drugbank_target|P39639 Bacilysin biosynthesis protein BacB (DB03884)
 OpenBabel12092120513D

  0  0  0     0  0            999 V3000
M  V30 BEGIN CTAB
M  V30 COUNTS 3718 3763 0 0 0
M  V30 BEGIN ATOM
M  V30 1 H -0.908 1.98254 -0.117106 0
M  V30 2 N 0 1.576 0 0
M  V30 3 C 0.933 2.03868 1.02534 0
M  V30 4 C 1.911 0.928543 1.3348 0
M  V30 5 O 3.095 1.19667 1.45644 0
M  V30 6 C 0.222 2.43627 2.35294 0
M  V30 7 C -0.732 3.65373 2.2001 0
M  V30 8 S 0.101 5.13292 1.52614 0
M  V30 9 C 1.257 5.56322 2.86805 0
M  V30 10 H 1.49 2.90518 0.631377 0
M  V30 11 H -0.977 1.52953 0.210867 0
M  V30 12 H 0.981 2.67203 3.11629 0
M  V30 13 H -0.358 1.57376 2.7183 0
M  V30 14 H -1.165 3.90944 3.18086 0
M  V30 15 H -1.563 3.418 1.51819 0
M  V30 16 H 0.729 5.58782 3.83104 0
M  V30 17 H 1.672 6.56266 2.65933 0
M  V30 18 H 2.08 4.83886 2.90714 0
M  V30 19 N 1.4781 -0.272755 1.55222 0
M  V30 20 C 2.4251 -1.33716 1.88119 0
M  V30 21 C 3.3951 -1.49066 0.73271 0
M  V30 22 O 4.5801 -1.63469 0.984002 0
M  V30 23 C 1.7201 -2.69238 2.15882 0
M  V30 24 C 0.8331 -2.62108 3.43399 0
M  V30 25 C -0.0319 -3.89811 3.60861 0
M  V30 26 C -0.9929 -3.77193 4.8207 0
M  V30 27 N -1.8559 -4.9673 4.96189 0
M  V30 28 H 2.9841 -1.04962 2.78903 0
M  V30 29 H 0.5211 -0.507088 1.38083 0
M  V30 30 H 2.4791 -3.48089 2.29978 0
M  V30 31 H 1.1091 -2.96194 1.28331 0
M  V30 32 H 0.1611 -1.74967 3.37773 0
M  V30 33 H 1.4731 -2.48685 4.32386 0
M  V30 34 H 0.6271 -4.77103 3.74777 0
M  V30 35 H -0.6339 -4.06102 2.7006 0
M  V30 36 H -1.6289 -2.88284 4.68159 0
M  V30 37 H -0.4039 -3.62421 5.74307 0
M  V30 38 H -2.4579 -5.13431 4.08319 0
M  V30 39 H -2.5409 -4.85839 5.79221 0
M  V30 40 H -1.2729 -5.85594 5.1449 0
M  V30 41 N 2.9562 -1.48159 -0.537278 0
M  V30 42 C 4.1842 -1.59454 -1.31841 0
M  V30 43 C 4.5992 -0.252065 -1.8711 0
M  V30 44 O 3.9562 0.757621 -1.66031 0
M  V30 45 C 4.0072 -2.63546 -2.47439 0
M  V30 46 O 3.7282 -3.92583 -1.94449 0
M  V30 47 C 5.2292 -2.85212 -3.39366 0
M  V30 48 H 2.4492 -0.53785 -0.401196 0
M  V30 49 H 4.9932 -1.93932 -0.648891 0
M  V30 50 H 3.1482 -2.31946 -3.1029 0
M  V30 51 H 3.5622 -4.49629 -2.70063 0
M  V30 52 H 5.0362 -3.61863 -4.16844 0
M  V30 53 H 5.5132 -1.93765 -3.94147 0
M  V30 54 H 6.1192 -3.18086 -2.82314 0
M  V30 55 N 4.4343 0.785586 -1.36625 0
M  V30 56 C 5.3813 1.89838 -1.31264 0
M  V30 57 C 6.3513 1.65115 -0.180633 0
M  V30 58 O 7.5363 1.87222 -0.36777 0
M  V30 59 C 4.6763 3.26706 -1.11163 0
M  V30 60 C 3.7893 3.63476 -2.33472 0
M  V30 61 C 2.9243 4.89481 -2.06353 0
M  V30 62 C 1.9633 5.18941 -3.24602 0
M  V30 63 N 1.1003 6.36131 -2.97123 0
M  V30 64 H 5.9403 1.93756 -2.26413 0
M  V30 65 H 3.4773 0.947454 -1.12524 0
M  V30 66 H 5.4353 4.05639 -0.975337 0
M  V30 67 H 4.0653 3.222 -0.196674 0
M  V30 68 H 3.1173 2.79636 -2.57891 0
M  V30 69 H 4.4293 3.81193 -3.21704 0
M  V30 70 H 3.5833 5.76288 -1.89675 0
M  V30 71 H 2.3223 4.73841 -1.15437 0
M  V30 72 H 1.3273 4.30615 -3.41834 0
M  V30 73 H 2.5523 5.36498 -4.16349 0
M  V30 74 H 0.4983 6.21875 -2.08823 0
M  V30 75 H 0.4153 6.54198 -3.78894 0
M  V30 76 H 1.6833 7.2591 -2.84033 0
M  V30 77 N 5.9124 1.20967 1.01018 0
M  V30 78 C 6.8224 0.980157 2.13143 0
M  V30 79 C 7.8384 -0.0660665 1.73875 0
M  V30 80 O 9.0144 0.122821 2.01025 0
M  V30 81 C 6.0794 0.54216 3.42435 0
M  V30 82 C 5.1404 1.65999 3.95908 0
M  V30 83 C 4.3734 1.2428 5.19028 0
M  V30 84 O 4.5964 0.114196 5.70286 0
M  V30 85 O 3.5304 2.05271 5.65816 0
M  V30 86 H 7.3564 1.91913 2.35379 0
M  V30 87 H 4.9414 0.994099 1.11526 0
M  V30 88 H 6.8234 0.30744 4.20277 0
M  V30 89 H 5.4984 -0.36815 3.216 0
M  V30 90 H 4.4054 1.94906 3.19316 0
M  V30 91 H 5.7384 2.54753 4.21143 0
M  V30 92 N 7.3905 -1.2043 1.01659 0
M  V30 93 C 8.6675 -1.8548 0.621004 0
M  V30 94 C 9.0475 -1.9091 -0.900919 0
M  V30 95 O 8.3955 -1.41694 -1.79263 0
M  V30 96 C 8.6055 -3.25119 1.2688 0
M  V30 97 C 9.9535 -4.01403 1.38423 0
M  V30 98 O 10.9775 -3.34473 1.22501 0
M  V30 99 O 9.8365 -5.21265 1.64151 0
M  V30 100 H 6.9305 -0.798761 0.214266 0
M  V30 101 H 9.4765 -1.28019 1.11396 0
M  V30 102 H 8.2485 -3.15932 2.30873 0
M  V30 103 H 7.8715 -3.90212 0.762917 0
M  V30 104 N 8.8686 -0.792821 -1.36206 0
M  V30 105 C 9.8016 -0.139422 -2.27774 0
M  V30 106 C 10.7796 0.68649 -1.47398 0
M  V30 107 O 11.9636 0.656738 -1.7669 0
M  V30 108 C 9.0906 0.807947 -3.28922 0
M  V30 109 C 8.1366 0.0633999 -4.26453 0
M  V30 110 S 8.9696 -1.26319 -5.20388 0
M  V30 111 C 10.1256 -0.31991 -6.25082 0
M  V30 112 H 10.3586 -0.915809 -2.82843 0
M  V30 113 H 7.8916 -0.587203 -1.42798 0
M  V30 114 H 9.8496 1.34908 -3.87699 0
M  V30 115 H 8.5106 1.55761 -2.72759 0
M  V30 116 H 7.7036 0.782386 -4.9789 0
M  V30 117 H 7.3056 -0.407352 -3.71775 0
M  V30 118 H 9.5976 0.499985 -6.75653 0
M  V30 119 H 10.5406 -1.00307 -7.00959 0
M  V30 120 H 10.9486 0.0782694 -5.64446 0
M  V30 121 N 10.3467 1.47872 -0.545128 0
M  V30 122 C 11.2787 2.27869 0.246621 0
M  V30 123 C 12.2917 1.36282 0.890561 0
M  V30 124 O 13.4807 1.61207 0.766449 0
M  V30 125 C 10.5807 3.10159 1.36582 0
M  V30 126 C 9.7537 4.29627 0.820954 0
M  V30 127 C 8.8127 4.93607 1.82314 0
M  V30 128 O 7.8387 5.52366 1.37406 0
M  V30 129 N 9.0407 4.87211 3.15603 0
M  V30 130 H 11.8057 2.96459 -0.439539 0
M  V30 131 H 9.3667 1.57367 -0.380421 0
M  V30 132 H 11.3587 3.49829 2.03474 0
M  V30 133 H 9.9287 2.43891 1.9554 0
M  V30 134 H 9.1487 3.94192 -0.0244032 0
M  V30 135 H 10.4367 5.06928 0.436063 0
M  V30 136 H 9.8347 4.40651 3.54744 0
M  V30 137 H 8.3917 5.30937 3.78087 0
M  V30 138 N 11.8248 0.280983 1.55075 0
M  V30 139 C 12.7348 -0.61388 2.26426 0
M  V30 140 C 13.7508 -1.16521 1.29224 0
M  V30 141 O 14.9268 -1.19426 1.62171 0
M  V30 142 C 11.9918 -1.7788 2.9759 0
M  V30 143 C 11.0528 -1.26355 4.10284 0
M  V30 144 C 10.2858 -2.37295 4.78045 0
M  V30 145 O 10.5088 -3.56777 4.45047 0
M  V30 146 O 9.4428 -2.05119 5.65871 0
M  V30 147 H 13.2688 -0.0356932 3.03679 0
M  V30 148 H 10.8538 0.0481686 1.49322 0
M  V30 149 H 12.7358 -2.45791 3.42293 0
M  V30 150 H 11.4108 -2.34397 2.23249 0
M  V30 151 H 10.3178 -0.550735 3.70024 0
M  V30 152 H 11.6508 -0.744065 4.86543 0
M  V30 153 N 13.3029 -1.57598 0.00835791 0
M  V30 154 C 14.2329 -2.1198 -0.979113 0
M  V30 155 C 15.2139 -1.03091 -1.35301 0
M  V30 156 O 16.3989 -1.30818 -1.43528 0
M  V30 157 C 13.5289 -2.62995 -2.26828 0
M  V30 158 C 12.4829 -3.76485 -2.03576 0
M  V30 159 C 11.8089 -4.13846 -3.38579 0
M  V30 160 C 13.1089 -5.0342 -1.39161 0
M  V30 161 H 14.8029 -2.94738 -0.526281 0
M  V30 162 H 12.3489 -1.41783 -0.251704 0
M  V30 163 H 14.3019 -2.99669 -2.96271 0
M  V30 164 H 13.0259 -1.7737 -2.7424 0
M  V30 165 H 11.6849 -3.40217 -1.36557 0
M  V30 166 H 11.3329 -3.25232 -3.83709 0
M  V30 167 H 11.0329 -4.90312 -3.23834 0
M  V30 168 H 12.5569 -4.53086 -4.09323 0
M  V30 169 H 13.9709 -5.37812 -1.98573 0
M  V30 170 H 12.3679 -5.84746 -1.34878 0
M  V30 171 H 13.4379 -4.83548 -0.361868 0
M  V30 172 N 14.781 0.264519 -1.55364 0
M  V30 173 C 16.011 1.01153 -1.80143 0
M  V30 174 C 16.419 1.80115 -0.579253 0
M  V30 175 O 15.762 1.77813 0.46132 0
M  V30 176 C 15.824 2.01098 -2.97993 0
M  V30 177 C 15.488 1.40995 -4.34706 0
M  V30 178 C 16.485 0.821316 -5.13372 0
M  V30 179 C 14.17 1.43461 -4.81378 0
M  V30 180 C 16.164 0.265339 -6.36847 0
M  V30 181 C 13.851 0.874771 -6.04807 0
M  V30 182 C 14.849 0.291146 -6.82379 0
M  V30 183 O 14.537 -0.260093 -8.03479 0
M  V30 184 H 14.269 0.304125 -0.603725 0
M  V30 185 H 16.823 0.298089 -2.03225 0
M  V30 186 H 15.053 2.76224 -2.70623 0
M  V30 187 H 16.742 2.61997 -3.1002 0
M  V30 188 H 17.508 0.794903 -4.78442 0
M  V30 189 H 13.387 1.87826 -4.21002 0
M  V30 190 H 16.931 -0.190837 -6.97339 0
M  V30 191 H 12.828 0.898452 -6.39217 0
M  V30 192 H 13.596 -0.150265 -8.18362 0
M  V30 193 N 16.2591 1.48442 0.529413 0
M  V30 194 C 17.5061 1.56488 1.28521 0
M  V30 195 C 17.8341 0.239042 1.93025 0
M  V30 196 O 17.0891 -0.770713 1.79885 0
M  V30 197 C 17.3881 2.6523 2.39558 0
M  V30 198 C 17.0541 4.07648 1.92702 0
M  V30 199 C 15.7161 4.46411 1.79641 0
M  V30 200 C 18.0681 4.96896 1.573 0
M  V30 201 C 15.3961 5.72226 1.29514 0
M  V30 202 C 17.7481 6.23202 1.08636 0
M  V30 203 C 16.4121 6.60821 0.941919 0
M  V30 204 H 15.6821 0.572631 0.470292 0
M  V30 205 H 18.3291 1.82161 0.59072 0
M  V30 206 H 16.6341 2.33419 3.14679 0
M  V30 207 H 18.3311 2.68671 2.97686 0
M  V30 208 H 14.9211 3.77036 2.03819 0
M  V30 209 H 19.1051 4.67626 1.66251 0
M  V30 210 H 14.3611 6.00097 1.17019 0
M  V30 211 H 18.5351 6.91753 0.803136 0
M  V30 212 H 16.1621 7.58198 0.5513 0
M  V30 213 N 17.7372 -0.778329 1.37039 0
M  V30 214 C 19.1482 -1.35421 1.28523 0
M  V30 215 C 19.4992 -1.96075 -0.0700901 0
M  V30 216 O 18.6242 -1.93352 -0.971801 0
M  V30 217 C 19.2192 -2.46211 2.32735 0
M  V30 218 C 17.7782 -2.99585 2.27873 0
M  V30 219 C 16.9252 -1.72748 2.16918 0
M  V30 220 H 19.8762 -0.5791 1.47757 0
M  V30 221 H 19.8972 -3.2552 1.9702 0
M  V30 222 H 19.4092 -2.02036 3.31365 0
M  V30 223 H 17.5102 -3.48152 1.32745 0
M  V30 224 H 17.6232 -3.55646 3.21018 0
M  V30 225 H 15.9872 -1.95416 1.63354 0
M  V30 226 H 16.7702 -1.30686 3.17452 0
M  V30 227 N 19.2153 -1.21501 -1.00376 0
M  V30 228 C 20.4433 -1.059 -1.77744 0
M  V30 229 C 20.8583 0.391125 -1.84704 0
M  V30 230 O 20.2153 1.27133 -1.30933 0
M  V30 231 C 20.2663 -1.65111 -3.21591 0
M  V30 232 O 19.9873 -3.0445 -3.15027 0
M  V30 233 C 21.4883 -1.54637 -4.15454 0
M  V30 234 H 18.7083 -0.371825 -0.558558 0
M  V30 235 H 21.2523 -1.60865 -1.26264 0
M  V30 236 H 19.4073 -1.14235 -3.70175 0
M  V30 237 H 19.8213 -3.3278 -4.0541 0
M  V30 238 H 21.2953 -2.00808 -5.14179 0
M  V30 239 H 21.7723 -0.501022 -4.36333 0
M  V30 240 H 22.3783 -2.04767 -3.72761 0
M  V30 241 N 20.6934 1.19889 -1.02296 0
M  V30 242 C 22.1044 1.71124 -0.746568 0
M  V30 243 C 22.4554 1.81939 0.734335 0
M  V30 244 O 21.5804 1.48639 1.57275 0
M  V30 245 C 22.1754 3.10804 -1.34857 0
M  V30 246 C 20.7344 3.59323 -1.1209 0
M  V30 247 C 19.8814 2.3635 -1.45031 0
M  V30 248 H 22.8324 1.04813 -1.19163 0
M  V30 249 H 22.8534 3.73186 -0.742437 0
M  V30 250 H 22.3654 3.029 -2.42638 0
M  V30 251 H 20.4664 3.7255 -0.0610337 0
M  V30 252 H 20.5794 4.4378 -1.80544 0
M  V30 253 H 18.9434 2.39399 -0.869487 0
M  V30 254 H 19.7264 2.31081 -2.53883 0
M  V30 255 N 22.1715 0.800033 1.35784 0
M  V30 256 C 23.1185 0.203848 2.29898 0
M  V30 257 C 24.0885 -0.658375 1.52495 0
M  V30 258 O 25.2735 -0.604832 1.8096 0
M  V30 259 C 22.4135 -0.64688 3.38983 0
M  V30 260 C 21.5265 0.235054 4.3136 0
M  V30 261 C 20.6615 -0.623054 5.27533 0
M  V30 262 C 19.7005 0.259682 6.11549 0
M  V30 263 N 18.8375 -0.558019 6.99879 0
M  V30 264 H 23.6775 1.01186 2.80295 0
M  V30 265 H 21.2145 0.51053 1.37957 0
M  V30 266 H 23.1725 -1.15521 4.00887 0
M  V30 267 H 21.8025 -1.42021 2.89879 0
M  V30 268 H 20.8545 0.861438 3.70518 0
M  V30 269 H 22.1665 0.914768 4.9034 0
M  V30 270 H 21.3205 -1.19678 5.94779 0
M  V30 271 H 20.0595 -1.33636 4.69034 0
M  V30 272 H 19.0645 0.845726 5.43256 0
M  V30 273 H 20.2895 0.970748 6.72126 0
M  V30 274 H 18.2355 -1.25542 6.43875 0
M  V30 275 H 18.1525 0.0637872 7.55973 0
M  V30 276 H 19.4205 -1.11523 7.71481 0
M  V30 277 N 23.6496 -1.47581 0.552962 0
M  V30 278 C 24.5796 -2.32762 -0.185451 0
M  V30 279 C 25.5606 -1.43527 -0.912905 0
M  V30 280 O 26.7456 -1.72388 -0.894201 0
M  V30 281 C 23.8756 -3.25219 -1.21859 0
M  V30 282 C 22.8296 -4.23661 -0.607864 0
M  V30 283 C 22.1556 -5.05413 -1.74533 0
M  V30 284 C 23.4556 -5.20481 0.435582 0
M  V30 285 H 25.1496 -2.94749 0.525684 0
M  V30 286 H 22.6956 -1.41738 0.254251 0
M  V30 287 H 24.6486 -3.8365 -1.7433 0
M  V30 288 H 23.3726 -2.61279 -1.95961 0
M  V30 289 H 22.0316 -3.66451 -0.104489 0
M  V30 290 H 21.6796 -4.3788 -2.47529 0
M  V30 291 H 21.3796 -5.72059 -1.34249 0
M  V30 292 H 22.9036 -5.66701 -2.27338 0
M  V30 293 H 24.3176 -5.733 -0.00290157 0
M  V30 294 H 22.7146 -5.95305 0.757067 0
M  V30 295 H 23.7846 -4.66217 1.33303 0
M  V30 296 N 25.1277 -0.289203 -1.54924 0
M  V30 297 C 26.3767 0.324231 -1.99077 0
M  V30 298 C 26.6897 1.5591 -1.18117 0
M  V30 299 O 27.8957 2.24637 -1.52481 0
M  V30 300 C 26.3517 0.628209 -3.54375 0
M  V30 301 C 25.9597 -0.587647 -4.44129 0
M  V30 302 C 27.7037 1.20349 -4.07083 0
M  V30 303 C 25.6107 -0.257475 -5.90839 0
M  V30 304 H 24.5407 0.124924 -0.743579 0
M  V30 305 H 27.1917 -0.396063 -1.79175 0
M  V30 306 H 25.5737 1.40778 -3.70132 0
M  V30 307 H 26.7477 -1.36418 -4.40144 0
M  V30 308 H 25.0627 -1.08074 -4.0213 0
M  V30 309 H 27.6597 1.46456 -5.14252 0
M  V30 310 H 28.0027 2.14195 -3.56968 0
M  V30 311 H 28.5357 0.485889 -3.94821 0
M  V30 312 H 25.2747 -1.16419 -6.45079 0
M  V30 313 H 24.7947 0.482018 -5.9786 0
M  V30 314 H 26.4737 0.145238 -6.46837 0
M  V30 315 N 26.6058 1.57591 -0.0167156 0
M  V30 316 C 27.5158 2.1291 0.98521 0
M  V30 317 C 28.5318 1.07834 1.36557 0
M  V30 318 O 29.7078 1.39826 1.44951 0
M  V30 319 C 26.7728 2.63512 2.25305 0
M  V30 320 C 25.8338 3.83256 1.93426 0
M  V30 321 C 25.0668 4.31435 3.14165 0
M  V30 322 O 25.2898 3.78851 4.26413 0
M  V30 323 O 24.2238 5.23416 2.97186 0
M  V30 324 H 28.0498 2.98772 0.544888 0
M  V30 325 H 25.6348 1.48012 0.203141 0
M  V30 326 H 27.5168 2.96183 2.99756 0
M  V30 327 H 26.1918 1.8074 2.68542 0
M  V30 328 H 25.0988 3.55531 1.16398 0
M  V30 329 H 26.4318 4.67153 1.55013 0
M  V30 330 N 28.0839 -0.256276 1.55502 0
M  V30 331 C 29.3299 -0.982884 1.78076 0
M  V30 332 C 29.6849 -1.83319 0.584109 0
M  V30 333 O 28.9779 -1.86875 -0.422877 0
M  V30 334 C 29.1719 -1.88432 3.03691 0
M  V30 335 C 29.0009 -1.12276 4.35459 0
M  V30 336 C 27.7709 -0.831647 4.98409 0
M  V30 337 C 29.9689 -0.504933 5.11815 0
M  V30 338 N 27.9509 -0.0450423 6.13883 0
M  V30 339 C 29.3219 0.146696 6.19826 0
M  V30 340 C 31.3769 -0.414455 4.96172 0
M  V30 341 C 30.0799 0.880103 7.13895 0
M  V30 342 C 32.1059 0.305398 5.90611 0
M  V30 343 C 31.4679 0.945701 6.98023 0
M  V30 344 H 27.5669 -0.341084 0.703694 0
M  V30 345 H 30.1509 -0.256909 1.92998 0
M  V30 346 H 28.3219 -2.58241 2.90114 0
M  V30 347 H 30.0539 -2.54579 3.14598 0
M  V30 348 H 26.8089 -1.14111 4.59647 0
M  V30 349 H 27.2329 0.336079 6.76165 0
M  V30 350 H 31.8749 -0.895163 4.13215 0
M  V30 351 H 29.5929 1.37244 7.9636 0
M  V30 352 H 33.1789 0.375946 5.80584 0
M  V30 353 H 32.0589 1.49383 7.6984 0
M  V30 354 N 29.562 -1.4872 -0.521534 0
M  V30 355 C 30.472 -1.66569 -1.65203 0
M  V30 356 C 31.488 -0.548197 -1.65139 0
M  V30 357 O 32.664 -0.820339 -1.83936 0
M  V30 358 C 29.729 -1.70917 -3.01642 0
M  V30 359 C 28.79 -2.94356 -3.12495 0
M  V30 360 C 28.023 -2.98487 -4.42426 0
M  V30 361 O 28.246 -2.10786 -5.30024 0
M  V30 362 O 27.18 -3.90746 -4.57822 0
M  V30 363 H 31.006 -2.62298 -1.5308 0
M  V30 364 H 28.591 -1.3222 -0.695565 0
M  V30 365 H 30.473 -1.7625 -3.82771 0
M  V30 366 H 29.148 -0.783633 -3.14071 0
M  V30 367 H 28.055 -2.94552 -2.3063 0
M  V30 368 H 29.388 -3.86322 -3.04986 0
M  V30 369 N 31.0401 0.771051 -1.3745 0
M  V30 370 C 31.9881 1.90574 -1.33358 0
M  V30 371 C 32.9821 1.67936 -0.22224 0
M  V30 372 O 34.1881 1.75717 -0.390304 0
M  V30 373 H 30.5631 0.626714 -0.415612 0
M  V30 374 H 32.5341 1.91142 -2.29144 0
M  V30 375 C 31.2831 3.27845 -1.15813 0
M  V30 376 H 30.6061 3.45842 -2.00583 0
M  V30 377 H 32.0461 4.07538 -1.17 0
M  V30 378 C 30.5051 3.36625 0.136165 0
M  V30 379 O 31.0351 3.85785 1.11949 0
M  V30 380 N 29.2411 2.89997 0.187099 0
M  V30 381 H 28.7881 2.50182 -0.613753 0
M  V30 382 H 28.7461 2.96252 1.05272 0
M  V30 383 N 32.5182 1.22032 0.997298 0
M  V30 384 C 33.7662 1.04016 1.73278 0
M  V30 385 C 34.0872 -0.426255 1.90284 0
M  V30 386 O 33.3572 -1.30694 1.45931 0
M  V30 387 H 31.9372 0.381897 0.642 0
M  V30 388 H 34.5992 1.5347 1.20137 0
M  V30 389 H 33.6952 1.51441 2.72896 0
M  V30 390 N 33.9963 -1.19345 1.0293 0
M  V30 391 C 35.2423 -1.89318 0.727083 0
M  V30 392 C 35.5753 -1.79446 -0.742483 0
M  V30 393 O 34.8503 -1.1871 -1.54072 0
M  V30 394 C 35.1333 -3.40238 1.17942 0
M  V30 395 C 34.9863 -3.58979 2.71024 0
M  V30 396 C 36.3053 -4.33479 0.760548 0
M  V30 397 H 33.4243 -0.687475 0.265606 0
M  V30 398 H 36.0663 -1.40477 1.2793 0
M  V30 399 H 34.2163 -3.81964 0.709608 0
M  V30 400 H 35.8883 -3.26421 3.25955 0
M  V30 401 H 34.1313 -3.02018 3.11396 0
M  V30 402 H 34.8023 -4.64823 2.9773 0
M  V30 403 H 37.2783 -3.99469 1.16464 0
M  V30 404 H 36.1543 -5.37664 1.10493 0
M  V30 405 H 36.4153 -4.40813 -0.337063 0
M  V30 406 N 35.4744 -0.807222 -1.35358 0
M  V30 407 C 36.8904 -0.491038 -1.51858 0
M  V30 408 C 37.0904 0.987648 -1.75635 0
M  V30 409 O 36.1464 1.77265 -1.79815 0
M  V30 410 C 37.4594 -1.33695 -2.69344 0
M  V30 411 C 39.0074 -1.33246 -2.83222 0
M  V30 412 C 39.4824 -2.1625 -4.03733 0
M  V30 413 N 40.9734 -2.1379 -4.10911 0
M  V30 414 C 41.7084 -2.74772 -5.03277 0
M  V30 415 N 41.2044 -3.44684 -6.0097 0
M  V30 416 N 42.9974 -2.6441 -4.96028 0
M  V30 417 H 35.1484 -1.76485 -1.18181 0
M  V30 418 H 37.4114 -0.751199 -0.578276 0
M  V30 419 H 37.1174 -2.38634 -2.58354 0
M  V30 420 H 36.9914 -0.990618 -3.6396 0
M  V30 421 H 39.3784 -0.290911 -2.93663 0
M  V30 422 H 39.4594 -1.71866 -1.89461 0
M  V30 423 H 39.1034 -3.20445 -3.94052 0
M  V30 424 H 39.0334 -1.74989 -4.96675 0
M  V30 425 H 41.5244 -1.62923 -3.40976 0
M  V30 426 H 41.8374 -3.88501 -6.68047 0
M  V30 427 H 40.1824 -3.48788 -6.01142 0
M  V30 428 H 43.3734 -2.0938 -4.18662 0
M  V30 429 H 43.5464 -3.12225 -5.6782 0
M  V30 430 N 36.9525 1.47285 -0.560781 0
M  V30 431 C 37.8845 2.28118 0.222438 0
M  V30 432 C 38.8975 1.37219 0.876056 0
M  V30 433 O 40.0865 1.62011 0.749307 0
M  V30 434 C 37.1865 3.1159 1.33285 0
M  V30 435 C 36.3595 4.30473 0.77534 0
M  V30 436 C 35.4185 4.95513 1.77069 0
M  V30 437 O 34.4445 5.53792 1.31539 0
M  V30 438 N 35.6465 4.90531 3.10418 0
M  V30 439 H 38.4115 2.95976 -0.470958 0
M  V30 440 H 35.9725 1.56955 -0.39709 0
M  V30 441 H 37.9645 3.51967 1.99752 0
M  V30 442 H 36.5345 2.45951 1.92943 0
M  V30 443 H 35.7545 3.94144 -0.0662113 0
M  V30 444 H 37.0425 5.07362 0.382272 0
M  V30 445 H 36.4405 4.44389 3.5005 0
M  V30 446 H 34.9975 5.34917 3.72434 0
M  V30 447 N 38.4306 0.297415 1.54768 0
M  V30 448 C 39.6606 -0.315165 2.04182 0
M  V30 449 C 40.0686 -1.4834 1.17439 0
M  V30 450 O 39.4116 -1.82695 0.191891 0
M  V30 451 C 39.4736 -0.837583 3.49607 0
M  V30 452 C 39.1376 0.204912 4.5654 0
M  V30 453 C 40.1346 1.03214 5.09552 0
M  V30 454 C 37.8196 0.345578 5.0111 0
M  V30 455 C 39.8136 1.986 6.05671 0
M  V30 456 C 37.5006 1.30289 5.97049 0
M  V30 457 C 38.4986 2.12159 6.49213 0
M  V30 458 O 38.1866 3.06268 7.43273 0
M  V30 459 H 37.9186 -0.0729646 0.672051 0
M  V30 460 H 40.4726 0.433907 2.00765 0
M  V30 461 H 38.7026 -1.63712 3.50336 0
M  V30 462 H 40.3916 -1.36566 3.82236 0
M  V30 463 H 41.1576 0.934312 4.75916 0
M  V30 464 H 37.0366 -0.28171 4.60138 0
M  V30 465 H 40.5806 2.62542 6.46311 0
M  V30 466 H 36.4776 1.40145 6.30103 0
M  V30 467 H 37.2456 3.01205 7.61064 0
M  V30 468 N 39.9087 -1.5758 0.0250728 0
M  V30 469 C 41.1337 -1.96337 -0.668317 0
M  V30 470 C 41.5587 -0.901314 -1.651 0
M  V30 471 O 40.9167 0.138187 -1.80773 0
M  V30 472 C 40.9647 -3.34191 -1.35457 0
M  V30 473 O 40.0687 -3.30269 -2.46974 0
M  V30 474 H 39.4097 -0.640281 -0.175887 0
M  V30 475 H 41.9397 -2.0442 0.0857224 0
M  V30 476 H 41.9497 -3.70331 -1.71228 0
M  V30 477 H 40.6247 -4.11036 -0.634218 0
M  V30 478 H 39.2017 -3.05841 -2.13344 0
M  V30 479 N 41.3868 0.248026 -1.55636 0
M  V30 480 C 42.6148 0.993808 -1.81469 0
M  V30 481 C 43.0298 1.78991 -0.60064 0
M  V30 482 O 42.3868 1.77345 0.430682 0
M  V30 483 C 42.4378 1.93258 -3.05506 0
M  V30 484 O 42.1588 1.16869 -4.22224 0
M  V30 485 C 43.6598 2.79444 -3.4413 0
M  V30 486 H 40.8798 0.292486 -0.603898 0
M  V30 487 H 43.4238 0.271253 -2.02693 0
M  V30 488 H 41.5788 2.60943 -2.86335 0
M  V30 489 H 41.9928 1.80359 -4.92515 0
M  V30 490 H 43.4668 3.41066 -4.34026 0
M  V30 491 H 43.9438 3.50499 -2.64665 0
M  V30 492 H 44.5498 2.17214 -3.65648 0
M  V30 493 N 42.8649 1.48995 0.513639 0
M  V30 494 C 44.1109 1.58076 1.27042 0
M  V30 495 C 44.4439 0.261026 1.92438 0
M  V30 496 O 43.7189 -0.734393 1.80103 0
M  V30 497 C 44.0019 2.73091 2.34719 0
M  V30 498 C 43.8549 4.14821 1.73907 0
M  V30 499 C 45.1739 2.83796 3.36375 0
M  V30 500 H 42.2929 0.575391 0.460536 0
M  V30 501 H 44.9349 1.81232 0.570516 0
M  V30 502 H 43.0849 2.53479 2.94416 0
M  V30 503 H 44.7569 4.45917 1.18135 0
M  V30 504 H 42.9999 4.21058 1.0437 0
M  V30 505 H 43.6709 4.91147 2.51949 0
M  V30 506 H 46.1469 3.01611 2.86653 0
M  V30 507 H 45.0229 3.65971 4.09093 0
M  V30 508 H 45.2839 1.92624 3.9793 0
M  V30 509 N 44.343 -0.763751 1.37857 0
M  V30 510 C 45.759 -1.06542 1.18832 0
M  V30 511 C 45.959 -2.01478 0.0299722 0
M  V30 512 O 45.015 -2.4458 -0.627447 0
M  V30 513 C 46.328 -1.65525 2.51042 0
M  V30 514 C 47.876 -1.77745 2.57635 0
M  V30 515 C 48.351 -2.4014 3.89996 0
M  V30 516 N 49.842 -2.47582 3.91481 0
M  V30 517 C 50.577 -2.96732 4.9065 0
M  V30 518 N 50.073 -3.45993 6.00217 0
M  V30 519 N 51.866 -2.95679 4.78048 0
M  V30 520 H 44.017 -0.133556 2.1198 0
M  V30 521 H 46.28 -0.121879 0.940133 0
M  V30 522 H 45.986 -1.03236 3.36207 0
M  V30 523 H 45.86 -2.64719 2.68707 0
M  V30 524 H 48.247 -2.39164 1.72872 0
M  V30 525 H 48.328 -0.772836 2.43846 0
M  V30 526 H 47.972 -1.79358 4.75177 0
M  V30 527 H 47.902 -3.41223 4.01092 0
M  V30 528 H 50.393 -2.1273 3.12337 0
M  V30 529 H 50.706 -3.81922 6.7183 0
M  V30 530 H 49.051 -3.44077 6.03851 0
M  V30 531 H 52.242 -2.56499 3.91568 0
M  V30 532 H 52.415 -3.33672 5.55488 0
M  V30 533 N 45.8211 -1.22559 -0.990812 0
M  V30 534 C 47.0691 -1.04933 -1.72724 0
M  V30 535 C 47.3901 0.416158 -1.90508 0
M  V30 536 O 46.6601 1.29918 -1.46622 0
M  V30 537 H 45.2401 -0.385296 -0.639965 0
M  V30 538 H 47.9021 -1.54105 -1.19322 0
M  V30 539 H 46.9981 -1.52886 -2.72089 0
M  V30 540 N 47.2992 1.18797 -1.03562 0
M  V30 541 C 48.5762 1.84469 -0.650434 0
M  V30 542 C 48.9562 1.92319 0.870433 0
M  V30 543 O 48.3042 1.44528 1.76986 0
M  V30 544 C 48.5142 3.2306 -1.32036 0
M  V30 545 C 49.8622 3.9915 -1.44792 0
M  V30 546 O 50.8862 3.32481 -1.27806 0
M  V30 547 O 49.7452 5.18587 -1.72423 0
M  V30 548 H 46.8392 0.795251 -0.226946 0
M  V30 549 H 49.3852 1.26231 -1.13419 0
M  V30 550 H 48.1572 3.1222 -2.3587 0
M  V30 551 H 47.7802 3.88949 -0.8249 0
M  V30 552 N 48.7773 0.814389 1.34928 0
M  V30 553 C 50.0053 0.411136 2.02774 0
M  V30 554 C 50.4203 -0.980316 1.61354 0
M  V30 555 O 49.7773 -1.63299 0.814847 0
M  V30 556 C 49.8283 0.493865 3.58111 0
M  V30 557 O 49.5493 1.83047 3.98027 0
M  V30 558 C 51.0503 0.0844174 4.4322 0
M  V30 559 H 48.2703 0.166037 0.650133 0
M  V30 560 H 50.8143 1.10018 1.72384 0
M  V30 561 H 48.9693 -0.147006 3.87121 0
M  V30 562 H 49.3833 1.79872 4.92693 0
M  V30 563 H 50.8573 0.193404 5.51661 0
M  V30 564 H 51.3343 -0.97113 4.28329 0
M  V30 565 H 51.9403 0.69875 4.19521 0
M  V30 566 N 50.2554 -1.46986 0.568584 0
M  V30 567 C 51.1654 -2.33942 -0.17555 0
M  V30 568 C 52.1814 -1.48891 -0.90041 0
M  V30 569 O 53.3574 -1.81794 -0.86676 0
M  V30 570 C 50.4224 -3.25811 -1.18524 0
M  V30 571 C 49.4834 -4.26757 -0.466582 0
M  V30 572 C 48.7164 -5.14236 -1.42817 0
M  V30 573 O 48.9394 -5.04379 -2.66379 0
M  V30 574 O 47.8734 -5.94412 -0.946453 0
M  V30 575 H 51.6994 -2.98896 0.538036 0
M  V30 576 H 49.2844 -1.4573 0.329097 0
M  V30 577 H 51.1664 -3.82527 -1.76779 0
M  V30 578 H 49.8414 -2.63471 -1.88055 0
M  V30 579 H 48.7484 -3.73769 0.157451 0
M  V30 580 H 50.0814 -4.91843 0.187485 0
M  V30 581 N 51.7335 -0.305618 -1.54608 0
M  V30 582 C 52.9795 0.302746 -2.00528 0
M  V30 583 C 53.3125 1.53184 -1.19367 0
M  V30 584 O 52.5875 1.92598 -0.271321 0
M  V30 585 C 52.8705 0.654756 -3.54097 0
M  V30 586 C 52.7235 -0.583793 -4.45995 0
M  V30 587 C 54.0425 1.47947 -4.14487 0
M  V30 588 H 51.1615 0.108564 -0.72896 0
M  V30 589 H 53.8035 -0.418634 -1.85331 0
M  V30 590 H 51.9535 1.26935 -3.67178 0
M  V30 591 H 53.6255 -1.22224 -4.44814 0
M  V30 592 H 51.8685 -1.21615 -4.16404 0
M  V30 593 H 52.5395 -0.293287 -5.5122 0
M  V30 594 H 55.0155 0.96013 -4.04871 0
M  V30 595 H 53.8915 1.69454 -5.22088 0
M  V30 596 H 54.1525 2.47011 -3.66658 0
M  V30 597 N 53.2116 1.57565 -0.0334293 0
M  V30 598 C 54.1416 2.13511 0.945265 0
M  V30 599 C 55.1226 1.05231 1.33643 0
M  V30 600 O 56.3076 1.33084 1.41429 0
M  V30 601 C 53.4376 2.6657 2.22616 0
M  V30 602 C 52.3916 3.79676 1.97561 0
M  V30 603 C 51.7176 4.1918 3.31952 0
M  V30 604 C 53.0176 5.0557 1.31135 0
M  V30 605 H 54.7116 2.95538 0.479325 0
M  V30 606 H 52.2576 1.42166 0.229115 0
M  V30 607 H 54.2106 3.04344 2.91466 0
M  V30 608 H 52.9346 1.8171 2.71384 0
M  V30 609 H 51.5936 3.42347 1.31127 0
M  V30 610 H 51.2416 3.31296 3.78487 0
M  V30 611 H 50.9416 4.95402 3.15992 0
M  V30 612 H 52.4656 4.59541 4.02063 0
M  V30 613 H 53.8796 5.40903 1.89992 0
M  V30 614 H 52.2766 5.86818 1.25559 0
M  V30 615 H 53.3466 4.84062 0.284894 0
M  V30 616 N 54.6897 -0.239769 1.55765 0
M  V30 617 C 55.6227 -1.32356 1.85895 0
M  V30 618 C 56.6007 -1.46053 0.714662 0
M  V30 619 O 57.7847 -1.62154 0.961157 0
M  V30 620 C 54.9117 -2.6962 2.04994 0
M  V30 621 C 53.9577 -2.73036 3.27648 0
M  V30 622 S 54.7907 -2.28929 4.84099 0
M  V30 623 C 55.9467 -3.68103 5.06212 0
M  V30 624 H 56.1797 -1.06601 2.77531 0
M  V30 625 H 53.7127 -0.441112 1.47965 0
M  V30 626 H 55.6707 -3.48653 2.16682 0
M  V30 627 H 54.3317 -2.92609 1.14188 0
M  V30 628 H 53.5247 -3.7386 3.38 0
M  V30 629 H 53.1267 -2.02052 3.14723 0
M  V30 630 H 55.4187 -4.63656 4.93993 0
M  V30 631 H 56.3617 -3.6268 6.08168 0
M  V30 632 H 56.7697 -3.60947 4.34025 0
M  V30 633 N 56.1678 -1.49265 -0.50573 0
M  V30 634 C 57.3928 -1.62478 -1.28902 0
M  V30 635 C 57.8178 -0.294332 -1.85783 0
M  V30 636 O 57.1758 0.737412 -1.65626 0
M  V30 637 C 57.2238 -2.69268 -2.39848 0
M  V30 638 O 56.3278 -2.28113 -3.43567 0
M  V30 639 H 55.6688 -0.54399 -0.380751 0
M  V30 640 H 58.1988 -1.95421 -0.605952 0
M  V30 641 H 58.2088 -2.91291 -2.85681 0
M  V30 642 H 56.8838 -3.65846 -1.97812 0
M  V30 643 H 55.4608 -2.16401 -3.03685 0
M  V30 644 N 57.6459 0.756429 -1.3826 0
M  V30 645 C 58.8759 1.54341 -1.3734 0
M  V30 646 C 59.2839 1.89159 0.0393917 0
M  V30 647 O 58.6269 1.5307 1.01565 0
M  V30 648 C 58.6889 2.87238 -2.16182 0
M  V30 649 C 58.3529 2.74973 -3.65019 0
M  V30 650 C 59.3499 2.44962 -4.58574 0
M  V30 651 C 57.0349 2.92515 -4.08338 0
M  V30 652 C 59.0289 2.32642 -5.93428 0
M  V30 653 C 56.7159 2.79815 -5.43274 0
M  V30 654 C 57.7139 2.49921 -6.35632 0
M  V30 655 O 57.4019 2.37275 -7.68086 0
M  V30 656 H 57.1339 0.484281 -0.471643 0
M  V30 657 H 59.6879 0.944152 -1.82414 0
M  V30 658 H 57.9179 3.49342 -1.65822 0
M  V30 659 H 59.6069 3.48731 -2.07705 0
M  V30 660 H 60.3729 2.31081 -4.26412 0
M  V30 661 H 56.2519 3.14781 -3.368 0
M  V30 662 H 59.7959 2.0923 -6.65484 0
M  V30 663 H 55.6929 2.93269 -5.75034 0
M  V30 664 H 56.4609 2.52509 -7.78577 0
M  V30 665 N 59.124 1.23083 0.984299 0
M  V30 666 C 60.37 1.06214 1.72761 0
M  V30 667 C 60.703 -0.400584 1.90024 0
M  V30 668 O 59.978 -1.29672 1.44967 0
M  V30 669 C 60.261 1.78375 3.12817 0
M  V30 670 C 60.114 3.32296 3.03149 0
M  V30 671 C 61.433 1.54309 4.12161 0
M  V30 672 H 58.552 0.387251 0.627061 0
M  V30 673 H 61.194 1.51536 1.14616 0
M  V30 674 H 59.344 1.39848 3.62457 0
M  V30 675 H 61.016 3.8032 2.61064 0
M  V30 676 H 59.259 3.6153 2.39747 0
M  V30 677 H 59.93 3.77972 4.02295 0
M  V30 678 H 62.406 1.87791 3.71314 0
M  V30 679 H 61.282 2.07281 5.08258 0
M  V30 680 H 61.543 0.477572 4.39513 0
M  V30 681 N 60.6021 -1.18246 1.0419 0
M  V30 682 C 62.0131 -1.69914 0.773698 0
M  V30 683 C 62.3641 -1.83085 -0.705297 0
M  V30 684 O 61.4891 -1.51123 -1.5489 0
M  V30 685 C 62.0841 -3.08619 1.39784 0
M  V30 686 C 60.6431 -3.57494 1.17792 0
M  V30 687 C 59.7901 -2.34013 1.48773 0
M  V30 688 H 62.7411 -1.02904 1.20816 0
M  V30 689 H 62.7621 -3.71958 0.801714 0
M  V30 690 H 62.2741 -2.99001 2.47426 0
M  V30 691 H 60.3751 -3.72406 0.120295 0
M  V30 692 H 60.4881 -4.40852 1.87581 0
M  V30 693 H 58.8521 -2.37986 0.907463 0
M  V30 694 H 59.6351 -2.27013 2.57527 0
M  V30 695 N 62.0802 -0.821533 -1.34494 0
M  V30 696 C 63.4912 -0.467956 -1.8074 0
M  V30 697 C 63.8422 1.01151 -1.68116 0
M  V30 698 O 62.9672 1.78707 -1.22036 0
M  V30 699 C 63.5622 -0.842627 -3.28154 0
M  V30 700 C 62.1212 -0.541439 -3.72485 0
M  V30 701 C 61.2682 -1.06028 -2.56229 0
M  V30 702 H 64.2192 -1.01183 -1.22261 0
M  V30 703 H 64.2402 -0.145876 -3.8022 0
M  V30 704 H 63.7522 -1.91945 -3.37311 0
M  V30 705 H 61.8532 0.526034 -3.68868 0
M  V30 706 H 61.9662 -1.08453 -4.66663 0
M  V30 707 H 60.3302 -0.481892 -2.501 0
M  V30 708 H 61.1132 -2.14352 -2.68157 0
M  V30 709 N 63.5583 1.46682 -0.576371 0
M  V30 710 C 64.5083 2.27278 0.181288 0
M  V30 711 C 65.4923 1.35497 0.867721 0
M  V30 712 O 66.6843 1.59717 0.762863 0
M  V30 713 C 63.8133 3.21703 1.19841 0
M  V30 714 C 62.8993 4.20969 0.51442 0
M  V30 715 N 63.2903 5.03999 -0.426407 0
M  V30 716 C 61.5883 4.39373 0.765963 0
M  V30 717 C 62.2893 5.75812 -0.825565 0
M  V30 718 N 61.2653 5.43315 -0.176116 0
M  V30 719 H 65.0673 2.88863 -0.541785 0
M  V30 720 H 62.5813 1.57455 -0.397697 0
M  V30 721 H 64.5783 3.78145 1.75533 0
M  V30 722 H 63.2383 2.61677 1.92238 0
M  V30 723 H 64.2493 5.11659 -0.8016 0
M  V30 724 H 60.9263 3.90502 1.47698 0
M  V30 725 H 62.3163 6.52577 -1.59976 0
M  V30 726 N 65.0364 0.313813 1.54444 0
M  V30 727 C 66.2644 -0.293918 2.04802 0
M  V30 728 C 66.6794 -1.46537 1.19047 0
M  V30 729 O 66.0364 -1.81182 0.218939 0
M  V30 730 C 66.0874 -0.737806 3.53891 0
M  V30 731 O 65.8084 0.387038 4.36387 0
M  V30 732 C 67.3094 -1.40936 4.203 0
M  V30 733 H 64.5294 -0.0620057 0.668129 0
M  V30 734 H 67.0734 0.457169 1.99324 0
M  V30 735 H 65.2284 -1.43889 3.59687 0
M  V30 736 H 65.6424 0.0391274 5.24485 0
M  V30 737 H 67.1164 -1.67099 5.26101 0
M  V30 738 H 67.5934 -2.35355 3.70816 0
M  V30 739 H 68.1994 -0.751117 4.18615 0
M  V30 740 N 66.5145 -1.57545 0.0417849 0
M  V30 741 C 67.4625 -2.12148 -0.953723 0
M  V30 742 C 68.4565 -1.05104 -1.32852 0
M  V30 743 O 69.6625 -1.23524 -1.30927 0
M  V30 744 H 66.0375 -0.677957 -0.325389 0
M  V30 745 H 68.0085 -2.94707 -0.467991 0
M  V30 746 C 66.7575 -2.6739 -2.22257 0
M  V30 747 H 66.0805 -3.49413 -1.94295 0
M  V30 748 H 67.5205 -3.09227 -2.90094 0
M  V30 749 C 65.9795 -1.60723 -2.96091 0
M  V30 750 O 66.5095 -1.01449 -3.88679 0
M  V30 751 N 64.7155 -1.32466 -2.58652 0
M  V30 752 H 64.2625 -1.80856 -1.83437 0
M  V30 753 H 64.2205 -0.61325 -3.08361 0
M  V30 754 N 67.9926 0.231505 -1.5589 0
M  V30 755 C 69.2386 0.95877 -1.78705 0
M  V30 756 C 69.5716 1.8438 -0.609725 0
M  V30 757 O 68.8466 1.90521 0.391426 0
M  V30 758 C 69.1296 1.8062 -3.11526 0
M  V30 759 C 68.9826 0.948328 -4.39689 0
M  V30 760 C 70.3016 2.78585 -3.40703 0
M  V30 761 H 67.4206 0.347129 -0.650131 0
M  V30 762 H 70.0626 0.228259 -1.88624 0
M  V30 763 H 68.2126 2.42902 -3.03201 0
M  V30 764 H 69.8846 0.343016 -4.60023 0
M  V30 765 H 68.1276 0.253314 -4.3306 0
M  V30 766 H 68.7986 1.57543 -5.29041 0
M  V30 767 H 71.2746 2.26439 -3.49091 0
M  V30 768 H 70.1506 3.34988 -4.34826 0
M  V30 769 H 70.4116 3.55825 -2.62375 0
M  V30 770 N 69.4707 1.49531 0.497807 0
M  V30 771 C 70.3807 1.69176 1.62532 0
M  V30 772 C 71.3967 0.5744 1.64246 0
M  V30 773 O 72.5727 0.849497 1.82608 0
M  V30 774 C 69.6377 1.75695 2.98885 0
M  V30 775 C 68.6987 2.9929 3.07773 0
M  V30 776 C 67.9317 3.05488 4.37622 0
M  V30 777 O 68.1547 2.19192 5.26603 0
M  V30 778 O 67.0887 3.9798 4.51548 0
M  V30 779 H 70.9147 2.647 1.48887 0
M  V30 780 H 68.4997 1.3331 0.674441 0
M  V30 781 H 70.3817 1.82317 3.79919 0
M  V30 782 H 69.0567 0.8335 3.12785 0
M  V30 783 H 67.9637 2.98183 2.25915 0
M  V30 784 H 69.2967 3.91125 2.98801 0
M  V30 785 N 70.9488 -0.749086 1.3866 0
M  V30 786 C 72.3598 -1.32664 1.31366 0
M  V30 787 C 72.7108 -1.96179 -0.028484 0
M  V30 788 O 71.8358 -1.9537 -0.93057 0
M  V30 789 C 72.4308 -2.41219 2.37905 0
M  V30 790 C 70.9898 -2.94684 2.34176 0
M  V30 791 C 70.1368 -1.68108 2.20533 0
M  V30 792 H 73.0878 -0.547628 1.48952 0
M  V30 793 H 73.1088 -3.21268 2.0388 0
M  V30 794 H 72.6208 -1.94962 3.35576 0
M  V30 795 H 70.7218 -3.45258 1.401 0
M  V30 796 H 70.8348 -3.48757 3.2849 0
M  V30 797 H 69.1988 -1.91907 1.67463 0
M  V30 798 H 69.9818 -1.23923 3.20153 0
M  V30 799 N 72.4269 -1.23603 -0.977757 0
M  V30 800 C 73.3769 -0.986664 -2.05545 0
M  V30 801 C 74.3609 0.0683009 -1.60755 0
M  V30 802 O 75.5529 -0.144162 -1.76412 0
M  V30 803 C 72.6819 -0.582623 -3.3832 0
M  V30 804 C 71.7679 -1.67313 -3.89701 0
M  V30 805 N 72.1589 -2.90394 -4.14132 0
M  V30 806 C 70.4569 -1.54832 -4.18262 0
M  V30 807 C 71.1579 -3.61017 -4.56116 0
M  V30 808 N 70.1339 -2.8854 -4.60701 0
M  V30 809 H 73.9359 -1.92139 -2.22396 0
M  V30 810 H 71.4499 -1.1358 -1.16074 0
M  V30 811 H 73.4469 -0.38524 -4.15116 0
M  V30 812 H 72.1069 0.34503 -3.22862 0
M  V30 813 H 73.1179 -3.26673 -4.01877 0
M  V30 814 H 69.7949 -0.687969 -4.11793 0
M  V30 815 H 71.1849 -4.66544 -4.83514 0
M  V30 816 N 73.905 1.17692 -1.04816 0
M  V30 817 C 74.837 2.21103 -0.603822 0
M  V30 818 C 75.85 1.59411 0.33046 0
M  V30 819 O 77.039 1.7807 0.12379 0
M  V30 820 C 74.139 3.38623 0.136898 0
M  V30 821 C 73.312 4.29888 -0.807137 0
M  V30 822 C 72.371 5.26088 -0.10836 0
M  V30 823 O 71.397 5.64353 -0.741232 0
M  V30 824 N 72.599 5.68882 1.15558 0
M  V30 825 H 75.364 2.59848 -1.49329 0
M  V30 826 H 72.925 1.32553 -0.929587 0
M  V30 827 H 74.917 4.00009 0.614401 0
M  V30 828 H 73.487 2.98508 0.927993 0
M  V30 829 H 72.707 3.65993 -1.46434 0
M  V30 830 H 73.995 4.87759 -1.44807 0
M  V30 831 H 73.393 5.39861 1.69015 0
M  V30 832 H 71.95 6.32429 1.57722 0
M  V30 833 N 75.3831 0.828654 1.34056 0
M  V30 834 C 76.3331 0.226828 2.26869 0
M  V30 835 C 77.3171 -0.612243 1.48796 0
M  V30 836 O 78.5091 -0.465884 1.70759 0
M  V30 837 C 75.6381 -0.605654 3.37915 0
M  V30 838 C 74.7241 0.244361 4.23395 0
M  V30 839 N 75.1151 1.31815 4.88322 0
M  V30 840 C 73.4131 0.0296616 4.4599 0
M  V30 841 C 74.1141 1.83895 5.51867 0
M  V30 842 N 73.0901 1.14196 5.3147 0
M  V30 843 H 76.8921 1.04811 2.74576 0
M  V30 844 H 74.4061 0.67205 1.47842 0
M  V30 845 H 76.4031 -1.05302 4.03382 0
M  V30 846 H 75.0631 -1.42504 2.91758 0
M  V30 847 H 76.0741 1.70099 4.8917 0
M  V30 848 H 72.7511 -0.757097 4.10578 0
M  V30 849 H 74.1411 2.7376 6.136 0
M  V30 850 N 76.8612 -1.46375 0.584142 0
M  V30 851 C 77.8082 -2.30323 -0.148286 0
M  V30 852 C 78.7782 -1.40703 -0.882713 0
M  V30 853 O 79.9632 -1.69651 -0.873099 0
M  V30 854 C 77.1032 -3.25196 -1.15507 0
M  V30 855 C 76.2162 -4.29915 -0.423943 0
M  V30 856 C 75.3512 -5.11914 -1.41838 0
M  V30 857 C 74.3902 -6.08381 -0.673736 0
M  V30 858 N 73.5272 -6.83242 -1.6163 0
M  V30 859 H 78.3672 -2.92427 0.573644 0
M  V30 860 H 75.9042 -1.44118 0.294703 0
M  V30 861 H 77.8622 -3.78646 -1.75166 0
M  V30 862 H 76.4922 -2.64898 -1.8447 0
M  V30 863 H 75.5442 -3.7931 0.287714 0
M  V30 864 H 76.8562 -4.98549 0.158128 0
M  V30 865 H 76.0102 -5.69648 -2.08773 0
M  V30 866 H 74.7492 -4.43243 -2.03438 0
M  V30 867 H 73.7542 -5.49799 0.00938483 0
M  V30 868 H 74.9792 -6.79071 -0.0631082 0
M  V30 869 H 72.9252 -6.1728 -2.22038 0
M  V30 870 H 72.8422 -7.48144 -1.08707 0
M  V30 871 H 74.1102 -7.45534 -2.27596 0
M  V30 872 N 78.3393 -0.321999 -1.54275 0
M  V30 873 C 79.2493 0.553631 -2.27974 0
M  V30 874 C 80.2653 1.13054 -1.32268 0
M  V30 875 O 81.4413 1.15084 -1.6528 0
M  V30 876 C 78.5063 1.69927 -3.02201 0
M  V30 877 C 77.5673 1.15433 -4.1349 0
M  V30 878 C 76.8003 2.24537 -4.84168 0
M  V30 879 O 77.0233 3.44852 -4.5435 0
M  V30 880 O 75.9573 1.90044 -5.7111 0
M  V30 881 H 79.7833 -0.0448345 -3.03667 0
M  V30 882 H 77.3683 -0.0877418 -1.49142 0
M  V30 883 H 79.2503 2.3663 -3.48689 0
M  V30 884 H 77.9253 2.28395 -2.29385 0
M  V30 885 H 76.8323 0.452436 -3.71354 0
M  V30 886 H 78.1653 0.614805 -4.88345 0
M  V30 887 N 79.8174 1.5752 -0.0501392 0
M  V30 888 C 81.0634 1.92936 0.624798 0
M  V30 889 C 81.3964 0.928685 1.70555 0
M  V30 890 O 80.6714 -0.0454779 1.94447 0
M  V30 891 C 80.9544 3.38737 1.22185 0
M  V30 892 C 80.8074 4.49552 0.149218 0
M  V30 893 C 82.1264 3.84913 2.13378 0
M  V30 894 H 79.2454 0.701604 0.225657 0
M  V30 895 H 81.8874 1.89671 -0.111693 0
M  V30 896 H 80.0374 3.4165 1.84953 0
M  V30 897 H 81.7094 4.58768 -0.482648 0
M  V30 898 H 79.9524 4.30638 -0.522841 0
M  V30 899 H 80.6234 5.48653 0.606966 0
M  V30 900 H 83.0994 3.8387 1.60572 0
M  V30 901 H 81.9754 4.87584 2.52097 0
M  V30 902 H 82.2364 3.21611 3.03346 0
M  V30 903 N 81.2955 -0.223234 1.56011 0
M  V30 904 C 82.2275 -1.30006 1.88762 0
M  V30 905 C 83.2405 -1.43129 0.775746 0
M  V30 906 O 84.4295 -1.44057 1.05403 0
M  V30 907 C 81.5295 -2.67589 2.07965 0
M  V30 908 C 80.7025 -2.76434 3.38973 0
M  V30 909 C 79.7615 -3.95019 3.47629 0
M  V30 910 O 78.7875 -3.83436 4.20672 0
M  V30 911 N 79.9895 -5.09249 2.78649 0
M  V30 912 H 82.7545 -1.02238 2.81722 0
M  V30 913 H 80.3155 -0.413278 1.56536 0
M  V30 914 H 82.3075 -3.45297 2.11073 0
M  V30 915 H 80.8775 -2.87964 1.21638 0
M  V30 916 H 80.0975 -1.85216 3.47978 0
M  V30 917 H 81.3855 -2.79313 4.25278 0
M  V30 918 H 80.7835 -5.21556 2.19081 0
M  V30 919 H 79.3405 -5.85007 2.8742 0
M  V30 920 N 82.7736 -1.49793 -0.48987 0
M  V30 921 C 84.0226 -1.59085 -1.23995 0
M  V30 922 C 84.3356 -0.287907 -1.9347 0
M  V30 923 O 85.5416 -0.259506 -2.70257 0
M  V30 924 C 83.9976 -2.80736 -2.252 0
M  V30 925 C 83.6056 -4.17833 -1.61614 0
M  V30 926 C 85.3496 -2.99364 -3.00967 0
M  V30 927 C 83.2566 -5.30693 -2.60996 0
M  V30 928 H 82.1866 -0.592372 -0.466488 0
M  V30 929 H 84.8376 -1.76197 -0.51252 0
M  V30 930 H 83.2196 -2.57142 -3.01154 0
M  V30 931 H 84.3936 -4.51608 -0.915774 0
M  V30 932 H 82.7086 -4.04656 -0.981977 0
M  V30 933 H 85.3056 -3.80851 -3.75308 0
M  V30 934 H 85.6486 -2.10356 -3.59244 0
M  V30 935 H 86.1816 -3.2305 -2.32128 0
M  V30 936 H 82.9206 -6.21796 -2.07485 0
M  V30 937 H 82.4406 -5.01359 -3.2924 0
M  V30 938 H 84.1196 -5.6049 -3.23202 0
M  V30 939 N 84.2517 0.741722 -1.39055 0
M  V30 940 C 85.4997 1.49818 -1.35643 0
M  V30 941 C 85.8207 1.94938 0.0491642 0
M  V30 942 O 85.0907 1.68505 0.999141 0
M  V30 943 H 83.6707 0.555755 -0.499144 0
M  V30 944 H 86.3327 0.880957 -1.73854 0
M  V30 945 H 85.4287 2.38348 -2.01486 0
M  V30 946 N 85.7298 1.2412 0.971189 0
M  V30 947 C 86.6628 0.97373 2.06382 0
M  V30 948 C 87.6408 -0.0912662 1.62344 0
M  V30 949 O 88.8248 0.0449365 1.88446 0
M  V30 950 C 85.9518 0.468746 3.35441 0
M  V30 951 C 84.9978 1.52176 3.98428 0
M  V30 952 S 85.8308 3.10203 4.36503 0
M  V30 953 C 86.9868 2.61398 5.68702 0
M  V30 954 H 87.2198 1.89893 2.28753 0
M  V30 955 H 84.7528 1.07466 1.10862 0
M  V30 956 H 86.7108 0.184012 4.10087 0
M  V30 957 H 85.3718 -0.435688 3.11064 0
M  V30 958 H 84.5648 1.11876 4.91426 0
M  V30 959 H 84.1668 1.75632 3.30196 0
M  V30 960 H 86.4588 2.03992 6.4606 0
M  V30 961 H 87.4018 3.52972 6.13854 0
M  V30 962 H 87.8098 2.01941 5.27143 0
M  V30 963 N 87.2079 -1.17134 1.05439 0
M  V30 964 C 88.4539 -1.87733 0.767077 0
M  V30 965 C 88.7869 -1.8098 -0.704253 0
M  V30 966 O 88.0619 -1.21951 -1.5152 0
M  V30 967 C 88.3449 -3.37659 1.25133 0
M  V30 968 C 88.1979 -3.53149 2.78578 0
M  V30 969 C 89.5169 -4.31768 0.852324 0
M  V30 970 H 86.6359 -0.681687 0.280129 0
M  V30 971 H 89.2779 -1.37732 1.30881 0
M  V30 972 H 87.4279 -3.80373 0.790469 0
M  V30 973 H 89.0999 -3.19434 3.32806 0
M  V30 974 H 87.3429 -2.95345 3.17732 0
M  V30 975 H 88.0139 -4.58403 3.07523 0
M  V30 976 H 90.4899 -3.96909 1.24911 0
M  V30 977 H 89.3659 -5.35199 1.21873 0
M  V30 978 H 89.6269 -4.41429 -0.243485 0
M  V30 979 N 88.686 -0.835752 -1.33615 0
M  V30 980 C 89.932 -0.430596 -1.98176 0
M  V30 981 C 90.265 1.00684 -1.66061 0
M  V30 982 O 89.54 1.70339 -0.938877 0
M  V30 983 C 89.823 -0.648065 -3.5422 0
M  V30 984 C 89.676 -2.13255 -3.96033 0
M  V30 985 C 90.995 -0.0922113 -4.40003 0
M  V30 986 H 88.114 -0.157924 -0.719881 0
M  V30 987 H 90.756 -1.05069 -1.58305 0
M  V30 988 H 88.906 -0.120237 -3.88314 0
M  V30 989 H 90.578 -2.725 -3.72211 0
M  V30 990 H 88.821 -2.61823 -3.45878 0
M  V30 991 H 89.492 -2.23547 -5.04708 0
M  V30 992 H 91.968 -0.543343 -4.12537 0
M  V30 993 H 90.844 -0.274083 -5.48215 0
M  V30 994 H 91.105 1.00378 -4.30554 0
M  V30 995 N 90.1641 1.46063 -0.591896 0
M  V30 996 C 91.3891 2.07226 -0.0850314 0
M  V30 997 C 91.8141 1.43625 1.21463 0
M  V30 998 O 91.1721 0.523305 1.73583 0
M  V30 999 C 91.2201 3.60554 0.0576567 0
M  V30 1000 O 90.3241 3.97128 1.11188 0
M  V30 1001 H 89.6651 0.660615 -0.0669568 0
M  V30 1002 H 92.1951 1.8756 -0.81745 0
M  V30 1003 H 92.2051 4.07165 0.2609 0
M  V30 1004 H 90.8801 4.06235 -0.891416 0
M  V30 1005 H 89.4571 3.62213 0.886356 0
M  V30 1006 N 91.6422 0.330177 1.54103 0
M  V30 1007 C 92.8902 -0.269871 2.0029 0
M  V30 1008 C 93.2112 -1.52133 1.21986 0
M  V30 1009 O 92.4812 -1.93212 0.323438 0
M  V30 1010 H 91.0612 -0.10271 0.739905 0
M  V30 1011 H 93.7232 0.448249 1.89675 0
M  V30 1012 H 92.8192 -0.52166 3.07709 0
M  V30 1013 N 93.1203 -1.57491 0.0584922 0
M  V30 1014 C 94.0303 -2.15448 -0.928414 0
M  V30 1015 C 95.0463 -1.11416 -1.3365 0
M  V30 1016 O 96.2223 -1.4362 -1.41193 0
M  V30 1017 C 93.2873 -2.69393 -2.18239 0
M  V30 1018 C 92.3483 -3.88249 -1.83196 0
M  V30 1019 C 91.5813 -4.39613 -3.02616 0
M  V30 1020 O 91.8043 -3.90023 -4.16219 0
M  V30 1021 O 90.7383 -5.31111 -2.83204 0
M  V30 1022 H 94.5643 -3.00112 -0.465483 0
M  V30 1023 H 92.1493 -1.48499 -0.163826 0
M  V30 1024 H 94.0313 -3.04026 -2.91798 0
M  V30 1025 H 92.7063 -1.87796 -2.63656 0
M  V30 1026 H 91.6133 -3.58492 -1.06931 0
M  V30 1027 H 92.9463 -4.71098 -1.42573 0
M  V30 1028 N 94.5984 0.214957 -1.56127 0
M  V30 1029 C 95.5284 1.2695 -1.95974 0
M  V30 1030 C 96.5094 1.48539 -0.828868 0
M  V30 1031 O 97.6944 1.60611 -1.09168 0
M  V30 1032 C 94.8244 2.61794 -2.28214 0
M  V30 1033 C 93.7784 2.54851 -3.43853 0
M  V30 1034 C 93.1044 3.93785 -3.61715 0
M  V30 1035 C 94.4044 2.09065 -4.78632 0
M  V30 1036 H 96.0984 0.93846 -2.84312 0
M  V30 1037 H 93.6444 0.449996 -1.36788 0
M  V30 1038 H 95.5974 3.35731 -2.54682 0
M  V30 1039 H 94.3214 2.96599 -1.36736 0
M  V30 1040 H 92.9804 1.8337 -3.17444 0
M  V30 1041 H 92.6284 4.25908 -2.67602 0
M  V30 1042 H 92.3284 3.90019 -4.39498 0
M  V30 1043 H 93.8524 4.69374 -3.90539 0
M  V30 1044 H 95.2664 2.7275 -5.04262 0
M  V30 1045 H 93.6634 2.16346 -5.59745 0
M  V30 1046 H 94.7334 1.04315 -4.73547 0
M  V30 1047 N 96.0765 1.50051 0.48192 0
M  V30 1048 C 97.0095 1.62749 1.59963 0
M  V30 1049 C 97.9875 0.475903 1.5548 0
M  V30 1050 O 99.1715 0.693986 1.7526 0
M  V30 1051 C 96.2985 1.60008 2.98522 0
M  V30 1052 C 95.3445 2.80596 3.21198 0
M  V30 1053 S 96.1775 4.42038 3.02262 0
M  V30 1054 C 97.3335 4.41973 4.43182 0
M  V30 1055 H 97.5665 2.57296 1.4895 0
M  V30 1056 H 95.0995 1.39179 0.668477 0
M  V30 1057 H 97.0575 1.59112 3.78409 0
M  V30 1058 H 95.7185 0.667153 3.06933 0
M  V30 1059 H 94.9115 2.74952 4.22395 0
M  V30 1060 H 94.5135 2.79003 2.49065 0
M  V30 1061 H 96.8055 4.14868 5.35622 0
M  V30 1062 H 97.7485 5.43512 4.53873 0
M  V30 1063 H 98.1565 3.71812 4.24755 0
M  V30 1064 N 97.5546 -0.734337 1.39446 0
M  V30 1065 C 98.4876 -1.85715 1.32609 0
M  V30 1066 C 99.4656 -1.6137 0.199636 0
M  V30 1067 O 100.65 -1.84626 0.380195 0
M  V30 1068 C 97.7766 -3.21709 1.05929 0
M  V30 1069 C 96.8226 -3.64913 2.20773 0
M  V30 1070 S 97.6556 -3.74203 3.83056 0
M  V30 1071 C 98.8116 -5.12986 3.58603 0
M  V30 1072 H 99.0446 -1.91232 2.27635 0
M  V30 1073 H 96.5776 -0.899263 1.25509 0
M  V30 1074 H 98.5356 -4.00236 0.912203 0
M  V30 1075 H 97.1966 -3.13848 0.125883 0
M  V30 1076 H 96.3896 -4.63606 1.97699 0
M  V30 1077 H 95.9916 -2.93593 2.31688 0
M  V30 1078 H 98.2836 -5.99339 3.15909 0
M  V30 1079 H 99.2266 -5.41088 4.5676 0
M  V30 1080 H 99.6346 -4.82694 2.9269 0
M  V30 1081 N 99.0327 -1.24633 -0.964593 0
M  V30 1082 C 100.261 -1.11501 -1.74285 0
M  V30 1083 C 100.676 0.332165 -1.85855 0
M  V30 1084 O 100.033 1.22903 -1.34911 0
M  V30 1085 C 100.084 -1.75258 -3.16175 0
M  V30 1086 O 99.8047 -3.14318 -3.05182 0
M  V30 1087 C 101.306 -1.67776 -4.10324 0
M  V30 1088 H 98.5257 -0.389407 -0.546446 0
M  V30 1089 H 101.07 -1.64801 -1.21083 0
M  V30 1090 H 99.2247 -1.25954 -3.66353 0
M  V30 1091 H 99.6387 -3.4551 -3.94618 0
M  V30 1092 H 101.113 -2.17064 -5.0753 0
M  V30 1093 H 101.59 -0.639584 -4.34518 0
M  V30 1094 H 102.196 -2.16522 -3.66058 0
M  V30 1095 N 100.511 1.16574 -1.06058 0
M  V30 1096 C 101.757 1.87324 -0.777022 0
M  V30 1097 C 102.09 1.81351 0.694645 0
M  V30 1098 O 101.365 1.22753 1.50871 0
M  V30 1099 C 101.648 3.36991 -1.26922 0
M  V30 1100 C 101.501 3.51667 -2.80447 0
M  V30 1101 C 102.82 4.3131 -0.87521 0
M  V30 1102 H 99.9388 0.680191 -0.28374 0
M  V30 1103 H 102.581 1.37036 -1.3161 0
M  V30 1104 H 100.731 3.79949 -0.81063 0
M  V30 1105 H 102.403 3.17664 -3.34495 0
M  V30 1106 H 100.646 2.93656 -3.19294 0
M  V30 1107 H 101.317 4.56766 -3.0995 0
M  V30 1108 H 103.793 3.9624 -1.27014 0
M  V30 1109 H 102.669 5.34545 -1.2471 0
M  V30 1110 H 102.93 4.41552 0.220071 0
M  V30 1111 N 101.989 0.842826 1.3317 0
M  V30 1112 C 103.237 0.439577 1.97262 0
M  V30 1113 C 103.558 -1.00548 1.67078 0
M  V30 1114 O 102.828 -1.70098 0.971779 0
M  V30 1115 H 101.408 0.159558 0.72976 0
M  V30 1116 H 104.07 1.07665 1.62463 0
M  V30 1117 H 103.166 0.574886 3.0676 0
M  V30 1118 N 103.467 -1.45747 0.599634 0
M  V30 1119 C 104.744 -1.95585 0.0240846 0
M  V30 1120 C 105.124 -1.54217 -1.44154 0
M  V30 1121 O 104.472 -0.800903 -2.14004 0
M  V30 1122 C 104.682 -3.48344 0.21385 0
M  V30 1123 C 106.03 -4.24504 0.0904902 0
M  V30 1124 O 107.054 -3.55911 0.143558 0
M  V30 1125 O 105.913 -5.46491 -0.0310766 0
M  V30 1126 H 103.007 -0.82602 -0.0402478 0
M  V30 1127 H 105.553 -1.55951 0.669139 0
M  V30 1128 H 104.325 -3.71397 1.23206 0
M  V30 1129 H 103.948 -3.9485 -0.466842 0
M  V30 1130 N 104.945 -0.338344 -1.53925 0
M  V30 1131 C 106.191 0.260143 -2.01125 0
M  V30 1132 C 106.524 1.50617 -1.22589 0
M  V30 1133 O 105.799 1.91979 -0.312113 0
M  V30 1134 C 106.082 0.579499 -3.55407 0
M  V30 1135 C 105.935 -0.678264 -4.44657 0
M  V30 1136 C 107.254 1.39122 -4.17532 0
M  V30 1137 H 104.373 0.0930772 -0.731099 0
M  V30 1138 H 107.015 -0.457852 -1.84401 0
M  V30 1139 H 105.165 1.19118 -3.69788 0
M  V30 1140 H 106.837 -1.31631 -4.42121 0
M  V30 1141 H 105.08 -1.3042 -4.13731 0
M  V30 1142 H 105.751 -0.410143 -5.50474 0
M  V30 1143 H 108.227 0.874035 -4.06817 0
M  V30 1144 H 107.103 1.58342 -5.25565 0
M  V30 1145 H 107.364 2.39178 -3.71815 0
M  V30 1146 N 106.423 1.57458 -0.0668435 0
M  V30 1147 C 107.651 1.97624 0.612565 0
M  V30 1148 C 108.066 0.94502 1.63447 0
M  V30 1149 O 107.423 -0.0689276 1.8237 0
M  V30 1150 C 107.474 3.37869 1.28555 0
M  V30 1151 O 107.195 4.3704 0.304557 0
M  V30 1152 C 108.696 3.92882 2.05325 0
M  V30 1153 H 105.916 0.650045 0.166381 0
M  V30 1154 H 108.46 2.04035 -0.137782 0
M  V30 1155 H 106.615 3.3256 1.98702 0
M  V30 1156 H 107.029 5.18565 0.786779 0
M  V30 1157 H 108.503 4.93247 2.47812 0
M  V30 1158 H 108.98 3.29156 2.9078 0
M  V30 1159 H 109.586 4.01577 1.40056 0
M  V30 1160 N 107.901 -0.206675 1.56239 0
M  V30 1161 C 109.317 -0.557025 1.49564 0
M  V30 1162 C 109.517 -1.86424 0.764735 0
M  V30 1163 O 108.573 -2.50584 0.310491 0
M  V30 1164 C 109.886 -0.622478 2.94186 0
M  V30 1165 C 111.434 -0.712099 3.04792 0
M  V30 1166 C 111.909 -0.808767 4.50803 0
M  V30 1167 N 113.4 -0.8726 4.54907 0
M  V30 1168 C 114.135 -0.967365 5.65181 0
M  V30 1169 N 113.631 -1.02515 6.85173 0
M  V30 1170 N 115.424 -1.00366 5.53067 0
M  V30 1171 H 107.575 0.650943 2.02179 0
M  V30 1172 H 109.838 0.230387 0.919579 0
M  V30 1173 H 109.544 0.268727 3.50672 0
M  V30 1174 H 109.418 -1.4811 3.46905 0
M  V30 1175 H 111.805 -1.59374 2.48363 0
M  V30 1176 H 111.886 0.172489 2.55218 0
M  V30 1177 H 111.53 0.0684754 5.07854 0
M  V30 1178 H 111.46 -1.70899 4.98098 0
M  V30 1179 H 113.951 -0.837657 3.68499 0
M  V30 1180 H 114.264 -1.09765 7.64965 0
M  V30 1181 H 112.609 -0.994026 6.87855 0
M  V30 1182 H 115.8 -0.95527 4.58249 0
M  V30 1183 H 115.973 -1.07405 6.39037 0
M  V30 1184 N 109.379 -1.50304 -0.473955 0
M  V30 1185 C 110.326 -1.68959 -1.57231 0
M  V30 1186 C 111.296 -0.530899 -1.57387 0
M  V30 1187 O 112.481 -0.761133 -1.74961 0
M  V30 1188 C 109.621 -1.7871 -2.95223 0
M  V30 1189 C 108.734 -3.06061 -3.04878 0
M  V30 1190 C 107.869 -3.06626 -4.33767 0
M  V30 1191 C 106.908 -4.28443 -4.37154 0
M  V30 1192 N 106.045 -4.26763 -5.5751 0
M  V30 1193 H 110.885 -2.6273 -1.40631 0
M  V30 1194 H 108.422 -1.30241 -0.683789 0
M  V30 1195 H 110.38 -1.82344 -3.75242 0
M  V30 1196 H 109.01 -0.883806 -3.10465 0
M  V30 1197 H 108.062 -3.11911 -2.17751 0
M  V30 1198 H 109.374 -3.96039 -3.0324 0
M  V30 1199 H 108.528 -3.08973 -5.22131 0
M  V30 1200 H 107.267 -2.14473 -4.3801 0
M  V30 1201 H 106.272 -4.2631 -3.47188 0
M  V30 1202 H 107.497 -5.2182 -4.34605 0
M  V30 1203 H 105.443 -3.37462 -5.62544 0
M  V30 1204 H 105.36 -5.10507 -5.57601 0
M  V30 1205 H 106.628 -4.33253 -6.48006 0
M  V30 1206 N 110.857 0.726932 -1.39834 0
M  V30 1207 C 111.79 1.8501 -1.33592 0
M  V30 1208 C 112.768 1.61262 -0.208191 0
M  V30 1209 O 113.952 1.84422 -0.389981 0
M  V30 1210 C 111.079 3.21143 -1.07633 0
M  V30 1211 C 110.125 3.63737 -2.22705 0
M  V30 1212 S 110.958 3.72167 -3.85035 0
M  V30 1213 C 112.114 5.11077 -3.61318 0
M  V30 1214 H 112.347 1.90022 -2.28646 0
M  V30 1215 H 109.88 0.892595 -1.25985 0
M  V30 1216 H 111.838 3.99747 -0.933415 0
M  V30 1217 H 110.499 3.13776 -0.142526 0
M  V30 1218 H 109.692 4.62551 -2.00155 0
M  V30 1219 H 109.294 2.9236 -2.33242 0
M  V30 1220 H 111.586 5.97656 -3.19083 0
M  V30 1221 H 112.529 5.38658 -4.59623 0
M  V30 1222 H 112.937 4.81135 -2.95245 0
M  V30 1223 N 112.336 1.25143 0.95797 0
M  V30 1224 C 113.564 1.12424 1.73691 0
M  V30 1225 C 113.979 -0.322304 1.86029 0
M  V30 1226 O 113.336 -1.22186 1.35561 0
M  V30 1227 C 113.387 1.76933 3.15241 0
M  V30 1228 O 113.108 3.15932 3.03511 0
M  V30 1229 C 114.609 1.6995 4.09429 0
M  V30 1230 H 111.829 0.3923 0.544373 0
M  V30 1231 H 114.373 1.6544 1.20207 0
M  V30 1232 H 112.528 1.27895 3.6568 0
M  V30 1233 H 112.942 3.47598 3.9278 0
M  V30 1234 H 114.416 2.19753 5.06372 0
M  V30 1235 H 114.893 0.662619 4.34173 0
M  V30 1236 H 115.499 2.18461 3.64904 0
M  V30 1237 N 113.814 -1.1601 1.06675 0
M  V30 1238 C 114.777 -2.18724 0.685001 0
M  V30 1239 C 115.777 -1.58496 -0.271246 0
M  V30 1240 O 116.967 -1.74119 -0.0531156 0
M  V30 1241 C 114.099 -3.40899 0.00853648 0
M  V30 1242 H 115.292 -2.54011 1.59431 0
M  V30 1243 H 112.845 -1.30352 0.862441 0
M  V30 1244 H 113.58 -3.11173 -0.913337 0
M  V30 1245 H 113.365 -3.8587 0.696204 0
M  V30 1246 H 114.855 -4.16886 -0.24414 0
M  V30 1247 N 115.292 -0.849877 -1.32721 0
M  V30 1248 C 116.222 -0.306308 -2.31482 0
M  V30 1249 C 117.203 0.591952 -1.59468 0
M  V30 1250 O 118.388 0.513199 -1.87296 0
M  V30 1251 C 115.518 0.510204 -3.43532 0
M  V30 1252 C 114.472 -0.293209 -4.26994 0
M  V30 1253 C 113.798 0.647743 -5.30762 0
M  V30 1254 C 115.098 -1.51634 -4.99804 0
M  V30 1255 H 116.792 -1.13153 -2.77195 0
M  V30 1256 H 114.338 -0.545553 -1.33266 0
M  V30 1257 H 116.291 0.900856 -4.11658 0
M  V30 1258 H 115.015 1.36874 -2.96535 0
M  V30 1259 H 113.674 -0.665555 -3.60508 0
M  V30 1260 H 113.322 1.50299 -4.8002 0
M  V30 1261 H 113.022 0.11422 -5.87489 0
M  V30 1262 H 114.546 1.03567 -6.01753 0
M  V30 1263 H 115.96 -1.19824 -5.60638 0
M  V30 1264 H 114.357 -1.98745 -5.66234 0
M  V30 1265 H 115.427 -2.28018 -4.27943 0
M  V30 1266 N 116.77 1.45427 -0.607355 0
M  V30 1267 C 117.68 2.34325 0.113463 0
M  V30 1268 C 118.696 1.51226 0.860617 0
M  V30 1269 O 119.872 1.84029 0.818255 0
M  V30 1270 C 116.937 3.28839 1.09844 0
M  V30 1271 C 115.998 4.27844 0.353271 0
M  V30 1272 C 115.231 5.17842 1.29133 0
M  V30 1273 O 115.454 5.11264 2.52913 0
M  V30 1274 O 114.388 5.96713 0.788523 0
M  V30 1275 H 118.214 2.97364 -0.617094 0
M  V30 1276 H 115.799 1.44807 -0.367619 0
M  V30 1277 H 117.681 3.8708 1.66575 0
M  V30 1278 H 116.356 2.68365 1.81003 0
M  V30 1279 H 115.263 3.7322 -0.256494 0
M  V30 1280 H 116.596 4.91173 -0.317822 0
M  V30 1281 N 118.248 0.346503 1.53744 0
M  V30 1282 C 119.473 -0.253074 2.0585 0
M  V30 1283 C 119.898 -1.43202 1.21962 0
M  V30 1284 O 119.256 -1.79783 0.234073 0
M  V30 1285 C 119.304 -0.643193 3.54817 0
M  V30 1286 O 118.408 -1.74286 3.73762 0
M  V30 1287 H 117.749 -0.0413583 0.662711 0
M  V30 1288 H 120.279 0.501574 1.98357 0
M  V30 1289 H 120.289 -0.919526 3.97503 0
M  V30 1290 H 118.964 0.218966 4.15323 0
M  V30 1291 H 117.541 -1.46356 3.42979 0
M  V30 1292 N 119.726 -1.57421 0.075193 0
M  V30 1293 C 120.689 -2.11791 -0.876203 0
M  V30 1294 C 121.689 -1.04268 -1.22412 0
M  V30 1295 O 122.879 -1.30242 -1.15684 0
M  V30 1296 C 120.011 -2.62207 -2.17854 0
M  V30 1297 H 121.204 -2.9716 -0.40444 0
M  V30 1298 H 118.757 -1.55333 -0.173557 0
M  V30 1299 H 119.492 -1.803 -2.6956 0
M  V30 1300 H 119.277 -3.40802 -1.93897 0
M  V30 1301 H 120.767 -3.04335 -2.85955 0
M  V30 1302 N 121.204 0.198386 -1.56346 0
M  V30 1303 C 122.434 0.934215 -1.84271 0
M  V30 1304 C 122.842 1.77496 -0.655125 0
M  V30 1305 O 122.185 1.7961 0.385488 0
M  V30 1306 C 122.247 1.88278 -3.06254 0
M  V30 1307 C 121.911 1.22431 -4.40295 0
M  V30 1308 C 122.908 0.602839 -5.16393 0
M  V30 1309 C 120.593 1.22915 -4.87029 0
M  V30 1310 C 122.587 -0.0050083 -6.374 0
M  V30 1311 C 120.274 0.617465 -6.07973 0
M  V30 1312 C 121.272 0.00146341 -6.83 0
M  V30 1313 O 120.96 -0.600642 -8.01653 0
M  V30 1314 H 120.692 0.278245 -0.616081 0
M  V30 1315 H 123.246 0.211626 -2.04307 0
M  V30 1316 H 121.476 2.64498 -2.82095 0
M  V30 1317 H 123.165 2.48612 -3.20853 0
M  V30 1318 H 123.931 0.591265 -4.81382 0
M  V30 1319 H 119.81 1.69801 -4.28589 0
M  V30 1320 H 123.354 -0.48643 -6.95902 0
M  V30 1321 H 119.251 0.62653 -6.42452 0
M  V30 1322 H 120.019 -0.497225 -8.16988 0
M  V30 1323 N 122.682 1.50554 0.465978 0
M  V30 1324 C 123.931 1.61038 1.21448 0
M  V30 1325 C 124.244 0.31865 1.92987 0
M  V30 1326 O 125.45 0.302469 2.6981 0
M  V30 1327 C 123.906 2.84283 2.20706 0
M  V30 1328 C 123.514 4.20352 1.54946 0
M  V30 1329 C 125.258 3.04115 2.96166 0
M  V30 1330 C 123.165 5.34778 2.5252 0
M  V30 1331 H 122.095 0.599718 0.457005 0
M  V30 1332 H 124.746 1.7699 0.484424 0
M  V30 1333 H 123.128 2.61901 2.97025 0
M  V30 1334 H 124.302 4.53008 0.843811 0
M  V30 1335 H 122.617 4.06167 0.917475 0
M  V30 1336 H 125.214 3.86774 3.69202 0
M  V30 1337 H 125.557 2.16045 3.55852 0
M  V30 1338 H 126.09 3.26702 2.26959 0
M  V30 1339 H 122.829 6.25018 1.97566 0
M  V30 1340 H 122.349 5.06534 3.21222 0
M  V30 1341 H 124.028 5.65561 3.14245 0
M  V30 1342 N 124.16 -0.719506 1.40217 0
M  V30 1343 C 125.123 -1.8153 1.39927 0
M  V30 1344 C 126.123 -1.58095 0.293723 0
M  V30 1345 O 127.313 -1.65209 0.552429 0
M  V30 1346 C 124.445 -3.19561 1.18716 0
M  V30 1347 H 125.638 -1.83186 2.37451 0
M  V30 1348 H 123.191 -0.924746 1.26008 0
M  V30 1349 H 123.926 -3.23557 0.219366 0
M  V30 1350 H 123.711 -3.3797 1.98793 0
M  V30 1351 H 125.201 -3.99598 1.21291 0
M  V30 1352 N 125.638 -1.25649 -0.95132 0
M  V30 1353 C 127.049 -1.09654 -1.51106 0
M  V30 1354 C 127.4 0.326615 -1.93462 0
M  V30 1355 O 126.525 1.21697 -1.78938 0
M  V30 1356 C 127.12 -1.98437 -2.74605 0
M  V30 1357 C 125.679 -1.86618 -3.2688 0
M  V30 1358 C 124.826 -1.9239 -1.99703 0
M  V30 1359 H 127.777 -1.38887 -0.767865 0
M  V30 1360 H 127.798 -1.5263 -3.48546 0
M  V30 1361 H 127.31 -3.02009 -2.43746 0
M  V30 1362 H 125.411 -0.859421 -3.62553 0
M  V30 1363 H 125.524 -2.71607 -3.94673 0
M  V30 1364 H 123.888 -1.36317 -2.15151 0
M  V30 1365 H 124.671 -2.97573 -1.71188 0
M  V30 1366 N 127.117 1.15442 -1.07289 0
M  V30 1367 C 128.528 1.67803 -0.818475 0
M  V30 1368 C 128.879 1.8489 0.656507 0
M  V30 1369 O 128.004 1.55176 1.50829 0
M  V30 1370 C 128.599 3.04805 -1.47917 0
M  V30 1371 C 127.158 3.54245 -1.27229 0
M  V30 1372 C 126.305 2.29986 -1.54925 0
M  V30 1373 H 129.256 0.996646 -1.23502 0
M  V30 1374 H 129.277 3.69702 -0.90005 0
M  V30 1375 H 128.789 2.92336 -2.55267 0
M  V30 1376 H 126.89 3.71956 -0.21899 0
M  V30 1377 H 127.003 4.35723 -1.99203 0
M  V30 1378 H 125.367 2.35496 -0.970242 0
M  V30 1379 H 126.15 2.20105 -2.63455 0
M  V30 1380 N 128.595 0.856903 1.32268 0
M  V30 1381 C 129.545 0.274899 2.26337 0
M  V30 1382 C 130.529 -0.580543 1.50062 0
M  V30 1383 O 131.721 -0.429559 1.71708 0
M  V30 1384 C 128.85 -0.533841 3.39124 0
M  V30 1385 C 127.936 0.334114 4.22782 0
M  V30 1386 N 128.327 1.42143 4.85416 0
M  V30 1387 C 126.625 0.124256 4.45827 0
M  V30 1388 C 127.326 1.95559 5.47843 0
M  V30 1389 N 126.302 1.25444 5.28928 0
M  V30 1390 H 130.104 1.10612 2.72291 0
M  V30 1391 H 127.618 0.703258 1.46383 0
M  V30 1392 H 129.615 -0.96722 4.05525 0
M  V30 1393 H 128.275 -1.36283 2.94715 0
M  V30 1394 H 129.286 1.80436 4.85451 0
M  V30 1395 H 125.963 -0.669837 4.12092 0
M  V30 1396 H 127.353 2.86714 6.07655 0
M  V30 1397 N 130.073 -1.45103 0.615059 0
M  V30 1398 C 131.319 -2.02483 0.113347 0
M  V30 1399 C 131.652 -1.48146 -1.25564 0
M  V30 1400 O 130.927 -0.659104 -1.82992 0
M  V30 1401 C 131.21 -3.60005 0.0825278 0
M  V30 1402 C 131.063 -4.2466 1.48271 0
M  V30 1403 C 132.382 -4.35972 -0.601401 0
M  V30 1404 H 129.501 -0.735764 0.0426632 0
M  V30 1405 H 132.143 -1.72868 0.788461 0
M  V30 1406 H 130.293 -3.85367 -0.492378 0
M  V30 1407 H 131.965 -4.10458 2.10527 0
M  V30 1408 H 130.208 -3.82772 2.04127 0
M  V30 1409 H 130.879 -5.336 1.41332 0
M  V30 1410 H 133.355 -4.15947 -0.112666 0
M  V30 1411 H 132.231 -5.45697 -0.592097 0
M  V30 1412 H 132.492 -4.09391 -1.66887 0
M  V30 1413 N 131.551 -0.354651 -1.53558 0
M  V30 1414 C 132.962 0.126902 -1.86268 0
M  V30 1415 C 133.313 1.49075 -1.27558 0
M  V30 1416 O 132.438 2.08105 -0.5934 0
M  V30 1417 C 133.033 0.237046 -3.3797 0
M  V30 1418 C 131.592 0.662842 -3.70518 0
M  V30 1419 C 130.739 -0.196652 -2.76602 0
M  V30 1420 H 133.69 -0.573849 -1.47962 0
M  V30 1421 H 133.711 1.06259 -3.65362 0
M  V30 1422 H 133.223 -0.755725 -3.80671 0
M  V30 1423 H 131.324 1.66424 -3.33367 0
M  V30 1424 H 131.437 0.445034 -4.77029 0
M  V30 1425 H 129.801 0.332763 -2.52517 0
M  V30 1426 H 130.584 -1.18676 -3.22135 0
M  V30 1427 N 133.029 1.57378 -0.0835403 0
M  V30 1428 C 133.979 2.09916 0.889905 0
M  V30 1429 C 134.963 1.01151 1.25129 0
M  V30 1430 O 136.155 1.27443 1.2283 0
M  V30 1431 C 133.284 2.67379 2.15322 0
M  V30 1432 C 132.37 3.83167 1.81779 0
M  V30 1433 N 132.761 4.91665 1.18739 0
M  V30 1434 C 131.059 3.92685 2.11459 0
M  V30 1435 C 131.76 5.72409 1.0355 0
M  V30 1436 N 130.736 5.21062 1.54906 0
M  V30 1437 H 134.538 2.91188 0.398378 0
M  V30 1438 H 132.052 1.61956 0.120013 0
M  V30 1439 H 134.049 3.0334 2.8599 0
M  V30 1440 H 132.709 1.87558 2.65051 0
M  V30 1441 H 133.72 5.10784 0.855604 0
M  V30 1442 H 130.397 3.23856 2.63483 0
M  V30 1443 H 131.787 6.69699 0.543425 0
M  V30 1444 N 134.507 -0.190092 1.56449 0
M  V30 1445 C 135.755 -0.907908 1.80559 0
M  V30 1446 C 136.076 -1.83583 0.657438 0
M  V30 1447 O 135.346 -1.93203 -0.323924 0
M  V30 1448 H 133.926 -0.338247 0.666032 0
M  V30 1449 H 136.588 -0.194403 1.93928 0
M  V30 1450 H 135.684 -1.49604 2.73907 0
M  V30 1451 N 135.985 -1.50799 -0.457987 0
M  V30 1452 C 136.948 -1.7005 -1.53674 0
M  V30 1453 C 137.948 -0.570881 -1.50325 0
M  V30 1454 O 139.138 -0.838126 -1.52712 0
M  V30 1455 C 136.27 -1.73788 -2.93276 0
M  V30 1456 H 137.463 -2.66306 -1.37917 0
M  V30 1457 H 135.016 -1.40477 -0.685271 0
M  V30 1458 H 135.751 -0.792717 -3.14462 0
M  V30 1459 H 135.536 -2.55864 -2.97113 0
M  V30 1460 H 137.026 -1.90591 -3.71571 0
M  V30 1461 N 137.463 0.71206 -1.40597 0
M  V30 1462 C 138.879 1.02058 -1.22704 0
M  V30 1463 C 139.079 2.01228 -0.104729 0
M  V30 1464 O 138.135 2.4674 0.53624 0
M  V30 1465 C 139.448 1.56094 -2.57012 0
M  V30 1466 C 140.996 1.6806 -2.64054 0
M  V30 1467 C 141.471 2.25501 -3.9864 0
M  V30 1468 N 142.962 2.32882 -4.004 0
M  V30 1469 C 143.697 2.78317 -5.01325 0
M  V30 1470 N 143.193 3.23478 -6.12645 0
M  V30 1471 N 144.986 2.77733 -4.88693 0
M  V30 1472 H 137.137 0.0547896 -2.12329 0
M  V30 1473 H 139.4 0.0869027 -0.944008 0
M  V30 1474 H 139.106 0.906865 -3.39807 0
M  V30 1475 H 138.98 2.54564 -2.78347 0
M  V30 1476 H 141.367 2.32583 -1.81629 0
M  V30 1477 H 141.448 0.681802 -2.46546 0
M  V30 1478 H 141.092 1.61598 -4.81506 0
M  V30 1479 H 141.022 3.26102 -4.13479 0
M  V30 1480 H 143.513 2.00991 -3.20017 0
M  V30 1481 H 143.826 3.56725 -6.85542 0
M  V30 1482 H 142.171 3.21429 -6.16205 0
M  V30 1483 H 145.362 2.4179 -4.00818 0
M  V30 1484 H 145.535 3.12826 -5.67489 0
M  V30 1485 N 138.941 1.26152 0.944643 0
M  V30 1486 C 139.889 1.07215 2.06417 0
M  V30 1487 C 140.883 9.2007e-05 1.694 0
M  V30 1488 O 142.089 0.1565 1.79318 0
M  V30 1489 H 138.464 0.329837 0.675805 0
M  V30 1490 H 140.435 2.02099 2.19541 0
M  V30 1491 C 139.184 0.718197 3.40202 0
M  V30 1492 H 138.507 1.53497 3.69159 0
M  V30 1493 H 139.947 0.625459 4.19361 0
M  V30 1494 C 138.406 -0.576435 3.31932 0
M  V30 1495 O 138.936 -1.61574 3.67773 0
M  V30 1496 N 137.142 -0.565781 2.85039 0
M  V30 1497 H 136.689 0.280367 2.5607 0
M  V30 1498 H 136.647 -1.43213 2.79888 0
M  V30 1499 N 140.419 -1.14872 1.07899 0
M  V30 1500 C 141.696 -1.81928 0.71845 0
M  V30 1501 C 142.076 -1.95417 -0.798455 0
M  V30 1502 O 141.424 -1.50997 -1.715 0
M  V30 1503 C 141.634 -3.17937 1.43935 0
M  V30 1504 C 142.982 -3.93501 1.59506 0
M  V30 1505 O 144.006 -3.27509 1.40058 0
M  V30 1506 O 142.865 -5.1183 1.91551 0
M  V30 1507 H 139.959 -0.78628 0.256305 0
M  V30 1508 H 142.505 -1.21934 1.18026 0
M  V30 1509 H 141.277 -3.0325 2.47295 0
M  V30 1510 H 140.9 -3.85619 0.968687 0
M  V30 1511 N 141.898 -0.863906 -1.31812 0
M  V30 1512 C 143.126 -0.486111 -2.01108 0
M  V30 1513 C 143.541 0.919755 -1.64882 0
M  V30 1514 O 142.898 1.60162 -0.874893 0
M  V30 1515 C 142.949 -0.626435 -3.56031 0
M  V30 1516 O 142.67 -1.97693 -3.90959 0
M  V30 1517 C 144.171 -0.248857 -4.42601 0
M  V30 1518 H 141.391 -0.190052 -0.643523 0
M  V30 1519 H 143.935 -1.1634 -1.68182 0
M  V30 1520 H 142.09 0.00322717 -3.874 0
M  V30 1521 H 142.504 -1.98034 -4.85678 0
M  V30 1522 H 143.978 -0.398016 -5.50563 0
M  V30 1523 H 144.455 0.811489 -4.31638 0
M  V30 1524 H 145.061 -0.853971 -4.16638 0
M  V30 1525 N 143.376 1.44774 -0.622745 0
M  V30 1526 C 144.653 1.95522 -0.0551974 0
M  V30 1527 C 145.033 1.5649 1.41683 0
M  V30 1528 O 144.381 0.834848 2.12703 0
M  V30 1529 C 144.591 3.4796 -0.269242 0
M  V30 1530 C 145.939 4.24306 -0.158014 0
M  V30 1531 O 146.963 3.55637 -0.200162 0
M  V30 1532 O 145.822 5.46471 -0.0558693 0
M  V30 1533 H 142.916 0.826556 0.0271015 0
M  V30 1534 H 145.462 1.54866 -0.693864 0
M  V30 1535 H 144.234 3.6939 -1.29099 0
M  V30 1536 H 143.857 3.95543 0.403966 0
M  V30 1537 N 144.854 0.36279 1.53368 0
M  V30 1538 C 145.786 -0.519668 2.23231 0
M  V30 1539 C 146.799 -1.04844 1.24546 0
M  V30 1540 O 147.988 -0.955296 1.50786 0
M  V30 1541 C 145.088 -1.72995 2.9142 0
M  V30 1542 C 144.261 -1.33316 4.16588 0
M  V30 1543 C 143.32 -2.40521 4.68013 0
M  V30 1544 O 142.346 -2.03027 5.3176 0
M  V30 1545 N 143.548 -3.72065 4.45587 0
M  V30 1546 H 146.313 0.078751 2.99597 0
M  V30 1547 H 143.874 0.187833 1.60807 0
M  V30 1548 H 145.866 -2.44184 3.22733 0
M  V30 1549 H 144.436 -2.2353 2.18525 0
M  V30 1550 H 143.656 -0.451236 3.91609 0
M  V30 1551 H 144.944 -1.04432 4.97967 0
M  V30 1552 H 144.342 -4.05304 3.94646 0
M  V30 1553 H 142.899 -4.39366 4.81457 0
M  V30 1554 N 146.332 -1.57332 0.0918853 0
M  V30 1555 C 147.242 -2.17368 -0.882505 0
M  V30 1556 C 148.258 -1.14226 -1.31257 0
M  V30 1557 O 149.434 -1.46582 -1.38115 0
M  V30 1558 C 146.499 -2.73962 -2.12476 0
M  V30 1559 C 145.56 -3.92048 -1.7492 0
M  V30 1560 C 144.793 -4.45933 -2.93223 0
M  V30 1561 O 145.016 -3.98764 -4.07852 0
M  V30 1562 O 143.95 -5.36999 -2.71875 0
M  V30 1563 H 147.776 -3.01031 -0.40172 0
M  V30 1564 H 145.361 -1.48813 -0.132291 0
M  V30 1565 H 147.243 -3.10147 -2.85283 0
M  V30 1566 H 145.918 -1.93347 -2.59613 0
M  V30 1567 H 144.825 -3.6068 -0.993025 0
M  V30 1568 H 146.158 -4.74017 -1.32548 0
M  V30 1569 N 147.81 0.181792 -1.56548 0
M  V30 1570 C 149.056 0.901431 -1.81665 0
M  V30 1571 C 149.389 1.82347 -0.668075 0
M  V30 1572 O 148.664 1.91669 0.330615 0
M  V30 1573 C 148.947 1.70618 -3.17115 0
M  V30 1574 C 148.8 0.807964 -4.42484 0
M  V30 1575 C 150.119 2.67605 -3.49393 0
M  V30 1576 H 147.238 0.32627 -0.660846 0
M  V30 1577 H 149.88 0.168134 -1.89255 0
M  V30 1578 H 148.03 2.33133 -3.10775 0
M  V30 1579 H 149.702 0.19649 -4.60881 0
M  V30 1580 H 147.945 0.115411 -4.33646 0
M  V30 1581 H 148.616 1.40632 -5.33785 0
M  V30 1582 H 151.092 2.15218 -3.56118 0
M  V30 1583 H 149.968 3.20985 -4.45264 0
M  V30 1584 H 150.229 3.47298 -2.73563 0
M  V30 1585 N 149.288 1.51039 0.449983 0
M  V30 1586 C 150.537 1.62317 1.19733 0
M  V30 1587 C 150.85 0.339101 1.92638 0
M  V30 1588 O 152.056 0.331069 2.69474 0
M  V30 1589 C 150.512 2.86608 2.17678 0
M  V30 1590 C 150.12 4.21972 1.50479 0
M  V30 1591 C 151.864 3.07239 2.92924 0
M  V30 1592 C 149.771 5.37426 2.46834 0
M  V30 1593 H 148.701 0.604532 0.450619 0
M  V30 1594 H 151.352 1.77494 0.465625 0
M  V30 1595 H 149.734 2.65037 2.94231 0
M  V30 1596 H 150.908 4.53878 0.795716 0
M  V30 1597 H 149.223 4.07117 0.874344 0
M  V30 1598 H 151.82 3.90668 3.65079 0
M  V30 1599 H 152.163 2.19807 3.5354 0
M  V30 1600 H 152.696 3.29091 2.23481 0
M  V30 1601 H 149.435 6.27079 1.90926 0
M  V30 1602 H 148.955 5.09912 3.15832 0
M  V30 1603 H 150.634 5.68862 3.08228 0
M  V30 1604 N 150.766 -0.704594 1.40972 0
M  V30 1605 C 151.729 -1.80035 1.41845 0
M  V30 1606 C 152.729 -1.57774 0.310474 0
M  V30 1607 O 153.919 -1.64613 0.56992 0
M  V30 1608 C 151.051 -3.18284 1.22098 0
M  V30 1609 H 152.244 -1.80658 2.3938 0
M  V30 1610 H 149.797 -0.911329 1.26982 0
M  V30 1611 H 150.532 -3.23306 0.253672 0
M  V30 1612 H 150.317 -3.35843 2.02366 0
M  V30 1613 H 151.807 -3.98289 1.25522 0
M  V30 1614 N 152.244 -1.26651 -0.937939 0
M  V30 1615 C 153.493 -1.11775 -1.67897 0
M  V30 1616 C 153.806 0.33794 -1.92659 0
M  V30 1617 O 155.012 0.607434 -2.64618 0
M  V30 1618 C 153.468 -1.9523 -3.02346 0
M  V30 1619 C 153.076 -3.45393 -2.8532 0
M  V30 1620 C 154.82 -1.88972 -3.80118 0
M  V30 1621 C 152.727 -4.21083 -4.15263 0
M  V30 1622 H 151.657 -0.414696 -0.629717 0
M  V30 1623 H 154.308 -1.50988 -1.04283 0
M  V30 1624 H 152.69 -1.48853 -3.66959 0
M  V30 1625 H 153.864 -3.99561 -2.29537 0
M  V30 1626 H 152.179 -3.52921 -2.20988 0
M  V30 1627 H 154.776 -2.42805 -4.76392 0
M  V30 1628 H 155.119 -0.86113 -4.07296 0
M  V30 1629 H 155.652 -2.33189 -3.22285 0
M  V30 1630 H 152.391 -5.24425 -3.93267 0
M  V30 1631 H 151.911 -3.71695 -4.70747 0
M  V30 1632 H 153.59 -4.29706 -4.83696 0
M  V30 1633 N 153.722 1.14298 -1.08507 0
M  V30 1634 C 154.999 1.81544 -0.728088 0
M  V30 1635 C 155.379 1.95838 0.78808 0
M  V30 1636 O 154.727 1.51904 1.70697 0
M  V30 1637 C 154.937 3.17169 -1.45619 0
M  V30 1638 C 156.285 3.9265 -1.61591 0
M  V30 1639 O 157.309 3.26762 -1.41793 0
M  V30 1640 O 156.168 5.10807 -1.94263 0
M  V30 1641 H 153.262 0.78491 -0.260471 0
M  V30 1642 H 155.808 1.21307 -1.18671 0
M  V30 1643 H 154.58 3.01934 -2.489 0
M  V30 1644 H 154.203 3.851 -0.989124 0
M  V30 1645 N 155.201 0.870884 1.31352 0
M  V30 1646 C 156.45 0.478408 1.95944 0
M  V30 1647 C 156.763 -0.974493 1.69597 0
M  V30 1648 O 157.969 -1.47316 2.28058 0
M  V30 1649 C 156.425 0.804609 3.50791 0
M  V30 1650 C 156.033 2.27433 3.85977 0
M  V30 1651 C 157.777 0.480648 4.2177 0
M  V30 1652 C 155.684 2.5429 5.33939 0
M  V30 1653 H 154.614 0.175175 0.733369 0
M  V30 1654 H 157.265 1.06391 1.4951 0
M  V30 1655 H 155.647 0.148347 3.95722 0
M  V30 1656 H 156.821 2.97373 3.52002 0
M  V30 1657 H 155.136 2.56442 3.28065 0
M  V30 1658 H 157.733 0.658519 5.30629 0
M  V30 1659 H 158.076 -0.578979 4.12254 0
M  V30 1660 H 158.609 1.09349 3.82476 0
M  V30 1661 H 155.348 3.58939 5.48491 0
M  V30 1662 H 154.868 1.88945 5.69263 0
M  V30 1663 H 156.547 2.39066 6.01212 0
M  V30 1664 N 156.679 -1.44442 0.630414 0
M  V30 1665 C 157.626 -2.30678 -0.0749355 0
M  V30 1666 C 158.596 -1.4344 -0.837502 0
M  V30 1667 O 159.781 -1.72343 -0.818684 0
M  V30 1668 C 156.921 -3.28706 -1.05103 0
M  V30 1669 C 156.034 -4.31046 -0.286954 0
M  V30 1670 C 155.169 -5.16167 -1.2548 0
M  V30 1671 C 154.208 -6.10216 -0.479843 0
M  V30 1672 N 153.345 -6.88039 -1.39811 0
M  V30 1673 H 158.185 -2.90454 0.666386 0
M  V30 1674 H 155.722 -1.43107 0.340404 0
M  V30 1675 H 157.68 -3.84027 -1.63031 0
M  V30 1676 H 156.31 -2.70632 -1.75949 0
M  V30 1677 H 155.362 -3.78203 0.408243 0
M  V30 1678 H 156.674 -4.97794 0.316657 0
M  V30 1679 H 155.828 -5.76002 -1.90544 0
M  V30 1680 H 154.567 -4.49491 -1.89233 0
M  V30 1681 H 153.572 -5.49491 0.184295 0
M  V30 1682 H 154.797 -6.78928 0.152965 0
M  V30 1683 H 152.743 -6.24032 -2.02287 0
M  V30 1684 H 152.66 -7.51223 -0.848508 0
M  V30 1685 H 153.928 -7.52397 -2.03762 0
M  V30 1686 N 158.157 -0.370918 -1.53173 0
M  V30 1687 C 159.573 -0.0200818 -1.59587 0
M  V30 1688 C 159.773 1.46279 -1.38581 0
M  V30 1689 O 158.829 2.22506 -1.19363 0
M  V30 1690 C 160.142 -0.4808 -2.96831 0
M  V30 1691 C 161.69 -0.435477 -3.09956 0
M  V30 1692 C 162.165 -0.872092 -4.4962 0
M  V30 1693 N 163.656 -0.827364 -4.55751 0
M  V30 1694 C 164.391 -1.13683 -5.62018 0
M  V30 1695 N 163.887 -1.51584 -6.76014 0
M  V30 1696 N 165.68 -1.05927 -5.52029 0
M  V30 1697 H 157.831 -1.33652 -1.65079 0
M  V30 1698 H 160.094 -0.546634 -0.774529 0
M  V30 1699 H 159.8 -1.51577 -3.1736 0
M  V30 1700 H 159.674 0.129796 -3.76977 0
M  V30 1701 H 162.061 0.590371 -2.89134 0
M  V30 1702 H 162.142 -1.08164 -2.31806 0
M  V30 1703 H 161.786 -1.89608 -4.71181 0
M  V30 1704 H 161.716 -0.203127 -5.26208 0
M  V30 1705 H 164.207 -0.548216 -3.73902 0
M  V30 1706 H 164.52 -1.73609 -7.53047 0
M  V30 1707 H 162.865 -1.55454 -6.77391 0
M  V30 1708 H 166.056 -0.762321 -4.61851 0
M  V30 1709 H 166.229 -1.30378 -6.34749 0
M  V30 1710 N 159.635 1.57281 -0.100228 0
M  V30 1711 C 160.565 2.17328 0.853857 0
M  V30 1712 C 161.546 1.10804 1.2906 0
M  V30 1713 O 162.731 1.38963 1.35657 0
M  V30 1714 C 159.861 2.75772 2.11109 0
M  V30 1715 C 158.815 3.87713 1.81279 0
M  V30 1716 C 158.141 4.32882 3.13874 0
M  V30 1717 C 159.441 5.10677 1.09574 0
M  V30 1718 H 161.135 2.97305 0.353545 0
M  V30 1719 H 158.681 1.43009 0.168612 0
M  V30 1720 H 160.634 3.16433 2.78296 0
M  V30 1721 H 159.358 1.93057 2.63432 0
M  V30 1722 H 158.017 3.476 1.16489 0
M  V30 1723 H 157.665 3.47051 3.64095 0
M  V30 1724 H 157.365 5.08358 2.94696 0
M  V30 1725 H 158.889 4.7618 3.82211 0
M  V30 1726 H 160.303 5.48474 1.66879 0
M  V30 1727 H 158.7 5.91615 1.00557 0
M  V30 1728 H 159.77 4.84835 0.0793299 0
M  V30 1729 N 161.113 -0.173488 1.56642 0
M  V30 1730 C 162.06 -1.21482 1.96242 0
M  V30 1731 C 163.03 -1.44104 0.826027 0
M  V30 1732 O 164.215 -1.5688 1.08597 0
M  V30 1733 C 161.355 -2.54964 2.32567 0
M  V30 1734 C 160.468 -2.39739 3.59373 0
M  V30 1735 C 159.603 -3.66072 3.84921 0
M  V30 1736 C 158.642 -3.45771 5.05083 0
M  V30 1737 N 157.779 -4.64169 5.26775 0
M  V30 1738 H 162.619 -0.870123 2.85014 0
M  V30 1739 H 160.156 -0.418245 1.41029 0
M  V30 1740 H 162.114 -3.32758 2.5165 0
M  V30 1741 H 160.744 -2.87433 1.46908 0
M  V30 1742 H 159.796 -1.53131 3.48217 0
M  V30 1743 H 161.108 -2.20683 4.47326 0
M  V30 1744 H 160.262 -4.52303 4.0436 0
M  V30 1745 H 159.001 -3.88105 2.9534 0
M  V30 1746 H 158.006 -2.57927 4.85545 0
M  V30 1747 H 159.231 -3.25163 5.96193 0
M  V30 1748 H 157.177 -4.86425 4.40144 0
M  V30 1749 H 157.094 -4.48019 6.08946 0
M  V30 1750 H 158.362 -5.51689 5.5069 0
M  V30 1751 N 162.591 -1.51276 -0.441967 0
M  V30 1752 C 163.554 -1.7167 -1.51862 0
M  V30 1753 C 164.554 -0.586793 -1.49711 0
M  V30 1754 O 165.744 -0.854276 -1.51815 0
M  V30 1755 C 162.876 -1.76889 -2.91416 0
M  V30 1756 H 164.069 -2.67754 -1.35084 0
M  V30 1757 H 161.622 -1.41196 -0.670333 0
M  V30 1758 H 162.357 -0.826026 -3.13604 0
M  V30 1759 H 162.142 -2.59001 -2.94382 0
M  V30 1760 H 163.632 -1.94522 -3.69528 0
M  V30 1761 N 164.069 0.697108 -1.41344 0
M  V30 1762 C 165.346 1.45154 -1.31109 0
M  V30 1763 C 165.726 2.11009 0.0620449 0
M  V30 1764 O 165.074 2.01571 1.07618 0
M  V30 1765 C 165.284 2.47223 -2.46337 0
M  V30 1766 C 166.632 3.1252 -2.87431 0
M  V30 1767 O 167.656 2.57547 -2.46065 0
M  V30 1768 O 166.515 4.12083 -3.58957 0
M  V30 1769 H 163.609 0.646365 -0.515889 0
M  V30 1770 H 166.155 0.727716 -1.53305 0
M  V30 1771 H 164.927 1.97204 -3.37974 0
M  V30 1772 H 164.55 3.27116 -2.2601 0
M  V30 1773 N 165.547 1.27147 0.931209 0
M  V30 1774 C 166.457 1.11372 2.06478 0
M  V30 1775 C 167.473 0.044645 1.73943 0
M  V30 1776 O 168.649 0.250417 1.99837 0
M  V30 1777 C 165.714 0.758838 3.38294 0
M  V30 1778 C 164.775 1.90841 3.84549 0
M  V30 1779 C 164.008 1.57036 5.10074 0
M  V30 1780 O 164.231 0.476645 5.68405 0
M  V30 1781 O 163.165 2.40839 5.51616 0
M  V30 1782 H 166.991 2.06493 2.22698 0
M  V30 1783 H 164.576 1.06301 1.04978 0
M  V30 1784 H 166.458 0.574098 4.17471 0
M  V30 1785 H 165.133 -0.162879 3.2329 0
M  V30 1786 H 164.04 2.14819 3.06274 0
M  V30 1787 H 165.373 2.81021 4.04089 0
M  V30 1788 N 167.025 -1.13721 1.09112 0
M  V30 1789 C 168.253 -1.88773 0.846899 0
M  V30 1790 C 168.668 -1.7896 -0.601572 0
M  V30 1791 O 168.025 -1.15394 -1.41388 0
M  V30 1792 C 168.076 -3.3849 1.26913 0
M  V30 1793 O 167.797 -3.48043 2.66079 0
M  V30 1794 C 169.298 -4.30518 1.05682 0
M  V30 1795 H 166.518 -0.59772 0.304914 0
M  V30 1796 H 169.062 -1.43977 1.45227 0
M  V30 1797 H 167.217 -3.80881 0.707723 0
M  V30 1798 H 167.631 -4.4109 2.83795 0
M  V30 1799 H 169.105 -5.3391 1.40156 0
M  V30 1800 H 169.582 -4.392 -0.00563416 0
M  V30 1801 H 170.188 -3.93893 1.60402 0
M  V30 1802 N 168.503 -0.877838 -1.30888 0
M  V30 1803 C 169.733 -0.506678 -2.00291 0
M  V30 1804 C 170.141 0.907449 -1.66018 0
M  V30 1805 O 169.484 1.60719 -0.88967 0
M  V30 1806 C 169.546 -0.59323 -3.54572 0
M  V30 1807 C 169.21 -1.97038 -4.12341 0
M  V30 1808 C 170.207 -2.93889 -4.28865 0
M  V30 1809 C 167.892 -2.27383 -4.47886 0
M  V30 1810 C 169.886 -4.19224 -4.80136 0
M  V30 1811 C 167.573 -3.52965 -4.98857 0
M  V30 1812 C 168.571 -4.48701 -5.14934 0
M  V30 1813 O 168.259 -5.72056 -5.64808 0
M  V30 1814 H 167.991 -0.1951 -0.647234 0
M  V30 1815 H 170.545 -1.18301 -1.6791 0
M  V30 1816 H 168.775 0.140057 -3.86446 0
M  V30 1817 H 170.464 -0.234372 -4.05223 0
M  V30 1818 H 171.23 -2.71756 -4.01714 0
M  V30 1819 H 167.109 -1.53639 -4.34645 0
M  V30 1820 H 170.653 -4.93956 -4.92599 0
M  V30 1821 H 166.55 -3.74939 -5.25443 0
M  V30 1822 H 167.318 -5.74337 -5.83163 0
M  V30 1823 N 169.982 1.44106 -0.638065 0
M  V30 1824 C 171.21 2.06336 -0.152615 0
M  V30 1825 C 171.625 1.47731 1.17563 0
M  V30 1826 O 170.982 0.602806 1.72257 0
M  V30 1827 C 171.033 3.61479 -0.0391491 0
M  V30 1828 O 170.754 4.17903 -1.31487 0
M  V30 1829 C 172.255 4.40757 0.474176 0
M  V30 1830 H 169.475 0.665862 -0.0828776 0
M  V30 1831 H 172.019 1.84862 -0.87443 0
M  V30 1832 H 170.174 3.82191 0.633142 0
M  V30 1833 H 170.588 5.11416 -1.16421 0
M  V30 1834 H 172.062 5.49707 0.502562 0
M  V30 1835 H 172.539 4.12697 1.50258 0
M  V30 1836 H 173.145 4.24979 -0.165102 0
M  V30 1837 N 171.46 0.379036 1.52974 0
M  V30 1838 C 172.685 -0.209353 2.06341 0
M  V30 1839 C 173.11 -1.40583 1.24972 0
M  V30 1840 O 172.468 -1.79246 0.272155 0
M  V30 1841 C 172.516 -0.567786 3.56102 0
M  V30 1842 O 171.62 -1.66318 3.77375 0
M  V30 1843 H 170.961 -0.0272919 0.663439 0
M  V30 1844 H 173.491 0.543536 1.97248 0
M  V30 1845 H 173.501 -0.835003 3.99364 0
M  V30 1846 H 172.176 0.307013 4.14765 0
M  V30 1847 H 170.753 -1.39048 3.46006 0
M  V30 1848 N 172.938 -1.57226 0.108567 0
M  V30 1849 C 174.349 -1.8195 -0.418464 0
M  V30 1850 C 174.7 -1.02508 -1.67292 0
M  V30 1851 O 173.825 -0.258496 -2.14851 0
M  V30 1852 C 174.42 -3.30028 -0.765979 0
M  V30 1853 C 172.979 -3.55469 -1.23769 0
M  V30 1854 C 172.126 -2.7625 -0.241106 0
M  V30 1855 H 175.077 -1.55149 0.33384 0
M  V30 1856 H 175.098 -3.44086 -1.62434 0
M  V30 1857 H 174.61 -3.87821 0.147219 0
M  V30 1858 H 172.711 -3.03022 -2.16814 0
M  V30 1859 H 172.824 -4.6408 -1.19022 0
M  V30 1860 H 171.188 -2.44133 -0.72602 0
M  V30 1861 H 171.971 -3.36797 0.665007 0
M  V30 1862 N 174.416 0.165178 -1.56732 0
M  V30 1863 C 175.326 1.22423 -2.00125 0
M  V30 1864 C 176.342 1.48084 -0.913619 0
M  V30 1865 O 177.518 1.60112 -1.22172 0
M  V30 1866 C 174.583 2.54197 -2.35764 0
M  V30 1867 C 173.644 2.36343 -3.58386 0
M  V30 1868 C 172.877 3.61834 -3.92316 0
M  V30 1869 O 173.1 4.67267 -3.27135 0
M  V30 1870 O 172.034 3.55579 -4.85641 0
M  V30 1871 H 175.86 0.885886 -2.90492 0
M  V30 1872 H 173.445 0.372518 -1.44681 0
M  V30 1873 H 175.327 3.3192 -2.59629 0
M  V30 1874 H 174.002 2.87598 -1.48557 0
M  V30 1875 H 172.909 1.56632 -3.39731 0
M  V30 1876 H 174.242 2.07865 -4.46154 0
M  V30 1877 N 175.894 1.51508 0.433938 0
M  V30 1878 C 177.171 1.54888 1.19453 0
M  V30 1879 C 177.551 0.315154 2.08734 0
M  V30 1880 O 176.899 -0.699558 2.17528 0
M  V30 1881 C 177.109 2.86467 1.99342 0
M  V30 1882 C 178.457 3.38545 2.56267 0
M  V30 1883 O 179.481 2.88041 2.0955 0
M  V30 1884 O 178.34 4.26675 3.41483 0
M  V30 1885 H 175.434 0.622863 0.544032 0
M  V30 1886 H 177.98 1.63823 0.442732 0
M  V30 1887 H 176.752 3.67718 1.33788 0
M  V30 1888 H 176.375 2.8071 2.8158 0
M  V30 1889 N 177.372 -0.689602 1.41712 0
M  V30 1890 C 178.602 -1.47613 1.44548 0
M  V30 1891 C 179.01 -1.89132 0.0509034 0
M  V30 1892 O 178.353 -1.57741 -0.94146 0
M  V30 1893 C 178.415 -2.76596 2.2964 0
M  V30 1894 C 178.079 -2.57245 3.77722 0
M  V30 1895 C 179.076 -2.22804 4.69739 0
M  V30 1896 C 176.761 -2.727 4.2183 0
M  V30 1897 C 178.755 -2.04064 6.03851 0
M  V30 1898 C 176.442 -2.53576 5.56006 0
M  V30 1899 C 177.44 -2.1931 6.46832 0
M  V30 1900 O 177.128 -2.00359 7.78532 0
M  V30 1901 H 176.86 -0.461227 0.494212 0
M  V30 1902 H 179.414 -0.856045 1.86711 0
M  V30 1903 H 177.644 -3.41033 1.82301 0
M  V30 1904 H 179.333 -3.38424 2.24107 0
M  V30 1905 H 180.099 -2.10473 4.36951 0
M  V30 1906 H 175.978 -2.98353 3.51435 0
M  V30 1907 H 179.522 -1.77241 6.74708 0
M  V30 1908 H 175.419 -2.65499 5.88371 0
M  V30 1909 H 176.187 -2.15075 7.89737 0
M  V30 1910 N 178.85 -1.27639 -0.924453 0
M  V30 1911 C 180.097 -1.14167 -1.67249 0
M  V30 1912 C 180.425 0.311863 -1.91984 0
M  V30 1913 O 179.68 1.24425 -1.51053 0
M  V30 1914 C 179.979 -1.87407 -3.04325 0
M  V30 1915 C 179.645 -3.37249 -2.99289 0
M  V30 1916 C 178.307 -3.7812 -2.97622 0
M  V30 1917 C 180.659 -4.32845 -2.90336 0
M  V30 1918 C 177.987 -5.12944 -2.8479 0
M  V30 1919 C 180.339 -5.6773 -2.79045 0
M  V30 1920 C 179.003 -6.07889 -2.7573 0
M  V30 1921 H 178.273 -0.417766 -0.612007 0
M  V30 1922 H 180.92 -1.58286 -1.07786 0
M  V30 1923 H 179.225 -1.35805 -3.67511 0
M  V30 1924 H 180.922 -1.74408 -3.61086 0
M  V30 1925 H 177.512 -3.04748 -3.01374 0
M  V30 1926 H 181.696 -4.02239 -2.90719 0
M  V30 1927 H 176.952 -5.432 -2.80612 0
M  V30 1928 H 181.126 -6.41472 -2.71083 0
M  V30 1929 H 178.753 -7.12314 -2.65544 0
M  V30 1930 N 180.328 1.1314 -1.09713 0
M  V30 1931 C 181.258 2.20748 -0.761102 0
M  V30 1932 C 182.239 1.68061 0.262566 0
M  V30 1933 O 183.424 1.93765 0.129977 0
M  V30 1934 C 180.554 3.46812 -0.184054 0
M  V30 1935 C 179.508 4.12606 -1.13757 0
M  V30 1936 C 178.834 5.33031 -0.422083 0
M  V30 1937 C 180.134 4.59603 -2.48118 0
M  V30 1938 H 181.828 2.49113 -1.66082 0
M  V30 1939 H 179.374 1.19734 -0.799987 0
M  V30 1940 H 181.327 4.21353 0.0631215 0
M  V30 1941 H 180.051 3.17851 0.750868 0
M  V30 1942 H 178.71 3.40036 -1.37007 0
M  V30 1943 H 178.358 5.00335 0.517072 0
M  V30 1944 H 178.058 5.77999 -1.05788 0
M  V30 1945 H 179.582 6.10325 -0.183277 0
M  V30 1946 H 180.996 5.25552 -2.29059 0
M  V30 1947 H 179.393 5.15321 -3.07514 0
M  V30 1948 H 180.463 3.73971 -3.08665 0
M  V30 1949 N 181.806 0.884767 1.30421 0
M  V30 1950 C 183.083 0.423185 1.90967 0
M  V30 1951 C 183.463 -1.09605 1.80416 0
M  V30 1952 O 182.811 -1.93126 1.22125 0
M  V30 1953 C 183.021 0.921056 3.36627 0
M  V30 1954 C 184.369 0.955903 4.137 0
M  V30 1955 O 185.393 0.867706 3.4547 0
M  V30 1956 O 184.252 1.08614 5.35598 0
M  V30 1957 H 181.346 0.129369 0.816819 0
M  V30 1958 H 183.892 0.973653 1.3899 0
M  V30 1959 H 182.664 1.96489 3.3839 0
M  V30 1960 H 182.287 0.349741 3.96059 0
M  V30 1961 N 183.284 -1.43765 0.645699 0
M  V30 1962 C 184.533 -2.01116 0.153412 0
M  V30 1963 C 184.846 -1.51493 -1.23731 0
M  V30 1964 O 186.052 -2.01067 -1.8244 0
M  V30 1965 C 184.508 -3.59206 0.223473 0
M  V30 1966 C 184.116 -4.17823 1.61642 0
M  V30 1967 C 185.86 -4.23972 -0.211597 0
M  V30 1968 C 183.767 -5.68183 1.64081 0
M  V30 1969 H 182.697 -0.752093 0.0535891 0
M  V30 1970 H 185.348 -1.6482 0.806633 0
M  V30 1971 H 183.73 -3.92867 -0.497118 0
M  V30 1972 H 184.904 -3.95674 2.36176 0
M  V30 1973 H 183.219 -3.65399 1.99681 0
M  V30 1974 H 185.816 -5.34275 -0.213112 0
M  V30 1975 H 186.159 -3.97352 -1.24165 0
M  V30 1976 H 186.692 -3.95166 0.456988 0
M  V30 1977 H 183.431 -5.99559 2.64971 0
M  V30 1978 H 182.951 -5.9241 0.938611 0
M  V30 1979 H 184.63 -6.32085 1.3812 0
M  V30 1980 N 184.763 -0.387143 -1.52771 0
M  V30 1981 C 186.01 0.195735 -2.01552 0
M  V30 1982 C 186.338 1.46995 -1.27369 0
M  V30 1983 O 185.593 1.92325 -0.361879 0
M  V30 1984 C 185.892 0.512209 -3.53711 0
M  V30 1985 C 185.558 -0.670202 -4.45891 0
M  V30 1986 C 184.22 -0.994586 -4.70809 0
M  V30 1987 C 186.572 -1.46134 -5.00294 0
M  V30 1988 C 183.9 -2.11169 -5.4738 0
M  V30 1989 C 186.252 -2.56903 -5.78086 0
M  V30 1990 C 184.916 -2.89852 -6.01284 0
M  V30 1991 H 184.186 0.0716246 -0.73753 0
M  V30 1992 H 186.833 -0.524046 -1.8419 0
M  V30 1993 H 185.138 1.31329 -3.69134 0
M  V30 1994 H 186.835 0.975804 -3.88946 0
M  V30 1995 H 183.425 -0.407366 -4.2666 0
M  V30 1996 H 187.609 -1.22397 -4.80971 0
M  V30 1997 H 182.865 -2.3707 -5.63567 0
M  V30 1998 H 187.039 -3.18608 -6.19243 0
M  V30 1999 H 184.666 -3.76533 -6.60399 0
M  V30 2000 N 186.241 1.57166 -0.116904 0
M  V30 2001 C 187.188 2.15202 0.83408 0
M  V30 2002 C 188.158 1.07644 1.26499 0
M  V30 2003 O 189.343 1.35541 1.34288 0
M  V30 2004 C 186.483 2.75405 2.07957 0
M  V30 2005 C 185.596 3.97264 1.69721 0
M  V30 2006 C 184.731 4.45561 2.89221 0
M  V30 2007 C 183.77 5.59956 2.47215 0
M  V30 2008 N 182.907 6.03006 3.59622 0
M  V30 2009 H 187.747 2.96141 0.332335 0
M  V30 2010 H 185.284 1.46309 0.152349 0
M  V30 2011 H 187.242 3.08439 2.80929 0
M  V30 2012 H 185.872 1.97159 2.55594 0
M  V30 2013 H 184.924 3.70404 0.866316 0
M  V30 2014 H 186.236 4.80226 1.34849 0
M  V30 2015 H 185.39 4.80493 3.7042 0
M  V30 2016 H 184.129 3.61544 3.27318 0
M  V30 2017 H 183.134 5.2463 1.64448 0
M  V30 2018 H 184.359 6.45738 2.10238 0
M  V30 2019 H 182.305 5.21931 3.97396 0
M  V30 2020 H 182.222 6.80819 3.28667 0
M  V30 2021 H 183.49 6.42576 4.41267 0
M  V30 2022 N 187.719 -0.156864 1.56817 0
M  V30 2023 C 188.947 -0.886316 1.86955 0
M  V30 2024 C 189.362 -1.75185 0.703975 0
M  V30 2025 O 188.719 -1.79555 -0.326552 0
M  V30 2026 C 188.77 -1.75117 3.16253 0
M  V30 2027 O 188.491 -0.920537 4.2832 0
M  V30 2028 C 189.992 -2.58905 3.59837 0
M  V30 2029 H 187.212 -0.25678 0.619923 0
M  V30 2030 H 189.756 -0.152615 2.0393 0
M  V30 2031 H 187.911 -2.43805 3.01062 0
M  V30 2032 H 188.325 -1.51337 5.02192 0
M  V30 2033 H 189.799 -3.1518 4.53172 0
M  V30 2034 H 190.276 -3.34472 2.84649 0
M  V30 2035 H 190.882 -1.95526 3.7769 0
M  V30 2036 N 189.197 -1.51736 -0.425897 0
M  V30 2037 C 190.613 -1.40166 -0.76326 0
M  V30 2038 C 190.813 -0.492962 -1.95377 0
M  V30 2039 O 189.869 0.0475815 -2.52455 0
M  V30 2040 C 191.182 -2.82403 -1.03291 0
M  V30 2041 C 192.73 -2.91632 -1.13665 0
M  V30 2042 C 193.205 -4.34801 -1.43916 0
M  V30 2043 N 194.696 -4.3796 -1.50816 0
M  V30 2044 C 195.431 -5.4578 -1.75817 0
M  V30 2045 N 194.927 -6.63744 -1.98534 0
M  V30 2046 N 196.72 -5.33274 -1.77694 0
M  V30 2047 H 188.871 -2.09361 0.358 0
M  V30 2048 H 191.134 -0.942941 0.0978094 0
M  V30 2049 H 190.84 -3.50943 -0.230696 0
M  V30 2050 H 190.714 -3.22428 -1.95754 0
M  V30 2051 H 193.101 -2.23284 -1.92947 0
M  V30 2052 H 193.182 -2.55088 -0.190756 0
M  V30 2053 H 192.826 -5.03703 -0.65157 0
M  V30 2054 H 192.756 -4.68868 -2.39729 0
M  V30 2055 H 195.247 -3.52919 -1.35118 0
M  V30 2056 H 195.56 -7.41704 -2.17013 0
M  V30 2057 H 193.905 -6.66839 -1.95832 0
M  V30 2058 H 197.096 -4.40098 -1.59473 0
M  V30 2059 H 197.269 -6.1738 -1.9684 0
M  V30 2060 N 190.675 0.682077 -1.42076 0
M  V30 2061 C 191.952 1.43755 -1.32642 0
M  V30 2062 C 192.332 2.11063 0.0396611 0
M  V30 2063 O 191.68 2.02701 1.05474 0
M  V30 2064 C 191.89 2.44596 -2.48946 0
M  V30 2065 C 193.238 3.09454 -2.9073 0
M  V30 2066 O 194.262 2.54922 -2.48783 0
M  V30 2067 O 193.121 4.08253 -3.63307 0
M  V30 2068 H 190.215 0.640857 -0.522715 0
M  V30 2069 H 192.761 0.711415 -1.54068 0
M  V30 2070 H 191.533 1.93609 -3.40046 0
M  V30 2071 H 191.156 3.24701 -2.29467 0
M  V30 2072 N 192.153 1.28127 0.917671 0
M  V30 2073 C 193.083 1.14248 2.03641 0
M  V30 2074 C 194.064 0.0412748 1.7005 0
M  V30 2075 O 195.249 0.217566 1.92977 0
M  V30 2076 C 192.379 0.799431 3.37974 0
M  V30 2077 C 191.333 1.85497 3.85713 0
M  V30 2078 C 190.659 1.36565 5.16966 0
M  V30 2079 C 191.959 3.26085 4.08002 0
M  V30 2080 H 193.653 2.07835 2.15511 0
M  V30 2081 H 191.199 1.00064 1.03553 0
M  V30 2082 H 193.152 0.689114 4.15727 0
M  V30 2083 H 191.876 -0.172145 3.26146 0
M  V30 2084 H 190.535 1.95437 3.10161 0
M  V30 2085 H 190.183 0.383253 5.01538 0
M  V30 2086 H 189.883 2.07143 5.49878 0
M  V30 2087 H 191.407 1.26848 5.97279 0
M  V30 2088 H 192.821 3.19089 4.76293 0
M  V30 2089 H 191.218 3.94462 4.52238 0
M  V30 2090 H 192.288 3.70394 3.12948 0
M  V30 2091 N 193.631 -1.12557 1.10312 0
M  V30 2092 C 194.561 -2.20341 0.772798 0
M  V30 2093 C 195.542 -1.68198 -0.25365 0
M  V30 2094 O 196.727 -1.93831 -0.119699 0
M  V30 2095 C 193.857 -3.46709 0.202443 0
M  V30 2096 C 192.811 -4.11996 1.15943 0
M  V30 2097 C 192.137 -5.328 0.450345 0
M  V30 2098 C 193.437 -4.5828 2.50552 0
M  V30 2099 H 195.131 -2.48229 1.674 0
M  V30 2100 H 192.677 -1.19308 0.806326 0
M  V30 2101 H 194.63 -4.2138 -0.0407752 0
M  V30 2102 H 193.354 -3.18245 -0.734001 0
M  V30 2103 H 192.013 -3.39305 1.38808 0
M  V30 2104 H 191.661 -5.00602 -0.490531 0
M  V30 2105 H 191.361 -5.7743 1.08851 0
M  V30 2106 H 192.885 -6.10219 0.215642 0
M  V30 2107 H 194.299 -5.2433 2.31843 0
M  V30 2108 H 192.696 -5.13683 3.10242 0
M  V30 2109 H 193.766 -3.72329 3.10643 0
M  V30 2110 N 195.109 -0.891671 -1.2995 0
M  V30 2111 C 196.52 -0.563104 -1.78006 0
M  V30 2112 C 196.871 0.920978 -1.73241 0
M  V30 2113 O 195.996 1.71987 -1.31337 0
M  V30 2114 C 196.591 -1.01539 -3.23226 0
M  V30 2115 C 195.15 -0.738124 -3.69092 0
M  V30 2116 C 194.297 -1.19461 -2.50249 0
M  V30 2117 H 197.248 -1.07522 -1.16725 0
M  V30 2118 H 197.269 -0.347217 -3.78912 0
M  V30 2119 H 196.781 -2.09555 -3.26662 0
M  V30 2120 H 194.882 0.329766 -3.71138 0
M  V30 2121 H 194.995 -1.33037 -4.60259 0
M  V30 2122 H 193.359 -0.613787 -2.47194 0
M  V30 2123 H 194.142 -2.28265 -2.56417 0
M  V30 2124 N 196.587 1.43421 -0.653314 0
M  V30 2125 C 197.835 2.01414 -0.166415 0
M  V30 2126 C 198.156 1.51803 1.22397 0
M  V30 2127 O 197.426 0.730693 1.81763 0
M  V30 2128 H 196.006 0.744703 -0.0585319 0
M  V30 2129 H 198.668 1.75629 -0.845003 0
M  V30 2130 H 197.764 3.11734 -0.151111 0
M  V30 2131 N 198.065 0.39524 1.52563 0
M  V30 2132 C 198.998 -0.4813 2.23067 0
M  V30 2133 C 199.976 -1.05927 1.23362 0
M  V30 2134 O 201.16 -1.10979 1.52368 0
M  V30 2135 C 198.287 -1.66676 2.9485 0
M  V30 2136 C 197.333 -1.21348 4.08873 0
M  V30 2137 S 198.166 -0.190102 5.35162 0
M  V30 2138 C 199.322 -1.38121 6.1047 0
M  V30 2139 H 199.555 0.117381 2.97068 0
M  V30 2140 H 197.088 0.179458 1.53354 0
M  V30 2141 H 199.046 -2.3466 3.36816 0
M  V30 2142 H 197.707 -2.23676 2.20518 0
M  V30 2143 H 196.9 -2.09877 4.58222 0
M  V30 2144 H 196.502 -0.612486 3.68951 0
M  V30 2145 H 198.794 -2.30726 6.37002 0
M  V30 2146 H 199.737 -0.928521 7.01986 0
M  V30 2147 H 200.145 -1.60071 5.41329 0
M  V30 2148 N 199.544 -1.57102 0.125237 0
M  V30 2149 C 200.454 -2.19191 -0.8362 0
M  V30 2150 C 201.47 -1.16985 -1.28805 0
M  V30 2151 O 202.646 -1.49479 -1.34974 0
M  V30 2152 C 199.711 -2.78407 -2.06617 0
M  V30 2153 C 198.772 -3.9567 -1.66565 0
M  V30 2154 C 198.005 -4.52052 -2.83698 0
M  V30 2155 O 198.228 -4.07326 -3.99302 0
M  V30 2156 O 197.162 -5.42645 -2.60423 0
M  V30 2157 H 200.988 -3.01816 -0.337776 0
M  V30 2158 H 198.573 -1.4906 -0.100695 0
M  V30 2159 H 200.455 -3.16129 -2.7864 0
M  V30 2160 H 199.13 -1.9881 -2.55453 0
M  V30 2161 H 198.037 -3.62705 -0.916296 0
M  V30 2162 H 199.37 -4.76722 -1.22464 0
M  V30 2163 N 201.022 0.148545 -1.56898 0
M  V30 2164 C 202.268 0.862694 -1.83536 0
M  V30 2165 C 202.601 1.80889 -0.706604 0
M  V30 2166 O 201.876 1.92328 0.289885 0
M  V30 2167 C 202.159 1.63853 -3.20662 0
M  V30 2168 C 202.012 0.713925 -4.44098 0
M  V30 2169 C 203.331 2.60133 -3.54991 0
M  V30 2170 H 200.45 0.312179 -0.667618 0
M  V30 2171 H 203.092 0.127953 -1.89569 0
M  V30 2172 H 201.242 2.26489 -3.1565 0
M  V30 2173 H 202.914 0.098686 -4.61194 0
M  V30 2174 H 201.157 0.0234019 -4.33794 0
M  V30 2175 H 201.828 1.29278 -5.36648 0
M  V30 2176 H 204.304 2.07616 -3.60603 0
M  V30 2177 H 203.18 3.11468 -4.51972 0
M  V30 2178 H 203.441 3.41417 -2.80868 0
M  V30 2179 N 202.5 1.5196 0.417844 0
M  V30 2180 C 203.728 1.69426 1.18753 0
M  V30 2181 C 204.143 0.399955 1.84515 0
M  V30 2182 O 203.5 -0.623288 1.71527 0
M  V30 2183 C 203.551 2.82375 2.25714 0
M  V30 2184 O 203.272 4.06793 1.62638 0
M  V30 2185 C 204.773 3.11277 3.15628 0
M  V30 2186 H 201.993 0.568031 0.357186 0
M  V30 2187 H 204.537 1.98475 0.49273 0
M  V30 2188 H 202.692 2.5587 2.90877 0
M  V30 2189 H 203.106 4.69667 2.3348 0
M  V30 2190 H 204.58 3.93843 3.86771 0
M  V30 2191 H 205.057 2.24473 3.77503 0
M  V30 2192 H 205.663 3.39515 2.56144 0
M  V30 2193 N 203.978 -0.674533 1.42435 0
M  V30 2194 C 205.225 -1.43459 1.42919 0
M  V30 2195 C 205.553 -1.94446 0.0457312 0
M  V30 2196 O 204.808 -1.7132 -0.94593 0
M  V30 2197 C 205.107 -2.64767 2.40069 0
M  V30 2198 C 204.773 -2.3232 3.86443 0
M  V30 2199 C 203.435 -2.23182 4.26314 0
M  V30 2200 C 205.787 -2.05977 4.78773 0
M  V30 2201 C 203.115 -1.85827 5.56494 0
M  V30 2202 C 205.467 -1.70125 6.09295 0
M  V30 2203 C 204.131 -1.59498 6.48164 0
M  V30 2204 H 203.401 -0.524952 0.522978 0
M  V30 2205 H 206.048 -0.769097 1.75377 0
M  V30 2206 H 204.353 -3.36349 2.00939 0
M  V30 2207 H 206.05 -3.22949 2.37707 0
M  V30 2208 H 202.64 -2.40334 3.54877 0
M  V30 2209 H 206.824 -2.11969 4.48757 0
M  V30 2210 H 202.08 -1.76168 5.8547 0
M  V30 2211 H 206.254 -1.48767 6.80324 0
M  V30 2212 H 203.881 -1.30322 7.48946 0
M  V30 2213 N 205.456 -1.28612 -0.910864 0
M  V30 2214 C 206.703 -1.15934 -1.66029 0
M  V30 2215 C 207.031 0.291483 -1.92303 0
M  V30 2216 O 206.286 1.22816 -1.52364 0
M  V30 2217 C 206.585 -1.90624 -3.0232 0
M  V30 2218 C 206.251 -3.40405 -2.95695 0
M  V30 2219 C 204.913 -3.81255 -2.93595 0
M  V30 2220 C 207.265 -4.359 -2.85728 0
M  V30 2221 C 204.593 -5.15936 -2.79334 0
M  V30 2222 C 206.945 -5.70657 -2.73007 0
M  V30 2223 C 205.609 -6.10779 -2.69267 0
M  V30 2224 H 204.879 -0.424234 -0.607541 0
M  V30 2225 H 207.526 -1.5942 -1.06101 0
M  V30 2226 H 205.831 -1.39696 -3.6605 0
M  V30 2227 H 207.528 -1.78228 -3.59215 0
M  V30 2228 H 204.118 -3.07927 -2.98125 0
M  V30 2229 H 208.302 -4.053 -2.86436 0
M  V30 2230 H 203.558 -5.46146 -2.74835 0
M  V30 2231 H 207.732 -6.44311 -2.64264 0
M  V30 2232 H 205.359 -7.1509 -2.57974 0
M  V30 2233 N 206.934 1.1197 -1.10907 0
M  V30 2234 C 208.18 1.8386 -0.855773 0
M  V30 2235 C 208.513 1.84134 0.617103 0
M  V30 2236 O 207.788 1.29041 1.45529 0
M  V30 2237 C 208.071 3.31305 -1.411 0
M  V30 2238 C 207.924 3.39456 -2.9511 0
M  V30 2239 C 209.243 4.2721 -1.05736 0
M  V30 2240 H 206.362 0.667545 -0.312334 0
M  V30 2241 H 209.004 1.31331 -1.37303 0
M  V30 2242 H 207.154 3.76169 -0.97105 0
M  V30 2243 H 208.826 3.03191 -3.47668 0
M  V30 2244 H 207.069 2.79849 -3.31462 0
M  V30 2245 H 207.74 4.43209 -3.29044 0
M  V30 2246 H 210.216 3.90497 -1.43706 0
M  V30 2247 H 209.092 5.28775 -1.47269 0
M  V30 2248 H 209.353 4.42088 0.0325958 0
M  V30 2249 N 208.412 0.89855 1.29475 0
M  V30 2250 C 209.322 0.379974 2.31502 0
M  V30 2251 C 210.338 -0.524695 1.659 0
M  V30 2252 O 211.514 -0.414551 1.97087 0
M  V30 2253 C 208.579 -0.385138 3.44554 0
M  V30 2254 C 207.64 0.550914 4.2575 0
M  V30 2255 C 206.873 -0.177778 5.33404 0
M  V30 2256 O 207.096 -1.40189 5.52904 0
M  V30 2257 O 206.03 0.479106 5.9999 0
M  V30 2258 H 209.856 1.22639 2.77837 0
M  V30 2259 H 207.441 0.662834 1.33891 0
M  V30 2260 H 209.323 -0.817841 4.13388 0
M  V30 2261 H 207.998 -1.20763 3.0033 0
M  V30 2262 H 206.905 1.03271 3.59564 0
M  V30 2263 H 208.238 1.33979 4.73614 0
M  V30 2264 N 209.89 -1.43072 0.660911 0
M  V30 2265 C 211.167 -1.95307 0.107017 0
M  V30 2266 C 211.547 -1.60192 -1.37484 0
M  V30 2267 O 210.895 -0.890949 -2.10415 0
M  V30 2268 C 211.105 -3.47124 0.361402 0
M  V30 2269 C 212.453 -4.23738 0.270455 0
M  V30 2270 O 213.477 -3.54981 0.294382 0
M  V30 2271 O 212.336 -5.46131 0.200737 0
M  V30 2272 H 209.43 -0.826984 -0.00517729 0
M  V30 2273 H 211.976 -1.52972 0.734681 0
M  V30 2274 H 210.748 -3.65837 1.38848 0
M  V30 2275 H 210.371 -3.96475 -0.298953 0
M  V30 2276 N 211.368 -0.403325 -1.52352 0
M  V30 2277 C 212.614 0.167015 -2.02713 0
M  V30 2278 C 212.969 1.43296 -1.28391 0
M  V30 2279 O 212.262 1.87796 -0.379885 0
M  V30 2280 C 212.456 0.474665 -3.54234 0
M  V30 2281 C 212.285 -0.759909 -4.43233 0
M  V30 2282 C 211.055 -1.28338 -4.88731 0
M  V30 2283 C 213.253 -1.63634 -4.87574 0
M  V30 2284 N 211.235 -2.47404 -5.6184 0
M  V30 2285 C 212.606 -2.67329 -5.59406 0
M  V30 2286 C 214.661 -1.65478 -4.69597 0
M  V30 2287 C 213.364 -3.72773 -6.15169 0
M  V30 2288 C 215.39 -2.69837 -5.26253 0
M  V30 2289 C 214.752 -3.72253 -5.98002 0
M  V30 2290 H 210.851 0.0228343 -0.781667 0
M  V30 2291 H 213.435 -0.556368 -1.86581 0
M  V30 2292 H 211.606 1.16709 -3.7045 0
M  V30 2293 H 213.338 1.03338 -3.91284 0
M  V30 2294 H 210.093 -0.842273 -4.6605 0
M  V30 2295 H 210.517 -3.07688 -6.0304 0
M  V30 2296 H 215.159 -0.876389 -4.13617 0
M  V30 2297 H 212.877 -4.51471 -6.70223 0
M  V30 2298 H 216.463 -2.72164 -5.14216 0
M  V30 2299 H 215.343 -4.51679 -6.41058 0
M  V30 2300 N 212.846 1.57033 -0.133567 0
M  V30 2301 C 214.092 1.95976 0.521649 0
M  V30 2302 C 214.425 1.01779 1.65393 0
M  V30 2303 O 213.7 0.0576581 1.94415 0
M  V30 2304 C 213.983 3.44738 1.04057 0
M  V30 2305 C 213.836 4.49711 -0.0892897 0
M  V30 2306 C 215.155 3.95682 1.92675 0
M  V30 2307 H 212.274 0.712579 0.188149 0
M  V30 2308 H 214.916 1.88813 -0.212076 0
M  V30 2309 H 213.066 3.50973 1.66583 0
M  V30 2310 H 214.738 4.55565 -0.725152 0
M  V30 2311 H 212.981 4.27261 -0.750378 0
M  V30 2312 H 213.652 5.51099 0.315284 0
M  V30 2313 H 216.128 3.91841 1.39998 0
M  V30 2314 H 215.004 5.00262 2.25897 0
M  V30 2315 H 215.265 3.37239 2.85872 0
M  V30 2316 N 214.325 -0.140222 1.56975 0
M  V30 2317 C 215.235 -1.19223 2.02047 0
M  V30 2318 C 216.251 -1.46612 0.937062 0
M  V30 2319 O 217.427 -1.58148 1.24704 0
M  V30 2320 C 214.492 -2.50414 2.39778 0
M  V30 2321 C 213.553 -2.30612 3.621 0
M  V30 2322 C 212.786 -3.55547 3.98023 0
M  V30 2323 O 213.009 -4.62004 3.34528 0
M  V30 2324 O 211.943 -3.47808 4.91237 0
M  V30 2325 H 215.769 -0.839559 2.91865 0
M  V30 2326 H 213.354 -0.349453 1.45256 0
M  V30 2327 H 215.236 -3.27747 2.64877 0
M  V30 2328 H 213.911 -2.85198 1.53114 0
M  V30 2329 H 212.818 -1.51207 3.4218 0
M  V30 2330 H 214.151 -2.00741 4.49404 0
M  V30 2331 N 215.803 -1.52179 -0.40978 0
M  V30 2332 C 217.052 -1.65434 -1.15388 0
M  V30 2333 C 217.365 -0.390056 -1.91671 0
M  V30 2334 O 218.571 -0.402399 -2.68501 0
M  V30 2335 C 217.027 -2.92279 -2.10003 0
M  V30 2336 C 216.635 -4.25813 -1.39239 0
M  V30 2337 C 218.379 -3.14897 -2.84675 0
M  V30 2338 C 216.286 -5.43782 -2.32498 0
M  V30 2339 H 215.216 -0.616267 -0.434432 0
M  V30 2340 H 217.867 -1.78666 -0.418401 0
M  V30 2341 H 216.249 -2.72744 -2.871 0
M  V30 2342 H 217.423 -4.55828 -0.675099 0
M  V30 2343 H 215.738 -4.09292 -0.766097 0
M  V30 2344 H 218.335 -4.0021 -3.54593 0
M  V30 2345 H 218.678 -2.29103 -3.47588 0
M  V30 2346 H 219.211 -3.34901 -2.14677 0
M  V30 2347 H 215.95 -6.3192 -1.74233 0
M  V30 2348 H 215.47 -5.18106 -3.02201 0
M  V30 2349 H 217.149 -5.76834 -2.93038 0
M  V30 2350 N 217.281 0.66697 -1.42791 0
M  V30 2351 C 218.214 1.79177 -1.41318 0
M  V30 2352 C 219.192 1.60234 -0.276401 0
M  V30 2353 O 220.376 1.82602 -0.46785 0
M  V30 2354 C 217.503 3.16289 -1.21157 0
M  V30 2355 C 216.549 3.53964 -2.37932 0
M  V30 2356 S 217.382 3.55501 -4.00474 0
M  V30 2357 C 218.538 4.95292 -3.8267 0
M  V30 2358 H 218.771 1.80153 -2.365 0
M  V30 2359 H 216.304 0.838357 -1.29657 0
M  V30 2360 H 218.262 3.95428 -1.10212 0
M  V30 2361 H 216.923 3.1289 -0.275481 0
M  V30 2362 H 216.116 4.53646 -2.19594 0
M  V30 2363 H 215.718 2.82204 -2.45432 0
M  V30 2364 H 218.01 5.83584 -3.44145 0
M  V30 2365 H 218.953 5.18679 -4.82055 0
M  V30 2366 H 219.361 4.68179 -3.15386 0
M  V30 2367 N 218.759 1.29093 0.90403 0
M  V30 2368 C 219.689 1.16401 2.02418 0
M  V30 2369 C 220.67 0.0593085 1.69997 0
M  V30 2370 O 221.855 0.238021 1.92736 0
M  V30 2371 C 218.985 0.835233 3.37107 0
M  V30 2372 C 217.939 1.89578 3.83724 0
M  V30 2373 C 217.265 1.42041 5.15489 0
M  V30 2374 C 218.565 3.30394 4.04521 0
M  V30 2375 H 220.259 2.10109 2.13295 0
M  V30 2376 H 217.805 1.01157 1.02486 0
M  V30 2377 H 219.758 0.733169 4.14973 0
M  V30 2378 H 218.482 -0.137543 3.2631 0
M  V30 2379 H 217.141 1.98715 3.08071 0
M  V30 2380 H 216.789 0.436426 5.01103 0
M  V30 2381 H 216.489 2.12964 5.4765 0
M  V30 2382 H 218.013 1.33176 5.959 0
M  V30 2383 H 219.427 3.24123 4.72882 0
M  V30 2384 H 217.824 3.99237 4.48029 0
M  V30 2385 H 218.894 3.73692 3.09002 0
M  V30 2386 N 220.237 -1.11381 1.11499 0
M  V30 2387 C 221.2 -2.15622 0.777153 0
M  V30 2388 C 222.2 -1.59504 -0.203779 0
M  V30 2389 O 223.39 -1.74188 0.020782 0
M  V30 2390 C 220.522 -3.40556 0.153116 0
M  V30 2391 H 221.715 -2.47021 1.70061 0
M  V30 2392 H 219.268 -1.26577 0.916952 0
M  V30 2393 H 220.003 -3.14767 -0.780536 0
M  V30 2394 H 219.788 -3.8257 0.859238 0
M  V30 2395 H 221.278 -4.17546 -0.0671044 0
M  V30 2396 N 221.715 -0.905404 -1.28997 0
M  V30 2397 C 222.662 -0.385892 -2.27551 0
M  V30 2398 C 223.632 0.535113 -1.57244 0
M  V30 2399 O 224.817 0.459119 -1.85194 0
M  V30 2400 C 221.957 0.375461 -3.43051 0
M  V30 2401 C 221.07 -0.577092 -4.28128 0
M  V30 2402 C 220.205 0.201879 -5.30816 0
M  V30 2403 C 219.244 -0.744829 -6.07551 0
M  V30 2404 N 218.381 9.42587e-05 -7.021 0
M  V30 2405 H 223.221 -1.23139 -2.71368 0
M  V30 2406 H 220.758 -0.618542 -1.33463 0
M  V30 2407 H 222.716 0.832992 -4.088 0
M  V30 2408 H 221.346 1.18537 -3.00248 0
M  V30 2409 H 220.398 -1.15315 -3.62501 0
M  V30 2410 H 221.71 -1.30152 -4.8152 0
M  V30 2411 H 220.864 0.720351 -6.02408 0
M  V30 2412 H 219.603 0.959413 -4.7817 0
M  V30 2413 H 218.608 -1.27475 -5.34818 0
M  V30 2414 H 219.833 -1.50178 -6.62286 0
M  V30 2415 H 217.779 0.739791 -6.51815 0
M  V30 2416 H 217.696 -0.664321 -7.53076 0
M  V30 2417 H 218.964 0.498644 -7.77903 0
M  V30 2418 N 223.193 1.4272 -0.668489 0
M  V30 2419 C 224.442 2.00846 -0.185389 0
M  V30 2420 C 224.755 1.53442 1.21305 0
M  V30 2421 O 225.961 2.03944 1.79218 0
M  V30 2422 C 224.417 3.58805 -0.280591 0
M  V30 2423 C 224.025 4.15198 -1.68268 0
M  V30 2424 C 225.769 4.24255 0.14412 0
M  V30 2425 C 223.676 5.655 -1.73099 0
M  V30 2426 H 222.606 0.751145 -0.0655475 0
M  V30 2427 H 225.257 1.63516 -0.832752 0
M  V30 2428 H 223.639 3.93608 0.434553 0
M  V30 2429 H 224.813 3.91866 -2.42441 0
M  V30 2430 H 223.128 3.62176 -2.05469 0
M  V30 2431 H 225.725 5.34547 0.128086 0
M  V30 2432 H 226.068 3.99277 1.17827 0
M  V30 2433 H 226.601 3.94389 -0.519798 0
M  V30 2434 H 223.34 5.95268 -2.74475 0
M  V30 2435 H 222.86 5.90842 -1.03274 0
M  V30 2436 H 224.539 6.29808 -1.48158 0
M  V30 2437 N 224.671 0.411399 1.52136 0
M  V30 2438 C 226.082 -0.0576826 1.86611 0
M  V30 2439 C 226.433 -1.44238 1.33003 0
M  V30 2440 O 225.558 -2.05759 0.670228 0
M  V30 2441 C 226.153 -0.111448 3.38617 0
M  V30 2442 C 224.712 -0.52487 3.72723 0
M  V30 2443 C 223.859 0.299176 2.75681 0
M  V30 2444 H 226.81 0.628368 1.4573 0
M  V30 2445 H 226.831 -0.926252 3.69054 0
M  V30 2446 H 226.343 0.896488 3.77604 0
M  V30 2447 H 224.444 -1.53936 3.39315 0
M  V30 2448 H 224.557 -0.267681 4.78352 0
M  V30 2449 H 222.921 -0.238814 2.53578 0
M  V30 2450 H 223.704 1.3055 3.17508 0
M  V30 2451 N 226.149 -1.5696 0.141893 0
M  V30 2452 C 227.397 -1.95573 -0.509484 0
M  V30 2453 C 227.718 -1.02746 -1.65736 0
M  V30 2454 O 226.988 -0.0880311 -1.95702 0
M  V30 2455 H 225.568 -0.722115 -0.191205 0
M  V30 2456 H 228.23 -1.93697 0.216196 0
M  V30 2457 H 227.326 -2.99171 -0.889 0
M  V30 2458 N 227.627 0.131896 -1.57047 0
M  V30 2459 C 228.575 1.18146 -2.0036 0
M  V30 2460 C 229.569 1.43614 -0.898406 0
M  V30 2461 O 230.775 1.43729 -1.08361 0
M  V30 2462 H 227.15 0.398042 -0.638018 0
M  V30 2463 H 229.121 0.789564 -2.87765 0
M  V30 2464 C 227.87 2.50341 -2.41298 0
M  V30 2465 H 227.193 2.31578 -3.25902 0
M  V30 2466 H 228.633 3.22371 -2.75414 0
M  V30 2467 C 227.092 3.11984 -1.27153 0
M  V30 2468 O 227.622 3.97484 -0.580459 0
M  V30 2469 N 225.828 2.71662 -1.03189 0
M  V30 2470 H 225.375 2.02231 -1.59564 0
M  V30 2471 H 225.333 3.13238 -0.270077 0
M  V30 2472 N 229.106 1.52395 0.401703 0
M  V30 2473 C 230.354 1.66488 1.14569 0
M  V30 2474 C 230.675 0.400897 1.90835 0
M  V30 2475 O 229.945 -0.584415 1.8698 0
M  V30 2476 H 228.525 0.613672 0.425929 0
M  V30 2477 H 231.187 1.89464 0.457093 0
M  V30 2478 H 230.283 2.50942 1.85566 0
M  V30 2479 N 230.584 -0.659388 1.43143 0
M  V30 2480 C 231.832 -1.41654 1.44147 0
M  V30 2481 C 232.153 -1.94893 0.0645739 0
M  V30 2482 O 231.423 -1.74044 -0.899198 0
M  V30 2483 H 230.003 -0.525708 0.530697 0
M  V30 2484 H 232.665 -0.778097 1.78694 0
M  V30 2485 H 231.761 -2.26195 2.1504 0
M  V30 2486 N 232.062 -1.29571 -0.897171 0
M  V30 2487 C 232.972 -1.16808 -2.03453 0
M  V30 2488 C 233.988 -0.0907471 -1.73763 0
M  V30 2489 O 235.164 -0.303312 -1.99103 0
M  V30 2490 C 232.229 -0.848264 -3.36163 0
M  V30 2491 C 231.29 -2.0097 -3.79354 0
M  V30 2492 C 230.523 -1.70505 -5.05731 0
M  V30 2493 O 230.746 -0.62718 -5.66941 0
M  V30 2494 O 229.68 -2.5538 -5.45036 0
M  V30 2495 H 233.506 -2.12325 -2.17144 0
M  V30 2496 H 231.091 -1.09047 -1.02123 0
M  V30 2497 H 232.973 -0.684581 -4.15802 0
M  V30 2498 H 231.648 0.0771071 -3.23608 0
M  V30 2499 H 230.555 -2.22863 -3.00471 0
M  V30 2500 H 231.888 -2.91636 -3.96496 0
M  V30 2501 N 233.54 1.10788 -1.12088 0
M  V30 2502 C 234.473 2.16237 -0.729168 0
M  V30 2503 C 235.451 1.60207 0.277921 0
M  V30 2504 O 236.635 1.87707 0.172737 0
M  V30 2505 C 233.762 3.38609 -0.0786848 0
M  V30 2506 C 232.808 4.13322 -1.05201 0
M  V30 2507 S 233.641 4.69371 -2.57781 0
M  V30 2508 C 234.797 5.95058 -1.94053 0
M  V30 2509 H 235.03 2.4913 -1.62239 0
M  V30 2510 H 232.563 1.22519 -0.939603 0
M  V30 2511 H 234.521 4.09473 0.290254 0
M  V30 2512 H 233.182 3.03962 0.791593 0
M  V30 2513 H 232.375 5.01051 -0.544433 0
M  V30 2514 H 231.977 3.48251 -1.36371 0
M  V30 2515 H 234.269 6.65278 -1.28107 0
M  V30 2516 H 235.212 6.50472 -2.79807 0
M  V30 2517 H 235.62 5.46918 -1.39787 0
M  V30 2518 N 235.018 0.912232 1.28515 0
M  V30 2519 C 236.429 0.591352 1.77087 0
M  V30 2520 C 236.78 -0.8933 1.74684 0
M  V30 2521 O 235.905 -1.69876 1.34056 0
M  V30 2522 C 236.5 1.06668 3.2157 0
M  V30 2523 C 235.059 0.79675 3.67871 0
M  V30 2524 C 234.206 1.23427 2.48316 0
M  V30 2525 H 237.157 1.09365 1.15 0
M  V30 2526 H 237.178 0.407455 3.78312 0
M  V30 2527 H 236.69 2.14726 3.23287 0
M  V30 2528 H 234.791 -0.270679 3.71616 0
M  V30 2529 H 234.904 1.40343 4.58084 0
M  V30 2530 H 233.268 0.653036 2.46186 0
M  V30 2531 H 234.051 2.32316 2.52753 0
M  V30 2532 N 236.496 -1.42363 0.676048 0
M  V30 2533 C 237.743 -2.01522 0.19883 0
M  V30 2534 C 238.071 -1.53456 -1.19505 0
M  V30 2535 O 237.326 -0.727967 -1.81657 0
M  V30 2536 C 237.625 -3.56929 0.183431 0
M  V30 2537 C 237.291 -4.24431 1.52215 0
M  V30 2538 C 235.953 -4.42585 1.8887 0
M  V30 2539 C 238.305 -4.62459 2.40377 0
M  V30 2540 C 235.633 -4.96039 3.13309 0
M  V30 2541 C 237.985 -5.17294 3.64129 0
M  V30 2542 C 236.649 -5.33661 4.00951 0
M  V30 2543 H 235.919 -0.737419 0.0727571 0
M  V30 2544 H 238.566 -1.70531 0.871281 0
M  V30 2545 H 236.871 -3.87594 -0.572532 0
M  V30 2546 H 238.568 -4.00486 -0.203035 0
M  V30 2547 H 235.158 -4.10661 1.22701 0
M  V30 2548 H 239.342 -4.48105 2.13343 0
M  V30 2549 H 234.598 -5.06896 3.41857 0
M  V30 2550 H 238.772 -5.45704 4.32644 0
M  V30 2551 H 236.399 -5.74845 4.9745 0
M  V30 2552 N 237.974 -0.419461 -1.51915 0
M  V30 2553 C 238.924 0.418496 -2.24126 0
M  V30 2554 C 239.908 1.00495 -1.25656 0
M  V30 2555 O 241.1 0.926058 -1.50842 0
M  V30 2556 C 238.229 1.52899 -3.07371 0
M  V30 2557 C 237.315 0.952797 -4.13258 0
M  V30 2558 N 237.706 0.104175 -5.05693 0
M  V30 2559 C 236.004 1.22224 -4.28926 0
M  V30 2560 C 236.705 -0.21752 -5.81293 0
M  V30 2561 N 235.681 0.394293 -5.42168 0
M  V30 2562 H 239.483 -0.236048 -2.92951 0
M  V30 2563 H 236.997 -0.230481 -1.60756 0
M  V30 2564 H 238.994 2.14199 -3.57665 0
M  V30 2565 H 237.654 2.18605 -2.40088 0
M  V30 2566 H 238.665 -0.260924 -5.17242 0
M  V30 2567 H 235.342 1.87812 -3.72871 0
M  V30 2568 H 236.732 -0.906992 -6.6575 0
M  V30 2569 N 239.452 1.56882 -0.150215 0
M  V30 2570 C 240.399 2.16922 0.788244 0
M  V30 2571 C 241.369 1.10303 1.24187 0
M  V30 2572 O 242.554 1.38359 1.31383 0
M  V30 2573 C 239.694 2.79754 2.02068 0
M  V30 2574 C 238.807 4.00775 1.61257 0
M  V30 2575 C 237.942 4.51595 2.79705 0
M  V30 2576 C 236.981 5.65074 2.35282 0
M  V30 2577 N 236.118 6.10499 3.4675 0
M  V30 2578 H 240.958 2.96779 0.269444 0
M  V30 2579 H 238.495 1.46599 0.12128 0
M  V30 2580 H 240.453 3.14329 2.74323 0
M  V30 2581 H 239.083 2.02536 2.51354 0
M  V30 2582 H 238.135 3.72158 0.787553 0
M  V30 2583 H 239.447 4.82978 1.24633 0
M  V30 2584 H 238.601 4.88242 3.60145 0
M  V30 2585 H 237.34 3.68406 3.19576 0
M  V30 2586 H 236.345 5.28 1.53283 0
M  V30 2587 H 237.57 6.50052 1.96493 0
M  V30 2588 H 235.516 5.30243 3.86236 0
M  V30 2589 H 235.433 6.87637 3.14152 0
M  V30 2590 H 236.701 6.51791 4.27537 0
M  V30 2591 N 240.93 -0.123565 1.57115 0
M  V30 2592 C 241.88 -1.1575 1.96433 0
M  V30 2593 C 242.864 -1.37313 0.838686 0
M  V30 2594 O 244.056 -1.38482 1.10235 0
M  V30 2595 C 241.185 -2.48526 2.36833 0
M  V30 2596 C 240.271 -2.30457 3.5602 0
M  V30 2597 N 240.662 -1.8219 4.71848 0
M  V30 2598 C 238.96 -2.61129 3.61563 0
M  V30 2599 C 239.661 -1.77721 5.53886 0
M  V30 2600 N 238.637 -2.21899 4.96248 0
M  V30 2601 H 242.439 -0.776797 2.83449 0
M  V30 2602 H 239.953 -0.331364 1.58983 0
M  V30 2603 H 241.95 -3.233 2.63216 0
M  V30 2604 H 240.61 -2.87358 1.5118 0
M  V30 2605 H 241.621 -1.51805 4.95152 0
M  V30 2606 H 238.298 -3.03678 2.86507 0
M  V30 2607 H 239.688 -1.41697 6.56789 0
M  V30 2608 N 242.408 -1.52605 -0.393616 0
M  V30 2609 C 243.824 -1.41753 -0.733357 0
M  V30 2610 C 244.024 -0.534293 -1.94287 0
M  V30 2611 O 243.08 -0.0059787 -2.52499 0
M  V30 2612 C 244.393 -2.84531 -0.972772 0
M  V30 2613 C 245.941 -2.93978 -1.07453 0
M  V30 2614 C 246.416 -4.37756 -1.3466 0
M  V30 2615 N 247.907 -4.4106 -1.41492 0
M  V30 2616 C 248.642 -5.49387 -1.642 0
M  V30 2617 N 248.138 -6.67806 -1.8441 0
M  V30 2618 N 249.931 -5.36923 -1.66342 0
M  V30 2619 H 242.082 -2.08555 0.402328 0
M  V30 2620 H 244.345 -0.940654 0.117789 0
M  V30 2621 H 244.051 -3.51353 -0.156204 0
M  V30 2622 H 243.925 -3.26508 -1.88871 0
M  V30 2623 H 246.312 -2.27326 -1.88167 0
M  V30 2624 H 246.393 -2.55435 -0.136605 0
M  V30 2625 H 246.037 -5.04972 -0.544581 0
M  V30 2626 H 245.967 -4.73848 -2.2973 0
M  V30 2627 H 248.458 -3.55705 -1.27601 0
M  V30 2628 H 248.771 -7.46141 -2.01231 0
M  V30 2629 H 247.116 -6.70843 -1.81644 0
M  V30 2630 H 250.307 -4.43381 -1.50102 0
M  V30 2631 H 250.48 -6.21416 -1.837 0
M  V30 2632 N 243.887 0.651787 -1.4349 0
M  V30 2633 C 244.835 1.78586 -1.49029 0
M  V30 2634 C 245.829 1.65448 -0.363767 0
M  V30 2635 O 247.035 1.71777 -0.537821 0
M  V30 2636 H 243.41 0.589236 -0.467231 0
M  V30 2637 H 245.381 1.71035 -2.44519 0
M  V30 2638 C 244.13 3.16851 -1.43181 0
M  V30 2639 H 243.453 3.27598 -2.29171 0
M  V30 2640 H 244.893 3.96156 -1.51118 0
M  V30 2641 C 243.352 3.36568 -0.149616 0
M  V30 2642 O 243.882 3.93885 0.788509 0
M  V30 2643 N 242.088 2.90539 -0.0593484 0
M  V30 2644 H 241.635 2.4408 -0.823575 0
M  V30 2645 H 241.593 3.04108 0.797853 0
M  V30 2646 N 245.365 1.30045 0.890287 0
M  V30 2647 C 246.275 1.17885 2.02831 0
M  V30 2648 C 247.291 0.0999609 1.73713 0
M  V30 2649 O 248.467 0.313867 1.98939 0
M  V30 2650 C 245.532 0.866079 3.35708 0
M  V30 2651 C 244.593 2.02979 3.78283 0
M  V30 2652 C 243.826 1.73184 5.0482 0
M  V30 2653 O 244.049 0.657237 5.66601 0
M  V30 2654 O 242.983 2.58267 5.43674 0
M  V30 2655 H 246.809 2.13474 2.16015 0
M  V30 2656 H 244.394 1.09587 1.01543 0
M  V30 2657 H 246.276 0.706623 4.15433 0
M  V30 2658 H 244.951 -0.0599443 3.23644 0
M  V30 2659 H 243.858 2.24454 2.99285 0
M  V30 2660 H 245.191 2.93734 3.94944 0
M  V30 2661 N 246.843 -1.10192 1.12674 0
M  V30 2662 C 247.775 -2.16418 0.754701 0
M  V30 2663 C 248.788 -1.61309 -0.21986 0
M  V30 2664 O 249.977 -1.785 -0.000826841 0
M  V30 2665 C 247.077 -3.38762 0.096698 0
M  V30 2666 C 246.25 -4.23307 1.10136 0
M  V30 2667 C 245.309 -5.24092 0.470513 0
M  V30 2668 O 244.335 -5.57906 1.12824 0
M  V30 2669 N 245.537 -5.75491 -0.760948 0
M  V30 2670 H 248.302 -2.48943 1.66875 0
M  V30 2671 H 245.863 -1.25834 1.01869 0
M  V30 2672 H 247.855 -4.03291 -0.337384 0
M  V30 2673 H 246.425 -3.04192 -0.720153 0
M  V30 2674 H 245.645 -3.55036 1.71299 0
M  V30 2675 H 246.933 -4.76624 1.78064 0
M  V30 2676 H 246.331 -5.50222 -1.31424 0
M  V30 2677 H 244.888 -6.41792 -1.13781 0
M  V30 2678 N 248.321 -0.919034 -1.28029 0
M  V30 2679 C 249.57 -0.550802 -1.94034 0
M  V30 2680 C 249.883 0.910877 -1.73096 0
M  V30 2681 O 251.089 1.3875 -2.33368 0
M  V30 2682 C 249.545 -0.934249 -3.47563 0
M  V30 2683 C 249.153 -2.41602 -3.7727 0
M  V30 2684 C 250.897 -0.636854 -4.19696 0
M  V30 2685 C 248.804 -2.73932 -5.24133 0
M  V30 2686 H 247.734 -0.202273 -0.726362 0
M  V30 2687 H 250.385 -1.11867 -1.45458 0
M  V30 2688 H 248.767 -0.295115 -3.94899 0
M  V30 2689 H 249.941 -3.10233 -3.40723 0
M  V30 2690 H 248.256 -2.68441 -3.18321 0
M  V30 2691 H 250.853 -0.855005 -5.2782 0
M  V30 2692 H 251.196 0.425575 -4.14119 0
M  V30 2693 H 251.729 -1.23469 -3.78154 0
M  V30 2694 H 248.468 -3.79049 -5.34792 0
M  V30 2695 H 247.988 -2.09942 -5.61858 0
M  V30 2696 H 249.667 -2.61215 -5.91925 0
M  V30 2697 N 249.799 1.42003 -0.683588 0
M  V30 2698 C 251.047 2.01015 -0.209101 0
M  V30 2699 C 251.368 1.54365 1.19149 0
M  V30 2700 O 250.638 0.769083 1.80172 0
M  V30 2701 H 249.218 0.743294 -0.074315 0
M  V30 2702 H 251.88 1.73798 -0.882066 0
M  V30 2703 H 250.976 3.11343 -0.2172 0
M  V30 2704 N 251.277 0.427512 1.51691 0
M  V30 2705 C 252.526 -0.143679 2.01188 0
M  V30 2706 C 252.839 -1.44642 1.31674 0
M  V30 2707 O 254.045 -2.09997 1.72086 0
M  V30 2708 C 252.501 -0.306602 3.58592 0
M  V30 2709 C 252.109 0.985125 4.37035 0
M  V30 2710 C 253.853 -0.832091 4.16265 0
M  V30 2711 C 251.76 0.788382 5.86122 0
M  V30 2712 H 250.69 -0.0574701 0.751807 0
M  V30 2713 H 253.341 0.555772 1.74881 0
M  V30 2714 H 251.723 -1.06882 3.81303 0
M  V30 2715 H 252.897 1.75492 4.26074 0
M  V30 2716 H 251.212 1.4384 3.90767 0
M  V30 2717 H 253.809 -0.995617 5.25349 0
M  V30 2718 H 254.152 -1.81186 3.74803 0
M  V30 2719 H 254.685 -0.128444 3.97593 0
M  V30 2720 H 251.424 1.74025 6.31978 0
M  V30 2721 H 250.944 0.0582143 5.99772 0
M  V30 2722 H 252.623 0.437722 6.45518 0
M  V30 2723 N 252.755 -1.56801 0.158532 0
M  V30 2724 C 253.995 -1.98383 -0.49229 0
M  V30 2725 C 254.359 -1.04184 -1.61275 0
M  V30 2726 O 255.56 -1.34856 -2.32524 0
M  V30 2727 C 253.831 -3.4385 -0.974766 0
M  V30 2728 S 255.39 -4.07459 -1.62857 0
M  V30 2729 H 252.208 -0.693041 -0.158794 0
M  V30 2730 H 254.81 -1.93856 0.252974 0
M  V30 2731 H 253.514 -4.10131 -0.148688 0
M  V30 2732 H 253.045 -3.52115 -1.75438 0
M  V30 2733 H 255.06 -4.01458 -2.91627 0
M  V30 2734 N 254.233 0.115231 -1.57178 0
M  V30 2735 C 255.482 0.820945 -1.84237 0
M  V30 2736 C 255.795 1.80866 -0.744761 0
M  V30 2737 O 257.001 2.56083 -0.901871 0
M  V30 2738 C 255.457 1.51072 -3.26658 0
M  V30 2739 C 255.065 0.563795 -4.44438 0
M  V30 2740 C 256.809 2.20134 -3.62962 0
M  V30 2741 C 254.716 1.25701 -5.77887 0
M  V30 2742 H 253.646 0.310328 -0.687177 0
M  V30 2743 H 256.297 0.0737134 -1.83352 0
M  V30 2744 H 254.679 2.30471 -3.22024 0
M  V30 2745 H 255.853 -0.197247 -4.60378 0
M  V30 2746 H 254.168 -0.0200638 -4.16395 0
M  V30 2747 H 256.765 2.72696 -4.59936 0
M  V30 2748 H 257.108 2.98107 -2.90582 0
M  V30 2749 H 257.641 1.47619 -3.69396 0
M  V30 2750 H 254.38 0.518493 -6.53446 0
M  V30 2751 H 253.9 1.98997 -5.65827 0
M  V30 2752 H 255.579 1.78915 -6.2177 0
M  V30 2753 N 255.711 1.52812 0.385517 0
M  V30 2754 C 256.959 1.67694 1.12797 0
M  V30 2755 C 257.28 0.421115 1.90399 0
M  V30 2756 O 256.55 -0.564551 1.87589 0
M  V30 2757 H 255.13 0.618155 0.419396 0
M  V30 2758 H 257.792 1.89938 0.436972 0
M  V30 2759 H 256.888 2.52896 1.82894 0
M  V30 2760 N 257.189 -0.644168 1.43834 0
M  V30 2761 C 258.437 -1.40117 1.45642 0
M  V30 2762 C 258.758 -1.94814 0.0852413 0
M  V30 2763 O 258.028 -1.74988 -0.880688 0
M  V30 2764 H 256.608 -0.52005 0.536243 0
M  V30 2765 H 259.27 -0.7591 1.7951 0
M  V30 2766 H 258.366 -2.23902 2.17427 0
M  V30 2767 N 258.668 -1.30515 -0.883378 0
M  V30 2768 C 259.916 -1.19194 -1.63209 0
M  V30 2769 C 260.237 0.253205 -1.93349 0
M  V30 2770 O 259.507 1.17025 -1.57105 0
M  V30 2771 H 258.087 -0.438148 -0.605009 0
M  V30 2772 H 260.749 -1.63663 -1.05832 0
M  V30 2773 H 259.845 -1.75396 -2.58153 0
M  V30 2774 N 260.146 1.09593 -1.13257 0
M  V30 2775 C 261.376 1.85231 -0.915049 0
M  V30 2776 C 261.784 1.81345 0.539498 0
M  V30 2777 O 261.127 1.20664 1.38513 0
M  V30 2778 C 261.189 3.34275 -1.3229 0
M  V30 2779 C 260.853 3.6191 -2.79052 0
M  V30 2780 C 261.85 3.57777 -3.77216 0
M  V30 2781 C 259.535 3.90309 -3.16171 0
M  V30 2782 C 261.529 3.81652 -5.1051 0
M  V30 2783 C 259.216 4.13839 -4.49644 0
M  V30 2784 C 260.214 4.09502 -5.46623 0
M  V30 2785 O 259.902 4.32426 -6.77689 0
M  V30 2786 H 259.634 0.591997 -0.326367 0
M  V30 2787 H 262.188 1.394 -1.50854 0
M  V30 2788 H 260.418 3.80805 -0.672667 0
M  V30 2789 H 262.107 3.9132 -1.07812 0
M  V30 2790 H 262.873 3.35865 -3.49885 0
M  V30 2791 H 258.752 3.92811 -2.41289 0
M  V30 2792 H 262.296 3.78182 -5.86195 0
M  V30 2793 H 258.193 4.35232 -4.767 0
M  V30 2794 H 258.961 4.49896 -6.83766 0
M  V30 2795 N 261.624 0.925811 1.2754 0
M  V30 2796 C 262.901 0.483726 1.89524 0
M  V30 2797 C 263.281 -1.03809 1.83812 0
M  V30 2798 O 262.629 -1.89143 1.28207 0
M  V30 2799 C 262.839 1.02769 3.33526 0
M  V30 2800 C 264.187 1.08703 4.10449 0
M  V30 2801 O 265.211 0.977175 3.42534 0
M  V30 2802 O 264.07 1.25599 5.31871 0
M  V30 2803 H 261.164 0.15529 0.812289 0
M  V30 2804 H 263.71 1.01738 1.35822 0
M  V30 2805 H 262.482 2.07155 3.31967 0
M  V30 2806 H 262.105 0.475567 3.94746 0
M  V30 2807 N 263.102 -1.41638 0.69111 0
M  V30 2808 C 264.035 -2.28183 -0.0274913 0
M  V30 2809 C 265.013 -1.41984 -0.792424 0
M  V30 2810 O 266.197 -1.71415 -0.784169 0
M  V30 2811 C 263.324 -3.22135 -1.04628 0
M  V30 2812 C 262.37 -4.24848 -0.375037 0
M  V30 2813 S 263.203 -5.28231 0.879321 0
M  V30 2814 C 264.359 -6.25748 -0.137983 0
M  V30 2815 H 264.592 -2.88782 0.706553 0
M  V30 2816 H 262.125 -1.46709 0.481222 0
M  V30 2817 H 264.083 -3.76797 -1.62894 0
M  V30 2818 H 262.744 -2.6064 -1.75287 0
M  V30 2819 H 261.937 -4.90837 -1.14433 0
M  V30 2820 H 261.539 -3.73758 0.134434 0
M  V30 2821 H 263.831 -6.70188 -0.992659 0
M  V30 2822 H 264.774 -7.06417 0.487867 0
M  V30 2823 H 265.182 -5.62363 -0.490762 0
M  V30 2824 N 264.58 -0.43555 -1.51462 0
M  V30 2825 C 265.808 0.130242 -2.0649 0
M  V30 2826 C 266.223 1.36614 -1.30315 0
M  V30 2827 O 265.58 1.78869 -0.362223 0
M  V30 2828 C 265.631 0.454253 -3.58635 0
M  V30 2829 O 265.352 -0.73259 -4.31931 0
M  V30 2830 C 266.853 1.07091 -4.3017 0
M  V30 2831 H 264.073 0.00871669 -0.670943 0
M  V30 2832 H 266.617 -0.614117 -1.95061 0
M  V30 2833 H 264.772 1.14851 -3.69984 0
M  V30 2834 H 265.186 -0.455787 -5.22516 0
M  V30 2835 H 266.66 1.24764 -5.37716 0
M  V30 2836 H 267.137 2.05144 -3.88346 0
M  V30 2837 H 267.743 0.416089 -4.2326 0
M  V30 2838 N 266.058 1.56714 -0.166846 0
M  V30 2839 C 267.304 1.97039 0.479962 0
M  V30 2840 C 267.637 1.05264 1.63197 0
M  V30 2841 O 266.912 0.0988833 1.94248 0
M  V30 2842 C 267.195 3.46867 0.967212 0
M  V30 2843 C 267.048 4.49421 -0.18466 0
M  V30 2844 C 268.367 3.9968 1.84238 0
M  V30 2845 H 265.486 0.71641 0.172992 0
M  V30 2846 H 268.128 1.8832 -0.252079 0
M  V30 2847 H 266.278 3.54428 1.59101 0
M  V30 2848 H 267.95 4.53924 -0.821621 0
M  V30 2849 H 266.193 4.25573 -0.840837 0
M  V30 2850 H 266.864 5.51644 0.198317 0
M  V30 2851 H 269.34 3.94723 1.31655 0
M  V30 2852 H 268.216 5.04941 2.15234 0
M  V30 2853 H 268.477 3.43226 2.78654 0
M  V30 2854 N 267.536 -0.106894 1.57237 0
M  V30 2855 C 268.446 -1.14911 2.0453 0
M  V30 2856 C 269.462 -1.44592 0.96795 0
M  V30 2857 O 270.638 -1.55468 1.2803 0
M  V30 2858 C 267.703 -2.45272 2.45036 0
M  V30 2859 C 266.764 -2.22879 3.66911 0
M  V30 2860 C 265.997 -3.47024 4.05475 0
M  V30 2861 O 266.22 -4.54804 3.44252 0
M  V30 2862 O 265.154 -3.3731 4.98504 0
M  V30 2863 H 268.98 -0.777461 2.9358 0
M  V30 2864 H 266.565 -0.318563 1.45964 0
M  V30 2865 H 268.447 -3.22055 2.71769 0
M  V30 2866 H 267.122 -2.81886 1.59129 0
M  V30 2867 H 266.029 -1.43915 3.45311 0
M  V30 2868 H 267.362 -1.91163 4.53561 0
M  V30 2869 N 269.014 -1.53014 -0.377408 0
M  V30 2870 C 270.262 -1.6829 -1.11906 0
M  V30 2871 C 270.583 -0.431206 -1.90173 0
M  V30 2872 O 269.853 0.554595 -1.87886 0
M  V30 2873 H 268.433 -0.620371 -0.416112 0
M  V30 2874 H 271.095 -1.90167 -0.426893 0
M  V30 2875 H 270.191 -2.53862 -1.8155 0
M  V30 2876 N 270.492 0.636531 -1.44174 0
M  V30 2877 C 271.732 1.40781 -1.48189 0
M  V30 2878 C 272.096 1.91688 -0.10944 0
M  V30 2879 O 273.297 2.68789 -0.0242741 0
M  V30 2880 C 271.568 2.54575 -2.50851 0
M  V30 2881 S 273.127 3.4284 -2.73873 0
M  V30 2882 H 269.945 0.480345 -0.524204 0
M  V30 2883 H 272.547 0.737416 -1.81059 0
M  V30 2884 H 271.251 2.15478 -3.49281 0
M  V30 2885 H 270.782 3.26447 -2.19536 0
M  V30 2886 H 272.797 4.51846 -2.05059 0
M  V30 2887 N 271.97 1.30982 0.876444 0
M  V30 2888 C 273.198 1.23242 1.6619 0
M  V30 2889 C 273.613 -0.203345 1.87702 0
M  V30 2890 O 272.97 -1.13317 1.43057 0
M  V30 2891 C 273.021 1.96623 3.03351 0
M  V30 2892 O 272.742 3.34594 2.82804 0
M  V30 2893 C 274.243 1.95644 3.97792 0
M  V30 2894 H 271.463 0.426126 0.518322 0
M  V30 2895 H 274.007 1.7275 1.09442 0
M  V30 2896 H 272.162 1.50892 3.56806 0
M  V30 2897 H 272.576 3.71873 3.69879 0
M  V30 2898 H 274.05 2.51511 4.91372 0
M  V30 2899 H 274.527 0.937395 4.2908 0
M  V30 2900 H 275.133 2.41225 3.50272 0
M  V30 2901 N 273.449 -1.08991 1.13837 0
M  V30 2902 C 274.695 -1.81526 0.90422 0
M  V30 2903 C 275.028 -1.85706 -0.568066 0
M  V30 2904 O 274.303 -1.32855 -1.42056 0
M  V30 2905 C 274.586 -3.27447 1.49835 0
M  V30 2906 C 274.439 -3.31512 3.04006 0
M  V30 2907 C 275.758 -4.24256 1.17025 0
M  V30 2908 H 272.877 -0.659029 0.329923 0
M  V30 2909 H 275.519 -1.27644 1.40737 0
M  V30 2910 H 273.669 -3.73462 1.07044 0
M  V30 2911 H 275.341 -2.93867 3.55584 0
M  V30 2912 H 273.584 -2.70963 3.38765 0
M  V30 2913 H 274.255 -4.34329 3.40679 0
M  V30 2914 H 276.731 -3.86549 1.54009 0
M  V30 2915 H 275.607 -5.24684 1.61237 0
M  V30 2916 H 275.868 -4.42019 0.0846274 0
M  V30 2917 N 274.927 -0.932562 -1.27047 0
M  V30 2918 C 275.837 -0.441219 -2.30414 0
M  V30 2919 C 276.853 0.480525 -1.67233 0
M  V30 2920 O 278.029 0.362151 -1.98117 0
M  V30 2921 C 275.094 0.293651 -3.45454 0
M  V30 2922 C 274.155 -0.663601 -4.2414 0
M  V30 2923 C 273.388 0.0362932 -5.33688 0
M  V30 2924 O 273.611 1.2548 -5.56427 0
M  V30 2925 O 272.545 -0.638015 -5.98509 0
M  V30 2926 H 276.371 -1.29962 -2.74488 0
M  V30 2927 H 273.956 -0.6981 -1.32087 0
M  V30 2928 H 275.838 0.707951 -4.15411 0
M  V30 2929 H 274.513 1.12758 -3.03426 0
M  V30 2930 H 273.42 -1.12768 -3.56699 0
M  V30 2931 H 274.753 -1.46489 -4.69896 0
M  V30 2932 N 276.405 1.4127 -0.698611 0
M  V30 2933 C 277.338 2.28195 0.0153898 0
M  V30 2934 C 278.316 1.42402 0.784883 0
M  V30 2935 O 279.5 1.71828 0.775067 0
M  V30 2936 C 276.627 3.22685 1.02918 0
M  V30 2937 C 275.673 4.25041 0.352501 0
M  V30 2938 S 276.506 5.27757 -0.907322 0
M  V30 2939 C 277.662 6.25812 0.104796 0
M  V30 2940 H 277.895 2.88403 -0.721858 0
M  V30 2941 H 275.428 1.46452 -0.488996 0
M  V30 2942 H 277.386 3.77655 1.60893 0
M  V30 2943 H 276.047 2.61566 1.73902 0
M  V30 2944 H 275.24 4.91437 1.11828 0
M  V30 2945 H 274.842 3.73682 -0.154254 0
M  V30 2946 H 277.134 6.70705 0.957103 0
M  V30 2947 H 278.077 7.06149 -0.525323 0
M  V30 2948 H 278.485 5.62615 0.460931 0
M  V30 2949 N 277.883 0.443576 1.51229 0
M  V30 2950 C 278.83 -0.364716 2.279 0
M  V30 2951 C 279.8 -1.0114 1.31757 0
M  V30 2952 O 280.985 -1.02912 1.60667 0
M  V30 2953 C 278.125 -1.45644 3.12861 0
M  V30 2954 C 277.238 -0.827269 4.24005 0
M  V30 2955 C 276.373 -1.89456 4.96266 0
M  V30 2956 C 275.412 -1.24416 5.99322 0
M  V30 2957 N 274.549 -2.25309 6.64966 0
M  V30 2958 H 279.389 0.295464 2.96532 0
M  V30 2959 H 276.926 0.157554 1.46254 0
M  V30 2960 H 278.884 -2.10076 3.6045 0
M  V30 2961 H 277.514 -2.08616 2.46331 0
M  V30 2962 H 276.566 -0.0710839 3.80334 0
M  V30 2963 H 277.878 -0.312481 4.9782 0
M  V30 2964 H 277.032 -2.61535 5.47434 0
M  V30 2965 H 275.771 -2.4431 4.22095 0
M  V30 2966 H 274.776 -0.508868 5.4744 0
M  V30 2967 H 276.001 -0.702882 6.75453 0
M  V30 2968 H 273.947 -2.79231 5.93604 0
M  V30 2969 H 273.864 -1.78739 7.34567 0
M  V30 2970 H 275.132 -2.96853 7.20763 0
M  V30 2971 N 279.361 -1.56624 0.175154 0
M  V30 2972 C 280.608 -1.96999 -0.468811 0
M  V30 2973 C 280.936 -1.06129 -1.62994 0
M  V30 2974 O 280.191 -0.0961771 -1.95464 0
M  V30 2975 C 280.49 -3.43419 -0.989864 0
M  V30 2976 C 280.156 -4.50866 0.0557687 0
M  V30 2977 C 278.818 -4.79975 0.343134 0
M  V30 2978 C 281.17 -5.15551 0.765308 0
M  V30 2979 C 278.498 -5.71066 1.34536 0
M  V30 2980 C 280.85 -6.07724 1.75654 0
M  V30 2981 C 279.514 -6.35199 2.05132 0
M  V30 2982 H 278.784 -0.720869 -0.17155 0
M  V30 2983 H 281.431 -1.89616 0.267924 0
M  V30 2984 H 279.736 -3.47772 -1.80449 0
M  V30 2985 H 281.433 -3.72002 -1.49719 0
M  V30 2986 H 278.023 -4.28229 -0.178381 0
M  V30 2987 H 282.207 -4.9317 0.556513 0
M  V30 2988 H 277.463 -5.90635 1.57988 0
M  V30 2989 H 281.637 -6.56912 2.31169 0
M  V30 2990 H 279.264 -7.05584 2.8294 0
M  V30 2991 N 280.839 0.0985539 -1.57292 0
M  V30 2992 C 282.087 0.801092 -1.85545 0
M  V30 2993 C 282.408 1.79438 -0.763353 0
M  V30 2994 O 281.678 1.94763 0.21073 0
M  V30 2995 H 280.258 0.29884 -0.684619 0
M  V30 2996 H 282.92 0.0810064 -1.94732 0
M  V30 2997 H 282.016 1.3338 -2.82163 0
M  V30 2998 N 282.317 1.53212 0.369288 0
M  V30 2999 C 283.545 1.73119 1.13303 0
M  V30 3000 C 283.96 0.458455 1.83149 0
M  V30 3001 O 283.317 -0.568403 1.73423 0
M  V30 3002 C 283.368 2.89413 2.16616 0
M  V30 3003 O 283.089 4.11761 1.49614 0
M  V30 3004 C 284.59 3.21161 3.05566 0
M  V30 3005 H 281.81 0.579107 0.338934 0
M  V30 3006 H 284.354 1.99942 0.429338 0
M  V30 3007 H 282.509 2.64994 2.82589 0
M  V30 3008 H 282.923 4.76858 2.18419 0
M  V30 3009 H 284.397 4.05949 3.74045 0
M  V30 3010 H 284.874 2.36369 3.70171 0
M  V30 3011 H 285.48 3.47492 2.45213 0
M  V30 3012 N 283.795 -0.628877 1.44509 0
M  V30 3013 C 284.758 -1.72263 1.51188 0
M  V30 3014 C 285.758 -1.55907 0.39367 0
M  V30 3015 O 286.948 -1.61361 0.656377 0
M  V30 3016 C 284.08 -3.11365 1.38798 0
M  V30 3017 H 285.273 -1.67714 2.4862 0
M  V30 3018 H 282.826 -0.842737 1.31634 0
M  V30 3019 H 283.561 -3.21507 0.424693 0
M  V30 3020 H 283.346 -3.24644 2.19884 0
M  V30 3021 H 284.836 -3.91075 1.46458 0
M  V30 3022 N 285.273 -1.31445 -0.869486 0
M  V30 3023 C 286.503 -1.23942 -1.65294 0
M  V30 3024 C 286.911 0.197561 -1.88166 0
M  V30 3025 O 286.254 1.14019 -1.44033 0
M  V30 3026 C 286.316 -1.91385 -3.04322 0
M  V30 3027 C 285.98 -3.40726 -3.04557 0
M  V30 3028 C 286.977 -4.36464 -2.82481 0
M  V30 3029 C 284.662 -3.82425 -3.25663 0
M  V30 3030 C 286.656 -5.71876 -2.8149 0
M  V30 3031 C 284.343 -5.1795 -3.243 0
M  V30 3032 C 285.341 -6.12486 -3.02241 0
M  V30 3033 O 285.029 -7.45534 -3.00724 0
M  V30 3034 H 284.761 -0.429459 -0.522054 0
M  V30 3035 H 287.315 -1.73873 -1.0935 0
M  V30 3036 H 285.545 -1.36004 -3.61994 0
M  V30 3037 H 287.234 -1.77791 -3.64891 0
M  V30 3038 H 288 -4.05576 -2.65956 0
M  V30 3039 H 283.879 -3.09274 -3.41863 0
M  V30 3040 H 287.423 -6.45638 -2.64191 0
M  V30 3041 H 283.32 -5.48473 -3.40365 0
M  V30 3042 H 284.088 -7.54713 -3.16782 0
M  V30 3043 N 286.751 1.08385 -1.14413 0
M  V30 3044 C 287.998 1.80776 -0.912482 0
M  V30 3045 C 288.326 1.86236 0.560934 0
M  V30 3046 O 287.581 1.33431 1.43159 0
M  V30 3047 C 287.88 3.26273 -1.45879 0
M  V30 3048 C 287.546 3.4093 -2.95089 0
M  V30 3049 C 286.208 3.44638 -3.35824 0
M  V30 3050 C 288.56 3.44591 -3.91033 0
M  V30 3051 C 285.888 3.49597 -4.71167 0
M  V30 3052 C 288.24 3.51086 -5.26233 0
M  V30 3053 C 286.904 3.53067 -5.6648 0
M  V30 3054 H 286.174 0.661507 -0.333901 0
M  V30 3055 H 288.821 1.27613 -1.42784 0
M  V30 3056 H 287.126 3.82146 -0.864376 0
M  V30 3057 H 288.823 3.80839 -1.2555 0
M  V30 3058 H 285.413 3.38736 -2.62594 0
M  V30 3059 H 289.597 3.40957 -3.60641 0
M  V30 3060 H 284.853 3.49424 -5.0171 0
M  V30 3061 H 289.027 3.52864 -6.00383 0
M  V30 3062 H 286.654 3.56662 -6.71339 0
M  V30 3063 N 288.23 0.939286 1.26551 0
M  V30 3064 C 289.47 0.5933 1.956 0
M  V30 3065 C 289.834 -0.851515 1.72085 0
M  V30 3066 O 291.035 -1.30634 2.34921 0
M  V30 3067 C 289.306 0.923996 3.45249 0
M  V30 3068 S 290.865 0.688269 4.33369 0
M  V30 3069 H 287.683 0.218591 0.676564 0
M  V30 3070 H 290.285 1.2102 1.5354 0
M  V30 3071 H 288.989 1.97297 3.59864 0
M  V30 3072 H 288.52 0.296746 3.92279 0
M  V30 3073 H 290.535 -0.448434 4.9417 0
M  V30 3074 N 289.708 -1.40897 0.706093 0
M  V30 3075 C 290.618 -2.3455 0.0482286 0
M  V30 3076 C 291.634 -1.56796 -0.754396 0
M  V30 3077 O 292.81 -1.89228 -0.689538 0
M  V30 3078 C 289.875 -3.35625 -0.869303 0
M  V30 3079 C 288.936 -4.29261 -0.0576994 0
M  V30 3080 C 288.169 -5.25508 -0.931531 0
M  V30 3081 O 288.392 -5.27472 -2.17092 0
M  V30 3082 O 287.326 -6.00727 -0.375587 0
M  V30 3083 H 291.152 -2.92407 0.820476 0
M  V30 3084 H 288.737 -1.4193 0.4665 0
M  V30 3085 H 290.619 -3.97635 -1.39514 0
M  V30 3086 H 289.294 -2.80196 -1.62086 0
M  V30 3087 H 288.201 -3.70566 0.512988 0
M  V30 3088 H 289.534 -4.87817 0.655426 0
M  V30 3089 N 291.186 -0.45159 -1.50991 0
M  V30 3090 C 292.597 0.00818571 -1.86698 0
M  V30 3091 C 292.948 1.40661 -1.3678 0
M  V30 3092 O 292.073 2.0391 -0.724546 0
M  V30 3093 C 292.668 0.0216303 -3.38793 0
M  V30 3094 C 291.227 0.425865 -3.73983 0
M  V30 3095 C 290.374 -0.372163 -2.74791 0
M  V30 3096 H 293.325 -0.666785 -1.44013 0
M  V30 3097 H 293.346 0.828078 -3.7138 0
M  V30 3098 H 292.858 -0.996288 -3.75094 0
M  V30 3099 H 290.959 1.44886 -3.43277 0
M  V30 3100 H 291.072 0.140761 -4.78893 0
M  V30 3101 H 289.436 0.171498 -2.54122 0
M  V30 3102 H 290.219 -1.38922 -3.13935 0
M  V30 3103 N 292.664 1.56529 -0.183458 0
M  V30 3104 C 294.08 1.58664 0.172554 0
M  V30 3105 C 294.28 1.19925 1.61926 0
M  V30 3106 O 293.336 0.916534 2.35278 0
M  V30 3107 C 294.649 3.00463 -0.119262 0
M  V30 3108 C 296.197 3.12945 -0.0584396 0
M  V30 3109 C 296.672 4.56857 -0.323408 0
M  V30 3110 N 298.163 4.62403 -0.271612 0
M  V30 3111 C 298.898 5.71626 -0.450639 0
M  V30 3112 N 298.394 6.89362 -0.689384 0
M  V30 3113 N 300.187 5.60775 -0.385701 0
M  V30 3114 H 292.338 1.79994 -1.12765 0
M  V30 3115 H 294.601 0.834808 -0.449222 0
M  V30 3116 H 294.307 3.33326 -1.12192 0
M  V30 3117 H 294.181 3.72659 0.583544 0
M  V30 3118 H 296.568 2.79902 0.934805 0
M  V30 3119 H 296.649 2.4316 -0.794144 0
M  V30 3120 H 296.293 4.9061 -1.31392 0
M  V30 3121 H 296.223 5.24816 0.43305 0
M  V30 3122 H 298.714 3.77785 -0.0932256 0
M  V30 3123 H 299.027 7.68489 -0.815113 0
M  V30 3124 H 297.372 6.91196 -0.726142 0
M  V30 3125 H 300.563 4.67674 -0.199687 0
M  V30 3126 H 300.736 6.4584 -0.528646 0
M  V30 3127 N 294.142 -0.090211 1.57342 0
M  V30 3128 C 295.052 -1.12735 2.05738 0
M  V30 3129 C 296.068 -1.43557 0.983231 0
M  V30 3130 O 297.244 -1.54101 1.29672 0
M  V30 3131 C 294.309 -2.42659 2.47624 0
M  V30 3132 C 293.37 -2.18975 3.69254 0
M  V30 3133 C 292.603 -3.42704 4.09133 0
M  V30 3134 O 292.826 -4.51127 3.49057 0
M  V30 3135 O 291.76 -3.32003 5.02053 0
M  V30 3136 H 295.586 -0.746279 2.94388 0
M  V30 3137 H 293.171 -0.303064 1.46294 0
M  V30 3138 H 295.053 -3.19155 2.7517 0
M  V30 3139 H 293.728 -2.80182 1.62109 0
M  V30 3140 H 292.635 -1.40244 3.46818 0
M  V30 3141 H 293.968 -1.86342 4.55563 0
M  V30 3142 N 295.62 -1.53406 -0.361157 0
M  V30 3143 C 296.897 -1.60411 -1.11927 0
M  V30 3144 C 297.277 -0.414385 -2.06993 0
M  V30 3145 O 296.625 0.594976 -2.20618 0
M  V30 3146 C 296.835 -2.95652 -1.85448 0
M  V30 3147 C 298.183 -3.50386 -2.39823 0
M  V30 3148 O 299.207 -2.97711 -1.95568 0
M  V30 3149 O 298.066 -4.42482 -3.20737 0
M  V30 3150 H 295.16 -0.64811 -0.513695 0
M  V30 3151 H 297.706 -1.65749 -0.364065 0
M  V30 3152 H 296.478 -3.73682 -1.16091 0
M  V30 3153 H 296.101 -2.93825 -2.67866 0
M  V30 3154 N 297.098 0.621204 -1.44841 0
M  V30 3155 C 298.048 1.72663 -1.48901 0
M  V30 3156 C 299.032 1.56964 -0.353702 0
M  V30 3157 O 300.224 1.66532 -0.599669 0
M  V30 3158 C 297.353 3.11381 -1.44557 0
M  V30 3159 C 296.439 3.32514 -2.6324 0
M  V30 3160 N 296.83 3.23969 -3.8843 0
M  V30 3161 C 295.128 3.63343 -2.58647 0
M  V30 3162 C 295.829 3.46062 -4.67564 0
M  V30 3163 N 294.805 3.69407 -3.98797 0
M  V30 3164 H 298.607 1.64529 -2.43531 0
M  V30 3165 H 296.121 0.82401 -1.39942 0
M  V30 3166 H 298.118 3.90667 -1.4555 0
M  V30 3167 H 296.778 3.20674 -0.509731 0
M  V30 3168 H 297.789 3.02669 -4.20252 0
M  V30 3169 H 294.466 3.79556 -1.73906 0
M  V30 3170 H 295.856 3.44963 -5.76585 0
M  V30 3171 N 298.576 1.31904 0.862503 0
M  V30 3172 C 299.824 1.21776 1.61292 0
M  V30 3173 C 300.145 -0.222413 1.93727 0
M  V30 3174 O 299.415 -1.1451 1.58947 0
M  V30 3175 H 297.995 0.447717 0.597962 0
M  V30 3176 H 300.657 1.65326 1.03215 0
M  V30 3177 H 299.753 1.7948 2.5533 0
M  V30 3178 N 300.054 -1.07777 1.14986 0
M  V30 3179 C 301.017 -2.13041 0.845358 0
M  V30 3180 C 302.017 -1.60071 -0.152931 0
M  V30 3181 O 303.207 -1.74033 0.0761879 0
M  V30 3182 C 300.339 -3.39896 0.261383 0
M  V30 3183 H 301.532 -2.41485 1.77834 0
M  V30 3184 H 299.085 -1.23595 0.956757 0
M  V30 3185 H 299.82 -3.17091 -0.68 0
M  V30 3186 H 299.605 -3.79642 0.980514 0
M  V30 3187 H 301.095 -4.17548 0.0657687 0
M  V30 3188 N 301.532 -0.945985 -1.26051 0
M  V30 3189 C 302.781 -0.591836 -1.92822 0
M  V30 3190 C 303.094 0.873956 -1.7499 0
M  V30 3191 O 304.3 1.33769 -2.36259 0
M  V30 3192 C 302.756 -1.00776 -3.45503 0
M  V30 3193 C 302.364 -2.4955 -3.7206 0
M  V30 3194 C 304.108 -0.725735 -4.1825 0
M  V30 3195 C 302.015 -2.84988 -5.18205 0
M  V30 3196 H 300.945 -0.217635 -0.721908 0
M  V30 3197 H 303.596 -1.14927 -1.43052 0
M  V30 3198 H 301.978 -0.378812 -3.94184 0
M  V30 3199 H 303.152 -3.1739 -3.34066 0
M  V30 3200 H 301.467 -2.75133 -3.12555 0
M  V30 3201 H 304.064 -0.966771 -5.25887 0
M  V30 3202 H 304.407 0.337639 -4.14929 0
M  V30 3203 H 304.94 -1.31463 -3.7545 0
M  V30 3204 H 301.679 -3.90307 -5.26631 0
M  V30 3205 H 301.199 -2.21813 -5.57278 0
M  V30 3206 H 302.878 -2.73712 -5.86252 0
M  V30 3207 N 303.011 1.40521 -0.713556 0
M  V30 3208 C 303.959 2.32549 -0.0485227 0
M  V30 3209 C 304.953 1.51931 0.74922 0
M  V30 3210 O 306.159 1.67745 0.652816 0
M  V30 3211 H 302.534 0.751994 0.00311138 0
M  V30 3212 H 304.505 2.86291 -0.841443 0
M  V30 3213 C 303.254 3.36879 0.860687 0
M  V30 3214 H 302.577 3.98978 0.256246 0
M  V30 3215 H 304.017 4.03772 1.294 0
M  V30 3216 C 302.476 2.72197 1.9852 0
M  V30 3217 O 303.006 2.5837 3.07584 0
M  V30 3218 N 301.212 2.30612 1.76823 0
M  V30 3219 H 300.759 2.42059 0.881217 0
M  V30 3220 H 300.717 1.87672 2.52243 0
M  V30 3221 N 304.489 0.459591 1.5075 0
M  V30 3222 C 305.905 0.113092 1.59199 0
M  V30 3223 C 306.105 -1.37951 1.46874 0
M  V30 3224 O 305.161 -2.15168 1.32132 0
M  V30 3225 C 306.474 0.653043 2.93523 0
M  V30 3226 C 308.022 0.615449 3.0689 0
M  V30 3227 C 308.497 1.13275 4.43771 0
M  V30 3228 N 309.988 1.09167 4.50152 0
M  V30 3229 C 310.723 1.46256 5.54434 0
M  V30 3230 N 310.219 1.90739 6.66026 0
M  V30 3231 N 312.012 1.37932 5.44914 0
M  V30 3232 H 304.163 1.43049 1.57005 0
M  V30 3233 H 306.426 0.590861 0.741341 0
M  V30 3234 H 306.132 1.69822 3.07983 0
M  V30 3235 H 306.006 0.0902132 3.77092 0
M  V30 3236 H 308.393 -0.420793 2.92084 0
M  V30 3237 H 308.474 1.21495 2.25106 0
M  V30 3238 H 308.118 2.16757 4.59324 0
M  V30 3239 H 308.048 0.509576 5.24129 0
M  V30 3240 H 310.539 0.76528 3.7007 0
M  V30 3241 H 310.852 2.17218 7.41644 0
M  V30 3242 H 309.197 1.94683 6.67176 0
M  V30 3243 H 312.388 1.0303 4.56621 0
M  V30 3244 H 312.561 1.67164 6.26067 0
M  V30 3245 N 305.967 -1.56429 0.191757 0
M  V30 3246 C 307.192 -2.02309 -0.456706 0
M  V30 3247 C 307.617 -1.07103 -1.5463 0
M  V30 3248 O 306.975 -0.0539677 -1.8122 0
M  V30 3249 C 307.023 -3.46654 -0.993159 0
M  V30 3250 O 306.127 -3.54559 -2.10622 0
M  V30 3251 H 305.468 -0.655303 -0.107114 0
M  V30 3252 H 307.998 -2.02364 0.301653 0
M  V30 3253 H 308.008 -3.86377 -1.31061 0
M  V30 3254 H 306.683 -4.1544 -0.195504 0
M  V30 3255 H 305.26 -3.26708 -1.79767 0
M  V30 3256 N 307.445 0.0818655 -1.57387 0
M  V30 3257 C 308.355 1.11642 -2.06333 0
M  V30 3258 C 309.371 1.43033 -0.99083 0
M  V30 3259 O 310.547 1.53411 -1.30488 0
M  V30 3260 C 307.612 2.41342 -2.48907 0
M  V30 3261 C 306.673 2.17014 -3.7041 0
M  V30 3262 C 305.906 3.4053 -4.10944 0
M  V30 3263 O 306.129 4.4927 -3.51444 0
M  V30 3264 O 305.063 3.29336 -5.03807 0
M  V30 3265 H 308.889 0.730657 -2.9478 0
M  V30 3266 H 306.474 0.295301 -1.46452 0
M  V30 3267 H 308.356 3.17691 -2.76858 0
M  V30 3268 H 307.031 2.79319 -1.63593 0
M  V30 3269 H 305.938 1.38403 -3.47556 0
M  V30 3270 H 307.271 1.83923 -4.56545 0
M  V30 3271 N 308.923 1.53595 0.353017 0
M  V30 3272 C 309.87 1.80919 1.43308 0
M  V30 3273 C 310.84 0.654288 1.5267 0
M  V30 3274 O 312.025 0.897759 1.6836 0
M  V30 3275 C 309.165 2.01605 2.80089 0
M  V30 3276 C 308.278 3.29321 2.79593 0
M  V30 3277 C 307.413 3.40125 4.0803 0
M  V30 3278 C 306.452 4.61826 4.01725 0
M  V30 3279 N 305.589 4.69716 5.21834 0
M  V30 3280 H 310.429 2.73074 1.19308 0
M  V30 3281 H 307.966 1.35263 0.578131 0
M  V30 3282 H 309.924 2.11586 3.59565 0
M  V30 3283 H 308.554 1.12772 3.0246 0
M  V30 3284 H 307.606 3.28229 1.92276 0
M  V30 3285 H 308.918 4.18884 2.70809 0
M  V30 3286 H 308.072 3.49488 4.95927 0
M  V30 3287 H 306.811 2.48601 4.19582 0
M  V30 3288 H 305.816 4.52552 3.12213 0
M  V30 3289 H 307.041 5.54705 3.91764 0
M  V30 3290 H 304.987 3.81097 5.33948 0
M  V30 3291 H 304.904 5.53202 5.1527 0
M  V30 3292 H 306.172 4.83376 6.11529 0
M  V30 3293 N 310.401 -0.613514 1.45168 0
M  V30 3294 C 311.311 -1.75296 1.55912 0
M  V30 3295 C 312.327 -1.68244 0.443856 0
M  V30 3296 O 313.503 -1.88706 0.70371 0
M  V30 3297 C 310.568 -3.1174 1.5172 0
M  V30 3298 C 309.629 -3.30291 2.74238 0
M  V30 3299 C 308.862 -4.60226 2.70236 0
M  V30 3300 O 309.085 -5.42168 1.77229 0
M  V30 3301 O 308.019 -4.81361 3.61352 0
M  V30 3302 H 311.845 -1.69183 2.52212 0
M  V30 3303 H 309.43 -0.776886 1.27612 0
M  V30 3304 H 311.312 -3.93044 1.51968 0
M  V30 3305 H 309.987 -3.18357 0.585697 0
M  V30 3306 H 308.894 -2.48598 2.79553 0
M  V30 3307 H 310.227 -3.28547 3.66494 0
M  V30 3308 N 311.879 -1.3236 -0.855495 0
M  V30 3309 C 313.104 -1.2601 -1.64731 0
M  V30 3310 C 313.529 0.169068 -1.87339 0
M  V30 3311 O 312.887 1.12016 -1.42556 0
M  V30 3312 C 312.935 -2.02417 -2.98429 0
M  V30 3313 O 312.039 -1.3714 -3.8893 0
M  V30 3314 H 311.38 -0.434325 -0.502253 0
M  V30 3315 H 313.91 -1.74661 -1.06558 0
M  V30 3316 H 313.92 -2.12559 -3.48257 0
M  V30 3317 H 312.595 -3.06343 -2.81295 0
M  V30 3318 H 311.172 -1.3554 -3.47395 0
M  V30 3319 N 313.357 1.07166 -1.15556 0
M  V30 3320 C 314.304 2.14417 -0.854055 0
M  V30 3321 C 315.274 1.64965 0.193806 0
M  V30 3322 O 316.459 1.90703 0.0609443 0
M  V30 3323 C 313.599 3.43304 -0.351574 0
M  V30 3324 C 312.712 4.06537 -1.46123 0
M  V30 3325 C 311.847 5.23266 -0.914677 0
M  V30 3326 C 310.886 5.78464 -2.00114 0
M  V30 3327 N 310.023 6.86521 -1.47083 0
M  V30 3328 H 314.863 2.39548 -1.77259 0
M  V30 3329 H 312.4 1.17543 -0.884425 0
M  V30 3330 H 314.358 4.17179 -0.0419409 0
M  V30 3331 H 312.988 3.18419 0.530037 0
M  V30 3332 H 312.04 3.30297 -1.88701 0
M  V30 3333 H 313.352 4.43567 -2.28144 0
M  V30 3334 H 312.506 6.04131 -0.557698 0
M  V30 3335 H 311.245 4.87658 -0.0636583 0
M  V30 3336 H 310.25 4.96243 -2.36692 0
M  V30 3337 H 311.475 6.16126 -2.85597 0
M  V30 3338 H 309.421 6.52849 -0.642198 0
M  V30 3339 H 309.338 7.22446 -2.22729 0
M  V30 3340 H 310.606 7.71087 -1.14215 0
M  V30 3341 N 314.835 0.952656 1.25548 0
M  V30 3342 C 316.06 0.623025 1.97821 0
M  V30 3343 C 316.485 -0.7976 1.70352 0
M  V30 3344 O 315.843 -1.53905 0.958283 0
M  V30 3345 C 315.891 0.885532 3.49558 0
M  V30 3346 O 314.995 -0.0366641 4.12384 0
M  V30 3347 H 314.336 0.237082 0.620232 0
M  V30 3348 H 316.866 1.27871 1.59719 0
M  V30 3349 H 316.876 0.811009 3.99858 0
M  V30 3350 H 315.551 1.92094 3.6888 0
M  V30 3351 H 314.128 0.0898954 3.72792 0
M  V30 3352 N 316.313 -1.40141 0.720998 0
M  V30 3353 C 317.562 -2.0002 0.259804 0
M  V30 3354 C 317.875 -1.57839 -1.15526 0
M  V30 3355 O 319.081 -2.10455 -1.71525 0
M  V30 3356 C 317.537 -3.57516 0.413566 0
M  V30 3357 C 317.145 -4.08667 1.83562 0
M  V30 3358 C 318.889 -4.24498 0.0134387 0
M  V30 3359 C 316.796 -5.58686 1.93968 0
M  V30 3360 H 315.726 -0.748195 0.0933806 0
M  V30 3361 H 318.377 -1.60313 0.892866 0
M  V30 3362 H 316.759 -3.9495 -0.288169 0
M  V30 3363 H 317.933 -3.82598 2.56817 0
M  V30 3364 H 316.248 -3.543 2.1877 0
M  V30 3365 H 318.845 -5.34654 0.0703954 0
M  V30 3366 H 319.188 -4.03375 -1.02927 0
M  V30 3367 H 319.721 -3.92188 0.665815 0
M  V30 3368 H 316.46 -5.8467 2.96379 0
M  V30 3369 H 315.98 -5.86602 1.25131 0
M  V30 3370 H 317.659 -6.23875 1.71431 0
M  V30 3371 N 317.792 -0.46758 -1.50504 0
M  V30 3372 C 318.74 0.342482 -2.30065 0
M  V30 3373 C 319.734 0.993596 -1.37201 0
M  V30 3374 O 320.94 0.925102 -1.54408 0
M  V30 3375 H 317.315 0.129283 -0.740803 0
M  V30 3376 H 319.286 -0.34899 -2.96352 0
M  V30 3377 C 318.035 1.4139 -3.17654 0
M  V30 3378 H 317.358 0.922264 -3.89017 0
M  V30 3379 H 318.798 1.95335 -3.76325 0
M  V30 3380 C 317.257 2.4139 -2.35016 0
M  V30 3381 O 317.787 3.46586 -2.03079 0
M  V30 3382 N 315.993 2.13021 -1.97662 0
M  V30 3383 H 315.54 1.27499 -2.23834 0
M  V30 3384 H 315.498 2.80164 -1.42673 0
M  V30 3385 N 319.27 1.56325 -0.20005 0
M  V30 3386 C 320.519 1.96895 0.437652 0
M  V30 3387 C 320.832 1.08999 1.62415 0
M  V30 3388 O 322.038 1.39372 2.32997 0
M  V30 3389 C 320.494 3.50198 0.830025 0
M  V30 3390 C 320.102 4.46765 -0.332461 0
M  V30 3391 C 321.846 3.99526 1.43453 0
M  V30 3392 C 319.753 5.91344 0.0811468 0
M  V30 3393 H 318.683 0.735209 0.167282 0
M  V30 3394 H 321.334 1.81148 -0.292853 0
M  V30 3395 H 319.716 3.61467 1.61734 0
M  V30 3396 H 320.89 4.47231 -1.11 0
M  V30 3397 H 319.205 4.07657 -0.848789 0
M  V30 3398 H 321.802 5.05025 1.75652 0
M  V30 3399 H 322.145 3.44122 2.34277 0
M  V30 3400 H 322.678 3.91393 0.71109 0
M  V30 3401 H 319.417 6.50685 -0.793033 0
M  V30 3402 H 318.937 5.94121 0.823445 0
M  V30 3403 H 320.616 6.44945 0.515252 0
M  V30 3404 N 320.748 -0.0735177 1.57428 0
M  V30 3405 C 321.995 -0.772999 1.87166 0
M  V30 3406 C 322.323 -1.77665 0.791551 0
M  V30 3407 O 321.578 -1.94541 -0.212636 0
M  V30 3408 C 321.877 -1.51799 3.23561 0
M  V30 3409 C 321.543 -0.654484 4.46125 0
M  V30 3410 C 320.205 -0.416511 4.79394 0
M  V30 3411 C 322.557 -0.0555862 5.2117 0
M  V30 3412 C 319.885 0.429869 5.85123 0
M  V30 3413 C 322.237 0.778239 6.27795 0
M  V30 3414 C 320.901 1.0261 6.59566 0
M  V30 3415 H 320.171 -0.282861 0.684888 0
M  V30 3416 H 322.818 -0.0338272 1.9147 0
M  V30 3417 H 321.123 -2.32932 3.1504 0
M  V30 3418 H 322.82 -2.06397 3.43804 0
M  V30 3419 H 319.41 -0.850091 4.20085 0
M  V30 3420 H 323.594 -0.226558 4.95783 0
M  V30 3421 H 318.85 0.630665 6.08139 0
M  V30 3422 H 323.024 1.24906 6.85107 0
M  V30 3423 H 320.651 1.68371 7.4132 0
M  V30 3424 N 322.226 -1.5378 -0.344866 0
M  V30 3425 C 323.473 -1.70963 -1.08526 0
M  V30 3426 C 323.801 -0.472126 -1.88683 0
M  V30 3427 O 323.056 0.546116 -1.87926 0
M  V30 3428 C 323.355 -2.92407 -2.05506 0
M  V30 3429 C 323.021 -4.28066 -1.41671 0
M  V30 3430 C 321.683 -4.64951 -1.2399 0
M  V30 3431 C 324.035 -5.12344 -0.956726 0
M  V30 3432 C 321.363 -5.83733 -0.589277 0
M  V30 3433 C 323.715 -6.3179 -0.320015 0
M  V30 3434 C 322.379 -6.67372 -0.130881 0
M  V30 3435 H 321.649 -0.625598 -0.397124 0
M  V30 3436 H 324.296 -1.87995 -0.36469 0
M  V30 3437 H 322.601 -2.69973 -2.8394 0
M  V30 3438 H 324.298 -3.02895 -2.62784 0
M  V30 3439 H 320.888 -3.99034 -1.56429 0
M  V30 3440 H 325.072 -4.8438 -1.08118 0
M  V30 3441 H 320.328 -6.09877 -0.431344 0
M  V30 3442 H 324.502 -6.96386 0.0445072 0
M  V30 3443 H 322.129 -7.59273 0.375318 0
M  V30 3444 N 323.704 0.605807 -1.45491 0
M  V30 3445 C 325.115 1.18777 -1.44045 0
M  V30 3446 C 325.466 1.95471 -0.169001 0
M  V30 3447 O 324.591 2.0374 0.729324 0
M  V30 3448 C 325.186 2.16064 -2.60963 0
M  V30 3449 C 323.745 2.69633 -2.62631 0
M  V30 3450 C 322.892 1.45072 -2.36325 0
M  V30 3451 H 325.843 0.395017 -1.53705 0
M  V30 3452 H 325.864 2.9913 -2.35163 0
M  V30 3453 H 325.376 1.60217 -3.53486 0
M  V30 3454 H 323.477 3.29414 -1.74119 0
M  V30 3455 H 323.59 3.13944 -3.61906 0
M  V30 3456 H 321.954 1.74089 -1.85917 0
M  V30 3457 H 322.737 0.910899 -3.30995 0
M  V30 3458 N 325.182 1.32811 0.848464 0
M  V30 3459 C 326.593 1.21315 1.41914 0
M  V30 3460 C 326.944 -0.171847 1.95446 0
M  V30 3461 O 326.069 -1.07093 1.88043 0
M  V30 3462 C 326.664 2.19631 2.57968 0
M  V30 3463 C 325.223 2.12003 3.11017 0
M  V30 3464 C 324.37 2.07651 1.83783 0
M  V30 3465 H 327.321 1.44549 0.655071 0
M  V30 3466 H 327.342 1.79845 3.35315 0
M  V30 3467 H 326.854 3.20423 2.18976 0
M  V30 3468 H 324.955 1.14481 3.54577 0
M  V30 3469 H 325.068 3.02111 3.71841 0
M  V30 3470 H 323.432 1.52983 2.03638 0
M  V30 3471 H 324.215 3.10235 1.47 0
M  V30 3472 N 326.66 -1.06551 1.16123 0
M  V30 3473 C 328.076 -1.3142 0.905585 0
M  V30 3474 C 328.276 -1.96571 -0.442964 0
M  V30 3475 O 327.332 -2.23068 -1.18308 0
M  V30 3476 C 328.645 -2.19741 2.05267 0
M  V30 3477 C 330.193 -2.33165 2.08813 0
M  V30 3478 C 330.668 -3.24838 3.22868 0
M  V30 3479 N 332.159 -3.32421 3.22568 0
M  V30 3480 C 332.894 -4.0344 4.0746 0
M  V30 3481 N 332.39 -4.77003 5.02434 0
M  V30 3482 N 334.183 -3.99464 3.95456 0
M  V30 3483 H 326.334 -0.626548 2.02949 0
M  V30 3484 H 328.597 -0.338777 0.8854 0
M  V30 3485 H 328.303 -1.79142 3.02657 0
M  V30 3486 H 328.177 -3.20313 1.99198 0
M  V30 3487 H 330.564 -2.73013 1.12018 0
M  V30 3488 H 330.645 -1.3227 2.18948 0
M  V30 3489 H 330.289 -2.85708 4.19921 0
M  V30 3490 H 330.219 -4.25707 3.0997 0
M  V30 3491 H 332.71 -2.79994 2.53795 0
M  V30 3492 H 333.023 -5.28712 5.63634 0
M  V30 3493 H 331.368 -4.75992 5.06415 0
M  V30 3494 H 334.559 -3.4111 3.20564 0
M  V30 3495 H 334.732 -4.54544 4.61837 0
M  V30 3496 N 328.138 -0.959301 -1.25041 0
M  V30 3497 C 329.368 -0.63303 -1.96663 0
M  V30 3498 C 329.776 0.800031 -1.71453 0
M  V30 3499 O 329.119 1.54736 -0.99008 0
M  V30 3500 C 329.181 -0.817523 -3.50081 0
M  V30 3501 C 328.845 -2.22863 -3.98975 0
M  V30 3502 C 329.842 -3.20569 -4.09306 0
M  V30 3503 C 327.527 -2.55407 -4.32519 0
M  V30 3504 C 329.521 -4.4891 -4.52503 0
M  V30 3505 C 327.208 -3.83976 -4.754 0
M  V30 3506 C 328.206 -4.8054 -4.85356 0
M  V30 3507 O 327.894 -6.06817 -5.27284 0
M  V30 3508 H 327.626 -0.235866 -0.633516 0
M  V30 3509 H 330.18 -1.2874 -1.60047 0
M  V30 3510 H 328.41 -0.105992 -3.86555 0
M  V30 3511 H 330.099 -0.491604 -4.02912 0
M  V30 3512 H 330.865 -2.96753 -3.83618 0
M  V30 3513 H 326.744 -1.8097 -4.23994 0
M  V30 3514 H 330.288 -5.24283 -4.60188 0
M  V30 3515 H 326.185 -4.07596 -5.00535 0
M  V30 3516 H 326.953 -6.10262 -5.45457 0
M  V30 3517 N 329.616 1.39756 -0.72842 0
M  V30 3518 C 330.564 2.32485 -0.0731849 0
M  V30 3519 C 331.558 1.52717 0.733063 0
M  V30 3520 O 332.764 1.68428 0.634988 0
M  V30 3521 H 329.139 0.751984 -0.00486469 0
M  V30 3522 H 331.11 2.85382 -0.871761 0
M  V30 3523 C 329.859 3.37773 0.824908 0
M  V30 3524 H 329.182 3.99227 0.213915 0
M  V30 3525 H 330.622 4.05121 1.25111 0
M  V30 3526 C 329.081 2.74287 1.95622 0
M  V30 3527 O 329.611 2.61618 3.04826 0
M  V30 3528 N 327.817 2.32475 1.74367 0
M  V30 3529 H 327.364 2.4298 0.855494 0
M  V30 3530 H 327.322 1.90337 2.50238 0
M  V30 3531 N 331.094 0.475555 1.50254 0
M  V30 3532 C 332.51 0.12997 1.5907 0
M  V30 3533 C 332.71 -1.36385 1.48328 0
M  V30 3534 O 331.766 -2.13754 1.34407 0
M  V30 3535 C 333.079 0.684139 2.92814 0
M  V30 3536 C 334.627 0.647965 3.0622 0
M  V30 3537 C 335.102 1.17975 4.42545 0
M  V30 3538 N 336.593 1.13936 4.48969 0
M  V30 3539 C 337.328 1.52129 5.52851 0
M  V30 3540 N 336.824 1.97793 6.63965 0
M  V30 3541 N 338.617 1.43704 5.4342 0
M  V30 3542 H 330.768 1.44706 1.55479 0
M  V30 3543 H 333.031 0.598691 0.735033 0
M  V30 3544 H 332.737 1.73079 3.06164 0
M  V30 3545 H 332.611 0.130204 3.76975 0
M  V30 3546 H 334.998 -0.38979 2.92514 0
M  V30 3547 H 335.079 1.23876 2.23805 0
M  V30 3548 H 334.723 2.21616 4.57 0
M  V30 3549 H 334.653 0.565138 5.23559 0
M  V30 3550 H 337.144 0.804488 3.69238 0
M  V30 3551 H 337.457 2.25072 7.39299 0
M  V30 3552 H 335.802 2.01749 6.65073 0
M  V30 3553 H 338.993 1.07867 4.55502 0
M  V30 3554 H 339.166 1.73794 6.24259 0
M  V30 3555 N 332.573 -1.56217 0.208337 0
M  V30 3556 C 333.536 -2.18455 -0.693557 0
M  V30 3557 C 334.536 -1.14268 -1.13135 0
M  V30 3558 O 335.726 -1.39577 -1.0423 0
M  V30 3559 C 332.858 -2.79727 -1.94848 0
M  V30 3560 H 334.051 -2.99519 -0.15114 0
M  V30 3561 H 331.604 -1.56245 -0.041287 0
M  V30 3562 H 332.339 -2.02497 -2.53309 0
M  V30 3563 H 332.124 -3.56009 -1.64316 0
M  V30 3564 H 333.614 -3.27475 -2.59133 0
M  V30 3565 N 334.051 0.0651679 -1.57465 0
M  V30 3566 C 334.998 1.07675 -2.04144 0
M  V30 3567 C 335.968 1.38071 -0.923335 0
M  V30 3568 O 337.153 1.49026 -1.19146 0
M  V30 3569 C 334.293 2.38337 -2.49579 0
M  V30 3570 C 333.406 2.14413 -3.75035 0
M  V30 3571 C 332.541 3.38686 -4.09225 0
M  V30 3572 C 331.58 3.10156 -5.27702 0
M  V30 3573 N 330.717 4.26778 -5.57499 0
M  V30 3574 H 335.557 0.671716 -2.90331 0
M  V30 3575 H 333.094 0.3201 -1.43575 0
M  V30 3576 H 335.052 3.14632 -2.73975 0
M  V30 3577 H 333.682 2.7663 -1.6636 0
M  V30 3578 H 332.734 1.2878 -3.57939 0
M  V30 3579 H 334.046 1.89344 -4.61466 0
M  V30 3580 H 333.2 4.23373 -4.34558 0
M  V30 3581 H 331.939 3.66837 -3.21374 0
M  V30 3582 H 330.944 2.23866 -5.02159 0
M  V30 3583 H 332.169 2.8332 -6.17176 0
M  V30 3584 H 330.115 4.54948 -4.72608 0
M  V30 3585 H 330.032 4.05005 -6.38362 0
M  V30 3586 H 331.3 5.12443 -5.87386 0
M  V30 3587 N 335.529 1.53961 0.336706 0
M  V30 3588 C 336.492 1.81724 1.39675 0
M  V30 3589 C 337.492 0.688532 1.45313 0
M  V30 3590 O 338.682 0.956829 1.45569 0
M  V30 3591 C 335.814 1.96543 2.78538 0
M  V30 3592 H 337.007 2.76424 1.16318 0
M  V30 3593 H 334.56 1.45478 0.571474 0
M  V30 3594 H 335.295 1.0401 3.07168 0
M  V30 3595 H 335.08 2.78665 2.75841 0
M  V30 3596 H 336.57 2.19516 3.5525 0
M  V30 3597 N 337.007 -0.598083 1.45811 0
M  V30 3598 C 337.954 -1.7082 1.55207 0
M  V30 3599 C 338.924 -1.61278 0.39732 0
M  V30 3600 O 340.109 -1.80717 0.612038 0
M  V30 3601 C 337.249 -3.09144 1.53376 0
M  V30 3602 C 336.362 -3.29423 2.79472 0
M  V30 3603 C 335.497 -4.57907 2.69248 0
M  V30 3604 C 334.536 -4.71476 3.90354 0
M  V30 3605 N 333.673 -5.9127 3.78608 0
M  V30 3606 H 338.513 -1.62125 2.50039 0
M  V30 3607 H 336.05 -0.790389 1.24062 0
M  V30 3608 H 338.008 -3.89186 1.50301 0
M  V30 3609 H 336.638 -3.16773 0.620876 0
M  V30 3610 H 335.69 -2.43091 2.92594 0
M  V30 3611 H 337.002 -3.3532 3.69272 0
M  V30 3612 H 336.156 -5.46157 2.64192 0
M  V30 3613 H 334.895 -4.54423 1.77063 0
M  V30 3614 H 333.9 -3.81648 3.95759 0
M  V30 3615 H 335.125 -4.76751 4.83617 0
M  V30 3616 H 333.071 -5.88813 2.89199 0
M  V30 3617 H 332.988 -5.98369 4.6205 0
M  V30 3618 H 334.256 -6.81992 3.77501 0
M  V30 3619 N 338.485 -1.33259 -0.841409 0
M  V30 3620 C 339.432 -1.23302 -1.95103 0
M  V30 3621 C 340.402 -0.112204 -1.65721 0
M  V30 3622 O 341.587 -0.290038 -1.88583 0
M  V30 3623 C 338.727 -0.975583 -3.31023 0
M  V30 3624 C 337.84 -2.18243 -3.72819 0
M  V30 3625 C 336.975 -1.85936 -4.97595 0
M  V30 3626 C 336.014 -3.02866 -5.3192 0
M  V30 3627 N 335.151 -2.70565 -6.47873 0
M  V30 3628 H 339.991 -2.18207 -2.02952 0
M  V30 3629 H 337.528 -1.0851 -0.993173 0
M  V30 3630 H 339.486 -0.80677 -4.09325 0
M  V30 3631 H 338.116 -0.0632755 -3.22738 0
M  V30 3632 H 337.168 -2.46107 -2.90061 0
M  V30 3633 H 338.48 -3.05666 -3.94169 0
M  V30 3634 H 337.634 -1.65684 -5.83638 0
M  V30 3635 H 336.373 -0.957452 -4.78209 0
M  V30 3636 H 335.378 -3.23736 -4.44382 0
M  V30 3637 H 336.603 -3.93809 -5.53255 0
M  V30 3638 H 334.549 -1.8293 -6.29978 0
M  V30 3639 H 334.466 -3.51519 -6.69306 0
M  V30 3640 H 335.734 -2.53774 -7.37034 0
M  V30 3641 N 339.963 1.05934 -1.16686 0
M  V30 3642 C 340.896 2.1295 -0.820225 0
M  V30 3643 C 341.874 1.61242 0.209722 0
M  V30 3644 O 343.058 1.88271 0.0929688 0
M  V30 3645 C 340.185 3.3797 -0.22223 0
M  V30 3646 C 339.231 4.08488 -1.22637 0
M  V30 3647 S 340.064 4.58015 -2.77457 0
M  V30 3648 C 341.22 5.86292 -2.19117 0
M  V30 3649 H 341.453 2.42025 -1.72659 0
M  V30 3650 H 338.986 1.18423 -0.990722 0
M  V30 3651 H 340.944 4.10335 0.116322 0
M  V30 3652 H 339.605 3.07045 0.66196 0
M  V30 3653 H 338.798 4.98291 -0.756455 0
M  V30 3654 H 338.4 3.42154 -1.51019 0
M  V30 3655 H 340.692 6.59246 -1.56209 0
M  V30 3656 H 341.635 6.38019 -3.07144 0
M  V30 3657 H 342.043 5.40497 -1.62858 0
M  V30 3658 N 341.441 0.965919 1.2453 0
M  V30 3659 C 342.388 0.49402 2.25451 0
M  V30 3660 C 343.358 -0.45948 1.59618 0
M  V30 3661 O 344.543 -0.370238 1.87173 0
M  V30 3662 C 341.683 -0.211359 3.44452 0
M  V30 3663 C 340.796 0.7807 4.24887 0
M  V30 3664 C 339.931 0.0516105 5.31175 0
M  V30 3665 C 338.97 1.03385 6.03306 0
M  V30 3666 N 338.107 0.334887 7.01301 0
M  V30 3667 H 342.947 1.35946 2.65184 0
M  V30 3668 H 340.484 0.681515 1.3036 0
M  V30 3669 H 342.442 -0.637 4.12308 0
M  V30 3670 H 341.072 -1.04077 3.05562 0
M  V30 3671 H 340.124 1.32479 3.56586 0
M  V30 3672 H 341.436 1.52978 4.74762 0
M  V30 3673 H 340.59 -0.432114 6.05159 0
M  V30 3674 H 339.329 -0.730179 4.82203 0
M  V30 3675 H 338.334 1.52847 5.28127 0
M  V30 3676 H 339.559 1.81606 6.54367 0
M  V30 3677 H 337.505 -0.427959 6.54603 0
M  V30 3678 H 337.422 1.02287 7.49048 0
M  V30 3679 H 338.69 -0.126928 7.79397 0
M  V30 3680 N 342.919 -1.39368 0.735821 0
M  V30 3681 C 343.882 -2.2896 0.104874 0
M  V30 3682 C 344.882 -1.46347 -0.666274 0
M  V30 3683 O 346.072 -1.67014 -0.49517 0
M  V30 3684 C 343.204 -3.29857 -0.860656 0
M  V30 3685 H 344.397 -2.86259 0.894205 0
M  V30 3686 H 341.95 -1.48029 0.501704 0
M  V30 3687 H 342.685 -2.77615 -1.67631 0
M  V30 3688 H 342.47 -3.9087 -0.310327 0
M  V30 3689 H 343.96 -3.96893 -1.29867 0
M  V30 3690 N 344.397 -0.483516 -1.5 0
M  V30 3691 C 345.674 0.129337 -1.95172 0
M  V30 3692 C 346.054 1.55802 -1.4244 0
M  V30 3693 O 345.402 2.19625 -0.630649 0
M  V30 3694 C 345.612 0.0599251 -3.48949 0
M  V30 3695 C 346.96 0.242617 -4.23906 0
M  V30 3696 O 347.984 0.135933 -3.55941 0
M  V30 3697 O 346.843 0.459454 -5.44565 0
M  V30 3698 H 343.937 0.104887 -0.820322 0
M  V30 3699 H 346.483 -0.544807 -1.60717 0
M  V30 3700 H 345.255 -0.937079 -3.79914 0
M  V30 3701 H 344.878 0.774984 -3.89974 0
M  V30 3702 N 345.875 1.56104 -0.216619 0
M  V30 3703 C 346.785 2.23694 0.706982 0
M  V30 3704 C 347.801 1.24295 1.21765 0
M  V30 3705 O 348.977 1.57094 1.2603 0
M  V30 3706 C 346.042 2.8998 1.90033 0
M  V30 3707 C 345.103 4.04708 1.43213 0
M  V30 3708 C 344.336 4.67824 2.56859 0
M  V30 3709 O 344.559 4.29913 3.74874 0
M  V30 3710 O 343.493 5.56905 2.28343 0
M  V30 3711 H 347.319 3.03272 0.161235 0
M  V30 3712 H 344.904 1.49394 0.0136177 0
M  V30 3713 H 346.786 3.31837 2.59735 0
M  V30 3714 H 345.461 2.13365 2.43428 0
M  V30 3715 H 344.368 3.6743 0.70327 0
M  V30 3716 H 345.701 4.83051 0.944615 0
M  V30 3717 O 347.392 0.0802023 1.61301 0
M  V30 3718 H 348.083 -0.524716 1.86458 0
M  V30 END ATOM
M  V30 BEGIN BOND
M  V30 END BOND
M  V30 END CTAB
M  END
$$$$
