drugbank_target|P39646 Phosphate acetyltransferase (DB02897)
 OpenBabel12092120023D

  0  0  0     0  0            999 V3000
M  V30 BEGIN CTAB
M  V30 COUNTS 4913 4947 0 0 0
M  V30 BEGIN ATOM
M  V30 1 H -0.908 1.98254 -0.117106 0
M  V30 2 N 0 1.576 0 0
M  V30 3 C 0.933 2.03868 1.02534 0
M  V30 4 C 1.911 0.928543 1.3348 0
M  V30 5 O 3.095 1.19667 1.45644 0
M  V30 6 C 0.222 2.43627 2.35294 0
M  V30 7 C -0.732 3.65373 2.2001 0
M  V30 8 S 0.101 5.13292 1.52614 0
M  V30 9 C 1.257 5.56322 2.86805 0
M  V30 10 H 1.49 2.90518 0.631377 0
M  V30 11 H -0.977 1.52953 0.210867 0
M  V30 12 H 0.981 2.67203 3.11629 0
M  V30 13 H -0.358 1.57376 2.7183 0
M  V30 14 H -1.165 3.90944 3.18086 0
M  V30 15 H -1.563 3.418 1.51819 0
M  V30 16 H 0.729 5.58782 3.83104 0
M  V30 17 H 1.672 6.56266 2.65933 0
M  V30 18 H 2.08 4.83886 2.90714 0
M  V30 19 N 1.4781 -0.272755 1.55222 0
M  V30 20 C 2.4411 -1.32041 1.87344 0
M  V30 21 C 3.4411 -1.42342 0.74803 0
M  V30 22 O 4.6311 -1.41488 1.0162 0
M  V30 23 C 1.7631 -2.70173 2.07893 0
M  V30 24 H 2.9561 -1.04789 2.80997 0
M  V30 25 H 0.5091 -0.51083 1.47717 0
M  V30 26 H 1.2441 -3.02605 1.16622 0
M  V30 27 H 1.0291 -2.64082 2.89833 0
M  V30 28 H 2.5191 -3.45869 2.34017 0
M  V30 29 N 2.9562 -1.48159 -0.537278 0
M  V30 30 C 4.2332 -1.46291 -1.29839 0
M  V30 31 C 4.6132 -0.170613 -2.10409 0
M  V30 32 O 3.9612 0.847746 -2.12192 0
M  V30 33 C 4.1712 -2.72055 -2.18603 0
M  V30 34 C 5.5192 -3.20087 -2.7898 0
M  V30 35 O 6.5432 -2.72921 -2.28894 0
M  V30 36 O 5.4022 -4.02138 -3.70064 0
M  V30 37 H 2.4962 -0.583906 -0.585647 0
M  V30 38 H 5.0422 -1.60384 -0.554534 0
M  V30 39 H 3.8142 -3.57628 -1.58801 0
M  V30 40 H 3.4372 -2.60646 -3.00249 0
M  V30 41 N 4.4343 0.785586 -1.36625 0
M  V30 42 C 5.3643 1.91259 -1.33949 0
M  V30 43 C 6.3453 1.68795 -0.210325 0
M  V30 44 O 7.5303 1.89854 -0.408561 0
M  V30 45 C 4.6603 3.28339 -1.13186 0
M  V30 46 C 3.6143 3.65335 -2.22967 0
M  V30 47 C 2.9403 5.00806 -1.87342 0
M  V30 48 C 4.2403 3.7352 -3.65075 0
M  V30 49 H 5.9343 1.93755 -2.28253 0
M  V30 50 H 3.4803 0.930788 -1.09874 0
M  V30 51 H 5.4333 4.06804 -1.09948 0
M  V30 52 H 4.1573 3.2624 -0.153332 0
M  V30 53 H 2.8163 2.89169 -2.25337 0
M  V30 54 H 2.4643 4.95233 -0.880545 0
M  V30 55 H 2.1643 5.26529 -2.60846 0
M  V30 56 H 3.6883 5.81687 -1.85667 0
M  V30 57 H 5.1023 4.42168 -3.64911 0
M  V30 58 H 3.4993 4.10731 -4.37516 0
M  V30 59 H 4.5693 2.74527 -3.99703 0
M  V30 60 N 5.9124 1.20967 1.01018 0
M  V30 61 C 7.1594 1.02374 1.74716 0
M  V30 62 C 7.4874 -0.443375 1.89379 0
M  V30 63 O 6.7424 -1.34535 1.42123 0
M  V30 64 C 7.0414 1.65997 3.16512 0
M  V30 65 C 6.7074 3.15831 3.2181 0
M  V30 66 C 5.3694 3.56719 3.22963 0
M  V30 67 C 7.7214 4.11816 3.19464 0
M  V30 68 C 5.0494 4.92107 3.19449 0
M  V30 69 C 7.4014 5.47158 3.17491 0
M  V30 70 C 6.0654 5.87451 3.16951 0
M  V30 71 H 5.3354 0.374614 0.639332 0
M  V30 72 H 7.9824 1.50485 1.18434 0
M  V30 73 H 6.2874 1.10166 3.75993 0
M  V30 74 H 7.9844 1.49119 3.72242 0
M  V30 75 H 4.5744 2.83263 3.21652 0
M  V30 76 H 8.7584 3.81257 3.17737 0
M  V30 77 H 4.0144 5.22579 3.17366 0
M  V30 78 H 8.1884 6.21274 3.14629 0
M  V30 79 H 5.8154 6.92329 3.13983 0
M  V30 80 N 7.3905 -1.2043 1.01659 0
M  V30 81 C 8.6155 -1.94318 0.724942 0
M  V30 82 C 9.0405 -1.74266 -0.708034 0
M  V30 83 O 8.3985 -1.03694 -1.48719 0
M  V30 84 C 8.4465 -3.44486 1.06591 0
M  V30 85 O 7.5505 -4.12017 0.177599 0
M  V30 86 H 6.8915 -0.60708 0.26898 0
M  V30 87 H 9.4215 -1.52861 1.35995 0
M  V30 88 H 9.4315 -3.95106 1.01762 0
M  V30 89 H 8.1065 -3.58404 2.10997 0
M  V30 90 H 6.6835 -3.71821 0.283421 0
M  V30 91 N 8.8686 -0.792821 -1.36206 0
M  V30 92 C 10.0966 -0.378825 -2.03402 0
M  V30 93 C 10.5116 1.00586 -1.59774 0
M  V30 94 O 9.8686 1.64574 -0.788764 0
M  V30 95 C 9.9196 -0.43683 -3.58851 0
M  V30 96 O 9.6406 -1.76691 -4.00889 0
M  V30 97 C 11.1416 -0.0138943 -4.43298 0
M  V30 98 H 8.3616 -0.155673 -0.652692 0
M  V30 99 H 10.9056 -1.07261 -1.74113 0
M  V30 100 H 9.0606 0.208575 -3.86838 0
M  V30 101 H 9.4746 -1.72011 -4.95492 0
M  V30 102 H 10.9486 -0.105615 -5.51899 0
M  V30 103 H 11.4256 1.03915 -4.2673 0
M  V30 104 H 12.0316 -0.63192 -4.20579 0
M  V30 105 N 10.3467 1.47872 -0.545128 0
M  V30 106 C 11.5927 2.02793 -0.0166104 0
M  V30 107 C 11.9257 1.41987 1.32489 0
M  V30 108 O 11.2007 0.571045 1.85928 0
M  V30 109 C 11.4837 3.59989 0.0893294 0
M  V30 110 C 11.3367 4.3125 -1.27841 0
M  V30 111 C 12.6557 4.32606 0.808724 0
M  V30 112 H 9.7747 0.736962 -0.00751035 0
M  V30 113 H 12.4167 1.76433 -0.705085 0
M  V30 114 H 10.5667 3.82579 0.675681 0
M  V30 115 H 12.2387 4.20035 -1.90704 0
M  V30 116 H 10.4817 3.92076 -1.85632 0
M  V30 117 H 11.1527 5.39736 -1.15713 0
M  V30 118 H 13.6287 4.14936 0.310992 0
M  V30 119 H 12.5047 5.42251 0.851782 0
M  V30 120 H 12.7657 4.00963 1.86229 0
M  V30 121 N 11.8248 0.280983 1.55075 0
M  V30 122 C 12.7568 -0.637268 2.20163 0
M  V30 123 C 13.7698 -1.11298 1.18813 0
M  V30 124 O 14.9588 -1.03388 1.4551 0
M  V30 125 C 12.0588 -1.88199 2.81841 0
M  V30 126 C 11.2318 -1.55211 4.08936 0
M  V30 127 C 10.2908 -2.64991 4.54606 0
M  V30 128 O 9.3168 -2.30929 5.2025 0
M  V30 129 N 10.5188 -3.95161 4.25238 0
M  V30 130 H 13.2838 -0.0801694 2.99593 0
M  V30 131 H 10.8448 0.102329 1.61576 0
M  V30 132 H 12.8368 -2.60948 3.09335 0
M  V30 133 H 11.4068 -2.34799 2.06369 0
M  V30 134 H 10.6268 -0.658185 3.88666 0
M  V30 135 H 11.9148 -1.30681 4.91732 0
M  V30 136 H 11.3128 -4.25653 3.72607 0
M  V30 137 H 9.8698 -4.6427 4.5749 0
M  V30 138 N 13.3029 -1.57598 0.00835791 0
M  V30 139 C 14.2129 -2.12385 -0.996487 0
M  V30 140 C 15.2289 -1.07108 -1.37127 0
M  V30 141 O 16.4049 -1.39055 -1.4569 0
M  V30 142 C 13.4699 -2.62314 -2.26699 0
M  V30 143 C 12.5309 -3.82225 -1.95456 0
M  V30 144 C 11.7639 -4.29763 -3.16449 0
M  V30 145 O 11.9869 -3.76584 -4.28416 0
M  V30 146 O 10.9209 -5.21832 -2.99958 0
M  V30 147 H 14.7469 -2.98479 -0.560725 0
M  V30 148 H 12.3319 -1.47903 -0.210987 0
M  V30 149 H 14.2139 -2.94589 -3.01322 0
M  V30 150 H 12.8889 -1.79313 -2.69497 0
M  V30 151 H 11.7959 -3.54909 -1.18282 0
M  V30 152 H 13.1289 -4.66324 -1.57489 0
M  V30 153 N 14.781 0.264519 -1.55364 0
M  V30 154 C 15.728 1.32717 -1.88825 0
M  V30 155 C 16.698 1.48675 -0.740605 0
M  V30 156 O 17.883 1.62945 -0.992657 0
M  V30 157 C 15.023 2.68089 -2.17307 0
M  V30 158 C 14.136 2.60284 -3.44785 0
M  V30 159 C 13.271 3.87892 -3.62924 0
M  V30 160 C 12.31 3.74631 -4.84064 0
M  V30 161 N 11.447 4.94092 -4.98816 0
M  V30 162 H 16.287 1.03481 -2.79456 0
M  V30 163 H 13.824 0.499757 -1.3835 0
M  V30 164 H 15.782 3.46864 -2.31821 0
M  V30 165 H 14.412 2.95509 -1.299 0
M  V30 166 H 13.464 1.73173 -3.38697 0
M  V30 167 H 14.776 2.46388 -4.33698 0
M  V30 168 H 13.93 4.75109 -3.77302 0
M  V30 169 H 12.669 4.04664 -2.7221 0
M  V30 170 H 11.674 2.85797 -4.69681 0
M  V30 171 H 12.899 3.5937 -5.76221 0
M  V30 172 H 10.845 5.11259 -4.11036 0
M  V30 173 H 10.762 4.8276 -5.81789 0
M  V30 174 H 12.03 5.82857 -5.17588 0
M  V30 175 N 16.2591 1.48442 0.529413 0
M  V30 176 C 17.5051 1.5672 1.28711 0
M  V30 177 C 17.8381 0.2406 1.92704 0
M  V30 178 O 17.1131 -0.753454 1.79313 0
M  V30 179 C 17.3961 2.70587 2.37603 0
M  V30 180 C 17.2491 4.12953 1.78297 0
M  V30 181 C 18.5681 2.80212 3.39366 0
M  V30 182 H 15.6871 0.570474 0.466613 0
M  V30 183 H 18.3291 1.80617 0.589706 0
M  V30 184 H 16.4791 2.50342 2.97088 0
M  V30 185 H 18.1511 4.44639 1.22858 0
M  V30 186 H 16.3941 4.19927 1.0883 0
M  V30 187 H 17.0651 4.88448 2.57144 0
M  V30 188 H 19.5411 2.98553 2.89836 0
M  V30 189 H 18.4171 3.61611 4.12951 0
M  V30 190 H 18.6781 1.88393 3.99951 0
M  V30 191 N 17.7372 -0.778329 1.37039 0
M  V30 192 C 18.7002 -1.87301 1.32102 0
M  V30 193 C 19.7002 -1.59198 0.226405 0
M  V30 194 O 20.8902 -1.67403 0.481861 0
M  V30 195 C 18.0222 -3.24309 1.05055 0
M  V30 196 H 19.2152 -1.93093 2.29467 0
M  V30 197 H 16.7682 -0.977358 1.21973 0
M  V30 198 H 17.5032 -3.24196 0.0819373 0
M  V30 199 H 17.2882 -3.46098 1.84279 0
M  V30 200 H 18.7782 -4.04382 1.04234 0
M  V30 201 N 19.2153 -1.21501 -1.00376 0
M  V30 202 C 20.4633 -1.03095 -1.73827 0
M  V30 203 C 20.7843 0.436341 -1.90055 0
M  V30 204 O 20.0543 1.31466 -1.45236 0
M  V30 205 H 18.6343 -0.378487 -0.644016 0
M  V30 206 H 21.2963 -1.52831 -1.20949 0
M  V30 207 H 20.3923 -1.49991 -2.73695 0
M  V30 208 N 20.6934 1.19889 -1.02296 0
M  V30 209 C 21.6404 2.22901 -0.598651 0
M  V30 210 C 22.6104 1.61588 0.384521 0
M  V30 211 O 23.7954 1.88697 0.282522 0
M  V30 212 C 20.9354 3.45063 0.0504476 0
M  V30 213 C 20.0484 4.20783 -0.978053 0
M  V30 214 C 19.1834 5.30356 -0.299338 0
M  V30 215 C 18.2224 5.97826 -1.31416 0
M  V30 216 N 17.3594 6.98975 -0.661667 0
M  V30 217 H 22.1994 2.58554 -1.48169 0
M  V30 218 H 19.7364 1.27039 -0.741584 0
M  V30 219 H 21.6944 4.14831 0.443971 0
M  V30 220 H 20.3244 3.10084 0.897097 0
M  V30 221 H 19.3764 3.50018 -1.48969 0
M  V30 222 H 20.6884 4.67109 -1.74958 0
M  V30 223 H 19.8424 6.06516 0.149347 0
M  V30 224 H 18.5814 4.85084 0.504445 0
M  V30 225 H 17.5864 5.20422 -1.77317 0
M  V30 226 H 18.8114 6.45183 -2.11933 0
M  V30 227 H 16.7574 6.55886 0.122132 0
M  V30 228 H 16.6744 7.43461 -1.37117 0
M  V30 229 H 17.9424 7.7914 -0.236785 0
M  V30 230 N 22.1715 0.800033 1.35784 0
M  V30 231 C 23.4485 0.30088 1.93272 0
M  V30 232 C 23.8285 -1.20857 1.73081 0
M  V30 233 O 23.1765 -2.00502 1.09596 0
M  V30 234 C 23.3865 0.70511 3.41803 0
M  V30 235 C 24.7345 0.690871 4.18942 0
M  V30 236 O 25.7585 0.646244 3.50289 0
M  V30 237 O 24.6175 0.74332 5.41421 0
M  V30 238 H 21.7115 0.0771605 0.823393 0
M  V30 239 H 24.2575 0.88329 1.449 0
M  V30 240 H 23.0295 1.74571 3.50201 0
M  V30 241 H 22.6525 0.0971541 3.97481 0
M  V30 242 N 23.6496 -1.47581 0.552962 0
M  V30 243 C 24.8956 -2.02782 0.0273648 0
M  V30 244 C 25.2286 -1.42687 -1.31734 0
M  V30 245 O 24.5036 -0.580897 -1.85623 0
M  V30 246 C 24.7866 -3.60031 -0.0702371 0
M  V30 247 C 24.6396 -4.30566 1.30126 0
M  V30 248 C 25.9586 -4.33028 -0.785771 0
M  V30 249 H 23.0776 -0.736912 0.0114185 0
M  V30 250 H 25.7196 -1.76056 0.714432 0
M  V30 251 H 23.8696 -3.82932 -0.655382 0
M  V30 252 H 25.5416 -4.19018 1.92929 0
M  V30 253 H 23.7846 -3.91086 1.87709 0
M  V30 254 H 24.4556 -5.39114 1.18573 0
M  V30 255 H 26.9316 -4.15095 -0.288982 0
M  V30 256 H 25.8076 -5.42695 -0.823013 0
M  V30 257 H 26.0686 -4.01945 -1.841 0
M  V30 258 N 25.1277 -0.289203 -1.54924 0
M  V30 259 C 26.0747 0.592115 -2.23075 0
M  V30 260 C 27.0447 1.13881 -1.20915 0
M  V30 261 O 28.2297 1.18551 -1.495 0
M  V30 262 C 25.3697 1.76376 -2.96623 0
M  V30 263 C 24.4827 1.24959 -4.13533 0
M  V30 264 C 23.6177 2.38416 -4.74691 0
M  V30 265 C 22.6567 1.84072 -5.83767 0
M  V30 266 N 21.7937 2.91057 -6.38929 0
M  V30 267 H 26.6337 0.00432038 -2.98 0
M  V30 268 H 24.1707 -0.00963529 -1.47097 0
M  V30 269 H 26.1287 2.45268 -3.3749 0
M  V30 270 H 24.7587 2.32337 -2.24097 0
M  V30 271 H 23.8107 0.453307 -3.77689 0
M  V30 272 H 25.1227 0.811662 -4.92152 0
M  V30 273 H 24.2767 3.15276 -5.18349 0
M  V30 274 H 23.0157 2.8553 -3.95378 0
M  V30 275 H 22.0207 1.05697 -5.39545 0
M  V30 276 H 23.2457 1.37877 -6.64956 0
M  V30 277 H 21.1917 3.37526 -5.62505 0
M  V30 278 H 21.1087 2.51724 -7.12861 0
M  V30 279 H 22.3767 3.6785 -6.87246 0
M  V30 280 N 26.6058 1.57591 -0.0167156 0
M  V30 281 C 27.8548 1.90461 0.663877 0
M  V30 282 C 28.1678 0.893515 1.73999 0
M  V30 283 O 29.3738 1.11302 2.47637 0
M  V30 284 C 27.8298 3.38155 1.23204 0
M  V30 285 C 27.4378 4.47597 0.189866 0
M  V30 286 C 29.1818 3.80111 1.88986 0
M  V30 287 C 27.0888 5.86379 0.768964 0
M  V30 288 H 26.0188 0.710738 0.251729 0
M  V30 289 H 28.6698 1.83326 -0.0799926 0
M  V30 290 H 27.0518 3.40182 2.02712 0
M  V30 291 H 28.2258 4.57112 -0.581846 0
M  V30 292 H 26.5408 4.14766 -0.368475 0
M  V30 293 H 29.1378 4.81145 2.33247 0
M  V30 294 H 29.4808 3.14511 2.72743 0
M  V30 295 H 30.0138 3.80454 1.16187 0
M  V30 296 H 26.7528 6.55493 -0.0301957 0
M  V30 297 H 26.2728 5.80496 1.50945 0
M  V30 298 H 27.9518 6.34563 1.26251 0
M  V30 299 N 28.0839 -0.256276 1.55502 0
M  V30 300 C 29.3299 -0.987079 1.77157 0
M  V30 301 C 29.6629 -1.85327 0.580315 0
M  V30 302 O 28.9379 -1.89874 -0.421686 0
M  V30 303 C 29.2209 -1.85553 3.08613 0
M  V30 304 C 29.0739 -1.01816 4.38125 0
M  V30 305 C 30.3929 -2.8397 3.36228 0
M  V30 306 H 27.5119 -0.357428 0.644526 0
M  V30 307 H 30.1539 -0.258239 1.88237 0
M  V30 308 H 28.3039 -2.47695 2.99298 0
M  V30 309 H 29.9759 -0.416159 4.59419 0
M  V30 310 H 28.2189 -0.322178 4.32602 0
M  V30 311 H 28.8899 -1.65939 5.26468 0
M  V30 312 H 31.3659 -2.31964 3.45445 0
M  V30 313 H 30.2419 -3.41864 4.29442 0
M  V30 314 H 30.5029 -3.59955 2.56681 0
M  V30 315 N 29.562 -1.4872 -0.521534 0
M  V30 316 C 30.809 -1.57168 -1.27689 0
M  V30 317 C 31.137 -0.249275 -1.92896 0
M  V30 318 O 30.392 0.761162 -1.80291 0
M  V30 319 C 30.691 -2.66497 -2.38148 0
M  V30 320 C 30.357 -4.08664 -1.90538 0
M  V30 321 C 29.019 -4.47357 -1.77271 0
M  V30 322 C 31.371 -4.97724 -1.54663 0
M  V30 323 C 28.699 -5.72905 -1.26478 0
M  V30 324 C 31.051 -6.2377 -1.05329 0
M  V30 325 C 29.715 -6.61311 -0.906861 0
M  V30 326 H 28.985 -0.575117 -0.467249 0
M  V30 327 H 31.632 -1.82472 -0.581051 0
M  V30 328 H 29.937 -2.35085 -3.13437 0
M  V30 329 H 31.634 -2.70246 -2.96257 0
M  V30 330 H 28.224 -3.78111 -2.01816 0
M  V30 331 H 32.408 -4.68501 -1.63768 0
M  V30 332 H 27.664 -6.00709 -1.13835 0
M  V30 333 H 31.838 -6.9217 -0.76644 0
M  V30 334 H 29.465 -7.5848 -0.511083 0
M  V30 335 N 31.0401 0.771051 -1.3745 0
M  V30 336 C 32.4511 1.34737 -1.29239 0
M  V30 337 C 32.8021 1.96109 0.0596908 0
M  V30 338 O 31.9271 1.93865 0.961534 0
M  V30 339 C 32.5221 2.44973 -2.34037 0
M  V30 340 C 31.0811 2.98372 -2.29458 0
M  V30 341 C 30.2281 1.71595 -2.17831 0
M  V30 342 H 33.1791 0.571256 -1.48062 0
M  V30 343 H 33.2001 3.24471 -1.98744 0
M  V30 344 H 32.7121 2.00276 -3.32432 0
M  V30 345 H 30.8131 3.47443 -1.34589 0
M  V30 346 H 30.9261 3.53939 -3.229 0
M  V30 347 H 29.2901 1.94547 -1.64388 0
M  V30 348 H 30.0731 1.29001 -3.18141 0
M  V30 349 N 32.5182 1.22032 0.997298 0
M  V30 350 C 33.4282 1.00271 2.12092 0
M  V30 351 C 34.4442 -0.047621 1.73935 0
M  V30 352 O 35.6202 0.144136 2.00884 0
M  V30 353 C 32.6852 0.578449 3.4184 0
M  V30 354 C 31.7462 1.70189 3.94125 0
M  V30 355 C 30.9792 1.29778 5.17681 0
M  V30 356 O 31.2022 0.174676 5.70132 0
M  V30 357 O 30.1362 2.11261 5.63607 0
M  V30 358 H 33.9622 1.94398 2.3333 0
M  V30 359 H 31.5472 1.00587 1.10465 0
M  V30 360 H 33.4292 0.351998 4.19927 0
M  V30 361 H 32.1042 -0.334019 3.21972 0
M  V30 362 H 31.0112 1.98282 3.1723 0
M  V30 363 H 32.3442 2.59206 4.18417 0
M  V30 364 N 33.9963 -1.19345 1.0293 0
M  V30 365 C 35.2443 -1.88665 0.724574 0
M  V30 366 C 35.5653 -1.80036 -0.749144 0
M  V30 367 O 34.8353 -1.2111 -1.53978 0
M  V30 368 H 33.4153 -0.698406 0.265025 0
M  V30 369 H 36.0773 -1.44885 1.30362 0
M  V30 370 H 35.1733 -2.94987 1.01926 0
M  V30 371 N 35.4744 -0.807222 -1.35358 0
M  V30 372 C 36.4044 -0.232509 -2.3234 0
M  V30 373 C 37.3854 0.642386 -1.57504 0
M  V30 374 O 38.5704 0.572526 -1.85569 0
M  V30 375 C 35.7004 0.619238 -3.41735 0
M  V30 376 C 34.6544 -0.157215 -4.27711 0
M  V30 377 C 33.9804 0.816273 -5.28433 0
M  V30 378 C 35.2804 -1.35656 -5.04376 0
M  V30 379 H 36.9744 -1.04276 -2.80654 0
M  V30 380 H 34.5204 -0.50288 -1.34934 0
M  V30 381 H 36.4734 1.03137 -4.08584 0
M  V30 382 H 35.1974 1.46239 -2.92031 0
M  V30 383 H 33.8564 -0.550525 -3.62443 0
M  V30 384 H 33.5044 1.65494 -4.74996 0
M  V30 385 H 33.2044 0.301067 -5.86828 0
M  V30 386 H 34.7284 1.22659 -5.98153 0
M  V30 387 H 36.1424 -1.01927 -5.64166 0
M  V30 388 H 34.5394 -1.8063 -5.7227 0
M  V30 389 H 35.6094 -2.14288 -4.34981 0
M  V30 390 N 36.9525 1.47285 -0.560781 0
M  V30 391 C 38.2295 1.9558 0.0277798 0
M  V30 392 C 38.6095 1.5034 1.48192 0
M  V30 393 O 37.9575 0.743882 2.16052 0
M  V30 394 C 38.1675 3.48789 -0.121418 0
M  V30 395 C 39.5155 4.24594 0.0220912 0
M  V30 396 O 40.5395 3.56166 -0.0491439 0
M  V30 397 O 39.3985 5.46217 0.175958 0
M  V30 398 H 36.4925 0.824663 0.0621342 0
M  V30 399 H 39.0385 1.5767 -0.627556 0
M  V30 400 H 37.8105 3.74533 -1.13316 0
M  V30 401 H 37.4335 3.93473 0.571366 0
M  V30 402 N 38.4306 0.297415 1.54768 0
M  V30 403 C 39.3406 -0.58983 2.27064 0
M  V30 404 C 40.3566 -1.15144 1.30453 0
M  V30 405 O 41.5326 -1.17699 1.63428 0
M  V30 406 C 38.5976 -1.74714 2.9946 0
M  V30 407 C 37.6586 -1.21997 4.11601 0
M  V30 408 C 36.8916 -2.32212 4.80535 0
M  V30 409 O 37.1146 -3.52036 4.48806 0
M  V30 410 O 36.0486 -1.99106 5.68014 0
M  V30 411 H 39.8746 -0.00348199 3.037 0
M  V30 412 H 37.4596 0.0640035 1.49263 0
M  V30 413 H 39.3416 -2.42147 3.44881 0
M  V30 414 H 38.0166 -2.32016 2.25722 0
M  V30 415 H 36.9236 -0.511458 3.70587 0
M  V30 416 H 38.2566 -0.692419 4.87305 0
M  V30 417 N 39.9087 -1.5758 0.0250728 0
M  V30 418 C 41.3247 -1.56124 -0.331282 0
M  V30 419 C 41.5247 -1.03029 -1.73169 0
M  V30 420 O 40.5807 -0.675215 -2.43305 0
M  V30 421 C 41.8937 -3.00139 -0.183584 0
M  V30 422 C 43.4417 -3.11946 -0.256654 0
M  V30 423 C 43.9167 -4.57793 -0.137792 0
M  V30 424 N 45.4077 -4.6279 -0.194904 0
M  V30 425 C 46.1427 -5.7326 -0.126655 0
M  V30 426 N 45.6387 -6.928 -0.00755288 0
M  V30 427 N 47.4317 -5.61811 -0.180348 0
M  V30 428 H 39.5827 -1.90424 0.94087 0
M  V30 429 H 41.8457 -0.875761 0.362968 0
M  V30 430 H 41.5517 -3.4292 0.780927 0
M  V30 431 H 41.4257 -3.64899 -0.955448 0
M  V30 432 H 43.8127 -2.69079 -1.21162 0
M  V30 433 H 43.8937 -2.49915 0.545517 0
M  V30 434 H 43.5377 -5.01339 0.813739 0
M  V30 435 H 43.4677 -5.17798 -0.958775 0
M  V30 436 H 45.9587 -3.76807 -0.287267 0
M  V30 437 H 46.2717 -7.72791 0.0379428 0
M  V30 438 H 44.6167 -6.94995 0.0271731 0
M  V30 439 H 47.8077 -4.6731 -0.271767 0
M  V30 440 H 47.9807 -6.47882 -0.123697 0
M  V30 441 N 41.3868 0.248026 -1.55636 0
M  V30 442 C 42.6358 0.974134 -1.76617 0
M  V30 443 C 42.9488 1.86528 -0.588796 0
M  V30 444 O 44.1548 2.62805 -0.681594 0
M  V30 445 C 42.6108 1.78213 -3.12679 0
M  V30 446 C 42.2188 0.93843 -4.38061 0
M  V30 447 C 43.9628 2.50104 -3.42999 0
M  V30 448 C 41.8698 1.74225 -5.65155 0
M  V30 449 H 40.7998 0.36745 -0.658405 0
M  V30 450 H 43.4508 0.22884 -1.82067 0
M  V30 451 H 41.8328 2.56933 -3.01333 0
M  V30 452 H 43.0068 0.193635 -4.60393 0
M  V30 453 H 41.3218 0.332905 -4.15067 0
M  V30 454 H 43.9188 3.10694 -4.3517 0
M  V30 455 H 44.2618 3.21662 -2.64271 0
M  V30 456 H 44.7948 1.78395 -3.55556 0
M  V30 457 H 41.5338 1.07043 -6.46701 0
M  V30 458 H 41.0538 2.46235 -5.46926 0
M  V30 459 H 42.7328 2.30967 -6.0437 0
M  V30 460 N 42.8649 1.48995 0.513639 0
M  V30 461 C 43.7949 1.67636 1.62544 0
M  V30 462 C 44.7759 0.525087 1.61793 0
M  V30 463 O 45.9609 0.759502 1.78732 0
M  V30 464 C 43.0909 1.73114 3.01079 0
M  V30 465 C 42.0449 2.87905 3.16693 0
M  V30 466 C 41.3709 2.78486 4.56453 0
M  V30 467 C 42.6709 4.29005 2.97913 0
M  V30 468 H 44.3649 2.60716 1.47198 0
M  V30 469 H 41.9109 1.25465 0.706714 0
M  V30 470 H 43.8639 1.84742 3.78746 0
M  V30 471 H 42.5879 0.766241 3.17484 0
M  V30 472 H 41.2469 2.75859 2.41448 0
M  V30 473 H 40.8949 1.7993 4.69717 0
M  V30 474 H 40.5949 3.55523 4.67843 0
M  V30 475 H 42.1189 2.92104 5.36197 0
M  V30 476 H 43.5329 4.41798 3.65359 0
M  V30 477 H 41.9299 5.07166 3.20785 0
M  V30 478 H 42.9999 4.44329 1.94165 0
M  V30 479 N 44.343 -0.763751 1.37857 0
M  V30 480 C 45.253 -1.90817 1.36478 0
M  V30 481 C 46.269 -1.71997 0.263248 0
M  V30 482 O 47.445 -1.95095 0.499979 0
M  V30 483 C 44.51 -3.2605 1.17864 0
M  V30 484 C 43.571 -3.57467 2.3773 0
M  V30 485 C 42.804 -4.86249 2.19995 0
M  V30 486 O 43.027 -5.57884 1.18836 0
M  V30 487 O 41.961 -5.16911 3.08361 0
M  V30 488 H 45.787 -1.94933 2.32884 0
M  V30 489 H 43.372 -0.907619 1.1867 0
M  V30 490 H 45.254 -4.06924 1.09504 0
M  V30 491 H 43.929 -3.22769 0.245372 0
M  V30 492 H 42.836 -2.76796 2.51664 0
M  V30 493 H 44.169 -3.655 3.29652 0
M  V30 494 N 45.8211 -1.22559 -0.990812 0
M  V30 495 C 46.7841 -0.998863 -2.0629 0
M  V30 496 C 47.7841 0.0354834 -1.60761 0
M  V30 497 O 48.9741 -0.203231 -1.7301 0
M  V30 498 C 46.1061 -0.509203 -3.37076 0
M  V30 499 H 47.2991 -1.95014 -2.27837 0
M  V30 500 H 44.8521 -1.04456 -1.16269 0
M  V30 501 H 45.5871 0.446335 -3.21214 0
M  V30 502 H 45.3721 -1.25547 -3.71457 0
M  V30 503 H 46.8621 -0.370888 -4.1595 0
M  V30 504 N 47.2992 1.18797 -1.03562 0
M  V30 505 C 48.5452 1.8893 -0.737113 0
M  V30 506 C 48.8782 1.79837 0.732956 0
M  V30 507 O 48.1532 1.19525 1.5344 0
M  V30 508 C 48.4362 3.39607 -1.19745 0
M  V30 509 C 48.2892 3.57537 -2.72924 0
M  V30 510 C 49.6082 4.33069 -0.783526 0
M  V30 511 H 46.7272 0.686057 -0.269249 0
M  V30 512 H 49.3692 1.39797 -1.28673 0
M  V30 513 H 47.5192 3.81583 -0.729855 0
M  V30 514 H 49.1912 3.24688 -3.27682 0
M  V30 515 H 47.4342 3.00363 -3.12993 0
M  V30 516 H 48.1052 4.63238 -3.00191 0
M  V30 517 H 50.5812 3.98846 -1.18581 0
M  V30 518 H 49.4572 5.3707 -1.13343 0
M  V30 519 H 49.7182 4.40986 0.313681 0
M  V30 520 N 48.7773 0.814389 1.34928 0
M  V30 521 C 50.0023 0.410097 2.03305 0
M  V30 522 C 50.4273 -0.973464 1.60951 0
M  V30 523 O 49.7853 -1.63185 0.789964 0
M  V30 524 C 49.8333 0.51049 3.56968 0
M  V30 525 O 48.9373 -0.473035 4.09678 0
M  V30 526 H 48.2783 0.170088 0.641846 0
M  V30 527 H 50.8083 1.10244 1.72358 0
M  V30 528 H 50.8183 0.383135 4.06197 0
M  V30 529 H 49.4933 1.51963 3.87144 0
M  V30 530 H 48.0703 -0.305272 3.71648 0
M  V30 531 N 50.2554 -1.46986 0.568584 0
M  V30 532 C 51.2024 -2.30153 -0.172707 0
M  V30 533 C 52.1724 -1.39759 -0.897586 0
M  V30 534 O 53.3574 -1.68716 -0.891044 0
M  V30 535 C 50.4974 -3.23952 -1.1895 0
M  V30 536 C 49.6104 -4.29441 -0.469517 0
M  V30 537 C 48.7454 -5.1038 -1.47259 0
M  V30 538 C 47.7844 -6.07632 -0.738225 0
M  V30 539 N 46.9214 -6.8149 -1.68868 0
M  V30 540 H 51.7614 -2.93019 0.542596 0
M  V30 541 H 49.2984 -1.44422 0.279401 0
M  V30 542 H 51.2564 -3.76767 -1.79173 0
M  V30 543 H 49.8864 -2.62926 -1.87269 0
M  V30 544 H 48.9384 -3.79594 0.247467 0
M  V30 545 H 50.2504 -4.98689 0.105241 0
M  V30 546 H 49.4044 -5.67402 -2.14803 0
M  V30 547 H 48.1434 -4.4106 -2.08128 0
M  V30 548 H 47.1484 -5.49778 -0.0489293 0
M  V30 549 H 48.3734 -6.78966 -0.135129 0
M  V30 550 H 46.3194 -6.14891 -2.28573 0
M  V30 551 H 46.2364 -7.46948 -1.16636 0
M  V30 552 H 47.5044 -7.43078 -2.3549 0
M  V30 553 N 51.7335 -0.305618 -1.54608 0
M  V30 554 C 52.6635 0.561482 -2.26649 0
M  V30 555 C 53.6445 1.13415 -1.26772 0
M  V30 556 O 54.8295 1.16262 -1.55553 0
M  V30 557 C 51.9595 1.73122 -3.01075 0
M  V30 558 C 50.9135 1.2887 -4.08138 0
M  V30 559 C 50.2395 2.54396 -4.70305 0
M  V30 560 C 51.5395 0.416578 -5.20636 0
M  V30 561 H 53.2335 -0.0393902 -2.99374 0
M  V30 562 H 50.7795 -0.020385 -1.43986 0
M  V30 563 H 52.7325 2.34396 -3.50195 0
M  V30 564 H 51.4565 2.3584 -2.25936 0
M  V30 565 H 50.1155 0.698991 -3.59875 0
M  V30 566 H 49.7635 3.15439 -3.918 0
M  V30 567 H 49.4635 2.25486 -5.42614 0
M  V30 568 H 50.9875 3.16464 -5.2219 0
M  V30 569 H 52.4015 0.935116 -5.65622 0
M  V30 570 H 50.7985 0.221046 -5.99693 0
M  V30 571 H 51.8685 -0.557162 -4.81688 0
M  V30 572 N 53.2116 1.57565 -0.0334293 0
M  V30 573 C 54.1746 2.09393 0.932048 0
M  V30 574 C 55.1746 1.00986 1.25134 0
M  V30 575 O 56.3646 1.27129 1.19096 0
M  V30 576 C 53.4966 2.56338 2.2473 0
M  V30 577 H 54.6896 2.95984 0.483085 0
M  V30 578 H 52.2426 1.54819 0.21468 0
M  V30 579 H 52.9776 1.7309 2.74245 0
M  V30 580 H 52.7626 3.35542 2.02865 0
M  V30 581 H 54.2526 2.96646 2.93923 0
M  V30 582 N 54.6897 -0.239769 1.55765 0
M  V30 583 C 55.9377 -0.964892 1.77579 0
M  V30 584 C 56.2587 -1.85582 0.598699 0
M  V30 585 O 55.5287 -1.92075 -0.385226 0
M  V30 586 H 54.1087 -0.359265 0.654933 0
M  V30 587 H 56.7707 -0.256001 1.93211 0
M  V30 588 H 55.8667 -1.58243 2.69009 0
M  V30 589 N 56.1678 -1.49265 -0.50573 0
M  V30 590 C 57.1158 -1.66065 -1.62866 0
M  V30 591 C 58.1098 -0.526636 -1.61006 0
M  V30 592 O 59.3158 -0.706126 -1.65571 0
M  V30 593 H 55.6908 -0.52356 -0.539805 0
M  V30 594 H 57.6618 -2.60329 -1.45848 0
M  V30 595 C 56.4108 -1.74008 -3.01026 0
M  V30 596 H 55.7338 -2.6064 -3.03161 0
M  V30 597 H 57.1738 -1.89798 -3.79147 0
M  V30 598 C 55.6328 -0.483868 -3.33407 0
M  V30 599 O 56.1628 0.392548 -3.99777 0
M  V30 600 N 54.3688 -0.348236 -2.88506 0
M  V30 601 H 53.9158 -1.06242 -2.34671 0
M  V30 602 H 53.8738 0.491204 -3.10539 0
M  V30 603 N 57.6459 0.756429 -1.3826 0
M  V30 604 C 58.5929 1.87011 -1.35261 0
M  V30 605 C 59.5629 1.64695 -0.215616 0
M  V30 606 O 60.7479 1.864 -0.407399 0
M  V30 607 C 57.8879 3.24275 -1.18068 0
M  V30 608 C 57.0009 3.58442 -2.41129 0
M  V30 609 C 56.1359 4.84994 -2.16689 0
M  V30 610 C 55.1749 5.11939 -3.35537 0
M  V30 611 N 54.3119 6.29685 -3.10549 0
M  V30 612 H 59.1519 1.8891 -2.30472 0
M  V30 613 H 56.6889 0.923373 -1.14509 0
M  V30 614 H 58.6469 4.03479 -1.06116 0
M  V30 615 H 57.2769 3.21711 -0.264973 0
M  V30 616 H 56.3289 2.74103 -2.63764 0
M  V30 617 H 57.6409 3.74283 -3.29717 0
M  V30 618 H 56.7949 5.72135 -2.01857 0
M  V30 619 H 55.5339 4.71286 -1.25462 0
M  V30 620 H 54.5389 4.23268 -3.50891 0
M  V30 621 H 55.7639 5.27546 -4.27635 0
M  V30 622 H 53.7099 6.17306 -2.21967 0
M  V30 623 H 53.6269 6.46014 -3.92686 0
M  V30 624 H 54.8949 7.19722 -2.99367 0
M  V30 625 N 59.124 1.23083 0.984299 0
M  V30 626 C 60.37 1.06214 1.72761 0
M  V30 627 C 60.703 -0.400584 1.90024 0
M  V30 628 O 59.978 -1.29672 1.44967 0
M  V30 629 C 60.261 1.78375 3.12817 0
M  V30 630 C 60.114 3.32296 3.03149 0
M  V30 631 C 61.433 1.54309 4.12161 0
M  V30 632 H 58.552 0.387251 0.627061 0
M  V30 633 H 61.194 1.51536 1.14616 0
M  V30 634 H 59.344 1.39848 3.62457 0
M  V30 635 H 61.016 3.8032 2.61064 0
M  V30 636 H 59.259 3.6153 2.39747 0
M  V30 637 H 59.93 3.77972 4.02295 0
M  V30 638 H 62.406 1.87791 3.71314 0
M  V30 639 H 61.282 2.07281 5.08258 0
M  V30 640 H 61.543 0.477572 4.39513 0
M  V30 641 N 60.6021 -1.18246 1.0419 0
M  V30 642 C 61.5321 -2.24127 0.654914 0
M  V30 643 C 62.5131 -1.66617 -0.342451 0
M  V30 644 O 63.6981 -1.92924 -0.222277 0
M  V30 645 C 60.8281 -3.47295 0.0183757 0
M  V30 646 C 59.7821 -4.17563 0.939414 0
M  V30 647 C 59.1081 -5.34438 0.167286 0
M  V30 648 C 60.4081 -4.70917 2.25908 0
M  V30 649 H 62.1021 -2.56753 1.54007 0
M  V30 650 H 59.6481 -1.23414 0.74195 0
M  V30 651 H 61.6011 -4.20572 -0.264082 0
M  V30 652 H 60.3251 -3.13907 -0.901664 0
M  V30 653 H 58.9841 -3.46186 1.20628 0
M  V30 654 H 58.6321 -4.97298 -0.7552 0
M  V30 655 H 58.3321 -5.82388 0.780901 0
M  V30 656 H 59.8561 -6.10504 -0.108125 0
M  V30 657 H 61.2701 -5.35882 2.03724 0
M  V30 658 H 59.6671 -5.29406 2.82577 0
M  V30 659 H 60.7371 -3.88272 2.9047 0
M  V30 660 N 62.0802 -0.821533 -1.34494 0
M  V30 661 C 63.0282 -0.230702 -2.31453 0
M  V30 662 C 64.0222 0.627793 -1.57338 0
M  V30 663 O 65.2282 0.519288 -1.72347 0
M  V30 664 H 61.6032 -0.0558577 -0.749923 0
M  V30 665 H 63.5742 -1.06332 -2.78812 0
M  V30 666 C 62.3232 0.59391 -3.4259 0
M  V30 667 H 61.6462 -0.0573588 -3.99759 0
M  V30 668 H 63.0862 0.973446 -4.12674 0
M  V30 669 C 61.5452 1.76568 -2.86924 0
M  V30 670 O 62.0752 2.8638 -2.81691 0
M  V30 671 N 60.2812 1.58198 -2.43766 0
M  V30 672 H 59.8282 0.68872 -2.48222 0
M  V30 673 H 59.7862 2.36752 -2.06871 0
M  V30 674 N 63.5583 1.46682 -0.576371 0
M  V30 675 C 64.9693 1.86112 -0.148091 0
M  V30 676 C 65.3203 1.48073 1.2872 0
M  V30 677 O 64.4453 0.892656 1.97131 0
M  V30 678 C 65.0403 3.37786 -0.261982 0
M  V30 679 C 63.5993 3.76235 0.111384 0
M  V30 680 C 62.7463 2.70713 -0.60083 0
M  V30 681 H 65.6973 1.37927 -0.78497 0
M  V30 682 H 65.7183 3.77007 0.514364 0
M  V30 683 H 65.2303 3.6544 -1.30671 0
M  V30 684 H 63.3313 3.54198 1.15649 0
M  V30 685 H 63.4443 4.78391 -0.26052 0
M  V30 686 H 61.8083 2.54666 -0.0417783 0
M  V30 687 H 62.5913 3.01208 -1.64708 0
M  V30 688 N 65.0364 0.313813 1.54444 0
M  V30 689 C 66.2854 -0.292519 1.99568 0
M  V30 690 C 66.5984 -1.54011 1.20582 0
M  V30 691 O 67.8044 -2.22183 1.56035 0
M  V30 692 C 66.2604 -0.571752 3.55329 0
M  V30 693 C 65.8684 0.658229 4.43138 0
M  V30 694 C 67.6124 -1.13857 4.08946 0
M  V30 695 C 65.5194 0.351439 5.90355 0
M  V30 696 H 64.4494 -0.113079 0.745472 0
M  V30 697 H 67.1004 0.424518 1.78522 0
M  V30 698 H 65.4824 -1.34872 3.72325 0
M  V30 699 H 66.6564 1.43403 4.37918 0
M  V30 700 H 64.9714 1.14458 4.0036 0
M  V30 701 H 67.5684 -1.38257 5.16516 0
M  V30 702 H 67.9114 -2.08489 3.6033 0
M  V30 703 H 68.4444 -0.423015 3.95544 0
M  V30 704 H 65.1834 1.26667 6.43145 0
M  V30 705 H 64.7034 -0.386842 5.98551 0
M  V30 706 H 66.3824 -0.0423134 6.46986 0
M  V30 707 N 66.5145 -1.57545 0.0417849 0
M  V30 708 C 67.7605 -1.92601 -0.635021 0
M  V30 709 C 68.0935 -0.919627 -1.71045 0
M  V30 710 O 67.3685 0.0557892 -1.9442 0
M  V30 711 C 67.6515 -3.38085 -1.23979 0
M  V30 712 C 67.5045 -4.49467 -0.173057 0
M  V30 713 C 68.8235 -3.83776 -2.15416 0
M  V30 714 H 65.9425 -0.700397 -0.229374 0
M  V30 715 H 68.5845 -1.89728 0.101633 0
M  V30 716 H 66.7345 -3.40664 -1.86762 0
M  V30 717 H 68.4065 -4.59018 0.458312 0
M  V30 718 H 66.6495 -4.30909 0.499996 0
M  V30 719 H 67.3205 -5.48323 -0.636054 0
M  V30 720 H 69.7965 -3.83013 -1.62605 0
M  V30 721 H 68.6725 -4.8624 -2.54679 0
M  V30 722 H 68.9335 -3.19998 -3.05047 0
M  V30 723 N 67.9926 0.231505 -1.5589 0
M  V30 724 C 69.2416 0.955346 -1.7764 0
M  V30 725 C 69.5546 1.85893 -0.608546 0
M  V30 726 O 70.7606 2.62067 -0.70943 0
M  V30 727 C 69.2166 1.74886 -3.14552 0
M  V30 728 C 68.8246 0.891915 -4.39032 0
M  V30 729 C 70.5686 2.46452 -3.45633 0
M  V30 730 C 68.4756 1.68221 -5.66971 0
M  V30 731 H 67.4056 0.360446 -0.662265 0
M  V30 732 H 70.0566 0.209516 -1.823 0
M  V30 733 H 68.4386 2.53723 -3.04041 0
M  V30 734 H 69.6126 0.144793 -4.60572 0
M  V30 735 H 67.9276 0.288863 -4.15397 0
M  V30 736 H 70.5246 3.06061 -4.38441 0
M  V30 737 H 70.8676 3.18841 -2.67668 0
M  V30 738 H 71.4006 1.74613 -3.57428 0
M  V30 739 H 68.1396 1.00178 -6.478 0
M  V30 740 H 67.6596 2.4042 -5.49507 0
M  V30 741 H 69.3386 2.24544 -6.06786 0
M  V30 742 N 69.4707 1.49531 0.497807 0
M  V30 743 C 70.7187 1.58865 1.24926 0
M  V30 744 C 71.0397 0.278721 1.92998 0
M  V30 745 O 70.3097 -0.702144 1.82885 0
M  V30 746 H 68.8897 0.585343 0.464094 0
M  V30 747 H 71.5517 1.86174 0.57666 0
M  V30 748 H 70.6477 2.38633 2.01149 0
M  V30 749 N 70.9488 -0.749086 1.3866 0
M  V30 750 C 71.8968 -1.88428 1.36373 0
M  V30 751 C 72.8908 -1.67561 0.248929 0
M  V30 752 O 74.0968 -1.75074 0.41821 0
M  V30 753 H 70.4718 -0.620023 0.42553 0
M  V30 754 H 72.4428 -1.87473 2.32156 0
M  V30 755 C 71.1918 -3.25961 1.21014 0
M  V30 756 H 70.5148 -3.42607 2.06059 0
M  V30 757 H 71.9548 -4.05625 1.23469 0
M  V30 758 C 70.4138 -3.36799 -0.0825941 0
M  V30 759 O 70.9438 -3.87517 -1.05797 0
M  V30 760 N 69.1498 -2.90258 -0.140939 0
M  V30 761 H 68.6968 -2.49174 0.653477 0
M  V30 762 H 68.6548 -2.97889 -1.00545 0
M  V30 763 N 72.4269 -1.23603 -0.977757 0
M  V30 764 C 73.3369 -1.03632 -2.1047 0
M  V30 765 C 74.3529 0.0199435 -1.73989 0
M  V30 766 O 75.5289 -0.176076 -2.00629 0
M  V30 767 C 72.5939 -0.63276 -3.40877 0
M  V30 768 C 71.6549 -1.76437 -3.91367 0
M  V30 769 C 70.8879 -1.37997 -5.15551 0
M  V30 770 O 71.1109 -0.265357 -5.69782 0
M  V30 771 O 70.0449 -2.20201 -5.60174 0
M  V30 772 H 73.8709 -1.98086 -2.30208 0
M  V30 773 H 71.4559 -1.02332 -1.08851 0
M  V30 774 H 73.3379 -0.418761 -4.19314 0
M  V30 775 H 72.0129 0.282754 -3.22463 0
M  V30 776 H 70.9199 -2.03304 -3.14036 0
M  V30 777 H 72.2529 -2.6583 -4.14241 0
M  V30 778 N 73.905 1.17692 -1.04816 0
M  V30 779 C 74.853 2.23632 -0.63966 0
M  V30 780 C 75.847 1.6601 0.337219 0
M  V30 781 O 77.053 1.78844 0.203693 0
M  V30 782 H 73.428 0.727949 -0.188665 0
M  V30 783 H 75.399 2.55387 -1.54337 0
M  V30 784 C 74.148 3.4769 -0.0264051 0
M  V30 785 H 73.471 3.92331 -0.769164 0
M  V30 786 H 74.911 4.23418 0.222098 0
M  V30 787 C 73.37 3.13807 1.22584 0
M  V30 788 O 73.9 3.28236 2.31569 0
M  V30 789 N 72.106 2.68065 1.12202 0
M  V30 790 H 71.653 2.56525 0.235133 0
M  V30 791 H 71.611 2.45767 1.96076 0
M  V30 792 N 75.3831 0.828654 1.34056 0
M  V30 793 C 76.2931 0.256725 2.33191 0
M  V30 794 C 77.3091 -0.611898 1.62886 0
M  V30 795 O 78.4851 -0.51844 1.94613 0
M  V30 796 C 75.5501 -0.567238 3.42028 0
M  V30 797 C 74.6111 0.324458 4.28072 0
M  V30 798 C 73.8441 -0.460274 5.31712 0
M  V30 799 O 74.0671 -1.693 5.44696 0
M  V30 800 O 73.0011 0.160391 6.01686 0
M  V30 801 H 76.8271 1.07739 2.83947 0
M  V30 802 H 74.4121 0.59093 1.37217 0
M  V30 803 H 76.2941 -1.03582 4.08471 0
M  V30 804 H 74.9691 -1.36513 2.93506 0
M  V30 805 H 73.8761 0.840659 3.64532 0
M  V30 806 H 75.2091 1.08685 4.8005 0
M  V30 807 N 76.8612 -1.46375 0.584142 0
M  V30 808 C 78.1102 -2.01585 0.0679741 0
M  V30 809 C 78.4232 -1.46109 -1.30045 0
M  V30 810 O 79.6292 -1.93148 -1.90804 0
M  V30 811 C 78.0852 -3.5983 0.0709207 0
M  V30 812 C 77.6932 -4.24303 1.43775 0
M  V30 813 C 79.4372 -4.22693 -0.391228 0
M  V30 814 C 77.3442 -5.74631 1.39834 0
M  V30 815 H 76.2742 -0.753689 0.0216421 0
M  V30 816 H 78.9252 -1.68093 0.736001 0
M  V30 817 H 77.3072 -3.90405 -0.663299 0
M  V30 818 H 78.4812 -4.05335 2.19181 0
M  V30 819 H 76.7962 -3.73539 1.84004 0
M  V30 820 H 79.3932 -5.3289 -0.439524 0
M  V30 821 H 79.7362 -3.91728 -1.40906 0
M  V30 822 H 80.2692 -3.96749 0.288974 0
M  V30 823 H 77.0082 -6.10258 2.39303 0
M  V30 824 H 76.5282 -5.95858 0.686505 0
M  V30 825 H 78.2072 -6.37375 1.11187 0
M  V30 826 N 78.3393 -0.321999 -1.54275 0
M  V30 827 C 79.2713 0.578671 -2.21775 0
M  V30 828 C 80.2843 1.08109 -1.21722 0
M  V30 829 O 81.4733 0.994938 -1.482 0
M  V30 830 C 78.5733 1.80661 -2.86731 0
M  V30 831 C 77.7463 1.44314 -4.12907 0
M  V30 832 C 76.8053 2.52845 -4.61472 0
M  V30 833 O 75.8313 2.17054 -5.2619 0
M  V30 834 N 77.0333 3.83748 -4.35566 0
M  V30 835 H 79.7983 0.000709447 -2.997 0
M  V30 836 H 77.3593 -0.145132 -1.61248 0
M  V30 837 H 79.3513 2.52655 -3.16145 0
M  V30 838 H 77.9213 2.29245 -2.12521 0
M  V30 839 H 77.1413 0.554906 -3.90275 0
M  V30 840 H 78.4293 1.17598 -4.95023 0
M  V30 841 H 77.8273 4.15625 -3.83761 0
M  V30 842 H 76.3843 4.51977 -4.69638 0
M  V30 843 N 79.8174 1.5752 -0.0501392 0
M  V30 844 C 80.7804 2.1037 0.909786 0
M  V30 845 C 81.7804 1.02308 1.24056 0
M  V30 846 O 82.9704 1.28385 1.17741 0
M  V30 847 C 80.1024 2.58708 2.21998 0
M  V30 848 H 81.2954 2.96479 0.451665 0
M  V30 849 H 78.8484 1.55038 0.198248 0
M  V30 850 H 79.5834 1.75989 2.72394 0
M  V30 851 H 79.3684 3.37675 1.99295 0
M  V30 852 H 80.8584 2.99747 2.9076 0
M  V30 853 N 81.2955 -0.223234 1.56011 0
M  V30 854 C 82.2425 -1.27664 1.92277 0
M  V30 855 C 83.2125 -1.46659 0.779763 0
M  V30 856 O 84.3975 -1.60256 1.03551 0
M  V30 857 C 81.5375 -2.62234 2.24338 0
M  V30 858 C 80.6505 -2.51051 3.51564 0
M  V30 859 C 79.7855 -3.78133 3.7308 0
M  V30 860 C 78.8245 -3.61665 4.93827 0
M  V30 861 N 77.9615 -4.80693 5.11741 0
M  V30 862 H 82.8015 -0.960358 2.82101 0
M  V30 863 H 80.3385 -0.462901 1.39627 0
M  V30 864 H 82.2965 -3.40596 2.40936 0
M  V30 865 H 80.9265 -2.91961 1.3769 0
M  V30 866 H 79.9785 -1.64132 3.43169 0
M  V30 867 H 81.2905 -2.34803 4.40079 0
M  V30 868 H 80.4445 -4.64938 3.89766 0
M  V30 869 H 79.1835 -3.97304 2.82844 0
M  V30 870 H 78.1885 -2.73244 4.77093 0
M  V30 871 H 79.4135 -3.43966 5.85546 0
M  V30 872 H 77.3595 -5.00181 4.24446 0
M  V30 873 H 77.2765 -4.67165 5.94384 0
M  V30 874 H 78.5445 -5.6893 5.3286 0
M  V30 875 N 82.7736 -1.49793 -0.48987 0
M  V30 876 C 83.7366 -1.66752 -1.57246 0
M  V30 877 C 84.7366 -0.538867 -1.51502 0
M  V30 878 O 85.9266 -0.805545 -1.54456 0
M  V30 879 C 83.0586 -1.67528 -2.96896 0
M  V30 880 H 84.2516 -2.63321 -1.43534 0
M  V30 881 H 81.8046 -1.38992 -0.714914 0
M  V30 882 H 82.5396 -0.725837 -3.16073 0
M  V30 883 H 82.3246 -2.49504 -3.02473 0
M  V30 884 H 83.8146 -1.82667 -3.7553 0
M  V30 885 N 84.2517 0.741722 -1.39055 0
M  V30 886 C 85.1987 1.85566 -1.37237 0
M  V30 887 C 86.1687 1.64457 -0.233072 0
M  V30 888 O 87.3537 1.85957 -0.427147 0
M  V30 889 C 84.4937 3.23004 -1.215 0
M  V30 890 C 83.6067 3.55864 -2.44918 0
M  V30 891 C 82.7417 4.82669 -2.21821 0
M  V30 892 C 81.7807 5.08351 -3.40948 0
M  V30 893 N 80.9177 6.26356 -3.17211 0
M  V30 894 H 85.7577 1.86455 -2.32462 0
M  V30 895 H 83.2947 0.911176 -1.15482 0
M  V30 896 H 85.2527 4.02331 -1.10389 0
M  V30 897 H 83.8827 3.21411 -0.29908 0
M  V30 898 H 82.9347 2.7129 -2.66657 0
M  V30 899 H 84.2467 3.70765 -3.33668 0
M  V30 900 H 83.4007 5.69962 -2.07914 0
M  V30 901 H 82.1397 4.69929 -1.30454 0
M  V30 902 H 81.1447 4.19522 -3.55361 0
M  V30 903 H 82.3697 5.22981 -4.33207 0
M  V30 904 H 80.3157 6.14917 -2.28502 0
M  V30 905 H 80.2327 6.41813 -3.99515 0
M  V30 906 H 81.5007 7.16506 -3.06984 0
M  V30 907 N 85.7298 1.2412 0.971189 0
M  V30 908 C 86.6398 1.04747 2.09917 0
M  V30 909 C 87.6558 -0.0107162 1.73997 0
M  V30 910 O 88.8318 0.186714 2.00533 0
M  V30 911 C 85.8968 0.650828 3.40537 0
M  V30 912 C 84.9578 1.7851 3.90426 0
M  V30 913 C 84.1908 1.40729 5.14812 0
M  V30 914 O 84.4138 0.29557 5.69634 0
M  V30 915 O 83.3478 2.23168 5.58999 0
M  V30 916 H 87.1738 1.99304 2.29154 0
M  V30 917 H 84.7588 1.02908 1.08307 0
M  V30 918 H 86.6408 0.440992 4.19086 0
M  V30 919 H 85.3158 -0.265649 3.22608 0
M  V30 920 H 84.2228 2.04966 3.12953 0
M  V30 921 H 85.5558 2.68023 4.12825 0
M  V30 922 N 87.2079 -1.17134 1.05439 0
M  V30 923 C 88.1379 -2.2342 0.678649 0
M  V30 924 C 89.1189 -1.66971 -0.32476 0
M  V30 925 O 90.3039 -1.93149 -0.201802 0
M  V30 926 C 87.4339 -3.47256 0.0552099 0
M  V30 927 C 86.3879 -4.16543 0.98365 0
M  V30 928 C 85.7139 -5.34231 0.223961 0
M  V30 929 C 87.0139 -4.68495 2.3089 0
M  V30 930 H 88.7079 -2.55105 1.56722 0
M  V30 931 H 86.2539 -1.2262 0.754998 0
M  V30 932 H 88.2069 -4.20828 -0.21946 0
M  V30 933 H 86.9309 -3.14846 -0.868319 0
M  V30 934 H 85.5899 -3.44887 1.24293 0
M  V30 935 H 85.2379 -4.98071 -0.702412 0
M  V30 936 H 84.9379 -5.81527 0.842627 0
M  V30 937 H 86.4619 -6.10585 -0.0433671 0
M  V30 938 H 87.8759 -5.33691 2.09396 0
M  V30 939 H 86.2729 -5.26379 2.88176 0
M  V30 940 H 87.3429 -3.85169 2.94572 0
M  V30 941 N 88.686 -0.835752 -1.33615 0
M  V30 942 C 89.634 -0.255238 -2.31195 0
M  V30 943 C 90.628 0.61107 -1.57995 0
M  V30 944 O 91.834 0.500979 -1.72888 0
M  V30 945 H 88.209 -0.0638085 -0.749288 0
M  V30 946 H 90.18 -1.09283 -2.77669 0
M  V30 947 C 88.929 0.55754 -3.43201 0
M  V30 948 H 88.252 -0.0997553 -3.99676 0
M  V30 949 H 89.692 0.929622 -4.13683 0
M  V30 950 C 88.151 1.73515 -2.88781 0
M  V30 951 O 88.681 2.83376 -2.84712 0
M  V30 952 N 86.887 1.55603 -2.4543 0
M  V30 953 H 86.434 0.662354 -2.48939 0
M  V30 954 H 86.392 2.34545 -2.09371 0
M  V30 955 N 90.1641 1.46063 -0.591896 0
M  V30 956 C 91.0941 2.33172 0.123673 0
M  V30 957 C 92.0751 1.45897 0.87453 0
M  V30 958 O 93.2601 1.74698 0.848181 0
M  V30 959 C 90.3901 3.28336 1.13194 0
M  V30 960 C 89.3441 4.25124 0.495324 0
M  V30 961 C 88.6701 5.09863 1.61071 0
M  V30 962 C 89.9701 5.19143 -0.573425 0
M  V30 963 H 91.6641 2.93252 -0.603646 0
M  V30 964 H 89.2101 1.41014 -0.291741 0
M  V30 965 H 91.1631 3.88137 1.64097 0
M  V30 966 H 89.8871 2.66383 1.88965 0
M  V30 967 H 88.5461 3.66599 0.00729452 0
M  V30 968 H 88.1941 4.44288 2.35832 0
M  V30 969 H 87.8941 5.75417 1.19035 0
M  V30 970 H 89.4181 5.72529 2.12233 0
M  V30 971 H 90.8321 5.73106 -0.1491 0
M  V30 972 H 89.2291 5.93089 -0.914636 0
M  V30 973 H 90.2991 4.62519 -1.45617 0
M  V30 974 N 91.6422 0.330177 1.54103 0
M  V30 975 C 92.8702 -0.272179 2.05102 0
M  V30 976 C 93.2852 -1.45267 1.20595 0
M  V30 977 O 92.6422 -1.8094 0.238144 0
M  V30 978 C 92.6932 -0.70023 3.54653 0
M  V30 979 O 92.4142 0.433301 4.35952 0
M  V30 980 C 93.9152 -1.3647 4.21771 0
M  V30 981 H 91.1352 -0.0549159 0.668749 0
M  V30 982 H 93.6792 0.478285 1.98828 0
M  V30 983 H 91.8342 -1.40066 3.61193 0
M  V30 984 H 92.2482 0.0947539 5.24414 0
M  V30 985 H 93.7222 -1.61509 5.27843 0
M  V30 986 H 94.1992 -2.31409 3.73292 0
M  V30 987 H 94.8052 -0.706675 4.19388 0
M  V30 988 N 93.1203 -1.57491 0.0584922 0
M  V30 989 C 94.0503 -2.14988 -0.911178 0
M  V30 990 C 95.0313 -1.07343 -1.31952 0
M  V30 991 O 96.2163 -1.35318 -1.39294 0
M  V30 992 C 93.3463 -2.70078 -2.18347 0
M  V30 993 C 92.3003 -3.82771 -1.91495 0
M  V30 994 C 91.6263 -4.24408 -3.25241 0
M  V30 995 C 92.9263 -5.07592 -1.23075 0
M  V30 996 H 94.6203 -2.96263 -0.432246 0
M  V30 997 H 92.1663 -1.42512 -0.206469 0
M  V30 998 H 94.1193 -3.08943 -2.86587 0
M  V30 999 H 92.8433 -1.86005 -2.68458 0
M  V30 1000 H 91.5023 -3.44389 -1.25664 0
M  V30 1001 H 91.1503 -3.37275 -3.73168 0
M  V30 1002 H 90.8503 -5.00366 -3.08071 0
M  V30 1003 H 92.3743 -4.65879 -3.94701 0
M  V30 1004 H 93.7883 -5.43857 -1.81362 0
M  V30 1005 H 92.1853 -5.88741 -1.16207 0
M  V30 1006 H 93.2553 -4.84454 -0.207847 0
M  V30 1007 N 94.5984 0.214957 -1.56127 0
M  V30 1008 C 95.8464 0.936518 -1.79091 0
M  V30 1009 C 96.1674 1.84606 -0.628148 0
M  V30 1010 O 95.4374 1.92664 0.35462 0
M  V30 1011 H 94.0174 0.3488 -0.660566 0
M  V30 1012 H 96.6794 0.22523 -1.93594 0
M  V30 1013 H 95.7754 1.53943 -2.71492 0
M  V30 1014 N 96.0765 1.50051 0.48192 0
M  V30 1015 C 97.3245 1.60181 1.23234 0
M  V30 1016 C 97.6455 0.299176 1.92691 0
M  V30 1017 O 96.9155 -0.682708 1.83619 0
M  V30 1018 H 95.4955 0.590232 0.457859 0
M  V30 1019 H 98.1575 1.86775 0.556881 0
M  V30 1020 H 97.2535 2.40753 1.98607 0
M  V30 1021 N 97.5546 -0.734337 1.39446 0
M  V30 1022 C 98.8006 -1.49613 1.36908 0
M  V30 1023 C 99.1336 -1.94169 -0.0347829 0
M  V30 1024 O 98.4086 -1.66833 -0.999847 0
M  V30 1025 C 98.6916 -2.73534 2.34203 0
M  V30 1026 C 98.5446 -2.34993 3.83534 0
M  V30 1027 C 99.8636 -3.75635 2.29317 0
M  V30 1028 H 96.9826 -0.542714 0.498629 0
M  V30 1029 H 99.6246 -0.839597 1.70443 0
M  V30 1030 H 97.7746 -3.29553 2.05736 0
M  V30 1031 H 99.4466 -1.84601 4.22753 0
M  V30 1032 H 97.6896 -1.67213 4.00278 0
M  V30 1033 H 98.3606 -3.23738 4.47099 0
M  V30 1034 H 100.837 -3.29203 2.54489 0
M  V30 1035 H 99.7126 -4.60008 2.99472 0
M  V30 1036 H 99.9736 -4.22603 1.29842 0
M  V30 1037 N 99.0327 -1.24633 -0.964593 0
M  V30 1038 C 99.9797 -1.04144 -2.05968 0
M  V30 1039 C 100.95 0.046262 -1.66036 0
M  V30 1040 O 102.135 -0.108972 -1.90489 0
M  V30 1041 C 99.2747 -0.65563 -3.38815 0
M  V30 1042 C 98.3877 -1.81714 -3.91923 0
M  V30 1043 C 97.5227 -1.37662 -5.13052 0
M  V30 1044 C 96.5617 -2.50788 -5.58365 0
M  V30 1045 N 95.6987 -2.07582 -6.70712 0
M  V30 1046 H 100.539 -1.9787 -2.22827 0
M  V30 1047 H 98.0757 -0.9855 -1.09208 0
M  V30 1048 H 100.034 -0.412954 -4.15151 0
M  V30 1049 H 98.6637 0.244627 -3.21872 0
M  V30 1050 H 97.7157 -2.1734 -3.12198 0
M  V30 1051 H 99.0277 -2.66705 -4.21509 0
M  V30 1052 H 98.1817 -1.093 -5.96773 0
M  V30 1053 H 96.9207 -0.497293 -4.85158 0
M  V30 1054 H 95.9257 -2.79906 -4.73215 0
M  V30 1055 H 97.1507 -3.39283 -5.88272 0
M  V30 1056 H 95.0967 -1.22051 -6.44546 0
M  V30 1057 H 95.0137 -2.86125 -6.99763 0
M  V30 1058 H 96.2817 -1.82369 -7.57867 0
M  V30 1059 N 100.511 1.16574 -1.06058 0
M  V30 1060 C 101.76 1.86385 -0.770944 0
M  V30 1061 C 102.073 1.82448 0.705129 0
M  V30 1062 O 103.279 2.47815 1.10905 0
M  V30 1063 C 101.735 3.34466 -1.32893 0
M  V30 1064 C 101.343 3.46883 -2.83507 0
M  V30 1065 C 103.087 4.09548 -1.11672 0
M  V30 1066 C 100.994 4.89036 -3.32562 0
M  V30 1067 H 99.9238 0.698181 -0.284709 0
M  V30 1068 H 102.575 1.31583 -1.27899 0
M  V30 1069 H 100.957 3.88859 -0.748662 0
M  V30 1070 H 102.131 3.02663 -3.47465 0
M  V30 1071 H 100.446 2.85232 -3.03368 0
M  V30 1072 H 103.043 5.14434 -1.45814 0
M  V30 1073 H 103.386 4.16264 -0.0549535 0
M  V30 1074 H 103.919 3.61387 -1.66265 0
M  V30 1075 H 100.658 4.87499 -4.38207 0
M  V30 1076 H 100.178 5.3389 -2.73351 0
M  V30 1077 H 101.857 5.57843 -3.2775 0
M  V30 1078 N 101.989 0.842826 1.3317 0
M  V30 1079 C 103.219 0.453397 2.01564 0
M  V30 1080 C 103.627 -0.951147 1.63554 0
M  V30 1081 O 102.97 -1.63021 0.846746 0
M  V30 1082 C 103.032 0.499013 3.5602 0
M  V30 1083 C 102.696 1.86037 4.1742 0
M  V30 1084 C 103.693 2.82416 4.36506 0
M  V30 1085 C 101.378 2.15428 4.53757 0
M  V30 1086 C 103.372 4.06346 4.91082 0
M  V30 1087 C 101.059 3.39615 5.0804 0
M  V30 1088 C 102.057 4.3489 5.26649 0
M  V30 1089 O 101.745 5.5688 5.79776 0
M  V30 1090 H 101.477 0.177871 0.652179 0
M  V30 1091 H 104.031 1.13808 1.70988 0
M  V30 1092 H 102.261 -0.242467 3.85939 0
M  V30 1093 H 103.95 0.126852 4.05702 0
M  V30 1094 H 104.716 2.6101 4.08777 0
M  V30 1095 H 100.595 1.42061 4.38565 0
M  V30 1096 H 104.139 4.80722 5.05522 0
M  V30 1097 H 100.036 3.60876 5.352 0
M  V30 1098 H 100.804 5.58674 5.98185 0
M  V30 1099 N 103.467 -1.45747 0.599634 0
M  V30 1100 C 104.744 -1.95585 0.0240846 0
M  V30 1101 C 105.124 -1.54217 -1.44154 0
M  V30 1102 O 104.472 -0.800903 -2.14004 0
M  V30 1103 C 104.682 -3.48344 0.21385 0
M  V30 1104 C 106.03 -4.24504 0.0904902 0
M  V30 1105 O 107.054 -3.55911 0.143558 0
M  V30 1106 O 105.913 -5.46491 -0.0310766 0
M  V30 1107 H 103.007 -0.82602 -0.0402478 0
M  V30 1108 H 105.553 -1.55951 0.669139 0
M  V30 1109 H 104.325 -3.71397 1.23206 0
M  V30 1110 H 103.948 -3.9485 -0.466842 0
M  V30 1111 N 104.945 -0.338344 -1.53925 0
M  V30 1112 C 106.356 0.146651 -1.86123 0
M  V30 1113 C 106.707 1.5042 -1.2597 0
M  V30 1114 O 105.832 2.08723 -0.571294 0
M  V30 1115 C 106.427 0.272879 -3.37699 0
M  V30 1116 C 104.986 0.702103 -3.69794 0
M  V30 1117 C 104.133 -0.167304 -2.76795 0
M  V30 1118 H 107.084 -0.558123 -1.48562 0
M  V30 1119 H 107.105 1.10128 -3.64214 0
M  V30 1120 H 106.617 -0.715307 -3.81451 0
M  V30 1121 H 104.718 1.6995 -3.31584 0
M  V30 1122 H 104.831 0.495604 -4.7653 0
M  V30 1123 H 103.195 0.359527 -2.5215 0
M  V30 1124 H 103.978 -1.15253 -3.23375 0
M  V30 1125 N 106.423 1.57458 -0.0668435 0
M  V30 1126 C 107.373 2.0896 0.912119 0
M  V30 1127 C 108.357 0.998186 1.26195 0
M  V30 1128 O 109.549 1.26133 1.24175 0
M  V30 1129 C 106.678 2.6508 2.18145 0
M  V30 1130 C 105.764 3.81218 1.85832 0
M  V30 1131 N 106.155 4.90378 1.23948 0
M  V30 1132 C 104.453 3.9042 2.15612 0
M  V30 1133 C 105.154 5.71279 1.09616 0
M  V30 1134 N 104.13 5.19389 1.60423 0
M  V30 1135 H 107.932 2.90749 0.42924 0
M  V30 1136 H 105.446 1.6182 0.137184 0
M  V30 1137 H 107.443 3.0029 2.89192 0
M  V30 1138 H 106.103 1.84736 2.67025 0
M  V30 1139 H 107.114 5.09847 0.909731 0
M  V30 1140 H 103.791 3.21043 2.66903 0
M  V30 1141 H 105.181 6.69085 0.614425 0
M  V30 1142 N 107.901 -0.206675 1.56239 0
M  V30 1143 C 109.129 -0.945345 1.8404 0
M  V30 1144 C 109.544 -1.77336 0.647885 0
M  V30 1145 O 108.901 -1.78425 -0.383511 0
M  V30 1146 C 108.952 -1.8509 3.10522 0
M  V30 1147 O 108.673 -1.05634 4.25174 0
M  V30 1148 C 110.174 -2.70222 3.51418 0
M  V30 1149 H 107.394 -0.276372 0.61144 0
M  V30 1150 H 109.938 -0.217417 2.03341 0
M  V30 1151 H 108.093 -2.53259 2.93153 0
M  V30 1152 H 108.507 -1.67238 4.97124 0
M  V30 1153 H 109.981 -3.29438 4.42916 0
M  V30 1154 H 110.458 -3.43358 2.73864 0
M  V30 1155 H 111.064 -2.07443 3.71278 0
M  V30 1156 N 109.379 -1.50304 -0.473955 0
M  V30 1157 C 110.609 -1.64663 -1.24778 0
M  V30 1158 C 111.017 -0.328174 -1.86332 0
M  V30 1159 O 110.36 0.699536 -1.69859 0
M  V30 1160 C 110.422 -2.6778 -2.39863 0
M  V30 1161 C 110.086 -4.11413 -1.98969 0
M  V30 1162 C 111.083 -4.97372 -1.51385 0
M  V30 1163 C 108.768 -4.57312 -2.07777 0
M  V30 1164 C 110.762 -6.27277 -1.13148 0
M  V30 1165 C 108.449 -5.87223 -1.69152 0
M  V30 1166 C 109.447 -6.72031 -1.21915 0
M  V30 1167 O 109.135 -7.99518 -0.838237 0
M  V30 1168 H 108.867 -0.556602 -0.383627 0
M  V30 1169 H 111.421 -1.9726 -0.572491 0
M  V30 1170 H 109.651 -2.30419 -3.10554 0
M  V30 1171 H 111.34 -2.71388 -3.01833 0
M  V30 1172 H 112.106 -4.63128 -1.44004 0
M  V30 1173 H 107.985 -3.91449 -2.43493 0
M  V30 1174 H 111.529 -6.93425 -0.762077 0
M  V30 1175 H 107.426 -6.20989 -1.76191 0
M  V30 1176 H 108.194 -8.12764 -0.967339 0
M  V30 1177 N 110.857 0.726932 -1.39834 0
M  V30 1178 C 111.767 1.87131 -1.41489 0
M  V30 1179 C 112.783 1.71239 -0.308757 0
M  V30 1180 O 113.959 1.93701 -0.551529 0
M  V30 1181 C 111.024 3.22811 -1.26468 0
M  V30 1182 C 110.085 3.51039 -2.47124 0
M  V30 1183 C 109.318 4.80245 -2.3281 0
M  V30 1184 O 109.541 5.54537 -1.33585 0
M  V30 1185 O 108.475 5.08554 -3.21957 0
M  V30 1186 H 112.301 1.8869 -2.3797 0
M  V30 1187 H 109.886 0.875837 -1.21035 0
M  V30 1188 H 111.768 4.03877 -1.20255 0
M  V30 1189 H 110.443 3.22005 -0.330862 0
M  V30 1190 H 109.35 2.70027 -2.58914 0
M  V30 1191 H 110.683 3.56632 -3.39227 0
M  V30 1192 N 112.336 1.25143 0.95797 0
M  V30 1193 C 113.584 1.09476 1.69881 0
M  V30 1194 C 113.905 -0.365502 1.91544 0
M  V30 1195 O 113.175 -1.25985 1.50015 0
M  V30 1196 H 111.755 0.402128 0.629525 0
M  V30 1197 H 114.417 1.57214 1.15194 0
M  V30 1198 H 113.513 1.60046 2.6794 0
M  V30 1199 N 113.814 -1.1601 1.06675 0
M  V30 1200 C 114.747 -2.1947 0.625168 0
M  V30 1201 C 115.725 -1.58699 -0.354041 0
M  V30 1202 O 116.909 -1.86669 -0.262098 0
M  V30 1203 C 114.036 -3.38598 -0.0829593 0
M  V30 1204 C 113.082 -4.1787 0.853611 0
M  V30 1205 S 113.915 -4.81135 2.35094 0
M  V30 1206 C 115.071 -6.03639 1.65441 0
M  V30 1207 H 115.304 -2.56587 1.50168 0
M  V30 1208 H 112.837 -1.26862 0.880078 0
M  V30 1209 H 114.795 -4.07621 -0.485288 0
M  V30 1210 H 113.456 -2.99839 -0.935716 0
M  V30 1211 H 112.649 -5.03078 0.304755 0
M  V30 1212 H 112.251 -3.54361 1.196 0
M  V30 1213 H 114.543 -6.70632 0.962201 0
M  V30 1214 H 115.486 -6.63081 2.48454 0
M  V30 1215 H 115.894 -5.52965 1.13534 0
M  V30 1216 N 115.292 -0.849877 -1.32721 0
M  V30 1217 C 116.202 -0.293791 -2.32753 0
M  V30 1218 C 117.218 0.585906 -1.63839 0
M  V30 1219 O 118.394 0.487413 -1.95413 0
M  V30 1220 C 115.459 0.512752 -3.42887 0
M  V30 1221 C 114.52 -0.39252 -4.27502 0
M  V30 1222 C 113.753 0.375625 -5.32377 0
M  V30 1223 O 113.976 1.60613 -5.4732 0
M  V30 1224 O 112.91 -0.256094 -6.01355 0
M  V30 1225 H 116.736 -1.12242 -2.82197 0
M  V30 1226 H 114.321 -0.612685 -1.36259 0
M  V30 1227 H 116.203 0.970704 -4.10067 0
M  V30 1228 H 114.878 1.31826 -2.95641 0
M  V30 1229 H 113.785 -0.898547 -3.63149 0
M  V30 1230 H 115.118 -1.16309 -4.7826 0
M  V30 1231 N 116.77 1.45427 -0.607355 0
M  V30 1232 C 118.047 1.9557 -0.0344566 0
M  V30 1233 C 118.427 1.54979 1.43334 0
M  V30 1234 O 117.775 0.812241 2.13576 0
M  V30 1235 C 117.985 3.48226 -0.232321 0
M  V30 1236 C 119.333 4.2445 -0.113001 0
M  V30 1237 O 120.357 3.55829 -0.162431 0
M  V30 1238 O 119.216 5.465 0.00209442 0
M  V30 1239 H 116.31 0.826222 0.0358667 0
M  V30 1240 H 118.856 1.55594 -0.6774 0
M  V30 1241 H 117.628 3.70739 -1.25174 0
M  V30 1242 H 117.251 3.95092 0.445896 0
M  V30 1243 N 118.248 0.346503 1.53744 0
M  V30 1244 C 119.178 -0.501193 2.28058 0
M  V30 1245 C 120.159 -1.10014 1.29734 0
M  V30 1246 O 121.344 -1.12097 1.58581 0
M  V30 1247 C 118.474 -1.65078 3.05559 0
M  V30 1248 C 117.428 -1.18003 4.11411 0
M  V30 1249 C 116.754 -2.41837 4.76884 0
M  V30 1250 C 118.054 -0.278394 5.21558 0
M  V30 1251 H 119.748 0.11875 2.99164 0
M  V30 1252 H 117.294 0.0585531 1.43881 0
M  V30 1253 H 119.247 -2.25028 3.56287 0
M  V30 1254 H 117.971 -2.29767 2.32109 0
M  V30 1255 H 116.63 -0.603331 3.61601 0
M  V30 1256 H 116.278 -3.0494 4.00026 0
M  V30 1257 H 115.978 -2.1102 5.48402 0
M  V30 1258 H 117.502 -3.02508 5.30397 0
M  V30 1259 H 118.916 -0.784823 5.67903 0
M  V30 1260 H 117.313 -0.0619707 6.00068 0
M  V30 1261 H 118.383 0.684677 4.80042 0
M  V30 1262 N 119.726 -1.57421 0.075193 0
M  V30 1263 C 120.972 -1.93905 -0.594025 0
M  V30 1264 C 121.305 -0.955701 -1.69056 0
M  V30 1265 O 120.58 0.0145373 -1.94495 0
M  V30 1266 C 120.863 -3.40638 -1.1678 0
M  V30 1267 C 120.716 -4.49733 -0.0776792 0
M  V30 1268 C 122.035 -3.88259 -2.07228 0
M  V30 1269 H 119.154 -0.705105 -0.214466 0
M  V30 1270 H 121.796 -1.8947 0.141854 0
M  V30 1271 H 119.946 -3.44549 -1.79494 0
M  V30 1272 H 121.618 -4.57942 0.555573 0
M  V30 1273 H 119.861 -4.29751 0.591286 0
M  V30 1274 H 120.532 -5.49549 -0.519603 0
M  V30 1275 H 123.008 -3.86376 -1.54445 0
M  V30 1276 H 121.884 -4.91533 -2.44308 0
M  V30 1277 H 122.145 -3.26396 -2.98191 0
M  V30 1278 N 121.204 0.198386 -1.56346 0
M  V30 1279 C 122.136 1.26987 -1.90806 0
M  V30 1280 C 123.149 1.41877 -0.798419 0
M  V30 1281 O 124.338 1.42362 -1.07682 0
M  V30 1282 C 121.438 2.64246 -2.12196 0
M  V30 1283 C 120.611 2.71007 -3.43328 0
M  V30 1284 C 119.67 3.89439 -3.5387 0
M  V30 1285 O 118.696 3.76695 -4.26719 0
M  V30 1286 N 119.898 5.04752 -2.86715 0
M  V30 1287 H 122.663 0.977433 -2.83313 0
M  V30 1288 H 120.224 0.388322 -1.57174 0
M  V30 1289 H 122.216 3.41896 -2.1654 0
M  V30 1290 H 120.786 2.85992 -1.26204 0
M  V30 1291 H 120.006 1.79657 -3.50881 0
M  V30 1292 H 121.294 2.72512 -4.29668 0
M  V30 1293 H 120.692 5.18004 -2.2735 0
M  V30 1294 H 119.249 5.8036 -2.96691 0
M  V30 1295 N 122.682 1.50554 0.465978 0
M  V30 1296 C 123.645 1.69233 1.54574 0
M  V30 1297 C 124.645 0.562901 1.50626 0
M  V30 1298 O 125.835 0.830016 1.53155 0
M  V30 1299 C 122.967 1.7223 2.94193 0
M  V30 1300 H 124.16 2.65571 1.39327 0
M  V30 1301 H 121.713 1.40111 0.692711 0
M  V30 1302 H 122.448 0.77603 3.14878 0
M  V30 1303 H 122.233 2.54285 2.98466 0
M  V30 1304 H 123.723 1.88618 3.72576 0
M  V30 1305 N 124.16 -0.719506 1.40217 0
M  V30 1306 C 125.407 -1.47933 1.38283 0
M  V30 1307 C 125.735 -1.94493 -0.0161536 0
M  V30 1308 O 124.99 -1.68224 -0.999956 0
M  V30 1309 C 125.289 -2.72271 2.31524 0
M  V30 1310 C 124.955 -2.44496 3.78857 0
M  V30 1311 C 123.617 -2.36631 4.18998 0
M  V30 1312 C 125.969 -2.21104 4.71977 0
M  V30 1313 C 123.297 -2.03437 5.503 0
M  V30 1314 C 125.649 -1.89423 6.03574 0
M  V30 1315 C 124.313 -1.80038 6.42762 0
M  V30 1316 H 123.583 -0.541325 0.506012 0
M  V30 1317 H 126.23 -0.824502 1.72842 0
M  V30 1318 H 124.535 -3.42572 1.90137 0
M  V30 1319 H 126.232 -3.30348 2.27313 0
M  V30 1320 H 122.822 -2.51503 3.47051 0
M  V30 1321 H 127.006 -2.26139 4.41786 0
M  V30 1322 H 122.262 -1.94705 5.79569 0
M  V30 1323 H 126.436 -1.70336 6.75247 0
M  V30 1324 H 124.063 -1.54083 7.44421 0
M  V30 1325 N 125.638 -1.25649 -0.95132 0
M  V30 1326 C 126.884 -1.10757 -1.69884 0
M  V30 1327 C 127.217 0.350061 -1.91019 0
M  V30 1328 O 126.492 1.25783 -1.48354 0
M  V30 1329 C 126.775 -1.86606 -3.07978 0
M  V30 1330 C 126.628 -3.40217 -2.94232 0
M  V30 1331 C 127.947 -1.65182 -4.07925 0
M  V30 1332 H 125.066 -0.40374 -0.616574 0
M  V30 1333 H 127.708 -1.54521 -1.10558 0
M  V30 1334 H 125.858 -1.49409 -3.58621 0
M  V30 1335 H 127.53 -3.87108 -2.50889 0
M  V30 1336 H 125.773 -3.67759 -2.30078 0
M  V30 1337 H 126.444 -3.88505 -3.92133 0
M  V30 1338 H 128.92 -1.9757 -3.66204 0
M  V30 1339 H 127.796 -2.20683 -5.02583 0
M  V30 1340 H 128.057 -0.593933 -4.38092 0
M  V30 1341 N 127.117 1.15442 -1.07289 0
M  V30 1342 C 128.027 2.23786 -0.704057 0
M  V30 1343 C 129.043 1.7166 0.284413 0
M  V30 1344 O 130.219 2.00972 0.131205 0
M  V30 1345 C 127.284 3.46535 -0.106792 0
M  V30 1346 C 126.345 4.13654 -1.14842 0
M  V30 1347 C 125.578 5.30544 -0.57956 0
M  V30 1348 O 125.801 5.67187 0.604585 0
M  V30 1349 O 124.735 5.87154 -1.32414 0
M  V30 1350 H 128.561 2.57664 -1.60757 0
M  V30 1351 H 126.146 1.23152 -0.845803 0
M  V30 1352 H 128.028 4.20804 0.224048 0
M  V30 1353 H 126.703 3.14407 0.770049 0
M  V30 1354 H 125.61 3.4131 -1.5316 0
M  V30 1355 H 126.943 4.49861 -1.99714 0
M  V30 1356 N 128.595 0.856903 1.32268 0
M  V30 1357 C 130.011 0.547061 1.49931 0
M  V30 1358 C 130.211 -0.921781 1.7918 0
M  V30 1359 O 129.267 -1.70469 1.8627 0
M  V30 1360 C 130.58 1.43599 2.64196 0
M  V30 1361 C 132.128 1.43665 2.78081 0
M  V30 1362 C 132.603 2.31085 3.95428 0
M  V30 1363 N 134.094 2.28893 4.02694 0
M  V30 1364 C 134.829 2.93262 4.92732 0
M  V30 1365 N 134.325 3.66751 5.87763 0
M  V30 1366 N 136.118 2.82638 4.85873 0
M  V30 1367 H 128.269 1.8075 1.11549 0
M  V30 1368 H 130.532 0.772144 0.549997 0
M  V30 1369 H 130.238 2.48058 2.49319 0
M  V30 1370 H 130.112 1.12502 3.60032 0
M  V30 1371 H 132.499 0.399701 2.92381 0
M  V30 1372 H 132.58 1.7878 1.82952 0
M  V30 1373 H 132.224 3.34849 3.81888 0
M  V30 1374 H 132.154 1.93302 4.89839 0
M  V30 1375 H 134.645 1.75466 3.34694 0
M  V30 1376 H 134.958 4.13027 6.53168 0
M  V30 1377 H 133.303 3.70859 5.87783 0
M  V30 1378 H 136.494 2.24774 4.10602 0
M  V30 1379 H 136.667 3.33084 5.55841 0
M  V30 1380 N 130.073 -1.45103 0.615059 0
M  V30 1381 C 131.489 -1.57137 0.279322 0
M  V30 1382 C 131.689 -1.60523 -1.21797 0
M  V30 1383 O 130.745 -1.53956 -2.00134 0
M  V30 1384 C 132.058 -2.85062 0.957083 0
M  V30 1385 C 133.606 -2.98749 0.933706 0
M  V30 1386 C 134.081 -4.29455 1.59162 0
M  V30 1387 N 135.572 -4.36231 1.55746 0
M  V30 1388 C 136.307 -5.36051 2.0356 0
M  V30 1389 N 135.803 -6.42367 2.59494 0
M  V30 1390 N 137.596 -5.27456 1.94284 0
M  V30 1391 H 129.747 -1.41148 1.58717 0
M  V30 1392 H 132.01 -0.675331 0.665306 0
M  V30 1393 H 131.716 -2.88488 2.01166 0
M  V30 1394 H 131.59 -3.7407 0.48494 0
M  V30 1395 H 133.977 -2.94886 -0.112347 0
M  V30 1396 H 134.058 -2.11132 1.44419 0
M  V30 1397 H 133.702 -4.34077 2.63704 0
M  V30 1398 H 133.632 -5.15901 1.0561 0
M  V30 1399 H 136.123 -3.60011 1.14893 0
M  V30 1400 H 136.436 -7.14793 2.93752 0
M  V30 1401 H 134.781 -6.43097 2.63537 0
M  V30 1402 H 137.972 -4.43308 1.5032 0
M  V30 1403 H 138.145 -6.05099 2.3186 0
M  V30 1404 N 131.551 -0.354651 -1.53558 0
M  V30 1405 C 132.498 0.496968 -2.25386 0
M  V30 1406 C 133.468 1.0865 -1.25636 0
M  V30 1407 O 134.653 1.12104 -1.54394 0
M  V30 1408 C 131.793 1.63637 -3.03837 0
M  V30 1409 C 130.906 1.07307 -4.18461 0
M  V30 1410 C 130.041 2.18068 -4.84376 0
M  V30 1411 C 129.08 1.59147 -5.91049 0
M  V30 1412 N 128.217 2.63695 -6.50699 0
M  V30 1413 H 133.057 -0.122075 -2.9775 0
M  V30 1414 H 130.594 -0.0720154 -1.46924 0
M  V30 1415 H 132.552 2.30734 -3.47589 0
M  V30 1416 H 131.182 2.22623 -2.33749 0
M  V30 1417 H 130.234 0.292708 -3.79272 0
M  V30 1418 H 131.546 0.602193 -4.95152 0
M  V30 1419 H 130.7 2.93007 -5.31255 0
M  V30 1420 H 129.439 2.68504 -4.07133 0
M  V30 1421 H 128.444 0.827175 -5.43542 0
M  V30 1422 H 129.669 1.09549 -6.70206 0
M  V30 1423 H 127.615 3.13365 -5.76315 0
M  V30 1424 H 127.532 2.21263 -7.22896 0
M  V30 1425 H 128.8 3.3837 -7.02229 0
M  V30 1426 N 133.029 1.57378 -0.0835403 0
M  V30 1427 C 134.277 1.93547 0.581718 0
M  V30 1428 C 134.598 0.96524 1.69435 0
M  V30 1429 O 133.868 0.0153369 1.95894 0
M  V30 1430 H 132.448 0.714521 0.217874 0
M  V30 1431 H 135.11 1.94366 -0.144158 0
M  V30 1432 H 134.206 2.95665 0.999423 0
M  V30 1433 N 134.507 -0.190092 1.56449 0
M  V30 1434 C 135.454 -1.23557 1.94942 0
M  V30 1435 C 136.424 -1.44972 0.810696 0
M  V30 1436 O 137.609 -1.58023 1.06927 0
M  V30 1437 C 134.749 -2.57416 2.2985 0
M  V30 1438 C 133.862 -2.43537 3.5681 0
M  V30 1439 C 132.997 -3.70134 3.81017 0
M  V30 1440 C 132.036 -3.51109 5.01387 0
M  V30 1441 N 131.173 -4.6973 5.21822 0
M  V30 1442 H 136.013 -0.900304 2.84075 0
M  V30 1443 H 133.55 -0.43318 1.40577 0
M  V30 1444 H 135.508 -3.35409 2.48106 0
M  V30 1445 H 134.138 -2.88975 1.43852 0
M  V30 1446 H 133.19 -1.56816 3.46573 0
M  V30 1447 H 134.502 -2.25415 4.4496 0
M  V30 1448 H 133.656 -4.56566 3.9954 0
M  V30 1449 H 132.395 -3.91215 2.91207 0
M  V30 1450 H 131.4 -2.63063 4.82782 0
M  V30 1451 H 132.625 -3.31468 5.9271 0
M  V30 1452 H 130.571 -4.91065 4.34961 0
M  V30 1453 H 130.488 -4.54452 6.0416 0
M  V30 1454 H 131.756 -5.57499 5.44808 0
M  V30 1455 N 135.985 -1.50799 -0.457987 0
M  V30 1456 C 136.948 -1.7005 -1.53674 0
M  V30 1457 C 137.948 -0.570881 -1.50325 0
M  V30 1458 O 139.138 -0.838126 -1.52712 0
M  V30 1459 C 136.27 -1.73788 -2.93276 0
M  V30 1460 H 137.463 -2.66306 -1.37917 0
M  V30 1461 H 135.016 -1.40477 -0.685271 0
M  V30 1462 H 135.751 -0.792717 -3.14462 0
M  V30 1463 H 135.536 -2.55864 -2.97113 0
M  V30 1464 H 137.026 -1.90591 -3.71571 0
M  V30 1465 N 137.463 0.71206 -1.40597 0
M  V30 1466 C 138.691 1.50111 -1.42388 0
M  V30 1467 C 139.106 1.88784 -0.0245395 0
M  V30 1468 O 138.463 1.55681 0.952351 0
M  V30 1469 C 138.514 2.7742 -2.31776 0
M  V30 1470 O 138.235 2.40382 -3.66262 0
M  V30 1471 C 139.736 3.7129 -2.42196 0
M  V30 1472 H 136.956 0.46314 -0.485533 0
M  V30 1473 H 139.5 0.878068 -1.8469 0
M  V30 1474 H 137.655 3.36001 -1.92827 0
M  V30 1475 H 138.069 3.22324 -4.13772 0
M  V30 1476 H 139.543 4.57448 -3.08943 0
M  V30 1477 H 140.02 4.14641 -1.44809 0
M  V30 1478 H 140.626 3.18619 -2.81712 0
M  V30 1479 N 138.941 1.26152 0.944643 0
M  V30 1480 C 139.851 1.09176 2.07648 0
M  V30 1481 C 140.867 0.0261935 1.7398 0
M  V30 1482 O 142.043 0.229208 2.00091 0
M  V30 1483 C 139.108 0.722915 3.39079 0
M  V30 1484 C 138.169 1.86752 3.86552 0
M  V30 1485 C 137.402 1.51617 5.11711 0
M  V30 1486 O 137.625 0.416331 5.68879 0
M  V30 1487 O 136.559 2.34975 5.54139 0
M  V30 1488 H 140.385 2.0412 2.24875 0
M  V30 1489 H 137.97 1.05182 1.061 0
M  V30 1490 H 139.852 0.529787 4.18056 0
M  V30 1491 H 138.527 -0.197159 3.23099 0
M  V30 1492 H 137.434 2.11558 3.08535 0
M  V30 1493 H 138.767 2.76719 4.07047 0
M  V30 1494 N 140.419 -1.14872 1.07899 0
M  V30 1495 C 141.329 -2.2341 0.715915 0
M  V30 1496 C 142.345 -1.71808 -0.275306 0
M  V30 1497 O 143.521 -2.01039 -0.120545 0
M  V30 1498 C 140.586 -3.46474 0.125168 0
M  V30 1499 C 139.647 -4.13039 1.17034 0
M  V30 1500 C 138.88 -5.30229 0.607688 0
M  V30 1501 O 139.103 -5.675 -0.574497 0
M  V30 1502 O 138.037 -5.86444 1.35526 0
M  V30 1503 H 141.863 -2.56808 1.62121 0
M  V30 1504 H 139.448 -1.22702 0.852322 0
M  V30 1505 H 141.33 -4.20917 -0.201729 0
M  V30 1506 H 140.005 -3.14811 -0.753364 0
M  V30 1507 H 138.912 -3.40493 1.54968 0
M  V30 1508 H 140.245 -4.48796 2.02097 0
M  V30 1509 N 141.898 -0.863906 -1.31812 0
M  V30 1510 C 142.83 -0.272485 -2.27575 0
M  V30 1511 C 143.843 0.56104 -1.52827 0
M  V30 1512 O 145.032 0.384021 -1.7432 0
M  V30 1513 C 142.132 0.63283 -3.32939 0
M  V30 1514 C 141.305 -0.166902 -4.37081 0
M  V30 1515 C 140.364 0.665608 -5.21973 0
M  V30 1516 O 139.39 0.0958091 -5.69119 0
M  V30 1517 N 140.592 1.9787 -5.45736 0
M  V30 1518 H 143.357 -1.0954 -2.78964 0
M  V30 1519 H 140.918 -0.724791 -1.4477 0
M  V30 1520 H 142.91 1.19532 -3.86645 0
M  V30 1521 H 141.48 1.35642 -2.81638 0
M  V30 1522 H 140.7 -0.910838 -3.83533 0
M  V30 1523 H 141.988 -0.715874 -5.03739 0
M  V30 1524 H 141.386 2.46484 -5.09178 0
M  V30 1525 H 139.943 2.48911 -6.024 0
M  V30 1526 N 143.376 1.44774 -0.622745 0
M  V30 1527 C 144.339 2.29069 0.0774015 0
M  V30 1528 C 145.339 1.4059 0.780461 0
M  V30 1529 O 146.529 1.62551 0.626322 0
M  V30 1530 C 143.661 3.21974 1.12006 0
M  V30 1531 H 144.854 2.92459 -0.663901 0
M  V30 1532 H 142.407 1.51548 -0.382486 0
M  V30 1533 H 143.142 2.63417 1.89162 0
M  V30 1534 H 142.927 3.87168 0.619951 0
M  V30 1535 H 144.417 3.85318 1.60995 0
M  V30 1536 N 144.854 0.36279 1.53368 0
M  V30 1537 C 146.27 0.0116182 1.59596 0
M  V30 1538 C 146.47 -1.47012 1.37803 0
M  V30 1539 O 145.526 -2.23136 1.18181 0
M  V30 1540 C 146.839 0.465052 2.97082 0
M  V30 1541 C 148.387 0.419033 3.10182 0
M  V30 1542 C 148.862 0.848235 4.50077 0
M  V30 1543 N 150.353 0.803183 4.56183 0
M  V30 1544 C 151.088 1.107 5.62613 0
M  V30 1545 N 150.584 1.47996 6.76808 0
M  V30 1546 N 152.377 1.02998 5.52583 0
M  V30 1547 H 144.528 1.32775 1.65785 0
M  V30 1548 H 146.791 0.542518 0.777417 0
M  V30 1549 H 146.497 1.49892 3.18159 0
M  V30 1550 H 146.371 -0.149786 3.76902 0
M  V30 1551 H 148.758 -0.605696 2.88817 0
M  V30 1552 H 148.839 1.06933 2.32377 0
M  V30 1553 H 148.483 1.87107 4.7218 0
M  V30 1554 H 148.413 0.175218 5.26308 0
M  V30 1555 H 150.904 0.52838 3.74188 0
M  V30 1556 H 151.217 1.69613 7.53957 0
M  V30 1557 H 149.562 1.51859 6.78206 0
M  V30 1558 H 152.753 0.737817 4.62249 0
M  V30 1559 H 152.926 1.2701 6.35431 0
M  V30 1560 N 146.332 -1.57332 0.0918853 0
M  V30 1561 C 147.279 -2.13847 -0.868211 0
M  V30 1562 C 148.249 -1.05618 -1.28196 0
M  V30 1563 O 149.434 -1.33387 -1.36427 0
M  V30 1564 C 146.574 -2.72062 -2.12312 0
M  V30 1565 C 145.687 -3.94514 -1.7602 0
M  V30 1566 C 144.822 -4.40903 -2.96273 0
M  V30 1567 C 143.861 -5.55953 -2.56092 0
M  V30 1568 N 142.998 -5.97209 -3.69169 0
M  V30 1569 H 147.838 -2.95575 -0.379406 0
M  V30 1570 H 145.375 -1.46048 -0.175606 0
M  V30 1571 H 147.333 -3.03931 -2.858 0
M  V30 1572 H 145.963 -1.93068 -2.58698 0
M  V30 1573 H 145.015 -3.68979 -0.925135 0
M  V30 1574 H 146.327 -4.7802 -1.42472 0
M  V30 1575 H 145.481 -4.74539 -3.78018 0
M  V30 1576 H 144.22 -3.56291 -3.33029 0
M  V30 1577 H 143.225 -5.21948 -1.72773 0
M  V30 1578 H 144.45 -6.42311 -2.20484 0
M  V30 1579 H 142.396 -5.15543 -4.05649 0
M  V30 1580 H 142.313 -6.75504 -3.39456 0
M  V30 1581 H 143.581 -6.35475 -4.51434 0
M  V30 1582 N 147.81 0.181792 -1.56548 0
M  V30 1583 C 148.773 1.20894 -1.94724 0
M  V30 1584 C 149.773 1.37738 -0.829747 0
M  V30 1585 O 150.963 1.35323 -1.09697 0
M  V30 1586 C 148.095 2.57593 -2.23291 0
M  V30 1587 H 149.288 0.882275 -2.86629 0
M  V30 1588 H 146.841 0.423838 -1.50444 0
M  V30 1589 H 147.576 2.95291 -1.34067 0
M  V30 1590 H 147.361 2.46735 -3.04736 0
M  V30 1591 H 148.851 3.31637 -2.53785 0
M  V30 1592 N 149.288 1.51039 0.449983 0
M  V30 1593 C 150.218 1.74379 1.55288 0
M  V30 1594 C 151.199 0.593236 1.5942 0
M  V30 1595 O 152.384 0.834625 1.7535 0
M  V30 1596 C 149.514 1.85728 2.93466 0
M  V30 1597 C 148.468 3.01078 3.04197 0
M  V30 1598 C 147.794 2.97595 4.44231 0
M  V30 1599 C 149.094 4.41254 2.7945 0
M  V30 1600 H 150.788 2.66725 1.36008 0
M  V30 1601 H 148.334 1.2835 0.652864 0
M  V30 1602 H 150.287 2.0064 3.70569 0
M  V30 1603 H 149.011 0.900207 3.13949 0
M  V30 1604 H 147.67 2.85851 2.29531 0
M  V30 1605 H 147.318 1.99691 4.61663 0
M  V30 1606 H 147.018 3.75046 4.52343 0
M  V30 1607 H 148.542 3.14583 5.23326 0
M  V30 1608 H 149.956 4.56897 3.46292 0
M  V30 1609 H 148.353 5.20315 2.98985 0
M  V30 1610 H 149.423 4.52164 1.75144 0
M  V30 1611 N 150.766 -0.704594 1.40972 0
M  V30 1612 C 151.696 -1.83124 1.44872 0
M  V30 1613 C 152.677 -1.67281 0.30838 0
M  V30 1614 O 153.862 -1.87149 0.518556 0
M  V30 1615 C 150.992 -3.21181 1.32136 0
M  V30 1616 C 149.946 -3.51714 2.43888 0
M  V30 1617 C 149.272 -4.89032 2.16222 0
M  V30 1618 C 150.572 -3.516 3.86232 0
M  V30 1619 H 152.266 -1.80117 2.39161 0
M  V30 1620 H 149.812 -0.865145 1.15114 0
M  V30 1621 H 151.765 -3.99702 1.33479 0
M  V30 1622 H 150.489 -3.24791 0.343279 0
M  V30 1623 H 149.148 -2.75539 2.41813 0
M  V30 1624 H 148.796 -4.89256 1.16778 0
M  V30 1625 H 148.496 -5.10426 2.911 0
M  V30 1626 H 150.02 -5.69873 2.19265 0
M  V30 1627 H 151.434 -4.2014 3.9007 0
M  V30 1628 H 149.831 -3.84523 4.60719 0
M  V30 1629 H 150.901 -2.50757 4.15029 0
M  V30 1630 N 152.244 -1.26651 -0.937939 0
M  V30 1631 C 153.521 -1.0313 -1.66204 0
M  V30 1632 C 153.901 0.437256 -2.06522 0
M  V30 1633 O 153.249 1.41831 -1.79154 0
M  V30 1634 C 153.459 -1.98314 -2.87181 0
M  V30 1635 C 154.807 -2.27107 -3.58758 0
M  V30 1636 O 155.831 -1.96205 -2.97291 0
M  V30 1637 O 154.69 -2.79736 -4.69479 0
M  V30 1638 H 151.784 -0.392384 -0.727986 0
M  V30 1639 H 154.33 -1.37874 -0.989382 0
M  V30 1640 H 153.102 -2.97399 -2.54302 0
M  V30 1641 H 152.725 -1.64068 -3.6217 0
M  V30 1642 N 153.722 1.14298 -1.08507 0
M  V30 1643 C 154.632 2.23027 -0.727753 0
M  V30 1644 C 155.648 1.71952 0.26619 0
M  V30 1645 O 156.824 2.011 0.109882 0
M  V30 1646 C 153.889 3.46403 -0.143541 0
M  V30 1647 C 152.95 4.12413 -1.19223 0
M  V30 1648 C 152.183 5.29899 -0.635798 0
M  V30 1649 O 152.406 5.67796 0.544393 0
M  V30 1650 O 151.34 5.85717 -1.38634 0
M  V30 1651 H 155.166 2.55945 -1.63481 0
M  V30 1652 H 152.751 1.22248 -0.858817 0
M  V30 1653 H 154.633 4.21018 0.179404 0
M  V30 1654 H 153.308 3.15206 0.736659 0
M  V30 1655 H 152.215 3.39667 -1.56772 0
M  V30 1656 H 153.548 4.47718 -2.04474 0
M  V30 1657 N 155.201 0.870884 1.31352 0
M  V30 1658 C 156.149 0.316445 2.30437 0
M  V30 1659 C 157.143 -0.568965 1.59559 0
M  V30 1660 O 158.349 -0.454964 1.74155 0
M  V30 1661 H 154.724 0.0836521 0.747333 0
M  V30 1662 H 156.695 1.16606 2.74673 0
M  V30 1663 C 155.444 -0.46635 3.44558 0
M  V30 1664 H 154.767 0.205687 3.99271 0
M  V30 1665 H 156.207 -0.819614 4.16003 0
M  V30 1666 C 154.666 -1.65797 2.9328 0
M  V30 1667 O 155.196 -2.75728 2.92125 0
M  V30 1668 N 153.402 -1.49041 2.4947 0
M  V30 1669 H 152.949 -0.59612 2.50608 0
M  V30 1670 H 152.907 -2.28911 2.15516 0
M  V30 1671 N 156.679 -1.44442 0.630414 0
M  V30 1672 C 157.909 -2.06115 0.141465 0
M  V30 1673 C 158.317 -1.47179 -1.1889 0
M  V30 1674 O 157.66 -0.588873 -1.74006 0
M  V30 1675 C 157.722 -3.59467 -0.0484355 0
M  V30 1676 C 157.386 -4.40864 1.20366 0
M  V30 1677 C 158.383 -4.74391 2.12719 0
M  V30 1678 C 156.068 -4.8125 1.43887 0
M  V30 1679 C 158.062 -5.47186 3.26904 0
M  V30 1680 C 155.749 -5.53795 2.5837 0
M  V30 1681 C 156.747 -5.86682 3.49705 0
M  V30 1682 O 156.435 -6.57749 4.62191 0
M  V30 1683 H 156.167 -0.671648 0.0765792 0
M  V30 1684 H 158.721 -1.86312 0.864695 0
M  V30 1685 H 156.951 -3.77758 -0.826803 0
M  V30 1686 H 158.64 -4.02909 -0.491849 0
M  V30 1687 H 159.406 -4.43728 1.95781 0
M  V30 1688 H 155.285 -4.55073 0.736853 0
M  V30 1689 H 158.829 -5.72773 3.98217 0
M  V30 1690 H 154.726 -5.83872 2.75251 0
M  V30 1691 H 155.494 -6.76217 4.61164 0
M  V30 1692 N 158.157 -0.370918 -1.53173 0
M  V30 1693 C 159.404 0.217102 -2.01333 0
M  V30 1694 C 159.732 1.48338 -1.25802 0
M  V30 1695 O 158.987 1.92698 -0.34146 0
M  V30 1696 C 159.286 0.549696 -3.53147 0
M  V30 1697 C 158.952 -0.622872 -4.46577 0
M  V30 1698 C 157.614 -0.944595 -4.71838 0
M  V30 1699 C 159.966 -1.40819 -5.01816 0
M  V30 1700 C 157.294 -2.05351 -5.49589 0
M  V30 1701 C 159.646 -2.50757 -5.80778 0
M  V30 1702 C 158.31 -2.83458 -6.04324 0
M  V30 1703 H 157.58 0.0794431 -0.736729 0
M  V30 1704 H 160.227 -0.504481 -1.84736 0
M  V30 1705 H 158.532 1.35237 -3.6772 0
M  V30 1706 H 160.229 1.017 -3.87889 0
M  V30 1707 H 156.819 -0.36209 -4.27068 0
M  V30 1708 H 161.003 -1.17289 -4.82242 0
M  V30 1709 H 156.259 -2.3108 -5.6605 0
M  V30 1710 H 160.433 -3.12022 -6.22588 0
M  V30 1711 H 158.06 -3.69508 -6.64355 0
M  V30 1712 N 159.635 1.57281 -0.100228 0
M  V30 1713 C 160.883 1.94153 0.561157 0
M  V30 1714 C 161.204 0.983157 1.68401 0
M  V30 1715 O 160.474 0.0361132 1.95867 0
M  V30 1716 H 159.054 0.716791 0.210283 0
M  V30 1717 H 161.716 1.94202 -0.164765 0
M  V30 1718 H 160.812 2.96709 0.968008 0
M  V30 1719 N 161.113 -0.173488 1.56642 0
M  V30 1720 C 162.341 -0.906095 1.86004 0
M  V30 1721 C 162.756 -1.75921 0.685355 0
M  V30 1722 O 162.113 -1.79198 -0.345578 0
M  V30 1723 C 162.164 -1.78462 3.14378 0
M  V30 1724 O 161.885 -0.965914 4.27319 0
M  V30 1725 C 163.386 -2.62707 3.57071 0
M  V30 1726 H 160.606 -0.263341 0.617165 0
M  V30 1727 H 163.15 -0.174236 2.03756 0
M  V30 1728 H 161.305 -2.46984 2.98459 0
M  V30 1729 H 161.719 -1.56655 5.00559 0
M  V30 1730 H 163.193 -3.19969 4.49804 0
M  V30 1731 H 163.67 -3.37472 2.81086 0
M  V30 1732 H 164.276 -1.99521 3.75595 0
M  V30 1733 N 162.591 -1.51276 -0.441967 0
M  V30 1734 C 163.524 -1.66933 -1.55591 0
M  V30 1735 C 164.502 -0.516958 -1.54163 0
M  V30 1736 O 165.686 -0.740209 -1.73358 0
M  V30 1737 C 162.813 -1.67866 -2.94174 0
M  V30 1738 C 161.859 -2.89013 -3.13646 0
M  V30 1739 S 162.692 -4.49897 -2.90436 0
M  V30 1740 C 163.848 -4.53568 -4.31308 0
M  V30 1741 H 164.081 -2.61155 -1.42076 0
M  V30 1742 H 161.614 -1.40902 -0.631341 0
M  V30 1743 H 163.572 -1.69089 -3.74058 0
M  V30 1744 H 162.233 -0.748296 -3.05056 0
M  V30 1745 H 161.426 -2.86054 -4.14957 0
M  V30 1746 H 161.028 -2.85509 -2.4158 0
M  V30 1747 H 163.32 -4.28924 -5.24434 0
M  V30 1748 H 164.263 -5.55355 -4.39303 0
M  V30 1749 H 164.671 -3.82943 -4.14747 0
M  V30 1750 N 164.069 0.697108 -1.41344 0
M  V30 1751 C 164.999 1.82353 -1.45841 0
M  V30 1752 C 165.98 1.67115 -0.317247 0
M  V30 1753 O 167.165 1.86871 -0.528474 0
M  V30 1754 C 164.295 3.20476 -1.33838 0
M  V30 1755 C 163.249 3.50415 -2.4575 0
M  V30 1756 C 162.575 4.87878 -2.18813 0
M  V30 1757 C 163.875 3.49546 -3.88091 0
M  V30 1758 H 165.569 1.78846 -2.40113 0
M  V30 1759 H 163.115 0.859028 -1.15571 0
M  V30 1760 H 165.068 3.98988 -1.35596 0
M  V30 1761 H 163.792 3.24604 -0.360498 0
M  V30 1762 H 162.451 2.74253 -2.43271 0
M  V30 1763 H 162.099 4.8863 -1.19371 0
M  V30 1764 H 161.799 5.08875 -2.93803 0
M  V30 1765 H 163.323 5.68702 -2.22284 0
M  V30 1766 H 164.737 4.18066 -3.92293 0
M  V30 1767 H 163.134 3.82075 -4.62751 0
M  V30 1768 H 164.204 2.48552 -4.16353 0
M  V30 1769 N 165.547 1.27147 0.931209 0
M  V30 1770 C 166.793 1.13446 1.68101 0
M  V30 1771 C 167.126 -0.319628 1.91552 0
M  V30 1772 O 166.401 -1.23407 1.50336 0
M  V30 1773 C 166.684 1.91482 3.0497 0
M  V30 1774 C 166.537 3.44855 2.88782 0
M  V30 1775 C 167.856 1.71651 4.05246 0
M  V30 1776 H 164.975 0.413498 0.610072 0
M  V30 1777 H 167.617 1.56261 1.08086 0
M  V30 1778 H 165.767 1.55095 3.56199 0
M  V30 1779 H 167.439 3.9105 2.44698 0
M  V30 1780 H 165.682 3.71373 2.24198 0
M  V30 1781 H 166.353 3.94694 3.85902 0
M  V30 1782 H 168.829 2.0337 3.63015 0
M  V30 1783 H 167.705 2.28651 4.99009 0
M  V30 1784 H 167.966 0.663555 4.37092 0
M  V30 1785 N 167.025 -1.13721 1.09112 0
M  V30 1786 C 168.255 -1.88499 0.845671 0
M  V30 1787 C 168.663 -1.79218 -0.606432 0
M  V30 1788 O 168.006 -1.1544 -1.42896 0
M  V30 1789 C 168.068 -3.38954 1.19793 0
M  V30 1790 C 167.732 -3.72018 2.65428 0
M  V30 1791 C 168.729 -3.7153 3.63677 0
M  V30 1792 C 166.414 -4.01775 3.01467 0
M  V30 1793 C 168.408 -4.00336 4.95994 0
M  V30 1794 C 166.095 -4.30243 4.33975 0
M  V30 1795 C 167.093 -4.29508 5.31048 0
M  V30 1796 O 166.781 -4.5728 6.61173 0
M  V30 1797 H 166.513 -0.603702 0.304171 0
M  V30 1798 H 169.067 -1.44903 1.45576 0
M  V30 1799 H 167.297 -3.83039 0.530871 0
M  V30 1800 H 168.986 -3.95052 0.932146 0
M  V30 1801 H 169.752 -3.4862 3.37179 0
M  V30 1802 H 165.631 -4.01496 2.26544 0
M  V30 1803 H 169.175 -3.99678 5.71755 0
M  V30 1804 H 165.072 -4.52625 4.60219 0
M  V30 1805 H 165.84 -4.74964 6.66597 0
M  V30 1806 N 168.503 -0.877838 -1.30888 0
M  V30 1807 C 169.45 -0.337538 -2.28318 0
M  V30 1808 C 170.42 0.568346 -1.56074 0
M  V30 1809 O 171.605 0.498298 -1.84178 0
M  V30 1810 C 168.745 0.448142 -3.42178 0
M  V30 1811 C 167.858 -0.48615 -4.29256 0
M  V30 1812 C 166.993 0.314427 -5.30269 0
M  V30 1813 C 166.032 -0.615791 -6.08995 0
M  V30 1814 N 165.169 0.14902 -7.01942 0
M  V30 1815 H 170.009 -1.17356 -2.73919 0
M  V30 1816 H 167.546 -0.590094 -1.34745 0
M  V30 1817 H 169.504 0.919517 -4.06941 0
M  V30 1818 H 168.134 1.24879 -2.97666 0
M  V30 1819 H 167.186 -1.076 -3.64865 0
M  V30 1820 H 168.498 -1.19909 -4.84173 0
M  V30 1821 H 167.652 0.847969 -6.00745 0
M  V30 1822 H 166.391 1.06062 -4.76027 0
M  V30 1823 H 165.396 -1.16102 -5.37401 0
M  V30 1824 H 166.621 -1.36097 -6.65323 0
M  V30 1825 H 164.567 0.877884 -6.50099 0
M  V30 1826 H 164.484 -0.504433 -7.54315 0
M  V30 1827 H 165.752 0.663537 -7.76671 0
M  V30 1828 N 169.982 1.44106 -0.638065 0
M  V30 1829 C 171.23 2.01579 -0.145043 0
M  V30 1830 C 171.551 1.50496 1.24 0
M  V30 1831 O 170.821 0.711374 1.82527 0
M  V30 1832 H 169.401 0.745282 -0.05063 0
M  V30 1833 H 172.063 1.76516 -0.826327 0
M  V30 1834 H 171.159 3.11877 -0.118039 0
M  V30 1835 N 171.46 0.379036 1.52974 0
M  V30 1836 C 172.39 -0.452706 2.29069 0
M  V30 1837 C 173.371 -1.07237 1.32039 0
M  V30 1838 O 174.556 -1.08708 1.60923 0
M  V30 1839 C 171.686 -1.5856 3.08992 0
M  V30 1840 C 170.64 -1.0925 4.13822 0
M  V30 1841 C 169.966 -2.31668 4.81907 0
M  V30 1842 C 171.266 -0.167702 5.22031 0
M  V30 1843 H 172.96 0.182181 2.98845 0
M  V30 1844 H 170.506 0.0890592 1.43724 0
M  V30 1845 H 172.459 -2.1742 3.6098 0
M  V30 1846 H 171.183 -2.24792 2.36931 0
M  V30 1847 H 169.842 -0.526494 3.628 0
M  V30 1848 H 169.49 -2.96386 4.06404 0
M  V30 1849 H 169.19 -1.9934 5.52754 0
M  V30 1850 H 170.714 -2.91189 5.36695 0
M  V30 1851 H 172.128 -0.664186 5.6944 0
M  V30 1852 H 170.525 0.0653265 6.00064 0
M  V30 1853 H 171.595 0.786347 4.78482 0
M  V30 1854 N 172.938 -1.57226 0.108567 0
M  V30 1855 C 173.901 -2.13602 -0.831082 0
M  V30 1856 C 174.901 -1.06841 -1.20173 0
M  V30 1857 O 176.091 -1.32666 -1.12895 0
M  V30 1858 C 173.223 -2.66769 -2.12243 0
M  V30 1859 H 174.416 -2.97951 -0.341317 0
M  V30 1860 H 171.969 -1.55667 -0.14057 0
M  V30 1861 H 172.704 -1.85977 -2.65675 0
M  V30 1862 H 172.489 -3.44839 -1.86625 0
M  V30 1863 H 173.979 -3.10332 -2.79435 0
M  V30 1864 N 174.416 0.165178 -1.56732 0
M  V30 1865 C 175.693 0.908443 -1.73224 0
M  V30 1866 C 176.073 2.0013 -0.67165 0
M  V30 1867 O 175.421 2.26353 0.31253 0
M  V30 1868 C 175.631 1.46756 -3.16644 0
M  V30 1869 C 176.979 1.93809 -3.77787 0
M  V30 1870 O 178.003 1.56537 -3.1996 0
M  V30 1871 O 176.862 2.62486 -4.79336 0
M  V30 1872 H 173.956 0.428025 -0.707618 0
M  V30 1873 H 176.502 0.152526 -1.69013 0
M  V30 1874 H 175.274 0.68129 -3.85323 0
M  V30 1875 H 174.897 2.28749 -3.25207 0
M  V30 1876 N 175.894 1.51508 0.433938 0
M  V30 1877 C 177.142 1.6402 1.18075 0
M  V30 1878 C 177.463 0.360328 1.91642 0
M  V30 1879 O 176.733 -0.623945 1.85698 0
M  V30 1880 H 175.313 0.6045 0.43885 0
M  V30 1881 H 177.975 1.88452 0.497178 0
M  V30 1882 H 177.071 2.46949 1.90847 0
M  V30 1883 N 177.372 -0.689602 1.41712 0
M  V30 1884 C 178.302 -1.81577 1.46806 0
M  V30 1885 C 179.283 -1.66945 0.326105 0
M  V30 1886 O 180.468 -1.86588 0.538377 0
M  V30 1887 C 177.598 -3.19762 1.35535 0
M  V30 1888 C 176.552 -3.49107 2.47605 0
M  V30 1889 C 175.878 -4.86711 2.21397 0
M  V30 1890 C 177.178 -3.47483 3.89939 0
M  V30 1891 H 178.872 -1.7757 2.41058 0
M  V30 1892 H 176.418 -0.852887 1.16025 0
M  V30 1893 H 178.371 -3.98263 1.3771 0
M  V30 1894 H 177.095 -3.24409 0.377708 0
M  V30 1895 H 175.754 -2.72959 2.44722 0
M  V30 1896 H 175.402 -4.8799 1.21961 0
M  V30 1897 H 175.102 -5.0731 2.96497 0
M  V30 1898 H 176.626 -5.67515 2.25297 0
M  V30 1899 H 178.04 -4.1598 3.94505 0
M  V30 1900 H 176.437 -3.79615 4.64771 0
M  V30 1901 H 177.507 -2.46341 4.17665 0
M  V30 1902 N 178.85 -1.27639 -0.924453 0
M  V30 1903 C 180.096 -1.14336 -1.67497 0
M  V30 1904 C 180.429 0.309465 -1.91718 0
M  V30 1905 O 179.704 1.22608 -1.50989 0
M  V30 1906 C 179.987 -1.93096 -3.0395 0
M  V30 1907 C 179.84 -3.46381 -2.8695 0
M  V30 1908 C 181.159 -1.73798 -4.0433 0
M  V30 1909 H 178.278 -0.416728 -0.607871 0
M  V30 1910 H 180.92 -1.56832 -1.07256 0
M  V30 1911 H 179.07 -1.56982 -3.55372 0
M  V30 1912 H 180.742 -3.92343 -2.42621 0
M  V30 1913 H 178.985 -3.72557 -2.22225 0
M  V30 1914 H 179.656 -3.96735 -3.83804 0
M  V30 1915 H 182.132 -2.05293 -3.61931 0
M  V30 1916 H 181.008 -2.31294 -4.97789 0
M  V30 1917 H 181.269 -0.686725 -4.36734 0
M  V30 1918 N 180.328 1.1314 -1.09713 0
M  V30 1919 C 181.553 1.88862 -0.857081 0
M  V30 1920 C 181.978 1.78729 0.586304 0
M  V30 1921 O 181.336 1.13692 1.41222 0
M  V30 1922 C 181.384 3.36325 -1.30069 0
M  V30 1923 O 180.488 4.09815 -0.461007 0
M  V30 1924 H 179.829 0.587108 -0.310162 0
M  V30 1925 H 182.359 1.43129 -1.46203 0
M  V30 1926 H 182.369 3.87157 -1.28738 0
M  V30 1927 H 181.044 3.43017 -2.35185 0
M  V30 1928 H 179.621 3.68986 -0.538888 0
M  V30 1929 N 181.806 0.884767 1.30421 0
M  V30 1930 C 183.054 0.502112 1.95763 0
M  V30 1931 C 183.375 -0.951815 1.70192 0
M  V30 1932 O 182.645 -1.6692 1.0254 0
M  V30 1933 H 181.225 0.182694 0.724315 0
M  V30 1934 H 183.887 1.1278 1.58955 0
M  V30 1935 H 182.983 0.672188 3.04775 0
M  V30 1936 N 183.284 -1.43765 0.645699 0
M  V30 1937 C 184.247 -2.29163 -0.0409488 0
M  V30 1938 C 185.247 -1.41813 -0.757996 0
M  V30 1939 O 186.437 -1.63527 -0.600382 0
M  V30 1940 C 183.569 -3.23716 -1.06869 0
M  V30 1941 H 184.762 -2.91366 0.710345 0
M  V30 1942 H 182.315 -1.5092 0.406547 0
M  V30 1943 H 183.05 -2.66393 -1.84947 0
M  V30 1944 H 182.835 -3.88105 -0.558277 0
M  V30 1945 H 184.325 -3.87831 -1.54845 0
M  V30 1946 N 184.763 -0.387143 -1.52771 0
M  V30 1947 C 185.726 0.436939 -2.24997 0
M  V30 1948 C 186.726 0.991991 -1.26555 0
M  V30 1949 O 187.916 0.874335 -1.50669 0
M  V30 1950 C 185.048 1.61281 -3.00335 0
M  V30 1951 H 186.241 -0.195365 -2.99263 0
M  V30 1952 H 183.794 -0.139218 -1.55679 0
M  V30 1953 H 184.529 2.2826 -2.30364 0
M  V30 1954 H 184.314 1.22154 -3.72587 0
M  V30 1955 H 185.804 2.19629 -3.5518 0
M  V30 1956 N 186.241 1.57166 -0.116904 0
M  V30 1957 C 187.191 2.11756 0.845178 0
M  V30 1958 C 188.175 1.03783 1.22955 0
M  V30 1959 O 189.367 1.3002 1.20099 0
M  V30 1960 C 186.496 2.71886 2.09602 0
M  V30 1961 C 185.582 3.86937 1.7361 0
M  V30 1962 N 185.973 4.94073 1.08284 0
M  V30 1963 C 184.271 3.97082 2.03082 0
M  V30 1964 C 184.972 5.74477 0.913855 0
M  V30 1965 N 183.948 5.2423 1.43818 0
M  V30 1966 H 187.75 2.91967 0.336523 0
M  V30 1967 H 185.264 1.62174 0.0856332 0
M  V30 1968 H 187.261 3.09338 2.79492 0
M  V30 1969 H 185.921 1.93138 2.61013 0
M  V30 1970 H 186.932 5.12483 0.747067 0
M  V30 1971 H 183.609 3.29372 2.56554 0
M  V30 1972 H 184.999 6.70701 0.40125 0
M  V30 1973 N 187.719 -0.156864 1.56817 0
M  V30 1974 C 188.944 -0.890331 1.87318 0
M  V30 1975 C 189.369 -1.74394 0.704855 0
M  V30 1976 O 188.727 -1.77972 -0.345786 0
M  V30 1977 C 188.775 -1.73102 3.16336 0
M  V30 1978 O 187.879 -2.83422 2.99576 0
M  V30 1979 H 187.22 -0.24857 0.615718 0
M  V30 1980 H 189.75 -0.150649 2.04045 0
M  V30 1981 H 189.76 -2.12803 3.48107 0
M  V30 1982 H 188.435 -1.10412 4.00976 0
M  V30 1983 H 187.012 -2.47199 2.7919 0
M  V30 1984 N 189.197 -1.51736 -0.425897 0
M  V30 1985 C 190.425 -1.68794 -1.1965 0
M  V30 1986 C 190.84 -0.390164 -1.84725 0
M  V30 1987 O 190.197 0.632376 -1.71194 0
M  V30 1988 C 190.248 -2.81174 -2.27208 0
M  V30 1989 O 189.969 -4.05925 -1.64793 0
M  V30 1990 C 191.47 -3.09599 -3.17275 0
M  V30 1991 H 188.69 -0.566128 -0.360194 0
M  V30 1992 H 191.234 -1.98211 -0.503249 0
M  V30 1993 H 189.389 -2.54324 -2.9223 0
M  V30 1994 H 189.803 -4.68423 -2.35967 0
M  V30 1995 H 191.277 -3.91786 -3.88854 0
M  V30 1996 H 191.754 -2.22468 -3.78688 0
M  V30 1997 H 192.36 -3.38151 -2.57941 0
M  V30 1998 N 190.675 0.682077 -1.42076 0
M  V30 1999 C 191.638 1.77756 -1.44691 0
M  V30 2000 C 192.638 1.5726 -0.335535 0
M  V30 2001 O 193.828 1.63686 -0.596037 0
M  V30 2002 C 190.96 3.16301 -1.27146 0
M  V30 2003 H 192.153 1.76826 -2.42224 0
M  V30 2004 H 189.706 0.891012 -1.28416 0
M  V30 2005 H 190.441 3.22862 -0.305075 0
M  V30 2006 H 190.226 3.32581 -2.07683 0
M  V30 2007 H 191.716 3.96241 -1.31843 0
M  V30 2008 N 192.153 1.28127 0.917671 0
M  V30 2009 C 193.43 1.05761 1.64542 0
M  V30 2010 C 193.81 -0.404344 2.07191 0
M  V30 2011 O 193.158 -1.38963 1.81388 0
M  V30 2012 C 193.368 2.02857 2.83989 0
M  V30 2013 C 194.716 2.32786 3.551 0
M  V30 2014 O 195.74 2.0091 2.94132 0
M  V30 2015 O 194.599 2.87169 4.64969 0
M  V30 2016 H 191.693 0.403916 0.721652 0
M  V30 2017 H 194.239 1.39431 0.967322 0
M  V30 2018 H 193.011 3.01407 2.49538 0
M  V30 2019 H 192.634 1.69809 3.59514 0
M  V30 2020 N 193.631 -1.12557 1.10312 0
M  V30 2021 C 194.859 -1.87864 0.866873 0
M  V30 2022 C 195.274 -1.79588 -0.582557 0
M  V30 2023 O 194.631 -1.16887 -1.40156 0
M  V30 2024 C 194.682 -3.37125 1.30496 0
M  V30 2025 O 194.403 -3.45201 2.69755 0
M  V30 2026 C 195.904 -4.29373 1.10243 0
M  V30 2027 H 193.124 -0.594452 0.311236 0
M  V30 2028 H 195.668 -1.42429 1.46745 0
M  V30 2029 H 193.823 -3.80109 0.748081 0
M  V30 2030 H 194.237 -4.38056 2.88457 0
M  V30 2031 H 195.711 -5.32394 1.45811 0
M  V30 2032 H 196.188 -4.39181 0.0409492 0
M  V30 2033 H 196.794 -3.92169 1.64571 0
M  V30 2034 N 195.109 -0.891671 -1.2995 0
M  V30 2035 C 196.355 -0.514261 -1.96171 0
M  V30 2036 C 196.688 0.935506 -1.70182 0
M  V30 2037 O 195.963 1.66204 -1.01028 0
M  V30 2038 C 196.246 -0.797719 -3.51153 0
M  V30 2039 C 196.099 -2.2986 -3.86632 0
M  V30 2040 C 197.418 -0.278749 -4.39216 0
M  V30 2041 H 194.537 -0.188314 -0.712535 0
M  V30 2042 H 197.179 -1.11689 -1.53706 0
M  V30 2043 H 195.329 -0.284826 -3.87455 0
M  V30 2044 H 197.001 -2.88042 -3.60319 0
M  V30 2045 H 195.244 -2.76257 -3.34462 0
M  V30 2046 H 195.915 -2.44753 -4.94773 0
M  V30 2047 H 198.391 -0.717825 -4.09862 0
M  V30 2048 H 197.267 -0.506353 -5.46559 0
M  V30 2049 H 197.528 0.820266 -4.34424 0
M  V30 2050 N 196.587 1.43421 -0.653314 0
M  V30 2051 C 198.003 1.56341 -0.320886 0
M  V30 2052 C 198.203 1.63696 1.17499 0
M  V30 2053 O 197.259 1.59208 1.95982 0
M  V30 2054 C 198.572 2.82424 -1.03233 0
M  V30 2055 C 200.12 2.96168 -1.01259 0
M  V30 2056 C 200.595 4.25084 -1.70492 0
M  V30 2057 N 202.086 4.31948 -1.67257 0
M  V30 2058 C 202.821 5.30466 -2.17701 0
M  V30 2059 N 202.317 6.35261 -2.76434 0
M  V30 2060 N 204.11 5.2212 -2.082 0
M  V30 2061 H 196.261 1.3689 -1.62403 0
M  V30 2062 H 198.524 0.657455 -0.682977 0
M  V30 2063 H 198.23 2.83053 -2.08744 0
M  V30 2064 H 198.104 3.72653 -0.583948 0
M  V30 2065 H 200.491 2.9508 0.0341235 0
M  V30 2066 H 200.572 2.07229 -1.49966 0
M  V30 2067 H 200.216 4.26932 -2.7512 0
M  V30 2068 H 200.146 5.1292 -1.19251 0
M  V30 2069 H 202.637 3.56838 -1.24398 0
M  V30 2070 H 202.95 7.06754 -3.12601 0
M  V30 2071 H 201.295 6.35884 -2.80495 0
M  V30 2072 H 204.486 4.39166 -1.62021 0
M  V30 2073 H 204.659 5.98739 -2.47822 0
M  V30 2074 N 198.065 0.39524 1.52563 0
M  V30 2075 C 199.476 -0.0774719 1.86539 0
M  V30 2076 C 199.827 -1.45641 1.31466 0
M  V30 2077 O 198.952 -2.06459 0.648367 0
M  V30 2078 C 199.547 -0.147356 3.38479 0
M  V30 2079 C 198.106 -0.564373 3.72145 0
M  V30 2080 C 197.253 0.269919 2.75983 0
M  V30 2081 H 200.204 0.612876 1.46388 0
M  V30 2082 H 200.225 -0.965343 3.68051 0
M  V30 2083 H 199.737 0.856387 3.78534 0
M  V30 2084 H 197.838 -1.57527 3.37663 0
M  V30 2085 H 197.951 -0.318402 4.78041 0
M  V30 2086 H 196.315 -0.265696 2.5331 0
M  V30 2087 H 197.098 1.27175 3.18875 0
M  V30 2088 N 199.544 -1.57102 0.125237 0
M  V30 2089 C 200.507 -2.14471 -0.80838 0
M  V30 2090 C 201.507 -1.0811 -1.19033 0
M  V30 2091 O 202.697 -1.33856 -1.11482 0
M  V30 2092 C 199.829 -2.69005 -2.09402 0
M  V30 2093 H 201.022 -2.98297 -0.309696 0
M  V30 2094 H 198.575 -1.55807 -0.124051 0
M  V30 2095 H 199.31 -1.88785 -2.63687 0
M  V30 2096 H 199.095 -3.46799 -1.82957 0
M  V30 2097 H 200.585 -3.13278 -2.76128 0
M  V30 2098 N 201.022 0.148545 -1.56898 0
M  V30 2099 C 201.952 1.18524 -2.01182 0
M  V30 2100 C 202.933 1.4489 -0.891123 0
M  V30 2101 O 204.118 1.55836 -1.15882 0
M  V30 2102 C 201.248 2.51879 -2.39112 0
M  V30 2103 C 200.202 2.40038 -3.54353 0
M  V30 2104 C 199.528 3.78089 -3.78091 0
M  V30 2105 C 200.828 1.88577 -4.87069 0
M  V30 2106 H 202.522 0.817029 -2.88036 0
M  V30 2107 H 200.068 0.391575 -1.38574 0
M  V30 2108 H 202.021 3.24627 -2.68692 0
M  V30 2109 H 200.745 2.90532 -1.49193 0
M  V30 2110 H 199.404 1.69742 -3.24936 0
M  V30 2111 H 199.052 4.14175 -2.85426 0
M  V30 2112 H 198.752 3.71028 -4.55645 0
M  V30 2113 H 200.276 4.52387 -4.10095 0
M  V30 2114 H 201.69 2.51117 -5.15377 0
M  V30 2115 H 200.087 1.9241 -5.68417 0
M  V30 2116 H 201.157 0.84136 -4.77545 0
M  V30 2117 N 202.5 1.5196 0.417844 0
M  V30 2118 C 203.432 1.70895 1.52733 0
M  V30 2119 C 204.445 0.589405 1.51756 0
M  V30 2120 O 205.634 0.864312 1.56179 0
M  V30 2121 C 202.734 1.72627 2.91639 0
M  V30 2122 C 201.907 3.01479 3.16905 0
M  V30 2123 C 200.966 2.95139 4.35637 0
M  V30 2124 O 199.992 3.69059 4.3334 0
M  V30 2125 N 201.194 2.12328 5.40275 0
M  V30 2126 H 203.959 2.66612 1.36888 0
M  V30 2127 H 201.52 1.50089 0.607037 0
M  V30 2128 H 203.512 1.65928 3.6912 0
M  V30 2129 H 202.082 0.844216 3.00985 0
M  V30 2130 H 201.302 3.21895 2.27546 0
M  V30 2131 H 202.59 3.86736 3.30625 0
M  V30 2132 H 201.988 1.51685 5.44985 0
M  V30 2133 H 200.545 2.11494 6.16534 0
M  V30 2134 N 203.978 -0.674533 1.42435 0
M  V30 2135 C 205.227 -1.43034 1.42212 0
M  V30 2136 C 205.54 -1.95555 0.0420788 0
M  V30 2137 O 206.746 -2.71374 -0.0827558 0
M  V30 2138 C 205.202 -2.58748 2.50155 0
M  V30 2139 C 204.81 -2.12925 3.94166 0
M  V30 2140 C 206.554 -3.36257 2.59098 0
M  V30 2141 C 204.461 -3.25723 4.93618 0
M  V30 2142 H 203.391 -0.537345 0.528939 0
M  V30 2143 H 206.042 -0.73024 1.68344 0
M  V30 2144 H 204.424 -3.31128 2.17188 0
M  V30 2145 H 205.598 -1.47697 4.36488 0
M  V30 2146 H 203.913 -1.48354 3.89076 0
M  V30 2147 H 206.51 -4.20264 3.30578 0
M  V30 2148 H 206.853 -3.82866 1.63461 0
M  V30 2149 H 207.386 -2.70947 2.9126 0
M  V30 2150 H 204.125 -2.84105 5.90732 0
M  V30 2151 H 203.645 -3.89732 4.55926 0
M  V30 2152 H 205.324 -3.91186 5.15347 0
M  V30 2153 N 205.456 -1.28612 -0.910864 0
M  V30 2154 C 206.705 -1.15311 -1.65488 0
M  V30 2155 C 207.018 0.296999 -1.93332 0
M  V30 2156 O 208.224 0.551168 -2.65847 0
M  V30 2157 C 206.68 -2.01599 -2.98137 0
M  V30 2158 C 206.288 -3.51367 -2.7793 0
M  V30 2159 C 208.032 -1.96993 -3.76024 0
M  V30 2160 C 205.939 -4.29797 -4.06237 0
M  V30 2161 H 204.869 -0.42796 -0.620779 0
M  V30 2162 H 207.52 -1.53166 -1.01057 0
M  V30 2163 H 205.902 -1.56603 -3.63719 0
M  V30 2164 H 207.076 -4.0434 -2.21011 0
M  V30 2165 H 205.391 -3.57529 -2.13452 0
M  V30 2166 H 207.988 -2.52856 -4.71135 0
M  V30 2167 H 208.331 -0.94733 -4.05378 0
M  V30 2168 H 208.864 -2.39973 -3.17266 0
M  V30 2169 H 205.603 -5.32648 -3.82055 0
M  V30 2170 H 205.123 -3.81596 -4.62757 0
M  V30 2171 H 206.802 -4.39869 -4.74473 0
M  V30 2172 N 206.934 1.1197 -1.10907 0
M  V30 2173 C 207.881 2.17846 -0.762345 0
M  V30 2174 C 208.851 1.63995 0.263599 0
M  V30 2175 O 210.036 1.90273 0.141773 0
M  V30 2176 C 207.176 3.44487 -0.205651 0
M  V30 2177 C 206.289 4.12369 -1.28748 0
M  V30 2178 C 205.424 5.26674 -0.691919 0
M  V30 2179 C 204.463 5.86431 -1.75399 0
M  V30 2180 N 203.6 6.92142 -1.17833 0
M  V30 2181 H 208.44 2.46851 -1.6694 0
M  V30 2182 H 205.977 1.21188 -0.833776 0
M  V30 2183 H 207.935 4.16981 0.135037 0
M  V30 2184 H 206.565 3.15884 0.664613 0
M  V30 2185 H 205.617 3.38003 -1.74522 0
M  V30 2186 H 206.929 4.52844 -2.09125 0
M  V30 2187 H 206.083 6.05953 -0.300963 0
M  V30 2188 H 204.822 4.8749 0.143232 0
M  V30 2189 H 203.827 5.05835 -2.15432 0
M  V30 2190 H 205.052 6.27685 -2.59208 0
M  V30 2191 H 202.998 6.54985 -0.364725 0
M  V30 2192 H 202.915 7.31242 -1.91887 0
M  V30 2193 H 204.183 7.75237 -0.81408 0
M  V30 2194 N 208.412 0.89855 1.29475 0
M  V30 2195 C 209.64 0.539261 1.99749 0
M  V30 2196 C 210.055 -0.875716 1.67262 0
M  V30 2197 O 209.412 -1.57786 0.917049 0
M  V30 2198 C 209.463 0.72061 3.54245 0
M  V30 2199 O 209.184 2.07989 3.8558 0
M  V30 2200 C 210.685 0.366118 4.41786 0
M  V30 2201 H 207.905 0.207047 0.638258 0
M  V30 2202 H 210.449 1.20758 1.65039 0
M  V30 2203 H 208.604 0.0994862 3.87272 0
M  V30 2204 H 209.018 2.10841 4.80257 0
M  V30 2205 H 210.492 0.543848 5.49314 0
M  V30 2206 H 210.969 -0.696763 4.33638 0
M  V30 2207 H 211.575 0.964135 4.14228 0
M  V30 2208 N 209.89 -1.43072 0.660911 0
M  V30 2209 C 210.837 -2.30785 -0.0259884 0
M  V30 2210 C 211.807 -1.45184 -0.806888 0
M  V30 2211 O 212.992 -1.74041 -0.781943 0
M  V30 2212 C 210.132 -3.30861 -0.981067 0
M  V30 2213 C 209.245 -4.31558 -0.195458 0
M  V30 2214 C 208.38 -5.18712 -1.14503 0
M  V30 2215 C 207.419 -6.11097 -0.350299 0
M  V30 2216 N 206.556 -6.90849 -1.25186 0
M  V30 2217 H 211.396 -2.88975 0.727846 0
M  V30 2218 H 208.933 -1.42353 0.370682 0
M  V30 2219 H 210.891 -3.87399 -1.54849 0
M  V30 2220 H 209.521 -2.74304 -1.70169 0
M  V30 2221 H 208.573 -3.77252 0.488374 0
M  V30 2222 H 209.885 -4.9701 0.422176 0
M  V30 2223 H 209.039 -5.79914 -1.78284 0
M  V30 2224 H 207.778 -4.53404 -1.79656 0
M  V30 2225 H 206.783 -5.48976 0.300808 0
M  V30 2226 H 208.008 -6.7845 0.296941 0
M  V30 2227 H 205.954 -6.28182 -1.89005 0
M  V30 2228 H 205.871 -7.52854 -0.688971 0
M  V30 2229 H 207.139 -7.5655 -1.87757 0
M  V30 2230 N 211.368 -0.403325 -1.52352 0
M  V30 2231 C 212.278 0.432009 -2.30588 0
M  V30 2232 C 213.294 1.05884 -1.38075 0
M  V30 2233 O 214.47 1.06161 -1.71148 0
M  V30 2234 C 211.535 1.53669 -3.10784 0
M  V30 2235 C 210.596 0.933525 -4.19027 0
M  V30 2236 C 209.829 1.98557 -4.9539 0
M  V30 2237 O 210.052 3.20283 -4.71991 0
M  V30 2238 O 208.986 1.59504 -5.80381 0
M  V30 2239 H 212.812 -0.205739 -3.03002 0
M  V30 2240 H 210.397 -0.166675 -1.48467 0
M  V30 2241 H 212.279 2.17814 -3.60742 0
M  V30 2242 H 210.954 2.15915 -2.41169 0
M  V30 2243 H 209.861 0.254954 -3.7323 0
M  V30 2244 H 211.194 0.35508 -4.90918 0
M  V30 2245 N 212.846 1.57033 -0.133567 0
M  V30 2246 C 214.094 1.953 0.519848 0
M  V30 2247 C 214.415 1.01866 1.66278 0
M  V30 2248 O 213.685 0.0776513 1.95746 0
M  V30 2249 H 212.265 0.721091 0.195032 0
M  V30 2250 H 214.927 1.93809 -0.205921 0
M  V30 2251 H 214.023 2.98695 0.904854 0
M  V30 2252 N 214.325 -0.140222 1.56975 0
M  V30 2253 C 215.571 -0.852949 1.83991 0
M  V30 2254 C 215.904 -1.80512 0.716187 0
M  V30 2255 O 215.179 -1.92479 -0.279681 0
M  V30 2256 C 215.462 -1.6215 3.21527 0
M  V30 2257 C 215.315 -0.690363 4.4447 0
M  V30 2258 C 216.634 -2.58247 3.56366 0
M  V30 2259 H 213.753 -0.308634 0.669264 0
M  V30 2260 H 216.395 -0.117898 1.89634 0
M  V30 2261 H 214.545 -2.24812 3.16847 0
M  V30 2262 H 216.217 -0.0742264 4.6124 0
M  V30 2263 H 214.46 -0.000396433 4.338 0
M  V30 2264 H 215.131 -1.2643 5.37326 0
M  V30 2265 H 217.607 -2.05701 3.61699 0
M  V30 2266 H 216.483 -3.09067 4.53617 0
M  V30 2267 H 216.744 -3.39923 2.82674 0
M  V30 2268 N 215.803 -1.52179 -0.40978 0
M  V30 2269 C 216.75 -1.75475 -1.49924 0
M  V30 2270 C 217.72 -0.597175 -1.54994 0
M  V30 2271 O 218.905 -0.834655 -1.71575 0
M  V30 2272 C 216.045 -1.9107 -2.87378 0
M  V30 2273 C 215.158 -3.18717 -2.91622 0
M  V30 2274 C 214.293 -3.24747 -4.20372 0
M  V30 2275 C 213.332 -4.46598 -4.18588 0
M  V30 2276 N 212.469 -4.50025 -5.38908 0
M  V30 2277 H 217.309 -2.68458 -1.29361 0
M  V30 2278 H 214.846 -1.33024 -0.627934 0
M  V30 2279 H 216.804 -1.98096 -3.6717 0
M  V30 2280 H 215.434 -1.01469 -3.06437 0
M  V30 2281 H 214.486 -3.20866 -2.04326 0
M  V30 2282 H 215.798 -4.08544 -2.86169 0
M  V30 2283 H 214.952 -3.30841 -5.08556 0
M  V30 2284 H 213.691 -2.32857 -4.28519 0
M  V30 2285 H 212.696 -4.40652 -3.28794 0
M  V30 2286 H 213.921 -5.39783 -4.12081 0
M  V30 2287 H 211.867 -3.61017 -5.47725 0
M  V30 2288 H 211.784 -5.33697 -5.35447 0
M  V30 2289 H 213.052 -4.60347 -6.29048 0
M  V30 2290 N 217.281 0.66697 -1.42791 0
M  V30 2291 C 218.228 1.7803 -1.4688 0
M  V30 2292 C 219.198 1.6299 -0.319919 0
M  V30 2293 O 220.383 1.83432 -0.525118 0
M  V30 2294 C 217.523 3.1611 -1.38451 0
M  V30 2295 C 216.636 3.42381 -2.63437 0
M  V30 2296 C 215.771 4.70232 -2.47094 0
M  V30 2297 C 214.81 4.89564 -3.67415 0
M  V30 2298 N 213.947 6.08661 -3.49966 0
M  V30 2299 H 218.787 1.7387 -2.42019 0
M  V30 2300 H 216.324 0.84868 -1.20149 0
M  V30 2301 H 218.282 3.95914 -1.31561 0
M  V30 2302 H 216.912 3.19374 -0.469033 0
M  V30 2303 H 215.964 2.56774 -2.80662 0
M  V30 2304 H 217.276 3.52557 -3.52853 0
M  V30 2305 H 216.43 5.5814 -2.37834 0
M  V30 2306 H 215.169 4.62353 -1.5518 0
M  V30 2307 H 214.174 4.00096 -3.77099 0
M  V30 2308 H 215.399 4.99282 -4.6032 0
M  V30 2309 H 213.345 6.0194 -2.60776 0
M  V30 2310 H 213.262 6.19733 -4.32975 0
M  V30 2311 H 214.53 6.99226 -3.44532 0
M  V30 2312 N 218.759 1.29093 0.90403 0
M  V30 2313 C 219.987 1.19689 1.68766 0
M  V30 2314 C 220.402 -0.243113 1.87228 0
M  V30 2315 O 219.759 -1.16326 1.40621 0
M  V30 2316 C 219.81 1.90144 3.07453 0
M  V30 2317 O 219.531 3.2852 2.89838 0
M  V30 2318 C 221.032 1.87162 4.01852 0
M  V30 2319 H 218.252 0.415035 0.527244 0
M  V30 2320 H 220.796 1.7039 1.13082 0
M  V30 2321 H 218.951 1.43289 3.59926 0
M  V30 2322 H 219.365 3.63944 3.77684 0
M  V30 2323 H 220.839 2.41032 4.96596 0
M  V30 2324 H 221.316 0.84617 4.30972 0
M  V30 2325 H 221.922 2.33741 3.5531 0
M  V30 2326 N 220.237 -1.11381 1.11499 0
M  V30 2327 C 221.462 -1.87475 0.887019 0
M  V30 2328 C 221.887 -1.79639 -0.557796 0
M  V30 2329 O 221.245 -1.15924 -1.39396 0
M  V30 2330 C 221.293 -3.34213 1.35403 0
M  V30 2331 O 220.397 -4.0903 0.526146 0
M  V30 2332 H 219.738 -0.582099 0.319463 0
M  V30 2333 H 222.268 -1.40785 1.48461 0
M  V30 2334 H 222.278 -3.8506 1.34881 0
M  V30 2335 H 220.953 -3.39232 2.40612 0
M  V30 2336 H 219.53 -3.68082 0.597522 0
M  V30 2337 N 221.715 -0.905404 -1.28997 0
M  V30 2338 C 222.963 -0.533192 -1.9494 0
M  V30 2339 C 223.284 0.924618 -1.71685 0
M  V30 2340 O 222.554 1.65268 -1.05183 0
M  V30 2341 H 221.134 -0.194194 -0.721317 0
M  V30 2342 H 223.796 -1.15294 -1.57141 0
M  V30 2343 H 222.892 -0.72059 -3.03667 0
M  V30 2344 N 223.193 1.4272 -0.668489 0
M  V30 2345 C 224.439 2.01923 -0.188419 0
M  V30 2346 C 224.772 1.52704 1.19979 0
M  V30 2347 O 224.047 0.726566 1.8042 0
M  V30 2348 C 224.33 3.59451 -0.216085 0
M  V30 2349 C 224.183 4.18864 -1.6393 0
M  V30 2350 C 225.502 4.37903 0.439179 0
M  V30 2351 H 222.621 0.733674 -0.0699412 0
M  V30 2352 H 225.263 1.69822 -0.852076 0
M  V30 2353 H 223.413 3.86929 0.349012 0
M  V30 2354 H 225.085 4.02362 -2.25616 0
M  V30 2355 H 223.328 3.74933 -2.18193 0
M  V30 2356 H 223.999 5.27987 -1.61039 0
M  V30 2357 H 226.475 4.16079 -0.0417878 0
M  V30 2358 H 225.351 5.47519 0.389157 0
M  V30 2359 H 225.612 4.15303 1.51577 0
M  V30 2360 N 224.671 0.411399 1.52136 0
M  V30 2361 C 225.918 -0.163645 2.01838 0
M  V30 2362 C 226.246 -1.4495 1.29691 0
M  V30 2363 O 225.501 -1.91725 0.392431 0
M  V30 2364 C 225.8 -0.455872 3.54481 0
M  V30 2365 C 225.466 0.741055 4.44769 0
M  V30 2366 C 224.128 1.06936 4.69167 0
M  V30 2367 C 226.48 1.54075 4.97906 0
M  V30 2368 C 223.808 2.19851 5.43951 0
M  V30 2369 C 226.16 2.66067 5.73926 0
M  V30 2370 C 224.824 2.99381 5.96596 0
M  V30 2371 H 224.094 -0.0598821 0.738576 0
M  V30 2372 H 226.741 0.553283 1.83333 0
M  V30 2373 H 225.046 -1.2544 3.71177 0
M  V30 2374 H 226.743 -0.913802 3.90449 0
M  V30 2375 H 223.333 0.475192 4.25958 0
M  V30 2376 H 227.517 1.30033 4.78963 0
M  V30 2377 H 222.773 2.46006 5.59724 0
M  V30 2378 H 226.947 3.28419 6.14096 0
M  V30 2379 H 224.574 3.86992 6.54325 0
M  V30 2380 N 226.149 -1.5696 0.141893 0
M  V30 2381 C 227.398 -1.95135 -0.510427 0
M  V30 2382 C 227.711 -1.02896 -1.66348 0
M  V30 2383 O 228.917 -1.30629 -2.38009 0
M  V30 2384 C 227.373 -3.46876 -0.959427 0
M  V30 2385 C 226.981 -4.47691 0.166419 0
M  V30 2386 C 228.725 -3.93927 -1.58183 0
M  V30 2387 C 226.632 -5.90636 -0.300565 0
M  V30 2388 H 225.562 -0.728494 -0.194454 0
M  V30 2389 H 228.213 -1.8211 0.22542 0
M  V30 2390 H 226.595 -3.55215 -1.75038 0
M  V30 2391 H 227.769 -4.51043 0.94325 0
M  V30 2392 H 226.084 -4.10527 0.696905 0
M  V30 2393 H 228.681 -4.98158 -1.94275 0
M  V30 2394 H 229.024 -3.3519 -2.46888 0
M  V30 2395 H 229.557 -3.88484 -0.855863 0
M  V30 2396 H 226.296 -6.5318 0.550989 0
M  V30 2397 H 225.816 -5.90655 -1.04338 0
M  V30 2398 H 227.495 -6.42588 -0.754265 0
M  V30 2399 N 227.627 0.131896 -1.57047 0
M  V30 2400 C 228.56 1.19236 -1.94571 0
M  V30 2401 C 229.538 1.40782 -0.813576 0
M  V30 2402 O 230.722 1.55148 -1.07058 0
M  V30 2403 C 227.849 2.54858 -2.23081 0
M  V30 2404 C 226.895 2.49817 -3.45679 0
M  V30 2405 S 227.728 1.95036 -4.98719 0
M  V30 2406 C 228.884 3.32357 -5.30367 0
M  V30 2407 H 229.117 0.872297 -2.84215 0
M  V30 2408 H 226.65 0.338134 -1.50652 0
M  V30 2409 H 228.608 3.32898 -2.40185 0
M  V30 2410 H 227.269 2.84047 -1.34074 0
M  V30 2411 H 226.462 3.49688 -3.62952 0
M  V30 2412 H 226.064 1.79892 -3.27895 0
M  V30 2413 H 228.356 4.28525 -5.2476 0
M  V30 2414 H 229.299 3.19923 -6.31708 0
M  V30 2415 H 229.707 3.3019 -4.57859 0
M  V30 2416 N 229.106 1.52395 0.401703 0
M  V30 2417 C 230.069 1.75636 1.47257 0
M  V30 2418 C 231.069 0.62628 1.48103 0
M  V30 2419 O 232.259 0.894227 1.49497 0
M  V30 2420 C 229.391 1.84553 2.86624 0
M  V30 2421 H 230.584 2.71241 1.27938 0
M  V30 2422 H 228.137 1.42923 0.632662 0
M  V30 2423 H 228.872 0.908882 3.11303 0
M  V30 2424 H 228.657 2.66715 2.87412 0
M  V30 2425 H 230.147 2.04251 3.64241 0
M  V30 2426 N 230.584 -0.659388 1.43143 0
M  V30 2427 C 232 -0.974337 1.26407 0
M  V30 2428 C 232.2 -2.007 0.179341 0
M  V30 2429 O 231.256 -2.4856 -0.444295 0
M  V30 2430 C 232.569 -1.46447 2.62628 0
M  V30 2431 C 234.117 -1.58144 2.7011 0
M  V30 2432 C 234.592 -2.1055 4.06734 0
M  V30 2433 N 236.083 -2.17861 4.08767 0
M  V30 2434 C 236.818 -2.59519 5.1131 0
M  V30 2435 N 236.314 -3.00518 6.24228 0
M  V30 2436 N 238.107 -2.59404 4.98664 0
M  V30 2437 H 230.258 0.0240528 2.12386 0
M  V30 2438 H 232.521 -0.0518065 0.946583 0
M  V30 2439 H 232.227 -0.780123 3.42939 0
M  V30 2440 H 232.101 -2.44058 2.87603 0
M  V30 2441 H 234.488 -2.25682 1.90136 0
M  V30 2442 H 234.569 -0.589828 2.48907 0
M  V30 2443 H 234.213 -1.43616 4.87172 0
M  V30 2444 H 234.143 -3.10531 4.25298 0
M  V30 2445 H 236.634 -1.88975 3.27257 0
M  V30 2446 H 236.947 -3.31036 6.98309 0
M  V30 2447 H 235.292 -2.98337 6.2771 0
M  V30 2448 H 238.483 -2.26747 4.09516 0
M  V30 2449 H 238.656 -2.91548 5.78709 0
M  V30 2450 N 232.062 -1.29571 -0.897171 0
M  V30 2451 C 233.31 -1.17456 -1.64464 0
M  V30 2452 C 233.631 0.273698 -1.9307 0
M  V30 2453 O 232.901 1.18684 -1.55855 0
M  V30 2454 H 231.481 -0.431706 -0.609622 0
M  V30 2455 H 234.143 -1.62531 -1.07562 0
M  V30 2456 H 233.239 -1.72648 -2.59998 0
M  V30 2457 N 233.54 1.10788 -1.12088 0
M  V30 2458 C 234.45 2.20599 -0.798338 0
M  V30 2459 C 235.466 1.72712 0.21135 0
M  V30 2460 O 236.642 2.01348 0.0458477 0
M  V30 2461 C 233.707 3.45771 -0.253674 0
M  V30 2462 C 232.768 4.08411 -1.32283 0
M  V30 2463 C 232.001 5.27608 -0.80406 0
M  V30 2464 O 232.224 5.69241 0.363478 0
M  V30 2465 O 231.158 5.8101 -1.57198 0
M  V30 2466 H 234.984 2.50614 -1.7154 0
M  V30 2467 H 232.569 1.19454 -0.897275 0
M  V30 2468 H 234.451 4.21376 0.0453691 0
M  V30 2469 H 233.126 3.1739 0.636005 0
M  V30 2470 H 232.033 3.34507 -1.67499 0
M  V30 2471 H 233.366 4.40986 -2.18614 0
M  V30 2472 N 235.018 0.912232 1.28515 0
M  V30 2473 C 235.928 0.404506 2.31086 0
M  V30 2474 C 236.944 -0.50707 1.66448 0
M  V30 2475 O 238.12 -0.393624 1.97516 0
M  V30 2476 C 235.185 -0.348572 3.44943 0
M  V30 2477 C 234.246 0.59604 4.25142 0
M  V30 2478 C 233.479 -0.121194 5.33562 0
M  V30 2479 O 233.702 -1.34317 5.5436 0
M  V30 2480 O 232.636 0.542716 5.99448 0
M  V30 2481 H 236.462 1.25579 2.76521 0
M  V30 2482 H 234.047 0.676998 1.33181 0
M  V30 2483 H 235.929 -0.77395 4.14232 0
M  V30 2484 H 234.604 -1.17571 3.01594 0
M  V30 2485 H 233.511 1.07079 3.58448 0
M  V30 2486 H 234.844 1.38995 4.72167 0
M  V30 2487 N 236.496 -1.42363 0.676048 0
M  V30 2488 C 237.428 -2.29164 -0.0404605 0
M  V30 2489 C 238.441 -1.43747 -0.764245 0
M  V30 2490 O 239.63 -1.67453 -0.618195 0
M  V30 2491 C 236.73 -3.21196 -1.08103 0
M  V30 2492 C 235.903 -4.35273 -0.430812 0
M  V30 2493 C 234.962 -5.08017 -1.37133 0
M  V30 2494 O 233.988 -5.62494 -0.87116 0
M  V30 2495 N 235.19 -5.13647 -2.70456 0
M  V30 2496 H 237.955 -2.91298 0.704667 0
M  V30 2497 H 235.516 -1.53303 0.520559 0
M  V30 2498 H 237.508 -3.66728 -1.71152 0
M  V30 2499 H 236.078 -2.60505 -1.72788 0
M  V30 2500 H 235.298 -3.92372 0.379209 0
M  V30 2501 H 236.586 -5.08795 0.0221132 0
M  V30 2502 H 235.984 -4.708 -3.1363 0
M  V30 2503 H 234.541 -5.62821 -3.28749 0
M  V30 2504 N 237.974 -0.419461 -1.51915 0
M  V30 2505 C 239.204 0.151915 -2.06041 0
M  V30 2506 C 239.612 1.38539 -1.28855 0
M  V30 2507 O 238.955 1.80592 -0.336463 0
M  V30 2508 C 239.017 0.557119 -3.55157 0
M  V30 2509 C 238.681 -0.567054 -4.53468 0
M  V30 2510 C 239.678 -1.43379 -4.99738 0
M  V30 2511 C 237.363 -0.742693 -4.96779 0
M  V30 2512 C 239.357 -2.46102 -5.87973 0
M  V30 2513 C 237.044 -1.77322 -5.84808 0
M  V30 2514 C 238.042 -2.63078 -6.30301 0
M  V30 2515 O 237.73 -3.64364 -7.16585 0
M  V30 2516 H 237.462 0.0193293 -0.675724 0
M  V30 2517 H 240.016 -0.592073 -1.96682 0
M  V30 2518 H 238.246 1.35355 -3.62238 0
M  V30 2519 H 239.935 1.05759 -3.9188 0
M  V30 2520 H 240.701 -1.30954 -4.66986 0
M  V30 2521 H 236.58 -0.0848307 -4.60922 0
M  V30 2522 H 240.124 -3.13071 -6.23404 0
M  V30 2523 H 236.021 -1.89773 -6.16974 0
M  V30 2524 H 236.789 -3.60731 -7.34721 0
M  V30 2525 N 239.452 1.56882 -0.150215 0
M  V30 2526 C 240.698 1.96518 0.500834 0
M  V30 2527 C 241.031 1.03527 1.64304 0
M  V30 2528 O 240.306 0.0782751 1.94342 0
M  V30 2529 C 240.589 3.45822 1.00395 0
M  V30 2530 C 240.442 4.49591 -0.136983 0
M  V30 2531 C 241.761 3.97704 1.88467 0
M  V30 2532 H 238.88 0.714535 0.18058 0
M  V30 2533 H 241.522 1.88577 -0.232091 0
M  V30 2534 H 239.672 3.5272 1.62851 0
M  V30 2535 H 241.344 4.5477 -0.77343 0
M  V30 2536 H 239.587 4.26441 -0.795652 0
M  V30 2537 H 240.258 5.51402 0.256815 0
M  V30 2538 H 242.734 3.93304 1.35834 0
M  V30 2539 H 241.61 5.0263 2.20578 0
M  V30 2540 H 241.871 3.40252 2.82279 0
M  V30 2541 N 240.93 -0.123565 1.57115 0
M  V30 2542 C 242.177 -0.832153 1.84612 0
M  V30 2543 C 242.505 -1.80093 0.734627 0
M  V30 2544 O 241.76 -1.93766 -0.27442 0
M  V30 2545 C 242.059 -1.62016 3.18568 0
M  V30 2546 C 241.725 -0.796084 4.43817 0
M  V30 2547 C 240.387 -0.568816 4.77826 0
M  V30 2548 C 242.739 -0.221364 5.2073 0
M  V30 2549 C 240.067 0.243499 5.86194 0
M  V30 2550 C 242.419 0.578117 6.29953 0
M  V30 2551 C 241.083 0.815744 6.62497 0
M  V30 2552 H 240.353 -0.304507 0.675542 0
M  V30 2553 H 243 -0.0947248 1.91266 0
M  V30 2554 H 241.305 -2.42837 3.0747 0
M  V30 2555 H 243.002 -2.17231 3.37064 0
M  V30 2556 H 239.592 -0.983307 4.17168 0
M  V30 2557 H 243.776 -0.384173 4.94811 0
M  V30 2558 H 239.032 0.436871 6.09837 0
M  V30 2559 H 243.206 1.03046 6.88734 0
M  V30 2560 H 240.833 1.44701 7.46301 0
M  V30 2561 N 242.408 -1.52605 -0.393616 0
M  V30 2562 C 243.371 -1.76415 -1.46323 0
M  V30 2563 C 244.371 -0.634126 -1.47768 0
M  V30 2564 O 245.561 -0.902142 -1.4902 0
M  V30 2565 C 242.693 -1.8607 -2.85641 0
M  V30 2566 H 243.886 -2.71916 -1.26498 0
M  V30 2567 H 241.439 -1.43257 -0.625073 0
M  V30 2568 H 242.174 -0.925378 -3.10817 0
M  V30 2569 H 241.959 -2.68235 -2.85993 0
M  V30 2570 H 243.449 -2.06179 -3.63153 0
M  V30 2571 N 243.887 0.651787 -1.4349 0
M  V30 2572 C 245.164 1.40909 -1.35661 0
M  V30 2573 C 245.544 2.11099 -0.00511733 0
M  V30 2574 O 244.892 2.04892 1.0115 0
M  V30 2575 C 245.102 2.3926 -2.54078 0
M  V30 2576 C 246.45 3.03217 -2.97228 0
M  V30 2577 O 247.474 2.49588 -2.54135 0
M  V30 2578 O 246.333 4.00455 -3.71885 0
M  V30 2579 H 243.427 0.629625 -0.536191 0
M  V30 2580 H 245.973 0.678575 -1.55542 0
M  V30 2581 H 244.745 1.86352 -3.44076 0
M  V30 2582 H 244.368 3.1976 -2.36303 0
M  V30 2583 N 245.365 1.30045 0.890287 0
M  V30 2584 C 246.605 1.19839 1.65584 0
M  V30 2585 C 246.969 -0.244175 1.90441 0
M  V30 2586 O 248.17 -0.469378 2.6467 0
M  V30 2587 C 246.441 1.99876 2.96284 0
M  V30 2588 S 248 2.06309 3.87275 0
M  V30 2589 H 244.818 0.427157 0.568382 0
M  V30 2590 H 247.42 1.64453 1.05715 0
M  V30 2591 H 246.124 3.03809 2.75913 0
M  V30 2592 H 245.655 1.55903 3.61189 0
M  V30 2593 H 247.67 1.18661 4.81803 0
M  V30 2594 N 246.843 -1.10192 1.12674 0
M  V30 2595 C 247.806 -2.14786 0.799979 0
M  V30 2596 C 248.806 -1.59711 -0.18685 0
M  V30 2597 O 249.996 -1.74156 0.0392558 0
M  V30 2598 C 247.128 -3.40374 0.189228 0
M  V30 2599 H 248.321 -2.45203 1.72671 0
M  V30 2600 H 245.874 -1.25597 0.930326 0
M  V30 2601 H 246.609 -3.15577 -0.747107 0
M  V30 2602 H 246.394 -3.81637 0.899766 0
M  V30 2603 H 247.884 -4.17594 -0.0228143 0
M  V30 2604 N 248.321 -0.919034 -1.28029 0
M  V30 2605 C 249.57 -0.550802 -1.94034 0
M  V30 2606 C 249.883 0.910877 -1.73096 0
M  V30 2607 O 251.089 1.3875 -2.33368 0
M  V30 2608 C 249.545 -0.934249 -3.47563 0
M  V30 2609 C 249.153 -2.41602 -3.7727 0
M  V30 2610 C 250.897 -0.636854 -4.19696 0
M  V30 2611 C 248.804 -2.73932 -5.24133 0
M  V30 2612 H 247.734 -0.202273 -0.726362 0
M  V30 2613 H 250.385 -1.11867 -1.45458 0
M  V30 2614 H 248.767 -0.295115 -3.94899 0
M  V30 2615 H 249.941 -3.10233 -3.40723 0
M  V30 2616 H 248.256 -2.68441 -3.18321 0
M  V30 2617 H 250.853 -0.855005 -5.2782 0
M  V30 2618 H 251.196 0.425575 -4.14119 0
M  V30 2619 H 251.729 -1.23469 -3.78154 0
M  V30 2620 H 248.468 -3.79049 -5.34792 0
M  V30 2621 H 247.988 -2.09942 -5.61858 0
M  V30 2622 H 249.667 -2.61215 -5.91925 0
M  V30 2623 N 249.799 1.42003 -0.683588 0
M  V30 2624 C 250.747 2.326 0.000815408 0
M  V30 2625 C 251.741 1.50308 0.781278 0
M  V30 2626 O 252.947 1.66322 0.688251 0
M  V30 2627 H 249.322 0.751758 0.0190616 0
M  V30 2628 H 251.293 2.88011 -0.780528 0
M  V30 2629 C 250.042 3.34978 0.93195 0
M  V30 2630 H 249.365 3.98345 0.340817 0
M  V30 2631 H 250.805 4.00936 1.37936 0
M  V30 2632 C 249.264 2.67925 2.04249 0
M  V30 2633 O 249.794 2.51788 3.12995 0
M  V30 2634 N 248 2.2681 1.81675 0
M  V30 2635 H 247.547 2.40135 0.932363 0
M  V30 2636 H 247.505 1.8228 2.56167 0
M  V30 2637 N 251.277 0.427512 1.51691 0
M  V30 2638 C 252.526 -0.143679 2.01188 0
M  V30 2639 C 252.839 -1.44642 1.31674 0
M  V30 2640 O 254.045 -2.09997 1.72086 0
M  V30 2641 C 252.501 -0.306602 3.58592 0
M  V30 2642 C 252.109 0.985125 4.37035 0
M  V30 2643 C 253.853 -0.832091 4.16265 0
M  V30 2644 C 251.76 0.788382 5.86122 0
M  V30 2645 H 250.69 -0.0574701 0.751807 0
M  V30 2646 H 253.341 0.555772 1.74881 0
M  V30 2647 H 251.723 -1.06882 3.81303 0
M  V30 2648 H 252.897 1.75492 4.26074 0
M  V30 2649 H 251.212 1.4384 3.90767 0
M  V30 2650 H 253.809 -0.995617 5.25349 0
M  V30 2651 H 254.152 -1.81186 3.74803 0
M  V30 2652 H 254.685 -0.128444 3.97593 0
M  V30 2653 H 251.424 1.74025 6.31978 0
M  V30 2654 H 250.944 0.0582143 5.99772 0
M  V30 2655 H 252.623 0.437722 6.45518 0
M  V30 2656 N 252.755 -1.56801 0.158532 0
M  V30 2657 C 253.718 -2.16138 -0.762705 0
M  V30 2658 C 254.718 -1.1061 -1.16713 0
M  V30 2659 O 255.908 -1.36191 -1.08617 0
M  V30 2660 C 253.04 -2.73386 -2.03649 0
M  V30 2661 H 254.233 -2.98886 -0.246354 0
M  V30 2662 H 251.786 -1.56035 -0.0909744 0
M  V30 2663 H 252.521 -1.94335 -2.59623 0
M  V30 2664 H 252.306 -3.50601 -1.75559 0
M  V30 2665 H 253.796 -3.19065 -2.6942 0
M  V30 2666 N 254.233 0.115231 -1.57178 0
M  V30 2667 C 255.644 0.67197 -1.74188 0
M  V30 2668 C 255.995 1.80125 -0.777777 0
M  V30 2669 O 255.12 2.16346 0.0484376 0
M  V30 2670 C 255.715 1.22573 -3.1585 0
M  V30 2671 C 254.274 1.72872 -3.34353 0
M  V30 2672 C 253.421 0.629972 -2.70049 0
M  V30 2673 H 256.372 -0.110712 -1.58313 0
M  V30 2674 H 256.393 2.09535 -3.17609 0
M  V30 2675 H 255.905 0.403598 -3.85996 0
M  V30 2676 H 254.006 2.5755 -2.69256 0
M  V30 2677 H 254.119 1.83557 -4.42542 0
M  V30 2678 H 252.483 1.0645 -2.31388 0
M  V30 2679 H 253.266 -0.181241 -3.42821 0
M  V30 2680 N 255.711 1.52812 0.385517 0
M  V30 2681 C 256.988 1.5861 1.14465 0
M  V30 2682 C 257.368 0.381402 2.07626 0
M  V30 2683 O 256.716 -0.629999 2.19643 0
M  V30 2684 C 256.926 2.92664 1.90128 0
M  V30 2685 C 258.274 3.46526 2.45367 0
M  V30 2686 O 259.298 2.94562 2.0028 0
M  V30 2687 O 258.157 4.37323 3.27736 0
M  V30 2688 H 255.251 0.639855 0.523941 0
M  V30 2689 H 257.797 1.65149 0.390389 0
M  V30 2690 H 256.569 3.71788 1.22022 0
M  V30 2691 H 256.192 2.89527 2.72507 0
M  V30 2692 N 257.189 -0.644168 1.43834 0
M  V30 2693 C 258.414 -1.43642 1.49605 0
M  V30 2694 C 258.839 -1.8773 0.117913 0
M  V30 2695 O 258.197 -1.57938 -0.890239 0
M  V30 2696 C 258.245 -2.6416 2.45463 0
M  V30 2697 O 257.349 -3.63538 1.94714 0
M  V30 2698 H 256.69 -0.430329 0.50568 0
M  V30 2699 H 259.22 -0.787448 1.8884 0
M  V30 2700 H 259.23 -3.11864 2.63068 0
M  V30 2701 H 257.905 -2.31414 3.45572 0
M  V30 2702 H 256.482 -3.2273 1.86814 0
M  V30 2703 N 258.668 -1.30515 -0.883378 0
M  V30 2704 C 259.6 -1.12846 -1.99496 0
M  V30 2705 C 260.613 -0.0712571 -1.62644 0
M  V30 2706 O 261.802 -0.317432 -1.75655 0
M  V30 2707 C 258.902 -0.699123 -3.3161 0
M  V30 2708 C 258.075 -1.83842 -3.96889 0
M  V30 2709 C 257.134 -1.39737 -5.07307 0
M  V30 2710 O 256.16 -2.10485 -5.28852 0
M  V30 2711 N 257.362 -0.277279 -5.79837 0
M  V30 2712 H 260.127 -2.08585 -2.15203 0
M  V30 2713 H 257.688 -1.22672 -1.05656 0
M  V30 2714 H 259.68 -0.387044 -4.02845 0
M  V30 2715 H 258.25 0.166276 -3.12157 0
M  V30 2716 H 257.47 -2.31853 -3.18807 0
M  V30 2717 H 258.758 -2.60187 -4.37241 0
M  V30 2718 H 258.156 0.3122 -5.64838 0
M  V30 2719 H 256.713 -0.0246623 -6.51795 0
M  V30 2720 N 260.146 1.09593 -1.13257 0
M  V30 2721 C 261.423 1.78293 -0.804432 0
M  V30 2722 C 261.803 1.99004 0.70431 0
M  V30 2723 O 261.151 1.59007 1.641 0
M  V30 2724 C 261.361 3.10707 -1.5894 0
M  V30 2725 C 262.709 3.85443 -1.78099 0
M  V30 2726 O 263.733 3.20454 -1.55525 0
M  V30 2727 O 262.592 5.02108 -2.15753 0
M  V30 2728 H 259.686 0.773156 -0.293528 0
M  V30 2729 H 262.232 1.16164 -1.23709 0
M  V30 2730 H 261.004 2.91106 -2.61482 0
M  V30 2731 H 260.627 3.80558 -1.15157 0
M  V30 2732 N 261.624 0.925811 1.2754 0
M  V30 2733 C 262.554 0.440748 2.29303 0
M  V30 2734 C 263.535 -0.497971 1.62648 0
M  V30 2735 O 264.72 -0.403126 1.8997 0
M  V30 2736 C 261.85 -0.309048 3.45922 0
M  V30 2737 C 260.804 0.54166 4.24559 0
M  V30 2738 C 260.13 -0.337191 5.33636 0
M  V30 2739 C 261.43 1.80516 4.90114 0
M  V30 2740 H 263.124 1.29121 2.70126 0
M  V30 2741 H 260.67 0.622323 1.29858 0
M  V30 2742 H 262.623 -0.659315 4.1621 0
M  V30 2743 H 261.347 -1.19352 3.04011 0
M  V30 2744 H 260.006 0.874609 3.56014 0
M  V30 2745 H 259.654 -1.22056 4.87966 0
M  V30 2746 H 259.354 0.228497 5.87156 0
M  V30 2747 H 260.878 -0.683072 6.06767 0
M  V30 2748 H 262.292 1.52307 5.52698 0
M  V30 2749 H 260.689 2.3142 5.53683 0
M  V30 2750 H 261.759 2.52581 4.13921 0
M  V30 2751 N 263.102 -1.41638 0.69111 0
M  V30 2752 C 264.065 -2.29178 0.0319786 0
M  V30 2753 C 265.065 -1.44153 -0.712496 0
M  V30 2754 O 266.255 -1.65354 -0.548053 0
M  V30 2755 C 263.387 -3.26952 -0.965161 0
M  V30 2756 H 264.58 -2.88959 0.802681 0
M  V30 2757 H 262.133 -1.4955 0.454356 0
M  V30 2758 H 262.868 -2.72142 -1.76378 0
M  V30 2759 H 262.653 -3.89685 -0.434522 0
M  V30 2760 H 264.143 -3.92561 -1.42428 0
M  V30 2761 N 264.58 -0.43555 -1.51462 0
M  V30 2762 C 265.49 0.383001 -2.31453 0
M  V30 2763 C 266.506 1.02931 -1.4029 0
M  V30 2764 O 267.682 1.02507 -1.73362 0
M  V30 2765 C 264.747 1.47043 -3.13973 0
M  V30 2766 C 263.808 0.844433 -4.20913 0
M  V30 2767 C 263.041 1.88004 -4.9949 0
M  V30 2768 O 263.264 3.10199 -4.78678 0
M  V30 2769 O 262.198 1.47157 -5.83634 0
M  V30 2770 H 266.024 -0.269964 -3.02498 0
M  V30 2771 H 263.609 -0.19813 -1.4808 0
M  V30 2772 H 265.491 2.10113 -3.65281 0
M  V30 2773 H 264.166 2.10751 -2.45695 0
M  V30 2774 H 263.073 0.175729 -3.73687 0
M  V30 2775 H 264.406 0.250869 -4.9156 0
M  V30 2776 N 266.058 1.56714 -0.166846 0
M  V30 2777 C 267.307 1.95922 0.479318 0
M  V30 2778 C 267.62 1.05529 1.6469 0
M  V30 2779 O 268.826 1.34399 2.35901 0
M  V30 2780 C 267.282 3.48359 0.90412 0
M  V30 2781 C 266.89 4.47369 -0.237621 0
M  V30 2782 C 268.634 3.96394 1.51896 0
M  V30 2783 C 266.541 5.91039 0.206561 0
M  V30 2784 H 265.471 0.731495 0.18284 0
M  V30 2785 H 268.122 1.81728 -0.254363 0
M  V30 2786 H 266.504 3.57955 1.69365 0
M  V30 2787 H 267.678 4.49485 -1.01489 0
M  V30 2788 H 265.993 4.09366 -0.762128 0
M  V30 2789 H 268.59 5.01186 1.86325 0
M  V30 2790 H 268.933 3.39075 2.41524 0
M  V30 2791 H 269.466 3.89796 0.79395 0
M  V30 2792 H 266.205 6.52221 -0.654834 0
M  V30 2793 H 265.725 5.9224 0.949282 0
M  V30 2794 H 267.404 6.43707 0.651939 0
M  V30 2795 N 267.536 -0.106894 1.57237 0
M  V30 2796 C 268.499 -1.11466 2.0027 0
M  V30 2797 C 269.499 -1.33623 0.894519 0
M  V30 2798 O 270.689 -1.29935 1.16028 0
M  V30 2799 C 267.821 -2.46646 2.35327 0
M  V30 2800 H 269.014 -0.744516 2.90512 0
M  V30 2801 H 266.567 -0.351576 1.52295 0
M  V30 2802 H 267.302 -2.88558 1.48003 0
M  V30 2803 H 267.087 -2.31915 3.16161 0
M  V30 2804 H 268.577 -3.19151 2.69318 0
M  V30 2805 N 269.014 -1.53014 -0.377408 0
M  V30 2806 C 270.263 -1.67845 -1.11853 0
M  V30 2807 C 270.576 -0.430625 -1.90801 0
M  V30 2808 O 271.782 -0.459261 -2.67587 0
M  V30 2809 C 270.238 -2.96668 -2.03756 0
M  V30 2810 C 269.846 -4.28671 -1.30175 0
M  V30 2811 C 271.59 -3.20865 -2.77932 0
M  V30 2812 C 269.497 -5.48591 -2.20911 0
M  V30 2813 H 268.427 -0.625343 -0.421263 0
M  V30 2814 H 271.078 -1.79514 -0.380409 0
M  V30 2815 H 269.46 -2.78773 -2.8125 0
M  V30 2816 H 270.634 -4.57157 -0.578259 0
M  V30 2817 H 268.949 -4.10825 -0.679108 0
M  V30 2818 H 271.546 -4.07642 -3.46024 0
M  V30 2819 H 271.889 -2.36424 -3.4265 0
M  V30 2820 H 272.422 -3.39379 -2.07525 0
M  V30 2821 H 269.161 -6.35474 -1.6079 0
M  V30 2822 H 268.681 -5.244 -2.91144 0
M  V30 2823 H 270.36 -5.8292 -2.80736 0
M  V30 2824 N 270.492 0.636531 -1.44174 0
M  V30 2825 C 271.402 1.77754 -1.53103 0
M  V30 2826 C 272.418 1.68928 -0.417034 0
M  V30 2827 O 273.594 1.89801 -0.6736 0
M  V30 2828 C 270.659 3.14115 -1.46741 0
M  V30 2829 C 269.72 3.34612 -2.68948 0
M  V30 2830 C 268.953 4.64467 -2.6288 0
M  V30 2831 O 269.176 5.44919 -1.68581 0
M  V30 2832 O 268.11 4.87049 -3.53648 0
M  V30 2833 H 271.936 1.73174 -2.49489 0
M  V30 2834 H 269.521 0.79709 -1.2636 0
M  V30 2835 H 271.403 3.95412 -1.45696 0
M  V30 2836 H 270.078 3.19249 -0.534975 0
M  V30 2837 H 268.985 2.53014 -2.75562 0
M  V30 2838 H 270.318 3.34336 -3.61221 0
M  V30 2839 N 271.97 1.30982 0.876444 0
M  V30 2840 C 273.195 1.23373 1.66715 0
M  V30 2841 C 273.62 -0.19885 1.87046 0
M  V30 2842 O 272.978 -1.1427 1.40756 0
M  V30 2843 C 273.026 1.97644 3.01611 0
M  V30 2844 O 272.13 1.30935 3.91062 0
M  V30 2845 H 271.471 0.426279 0.509099 0
M  V30 2846 H 274.001 1.72944 1.09323 0
M  V30 2847 H 274.011 2.06992 3.51594 0
M  V30 2848 H 272.686 3.01829 2.86133 0
M  V30 2849 H 271.263 1.29996 3.49507 0
M  V30 2850 N 273.449 -1.08991 1.13837 0
M  V30 2851 C 274.412 -2.13925 0.822715 0
M  V30 2852 C 275.412 -1.599 -0.1699 0
M  V30 2853 O 276.602 -1.74104 0.0577251 0
M  V30 2854 C 273.734 -3.40155 0.225318 0
M  V30 2855 H 274.927 -2.43358 1.75262 0
M  V30 2856 H 272.48 -1.24603 0.943594 0
M  V30 2857 H 273.215 -3.16352 -0.713594 0
M  V30 2858 H 273 -3.80661 0.940193 0
M  V30 2859 H 274.49 -4.17594 0.0214784 0
M  V30 2860 N 274.927 -0.932562 -1.27047 0
M  V30 2861 C 275.875 -0.42603 -2.28665 0
M  V30 2862 C 276.869 0.49219 -1.62092 0
M  V30 2863 O 278.075 0.371355 -1.76128 0
M  V30 2864 H 274.45 -0.119213 -0.742491 0
M  V30 2865 H 276.421 -1.29579 -2.68797 0
M  V30 2866 C 275.17 0.301426 -3.46391 0
M  V30 2867 H 274.493 -0.39595 -3.97834 0
M  V30 2868 H 275.933 0.6202 -4.1944 0
M  V30 2869 C 274.392 1.51616 -3.00856 0
M  V30 2870 O 274.922 2.61476 -3.04948 0
M  V30 2871 N 273.128 1.36969 -2.56296 0
M  V30 2872 H 272.675 0.475873 -2.53166 0
M  V30 2873 H 272.633 2.18368 -2.26192 0
M  V30 2874 N 276.405 1.4127 -0.698611 0
M  V30 2875 C 277.633 2.05503 -0.239992 0
M  V30 2876 C 278.048 1.52584 1.11191 0
M  V30 2877 O 277.405 0.675323 1.69545 0
M  V30 2878 C 277.456 3.60987 -0.192429 0
M  V30 2879 O 277.177 4.1195 -1.49094 0
M  V30 2880 C 278.678 4.42371 0.28681 0
M  V30 2881 H 275.898 0.661748 -0.111045 0
M  V30 2882 H 278.442 1.80987 -0.95205 0
M  V30 2883 H 276.597 3.84533 0.470472 0
M  V30 2884 H 277.011 5.06018 -1.38007 0
M  V30 2885 H 278.485 5.51344 0.26896 0
M  V30 2886 H 278.962 4.18699 1.32619 0
M  V30 2887 H 279.568 4.23897 -0.345201 0
M  V30 2888 N 277.883 0.443576 1.51229 0
M  V30 2889 C 278.846 -0.353132 2.26463 0
M  V30 2890 C 279.846 -0.944338 1.3015 0
M  V30 2891 O 281.036 -0.817813 1.5381 0
M  V30 2892 C 278.168 -1.50023 3.06114 0
M  V30 2893 H 279.361 0.3063 2.98332 0
M  V30 2894 H 276.914 0.196902 1.55055 0
M  V30 2895 H 277.649 -2.19553 2.38677 0
M  V30 2896 H 277.434 -1.08241 3.76864 0
M  V30 2897 H 278.924 -2.06296 3.63087 0
M  V30 2898 N 279.361 -1.56624 0.175154 0
M  V30 2899 C 280.308 -2.18149 -0.753634 0
M  V30 2900 C 281.278 -1.12265 -1.22417 0
M  V30 2901 O 282.463 -1.40432 -1.29165 0
M  V30 2902 C 279.603 -2.82933 -1.97592 0
M  V30 2903 C 278.716 -4.03289 -1.5486 0
M  V30 2904 C 277.851 -4.55988 -2.72485 0
M  V30 2905 C 276.89 -5.68746 -2.26262 0
M  V30 2906 N 276.027 -6.15938 -3.36994 0
M  V30 2907 H 280.867 -2.9717 -0.222195 0
M  V30 2908 H 278.404 -1.46774 -0.0979422 0
M  V30 2909 H 280.362 -3.18653 -2.69288 0
M  V30 2910 H 278.992 -2.06509 -2.481 0
M  V30 2911 H 278.044 -3.73364 -0.728246 0
M  V30 2912 H 279.356 -4.849 -1.16933 0
M  V30 2913 H 278.51 -4.9391 -3.52332 0
M  V30 2914 H 277.249 -3.73443 -3.13674 0
M  V30 2915 H 276.254 -5.30372 -1.44863 0
M  V30 2916 H 277.479 -6.53095 -1.86127 0
M  V30 2917 H 275.425 -5.36321 -3.77751 0
M  V30 2918 H 275.342 -6.92548 -3.03172 0
M  V30 2919 H 276.61 -6.58511 -4.17114 0
M  V30 2920 N 280.839 0.0985539 -1.57292 0
M  V30 2921 C 281.772 1.15082 -1.97057 0
M  V30 2922 C 282.75 1.39025 -0.843255 0
M  V30 2923 O 283.934 1.52842 -1.10325 0
M  V30 2924 C 281.061 2.50069 -2.28437 0
M  V30 2925 C 280.107 2.42428 -3.509 0
M  V30 2926 S 280.94 1.84414 -5.02744 0
M  V30 2927 C 282.096 3.21032 -5.37298 0
M  V30 2928 H 282.329 0.811815 -2.86002 0
M  V30 2929 H 279.862 0.306102 -1.51335 0
M  V30 2930 H 281.82 3.27729 -2.47192 0
M  V30 2931 H 280.481 2.8114 -1.40069 0
M  V30 2932 H 279.674 3.41911 -3.70288 0
M  V30 2933 H 279.276 1.72896 -3.31637 0
M  V30 2934 H 281.568 4.17297 -5.33731 0
M  V30 2935 H 282.511 3.06452 -6.38352 0
M  V30 2936 H 282.919 3.20404 -4.64759 0
M  V30 2937 N 282.317 1.53212 0.369288 0
M  V30 2938 C 283.564 1.69215 1.11232 0
M  V30 2939 C 283.892 0.442048 1.8941 0
M  V30 2940 O 283.147 -0.575944 1.87033 0
M  V30 2941 C 283.446 2.89101 2.10132 0
M  V30 2942 C 283.112 4.25758 1.48463 0
M  V30 2943 C 281.774 4.6292 1.31372 0
M  V30 2944 C 284.126 5.10757 1.03811 0
M  V30 2945 C 281.454 5.82722 0.68207 0
M  V30 2946 C 283.806 6.31201 0.420487 0
M  V30 2947 C 282.47 6.67079 0.237038 0
M  V30 2948 H 281.74 0.619201 0.407027 0
M  V30 2949 H 284.387 1.87391 0.394552 0
M  V30 2950 H 282.692 2.65421 2.88199 0
M  V30 2951 H 284.389 2.98676 2.6757 0
M  V30 2952 H 280.979 3.96494 1.62758 0
M  V30 2953 H 285.163 4.82599 1.1581 0
M  V30 2954 H 280.419 6.09113 0.528316 0
M  V30 2955 H 284.593 6.96368 0.0662874 0
M  V30 2956 H 282.22 7.59774 -0.254477 0
M  V30 2957 N 283.795 -0.628877 1.44509 0
M  V30 2958 C 285.072 -1.38733 1.37886 0
M  V30 2959 C 285.452 -2.11065 0.0387008 0
M  V30 2960 O 284.8 -2.06476 -0.97878 0
M  V30 2961 C 285.01 -2.35188 2.57852 0
M  V30 2962 C 286.358 -2.9845 3.02014 0
M  V30 2963 O 287.382 -2.45513 2.58073 0
M  V30 2964 O 286.241 -3.94487 3.78209 0
M  V30 2965 H 283.335 -0.621015 0.54614 0
M  V30 2966 H 285.881 -0.653744 1.56602 0
M  V30 2967 H 284.653 -1.80855 3.46998 0
M  V30 2968 H 284.276 -3.1596 2.4136 0
M  V30 2969 N 285.273 -1.31445 -0.869486 0
M  V30 2970 C 286.522 -1.20517 -1.61736 0
M  V30 2971 C 286.835 0.235341 -1.94179 0
M  V30 2972 O 288.041 0.466312 -2.67465 0
M  V30 2973 C 286.497 -2.10982 -2.91573 0
M  V30 2974 C 286.105 -3.60032 -2.66611 0
M  V30 2975 C 287.849 -2.08856 -3.69567 0
M  V30 2976 C 285.756 -4.42503 -3.92358 0
M  V30 2977 H 284.686 -0.447493 -0.606849 0
M  V30 2978 H 287.337 -1.56303 -0.96133 0
M  V30 2979 H 285.719 -1.68095 -3.58553 0
M  V30 2980 H 286.893 -4.11167 -2.08035 0
M  V30 2981 H 285.208 -3.64139 -2.0197 0
M  V30 2982 H 287.805 -2.67716 -4.62852 0
M  V30 2983 H 288.148 -1.07582 -4.02159 0
M  V30 2984 H 288.681 -2.49945 -3.09471 0
M  V30 2985 H 285.42 -5.44533 -3.64916 0
M  V30 2986 H 284.94 -3.96125 -4.50383 0
M  V30 2987 H 286.619 -4.54741 -4.60238 0
M  V30 2988 N 286.751 1.08385 -1.14413 0
M  V30 2989 C 287.661 2.18856 -0.844951 0
M  V30 2990 C 288.677 1.73121 0.174668 0
M  V30 2991 O 289.853 2.014 0.00312857 0
M  V30 2992 C 286.918 3.45155 -0.32696 0
M  V30 2993 C 285.979 4.05513 -1.40916 0
M  V30 2994 C 285.212 5.25784 -0.915793 0
M  V30 2995 O 285.435 5.69884 0.242651 0
M  V30 2996 O 284.369 5.77545 -1.69487 0
M  V30 2997 H 288.195 2.46919 -1.76818 0
M  V30 2998 H 285.78 1.17524 -0.922411 0
M  V30 2999 H 287.662 4.21377 -0.0440211 0
M  V30 3000 H 286.337 3.18668 0.568539 0
M  V30 3001 H 285.244 3.30879 -1.74556 0
M  V30 3002 H 286.577 4.3625 -2.27919 0
M  V30 3003 N 288.23 0.939286 1.26551 0
M  V30 3004 C 289.641 0.628782 1.75793 0
M  V30 3005 C 289.992 -0.856046 1.7654 0
M  V30 3006 O 289.117 -1.66994 1.3763 0
M  V30 3007 C 289.712 1.13465 3.19235 0
M  V30 3008 C 288.271 0.874601 3.66098 0
M  V30 3009 C 287.418 1.28667 2.45642 0
M  V30 3010 H 290.369 1.1178 1.12654 0
M  V30 3011 H 290.39 0.487609 3.77363 0
M  V30 3012 H 289.902 2.21535 3.1866 0
M  V30 3013 H 288.003 -0.191793 3.72106 0
M  V30 3014 H 288.116 1.50028 4.55004 0
M  V30 3015 H 286.48 0.705109 2.44745 0
M  V30 3016 H 287.263 2.37625 2.47769 0
M  V30 3017 N 289.708 -1.40897 0.706093 0
M  V30 3018 C 291.124 -1.55042 0.37869 0
M  V30 3019 C 291.324 -1.67944 -1.11342 0
M  V30 3020 O 290.38 -1.66372 -1.89938 0
M  V30 3021 C 291.693 -2.78398 1.13643 0
M  V30 3022 C 293.241 -2.92206 1.12181 0
M  V30 3023 C 293.716 -4.18463 1.86152 0
M  V30 3024 N 295.207 -4.25443 1.83173 0
M  V30 3025 C 295.942 -5.2202 2.37239 0
M  V30 3026 N 295.438 -6.24563 2.99821 0
M  V30 3027 N 297.231 -5.14033 2.27435 0
M  V30 3028 H 289.382 -1.30769 1.67372 0
M  V30 3029 H 291.645 -0.631653 0.706907 0
M  V30 3030 H 291.351 -2.7511 2.19106 0
M  V30 3031 H 291.225 -3.70228 0.721853 0
M  V30 3032 H 293.612 -2.95004 0.0754171 0
M  V30 3033 H 293.693 -2.01521 1.57554 0
M  V30 3034 H 293.337 -4.16427 2.90776 0
M  V30 3035 H 293.267 -5.08141 1.38206 0
M  V30 3036 H 295.758 -3.51976 1.37556 0
M  V30 3037 H 296.071 -6.94665 3.38616 0
M  V30 3038 H 294.416 -6.25035 3.03902 0
M  V30 3039 H 297.607 -4.3285 1.78208 0
M  V30 3040 H 297.78 -5.89129 2.69873 0
M  V30 3041 N 291.186 -0.45159 -1.50991 0
M  V30 3042 C 292.432 0.110237 -2.025 0
M  V30 3043 C 292.765 1.41109 -1.33424 0
M  V30 3044 O 292.04 1.89135 -0.453659 0
M  V30 3045 C 292.323 0.314271 -3.58726 0
M  V30 3046 C 292.176 -1.00623 -4.38401 0
M  V30 3047 C 293.495 1.07767 -4.26702 0
M  V30 3048 H 290.614 0.0385897 -0.735989 0
M  V30 3049 H 293.256 -0.593374 -1.80497 0
M  V30 3050 H 291.406 0.913601 -3.77605 0
M  V30 3051 H 293.078 -1.64064 -4.31139 0
M  V30 3052 H 291.321 -1.6075 -4.02917 0
M  V30 3053 H 291.992 -0.817341 -5.45915 0
M  V30 3054 H 294.468 0.56986 -4.12179 0
M  V30 3055 H 293.344 1.18921 -5.35863 0
M  V30 3056 H 293.605 2.10939 -3.88532 0
M  V30 3057 N 292.664 1.56529 -0.183458 0
M  V30 3058 C 293.627 2.17324 0.728223 0
M  V30 3059 C 294.627 1.12453 1.14939 0
M  V30 3060 O 295.817 1.37902 1.06437 0
M  V30 3061 C 292.949 2.76591 1.99274 0
M  V30 3062 H 294.142 2.99241 0.198772 0
M  V30 3063 H 291.695 1.5616 0.0661391 0
M  V30 3064 H 292.43 1.98441 2.56499 0
M  V30 3065 H 292.215 3.5335 1.69959 0
M  V30 3066 H 293.705 3.23311 2.6431 0
M  V30 3067 N 294.142 -0.090211 1.57342 0
M  V30 3068 C 295.075 -1.14035 1.97664 0
M  V30 3069 C 296.053 -1.38576 0.850616 0
M  V30 3070 O 297.237 -1.52255 1.11134 0
M  V30 3071 C 294.364 -2.48854 2.2976 0
M  V30 3072 C 293.41 -2.40564 3.52181 0
M  V30 3073 S 294.243 -1.81745 5.03715 0
M  V30 3074 C 295.399 -3.18178 5.38993 0
M  V30 3075 H 295.632 -0.796636 2.86428 0
M  V30 3076 H 293.165 -0.298072 1.51496 0
M  V30 3077 H 295.123 -3.26413 2.48927 0
M  V30 3078 H 293.784 -2.80393 1.41558 0
M  V30 3079 H 292.977 -3.39942 3.72096 0
M  V30 3080 H 292.579 -1.71135 3.32549 0
M  V30 3081 H 294.871 -4.14461 5.35937 0
M  V30 3082 H 295.814 -3.03062 6.39968 0
M  V30 3083 H 296.222 -3.17935 4.66452 0
M  V30 3084 N 295.62 -1.53406 -0.361157 0
M  V30 3085 C 296.55 -1.83136 -1.44857 0
M  V30 3086 C 297.531 -0.685174 -1.5569 0
M  V30 3087 O 298.716 -0.93544 -1.70186 0
M  V30 3088 C 295.846 -2.02522 -2.82138 0
M  V30 3089 C 294.8 -3.18302 -2.86126 0
M  V30 3090 C 294.126 -3.22989 -4.26125 0
M  V30 3091 C 295.426 -4.56796 -2.53248 0
M  V30 3092 H 297.12 -2.74201 -1.20226 0
M  V30 3093 H 294.666 -1.31938 -0.576922 0
M  V30 3094 H 296.619 -2.21904 -3.58241 0
M  V30 3095 H 295.343 -1.08172 -3.08166 0
M  V30 3096 H 294.002 -2.98747 -2.12475 0
M  V30 3097 H 293.65 -2.26267 -4.49235 0
M  V30 3098 H 293.35 -4.00781 -4.29708 0
M  V30 3099 H 294.874 -3.44559 -5.04094 0
M  V30 3100 H 296.288 -4.7631 -3.19064 0
M  V30 3101 H 294.685 -5.36862 -2.68141 0
M  V30 3102 H 295.755 -4.61606 -1.48484 0
M  V30 3103 N 297.098 0.621204 -1.44841 0
M  V30 3104 C 298.323 1.41244 -1.51871 0
M  V30 3105 C 298.748 1.87519 -0.147764 0
M  V30 3106 O 298.106 1.59334 0.865 0
M  V30 3107 C 298.154 2.60221 -2.49634 0
M  V30 3108 O 297.258 3.60395 -2.00473 0
M  V30 3109 H 296.599 0.42223 -0.512463 0
M  V30 3110 H 299.129 0.757305 -1.90069 0
M  V30 3111 H 299.139 3.0764 -2.67996 0
M  V30 3112 H 297.814 2.25887 -3.4921 0
M  V30 3113 H 296.391 3.19717 -1.91925 0
M  V30 3114 N 298.576 1.31904 0.862503 0
M  V30 3115 C 299.823 1.22017 1.61611 0
M  V30 3116 C 300.151 -0.21991 1.93253 0
M  V30 3117 O 299.406 -1.17076 1.56817 0
M  V30 3118 C 299.705 2.01713 2.95037 0
M  V30 3119 C 299.371 3.51145 2.82857 0
M  V30 3120 C 298.033 3.91889 2.79243 0
M  V30 3121 C 300.385 4.46204 2.69353 0
M  V30 3122 C 297.713 5.25947 2.59993 0
M  V30 3123 C 300.065 5.80397 2.5164 0
M  V30 3124 C 298.729 6.20352 2.46413 0
M  V30 3125 H 297.999 0.44649 0.591378 0
M  V30 3126 H 300.646 1.63248 1.00111 0
M  V30 3127 H 298.951 1.53185 3.60613 0
M  V30 3128 H 300.648 1.91437 3.52353 0
M  V30 3129 H 297.238 3.1878 2.86491 0
M  V30 3130 H 301.422 4.15652 2.71196 0
M  V30 3131 H 296.678 5.5597 2.54376 0
M  V30 3132 H 300.852 6.53676 2.40169 0
M  V30 3133 H 298.479 7.24172 2.31256 0
M  V30 3134 N 300.054 -1.07777 1.14986 0
M  V30 3135 C 301.279 -1.84558 0.946213 0
M  V30 3136 C 301.704 -1.81323 -0.500362 0
M  V30 3137 O 301.062 -1.20301 -1.35637 0
M  V30 3138 C 301.11 -3.29736 1.45968 0
M  V30 3139 O 300.214 -4.07149 0.65601 0
M  V30 3140 H 299.555 -0.571641 0.33782 0
M  V30 3141 H 302.085 -1.35991 1.52865 0
M  V30 3142 H 302.095 -3.80574 1.47063 0
M  V30 3143 H 300.77 -3.31406 2.51283 0
M  V30 3144 H 299.347 -3.65994 0.714322 0
M  V30 3145 N 301.532 -0.945985 -1.26051 0
M  V30 3146 C 302.76 -0.613025 -1.9761 0
M  V30 3147 C 303.175 0.813035 -1.70397 0
M  V30 3148 O 302.532 1.54274 -0.974979 0
M  V30 3149 C 302.583 -0.85159 -3.51326 0
M  V30 3150 O 302.304 -2.22157 -3.77595 0
M  V30 3151 C 303.805 -0.529831 -4.40122 0
M  V30 3152 H 301.025 -0.230593 -0.630133 0
M  V30 3153 H 303.569 -1.268 -1.60443 0
M  V30 3154 H 301.724 -0.243151 -3.86636 0
M  V30 3155 H 302.138 -2.2852 -4.721 0
M  V30 3156 H 303.612 -0.747348 -5.46917 0
M  V30 3157 H 304.089 0.535341 -4.35925 0
M  V30 3158 H 304.695 -1.11721 -4.10364 0
M  V30 3159 N 303.011 1.40521 -0.713556 0
M  V30 3160 C 303.958 2.30723 -0.059684 0
M  V30 3161 C 304.928 1.48079 0.752448 0
M  V30 3162 O 306.113 1.76823 0.71681 0
M  V30 3163 C 303.253 3.34274 0.857594 0
M  V30 3164 C 302.366 4.31986 0.0351536 0
M  V30 3165 C 301.501 5.22605 0.951724 0
M  V30 3166 C 300.54 6.11976 0.123253 0
M  V30 3167 N 299.677 6.9502 0.99459 0
M  V30 3168 H 304.517 2.86074 -0.834596 0
M  V30 3169 H 302.054 1.40879 -0.42326 0
M  V30 3170 H 304.012 3.92879 1.40364 0
M  V30 3171 H 302.642 2.8043 1.59871 0
M  V30 3172 H 301.694 3.7518 -0.628052 0
M  V30 3173 H 303.006 4.95101 -0.606347 0
M  V30 3174 H 302.16 5.86131 1.56638 0
M  V30 3175 H 300.899 4.59759 1.62705 0
M  V30 3176 H 299.904 5.47482 -0.50435 0
M  V30 3177 H 301.129 6.76881 -0.548539 0
M  V30 3178 H 299.075 6.34764 1.6556 0
M  V30 3179 H 298.992 7.54892 0.40908 0
M  V30 3180 H 300.26 7.62997 1.59549 0
M  V30 3181 N 304.489 0.459591 1.5075 0
M  V30 3182 C 305.737 -0.0991532 2.01857 0
M  V30 3183 C 306.058 -1.41247 1.34441 0
M  V30 3184 O 305.328 -1.89775 0.486022 0
M  V30 3185 H 303.908 -0.039633 0.745948 0
M  V30 3186 H 306.57 0.607387 1.85194 0
M  V30 3187 H 305.666 -0.258998 3.11023 0
M  V30 3188 N 305.967 -1.56429 0.191757 0
M  V30 3189 C 307.192 -2.02309 -0.456706 0
M  V30 3190 C 307.617 -1.07103 -1.5463 0
M  V30 3191 O 306.975 -0.0539677 -1.8122 0
M  V30 3192 C 307.023 -3.46654 -0.993159 0
M  V30 3193 O 306.127 -3.54559 -2.10622 0
M  V30 3194 H 305.468 -0.655303 -0.107114 0
M  V30 3195 H 307.998 -2.02364 0.301653 0
M  V30 3196 H 308.008 -3.86377 -1.31061 0
M  V30 3197 H 306.683 -4.1544 -0.195504 0
M  V30 3198 H 305.26 -3.26708 -1.79767 0
M  V30 3199 N 307.445 0.0818655 -1.57387 0
M  V30 3200 C 308.408 1.08265 -2.02018 0
M  V30 3201 C 309.408 1.32183 -0.915664 0
M  V30 3202 O 310.598 1.28073 -1.18081 0
M  V30 3203 C 307.73 2.42871 -2.39221 0
M  V30 3204 H 308.923 0.698204 -2.91659 0
M  V30 3205 H 306.476 0.327303 -1.52835 0
M  V30 3206 H 307.211 2.86167 -1.52575 0
M  V30 3207 H 306.996 2.26855 -3.19811 0
M  V30 3208 H 308.486 3.14826 -2.74362 0
M  V30 3209 N 308.923 1.53595 0.353017 0
M  V30 3210 C 309.87 1.80919 1.43308 0
M  V30 3211 C 310.84 0.654288 1.5267 0
M  V30 3212 O 312.025 0.897759 1.6836 0
M  V30 3213 C 309.165 2.01605 2.80089 0
M  V30 3214 C 308.278 3.29321 2.79593 0
M  V30 3215 C 307.413 3.40125 4.0803 0
M  V30 3216 C 306.452 4.61826 4.01725 0
M  V30 3217 N 305.589 4.69716 5.21834 0
M  V30 3218 H 310.429 2.73074 1.19308 0
M  V30 3219 H 307.966 1.35263 0.578131 0
M  V30 3220 H 309.924 2.11586 3.59565 0
M  V30 3221 H 308.554 1.12772 3.0246 0
M  V30 3222 H 307.606 3.28229 1.92276 0
M  V30 3223 H 308.918 4.18884 2.70809 0
M  V30 3224 H 308.072 3.49488 4.95927 0
M  V30 3225 H 306.811 2.48601 4.19582 0
M  V30 3226 H 305.816 4.52552 3.12213 0
M  V30 3227 H 307.041 5.54705 3.91764 0
M  V30 3228 H 304.987 3.81097 5.33948 0
M  V30 3229 H 304.904 5.53202 5.1527 0
M  V30 3230 H 306.172 4.83376 6.11529 0
M  V30 3231 N 310.401 -0.613514 1.45168 0
M  V30 3232 C 311.626 -1.40437 1.52618 0
M  V30 3233 C 312.051 -1.87438 0.157707 0
M  V30 3234 O 311.409 -1.59791 -0.856537 0
M  V30 3235 C 311.457 -2.58894 2.51011 0
M  V30 3236 O 310.561 -3.59326 2.02382 0
M  V30 3237 H 309.902 -0.419506 0.514695 0
M  V30 3238 H 312.432 -0.747215 1.90467 0
M  V30 3239 H 312.442 -3.06214 2.69624 0
M  V30 3240 H 311.117 -2.24032 3.50403 0
M  V30 3241 H 309.694 -3.18695 1.93618 0
M  V30 3242 N 311.879 -1.3236 -0.855495 0
M  V30 3243 C 313.156 -1.13491 -1.59309 0
M  V30 3244 C 313.536 0.30503 -2.08885 0
M  V30 3245 O 312.884 1.30151 -1.87811 0
M  V30 3246 C 313.094 -2.16176 -2.73987 0
M  V30 3247 C 314.442 -2.49463 -3.43589 0
M  V30 3248 O 315.466 -2.14715 -2.84211 0
M  V30 3249 O 314.325 -3.09027 -4.50738 0
M  V30 3250 H 311.419 -0.437887 -0.701559 0
M  V30 3251 H 313.965 -1.43887 -0.899696 0
M  V30 3252 H 312.737 -3.1297 -2.34873 0
M  V30 3253 H 312.36 -1.86769 -3.51003 0
M  V30 3254 N 313.357 1.07166 -1.15556 0
M  V30 3255 C 314.267 2.17947 -0.868116 0
M  V30 3256 C 315.283 1.73297 0.156297 0
M  V30 3257 O 316.459 2.01392 -0.0182327 0
M  V30 3258 C 313.524 3.44789 -0.36355 0
M  V30 3259 C 312.585 4.03996 -1.45209 0
M  V30 3260 C 311.818 5.24783 -0.971508 0
M  V30 3261 O 312.041 5.70109 0.182194 0
M  V30 3262 O 310.975 5.75715 -1.75603 0
M  V30 3263 H 314.801 2.4503 -1.79427 0
M  V30 3264 H 312.386 1.16539 -0.934824 0
M  V30 3265 H 314.268 4.21307 -0.0887113 0
M  V30 3266 H 312.943 3.19253 0.534708 0
M  V30 3267 H 311.85 3.29009 -1.78056 0
M  V30 3268 H 313.183 4.33808 -2.32533 0
M  V30 3269 N 314.835 0.952656 1.25548 0
M  V30 3270 C 316.063 0.623496 1.97282 0
M  V30 3271 C 316.478 -0.803987 1.70826 0
M  V30 3272 O 315.835 -1.53755 0.983147 0
M  V30 3273 C 315.886 0.870209 3.5087 0
M  V30 3274 O 315.607 2.24156 3.76412 0
M  V30 3275 C 317.108 0.553164 4.39835 0
M  V30 3276 H 314.328 0.233931 0.628902 0
M  V30 3277 H 316.872 1.27649 1.59768 0
M  V30 3278 H 315.027 0.263652 3.86502 0
M  V30 3279 H 315.441 2.31021 4.70882 0
M  V30 3280 H 316.915 0.776342 5.46513 0
M  V30 3281 H 317.392 -0.512215 4.36203 0
M  V30 3282 H 317.998 1.13896 4.09766 0
M  V30 3283 N 316.313 -1.40141 0.720998 0
M  V30 3284 C 317.223 -2.34486 0.0731031 0
M  V30 3285 C 318.239 -1.57587 -0.737723 0
M  V30 3286 O 319.415 -1.89949 -0.669429 0
M  V30 3287 C 316.48 -3.36528 -0.833656 0
M  V30 3288 C 315.541 -4.29298 -0.0121673 0
M  V30 3289 C 314.774 -5.26466 -0.875742 0
M  V30 3290 O 314.997 -5.29745 -2.11485 0
M  V30 3291 O 313.931 -6.01092 -0.31185 0
M  V30 3292 H 317.757 -2.9152 0.851444 0
M  V30 3293 H 315.342 -1.41427 0.481527 0
M  V30 3294 H 317.224 -3.99093 -1.35289 0
M  V30 3295 H 315.899 -2.81899 -1.59105 0
M  V30 3296 H 314.806 -3.70001 0.552262 0
M  V30 3297 H 316.139 -4.87094 0.707129 0
M  V30 3298 N 317.792 -0.46758 -1.50504 0
M  V30 3299 C 318.739 0.328413 -2.28452 0
M  V30 3300 C 319.709 0.990313 -1.33349 0
M  V30 3301 O 320.894 1.00343 -1.62284 0
M  V30 3302 C 318.034 1.40648 -3.15138 0
M  V30 3303 C 317.147 0.759709 -4.25267 0
M  V30 3304 C 316.282 1.81537 -4.99217 0
M  V30 3305 C 315.321 1.14866 -6.01226 0
M  V30 3306 N 314.458 2.14702 -6.68467 0
M  V30 3307 H 319.298 -0.342603 -2.96024 0
M  V30 3308 H 316.835 -0.180801 -1.45985 0
M  V30 3309 H 318.793 2.04315 -3.63746 0
M  V30 3310 H 317.423 2.04671 -2.49619 0
M  V30 3311 H 316.475 0.0105671 -3.80399 0
M  V30 3312 H 317.787 0.233243 -4.98254 0
M  V30 3313 H 316.941 2.52793 -5.51526 0
M  V30 3314 H 315.68 2.37564 -4.25928 0
M  V30 3315 H 314.685 0.42171 -5.4818 0
M  V30 3316 H 315.91 0.595334 -6.76485 0
M  V30 3317 H 313.856 2.69752 -5.97972 0
M  V30 3318 H 313.773 1.6703 -7.37317 0
M  V30 3319 H 315.041 2.85348 -7.25394 0
M  V30 3320 N 319.27 1.56325 -0.20005 0
M  V30 3321 C 320.516 1.98012 0.438059 0
M  V30 3322 C 320.849 1.08702 1.60927 0
M  V30 3323 O 320.124 0.140064 1.93995 0
M  V30 3324 C 320.407 3.48841 0.893419 0
M  V30 3325 C 320.26 4.48928 -0.279947 0
M  V30 3326 C 321.579 4.03498 1.75719 0
M  V30 3327 H 318.698 0.719918 0.157757 0
M  V30 3328 H 321.34 1.87743 -0.291968 0
M  V30 3329 H 319.49 3.57723 1.51547 0
M  V30 3330 H 321.162 4.52079 -0.91772 0
M  V30 3331 H 319.405 4.23694 -0.930919 0
M  V30 3332 H 320.076 5.5194 0.0812601 0
M  V30 3333 H 322.552 3.97427 1.23253 0
M  V30 3334 H 321.428 5.09393 2.04476 0
M  V30 3335 H 321.689 3.4906 2.71311 0
M  V30 3336 N 320.748 -0.0735177 1.57428 0
M  V30 3337 C 321.711 -1.07192 2.02589 0
M  V30 3338 C 322.711 -1.31695 0.922661 0
M  V30 3339 O 323.901 -1.27445 1.18758 0
M  V30 3340 C 321.033 -2.41599 2.40506 0
M  V30 3341 H 322.226 -0.682727 2.92025 0
M  V30 3342 H 319.779 -0.319193 1.53006 0
M  V30 3343 H 320.514 -2.85354 1.5409 0
M  V30 3344 H 320.299 -2.25156 3.21009 0
M  V30 3345 H 321.789 -3.13367 2.76027 0
M  V30 3346 N 322.226 -1.5378 -0.344866 0
M  V30 3347 C 323.503 -1.61589 -1.10219 0
M  V30 3348 C 323.883 -0.436316 -2.06542 0
M  V30 3349 O 323.231 0.571543 -2.21237 0
M  V30 3350 C 323.441 -2.97602 -1.82301 0
M  V30 3351 C 324.789 -3.5291 -2.36093 0
M  V30 3352 O 325.813 -2.99768 -1.924 0
M  V30 3353 O 324.672 -4.45859 -3.16026 0
M  V30 3354 H 321.766 -0.653522 -0.506792 0
M  V30 3355 H 324.312 -1.66126 -0.346465 0
M  V30 3356 H 323.084 -3.74893 -1.12121 0
M  V30 3357 H 322.707 -2.9665 -2.64735 0
M  V30 3358 N 323.704 0.605807 -1.45491 0
M  V30 3359 C 324.667 1.69836 -1.5391 0
M  V30 3360 C 325.667 1.55261 -0.418424 0
M  V30 3361 O 326.857 1.60296 -0.681965 0
M  V30 3362 C 323.989 3.09117 -1.43734 0
M  V30 3363 H 325.182 1.63738 -2.51257 0
M  V30 3364 H 322.735 0.821689 -1.32959 0
M  V30 3365 H 323.47 3.20791 -0.475788 0
M  V30 3366 H 323.255 3.21104 -2.25021 0
M  V30 3367 H 324.745 3.88696 -1.52661 0
M  V30 3368 N 325.182 1.32811 0.848464 0
M  V30 3369 C 326.428 1.23907 1.60546 0
M  V30 3370 C 326.761 -0.197161 1.93197 0
M  V30 3371 O 326.036 -1.13596 1.5788 0
M  V30 3372 C 326.319 2.10489 2.92175 0
M  V30 3373 C 326.172 3.62522 2.66266 0
M  V30 3374 C 327.491 1.97075 3.93509 0
M  V30 3375 H 324.61 0.451459 0.58254 0
M  V30 3376 H 327.252 1.62818 0.979296 0
M  V30 3377 H 325.402 1.77434 3.45614 0
M  V30 3378 H 327.074 4.05821 2.19334 0
M  V30 3379 H 325.317 3.84879 2.00126 0
M  V30 3380 H 325.988 4.18437 3.6002 0
M  V30 3381 H 328.464 2.26045 3.49346 0
M  V30 3382 H 327.34 2.59923 4.83457 0
M  V30 3383 H 327.601 0.940186 4.31987 0
M  V30 3384 N 326.66 -1.06551 1.16123 0
M  V30 3385 C 327.607 -2.13961 0.865414 0
M  V30 3386 C 328.577 -1.65066 -0.185055 0
M  V30 3387 O 329.762 -1.90732 -0.05083 0
M  V30 3388 C 326.902 -3.43113 0.369776 0
M  V30 3389 C 326.015 -4.05756 1.48276 0
M  V30 3390 C 325.15 -5.22773 0.942414 0
M  V30 3391 C 324.189 -5.77395 2.03179 0
M  V30 3392 N 323.326 -6.85731 1.50721 0
M  V30 3393 H 328.166 -2.38605 1.78527 0
M  V30 3394 H 325.703 -1.17072 0.890646 0
M  V30 3395 H 327.661 -4.17151 0.0640643 0
M  V30 3396 H 326.291 -3.18695 -0.513143 0
M  V30 3397 H 325.343 -3.29292 1.9045 0
M  V30 3398 H 326.655 -4.42351 2.30493 0
M  V30 3399 H 325.809 -6.03827 0.589729 0
M  V30 3400 H 324.548 -4.87618 0.0895191 0
M  V30 3401 H 323.553 -4.94981 2.3932 0
M  V30 3402 H 324.778 -6.14603 2.8886 0
M  V30 3403 H 322.724 -6.52499 0.676811 0
M  V30 3404 H 322.641 -7.21254 2.26557 0
M  V30 3405 H 323.909 -7.7047 1.18303 0
M  V30 3406 N 328.138 -0.959301 -1.25041 0
M  V30 3407 C 329.387 -0.612254 -1.92183 0
M  V30 3408 C 329.7 0.855347 -1.75907 0
M  V30 3409 O 330.906 1.31256 -2.37664 0
M  V30 3410 C 329.362 -1.04435 -3.44414 0
M  V30 3411 C 328.97 -2.53482 -3.69393 0
M  V30 3412 C 330.714 -0.770055 -4.17457 0
M  V30 3413 C 328.621 -2.90468 -5.15153 0
M  V30 3414 H 327.551 -0.225279 -0.719559 0
M  V30 3415 H 330.202 -1.16438 -1.41825 0
M  V30 3416 H 328.584 -0.4206 -3.9376 0
M  V30 3417 H 329.758 -3.20916 -3.30681 0
M  V30 3418 H 328.073 -2.78432 -3.0962 0
M  V30 3419 H 330.67 -1.02249 -5.24832 0
M  V30 3420 H 331.013 0.293611 -4.15263 0
M  V30 3421 H 331.546 -1.35437 -3.74034 0
M  V30 3422 H 328.285 -3.95871 -5.22462 0
M  V30 3423 H 327.805 -2.27711 -5.54894 0
M  V30 3424 H 329.484 -2.79914 -5.83315 0
M  V30 3425 N 329.616 1.39756 -0.72842 0
M  V30 3426 C 330.579 2.29012 -0.0927297 0
M  V30 3427 C 331.579 1.45992 0.674025 0
M  V30 3428 O 332.769 1.66749 0.50402 0
M  V30 3429 C 329.901 3.29396 0.878137 0
M  V30 3430 H 331.094 2.86729 -0.879011 0
M  V30 3431 H 328.647 1.48293 -0.493847 0
M  V30 3432 H 329.382 2.76722 1.69101 0
M  V30 3433 H 329.167 3.907 0.331051 0
M  V30 3434 H 330.657 3.96199 1.3197 0
M  V30 3435 N 331.094 0.475555 1.50254 0
M  V30 3436 C 332.041 -0.316293 2.28622 0
M  V30 3437 C 333.011 -0.983227 1.33873 0
M  V30 3438 O 334.196 -0.994805 1.62814 0
M  V30 3439 C 331.336 -1.38975 3.1588 0
M  V30 3440 C 330.449 -0.737146 4.25664 0
M  V30 3441 C 329.584 -1.78887 5.00173 0
M  V30 3442 C 328.623 -1.11676 6.01826 0
M  V30 3443 N 327.76 -2.11154 6.69596 0
M  V30 3444 H 332.6 0.358297 2.95838 0
M  V30 3445 H 330.137 0.188541 1.45887 0
M  V30 3446 H 332.095 -2.02383 3.64825 0
M  V30 3447 H 330.725 -2.03344 2.50701 0
M  V30 3448 H 329.777 0.0096065 3.80399 0
M  V30 3449 H 331.089 -0.206816 4.98371 0
M  V30 3450 H 330.243 -2.49865 5.52859 0
M  V30 3451 H 328.982 -2.35302 4.27182 0
M  V30 3452 H 327.987 -0.392633 5.48396 0
M  V30 3453 H 329.212 -0.55945 6.76792 0
M  V30 3454 H 327.158 -2.66577 5.99394 0
M  V30 3455 H 327.075 -1.63118 7.38193 0
M  V30 3456 H 328.343 -2.81497 7.26897 0
M  V30 3457 N 332.573 -1.56217 0.208337 0
M  V30 3458 C 333.483 -2.23316 -0.718836 0
M  V30 3459 C 334.499 -1.23648 -1.22422 0
M  V30 3460 O 335.675 -1.56423 -1.26861 0
M  V30 3461 C 332.74 -2.88968 -1.91568 0
M  V30 3462 C 331.801 -4.03943 -1.45357 0
M  V30 3463 C 331.034 -4.66455 -2.59337 0
M  V30 3464 O 331.257 -4.27919 -3.77149 0
M  V30 3465 O 330.191 -5.55686 -2.31293 0
M  V30 3466 H 334.017 -3.03182 -0.177315 0
M  V30 3467 H 331.602 -1.49384 -0.0215402 0
M  V30 3468 H 333.484 -3.30455 -2.61491 0
M  V30 3469 H 332.159 -2.12071 -2.44556 0
M  V30 3470 H 331.066 -3.67052 -0.722746 0
M  V30 3471 H 332.399 -4.82543 -0.970219 0
M  V30 3472 N 334.051 0.0651679 -1.57465 0
M  V30 3473 C 334.998 1.07675 -2.04144 0
M  V30 3474 C 335.968 1.38071 -0.923335 0
M  V30 3475 O 337.153 1.49026 -1.19146 0
M  V30 3476 C 334.293 2.38337 -2.49579 0
M  V30 3477 C 333.406 2.14413 -3.75035 0
M  V30 3478 C 332.541 3.38686 -4.09225 0
M  V30 3479 C 331.58 3.10156 -5.27702 0
M  V30 3480 N 330.717 4.26778 -5.57499 0
M  V30 3481 H 335.557 0.671716 -2.90331 0
M  V30 3482 H 333.094 0.3201 -1.43575 0
M  V30 3483 H 335.052 3.14632 -2.73975 0
M  V30 3484 H 333.682 2.7663 -1.6636 0
M  V30 3485 H 332.734 1.2878 -3.57939 0
M  V30 3486 H 334.046 1.89344 -4.61466 0
M  V30 3487 H 333.2 4.23373 -4.34558 0
M  V30 3488 H 331.939 3.66837 -3.21374 0
M  V30 3489 H 330.944 2.23866 -5.02159 0
M  V30 3490 H 332.169 2.8332 -6.17176 0
M  V30 3491 H 330.115 4.54948 -4.72608 0
M  V30 3492 H 330.032 4.05005 -6.38362 0
M  V30 3493 H 331.3 5.12443 -5.87386 0
M  V30 3494 N 335.529 1.53961 0.336706 0
M  V30 3495 C 336.492 1.81724 1.39675 0
M  V30 3496 C 337.492 0.688532 1.45313 0
M  V30 3497 O 338.682 0.956829 1.45569 0
M  V30 3498 C 335.814 1.96543 2.78538 0
M  V30 3499 H 337.007 2.76424 1.16318 0
M  V30 3500 H 334.56 1.45478 0.571474 0
M  V30 3501 H 335.295 1.0401 3.07168 0
M  V30 3502 H 335.08 2.78665 2.75841 0
M  V30 3503 H 336.57 2.19516 3.5525 0
M  V30 3504 N 337.007 -0.598083 1.45811 0
M  V30 3505 C 338.418 -1.18011 1.44673 0
M  V30 3506 C 338.769 -1.95378 0.179364 0
M  V30 3507 O 337.894 -2.04124 -0.718509 0
M  V30 3508 C 338.489 -2.14677 2.62105 0
M  V30 3509 C 337.048 -2.68236 2.64057 0
M  V30 3510 C 336.195 -1.43816 2.37091 0
M  V30 3511 H 339.146 -0.38686 1.53913 0
M  V30 3512 H 339.167 -2.97878 2.36746 0
M  V30 3513 H 338.679 -1.5834 3.5433 0
M  V30 3514 H 336.78 -3.28486 1.75864 0
M  V30 3515 H 336.893 -3.12021 3.63566 0
M  V30 3516 H 335.257 -1.731 1.86838 0
M  V30 3517 H 336.04 -0.893333 3.31473 0
M  V30 3518 N 338.485 -1.33259 -0.841409 0
M  V30 3519 C 339.395 -1.25332 -1.98316 0
M  V30 3520 C 340.411 -0.164364 -1.73222 0
M  V30 3521 O 341.587 -0.387486 -1.97637 0
M  V30 3522 C 338.652 -0.990078 -3.32262 0
M  V30 3523 C 337.713 -2.16879 -3.70489 0
M  V30 3524 C 336.946 -1.91801 -4.98044 0
M  V30 3525 O 337.169 -0.867075 -5.63771 0
M  V30 3526 O 336.103 -2.78267 -5.33714 0
M  V30 3527 H 339.929 -2.21344 -2.07944 0
M  V30 3528 H 337.514 -1.1328 -0.974058 0
M  V30 3529 H 339.396 -0.860321 -4.12524 0
M  V30 3530 H 338.071 -0.0602155 -3.23644 0
M  V30 3531 H 336.978 -2.35407 -2.90748 0
M  V30 3532 H 338.311 -3.0819 -3.8377 0
M  V30 3533 N 339.963 1.05934 -1.16686 0
M  V30 3534 C 340.893 2.1546 -0.899949 0
M  V30 3535 C 341.874 1.69391 0.155154 0
M  V30 3536 O 343.059 1.94199 0.00648693 0
M  V30 3537 C 340.189 3.44939 -0.404241 0
M  V30 3538 C 339.143 4.04536 -1.39767 0
M  V30 3539 C 338.469 5.29268 -0.760216 0
M  V30 3540 C 339.769 4.42893 -2.76845 0
M  V30 3541 H 341.463 2.38046 -1.81588 0
M  V30 3542 H 339.009 1.14404 -0.874514 0
M  V30 3543 H 340.962 4.20901 -0.204971 0
M  V30 3544 H 339.686 3.21983 0.547206 0
M  V30 3545 H 338.345 3.30635 -1.58355 0
M  V30 3546 H 337.993 5.02611 0.197831 0
M  V30 3547 H 337.693 5.70101 -1.42332 0
M  V30 3548 H 339.217 6.07924 -0.57105 0
M  V30 3549 H 340.631 5.09921 -2.62019 0
M  V30 3550 H 339.028 4.94721 -3.39663 0
M  V30 3551 H 340.098 3.53584 -3.31823 0
M  V30 3552 N 341.441 0.965919 1.2453 0
M  V30 3553 C 342.669 0.644385 1.96609 0
M  V30 3554 C 343.084 -0.785823 1.71669 0
M  V30 3555 O 342.441 -1.52703 0.999399 0
M  V30 3556 C 342.492 0.907375 3.49927 0
M  V30 3557 O 342.213 2.28136 3.74013 0
M  V30 3558 C 343.714 0.599784 4.39224 0
M  V30 3559 H 340.934 0.240588 0.626385 0
M  V30 3560 H 343.478 1.29337 1.58405 0
M  V30 3561 H 341.633 0.304631 3.862 0
M  V30 3562 H 342.047 2.36002 4.68405 0
M  V30 3563 H 343.521 0.834263 5.45659 0
M  V30 3564 H 343.998 -0.465921 4.36722 0
M  V30 3565 H 344.604 1.18235 4.08535 0
M  V30 3566 N 342.919 -1.39368 0.735821 0
M  V30 3567 C 343.849 -2.33234 0.111506 0
M  V30 3568 C 344.83 -1.53954 -0.723334 0
M  V30 3569 O 346.015 -1.82344 -0.668147 0
M  V30 3570 C 343.145 -3.38057 -0.795917 0
M  V30 3571 C 342.099 -4.2795 -0.065172 0
M  V30 3572 C 341.425 -5.23479 -1.08967 0
M  V30 3573 C 342.725 -5.10741 1.09273 0
M  V30 3574 H 344.419 -2.85692 0.895571 0
M  V30 3575 H 341.965 -1.37364 0.432109 0
M  V30 3576 H 343.918 -4.02675 -1.24221 0
M  V30 3577 H 342.642 -2.8404 -1.61211 0
M  V30 3578 H 341.301 -3.64813 0.361511 0
M  V30 3579 H 340.949 -4.65758 -1.89944 0
M  V30 3580 H 340.649 -5.84472 -0.605489 0
M  V30 3581 H 342.173 -5.90974 -1.53565 0
M  V30 3582 H 343.587 -5.68699 0.724841 0
M  V30 3583 H 341.984 -5.8088 1.50659 0
M  V30 3584 H 343.054 -4.45525 1.91404 0
M  V30 3585 N 344.397 -0.483516 -1.5 0
M  V30 3586 C 345.674 0.129337 -1.95172 0
M  V30 3587 C 346.054 1.55802 -1.4244 0
M  V30 3588 O 345.402 2.19625 -0.630649 0
M  V30 3589 C 345.612 0.0599251 -3.48949 0
M  V30 3590 C 346.96 0.242617 -4.23906 0
M  V30 3591 O 347.984 0.135933 -3.55941 0
M  V30 3592 O 346.843 0.459454 -5.44565 0
M  V30 3593 H 343.937 0.104887 -0.820322 0
M  V30 3594 H 346.483 -0.544807 -1.60717 0
M  V30 3595 H 345.255 -0.937079 -3.79914 0
M  V30 3596 H 344.878 0.774984 -3.89974 0
M  V30 3597 N 345.875 1.56104 -0.216619 0
M  V30 3598 C 347.123 1.97781 0.415593 0
M  V30 3599 C 347.444 1.10536 1.60645 0
M  V30 3600 O 346.714 0.181303 1.95059 0
M  V30 3601 H 345.294 0.730415 0.156534 0
M  V30 3602 H 347.956 1.92445 -0.308366 0
M  V30 3603 H 347.052 3.03072 0.74525 0
M  V30 3604 N 347.353 -0.0568162 1.57498 0
M  V30 3605 C 348.263 -1.08346 2.08083 0
M  V30 3606 C 349.279 -1.41439 1.01346 0
M  V30 3607 O 350.455 -1.51316 1.32912 0
M  V30 3608 C 347.52 -2.37352 2.52715 0
M  V30 3609 C 346.581 -2.11093 3.73816 0
M  V30 3610 C 345.814 -3.33949 4.1631 0
M  V30 3611 O 346.037 -4.43622 3.58547 0
M  V30 3612 O 344.971 -3.21279 5.08983 0
M  V30 3613 H 348.797 -0.683667 2.95905 0
M  V30 3614 H 346.382 -0.271965 1.46904 0
M  V30 3615 H 348.264 -3.13246 2.81877 0
M  V30 3616 H 346.939 -2.76681 1.68016 0
M  V30 3617 H 345.846 -1.32856 3.49714 0
M  V30 3618 H 347.179 -1.76637 4.59413 0
M  V30 3619 N 348.832 -1.54138 -0.328536 0
M  V30 3620 C 350.079 -1.72105 -1.06706 0
M  V30 3621 C 350.407 -0.492111 -1.88171 0
M  V30 3622 O 349.662 0.526153 -1.88494 0
M  V30 3623 C 349.961 -2.9457 -2.02393 0
M  V30 3624 C 349.627 -4.29544 -1.37122 0
M  V30 3625 C 348.289 -4.6624 -1.19052 0
M  V30 3626 C 350.641 -5.1333 -0.902331 0
M  V30 3627 C 347.969 -5.84325 -0.527331 0
M  V30 3628 C 350.321 -6.32094 -0.252988 0
M  V30 3629 C 348.985 -6.67473 -0.0600901 0
M  V30 3630 H 348.255 -0.629775 -0.390466 0
M  V30 3631 H 350.902 -1.88372 -0.34473 0
M  V30 3632 H 349.207 -2.72969 -2.81061 0
M  V30 3633 H 350.904 -3.05665 -2.59557 0
M  V30 3634 H 347.494 -4.0067 -1.52188 0
M  V30 3635 H 351.678 -4.855 -1.02974 0
M  V30 3636 H 346.934 -6.103 -0.366634 0
M  V30 3637 H 351.108 -6.96299 0.118366 0
M  V30 3638 H 348.735 -7.58832 0.455828 0
M  V30 3639 N 350.31 0.590341 -1.46126 0
M  V30 3640 C 351.242 1.71427 -1.52136 0
M  V30 3641 C 352.255 1.57542 -0.41042 0
M  V30 3642 O 353.444 1.65106 -0.678389 0
M  V30 3643 C 350.544 3.09605 -1.37834 0
M  V30 3644 C 349.717 3.49566 -2.62912 0
M  V30 3645 C 348.776 4.66773 -2.42918 0
M  V30 3646 O 347.802 4.73019 -3.1661 0
M  V30 3647 N 349.004 5.61161 -1.4859 0
M  V30 3648 H 351.769 1.66728 -2.49042 0
M  V30 3649 H 349.33 0.776113 -1.42085 0
M  V30 3650 H 351.322 3.85796 -1.22243 0
M  V30 3651 H 349.892 3.08714 -0.491393 0
M  V30 3652 H 349.112 2.63158 -2.93499 0
M  V30 3653 H 350.4 3.73028 -3.46017 0
M  V30 3654 H 349.798 5.58844 -0.87808 0
M  V30 3655 H 348.355 6.36814 -1.38965 0
M  V30 3656 N 351.788 1.33704 0.83433 0
M  V30 3657 C 353.035 1.25417 1.58987 0
M  V30 3658 C 353.363 -0.178869 1.93676 0
M  V30 3659 O 352.618 -1.13723 1.59265 0
M  V30 3660 C 352.917 2.07926 2.90692 0
M  V30 3661 C 352.583 3.57066 2.75345 0
M  V30 3662 C 351.245 3.97724 2.70867 0
M  V30 3663 C 353.597 4.51817 2.59828 0
M  V30 3664 C 350.925 5.31344 2.48778 0
M  V30 3665 C 353.277 5.85604 2.39272 0
M  V30 3666 C 351.941 6.25439 2.33199 0
M  V30 3667 H 351.211 0.458934 0.581774 0
M  V30 3668 H 353.858 1.65335 0.966261 0
M  V30 3669 H 352.163 1.608 3.57282 0
M  V30 3670 H 353.86 1.98868 3.48213 0
M  V30 3671 H 350.45 3.24785 2.79665 0
M  V30 3672 H 354.634 4.21311 2.62319 0
M  V30 3673 H 349.89 5.61241 2.42526 0
M  V30 3674 H 354.064 6.58623 2.2625 0
M  V30 3675 H 351.691 7.28914 2.15843 0
M  V30 3676 N 353.266 -1.05314 1.17247 0
M  V30 3677 C 354.543 -1.75184 0.87005 0
M  V30 3678 C 354.923 -2.01481 -0.629965 0
M  V30 3679 O 354.271 -1.64988 -1.58086 0
M  V30 3680 C 354.481 -3.04594 1.70363 0
M  V30 3681 C 355.829 -3.78567 1.92281 0
M  V30 3682 O 356.853 -3.14461 1.67311 0
M  V30 3683 O 355.712 -4.93755 2.3424 0
M  V30 3684 H 352.806 -0.761729 0.322021 0
M  V30 3685 H 355.352 -1.11493 1.27935 0
M  V30 3686 H 354.124 -2.81201 2.72106 0
M  V30 3687 H 353.747 -3.76022 1.29202 0
M  V30 3688 N 354.744 -0.972509 -1.24016 0
M  V30 3689 C 355.707 -0.511403 -2.23422 0
M  V30 3690 C 356.707 0.394679 -1.55881 0
M  V30 3691 O 357.897 0.189469 -1.73167 0
M  V30 3692 C 355.029 0.258769 -3.39916 0
M  V30 3693 H 356.222 -1.39024 -2.6573 0
M  V30 3694 H 353.775 -0.757585 -1.36713 0
M  V30 3695 H 354.51 1.1545 -3.03054 0
M  V30 3696 H 354.295 -0.391522 -3.9014 0
M  V30 3697 H 355.785 0.570244 -4.13688 0
M  V30 3698 N 356.222 1.38976 -0.743202 0
M  V30 3699 C 357.185 2.28901 -0.117014 0
M  V30 3700 C 358.185 1.46698 0.658503 0
M  V30 3701 O 359.375 1.67274 0.486305 0
M  V30 3702 C 356.507 3.30309 0.84315 0
M  V30 3703 H 357.7 2.8578 -0.909373 0
M  V30 3704 H 355.253 1.47761 -0.509547 0
M  V30 3705 H 355.988 2.785 1.66157 0
M  V30 3706 H 355.773 3.91029 0.289594 0
M  V30 3707 H 357.263 3.97577 1.2776 0
M  V30 3708 N 357.7 0.491464 1.49741 0
M  V30 3709 C 358.947 -0.0564256 2.02421 0
M  V30 3710 C 359.275 -1.37872 1.37192 0
M  V30 3711 O 358.53 -1.89375 0.493508 0
M  V30 3712 C 358.829 -0.267329 3.56399 0
M  V30 3713 C 358.495 0.975775 4.40215 0
M  V30 3714 C 357.157 1.31655 4.62839 0
M  V30 3715 C 359.509 1.80251 4.89039 0
M  V30 3716 C 356.837 2.48375 5.31532 0
M  V30 3717 C 359.189 2.96116 5.59015 0
M  V30 3718 C 357.853 3.30585 5.79888 0
M  V30 3719 H 357.123 -0.0206476 0.740712 0
M  V30 3720 H 359.77 0.649686 1.80143 0
M  V30 3721 H 358.075 -1.05588 3.77304 0
M  V30 3722 H 359.772 -0.705549 3.94744 0
M  V30 3723 H 356.362 0.700315 4.2284 0
M  V30 3724 H 360.546 1.55239 4.71396 0
M  V30 3725 H 355.802 2.7533 5.45897 0
M  V30 3726 H 359.976 3.60509 5.95824 0
M  V30 3727 H 357.603 4.21132 6.32892 0
M  V30 3728 N 359.178 -1.55987 0.224894 0
M  V30 3729 C 360.424 -1.98684 -0.406502 0
M  V30 3730 C 360.757 -1.11248 -1.59177 0
M  V30 3731 O 360.032 -0.170909 -1.93748 0
M  V30 3732 C 360.315 -3.50218 -0.837808 0
M  V30 3733 C 360.168 -4.48426 0.351332 0
M  V30 3734 C 361.487 -4.06243 -1.69278 0
M  V30 3735 H 358.606 -0.722337 -0.146283 0
M  V30 3736 H 361.248 -1.87255 0.321799 0
M  V30 3737 H 359.398 -3.60089 -1.45837 0
M  V30 3738 H 361.07 -4.50562 0.989526 0
M  V30 3739 H 359.313 -4.22159 0.998207 0
M  V30 3740 H 359.984 -5.52 0.00655905 0
M  V30 3741 H 362.46 -3.99337 -1.16914 0
M  V30 3742 H 361.336 -5.12581 -1.96346 0
M  V30 3743 H 361.597 -3.53332 -2.65723 0
M  V30 3744 N 360.656 0.0484629 -1.57525 0
M  V30 3745 C 362.067 0.597486 -1.76881 0
M  V30 3746 C 362.418 1.76664 -0.853475 0
M  V30 3747 O 361.543 2.16357 -0.0433656 0
M  V30 3748 C 362.138 1.09066 -3.20765 0
M  V30 3749 C 360.697 1.58535 -3.41385 0
M  V30 3750 C 359.844 0.514868 -2.72478 0
M  V30 3751 H 362.795 -0.177758 -1.57701 0
M  V30 3752 H 362.816 1.95875 -3.2621 0
M  V30 3753 H 362.328 0.239521 -3.8736 0
M  V30 3754 H 360.429 2.45898 -2.79937 0
M  V30 3755 H 360.542 1.64622 -4.49929 0
M  V30 3756 H 358.906 0.965407 -2.35695 0
M  V30 3757 H 359.689 -0.32648 -3.41744 0
M  V30 3758 N 362.134 1.5431 0.320358 0
M  V30 3759 C 363.359 1.76954 1.08175 0
M  V30 3760 C 363.784 0.518193 1.80821 0
M  V30 3761 O 363.142 -0.530411 1.73368 0
M  V30 3762 C 363.19 2.96451 2.05303 0
M  V30 3763 O 362.294 2.68221 3.13259 0
M  V30 3764 H 361.635 0.586275 0.311733 0
M  V30 3765 H 364.165 2.01342 0.363676 0
M  V30 3766 H 364.175 3.23887 2.48116 0
M  V30 3767 H 362.85 3.87196 1.51829 0
M  V30 3768 H 361.427 2.51744 2.75099 0
M  V30 3769 N 363.613 -0.582584 1.46437 0
M  V30 3770 C 364.859 -1.34278 1.51978 0
M  V30 3771 C 365.192 -1.93446 0.170973 0
M  V30 3772 O 364.467 -1.76481 -0.817608 0
M  V30 3773 C 364.75 -2.47203 2.61845 0
M  V30 3774 C 364.603 -1.93069 4.06257 0
M  V30 3775 C 365.922 -3.49247 2.67795 0
M  V30 3776 H 363.041 -0.486876 0.553282 0
M  V30 3777 H 365.683 -0.654437 1.78374 0
M  V30 3778 H 363.833 -3.0592 2.39469 0
M  V30 3779 H 365.505 -1.38808 4.3992 0
M  V30 3780 H 363.748 -1.23898 4.1573 0
M  V30 3781 H 364.419 -2.74586 4.7886 0
M  V30 3782 H 366.895 -3.00411 2.8791 0
M  V30 3783 H 365.771 -4.25719 3.46489 0
M  V30 3784 H 366.032 -4.06482 1.73852 0
M  V30 3785 N 365.091 -1.34144 -0.827227 0
M  V30 3786 C 366.054 -1.25264 -1.91942 0
M  V30 3787 C 367.054 -0.168866 -1.59911 0
M  V30 3788 O 368.244 -0.421198 -1.69031 0
M  V30 3789 C 365.376 -0.932952 -3.27885 0
M  V30 3790 H 366.569 -2.22357 -2.0124 0
M  V30 3791 H 364.122 -1.1837 -1.0207 0
M  V30 3792 H 364.857 0.0349917 -3.24281 0
M  V30 3793 H 364.642 -1.71682 -3.52516 0
M  V30 3794 H 366.132 -0.895874 -4.07877 0
M  V30 3795 N 366.569 1.04691 -1.17803 0
M  V30 3796 C 367.479 2.16057 -0.914151 0
M  V30 3797 C 368.495 1.73589 0.119503 0
M  V30 3798 O 369.671 2.01308 -0.0609468 0
M  V30 3799 C 366.736 3.4394 -0.436603 0
M  V30 3800 C 365.797 4.00825 -1.53746 0
M  V30 3801 C 365.03 5.22604 -1.0826 0
M  V30 3802 O 365.253 5.70367 0.0612244 0
M  V30 3803 O 364.187 5.7186 -1.87775 0
M  V30 3804 H 368.013 2.41169 -1.84584 0
M  V30 3805 H 365.598 1.1453 -0.959334 0
M  V30 3806 H 367.48 4.21024 -0.178057 0
M  V30 3807 H 366.155 3.20316 0.466869 0
M  V30 3808 H 365.062 3.25158 -1.84995 0
M  V30 3809 H 366.395 4.28778 -2.41683 0
M  V30 3810 N 368.047 0.979072 1.23499 0
M  V30 3811 C 368.994 0.517904 2.24914 0
M  V30 3812 C 369.964 -0.442525 1.60097 0
M  V30 3813 O 371.149 -0.350365 1.87556 0
M  V30 3814 C 368.289 -0.174813 3.44657 0
M  V30 3815 C 367.402 0.825721 4.24035 0
M  V30 3816 C 366.537 0.107946 5.3109 0
M  V30 3817 C 365.576 1.09778 6.02175 0
M  V30 3818 N 364.713 0.40925 7.00906 0
M  V30 3819 H 369.553 1.38751 2.63727 0
M  V30 3820 H 367.09 0.695303 1.2963 0
M  V30 3821 H 369.048 -0.593233 4.12961 0
M  V30 3822 H 367.678 -1.0083 3.06648 0
M  V30 3823 H 366.73 1.36253 3.55161 0
M  V30 3824 H 368.042 1.58005 4.73113 0
M  V30 3825 H 367.196 -0.367904 6.05583 0
M  V30 3826 H 365.935 -0.678994 4.8295 0
M  V30 3827 H 364.94 1.5844 5.26476 0
M  V30 3828 H 366.165 1.88536 6.52404 0
M  V30 3829 H 364.111 -0.358506 6.5502 0
M  V30 3830 H 364.028 1.10226 7.47921 0
M  V30 3831 H 365.296 -0.0442557 7.79487 0
M  V30 3832 N 369.525 -1.3858 0.750561 0
M  V30 3833 C 370.472 -2.30483 0.120835 0
M  V30 3834 C 371.442 -1.50022 -0.712923 0
M  V30 3835 O 372.627 -1.78662 -0.669676 0
M  V30 3836 C 369.767 -3.36431 -0.768666 0
M  V30 3837 C 368.88 -4.31927 0.0793922 0
M  V30 3838 C 368.015 -5.24944 -0.81283 0
M  V30 3839 C 367.054 -6.12088 0.0390447 0
M  V30 3840 N 366.191 -6.97412 -0.809969 0
M  V30 3841 H 371.031 -2.83761 0.91015 0
M  V30 3842 H 368.568 -1.39707 0.460463 0
M  V30 3843 H 370.526 -3.96462 -1.29898 0
M  V30 3844 H 369.156 -2.8457 -1.5238 0
M  V30 3845 H 368.208 -3.73382 0.727303 0
M  V30 3846 H 369.52 -4.93319 0.737401 0
M  V30 3847 H 368.674 -5.90078 -1.41042 0
M  V30 3848 H 367.413 -4.63911 -1.50458 0
M  V30 3849 H 366.418 -5.45952 0.649328 0
M  V30 3850 H 367.643 -6.75189 0.727809 0
M  V30 3851 H 365.589 -6.38931 -1.48672 0
M  V30 3852 H 365.506 -7.55712 -0.208789 0
M  V30 3853 H 366.774 -7.66959 -1.39263 0
M  V30 3854 N 371.003 -0.499398 -1.49478 0
M  V30 3855 C 371.966 0.268838 -2.27618 0
M  V30 3856 C 372.966 0.895383 -1.33565 0
M  V30 3857 O 374.156 0.760164 -1.56739 0
M  V30 3858 C 371.288 1.38559 -3.11471 0
M  V30 3859 H 372.481 -0.416812 -2.96989 0
M  V30 3860 H 370.034 -0.254313 -1.54217 0
M  V30 3861 H 370.769 2.10544 -2.46661 0
M  V30 3862 H 370.554 0.941797 -3.80621 0
M  V30 3863 H 372.044 1.92678 -3.70493 0
M  V30 3864 N 372.481 1.55866 -0.233164 0
M  V30 3865 C 373.892 1.847 0.272554 0
M  V30 3866 C 374.243 1.15477 1.58617 0
M  V30 3867 O 373.368 0.42841 2.12117 0
M  V30 3868 C 373.963 3.35071 0.501299 0
M  V30 3869 C 372.522 3.6418 0.951304 0
M  V30 3870 C 371.669 2.77292 0.0208209 0
M  V30 3871 H 374.62 1.52005 -0.456074 0
M  V30 3872 H 374.641 3.55906 1.34577 0
M  V30 3873 H 374.153 3.85424 -0.454936 0
M  V30 3874 H 372.254 3.19293 1.92049 0
M  V30 3875 H 372.367 4.72071 0.817675 0
M  V30 3876 H 370.731 2.49131 0.529723 0
M  V30 3877 H 371.514 3.30448 -0.93054 0
M  V30 3878 N 373.959 -0.0401083 1.57549 0
M  V30 3879 C 375.236 -0.767917 1.79896 0
M  V30 3880 C 375.616 -1.9416 0.82856 0
M  V30 3881 O 374.964 -2.2812 -0.131671 0
M  V30 3882 C 375.174 -1.2113 3.27305 0
M  V30 3883 C 376.522 -1.63175 3.91994 0
M  V30 3884 O 377.546 -1.30616 3.31388 0
M  V30 3885 O 376.405 -2.23565 4.98679 0
M  V30 3886 H 373.499 -0.370441 0.739393 0
M  V30 3887 H 376.045 -0.017737 1.69691 0
M  V30 3888 H 374.817 -0.372937 3.89519 0
M  V30 3889 H 374.44 -2.02183 3.42356 0
M  V30 3890 N 375.437 -1.54477 -0.31217 0
M  V30 3891 C 376.662 -1.77526 -1.07235 0
M  V30 3892 C 377.087 -0.527775 -1.80544 0
M  V30 3893 O 376.445 0.52121 -1.73646 0
M  V30 3894 C 376.493 -2.97535 -2.03728 0
M  V30 3895 O 375.597 -2.69878 -3.11833 0
M  V30 3896 H 374.938 -0.58792 -0.30862 0
M  V30 3897 H 377.468 -2.01532 -0.352993 0
M  V30 3898 H 377.478 -3.25198 -2.46395 0
M  V30 3899 H 376.153 -3.87996 -1.49774 0
M  V30 3900 H 374.73 -2.53199 -2.7376 0
M  V30 3901 N 376.915 0.57481 -1.46744 0
M  V30 3902 C 377.825 1.711 -1.60505 0
M  V30 3903 C 378.841 1.67008 -0.488307 0
M  V30 3904 O 380.017 1.86774 -0.753495 0
M  V30 3905 C 377.082 3.07608 -1.59932 0
M  V30 3906 C 376.143 3.22904 -2.82898 0
M  V30 3907 C 375.376 4.529 -2.82343 0
M  V30 3908 O 375.599 5.37278 -1.91542 0
M  V30 3909 O 374.533 4.71611 -3.73987 0
M  V30 3910 H 378.359 1.62436 -2.56609 0
M  V30 3911 H 375.944 0.742779 -1.29627 0
M  V30 3912 H 377.826 3.88877 -1.62336 0
M  V30 3913 H 376.501 3.16692 -0.669898 0
M  V30 3914 H 375.408 2.41099 -2.86046 0
M  V30 3915 H 376.741 3.18715 -3.75076 0
M  V30 3916 N 378.394 1.34581 0.820102 0
M  V30 3917 C 379.643 1.26437 1.57151 0
M  V30 3918 C 379.956 -0.163111 1.94919 0
M  V30 3919 O 381.162 -0.366722 2.69012 0
M  V30 3920 C 379.618 2.21658 2.83541 0
M  V30 3921 C 379.226 3.69679 2.53065 0
M  V30 3922 C 380.97 2.22428 3.61561 0
M  V30 3923 C 378.877 4.56761 3.75664 0
M  V30 3924 H 377.807 0.469707 0.589823 0
M  V30 3925 H 380.458 1.59763 0.902656 0
M  V30 3926 H 378.84 1.81287 3.52067 0
M  V30 3927 H 380.014 4.18605 1.92631 0
M  V30 3928 H 378.329 3.71384 1.88316 0
M  V30 3929 H 380.926 2.8471 4.52597 0
M  V30 3930 H 381.269 1.22434 3.97889 0
M  V30 3931 H 381.802 2.61259 2.99981 0
M  V30 3932 H 378.541 5.57702 3.44454 0
M  V30 3933 H 378.061 4.12568 4.35371 0
M  V30 3934 H 379.74 4.71509 4.43044 0
M  V30 3935 N 379.872 -1.04064 1.18357 0
M  V30 3936 C 380.819 -2.12077 0.910603 0
M  V30 3937 C 381.789 -1.65421 -0.15 0
M  V30 3938 O 382.974 -1.90797 -0.0103614 0
M  V30 3939 C 380.114 -3.42252 0.442472 0
M  V30 3940 C 379.227 -4.0252 1.5685 0
M  V30 3941 C 378.362 -5.20657 1.05309 0
M  V30 3942 C 377.401 -5.72955 2.1538 0
M  V30 3943 N 376.538 -6.8238 1.65233 0
M  V30 3944 H 381.378 -2.34764 1.83548 0
M  V30 3945 H 378.915 -1.15157 0.915279 0
M  V30 3946 H 380.873 -4.16921 0.152534 0
M  V30 3947 H 379.503 -3.19712 -0.445428 0
M  V30 3948 H 378.555 -3.25178 1.97391 0
M  V30 3949 H 379.867 -4.37362 2.39824 0
M  V30 3950 H 379.021 -6.0244 0.717677 0
M  V30 3951 H 377.76 -4.87318 0.19293 0
M  V30 3952 H 376.765 -4.89793 2.49766 0
M  V30 3953 H 377.99 -6.08337 3.01832 0
M  V30 3954 H 375.936 -6.50917 0.815064 0
M  V30 3955 H 375.853 -7.16286 2.41805 0
M  V30 3956 H 377.121 -7.67788 1.34619 0
M  V30 3957 N 381.35 -0.985608 -1.22978 0
M  V30 3958 C 382.598 -0.656087 -1.91154 0
M  V30 3959 C 382.919 0.813561 -1.77218 0
M  V30 3960 O 382.189 1.58244 -1.1548 0
M  V30 3961 H 380.769 -0.239674 -0.707506 0
M  V30 3962 H 383.431 -1.25054 -1.49491 0
M  V30 3963 H 382.527 -0.912253 -2.9847 0
M  V30 3964 N 382.828 1.3818 -0.7579 0
M  V30 3965 C 384.105 1.94106 -0.241306 0
M  V30 3966 C 384.485 1.69282 1.26122 0
M  V30 3967 O 383.833 1.03378 2.03777 0
M  V30 3968 C 384.043 3.43809 -0.59967 0
M  V30 3969 C 385.391 4.20868 -0.561717 0
M  V30 3970 O 386.415 3.5211 -0.538222 0
M  V30 3971 O 385.274 5.43451 -0.576478 0
M  V30 3972 H 382.368 0.825376 -0.0518042 0
M  V30 3973 H 384.914 1.47548 -0.838315 0
M  V30 3974 H 383.686 3.55403 -1.6372 0
M  V30 3975 H 383.309 3.97592 0.0251197 0
M  V30 3976 N 384.306 0.507319 1.49211 0
M  V30 3977 C 385.269 -0.256763 2.27757 0
M  V30 3978 C 386.269 -0.888287 1.34038 0
M  V30 3979 O 387.459 -0.751841 1.5714 0
M  V30 3980 C 384.591 -1.36905 3.12202 0
M  V30 3981 H 385.784 0.432557 2.96764 0
M  V30 3982 H 383.337 0.262488 1.5408 0
M  V30 3983 H 384.072 -2.09233 2.47775 0
M  V30 3984 H 383.857 -0.921599 3.81115 0
M  V30 3985 H 385.347 -1.9071 3.7151 0
M  V30 3986 N 385.784 -1.5574 0.241426 0
M  V30 3987 C 386.732 -2.22538 -0.676718 0
M  V30 3988 C 387.726 -1.21117 -1.18436 0
M  V30 3989 O 388.932 -1.39144 -1.14188 0
M  V30 3990 H 385.307 -0.713776 -0.236701 0
M  V30 3991 H 387.278 -2.98264 -0.0901187 0
M  V30 3992 C 386.027 -2.93439 -1.86518 0
M  V30 3993 H 385.35 -3.7125 -1.4837 0
M  V30 3994 H 386.79 -3.43549 -2.48495 0
M  V30 3995 C 385.249 -1.97008 -2.73294 0
M  V30 3996 O 385.779 -1.49965 -3.72657 0
M  V30 3997 N 383.985 -1.64227 -2.39745 0
M  V30 3998 H 383.532 -2.02677 -1.58996 0
M  V30 3999 H 383.49 -0.999708 -2.98083 0
M  V30 4000 N 387.262 0.0317525 -1.57568 0
M  V30 4001 C 388.508 0.724175 -1.8943 0
M  V30 4002 C 388.841 1.75149 -0.838836 0
M  V30 4003 O 388.116 1.93948 0.146422 0
M  V30 4004 C 388.399 1.39615 -3.31933 0
M  V30 4005 C 388.252 0.382537 -4.4817 0
M  V30 4006 C 389.571 2.33084 -3.73309 0
M  V30 4007 H 386.69 0.261797 -0.688935 0
M  V30 4008 H 389.332 -0.013017 -1.89996 0
M  V30 4009 H 387.482 2.02451 -3.31581 0
M  V30 4010 H 389.154 -0.243689 -4.60656 0
M  V30 4011 H 387.397 -0.29844 -4.32772 0
M  V30 4012 H 388.068 0.891145 -5.44759 0
M  V30 4013 H 390.544 1.80295 -3.7501 0
M  V30 4014 H 389.42 2.77084 -4.73831 0
M  V30 4015 H 389.681 3.19643 -3.05419 0
M  V30 4016 N 388.74 1.54641 0.303973 0
M  V30 4017 C 389.987 1.7378 1.03955 0
M  V30 4018 C 390.315 0.521986 1.87365 0
M  V30 4019 O 389.57 -0.496099 1.89308 0
M  V30 4020 C 389.869 2.97753 1.97681 0
M  V30 4021 C 389.535 4.31671 1.30271 0
M  V30 4022 C 388.197 4.68075 1.11619 0
M  V30 4023 C 390.549 5.147 0.82055 0
M  V30 4024 C 387.877 5.8509 0.434304 0
M  V30 4025 C 390.229 6.32416 0.152395 0
M  V30 4026 C 388.893 6.67484 -0.0461067 0
M  V30 4027 H 388.163 0.635908 0.380398 0
M  V30 4028 H 390.81 1.88896 0.314718 0
M  V30 4029 H 389.115 2.77406 2.76682 0
M  V30 4030 H 390.812 3.09756 2.54661 0
M  V30 4031 H 387.402 4.03041 1.45795 0
M  V30 4032 H 391.586 4.87077 0.952374 0
M  V30 4033 H 386.842 6.10806 0.269495 0
M  V30 4034 H 391.016 6.96023 -0.229126 0
M  V30 4035 H 388.643 7.58011 -0.576494 0
M  V30 4036 N 390.218 -0.567019 1.47046 0
M  V30 4037 C 391.464 -1.32658 1.53394 0
M  V30 4038 C 391.797 -1.93254 0.19148 0
M  V30 4039 O 391.072 -1.77338 -0.798844 0
M  V30 4040 C 391.355 -2.44412 2.64452 0
M  V30 4041 C 391.208 -1.88749 4.08282 0
M  V30 4042 C 392.527 -3.46387 2.71485 0
M  V30 4043 H 389.646 -0.48098 0.558415 0
M  V30 4044 H 392.288 -0.635481 1.79058 0
M  V30 4045 H 390.438 -3.03363 2.427 0
M  V30 4046 H 392.11 -1.34134 4.41368 0
M  V30 4047 H 390.353 -1.19481 4.17021 0
M  V30 4048 H 391.024 -2.69491 4.81745 0
M  V30 4049 H 393.5 -2.9734 2.91081 0
M  V30 4050 H 392.376 -4.2202 3.50985 0
M  V30 4051 H 392.637 -4.04616 1.78153 0
M  V30 4052 N 391.696 -1.35014 -0.812953 0
M  V30 4053 C 392.943 -1.27931 -1.56971 0
M  V30 4054 C 393.271 0.148034 -1.93936 0
M  V30 4055 O 392.526 1.11175 -1.61054 0
M  V30 4056 C 392.825 -2.12524 -2.87347 0
M  V30 4057 C 392.491 -3.61401 -2.6963 0
M  V30 4058 C 391.153 -4.01983 -2.64506 0
M  V30 4059 C 393.505 -4.55894 -2.52607 0
M  V30 4060 C 390.833 -5.35235 -2.40293 0
M  V30 4061 C 393.185 -5.89336 -2.29925 0
M  V30 4062 C 391.849 -6.2907 -2.23219 0
M  V30 4063 H 391.119 -0.468131 -0.574399 0
M  V30 4064 H 393.766 -1.66851 -0.939836 0
M  V30 4065 H 392.071 -1.66463 -3.54679 0
M  V30 4066 H 393.768 -2.04383 -3.45005 0
M  V30 4067 H 390.358 -3.29193 -2.74463 0
M  V30 4068 H 394.542 -4.25431 -2.55583 0
M  V30 4069 H 389.798 -5.65028 -2.33566 0
M  V30 4070 H 393.972 -6.62139 -2.15743 0
M  V30 4071 H 391.599 -7.32256 -2.04219 0
M  V30 4072 N 393.175 1.03435 -1.18907 0
M  V30 4073 C 394.586 1.58195 -0.991523 0
M  V30 4074 C 394.937 1.90801 0.457081 0
M  V30 4075 O 394.062 1.70272 1.33553 0
M  V30 4076 C 394.657 2.87432 -1.79355 0
M  V30 4077 C 393.216 3.38785 -1.64017 0
M  V30 4078 C 392.363 2.12292 -1.78402 0
M  V30 4079 H 395.314 0.860299 -1.33359 0
M  V30 4080 H 395.335 3.58096 -1.28638 0
M  V30 4081 H 394.847 2.63669 -2.84781 0
M  V30 4082 H 392.948 3.67547 -0.611536 0
M  V30 4083 H 393.061 4.12186 -2.44212 0
M  V30 4084 H 391.425 2.23901 -1.2141 0
M  V30 4085 H 392.208 1.90977 -2.85277 0
M  V30 4086 N 394.653 0.992116 1.22453 0
M  V30 4087 C 395.878 0.685644 1.95739 0
M  V30 4088 C 396.303 -0.743 1.72804 0
M  V30 4089 O 395.661 -1.50778 1.00676 0
M  V30 4090 C 395.709 0.996293 3.46564 0
M  V30 4091 O 394.813 0.0945512 4.12292 0
M  V30 4092 H 394.154 0.256694 0.612376 0
M  V30 4093 H 396.684 1.32888 1.5557 0
M  V30 4094 H 396.694 0.93781 3.97076 0
M  V30 4095 H 395.369 2.03733 3.62582 0
M  V30 4096 H 393.946 0.208451 3.72317 0
M  V30 4097 N 396.131 -1.37776 0.765217 0
M  V30 4098 C 397.061 -2.32945 0.160953 0
M  V30 4099 C 398.042 -1.55454 -0.690516 0
M  V30 4100 O 399.227 -1.83721 -0.629318 0
M  V30 4101 C 396.357 -3.39669 -0.724031 0
M  V30 4102 C 395.311 -4.27992 0.0256173 0
M  V30 4103 C 394.637 -5.25673 -0.978383 0
M  V30 4104 C 395.937 -5.08309 1.20082 0
M  V30 4105 H 397.631 -2.83728 0.955969 0
M  V30 4106 H 395.177 -1.36416 0.461149 0
M  V30 4107 H 397.13 -4.05219 -1.15652 0
M  V30 4108 H 395.854 -2.87396 -1.5515 0
M  V30 4109 H 394.513 -3.63964 0.438812 0
M  V30 4110 H 394.161 -4.69682 -1.80022 0
M  V30 4111 H 393.861 -5.85625 -0.481378 0
M  V30 4112 H 395.385 -5.94098 -1.40995 0
M  V30 4113 H 396.799 -5.67034 0.845307 0
M  V30 4114 H 395.196 -5.77554 1.62947 0
M  V30 4115 H 396.266 -4.41365 2.00811 0
M  V30 4116 N 397.609 -0.515225 -1.4894 0
M  V30 4117 C 398.519 0.259774 -2.33157 0
M  V30 4118 C 399.535 0.953501 -1.45548 0
M  V30 4119 O 400.711 0.931735 -1.78552 0
M  V30 4120 C 397.776 1.30193 -3.21326 0
M  V30 4121 C 396.837 0.620129 -4.24797 0
M  V30 4122 C 396.07 1.61263 -5.08753 0
M  V30 4123 O 396.293 2.84389 -4.94448 0
M  V30 4124 O 395.227 1.16013 -5.90614 0
M  V30 4125 H 399.053 -0.429932 -3.00641 0
M  V30 4126 H 396.638 -0.276346 -1.46822 0
M  V30 4127 H 398.52 1.90455 -3.75905 0
M  V30 4128 H 397.195 1.97431 -2.56521 0
M  V30 4129 H 396.102 -0.0226019 -3.74093 0
M  V30 4130 H 397.435 -0.0100493 -4.92199 0
M  V30 4131 N 399.087 1.5561 -0.249682 0
M  V30 4132 C 400.05 2.20217 0.635394 0
M  V30 4133 C 401.05 1.17227 1.10066 0
M  V30 4134 O 402.24 1.42292 1.00492 0
M  V30 4135 C 399.372 2.84794 1.87363 0
M  V30 4136 H 400.565 2.99814 0.0716752 0
M  V30 4137 H 398.118 1.563 -0.000153234 0
M  V30 4138 H 398.853 2.09142 2.47851 0
M  V30 4139 H 398.638 3.60241 1.5482 0
M  V30 4140 H 400.128 3.3423 2.5036 0
M  V30 4141 N 400.565 -0.0233959 1.57583 0
M  V30 4142 C 401.813 -0.711654 1.89156 0
M  V30 4143 C 402.134 -1.75591 0.848096 0
M  V30 4144 O 401.404 -1.95547 -0.117566 0
M  V30 4145 H 399.984 -0.265835 0.698098 0
M  V30 4146 H 402.646 0.0119948 1.94896 0
M  V30 4147 H 401.742 -1.19766 2.88206 0
M  V30 4148 N 402.043 -1.548 -0.295768 0
M  V30 4149 C 402.991 -1.86874 -1.38495 0
M  V30 4150 C 403.985 -0.742938 -1.52239 0
M  V30 4151 O 405.191 -0.926999 -1.54294 0
M  V30 4152 H 401.566 -0.592786 -0.462719 0
M  V30 4153 H 403.537 -2.77904 -1.08682 0
M  V30 4154 C 402.286 -2.13732 -2.74252 0
M  V30 4155 H 401.609 -2.99835 -2.64459 0
M  V30 4156 H 403.049 -2.4011 -3.49461 0
M  V30 4157 C 401.508 -0.937539 -3.23592 0
M  V30 4158 O 402.038 -0.160665 -4.01379 0
M  V30 4159 N 400.244 -0.741478 -2.80981 0
M  V30 4160 H 399.791 -1.37489 -2.1784 0
M  V30 4161 H 399.749 0.0597103 -3.14343 0
M  V30 4162 N 403.521 0.559213 -1.47345 0
M  V30 4163 C 404.77 1.31281 -1.53128 0
M  V30 4164 C 405.083 1.94602 -0.197344 0
M  V30 4165 O 406.289 2.71173 -0.133154 0
M  V30 4166 C 404.745 2.38051 -2.69925 0
M  V30 4167 C 404.353 1.8093 -4.0984 0
M  V30 4168 C 406.097 3.14604 -2.84999 0
M  V30 4169 C 404.004 2.85468 -5.1794 0
M  V30 4170 H 402.934 0.493614 -0.569966 0
M  V30 4171 H 405.585 0.594155 -1.73615 0
M  V30 4172 H 403.967 3.12822 -2.42814 0
M  V30 4173 H 405.141 1.12544 -4.46845 0
M  V30 4174 H 403.456 1.16967 -3.99634 0
M  V30 4175 H 406.053 3.92666 -3.62929 0
M  V30 4176 H 406.396 3.68665 -1.93369 0
M  V30 4177 H 406.929 2.46945 -3.1187 0
M  V30 4178 H 403.668 2.36264 -6.1144 0
M  V30 4179 H 403.188 3.52269 -4.85455 0
M  V30 4180 H 404.867 3.48996 -5.44803 0
M  V30 4181 N 404.999 1.35443 0.805782 0
M  V30 4182 C 406.247 1.28507 1.55982 0
M  V30 4183 C 406.568 -0.140046 1.94496 0
M  V30 4184 O 405.838 -1.07666 1.63661 0
M  V30 4185 H 404.418 0.472676 0.578434 0
M  V30 4186 H 407.08 1.69555 0.961098 0
M  V30 4187 H 406.176 1.90148 2.47488 0
M  V30 4188 N 406.477 -1.02803 1.19454 0
M  V30 4189 C 407.707 -1.79581 1.02149 0
M  V30 4190 C 408.115 -1.84182 -0.432851 0
M  V30 4191 O 407.458 -1.28534 -1.31243 0
M  V30 4192 C 407.52 -3.25993 1.51554 0
M  V30 4193 C 407.184 -3.45025 2.99678 0
M  V30 4194 C 408.181 -3.35175 3.97434 0
M  V30 4195 C 405.866 -3.71212 3.38389 0
M  V30 4196 C 407.86 -3.51238 5.31893 0
M  V30 4197 C 405.547 -3.8692 4.73008 0
M  V30 4198 C 406.545 -3.76936 5.69569 0
M  V30 4199 O 406.233 -3.92179 7.01748 0
M  V30 4200 H 405.965 -0.571962 0.360327 0
M  V30 4201 H 408.519 -1.30367 1.58725 0
M  V30 4202 H 406.749 -3.76235 0.893543 0
M  V30 4203 H 408.438 -3.84368 1.30444 0
M  V30 4204 H 409.204 -3.14895 3.68872 0
M  V30 4205 H 405.083 -3.78075 2.6378 0
M  V30 4206 H 408.627 -3.43362 6.07247 0
M  V30 4207 H 404.524 -4.06699 5.01265 0
M  V30 4208 H 405.292 -4.09265 7.08833 0
M  V30 4209 N 407.956 -0.998596 -1.21925 0
M  V30 4210 C 408.903 -0.553621 -2.24062 0
M  V30 4211 C 409.873 0.416999 -1.6078 0
M  V30 4212 O 411.058 0.320482 -1.88089 0
M  V30 4213 C 408.198 0.119959 -3.44891 0
M  V30 4214 C 407.311 -0.893077 -4.22668 0
M  V30 4215 C 406.446 -0.192424 -5.30851 0
M  V30 4216 C 405.485 -1.19344 -6.00353 0
M  V30 4217 N 404.622 -0.520707 -7.00166 0
M  V30 4218 H 409.462 -1.4293 -2.61486 0
M  V30 4219 H 406.999 -0.715838 -1.28507 0
M  V30 4220 H 408.957 0.527459 -4.13852 0
M  V30 4221 H 407.587 0.959389 -3.08214 0
M  V30 4222 H 406.639 -1.41886 -3.52948 0
M  V30 4223 H 407.951 -1.65512 -4.70539 0
M  V30 4224 H 407.105 0.271515 -6.06092 0
M  V30 4225 H 405.844 0.602075 -4.83969 0
M  V30 4226 H 404.849 -1.66795 -5.23889 0
M  V30 4227 H 406.074 -1.98891 -6.49322 0
M  V30 4228 H 404.02 0.254252 -6.55507 0
M  V30 4229 H 403.937 -1.2211 -7.46073 0
M  V30 4230 H 405.205 -0.0797596 -7.79459 0
M  V30 4231 N 409.434 1.37368 -0.772513 0
M  V30 4232 C 410.683 1.98918 -0.333861 0
M  V30 4233 C 410.996 1.62017 1.09589 0
M  V30 4234 O 412.202 2.16676 1.63596 0
M  V30 4235 C 410.658 3.55735 -0.545971 0
M  V30 4236 C 410.266 4.01573 -1.98603 0
M  V30 4237 C 412.01 4.24156 -0.170979 0
M  V30 4238 C 409.917 5.51102 -2.1457 0
M  V30 4239 H 408.847 0.744214 -0.121085 0
M  V30 4240 H 411.498 1.56888 -0.95175 0
M  V30 4241 H 409.88 3.95748 0.141387 0
M  V30 4242 H 411.054 3.72803 -2.7084 0
M  V30 4243 H 409.369 3.45937 -2.31769 0
M  V30 4244 H 411.966 5.34024 -0.26878 0
M  V30 4245 H 412.309 4.06917 0.878855 0
M  V30 4246 H 412.842 3.89447 -0.810914 0
M  V30 4247 H 409.581 5.73268 -3.17875 0
M  V30 4248 H 409.101 5.81554 -1.46817 0
M  V30 4249 H 410.78 6.17083 -1.94468 0
M  V30 4250 N 410.912 0.523116 1.48665 0
M  V30 4251 C 411.875 -0.232592 2.28017 0
M  V30 4252 C 412.875 -0.874021 1.34972 0
M  V30 4253 O 414.065 -0.735132 1.57929 0
M  V30 4254 C 411.197 -1.33586 3.13636 0
M  V30 4255 H 412.39 0.464008 2.96289 0
M  V30 4256 H 409.943 0.278816 1.53793 0
M  V30 4257 H 410.678 -2.06593 2.4998 0
M  V30 4258 H 410.463 -0.881125 3.82071 0
M  V30 4259 H 411.953 -1.86759 3.73511 0
M  V30 4260 N 412.39 -1.55475 0.257931 0
M  V30 4261 C 413.322 -2.19192 -0.669881 0
M  V30 4262 C 414.335 -1.17148 -1.1305 0
M  V30 4263 O 415.524 -1.43959 -1.05537 0
M  V30 4264 C 412.624 -2.79016 -1.92363 0
M  V30 4265 C 411.797 -4.06586 -1.61265 0
M  V30 4266 C 410.856 -4.50622 -2.7171 0
M  V30 4267 O 409.882 -5.16765 -2.38627 0
M  V30 4268 N 411.084 -4.19325 -4.01431 0
M  V30 4269 H 413.849 -2.99441 -0.124635 0
M  V30 4270 H 411.41 -1.6171 0.0783311 0
M  V30 4271 H 413.402 -3.05427 -2.65511 0
M  V30 4272 H 411.972 -2.0286 -2.37837 0
M  V30 4273 H 411.192 -3.87646 -0.715811 0
M  V30 4274 H 412.48 -4.89737 -1.37967 0
M  V30 4275 H 411.878 -3.66247 -4.31138 0
M  V30 4276 H 410.435 -4.50547 -4.7101 0
M  V30 4277 N 413.868 0.0150385 -1.57593 0
M  V30 4278 C 415.284 0.370907 -1.5523 0
M  V30 4279 C 415.484 1.75735 -0.985882 0
M  V30 4280 O 414.54 2.44944 -0.613077 0
M  V30 4281 C 415.853 0.259908 -2.99575 0
M  V30 4282 C 417.401 0.335959 -3.11192 0
M  V30 4283 C 417.876 0.254253 -4.57294 0
M  V30 4284 N 419.367 0.312618 -4.62144 0
M  V30 4285 C 420.102 0.272505 -5.72752 0
M  V30 4286 N 419.598 0.183864 -6.92556 0
M  V30 4287 N 421.391 0.323267 -5.6117 0
M  V30 4288 H 413.542 -0.892104 -1.92757 0
M  V30 4289 H 415.805 -0.340563 -0.884715 0
M  V30 4290 H 415.511 -0.693403 -3.44797 0
M  V30 4291 H 415.385 1.048 -3.62349 0
M  V30 4292 H 417.772 1.27971 -2.65909 0
M  V30 4293 H 417.853 -0.481739 -2.51223 0
M  V30 4294 H 417.497 -0.685887 -5.03247 0
M  V30 4295 H 417.427 1.09024 -5.15191 0
M  V30 4296 H 419.918 0.38307 -3.75953 0
M  V30 4297 H 420.231 0.15874 -7.72637 0
M  V30 4298 H 418.576 0.149708 -6.94839 0
M  V30 4299 H 421.767 0.390607 -4.66467 0
M  V30 4300 H 421.94 0.288539 -6.47357 0
M  V30 4301 N 415.346 1.54954 0.287554 0
M  V30 4302 C 416.276 1.89839 1.35954 0
M  V30 4303 C 417.257 0.758675 1.52244 0
M  V30 4304 O 418.442 1.01557 1.65529 0
M  V30 4305 C 415.572 2.15753 2.72154 0
M  V30 4306 C 414.526 3.3159 2.70614 0
M  V30 4307 C 413.852 3.42952 4.10229 0
M  V30 4308 C 415.152 4.68359 2.31165 0
M  V30 4309 H 416.846 2.79625 1.07007 0
M  V30 4310 H 414.392 1.3454 0.513316 0
M  V30 4311 H 416.345 2.38743 3.47246 0
M  V30 4312 H 415.069 1.22752 3.02654 0
M  V30 4313 H 413.728 3.08545 1.97979 0
M  V30 4314 H 413.376 2.47443 4.37928 0
M  V30 4315 H 413.076 4.20826 4.10097 0
M  V30 4316 H 414.6 3.68218 4.87081 0
M  V30 4317 H 416.014 4.9099 2.95976 0
M  V30 4318 H 414.411 5.49044 2.42221 0
M  V30 4319 H 415.481 4.68165 1.26291 0
M  V30 4320 N 416.824 -0.551391 1.4764 0
M  V30 4321 C 418.072 -1.30572 1.54258 0
M  V30 4322 C 418.393 -1.93877 0.208963 0
M  V30 4323 O 417.663 -1.80234 -0.767619 0
M  V30 4324 H 416.243 -0.484894 0.568231 0
M  V30 4325 H 418.905 -0.643402 1.83974 0
M  V30 4326 H 418.001 -2.09621 2.31226 0
M  V30 4327 N 418.302 -1.35869 -0.798587 0
M  V30 4328 C 419.25 -1.29491 -1.93222 0
M  V30 4329 C 420.244 -0.18836 -1.6835 0
M  V30 4330 O 421.45 -0.354822 -1.76468 0
M  V30 4331 H 417.825 -0.402901 -0.63496 0
M  V30 4332 H 419.796 -2.25247 -1.9572 0
M  V30 4333 C 418.545 -1.09184 -3.30112 0
M  V30 4334 H 417.868 -1.93574 -3.49813 0
M  V30 4335 H 419.308 -1.08766 -4.09812 0
M  V30 4336 C 417.767 0.203959 -3.36282 0
M  V30 4337 O 418.297 1.19699 -3.83451 0
M  V30 4338 N 416.503 0.245488 -2.89561 0
M  V30 4339 H 416.05 -0.563223 -2.51367 0
M  V30 4340 H 416.008 1.11219 -2.94071 0
M  V30 4341 N 419.78 1.02168 -1.19998 0
M  V30 4342 C 421.027 1.75685 -1.00702 0
M  V30 4343 C 421.355 1.88947 0.461426 0
M  V30 4344 O 420.61 1.40832 1.35885 0
M  V30 4345 C 420.909 3.18081 -1.62969 0
M  V30 4346 C 420.575 3.24809 -3.12746 0
M  V30 4347 C 419.237 3.26352 -3.53621 0
M  V30 4348 C 421.589 3.23379 -4.08749 0
M  V30 4349 C 418.917 3.2413 -4.89036 0
M  V30 4350 C 421.269 3.22698 -5.44104 0
M  V30 4351 C 419.933 3.22542 -5.84399 0
M  V30 4352 H 419.203 0.642877 -0.368496 0
M  V30 4353 H 421.85 1.19865 -1.49348 0
M  V30 4354 H 420.155 3.77027 -1.06573 0
M  V30 4355 H 421.852 3.73648 -1.45561 0
M  V30 4356 H 418.442 3.2434 -2.80181 0
M  V30 4357 H 422.626 3.21361 -3.78207 0
M  V30 4358 H 417.882 3.22338 -5.19527 0
M  V30 4359 H 422.056 3.20543 -6.18244 0
M  V30 4360 H 419.683 3.20575 -6.89301 0
M  V30 4361 N 421.258 1.00505 1.21394 0
M  V30 4362 C 422.168 0.574806 2.27449 0
M  V30 4363 C 423.184 -0.382206 1.6975 0
M  V30 4364 O 424.36 -0.246027 1.99892 0
M  V30 4365 C 421.425 -0.0917414 3.46579 0
M  V30 4366 C 420.486 0.909758 4.1955 0
M  V30 4367 C 419.719 0.274924 5.32991 0
M  V30 4368 O 419.942 -0.928254 5.62796 0
M  V30 4369 O 418.876 0.985877 5.93771 0
M  V30 4370 H 422.702 1.45744 2.66444 0
M  V30 4371 H 420.287 0.773923 1.27792 0
M  V30 4372 H 422.169 -0.464551 4.18832 0
M  V30 4373 H 420.844 -0.948755 3.09484 0
M  V30 4374 H 419.751 1.33372 3.49518 0
M  V30 4375 H 421.084 1.73636 4.60555 0
M  V30 4376 N 422.737 -1.36956 0.779787 0
M  V30 4377 C 423.7 -2.2851 0.177662 0
M  V30 4378 C 424.7 -1.48393 -0.619377 0
M  V30 4379 O 425.89 -1.68505 -0.441785 0
M  V30 4380 C 423.022 -3.32428 -0.755279 0
M  V30 4381 H 424.215 -2.83269 0.984823 0
M  V30 4382 H 421.768 -1.46358 0.548544 0
M  V30 4383 H 422.503 -2.82808 -1.58714 0
M  V30 4384 H 422.288 -3.91659 -0.185817 0
M  V30 4385 H 423.778 -4.00824 -1.17174 0
M  V30 4386 N 424.215 -0.530993 -1.48385 0
M  V30 4387 C 425.461 0.00274135 -2.028 0
M  V30 4388 C 425.794 1.33838 -1.40716 0
M  V30 4389 O 425.069 1.86465 -0.553277 0
M  V30 4390 C 425.352 0.123676 -3.59888 0
M  V30 4391 C 425.205 -1.2372 -4.3245 0
M  V30 4392 C 426.524 0.849967 -4.31814 0
M  V30 4393 H 423.643 -0.000477758 -0.737 0
M  V30 4394 H 426.285 -0.688217 -1.77098 0
M  V30 4395 H 424.435 0.712157 -3.81917 0
M  V30 4396 H 426.107 -1.86687 -4.21836 0
M  V30 4397 H 424.35 -1.81882 -3.93829 0
M  V30 4398 H 425.021 -1.10557 -5.40815 0
M  V30 4399 H 427.497 0.350572 -4.14621 0
M  V30 4400 H 426.373 0.903486 -5.41413 0
M  V30 4401 H 426.634 1.90047 -3.99167 0
M  V30 4402 N 425.693 1.55336 -0.266172 0
M  V30 4403 C 426.941 1.99003 0.35246 0
M  V30 4404 C 427.262 1.15591 1.57047 0
M  V30 4405 O 426.532 0.243268 1.94384 0
M  V30 4406 H 425.112 0.735025 0.133217 0
M  V30 4407 H 427.774 1.91367 -0.369434 0
M  V30 4408 H 426.87 3.05289 0.648453 0
M  V30 4409 N 427.171 -0.0066808 1.57599 0
M  V30 4410 C 428.582 -0.550379 1.78403 0
M  V30 4411 C 428.933 -1.74339 0.900014 0
M  V30 4412 O 428.058 -2.16166 0.100713 0
M  V30 4413 C 428.653 -1.00523 3.23544 0
M  V30 4414 C 427.212 -1.49428 3.45468 0
M  V30 4415 C 426.359 -0.442444 2.73748 0
M  V30 4416 H 429.31 0.219508 1.57175 0
M  V30 4417 H 429.331 -1.87157 3.31289 0
M  V30 4418 H 428.843 -0.136735 3.87859 0
M  V30 4419 H 426.944 -2.3839 2.86358 0
M  V30 4420 H 427.057 -1.52635 4.54136 0
M  V30 4421 H 425.421 -0.902578 2.38171 0
M  V30 4422 H 426.204 0.416973 3.40758 0
M  V30 4423 N 428.649 -1.55105 -0.279332 0
M  V30 4424 C 429.898 -1.74618 -1.00952 0
M  V30 4425 C 430.211 -0.551096 -1.87676 0
M  V30 4426 O 431.417 -0.628507 -2.64125 0
M  V30 4427 C 429.873 -3.09025 -1.84476 0
M  V30 4428 C 429.481 -4.36081 -1.0265 0
M  V30 4429 C 431.225 -3.37891 -2.56963 0
M  V30 4430 C 429.132 -5.6153 -1.85576 0
M  V30 4431 H 428.062 -0.650868 -0.38064 0
M  V30 4432 H 430.713 -1.81569 -0.265475 0
M  V30 4433 H 429.095 -2.96095 -2.62952 0
M  V30 4434 H 430.269 -4.59909 -0.286354 0
M  V30 4435 H 428.584 -4.14312 -0.416464 0
M  V30 4436 H 431.181 -4.28822 -3.19399 0
M  V30 4437 H 431.524 -2.57737 -3.26921 0
M  V30 4438 H 432.057 -3.5189 -1.85522 0
M  V30 4439 H 428.796 -6.44413 -1.2005 0
M  V30 4440 H 428.316 -5.41854 -2.57204 0
M  V30 4441 H 429.995 -5.99594 -2.43096 0
M  V30 4442 N 430.127 0.543554 -1.4793 0
M  V30 4443 C 431.057 1.65888 -1.64327 0
M  V30 4444 C 432.038 1.62818 -0.492383 0
M  V30 4445 O 433.223 1.80226 -0.723338 0
M  V30 4446 C 430.353 3.04506 -1.67013 0
M  V30 4447 C 429.307 3.2243 -2.81466 0
M  V30 4448 C 428.633 4.61972 -2.69233 0
M  V30 4449 C 429.933 3.06496 -4.22915 0
M  V30 4450 H 431.627 1.52421 -2.57698 0
M  V30 4451 H 429.173 0.731849 -1.24016 0
M  V30 4452 H 431.126 3.82391 -1.77074 0
M  V30 4453 H 429.85 3.18964 -0.70212 0
M  V30 4454 H 428.509 2.46957 -2.70938 0
M  V30 4455 H 428.157 4.73247 -1.7043 0
M  V30 4456 H 427.857 4.74911 -3.46025 0
M  V30 4457 H 429.381 5.41974 -2.81242 0
M  V30 4458 H 430.795 3.74186 -4.34348 0
M  V30 4459 H 429.192 3.30938 -5.006 0
M  V30 4460 H 430.262 2.03077 -4.40327 0
M  V30 4461 N 431.605 1.3629 0.791371 0
M  V30 4462 C 432.537 1.26321 1.91248 0
M  V30 4463 C 433.55 0.18313 1.61767 0
M  V30 4464 O 434.739 0.437682 1.73051 0
M  V30 4465 C 431.839 0.925901 3.26007 0
M  V30 4466 C 431.012 2.10746 3.83281 0
M  V30 4467 C 430.071 1.74352 4.96475 0
M  V30 4468 O 429.097 2.46416 5.13096 0
M  V30 4469 N 430.299 0.676058 5.7655 0
M  V30 4470 H 433.064 2.22915 2.00323 0
M  V30 4471 H 430.625 1.29659 0.969546 0
M  V30 4472 H 432.617 0.663636 3.99222 0
M  V30 4473 H 431.187 0.0491581 3.12561 0
M  V30 4474 H 430.407 2.53264 3.02077 0
M  V30 4475 H 431.695 2.8969 4.18279 0
M  V30 4476 H 431.093 0.0776467 5.65647 0
M  V30 4477 H 429.65 0.473612 6.50077 0
M  V30 4478 N 433.083 -1.0153 1.20538 0
M  V30 4479 C 434.331 -1.74803 1.01432 0
M  V30 4480 C 434.652 -1.8963 -0.454456 0
M  V30 4481 O 433.922 -1.43975 -1.32846 0
M  V30 4482 H 432.502 -0.647598 0.372324 0
M  V30 4483 H 435.164 -1.22402 1.5167 0
M  V30 4484 H 434.26 -2.75114 1.47373 0
M  V30 4485 N 434.561 -1.01147 -1.20859 0
M  V30 4486 C 435.491 -0.597663 -2.25722 0
M  V30 4487 C 436.472 0.384744 -1.65692 0
M  V30 4488 O 437.657 0.271303 -1.92296 0
M  V30 4489 C 434.787 0.0700149 -3.47229 0
M  V30 4490 C 433.741 -0.832843 -4.19819 0
M  V30 4491 C 433.067 -0.0312202 -5.34691 0
M  V30 4492 C 434.367 -2.1385 -4.76514 0
M  V30 4493 H 436.061 -1.47423 -2.60589 0
M  V30 4494 H 433.607 -0.710301 -1.25263 0
M  V30 4495 H 435.56 0.37103 -4.19763 0
M  V30 4496 H 434.284 0.981259 -3.11511 0
M  V30 4497 H 432.943 -1.11778 -3.49144 0
M  V30 4498 H 432.591 0.881515 -4.95215 0
M  V30 4499 H 432.291 -0.632434 -5.84187 0
M  V30 4500 H 433.815 0.26346 -6.10031 0
M  V30 4501 H 435.229 -1.9002 -5.40893 0
M  V30 4502 H 433.626 -2.69012 -5.36426 0
M  V30 4503 H 434.696 -2.80495 -3.95538 0
M  V30 4504 N 436.039 1.36541 -0.78704 0
M  V30 4505 C 436.987 2.31965 -0.171724 0
M  V30 4506 C 437.981 1.55689 0.667631 0
M  V30 4507 O 439.187 1.70969 0.562981 0
M  V30 4508 H 435.562 0.751101 -0.0367545 0
M  V30 4509 H 437.533 2.81428 -0.992017 0
M  V30 4510 C 436.282 3.40968 0.680904 0
M  V30 4511 H 435.605 3.99775 0.0443961 0
M  V30 4512 H 437.045 4.10063 1.07815 0
M  V30 4513 C 435.504 2.82338 1.83813 0
M  V30 4514 O 436.034 2.74311 2.93456 0
M  V30 4515 N 434.24 2.39661 1.6435 0
M  V30 4516 H 433.787 2.46389 0.751668 0
M  V30 4517 H 433.745 2.00779 2.4194 0
M  V30 4518 N 437.518 0.538854 1.48102 0
M  V30 4519 C 438.451 -0.266495 2.26639 0
M  V30 4520 C 439.429 -0.93687 1.32897 0
M  V30 4521 O 440.613 -0.959507 1.62252 0
M  V30 4522 C 437.74 -1.37814 3.09394 0
M  V30 4523 C 436.786 -0.818247 4.18577 0
M  V30 4524 S 437.619 0.320848 5.34538 0
M  V30 4525 C 438.775 -0.793059 6.20855 0
M  V30 4526 H 439.008 0.399994 2.94597 0
M  V30 4527 H 436.541 0.324808 1.50945 0
M  V30 4528 H 438.499 -2.01488 3.57649 0
M  V30 4529 H 437.16 -2.01639 2.40833 0
M  V30 4530 H 436.353 -1.65247 4.7614 0
M  V30 4531 H 435.955 -0.258036 3.73109 0
M  V30 4532 H 438.247 -1.68961 6.56093 0
M  V30 4533 H 439.19 -0.255204 7.0764 0
M  V30 4534 H 439.598 -1.07746 5.54122 0
M  V30 4535 N 438.996 -1.55193 0.274407 0
M  V30 4536 C 440.407 -1.85358 -0.223488 0
M  V30 4537 C 440.758 -1.19642 -1.555 0
M  V30 4538 O 439.883 -0.484498 -2.10907 0
M  V30 4539 C 440.478 -3.36282 -0.412285 0
M  V30 4540 C 439.037 -3.66574 -0.854413 0
M  V30 4541 C 438.184 -2.7725 0.0527056 0
M  V30 4542 H 441.135 -1.50743 0.496215 0
M  V30 4543 H 441.156 -3.59349 -1.25094 0
M  V30 4544 H 440.668 -3.84083 0.556965 0
M  V30 4545 H 438.769 -3.24273 -1.83516 0
M  V30 4546 H 438.882 -4.74073 -0.692226 0
M  V30 4547 H 437.246 -2.50447 -0.463484 0
M  V30 4548 H 438.029 -3.27865 1.01783 0
M  V30 4549 N 440.474 -0.00167713 -1.576 0
M  V30 4550 C 441.72 0.683832 -1.90923 0
M  V30 4551 C 442.053 1.7333 -0.875799 0
M  V30 4552 O 441.328 1.94215 0.10525 0
M  V30 4553 C 441.611 1.32543 -3.3482 0
M  V30 4554 C 441.464 0.287387 -4.48881 0
M  V30 4555 C 442.783 2.25114 -3.78169 0
M  V30 4556 H 439.902 0.247125 -0.694333 0
M  V30 4557 H 442.544 -0.0533149 -1.89925 0
M  V30 4558 H 440.694 1.95372 -3.35801 0
M  V30 4559 H 442.366 -0.341346 -4.60035 0
M  V30 4560 H 440.609 -0.39017 -4.32042 0
M  V30 4561 H 441.28 0.775393 -5.46527 0
M  V30 4562 H 443.756 1.723 -3.7875 0
M  V30 4563 H 442.632 2.66971 -4.79602 0
M  V30 4564 H 442.893 3.13092 -3.12131 0
M  V30 4565 N 441.952 1.55251 0.271103 0
M  V30 4566 C 442.9 1.89054 1.35504 0
M  V30 4567 C 443.894 0.767064 1.51038 0
M  V30 4568 O 445.1 0.951429 1.528 0
M  V30 4569 H 441.475 0.600072 0.45323 0
M  V30 4570 H 443.446 2.79598 1.04247 0
M  V30 4571 C 442.195 2.18068 2.70817 0
M  V30 4572 H 441.518 3.04005 2.59656 0
M  V30 4573 H 442.958 2.4564 3.45597 0
M  V30 4574 C 441.417 0.988901 3.2206 0
M  V30 4575 O 441.947 0.224501 4.01072 0
M  V30 4576 N 440.153 0.786085 2.79766 0
M  V30 4577 H 439.7 1.40937 2.15626 0
M  V30 4578 H 439.658 -0.00969349 3.14399 0
M  V30 4579 N 443.43 -0.535701 1.48216 0
M  V30 4580 C 444.707 -1.29683 1.46429 0
M  V30 4581 C 445.087 -2.10391 0.172852 0
M  V30 4582 O 444.435 -2.12282 -0.845488 0
M  V30 4583 C 444.645 -2.18313 2.72287 0
M  V30 4584 C 445.993 -2.78639 3.20383 0
M  V30 4585 O 447.017 -2.28604 2.73164 0
M  V30 4586 O 445.876 -3.69636 4.02531 0
M  V30 4587 H 442.97 -0.585026 0.584529 0
M  V30 4588 H 445.516 -0.552827 1.60443 0
M  V30 4589 H 444.288 -1.58421 3.57797 0
M  V30 4590 H 443.911 -2.99971 2.60966 0
M  V30 4591 N 444.908 -1.36708 -0.784132 0
M  V30 4592 C 445.838 -1.34153 -1.91116 0
M  V30 4593 C 446.819 -0.212121 -1.68772 0
M  V30 4594 O 448.004 -0.410581 -1.8981 0
M  V30 4595 C 445.134 -1.13535 -3.28218 0
M  V30 4596 C 444.088 -2.23356 -3.65097 0
M  V30 4597 C 443.414 -1.87875 -5.00607 0
M  V30 4598 C 444.714 -3.65473 -3.73131 0
M  V30 4599 H 446.408 -2.28459 -1.93512 0
M  V30 4600 H 443.954 -1.09973 -0.929618 0
M  V30 4601 H 445.907 -1.10381 -4.06687 0
M  V30 4602 H 444.631 -0.156804 -3.26223 0
M  V30 4603 H 443.29 -2.25645 -2.88929 0
M  V30 4604 H 442.938 -0.885814 -4.95139 0
M  V30 4605 H 442.638 -2.61406 -5.26252 0
M  V30 4606 H 444.162 -1.86286 -5.81489 0
M  V30 4607 H 445.576 -3.65382 -4.41779 0
M  V30 4608 H 443.973 -4.37953 -4.10265 0
M  V30 4609 H 445.043 -3.99995 -2.74102 0
M  V30 4610 N 446.386 1.0089 -1.21074 0
M  V30 4611 C 447.611 1.78727 -1.05221 0
M  V30 4612 C 448.036 1.83932 0.393795 0
M  V30 4613 O 447.394 1.28004 1.28393 0
M  V30 4614 C 447.442 3.20665 -1.64944 0
M  V30 4615 O 446.546 4.02632 -0.892273 0
M  V30 4616 H 445.887 0.550973 -0.370574 0
M  V30 4617 H 448.417 1.26847 -1.60534 0
M  V30 4618 H 448.427 3.71352 -1.69002 0
M  V30 4619 H 447.102 3.16191 -2.70177 0
M  V30 4620 H 445.679 3.61207 -0.926492 0
M  V30 4621 N 447.864 1.01787 1.20321 0
M  V30 4622 C 449.28 0.732951 1.41774 0
M  V30 4623 C 449.48 -0.686883 1.89431 0
M  V30 4624 O 448.536 -1.45446 2.06402 0
M  V30 4625 C 449.849 1.75973 2.43832 0
M  V30 4626 C 451.397 1.77802 2.57596 0
M  V30 4627 C 451.872 2.7941 3.62897 0
M  V30 4628 N 453.363 2.78157 3.70382 0
M  V30 4629 C 454.098 3.53434 4.51521 0
M  V30 4630 N 453.594 4.38392 5.36455 0
M  V30 4631 N 455.387 3.42026 4.46066 0
M  V30 4632 H 447.538 1.93447 0.877035 0
M  V30 4633 H 449.801 0.835712 0.447536 0
M  V30 4634 H 449.507 2.77699 2.15815 0
M  V30 4635 H 449.381 1.57292 3.4284 0
M  V30 4636 H 451.768 0.767602 2.84942 0
M  V30 4637 H 451.849 2.00557 1.58779 0
M  V30 4638 H 451.493 3.80616 3.36295 0
M  V30 4639 H 451.423 2.53916 4.61339 0
M  V30 4640 H 453.914 2.16531 3.09714 0
M  V30 4641 H 454.227 4.92596 5.95457 0
M  V30 4642 H 452.572 4.4247 5.35953 0
M  V30 4643 H 455.763 2.75075 3.78749 0
M  V30 4644 H 455.936 4.00946 5.09064 0
M  V30 4645 N 449.342 -1.36122 0.79427 0
M  V30 4646 C 450.59 -1.98718 0.368177 0
M  V30 4647 C 450.911 -1.63345 -1.06506 0
M  V30 4648 O 450.181 -0.909825 -1.73491 0
M  V30 4649 H 448.761 -0.735038 0.133146 0
M  V30 4650 H 451.423 -1.66239 1.01739 0
M  V30 4651 H 450.519 -3.08633 0.463923 0
M  V30 4652 N 450.82 -0.546701 -1.47814 0
M  V30 4653 C 452.06 -0.0209604 -2.04389 0
M  V30 4654 C 452.424 1.29993 -1.413 0
M  V30 4655 O 453.625 1.91273 -1.8886 0
M  V30 4656 C 451.896 0.0812844 -3.57308 0
M  V30 4657 S 453.455 0.55467 -4.3528 0
M  V30 4658 H 450.273 -0.0200865 -0.710716 0
M  V30 4659 H 452.875 -0.731055 -1.81317 0
M  V30 4660 H 451.579 -0.884616 -4.00753 0
M  V30 4661 H 451.11 0.815253 -3.8486 0
M  V30 4662 H 453.125 1.81627 -4.61764 0
M  V30 4663 N 452.299 1.55045 -0.282633 0
M  V30 4664 C 453.247 2.24254 0.617478 0
M  V30 4665 C 454.241 1.24215 1.15183 0
M  V30 4666 O 455.447 1.42123 1.10459 0
M  V30 4667 H 451.822 0.719801 0.217693 0
M  V30 4668 H 453.793 2.98398 0.0110076 0
M  V30 4669 C 452.542 2.98281 1.78672 0
M  V30 4670 H 451.865 3.75053 1.38475 0
M  V30 4671 H 453.305 3.50017 2.393 0
M  V30 4672 C 451.764 2.04184 2.67975 0
M  V30 4673 O 452.294 1.59792 3.6855 0
M  V30 4674 N 450.5 1.70526 2.35307 0
M  V30 4675 H 450.047 2.06821 1.53567 0
M  V30 4676 H 450.005 1.07839 2.95327 0
M  V30 4677 N 453.777 0.010035 1.57597 0
M  V30 4678 C 454.74 -0.963029 2.07986 0
M  V30 4679 C 455.74 -1.26619 0.991173 0
M  V30 4680 O 456.93 -1.2097 1.25347 0
M  V30 4681 C 454.062 -2.2851 2.52974 0
M  V30 4682 H 455.255 -0.526971 2.95234 0
M  V30 4683 H 452.808 -0.237639 1.54483 0
M  V30 4684 H 453.543 -2.76784 1.69 0
M  V30 4685 H 453.328 -2.07824 3.32493 0
M  V30 4686 H 454.818 -2.98294 2.9225 0
M  V30 4687 N 455.255 -1.55392 -0.262866 0
M  V30 4688 C 456.165 -1.92077 -1.34698 0
M  V30 4689 C 457.181 -0.819227 -1.53508 0
M  V30 4690 O 458.357 -1.11921 -1.67439 0
M  V30 4691 C 455.422 -2.19407 -2.68443 0
M  V30 4692 C 454.483 -3.42905 -2.58292 0
M  V30 4693 C 453.716 -3.68921 -3.85659 0
M  V30 4694 O 453.939 -2.97275 -4.8681 0
M  V30 4695 O 452.873 -4.62455 -3.85252 0
M  V30 4696 H 456.699 -2.84384 -1.06581 0
M  V30 4697 H 454.284 -1.42069 -0.462264 0
M  V30 4698 H 456.166 -2.38365 -3.47506 0
M  V30 4699 H 454.841 -1.30282 -2.96325 0
M  V30 4700 H 453.748 -3.29272 -1.7757 0
M  V30 4701 H 455.081 -4.32282 -2.35358 0
M  V30 4702 N 456.733 0.527833 -1.48498 0
M  V30 4703 C 458.01 1.28905 -1.47115 0
M  V30 4704 C 458.39 2.10297 -0.184007 0
M  V30 4705 O 457.738 2.12728 0.834218 0
M  V30 4706 C 457.948 2.16866 -2.73441 0
M  V30 4707 C 459.296 2.76936 -3.21857 0
M  V30 4708 O 460.32 2.27152 -2.74373 0
M  V30 4709 O 459.179 3.67496 -4.04486 0
M  V30 4710 H 456.273 0.581918 -0.587623 0
M  V30 4711 H 458.819 0.544311 -1.60734 0
M  V30 4712 H 457.591 1.56521 -3.58632 0
M  V30 4713 H 457.214 2.98583 -2.62553 0
M  V30 4714 N 458.211 1.37122 0.776871 0
M  V30 4715 C 459.457 1.32243 1.53752 0
M  V30 4716 C 459.79 -0.0944745 1.9397 0
M  V30 4717 O 459.065 -1.05068 1.6368 0
M  V30 4718 C 459.348 2.25681 2.80607 0
M  V30 4719 C 459.201 3.76127 2.46676 0
M  V30 4720 C 460.52 2.17657 3.82509 0
M  V30 4721 H 457.639 0.481704 0.557791 0
M  V30 4722 H 460.281 1.6778 0.891612 0
M  V30 4723 H 458.431 1.95505 3.35723 0
M  V30 4724 H 460.103 4.16877 1.97513 0
M  V30 4725 H 458.346 3.94946 1.79443 0
M  V30 4726 H 459.017 4.36933 3.37333 0
M  V30 4727 H 461.493 2.44245 3.36873 0
M  V30 4728 H 460.369 2.85185 4.69 0
M  V30 4729 H 460.63 1.16785 4.26396 0
M  V30 4730 N 459.689 -1.00246 1.21608 0
M  V30 4731 C 460.919 -1.77373 1.05935 0
M  V30 4732 C 461.327 -1.85059 -0.393686 0
M  V30 4733 O 460.67 -1.31289 -1.28487 0
M  V30 4734 C 460.732 -3.22705 1.58435 0
M  V30 4735 C 460.396 -3.38591 3.06929 0
M  V30 4736 C 461.393 -3.2667 4.04454 0
M  V30 4737 C 459.078 -3.6395 3.46187 0
M  V30 4738 C 461.072 -3.39877 5.39224 0
M  V30 4739 C 458.759 -3.768 4.81108 0
M  V30 4740 C 459.757 -3.6477 5.77436 0
M  V30 4741 O 459.445 -3.77206 7.09909 0
M  V30 4742 H 459.177 -0.56419 0.372378 0
M  V30 4743 H 461.731 -1.26971 1.61454 0
M  V30 4744 H 459.961 -3.74255 0.973147 0
M  V30 4745 H 461.65 -3.81515 1.38568 0
M  V30 4746 H 462.416 -3.06999 3.75468 0
M  V30 4747 H 458.295 -3.72395 2.71741 0
M  V30 4748 H 461.839 -3.30404 6.14393 0
M  V30 4749 H 457.736 -3.95975 5.09779 0
M  V30 4750 H 458.504 -3.94138 7.17355 0
M  V30 4751 N 461.167 -1.02423 -1.1978 0
M  V30 4752 C 462.115 -0.594474 -2.24875 0
M  V30 4753 C 463.109 0.370598 -1.65296 0
M  V30 4754 O 464.315 0.239684 -1.78397 0
M  V30 4755 H 460.69 -0.173961 -0.731602 0
M  V30 4756 H 462.661 -1.4916 -2.58445 0
M  V30 4757 C 461.41 0.0436512 -3.47673 0
M  V30 4758 H 460.733 -0.689963 -3.93801 0
M  V30 4759 H 462.173 0.307362 -4.22884 0
M  V30 4760 C 460.632 1.28881 -3.11274 0
M  V30 4761 O 461.162 2.38135 -3.23503 0
M  V30 4762 N 459.368 1.1758 -2.6575 0
M  V30 4763 H 458.915 0.286769 -2.55999 0
M  V30 4764 H 458.873 2.00988 -2.41767 0
M  V30 4765 N 462.645 1.35699 -0.801477 0
M  V30 4766 C 463.575 2.32436 -0.222658 0
M  V30 4767 C 464.556 1.5723 0.649057 0
M  V30 4768 O 465.741 1.85324 0.580387 0
M  V30 4769 C 462.871 3.41469 0.633719 0
M  V30 4770 C 461.825 4.27774 -0.139083 0
M  V30 4771 C 461.151 5.28082 0.838666 0
M  V30 4772 C 462.451 5.04946 -1.33517 0
M  V30 4773 H 464.145 2.81094 -1.03086 0
M  V30 4774 H 461.691 1.35146 -0.497155 0
M  V30 4775 H 463.644 4.08143 1.04868 0
M  V30 4776 H 462.368 2.91408 1.47475 0
M  V30 4777 H 461.027 3.62673 -0.535156 0
M  V30 4778 H 460.675 4.7429 1.67506 0
M  V30 4779 H 460.375 5.86695 0.32594 0
M  V30 4780 H 461.899 5.97628 1.25194 0
M  V30 4781 H 463.313 5.64593 -0.995349 0
M  V30 4782 H 461.71 5.7303 -1.78202 0
M  V30 4783 H 462.78 4.35886 -2.12442 0
M  V30 4784 N 464.123 0.554532 1.47522 0
M  V30 4785 C 465.086 -0.184174 2.28459 0
M  V30 4786 C 466.086 -0.845195 1.36796 0
M  V30 4787 O 467.276 -0.701467 1.59452 0
M  V30 4788 C 464.408 -1.26903 3.16399 0
M  V30 4789 H 465.601 0.526751 2.95238 0
M  V30 4790 H 463.154 0.311375 1.53167 0
M  V30 4791 H 463.889 -2.01244 2.54306 0
M  V30 4792 H 463.674 -0.799883 3.83854 0
M  V30 4793 H 465.164 -1.78794 3.77389 0
M  V30 4794 N 465.601 -1.54893 0.290851 0
M  V30 4795 C 466.531 -2.26103 -0.583084 0
M  V30 4796 C 467.512 -1.25684 -1.14619 0
M  V30 4797 O 468.697 -1.54436 -1.17741 0
M  V30 4798 C 465.827 -2.99409 -1.75987 0
M  V30 4799 C 464.781 -4.0689 -1.32758 0
M  V30 4800 C 464.107 -4.67856 -2.58872 0
M  V30 4801 C 465.407 -5.20215 -0.46624 0
M  V30 4802 H 467.101 -2.99398 0.0108214 0
M  V30 4803 H 464.647 -1.43998 0.00664468 0
M  V30 4804 H 466.6 -3.47943 -2.37727 0
M  V30 4805 H 465.324 -2.23675 -2.37985 0
M  V30 4806 H 463.983 -3.59191 -0.733299 0
M  V30 4807 H 463.631 -3.88772 -3.19163 0
M  V30 4808 H 463.331 -5.40438 -2.30653 0
M  V30 4809 H 464.855 -5.19147 -3.21433 0
M  V30 4810 H 466.269 -5.64704 -0.989047 0
M  V30 4811 H 464.666 -5.99455 -0.27826 0
M  V30 4812 H 465.736 -4.82198 0.511173 0
M  V30 4813 N 467.08 -0.0183926 -1.57589 0
M  V30 4814 C 468.329 0.66185 -1.90532 0
M  V30 4815 C 468.642 1.73904 -0.895366 0
M  V30 4816 O 469.848 2.47518 -1.11566 0
M  V30 4817 C 468.304 1.22844 -3.38286 0
M  V30 4818 C 467.912 0.185103 -4.47617 0
M  V30 4819 C 469.656 1.88581 -3.80312 0
M  V30 4820 C 467.563 0.762723 -5.86461 0
M  V30 4821 H 466.493 0.250972 -0.711006 0
M  V30 4822 H 469.144 -0.0819435 -1.83317 0
M  V30 4823 H 467.526 2.0235 -3.40398 0
M  V30 4824 H 468.7 -0.58671 -4.5705 0
M  V30 4825 H 467.015 -0.372889 -4.14727 0
M  V30 4826 H 469.612 2.32735 -4.81392 0
M  V30 4827 H 469.955 2.72408 -3.14801 0
M  V30 4828 H 470.488 1.15782 -3.80578 0
M  V30 4829 H 467.227 -0.0371713 -6.55489 0
M  V30 4830 H 466.747 1.50327 -5.80656 0
M  V30 4831 H 468.426 1.25576 -6.34697 0
M  V30 4832 N 468.558 1.5553 0.254621 0
M  V30 4833 C 469.786 1.81046 1.00149 0
M  V30 4834 C 470.201 0.593047 1.79244 0
M  V30 4835 O 469.558 -0.438196 1.77161 0
M  V30 4836 C 469.609 3.04684 1.94551 0
M  V30 4837 O 469.33 4.21725 1.18658 0
M  V30 4838 C 470.831 3.42943 2.80901 0
M  V30 4839 H 468.051 0.602653 0.295044 0
M  V30 4840 H 470.595 2.02576 0.279842 0
M  V30 4841 H 468.75 2.85226 2.62154 0
M  V30 4842 H 469.164 4.91746 1.82445 0
M  V30 4843 H 470.638 4.32576 3.42902 0
M  V30 4844 H 471.115 2.63176 3.51617 0
M  V30 4845 H 471.721 3.64724 2.18762 0
M  V30 4846 N 470.036 -0.519951 1.48776 0
M  V30 4847 C 470.999 -1.60574 1.6355 0
M  V30 4848 C 471.999 -1.52557 0.508234 0
M  V30 4849 O 473.189 -1.56047 0.774262 0
M  V30 4850 C 470.321 -3.00211 1.61512 0
M  V30 4851 H 471.514 -1.4881 2.60376 0
M  V30 4852 H 469.067 -0.742772 1.37523 0
M  V30 4853 H 469.802 -3.17471 0.662009 0
M  V30 4854 H 469.587 -3.07439 2.43359 0
M  V30 4855 H 471.077 -3.79134 1.75064 0
M  V30 4856 N 471.514 -1.37532 -0.769588 0
M  V30 4857 C 472.477 -1.33292 -1.86456 0
M  V30 4858 C 473.477 -0.236537 -1.59051 0
M  V30 4859 O 474.667 -0.492511 -1.67093 0
M  V30 4860 C 471.799 -1.07118 -3.23633 0
M  V30 4861 H 472.992 -2.30692 -1.91628 0
M  V30 4862 H 470.545 -1.22593 -0.969572 0
M  V30 4863 H 471.28 -0.102578 -3.24138 0
M  V30 4864 H 471.065 -1.86479 -3.44917 0
M  V30 4865 H 472.555 -1.06806 -4.03711 0
M  V30 4866 N 472.992 0.995999 -1.22138 0
M  V30 4867 C 473.924 2.08745 -0.946485 0
M  V30 4868 C 474.937 1.62633 0.0737356 0
M  V30 4869 O 476.126 1.77782 -0.159886 0
M  V30 4870 C 473.226 3.36516 -0.401305 0
M  V30 4871 C 472.399 4.11672 -1.47801 0
M  V30 4872 C 471.458 5.17728 -0.940461 0
M  V30 4873 O 470.484 5.45482 -1.62596 0
M  V30 4874 N 471.686 5.80005 0.239723 0
M  V30 4875 H 474.451 2.32908 -1.88611 0
M  V30 4876 H 472.012 1.16152 -1.12785 0
M  V30 4877 H 474.004 4.04691 -0.0270837 0
M  V30 4878 H 472.574 3.0944 0.443354 0
M  V30 4879 H 471.794 3.38171 -2.02568 0
M  V30 4880 H 473.082 4.58657 -2.20253 0
M  V30 4881 H 472.48 5.5982 0.813518 0
M  V30 4882 H 471.037 6.4943 0.555361 0
M  V30 4883 N 474.47 1.03057 1.19235 0
M  V30 4884 C 475.433 0.617418 2.20727 0
M  V30 4885 C 476.433 -0.319856 1.57587 0
M  V30 4886 O 477.623 -0.106633 1.73873 0
M  V30 4887 C 474.755 -0.096296 3.40764 0
M  V30 4888 H 475.948 1.51544 2.58794 0
M  V30 4889 H 473.501 0.821949 1.32942 0
M  V30 4890 H 474.236 -1.00859 3.08217 0
M  V30 4891 H 474.021 0.577217 3.87828 0
M  V30 4892 H 475.511 -0.372219 4.15938 0
M  V30 4893 N 475.948 -1.35272 0.808662 0
M  V30 4894 C 476.878 -2.32315 0.234981 0
M  V30 4895 C 477.859 -1.57572 -0.64071 0
M  V30 4896 O 479.044 -1.8563 -0.570551 0
M  V30 4897 C 476.174 -3.41801 -0.615601 0
M  V30 4898 C 475.128 -4.27694 0.161767 0
M  V30 4899 C 474.454 -5.28519 -0.810649 0
M  V30 4900 C 475.754 -5.04231 1.36193 0
M  V30 4901 H 477.448 -2.80543 1.04575 0
M  V30 4902 H 474.994 -1.3488 0.504315 0
M  V30 4903 H 476.947 -4.08693 -1.02702 0
M  V30 4904 H 475.671 -2.92186 -1.45928 0
M  V30 4905 H 474.33 -3.62384 0.554382 0
M  V30 4906 H 473.978 -4.75171 -1.64988 0
M  V30 4907 H 473.678 -5.8686 -0.294822 0
M  V30 4908 H 475.202 -5.98283 -1.22023 0
M  V30 4909 H 476.616 -5.64058 1.02528 0
M  V30 4910 H 475.013 -5.72077 1.81239 0
M  V30 4911 H 476.083 -4.34753 2.14751 0
M  V30 4912 O 477.465 -0.703344 -1.4538 0
M  V30 4913 H 478.156 -0.244572 -1.9215 0
M  V30 END ATOM
M  V30 BEGIN BOND
M  V30 END BOND
M  V30 END CTAB
M  END
$$$$
