drugbank_target|P39767 Porin (DB04233)
 OpenBabel12092119573D

  0  0  0     0  0            999 V3000
M  V30 BEGIN CTAB
M  V30 COUNTS 4145 4188 0 0 0
M  V30 BEGIN ATOM
M  V30 1 H -0.908 1.98254 -0.117106 0
M  V30 2 N 0 1.576 0 0
M  V30 3 C 0.91 2.11853 1.00774 0
M  V30 4 C 1.926 1.06379 1.37693 0
M  V30 5 O 3.102 1.3828 1.46426 0
M  V30 6 C 0.167 2.61108 2.28087 0
M  V30 7 C -0.772 3.81183 1.9748 0
M  V30 8 C -1.539 4.28079 3.18723 0
M  V30 9 O -1.316 3.74307 4.30407 0
M  V30 10 O -2.382 5.20234 3.02721 0
M  V30 11 H 1.444 2.98177 0.576547 0
M  V30 12 H -0.971 1.47789 0.218828 0
M  V30 13 H 0.911 2.92987 3.0288 0
M  V30 14 H -0.414 1.77881 2.70444 0
M  V30 15 H -1.507 3.54277 1.20162 0
M  V30 16 H -0.174 4.65482 1.5996 0
M  V30 17 N 1.4781 -0.272755 1.55222 0
M  V30 18 C 2.7271 -1.00211 1.75045 0
M  V30 19 C 3.0401 -1.87441 0.559046 0
M  V30 20 O 4.2461 -2.63856 0.639698 0
M  V30 21 C 2.7021 -1.83165 3.09804 0
M  V30 22 C 2.3101 -1.008 4.36513 0
M  V30 23 C 4.0541 -2.55529 3.38977 0
M  V30 24 C 1.9611 -1.83194 5.62311 0
M  V30 25 H 0.8911 -0.377878 0.652476 0
M  V30 26 H 3.5421 -0.257776 1.8168 0
M  V30 27 H 1.9241 -2.61694 2.97207 0
M  V30 28 H 3.0981 -0.266855 4.60027 0
M  V30 29 H 1.4131 -0.398897 4.14485 0
M  V30 30 H 4.0101 -3.17578 4.30172 0
M  V30 31 H 4.3531 -3.25825 2.59121 0
M  V30 32 H 4.8861 -1.84029 3.52673 0
M  V30 33 H 1.6251 -1.17318 6.44916 0
M  V30 34 H 1.1451 -2.54905 5.4294 0
M  V30 35 H 2.8241 -2.40552 6.00619 0
M  V30 36 N 2.9562 -1.48159 -0.537278 0
M  V30 37 C 4.1812 -1.59707 -1.32319 0
M  V30 38 C 4.6062 -0.254859 -1.86365 0
M  V30 39 O 3.9642 0.772378 -1.64024 0
M  V30 40 C 4.0122 -2.6412 -2.45505 0
M  V30 41 O 3.1162 -2.20774 -3.48328 0
M  V30 42 H 2.4572 -0.535791 -0.392204 0
M  V30 43 H 4.9872 -1.94092 -0.647268 0
M  V30 44 H 4.9972 -2.85166 -2.91795 0
M  V30 45 H 3.6722 -3.61567 -2.05528 0
M  V30 46 H 2.2492 -2.09911 -3.08207 0
M  V30 47 N 4.4343 0.785586 -1.36625 0
M  V30 48 C 5.3643 1.91259 -1.33949 0
M  V30 49 C 6.3453 1.68795 -0.210325 0
M  V30 50 O 7.5303 1.89854 -0.408561 0
M  V30 51 C 4.6603 3.28339 -1.13186 0
M  V30 52 C 3.6143 3.65335 -2.22967 0
M  V30 53 C 2.9403 5.00806 -1.87342 0
M  V30 54 C 4.2403 3.7352 -3.65075 0
M  V30 55 H 5.9343 1.93755 -2.28253 0
M  V30 56 H 3.4803 0.930788 -1.09874 0
M  V30 57 H 5.4333 4.06804 -1.09948 0
M  V30 58 H 4.1573 3.2624 -0.153332 0
M  V30 59 H 2.8163 2.89169 -2.25337 0
M  V30 60 H 2.4643 4.95233 -0.880545 0
M  V30 61 H 2.1643 5.26529 -2.60846 0
M  V30 62 H 3.6883 5.81687 -1.85667 0
M  V30 63 H 5.1023 4.42168 -3.64911 0
M  V30 64 H 3.4993 4.10731 -4.37516 0
M  V30 65 H 4.5693 2.74527 -3.99703 0
M  V30 66 N 5.9124 1.20967 1.01018 0
M  V30 67 C 6.8604 0.961223 2.1181 0
M  V30 68 C 7.8544 -0.0897034 1.69162 0
M  V30 69 O 9.0604 0.0612271 1.79896 0
M  V30 70 H 5.4354 0.29355 0.692338 0
M  V30 71 H 7.4064 1.90178 2.29946 0
M  V30 72 C 6.1554 0.536854 3.4353 0
M  V30 73 H 5.4784 1.33713 3.76777 0
M  V30 74 H 6.9184 0.402286 4.22087 0
M  V30 75 C 5.3774 -0.751574 3.2841 0
M  V30 76 O 5.9074 -1.80841 3.58691 0
M  V30 77 N 4.1134 -0.716079 2.81639 0
M  V30 78 H 3.6604 0.144236 2.57196 0
M  V30 79 H 3.6184 -1.57847 2.71904 0
M  V30 80 N 7.3905 -1.2043 1.01659 0
M  V30 81 C 8.6385 -1.89423 0.704522 0
M  V30 82 C 8.9595 -1.79231 -0.768197 0
M  V30 83 O 8.2295 -1.1947 -1.55254 0
M  V30 84 H 6.8095 -0.701178 0.257602 0
M  V30 85 H 9.4715 -1.4626 1.28818 0
M  V30 86 H 8.5675 -2.96052 0.987916 0
M  V30 87 N 8.8686 -0.792821 -1.36206 0
M  V30 88 C 10.0986 -0.378275 -2.03107 0
M  V30 89 C 10.5066 1.01119 -1.59911 0
M  V30 90 O 9.8496 1.66052 -0.785658 0
M  V30 91 C 9.9116 -0.366535 -3.57627 0
M  V30 92 C 9.5756 -1.70416 -4.24037 0
M  V30 93 C 10.5726 -2.6602 -4.46687 0
M  V30 94 C 8.2576 -1.98439 -4.6144 0
M  V30 95 C 10.2516 -3.8784 -5.05825 0
M  V30 96 C 7.9386 -3.20525 -5.20295 0
M  V30 97 C 8.9366 -4.15044 -5.42427 0
M  V30 98 O 8.6246 -5.34978 -6.00045 0
M  V30 99 H 8.3566 -0.153543 -0.658332 0
M  V30 100 H 10.9106 -1.07383 -1.75094 0
M  V30 101 H 9.1406 0.385539 -3.84773 0
M  V30 102 H 10.8296 0.0238088 -4.05893 0
M  V30 103 H 11.5956 -2.45658 -4.18183 0
M  V30 104 H 7.4746 -1.25686 -4.43536 0
M  V30 105 H 11.0186 -4.61628 -5.23015 0
M  V30 106 H 6.9156 -3.40764 -5.48225 0
M  V30 107 H 7.6836 -5.36088 -6.18508 0
M  V30 108 N 10.3467 1.47872 -0.545128 0
M  V30 109 C 11.5947 2.02093 -0.016553 0
M  V30 110 C 11.9157 1.42305 1.3332 0
M  V30 111 O 11.1857 0.593853 1.86682 0
M  V30 112 H 9.7657 0.746993 -0.00313038 0
M  V30 113 H 12.4277 1.81414 -0.712397 0
M  V30 114 H 11.5237 3.11996 0.0805422 0
M  V30 115 N 11.8248 0.280983 1.55075 0
M  V30 116 C 13.2408 -0.0729964 1.59433 0
M  V30 117 C 13.4408 -1.5411 1.29817 0
M  V30 118 O 12.4968 -2.29086 1.06187 0
M  V30 119 C 13.8098 0.306921 2.9913 0
M  V30 120 C 15.3578 0.254023 3.11968 0
M  V30 121 C 15.8328 0.608467 4.5394 0
M  V30 122 N 17.3238 0.560241 4.59799 0
M  V30 123 C 18.0588 0.80722 5.6769 0
M  V30 124 N 17.5548 1.11912 6.83701 0
M  V30 125 N 19.3478 0.735623 5.57266 0
M  V30 126 H 11.4988 1.238 1.7259 0
M  V30 127 H 13.7618 0.500547 0.805082 0
M  V30 128 H 13.4678 1.32816 3.25657 0
M  V30 129 H 13.3418 -0.349363 3.75579 0
M  V30 130 H 15.7288 -0.75794 2.852 0
M  V30 131 H 15.8098 0.944649 2.37718 0
M  V30 132 H 15.4538 1.61814 4.81434 0
M  V30 133 H 15.3838 -0.104013 5.26497 0
M  V30 134 H 17.8748 0.329288 3.76463 0
M  V30 135 H 18.1878 1.29409 7.61888 0
M  V30 136 H 16.5328 1.15695 6.85303 0
M  V30 137 H 19.7238 0.491752 4.6551 0
M  V30 138 H 19.8968 0.931482 6.4127 0
M  V30 139 N 13.3029 -1.57598 0.00835791 0
M  V30 140 C 14.5499 -1.90928 -0.674732 0
M  V30 141 C 14.8779 -0.88277 -1.73313 0
M  V30 142 O 14.1329 0.111294 -1.95383 0
M  V30 143 C 14.4319 -3.3101 -1.34787 0
M  V30 144 C 14.0979 -4.48922 -0.421861 0
M  V30 145 C 12.7599 -4.8091 -0.166927 0
M  V30 146 C 15.1119 -5.20755 0.215211 0
M  V30 147 C 12.4399 -5.821 0.733232 0
M  V30 148 C 14.7919 -6.22905 1.1033 0
M  V30 149 C 13.4559 -6.53346 1.36733 0
M  V30 150 H 12.7259 -0.698656 -0.246902 0
M  V30 151 H 15.3729 -1.91387 0.0656779 0
M  V30 152 H 13.6779 -3.26714 -2.16253 0
M  V30 153 H 15.3749 -3.54061 -1.8826 0
M  V30 154 H 11.9649 -4.23934 -0.630729 0
M  V30 155 H 16.1489 -4.9629 0.0312829 0
M  V30 156 H 11.4049 -6.04042 0.945712 0
M  V30 157 H 15.5789 -6.77694 1.60325 0
M  V30 158 H 13.2059 -7.31573 2.06652 0
M  V30 159 N 14.781 0.264519 -1.55364 0
M  V30 160 C 16.029 0.993021 -1.76021 0
M  V30 161 C 16.35 1.86511 -0.569099 0
M  V30 162 O 15.62 1.91438 0.415735 0
M  V30 163 H 14.2 0.369639 -0.649135 0
M  V30 164 H 16.862 0.286707 -1.9278 0
M  V30 165 H 15.958 1.62502 -2.66457 0
M  V30 166 N 16.2591 1.48442 0.529413 0
M  V30 167 C 17.1891 1.65902 1.64313 0
M  V30 168 C 18.1701 0.507897 1.6234 0
M  V30 169 O 19.3551 0.740503 1.79528 0
M  V30 170 C 16.4851 1.69911 3.02898 0
M  V30 171 C 15.4391 2.8453 3.19729 0
M  V30 172 C 14.7651 2.73629 4.59381 0
M  V30 173 C 16.0651 4.25821 3.02447 0
M  V30 174 H 17.7591 2.5914 1.49955 0
M  V30 175 H 15.3051 1.24709 0.719982 0
M  V30 176 H 17.2581 1.80715 3.80684 0
M  V30 177 H 15.9821 0.732524 3.18279 0
M  V30 178 H 14.6411 2.73283 2.44361 0
M  V30 179 H 14.2891 1.74938 4.71599 0
M  V30 180 H 13.9891 3.50541 4.71588 0
M  V30 181 H 15.5131 2.86401 5.39265 0
M  V30 182 H 16.9271 4.37898 3.70024 0
M  V30 183 H 15.3241 5.03735 3.26146 0
M  V30 184 H 16.3941 4.42244 1.98867 0
M  V30 185 N 17.7372 -0.778329 1.37039 0
M  V30 186 C 18.6692 -1.90034 1.2814 0
M  V30 187 C 19.6822 -1.61585 0.198558 0
M  V30 188 O 20.8712 -1.72625 0.454175 0
M  V30 189 C 17.9712 -3.25108 0.956968 0
M  V30 190 C 17.1442 -3.81253 2.14394 0
M  V30 191 C 16.2032 -4.94789 1.79082 0
M  V30 192 O 15.2292 -5.10721 2.51301 0
M  V30 193 N 16.4312 -5.75878 0.731043 0
M  V30 194 H 19.1962 -1.98186 2.24816 0
M  V30 195 H 16.7572 -0.957129 1.30578 0
M  V30 196 H 18.7492 -3.9857 0.701701 0
M  V30 197 H 17.3192 -3.125 0.0789812 0
M  V30 198 H 16.5392 -2.99647 2.56135 0
M  V30 199 H 17.8272 -4.15495 2.93668 0
M  V30 200 H 17.2252 -5.65547 0.131618 0
M  V30 201 H 15.7822 -6.49596 0.535622 0
M  V30 202 N 19.2153 -1.21501 -1.00376 0
M  V30 203 C 20.4453 -1.05746 -1.77486 0
M  V30 204 C 20.8533 0.395655 -1.85017 0
M  V30 205 O 20.1963 1.28626 -1.31152 0
M  V30 206 C 20.2583 -1.58092 -3.22873 0
M  V30 207 C 19.9223 -3.06568 -3.38917 0
M  V30 208 C 20.9193 -4.04106 -3.271 0
M  V30 209 C 18.6043 -3.45799 -3.64319 0
M  V30 210 C 20.5983 -5.38862 -3.40451 0
M  V30 211 C 18.2853 -4.80707 -3.77311 0
M  V30 212 C 19.2833 -5.77047 -3.65384 0
M  V30 213 O 18.9713 -7.09507 -3.77961 0
M  V30 214 H 18.7033 -0.371778 -0.564586 0
M  V30 215 H 21.2573 -1.61319 -1.27143 0
M  V30 216 H 19.4873 -0.969163 -3.74358 0
M  V30 217 H 21.1763 -1.38162 -3.81662 0
M  V30 218 H 21.9423 -3.75141 -3.07399 0
M  V30 219 H 17.8213 -2.71344 -3.72684 0
M  V30 220 H 21.3653 -6.14041 -3.31058 0
M  V30 221 H 17.2623 -5.09357 -3.96517 0
M  V30 222 H 18.0303 -7.16935 -3.94901 0
M  V30 223 N 20.6934 1.19889 -1.02296 0
M  V30 224 C 21.9394 1.89701 -0.717033 0
M  V30 225 C 22.2724 1.7905 0.751989 0
M  V30 226 O 21.5474 1.17891 1.547 0
M  V30 227 C 21.8304 3.40858 -1.16136 0
M  V30 228 C 21.6834 3.60411 -2.69117 0
M  V30 229 C 23.0024 4.33876 -0.737549 0
M  V30 230 H 20.1214 0.688874 -0.261957 0
M  V30 231 H 22.7634 1.41154 -1.27183 0
M  V30 232 H 20.9134 3.82335 -0.689342 0
M  V30 233 H 22.5854 3.28145 -3.2422 0
M  V30 234 H 20.8284 3.03665 -3.0979 0
M  V30 235 H 21.4994 4.66396 -2.95261 0
M  V30 236 H 23.9754 4.00081 -1.14344 0
M  V30 237 H 22.8514 5.38242 -1.0764 0
M  V30 238 H 23.1124 4.40628 0.360436 0
M  V30 239 N 22.1715 0.800033 1.35784 0
M  V30 240 C 23.0815 0.207204 2.33683 0
M  V30 241 C 24.0975 -0.64631 1.61551 0
M  V30 242 O 25.2735 -0.559604 1.93469 0
M  V30 243 C 22.3385 -0.639659 3.40748 0
M  V30 244 C 21.3995 0.233585 4.28664 0
M  V30 245 C 20.6325 -0.572954 5.30616 0
M  V30 246 O 20.8555 -1.80816 5.40982 0
M  V30 247 O 19.7895 0.0327285 6.01891 0
M  V30 248 H 23.6155 1.01692 2.86169 0
M  V30 249 H 21.2005 0.561691 1.38439 0
M  V30 250 H 23.0825 -1.12223 4.06182 0
M  V30 251 H 21.7575 -1.42708 2.90544 0
M  V30 252 H 20.6645 0.763147 3.66233 0
M  V30 253 H 21.9975 0.984784 4.82248 0
M  V30 254 N 23.6496 -1.47581 0.552962 0
M  V30 255 C 24.9266 -1.95563 -0.0381515 0
M  V30 256 C 25.3066 -1.49552 -1.48988 0
M  V30 257 O 24.6546 -0.732414 -2.16444 0
M  V30 258 C 24.8646 -3.48848 0.102919 0
M  V30 259 C 26.2126 -4.24577 -0.0446082 0
M  V30 260 O 27.2366 -3.56187 0.0302548 0
M  V30 261 O 26.0956 -5.46116 -0.204923 0
M  V30 262 H 23.1896 -0.824321 -0.0665067 0
M  V30 263 H 25.7356 -1.58001 0.619186 0
M  V30 264 H 24.5076 -3.75129 1.11328 0
M  V30 265 H 24.1306 -3.93165 -0.592224 0
M  V30 266 N 25.1277 -0.289203 -1.54924 0
M  V30 267 C 26.5437 0.0645403 -1.59469 0
M  V30 268 C 26.7437 1.53419 -1.30632 0
M  V30 269 O 25.7997 2.2852 -1.074 0
M  V30 270 C 27.1127 -0.32278 -2.98963 0
M  V30 271 C 28.6607 -0.270564 -3.11828 0
M  V30 272 C 29.1357 -0.632532 -4.53611 0
M  V30 273 N 30.6267 -0.584617 -4.59496 0
M  V30 274 C 31.3617 -0.837314 -5.67254 0
M  V30 275 N 30.8577 -1.15536 -6.83098 0
M  V30 276 N 32.6507 -0.765166 -5.56868 0
M  V30 277 H 24.8017 -1.24714 -1.71931 0
M  V30 278 H 27.0647 -0.504809 -0.802416 0
M  V30 279 H 26.7707 -1.34541 -3.24948 0
M  V30 280 H 26.6447 0.32944 -3.75759 0
M  V30 281 H 29.0317 0.742805 -2.85598 0
M  V30 282 H 29.1127 -0.957242 -2.37214 0
M  V30 283 H 28.7567 -1.64365 -4.80569 0
M  V30 284 H 28.6867 0.07609 -5.26545 0
M  V30 285 H 31.1777 -0.349248 -3.76283 0
M  V30 286 H 31.4907 -1.33447 -7.61191 0
M  V30 287 H 29.8357 -1.19328 -6.84679 0
M  V30 288 H 33.0267 -0.516432 -4.65243 0
M  V30 289 H 33.1997 -0.965477 -6.40767 0
M  V30 290 N 26.6058 1.57591 -0.0167156 0
M  V30 291 C 27.8538 1.90906 0.663285 0
M  V30 292 C 28.1748 0.892509 1.73376 0
M  V30 293 O 27.4448 -0.0677623 1.95783 0
M  V30 294 H 26.0248 0.704637 0.247983 0
M  V30 295 H 28.6868 1.94803 -0.0615909 0
M  V30 296 H 27.7828 2.9116 1.12393 0
M  V30 297 N 28.0839 -0.256276 1.55502 0
M  V30 298 C 29.3299 -0.987079 1.77157 0
M  V30 299 C 29.6629 -1.85327 0.580315 0
M  V30 300 O 28.9379 -1.89874 -0.421686 0
M  V30 301 C 29.2209 -1.85553 3.08613 0
M  V30 302 C 29.0739 -1.01816 4.38125 0
M  V30 303 C 30.3929 -2.8397 3.36228 0
M  V30 304 H 27.5119 -0.357428 0.644526 0
M  V30 305 H 30.1539 -0.258239 1.88237 0
M  V30 306 H 28.3039 -2.47695 2.99298 0
M  V30 307 H 29.9759 -0.416159 4.59419 0
M  V30 308 H 28.2189 -0.322178 4.32602 0
M  V30 309 H 28.8899 -1.65939 5.26468 0
M  V30 310 H 31.3659 -2.31964 3.45445 0
M  V30 311 H 30.2419 -3.41864 4.29442 0
M  V30 312 H 30.5029 -3.59955 2.56681 0
M  V30 313 N 29.562 -1.4872 -0.521534 0
M  V30 314 C 30.81 -1.56857 -1.27437 0
M  V30 315 C 31.131 -0.247982 -1.93417 0
M  V30 316 O 30.401 0.731151 -1.81744 0
M  V30 317 H 28.981 -0.577885 -0.473347 0
M  V30 318 H 31.643 -1.85233 -0.606205 0
M  V30 319 H 30.739 -2.35402 -2.0492 0
M  V30 320 N 31.0401 0.771051 -1.3745 0
M  V30 321 C 31.9701 1.89827 -1.3597 0
M  V30 322 C 32.9511 1.68562 -0.228216 0
M  V30 323 O 34.1361 1.8941 -0.428675 0
M  V30 324 C 31.2661 3.2712 -1.16662 0
M  V30 325 C 30.2201 3.6295 -2.2683 0
M  V30 326 C 29.5461 4.98791 -1.92644 0
M  V30 327 C 30.8461 3.69627 -3.69017 0
M  V30 328 H 32.5401 1.91323 -2.30295 0
M  V30 329 H 30.0861 0.919082 -1.10855 0
M  V30 330 H 32.0391 4.05615 -1.14256 0
M  V30 331 H 30.7631 3.26059 -0.187926 0
M  V30 332 H 29.4221 2.86763 -2.28392 0
M  V30 333 H 29.0701 4.94271 -0.933021 0
M  V30 334 H 28.7701 5.23733 -2.66416 0
M  V30 335 H 30.2941 5.79685 -1.91826 0
M  V30 336 H 31.7081 4.38273 -3.69581 0
M  V30 337 H 30.1051 4.06067 -4.41848 0
M  V30 338 H 31.1751 2.70273 -4.02592 0
M  V30 339 N 32.5182 1.22032 0.997298 0
M  V30 340 C 33.4282 1.00271 2.12092 0
M  V30 341 C 34.4442 -0.047621 1.73935 0
M  V30 342 O 35.6202 0.144136 2.00884 0
M  V30 343 C 32.6852 0.578449 3.4184 0
M  V30 344 C 31.7462 1.70189 3.94125 0
M  V30 345 C 30.9792 1.29778 5.17681 0
M  V30 346 O 31.2022 0.174676 5.70132 0
M  V30 347 O 30.1362 2.11261 5.63607 0
M  V30 348 H 33.9622 1.94398 2.3333 0
M  V30 349 H 31.5472 1.00587 1.10465 0
M  V30 350 H 33.4292 0.351998 4.19927 0
M  V30 351 H 32.1042 -0.334019 3.21972 0
M  V30 352 H 31.0112 1.98282 3.1723 0
M  V30 353 H 32.3442 2.59206 4.18417 0
M  V30 354 N 33.9963 -1.19345 1.0293 0
M  V30 355 C 35.2733 -1.84811 0.640642 0
M  V30 356 C 35.6533 -1.91855 -0.88062 0
M  V30 357 O 35.0013 -1.43587 -1.7775 0
M  V30 358 C 35.2113 -3.23755 1.30321 0
M  V30 359 C 36.5593 -3.99912 1.42673 0
M  V30 360 O 37.5833 -3.33155 1.26041 0
M  V30 361 O 36.4423 -5.19494 1.6967 0
M  V30 362 H 33.5363 -0.796443 0.222726 0
M  V30 363 H 36.0823 -1.26831 1.12748 0
M  V30 364 H 34.8543 -3.13466 2.34211 0
M  V30 365 H 34.4773 -3.89381 0.804261 0
M  V30 366 N 35.4744 -0.807222 -1.35358 0
M  V30 367 C 36.7024 -0.400377 -2.02989 0
M  V30 368 C 37.1174 0.988859 -1.60832 0
M  V30 369 O 36.4744 1.63729 -0.806175 0
M  V30 370 C 36.5254 -0.474867 -3.58368 0
M  V30 371 O 36.2464 -1.80933 -3.98992 0
M  V30 372 C 37.7474 -0.0609112 -4.43258 0
M  V30 373 H 34.9674 -0.162587 -0.651004 0
M  V30 374 H 37.5114 -1.09102 -1.72965 0
M  V30 375 H 35.6664 0.167534 -3.87038 0
M  V30 376 H 36.0804 -1.77256 -4.9364 0
M  V30 377 H 37.5544 -0.164145 -5.51756 0
M  V30 378 H 38.0314 0.993831 -4.27808 0
M  V30 379 H 38.6374 -0.676492 -4.19885 0
M  V30 380 N 36.9525 1.47285 -0.560781 0
M  V30 381 C 38.2015 2.01668 -0.035895 0
M  V30 382 C 38.5145 1.44021 1.32353 0
M  V30 383 O 39.7205 1.90088 1.93853 0
M  V30 384 C 38.1765 3.59897 -0.0136659 0
M  V30 385 C 37.7845 4.26536 -1.37006 0
M  V30 386 C 39.5285 4.22017 0.458425 0
M  V30 387 C 37.4355 5.76782 -1.30675 0
M  V30 388 H 36.3655 0.753938 -0.00964879 0
M  V30 389 H 39.0165 1.69243 -0.709166 0
M  V30 390 H 37.3985 3.89301 0.725325 0
M  V30 391 H 38.5725 4.0877 -2.12705 0
M  V30 392 H 36.8875 3.76419 -1.78038 0
M  V30 393 H 39.4845 5.32124 0.524247 0
M  V30 394 H 39.8275 3.89437 1.4712 0
M  V30 395 H 40.3605 3.97159 -0.225818 0
M  V30 396 H 37.0995 6.13988 -2.29564 0
M  V30 397 H 36.6195 5.96875 -0.591622 0
M  V30 398 H 38.2985 6.39063 -1.01033 0
M  V30 399 N 38.4306 0.297415 1.54768 0
M  V30 400 C 39.6796 -0.313669 1.99246 0
M  V30 401 C 39.9926 -1.55281 1.18942 0
M  V30 402 O 41.1986 -2.23825 1.5367 0
M  V30 403 C 39.6546 -0.609407 3.54703 0
M  V30 404 C 39.2626 0.611192 4.43811 0
M  V30 405 C 41.0066 -1.18188 4.07715 0
M  V30 406 C 38.9136 0.288805 5.90694 0
M  V30 407 H 37.8436 -0.120979 0.744231 0
M  V30 408 H 40.4946 0.40556 1.78962 0
M  V30 409 H 38.8766 -1.38813 3.70873 0
M  V30 410 H 40.0506 1.3875 4.39414 0
M  V30 411 H 38.3656 1.10205 4.01552 0
M  V30 412 H 40.9626 -1.43727 5.15021 0
M  V30 413 H 41.3056 -2.12299 3.58099 0
M  V30 414 H 41.8386 -0.464944 3.95074 0
M  V30 415 H 38.5776 1.19838 6.44453 0
M  V30 416 H 38.0976 -0.450305 5.98107 0
M  V30 417 H 39.7766 -0.110933 6.46905 0
M  V30 418 N 39.9087 -1.5758 0.0250728 0
M  V30 419 C 41.1337 -1.96337 -0.668317 0
M  V30 420 C 41.5587 -0.901314 -1.651 0
M  V30 421 O 40.9167 0.138187 -1.80773 0
M  V30 422 C 40.9647 -3.34191 -1.35457 0
M  V30 423 O 40.0687 -3.30269 -2.46974 0
M  V30 424 H 39.4097 -0.640281 -0.175887 0
M  V30 425 H 41.9397 -2.0442 0.0857224 0
M  V30 426 H 41.9497 -3.70331 -1.71228 0
M  V30 427 H 40.6247 -4.11036 -0.634218 0
M  V30 428 H 39.2017 -3.05841 -2.13344 0
M  V30 429 N 41.3868 0.248026 -1.55636 0
M  V30 430 C 42.6118 0.998028 -1.81808 0
M  V30 431 C 43.0368 1.78207 -0.601979 0
M  V30 432 O 42.3948 1.75653 0.448961 0
M  V30 433 C 42.4428 1.9125 -3.05705 0
M  V30 434 O 41.5468 3.00406 -2.82542 0
M  V30 435 H 40.8878 0.284045 -0.600179 0
M  V30 436 H 43.4178 0.269357 -2.02819 0
M  V30 437 H 43.4278 2.32737 -3.35108 0
M  V30 438 H 42.1028 1.33602 -3.93857 0
M  V30 439 H 40.6798 2.63056 -2.64303 0
M  V30 440 N 42.8649 1.48995 0.513639 0
M  V30 441 C 44.2809 1.35478 0.843682 0
M  V30 442 C 44.4809 0.378213 1.97919 0
M  V30 443 O 43.5369 -0.194689 2.51748 0
M  V30 444 C 44.8499 2.75901 1.1958 0
M  V30 445 C 46.3979 2.84509 1.30474 0
M  V30 446 C 46.8729 4.25671 1.69021 0
M  V30 447 N 48.3639 4.28422 1.76094 0
M  V30 448 C 49.0989 5.34601 2.07338 0
M  V30 449 N 48.5949 6.5104 2.36894 0
M  V30 450 N 50.3879 5.22007 2.08483 0
M  V30 451 H 42.5389 2.11092 -0.235328 0
M  V30 452 H 44.8019 0.947039 -0.0426669 0
M  V30 453 H 44.5079 3.49001 0.434913 0
M  V30 454 H 44.3819 3.10467 2.1422 0
M  V30 455 H 46.7689 2.11655 2.05637 0
M  V30 456 H 46.8499 2.53542 0.339155 0
M  V30 457 H 46.4939 4.99048 0.944135 0
M  V30 458 H 46.4239 4.54094 2.66658 0
M  V30 459 H 48.9149 3.44441 1.55464 0
M  V30 460 H 49.2279 7.2779 2.59887 0
M  V30 461 H 47.5729 6.54287 2.34378 0
M  V30 462 H 50.7639 4.30051 1.84861 0
M  V30 463 H 50.9369 6.04854 2.325 0
M  V30 464 N 44.343 -0.763751 1.37857 0
M  V30 465 C 45.273 -1.89103 1.36975 0
M  V30 466 C 46.254 -1.68439 0.237152 0
M  V30 467 O 47.439 -1.8918 0.438713 0
M  V30 468 C 44.569 -3.26496 1.18395 0
M  V30 469 C 43.523 -3.61741 2.28751 0
M  V30 470 C 42.849 -4.97762 1.95286 0
M  V30 471 C 44.149 -3.67665 3.70972 0
M  V30 472 H 45.843 -1.90099 2.31307 0
M  V30 473 H 43.389 -0.91319 1.11341 0
M  V30 474 H 45.342 -4.05003 1.16406 0
M  V30 475 H 44.066 -3.25955 0.205215 0
M  V30 476 H 42.725 -2.85547 2.29909 0
M  V30 477 H 42.373 -4.93769 0.959221 0
M  V30 478 H 42.073 -5.22313 2.69189 0
M  V30 479 H 43.597 -5.7866 1.94898 0
M  V30 480 H 45.011 -4.36307 3.719 0
M  V30 481 H 43.408 -4.03718 4.43995 0
M  V30 482 H 44.478 -2.68134 4.0402 0
M  V30 483 N 45.8211 -1.22559 -0.990812 0
M  V30 484 C 47.2371 -0.985996 -1.255 0
M  V30 485 C 47.4371 0.319173 -1.98956 0
M  V30 486 O 46.4931 1.04127 -2.3003 0
M  V30 487 C 47.8061 -2.18607 -2.06474 0
M  V30 488 C 49.3541 -2.22985 -2.19651 0
M  V30 489 C 49.8291 -3.4255 -3.04012 0
M  V30 490 N 51.3201 -3.42725 -3.11599 0
M  V30 491 C 52.0551 -4.31892 -3.7717 0
M  V30 492 N 51.5511 -5.31279 -4.44651 0
M  V30 493 N 53.3441 -4.19662 -3.73952 0
M  V30 494 H 45.4951 -2.06469 -0.49841 0
M  V30 495 H 47.7581 -0.904853 -0.282747 0
M  V30 496 H 47.4641 -3.13267 -1.59865 0
M  V30 497 H 47.3381 -2.18838 -3.07229 0
M  V30 498 H 49.7251 -1.28871 -2.65474 0
M  V30 499 H 49.8061 -2.26791 -1.18319 0
M  V30 500 H 49.4501 -4.36965 -2.58889 0
M  V30 501 H 49.3801 -3.35984 -4.0549 0
M  V30 502 H 51.8711 -2.70807 -2.63575 0
M  V30 503 H 52.1841 -5.95593 -4.92431 0
M  V30 504 H 50.5291 -5.3519 -4.43392 0
M  V30 505 H 53.7201 -3.41268 -3.20396 0
M  V30 506 H 53.8931 -4.89358 -4.24774 0
M  V30 507 N 47.2992 1.18797 -1.03562 0
M  V30 508 C 48.5482 1.87978 -0.731235 0
M  V30 509 C 48.8612 1.80911 0.743671 0
M  V30 510 O 50.0672 2.45407 1.16137 0
M  V30 511 C 48.5232 3.3721 -1.25768 0
M  V30 512 C 48.1312 3.52818 -2.76085 0
M  V30 513 C 49.8752 4.11825 -1.0296 0
M  V30 514 C 47.7822 4.9598 -3.22114 0
M  V30 515 H 46.7122 0.704063 -0.269835 0
M  V30 516 H 49.3632 1.34266 -1.25079 0
M  V30 517 H 47.7452 3.90359 -0.666011 0
M  V30 518 H 48.9192 3.09965 -3.40966 0
M  V30 519 H 47.2342 2.91602 -2.97249 0
M  V30 520 H 49.8312 5.17411 -1.34869 0
M  V30 521 H 50.1742 4.16287 0.0333546 0
M  V30 522 H 50.7072 3.64833 -1.58562 0
M  V30 523 H 47.4462 4.96684 -4.27768 0
M  V30 524 H 46.9662 5.39569 -2.61965 0
M  V30 525 H 48.6452 5.6467 -3.15844 0
M  V30 526 N 48.7773 0.814389 1.34928 0
M  V30 527 C 49.7253 0.218424 2.31572 0
M  V30 528 C 50.7193 -0.636128 1.57002 0
M  V30 529 O 51.9253 -0.52842 1.72069 0
M  V30 530 H 48.3003 0.0518799 0.750208 0
M  V30 531 H 50.2713 1.04852 2.79372 0
M  V30 532 C 49.0203 -0.61207 3.4227 0
M  V30 533 H 48.3433 0.0361578 3.99784 0
M  V30 534 H 49.7833 -0.995317 4.12152 0
M  V30 535 C 48.2423 -1.78087 2.85984 0
M  V30 536 O 48.7723 -2.8787 2.80168 0
M  V30 537 N 46.9783 -1.59488 2.42924 0
M  V30 538 H 46.5253 -0.701874 2.47854 0
M  V30 539 H 46.4833 -2.37846 2.05613 0
M  V30 540 N 50.2554 -1.46986 0.568584 0
M  V30 541 C 51.5044 -2.01646 0.0465894 0
M  V30 542 C 51.8174 -1.44721 -1.31587 0
M  V30 543 O 53.0234 -1.91113 -1.92842 0
M  V30 544 C 51.4794 -3.59885 0.032752 0
M  V30 545 C 51.0874 -4.25804 1.39266 0
M  V30 546 C 52.8314 -4.22255 -0.436038 0
M  V30 547 C 50.7384 -5.76081 1.33732 0
M  V30 548 H 49.6684 -0.753876 0.013647 0
M  V30 549 H 52.3194 -1.68864 0.718131 0
M  V30 550 H 50.7014 -3.8968 -0.704669 0
M  V30 551 H 51.8754 -4.07637 2.1487 0
M  V30 552 H 50.1904 -3.7547 1.80032 0
M  V30 553 H 52.7874 -5.32394 -0.49602 0
M  V30 554 H 53.1304 -3.90212 -1.45053 0
M  V30 555 H 53.6634 -3.97033 0.246877 0
M  V30 556 H 50.4024 -6.12761 2.32817 0
M  V30 557 H 49.9224 -5.96553 0.623267 0
M  V30 558 H 51.6014 -6.38518 1.0442 0
M  V30 559 N 51.7335 -0.305618 -1.54608 0
M  V30 560 C 52.9795 0.302746 -2.00528 0
M  V30 561 C 53.3125 1.53184 -1.19367 0
M  V30 562 O 52.5875 1.92598 -0.271321 0
M  V30 563 C 52.8705 0.654756 -3.54097 0
M  V30 564 C 52.7235 -0.583793 -4.45995 0
M  V30 565 C 54.0425 1.47947 -4.14487 0
M  V30 566 H 51.1615 0.108564 -0.72896 0
M  V30 567 H 53.8035 -0.418634 -1.85331 0
M  V30 568 H 51.9535 1.26935 -3.67178 0
M  V30 569 H 53.6255 -1.22224 -4.44814 0
M  V30 570 H 51.8685 -1.21615 -4.16404 0
M  V30 571 H 52.5395 -0.293287 -5.5122 0
M  V30 572 H 55.0155 0.96013 -4.04871 0
M  V30 573 H 53.8915 1.69454 -5.22088 0
M  V30 574 H 54.1525 2.47011 -3.66658 0
M  V30 575 N 53.2116 1.57565 -0.0334293 0
M  V30 576 C 54.4596 1.91598 0.642999 0
M  V30 577 C 54.7806 0.910847 1.7242 0
M  V30 578 O 54.0506 -0.0469931 1.95844 0
M  V30 579 H 52.6306 0.707228 0.240496 0
M  V30 580 H 55.2926 1.94726 -0.0822488 0
M  V30 581 H 54.3886 2.92336 1.09298 0
M  V30 582 N 54.6897 -0.239769 1.55765 0
M  V30 583 C 55.9177 -0.98417 1.81994 0
M  V30 584 C 56.3327 -1.7867 0.610124 0
M  V30 585 O 55.6897 -1.77571 -0.421271 0
M  V30 586 C 55.7407 -1.91635 3.06526 0
M  V30 587 O 55.4617 -1.14629 4.22838 0
M  V30 588 C 56.9627 -2.77616 3.45607 0
M  V30 589 H 54.1827 -0.28928 0.605441 0
M  V30 590 H 56.7267 -0.260499 2.02834 0
M  V30 591 H 54.8817 -2.5942 2.87715 0
M  V30 592 H 55.2957 -1.77745 4.93464 0
M  V30 593 H 56.7697 -3.38759 4.35828 0
M  V30 594 H 57.2467 -3.4909 2.6652 0
M  V30 595 H 57.8527 -2.15271 3.66795 0
M  V30 596 N 56.1678 -1.49265 -0.50573 0
M  V30 597 C 57.3958 -1.62215 -1.28429 0
M  V30 598 C 57.8108 -0.291697 -1.86533 0
M  V30 599 O 57.1678 0.722233 -1.67601 0
M  V30 600 C 57.2188 -2.68735 -2.41793 0
M  V30 601 O 56.9398 -3.96619 -1.86078 0
M  V30 602 C 58.4408 -2.92346 -3.3324 0
M  V30 603 H 55.6608 -0.546239 -0.389697 0
M  V30 604 H 58.2048 -1.95265 -0.607609 0
M  V30 605 H 56.3598 -2.38476 -3.053 0
M  V30 606 H 56.7738 -4.55256 -2.60465 0
M  V30 607 H 58.2478 -3.70623 -4.09075 0
M  V30 608 H 58.7248 -2.02081 -3.89948 0
M  V30 609 H 59.3308 -3.24003 -2.75503 0
M  V30 610 N 57.6459 0.756429 -1.3826 0
M  V30 611 C 58.5559 1.9009 -1.37488 0
M  V30 612 C 59.5719 1.71855 -0.272366 0
M  V30 613 O 60.7479 1.94827 -0.510318 0
M  V30 614 C 57.8129 3.25421 -1.19592 0
M  V30 615 C 56.8739 3.56202 -2.39622 0
M  V30 616 C 56.1069 4.85075 -2.2257 0
M  V30 617 O 56.3299 5.57246 -1.21793 0
M  V30 618 O 55.2639 5.15269 -3.11098 0
M  V30 619 H 59.0899 1.93695 -2.33914 0
M  V30 620 H 56.6749 0.901313 -1.1915 0
M  V30 621 H 58.5569 4.06337 -1.11661 0
M  V30 622 H 57.2319 3.22634 -0.262486 0
M  V30 623 H 56.1389 2.75458 -2.53128 0
M  V30 624 H 57.4719 3.63747 -3.31586 0
M  V30 625 N 59.124 1.23083 0.984299 0
M  V30 626 C 60.352 1.08714 1.76037 0
M  V30 627 C 60.767 -0.361691 1.85303 0
M  V30 628 O 60.124 -1.25034 1.32939 0
M  V30 629 C 60.175 1.70206 3.18923 0
M  V30 630 O 59.896 3.09423 3.10144 0
M  V30 631 C 61.397 1.61227 4.12941 0
M  V30 632 H 58.617 0.380664 0.552572 0
M  V30 633 H 61.161 1.62853 1.23689 0
M  V30 634 H 59.316 1.20109 3.6831 0
M  V30 635 H 59.73 3.39188 4.00065 0
M  V30 636 H 61.204 2.08962 5.10919 0
M  V30 637 H 61.681 0.570375 4.35481 0
M  V30 638 H 62.287 2.10671 3.69456 0
M  V30 639 N 60.6021 -1.18246 1.0419 0
M  V30 640 C 61.8791 -1.84121 0.660208 0
M  V30 641 C 62.2591 -1.92778 -0.860221 0
M  V30 642 O 61.6071 -1.45464 -1.76217 0
M  V30 643 C 61.8171 -3.22355 1.33747 0
M  V30 644 C 63.1651 -3.98376 1.46906 0
M  V30 645 O 64.1891 -3.31799 1.29568 0
M  V30 646 O 63.0481 -5.17665 1.75171 0
M  V30 647 H 60.1421 -0.794036 0.231161 0
M  V30 648 H 62.6881 -1.25628 1.14087 0
M  V30 649 H 61.4601 -3.10964 2.37522 0
M  V30 650 H 61.0831 -3.88506 0.845515 0
M  V30 651 N 62.0802 -0.821533 -1.34494 0
M  V30 652 C 63.0122 -0.199946 -2.28326 0
M  V30 653 C 64.0252 0.609377 -1.50965 0
M  V30 654 O 65.2142 0.439285 -1.7301 0
M  V30 655 C 62.3142 0.738431 -3.30757 0
M  V30 656 C 61.4872 -0.0277632 -4.37391 0
M  V30 657 C 60.5462 0.831332 -5.19591 0
M  V30 658 O 59.5722 0.276822 -5.68526 0
M  V30 659 N 60.7742 2.15132 -5.39165 0
M  V30 660 H 63.5392 -1.00609 -2.82308 0
M  V30 661 H 61.1002 -0.678366 -1.47003 0
M  V30 662 H 63.0922 1.31773 -3.82646 0
M  V30 663 H 61.6622 1.44533 -2.7718 0
M  V30 664 H 60.8822 -0.788359 -3.86236 0
M  V30 665 H 62.1702 -0.555251 -5.05761 0
M  V30 666 H 61.5682 2.62559 -5.01078 0
M  V30 667 H 60.1252 2.6795 -5.94177 0
M  V30 668 N 63.5583 1.46682 -0.576371 0
M  V30 669 C 64.8063 2.02013 -0.0594163 0
M  V30 670 C 65.1273 1.45101 1.30271 0
M  V30 671 O 64.3973 0.633317 1.8538 0
M  V30 672 H 62.9773 0.746759 -0.0189745 0
M  V30 673 H 65.6393 1.79862 -0.750717 0
M  V30 674 H 64.7353 3.12097 0.014345 0
M  V30 675 N 65.0364 0.313813 1.54444 0
M  V30 676 C 66.2824 -0.292108 2.00685 0
M  V30 677 C 66.6154 -1.52548 1.20177 0
M  V30 678 O 65.8904 -1.92452 0.281531 0
M  V30 679 C 66.1734 -0.635968 3.5444 0
M  V30 680 C 66.0264 0.607437 4.4568 0
M  V30 681 C 67.3454 -1.45747 4.15266 0
M  V30 682 H 64.4644 -0.104697 0.729526 0
M  V30 683 H 67.1064 0.428457 1.85106 0
M  V30 684 H 65.2564 -1.24986 3.67846 0
M  V30 685 H 66.9284 1.24581 4.44159 0
M  V30 686 H 65.1714 1.23822 4.15753 0
M  V30 687 H 65.8424 0.322515 5.51057 0
M  V30 688 H 68.3184 -0.938645 4.05375 0
M  V30 689 H 67.1944 -1.66683 5.2298 0
M  V30 690 H 67.4554 -2.45063 3.67963 0
M  V30 691 N 66.5145 -1.57545 0.0417849 0
M  V30 692 C 67.7425 -1.96624 -0.643928 0
M  V30 693 C 68.1575 -0.918897 -1.64929 0
M  V30 694 O 67.5145 0.0979323 -1.82237 0
M  V30 695 C 67.5655 -3.35781 -1.33914 0
M  V30 696 O 67.2865 -4.365 -0.374048 0
M  V30 697 C 68.7875 -3.89566 -2.1155 0
M  V30 698 H 66.0075 -0.647316 -0.176702 0
M  V30 699 H 68.5515 -2.04229 0.105304 0
M  V30 700 H 66.7065 -3.29357 -2.03968 0
M  V30 701 H 67.1205 -5.17248 -0.869179 0
M  V30 702 H 68.5945 -4.89242 -2.55628 0
M  V30 703 H 69.0715 -3.24488 -2.9598 0
M  V30 704 H 69.6775 -3.99298 -1.46427 0
M  V30 705 N 67.9926 0.231505 -1.5589 0
M  V30 706 C 69.2396 0.957352 -1.78441 0
M  V30 707 C 69.5676 1.84726 -0.60882 0
M  V30 708 O 68.8226 1.91416 0.40725 0
M  V30 709 C 69.1216 1.83577 -3.0665 0
M  V30 710 C 68.7876 1.09993 -4.37278 0
M  V30 711 C 67.4496 0.896629 -4.72773 0
M  V30 712 C 69.8016 0.579558 -5.17968 0
M  V30 713 C 67.1296 0.160896 -5.86479 0
M  V30 714 C 69.4816 -0.142783 -6.32439 0
M  V30 715 C 68.1456 -0.357427 -6.66542 0
M  V30 716 H 67.4156 0.35032 -0.65296 0
M  V30 717 H 70.0626 0.226259 -1.90159 0
M  V30 718 H 68.3676 2.63441 -2.90011 0
M  V30 719 H 70.0646 2.39934 -3.21298 0
M  V30 720 H 66.6546 1.26835 -4.09403 0
M  V30 721 H 70.8386 0.724125 -4.90989 0
M  V30 722 H 66.0946 -0.0157293 -6.11398 0
M  V30 723 H 70.2686 -0.553559 -6.94196 0
M  V30 724 H 67.8956 -0.929466 -7.54497 0
M  V30 725 N 69.4707 1.49531 0.497807 0
M  V30 726 C 70.7187 1.58865 1.24926 0
M  V30 727 C 71.0397 0.278721 1.92998 0
M  V30 728 O 70.3097 -0.702144 1.82885 0
M  V30 729 H 68.8897 0.585343 0.464094 0
M  V30 730 H 71.5517 1.86174 0.57666 0
M  V30 731 H 70.6477 2.38633 2.01149 0
M  V30 732 N 70.9488 -0.749086 1.3866 0
M  V30 733 C 71.9118 -1.84457 1.36045 0
M  V30 734 C 72.9118 -1.58682 0.260122 0
M  V30 735 O 74.1018 -1.66343 0.517261 0
M  V30 736 C 71.2338 -3.22008 1.11911 0
M  V30 737 H 72.4268 -1.88182 2.33512 0
M  V30 738 H 69.9798 -0.951266 1.24019 0
M  V30 739 H 70.7148 -3.2395 0.150686 0
M  V30 740 H 70.4998 -3.42111 1.91579 0
M  V30 741 H 71.9898 -4.0208 1.12788 0
M  V30 742 N 72.4269 -1.23603 -0.977757 0
M  V30 743 C 73.3739 -1.01954 -2.07061 0
M  V30 744 C 74.3439 0.0638697 -1.65977 0
M  V30 745 O 75.5289 -0.0887624 -1.90593 0
M  V30 746 C 72.6689 -0.619658 -3.39491 0
M  V30 747 C 71.7819 -1.77547 -3.93829 0
M  V30 748 C 70.9169 -1.32212 -5.14484 0
M  V30 749 C 69.9559 -2.44852 -5.60994 0
M  V30 750 N 69.0929 -2.00456 -6.72876 0
M  V30 751 H 73.9329 -1.95495 -2.24913 0
M  V30 752 H 71.4699 -0.973861 -1.10247 0
M  V30 753 H 73.4279 -0.368898 -4.15566 0
M  V30 754 H 72.0579 0.278752 -3.21594 0
M  V30 755 H 71.1099 -2.14016 -3.14486 0
M  V30 756 H 72.4219 -2.62219 -4.24314 0
M  V30 757 H 71.5759 -1.02965 -5.97899 0
M  V30 758 H 70.3149 -0.445808 -4.85658 0
M  V30 759 H 69.3199 -2.74871 -4.76157 0
M  V30 760 H 70.5449 -3.33024 -5.91837 0
M  V30 761 H 68.4909 -1.15208 -6.45804 0
M  V30 762 H 68.4079 -2.78687 -7.02759 0
M  V30 763 H 69.6759 -1.7432 -7.59758 0
M  V30 764 N 73.905 1.17692 -1.04816 0
M  V30 765 C 74.835 2.23777 -0.666791 0
M  V30 766 C 75.816 1.66796 0.33361 0
M  V30 767 O 77.001 1.93039 0.212042 0
M  V30 768 C 74.131 3.47281 -0.0367933 0
M  V30 769 C 73.085 4.17059 -0.961546 0
M  V30 770 C 72.411 5.34342 -0.195626 0
M  V30 771 C 73.711 4.69713 -2.28402 0
M  V30 772 H 75.405 2.55933 -1.55367 0
M  V30 773 H 72.951 1.23019 -0.748484 0
M  V30 774 H 74.904 4.20706 0.241775 0
M  V30 775 H 73.628 3.14381 0.885004 0
M  V30 776 H 72.287 3.45541 -1.22462 0
M  V30 777 H 71.935 4.97692 0.728816 0
M  V30 778 H 71.635 5.81966 -0.811775 0
M  V30 779 H 73.159 6.10553 0.0757473 0
M  V30 780 H 74.573 5.34794 -2.06563 0
M  V30 781 H 72.97 5.279 -2.8538 0
M  V30 782 H 74.04 3.86726 -2.92525 0
M  V30 783 N 75.3831 0.828654 1.34056 0
M  V30 784 C 76.7991 0.515135 1.51058 0
M  V30 785 C 76.9991 -0.959581 1.77184 0
M  V30 786 O 76.0551 -1.74382 1.82612 0
M  V30 787 C 77.3681 1.37963 2.67183 0
M  V30 788 C 78.9161 1.37735 2.81066 0
M  V30 789 C 79.3911 2.22645 4.00241 0
M  V30 790 N 80.8821 2.203 4.07458 0
M  V30 791 C 81.6171 2.82744 4.98842 0
M  V30 792 N 81.1131 3.54201 5.9541 0
M  V30 793 N 82.9061 2.72268 4.91759 0
M  V30 794 H 75.0571 1.78343 1.15358 0
M  V30 795 H 77.3201 0.760304 0.566252 0
M  V30 796 H 77.0261 2.42714 2.54525 0
M  V30 797 H 76.9001 1.0484 3.62338 0
M  V30 798 H 79.2871 0.337593 2.93163 0
M  V30 799 H 79.3681 1.74859 1.86703 0
M  V30 800 H 79.0121 3.26674 3.88905 0
M  V30 801 H 78.9421 1.82869 4.93829 0
M  V30 802 H 81.4331 1.68327 3.38341 0
M  V30 803 H 81.7461 3.9908 6.61782 0
M  V30 804 H 80.0911 3.58308 5.95517 0
M  V30 805 H 83.2821 2.16014 4.15278 0
M  V30 806 H 83.4551 3.21219 5.62781 0
M  V30 807 N 76.8612 -1.46375 0.584142 0
M  V30 808 C 77.7942 -2.27351 -0.196676 0
M  V30 809 C 78.7722 -1.35715 -0.895561 0
M  V30 810 O 79.9562 -1.65126 -0.90916 0
M  V30 811 C 77.0832 -3.13486 -1.28235 0
M  V30 812 C 76.1292 -4.20896 -0.689145 0
M  V30 813 S 76.9622 -5.33299 0.48507 0
M  V30 814 C 78.1182 -6.23 -0.601767 0
M  V30 815 H 78.3512 -2.93228 0.490395 0
M  V30 816 H 75.8842 -1.49875 0.371071 0
M  V30 817 H 77.8422 -3.63676 -1.90395 0
M  V30 818 H 76.5032 -2.4692 -1.94138 0
M  V30 819 H 75.6962 -4.80997 -1.50527 0
M  V30 820 H 75.2982 -3.73726 -0.143181 0
M  V30 821 H 77.5902 -6.60979 -1.48705 0
M  V30 822 H 78.5332 -7.0809 -0.0374799 0
M  V30 823 H 78.9412 -5.57173 -0.906557 0
M  V30 824 N 78.3393 -0.321999 -1.54275 0
M  V30 825 C 79.2713 0.578671 -2.21775 0
M  V30 826 C 80.2843 1.08109 -1.21722 0
M  V30 827 O 81.4733 0.994938 -1.482 0
M  V30 828 C 78.5733 1.80661 -2.86731 0
M  V30 829 C 77.7463 1.44314 -4.12907 0
M  V30 830 C 76.8053 2.52845 -4.61472 0
M  V30 831 O 75.8313 2.17054 -5.2619 0
M  V30 832 N 77.0333 3.83748 -4.35566 0
M  V30 833 H 79.7983 0.000709447 -2.997 0
M  V30 834 H 77.3593 -0.145132 -1.61248 0
M  V30 835 H 79.3513 2.52655 -3.16145 0
M  V30 836 H 77.9213 2.29245 -2.12521 0
M  V30 837 H 77.1413 0.554906 -3.90275 0
M  V30 838 H 78.4293 1.17598 -4.95023 0
M  V30 839 H 77.8273 4.15625 -3.83761 0
M  V30 840 H 76.3843 4.51977 -4.69638 0
M  V30 841 N 79.8174 1.5752 -0.0501392 0
M  V30 842 C 81.0634 1.93755 0.618901 0
M  V30 843 C 81.4184 0.928514 1.68512 0
M  V30 844 O 80.7114 -0.0524613 1.91528 0
M  V30 845 C 80.9054 3.34467 1.25963 0
M  V30 846 C 80.7344 4.48965 0.257 0
M  V30 847 C 79.5044 5.05075 -0.150656 0
M  V30 848 C 81.7024 5.11891 -0.497166 0
M  V30 849 N 79.6844 6.03104 -1.14626 0
M  V30 850 C 81.0554 6.05216 -1.34588 0
M  V30 851 C 83.1104 4.9479 -0.55559 0
M  V30 852 C 81.8134 6.83277 -2.24778 0
M  V30 853 C 83.8394 5.73477 -1.44492 0
M  V30 854 C 83.2014 6.66433 -2.28136 0
M  V30 855 H 79.3004 0.756479 0.198149 0
M  V30 856 H 81.8844 1.94316 -0.122229 0
M  V30 857 H 80.0554 3.34685 1.97079 0
M  V30 858 H 81.7874 3.57994 1.88739 0
M  V30 859 H 78.5424 4.7305 0.228094 0
M  V30 860 H 78.9664 6.56813 -1.64092 0
M  V30 861 H 83.6084 4.2273 0.0768625 0
M  V30 862 H 81.3264 7.54629 -2.89069 0
M  V30 863 H 84.9124 5.62273 -1.49468 0
M  V30 864 H 83.7924 7.26258 -2.95835 0
M  V30 865 N 81.2955 -0.223234 1.56011 0
M  V30 866 C 82.5725 -0.972108 1.69733 0
M  V30 867 C 82.9525 -2.02485 0.59691 0
M  V30 868 O 82.3005 -2.25037 -0.396324 0
M  V30 869 C 82.5105 -1.58407 3.10979 0
M  V30 870 C 83.8585 -2.07696 3.70334 0
M  V30 871 O 84.8825 -1.68304 3.1393 0
M  V30 872 O 83.7415 -2.80096 4.69264 0
M  V30 873 H 80.8355 -0.453993 0.691245 0
M  V30 874 H 83.3815 -0.215149 1.68331 0
M  V30 875 H 82.1535 -0.823831 3.82529 0
M  V30 876 H 81.7765 -2.40661 3.16493 0
M  V30 877 N 82.7736 -1.49793 -0.48987 0
M  V30 878 C 84.0506 -1.50348 -1.25119 0
M  V30 879 C 84.4306 -0.237466 -2.0976 0
M  V30 880 O 83.7786 0.77981 -2.14782 0
M  V30 881 C 83.9886 -2.78872 -2.09837 0
M  V30 882 C 85.3366 -3.288 -2.68655 0
M  V30 883 O 86.3606 -2.80065 -2.20096 0
M  V30 884 O 85.2196 -4.13707 -3.57083 0
M  V30 885 H 82.3136 -0.602242 -0.566775 0
M  V30 886 H 84.8596 -1.62067 -0.503229 0
M  V30 887 H 83.6316 -3.62499 -1.47343 0
M  V30 888 H 83.2546 -2.70066 -2.91805 0
M  V30 889 N 84.2517 0.741722 -1.39055 0
M  V30 890 C 85.4997 1.49818 -1.35643 0
M  V30 891 C 85.8207 1.94938 0.0491642 0
M  V30 892 O 85.0907 1.68505 0.999141 0
M  V30 893 H 83.6707 0.555755 -0.499144 0
M  V30 894 H 86.3327 0.880957 -1.73854 0
M  V30 895 H 85.4287 2.38348 -2.01486 0
M  V30 896 N 85.7298 1.2412 0.971189 0
M  V30 897 C 87.0068 0.986867 1.6888 0
M  V30 898 C 87.3868 -0.491857 2.0529 0
M  V30 899 O 86.7348 -1.46531 1.75331 0
M  V30 900 C 86.9448 1.9063 2.92338 0
M  V30 901 C 88.2928 2.17515 3.64654 0
M  V30 902 O 89.3168 1.88254 3.02388 0
M  V30 903 O 88.1758 2.6719 4.7673 0
M  V30 904 H 85.2698 0.372944 0.738134 0
M  V30 905 H 87.8158 1.35203 1.02559 0
M  V30 906 H 86.5878 2.90552 2.62097 0
M  V30 907 H 86.2108 1.54408 3.66393 0
M  V30 908 N 87.2079 -1.17134 1.05439 0
M  V30 909 C 88.1709 -2.19439 0.661764 0
M  V30 910 C 89.1709 -1.58199 -0.288042 0
M  V30 911 O 90.3609 -1.74053 -0.0715803 0
M  V30 912 C 87.4929 -3.40889 -0.0276209 0
M  V30 913 H 88.6859 -2.55688 1.56728 0
M  V30 914 H 86.2389 -1.31259 0.848567 0
M  V30 915 H 86.9739 -3.10187 -0.94629 0
M  V30 916 H 86.7589 -3.86586 0.655238 0
M  V30 917 H 88.2489 -4.16603 -0.288342 0
M  V30 918 N 88.686 -0.835752 -1.33615 0
M  V30 919 C 89.933 -0.429959 -1.97883 0
M  V30 920 C 90.261 1.01006 -1.66217 0
M  V30 921 O 89.516 1.72047 -0.93265 0
M  V30 922 C 89.815 -0.593925 -3.52431 0
M  V30 923 C 89.481 -2.00158 -4.04039 0
M  V30 924 C 88.143 -2.38662 -4.17844 0
M  V30 925 C 90.495 -2.92117 -4.31644 0
M  V30 926 C 87.823 -3.68435 -4.56588 0
M  V30 927 C 90.175 -4.21368 -4.71838 0
M  V30 928 C 88.839 -4.59833 -4.83849 0
M  V30 929 H 88.109 -0.157333 -0.724104 0
M  V30 930 H 90.756 -1.06217 -1.59343 0
M  V30 931 H 89.061 0.121619 -3.91611 0
M  V30 932 H 90.758 -0.260282 -4.00154 0
M  V30 933 H 87.348 -1.69252 -3.93766 0
M  V30 934 H 91.532 -2.63608 -4.20505 0
M  V30 935 H 86.788 -3.98046 -4.64079 0
M  V30 936 H 90.962 -4.92703 -4.92155 0
M  V30 937 H 88.589 -5.60438 -5.13627 0
M  V30 938 N 90.1641 1.46063 -0.591896 0
M  V30 939 C 91.1271 2.28854 0.125973 0
M  V30 940 C 92.1271 1.38903 0.810107 0
M  V30 941 O 93.3171 1.61186 0.66066 0
M  V30 942 C 90.4491 3.19526 1.1881 0
M  V30 943 H 91.6421 2.93802 -0.601717 0
M  V30 944 H 89.1951 1.52325 -0.350254 0
M  V30 945 H 89.9301 2.59345 1.94707 0
M  V30 946 H 89.7151 3.85766 0.701936 0
M  V30 947 H 91.2051 3.81817 1.69132 0
M  V30 948 N 91.6422 0.330177 1.54103 0
M  V30 949 C 92.8902 -0.269871 2.0029 0
M  V30 950 C 93.2112 -1.52133 1.21986 0
M  V30 951 O 92.4812 -1.93212 0.323438 0
M  V30 952 H 91.0612 -0.10271 0.739905 0
M  V30 953 H 93.7232 0.448249 1.89675 0
M  V30 954 H 92.8192 -0.52166 3.07709 0
M  V30 955 N 93.1203 -1.57491 0.0584922 0
M  V30 956 C 94.3483 -1.97296 -0.623037 0
M  V30 957 C 94.7633 -0.936338 -1.63946 0
M  V30 958 O 94.1203 0.0785981 -1.82331 0
M  V30 959 C 94.1713 -3.37183 -1.30345 0
M  V30 960 O 93.8923 -4.36872 -0.32773 0
M  V30 961 C 95.3933 -3.91788 -2.07406 0
M  V30 962 H 92.6133 -0.649153 -0.169826 0
M  V30 963 H 95.1573 -2.04106 0.12696 0
M  V30 964 H 93.3123 -3.31502 -2.00463 0
M  V30 965 H 93.7263 -5.18141 -0.814269 0
M  V30 966 H 95.2003 -4.91926 -2.50425 0
M  V30 967 H 95.6773 -3.27609 -2.92521 0
M  V30 968 H 96.2833 -4.00829 -1.42184 0
M  V30 969 N 94.5984 0.214957 -1.56127 0
M  V30 970 C 95.5614 1.24997 -1.92116 0
M  V30 971 C 96.5614 1.39467 -0.800344 0
M  V30 972 O 97.7514 1.37619 -1.06802 0
M  V30 973 C 94.8834 2.62271 -2.17777 0
M  V30 974 H 96.0764 0.942875 -2.84693 0
M  V30 975 H 93.6294 0.455654 -1.49511 0
M  V30 976 H 94.3644 2.98068 -1.27773 0
M  V30 977 H 94.1494 2.53143 -2.99434 0
M  V30 978 H 95.6394 3.36946 -2.46693 0
M  V30 979 N 96.0765 1.50051 0.48192 0
M  V30 980 C 97.3245 1.60181 1.23234 0
M  V30 981 C 97.6455 0.299176 1.92691 0
M  V30 982 O 96.9155 -0.682708 1.83619 0
M  V30 983 H 95.4955 0.590232 0.457859 0
M  V30 984 H 98.1575 1.86775 0.556881 0
M  V30 985 H 97.2535 2.40753 1.98607 0
M  V30 986 N 97.5546 -0.734337 1.39446 0
M  V30 987 C 98.5026 -1.86971 1.38364 0
M  V30 988 C 99.4966 -1.67288 0.266687 0
M  V30 989 O 100.703 -1.74621 0.436755 0
M  V30 990 H 97.0776 -0.615474 0.432082 0
M  V30 991 H 99.0486 -1.85 2.34132 0
M  V30 992 C 97.7976 -3.2466 1.24465 0
M  V30 993 H 97.1206 -3.40402 2.09682 0
M  V30 994 H 98.5606 -4.04292 1.27764 0
M  V30 995 C 97.0196 -3.36867 -0.0468674 0
M  V30 996 O 97.5496 -3.88618 -1.01681 0
M  V30 997 N 95.7556 -2.90391 -0.110145 0
M  V30 998 H 95.3026 -2.48466 0.679868 0
M  V30 999 H 95.2606 -2.98939 -0.973799 0
M  V30 1000 N 99.0327 -1.24633 -0.964593 0
M  V30 1001 C 99.9957 -1.0424 -2.04124 0
M  V30 1002 C 100.996 0.00137563 -1.608 0
M  V30 1003 O 102.186 -0.239883 -1.7254 0
M  V30 1004 C 99.3177 -0.580588 -3.3592 0
M  V30 1005 H 100.511 -1.99803 -2.23649 0
M  V30 1006 H 98.0637 -1.06899 -1.14027 0
M  V30 1007 H 98.7987 0.3781 -3.22088 0
M  V30 1008 H 98.5837 -1.33398 -3.6871 0
M  V30 1009 H 100.074 -0.459034 -4.15069 0
M  V30 1010 N 100.511 1.16574 -1.06058 0
M  V30 1011 C 101.474 2.19085 -0.673392 0
M  V30 1012 C 102.474 1.5835 0.279648 0
M  V30 1013 O 103.664 1.74088 0.0623488 0
M  V30 1014 C 100.796 3.40899 0.00954234 0
M  V30 1015 H 101.989 2.54853 -1.58081 0
M  V30 1016 H 99.5418 1.30808 -0.855516 0
M  V30 1017 H 100.277 3.10684 0.929826 0
M  V30 1018 H 100.062 3.86233 -0.67573 0
M  V30 1019 H 101.552 4.1675 0.266245 0
M  V30 1020 N 101.989 0.842826 1.3317 0
M  V30 1021 C 102.921 0.236245 2.27979 0
M  V30 1022 C 103.934 -0.585282 1.51915 0
M  V30 1023 O 105.123 -0.411705 1.73687 0
M  V30 1024 C 102.223 -0.685717 3.3189 0
M  V30 1025 C 101.396 0.0973448 4.37292 0
M  V30 1026 C 100.455 -0.748565 5.20848 0
M  V30 1027 O 99.4809 -0.186339 5.68895 0
M  V30 1028 N 100.683 -2.06527 5.42519 0
M  V30 1029 H 103.448 1.05088 2.80672 0
M  V30 1030 H 101.009 0.701667 1.45905 0
M  V30 1031 H 103.001 -1.25669 3.84694 0
M  V30 1032 H 101.571 -1.40105 2.79445 0
M  V30 1033 H 100.791 0.849706 3.84933 0
M  V30 1034 H 102.079 0.635643 5.04814 0
M  V30 1035 H 101.477 -2.54554 5.05192 0
M  V30 1036 H 100.034 -2.58464 5.98364 0
M  V30 1037 N 103.467 -1.45747 0.599634 0
M  V30 1038 C 104.714 -2.02292 0.0917284 0
M  V30 1039 C 105.042 -1.46906 -1.27472 0
M  V30 1040 O 104.297 -0.630652 -1.8526 0
M  V30 1041 C 104.596 -3.57399 -0.00602758 0
M  V30 1042 C 104.262 -4.31902 1.29503 0
M  V30 1043 C 102.924 -4.51974 1.65144 0
M  V30 1044 C 105.276 -4.74551 2.15525 0
M  V30 1045 C 102.604 -5.11949 2.86574 0
M  V30 1046 C 104.956 -5.35868 3.36196 0
M  V30 1047 C 103.62 -5.54165 3.72099 0
M  V30 1048 H 102.89 -0.740239 0.0335658 0
M  V30 1049 H 105.537 -1.7491 0.779661 0
M  V30 1050 H 103.842 -3.84014 -0.777183 0
M  V30 1051 H 105.539 -3.98846 -0.415038 0
M  V30 1052 H 102.129 -4.16588 1.00761 0
M  V30 1053 H 106.313 -4.58784 1.8929 0
M  V30 1054 H 101.569 -5.24305 3.14507 0
M  V30 1055 H 105.743 -5.6787 4.03109 0
M  V30 1056 H 103.37 -6.00406 4.6628 0
M  V30 1057 N 104.945 -0.338344 -1.53925 0
M  V30 1058 C 106.191 0.252842 -2.01822 0
M  V30 1059 C 106.546 1.48612 -1.22197 0
M  V30 1060 O 105.839 1.89238 -0.299892 0
M  V30 1061 C 106.033 0.62448 -3.51902 0
M  V30 1062 C 105.862 -0.571235 -4.46057 0
M  V30 1063 C 104.632 -1.07493 -4.93734 0
M  V30 1064 C 106.83 -1.42807 -4.94076 0
M  V30 1065 N 104.812 -2.23351 -5.71828 0
M  V30 1066 C 106.183 -2.43362 -5.70241 0
M  V30 1067 C 108.238 -1.45412 -4.76193 0
M  V30 1068 C 106.941 -3.46346 -6.30426 0
M  V30 1069 C 108.967 -2.47274 -5.37224 0
M  V30 1070 C 108.329 -3.46555 -6.13253 0
M  V30 1071 H 104.428 0.0559669 -0.779995 0
M  V30 1072 H 107.012 -0.476732 -1.88773 0
M  V30 1073 H 105.183 1.32317 -3.65167 0
M  V30 1074 H 106.915 1.19841 -3.86549 0
M  V30 1075 H 103.67 -0.643848 -4.69203 0
M  V30 1076 H 104.094 -2.81834 -6.15548 0
M  V30 1077 H 108.736 -0.700171 -4.16962 0
M  V30 1078 H 106.454 -4.22638 -6.88769 0
M  V30 1079 H 110.04 -2.50109 -5.25297 0
M  V30 1080 H 108.92 -4.24083 -6.59638 0
M  V30 1081 N 106.423 1.57458 -0.0668435 0
M  V30 1082 C 107.651 1.97624 0.612565 0
M  V30 1083 C 108.066 0.94502 1.63447 0
M  V30 1084 O 107.423 -0.0689276 1.8237 0
M  V30 1085 C 107.474 3.37869 1.28555 0
M  V30 1086 O 107.195 4.3704 0.304557 0
M  V30 1087 C 108.696 3.92882 2.05325 0
M  V30 1088 H 105.916 0.650045 0.166381 0
M  V30 1089 H 108.46 2.04035 -0.137782 0
M  V30 1090 H 106.615 3.3256 1.98702 0
M  V30 1091 H 107.029 5.18565 0.786779 0
M  V30 1092 H 108.503 4.93247 2.47812 0
M  V30 1093 H 108.98 3.29156 2.9078 0
M  V30 1094 H 109.586 4.01577 1.40056 0
M  V30 1095 N 107.901 -0.206675 1.56239 0
M  V30 1096 C 109.126 -0.949474 1.8439 0
M  V30 1097 C 109.551 -1.76549 0.649016 0
M  V30 1098 O 108.909 -1.76782 -0.402231 0
M  V30 1099 C 108.957 -1.83078 3.10668 0
M  V30 1100 O 108.061 -2.9281 2.90407 0
M  V30 1101 H 107.402 -0.268033 0.607499 0
M  V30 1102 H 109.932 -0.215488 2.03462 0
M  V30 1103 H 109.942 -2.2377 3.41161 0
M  V30 1104 H 108.617 -1.23112 3.97261 0
M  V30 1105 H 107.194 -2.55956 2.71184 0
M  V30 1106 N 109.379 -1.50304 -0.473955 0
M  V30 1107 C 110.609 -1.64663 -1.24778 0
M  V30 1108 C 111.017 -0.328174 -1.86332 0
M  V30 1109 O 110.36 0.699536 -1.69859 0
M  V30 1110 C 110.422 -2.6778 -2.39863 0
M  V30 1111 C 110.086 -4.11413 -1.98969 0
M  V30 1112 C 111.083 -4.97372 -1.51385 0
M  V30 1113 C 108.768 -4.57312 -2.07777 0
M  V30 1114 C 110.762 -6.27277 -1.13148 0
M  V30 1115 C 108.449 -5.87223 -1.69152 0
M  V30 1116 C 109.447 -6.72031 -1.21915 0
M  V30 1117 O 109.135 -7.99518 -0.838237 0
M  V30 1118 H 108.867 -0.556602 -0.383627 0
M  V30 1119 H 111.421 -1.9726 -0.572491 0
M  V30 1120 H 109.651 -2.30419 -3.10554 0
M  V30 1121 H 111.34 -2.71388 -3.01833 0
M  V30 1122 H 112.106 -4.63128 -1.44004 0
M  V30 1123 H 107.985 -3.91449 -2.43493 0
M  V30 1124 H 111.529 -6.93425 -0.762077 0
M  V30 1125 H 107.426 -6.20989 -1.76191 0
M  V30 1126 H 108.194 -8.12764 -0.967339 0
M  V30 1127 N 110.857 0.726932 -1.39834 0
M  V30 1128 C 111.805 1.86235 -1.39353 0
M  V30 1129 C 112.799 1.67144 -0.275555 0
M  V30 1130 O 114.005 1.74387 -0.44601 0
M  V30 1131 H 110.38 0.613174 -0.43534 0
M  V30 1132 H 112.351 1.83756 -2.35109 0
M  V30 1133 C 111.1 3.23995 -1.26185 0
M  V30 1134 H 110.423 3.39285 -2.11484 0
M  V30 1135 H 111.863 4.03609 -1.29907 0
M  V30 1136 C 110.322 3.36888 0.0290018 0
M  V30 1137 O 110.852 3.89152 0.99619 0
M  V30 1138 N 109.058 2.90446 0.0947437 0
M  V30 1139 H 108.605 2.48102 -0.693035 0
M  V30 1140 H 108.563 2.99451 0.957932 0
M  V30 1141 N 112.336 1.25143 0.95797 0
M  V30 1142 C 113.584 1.09476 1.69881 0
M  V30 1143 C 113.905 -0.365502 1.91544 0
M  V30 1144 O 113.175 -1.25985 1.50015 0
M  V30 1145 H 111.755 0.402128 0.629525 0
M  V30 1146 H 114.417 1.57214 1.15194 0
M  V30 1147 H 113.513 1.60046 2.6794 0
M  V30 1148 N 113.814 -1.1601 1.06675 0
M  V30 1149 C 115.06 -1.86909 0.786945 0
M  V30 1150 C 115.393 -1.81717 -0.685018 0
M  V30 1151 O 114.668 -1.23551 -1.50218 0
M  V30 1152 C 114.951 -3.36313 1.28707 0
M  V30 1153 C 114.804 -3.50175 2.82308 0
M  V30 1154 C 116.123 -4.3084 0.898071 0
M  V30 1155 H 113.242 -0.678677 0.287343 0
M  V30 1156 H 115.884 -1.36336 1.32334 0
M  V30 1157 H 114.034 -3.79513 0.830768 0
M  V30 1158 H 115.706 -3.15886 3.36175 0
M  V30 1159 H 113.949 -2.91959 3.20847 0
M  V30 1160 H 114.62 -4.55116 3.12368 0
M  V30 1161 H 117.096 -3.95561 1.29114 0
M  V30 1162 H 115.972 -5.33876 1.27543 0
M  V30 1163 H 116.233 -4.41662 -0.196651 0
M  V30 1164 N 115.292 -0.849877 -1.32721 0
M  V30 1165 C 116.52 -0.464754 -2.01613 0
M  V30 1166 C 116.935 0.937191 -1.63897 0
M  V30 1167 O 116.292 1.61081 -0.857856 0
M  V30 1168 C 116.343 -0.588638 -3.56675 0
M  V30 1169 O 116.064 -1.93535 -3.93034 0
M  V30 1170 C 117.565 -0.2019 -4.4284 0
M  V30 1171 H 114.785 -0.183215 -0.645502 0
M  V30 1172 H 117.329 -1.1455 -1.69407 0
M  V30 1173 H 115.484 0.0443159 -3.87375 0
M  V30 1174 H 115.898 -1.92871 -4.87751 0
M  V30 1175 H 117.372 -0.339599 -5.50954 0
M  V30 1176 H 117.849 0.857224 -4.30753 0
M  V30 1177 H 118.455 -0.809733 -4.17521 0
M  V30 1178 N 116.77 1.45427 -0.607355 0
M  V30 1179 C 118.016 2.0254 -0.102607 0
M  V30 1180 C 118.349 1.47478 1.26348 0
M  V30 1181 O 117.624 0.64939 1.83339 0
M  V30 1182 C 117.907 3.60044 -0.0634347 0
M  V30 1183 C 117.76 4.2544 -1.46017 0
M  V30 1184 C 119.079 4.35646 0.624514 0
M  V30 1185 H 116.198 0.73598 -0.0387607 0
M  V30 1186 H 118.84 1.73284 -0.779282 0
M  V30 1187 H 116.99 3.85101 0.512808 0
M  V30 1188 H 118.662 4.11569 -2.08347 0
M  V30 1189 H 116.905 3.83849 -2.02094 0
M  V30 1190 H 117.576 5.34342 -1.385 0
M  V30 1191 H 120.052 4.15882 0.134723 0
M  V30 1192 H 118.928 5.45376 0.621028 0
M  V30 1193 H 119.189 4.08501 1.69055 0
M  V30 1194 N 118.248 0.346503 1.53744 0
M  V30 1195 C 119.473 -0.253074 2.0585 0
M  V30 1196 C 119.898 -1.43202 1.21962 0
M  V30 1197 O 119.256 -1.79783 0.234073 0
M  V30 1198 C 119.304 -0.643193 3.54817 0
M  V30 1199 O 118.408 -1.74286 3.73762 0
M  V30 1200 H 117.749 -0.0413583 0.662711 0
M  V30 1201 H 120.279 0.501574 1.98357 0
M  V30 1202 H 120.289 -0.919526 3.97503 0
M  V30 1203 H 118.964 0.218966 4.15323 0
M  V30 1204 H 117.541 -1.46356 3.42979 0
M  V30 1205 N 119.726 -1.57421 0.075193 0
M  V30 1206 C 120.972 -1.93905 -0.594025 0
M  V30 1207 C 121.305 -0.955701 -1.69056 0
M  V30 1208 O 120.58 0.0145373 -1.94495 0
M  V30 1209 C 120.863 -3.40638 -1.1678 0
M  V30 1210 C 120.716 -4.49733 -0.0776792 0
M  V30 1211 C 122.035 -3.88259 -2.07228 0
M  V30 1212 H 119.154 -0.705105 -0.214466 0
M  V30 1213 H 121.796 -1.8947 0.141854 0
M  V30 1214 H 119.946 -3.44549 -1.79494 0
M  V30 1215 H 121.618 -4.57942 0.555573 0
M  V30 1216 H 119.861 -4.29751 0.591286 0
M  V30 1217 H 120.532 -5.49549 -0.519603 0
M  V30 1218 H 123.008 -3.86376 -1.54445 0
M  V30 1219 H 121.884 -4.91533 -2.44308 0
M  V30 1220 H 122.145 -3.26396 -2.98191 0
M  V30 1221 N 121.204 0.198386 -1.56346 0
M  V30 1222 C 122.452 0.91747 -1.80075 0
M  V30 1223 C 122.773 1.83929 -0.647692 0
M  V30 1224 O 122.043 1.93029 0.334166 0
M  V30 1225 H 120.623 0.341774 -0.664228 0
M  V30 1226 H 123.285 0.204684 -1.93822 0
M  V30 1227 H 122.381 1.51055 -2.7311 0
M  V30 1228 N 122.682 1.50554 0.465978 0
M  V30 1229 C 123.63 1.70324 1.58406 0
M  V30 1230 C 124.624 0.569139 1.59553 0
M  V30 1231 O 125.83 0.749776 1.63641 0
M  V30 1232 H 122.205 0.537688 0.525734 0
M  V30 1233 H 124.176 2.64104 1.38894 0
M  V30 1234 C 122.925 1.81928 2.96307 0
M  V30 1235 H 122.248 2.68586 2.96144 0
M  V30 1236 H 123.688 1.99784 3.73982 0
M  V30 1237 C 122.147 0.572095 3.32007 0
M  V30 1238 O 122.677 -0.286416 4.00678 0
M  V30 1239 N 120.883 0.424606 2.87481 0
M  V30 1240 H 120.43 1.12427 2.31771 0
M  V30 1241 H 120.388 -0.408697 3.11732 0
M  V30 1242 N 124.16 -0.719506 1.40217 0
M  V30 1243 C 125.406 -1.48152 1.38488 0
M  V30 1244 C 125.739 -1.94195 -0.0141867 0
M  V30 1245 O 125.014 -1.67884 -0.982096 0
M  V30 1246 C 125.297 -2.71035 2.37091 0
M  V30 1247 C 125.15 -2.30912 3.86005 0
M  V30 1248 C 126.469 -3.73182 2.33288 0
M  V30 1249 H 123.588 -0.537395 0.504357 0
M  V30 1250 H 126.23 -0.821472 1.71324 0
M  V30 1251 H 124.38 -3.27352 2.0922 0
M  V30 1252 H 126.052 -1.80107 4.24687 0
M  V30 1253 H 124.295 -1.62958 4.02029 0
M  V30 1254 H 124.966 -3.18978 4.50508 0
M  V30 1255 H 127.442 -3.26485 2.57966 0
M  V30 1256 H 126.318 -4.56806 3.04334 0
M  V30 1257 H 126.579 -4.21202 1.34317 0
M  V30 1258 N 125.638 -1.25649 -0.95132 0
M  V30 1259 C 126.915 -1.01361 -1.67288 0
M  V30 1260 C 127.295 0.459135 -2.06046 0
M  V30 1261 O 126.643 1.43723 -1.7764 0
M  V30 1262 C 126.853 -1.95256 -2.89268 0
M  V30 1263 C 128.201 -2.23289 -3.61147 0
M  V30 1264 O 129.225 -1.93041 -2.99355 0
M  V30 1265 O 128.084 -2.74741 -4.72419 0
M  V30 1266 H 125.178 -0.38464 -0.732107 0
M  V30 1267 H 127.724 -1.36817 -1.00395 0
M  V30 1268 H 126.496 -2.94685 -2.57442 0
M  V30 1269 H 126.119 -1.60218 -3.6389 0
M  V30 1270 N 127.117 1.15442 -1.07289 0
M  V30 1271 C 128.345 1.90096 -0.81676 0
M  V30 1272 C 128.76 1.7798 0.629966 0
M  V30 1273 O 128.117 1.1313 1.43206 0
M  V30 1274 C 128.168 3.40466 -1.21512 0
M  V30 1275 O 127.889 3.52232 -2.60508 0
M  V30 1276 C 129.39 4.32145 -0.988198 0
M  V30 1277 H 126.61 0.602495 -0.295366 0
M  V30 1278 H 129.154 1.4627 -1.42918 0
M  V30 1279 H 127.309 3.81958 -0.647039 0
M  V30 1280 H 127.723 4.45549 -2.76742 0
M  V30 1281 H 129.197 5.36072 -1.31645 0
M  V30 1282 H 129.674 4.39135 0.0755063 0
M  V30 1283 H 130.28 3.96395 -1.54115 0
M  V30 1284 N 128.595 0.856903 1.32268 0
M  V30 1285 C 129.558 0.308171 2.27119 0
M  V30 1286 C 130.558 -0.533421 1.51695 0
M  V30 1287 O 131.748 -0.344607 1.70757 0
M  V30 1288 C 128.88 -0.563757 3.36206 0
M  V30 1289 H 130.073 1.14535 2.77167 0
M  V30 1290 H 127.626 0.631421 1.42978 0
M  V30 1291 H 128.361 -1.42266 2.91429 0
M  V30 1292 H 128.146 0.0386749 3.92081 0
M  V30 1293 H 129.636 -0.940386 4.06874 0
M  V30 1294 N 130.073 -1.45103 0.615059 0
M  V30 1295 C 131.32 -2.02183 0.113179 0
M  V30 1296 C 131.648 -1.48249 -1.25906 0
M  V30 1297 O 130.903 -0.650265 -1.84581 0
M  V30 1298 C 131.202 -3.57386 0.0318797 0
M  V30 1299 C 130.868 -4.30505 1.34077 0
M  V30 1300 C 129.53 -4.50197 1.69929 0
M  V30 1301 C 131.882 -4.72238 2.20546 0
M  V30 1302 C 129.21 -5.08881 2.91988 0
M  V30 1303 C 131.562 -5.32272 3.41861 0
M  V30 1304 C 130.226 -5.50187 3.77956 0
M  V30 1305 H 129.496 -0.739842 0.0414151 0
M  V30 1306 H 132.143 -1.74073 0.798168 0
M  V30 1307 H 130.448 -3.84817 -0.736409 0
M  V30 1308 H 132.145 -3.99264 -0.372712 0
M  V30 1309 H 128.735 -4.15496 1.05173 0
M  V30 1310 H 132.919 -4.56751 1.94146 0
M  V30 1311 H 128.175 -5.20939 3.2005 0
M  V30 1312 H 132.349 -5.63563 4.09109 0
M  V30 1313 H 129.976 -5.95427 4.72622 0
M  V30 1314 N 131.551 -0.354651 -1.53558 0
M  V30 1315 C 132.828 0.294281 -1.93374 0
M  V30 1316 C 133.208 1.67313 -1.28723 0
M  V30 1317 O 132.556 2.24179 -0.442247 0
M  V30 1318 C 132.766 0.355445 -3.47185 0
M  V30 1319 C 134.114 0.601007 -4.20325 0
M  V30 1320 O 135.138 0.437106 -3.53508 0
M  V30 1321 O 133.997 0.919322 -5.38712 0
M  V30 1322 H 131.091 0.174033 -0.808481 0
M  V30 1323 H 133.637 -0.406638 -1.64756 0
M  V30 1324 H 132.409 -0.611729 -3.86489 0
M  V30 1325 H 132.032 1.1027 -3.82003 0
M  V30 1326 N 133.029 1.57378 -0.0835403 0
M  V30 1327 C 134.254 1.98682 0.594987 0
M  V30 1328 C 134.679 0.961969 1.61641 0
M  V30 1329 O 134.037 -0.0709989 1.81161 0
M  V30 1330 C 134.085 3.38988 1.2296 0
M  V30 1331 O 133.189 3.39208 2.34546 0
M  V30 1332 H 132.53 0.646368 0.152002 0
M  V30 1333 H 135.06 2.03961 -0.161533 0
M  V30 1334 H 135.07 3.76431 1.57366 0
M  V30 1335 H 133.745 4.13107 0.481228 0
M  V30 1336 H 132.322 3.13548 2.01846 0
M  V30 1337 N 134.507 -0.190092 1.56449 0
M  V30 1338 C 135.753 -0.911052 1.81184 0
M  V30 1339 C 136.086 -1.82699 0.658396 0
M  V30 1340 O 135.361 -1.91491 -0.340775 0
M  V30 1341 C 135.644 -1.72297 3.16205 0
M  V30 1342 C 135.497 -0.831419 4.42049 0
M  V30 1343 C 136.816 -2.69454 3.47969 0
M  V30 1344 H 133.935 -0.32977 0.659106 0
M  V30 1345 H 136.577 -0.178169 1.89163 0
M  V30 1346 H 134.727 -2.34778 3.09534 0
M  V30 1347 H 136.399 -0.220929 4.60771 0
M  V30 1348 H 134.642 -0.138406 4.33579 0
M  V30 1349 H 135.313 -1.43461 5.33032 0
M  V30 1350 H 137.789 -2.17104 3.54972 0
M  V30 1351 H 136.665 -3.23342 4.43555 0
M  V30 1352 H 136.926 -3.48744 2.71717 0
M  V30 1353 N 135.985 -1.50799 -0.457987 0
M  V30 1354 C 136.948 -1.7005 -1.53674 0
M  V30 1355 C 137.948 -0.570881 -1.50325 0
M  V30 1356 O 139.138 -0.838126 -1.52712 0
M  V30 1357 C 136.27 -1.73788 -2.93276 0
M  V30 1358 H 137.463 -2.66306 -1.37917 0
M  V30 1359 H 135.016 -1.40477 -0.685271 0
M  V30 1360 H 135.751 -0.792717 -3.14462 0
M  V30 1361 H 135.536 -2.55864 -2.97113 0
M  V30 1362 H 137.026 -1.90591 -3.71571 0
M  V30 1363 N 137.463 0.71206 -1.40597 0
M  V30 1364 C 138.393 1.83889 -1.43899 0
M  V30 1365 C 139.374 1.67442 -0.299504 0
M  V30 1366 O 140.559 1.87421 -0.508624 0
M  V30 1367 C 137.689 3.21877 -1.30431 0
M  V30 1368 C 136.643 3.53002 -2.42019 0
M  V30 1369 C 135.969 4.90172 -2.13626 0
M  V30 1370 C 137.269 3.53643 -3.84362 0
M  V30 1371 H 138.963 1.81383 -2.38203 0
M  V30 1372 H 136.509 0.871237 -1.14654 0
M  V30 1373 H 138.462 4.00404 -1.31357 0
M  V30 1374 H 137.186 3.24968 -0.326049 0
M  V30 1375 H 135.845 2.76818 -2.40349 0
M  V30 1376 H 135.493 4.89869 -1.14182 0
M  V30 1377 H 135.193 5.11962 -2.88389 0
M  V30 1378 H 136.717 5.71028 -2.1624 0
M  V30 1379 H 138.131 4.22203 -3.87837 0
M  V30 1380 H 136.528 3.86961 -4.58673 0
M  V30 1381 H 137.598 2.52954 -4.13693 0
M  V30 1382 N 138.941 1.26152 0.944643 0
M  V30 1383 C 140.169 1.14259 1.72489 0
M  V30 1384 C 140.584 -0.302555 1.8636 0
M  V30 1385 O 139.941 -1.20741 1.36849 0
M  V30 1386 C 139.992 1.80266 3.13347 0
M  V30 1387 O 139.713 3.19133 3.00143 0
M  V30 1388 C 141.214 1.74283 4.07603 0
M  V30 1389 H 138.434 0.398051 0.540181 0
M  V30 1390 H 140.978 1.66706 1.18446 0
M  V30 1391 H 139.133 1.31766 3.64303 0
M  V30 1392 H 139.547 3.51744 3.89071 0
M  V30 1393 H 141.021 2.25111 5.04013 0
M  V30 1394 H 141.498 0.708631 4.33446 0
M  V30 1395 H 142.104 2.22319 3.62567 0
M  V30 1396 N 140.419 -1.14872 1.07899 0
M  V30 1397 C 141.649 -1.89386 0.825631 0
M  V30 1398 C 142.057 -1.78565 -0.625406 0
M  V30 1399 O 141.4 -1.13918 -1.44113 0
M  V30 1400 C 141.462 -3.40206 1.16191 0
M  V30 1401 C 141.126 -3.74812 2.61467 0
M  V30 1402 C 142.123 -3.75367 3.59716 0
M  V30 1403 C 139.808 -4.0495 2.97189 0
M  V30 1404 C 141.802 -4.05574 4.9172 0
M  V30 1405 C 139.489 -4.34821 4.29388 0
M  V30 1406 C 140.487 -4.35116 5.26463 0
M  V30 1407 O 140.175 -4.64267 6.56286 0
M  V30 1408 H 139.907 -0.606894 0.297751 0
M  V30 1409 H 142.461 -1.46438 1.44031 0
M  V30 1410 H 140.691 -3.8358 0.490214 0
M  V30 1411 H 142.38 -3.96018 0.890193 0
M  V30 1412 H 143.146 -3.52176 3.33462 0
M  V30 1413 H 139.025 -4.03876 2.22273 0
M  V30 1414 H 142.569 -4.05719 5.67484 0
M  V30 1415 H 138.466 -4.5748 4.55392 0
M  V30 1416 H 139.234 -4.82007 6.61522 0
M  V30 1417 N 141.898 -0.863906 -1.31812 0
M  V30 1418 C 143.175 -0.39275 -1.91616 0
M  V30 1419 C 143.555 1.12461 -1.7865 0
M  V30 1420 O 142.903 1.95045 -1.19037 0
M  V30 1421 C 143.113 -0.867385 -3.38049 0
M  V30 1422 C 144.461 -0.889966 -4.15168 0
M  V30 1423 O 145.485 -0.812635 -3.46806 0
M  V30 1424 O 144.344 -1.00079 -5.37258 0
M  V30 1425 H 141.438 -0.116358 -0.818773 0
M  V30 1426 H 143.984 -0.951418 -1.40521 0
M  V30 1427 H 142.756 -1.91081 -3.41473 0
M  V30 1428 H 142.379 -0.286687 -3.96565 0
M  V30 1429 N 143.376 1.44774 -0.622745 0
M  V30 1430 C 144.601 2.06999 -0.128968 0
M  V30 1431 C 145.026 1.4617 1.1839 0
M  V30 1432 O 144.384 0.560007 1.72434 0
M  V30 1433 C 144.432 3.60595 -0.0188351 0
M  V30 1434 O 143.536 3.99398 1.02739 0
M  V30 1435 H 142.877 0.659047 -0.0809544 0
M  V30 1436 H 145.407 1.85784 -0.85705 0
M  V30 1437 H 145.417 4.07627 0.174476 0
M  V30 1438 H 144.092 4.04252 -0.977384 0
M  V30 1439 H 142.669 3.64011 0.809326 0
M  V30 1440 N 144.854 0.36279 1.53368 0
M  V30 1441 C 145.764 -0.492994 2.29362 0
M  V30 1442 C 146.78 -1.09507 1.35219 0
M  V30 1443 O 147.956 -1.10662 1.68273 0
M  V30 1444 C 145.021 -1.61855 3.066 0
M  V30 1445 C 144.082 -1.04429 4.16405 0
M  V30 1446 C 143.315 -2.11621 4.89951 0
M  V30 1447 O 143.538 -3.32684 4.63333 0
M  V30 1448 O 142.472 -1.74835 5.75948 0
M  V30 1449 H 146.298 0.125331 3.03441 0
M  V30 1450 H 143.883 0.127253 1.48857 0
M  V30 1451 H 145.765 -2.27302 3.54841 0
M  V30 1452 H 144.44 -2.22233 2.3536 0
M  V30 1453 H 143.347 -0.353819 3.72423 0
M  V30 1454 H 144.68 -0.485113 4.89804 0
M  V30 1455 N 146.332 -1.57332 0.0918853 0
M  V30 1456 C 147.265 -2.09499 -0.904735 0
M  V30 1457 C 148.243 -1.00479 -1.27839 0
M  V30 1458 O 149.427 -1.27954 -1.38419 0
M  V30 1459 C 146.554 -2.56931 -2.2069 0
M  V30 1460 C 145.6 -3.77579 -1.98334 0
M  V30 1461 S 146.433 -5.21317 -1.22428 0
M  V30 1462 C 147.589 -5.72097 -2.53882 0
M  V30 1463 H 147.822 -2.93705 -0.460922 0
M  V30 1464 H 145.355 -1.53923 -0.121332 0
M  V30 1465 H 147.313 -2.84917 -2.95521 0
M  V30 1466 H 145.974 -1.72956 -2.62192 0
M  V30 1467 H 145.167 -4.08824 -2.94752 0
M  V30 1468 H 144.769 -3.5007 -1.31633 0
M  V30 1469 H 147.061 -5.80168 -3.49874 0
M  V30 1470 H 148.004 -6.70654 -2.27219 0
M  V30 1471 H 148.412 -5.00012 -2.62007 0
M  V30 1472 N 147.81 0.181792 -1.56548 0
M  V30 1473 C 149.058 0.89832 -1.81038 0
M  V30 1474 C 149.379 1.83232 -0.667164 0
M  V30 1475 O 148.649 1.93372 0.313673 0
M  V30 1476 H 147.229 0.33471 -0.667816 0
M  V30 1477 H 149.891 0.184116 -1.94028 0
M  V30 1478 H 148.987 1.4815 -2.74696 0
M  V30 1479 N 149.288 1.51039 0.449983 0
M  V30 1480 C 150.518 1.66627 1.22143 0
M  V30 1481 C 150.926 0.357776 1.85786 0
M  V30 1482 O 150.269 -0.672424 1.70951 0
M  V30 1483 C 150.331 2.71562 2.35573 0
M  V30 1484 C 149.995 4.14526 1.92399 0
M  V30 1485 C 150.992 4.99717 1.43453 0
M  V30 1486 C 148.677 4.60559 2.00475 0
M  V30 1487 C 150.671 6.28998 1.03155 0
M  V30 1488 C 148.358 5.8984 1.59788 0
M  V30 1489 C 149.356 6.73886 1.11208 0
M  V30 1490 O 149.044 8.0075 0.710935 0
M  V30 1491 H 148.776 0.562635 0.374724 0
M  V30 1492 H 151.33 1.98146 0.541036 0
M  V30 1493 H 149.56 2.3533 3.06849 0
M  V30 1494 H 151.249 2.76156 2.97478 0
M  V30 1495 H 152.015 4.65361 1.36618 0
M  V30 1496 H 147.894 3.95273 2.37235 0
M  V30 1497 H 151.438 6.9455 0.651663 0
M  V30 1498 H 147.335 6.23713 1.66289 0
M  V30 1499 H 148.103 8.142 0.837913 0
M  V30 1500 N 150.766 -0.704594 1.40972 0
M  V30 1501 C 151.676 -1.84856 1.44448 0
M  V30 1502 C 152.692 -1.70726 0.335961 0
M  V30 1503 O 153.868 -1.92799 0.582276 0
M  V30 1504 C 150.933 -3.20758 1.31587 0
M  V30 1505 C 149.994 -3.47063 2.52677 0
M  V30 1506 C 149.227 -4.76481 2.4042 0
M  V30 1507 O 149.45 -5.52341 1.42391 0
M  V30 1508 O 148.384 -5.03367 3.30007 0
M  V30 1509 H 152.21 -1.8488 2.40942 0
M  V30 1510 H 149.795 -0.85647 1.22413 0
M  V30 1511 H 151.677 -4.01913 1.26665 0
M  V30 1512 H 150.352 -3.21438 0.382049 0
M  V30 1513 H 149.259 -2.65873 2.63177 0
M  V30 1514 H 150.592 -3.5119 3.44858 0
M  V30 1515 N 152.244 -1.26651 -0.937939 0
M  V30 1516 C 153.207 -1.08546 -2.01867 0
M  V30 1517 C 154.207 -0.0327327 -1.60767 0
M  V30 1518 O 155.397 -0.276427 -1.71993 0
M  V30 1519 C 152.529 -0.651711 -3.34613 0
M  V30 1520 H 153.722 -2.04502 -2.1936 0
M  V30 1521 H 151.275 -1.09294 -1.11734 0
M  V30 1522 H 152.01 0.309696 -3.22818 0
M  V30 1523 H 151.795 -1.41189 -3.65798 0
M  V30 1524 H 153.285 -0.546973 -4.14002 0
M  V30 1525 N 153.722 1.14298 -1.08507 0
M  V30 1526 C 154.947 1.8976 -0.837001 0
M  V30 1527 C 155.372 1.78097 0.605228 0
M  V30 1528 O 154.73 1.12188 1.4242 0
M  V30 1529 C 154.778 3.37685 -1.26495 0
M  V30 1530 O 153.882 4.10281 -0.417514 0
M  V30 1531 H 153.223 0.590365 -0.303917 0
M  V30 1532 H 155.753 1.44672 -1.44676 0
M  V30 1533 H 155.763 3.88501 -1.24625 0
M  V30 1534 H 154.438 3.45492 -2.31534 0
M  V30 1535 H 153.015 3.69536 -0.499722 0
M  V30 1536 N 155.201 0.870884 1.31352 0
M  V30 1537 C 156.426 0.495957 2.01383 0
M  V30 1538 C 156.851 -0.904324 1.64935 0
M  V30 1539 O 156.209 -1.59687 0.858466 0
M  V30 1540 C 156.257 0.661433 3.54482 0
M  V30 1541 O 155.361 -0.298851 4.11316 0
M  V30 1542 H 154.702 0.197158 0.634054 0
M  V30 1543 H 157.232 1.17455 1.67527 0
M  V30 1544 H 157.242 0.555072 4.04207 0
M  V30 1545 H 155.917 1.68246 3.8035 0
M  V30 1546 H 154.494 -0.147368 3.72609 0
M  V30 1547 N 156.679 -1.44442 0.630414 0
M  V30 1548 C 157.926 -2.02052 0.134617 0
M  V30 1549 C 158.254 -1.49576 -1.24327 0
M  V30 1550 O 157.509 -0.669806 -1.83881 0
M  V30 1551 C 157.808 -3.57332 0.0697835 0
M  V30 1552 C 157.474 -4.29058 1.38635 0
M  V30 1553 C 156.136 -4.4837 1.74694 0
M  V30 1554 C 158.488 -4.69872 2.25543 0
M  V30 1555 C 155.816 -5.05756 2.97369 0
M  V30 1556 C 158.168 -5.28616 3.47487 0
M  V30 1557 C 156.832 -5.46147 3.8377 0
M  V30 1558 H 156.102 -0.739361 0.0492598 0
M  V30 1559 H 158.749 -1.73217 0.816586 0
M  V30 1560 H 157.054 -3.85577 -0.695553 0
M  V30 1561 H 158.751 -3.99637 -0.330344 0
M  V30 1562 H 155.341 -4.14357 1.09574 0
M  V30 1563 H 159.525 -4.54666 1.98979 0
M  V30 1564 H 154.781 -5.17515 3.25558 0
M  V30 1565 H 158.955 -5.59192 4.15063 0
M  V30 1566 H 156.582 -5.9038 4.7891 0
M  V30 1567 N 158.157 -0.370918 -1.53173 0
M  V30 1568 C 159.405 0.216673 -2.00935 0
M  V30 1569 C 159.726 1.48845 -1.25977 0
M  V30 1570 O 158.996 1.92286 -0.374551 0
M  V30 1571 H 157.576 0.0830565 -0.742368 0
M  V30 1572 H 160.238 -0.49838 -1.8842 0
M  V30 1573 H 159.334 0.439893 -3.08984 0
M  V30 1574 N 159.635 1.57281 -0.100228 0
M  V30 1575 C 160.912 1.86014 0.604812 0
M  V30 1576 C 161.292 0.998025 1.86018 0
M  V30 1577 O 160.64 0.0718184 2.28387 0
M  V30 1578 C 160.85 3.36784 0.915278 0
M  V30 1579 C 162.198 4.04957 1.27651 0
M  V30 1580 O 163.222 3.41695 1.00613 0
M  V30 1581 O 162.081 5.16593 1.7831 0
M  V30 1582 H 159.175 0.76942 0.303185 0
M  V30 1583 H 161.721 1.69176 -0.133313 0
M  V30 1584 H 160.493 3.91292 0.0248896 0
M  V30 1585 H 160.116 3.58987 1.70921 0
M  V30 1586 N 161.113 -0.173488 1.56642 0
M  V30 1587 C 162.076 -1.19859 1.95362 0
M  V30 1588 C 163.076 -1.37296 0.83704 0
M  V30 1589 O 164.266 -1.34739 1.10413 0
M  V30 1590 C 161.398 -2.56405 2.24654 0
M  V30 1591 H 162.591 -0.867062 2.87092 0
M  V30 1592 H 160.144 -0.415853 1.50666 0
M  V30 1593 H 160.879 -2.94576 1.35631 0
M  V30 1594 H 160.664 -2.45115 3.06041 0
M  V30 1595 H 162.154 -3.30287 2.5554 0
M  V30 1596 N 162.591 -1.51276 -0.441967 0
M  V30 1597 C 163.523 -1.68444 -1.55433 0
M  V30 1598 C 164.536 -0.565187 -1.52674 0
M  V30 1599 O 165.725 -0.839356 -1.57534 0
M  V30 1600 C 162.825 -1.67966 -2.94348 0
M  V30 1601 C 161.998 -2.964 -3.21661 0
M  V30 1602 C 161.057 -2.88171 -4.40277 0
M  V30 1603 O 160.083 -3.62119 -4.39157 0
M  V30 1604 N 161.285 -2.03706 -5.43584 0
M  V30 1605 H 164.05 -2.644 -1.41112 0
M  V30 1606 H 161.611 -1.49104 -0.630838 0
M  V30 1607 H 163.603 -1.60035 -3.71713 0
M  V30 1608 H 162.173 -0.796225 -3.0229 0
M  V30 1609 H 161.393 -3.18234 -2.32638 0
M  V30 1610 H 162.681 -3.81427 -3.36736 0
M  V30 1611 H 162.079 -1.42995 -5.47329 0
M  V30 1612 H 160.636 -2.01658 -6.1982 0
M  V30 1613 N 164.069 0.697108 -1.41344 0
M  V30 1614 C 165.294 1.49096 -1.44171 0
M  V30 1615 C 165.719 1.88038 -0.0481568 0
M  V30 1616 O 165.077 1.54525 0.948243 0
M  V30 1617 C 165.125 2.73088 -2.3549 0
M  V30 1618 O 164.229 3.70514 -1.81088 0
M  V30 1619 H 163.57 0.448801 -0.489361 0
M  V30 1620 H 166.1 0.856992 -1.85787 0
M  V30 1621 H 166.11 3.21413 -2.51312 0
M  V30 1622 H 164.785 2.44081 -3.36745 0
M  V30 1623 H 163.362 3.29441 -1.74708 0
M  V30 1624 N 165.547 1.27147 0.931209 0
M  V30 1625 C 166.772 1.16191 1.71797 0
M  V30 1626 C 167.197 -0.278004 1.86034 0
M  V30 1627 O 166.555 -1.20137 1.35782 0
M  V30 1628 C 166.603 1.84673 3.09723 0
M  V30 1629 O 165.707 1.14231 3.96264 0
M  V30 1630 H 165.048 0.404303 0.526721 0
M  V30 1631 H 167.578 1.68152 1.1656 0
M  V30 1632 H 167.588 1.91893 3.60057 0
M  V30 1633 H 166.263 2.89421 2.98677 0
M  V30 1634 H 164.84 1.15056 3.54706 0
M  V30 1635 N 167.025 -1.13721 1.09112 0
M  V30 1636 C 168.272 -1.84924 0.825192 0
M  V30 1637 C 168.6 -1.83347 -0.649151 0
M  V30 1638 O 167.855 -1.26449 -1.49362 0
M  V30 1639 C 168.154 -3.32861 1.30146 0
M  V30 1640 C 167.82 -3.54621 2.78486 0
M  V30 1641 C 166.482 -3.60268 3.18999 0
M  V30 1642 C 168.834 -3.62855 3.74146 0
M  V30 1643 C 166.162 -3.71679 4.53951 0
M  V30 1644 C 168.514 -3.75793 5.08883 0
M  V30 1645 C 167.178 -3.79692 5.4899 0
M  V30 1646 H 166.448 -0.676684 0.301959 0
M  V30 1647 H 169.095 -1.3428 1.36533 0
M  V30 1648 H 167.4 -3.85835 0.681064 0
M  V30 1649 H 169.097 -3.86395 1.07236 0
M  V30 1650 H 165.687 -3.50879 2.46134 0
M  V30 1651 H 169.871 -3.57775 3.43963 0
M  V30 1652 H 165.127 -3.72963 4.84467 0
M  V30 1653 H 169.301 -3.81107 5.82864 0
M  V30 1654 H 166.928 -3.88287 6.53558 0
M  V30 1655 N 168.503 -0.877838 -1.30888 0
M  V30 1656 C 169.75 -0.492696 -1.96415 0
M  V30 1657 C 170.078 0.956671 -1.69346 0
M  V30 1658 O 169.333 1.68993 -0.986913 0
M  V30 1659 C 169.632 -0.705748 -3.50363 0
M  V30 1660 C 169.298 -2.1291 -3.97467 0
M  V30 1661 C 167.96 -2.51834 -4.1004 0
M  V30 1662 C 170.312 -3.05702 -4.22132 0
M  V30 1663 C 167.64 -3.82775 -4.44635 0
M  V30 1664 C 169.992 -4.36166 -4.58194 0
M  V30 1665 C 168.656 -4.74993 -4.68975 0
M  V30 1666 H 167.926 -0.18029 -0.718733 0
M  V30 1667 H 170.573 -1.11233 -1.55883 0
M  V30 1668 H 168.878 -0.00303058 -3.918 0
M  V30 1669 H 170.575 -0.387456 -3.99124 0
M  V30 1670 H 167.165 -1.81694 -3.88182 0
M  V30 1671 H 171.349 -2.76853 -4.11906 0
M  V30 1672 H 166.605 -4.12609 -4.51181 0
M  V30 1673 H 170.779 -5.08111 -4.76231 0
M  V30 1674 H 168.406 -5.76495 -4.95537 0
M  V30 1675 N 169.982 1.44106 -0.638065 0
M  V30 1676 C 170.945 2.29138 0.0531013 0
M  V30 1677 C 171.945 1.41409 0.765506 0
M  V30 1678 O 173.135 1.63206 0.609046 0
M  V30 1679 C 170.267 3.23144 1.08584 0
M  V30 1680 H 171.46 2.91739 -0.694883 0
M  V30 1681 H 169.013 1.51134 -0.398538 0
M  V30 1682 H 169.748 2.65408 1.86357 0
M  V30 1683 H 169.533 3.87804 0.578852 0
M  V30 1684 H 171.023 3.87004 1.56899 0
M  V30 1685 N 171.46 0.379036 1.52974 0
M  V30 1686 C 172.69 -0.20649 2.05566 0
M  V30 1687 C 173.098 -1.41906 1.25137 0
M  V30 1688 O 172.441 -1.81421 0.288464 0
M  V30 1689 C 172.503 -0.651086 3.53555 0
M  V30 1690 C 172.167 0.446626 4.54812 0
M  V30 1691 C 173.164 1.30079 5.03364 0
M  V30 1692 C 170.849 0.610719 4.98573 0
M  V30 1693 C 172.843 2.30426 5.94292 0
M  V30 1694 C 170.53 1.61754 5.89304 0
M  V30 1695 C 171.528 2.46274 6.37054 0
M  V30 1696 O 171.216 3.45237 7.25994 0
M  V30 1697 H 170.948 -0.0372381 0.674974 0
M  V30 1698 H 173.502 0.539718 1.98182 0
M  V30 1699 H 171.732 -1.44911 3.58522 0
M  V30 1700 H 173.421 -1.16112 3.88938 0
M  V30 1701 H 174.187 1.18527 4.70294 0
M  V30 1702 H 170.066 -0.0374044 4.60985 0
M  V30 1703 H 173.61 2.96432 6.31485 0
M  V30 1704 H 169.507 1.73348 6.21788 0
M  V30 1705 H 170.275 3.41124 7.44027 0
M  V30 1706 N 172.938 -1.57226 0.108567 0
M  V30 1707 C 173.886 -2.16002 -0.862885 0
M  V30 1708 C 174.88 -1.10644 -1.28274 0
M  V30 1709 O 176.086 -1.28966 -1.2557 0
M  V30 1710 H 172.461 -0.691148 -0.296342 0
M  V30 1711 H 174.432 -2.96427 -0.342575 0
M  V30 1712 C 173.181 -2.76576 -2.10716 0
M  V30 1713 H 172.504 -3.5734 -1.793 0
M  V30 1714 H 173.944 -3.21253 -2.76717 0
M  V30 1715 C 172.403 -1.73137 -2.89007 0
M  V30 1716 O 172.933 -1.17842 -3.84026 0
M  V30 1717 N 171.139 -1.43317 -2.52801 0
M  V30 1718 H 170.686 -1.88473 -1.75601 0
M  V30 1719 H 170.644 -0.743485 -3.05483 0
M  V30 1720 N 174.416 0.165178 -1.56732 0
M  V30 1721 C 175.641 0.900253 -1.86843 0
M  V30 1722 C 176.066 1.74766 -0.695596 0
M  V30 1723 O 175.424 1.77786 0.35522 0
M  V30 1724 C 175.472 1.74777 -3.15413 0
M  V30 1725 O 174.576 2.85007 -2.98068 0
M  V30 1726 H 173.917 0.251832 -0.614391 0
M  V30 1727 H 176.447 0.161468 -2.03962 0
M  V30 1728 H 176.457 2.14646 -3.46974 0
M  V30 1729 H 175.132 1.12537 -4.00385 0
M  V30 1730 H 173.709 2.48676 -2.77875 0
M  V30 1731 N 175.894 1.51508 0.433938 0
M  V30 1732 C 176.841 1.73068 1.52696 0
M  V30 1733 C 177.811 0.572441 1.55924 0
M  V30 1734 O 178.996 0.807253 1.72882 0
M  V30 1735 C 176.136 1.86474 2.90381 0
M  V30 1736 C 175.249 3.14037 2.96656 0
M  V30 1737 C 174.384 3.18019 4.25485 0
M  V30 1738 C 173.423 4.39882 4.2564 0
M  V30 1739 N 172.56 4.41394 5.45999 0
M  V30 1740 H 177.4 2.66366 1.33615 0
M  V30 1741 H 174.937 1.32008 0.649018 0
M  V30 1742 H 176.895 1.92229 3.70275 0
M  V30 1743 H 175.525 0.965809 3.08013 0
M  V30 1744 H 174.577 3.17575 2.09404 0
M  V30 1745 H 175.889 4.0394 2.92633 0
M  V30 1746 H 175.043 3.22708 5.13755 0
M  V30 1747 H 173.782 2.2601 4.3217 0
M  V30 1748 H 172.787 4.35366 3.35763 0
M  V30 1749 H 174.012 5.33159 4.20617 0
M  V30 1750 H 171.958 3.52258 5.53399 0
M  V30 1751 H 171.875 5.25111 5.4387 0
M  V30 1752 H 173.143 4.50281 6.36292 0
M  V30 1753 N 177.372 -0.689602 1.41712 0
M  V30 1754 C 178.602 -1.47613 1.44548 0
M  V30 1755 C 179.01 -1.89132 0.0509034 0
M  V30 1756 O 178.353 -1.57741 -0.94146 0
M  V30 1757 C 178.415 -2.76596 2.2964 0
M  V30 1758 C 178.079 -2.57245 3.77722 0
M  V30 1759 C 179.076 -2.22804 4.69739 0
M  V30 1760 C 176.761 -2.727 4.2183 0
M  V30 1761 C 178.755 -2.04064 6.03851 0
M  V30 1762 C 176.442 -2.53576 5.56006 0
M  V30 1763 C 177.44 -2.1931 6.46832 0
M  V30 1764 O 177.128 -2.00359 7.78532 0
M  V30 1765 H 176.86 -0.461227 0.494212 0
M  V30 1766 H 179.414 -0.856045 1.86711 0
M  V30 1767 H 177.644 -3.41033 1.82301 0
M  V30 1768 H 179.333 -3.38424 2.24107 0
M  V30 1769 H 180.099 -2.10473 4.36951 0
M  V30 1770 H 175.978 -2.98353 3.51435 0
M  V30 1771 H 179.522 -1.77241 6.74708 0
M  V30 1772 H 175.419 -2.65499 5.88371 0
M  V30 1773 H 176.187 -2.15075 7.89737 0
M  V30 1774 N 178.85 -1.27639 -0.924453 0
M  V30 1775 C 180.127 -1.04887 -1.651 0
M  V30 1776 C 180.507 0.415327 -2.06974 0
M  V30 1777 O 179.855 1.39923 -1.80648 0
M  V30 1778 C 180.065 -2.01348 -2.85061 0
M  V30 1779 C 181.413 -2.30899 -3.56329 0
M  V30 1780 O 182.437 -1.99348 -2.95193 0
M  V30 1781 O 181.296 -2.84699 -4.66485 0
M  V30 1782 H 178.39 -0.400083 -0.723784 0
M  V30 1783 H 180.936 -1.38916 -0.974703 0
M  V30 1784 H 179.708 -3.0008 -2.51133 0
M  V30 1785 H 179.331 -1.679 -3.6041 0
M  V30 1786 N 180.328 1.1314 -1.09713 0
M  V30 1787 C 181.291 2.16831 -0.742751 0
M  V30 1788 C 182.291 1.59159 0.229129 0
M  V30 1789 O 183.481 1.74199 0.00693237 0
M  V30 1790 C 180.613 3.40756 -0.0989168 0
M  V30 1791 H 181.806 2.49695 -1.66109 0
M  V30 1792 H 179.359 1.2802 -0.896699 0
M  V30 1793 H 180.094 3.13485 0.830514 0
M  V30 1794 H 179.879 3.83888 -0.798265 0
M  V30 1795 H 181.369 4.17386 0.133524 0
M  V30 1796 N 181.806 0.884767 1.30421 0
M  V30 1797 C 183.031 0.517288 2.00845 0
M  V30 1798 C 183.456 -0.886779 1.65885 0
M  V30 1799 O 182.814 -1.58768 0.875354 0
M  V30 1800 C 182.862 0.698994 3.5376 0
M  V30 1801 O 181.966 -0.255208 4.1161 0
M  V30 1802 H 181.307 0.203872 0.631927 0
M  V30 1803 H 183.837 1.19225 1.66272 0
M  V30 1804 H 183.847 0.597912 4.03595 0
M  V30 1805 H 182.522 1.72271 3.78544 0
M  V30 1806 H 181.099 -0.10784 3.72744 0
M  V30 1807 N 183.284 -1.43765 0.645699 0
M  V30 1808 C 184.532 -2.01499 0.155731 0
M  V30 1809 C 184.853 -1.51151 -1.232 0
M  V30 1810 O 184.123 -0.721044 -1.82148 0
M  V30 1811 H 182.703 -0.745003 0.0545817 0
M  V30 1812 H 185.365 -1.76075 0.835677 0
M  V30 1813 H 184.461 -3.1181 0.134577 0
M  V30 1814 N 184.763 -0.387143 -1.52771 0
M  V30 1815 C 185.726 0.436939 -2.24997 0
M  V30 1816 C 186.726 0.991991 -1.26555 0
M  V30 1817 O 187.916 0.874335 -1.50669 0
M  V30 1818 C 185.048 1.61281 -3.00335 0
M  V30 1819 H 186.241 -0.195365 -2.99263 0
M  V30 1820 H 183.794 -0.139218 -1.55679 0
M  V30 1821 H 184.529 2.2826 -2.30364 0
M  V30 1822 H 184.314 1.22154 -3.72587 0
M  V30 1823 H 185.804 2.19629 -3.5518 0
M  V30 1824 N 186.241 1.57166 -0.116904 0
M  V30 1825 C 187.171 2.18222 0.830759 0
M  V30 1826 C 188.152 1.12167 1.27877 0
M  V30 1827 O 189.337 1.40394 1.34176 0
M  V30 1828 C 186.467 2.77996 2.08172 0
M  V30 1829 C 185.421 3.89614 1.77157 0
M  V30 1830 C 184.747 4.36187 3.09265 0
M  V30 1831 C 186.047 5.1181 1.04151 0
M  V30 1832 H 187.741 2.97664 0.321992 0
M  V30 1833 H 185.287 1.4318 0.153434 0
M  V30 1834 H 187.24 3.19366 2.74924 0
M  V30 1835 H 185.964 1.9584 2.6137 0
M  V30 1836 H 184.623 3.48816 1.12796 0
M  V30 1837 H 184.271 3.50893 3.60393 0
M  V30 1838 H 183.971 5.11455 2.89288 0
M  V30 1839 H 185.495 4.80207 3.77139 0
M  V30 1840 H 186.909 5.50214 1.61052 0
M  V30 1841 H 185.306 5.92648 0.942762 0
M  V30 1842 H 186.376 4.84892 0.0279022 0
M  V30 1843 N 187.719 -0.156864 1.56817 0
M  V30 1844 C 188.996 -0.899244 1.73704 0
M  V30 1845 C 189.376 -1.99771 0.682254 0
M  V30 1846 O 188.724 -2.26515 -0.300522 0
M  V30 1847 C 188.934 -1.45075 3.17418 0
M  V30 1848 C 190.282 -1.91802 3.7881 0
M  V30 1849 O 191.306 -1.54838 3.20786 0
M  V30 1850 O 190.165 -2.5994 4.80722 0
M  V30 1851 H 187.259 -0.424267 0.709878 0
M  V30 1852 H 189.805 -0.143561 1.69092 0
M  V30 1853 H 188.577 -0.660846 3.85679 0
M  V30 1854 H 188.2 -2.27021 3.26416 0
M  V30 1855 N 189.197 -1.51736 -0.425897 0
M  V30 1856 C 190.145 -1.74464 -1.53834 0
M  V30 1857 C 191.139 -0.611241 -1.57988 0
M  V30 1858 O 192.345 -0.792899 -1.61596 0
M  V30 1859 H 188.72 -0.551437 -0.511293 0
M  V30 1860 H 190.691 -2.67694 -1.31843 0
M  V30 1861 C 189.44 -1.8972 -2.91379 0
M  V30 1862 H 188.763 -2.76344 -2.88919 0
M  V30 1863 H 190.203 -2.09629 -3.68553 0
M  V30 1864 C 188.662 -0.65992 -3.30374 0
M  V30 1865 O 189.192 0.180083 -4.01296 0
M  V30 1866 N 187.398 -0.500677 -2.86254 0
M  V30 1867 H 186.945 -1.18532 -2.28709 0
M  V30 1868 H 186.903 0.325903 -3.12706 0
M  V30 1869 N 190.675 0.682077 -1.42076 0
M  V30 1870 C 191.905 1.46844 -1.45329 0
M  V30 1871 C 192.313 1.89102 -0.0609328 0
M  V30 1872 O 191.656 1.58238 0.933082 0
M  V30 1873 C 191.718 2.75375 -2.31104 0
M  V30 1874 C 191.382 2.55238 -3.79081 0
M  V30 1875 C 192.379 2.20309 -4.70914 0
M  V30 1876 C 190.064 2.70459 -4.2327 0
M  V30 1877 C 192.058 2.00859 -6.04925 0
M  V30 1878 C 189.745 2.50624 -5.57343 0
M  V30 1879 C 190.743 2.15876 -6.47986 0
M  V30 1880 O 190.431 1.96227 -7.79583 0
M  V30 1881 H 190.163 0.4586 -0.496651 0
M  V30 1882 H 192.717 0.846131 -1.87162 0
M  V30 1883 H 190.947 3.40061 -1.84107 0
M  V30 1884 H 192.636 3.37231 -2.25898 0
M  V30 1885 H 193.402 2.08153 -4.38061 0
M  V30 1886 H 189.281 2.96485 -3.53012 0
M  V30 1887 H 192.825 1.7366 -6.75639 0
M  V30 1888 H 188.722 2.62375 -5.89771 0
M  V30 1889 H 189.49 2.10883 -7.90867 0
M  V30 1890 N 192.153 1.28127 0.917671 0
M  V30 1891 C 193.101 1.11569 2.04096 0
M  V30 1892 C 194.095 0.0360242 1.69362 0
M  V30 1893 O 195.301 0.194501 1.78946 0
M  V30 1894 H 191.676 0.344097 0.668656 0
M  V30 1895 H 193.647 2.06711 2.15205 0
M  V30 1896 C 192.396 0.790197 3.38602 0
M  V30 1897 H 191.719 1.61293 3.6582 0
M  V30 1898 H 193.159 0.714271 4.1794 0
M  V30 1899 C 191.618 -0.505897 3.3308 0
M  V30 1900 O 192.148 -1.53736 3.71117 0
M  V30 1901 N 190.354 -0.505193 2.86175 0
M  V30 1902 H 189.901 0.334621 2.55417 0
M  V30 1903 H 189.859 -1.37243 2.82863 0
M  V30 1904 N 193.631 -1.12557 1.10312 0
M  V30 1905 C 194.879 -1.83675 0.843091 0
M  V30 1906 C 195.2 -1.84435 -0.633131 0
M  V30 1907 O 194.47 -1.30657 -1.45964 0
M  V30 1908 H 193.05 -0.680138 0.308904 0
M  V30 1909 H 195.712 -1.36301 1.39313 0
M  V30 1910 H 194.808 -2.87908 1.2048 0
M  V30 1911 N 195.109 -0.891671 -1.2995 0
M  V30 1912 C 196.358 -0.509521 -1.95158 0
M  V30 1913 C 196.671 0.947388 -1.71125 0
M  V30 1914 O 197.877 1.43669 -2.30372 0
M  V30 1915 C 196.333 -0.860315 -3.49466 0
M  V30 1916 C 195.941 -2.33545 -3.8231 0
M  V30 1917 C 197.685 -0.547687 -4.20952 0
M  V30 1918 C 195.592 -2.62752 -5.29826 0
M  V30 1919 H 194.522 -0.18682 -0.730489 0
M  V30 1920 H 197.173 -1.08756 -1.47798 0
M  V30 1921 H 195.555 -0.211285 -3.95436 0
M  V30 1922 H 196.729 -3.02936 -3.47227 0
M  V30 1923 H 195.044 -2.61629 -3.23944 0
M  V30 1924 H 197.641 -0.742854 -5.29515 0
M  V30 1925 H 197.984 0.51332 -4.13123 0
M  V30 1926 H 198.517 -1.1542 -3.80688 0
M  V30 1927 H 195.256 -3.6762 -5.42712 0
M  V30 1928 H 194.776 -1.97977 -5.66185 0
M  V30 1929 H 196.455 -2.48601 -5.97333 0
M  V30 1930 N 196.587 1.43421 -0.653314 0
M  V30 1931 C 197.55 2.29182 0.0287951 0
M  V30 1932 C 198.55 1.42213 0.750465 0
M  V30 1933 O 199.74 1.63843 0.591701 0
M  V30 1934 C 196.872 3.24278 1.05151 0
M  V30 1935 H 198.065 2.90985 -0.725786 0
M  V30 1936 H 195.618 1.50702 -0.414545 0
M  V30 1937 H 196.353 2.6737 1.83532 0
M  V30 1938 H 196.138 3.88396 0.537687 0
M  V30 1939 H 197.628 3.88647 1.52786 0
M  V30 1940 N 198.065 0.39524 1.52563 0
M  V30 1941 C 199.311 -0.185318 2.01952 0
M  V30 1942 C 199.644 -1.45964 1.28095 0
M  V30 1943 O 198.919 -1.90689 0.38315 0
M  V30 1944 C 199.202 -0.447193 3.57312 0
M  V30 1945 C 199.055 0.842828 4.41833 0
M  V30 1946 C 200.374 -1.23529 4.22408 0
M  V30 1947 H 197.493 -0.0658788 0.73405 0
M  V30 1948 H 200.135 0.525975 1.82575 0
M  V30 1949 H 198.285 -1.05312 3.73954 0
M  V30 1950 H 199.957 1.4795 4.36931 0
M  V30 1951 H 198.2 1.45686 4.08605 0
M  V30 1952 H 198.871 0.614165 5.48573 0
M  V30 1953 H 201.347 -0.722445 4.0978 0
M  V30 1954 H 200.223 -1.38727 5.3108 0
M  V30 1955 H 200.484 -2.25213 3.80436 0
M  V30 1956 N 199.544 -1.57102 0.125237 0
M  V30 1957 C 200.772 -1.99761 -0.538797 0
M  V30 1958 C 201.187 -1.00503 -1.59827 0
M  V30 1959 O 200.544 0.00119474 -1.825 0
M  V30 1960 C 200.595 -3.42408 -1.15927 0
M  V30 1961 O 200.316 -4.37869 -0.142143 0
M  V30 1962 C 201.817 -4.00232 -1.90602 0
M  V30 1963 H 199.037 -0.655772 -0.14214 0
M  V30 1964 H 201.581 -2.03383 0.213413 0
M  V30 1965 H 199.736 -3.39706 -1.86223 0
M  V30 1966 H 200.15 -5.21128 -0.593775 0
M  V30 1967 H 201.624 -5.02105 -2.29335 0
M  V30 1968 H 202.101 -3.39721 -2.78363 0
M  V30 1969 H 202.707 -4.06499 -1.25055 0
M  V30 1970 N 201.022 0.148545 -1.56898 0
M  V30 1971 C 202.252 0.875118 -1.8715 0
M  V30 1972 C 202.66 1.75322 -0.711262 0
M  V30 1973 O 202.003 1.80745 0.328151 0
M  V30 1974 C 202.065 1.7844 -3.12089 0
M  V30 1975 C 201.729 1.08361 -4.43967 0
M  V30 1976 C 202.726 0.438247 -5.1805 0
M  V30 1977 C 200.411 1.07358 -4.90693 0
M  V30 1978 C 202.405 -0.20779 -6.37061 0
M  V30 1979 C 200.092 0.42373 -6.09629 0
M  V30 1980 C 201.09 -0.215829 -6.82659 0
M  V30 1981 O 200.778 -0.855378 -7.99336 0
M  V30 1982 H 200.51 0.258504 -0.624621 0
M  V30 1983 H 203.064 0.14652 -2.04877 0
M  V30 1984 H 201.294 2.55389 -2.90367 0
M  V30 1985 H 202.983 2.38279 -3.286 0
M  V30 1986 H 203.749 0.437817 -4.8302 0
M  V30 1987 H 199.628 1.5608 -4.33774 0
M  V30 1988 H 203.172 -0.70758 -6.94002 0
M  V30 1989 H 199.069 0.421822 -6.4412 0
M  V30 1990 H 199.837 -0.756892 -8.14993 0
M  V30 1991 N 202.5 1.5196 0.417844 0
M  V30 1992 C 203.725 1.69717 1.1921 0
M  V30 1993 C 204.15 0.402148 1.83751 0
M  V30 1994 O 203.508 -0.639593 1.69643 0
M  V30 1995 C 203.556 2.82794 2.2374 0
M  V30 1996 O 202.66 2.47756 3.29683 0
M  V30 1997 H 202.001 0.565263 0.348387 0
M  V30 1998 H 204.531 1.98621 0.490985 0
M  V30 1999 H 204.541 3.07452 2.68212 0
M  V30 2000 H 203.216 3.76756 1.76146 0
M  V30 2001 H 201.793 2.33739 2.90552 0
M  V30 2002 N 203.978 -0.674533 1.42435 0
M  V30 2003 C 205.227 -1.43034 1.42212 0
M  V30 2004 C 205.54 -1.95555 0.0420788 0
M  V30 2005 O 206.746 -2.71374 -0.0827558 0
M  V30 2006 C 205.202 -2.58748 2.50155 0
M  V30 2007 C 204.81 -2.12925 3.94166 0
M  V30 2008 C 206.554 -3.36257 2.59098 0
M  V30 2009 C 204.461 -3.25723 4.93618 0
M  V30 2010 H 203.391 -0.537345 0.528939 0
M  V30 2011 H 206.042 -0.73024 1.68344 0
M  V30 2012 H 204.424 -3.31128 2.17188 0
M  V30 2013 H 205.598 -1.47697 4.36488 0
M  V30 2014 H 203.913 -1.48354 3.89076 0
M  V30 2015 H 206.51 -4.20264 3.30578 0
M  V30 2016 H 206.853 -3.82866 1.63461 0
M  V30 2017 H 207.386 -2.70947 2.9126 0
M  V30 2018 H 204.125 -2.84105 5.90732 0
M  V30 2019 H 203.645 -3.89732 4.55926 0
M  V30 2020 H 205.324 -3.91186 5.15347 0
M  V30 2021 N 205.456 -1.28612 -0.910864 0
M  V30 2022 C 206.681 -1.1891 -1.69927 0
M  V30 2023 C 207.106 0.248372 -1.86453 0
M  V30 2024 O 206.464 1.17961 -1.37676 0
M  V30 2025 C 206.512 -1.89578 -3.06745 0
M  V30 2026 O 205.616 -1.20521 -3.94396 0
M  V30 2027 H 204.957 -0.412632 -0.520222 0
M  V30 2028 H 207.487 -1.69985 -1.1387 0
M  V30 2029 H 207.497 -1.97597 -3.56958 0
M  V30 2030 H 206.172 -2.94136 -2.94035 0
M  V30 2031 H 204.749 -1.20684 -3.52831 0
M  V30 2032 N 206.934 1.1197 -1.10907 0
M  V30 2033 C 208.182 1.83225 -0.852819 0
M  V30 2034 C 208.503 1.84769 0.623341 0
M  V30 2035 O 207.773 1.3143 1.45269 0
M  V30 2036 H 206.353 0.67849 -0.312507 0
M  V30 2037 H 209.015 1.3556 -1.40033 0
M  V30 2038 H 208.111 2.87265 -1.22005 0
M  V30 2039 N 208.412 0.89855 1.29475 0
M  V30 2040 C 209.658 0.524658 1.95896 0
M  V30 2041 C 209.991 -0.926468 1.70676 0
M  V30 2042 O 209.266 -1.65665 1.01908 0
M  V30 2043 C 209.549 0.81633 3.50725 0
M  V30 2044 C 209.402 2.31907 3.85408 0
M  V30 2045 C 210.721 0.302038 4.39062 0
M  V30 2046 H 207.84 0.19209 0.711527 0
M  V30 2047 H 210.482 1.12502 1.53112 0
M  V30 2048 H 208.632 0.305369 3.87298 0
M  V30 2049 H 210.304 2.89949 3.58786 0
M  V30 2050 H 208.547 2.78027 3.32992 0
M  V30 2051 H 209.218 2.47373 4.93468 0
M  V30 2052 H 211.694 0.739551 4.09475 0
M  V30 2053 H 210.57 0.535331 5.46283 0
M  V30 2054 H 210.831 -0.797216 4.34853 0
M  V30 2055 N 209.89 -1.43072 0.660911 0
M  V30 2056 C 210.838 -2.32569 -0.0378199 0
M  V30 2057 C 211.832 -1.49046 -0.805092 0
M  V30 2058 O 213.038 -1.65206 -0.714624 0
M  V30 2059 H 209.413 -0.75136 -0.031019 0
M  V30 2060 H 211.384 -2.89216 0.734609 0
M  V30 2061 C 210.133 -3.33453 -0.985124 0
M  V30 2062 H 209.456 -3.97752 -0.404147 0
M  V30 2063 H 210.896 -3.98691 -1.44297 0
M  V30 2064 C 209.355 -2.64642 -2.08486 0
M  V30 2065 O 209.885 -2.46776 -3.16961 0
M  V30 2066 N 208.091 -2.23891 -1.8526 0
M  V30 2067 H 207.638 -2.38621 -0.970449 0
M  V30 2068 H 207.596 -1.78181 -2.59034 0
M  V30 2069 N 211.368 -0.403325 -1.52352 0
M  V30 2070 C 212.298 0.416205 -2.29761 0
M  V30 2071 C 213.279 1.05123 -1.33728 0
M  V30 2072 O 214.464 1.06134 -1.62632 0
M  V30 2073 C 211.594 1.53624 -3.11475 0
M  V30 2074 C 210.548 1.02653 -4.15507 0
M  V30 2075 C 209.874 2.23971 -4.85532 0
M  V30 2076 C 211.174 0.08463 -5.22231 0
M  V30 2077 H 212.868 -0.229701 -2.98518 0
M  V30 2078 H 210.414 -0.111913 -1.43564 0
M  V30 2079 H 212.367 2.1165 -3.64393 0
M  V30 2080 H 211.091 2.20994 -2.40477 0
M  V30 2081 H 209.75 0.46871 -3.63591 0
M  V30 2082 H 209.398 2.89883 -4.11068 0
M  V30 2083 H 209.098 1.90521 -5.55856 0
M  V30 2084 H 210.622 2.82614 -5.41259 0
M  V30 2085 H 212.036 0.573509 -5.70424 0
M  V30 2086 H 210.433 -0.160783 -5.99885 0
M  V30 2087 H 211.503 -0.86237 -4.7717 0
M  V30 2088 N 212.846 1.57033 -0.133567 0
M  V30 2089 C 214.076 1.99754 0.527429 0
M  V30 2090 C 214.484 1.01245 1.59832 0
M  V30 2091 O 213.827 -0.000645496 1.837 0
M  V30 2092 C 213.889 3.38903 1.19939 0
M  V30 2093 C 213.553 4.56174 0.274709 0
M  V30 2094 C 214.55 5.17563 -0.492398 0
M  V30 2095 C 212.235 5.01972 0.18153 0
M  V30 2096 C 214.229 6.2315 -1.34027 0
M  V30 2097 C 211.916 6.07416 -0.669958 0
M  V30 2098 C 212.914 6.67874 -1.42947 0
M  V30 2099 O 212.602 7.71279 -2.2668 0
M  V30 2100 H 212.334 0.660702 0.142999 0
M  V30 2101 H 214.888 2.04207 -0.221099 0
M  V30 2102 H 213.118 3.31248 1.99528 0
M  V30 2103 H 214.807 3.65818 1.75875 0
M  V30 2104 H 215.573 4.83087 -0.430367 0
M  V30 2105 H 211.452 4.54652 0.762422 0
M  V30 2106 H 214.996 6.70268 -1.93357 0
M  V30 2107 H 210.893 6.41321 -0.73333 0
M  V30 2108 H 211.661 7.88441 -2.1978 0
M  V30 2109 N 214.325 -0.140222 1.56975 0
M  V30 2110 C 215.255 -1.17456 2.01808 0
M  V30 2111 C 216.236 -1.44415 0.898794 0
M  V30 2112 O 217.421 -1.5522 1.16707 0
M  V30 2113 C 214.551 -2.50607 2.40444 0
M  V30 2114 C 213.505 -2.38155 3.55621 0
M  V30 2115 C 212.831 -3.76078 3.80091 0
M  V30 2116 C 214.131 -1.85991 4.88062 0
M  V30 2117 H 215.825 -0.801743 2.88466 0
M  V30 2118 H 213.371 -0.38422 1.38779 0
M  V30 2119 H 215.324 -3.23197 2.7041 0
M  V30 2120 H 214.048 -2.89737 1.50732 0
M  V30 2121 H 212.707 -1.68016 3.25832 0
M  V30 2122 H 212.355 -4.12656 2.87618 0
M  V30 2123 H 212.055 -3.68606 4.57606 0
M  V30 2124 H 213.579 -4.50206 4.12488 0
M  V30 2125 H 214.993 -2.4838 5.16701 0
M  V30 2126 H 213.39 -1.89393 5.6943 0
M  V30 2127 H 214.46 -0.816023 4.77984 0
M  V30 2128 N 215.803 -1.52179 -0.40978 0
M  V30 2129 C 217.028 -1.70347 -1.18308 0
M  V30 2130 C 217.453 -0.411887 -1.83535 0
M  V30 2131 O 216.811 0.630587 -1.6998 0
M  V30 2132 C 216.859 -2.83977 -2.22238 0
M  V30 2133 O 215.963 -2.495 -3.28365 0
M  V30 2134 H 215.304 -0.567103 -0.345384 0
M  V30 2135 H 217.834 -1.98879 -0.480445 0
M  V30 2136 H 217.844 -3.0887 -2.66577 0
M  V30 2137 H 216.519 -3.77685 -1.74146 0
M  V30 2138 H 215.096 -2.35277 -2.89308 0
M  V30 2139 N 217.281 0.66697 -1.42791 0
M  V30 2140 C 218.511 1.45294 -1.46878 0
M  V30 2141 C 218.919 1.89027 -0.0809861 0
M  V30 2142 O 218.262 1.59219 0.916246 0
M  V30 2143 C 218.324 2.72908 -2.34012 0
M  V30 2144 C 217.988 2.51203 -3.81767 0
M  V30 2145 C 218.985 2.15302 -4.73224 0
M  V30 2146 C 216.67 2.65954 -4.26115 0
M  V30 2147 C 218.664 1.94431 -6.07022 0
M  V30 2148 C 216.351 2.44699 -5.59969 0
M  V30 2149 C 217.349 2.08992 -6.5024 0
M  V30 2150 O 217.037 1.87948 -7.81621 0
M  V30 2151 H 216.769 0.453306 -0.501487 0
M  V30 2152 H 219.323 0.826232 -1.88049 0
M  V30 2153 H 217.553 3.38089 -1.87703 0
M  V30 2154 H 219.242 3.34816 -2.29462 0
M  V30 2155 H 220.008 2.03495 -4.40244 0
M  V30 2156 H 215.887 2.92724 -3.56137 0
M  V30 2157 H 219.431 1.66484 -6.77443 0
M  V30 2158 H 215.328 2.56105 -5.9252 0
M  V30 2159 H 216.096 2.02483 -7.93059 0
M  V30 2160 N 218.759 1.29093 0.90403 0
M  V30 2161 C 220.005 1.16986 1.65656 0
M  V30 2162 C 220.338 -0.278925 1.92186 0
M  V30 2163 O 219.613 -1.2019 1.5292 0
M  V30 2164 C 219.896 1.97908 3.0084 0
M  V30 2165 C 219.749 3.50903 2.81403 0
M  V30 2166 C 221.068 1.80208 4.01513 0
M  V30 2167 H 218.187 0.426346 0.601164 0
M  V30 2168 H 220.829 1.58518 1.04747 0
M  V30 2169 H 218.979 1.62616 3.52829 0
M  V30 2170 H 220.651 3.96153 2.36348 0
M  V30 2171 H 218.894 3.76045 2.1627 0
M  V30 2172 H 219.565 4.02791 3.77443 0
M  V30 2173 H 222.041 2.11025 3.58619 0
M  V30 2174 H 220.917 2.39184 4.94047 0
M  V30 2175 H 221.178 0.756119 4.35586 0
M  V30 2176 N 220.237 -1.11381 1.11499 0
M  V30 2177 C 221.514 -1.7955 0.775965 0
M  V30 2178 C 221.894 -1.97859 -0.73588 0
M  V30 2179 O 221.242 -1.56376 -1.66609 0
M  V30 2180 C 221.452 -3.13196 1.53977 0
M  V30 2181 C 222.8 -3.88227 1.71944 0
M  V30 2182 O 223.824 -3.22887 1.50407 0
M  V30 2183 O 222.683 -5.05477 2.07738 0
M  V30 2184 H 219.777 -0.777728 0.28119 0
M  V30 2185 H 222.323 -1.18118 1.21845 0
M  V30 2186 H 221.095 -2.95229 2.56818 0
M  V30 2187 H 220.718 -3.82342 1.09088 0
M  V30 2188 N 221.715 -0.905404 -1.28997 0
M  V30 2189 C 223.126 -0.581953 -1.77398 0
M  V30 2190 C 223.477 0.902552 -1.74208 0
M  V30 2191 O 222.602 1.70584 -1.33154 0
M  V30 2192 C 223.197 -1.04961 -3.22131 0
M  V30 2193 C 221.756 -0.777229 -3.68288 0
M  V30 2194 C 220.903 -1.22109 -2.48967 0
M  V30 2195 H 223.854 -1.08754 -1.15578 0
M  V30 2196 H 223.875 -0.387387 -3.78523 0
M  V30 2197 H 223.387 -2.13008 -3.24421 0
M  V30 2198 H 221.488 0.290383 -3.71467 0
M  V30 2199 H 221.601 -1.37911 -4.58822 0
M  V30 2200 H 219.965 -0.639971 -2.46529 0
M  V30 2201 H 220.748 -2.30972 -2.53982 0
M  V30 2202 N 223.193 1.4272 -0.668489 0
M  V30 2203 C 224.47 1.95248 -0.117373 0
M  V30 2204 C 224.85 1.60919 1.36632 0
M  V30 2205 O 224.198 0.902095 2.09939 0
M  V30 2206 C 224.408 3.46927 -0.379806 0
M  V30 2207 C 225.756 4.23588 -0.292923 0
M  V30 2208 O 226.78 3.5482 -0.313204 0
M  V30 2209 O 225.639 5.46017 -0.229697 0
M  V30 2210 H 222.733 0.827 0.00079152 0
M  V30 2211 H 225.279 1.52581 -0.742783 0
M  V30 2212 H 224.051 3.65096 -1.40786 0
M  V30 2213 H 223.674 3.96627 0.277923 0
M  V30 2214 N 224.671 0.411399 1.52136 0
M  V30 2215 C 225.603 -0.448386 2.24771 0
M  V30 2216 C 226.616 -1.00828 1.27818 0
M  V30 2217 O 227.805 -0.906841 1.53749 0
M  V30 2218 C 224.905 -1.63636 2.96777 0
M  V30 2219 C 224.078 -1.19995 4.20618 0
M  V30 2220 C 223.137 -2.25509 4.75428 0
M  V30 2221 O 222.163 -1.86007 5.3795 0
M  V30 2222 N 223.365 -3.577 4.57199 0
M  V30 2223 H 226.13 0.174025 2.99194 0
M  V30 2224 H 223.691 0.238897 1.60128 0
M  V30 2225 H 225.683 -2.33793 3.30338 0
M  V30 2226 H 224.253 -2.16465 2.25526 0
M  V30 2227 H 223.473 -0.326421 3.92846 0
M  V30 2228 H 224.761 -0.885365 5.01038 0
M  V30 2229 H 224.159 -3.92543 4.07341 0
M  V30 2230 H 222.716 -4.23827 4.95191 0
M  V30 2231 N 226.149 -1.5696 0.141893 0
M  V30 2232 C 227.377 -2.00322 -0.517579 0
M  V30 2233 C 227.792 -1.02193 -1.58752 0
M  V30 2234 O 227.149 -0.0181619 -1.82491 0
M  V30 2235 C 227.2 -3.43618 -1.12289 0
M  V30 2236 O 226.921 -4.37995 -0.0956929 0
M  V30 2237 C 228.422 -4.02231 -1.86347 0
M  V30 2238 H 225.642 -0.657243 -0.135177 0
M  V30 2239 H 228.186 -2.03146 0.234973 0
M  V30 2240 H 226.341 -3.41662 -1.82609 0
M  V30 2241 H 226.755 -5.21729 -0.538469 0
M  V30 2242 H 228.229 -5.04509 -2.23997 0
M  V30 2243 H 228.706 -3.42655 -2.74744 0
M  V30 2244 H 229.312 -4.07802 -1.20737 0
M  V30 2245 N 227.627 0.131896 -1.57047 0
M  V30 2246 C 228.873 0.843179 -1.84441 0
M  V30 2247 C 229.206 1.80129 -0.725749 0
M  V30 2248 O 228.481 1.92624 0.269469 0
M  V30 2249 C 228.764 1.60442 -3.22382 0
M  V30 2250 C 228.617 0.666782 -4.4483 0
M  V30 2251 C 229.936 2.56354 -3.5773 0
M  V30 2252 H 227.055 0.305081 -0.670891 0
M  V30 2253 H 229.697 0.107839 -1.89694 0
M  V30 2254 H 227.847 2.23128 -3.18035 0
M  V30 2255 H 229.519 0.0497646 -4.61273 0
M  V30 2256 H 227.762 -0.022609 -4.33794 0
M  V30 2257 H 228.433 1.23579 -5.37989 0
M  V30 2258 H 230.909 2.0378 -3.62785 0
M  V30 2259 H 229.785 3.06657 -4.5525 0
M  V30 2260 H 230.046 3.38419 -2.84473 0
M  V30 2261 N 229.106 1.52395 0.401703 0
M  V30 2262 C 230.383 1.57387 1.16141 0
M  V30 2263 C 230.763 0.359359 2.08019 0
M  V30 2264 O 230.111 -0.65326 2.18963 0
M  V30 2265 C 230.321 2.90631 1.93221 0
M  V30 2266 C 231.669 3.43904 2.49028 0
M  V30 2267 O 232.693 2.92421 2.03393 0
M  V30 2268 O 231.552 4.33823 3.32356 0
M  V30 2269 H 228.646 0.634262 0.530698 0
M  V30 2270 H 231.192 1.64725 0.407883 0
M  V30 2271 H 229.964 3.70473 1.25958 0
M  V30 2272 H 229.587 2.8662 2.75563 0
M  V30 2273 N 230.584 -0.659388 1.43143 0
M  V30 2274 C 231.809 -1.45221 1.48073 0
M  V30 2275 C 232.234 -1.87845 0.097995 0
M  V30 2276 O 231.592 -1.56985 -0.90694 0
M  V30 2277 C 231.64 -2.66748 2.42647 0
M  V30 2278 O 230.744 -3.65583 1.90848 0
M  V30 2279 H 230.085 -0.435669 0.501088 0
M  V30 2280 H 232.615 -0.807432 1.87994 0
M  V30 2281 H 232.625 -3.14637 2.59745 0
M  V30 2282 H 231.3 -2.35067 3.43098 0
M  V30 2283 H 229.877 -3.24693 1.83381 0
M  V30 2284 N 232.062 -1.29571 -0.897171 0
M  V30 2285 C 233.287 -1.20705 -1.68656 0
M  V30 2286 C 233.712 0.228582 -1.86706 0
M  V30 2287 O 233.07 1.16494 -1.3892 0
M  V30 2288 C 233.118 -1.9282 -3.04717 0
M  V30 2289 O 232.222 -1.24697 -3.93096 0
M  V30 2290 H 231.563 -0.418126 -0.515816 0
M  V30 2291 H 234.093 -1.71183 -1.12061 0
M  V30 2292 H 234.103 -2.01372 -3.54843 0
M  V30 2293 H 232.778 -2.97239 -2.90899 0
M  V30 2294 H 231.355 -1.2442 -3.51531 0
M  V30 2295 N 233.54 1.10788 -1.12088 0
M  V30 2296 C 234.47 2.19083 -0.807755 0
M  V30 2297 C 235.451 1.6858 0.226859 0
M  V30 2298 O 236.636 1.93997 0.0888475 0
M  V30 2299 C 233.766 3.46344 -0.257576 0
M  V30 2300 C 232.72 4.101 -1.22483 0
M  V30 2301 C 232.046 5.32016 -0.535052 0
M  V30 2302 C 233.346 4.54236 -2.57811 0
M  V30 2303 H 235.04 2.45534 -1.71328 0
M  V30 2304 H 232.586 1.1801 -0.825205 0
M  V30 2305 H 234.539 4.21392 -0.0262679 0
M  V30 2306 H 233.263 3.19373 0.683278 0
M  V30 2307 H 231.922 3.37054 -1.44189 0
M  V30 2308 H 231.57 5.01319 0.410827 0
M  V30 2309 H 231.27 5.75625 -1.18024 0
M  V30 2310 H 232.794 6.09799 -0.312695 0
M  V30 2311 H 234.208 5.20575 -2.40155 0
M  V30 2312 H 232.605 5.08682 -3.18375 0
M  V30 2313 H 233.675 3.6734 -3.16528 0
M  V30 2314 N 235.018 0.912232 1.28515 0
M  V30 2315 C 236.264 0.545405 1.95328 0
M  V30 2316 C 236.597 -0.908313 1.71649 0
M  V30 2317 O 235.872 -1.64575 1.03659 0
M  V30 2318 C 236.155 0.853483 3.4984 0
M  V30 2319 C 236.008 2.35982 3.82926 0
M  V30 2320 C 237.327 0.348589 4.38717 0
M  V30 2321 H 234.446 0.199626 0.709449 0
M  V30 2322 H 237.088 1.1412 1.5191 0
M  V30 2323 H 235.238 0.34643 3.86952 0
M  V30 2324 H 236.91 2.93738 3.55691 0
M  V30 2325 H 235.153 2.81543 3.30024 0
M  V30 2326 H 235.824 2.52593 4.90816 0
M  V30 2327 H 238.3 0.78294 4.08668 0
M  V30 2328 H 237.176 0.593242 5.45685 0
M  V30 2329 H 237.437 -0.751049 4.35674 0
M  V30 2330 N 236.496 -1.42363 0.676048 0
M  V30 2331 C 237.724 -2.05859 0.207268 0
M  V30 2332 C 238.139 -1.50796 -1.13605 0
M  V30 2333 O 237.496 -0.648265 -1.70598 0
M  V30 2334 C 237.547 -3.61248 0.134975 0
M  V30 2335 O 237.268 -4.1427 1.42521 0
M  V30 2336 C 238.769 -4.41859 -0.357151 0
M  V30 2337 H 235.989 -0.663431 0.100503 0
M  V30 2338 H 238.533 -1.82479 0.923136 0
M  V30 2339 H 236.688 -3.83735 -0.531588 0
M  V30 2340 H 237.102 -5.0815 1.29939 0
M  V30 2341 H 238.576 -5.50847 -0.356641 0
M  V30 2342 H 239.053 -4.16536 -1.39264 0
M  V30 2343 H 239.659 -4.24392 0.27772 0
M  V30 2344 N 237.974 -0.419461 -1.51915 0
M  V30 2345 C 238.884 0.407528 -2.31033 0
M  V30 2346 C 239.9 1.04413 -1.3919 0
M  V30 2347 O 241.076 1.0434 -1.72265 0
M  V30 2348 C 238.141 1.50365 -3.12396 0
M  V30 2349 C 237.202 0.889029 -4.19994 0
M  V30 2350 C 236.435 1.93291 -4.97468 0
M  V30 2351 O 236.658 3.15259 -4.75361 0
M  V30 2352 O 235.592 1.53339 -5.8204 0
M  V30 2353 H 239.418 -0.237865 -3.02767 0
M  V30 2354 H 237.003 -0.182413 -1.48282 0
M  V30 2355 H 238.885 2.13975 -3.63032 0
M  V30 2356 H 237.56 2.13345 -2.43445 0
M  V30 2357 H 236.467 0.215353 -3.7348 0
M  V30 2358 H 237.8 0.302991 -4.91267 0
M  V30 2359 N 239.452 1.56882 -0.150215 0
M  V30 2360 C 240.362 2.20494 0.801222 0
M  V30 2361 C 241.378 1.19019 1.26927 0
M  V30 2362 O 242.554 1.51607 1.32579 0
M  V30 2363 C 239.619 2.81659 2.02161 0
M  V30 2364 C 238.68 3.9827 1.60249 0
M  V30 2365 C 237.913 4.56508 2.7647 0
M  V30 2366 O 238.136 4.13627 3.92771 0
M  V30 2367 O 237.07 5.46719 2.51757 0
M  V30 2368 H 240.896 3.02315 0.289717 0
M  V30 2369 H 238.481 1.49202 0.0769684 0
M  V30 2370 H 240.363 3.20522 2.73576 0
M  V30 2371 H 239.038 2.02849 2.52258 0
M  V30 2372 H 237.945 3.64117 0.858477 0
M  V30 2373 H 239.278 4.78609 1.14864 0
M  V30 2374 N 240.93 -0.123565 1.57115 0
M  V30 2375 C 242.177 -0.832153 1.84612 0
M  V30 2376 C 242.505 -1.80093 0.734627 0
M  V30 2377 O 241.76 -1.93766 -0.27442 0
M  V30 2378 C 242.059 -1.62016 3.18568 0
M  V30 2379 C 241.725 -0.796084 4.43817 0
M  V30 2380 C 240.387 -0.568816 4.77826 0
M  V30 2381 C 242.739 -0.221364 5.2073 0
M  V30 2382 C 240.067 0.243499 5.86194 0
M  V30 2383 C 242.419 0.578117 6.29953 0
M  V30 2384 C 241.083 0.815744 6.62497 0
M  V30 2385 H 240.353 -0.304507 0.675542 0
M  V30 2386 H 243 -0.0947248 1.91266 0
M  V30 2387 H 241.305 -2.42837 3.0747 0
M  V30 2388 H 243.002 -2.17231 3.37064 0
M  V30 2389 H 239.592 -0.983307 4.17168 0
M  V30 2390 H 243.776 -0.384173 4.94811 0
M  V30 2391 H 239.032 0.436871 6.09837 0
M  V30 2392 H 243.206 1.03046 6.88734 0
M  V30 2393 H 240.833 1.44701 7.46301 0
M  V30 2394 N 242.408 -1.52605 -0.393616 0
M  V30 2395 C 243.656 -1.67093 -1.13685 0
M  V30 2396 C 243.977 -0.411011 -1.90619 0
M  V30 2397 O 243.247 0.574491 -1.87287 0
M  V30 2398 H 241.827 -0.615923 -0.422668 0
M  V30 2399 H 244.489 -1.89704 -0.447039 0
M  V30 2400 H 243.585 -2.51922 -1.84232 0
M  V30 2401 N 243.887 0.651787 -1.4349 0
M  V30 2402 C 245.136 1.40754 -1.44469 0
M  V30 2403 C 245.449 1.95463 -0.0731845 0
M  V30 2404 O 246.655 2.71471 0.0395721 0
M  V30 2405 C 245.111 2.54735 -2.5424 0
M  V30 2406 C 244.719 2.06628 -3.97504 0
M  V30 2407 C 246.463 3.32092 -2.64414 0
M  V30 2408 C 244.37 3.17829 -4.98737 0
M  V30 2409 H 243.3 0.528862 -0.53742 0
M  V30 2410 H 245.951 0.703365 -1.69485 0
M  V30 2411 H 244.333 3.2763 -2.22428 0
M  V30 2412 H 245.507 1.40734 -4.38783 0
M  V30 2413 H 243.822 1.42146 -3.91387 0
M  V30 2414 H 246.419 4.14952 -3.37223 0
M  V30 2415 H 246.762 3.80217 -1.69532 0
M  V30 2416 H 247.295 2.66279 -2.95534 0
M  V30 2417 H 244.034 2.74671 -5.95177 0
M  V30 2418 H 243.554 3.82429 -4.62069 0
M  V30 2419 H 245.233 3.82937 -5.21505 0
M  V30 2420 N 245.365 1.30045 0.890287 0
M  V30 2421 C 246.328 1.15963 1.977 0
M  V30 2422 C 247.328 0.0923777 1.60534 0
M  V30 2423 O 248.518 0.340071 1.70848 0
M  V30 2424 C 245.65 0.775451 3.31963 0
M  V30 2425 H 246.843 2.12502 2.11619 0
M  V30 2426 H 244.396 1.13366 1.07601 0
M  V30 2427 H 245.131 -0.189671 3.23745 0
M  V30 2428 H 244.916 1.54668 3.60306 0
M  V30 2429 H 246.406 0.700251 4.11687 0
M  V30 2430 N 246.843 -1.10192 1.12674 0
M  V30 2431 C 247.806 -2.14786 0.799979 0
M  V30 2432 C 248.806 -1.59711 -0.18685 0
M  V30 2433 O 249.996 -1.74156 0.0392558 0
M  V30 2434 C 247.128 -3.40374 0.189228 0
M  V30 2435 H 248.321 -2.45203 1.72671 0
M  V30 2436 H 245.874 -1.25597 0.930326 0
M  V30 2437 H 246.609 -3.15577 -0.747107 0
M  V30 2438 H 246.394 -3.81637 0.899766 0
M  V30 2439 H 247.884 -4.17594 -0.0228143 0
M  V30 2440 N 248.321 -0.919034 -1.28029 0
M  V30 2441 C 249.598 -0.473668 -1.89778 0
M  V30 2442 C 249.978 1.04783 -1.83259 0
M  V30 2443 O 249.326 1.8982 -1.27202 0
M  V30 2444 C 249.536 -1.00998 -3.34066 0
M  V30 2445 C 250.884 -1.06525 -4.1102 0
M  V30 2446 O 251.908 -0.958996 -3.43048 0
M  V30 2447 O 250.767 -1.22776 -5.3253 0
M  V30 2448 H 247.861 -0.15098 -0.813101 0
M  V30 2449 H 250.407 -1.01016 -1.36359 0
M  V30 2450 H 249.179 -2.05392 -3.33061 0
M  V30 2451 H 248.802 -0.454626 -3.94992 0
M  V30 2452 N 249.799 1.42003 -0.683588 0
M  V30 2453 C 251.045 2.02223 -0.218536 0
M  V30 2454 C 251.4 1.53126 1.16492 0
M  V30 2455 O 250.693 0.727459 1.77253 0
M  V30 2456 C 250.887 3.56827 -0.202357 0
M  V30 2457 C 250.716 4.20928 -1.5827 0
M  V30 2458 C 249.486 4.5573 -2.18262 0
M  V30 2459 C 251.684 4.47933 -2.52706 0
M  V30 2460 N 249.666 5.05056 -3.48986 0
M  V30 2461 C 251.037 4.98906 -3.68094 0
M  V30 2462 C 253.092 4.29931 -2.51125 0
M  V30 2463 C 251.795 5.33768 -4.82166 0
M  V30 2464 C 253.821 4.65875 -3.643 0
M  V30 2465 C 253.183 5.17008 -4.78417 0
M  V30 2466 H 249.282 0.771931 -0.125088 0
M  V30 2467 H 251.866 1.72729 -0.898479 0
M  V30 2468 H 250.037 3.85819 0.447029 0
M  V30 2469 H 251.769 4.03755 0.276399 0
M  V30 2470 H 248.524 4.41781 -1.70665 0
M  V30 2471 H 248.948 5.34139 -4.15962 0
M  V30 2472 H 253.59 3.89647 -1.6412 0
M  V30 2473 H 251.308 5.72981 -5.6984 0
M  V30 2474 H 254.894 4.53615 -3.64314 0
M  V30 2475 H 253.774 5.44301 -5.64541 0
M  V30 2476 N 251.277 0.427512 1.51691 0
M  V30 2477 C 252.502 -0.143601 2.06902 0
M  V30 2478 C 252.927 -1.36536 1.29382 0
M  V30 2479 O 252.285 -1.78289 0.329043 0
M  V30 2480 C 252.333 -0.454207 3.57728 0
M  V30 2481 O 251.437 -1.54228 3.82475 0
M  V30 2482 H 250.778 -0.00617128 0.663971 0
M  V30 2483 H 253.308 0.606014 1.95419 0
M  V30 2484 H 253.318 -0.707525 4.01818 0
M  V30 2485 H 251.993 0.438812 4.13579 0
M  V30 2486 H 250.57 -1.2797 3.50254 0
M  V30 2487 N 252.755 -1.56801 0.158532 0
M  V30 2488 C 253.703 -2.18638 -0.793729 0
M  V30 2489 C 254.697 -1.14669 -1.24689 0
M  V30 2490 O 255.903 -1.32895 -1.21403 0
M  V30 2491 H 252.278 -0.700226 -0.274204 0
M  V30 2492 H 254.249 -2.97367 -0.248095 0
M  V30 2493 C 252.998 -2.83139 -2.0181 0
M  V30 2494 H 252.321 -3.62863 -1.67841 0
M  V30 2495 H 253.761 -3.29894 -2.66357 0
M  V30 2496 C 252.22 -1.82244 -2.83353 0
M  V30 2497 O 252.75 -1.3 -3.80083 0
M  V30 2498 N 250.956 -1.51288 -2.48114 0
M  V30 2499 H 250.503 -1.93964 -1.69516 0
M  V30 2500 H 250.461 -0.840296 -3.02963 0
M  V30 2501 N 254.233 0.115231 -1.57178 0
M  V30 2502 C 255.51 0.852873 -1.76027 0
M  V30 2503 C 255.89 1.97892 -0.73498 0
M  V30 2504 O 255.238 2.27232 0.24036 0
M  V30 2505 C 255.448 1.36608 -3.21153 0
M  V30 2506 C 256.796 1.81692 -3.83762 0
M  V30 2507 O 257.82 1.46278 -3.24779 0
M  V30 2508 O 256.679 2.47104 -4.87444 0
M  V30 2509 H 253.773 0.405296 -0.720877 0
M  V30 2510 H 256.319 0.0986785 -1.69413 0
M  V30 2511 H 255.091 0.558357 -3.87296 0
M  V30 2512 H 254.714 2.18287 -3.3232 0
M  V30 2513 N 255.711 1.52812 0.385517 0
M  V30 2514 C 256.644 1.72592 1.49289 0
M  V30 2515 C 257.622 0.573819 1.52138 0
M  V30 2516 O 258.806 0.80404 1.70492 0
M  V30 2517 C 255.933 1.78669 2.87741 0
M  V30 2518 C 254.979 3.00455 3.02703 0
M  V30 2519 S 255.812 4.60366 2.73538 0
M  V30 2520 C 256.968 4.69263 4.14177 0
M  V30 2521 H 257.201 2.66248 1.32285 0
M  V30 2522 H 254.734 1.43148 0.578611 0
M  V30 2523 H 256.692 1.82855 3.67524 0
M  V30 2524 H 255.353 0.861 3.02069 0
M  V30 2525 H 254.546 3.01258 4.04054 0
M  V30 2526 H 254.148 2.94278 2.30817 0
M  V30 2527 H 256.44 4.48092 5.08153 0
M  V30 2528 H 257.383 5.71276 4.18388 0
M  V30 2529 H 257.791 3.98072 4.00249 0
M  V30 2530 N 257.189 -0.644168 1.43834 0
M  V30 2531 C 258.438 -1.39985 1.45214 0
M  V30 2532 C 258.751 -1.95421 0.0835494 0
M  V30 2533 O 259.957 -2.71488 -0.0251748 0
M  V30 2534 C 258.413 -2.53384 2.55587 0
M  V30 2535 C 258.021 -2.04517 3.98594 0
M  V30 2536 C 259.765 -3.30685 2.66172 0
M  V30 2537 C 257.672 -3.1518 5.00416 0
M  V30 2538 H 256.602 -0.526005 0.540218 0
M  V30 2539 H 259.253 -0.694367 1.69855 0
M  V30 2540 H 257.635 -3.26446 2.24163 0
M  V30 2541 H 258.809 -1.38405 4.39523 0
M  V30 2542 H 257.124 -1.40068 3.92135 0
M  V30 2543 H 259.721 -4.13158 3.39418 0
M  V30 2544 H 260.064 -3.79312 1.71546 0
M  V30 2545 H 260.597 -2.64708 2.96942 0
M  V30 2546 H 257.336 -2.71511 5.96625 0
M  V30 2547 H 256.856 -3.79974 4.64091 0
M  V30 2548 H 258.535 -3.80166 5.23529 0
M  V30 2549 N 258.668 -1.30515 -0.883378 0
M  V30 2550 C 259.893 -1.22487 -1.67367 0
M  V30 2551 C 260.318 0.208767 -1.86938 0
M  V30 2552 O 259.676 1.15015 -1.40148 0
M  V30 2553 C 259.724 -1.96041 -3.02655 0
M  V30 2554 O 258.828 -1.28859 -3.91751 0
M  V30 2555 H 258.169 -0.423573 -0.511353 0
M  V30 2556 H 260.699 -1.72362 -1.10239 0
M  V30 2557 H 260.709 -2.05124 -3.52687 0
M  V30 2558 H 259.384 -3.00307 -2.8773 0
M  V30 2559 H 257.961 -1.28141 -3.50192 0
M  V30 2560 N 260.146 1.09593 -1.13257 0
M  V30 2561 C 261.076 2.18214 -0.830946 0
M  V30 2562 C 262.057 1.68812 0.208966 0
M  V30 2563 O 263.242 1.9408 0.0682666 0
M  V30 2564 C 260.372 3.46051 -0.294296 0
M  V30 2565 C 259.326 4.08778 -1.26826 0
M  V30 2566 C 258.652 5.31419 -0.591449 0
M  V30 2567 C 259.952 4.51476 -2.62615 0
M  V30 2568 H 261.646 2.43703 -1.73923 0
M  V30 2569 H 259.192 1.17128 -0.837675 0
M  V30 2570 H 261.145 4.2134 -0.0709606 0
M  V30 2571 H 259.869 3.20079 0.649366 0
M  V30 2572 H 258.528 3.35505 -1.47756 0
M  V30 2573 H 258.176 5.01727 0.357633 0
M  V30 2574 H 257.876 5.74341 -1.24123 0
M  V30 2575 H 259.4 6.09433 -0.377355 0
M  V30 2576 H 260.814 5.17999 -2.45663 0
M  V30 2577 H 259.211 5.05277 -3.23752 0
M  V30 2578 H 260.281 3.63962 -3.20406 0
M  V30 2579 N 261.624 0.925811 1.2754 0
M  V30 2580 C 262.587 0.428129 2.25166 0
M  V30 2581 C 263.587 -0.452261 1.54309 0
M  V30 2582 O 264.777 -0.253608 1.72344 0
M  V30 2583 C 261.909 -0.384749 3.38722 0
M  V30 2584 H 263.102 1.29066 2.70706 0
M  V30 2585 H 260.655 0.706323 1.3943 0
M  V30 2586 H 261.39 -1.26618 2.98561 0
M  V30 2587 H 261.175 0.246454 3.91325 0
M  V30 2588 H 262.665 -0.723389 4.11287 0
M  V30 2589 N 263.102 -1.41638 0.69111 0
M  V30 2590 C 264.065 -2.29178 0.0319786 0
M  V30 2591 C 265.065 -1.44153 -0.712496 0
M  V30 2592 O 266.255 -1.65354 -0.548053 0
M  V30 2593 C 263.387 -3.26952 -0.965161 0
M  V30 2594 H 264.58 -2.88959 0.802681 0
M  V30 2595 H 262.133 -1.4955 0.454356 0
M  V30 2596 H 262.868 -2.72142 -1.76378 0
M  V30 2597 H 262.653 -3.89685 -0.434522 0
M  V30 2598 H 264.143 -3.92561 -1.42428 0
M  V30 2599 N 264.58 -0.43555 -1.51462 0
M  V30 2600 C 265.543 0.365137 -2.26273 0
M  V30 2601 C 266.543 0.951227 -1.29647 0
M  V30 2602 O 267.733 0.825958 -1.53374 0
M  V30 2603 C 264.865 1.51645 -3.05314 0
M  V30 2604 H 266.058 -0.290474 -2.9849 0
M  V30 2605 H 263.611 -0.188676 -1.55157 0
M  V30 2606 H 264.346 2.20816 -2.3751 0
M  V30 2607 H 264.131 1.10238 -3.76284 0
M  V30 2608 H 265.621 2.08218 -3.61987 0
M  V30 2609 N 266.058 1.56714 -0.166846 0
M  V30 2610 C 267.288 2.00828 0.48494 0
M  V30 2611 C 267.696 1.04612 1.57648 0
M  V30 2612 O 267.039 0.0383201 1.8366 0
M  V30 2613 C 267.101 3.4137 1.12723 0
M  V30 2614 C 266.765 4.56654 0.177886 0
M  V30 2615 C 267.762 5.16402 -0.60207 0
M  V30 2616 C 265.447 5.02244 0.0750139 0
M  V30 2617 C 267.441 6.20167 -1.47215 0
M  V30 2618 C 265.128 6.05859 -0.798649 0
M  V30 2619 C 266.126 6.64691 -1.57082 0
M  V30 2620 O 265.814 7.66297 -2.42989 0
M  V30 2621 H 265.546 0.663587 0.128953 0
M  V30 2622 H 268.1 2.03692 -0.264365 0
M  V30 2623 H 266.33 3.35406 1.92457 0
M  V30 2624 H 268.019 3.69466 1.68076 0
M  V30 2625 H 268.785 4.82065 -0.53274 0
M  V30 2626 H 264.664 4.56167 0.665812 0
M  V30 2627 H 268.208 6.66016 -2.07531 0
M  V30 2628 H 264.105 6.39621 -0.869199 0
M  V30 2629 H 264.873 7.83601 -2.36455 0
M  V30 2630 N 267.536 -0.106894 1.57237 0
M  V30 2631 C 268.764 -0.826389 1.8968 0
M  V30 2632 C 269.179 -1.72856 0.759353 0
M  V30 2633 O 268.536 -1.80503 -0.269263 0
M  V30 2634 C 268.587 -1.64967 3.21665 0
M  V30 2635 O 268.308 -0.783804 4.31031 0
M  V30 2636 C 269.809 -2.47326 3.67892 0
M  V30 2637 H 267.029 -0.236927 0.627779 0
M  V30 2638 H 269.573 -0.0876593 2.04312 0
M  V30 2639 H 267.728 -2.34103 3.08666 0
M  V30 2640 H 268.142 -1.35284 5.06753 0
M  V30 2641 H 269.616 -3.00604 4.6297 0
M  V30 2642 H 270.093 -3.25247 2.95146 0
M  V30 2643 H 270.699 -1.83411 3.83719 0
M  V30 2644 N 269.014 -1.53014 -0.377408 0
M  V30 2645 C 270.242 -1.72515 -1.14219 0
M  V30 2646 C 270.657 -0.448735 -1.8339 0
M  V30 2647 O 270.014 0.577592 -1.73119 0
M  V30 2648 C 270.065 -2.8826 -2.18148 0
M  V30 2649 O 269.786 -4.10962 -1.51795 0
M  V30 2650 C 271.287 -3.19536 -3.07264 0
M  V30 2651 H 268.507 -0.577301 -0.342001 0
M  V30 2652 H 271.051 -1.99712 -0.439935 0
M  V30 2653 H 269.206 -2.63492 -2.83991 0
M  V30 2654 H 269.62 -4.75693 -2.20945 0
M  V30 2655 H 271.094 -4.03959 -3.76193 0
M  V30 2656 H 271.571 -2.34403 -3.71419 0
M  V30 2657 H 272.177 -3.46186 -2.47053 0
M  V30 2658 N 270.492 0.636531 -1.44174 0
M  V30 2659 C 271.769 1.39463 -1.37148 0
M  V30 2660 C 272.149 2.11082 -0.027507 0
M  V30 2661 O 271.497 2.05954 0.989716 0
M  V30 2662 C 271.707 2.36552 -2.56601 0
M  V30 2663 C 273.055 3.00048 -3.00427 0
M  V30 2664 O 274.079 2.46878 -2.56767 0
M  V30 2665 O 272.938 3.96488 -3.76111 0
M  V30 2666 H 270.032 0.623903 -0.542839 0
M  V30 2667 H 272.578 0.662039 -1.56253 0
M  V30 2668 H 271.35 1.82692 -3.46034 0
M  V30 2669 H 270.973 3.17236 -2.39681 0
M  V30 2670 N 271.97 1.30982 0.876444 0
M  V30 2671 C 272.933 1.18054 1.96459 0
M  V30 2672 C 273.933 0.109399 1.60427 0
M  V30 2673 O 275.123 0.358173 1.70478 0
M  V30 2674 C 272.255 0.810616 3.31122 0
M  V30 2675 H 273.448 2.14735 2.09354 0
M  V30 2676 H 271.001 1.145 1.06392 0
M  V30 2677 H 271.736 -0.155322 3.23928 0
M  V30 2678 H 271.521 1.58481 3.58645 0
M  V30 2679 H 273.011 0.743876 4.10921 0
M  V30 2680 N 273.449 -1.08991 1.13837 0
M  V30 2681 C 274.697 -1.80899 0.901098 0
M  V30 2682 C 275.018 -1.86356 -0.574134 0
M  V30 2683 O 274.288 -1.35235 -1.41733 0
M  V30 2684 H 272.868 -0.669966 0.330386 0
M  V30 2685 H 275.53 -1.318 1.43578 0
M  V30 2686 H 274.626 -2.83929 1.29578 0
M  V30 2687 N 274.927 -0.932562 -1.27047 0
M  V30 2688 C 276.175 -0.574422 -1.93765 0
M  V30 2689 C 276.496 0.887993 -1.73608 0
M  V30 2690 O 275.766 1.62999 -1.08665 0
M  V30 2691 H 274.346 -0.209451 -0.717035 0
M  V30 2692 H 277.008 -1.18601 -1.5466 0
M  V30 2693 H 276.104 -0.784841 -3.02071 0
M  V30 2694 N 276.405 1.4127 -0.698611 0
M  V30 2695 C 277.654 2.00408 -0.227949 0
M  V30 2696 C 277.967 1.55981 1.18023 0
M  V30 2697 O 279.173 2.07699 1.74852 0
M  V30 2698 C 277.629 3.58129 -0.356636 0
M  V30 2699 C 277.237 4.11536 -1.77037 0
M  V30 2700 C 278.981 4.24466 0.0540969 0
M  V30 2701 C 276.888 5.61701 -1.85055 0
M  V30 2702 H 275.818 0.749586 -0.0814657 0
M  V30 2703 H 278.469 1.61713 -0.867249 0
M  V30 2704 H 276.851 3.94442 0.350965 0
M  V30 2705 H 278.025 3.86636 -2.50698 0
M  V30 2706 H 276.34 3.57736 -2.13105 0
M  V30 2707 H 278.937 5.34698 0.0146723 0
M  V30 2708 H 279.28 4.01687 1.09332 0
M  V30 2709 H 279.813 3.93198 -0.603337 0
M  V30 2710 H 276.552 5.89312 -2.8704 0
M  V30 2711 H 276.072 5.88519 -1.15783 0
M  V30 2712 H 277.751 6.26524 -1.61484 0
M  V30 2713 N 277.883 0.443576 1.51229 0
M  V30 2714 C 279.129 -0.120975 2.02439 0
M  V30 2715 C 279.462 -1.41815 1.32674 0
M  V30 2716 O 278.737 -1.89373 0.443622 0
M  V30 2717 C 279.02 -0.333291 3.58554 0
M  V30 2718 C 278.873 0.982968 4.38928 0
M  V30 2719 C 280.192 -1.10028 4.26124 0
M  V30 2720 H 277.311 -0.0424923 0.735774 0
M  V30 2721 H 279.953 0.583794 1.80809 0
M  V30 2722 H 278.103 -0.933614 3.77115 0
M  V30 2723 H 279.775 1.61775 4.32003 0
M  V30 2724 H 278.018 1.58611 4.03763 0
M  V30 2725 H 278.689 0.788379 5.46341 0
M  V30 2726 H 281.165 -0.591711 4.11871 0
M  V30 2727 H 280.041 -1.21761 5.35225 0
M  V30 2728 H 280.302 -2.12996 3.87408 0
M  V30 2729 N 279.361 -1.56624 0.175154 0
M  V30 2730 C 280.638 -1.88688 -0.515373 0
M  V30 2731 C 281.018 -1.08564 -1.81044 0
M  V30 2732 O 280.366 -0.180703 -2.27784 0
M  V30 2733 C 280.576 -3.40768 -0.753552 0
M  V30 2734 C 281.924 -4.10587 -1.08184 0
M  V30 2735 O 282.948 -3.46106 -0.841961 0
M  V30 2736 O 281.807 -5.24512 -1.53459 0
M  V30 2737 H 278.901 -0.78301 -0.26613 0
M  V30 2738 H 281.447 -1.68347 0.213877 0
M  V30 2739 H 280.219 -3.90965 0.161829 0
M  V30 2740 H 279.842 -3.66733 -1.53598 0
M  V30 2741 N 280.839 0.0985539 -1.57292 0
M  V30 2742 C 281.787 1.1387 -2.02821 0
M  V30 2743 C 282.781 1.41676 -0.928666 0
M  V30 2744 O 283.987 1.41398 -1.11385 0
M  V30 2745 H 280.362 0.384419 -0.646317 0
M  V30 2746 H 282.333 0.728347 -2.89375 0
M  V30 2747 C 281.082 2.45166 -2.46554 0
M  V30 2748 H 280.405 2.24613 -3.3074 0
M  V30 2749 H 281.845 3.16456 -2.8219 0
M  V30 2750 C 280.304 3.09216 -1.33742 0
M  V30 2751 O 280.834 3.96163 -0.66464 0
M  V30 2752 N 279.04 2.69413 -1.08928 0
M  V30 2753 H 278.587 1.98801 -1.63817 0
M  V30 2754 H 278.545 3.12594 -0.336458 0
M  V30 2755 N 282.317 1.53212 0.369288 0
M  V30 2756 C 283.594 1.59815 1.12776 0
M  V30 2757 C 283.974 0.403402 2.0721 0
M  V30 2758 O 283.322 -0.606667 2.20299 0
M  V30 2759 C 283.532 2.94664 1.87013 0
M  V30 2760 C 284.88 3.49109 2.41677 0
M  V30 2761 O 285.904 2.96669 1.97144 0
M  V30 2762 O 284.763 4.40775 3.23079 0
M  V30 2763 H 281.857 0.645376 0.517125 0
M  V30 2764 H 284.403 1.65553 0.37285 0
M  V30 2765 H 283.175 3.73061 1.18071 0
M  V30 2766 H 282.798 2.92401 2.69421 0
M  V30 2767 N 283.795 -0.628877 1.44509 0
M  V30 2768 C 285.044 -1.38437 1.4669 0
M  V30 2769 C 285.357 -1.95322 0.104272 0
M  V30 2770 O 286.563 -2.715 0.00362163 0
M  V30 2771 C 285.019 -2.50659 2.5826 0
M  V30 2772 C 284.627 -2.00277 4.0074 0
M  V30 2773 C 286.371 -3.27844 2.69664 0
M  V30 2774 C 284.278 -3.09854 5.0373 0
M  V30 2775 H 283.208 -0.520245 0.545766 0
M  V30 2776 H 285.859 -0.676313 1.70582 0
M  V30 2777 H 284.241 -3.2405 2.27612 0
M  V30 2778 H 285.415 -1.33736 4.40966 0
M  V30 2779 H 283.73 -1.35901 3.93599 0
M  V30 2780 H 286.327 -4.09534 3.43781 0
M  V30 2781 H 286.67 -3.77471 1.75559 0
M  V30 2782 H 287.203 -2.61543 2.99733 0
M  V30 2783 H 283.942 -2.65168 5.99472 0
M  V30 2784 H 283.462 -3.7503 4.68095 0
M  V30 2785 H 285.141 -3.74592 5.27532 0
M  V30 2786 N 285.273 -1.31445 -0.869486 0
M  V30 2787 C 286.236 -1.19094 -1.9583 0
M  V30 2788 C 287.236 -0.117906 -1.60367 0
M  V30 2789 O 288.426 -0.367208 -1.70286 0
M  V30 2790 C 285.558 -0.828165 -3.30688 0
M  V30 2791 H 286.751 -2.15842 -2.08212 0
M  V30 2792 H 284.304 -1.15063 -1.05784 0
M  V30 2793 H 285.039 0.138142 -3.24006 0
M  V30 2794 H 284.824 -1.6038 -3.578 0
M  V30 2795 H 286.314 -0.765658 -4.10521 0
M  V30 2796 N 286.751 1.08385 -1.14413 0
M  V30 2797 C 287.998 1.80776 -0.912482 0
M  V30 2798 C 288.326 1.86236 0.560934 0
M  V30 2799 O 287.581 1.33431 1.43159 0
M  V30 2800 C 287.88 3.26273 -1.45879 0
M  V30 2801 C 287.546 3.4093 -2.95089 0
M  V30 2802 C 286.208 3.44638 -3.35824 0
M  V30 2803 C 288.56 3.44591 -3.91033 0
M  V30 2804 C 285.888 3.49597 -4.71167 0
M  V30 2805 C 288.24 3.51086 -5.26233 0
M  V30 2806 C 286.904 3.53067 -5.6648 0
M  V30 2807 H 286.174 0.661507 -0.333901 0
M  V30 2808 H 288.821 1.27613 -1.42784 0
M  V30 2809 H 287.126 3.82146 -0.864376 0
M  V30 2810 H 288.823 3.80839 -1.2555 0
M  V30 2811 H 285.413 3.38736 -2.62594 0
M  V30 2812 H 289.597 3.40957 -3.60641 0
M  V30 2813 H 284.853 3.49424 -5.0171 0
M  V30 2814 H 289.027 3.52864 -6.00383 0
M  V30 2815 H 286.654 3.56662 -6.71339 0
M  V30 2816 N 288.23 0.939286 1.26551 0
M  V30 2817 C 289.476 0.586715 1.94128 0
M  V30 2818 C 289.809 -0.8717 1.73537 0
M  V30 2819 O 289.084 -1.62339 1.07127 0
M  V30 2820 C 289.367 0.927497 3.4795 0
M  V30 2821 C 289.22 2.44052 3.77834 0
M  V30 2822 C 290.539 0.441569 4.37879 0
M  V30 2823 H 287.658 0.21463 0.705055 0
M  V30 2824 H 290.3 1.17316 1.49455 0
M  V30 2825 H 288.45 0.428431 3.8613 0
M  V30 2826 H 290.122 3.01216 3.4938 0
M  V30 2827 H 288.365 2.8848 3.23978 0
M  V30 2828 H 289.036 2.62947 4.85348 0
M  V30 2829 H 291.512 0.869448 4.06915 0
M  V30 2830 H 290.388 0.708856 5.44304 0
M  V30 2831 H 290.649 -0.658467 4.37169 0
M  V30 2832 N 289.708 -1.40897 0.706093 0
M  V30 2833 C 290.956 -2.00657 0.241054 0
M  V30 2834 C 291.277 -1.56241 -1.16678 0
M  V30 2835 O 290.547 -0.79765 -1.78926 0
M  V30 2836 H 289.127 -0.742018 0.0861308 0
M  V30 2837 H 291.789 -1.72372 0.909604 0
M  V30 2838 H 290.885 -3.10958 0.266705 0
M  V30 2839 N 291.186 -0.45159 -1.50991 0
M  V30 2840 C 292.149 0.341117 -2.26647 0
M  V30 2841 C 293.149 0.937422 -1.30649 0
M  V30 2842 O 294.339 0.809644 -1.54241 0
M  V30 2843 C 291.471 1.48398 -3.06905 0
M  V30 2844 H 292.664 -0.322117 -2.98165 0
M  V30 2845 H 290.217 -0.205122 -1.54948 0
M  V30 2846 H 290.952 2.18284 -2.39838 0
M  V30 2847 H 290.737 1.06241 -3.77432 0
M  V30 2848 H 292.227 2.04367 -3.64176 0
M  V30 2849 N 292.664 1.56529 -0.183458 0
M  V30 2850 C 293.627 2.17324 0.728223 0
M  V30 2851 C 294.627 1.12453 1.14939 0
M  V30 2852 O 295.817 1.37902 1.06437 0
M  V30 2853 C 292.949 2.76591 1.99274 0
M  V30 2854 H 294.142 2.99241 0.198772 0
M  V30 2855 H 291.695 1.5616 0.0661391 0
M  V30 2856 H 292.43 1.98441 2.56499 0
M  V30 2857 H 292.215 3.5335 1.69959 0
M  V30 2858 H 293.705 3.23311 2.6431 0
M  V30 2859 N 294.142 -0.090211 1.57342 0
M  V30 2860 C 295.372 -0.805055 1.90269 0
M  V30 2861 C 295.78 -1.72561 0.775842 0
M  V30 2862 O 295.123 -1.81839 -0.260843 0
M  V30 2863 C 295.185 -1.66734 3.18497 0
M  V30 2864 C 294.849 -0.918092 4.47683 0
M  V30 2865 C 295.846 -0.245674 5.19319 0
M  V30 2866 C 293.531 -0.890724 4.94339 0
M  V30 2867 C 295.525 0.444088 6.35851 0
M  V30 2868 C 293.212 -0.197179 6.10782 0
M  V30 2869 C 294.21 0.469044 6.81388 0
M  V30 2870 O 293.898 1.15146 7.95611 0
M  V30 2871 H 293.63 -0.235143 0.633785 0
M  V30 2872 H 296.184 -0.0703805 2.05279 0
M  V30 2873 H 294.414 -2.44437 2.99646 0
M  V30 2874 H 296.103 -2.25919 3.37217 0
M  V30 2875 H 296.869 -0.258246 4.84312 0
M  V30 2876 H 292.748 -1.39873 4.39268 0
M  V30 2877 H 296.292 0.964667 6.90898 0
M  V30 2878 H 292.189 -0.18247 6.45242 0
M  V30 2879 H 292.957 1.05885 8.11622 0
M  V30 2880 N 295.62 -1.53406 -0.361157 0
M  V30 2881 C 296.567 -1.80156 -1.44265 0
M  V30 2882 C 297.537 -0.646183 -1.53015 0
M  V30 2883 O 298.722 -0.888818 -1.68833 0
M  V30 2884 C 295.862 -2.00116 -2.81154 0
M  V30 2885 C 294.975 -3.27833 -2.81335 0
M  V30 2886 C 294.11 -3.37957 -4.09828 0
M  V30 2887 C 293.149 -4.59689 -4.04168 0
M  V30 2888 N 292.286 -4.66942 -5.24318 0
M  V30 2889 H 297.126 -2.72438 -1.20754 0
M  V30 2890 H 294.663 -1.34954 -0.585296 0
M  V30 2891 H 296.621 -2.09677 -3.60682 0
M  V30 2892 H 295.251 -1.11167 -3.03054 0
M  V30 2893 H 294.303 -3.27204 -1.94014 0
M  V30 2894 H 295.615 -4.17442 -2.73027 0
M  V30 2895 H 294.769 -3.46853 -4.97773 0
M  V30 2896 H 293.508 -2.46372 -4.20894 0
M  V30 2897 H 292.513 -4.50889 -3.14609 0
M  V30 2898 H 293.738 -5.5262 -3.947 0
M  V30 2899 H 291.684 -3.7826 -5.35962 0
M  V30 2900 H 291.601 -5.50462 -5.18197 0
M  V30 2901 H 292.869 -4.80127 -6.14084 0
M  V30 2902 N 297.098 0.621204 -1.44841 0
M  V30 2903 C 298.345 1.38055 -1.48145 0
M  V30 2904 C 298.673 1.94143 -0.117867 0
M  V30 2905 O 297.928 1.74713 0.881694 0
M  V30 2906 C 298.227 2.55675 -2.4973 0
M  V30 2907 C 297.893 2.17817 -3.94799 0
M  V30 2908 C 296.555 2.07205 -4.34303 0
M  V30 2909 C 298.907 1.88065 -4.86087 0
M  V30 2910 C 296.235 1.65045 -5.63007 0
M  V30 2911 C 298.587 1.47394 -6.15189 0
M  V30 2912 C 297.251 1.35331 -6.53637 0
M  V30 2913 H 296.521 0.505181 -0.542101 0
M  V30 2914 H 299.168 0.703477 -1.78111 0
M  V30 2915 H 297.473 3.2866 -2.13284 0
M  V30 2916 H 299.17 3.13904 -2.4953 0
M  V30 2917 H 295.76 2.26998 -3.63552 0
M  V30 2918 H 299.944 1.95168 -4.56315 0
M  V30 2919 H 295.2 1.54317 -5.91605 0
M  V30 2920 H 299.374 1.23415 -6.85377 0
M  V30 2921 H 297.001 1.02435 -7.53267 0
M  V30 2922 N 298.576 1.31904 0.862503 0
M  V30 2923 C 299.524 1.20125 1.9918 0
M  V30 2924 C 300.518 0.107824 1.69056 0
M  V30 2925 O 301.724 0.270223 1.7796 0
M  V30 2926 H 298.099 0.372148 0.65346 0
M  V30 2927 H 300.07 2.15652 2.06244 0
M  V30 2928 C 298.819 0.933099 3.34946 0
M  V30 2929 H 298.142 1.76664 3.5865 0
M  V30 2930 H 299.582 0.890892 4.14535 0
M  V30 2931 C 298.041 -0.364172 3.34926 0
M  V30 2932 O 298.571 -1.37858 3.77304 0
M  V30 2933 N 296.777 -0.383362 2.8806 0
M  V30 2934 H 296.324 0.442651 2.53768 0
M  V30 2935 H 296.282 -1.25123 2.8843 0
M  V30 2936 N 300.054 -1.07777 1.14986 0
M  V30 2937 C 301.331 -1.7699 0.832695 0
M  V30 2938 C 301.711 -2.001 -0.672561 0
M  V30 2939 O 301.059 -1.61598 -1.6155 0
M  V30 2940 C 301.269 -3.08139 1.63863 0
M  V30 2941 C 302.617 -3.8256 1.84208 0
M  V30 2942 O 303.641 -3.17939 1.60603 0
M  V30 2943 O 302.5 -4.98612 2.23714 0
M  V30 2944 H 299.594 -0.768389 0.305791 0
M  V30 2945 H 302.14 -1.14182 1.25541 0
M  V30 2946 H 300.912 -2.86909 2.6608 0
M  V30 2947 H 300.535 -3.78678 1.21197 0
M  V30 2948 N 301.532 -0.945985 -1.26051 0
M  V30 2949 C 302.495 -0.463897 -2.24456 0
M  V30 2950 C 303.495 0.427655 -1.55009 0
M  V30 2951 O 304.685 0.226157 -1.72726 0
M  V30 2952 C 301.817 0.330812 -3.39291 0
M  V30 2953 H 303.01 -1.33357 -2.68619 0
M  V30 2954 H 300.563 -0.728416 -1.38289 0
M  V30 2955 H 301.298 1.21852 -3.00537 0
M  V30 2956 H 301.083 -0.308679 -3.90883 0
M  V30 2957 H 302.573 0.657865 -4.12386 0
M  V30 2958 N 303.011 1.40521 -0.713556 0
M  V30 2959 C 304.259 2.00527 -0.251692 0
M  V30 2960 C 304.58 1.56857 1.15848 0
M  V30 2961 O 303.85 0.807127 1.785 0
M  V30 2962 H 302.43 0.741551 -0.0900646 0
M  V30 2963 H 305.092 1.71887 -0.918733 0
M  V30 2964 H 304.188 3.10813 -0.283192 0
M  V30 2965 N 304.489 0.459591 1.5075 0
M  V30 2966 C 305.717 -0.0973749 2.06671 0
M  V30 2967 C 306.132 -1.34524 1.32472 0
M  V30 2968 O 305.489 -1.7827 0.390634 0
M  V30 2969 C 305.54 -0.39714 3.59312 0
M  V30 2970 O 305.261 0.801214 4.30711 0
M  V30 2971 C 306.762 -1.00234 4.31819 0
M  V30 2972 H 303.982 0.00195854 0.670997 0
M  V30 2973 H 306.526 0.645072 1.94059 0
M  V30 2974 H 304.681 -1.08951 3.71764 0
M  V30 2975 H 305.095 0.538857 5.21725 0
M  V30 2976 H 306.569 -1.16193 5.39632 0
M  V30 2977 H 307.046 -1.98939 3.91561 0
M  V30 2978 H 307.652 -0.348699 4.23868 0
M  V30 2979 N 305.967 -1.56429 0.191757 0
M  V30 2980 C 307.213 -1.97777 -0.448554 0
M  V30 2981 C 307.546 -1.07847 -1.61501 0
M  V30 2982 O 306.821 -0.129774 -1.94067 0
M  V30 2983 C 307.104 -3.48362 -0.911906 0
M  V30 2984 C 306.957 -4.4907 0.256136 0
M  V30 2985 C 308.276 -4.02561 -1.77857 0
M  V30 2986 H 305.395 -0.719071 -0.161572 0
M  V30 2987 H 308.037 -1.87896 0.282007 0
M  V30 2988 H 306.187 -3.56914 -1.53442 0
M  V30 2989 H 307.859 -4.5256 0.893733 0
M  V30 2990 H 306.102 -4.24181 0.908436 0
M  V30 2991 H 306.773 -5.51889 -0.11053 0
M  V30 2992 H 309.249 -3.96767 -1.25359 0
M  V30 2993 H 308.125 -5.08301 -2.07174 0
M  V30 2994 H 308.386 -3.47616 -2.73158 0
M  V30 2995 N 307.445 0.0818655 -1.57387 0
M  V30 2996 C 308.693 0.781368 -1.86384 0
M  V30 2997 C 309.014 1.78618 -0.782342 0
M  V30 2998 O 308.284 1.94976 0.190061 0
M  V30 2999 H 306.864 0.291562 -0.687751 0
M  V30 3000 H 309.526 0.060348 -1.94807 0
M  V30 3001 H 308.622 1.3038 -2.83562 0
M  V30 3002 N 308.923 1.53595 0.353017 0
M  V30 3003 C 309.853 1.83902 1.43883 0
M  V30 3004 C 310.834 0.693421 1.55324 0
M  V30 3005 O 312.019 0.944452 1.69687 0
M  V30 3006 C 309.149 2.04016 2.8106 0
M  V30 3007 C 308.103 3.19814 2.84434 0
M  V30 3008 C 307.429 3.25244 4.24406 0
M  V30 3009 C 308.729 4.58133 2.50822 0
M  V30 3010 H 310.423 2.74835 1.1877 0
M  V30 3011 H 307.969 1.32242 0.569917 0
M  V30 3012 H 309.922 2.238 3.57059 0
M  V30 3013 H 308.646 1.09804 3.07588 0
M  V30 3014 H 307.305 2.9987 2.10887 0
M  V30 3015 H 306.953 2.28646 4.48029 0
M  V30 3016 H 306.653 4.03054 4.27576 0
M  V30 3017 H 308.177 3.47228 5.0226 0
M  V30 3018 H 309.591 4.77995 3.16534 0
M  V30 3019 H 307.988 5.38276 2.6529 0
M  V30 3020 H 309.058 4.62387 1.46034 0
M  V30 3021 N 310.401 -0.613514 1.45168 0
M  V30 3022 C 311.349 -1.74572 1.53712 0
M  V30 3023 C 312.343 -1.64426 0.407505 0
M  V30 3024 O 313.549 -1.70291 0.583176 0
M  V30 3025 H 309.924 -0.576641 0.48269 0
M  V30 3026 H 311.895 -1.64492 2.48968 0
M  V30 3027 C 310.644 -3.12943 1.51532 0
M  V30 3028 H 309.967 -3.21407 2.37776 0
M  V30 3029 H 311.407 -3.9201 1.61569 0
M  V30 3030 C 309.866 -3.36053 0.238798 0
M  V30 3031 O 310.396 -3.95837 -0.6838 0
M  V30 3032 N 308.602 -2.9028 0.136359 0
M  V30 3033 H 308.149 -2.41811 0.887999 0
M  V30 3034 H 308.107 -3.06116 -0.716944 0
M  V30 3035 N 311.879 -1.3236 -0.855495 0
M  V30 3036 C 313.125 -1.24064 -1.61182 0
M  V30 3037 C 313.48 0.195914 -1.914 0
M  V30 3038 O 312.773 1.13345 -1.54478 0
M  V30 3039 C 312.967 -2.03275 -2.93963 0
M  V30 3040 C 312.796 -3.54486 -2.76712 0
M  V30 3041 C 311.566 -4.23824 -2.75139 0
M  V30 3042 C 313.764 -4.49154 -2.50531 0
M  V30 3043 N 311.746 -5.61095 -2.4909 0
M  V30 3044 C 313.117 -5.74195 -2.3388 0
M  V30 3045 C 315.172 -4.3842 -2.35992 0
M  V30 3046 C 313.875 -6.89716 -2.04168 0
M  V30 3047 C 315.901 -5.53739 -2.0767 0
M  V30 3048 C 315.263 -6.77779 -1.9182 0
M  V30 3049 H 311.362 -0.509139 -0.59355 0
M  V30 3050 H 313.946 -1.66715 -1.00569 0
M  V30 3051 H 312.117 -1.6297 -3.52555 0
M  V30 3052 H 313.849 -1.86881 -3.58967 0
M  V30 3053 H 310.604 -3.75934 -2.88047 0
M  V30 3054 H 311.028 -6.33411 -2.38996 0
M  V30 3055 H 315.67 -3.43172 -2.46967 0
M  V30 3056 H 313.388 -7.84977 -1.9193 0
M  V30 3057 H 316.974 -5.4736 -1.97201 0
M  V30 3058 H 315.854 -7.65504 -1.70217 0
M  V30 3059 N 313.357 1.07166 -1.15556 0
M  V30 3060 C 314.587 1.83248 -0.954133 0
M  V30 3061 C 314.995 1.82449 0.500911 0
M  V30 3062 O 314.338 1.23575 1.35923 0
M  V30 3063 C 314.4 3.31393 -1.39351 0
M  V30 3064 C 314.064 3.5591 -2.86666 0
M  V30 3065 C 315.061 3.49695 -3.8472 0
M  V30 3066 C 312.746 3.83515 -3.24379 0
M  V30 3067 C 314.74 3.70737 -5.18491 0
M  V30 3068 C 312.427 4.04209 -4.58321 0
M  V30 3069 C 313.425 3.97815 -5.55186 0
M  V30 3070 O 313.113 4.17954 -6.86709 0
M  V30 3071 H 312.845 0.584941 -0.338851 0
M  V30 3072 H 315.399 1.36169 -1.53777 0
M  V30 3073 H 313.629 3.79292 -0.75329 0
M  V30 3074 H 315.318 3.88945 -1.16089 0
M  V30 3075 H 316.084 3.28368 -3.56931 0
M  V30 3076 H 311.963 3.87605 -2.49567 0
M  V30 3077 H 315.507 3.65663 -5.94085 0
M  V30 3078 H 311.404 4.25023 -4.85825 0
M  V30 3079 H 312.172 4.35291 -6.93155 0
M  V30 3080 N 314.835 0.952656 1.25548 0
M  V30 3081 C 316.112 0.523818 1.88456 0
M  V30 3082 C 316.492 -0.998871 1.85973 0
M  V30 3083 O 315.84 -1.86381 1.3219 0
M  V30 3084 C 316.05 1.0982 3.31271 0
M  V30 3085 C 317.398 1.17385 4.08051 0
M  V30 3086 O 318.422 1.04961 3.40384 0
M  V30 3087 O 317.281 1.36852 5.29088 0
M  V30 3088 H 314.375 0.172485 0.808813 0
M  V30 3089 H 316.921 1.04596 1.33633 0
M  V30 3090 H 315.693 2.1415 3.27499 0
M  V30 3091 H 315.316 0.559191 3.93648 0
M  V30 3092 N 316.313 -1.40141 0.720998 0
M  V30 3093 C 317.261 -2.3252 0.0608547 0
M  V30 3094 C 318.255 -1.52326 -0.741152 0
M  V30 3095 O 319.461 -1.68089 -0.643911 0
M  V30 3096 H 315.836 -0.751999 0.000876664 0
M  V30 3097 H 317.807 -2.8584 0.856614 0
M  V30 3098 C 316.556 -3.37331 -0.842809 0
M  V30 3099 H 315.879 -3.99108 -0.235084 0
M  V30 3100 H 317.319 -4.04452 -1.27257 0
M  V30 3101 C 315.778 -2.73246 -1.97074 0
M  V30 3102 O 316.308 -2.59998 -3.06209 0
M  V30 3103 N 314.514 -2.31547 -1.75597 0
M  V30 3104 H 314.061 -2.42522 -0.868368 0
M  V30 3105 H 314.019 -1.89007 -2.51244 0
M  V30 3106 N 317.792 -0.46758 -1.50504 0
M  V30 3107 C 319.04 0.0884469 -2.01906 0
M  V30 3108 C 319.361 1.40532 -1.35188 0
M  V30 3109 O 318.631 1.89515 -0.496079 0
M  V30 3110 H 317.211 0.0356765 -0.746148 0
M  V30 3111 H 319.873 -0.6172 -1.84869 0
M  V30 3112 H 318.969 0.2425 -3.11156 0
M  V30 3113 N 319.27 1.56325 -0.20005 0
M  V30 3114 C 320.2 2.22318 0.713916 0
M  V30 3115 C 321.181 1.18788 1.21752 0
M  V30 3116 O 322.366 1.47309 1.26545 0
M  V30 3117 C 319.496 2.88639 1.93144 0
M  V30 3118 C 318.45 3.98457 1.56255 0
M  V30 3119 C 317.776 4.51967 2.85709 0
M  V30 3120 C 319.076 5.16612 0.768747 0
M  V30 3121 H 320.77 2.98952 0.163755 0
M  V30 3122 H 318.316 1.43792 0.0773219 0
M  V30 3123 H 320.269 3.33491 2.57608 0
M  V30 3124 H 318.993 2.09419 2.50621 0
M  V30 3125 H 317.652 3.54305 0.941471 0
M  V30 3126 H 317.3 3.69503 3.41287 0
M  V30 3127 H 317 5.26071 2.6177 0
M  V30 3128 H 318.524 4.99523 3.51154 0
M  V30 3129 H 319.938 5.57977 1.3166 0
M  V30 3130 H 318.335 5.96812 0.627286 0
M  V30 3131 H 319.405 4.84358 -0.229168 0
M  V30 3132 N 320.748 -0.0735177 1.57428 0
M  V30 3133 C 321.973 -0.789787 1.91774 0
M  V30 3134 C 322.398 -1.70413 0.796306 0
M  V30 3135 O 321.756 -1.79555 -0.250961 0
M  V30 3136 C 321.804 -1.5609 3.25067 0
M  V30 3137 O 320.908 -2.67144 3.14178 0
M  V30 3138 H 320.249 -0.215582 0.628029 0
M  V30 3139 H 322.779 -0.0422781 2.04556 0
M  V30 3140 H 322.789 -1.94052 3.58898 0
M  V30 3141 H 321.464 -0.890015 4.06265 0
M  V30 3142 H 320.041 -2.32052 2.91901 0
M  V30 3143 N 322.226 -1.5378 -0.344866 0
M  V30 3144 C 323.454 -1.74899 -1.10534 0
M  V30 3145 C 323.869 -0.487534 -1.82397 0
M  V30 3146 O 323.226 0.540741 -1.74305 0
M  V30 3147 C 323.277 -2.92822 -2.11984 0
M  V30 3148 O 322.998 -4.14089 -1.43044 0
M  V30 3149 C 324.499 -3.25982 -3.00417 0
M  V30 3150 H 321.719 -0.584426 -0.329678 0
M  V30 3151 H 324.263 -2.006 -0.397474 0
M  V30 3152 H 322.418 -2.69457 -2.78338 0
M  V30 3153 H 322.832 -4.80272 -2.10805 0
M  V30 3154 H 324.306 -4.11848 -3.67539 0
M  V30 3155 H 324.783 -2.42228 -3.66363 0
M  V30 3156 H 325.389 -3.51349 -2.39654 0
M  V30 3157 N 323.704 0.605807 -1.45491 0
M  V30 3158 C 324.667 1.69836 -1.5391 0
M  V30 3159 C 325.667 1.55261 -0.418424 0
M  V30 3160 O 326.857 1.60296 -0.681965 0
M  V30 3161 C 323.989 3.09117 -1.43734 0
M  V30 3162 H 325.182 1.63738 -2.51257 0
M  V30 3163 H 322.735 0.821689 -1.32959 0
M  V30 3164 H 323.47 3.20791 -0.475788 0
M  V30 3165 H 323.255 3.21104 -2.25021 0
M  V30 3166 H 324.745 3.88696 -1.52661 0
M  V30 3167 N 325.182 1.32811 0.848464 0
M  V30 3168 C 326.43 1.23479 1.59991 0
M  V30 3169 C 326.751 -0.201853 1.93952 0
M  V30 3170 O 326.021 -1.12818 1.60153 0
M  V30 3171 H 324.601 0.454034 0.593179 0
M  V30 3172 H 327.263 1.66412 1.01455 0
M  V30 3173 H 326.359 1.82178 2.53412 0
M  V30 3174 N 326.66 -1.06551 1.16123 0
M  V30 3175 C 327.937 -1.76097 0.85142 0
M  V30 3176 C 328.317 -2.00802 -0.6513 0
M  V30 3177 O 327.665 -1.63302 -1.59827 0
M  V30 3178 C 327.875 -3.06384 1.67122 0
M  V30 3179 C 329.223 -3.80585 1.88255 0
M  V30 3180 O 330.247 -3.16218 1.63966 0
M  V30 3181 O 329.106 -4.96212 2.2899 0
M  V30 3182 H 326.2 -0.765102 0.313923 0
M  V30 3183 H 328.746 -1.12844 1.26745 0
M  V30 3184 H 327.518 -2.84071 2.69108 0
M  V30 3185 H 327.141 -3.77371 1.25206 0
M  V30 3186 N 328.138 -0.959301 -1.25041 0
M  V30 3187 C 329.07 -0.440543 -2.24926 0
M  V30 3188 C 330.083 0.446131 -1.56568 0
M  V30 3189 O 331.272 0.253657 -1.76689 0
M  V30 3190 C 328.372 0.38412 -3.36716 0
M  V30 3191 C 327.545 -0.490658 -4.34639 0
M  V30 3192 C 326.604 0.276587 -5.25473 0
M  V30 3193 O 325.63 -0.326614 -5.68262 0
M  V30 3194 N 326.832 1.56844 -5.5891 0
M  V30 3195 H 329.597 -1.29931 -2.70071 0
M  V30 3196 H 327.158 -0.830181 -1.38995 0
M  V30 3197 H 329.15 0.905228 -3.94446 0
M  V30 3198 H 327.72 1.14377 -2.90924 0
M  V30 3199 H 326.94 -1.19282 -3.7572 0
M  V30 3200 H 328.228 -1.08756 -4.97041 0
M  V30 3201 H 327.626 2.08036 -5.26059 0
M  V30 3202 H 326.183 2.03541 -6.19205 0
M  V30 3203 N 329.616 1.39756 -0.72842 0
M  V30 3204 C 330.862 2.00942 -0.273892 0
M  V30 3205 C 331.195 1.57656 1.13394 0
M  V30 3206 O 330.47 0.802434 1.77176 0
M  V30 3207 C 330.753 3.58211 -0.368346 0
M  V30 3208 C 330.606 4.11534 -1.81548 0
M  V30 3209 C 331.925 4.39372 0.253054 0
M  V30 3210 H 329.044 0.730047 -0.100996 0
M  V30 3211 H 331.686 1.66056 -0.923337 0
M  V30 3212 H 329.836 3.88061 0.184588 0
M  V30 3213 H 331.508 3.92431 -2.42478 0
M  V30 3214 H 329.751 3.65341 -2.33898 0
M  V30 3215 H 330.422 5.20682 -1.83288 0
M  V30 3216 H 332.898 4.15527 -0.218224 0
M  V30 3217 H 331.774 5.48677 0.156585 0
M  V30 3218 H 332.035 4.21358 1.33826 0
M  V30 3219 N 331.094 0.475555 1.50254 0
M  V30 3220 C 332.322 -0.0754493 2.06762 0
M  V30 3221 C 332.737 -1.33111 1.33891 0
M  V30 3222 O 332.094 -1.77846 0.40952 0
M  V30 3223 C 332.145 -0.359008 3.59713 0
M  V30 3224 O 331.866 0.846851 4.29837 0
M  V30 3225 C 333.367 -0.956484 4.32858 0
M  V30 3226 H 330.587 0.00907525 0.670939 0
M  V30 3227 H 333.131 0.665618 1.93364 0
M  V30 3228 H 331.286 -1.05001 3.72899 0
M  V30 3229 H 331.7 0.594162 5.21124 0
M  V30 3230 H 333.174 -1.10463 5.40834 0
M  V30 3231 H 333.651 -1.94775 3.93649 0
M  V30 3232 H 334.257 -0.303723 4.24214 0
M  V30 3233 N 332.573 -1.56217 0.208337 0
M  V30 3234 C 333.503 -2.22694 -0.702116 0
M  V30 3235 C 334.484 -1.19432 -1.2112 0
M  V30 3236 O 335.669 -1.47978 -1.25762 0
M  V30 3237 C 332.799 -2.8966 -1.9161 0
M  V30 3238 C 331.753 -3.9928 -1.5414 0
M  V30 3239 C 331.079 -4.53476 -2.83308 0
M  V30 3240 C 332.379 -5.17012 -0.741339 0
M  V30 3241 H 334.073 -2.99034 -0.147898 0
M  V30 3242 H 331.619 -1.43831 -0.0696951 0
M  V30 3243 H 333.572 -3.34852 -2.55836 0
M  V30 3244 H 332.296 -2.10746 -2.49507 0
M  V30 3245 H 330.955 -3.54799 -0.922668 0
M  V30 3246 H 330.603 -3.71308 -3.39322 0
M  V30 3247 H 330.303 -5.27451 -2.58976 0
M  V30 3248 H 331.827 -5.01378 -3.485 0
M  V30 3249 H 333.241 -5.58667 -1.28699 0
M  V30 3250 H 331.638 -5.97137 -0.595627 0
M  V30 3251 H 332.708 -4.8423 0.254851 0
M  V30 3252 N 334.051 0.0651679 -1.57465 0
M  V30 3253 C 335.281 0.774683 -1.91526 0
M  V30 3254 C 335.689 1.71305 -0.803196 0
M  V30 3255 O 335.032 1.82231 0.231881 0
M  V30 3256 C 335.094 1.61645 -3.21109 0
M  V30 3257 C 334.758 0.846753 -4.49087 0
M  V30 3258 C 335.755 0.163024 -5.19644 0
M  V30 3259 C 333.44 0.811966 -4.95694 0
M  V30 3260 C 335.434 -0.54519 -6.35064 0
M  V30 3261 C 333.121 0.0999836 -6.11018 0
M  V30 3262 C 334.119 -0.577388 -6.80555 0
M  V30 3263 O 333.807 -1.27789 -7.93678 0
M  V30 3264 H 333.539 0.225031 -0.637446 0
M  V30 3265 H 336.093 0.0377134 -2.05365 0
M  V30 3266 H 334.323 2.39638 -3.03497 0
M  V30 3267 H 336.012 2.20525 -3.40769 0
M  V30 3268 H 336.778 0.181163 -4.84662 0
M  V30 3269 H 332.657 1.32867 -4.41438 0
M  V30 3270 H 336.201 -1.07446 -6.89276 0
M  V30 3271 H 332.098 0.0797945 -6.45451 0
M  V30 3272 H 332.866 -1.18784 -8.09835 0
M  V30 3273 N 335.529 1.53961 0.336706 0
M  V30 3274 C 336.777 1.71197 1.07405 0
M  V30 3275 C 337.098 0.481475 1.88962 0
M  V30 3276 O 336.368 -0.504585 1.8929 0
M  V30 3277 H 334.948 0.631185 0.399517 0
M  V30 3278 H 337.61 1.91232 0.376323 0
M  V30 3279 H 336.706 2.58587 1.74755 0
M  V30 3280 N 337.007 -0.598083 1.45811 0
M  V30 3281 C 337.955 -1.72932 1.55555 0
M  V30 3282 C 338.949 -1.63984 0.424921 0
M  V30 3283 O 340.155 -1.69663 0.601205 0
M  V30 3284 H 336.53 -0.571489 0.488779 0
M  V30 3285 H 338.501 -1.61842 2.50699 0
M  V30 3286 C 337.25 -3.11318 1.54843 0
M  V30 3287 H 336.573 -3.18867 2.41172 0
M  V30 3288 H 338.013 -3.90274 1.65717 0
M  V30 3289 C 336.472 -3.3578 0.274427 0
M  V30 3290 O 337.002 -3.9654 -0.641778 0
M  V30 3291 N 335.208 -2.90119 0.167139 0
M  V30 3292 H 334.755 -2.40855 0.913596 0
M  V30 3293 H 334.713 -3.0686 -0.684435 0
M  V30 3294 N 338.485 -1.33259 -0.841409 0
M  V30 3295 C 339.715 -1.2742 -1.62628 0
M  V30 3296 C 340.123 0.157604 -1.88542 0
M  V30 3297 O 339.466 1.10938 -1.46419 0
M  V30 3298 C 339.528 -1.97797 -3.00194 0
M  V30 3299 C 339.192 -3.47109 -2.97261 0
M  V30 3300 C 340.189 -4.42358 -2.73159 0
M  V30 3301 C 337.874 -3.89247 -3.17478 0
M  V30 3302 C 339.868 -5.77718 -2.69296 0
M  V30 3303 C 337.555 -5.24713 -3.13241 0
M  V30 3304 C 338.553 -6.1876 -2.89181 0
M  V30 3305 O 338.241 -7.51745 -2.84843 0
M  V30 3306 H 337.973 -0.440436 -0.512827 0
M  V30 3307 H 340.527 -1.76153 -1.05638 0
M  V30 3308 H 338.757 -1.43652 -3.59028 0
M  V30 3309 H 340.446 -1.8549 -3.61038 0
M  V30 3310 H 341.212 -4.11127 -2.57294 0
M  V30 3311 H 337.091 -3.16456 -3.35226 0
M  V30 3312 H 340.635 -6.51097 -2.50436 0
M  V30 3313 H 336.532 -5.55569 -3.28654 0
M  V30 3314 H 337.3 -7.61262 -3.00702 0
M  V30 3315 N 339.963 1.05934 -1.16686 0
M  V30 3316 C 340.926 2.11669 -0.879144 0
M  V30 3317 C 341.926 1.60294 0.127445 0
M  V30 3318 O 343.116 1.7389 -0.103865 0
M  V30 3319 C 340.248 3.39438 -0.315425 0
M  V30 3320 H 341.441 2.38626 -1.81653 0
M  V30 3321 H 338.994 1.22058 -0.976299 0
M  V30 3322 H 339.729 3.18132 0.629468 0
M  V30 3323 H 339.514 3.78034 -1.04079 0
M  V30 3324 H 341.004 4.17391 -0.132189 0
M  V30 3325 N 341.441 0.965919 1.2453 0
M  V30 3326 C 342.688 0.626831 1.92554 0
M  V30 3327 C 343.016 -0.837739 1.75534 0
M  V30 3328 O 342.271 -1.61793 1.10098 0
M  V30 3329 C 342.57 0.945428 3.44669 0
M  V30 3330 C 342.236 2.39785 3.81856 0
M  V30 3331 C 340.898 2.79483 3.91718 0
M  V30 3332 C 343.25 3.34055 4.00071 0
M  V30 3333 C 340.578 4.12496 4.1721 0
M  V30 3334 C 342.93 4.66694 4.27059 0
M  V30 3335 C 341.594 5.06172 4.3514 0
M  V30 3336 H 340.864 0.229374 0.704605 0
M  V30 3337 H 343.511 1.21707 1.4785 0
M  V30 3338 H 341.816 0.272926 3.90848 0
M  V30 3339 H 343.513 0.661484 3.95507 0
M  V30 3340 H 340.103 2.08003 3.74743 0
M  V30 3341 H 344.287 3.04571 3.91855 0
M  V30 3342 H 339.543 4.42709 4.21685 0
M  V30 3343 H 343.717 5.3971 4.40097 0
M  V30 3344 H 341.344 6.09262 4.54646 0
M  V30 3345 N 342.919 -1.39368 0.735821 0
M  V30 3346 C 344.167 -2.00101 0.283562 0
M  V30 3347 C 344.488 -1.5868 -1.13338 0
M  V30 3348 O 343.758 -0.835423 -1.77193 0
M  V30 3349 H 342.338 -0.740024 0.101851 0
M  V30 3350 H 345 -1.70404 0.945962 0
M  V30 3351 H 344.096 -3.10323 0.332604 0
M  V30 3352 N 344.397 -0.483516 -1.5 0
M  V30 3353 C 345.36 0.292965 -2.2732 0
M  V30 3354 C 346.36 0.909499 -1.32608 0
M  V30 3355 O 347.55 0.776745 -1.55924 0
M  V30 3356 C 344.682 1.41854 -3.09984 0
M  V30 3357 H 345.875 -0.385289 -2.97415 0
M  V30 3358 H 343.428 -0.237942 -1.54478 0
M  V30 3359 H 344.163 2.13148 -2.44414 0
M  V30 3360 H 343.948 0.982114 -3.79601 0
M  V30 3361 H 345.438 1.96597 -3.68429 0
M  V30 3362 N 345.875 1.56104 -0.216619 0
M  V30 3363 C 347.103 2.02563 0.421413 0
M  V30 3364 C 347.518 1.0965 1.53695 0
M  V30 3365 O 346.875 0.10521 1.82196 0
M  V30 3366 C 346.926 3.48584 0.957665 0
M  V30 3367 O 346.647 4.37953 -0.113389 0
M  V30 3368 C 348.148 4.10664 1.66943 0
M  V30 3369 H 345.368 0.662944 0.103665 0
M  V30 3370 H 347.912 2.01793 -0.331629 0
M  V30 3371 H 346.067 3.49985 1.661 0
M  V30 3372 H 346.481 5.23704 0.288932 0
M  V30 3373 H 347.955 5.14622 1.99671 0
M  V30 3374 H 348.432 3.55373 2.58083 0
M  V30 3375 H 349.038 4.13098 1.01142 0
M  V30 3376 N 347.353 -0.0568162 1.57498 0
M  V30 3377 C 348.581 -0.765626 1.92213 0
M  V30 3378 C 348.996 -1.70353 0.813961 0
M  V30 3379 O 348.353 -1.81268 -0.211701 0
M  V30 3380 C 348.404 -1.5465 3.2675 0
M  V30 3381 O 348.125 -0.646278 4.33307 0
M  V30 3382 C 349.626 -2.35497 3.75574 0
M  V30 3383 H 346.846 -0.216835 0.634999 0
M  V30 3384 H 349.39 -0.0226146 2.04487 0
M  V30 3385 H 347.545 -2.24165 3.15957 0
M  V30 3386 H 347.959 -1.19093 5.108 0
M  V30 3387 H 349.433 -2.85722 4.72299 0
M  V30 3388 H 349.91 -3.15692 3.05344 0
M  V30 3389 H 350.516 -1.7111 3.8936 0
M  V30 3390 N 348.832 -1.54138 -0.328536 0
M  V30 3391 C 350.078 -1.7236 -1.06865 0
M  V30 3392 C 350.411 -0.493231 -1.87832 0
M  V30 3393 O 349.686 0.5098 -1.877 0
M  V30 3394 C 349.969 -2.99621 -1.99747 0
M  V30 3395 C 349.822 -4.32899 -1.22143 0
M  V30 3396 C 351.141 -3.22615 -2.99345 0
M  V30 3397 H 348.26 -0.627151 -0.387105 0
M  V30 3398 H 350.902 -1.86827 -0.345767 0
M  V30 3399 H 349.052 -2.87418 -2.61387 0
M  V30 3400 H 350.724 -4.56978 -0.630017 0
M  V30 3401 H 348.967 -4.30628 -0.523628 0
M  V30 3402 H 349.638 -5.18154 -1.90318 0
M  V30 3403 H 352.114 -3.34248 -2.47826 0
M  V30 3404 H 350.99 -4.13027 -3.61524 0
M  V30 3405 H 351.251 -2.3961 -3.71536 0
M  V30 3406 N 350.31 0.590341 -1.46126 0
M  V30 3407 C 351.726 0.912917 -1.30912 0
M  V30 3408 C 351.926 1.99616 -0.274893 0
M  V30 3409 O 350.982 2.50397 0.325197 0
M  V30 3410 C 352.295 1.3375 -2.69317 0
M  V30 3411 C 353.843 1.45077 -2.77348 0
M  V30 3412 C 354.318 1.90904 -4.16317 0
M  V30 3413 N 355.809 1.9811 -4.18696 0
M  V30 3414 C 356.544 2.34828 -5.23109 0
M  V30 3415 N 356.04 2.70393 -6.37856 0
M  V30 3416 N 357.833 2.35317 -5.10473 0
M  V30 3417 H 349.984 -0.125358 -2.1203 0
M  V30 3418 H 352.247 0.00658481 -0.947977 0
M  V30 3419 H 351.953 0.615614 -3.4627 0
M  V30 3420 H 351.827 2.30058 -2.9892 0
M  V30 3421 H 354.214 2.16353 -2.00687 0
M  V30 3422 H 354.295 0.4704 -2.51438 0
M  V30 3423 H 353.939 1.20209 -4.9347 0
M  V30 3424 H 353.869 2.89886 -4.39629 0
M  V30 3425 H 356.36 1.73146 -3.359 0
M  V30 3426 H 356.673 2.97341 -7.13308 0
M  V30 3427 H 355.018 2.68048 -6.41229 0
M  V30 3428 H 358.209 2.0695 -4.19868 0
M  V30 3429 H 358.382 2.63605 -5.9196 0
M  V30 3430 N 351.788 1.33704 0.83433 0
M  V30 3431 C 352.751 1.24244 1.92603 0
M  V30 3432 C 353.751 0.160383 1.59998 0
M  V30 3433 O 354.941 0.412228 1.69252 0
M  V30 3434 C 352.073 0.91555 3.28376 0
M  V30 3435 H 353.266 2.21287 2.02416 0
M  V30 3436 H 350.819 1.17827 1.02696 0
M  V30 3437 H 351.554 -0.0521886 3.24258 0
M  V30 3438 H 351.339 1.69811 3.53422 0
M  V30 3439 H 352.829 0.874231 4.08347 0
M  V30 3440 N 353.266 -1.05314 1.17247 0
M  V30 3441 C 354.496 -1.81707 0.983166 0
M  V30 3442 C 354.904 -1.83222 -0.471822 0
M  V30 3443 O 354.247 -1.25721 -1.3394 0
M  V30 3444 C 354.309 -3.29134 1.44606 0
M  V30 3445 C 353.973 -3.51304 2.92292 0
M  V30 3446 C 354.97 -3.4353 3.90235 0
M  V30 3447 C 352.655 -3.78306 3.30439 0
M  V30 3448 C 354.649 -3.62442 5.24323 0
M  V30 3449 C 352.336 -3.96866 4.64694 0
M  V30 3450 C 353.334 -3.88933 5.61445 0
M  V30 3451 O 353.022 -4.06976 6.93272 0
M  V30 3452 H 352.754 -0.579476 0.348114 0
M  V30 3453 H 355.308 -1.33705 1.55924 0
M  V30 3454 H 353.538 -3.78046 0.813537 0
M  V30 3455 H 355.227 -3.87049 1.22262 0
M  V30 3456 H 355.993 -3.22648 3.62109 0
M  V30 3457 H 351.872 -3.83585 2.55702 0
M  V30 3458 H 355.416 -3.56165 5.99827 0
M  V30 3459 H 351.313 -4.1724 4.92525 0
M  V30 3460 H 352.081 -4.24209 6.99992 0
M  V30 3461 N 354.744 -0.972509 -1.24016 0
M  V30 3462 C 355.99 -0.637978 -1.92504 0
M  V30 3463 C 356.323 0.825383 -1.75787 0
M  V30 3464 O 355.598 1.59442 -1.11393 0
M  V30 3465 C 355.881 -1.01942 -3.45369 0
M  V30 3466 C 355.734 -2.53983 -3.71231 0
M  V30 3467 C 357.053 -0.55751 -4.36555 0
M  V30 3468 H 354.172 -0.233248 -0.699117 0
M  V30 3469 H 356.814 -1.21238 -1.46292 0
M  V30 3470 H 354.964 -0.530656 -3.84859 0
M  V30 3471 H 356.636 -3.10374 -3.41271 0
M  V30 3472 H 354.879 -2.96968 -3.16216 0
M  V30 3473 H 355.55 -2.75723 -4.78206 0
M  V30 3474 H 358.026 -0.977029 -4.04467 0
M  V30 3475 H 356.902 -0.85292 -5.42233 0
M  V30 3476 H 357.163 0.542328 -4.38761 0
M  V30 3477 N 356.222 1.38976 -0.743202 0
M  V30 3478 C 357.447 2.05161 -0.303936 0
M  V30 3479 C 357.872 1.55677 1.05576 0
M  V30 3480 O 357.23 0.704131 1.67068 0
M  V30 3481 C 357.278 3.59138 -0.324373 0
M  V30 3482 O 356.382 4.06668 0.685204 0
M  V30 3483 H 355.723 0.649815 -0.136518 0
M  V30 3484 H 358.253 1.77852 -1.01142 0
M  V30 3485 H 358.263 4.07639 -0.171618 0
M  V30 3486 H 356.938 3.94515 -1.31647 0
M  V30 3487 H 355.515 3.69561 0.497913 0
M  V30 3488 N 357.7 0.491464 1.49741 0
M  V30 3489 C 358.977 -0.118984 1.95238 0
M  V30 3490 C 359.357 -1.55044 1.43264 0
M  V30 3491 O 358.705 -2.19287 0.642287 0
M  V30 3492 C 358.915 -0.0414187 3.48975 0
M  V30 3493 C 360.263 -0.220133 4.24029 0
M  V30 3494 O 361.287 -0.117055 3.56008 0
M  V30 3495 O 360.146 -0.430567 5.44801 0
M  V30 3496 H 357.24 -0.100536 0.820866 0
M  V30 3497 H 359.786 0.553322 1.60426 0
M  V30 3498 H 358.558 0.957214 3.79412 0
M  V30 3499 H 358.181 -0.754292 3.9038 0
M  V30 3500 N 359.178 -1.55987 0.224894 0
M  V30 3501 C 360.427 -1.97566 -0.406273 0
M  V30 3502 C 360.74 -1.11569 -1.6066 0
M  V30 3503 O 361.946 -1.43062 -2.3075 0
M  V30 3504 C 360.402 -3.51474 -0.774207 0
M  V30 3505 C 360.01 -4.46179 0.403496 0
M  V30 3506 C 361.754 -4.01758 -1.37079 0
M  V30 3507 C 359.661 -5.91399 0.0129412 0
M  V30 3508 H 358.591 -0.737777 -0.155565 0
M  V30 3509 H 361.242 -1.80659 0.321635 0
M  V30 3510 H 359.624 -3.63994 -1.55963 0
M  V30 3511 H 360.798 -4.45409 1.18101 0
M  V30 3512 H 359.113 -4.06255 0.913536 0
M  V30 3513 H 361.71 -5.07756 -1.67596 0
M  V30 3514 H 362.053 -3.47805 -2.28773 0
M  V30 3515 H 362.586 -3.92475 -0.648733 0
M  V30 3516 H 359.325 -6.49341 0.896451 0
M  V30 3517 H 358.845 -5.95356 -0.728821 0
M  V30 3518 H 360.524 -6.45683 -0.412582 0
M  V30 3519 N 360.656 0.0484629 -1.57525 0
M  V30 3520 C 361.933 0.777447 -1.79486 0
M  V30 3521 C 362.313 1.94597 -0.818251 0
M  V30 3522 O 361.661 2.28047 0.143767 0
M  V30 3523 C 361.871 1.22864 -3.26658 0
M  V30 3524 C 363.219 1.65251 -3.91123 0
M  V30 3525 O 364.243 1.32372 -3.3069 0
M  V30 3526 O 363.102 2.26207 -4.97486 0
M  V30 3527 H 360.196 0.374357 -0.737419 0
M  V30 3528 H 362.742 0.0267359 -1.69679 0
M  V30 3529 H 361.514 0.393589 -3.89316 0
M  V30 3530 H 361.137 2.03996 -3.41279 0
M  V30 3531 N 362.134 1.5431 0.320358 0
M  V30 3532 C 363.55 1.45091 0.664889 0
M  V30 3533 C 363.75 0.626382 1.91517 0
M  V30 3534 O 362.806 0.126443 2.52183 0
M  V30 3535 C 364.119 2.88848 0.83591 0
M  V30 3536 C 365.667 2.9877 0.933046 0
M  V30 3537 C 366.142 4.43683 1.13621 0
M  V30 3538 N 367.633 4.47309 1.20287 0
M  V30 3539 C 368.368 5.56595 1.37801 0
M  V30 3540 N 367.864 6.75844 1.52338 0
M  V30 3541 N 369.657 5.44248 1.40535 0
M  V30 3542 H 361.808 2.06398 -0.501374 0
M  V30 3543 H 364.071 0.933963 -0.162534 0
M  V30 3544 H 363.777 3.51698 -0.0116092 0
M  V30 3545 H 363.651 3.35148 1.73078 0
M  V30 3546 H 366.038 2.36045 1.77107 0
M  V30 3547 H 366.119 2.55796 0.0145782 0
M  V30 3548 H 365.763 5.06995 0.303032 0
M  V30 3549 H 365.693 4.84269 2.0686 0
M  V30 3550 H 368.184 3.61388 1.10485 0
M  V30 3551 H 368.497 7.54892 1.65403 0
M  V30 3552 H 366.842 6.78746 1.4943 0
M  V30 3553 H 370.033 4.50038 1.28777 0
M  V30 3554 H 370.206 6.29473 1.53842 0
M  V30 3555 N 363.613 -0.582584 1.46437 0
M  V30 3556 C 364.576 -1.67366 1.56592 0
M  V30 3557 C 365.576 -1.54575 0.443072 0
M  V30 3558 O 366.766 -1.59191 0.707381 0
M  V30 3559 C 363.898 -3.06791 1.48634 0
M  V30 3560 H 365.091 -1.5972 2.5383 0
M  V30 3561 H 362.644 -0.800432 1.34249 0
M  V30 3562 H 363.379 -3.19993 0.526763 0
M  V30 3563 H 363.164 -3.17484 2.30101 0
M  V30 3564 H 364.654 -3.86218 1.58826 0
M  V30 3565 N 365.091 -1.34144 -0.827227 0
M  V30 3566 C 366.339 -1.26009 -1.58007 0
M  V30 3567 C 366.66 0.170971 -1.94249 0
M  V30 3568 O 365.93 1.10256 -1.61927 0
M  V30 3569 H 364.51 -0.463414 -0.585881 0
M  V30 3570 H 367.172 -1.68005 -0.987951 0
M  V30 3571 H 366.268 -1.86187 -2.50481 0
M  V30 3572 N 366.569 1.04691 -1.17803 0
M  V30 3573 C 367.532 2.10724 -0.901545 0
M  V30 3574 C 368.532 1.6042 0.110437 0
M  V30 3575 O 369.722 1.7377 -0.122303 0
M  V30 3576 C 366.854 3.39084 -0.351409 0
M  V30 3577 H 368.047 2.36686 -1.84174 0
M  V30 3578 H 365.6 1.21015 -0.98919 0
M  V30 3579 H 366.335 3.18782 0.59569 0
M  V30 3580 H 366.12 3.76909 -1.08083 0
M  V30 3581 H 367.61 4.17227 -0.176451 0
M  V30 3582 N 368.047 0.979072 1.23499 0
M  V30 3583 C 369.324 0.563674 1.87302 0
M  V30 3584 C 369.704 -0.959199 1.88049 0
M  V30 3585 O 369.052 -1.83535 1.36114 0
M  V30 3586 C 369.262 1.16822 3.28867 0
M  V30 3587 C 370.61 1.26014 4.0547 0
M  V30 3588 O 371.634 1.12158 3.38082 0
M  V30 3589 O 370.493 1.48044 5.26066 0
M  V30 3590 H 367.587 0.189602 0.804972 0
M  V30 3591 H 370.133 1.07407 1.31384 0
M  V30 3592 H 368.905 2.21049 3.22883 0
M  V30 3593 H 368.528 0.642564 3.92373 0
M  V30 3594 N 369.525 -1.3858 0.750561 0
M  V30 3595 C 370.753 -2.04471 0.316098 0
M  V30 3596 C 371.168 -1.56606 -1.05452 0
M  V30 3597 O 370.525 -0.737784 -1.66922 0
M  V30 3598 C 370.576 -3.60025 0.326275 0
M  V30 3599 O 370.297 -4.06133 1.6428 0
M  V30 3600 C 371.798 -4.43131 -0.122429 0
M  V30 3601 H 369.018 -0.65717 0.135528 0
M  V30 3602 H 371.562 -1.77329 1.01857 0
M  V30 3603 H 369.717 -3.86014 -0.327431 0
M  V30 3604 H 370.131 -5.00547 1.56693 0
M  V30 3605 H 371.605 -5.51963 -0.0641473 0
M  V30 3606 H 372.082 -4.23333 -1.16988 0
M  V30 3607 H 372.688 -4.22323 0.50229 0
M  V30 3608 N 371.003 -0.499398 -1.49478 0
M  V30 3609 C 371.966 0.268838 -2.27618 0
M  V30 3610 C 372.966 0.895383 -1.33565 0
M  V30 3611 O 374.156 0.760164 -1.56739 0
M  V30 3612 C 371.288 1.38559 -3.11471 0
M  V30 3613 H 372.481 -0.416812 -2.96989 0
M  V30 3614 H 370.034 -0.254313 -1.54217 0
M  V30 3615 H 370.769 2.10544 -2.46661 0
M  V30 3616 H 370.554 0.941797 -3.80621 0
M  V30 3617 H 372.044 1.92678 -3.70493 0
M  V30 3618 N 372.481 1.55866 -0.233164 0
M  V30 3619 C 373.711 2.02704 0.399325 0
M  V30 3620 C 374.119 1.11204 1.53069 0
M  V30 3621 O 373.462 0.116182 1.83332 0
M  V30 3622 C 373.524 3.45844 0.981429 0
M  V30 3623 C 373.188 4.56997 -0.0159561 0
M  V30 3624 C 374.185 5.13384 -0.820552 0
M  V30 3625 C 371.87 5.0211 -0.138072 0
M  V30 3626 C 373.864 6.13365 -1.73386 0
M  V30 3627 C 371.551 6.01926 -1.0549 0
M  V30 3628 C 372.549 6.57431 -1.85132 0
M  V30 3629 O 372.237 7.55302 -2.75272 0
M  V30 3630 H 371.969 0.668459 0.100692 0
M  V30 3631 H 374.523 2.02387 -0.35052 0
M  V30 3632 H 372.753 3.43267 1.78058 0
M  V30 3633 H 374.442 3.76262 1.52255 0
M  V30 3634 H 375.208 4.79372 -0.736721 0
M  V30 3635 H 371.087 4.5858 0.471737 0
M  V30 3636 H 374.631 6.56614 -2.35592 0
M  V30 3637 H 370.528 6.35359 -1.1397 0
M  V30 3638 H 371.296 7.72867 -2.69477 0
M  V30 3639 N 373.959 -0.0401083 1.57549 0
M  V30 3640 C 375.207 -0.731677 1.8839 0
M  V30 3641 C 375.528 -1.76481 0.829425 0
M  V30 3642 O 374.798 -1.95411 -0.1383 0
M  V30 3643 H 373.378 -0.273225 0.695239 0
M  V30 3644 H 376.04 -0.00867725 1.94898 0
M  V30 3645 H 375.136 -1.22816 2.86919 0
M  V30 3646 N 375.437 -1.54477 -0.31217 0
M  V30 3647 C 376.686 -1.72438 -1.04633 0
M  V30 3648 C 376.999 -0.511163 -1.88803 0
M  V30 3649 O 378.205 -0.572341 -2.65399 0
M  V30 3650 C 376.661 -3.05043 -1.9099 0
M  V30 3651 C 376.269 -4.33806 -1.11877 0
M  V30 3652 C 378.013 -3.32364 -2.64073 0
M  V30 3653 C 375.92 -5.57467 -1.97445 0
M  V30 3654 H 374.85 -0.642647 -0.394361 0
M  V30 3655 H 377.501 -1.80966 -0.303929 0
M  V30 3656 H 375.883 -2.90451 -2.69173 0
M  V30 3657 H 377.057 -4.59199 -0.383843 0
M  V30 3658 H 375.372 -4.13336 -0.504252 0
M  V30 3659 H 377.969 -4.21951 -3.28423 0
M  V30 3660 H 378.312 -2.50745 -3.32314 0
M  V30 3661 H 378.845 -3.47875 -1.92944 0
M  V30 3662 H 375.584 -6.41722 -1.33692 0
M  V30 3663 H 375.104 -5.36277 -2.6864 0
M  V30 3664 H 376.783 -5.94303 -2.5576 0
M  V30 3665 N 376.915 0.57481 -1.46744 0
M  V30 3666 C 378.163 1.33009 -1.52161 0
M  V30 3667 C 378.484 1.94185 -0.178092 0
M  V30 3668 O 377.754 1.7899 0.796196 0
M  V30 3669 H 376.334 0.493873 -0.560445 0
M  V30 3670 H 378.996 0.672589 -1.82927 0
M  V30 3671 H 378.092 2.13273 -2.27862 0
M  V30 3672 N 378.394 1.34581 0.820102 0
M  V30 3673 C 379.357 1.2628 1.91275 0
M  V30 3674 C 380.357 0.177344 1.59819 0
M  V30 3675 O 381.547 0.430156 1.68806 0
M  V30 3676 C 378.679 0.950327 3.27386 0
M  V30 3677 H 379.872 2.23421 2.00057 0
M  V30 3678 H 377.425 1.1891 1.0144 0
M  V30 3679 H 378.16 -0.0177938 3.24295 0
M  V30 3680 H 377.945 1.73549 3.51601 0
M  V30 3681 H 379.435 0.917492 4.07396 0
M  V30 3682 N 379.872 -1.04064 1.18357 0
M  V30 3683 C 381.149 -1.74252 0.888581 0
M  V30 3684 C 381.529 -2.02138 -0.60856 0
M  V30 3685 O 380.877 -1.66656 -1.56327 0
M  V30 3686 C 381.087 -3.0277 1.73584 0
M  V30 3687 C 382.435 -3.76506 1.96286 0
M  V30 3688 O 383.459 -3.12668 1.70637 0
M  V30 3689 O 382.318 -4.91243 2.39464 0
M  V30 3690 H 379.412 -0.758271 0.330082 0
M  V30 3691 H 381.958 -1.1013 1.2911 0
M  V30 3692 H 380.73 -2.78299 2.75073 0
M  V30 3693 H 380.353 -3.74631 1.33183 0
M  V30 3694 N 381.35 -0.985608 -1.22978 0
M  V30 3695 C 382.58 -0.674603 -1.95276 0
M  V30 3696 C 382.988 0.763483 -1.73111 0
M  V30 3697 O 382.331 1.52601 -1.02268 0
M  V30 3698 C 382.393 -0.891597 -3.48268 0
M  V30 3699 C 382.057 -2.31275 -3.94158 0
M  V30 3700 C 383.054 -3.29179 -4.02415 0
M  V30 3701 C 380.739 -2.64524 -4.27004 0
M  V30 3702 C 382.733 -4.58407 -4.42879 0
M  V30 3703 C 380.42 -3.93974 -4.67149 0
M  V30 3704 C 381.418 -4.90727 -4.75053 0
M  V30 3705 O 381.106 -6.17865 -5.14294 0
M  V30 3706 H 380.838 -0.249251 -0.628371 0
M  V30 3707 H 383.392 -1.32106 -1.5728 0
M  V30 3708 H 381.622 -0.187962 -3.86243 0
M  V30 3709 H 383.311 -0.576957 -4.01779 0
M  V30 3710 H 384.077 -3.04823 -3.77237 0
M  V30 3711 H 379.956 -1.89923 -4.2006 0
M  V30 3712 H 383.5 -5.33926 -4.48964 0
M  V30 3713 H 379.397 -4.18122 -4.91777 0
M  V30 3714 H 380.165 -6.21694 -5.32389 0
M  V30 3715 N 382.828 1.3818 -0.7579 0
M  V30 3716 C 383.76 2.2901 -0.0932177 0
M  V30 3717 C 384.773 1.47958 0.679136 0
M  V30 3718 O 385.962 1.70773 0.519514 0
M  V30 3719 C 383.062 3.26953 0.89192 0
M  V30 3720 C 382.235 4.37045 0.176303 0
M  V30 3721 C 381.294 5.15148 1.07281 0
M  V30 3722 O 380.32 5.66616 0.541728 0
M  V30 3723 N 381.522 5.28542 2.40049 0
M  V30 3724 H 384.287 2.86694 -0.873303 0
M  V30 3725 H 381.848 1.50007 -0.609054 0
M  V30 3726 H 383.84 3.76083 1.49479 0
M  V30 3727 H 382.41 2.70136 1.57306 0
M  V30 3728 H 381.63 3.89493 -0.607328 0
M  V30 3729 H 382.918 5.07801 -0.318718 0
M  V30 3730 H 382.316 4.88285 2.85647 0
M  V30 3731 H 380.873 5.8103 2.95376 0
M  V30 3732 N 384.306 0.507319 1.49211 0
M  V30 3733 C 385.553 -0.0349529 2.0247 0
M  V30 3734 C 385.881 -1.36409 1.38647 0
M  V30 3735 O 385.136 -1.88841 0.513566 0
M  V30 3736 C 385.435 -0.229513 3.56662 0
M  V30 3737 C 385.101 1.02241 4.39156 0
M  V30 3738 C 383.763 1.36557 4.61417 0
M  V30 3739 C 386.115 1.85428 4.871 0
M  V30 3740 C 383.443 2.53999 5.28868 0
M  V30 3741 C 385.795 3.02028 5.55843 0
M  V30 3742 C 384.459 3.36717 5.76349 0
M  V30 3743 H 383.729 -0.0127902 0.74089 0
M  V30 3744 H 386.376 0.668756 1.79443 0
M  V30 3745 H 384.681 -1.0158 3.78403 0
M  V30 3746 H 386.378 -0.663641 3.9547 0
M  V30 3747 H 382.968 0.745124 4.22073 0
M  V30 3748 H 387.152 1.6023 4.69723 0
M  V30 3749 H 382.408 2.81105 5.42946 0
M  V30 3750 H 386.582 3.66808 5.91967 0
M  V30 3751 H 384.209 4.27821 6.28389 0
M  V30 3752 N 385.784 -1.5574 0.241426 0
M  V30 3753 C 386.747 -2.19877 -0.647063 0
M  V30 3754 C 387.747 -1.16642 -1.10686 0
M  V30 3755 O 388.937 -1.41757 -1.01245 0
M  V30 3756 C 386.069 -2.83797 -1.88871 0
M  V30 3757 H 387.262 -2.99772 -0.087574 0
M  V30 3758 H 384.815 -1.56298 -0.00813574 0
M  V30 3759 H 385.55 -2.07824 -2.48957 0
M  V30 3760 H 385.335 -3.59414 -1.56728 0
M  V30 3761 H 386.825 -3.32898 -2.52129 0
M  V30 3762 N 387.262 0.0317525 -1.57568 0
M  V30 3763 C 388.172 1.05021 -2.0978 0
M  V30 3764 C 389.188 1.39809 -1.03583 0
M  V30 3765 O 390.364 1.49182 -1.35302 0
M  V30 3766 C 387.429 2.33301 -2.56459 0
M  V30 3767 C 386.49 2.0512 -3.77127 0
M  V30 3768 C 385.723 3.27283 -4.2157 0
M  V30 3769 O 385.946 4.37861 -3.65559 0
M  V30 3770 O 384.88 3.13141 -5.14029 0
M  V30 3771 H 388.706 0.636505 -2.96955 0
M  V30 3772 H 386.291 0.248559 -1.47318 0
M  V30 3773 H 388.173 3.08722 -2.86825 0
M  V30 3774 H 386.848 2.73973 -1.72397 0
M  V30 3775 H 385.755 1.27276 -3.51784 0
M  V30 3776 H 387.088 1.69305 -4.62165 0
M  V30 3777 N 388.74 1.54641 0.303973 0
M  V30 3778 C 389.988 1.73437 1.0375 0
M  V30 3779 C 390.309 0.521449 1.87899 0
M  V30 3780 O 389.579 -0.46432 1.90318 0
M  V30 3781 H 388.159 0.639518 0.386039 0
M  V30 3782 H 390.821 1.91988 0.335675 0
M  V30 3783 H 389.917 2.62235 1.69231 0
M  V30 3784 N 390.218 -0.567019 1.47046 0
M  V30 3785 C 391.464 -1.32658 1.53394 0
M  V30 3786 C 391.797 -1.93254 0.19148 0
M  V30 3787 O 391.072 -1.77338 -0.798844 0
M  V30 3788 C 391.355 -2.44412 2.64452 0
M  V30 3789 C 391.208 -1.88749 4.08282 0
M  V30 3790 C 392.527 -3.46387 2.71485 0
M  V30 3791 H 389.646 -0.48098 0.558415 0
M  V30 3792 H 392.288 -0.635481 1.79058 0
M  V30 3793 H 390.438 -3.03363 2.427 0
M  V30 3794 H 392.11 -1.34134 4.41368 0
M  V30 3795 H 390.353 -1.19481 4.17021 0
M  V30 3796 H 391.024 -2.69491 4.81745 0
M  V30 3797 H 393.5 -2.9734 2.91081 0
M  V30 3798 H 392.376 -4.2202 3.50985 0
M  V30 3799 H 392.637 -4.04616 1.78153 0
M  V30 3800 N 391.696 -1.35014 -0.812953 0
M  V30 3801 C 392.643 -1.27412 -1.92444 0
M  V30 3802 C 393.613 -0.14733 -1.65445 0
M  V30 3803 O 394.798 -0.329974 -1.87925 0
M  V30 3804 C 391.938 -1.04558 -3.28879 0
M  V30 3805 C 391.051 -2.26101 -3.68106 0
M  V30 3806 C 390.186 -1.96449 -4.9354 0
M  V30 3807 C 389.225 -3.14081 -5.25376 0
M  V30 3808 N 388.362 -2.84246 -6.41988 0
M  V30 3809 H 393.202 -2.22463 -1.98278 0
M  V30 3810 H 390.739 -1.10593 -0.969933 0
M  V30 3811 H 392.697 -0.893413 -4.07522 0
M  V30 3812 H 391.327 -0.131719 -3.22531 0
M  V30 3813 H 390.379 -2.52204 -2.84775 0
M  V30 3814 H 391.691 -3.13959 -3.87597 0
M  V30 3815 H 390.845 -1.78026 -5.79993 0
M  V30 3816 H 389.584 -1.05867 -4.76071 0
M  V30 3817 H 388.589 -3.33089 -4.37415 0
M  V30 3818 H 389.814 -4.05455 -5.44778 0
M  V30 3819 H 387.76 -1.96252 -6.25956 0
M  V30 3820 H 387.677 -3.65637 -6.61699 0
M  V30 3821 H 388.945 -2.6935 -7.31485 0
M  V30 3822 N 393.175 1.03435 -1.18907 0
M  V30 3823 C 394.421 1.77005 -0.989798 0
M  V30 3824 C 394.754 1.88205 0.478816 0
M  V30 3825 O 394.029 1.39481 1.35556 0
M  V30 3826 C 394.312 3.19925 -1.65287 0
M  V30 3827 C 394.165 3.1663 -3.19477 0
M  V30 3828 C 395.484 4.18189 -1.37134 0
M  V30 3829 H 392.603 0.642538 -0.360991 0
M  V30 3830 H 395.245 1.20784 -1.46667 0
M  V30 3831 H 393.395 3.67929 -1.24741 0
M  V30 3832 H 395.067 2.76567 -3.692 0
M  V30 3833 H 393.31 2.54491 -3.51307 0
M  V30 3834 H 393.981 4.1758 -3.61013 0
M  V30 3835 H 396.457 3.78761 -1.72276 0
M  V30 3836 H 395.333 5.16394 -1.86087 0
M  V30 3837 H 395.594 4.41112 -0.295424 0
M  V30 3838 N 394.653 0.992116 1.22453 0
M  V30 3839 C 395.878 0.685644 1.95739 0
M  V30 3840 C 396.303 -0.743 1.72804 0
M  V30 3841 O 395.661 -1.50778 1.00676 0
M  V30 3842 C 395.709 0.996293 3.46564 0
M  V30 3843 O 394.813 0.0945512 4.12292 0
M  V30 3844 H 394.154 0.256694 0.612376 0
M  V30 3845 H 396.684 1.32888 1.5557 0
M  V30 3846 H 396.694 0.93781 3.97076 0
M  V30 3847 H 395.369 2.03733 3.62582 0
M  V30 3848 H 393.946 0.208451 3.72317 0
M  V30 3849 N 396.131 -1.37776 0.765217 0
M  V30 3850 C 397.379 -1.99454 0.325943 0
M  V30 3851 C 397.7 -1.61049 -1.09947 0
M  V30 3852 O 396.97 -0.872821 -1.75381 0
M  V30 3853 H 395.55 -0.737697 0.117525 0
M  V30 3854 H 398.212 -1.68359 0.981895 0
M  V30 3855 H 397.308 -3.09547 0.398353 0
M  V30 3856 N 397.609 -0.515225 -1.4894 0
M  V30 3857 C 398.834 0.022727 -2.07388 0
M  V30 3858 C 399.259 1.2876 -1.37122 0
M  V30 3859 O 398.617 1.76067 -0.432431 0
M  V30 3860 C 398.665 0.244869 -3.59768 0
M  V30 3861 O 397.769 1.31667 -3.90817 0
M  V30 3862 H 397.11 -0.0325506 -0.663202 0
M  V30 3863 H 399.64 -0.718918 -1.91553 0
M  V30 3864 H 399.65 0.47205 -4.0526 0
M  V30 3865 H 398.325 -0.679194 -4.10317 0
M  V30 3866 H 396.902 1.07331 -3.5712 0
M  V30 3867 N 399.087 1.5561 -0.249682 0
M  V30 3868 C 400.333 1.99306 0.374841 0
M  V30 3869 C 400.666 1.13767 1.57387 0
M  V30 3870 O 399.941 0.201711 1.93451 0
M  V30 3871 C 400.224 3.51507 0.781986 0
M  V30 3872 C 400.077 4.4781 -0.422629 0
M  V30 3873 C 401.396 4.08884 1.62793 0
M  V30 3874 H 398.515 0.724572 0.134773 0
M  V30 3875 H 401.157 1.86719 -0.351549 0
M  V30 3876 H 399.307 3.62363 1.4009 0
M  V30 3877 H 400.979 4.48931 -1.06108 0
M  V30 3878 H 399.222 4.20518 -1.06524 0
M  V30 3879 H 399.893 5.51919 -0.0943766 0
M  V30 3880 H 402.369 4.01147 1.10547 0
M  V30 3881 H 401.245 5.1564 1.88166 0
M  V30 3882 H 401.506 3.57515 2.60068 0
M  V30 3883 N 400.565 -0.0233959 1.57583 0
M  V30 3884 C 401.497 -1.04994 2.03737 0
M  V30 3885 C 402.51 -1.32125 0.951152 0
M  V30 3886 O 403.699 -1.29512 1.22837 0
M  V30 3887 C 400.799 -2.39026 2.40249 0
M  V30 3888 C 399.972 -2.31171 3.7132 0
M  V30 3889 C 399.031 -3.47698 3.94959 0
M  V30 3890 O 398.057 -3.26937 4.65941 0
M  V30 3891 N 399.259 -4.6976 3.41037 0
M  V30 3892 H 402.024 -0.656507 2.92421 0
M  V30 3893 H 399.585 -0.211235 1.60516 0
M  V30 3894 H 401.577 -3.15712 2.53196 0
M  V30 3895 H 400.147 -2.70194 1.57207 0
M  V30 3896 H 399.367 -1.39547 3.68674 0
M  V30 3897 H 400.655 -2.23071 4.57293 0
M  V30 3898 H 400.053 -4.89528 2.83512 0
M  V30 3899 H 398.61 -5.43791 3.59353 0
M  V30 3900 N 402.043 -1.548 -0.295768 0
M  V30 3901 C 403.268 -1.78653 -1.05346 0
M  V30 3902 C 403.693 -0.546894 -1.79974 0
M  V30 3903 O 403.051 0.502763 -1.7419 0
M  V30 3904 C 403.099 -2.99679 -2.00561 0
M  V30 3905 O 402.203 -2.7317 -3.08953 0
M  V30 3906 H 401.544 -0.59116 -0.302367 0
M  V30 3907 H 404.074 -2.01895 -0.331598 0
M  V30 3908 H 404.084 -3.27793 -2.42932 0
M  V30 3909 H 402.759 -3.89562 -1.4565 0
M  V30 3910 H 401.336 -2.56089 -2.71059 0
M  V30 3911 N 403.521 0.559213 -1.47345 0
M  V30 3912 C 404.769 1.31388 -1.53563 0
M  V30 3913 C 405.09 1.93985 -0.198678 0
M  V30 3914 O 404.36 1.79825 0.777167 0
M  V30 3915 H 402.94 0.487901 -0.565652 0
M  V30 3916 H 405.602 0.65315 -1.8363 0
M  V30 3917 H 404.698 2.10844 -2.30111 0
M  V30 3918 N 404.999 1.35443 0.805782 0
M  V30 3919 C 406.246 1.28761 1.56291 0
M  V30 3920 C 406.574 -0.137747 1.94012 0
M  V30 3921 O 405.829 -1.1032 1.61642 0
M  V30 3922 C 406.128 2.14045 2.86216 0
M  V30 3923 C 405.794 3.62826 2.67709 0
M  V30 3924 C 404.456 4.0338 2.6237 0
M  V30 3925 C 406.808 4.57227 2.50186 0
M  V30 3926 C 404.136 5.36501 2.37451 0
M  V30 3927 C 406.488 5.90547 2.26797 0
M  V30 3928 C 405.152 6.30245 2.1988 0
M  V30 3929 H 404.422 0.471171 0.571908 0
M  V30 3930 H 407.069 1.67347 0.930974 0
M  V30 3931 H 405.374 1.68342 3.53791 0
M  V30 3932 H 407.071 2.0621 3.43917 0
M  V30 3933 H 403.661 3.30644 2.72713 0
M  V30 3934 H 407.845 4.2678 2.53323 0
M  V30 3935 H 403.101 5.66259 2.30567 0
M  V30 3936 H 407.275 6.63274 2.12228 0
M  V30 3937 H 404.902 7.33328 2.00333 0
M  V30 3938 N 406.477 -1.02803 1.19454 0
M  V30 3939 C 407.44 -2.09264 0.934955 0
M  V30 3940 C 408.44 -1.60576 -0.0849015 0
M  V30 3941 O 409.63 -1.73554 0.149933 0
M  V30 3942 C 406.762 -3.38482 0.40531 0
M  V30 3943 H 407.955 -2.33726 1.87916 0
M  V30 3944 H 405.508 -1.19426 1.00832 0
M  V30 3945 H 406.243 -3.19689 -0.544899 0
M  V30 3946 H 406.028 -3.75142 1.14065 0
M  V30 3947 H 407.518 -4.16894 0.242806 0
M  V30 3948 N 407.956 -0.998596 -1.21925 0
M  V30 3949 C 408.904 -0.546641 -2.26085 0
M  V30 3950 C 409.898 0.405576 -1.64473 0
M  V30 3951 O 411.104 0.277471 -1.77849 0
M  V30 3952 H 407.479 -0.158403 -0.735127 0
M  V30 3953 H 409.45 -1.43645 -2.61551 0
M  V30 3954 C 408.199 0.117388 -3.47502 0
M  V30 3955 H 407.522 -0.606277 -3.95176 0
M  V30 3956 H 408.962 0.396993 -4.22137 0
M  V30 3957 C 407.421 1.35455 -3.0847 0
M  V30 3958 O 407.951 2.44944 -3.18379 0
M  V30 3959 N 406.157 1.23191 -2.63196 0
M  V30 3960 H 405.704 0.341006 -2.55333 0
M  V30 3961 H 405.662 2.06071 -2.37449 0
M  V30 3962 N 409.434 1.37368 -0.772513 0
M  V30 3963 C 410.344 2.34053 -0.160081 0
M  V30 3964 C 411.36 1.60216 0.678728 0
M  V30 3965 O 412.536 1.92303 0.59847 0
M  V30 3966 C 409.601 3.3939 0.708182 0
M  V30 3967 C 408.662 4.29048 -0.147172 0
M  V30 3968 C 407.895 5.29354 0.679744 0
M  V30 3969 O 408.118 5.3723 1.91678 0
M  V30 3970 O 407.052 6.01835 0.0885444 0
M  V30 3971 H 410.878 2.88159 -0.959053 0
M  V30 3972 H 408.463 1.39543 -0.533685 0
M  V30 3973 H 410.345 4.03839 1.20384 0
M  V30 3974 H 409.02 2.8761 1.48533 0
M  V30 3975 H 407.927 3.67697 -0.689205 0
M  V30 3976 H 409.26 4.84134 -0.887423 0
M  V30 3977 N 410.912 0.523116 1.48665 0
M  V30 3978 C 412.14 -0.0096312 2.06898 0
M  V30 3979 C 412.555 -1.28784 1.38059 0
M  V30 3980 O 411.912 -1.76453 0.465893 0
M  V30 3981 C 411.963 -0.244386 3.60673 0
M  V30 3982 O 411.684 0.983172 4.26925 0
M  V30 3983 C 413.185 -0.818289 4.35682 0
M  V30 3984 H 410.405 0.0304161 0.67031 0
M  V30 3985 H 412.949 0.726799 1.91149 0
M  V30 3986 H 411.104 -0.930847 3.76051 0
M  V30 3987 H 411.518 0.759653 5.1897 0
M  V30 3988 H 412.992 -0.93201 5.44075 0
M  V30 3989 H 413.469 -1.82153 3.99646 0
M  V30 3990 H 414.075 -0.168609 4.24966 0
M  V30 3991 N 412.39 -1.55475 0.257931 0
M  V30 3992 C 413.636 -1.99502 -0.364266 0
M  V30 3993 C 413.969 -1.146 -1.56782 0
M  V30 3994 O 413.244 -0.211968 -1.93342 0
M  V30 3995 C 413.527 -3.51917 -0.763333 0
M  V30 3996 C 413.38 -4.4758 0.446371 0
M  V30 3997 C 414.699 -4.09742 -1.60623 0
M  V30 3998 H 411.818 -0.725277 -0.130929 0
M  V30 3999 H 414.46 -1.8653 0.361446 0
M  V30 4000 H 412.61 -3.63101 -1.38166 0
M  V30 4001 H 414.282 -4.48362 1.08487 0
M  V30 4002 H 412.525 -4.19947 1.08753 0
M  V30 4003 H 413.196 -5.51862 0.123645 0
M  V30 4004 H 415.672 -4.01727 -1.08418 0
M  V30 4005 H 414.548 -5.16631 -1.85429 0
M  V30 4006 H 414.809 -3.58889 -2.58169 0
M  V30 4007 N 413.868 0.0150385 -1.57593 0
M  V30 4008 C 414.831 0.995996 -2.06428 0
M  V30 4009 C 415.831 1.2818 -0.970903 0
M  V30 4010 O 417.021 1.22949 -1.23406 0
M  V30 4011 C 414.153 2.32506 -2.49307 0
M  V30 4012 H 415.346 0.573873 -2.94358 0
M  V30 4013 H 412.899 0.262186 -1.54085 0
M  V30 4014 H 413.634 2.79438 -1.64575 0
M  V30 4015 H 413.419 2.13087 -3.29145 0
M  V30 4016 H 414.909 3.02906 -2.87468 0
M  V30 4017 N 415.346 1.54954 0.287554 0
M  V30 4018 C 416.623 1.65569 1.04146 0
M  V30 4019 C 417.003 0.512672 2.0478 0
M  V30 4020 O 416.351 -0.489038 2.23205 0
M  V30 4021 C 416.561 3.04163 1.71131 0
M  V30 4022 C 417.909 3.61429 2.22832 0
M  V30 4023 O 418.933 3.06702 1.81141 0
M  V30 4024 O 417.792 4.57281 2.9926 0
M  V30 4025 H 414.886 0.671881 0.482188 0
M  V30 4026 H 417.432 1.67297 0.28457 0
M  V30 4027 H 416.204 3.78796 0.981303 0
M  V30 4028 H 415.827 3.06271 2.53543 0
M  V30 4029 N 416.824 -0.551391 1.4764 0
M  V30 4030 C 418.07 -1.31024 1.54792 0
M  V30 4031 C 418.403 -1.9304 0.211967 0
M  V30 4032 O 417.678 -1.78175 -0.77999 0
M  V30 4033 C 417.961 -2.41593 2.67029 0
M  V30 4034 C 417.814 -1.84408 4.10261 0
M  V30 4035 C 419.133 -3.43488 2.75143 0
M  V30 4036 H 416.252 -0.475031 0.563485 0
M  V30 4037 H 418.894 -0.616454 1.79722 0
M  V30 4038 H 417.044 -3.00772 2.45904 0
M  V30 4039 H 418.716 -1.29445 4.42766 0
M  V30 4040 H 416.959 -1.15051 4.18265 0
M  V30 4041 H 417.63 -2.64367 4.84576 0
M  V30 4042 H 420.106 -2.94236 2.94218 0
M  V30 4043 H 418.982 -4.18274 3.55441 0
M  V30 4044 H 419.243 -4.02703 1.82435 0
M  V30 4045 N 418.302 -1.35869 -0.798587 0
M  V30 4046 C 419.55 -1.29332 -1.55298 0
M  V30 4047 C 419.871 0.129729 -1.94568 0
M  V30 4048 O 419.141 1.06796 -1.6423 0
M  V30 4049 H 417.721 -0.475737 -0.57592 0
M  V30 4050 H 420.383 -1.70062 -0.952093 0
M  V30 4051 H 419.479 -1.91458 -2.46476 0
M  V30 4052 N 419.78 1.02168 -1.19998 0
M  V30 4053 C 421.026 1.75945 -1.00852 0
M  V30 4054 C 421.359 1.88702 0.458828 0
M  V30 4055 O 420.634 1.40911 1.34069 0
M  V30 4056 C 420.917 3.18154 -1.68671 0
M  V30 4057 C 420.77 3.13224 -3.22817 0
M  V30 4058 C 422.089 4.16711 -1.41561 0
M  V30 4059 H 419.208 0.638673 -0.367785 0
M  V30 4060 H 421.85 1.19222 -1.4794 0
M  V30 4061 H 420 3.66586 -1.28636 0
M  V30 4062 H 421.672 2.72635 -3.72112 0
M  V30 4063 H 419.915 2.50751 -3.53986 0
M  V30 4064 H 420.586 4.13728 -3.65422 0
M  V30 4065 H 423.062 3.76913 -1.76284 0
M  V30 4066 H 421.938 5.14391 -1.91553 0
M  V30 4067 H 422.199 4.40774 -0.342193 0
M  V30 4068 N 421.258 1.00505 1.21394 0
M  V30 4069 C 422.674 0.717873 1.42544 0
M  V30 4070 C 422.874 -0.706936 1.88692 0
M  V30 4071 O 421.93 -1.47627 2.04847 0
M  V30 4072 C 423.243 1.73377 2.45684 0
M  V30 4073 C 424.791 1.75059 2.59467 0
M  V30 4074 C 425.266 2.75545 3.6584 0
M  V30 4075 N 426.757 2.74213 3.73311 0
M  V30 4076 C 427.492 3.48626 4.55245 0
M  V30 4077 N 426.988 4.32678 5.41075 0
M  V30 4078 N 428.781 3.37276 4.49668 0
M  V30 4079 H 420.932 1.92506 0.897503 0
M  V30 4080 H 423.195 0.830919 0.456375 0
M  V30 4081 H 422.901 2.75395 2.18748 0
M  V30 4082 H 422.775 1.53647 3.44489 0
M  V30 4083 H 425.162 0.737337 2.8574 0
M  V30 4084 H 425.243 1.98861 1.60897 0
M  V30 4085 H 424.887 3.77028 3.40313 0
M  V30 4086 H 424.817 2.49009 4.64007 0
M  V30 4087 H 427.308 2.13234 3.11993 0
M  V30 4088 H 427.621 4.86253 6.00648 0
M  V30 4089 H 425.966 4.3676 5.40616 0
M  V30 4090 H 429.157 2.71043 3.81646 0
M  V30 4091 H 429.33 3.95524 5.13288 0
M  V30 4092 N 422.737 -1.36956 0.779787 0
M  V30 4093 C 423.984 -1.99491 0.347766 0
M  V30 4094 C 424.312 -1.61898 -1.07793 0
M  V30 4095 O 423.567 -0.86071 -1.75756 0
M  V30 4096 C 423.866 -3.54585 0.447686 0
M  V30 4097 C 423.532 -4.1197 1.83279 0
M  V30 4098 C 422.194 -4.27356 2.2118 0
M  V30 4099 C 424.546 -4.43354 2.74019 0
M  V30 4100 C 421.874 -4.71432 3.4924 0
M  V30 4101 C 424.226 -4.88858 4.01497 0
M  V30 4102 C 422.89 -5.0245 4.39432 0
M  V30 4103 H 422.16 -0.729991 0.127257 0
M  V30 4104 H 424.807 -1.63599 0.995376 0
M  V30 4105 H 423.112 -3.90773 -0.283447 0
M  V30 4106 H 424.809 -4.00888 0.0945948 0
M  V30 4107 H 421.399 -4.00428 1.52825 0
M  V30 4108 H 425.583 -4.31045 2.45995 0
M  V30 4109 H 420.839 -4.80141 3.78516 0
M  V30 4110 H 425.013 -5.12108 4.71931 0
M  V30 4111 H 422.64 -5.36362 5.38721 0
M  V30 4112 N 424.215 -0.530993 -1.48385 0
M  V30 4113 C 425.492 0.0671788 -1.95485 0
M  V30 4114 C 425.872 1.51191 -1.47324 0
M  V30 4115 O 425.22 2.17507 -0.700202 0
M  V30 4116 C 425.43 -0.0511206 -3.48963 0
M  V30 4117 C 426.778 0.107632 -4.24464 0
M  V30 4118 O 427.802 0.0226248 -3.56193 0
M  V30 4119 O 426.661 0.285972 -5.45751 0
M  V30 4120 H 423.755 0.0787365 -0.823243 0
M  V30 4121 H 426.301 -0.595662 -1.58902 0
M  V30 4122 H 425.073 -1.05747 -3.7674 0
M  V30 4123 H 424.696 0.650525 -3.92242 0
M  V30 4124 N 425.693 1.55336 -0.266172 0
M  V30 4125 C 426.94 1.99397 0.353158 0
M  V30 4126 C 427.268 1.15451 1.56529 0
M  V30 4127 O 426.523 0.209974 1.9457 0
M  V30 4128 C 426.822 3.48606 0.787957 0
M  V30 4129 C 426.488 4.49773 -0.318541 0
M  V30 4130 C 425.15 4.77158 -0.62239 0
M  V30 4131 C 427.502 5.10212 -1.06459 0
M  V30 4132 C 424.83 5.62251 -1.67602 0
M  V30 4133 C 427.182 5.96449 -2.10788 0
M  V30 4134 C 425.846 6.22158 -2.41817 0
M  V30 4135 H 425.116 0.729644 0.12923 0
M  V30 4136 H 427.763 1.87732 -0.37802 0
M  V30 4137 H 426.068 3.57701 1.59866 0
M  V30 4138 H 427.765 3.80098 1.27775 0
M  V30 4139 H 424.355 4.2854 -0.0715925 0
M  V30 4140 H 428.539 4.89086 -0.843098 0
M  V30 4141 H 423.795 5.80419 -1.92155 0
M  V30 4142 H 427.969 6.42317 -2.69076 0
M  V30 4143 H 425.596 6.87888 -3.23596 0
M  V30 4144 O 427.21 0.131478 1.60964 0
M  V30 4145 H 427.901 -0.465131 1.88033 0
M  V30 END ATOM
M  V30 BEGIN BOND
M  V30 END BOND
M  V30 END CTAB
M  END
$$$$
