drugbank_target|P39748 Flap endonuclease 1 (DB01592; DB14488; DB14489; DB14490; DB14491; DB14501)
 OpenBabel12092121063D

  0  0  0     0  0            999 V3000
M  V30 BEGIN CTAB
M  V30 COUNTS 6035 6085 0 0 0
M  V30 BEGIN ATOM
M  V30 1 H -0.908 1.98254 -0.117106 0
M  V30 2 N 0 1.576 0 0
M  V30 3 C 0.933 2.03868 1.02534 0
M  V30 4 C 1.911 0.928543 1.3348 0
M  V30 5 O 3.095 1.19667 1.45644 0
M  V30 6 C 0.222 2.43627 2.35294 0
M  V30 7 C -0.732 3.65373 2.2001 0
M  V30 8 S 0.101 5.13292 1.52614 0
M  V30 9 C 1.257 5.56322 2.86805 0
M  V30 10 H 1.49 2.90518 0.631377 0
M  V30 11 H -0.977 1.52953 0.210867 0
M  V30 12 H 0.981 2.67203 3.11629 0
M  V30 13 H -0.358 1.57376 2.7183 0
M  V30 14 H -1.165 3.90944 3.18086 0
M  V30 15 H -1.563 3.418 1.51819 0
M  V30 16 H 0.729 5.58782 3.83104 0
M  V30 17 H 1.672 6.56266 2.65933 0
M  V30 18 H 2.08 4.83886 2.90714 0
M  V30 19 N 1.4781 -0.272755 1.55222 0
M  V30 20 C 2.7261 -1.00234 1.75492 0
M  V30 21 C 3.0471 -1.8681 0.5592 0
M  V30 22 O 2.3171 -1.91215 -0.425882 0
M  V30 23 H 0.8971 -0.373076 0.647166 0
M  V30 24 H 3.5591 -0.296926 1.92625 0
M  V30 25 H 2.6551 -1.63913 2.65592 0
M  V30 26 N 2.9562 -1.48159 -0.537278 0
M  V30 27 C 4.2052 -1.5506 -1.28993 0
M  V30 28 C 4.5182 -0.226211 -1.94288 0
M  V30 29 O 5.7242 -0.173395 -2.70946 0
M  V30 30 C 4.1802 -2.73429 -2.34018 0
M  V30 31 C 3.7882 -4.1248 -1.74825 0
M  V30 32 C 5.5322 -2.89638 -3.10339 0
M  V30 33 C 3.4392 -5.22121 -2.77747 0
M  V30 34 H 2.3692 -0.577231 -0.485098 0
M  V30 35 H 5.0202 -1.74478 -0.568317 0
M  V30 36 H 3.4022 -2.47431 -3.09182 0
M  V30 37 H 4.5762 -4.48466 -1.05899 0
M  V30 38 H 2.8912 -4.01327 -1.11022 0
M  V30 39 H 5.4882 -3.68718 -3.87235 0
M  V30 40 H 5.8312 -1.9882 -3.65754 0
M  V30 41 H 6.3642 -3.15502 -2.42288 0
M  V30 42 H 3.1032 -6.1488 -2.27161 0
M  V30 43 H 2.6232 -4.90631 -3.45024 0
M  V30 44 H 4.3022 -5.49924 -3.4087 0
M  V30 45 N 4.4343 0.785586 -1.36625 0
M  V30 46 C 5.3663 1.90711 -1.2713 0
M  V30 47 C 6.3793 1.61688 -0.189986 0
M  V30 48 O 7.5683 1.72864 -0.445014 0
M  V30 49 C 4.6683 3.25611 -0.939713 0
M  V30 50 C 3.8413 3.82385 -2.12369 0
M  V30 51 C 2.9003 4.95732 -1.76456 0
M  V30 52 O 1.9263 5.12047 -2.48589 0
M  V30 53 N 3.1283 5.76258 -0.700492 0
M  V30 54 H 5.8933 1.99376 -2.23762 0
M  V30 55 H 3.4543 0.964041 -1.30069 0
M  V30 56 H 5.4463 3.98937 -0.680554 0
M  V30 57 H 4.0163 3.12538 -0.0624074 0
M  V30 58 H 3.2363 3.01001 -2.54543 0
M  V30 59 H 4.5243 4.17047 -2.9146 0
M  V30 60 H 3.9223 5.65609 -0.101624 0
M  V30 61 H 2.4793 6.4987 -0.501165 0
M  V30 62 N 5.9124 1.20967 1.01018 0
M  V30 63 C 7.1604 1.02172 1.74371 0
M  V30 64 C 7.4814 -0.446414 1.89821 0
M  V30 65 O 6.7514 -1.32234 1.44537 0
M  V30 66 H 5.3314 0.375066 0.646014 0
M  V30 67 H 7.9934 1.52187 1.21758 0
M  V30 68 H 7.0894 1.48538 2.74487 0
M  V30 69 N 7.3905 -1.2043 1.01659 0
M  V30 70 C 8.3205 -2.25466 0.607226 0
M  V30 71 C 9.3015 -1.65853 -0.377716 0
M  V30 72 O 10.4865 -1.92409 -0.263149 0
M  V30 73 C 7.6165 -3.47256 -0.0552949 0
M  V30 74 C 6.5705 -4.19462 0.850632 0
M  V30 75 C 5.8965 -5.34673 0.0538859 0
M  V30 76 C 7.1965 -4.75603 2.15868 0
M  V30 77 H 8.8905 -2.59962 1.48526 0
M  V30 78 H 6.4365 -1.2496 0.715605 0
M  V30 79 H 8.3895 -4.19917 -0.353233 0
M  V30 80 H 7.1135 -3.11924 -0.968045 0
M  V30 81 H 5.7725 -3.48667 1.13257 0
M  V30 82 H 5.4205 -4.95585 -0.860514 0
M  V30 83 H 5.1205 -5.83913 0.657192 0
M  V30 84 H 6.6445 -6.10138 -0.237598 0
M  V30 85 H 8.0585 -5.40083 1.92311 0
M  V30 86 H 6.4555 -5.3528 2.71284 0
M  V30 87 H 7.5255 -3.94346 2.82169 0
M  V30 88 N 8.8686 -0.792821 -1.36206 0
M  V30 89 C 9.8316 -0.199459 -2.2833 0
M  V30 90 C 10.8316 0.605189 -1.48977 0
M  V30 91 O 12.0216 0.425685 -1.68919 0
M  V30 92 C 9.1536 0.723523 -3.33134 0
M  V30 93 H 10.3466 -1.01181 -2.82316 0
M  V30 94 H 7.8996 -0.562485 -1.45828 0
M  V30 95 H 8.6346 1.56008 -2.84309 0
M  V30 96 H 8.4196 0.148436 -3.91819 0
M  V30 97 H 9.9096 1.13344 -4.01924 0
M  V30 98 N 10.3467 1.47872 -0.545128 0
M  V30 99 C 11.2937 2.29849 0.2093 0
M  V30 100 C 12.2637 1.38313 0.919707 0
M  V30 101 O 13.4487 1.67277 0.917772 0
M  V30 102 C 10.5887 3.22019 1.24088 0
M  V30 103 C 9.7017 4.2864 0.537778 0
M  V30 104 C 8.8367 5.07973 1.5536 0
M  V30 105 C 7.8757 6.06381 0.8348 0
M  V30 106 N 7.0127 6.78717 1.79688 0
M  V30 107 H 11.8527 2.93845 -0.49591 0
M  V30 108 H 9.3897 1.44848 -0.256389 0
M  V30 109 H 11.3477 3.73868 1.85144 0
M  V30 110 H 9.9777 2.59914 1.91428 0
M  V30 111 H 9.0297 3.7994 -0.187046 0
M  V30 112 H 10.3417 4.98793 -0.0258907 0
M  V30 113 H 9.4957 5.63912 2.23803 0
M  V30 114 H 8.2347 4.37693 2.15118 0
M  V30 115 H 7.2397 5.49631 0.136388 0
M  V30 116 H 8.4647 6.78665 0.24313 0
M  V30 117 H 6.4107 6.11177 2.38326 0
M  V30 118 H 6.3277 7.44998 1.28505 0
M  V30 119 H 7.5957 7.39237 2.47282 0
M  V30 120 N 11.8248 0.280983 1.55075 0
M  V30 121 C 12.7548 -0.597469 2.25727 0
M  V30 122 C 13.7358 -1.15417 1.24952 0
M  V30 123 O 14.9208 -1.18722 1.53684 0
M  V30 124 C 12.0508 -1.7789 2.98283 0
M  V30 125 C 11.0048 -1.35347 4.06036 0
M  V30 126 C 10.3308 -2.61846 4.66198 0
M  V30 127 C 11.6308 -0.499354 5.19907 0
M  V30 128 H 13.3248 -0.00824265 2.99399 0
M  V30 129 H 10.8708 -0.0025244 1.44 0
M  V30 130 H 12.8238 -2.39937 3.46422 0
M  V30 131 H 11.5478 -2.39405 2.22155 0
M  V30 132 H 10.2068 -0.756156 3.58717 0
M  V30 133 H 9.8548 -3.21632 3.86732 0
M  V30 134 H 9.5548 -2.3409 5.38958 0
M  V30 135 H 11.0788 -3.24732 5.1709 0
M  V30 136 H 12.4928 -1.02498 5.64063 0
M  V30 137 H 10.8898 -0.316424 5.99265 0
M  V30 138 H 11.9598 0.480459 4.82514 0
M  V30 139 N 13.3029 -1.57598 0.00835791 0
M  V30 140 C 14.5519 -1.90107 -0.673968 0
M  V30 141 C 14.8649 -0.884275 -1.7447 0
M  V30 142 O 16.0709 -1.09987 -2.48224 0
M  V30 143 C 14.5269 -3.37497 -1.24995 0
M  V30 144 C 14.1349 -4.47491 -0.2136 0
M  V30 145 C 15.8789 -3.79104 -1.90999 0
M  V30 146 C 13.7859 -5.85963 -0.80005 0
M  V30 147 H 12.7159 -0.709393 -0.255495 0
M  V30 148 H 15.3669 -1.83365 0.0702693 0
M  V30 149 H 13.7489 -3.39102 -2.04513 0
M  V30 150 H 14.9229 -4.57414 0.557596 0
M  V30 151 H 13.2379 -4.14956 0.346474 0
M  V30 152 H 15.8349 -4.79901 -2.35795 0
M  V30 153 H 16.1779 -3.1306 -2.74407 0
M  V30 154 H 16.7109 -3.79833 -1.18203 0
M  V30 155 H 13.4499 -6.555 -0.00456708 0
M  V30 156 H 12.9699 -5.79687 -1.54021 0
M  V30 157 H 14.6489 -6.33884 -1.29615 0
M  V30 158 N 14.781 0.264519 -1.55364 0
M  V30 159 C 15.744 1.31046 -1.88042 0
M  V30 160 C 16.744 1.41943 -0.755569 0
M  V30 161 O 17.934 1.40947 -1.02369 0
M  V30 162 C 15.066 2.69067 -2.09323 0
M  V30 163 H 16.259 1.03297 -2.81549 0
M  V30 164 H 13.812 0.502989 -1.47986 0
M  V30 165 H 14.547 3.01982 -1.18226 0
M  V30 166 H 14.332 2.62542 -2.91229 0
M  V30 167 H 15.822 3.44623 -2.35848 0
M  V30 168 N 16.2591 1.48442 0.529413 0
M  V30 169 C 17.5361 1.46978 1.29062 0
M  V30 170 C 17.9161 0.181769 2.10316 0
M  V30 171 O 17.2641 -0.836481 2.12639 0
M  V30 172 C 17.4741 2.7321 2.17157 0
M  V30 173 C 18.8221 3.21562 2.77278 0
M  V30 174 O 19.8461 2.74131 2.27444 0
M  V30 175 O 18.7051 4.04094 3.67927 0
M  V30 176 H 15.7991 0.587003 0.582543 0
M  V30 177 H 18.3451 1.60676 0.546021 0
M  V30 178 H 17.1171 3.58465 1.56903 0
M  V30 179 H 16.7401 2.62235 2.98862 0
M  V30 180 N 17.7372 -0.778329 1.37039 0
M  V30 181 C 18.9832 -1.53892 1.32079 0
M  V30 182 C 19.3162 -1.9396 -0.0965386 0
M  V30 183 O 18.5912 -1.63568 -1.05242 0
M  V30 184 C 18.8742 -2.80847 2.25382 0
M  V30 185 C 18.7272 -2.47076 3.75864 0
M  V30 186 C 20.0462 -3.82741 2.1725 0
M  V30 187 H 17.1652 -0.558303 0.48111 0
M  V30 188 H 19.8072 -0.893397 1.67685 0
M  V30 189 H 17.9572 -3.35931 1.95148 0
M  V30 190 H 19.6292 -1.97957 4.16666 0
M  V30 191 H 17.8722 -1.79863 3.94755 0
M  V30 192 H 18.5432 -3.37798 4.36574 0
M  V30 193 H 21.0192 -3.37133 2.43887 0
M  V30 194 H 19.8952 -4.69303 2.84686 0
M  V30 195 H 20.1562 -4.2652 1.16331 0
M  V30 196 N 19.2153 -1.21501 -1.00376 0
M  V30 197 C 20.1783 -0.976927 -2.07337 0
M  V30 198 C 21.1783 0.0525322 -1.60714 0
M  V30 199 O 22.3683 -0.184869 -1.73216 0
M  V30 200 C 19.5003 -0.473423 -3.37597 0
M  V30 201 H 20.6933 -1.92587 -2.29892 0
M  V30 202 H 18.2463 -1.03217 -1.17371 0
M  V30 203 H 18.9813 0.480379 -3.20722 0
M  V30 204 H 18.7663 -1.216 -3.72768 0
M  V30 205 H 20.2563 -0.32675 -4.1632 0
M  V30 206 N 20.6934 1.19889 -1.02296 0
M  V30 207 C 22.1044 1.71124 -0.746568 0
M  V30 208 C 22.4554 1.81939 0.734335 0
M  V30 209 O 21.5804 1.48639 1.57275 0
M  V30 210 C 22.1754 3.10804 -1.34857 0
M  V30 211 C 20.7344 3.59323 -1.1209 0
M  V30 212 C 19.8814 2.3635 -1.45031 0
M  V30 213 H 22.8324 1.04813 -1.19163 0
M  V30 214 H 22.8534 3.73186 -0.742437 0
M  V30 215 H 22.3654 3.029 -2.42638 0
M  V30 216 H 20.4664 3.7255 -0.0610337 0
M  V30 217 H 20.5794 4.4378 -1.80544 0
M  V30 218 H 18.9434 2.39399 -0.869487 0
M  V30 219 H 19.7264 2.31081 -2.53883 0
M  V30 220 N 22.1715 0.800033 1.35784 0
M  V30 221 C 23.3965 0.388511 2.03729 0
M  V30 222 C 23.8215 -0.990481 1.5991 0
M  V30 223 O 23.1795 -1.64013 0.772612 0
M  V30 224 C 23.2275 0.4726 3.5749 0
M  V30 225 O 22.3315 -0.51646 4.09153 0
M  V30 226 H 21.6725 0.163271 0.643614 0
M  V30 227 H 24.2025 1.0841 1.73518 0
M  V30 228 H 24.2125 0.34003 4.06581 0
M  V30 229 H 22.8875 1.47848 3.88734 0
M  V30 230 H 21.4645 -0.344673 3.71304 0
M  V30 231 N 23.6496 -1.47581 0.552962 0
M  V30 232 C 24.6126 -2.28439 -0.186605 0
M  V30 233 C 25.6126 -1.36706 -0.84665 0
M  V30 234 O 26.8026 -1.59378 -0.703164 0
M  V30 235 C 23.9346 -3.16264 -1.2724 0
M  V30 236 H 25.1276 -2.95294 0.523609 0
M  V30 237 H 22.6806 -1.532 0.309745 0
M  V30 238 H 23.4156 -2.54091 -2.01514 0
M  V30 239 H 23.2006 -3.83769 -0.803968 0
M  V30 240 H 24.6906 -3.77198 -1.79196 0
M  V30 241 N 25.1277 -0.289203 -1.54924 0
M  V30 242 C 26.3767 0.324231 -1.99077 0
M  V30 243 C 26.6897 1.5591 -1.18117 0
M  V30 244 O 27.8957 2.24637 -1.52481 0
M  V30 245 C 26.3517 0.628209 -3.54375 0
M  V30 246 C 25.9597 -0.587647 -4.44129 0
M  V30 247 C 27.7037 1.20349 -4.07083 0
M  V30 248 C 25.6107 -0.257475 -5.90839 0
M  V30 249 H 24.5407 0.124924 -0.743579 0
M  V30 250 H 27.1917 -0.396063 -1.79175 0
M  V30 251 H 25.5737 1.40778 -3.70132 0
M  V30 252 H 26.7477 -1.36418 -4.40144 0
M  V30 253 H 25.0627 -1.08074 -4.0213 0
M  V30 254 H 27.6597 1.46456 -5.14252 0
M  V30 255 H 28.0027 2.14195 -3.56968 0
M  V30 256 H 28.5357 0.485889 -3.94821 0
M  V30 257 H 25.2747 -1.16419 -6.45079 0
M  V30 258 H 24.7947 0.482018 -5.9786 0
M  V30 259 H 26.4737 0.145238 -6.46837 0
M  V30 260 N 26.6058 1.57591 -0.0167156 0
M  V30 261 C 28.0218 1.55946 0.339557 0
M  V30 262 C 28.2218 1.02109 1.73713 0
M  V30 263 O 27.2778 0.662303 2.43659 0
M  V30 264 C 28.5908 3.00037 0.199499 0
M  V30 265 C 30.1388 3.11805 0.273193 0
M  V30 266 C 30.6138 4.57713 0.162068 0
M  V30 267 N 32.1048 4.6268 0.219444 0
M  V30 268 C 32.8398 5.73185 0.157054 0
M  V30 269 N 32.3358 6.92786 0.0442936 0
M  V30 270 N 34.1288 5.61707 0.21014 0
M  V30 271 H 26.2798 1.90921 -0.930758 0
M  V30 272 H 28.5428 0.877674 -0.358319 0
M  V30 273 H 28.2488 3.4333 -0.76273 0
M  V30 274 H 28.1228 3.64387 0.974786 0
M  V30 275 H 30.5098 2.68433 1.22587 0
M  V30 276 H 30.5908 2.50201 -0.532256 0
M  V30 277 H 30.2348 5.01763 -0.78714 0
M  V30 278 H 30.1648 5.17283 0.986222 0
M  V30 279 H 32.6558 3.76649 0.307246 0
M  V30 280 H 32.9688 7.728 0.00304069 0
M  V30 281 H 31.3138 6.94999 0.00968457 0
M  V30 282 H 34.5048 4.6716 0.296546 0
M  V30 283 H 34.6778 6.47807 0.158054 0
M  V30 284 N 28.0839 -0.256276 1.55502 0
M  V30 285 C 28.9939 -1.33882 1.92647 0
M  V30 286 C 30.0099 -1.53159 0.825727 0
M  V30 287 O 31.1859 -1.66963 1.12629 0
M  V30 288 C 28.2509 -2.6751 2.20543 0
M  V30 289 C 27.3119 -2.56836 3.43997 0
M  V30 290 C 26.5449 -3.84092 3.70553 0
M  V30 291 O 26.7679 -4.85545 2.99336 0
M  V30 292 O 25.7019 -3.83288 4.64084 0
M  V30 293 H 29.5279 -1.05374 2.84833 0
M  V30 294 H 27.1129 -0.456237 1.42263 0
M  V30 295 H 28.9949 -3.46492 2.39835 0
M  V30 296 H 27.6699 -2.9577 1.31536 0
M  V30 297 H 26.5769 -1.76172 3.30021 0
M  V30 298 H 27.9099 -2.33523 4.33275 0
M  V30 299 N 29.562 -1.4872 -0.521534 0
M  V30 300 C 30.51 -1.64328 -1.64618 0
M  V30 301 C 31.504 -0.50953 -1.61555 0
M  V30 302 O 32.71 -0.688525 -1.66311 0
M  V30 303 H 29.085 -0.517805 -0.545328 0
M  V30 304 H 31.056 -2.58767 -1.48601 0
M  V30 305 C 29.805 -1.70805 -3.02855 0
M  V30 306 H 29.128 -2.5741 -3.05909 0
M  V30 307 H 30.568 -1.85766 -3.81139 0
M  V30 308 C 29.027 -0.448479 -3.33902 0
M  V30 309 O 29.557 0.434928 -3.99339 0
M  V30 310 N 27.763 -0.317616 -2.88859 0
M  V30 311 H 27.31 -1.03748 -2.35784 0
M  V30 312 H 27.268 0.524113 -3.10001 0
M  V30 313 N 31.0401 0.771051 -1.3745 0
M  V30 314 C 32.3171 1.519 -1.23231 0
M  V30 315 C 32.6971 2.10383 0.173809 0
M  V30 316 O 32.0451 1.95583 1.18151 0
M  V30 317 C 32.2551 2.59933 -2.32886 0
M  V30 318 C 33.6031 3.27316 -2.70461 0
M  V30 319 O 34.6271 2.70228 -2.32068 0
M  V30 320 O 33.4861 4.30531 -3.36608 0
M  V30 321 H 30.5801 0.672803 -0.480901 0
M  V30 322 H 33.1261 0.807957 -1.49232 0
M  V30 323 H 31.8981 2.14842 -3.27045 0
M  V30 324 H 31.5211 3.38637 -2.08353 0
M  V30 325 N 32.5182 1.22032 0.997298 0
M  V30 326 C 33.7672 1.03637 1.73038 0
M  V30 327 C 34.0802 -0.429475 1.90827 0
M  V30 328 O 35.2862 -0.732995 2.61418 0
M  V30 329 C 33.7422 1.80582 3.11317 0
M  V30 330 C 33.3502 3.31387 3.01474 0
M  V30 331 C 35.0942 1.70621 3.88701 0
M  V30 332 C 33.0012 4.00791 4.3488 0
M  V30 333 H 31.9312 0.384179 0.648785 0
M  V30 334 H 34.5822 1.4584 1.11368 0
M  V30 335 H 32.9642 1.31175 3.73643 0
M  V30 336 H 34.1382 3.88155 2.4834 0
M  V30 337 H 32.4532 3.41976 2.37575 0
M  V30 338 H 35.0502 2.19799 4.87434 0
M  V30 339 H 35.3932 0.665823 4.10941 0
M  V30 340 H 35.9262 2.17547 3.33044 0
M  V30 341 H 32.6652 5.05064 4.1784 0
M  V30 342 H 32.1852 3.48811 4.87945 0
M  V30 343 H 33.8642 4.06139 5.03647 0
M  V30 344 N 33.9963 -1.19345 1.0293 0
M  V30 345 C 34.9433 -2.2258 0.610464 0
M  V30 346 C 35.9133 -1.6179 -0.375946 0
M  V30 347 O 37.0983 -1.88844 -0.272511 0
M  V30 348 C 34.2383 -3.45085 -0.0321473 0
M  V30 349 C 33.3513 -4.20258 1.00035 0
M  V30 350 C 32.4863 -5.3019 0.32746 0
M  V30 351 C 31.5253 -5.97121 1.34584 0
M  V30 352 N 30.6623 -6.98615 0.698726 0
M  V30 353 H 35.5023 -2.57764 1.49538 0
M  V30 354 H 33.0393 -1.26644 0.748311 0
M  V30 355 H 34.9973 -4.15061 -0.421966 0
M  V30 356 H 33.6273 -3.10555 -0.88064 0
M  V30 357 H 32.6793 -3.49223 1.50823 0
M  V30 358 H 33.9913 -4.66175 1.77433 0
M  V30 359 H 33.1453 -6.06587 -0.11718 0
M  V30 360 H 31.8843 -4.85345 -0.478713 0
M  V30 361 H 30.8893 -5.19474 1.80074 0
M  V30 362 H 32.1143 -6.4405 2.15352 0
M  V30 363 H 30.0603 -6.55942 -0.0873471 0
M  V30 364 H 29.9773 -7.42724 1.41058 0
M  V30 365 H 31.2453 -7.79004 0.278102 0
M  V30 366 N 35.4744 -0.807222 -1.35358 0
M  V30 367 C 36.6994 -0.399309 -2.0352 0
M  V30 368 C 37.1244 0.981986 -1.60433 0
M  V30 369 O 36.4824 1.63601 -0.781299 0
M  V30 370 C 36.5304 -0.491552 -3.57234 0
M  V30 371 O 35.6344 0.494754 -4.09421 0
M  V30 372 H 34.9754 -0.166682 -0.642739 0
M  V30 373 H 37.5054 -1.09328 -1.72941 0
M  V30 374 H 37.5154 -0.361588 -4.06395 0
M  V30 375 H 36.1904 -1.49907 -3.87944 0
M  V30 376 H 34.7674 0.324977 -3.71481 0
M  V30 377 N 36.9525 1.47285 -0.560781 0
M  V30 378 C 38.1825 2.06555 -0.0429638 0
M  V30 379 C 38.5905 1.41339 1.25777 0
M  V30 380 O 37.9335 0.505182 1.76617 0
M  V30 381 C 37.9955 3.58827 0.219887 0
M  V30 382 C 37.6595 4.46105 -0.991944 0
M  V30 383 C 38.6565 4.84 -1.89843 0
M  V30 384 C 36.3415 4.87567 -1.20762 0
M  V30 385 C 38.3355 5.6216 -3.00425 0
M  V30 386 C 36.0225 5.65491 -2.31653 0
M  V30 387 C 37.0205 6.02699 -3.21315 0
M  V30 388 O 36.7085 6.79052 -4.30283 0
M  V30 389 H 36.4405 0.674537 -0.0444468 0
M  V30 390 H 38.9945 1.90225 -0.774818 0
M  V30 391 H 37.2245 3.73383 1.00609 0
M  V30 392 H 38.9135 4.00103 0.683522 0
M  V30 393 H 39.6795 4.52564 -1.74387 0
M  V30 394 H 35.5585 4.5807 -0.518893 0
M  V30 395 H 39.1025 5.9112 -3.70436 0
M  V30 396 H 34.9995 5.9634 -2.47081 0
M  V30 397 H 35.7675 6.9745 -4.28376 0
M  V30 398 N 38.4306 0.297415 1.54768 0
M  V30 399 C 39.6776 -0.312913 2.00068 0
M  V30 400 C 40.0056 -1.54171 1.18582 0
M  V30 401 O 39.2606 -1.94108 0.249133 0
M  V30 402 C 39.5596 -0.717561 3.50123 0
M  V30 403 C 39.2256 0.409095 4.4904 0
M  V30 404 C 37.8876 0.718399 4.75807 0
M  V30 405 C 40.2396 1.16717 5.07963 0
M  V30 406 C 37.5676 1.78896 5.5876 0
M  V30 407 C 39.9196 2.22762 5.92081 0
M  V30 408 C 38.5836 2.54303 6.1716 0
M  V30 409 H 37.8536 -0.114503 0.7321 0
M  V30 410 H 40.5006 0.415767 1.86932 0
M  V30 411 H 38.8056 -1.52627 3.60849 0
M  V30 412 H 40.5026 -1.20091 3.82595 0
M  V30 413 H 37.0926 0.157918 4.28309 0
M  V30 414 H 41.2766 0.941466 4.87289 0
M  V30 415 H 36.5326 2.0381 5.7643 0
M  V30 416 H 40.7066 2.81962 6.36765 0
M  V30 417 H 38.3336 3.3739 6.81229 0
M  V30 418 N 39.9087 -1.5758 0.0250728 0
M  V30 419 C 41.1567 -1.91255 -0.653151 0
M  V30 420 C 41.4777 -0.901691 -1.729 0
M  V30 421 O 40.7477 0.0573785 -1.95816 0
M  V30 422 H 39.3277 -0.705942 -0.244243 0
M  V30 423 H 41.9897 -1.94767 0.0719209 0
M  V30 424 H 41.0857 -2.91752 -1.10847 0
M  V30 425 N 41.3868 0.248026 -1.55636 0
M  V30 426 C 42.8028 0.596483 -1.48035 0
M  V30 427 C 43.0028 1.88386 -0.715039 0
M  V30 428 O 42.0588 2.51319 -0.243944 0
M  V30 429 C 43.3718 0.700258 -2.92433 0
M  V30 430 C 44.9198 0.792659 -3.02797 0
M  V30 431 C 45.3948 0.928005 -4.485 0
M  V30 432 N 46.8858 0.992903 -4.52433 0
M  V30 433 C 47.6208 1.11687 -5.62418 0
M  V30 434 N 47.1168 1.20645 -6.82214 0
M  V30 435 N 48.9098 1.14994 -5.50212 0
M  V30 436 H 41.0608 -0.597109 -2.03834 0
M  V30 437 H 43.3238 -0.205925 -0.925364 0
M  V30 438 H 43.0298 -0.175658 -3.51261 0
M  V30 439 H 42.9038 1.57255 -3.42857 0
M  V30 440 H 45.2908 1.65903 -2.4405 0
M  V30 441 H 45.3718 -0.104762 -2.55585 0
M  V30 442 H 45.0158 0.0661971 -5.07857 0
M  V30 443 H 44.9458 1.84045 -4.93391 0
M  V30 444 H 47.4368 0.935064 -3.66149 0
M  V30 445 H 47.7498 1.30008 -7.61786 0
M  V30 446 H 46.0948 1.17605 -6.84977 0
M  V30 447 H 49.2858 1.07643 -4.55555 0
M  V30 448 H 49.4588 1.24311 -6.35965 0
M  V30 449 N 42.8649 1.48995 0.513639 0
M  V30 450 C 43.8119 1.6473 1.61656 0
M  V30 451 C 44.7819 0.488984 1.58739 0
M  V30 452 O 45.9669 0.714478 1.76918 0
M  V30 453 C 43.1069 1.7082 2.99858 0
M  V30 454 C 42.2199 2.9787 3.12885 0
M  V30 455 C 41.3549 2.95017 4.41744 0
M  V30 456 C 40.3939 4.16702 4.48359 0
M  V30 457 N 39.5309 4.11832 5.68629 0
M  V30 458 H 44.3709 2.58909 1.47547 0
M  V30 459 H 41.9079 1.28382 0.71808 0
M  V30 460 H 43.8659 1.72331 3.79944 0
M  V30 461 H 42.4959 0.801181 3.12699 0
M  V30 462 H 41.5479 3.06029 2.25944 0
M  V30 463 H 42.8599 3.8786 3.13633 0
M  V30 464 H 42.0139 2.95021 5.30139 0
M  V30 465 H 40.7529 2.02784 4.43542 0
M  V30 466 H 39.7579 4.16955 3.58369 0
M  V30 467 H 40.9829 5.10113 4.48287 0
M  V30 468 H 38.9289 3.22428 5.71293 0
M  V30 469 H 38.8459 4.95543 5.7094 0
M  V30 470 H 40.1139 4.1592 6.59266 0
M  V30 471 N 44.343 -0.763751 1.37857 0
M  V30 472 C 45.589 -1.52483 1.33704 0
M  V30 473 C 45.922 -1.94051 -0.0759612 0
M  V30 474 O 45.197 -1.64675 -1.03501 0
M  V30 475 C 45.48 -2.78441 2.28348 0
M  V30 476 C 45.333 -2.43075 3.78463 0
M  V30 477 C 46.652 -3.80415 2.21298 0
M  V30 478 H 43.771 -0.553169 0.487005 0
M  V30 479 H 46.413 -0.875562 1.68624 0
M  V30 480 H 44.563 -3.33842 1.987 0
M  V30 481 H 46.235 -1.93527 4.18742 0
M  V30 482 H 44.478 -1.75666 3.96641 0
M  V30 483 H 45.149 -3.33149 4.40132 0
M  V30 484 H 47.625 -3.34527 2.47449 0
M  V30 485 H 46.501 -4.66257 2.89647 0
M  V30 486 H 46.762 -4.25262 1.20849 0
M  V30 487 N 45.8211 -1.22559 -0.990812 0
M  V30 488 C 46.7841 -0.998863 -2.0629 0
M  V30 489 C 47.7841 0.0354834 -1.60761 0
M  V30 490 O 48.9741 -0.203231 -1.7301 0
M  V30 491 C 46.1061 -0.509203 -3.37076 0
M  V30 492 H 47.2991 -1.95014 -2.27837 0
M  V30 493 H 44.8521 -1.04456 -1.16269 0
M  V30 494 H 45.5871 0.446335 -3.21214 0
M  V30 495 H 45.3721 -1.25547 -3.71457 0
M  V30 496 H 46.8621 -0.370888 -4.1595 0
M  V30 497 N 47.2992 1.18797 -1.03562 0
M  V30 498 C 48.5482 1.87978 -0.731235 0
M  V30 499 C 48.8612 1.80911 0.743671 0
M  V30 500 O 50.0672 2.45407 1.16137 0
M  V30 501 C 48.5232 3.3721 -1.25768 0
M  V30 502 C 48.1312 3.52818 -2.76085 0
M  V30 503 C 49.8752 4.11825 -1.0296 0
M  V30 504 C 47.7822 4.9598 -3.22114 0
M  V30 505 H 46.7122 0.704063 -0.269835 0
M  V30 506 H 49.3632 1.34266 -1.25079 0
M  V30 507 H 47.7452 3.90359 -0.666011 0
M  V30 508 H 48.9192 3.09965 -3.40966 0
M  V30 509 H 47.2342 2.91602 -2.97249 0
M  V30 510 H 49.8312 5.17411 -1.34869 0
M  V30 511 H 50.1742 4.16287 0.0333546 0
M  V30 512 H 50.7072 3.64833 -1.58562 0
M  V30 513 H 47.4462 4.96684 -4.27768 0
M  V30 514 H 46.9662 5.39569 -2.61965 0
M  V30 515 H 48.6452 5.6467 -3.15844 0
M  V30 516 N 48.7773 0.814389 1.34928 0
M  V30 517 C 50.0543 0.321363 1.92942 0
M  V30 518 C 50.4343 -1.19014 1.74353 0
M  V30 519 O 49.7823 -1.99328 1.11716 0
M  V30 520 C 49.9923 0.741323 3.41036 0
M  V30 521 C 51.3403 0.735266 4.18185 0
M  V30 522 O 52.3643 0.68336 3.49584 0
M  V30 523 O 51.2233 0.800703 5.40602 0
M  V30 524 H 48.3173 0.0858893 0.822528 0
M  V30 525 H 50.8633 0.898609 1.43955 0
M  V30 526 H 49.6353 1.78276 3.4833 0
M  V30 527 H 49.2583 0.139307 3.97356 0
M  V30 528 N 50.2554 -1.46986 0.568584 0
M  V30 529 C 51.2184 -2.28624 -0.162366 0
M  V30 530 C 52.2184 -1.37596 -0.832103 0
M  V30 531 O 53.4084 -1.60115 -0.68622 0
M  V30 532 C 50.5404 -3.17596 -1.23878 0
M  V30 533 H 51.7334 -2.94722 0.554899 0
M  V30 534 H 49.2864 -1.52863 0.325976 0
M  V30 535 H 50.0214 -2.56214 -1.98808 0
M  V30 536 H 49.8064 -3.846 -0.763219 0
M  V30 537 H 51.2964 -3.79078 -1.75185 0
M  V30 538 N 51.7335 -0.305618 -1.54608 0
M  V30 539 C 52.9585 0.307562 -2.05107 0
M  V30 540 C 53.3835 1.46385 -1.18123 0
M  V30 541 O 52.7415 1.8034 -0.186324 0
M  V30 542 C 52.7895 0.73704 -3.52987 0
M  V30 543 O 51.8935 1.84134 -3.6901 0
M  V30 544 H 51.2345 0.0589143 -0.661381 0
M  V30 545 H 53.7645 -0.448807 -1.99617 0
M  V30 546 H 53.7745 1.02459 -3.94925 0
M  V30 547 H 52.4495 -0.108773 -4.15758 0
M  V30 548 H 51.0265 1.55398 -3.38978 0
M  V30 549 N 53.2116 1.57565 -0.0334293 0
M  V30 550 C 54.1446 2.05997 0.981866 0
M  V30 551 C 55.1226 0.956647 1.3148 0
M  V30 552 O 56.3066 1.22729 1.43073 0
M  V30 553 C 53.4336 2.48564 2.30074 0
M  V30 554 C 52.4796 3.69958 2.12211 0
M  V30 555 S 53.3126 5.16414 1.41692 0
M  V30 556 C 54.4686 5.6228 2.7494 0
M  V30 557 H 54.7016 2.91792 0.569612 0
M  V30 558 H 52.2346 1.53366 0.178376 0
M  V30 559 H 54.1926 2.73753 3.05892 0
M  V30 560 H 52.8536 1.63106 2.68431 0
M  V30 561 H 52.0466 3.97603 3.09722 0
M  V30 562 H 51.6486 3.44943 1.44535 0
M  V30 563 H 53.9406 5.66783 3.71165 0
M  V30 564 H 54.8836 6.61759 2.51953 0
M  V30 565 H 55.2916 4.89944 2.80384 0
M  V30 566 N 54.6897 -0.239769 1.55765 0
M  V30 567 C 55.9147 -0.988373 1.82335 0
M  V30 568 C 56.3397 -1.77886 0.611421 0
M  V30 569 O 55.6977 -1.75889 -0.439639 0
M  V30 570 C 55.7457 -1.89627 3.06715 0
M  V30 571 O 54.8497 -2.98904 2.84131 0
M  V30 572 H 54.1907 -0.280858 0.601677 0
M  V30 573 H 56.7207 -0.258597 2.02959 0
M  V30 574 H 56.7307 -2.30957 3.36338 0
M  V30 575 H 55.4057 -1.31511 3.9456 0
M  V30 576 H 53.9827 -2.61651 2.65694 0
M  V30 577 N 56.1678 -1.49265 -0.50573 0
M  V30 578 C 57.4168 -1.57761 -1.25675 0
M  V30 579 C 57.7298 -0.267371 -1.93764 0
M  V30 580 O 58.9358 -0.230827 -2.70517 0
M  V30 581 C 57.3918 -2.78332 -2.28165 0
M  V30 582 C 56.9998 -4.16096 -1.66037 0
M  V30 583 C 58.7438 -2.96155 -3.04125 0
M  V30 584 C 56.6508 -5.27895 -2.6661 0
M  V30 585 H 55.5808 -0.587391 -0.472745 0
M  V30 586 H 58.2318 -1.75644 -0.53118 0
M  V30 587 H 56.6138 -2.53934 -3.03865 0
M  V30 588 H 57.7878 -4.50612 -0.963622 0
M  V30 589 H 56.1028 -4.03591 -1.02484 0
M  V30 590 H 58.6998 -3.76849 -3.79327 0
M  V30 591 H 59.0428 -2.06534 -3.61455 0
M  V30 592 H 59.5758 -3.2057 -2.35541 0
M  V30 593 H 56.3148 -6.1956 -2.14068 0
M  V30 594 H 55.8348 -4.97839 -3.34539 0
M  V30 595 H 57.5138 -5.57031 -3.29129 0
M  V30 596 N 57.6459 0.756429 -1.3826 0
M  V30 597 C 58.8759 1.54341 -1.3734 0
M  V30 598 C 59.2839 1.89159 0.0393917 0
M  V30 599 O 58.6269 1.5307 1.01565 0
M  V30 600 C 58.6889 2.87238 -2.16182 0
M  V30 601 C 58.3529 2.74973 -3.65019 0
M  V30 602 C 59.3499 2.44962 -4.58574 0
M  V30 603 C 57.0349 2.92515 -4.08338 0
M  V30 604 C 59.0289 2.32642 -5.93428 0
M  V30 605 C 56.7159 2.79815 -5.43274 0
M  V30 606 C 57.7139 2.49921 -6.35632 0
M  V30 607 O 57.4019 2.37275 -7.68086 0
M  V30 608 H 57.1339 0.484281 -0.471643 0
M  V30 609 H 59.6879 0.944152 -1.82414 0
M  V30 610 H 57.9179 3.49342 -1.65822 0
M  V30 611 H 59.6069 3.48731 -2.07705 0
M  V30 612 H 60.3729 2.31081 -4.26412 0
M  V30 613 H 56.2519 3.14781 -3.368 0
M  V30 614 H 59.7959 2.0923 -6.65484 0
M  V30 615 H 55.6929 2.93269 -5.75034 0
M  V30 616 H 56.4609 2.52509 -7.78577 0
M  V30 617 N 59.124 1.23083 0.984299 0
M  V30 618 C 60.056 0.96636 2.07832 0
M  V30 619 C 61.069 -0.0582135 1.62696 0
M  V30 620 O 62.258 0.176843 1.77622 0
M  V30 621 C 59.358 0.433397 3.36117 0
M  V30 622 C 58.531 1.51722 4.10243 0
M  V30 623 C 57.59 0.989821 5.16807 0
M  V30 624 O 56.616 1.67794 5.43906 0
M  V30 625 N 57.818 -0.184367 5.80207 0
M  V30 626 H 60.583 1.90824 2.31098 0
M  V30 627 H 58.144 1.13888 1.1507 0
M  V30 628 H 60.136 0.065699 4.04647 0
M  V30 629 H 58.706 -0.413806 3.09849 0
M  V30 630 H 57.926 2.05786 3.36223 0
M  V30 631 H 59.214 2.24619 4.56534 0
M  V30 632 H 58.612 -0.760062 5.60571 0
M  V30 633 H 57.169 -0.493366 6.4993 0
M  V30 634 N 60.6021 -1.18246 1.0419 0
M  V30 635 C 61.8491 -1.88257 0.746017 0
M  V30 636 C 62.1771 -1.80429 -0.726331 0
M  V30 637 O 61.4321 -1.2 -1.54591 0
M  V30 638 C 61.7311 -3.38082 1.15911 0
M  V30 639 C 61.3971 -3.66114 2.63195 0
M  V30 640 C 60.0591 -3.73474 3.03432 0
M  V30 641 C 62.4111 -3.78398 3.5842 0
M  V30 642 C 59.7391 -3.90599 4.37778 0
M  V30 643 C 62.0911 -3.97039 4.92487 0
M  V30 644 C 60.7551 -4.02635 5.32392 0
M  V30 645 H 60.0251 -0.688883 0.272987 0
M  V30 646 H 62.6721 -1.3995 1.30715 0
M  V30 647 H 60.9771 -3.88377 0.516806 0
M  V30 648 H 62.6741 -3.90596 0.907516 0
M  V30 649 H 59.2641 -3.61003 2.3103 0
M  V30 650 H 63.4481 -3.72042 3.28479 0
M  V30 651 H 58.7041 -3.93175 4.68213 0
M  V30 652 H 62.8781 -4.05486 5.66175 0
M  V30 653 H 60.5051 -4.15657 6.36501 0
M  V30 654 N 62.0802 -0.821533 -1.34494 0
M  V30 655 C 63.0102 -0.257138 -2.3208 0
M  V30 656 C 63.9912 0.625645 -1.58176 0
M  V30 657 O 65.1762 0.552811 -1.86166 0
M  V30 658 C 62.3062 0.582958 -3.42372 0
M  V30 659 C 61.2602 -0.202571 -4.2752 0
M  V30 660 C 60.5862 0.760179 -5.29269 0
M  V30 661 C 61.8862 -1.40998 -5.02908 0
M  V30 662 H 63.5802 -1.07247 -2.79532 0
M  V30 663 H 61.1262 -0.517163 -1.34393 0
M  V30 664 H 63.0792 0.987972 -4.09655 0
M  V30 665 H 61.8032 1.43133 -2.93565 0
M  V30 666 H 60.4622 -0.588936 -3.61838 0
M  V30 667 H 60.1102 1.60447 -4.76724 0
M  V30 668 H 59.8102 0.238809 -5.87115 0
M  V30 669 H 61.3342 1.16308 -5.9942 0
M  V30 670 H 62.7482 -1.07905 -5.63054 0
M  V30 671 H 61.1452 -1.86689 -5.70322 0
M  V30 672 H 62.2152 -2.1889 -4.32684 0
M  V30 673 N 63.5583 1.46682 -0.576371 0
M  V30 674 C 64.8073 2.01619 -0.0572825 0
M  V30 675 C 65.1203 1.45417 1.30818 0
M  V30 676 O 66.3263 1.92133 1.91825 0
M  V30 677 C 64.7823 3.59863 -0.0518371 0
M  V30 678 C 64.3903 4.25059 -1.41523 0
M  V30 679 C 66.1343 4.2248 0.413639 0
M  V30 680 C 64.0413 5.75364 -1.36785 0
M  V30 681 H 62.9713 0.753794 -0.0176448 0
M  V30 682 H 65.6223 1.68481 -0.727076 0
M  V30 683 H 64.0043 3.90048 0.683994 0
M  V30 684 H 65.1783 4.06491 -2.17029 0
M  V30 685 H 63.4933 3.7451 -1.8202 0
M  V30 686 H 66.0903 5.3265 0.467779 0
M  V30 687 H 66.4333 3.90976 1.42982 0
M  V30 688 H 66.9663 3.96897 -0.267929 0
M  V30 689 H 63.7053 6.11518 -2.36063 0
M  V30 690 H 63.2253 5.96214 -0.654895 0
M  V30 691 H 64.9043 6.37955 -1.07805 0
M  V30 692 N 65.0364 0.313813 1.54444 0
M  V30 693 C 65.9994 -0.54379 2.22656 0
M  V30 694 C 66.9994 -1.05124 1.21678 0
M  V30 695 O 68.1894 -0.945225 1.46325 0
M  V30 696 C 65.3214 -1.75427 2.92298 0
M  V30 697 H 66.5144 0.0523599 2.99854 0
M  V30 698 H 64.0674 0.0647834 1.56166 0
M  V30 699 H 64.8024 -2.38991 2.19211 0
M  V30 700 H 64.5874 -1.39791 3.66334 0
M  V30 701 H 66.0774 -2.36325 3.44297 0
M  V30 702 N 66.5145 -1.57545 0.0417849 0
M  V30 703 C 67.7605 -1.92601 -0.635021 0
M  V30 704 C 68.0935 -0.919627 -1.71045 0
M  V30 705 O 67.3685 0.0557892 -1.9442 0
M  V30 706 C 67.6515 -3.38085 -1.23979 0
M  V30 707 C 67.5045 -4.49467 -0.173057 0
M  V30 708 C 68.8235 -3.83776 -2.15416 0
M  V30 709 H 65.9425 -0.700397 -0.229374 0
M  V30 710 H 68.5845 -1.89728 0.101633 0
M  V30 711 H 66.7345 -3.40664 -1.86762 0
M  V30 712 H 68.4065 -4.59018 0.458312 0
M  V30 713 H 66.6495 -4.30909 0.499996 0
M  V30 714 H 67.3205 -5.48323 -0.636054 0
M  V30 715 H 69.7965 -3.83013 -1.62605 0
M  V30 716 H 68.6725 -4.8624 -2.54679 0
M  V30 717 H 68.9335 -3.19998 -3.05047 0
M  V30 718 N 67.9926 0.231505 -1.5589 0
M  V30 719 C 69.4086 0.580748 -1.48659 0
M  V30 720 C 69.6086 1.87617 -0.73498 0
M  V30 721 O 68.6646 2.51046 -0.270586 0
M  V30 722 C 69.9776 0.669202 -2.93159 0
M  V30 723 C 71.5256 0.760499 -3.03621 0
M  V30 724 C 72.0006 0.880383 -4.49459 0
M  V30 725 N 73.4916 0.944861 -4.53461 0
M  V30 726 C 74.2266 1.05716 -5.63571 0
M  V30 727 N 73.7226 1.13403 -6.83456 0
M  V30 728 N 75.5156 1.09152 -5.514 0
M  V30 729 H 67.6666 -0.618695 -2.03189 0
M  V30 730 H 69.9296 -0.215728 -0.923128 0
M  V30 731 H 69.6356 -0.212904 -3.51055 0
M  V30 732 H 69.5096 1.5361 -3.44505 0
M  V30 733 H 71.8966 1.63305 -2.45796 0
M  V30 734 H 71.9776 -0.131864 -2.5546 0
M  V30 735 H 71.6216 0.0123284 -5.07899 0
M  V30 736 H 71.5516 1.78802 -4.95316 0
M  V30 737 H 74.0426 0.896176 -3.6712 0
M  V30 738 H 74.3556 1.21921 -7.63122 0
M  V30 739 H 72.7006 1.10333 -6.86186 0
M  V30 740 H 75.8916 1.02805 -4.56671 0
M  V30 741 H 76.0646 1.17558 -6.37247 0
M  V30 742 N 69.4707 1.49531 0.497807 0
M  V30 743 C 70.4027 1.62559 1.61578 0
M  V30 744 C 71.4157 0.508134 1.54667 0
M  V30 745 O 72.6047 0.780309 1.60541 0
M  V30 746 C 69.7047 1.56925 3.00379 0
M  V30 747 C 68.8777 2.84257 3.3244 0
M  V30 748 C 67.9367 2.71632 4.50669 0
M  V30 749 O 66.9627 3.4557 4.52294 0
M  V30 750 N 68.1647 1.83391 5.5077 0
M  V30 751 H 70.9297 2.58981 1.50828 0
M  V30 752 H 68.4907 1.4666 0.685743 0
M  V30 753 H 70.4827 1.46129 3.77397 0
M  V30 754 H 69.0527 0.683483 3.05037 0
M  V30 755 H 68.2727 3.09381 2.44289 0
M  V30 756 H 69.5607 3.68666 3.5066 0
M  V30 757 H 68.9587 1.22583 5.52259 0
M  V30 758 H 67.5157 1.78515 6.26878 0
M  V30 759 N 70.9488 -0.749086 1.3866 0
M  V30 760 C 72.1968 -1.50535 1.34847 0
M  V30 761 C 72.5178 -1.94909 -0.0595016 0
M  V30 762 O 71.7878 -1.67973 -1.00806 0
M  V30 763 H 70.3678 -0.558395 0.49619 0
M  V30 764 H 73.0298 -0.890165 1.73384 0
M  V30 765 H 72.1258 -2.39413 2.00219 0
M  V30 766 N 72.4269 -1.23603 -0.977757 0
M  V30 767 C 73.6749 -1.06759 -1.71601 0
M  V30 768 C 73.9959 0.395929 -1.90938 0
M  V30 769 O 73.2659 1.28356 -1.47992 0
M  V30 770 H 71.8459 -0.392062 -0.635843 0
M  V30 771 H 74.5079 -1.55362 -1.1768 0
M  V30 772 H 73.6039 -1.55763 -2.70452 0
M  V30 773 N 73.905 1.17692 -1.04816 0
M  V30 774 C 75.182 1.83768 -0.669963 0
M  V30 775 C 75.562 1.93232 0.849986 0
M  V30 776 O 74.91 1.46397 1.75443 0
M  V30 777 C 75.12 3.21641 -1.35455 0
M  V30 778 C 76.468 3.97592 -1.49017 0
M  V30 779 O 77.492 3.31107 -1.31326 0
M  V30 780 O 76.351 5.16729 -1.77914 0
M  V30 781 H 73.445 0.792799 -0.235368 0
M  V30 782 H 75.991 1.25021 -1.14751 0
M  V30 783 H 74.763 3.097 -2.39168 0
M  V30 784 H 74.386 3.88052 -0.866107 0
M  V30 785 N 75.3831 0.828654 1.34056 0
M  V30 786 C 76.6291 0.42008 1.98402 0
M  V30 787 C 76.9621 -1.01564 1.65525 0
M  V30 788 O 76.2371 -1.70834 0.929831 0
M  V30 789 C 76.5201 0.62927 3.54559 0
M  V30 790 C 76.3731 2.11152 3.97159 0
M  V30 791 C 77.6921 0.0688756 4.40046 0
M  V30 792 H 74.8111 0.154104 0.720709 0
M  V30 793 H 77.4531 1.04228 1.5886 0
M  V30 794 H 75.6031 0.0996418 3.88372 0
M  V30 795 H 77.2751 2.70522 3.73651 0
M  V30 796 H 75.5181 2.59985 3.47261 0
M  V30 797 H 76.1891 2.20868 5.05887 0
M  V30 798 H 78.6651 0.521458 4.1282 0
M  V30 799 H 77.5411 0.245006 5.48353 0
M  V30 800 H 77.8021 -1.0266 4.30015 0
M  V30 801 N 76.8612 -1.46375 0.584142 0
M  V30 802 C 77.7912 -2.33103 -0.136037 0
M  V30 803 C 78.7722 -1.45431 -0.882255 0
M  V30 804 O 79.9572 -1.74246 -0.857434 0
M  V30 805 C 77.0872 -3.27731 -1.14933 0
M  V30 806 C 76.0412 -4.24855 -0.517862 0
M  V30 807 C 75.3672 -5.09001 -1.63773 0
M  V30 808 C 76.6672 -5.19439 0.545886 0
M  V30 809 H 78.3612 -2.93568 0.588086 0
M  V30 810 H 75.9072 -1.41166 0.284259 0
M  V30 811 H 77.8602 -3.87261 -1.66153 0
M  V30 812 H 76.5842 -2.65377 -1.90375 0
M  V30 813 H 75.2432 -3.6659 -0.0267361 0
M  V30 814 H 74.8912 -4.43031 -2.38185 0
M  V30 815 H 74.5912 -5.74777 -1.22085 0
M  V30 816 H 76.1152 -5.71396 -2.15266 0
M  V30 817 H 77.5292 -5.73177 0.118704 0
M  V30 818 H 75.9262 -5.93566 0.88317 0
M  V30 819 H 76.9962 -4.63285 1.43162 0
M  V30 820 N 78.3393 -0.321999 -1.54275 0
M  V30 821 C 79.2713 0.578671 -2.21775 0
M  V30 822 C 80.2843 1.08109 -1.21722 0
M  V30 823 O 81.4733 0.994938 -1.482 0
M  V30 824 C 78.5733 1.80661 -2.86731 0
M  V30 825 C 77.7463 1.44314 -4.12907 0
M  V30 826 C 76.8053 2.52845 -4.61472 0
M  V30 827 O 75.8313 2.17054 -5.2619 0
M  V30 828 N 77.0333 3.83748 -4.35566 0
M  V30 829 H 79.7983 0.000709447 -2.997 0
M  V30 830 H 77.3593 -0.145132 -1.61248 0
M  V30 831 H 79.3513 2.52655 -3.16145 0
M  V30 832 H 77.9213 2.29245 -2.12521 0
M  V30 833 H 77.1413 0.554906 -3.90275 0
M  V30 834 H 78.4293 1.17598 -4.95023 0
M  V30 835 H 77.8273 4.15625 -3.83761 0
M  V30 836 H 76.3843 4.51977 -4.69638 0
M  V30 837 N 79.8174 1.5752 -0.0501392 0
M  V30 838 C 80.7654 2.12651 0.942459 0
M  V30 839 C 81.7594 1.05807 1.32292 0
M  V30 840 O 82.9654 1.24217 1.3027 0
M  V30 841 H 79.3404 0.679673 0.321789 0
M  V30 842 H 81.3114 2.94951 0.452356 0
M  V30 843 C 80.0604 2.68565 2.20836 0
M  V30 844 H 79.3834 3.50439 1.92439 0
M  V30 845 H 80.8234 3.10761 2.8845 0
M  V30 846 C 79.2824 1.62291 2.95234 0
M  V30 847 O 79.8124 1.03508 3.88135 0
M  V30 848 N 78.0184 1.33836 2.57946 0
M  V30 849 H 77.5654 1.81826 1.82475 0
M  V30 850 H 77.5234 0.629595 3.08032 0
M  V30 851 N 81.2955 -0.223234 1.56011 0
M  V30 852 C 82.2055 -1.29766 1.95443 0
M  V30 853 C 83.2215 -1.51373 0.858028 0
M  V30 854 O 84.3975 -1.64536 1.16146 0
M  V30 855 C 81.4625 -2.62772 2.26167 0
M  V30 856 C 80.5235 -2.49482 3.49367 0
M  V30 857 C 79.7565 -3.76145 3.78616 0
M  V30 858 O 79.9795 -4.79087 3.09568 0
M  V30 859 O 78.9135 -3.73358 4.72109 0
M  V30 860 H 82.7395 -0.99309 2.87004 0
M  V30 861 H 80.3245 -0.425958 1.43199 0
M  V30 862 H 82.2065 -3.41327 2.47131 0
M  V30 863 H 80.8815 -2.92913 1.37781 0
M  V30 864 H 79.7885 -1.69133 3.33684 0
M  V30 865 H 81.1215 -2.2428 4.38131 0
M  V30 866 N 82.7736 -1.49793 -0.48987 0
M  V30 867 C 83.6836 -1.70036 -1.61632 0
M  V30 868 C 84.6996 -0.583102 -1.63939 0
M  V30 869 O 85.8756 -0.859169 -1.82154 0
M  V30 870 C 82.9406 -1.77277 -2.97949 0
M  V30 871 C 82.0016 -3.00918 -3.06181 0
M  V30 872 C 81.2346 -3.07804 -4.35996 0
M  V30 873 O 81.4576 -2.21982 -5.25433 0
M  V30 874 O 80.3916 -4.00369 -4.49431 0
M  V30 875 H 84.2176 -2.65486 -1.47482 0
M  V30 876 H 81.8026 -1.33666 -0.667362 0
M  V30 877 H 83.6846 -1.84329 -3.78947 0
M  V30 878 H 82.3596 -0.850076 -3.12339 0
M  V30 879 H 81.2666 -2.99377 -2.2433 0
M  V30 880 H 82.5996 -3.92704 -2.96723 0
M  V30 881 N 84.2517 0.741722 -1.39055 0
M  V30 882 C 85.4997 1.49818 -1.35643 0
M  V30 883 C 85.8207 1.94938 0.0491642 0
M  V30 884 O 85.0907 1.68505 0.999141 0
M  V30 885 H 83.6707 0.555755 -0.499144 0
M  V30 886 H 86.3327 0.880957 -1.73854 0
M  V30 887 H 85.4287 2.38348 -2.01486 0
M  V30 888 N 85.7298 1.2412 0.971189 0
M  V30 889 C 86.6398 1.04747 2.09917 0
M  V30 890 C 87.6558 -0.0107162 1.73997 0
M  V30 891 O 88.8318 0.186714 2.00533 0
M  V30 892 C 85.8968 0.650828 3.40537 0
M  V30 893 C 84.9578 1.7851 3.90426 0
M  V30 894 C 84.1908 1.40729 5.14812 0
M  V30 895 O 84.4138 0.29557 5.69634 0
M  V30 896 O 83.3478 2.23168 5.58999 0
M  V30 897 H 87.1738 1.99304 2.29154 0
M  V30 898 H 84.7588 1.02908 1.08307 0
M  V30 899 H 86.6408 0.440992 4.19086 0
M  V30 900 H 85.3158 -0.265649 3.22608 0
M  V30 901 H 84.2228 2.04966 3.12953 0
M  V30 902 H 85.5558 2.68023 4.12825 0
M  V30 903 N 87.2079 -1.17134 1.05439 0
M  V30 904 C 88.4359 -1.91372 0.786414 0
M  V30 905 C 88.8509 -1.76955 -0.658202 0
M  V30 906 O 88.2079 -1.10838 -1.44987 0
M  V30 907 C 88.2589 -3.42356 1.1608 0
M  V30 908 O 87.9799 -3.56332 2.54871 0
M  V30 909 C 89.4809 -4.33663 0.919322 0
M  V30 910 H 86.7009 -0.607118 0.285743 0
M  V30 911 H 89.2449 -1.48525 1.40572 0
M  V30 912 H 87.3999 -3.82939 0.586191 0
M  V30 913 H 87.8139 -4.49896 2.69618 0
M  V30 914 H 89.2879 -5.38099 1.231 0
M  V30 915 H 89.7649 -4.38959 -0.145359 0
M  V30 916 H 90.3709 -3.98796 1.47789 0
M  V30 917 N 88.686 -0.835752 -1.33615 0
M  V30 918 C 89.914 -0.443344 -2.02094 0
M  V30 919 C 90.329 0.954522 -1.62894 0
M  V30 920 O 89.686 1.61982 -0.840723 0
M  V30 921 C 89.737 -0.550775 -3.5728 0
M  V30 922 O 89.458 -1.89356 -3.95065 0
M  V30 923 C 90.959 -0.154919 -4.43029 0
M  V30 924 H 88.179 -0.176359 -0.647409 0
M  V30 925 H 90.723 -1.12746 -1.70612 0
M  V30 926 H 88.878 0.0853997 -3.87306 0
M  V30 927 H 89.292 -1.87687 -4.89769 0
M  V30 928 H 90.766 -0.281144 -5.51284 0
M  V30 929 H 91.243 0.902863 -4.2982 0
M  V30 930 H 91.849 -0.765404 -4.18356 0
M  V30 931 N 90.1641 1.46063 -0.591896 0
M  V30 932 C 91.3891 2.07226 -0.0850314 0
M  V30 933 C 91.8141 1.43625 1.21463 0
M  V30 934 O 91.1721 0.523305 1.73583 0
M  V30 935 C 91.2201 3.60554 0.0576567 0
M  V30 936 O 90.3241 3.97128 1.11188 0
M  V30 937 H 89.6651 0.660615 -0.0669568 0
M  V30 938 H 92.1951 1.8756 -0.81745 0
M  V30 939 H 92.2051 4.07165 0.2609 0
M  V30 940 H 90.8801 4.06235 -0.891416 0
M  V30 941 H 89.4571 3.62213 0.886356 0
M  V30 942 N 91.6422 0.330177 1.54103 0
M  V30 943 C 92.5922 -0.548456 2.21305 0
M  V30 944 C 93.5762 -1.07651 1.19583 0
M  V30 945 O 94.7682 -1.01243 1.45186 0
M  V30 946 C 91.8972 -1.70559 2.97934 0
M  V30 947 C 90.9832 -1.19212 4.07 0
M  V30 948 N 91.3742 -0.398831 5.04225 0
M  V30 949 C 89.6722 -1.47024 4.2107 0
M  V30 950 C 90.3732 -0.121761 5.81573 0
M  V30 951 N 89.3492 -0.709722 5.38947 0
M  V30 952 H 93.1512 0.0648483 2.93828 0
M  V30 953 H 90.6652 0.136363 1.61826 0
M  V30 954 H 92.6622 -2.34688 3.44568 0
M  V30 955 H 91.3222 -2.32231 2.26934 0
M  V30 956 H 92.3332 -0.0410869 5.17884 0
M  V30 957 H 89.0102 -2.09232 3.61287 0
M  V30 958 H 90.4002 0.517298 6.69906 0
M  V30 959 N 93.1203 -1.57491 0.0584922 0
M  V30 960 C 94.0503 -2.14988 -0.911178 0
M  V30 961 C 95.0313 -1.07343 -1.31952 0
M  V30 962 O 96.2163 -1.35318 -1.39294 0
M  V30 963 C 93.3463 -2.70078 -2.18347 0
M  V30 964 C 92.3003 -3.82771 -1.91495 0
M  V30 965 C 91.6263 -4.24408 -3.25241 0
M  V30 966 C 92.9263 -5.07592 -1.23075 0
M  V30 967 H 94.6203 -2.96263 -0.432246 0
M  V30 968 H 92.1663 -1.42512 -0.206469 0
M  V30 969 H 94.1193 -3.08943 -2.86587 0
M  V30 970 H 92.8433 -1.86005 -2.68458 0
M  V30 971 H 91.5023 -3.44389 -1.25664 0
M  V30 972 H 91.1503 -3.37275 -3.73168 0
M  V30 973 H 90.8503 -5.00366 -3.08071 0
M  V30 974 H 92.3743 -4.65879 -3.94701 0
M  V30 975 H 93.7883 -5.43857 -1.81362 0
M  V30 976 H 92.1853 -5.88741 -1.16207 0
M  V30 977 H 93.2553 -4.84454 -0.207847 0
M  V30 978 N 94.5984 0.214957 -1.56127 0
M  V30 979 C 95.5314 1.29382 -1.87977 0
M  V30 980 C 96.5094 1.44897 -0.737807 0
M  V30 981 O 97.6934 1.60605 -0.986833 0
M  V30 982 C 94.8204 2.66325 -2.09258 0
M  V30 983 C 93.8664 2.67789 -3.31951 0
M  V30 984 S 94.6994 2.21198 -4.8768 0
M  V30 985 C 95.8554 3.60003 -5.12004 0
M  V30 986 H 96.0884 1.02173 -2.79192 0
M  V30 987 H 93.6214 0.417516 -1.48648 0
M  V30 988 H 95.5794 3.45162 -2.22201 0
M  V30 989 H 94.2404 2.90755 -1.18829 0
M  V30 990 H 93.4334 3.68436 -3.43906 0
M  V30 991 H 93.0354 1.9702 -3.17898 0
M  V30 992 H 95.3274 4.55739 -5.01307 0
M  V30 993 H 96.2704 3.52959 -6.13861 0
M  V30 994 H 96.6784 3.53996 -4.39712 0
M  V30 995 N 96.0765 1.50051 0.48192 0
M  V30 996 C 97.3245 1.60181 1.23234 0
M  V30 997 C 97.6455 0.299176 1.92691 0
M  V30 998 O 96.9155 -0.682708 1.83619 0
M  V30 999 H 95.4955 0.590232 0.457859 0
M  V30 1000 H 98.1575 1.86775 0.556881 0
M  V30 1001 H 97.2535 2.40753 1.98607 0
M  V30 1002 N 97.5546 -0.734337 1.39446 0
M  V30 1003 C 98.4876 -1.85715 1.32609 0
M  V30 1004 C 99.4656 -1.6137 0.199636 0
M  V30 1005 O 100.65 -1.84626 0.380195 0
M  V30 1006 C 97.7766 -3.21709 1.05929 0
M  V30 1007 C 96.8226 -3.64913 2.20773 0
M  V30 1008 S 97.6556 -3.74203 3.83056 0
M  V30 1009 C 98.8116 -5.12986 3.58603 0
M  V30 1010 H 99.0446 -1.91232 2.27635 0
M  V30 1011 H 96.5776 -0.899263 1.25509 0
M  V30 1012 H 98.5356 -4.00236 0.912203 0
M  V30 1013 H 97.1966 -3.13848 0.125883 0
M  V30 1014 H 96.3896 -4.63606 1.97699 0
M  V30 1015 H 95.9916 -2.93593 2.31688 0
M  V30 1016 H 98.2836 -5.99339 3.15909 0
M  V30 1017 H 99.2266 -5.41088 4.5676 0
M  V30 1018 H 99.6346 -4.82694 2.9269 0
M  V30 1019 N 99.0327 -1.24633 -0.964593 0
M  V30 1020 C 100.28 -1.08788 -1.70796 0
M  V30 1021 C 100.608 0.372783 -1.90894 0
M  V30 1022 O 99.8627 1.29167 -1.47018 0
M  V30 1023 C 100.162 -1.7763 -3.10133 0
M  V30 1024 C 99.8277 -3.27557 -3.09866 0
M  V30 1025 C 98.4897 -3.6846 -3.09501 0
M  V30 1026 C 100.842 -4.23389 -3.03959 0
M  V30 1027 C 98.1697 -5.03624 -3.00965 0
M  V30 1028 C 100.522 -5.58565 -2.96965 0
M  V30 1029 C 99.1857 -5.98809 -2.9493 0
M  V30 1030 H 98.4557 -0.398084 -0.624988 0
M  V30 1031 H 101.103 -1.54777 -1.12767 0
M  V30 1032 H 99.4077 -1.24044 -3.71645 0
M  V30 1033 H 101.105 -1.62832 -3.66451 0
M  V30 1034 H 97.6947 -2.95006 -3.10917 0
M  V30 1035 H 101.879 -3.92787 -3.03368 0
M  V30 1036 H 97.1347 -5.33998 -2.97752 0
M  V30 1037 H 101.309 -6.32523 -2.91354 0
M  V30 1038 H 98.9357 -7.03505 -2.88071 0
M  V30 1039 N 100.511 1.16574 -1.06058 0
M  V30 1040 C 101.741 1.90675 -0.795397 0
M  V30 1041 C 102.149 1.77547 0.653735 0
M  V30 1042 O 101.492 1.11611 1.45907 0
M  V30 1043 C 101.554 3.42011 -1.10764 0
M  V30 1044 C 101.218 3.78924 -2.55471 0
M  V30 1045 C 102.215 3.81042 -3.53699 0
M  V30 1046 C 99.8998 4.09626 -2.90708 0
M  V30 1047 C 101.894 4.13346 -4.85205 0
M  V30 1048 C 99.5808 4.41597 -4.22416 0
M  V30 1049 C 100.579 4.43436 -5.19474 0
M  V30 1050 O 100.267 4.74649 -6.48817 0
M  V30 1051 H 99.9988 0.611554 -0.288058 0
M  V30 1052 H 102.553 1.48711 -1.41683 0
M  V30 1053 H 100.783 3.84312 -0.429128 0
M  V30 1054 H 102.472 3.97384 -0.827077 0
M  V30 1055 H 103.238 3.57437 -3.27817 0
M  V30 1056 H 99.1168 4.07361 -2.15819 0
M  V30 1057 H 102.661 4.14696 -5.60957 0
M  V30 1058 H 98.5578 4.64667 -4.48056 0
M  V30 1059 H 99.3258 4.9247 -6.5377 0
M  V30 1060 N 101.989 0.842826 1.3317 0
M  V30 1061 C 103.405 0.531128 1.50503 0
M  V30 1062 C 103.605 -0.940734 1.78192 0
M  V30 1063 O 102.661 -1.72436 1.84451 0
M  V30 1064 C 103.974 1.40789 2.65705 0
M  V30 1065 C 105.522 1.40708 2.79589 0
M  V30 1066 C 105.997 2.26878 3.97857 0
M  V30 1067 N 107.488 2.24609 4.05099 0
M  V30 1068 C 108.223 2.88019 4.95815 0
M  V30 1069 N 107.719 3.60496 5.9162 0
M  V30 1070 N 109.512 2.77469 4.88843 0
M  V30 1071 H 101.663 1.79557 1.1346 0
M  V30 1072 H 103.926 0.766267 0.558156 0
M  V30 1073 H 103.632 2.454 2.51936 0
M  V30 1074 H 103.506 1.08677 3.61205 0
M  V30 1075 H 105.893 0.368668 2.92788 0
M  V30 1076 H 105.974 1.76829 1.84838 0
M  V30 1077 H 105.618 3.3078 3.85418 0
M  V30 1078 H 105.548 1.88096 4.91861 0
M  V30 1079 H 108.039 1.71906 3.36536 0
M  V30 1080 H 108.352 4.06076 6.57512 0
M  V30 1081 H 106.697 3.64604 5.91683 0
M  V30 1082 H 109.888 2.20406 4.12963 0
M  V30 1083 H 110.061 3.2717 5.59342 0
M  V30 1084 N 103.467 -1.45747 0.599634 0
M  V30 1085 C 104.695 -2.06668 0.0978551 0
M  V30 1086 C 105.11 -1.44562 -1.21439 0
M  V30 1087 O 104.467 -0.556923 -1.73795 0
M  V30 1088 C 104.518 -3.61456 -0.0567044 0
M  V30 1089 O 104.239 -4.21242 1.20361 0
M  V30 1090 C 105.74 -4.39345 -0.590869 0
M  V30 1091 H 102.96 -0.667825 0.0651943 0
M  V30 1092 H 105.504 -1.87115 0.82511 0
M  V30 1093 H 103.659 -3.80378 -0.734251 0
M  V30 1094 H 104.073 -5.14323 1.02821 0
M  V30 1095 H 105.547 -5.48182 -0.648131 0
M  V30 1096 H 106.024 -4.08568 -1.61147 0
M  V30 1097 H 106.63 -4.25268 0.0523679 0
M  V30 1098 N 104.945 -0.338344 -1.53925 0
M  V30 1099 C 106.194 0.260732 -2.00008 0
M  V30 1100 C 106.507 1.52073 -1.23017 0
M  V30 1101 O 107.713 2.19672 -1.5955 0
M  V30 1102 C 106.169 0.51515 -3.56194 0
M  V30 1103 C 105.777 -0.728645 -4.42035 0
M  V30 1104 C 107.521 1.07337 -4.10706 0
M  V30 1105 C 105.428 -0.445315 -5.89721 0
M  V30 1106 H 104.358 0.101205 -0.747177 0
M  V30 1107 H 107.009 -0.452866 -1.77824 0
M  V30 1108 H 105.391 1.28932 -3.74423 0
M  V30 1109 H 106.565 -1.50352 -4.35581 0
M  V30 1110 H 104.88 -1.20813 -3.98489 0
M  V30 1111 H 107.477 1.30022 -5.18651 0
M  V30 1112 H 107.82 2.0273 -3.63602 0
M  V30 1113 H 108.353 0.360034 -3.96167 0
M  V30 1114 H 105.092 -1.36883 -6.41049 0
M  V30 1115 H 104.612 0.291569 -5.99091 0
M  V30 1116 H 106.291 -0.0606218 -6.46972 0
M  V30 1117 N 106.423 1.57458 -0.0668435 0
M  V30 1118 C 107.839 1.56947 0.289772 0
M  V30 1119 C 108.039 1.07584 1.70376 0
M  V30 1120 O 107.095 0.739486 2.41429 0
M  V30 1121 C 108.408 3.0052 0.103943 0
M  V30 1122 C 109.956 3.12517 0.173857 0
M  V30 1123 C 110.431 4.57997 0.0163682 0
M  V30 1124 N 111.922 4.63144 0.0721352 0
M  V30 1125 C 112.657 5.73394 -0.0253794 0
M  V30 1126 N 112.153 6.92576 -0.176133 0
M  V30 1127 N 113.946 5.62091 0.0313305 0
M  V30 1128 H 106.097 1.87863 -0.991027 0
M  V30 1129 H 108.36 0.86583 -0.38606 0
M  V30 1130 H 108.066 3.40729 -0.871572 0
M  V30 1131 H 107.94 3.67304 0.858366 0
M  V30 1132 H 110.327 2.72197 1.13985 0
M  V30 1133 H 110.408 2.48381 -0.611586 0
M  V30 1134 H 110.052 4.99005 -0.946374 0
M  V30 1135 H 109.982 5.20158 0.821153 0
M  V30 1136 H 112.473 3.77436 0.187263 0
M  V30 1137 H 112.786 7.72418 -0.242821 0
M  V30 1138 H 111.131 6.94678 -0.211429 0
M  V30 1139 H 114.322 4.67867 0.147773 0
M  V30 1140 H 114.495 6.47982 -0.048121 0
M  V30 1141 N 107.901 -0.206675 1.56239 0
M  V30 1142 C 108.834 -1.28383 1.88661 0
M  V30 1143 C 109.812 -1.44504 0.745481 0
M  V30 1144 O 110.996 -1.60079 0.995336 0
M  V30 1145 C 108.123 -2.65211 2.10667 0
M  V30 1146 C 107.169 -2.66025 3.33366 0
M  V30 1147 S 108.002 -2.18609 4.88846 0
M  V30 1148 C 109.158 -3.57283 5.13906 0
M  V30 1149 H 109.391 -1.00691 2.7973 0
M  V30 1150 H 106.924 -0.409627 1.48867 0
M  V30 1151 H 108.882 -3.43979 2.24029 0
M  V30 1152 H 107.543 -2.90121 1.20369 0
M  V30 1153 H 106.736 -3.66607 3.45855 0
M  V30 1154 H 106.338 -1.95331 3.18938 0
M  V30 1155 H 108.63 -4.53074 5.03717 0
M  V30 1156 H 109.573 -3.49699 6.15724 0
M  V30 1157 H 109.981 -3.51659 4.41583 0
M  V30 1158 N 109.379 -1.50304 -0.473955 0
M  V30 1159 C 110.312 -1.63595 -1.59097 0
M  V30 1160 C 111.29 -0.484142 -1.55225 0
M  V30 1161 O 112.474 -0.703271 -1.7489 0
M  V30 1162 C 109.601 -1.61589 -2.97669 0
M  V30 1163 C 108.647 -2.82295 -3.19705 0
M  V30 1164 S 109.48 -4.43635 -2.99913 0
M  V30 1165 C 110.636 -4.44317 -4.40832 0
M  V30 1166 H 110.869 -2.58082 -1.47583 0
M  V30 1167 H 108.402 -1.39531 -0.661087 0
M  V30 1168 H 110.36 -1.61116 -3.7756 0
M  V30 1169 H 109.021 -0.683421 -3.06575 0
M  V30 1170 H 108.214 -2.77188 -4.20931 0
M  V30 1171 H 107.816 -2.8032 -2.47582 0
M  V30 1172 H 110.108 -4.17703 -5.33414 0
M  V30 1173 H 111.051 -5.45911 -4.50984 0
M  V30 1174 H 111.459 -3.74059 -4.22777 0
M  V30 1175 N 110.857 0.726932 -1.39834 0
M  V30 1176 C 111.767 1.87131 -1.41489 0
M  V30 1177 C 112.783 1.71239 -0.308757 0
M  V30 1178 O 113.959 1.93701 -0.551529 0
M  V30 1179 C 111.024 3.22811 -1.26468 0
M  V30 1180 C 110.085 3.51039 -2.47124 0
M  V30 1181 C 109.318 4.80245 -2.3281 0
M  V30 1182 O 109.541 5.54537 -1.33585 0
M  V30 1183 O 108.475 5.08554 -3.21957 0
M  V30 1184 H 112.301 1.8869 -2.3797 0
M  V30 1185 H 109.886 0.875837 -1.21035 0
M  V30 1186 H 111.768 4.03877 -1.20255 0
M  V30 1187 H 110.443 3.22005 -0.330862 0
M  V30 1188 H 109.35 2.70027 -2.58914 0
M  V30 1189 H 110.683 3.56632 -3.39227 0
M  V30 1190 N 112.336 1.25143 0.95797 0
M  V30 1191 C 113.284 1.05019 2.07542 0
M  V30 1192 C 114.278 -0.0178751 1.69391 0
M  V30 1193 O 115.484 0.137472 1.79474 0
M  V30 1194 H 111.859 0.32265 0.679265 0
M  V30 1195 H 113.83 1.99759 2.21673 0
M  V30 1196 C 112.579 0.682074 3.40944 0
M  V30 1197 H 111.902 1.49573 3.70767 0
M  V30 1198 H 113.342 0.580945 4.20001 0
M  V30 1199 C 111.801 -0.611608 3.31302 0
M  V30 1200 O 112.331 -1.65465 3.66038 0
M  V30 1201 N 110.537 -0.595982 2.84423 0
M  V30 1202 H 110.084 0.253192 2.56353 0
M  V30 1203 H 110.042 -1.46173 2.78354 0
M  V30 1204 N 113.814 -1.1601 1.06675 0
M  V30 1205 C 115.062 -1.86264 0.784229 0
M  V30 1206 C 115.383 -1.82328 -0.691488 0
M  V30 1207 O 114.653 -1.25947 -1.50047 0
M  V30 1208 H 113.233 -0.689621 0.28711 0
M  V30 1209 H 115.895 -1.40664 1.34906 0
M  V30 1210 H 114.991 -2.91595 1.11259 0
M  V30 1211 N 115.292 -0.849877 -1.32721 0
M  V30 1212 C 116.541 -0.447175 -1.96681 0
M  V30 1213 C 116.854 1.00135 -1.68025 0
M  V30 1214 O 118.06 1.50926 -2.25685 0
M  V30 1215 C 116.516 -0.7487 -3.52026 0
M  V30 1216 C 116.124 -2.21264 -3.89546 0
M  V30 1217 C 117.868 -0.413487 -4.22481 0
M  V30 1218 C 115.775 -2.45763 -5.37917 0
M  V30 1219 H 114.705 -0.163486 -0.736063 0
M  V30 1220 H 117.356 -1.03999 -1.51183 0
M  V30 1221 H 115.738 -0.0853727 -3.95908 0
M  V30 1222 H 116.912 -2.91736 -3.56689 0
M  V30 1223 H 115.227 -2.5119 -3.32103 0
M  V30 1224 H 117.824 -0.574017 -5.3161 0
M  V30 1225 H 118.167 0.644492 -4.11281 0
M  V30 1226 H 118.7 -1.03251 -3.84167 0
M  V30 1227 H 115.439 -3.50168 -5.54132 0
M  V30 1228 H 114.959 -1.79864 -5.72197 0
M  V30 1229 H 116.638 -2.29471 -6.0494 0
M  V30 1230 N 116.77 1.45427 -0.607355 0
M  V30 1231 C 117.717 2.3053 0.111625 0
M  V30 1232 C 118.687 1.4209 0.860216 0
M  V30 1233 O 119.872 1.71019 0.845998 0
M  V30 1234 C 117.012 3.26992 1.10319 0
M  V30 1235 C 116.125 4.30535 0.355493 0
M  V30 1236 C 115.26 5.14105 1.33676 0
M  V30 1237 C 114.299 6.09376 0.576862 0
M  V30 1238 N 113.436 6.85727 1.5074 0
M  V30 1239 H 118.276 2.91477 -0.620093 0
M  V30 1240 H 115.813 1.43631 -0.317594 0
M  V30 1241 H 117.771 3.81385 1.6912 0
M  V30 1242 H 116.401 2.67799 1.80232 0
M  V30 1243 H 115.453 3.78805 -0.348023 0
M  V30 1244 H 116.765 4.98235 -0.237423 0
M  V30 1245 H 115.919 5.72897 1.99684 0
M  V30 1246 H 114.658 4.46423 1.9636 0
M  V30 1247 H 113.663 5.49715 -0.0968519 0
M  V30 1248 H 114.888 6.79085 -0.0449341 0
M  V30 1249 H 112.834 6.20735 2.12189 0
M  V30 1250 H 112.751 7.49778 0.967913 0
M  V30 1251 H 114.019 7.4906 2.15706 0
M  V30 1252 N 118.248 0.346503 1.53744 0
M  V30 1253 C 119.659 -0.136779 1.86198 0
M  V30 1254 C 120.01 -1.49749 1.26766 0
M  V30 1255 O 119.135 -2.08417 0.582355 0
M  V30 1256 C 119.73 -0.254966 3.37839 0
M  V30 1257 C 118.289 -0.682482 3.70161 0
M  V30 1258 C 117.436 0.181981 2.76702 0
M  V30 1259 H 120.387 0.565994 1.48264 0
M  V30 1260 H 120.408 -1.08195 3.64793 0
M  V30 1261 H 119.92 0.735526 3.81066 0
M  V30 1262 H 118.021 -1.68189 3.3248 0
M  V30 1263 H 118.134 -0.470326 4.76786 0
M  V30 1264 H 116.498 -0.34615 2.52337 0
M  V30 1265 H 117.281 1.16966 3.2276 0
M  V30 1266 N 119.726 -1.57421 0.075193 0
M  V30 1267 C 120.972 -1.93905 -0.594025 0
M  V30 1268 C 121.305 -0.955701 -1.69056 0
M  V30 1269 O 120.58 0.0145373 -1.94495 0
M  V30 1270 C 120.863 -3.40638 -1.1678 0
M  V30 1271 C 120.716 -4.49733 -0.0776792 0
M  V30 1272 C 122.035 -3.88259 -2.07228 0
M  V30 1273 H 119.154 -0.705105 -0.214466 0
M  V30 1274 H 121.796 -1.8947 0.141854 0
M  V30 1275 H 119.946 -3.44549 -1.79494 0
M  V30 1276 H 121.618 -4.57942 0.555573 0
M  V30 1277 H 119.861 -4.29751 0.591286 0
M  V30 1278 H 120.532 -5.49549 -0.519603 0
M  V30 1279 H 123.008 -3.86376 -1.54445 0
M  V30 1280 H 121.884 -4.91533 -2.44308 0
M  V30 1281 H 122.145 -3.26396 -2.98191 0
M  V30 1282 N 121.204 0.198386 -1.56346 0
M  V30 1283 C 122.434 0.934215 -1.84271 0
M  V30 1284 C 122.842 1.77496 -0.655125 0
M  V30 1285 O 122.185 1.7961 0.385488 0
M  V30 1286 C 122.247 1.88278 -3.06254 0
M  V30 1287 C 121.911 1.22431 -4.40295 0
M  V30 1288 C 122.908 0.602839 -5.16393 0
M  V30 1289 C 120.593 1.22915 -4.87029 0
M  V30 1290 C 122.587 -0.0050083 -6.374 0
M  V30 1291 C 120.274 0.617465 -6.07973 0
M  V30 1292 C 121.272 0.00146341 -6.83 0
M  V30 1293 O 120.96 -0.600642 -8.01653 0
M  V30 1294 H 120.692 0.278245 -0.616081 0
M  V30 1295 H 123.246 0.211626 -2.04307 0
M  V30 1296 H 121.476 2.64498 -2.82095 0
M  V30 1297 H 123.165 2.48612 -3.20853 0
M  V30 1298 H 123.931 0.591265 -4.81382 0
M  V30 1299 H 119.81 1.69801 -4.28589 0
M  V30 1300 H 123.354 -0.48643 -6.95902 0
M  V30 1301 H 119.251 0.62653 -6.42452 0
M  V30 1302 H 120.019 -0.497225 -8.16988 0
M  V30 1303 N 122.682 1.50554 0.465978 0
M  V30 1304 C 123.928 1.62038 1.21949 0
M  V30 1305 C 124.261 0.322116 1.9151 0
M  V30 1306 O 123.536 -0.676723 1.82348 0
M  V30 1307 C 123.819 2.80421 2.25912 0
M  V30 1308 C 123.672 4.20144 1.60622 0
M  V30 1309 C 124.991 2.94354 3.27176 0
M  V30 1310 H 122.11 0.589752 0.441998 0
M  V30 1311 H 124.752 1.82956 0.51257 0
M  V30 1312 H 122.902 2.62717 2.86203 0
M  V30 1313 H 124.574 4.49449 1.03889 0
M  V30 1314 H 122.817 4.24165 0.909211 0
M  V30 1315 H 123.488 4.98914 2.36196 0
M  V30 1316 H 125.964 3.10578 2.76913 0
M  V30 1317 H 124.84 3.788 3.97242 0
M  V30 1318 H 125.101 2.05186 3.916 0
M  V30 1319 N 124.16 -0.719506 1.40217 0
M  V30 1320 C 125.407 -1.47933 1.38283 0
M  V30 1321 C 125.735 -1.94493 -0.0161536 0
M  V30 1322 O 124.99 -1.68224 -0.999956 0
M  V30 1323 C 125.289 -2.72271 2.31524 0
M  V30 1324 C 124.955 -2.44496 3.78857 0
M  V30 1325 C 123.617 -2.36631 4.18998 0
M  V30 1326 C 125.969 -2.21104 4.71977 0
M  V30 1327 C 123.297 -2.03437 5.503 0
M  V30 1328 C 125.649 -1.89423 6.03574 0
M  V30 1329 C 124.313 -1.80038 6.42762 0
M  V30 1330 H 123.583 -0.541325 0.506012 0
M  V30 1331 H 126.23 -0.824502 1.72842 0
M  V30 1332 H 124.535 -3.42572 1.90137 0
M  V30 1333 H 126.232 -3.30348 2.27313 0
M  V30 1334 H 122.822 -2.51503 3.47051 0
M  V30 1335 H 127.006 -2.26139 4.41786 0
M  V30 1336 H 122.262 -1.94705 5.79569 0
M  V30 1337 H 126.436 -1.70336 6.75247 0
M  V30 1338 H 124.063 -1.54083 7.44421 0
M  V30 1339 N 125.638 -1.25649 -0.95132 0
M  V30 1340 C 126.915 -1.01361 -1.67288 0
M  V30 1341 C 127.295 0.459135 -2.06046 0
M  V30 1342 O 126.643 1.43723 -1.7764 0
M  V30 1343 C 126.853 -1.95256 -2.89268 0
M  V30 1344 C 128.201 -2.23289 -3.61147 0
M  V30 1345 O 129.225 -1.93041 -2.99355 0
M  V30 1346 O 128.084 -2.74741 -4.72419 0
M  V30 1347 H 125.178 -0.38464 -0.732107 0
M  V30 1348 H 127.724 -1.36817 -1.00395 0
M  V30 1349 H 126.496 -2.94685 -2.57442 0
M  V30 1350 H 126.119 -1.60218 -3.6389 0
M  V30 1351 N 127.117 1.15442 -1.07289 0
M  V30 1352 C 128.365 1.85845 -0.794096 0
M  V30 1353 C 128.686 1.82692 0.681809 0
M  V30 1354 O 127.956 1.26741 1.49377 0
M  V30 1355 H 126.536 0.688089 -0.290763 0
M  V30 1356 H 129.198 1.39947 -1.3565 0
M  V30 1357 H 128.294 2.91001 -1.12804 0
M  V30 1358 N 128.595 0.856903 1.32268 0
M  V30 1359 C 129.542 0.301172 2.28827 0
M  V30 1360 C 130.512 -0.593104 1.5515 0
M  V30 1361 O 131.697 -0.527537 1.83362 0
M  V30 1362 C 128.837 -0.502523 3.41422 0
M  V30 1363 C 127.95 0.417797 4.29975 0
M  V30 1364 C 127.085 -0.398749 5.29701 0
M  V30 1365 C 126.124 0.518827 6.09897 0
M  V30 1366 N 125.261 -0.260674 7.01616 0
M  V30 1367 H 130.101 1.12983 2.75751 0
M  V30 1368 H 127.638 0.568582 1.35667 0
M  V30 1369 H 129.596 -0.984141 4.05426 0
M  V30 1370 H 128.226 -1.29599 2.95642 0
M  V30 1371 H 127.278 1.01781 3.66531 0
M  V30 1372 H 128.59 1.12191 4.86019 0
M  V30 1373 H 127.744 -0.943435 5.9932 0
M  V30 1374 H 126.483 -1.13622 4.7428 0
M  V30 1375 H 125.488 1.07538 5.39181 0
M  V30 1376 H 126.713 1.25495 6.67404 0
M  V30 1377 H 124.659 -0.981198 6.4862 0
M  V30 1378 H 124.576 0.384364 7.55022 0
M  V30 1379 H 125.844 -0.787014 7.75517 0
M  V30 1380 N 130.073 -1.45103 0.615059 0
M  V30 1381 C 131.484 -1.85654 0.197383 0
M  V30 1382 C 131.835 -1.51433 -1.24749 0
M  V30 1383 O 130.96 -0.944608 -1.94695 0
M  V30 1384 C 131.555 -3.36972 0.351448 0
M  V30 1385 C 130.114 -3.76398 -0.011593 0
M  V30 1386 C 129.261 -2.69024 0.672394 0
M  V30 1387 H 132.212 -1.35797 0.821263 0
M  V30 1388 H 132.233 -3.78239 -0.414227 0
M  V30 1389 H 131.745 -3.61847 1.40314 0
M  V30 1390 H 129.846 -3.5714 -1.06217 0
M  V30 1391 H 129.959 -4.77532 0.387265 0
M  V30 1392 H 128.323 -2.54465 0.109284 0
M  V30 1393 H 129.106 -2.96735 1.72636 0
M  V30 1394 N 131.551 -0.354651 -1.53558 0
M  V30 1395 C 132.962 0.126902 -1.86268 0
M  V30 1396 C 133.313 1.49075 -1.27558 0
M  V30 1397 O 132.438 2.08105 -0.5934 0
M  V30 1398 C 133.033 0.237046 -3.3797 0
M  V30 1399 C 131.592 0.662842 -3.70518 0
M  V30 1400 C 130.739 -0.196652 -2.76602 0
M  V30 1401 H 133.69 -0.573849 -1.47962 0
M  V30 1402 H 133.711 1.06259 -3.65362 0
M  V30 1403 H 133.223 -0.755725 -3.80671 0
M  V30 1404 H 131.324 1.66424 -3.33367 0
M  V30 1405 H 131.437 0.445034 -4.77029 0
M  V30 1406 H 129.801 0.332763 -2.52517 0
M  V30 1407 H 130.584 -1.18676 -3.22135 0
M  V30 1408 N 133.029 1.57378 -0.0835403 0
M  V30 1409 C 133.961 2.10389 0.909338 0
M  V30 1410 C 134.974 1.03858 1.25369 0
M  V30 1411 O 136.163 1.31338 1.20882 0
M  V30 1412 C 133.263 2.55908 2.2218 0
M  V30 1413 C 132.436 3.86145 2.05453 0
M  V30 1414 C 131.495 4.17633 3.20108 0
M  V30 1415 O 130.521 4.87043 2.94581 0
M  V30 1416 N 131.723 3.72113 4.45547 0
M  V30 1417 H 134.488 2.962 0.456657 0
M  V30 1418 H 132.049 1.61579 0.101877 0
M  V30 1419 H 134.041 2.74027 2.97811 0
M  V30 1420 H 132.611 1.75171 2.58909 0
M  V30 1421 H 131.831 3.7729 1.1422 0
M  V30 1422 H 133.119 4.7137 1.91541 0
M  V30 1423 H 132.517 3.16062 4.69171 0
M  V30 1424 H 131.074 3.95409 5.18165 0
M  V30 1425 N 134.507 -0.190092 1.56449 0
M  V30 1426 C 135.437 -1.23816 1.97969 0
M  V30 1427 C 136.418 -1.47201 0.852395 0
M  V30 1428 O 137.603 -1.58854 1.1171 0
M  V30 1429 C 134.733 -2.5813 2.3235 0
M  V30 1430 C 133.687 -2.49348 3.47864 0
M  V30 1431 C 133.013 -3.8798 3.67934 0
M  V30 1432 C 134.313 -2.01424 4.81898 0
M  V30 1433 H 136.007 -0.89311 2.85769 0
M  V30 1434 H 133.553 -0.428177 1.37487 0
M  V30 1435 H 135.506 -3.31637 2.59991 0
M  V30 1436 H 134.23 -2.94386 1.41438 0
M  V30 1437 H 132.889 -1.78297 3.20321 0
M  V30 1438 H 132.537 -4.21597 2.74344 0
M  V30 1439 H 132.237 -3.82978 4.45648 0
M  V30 1440 H 133.761 -4.63101 3.97957 0
M  V30 1441 H 135.175 -2.64693 5.08538 0
M  V30 1442 H 133.572 -2.07413 5.63116 0
M  V30 1443 H 134.642 -0.967677 4.75146 0
M  V30 1444 N 135.985 -1.50799 -0.457987 0
M  V30 1445 C 136.932 -1.70617 -1.5543 0
M  V30 1446 C 137.902 -0.547562 -1.56815 0
M  V30 1447 O 139.087 -0.779647 -1.74144 0
M  V30 1448 C 136.227 -1.81831 -2.93311 0
M  V30 1449 C 135.34 -3.09278 -3.01615 0
M  V30 1450 C 134.475 -3.11209 -4.30491 0
M  V30 1451 C 133.514 -4.33055 -4.32585 0
M  V30 1452 N 132.651 -4.32652 -5.52952 0
M  V30 1453 H 137.491 -2.64207 -1.37836 0
M  V30 1454 H 135.028 -1.30959 -0.669937 0
M  V30 1455 H 136.986 -1.86314 -3.73287 0
M  V30 1456 H 135.616 -0.916685 -3.0951 0
M  V30 1457 H 134.668 -3.14203 -2.1443 0
M  V30 1458 H 135.98 -3.99233 -2.99022 0
M  V30 1459 H 135.134 -3.14494 -5.18824 0
M  V30 1460 H 133.873 -2.19106 -4.35711 0
M  V30 1461 H 132.878 -4.29969 -3.42647 0
M  V30 1462 H 134.103 -5.264 -4.29046 0
M  V30 1463 H 132.049 -3.43409 -5.58933 0
M  V30 1464 H 131.966 -5.16392 -5.52155 0
M  V30 1465 H 133.234 -4.40101 -6.43375 0
M  V30 1466 N 137.463 0.71206 -1.40597 0
M  V30 1467 C 138.688 1.50617 -1.42581 0
M  V30 1468 C 139.113 1.88079 -0.0282102 0
M  V30 1469 O 138.471 1.53511 0.964579 0
M  V30 1470 C 138.519 2.7557 -2.3258 0
M  V30 1471 O 137.623 3.72414 -1.77148 0
M  V30 1472 H 136.964 0.453966 -0.484573 0
M  V30 1473 H 139.494 0.876649 -1.84868 0
M  V30 1474 H 139.504 3.2406 -2.47889 0
M  V30 1475 H 138.179 2.47639 -3.34138 0
M  V30 1476 H 136.756 3.31276 -1.71204 0
M  V30 1477 N 138.941 1.26152 0.944643 0
M  V30 1478 C 140.189 1.11271 1.6871 0
M  V30 1479 C 140.51 -0.345166 1.91921 0
M  V30 1480 O 139.78 -1.24387 1.51343 0
M  V30 1481 H 138.36 0.408783 0.625224 0
M  V30 1482 H 141.022 1.58427 1.1352 0
M  V30 1483 H 140.118 1.62879 2.66227 0
M  V30 1484 N 140.419 -1.14872 1.07899 0
M  V30 1485 C 141.329 -2.2341 0.715915 0
M  V30 1486 C 142.345 -1.71808 -0.275306 0
M  V30 1487 O 143.521 -2.01039 -0.120545 0
M  V30 1488 C 140.586 -3.46474 0.125168 0
M  V30 1489 C 139.647 -4.13039 1.17034 0
M  V30 1490 C 138.88 -5.30229 0.607688 0
M  V30 1491 O 139.103 -5.675 -0.574497 0
M  V30 1492 O 138.037 -5.86444 1.35526 0
M  V30 1493 H 141.863 -2.56808 1.62121 0
M  V30 1494 H 139.448 -1.22702 0.852322 0
M  V30 1495 H 141.33 -4.20917 -0.201729 0
M  V30 1496 H 140.005 -3.14811 -0.753364 0
M  V30 1497 H 138.912 -3.40493 1.54968 0
M  V30 1498 H 140.245 -4.48796 2.02097 0
M  V30 1499 N 141.898 -0.863906 -1.31812 0
M  V30 1500 C 142.828 -0.330843 -2.31144 0
M  V30 1501 C 143.809 0.575005 -1.60087 0
M  V30 1502 O 144.994 0.493304 -1.8783 0
M  V30 1503 C 142.124 0.47374 -3.44054 0
M  V30 1504 C 141.078 -0.338481 -4.26659 0
M  V30 1505 C 140.404 0.591412 -5.31419 0
M  V30 1506 C 141.704 -1.56926 -4.98168 0
M  V30 1507 H 143.398 -1.16086 -2.75979 0
M  V30 1508 H 140.944 -0.559657 -1.32679 0
M  V30 1509 H 142.897 0.857143 -4.12591 0
M  V30 1510 H 141.621 1.33721 -2.9797 0
M  V30 1511 H 140.28 -0.703754 -3.59782 0
M  V30 1512 H 139.928 1.45199 -4.81587 0
M  V30 1513 H 139.628 0.0519022 -5.87577 0
M  V30 1514 H 141.152 0.97179 -6.02817 0
M  V30 1515 H 142.566 -1.25764 -5.59336 0
M  V30 1516 H 140.963 -2.04739 -5.64094 0
M  V30 1517 H 142.033 -2.32544 -4.25501 0
M  V30 1518 N 143.376 1.44774 -0.622745 0
M  V30 1519 C 144.339 2.29069 0.0774015 0
M  V30 1520 C 145.339 1.4059 0.780461 0
M  V30 1521 O 146.529 1.62551 0.626322 0
M  V30 1522 C 143.661 3.21974 1.12006 0
M  V30 1523 H 144.854 2.92459 -0.663901 0
M  V30 1524 H 142.407 1.51548 -0.382486 0
M  V30 1525 H 143.142 2.63417 1.89162 0
M  V30 1526 H 142.927 3.87168 0.619951 0
M  V30 1527 H 144.417 3.85318 1.60995 0
M  V30 1528 N 144.854 0.36279 1.53368 0
M  V30 1529 C 145.801 -0.485008 2.25646 0
M  V30 1530 C 146.771 -1.07982 1.2621 0
M  V30 1531 O 147.956 -1.11284 1.54986 0
M  V30 1532 C 145.096 -1.62023 3.04701 0
M  V30 1533 C 144.209 -1.05086 4.19024 0
M  V30 1534 C 143.344 -2.15496 4.85525 0
M  V30 1535 C 142.383 -1.5601 5.91884 0
M  V30 1536 N 141.52 -2.60241 6.52088 0
M  V30 1537 H 146.36 0.137864 2.97681 0
M  V30 1538 H 143.897 0.0798061 1.46883 0
M  V30 1539 H 145.855 -2.28887 3.48807 0
M  V30 1540 H 144.485 -2.2138 2.34927 0
M  V30 1541 H 143.537 -0.27259 3.79422 0
M  V30 1542 H 144.849 -0.575926 4.95464 0
M  V30 1543 H 144.003 -2.90186 5.32801 0
M  V30 1544 H 142.742 -2.66341 4.08551 0
M  V30 1545 H 141.747 -0.798338 5.43973 0
M  V30 1546 H 142.972 -1.05994 6.70777 0
M  V30 1547 H 140.918 -3.10304 5.77968 0
M  V30 1548 H 140.835 -2.17426 7.24059 0
M  V30 1549 H 142.103 -3.34641 7.04014 0
M  V30 1550 N 146.332 -1.57332 0.0918853 0
M  V30 1551 C 147.748 -1.57389 -0.264766 0
M  V30 1552 C 147.948 -1.10281 -1.68643 0
M  V30 1553 O 147.004 -0.777801 -2.40222 0
M  V30 1554 C 148.317 -3.00648 -0.0561195 0
M  V30 1555 C 149.865 -3.12754 -0.124116 0
M  V30 1556 C 150.34 -4.57965 0.0564972 0
M  V30 1557 N 151.831 -4.632 0.00155611 0
M  V30 1558 C 152.566 -5.73281 0.116598 0
M  V30 1559 N 152.062 -6.92208 0.286294 0
M  V30 1560 N 153.855 -5.6207 0.0580973 0
M  V30 1561 H 146.006 -1.86262 1.02079 0
M  V30 1562 H 148.269 -0.859579 0.399786 0
M  V30 1563 H 147.975 -3.393 0.925669 0
M  V30 1564 H 147.849 -3.68623 -0.799823 0
M  V30 1565 H 150.236 -2.73976 -1.09641 0
M  V30 1566 H 150.317 -2.47377 0.651024 0
M  V30 1567 H 149.961 -4.97436 1.02564 0
M  V30 1568 H 149.891 -5.21399 -0.738297 0
M  V30 1569 H 152.382 -3.77686 -0.127192 0
M  V30 1570 H 152.695 -7.71934 0.365676 0
M  V30 1571 H 151.04 -6.94254 0.32192 0
M  V30 1572 H 154.231 -4.68043 -0.0733204 0
M  V30 1573 H 154.404 -6.47824 0.151203 0
M  V30 1574 N 147.81 0.181792 -1.56548 0
M  V30 1575 C 149.035 0.920019 -1.85877 0
M  V30 1576 C 149.46 1.75494 -0.677021 0
M  V30 1577 O 148.818 1.77399 0.374056 0
M  V30 1578 C 148.866 1.78112 -3.13542 0
M  V30 1579 O 147.97 2.88152 -2.95029 0
M  V30 1580 H 147.311 0.258334 -0.611686 0
M  V30 1581 H 149.841 0.183092 -2.03779 0
M  V30 1582 H 149.851 2.18314 -3.44678 0
M  V30 1583 H 148.526 1.16777 -3.99169 0
M  V30 1584 H 147.103 2.51609 -2.75222 0
M  V30 1585 N 149.288 1.51039 0.449983 0
M  V30 1586 C 150.198 1.74261 1.57067 0
M  V30 1587 C 151.214 0.626363 1.62335 0
M  V30 1588 O 152.39 0.907162 1.79812 0
M  V30 1589 C 149.455 1.85114 2.93144 0
M  V30 1590 C 148.516 3.0893 2.98095 0
M  V30 1591 C 147.749 3.19256 4.27681 0
M  V30 1592 O 147.972 2.35835 5.19363 0
M  V30 1593 O 146.906 4.12144 4.38658 0
M  V30 1594 H 150.732 2.69303 1.40391 0
M  V30 1595 H 148.317 1.35389 0.631688 0
M  V30 1596 H 150.199 1.94311 3.73926 0
M  V30 1597 H 148.874 0.932588 3.09975 0
M  V30 1598 H 147.781 3.0522 2.16314 0
M  V30 1599 H 149.114 4.00433 2.86206 0
M  V30 1600 N 150.766 -0.704594 1.40972 0
M  V30 1601 C 152.182 -1.01406 1.23244 0
M  V30 1602 C 152.382 -2.01169 0.115399 0
M  V30 1603 O 151.438 -2.47021 -0.523147 0
M  V30 1604 C 152.751 -1.54728 2.57836 0
M  V30 1605 C 154.299 -1.66658 2.64942 0
M  V30 1606 C 154.774 -2.23383 3.9983 0
M  V30 1607 N 156.265 -2.30756 4.01629 0
M  V30 1608 C 157 -2.75655 5.02794 0
M  V30 1609 N 156.496 -3.20225 6.14352 0
M  V30 1610 N 158.289 -2.75138 4.90159 0
M  V30 1611 H 150.44 -0.0435285 2.12355 0
M  V30 1612 H 152.703 -0.0818951 0.944456 0
M  V30 1613 H 152.409 -0.888832 3.40283 0
M  V30 1614 H 152.283 -2.53084 2.79693 0
M  V30 1615 H 154.67 -2.31617 1.8286 0
M  V30 1616 H 154.751 -0.668717 2.46904 0
M  V30 1617 H 154.395 -1.59043 4.82357 0
M  V30 1618 H 154.325 -3.23904 4.15203 0
M  V30 1619 H 156.816 -1.99291 3.21079 0
M  V30 1620 H 157.129 -3.53084 6.87424 0
M  V30 1621 H 155.474 -3.18156 6.17901 0
M  V30 1622 H 158.665 -2.39661 4.02095 0
M  V30 1623 H 158.838 -3.09812 5.6914 0
M  V30 1624 N 152.244 -1.26651 -0.937939 0
M  V30 1625 C 153.66 -1.03834 -1.21205 0
M  V30 1626 C 153.86 0.234502 -2.00131 0
M  V30 1627 O 152.916 0.942767 -2.3424 0
M  V30 1628 C 154.229 -2.27167 -1.97017 0
M  V30 1629 C 155.777 -2.32101 -2.09996 0
M  V30 1630 C 156.252 -3.55136 -2.8921 0
M  V30 1631 N 157.743 -3.55632 -2.96783 0
M  V30 1632 C 158.478 -4.475 -3.58512 0
M  V30 1633 N 157.974 -5.4966 -4.21717 0
M  V30 1634 N 159.767 -4.35145 -3.55816 0
M  V30 1635 H 151.918 -2.08398 -0.410391 0
M  V30 1636 H 154.181 -0.916031 -0.244114 0
M  V30 1637 H 153.887 -3.19765 -1.46434 0
M  V30 1638 H 153.761 -2.31672 -2.97671 0
M  V30 1639 H 156.148 -1.40015 -2.59769 0
M  V30 1640 H 156.229 -2.31605 -1.08594 0
M  V30 1641 H 155.873 -4.47553 -2.40123 0
M  V30 1642 H 155.803 -3.5288 -3.90875 0
M  V30 1643 H 158.294 -2.81743 -2.51852 0
M  V30 1644 H 158.607 -6.15943 -4.66727 0
M  V30 1645 H 156.952 -5.53514 -4.20294 0
M  V30 1646 H 160.143 -3.5455 -3.05634 0
M  V30 1647 H 160.316 -5.06934 -4.03636 0
M  V30 1648 N 153.722 1.14298 -1.08507 0
M  V30 1649 C 154.685 2.17607 -0.719711 0
M  V30 1650 C 155.685 1.58907 0.245997 0
M  V30 1651 O 156.875 1.74181 0.0254081 0
M  V30 1652 C 154.007 3.40842 -0.0627695 0
M  V30 1653 H 155.2 2.51443 -1.63452 0
M  V30 1654 H 152.753 1.28963 -0.88307 0
M  V30 1655 H 153.488 3.12587 0.863716 0
M  V30 1656 H 153.273 3.84713 -0.757504 0
M  V30 1657 H 154.763 4.17221 0.177786 0
M  V30 1658 N 155.201 0.870884 1.31352 0
M  V30 1659 C 156.111 0.330783 2.32256 0
M  V30 1660 C 157.127 -0.559767 1.6475 0
M  V30 1661 O 158.303 -0.456263 1.96164 0
M  V30 1662 C 155.368 -0.458137 3.4366 0
M  V30 1663 C 154.429 0.460482 4.26823 0
M  V30 1664 C 153.662 -0.290881 5.32907 0
M  V30 1665 O 153.885 -1.51885 5.49806 0
M  V30 1666 O 152.819 0.351732 6.00871 0
M  V30 1667 H 156.645 1.16718 2.80376 0
M  V30 1668 H 154.23 0.634285 1.35267 0
M  V30 1669 H 156.112 -0.905343 4.1156 0
M  V30 1670 H 154.787 -1.27106 2.97701 0
M  V30 1671 H 153.694 0.956207 3.61673 0
M  V30 1672 H 155.027 1.23903 4.7635 0
M  V30 1673 N 156.679 -1.44442 0.630414 0
M  V30 1674 C 157.642 -2.29107 -0.0652523 0
M  V30 1675 C 158.642 -1.41002 -0.772995 0
M  V30 1676 O 159.832 -1.62881 -0.617692 0
M  V30 1677 C 156.964 -3.22564 -1.10296 0
M  V30 1678 H 158.157 -2.92103 0.679401 0
M  V30 1679 H 155.71 -1.51343 0.390517 0
M  V30 1680 H 156.445 -2.64416 -1.87762 0
M  V30 1681 H 156.23 -3.87491 -0.59941 0
M  V30 1682 H 157.72 -3.86167 -1.5895 0
M  V30 1683 N 158.157 -0.370918 -1.53173 0
M  V30 1684 C 159.067 0.480823 -2.2962 0
M  V30 1685 C 160.083 1.08789 -1.35798 0
M  V30 1686 O 161.259 1.09768 -1.68858 0
M  V30 1687 C 158.324 1.60227 -3.07454 0
M  V30 1688 C 157.385 1.0222 -4.16953 0
M  V30 1689 C 156.618 2.0902 -4.91066 0
M  V30 1690 O 156.841 3.30222 -4.65091 0
M  V30 1691 O 155.775 1.71778 -5.76867 0
M  V30 1692 H 159.601 -0.141421 -3.03371 0
M  V30 1693 H 157.186 -0.135146 -1.48787 0
M  V30 1694 H 159.068 2.25417 -3.56041 0
M  V30 1695 H 157.743 2.20982 -2.36535 0
M  V30 1696 H 156.65 0.334064 -3.72605 0
M  V30 1697 H 157.983 0.459131 -4.90054 0
M  V30 1698 N 159.635 1.57281 -0.100228 0
M  V30 1699 C 160.582 2.14305 0.856858 0
M  V30 1700 C 161.552 1.06296 1.27634 0
M  V30 1701 O 162.737 1.34109 1.35718 0
M  V30 1702 C 159.877 2.73184 2.10866 0
M  V30 1703 C 158.99 3.95442 1.73925 0
M  V30 1704 C 158.125 4.42468 2.93931 0
M  V30 1705 C 157.164 5.57303 2.5314 0
M  V30 1706 N 156.301 5.99158 3.65997 0
M  V30 1707 H 161.141 2.95772 0.363726 0
M  V30 1708 H 158.678 1.46139 0.167858 0
M  V30 1709 H 160.636 3.05442 2.84185 0
M  V30 1710 H 159.266 1.94437 2.57671 0
M  V30 1711 H 158.318 3.69464 0.905554 0
M  V30 1712 H 159.63 4.78769 1.39935 0
M  V30 1713 H 158.784 4.76537 3.75496 0
M  V30 1714 H 157.523 3.58052 3.31134 0
M  V30 1715 H 156.528 5.22857 1.70003 0
M  V30 1716 H 157.753 6.43471 2.17075 0
M  V30 1717 H 155.699 5.17687 4.02909 0
M  V30 1718 H 155.616 6.77295 3.35869 0
M  V30 1719 H 156.884 6.3786 4.48057 0
M  V30 1720 N 161.113 -0.173488 1.56642 0
M  V30 1721 C 162.045 -1.23935 1.92802 0
M  V30 1722 C 163.058 -1.40589 0.820889 0
M  V30 1723 O 164.247 -1.40631 1.09933 0
M  V30 1724 C 161.347 -2.60837 2.16373 0
M  V30 1725 C 160.52 -2.6551 3.47596 0
M  V30 1726 C 159.579 -3.8376 3.60021 0
M  V30 1727 O 158.605 -3.69859 4.32658 0
M  V30 1728 N 159.807 -5.00127 2.94709 0
M  V30 1729 H 162.572 -0.932236 2.84832 0
M  V30 1730 H 160.133 -0.363268 1.57772 0
M  V30 1731 H 162.125 -3.38407 2.21952 0
M  V30 1732 H 160.695 -2.83948 1.30738 0
M  V30 1733 H 159.915 -1.74052 3.53694 0
M  V30 1734 H 161.203 -2.65641 4.33949 0
M  V30 1735 H 160.601 -5.14322 2.35563 0
M  V30 1736 H 159.158 -5.75567 3.05886 0
M  V30 1737 N 162.591 -1.51276 -0.441967 0
M  V30 1738 C 163.521 -1.752 -1.54361 0
M  V30 1739 C 164.502 -0.601682 -1.59103 0
M  V30 1740 O 165.687 -0.843913 -1.74905 0
M  V30 1741 C 162.817 -1.87282 -2.92477 0
M  V30 1742 C 161.771 -3.02687 -3.02596 0
M  V30 1743 C 161.097 -2.99947 -4.42647 0
M  V30 1744 C 162.397 -4.4273 -2.77106 0
M  V30 1745 H 164.091 -2.67442 -1.34592 0
M  V30 1746 H 161.637 -1.28694 -0.646048 0
M  V30 1747 H 163.59 -2.02602 -3.695 0
M  V30 1748 H 162.314 -0.916844 -3.13467 0
M  V30 1749 H 160.973 -2.87065 -2.28012 0
M  V30 1750 H 160.621 -2.02136 -4.60597 0
M  V30 1751 H 160.321 -3.77439 -4.50348 0
M  V30 1752 H 161.845 -3.17354 -5.2165 0
M  V30 1753 H 163.259 -4.58727 -3.43864 0
M  V30 1754 H 161.656 -5.21893 -2.96222 0
M  V30 1755 H 162.726 -4.53087 -1.72744 0
M  V30 1756 N 164.069 0.697108 -1.41344 0
M  V30 1757 C 165.001 1.8224 -1.39001 0
M  V30 1758 C 166.014 1.60152 -0.292428 0
M  V30 1759 O 167.203 1.69684 -0.554048 0
M  V30 1760 C 164.303 3.18976 -1.14489 0
M  V30 1761 C 163.476 3.68105 -2.36258 0
M  V30 1762 C 162.535 4.83506 -2.07625 0
M  V30 1763 O 161.561 4.95201 -2.8065 0
M  V30 1764 N 162.763 5.70637 -1.06555 0
M  V30 1765 H 165.528 1.84742 -2.35988 0
M  V30 1766 H 163.089 0.87937 -1.35936 0
M  V30 1767 H 165.081 3.93801 -0.932885 0
M  V30 1768 H 163.651 3.11508 -0.261043 0
M  V30 1769 H 162.871 2.84204 -2.7317 0
M  V30 1770 H 164.159 3.97667 -3.17393 0
M  V30 1771 H 163.557 5.63817 -0.461125 0
M  V30 1772 H 162.114 6.45368 -0.913444 0
M  V30 1773 N 165.547 1.27147 0.931209 0
M  V30 1774 C 166.479 1.05364 2.03546 0
M  V30 1775 C 167.492 0.0108438 1.62796 0
M  V30 1776 O 168.681 0.25202 1.76712 0
M  V30 1777 C 165.781 0.575566 3.33977 0
M  V30 1778 C 164.954 1.68985 4.03439 0
M  V30 1779 C 164.013 1.20813 5.12143 0
M  V30 1780 O 163.039 1.90712 5.363 0
M  V30 1781 N 164.241 0.0618851 5.80467 0
M  V30 1782 H 167.006 2.00454 2.22796 0
M  V30 1783 H 164.567 1.18666 1.10136 0
M  V30 1784 H 166.559 0.237264 4.04004 0
M  V30 1785 H 165.129 -0.282016 3.11325 0
M  V30 1786 H 164.349 2.19861 3.27192 0
M  V30 1787 H 165.637 2.4378 4.46597 0
M  V30 1788 H 165.035 -0.521621 5.6329 0
M  V30 1789 H 163.592 -0.217264 6.51438 0
M  V30 1790 N 167.025 -1.13721 1.09112 0
M  V30 1791 C 167.988 -2.17222 0.731241 0
M  V30 1792 C 168.988 -1.59035 -0.237566 0
M  V30 1793 O 170.178 -1.74192 -0.0161704 0
M  V30 1794 C 167.31 -3.40804 0.0808443 0
M  V30 1795 H 168.503 -2.50573 1.64783 0
M  V30 1796 H 166.056 -1.28493 0.889897 0
M  V30 1797 H 166.791 -3.1304 -0.847127 0
M  V30 1798 H 166.576 -3.84306 0.777896 0
M  V30 1799 H 168.066 -4.1731 -0.155657 0
M  V30 1800 N 168.503 -0.877838 -1.30888 0
M  V30 1801 C 169.435 -0.296607 -2.27273 0
M  V30 1802 C 170.448 0.544799 -1.53414 0
M  V30 1803 O 171.637 0.365511 -1.74718 0
M  V30 1804 C 168.737 0.597481 -3.33592 0
M  V30 1805 C 167.91 -0.213251 -4.3688 0
M  V30 1806 C 166.969 0.610208 -5.2265 0
M  V30 1807 O 165.995 0.035441 -5.69189 0
M  V30 1808 N 167.197 1.92071 -5.47804 0
M  V30 1809 H 169.962 -1.12492 -2.77787 0
M  V30 1810 H 167.523 -0.740105 -1.43993 0
M  V30 1811 H 169.515 1.15425 -3.87891 0
M  V30 1812 H 168.085 1.32647 -2.83061 0
M  V30 1813 H 167.305 -0.951466 -3.82545 0
M  V30 1814 H 168.593 -0.769262 -5.02951 0
M  V30 1815 H 167.991 2.4107 -5.11763 0
M  V30 1816 H 166.548 2.42508 -6.05007 0
M  V30 1817 N 169.982 1.44106 -0.638065 0
M  V30 1818 C 170.945 2.29138 0.0531013 0
M  V30 1819 C 171.945 1.41409 0.765506 0
M  V30 1820 O 173.135 1.63206 0.609046 0
M  V30 1821 C 170.267 3.23144 1.08584 0
M  V30 1822 H 171.46 2.91739 -0.694883 0
M  V30 1823 H 169.013 1.51134 -0.398538 0
M  V30 1824 H 169.748 2.65408 1.86357 0
M  V30 1825 H 169.533 3.87804 0.578852 0
M  V30 1826 H 171.023 3.87004 1.56899 0
M  V30 1827 N 171.46 0.379036 1.52974 0
M  V30 1828 C 172.423 -0.448865 2.24762 0
M  V30 1829 C 173.423 -0.998689 1.26027 0
M  V30 1830 O 174.613 -0.882313 1.50203 0
M  V30 1831 C 171.745 -1.62872 2.99476 0
M  V30 1832 H 172.938 0.179491 2.99362 0
M  V30 1833 H 170.491 0.13096 1.5575 0
M  V30 1834 H 171.226 -2.29479 2.29151 0
M  V30 1835 H 171.011 -1.24128 3.71934 0
M  V30 1836 H 172.501 -2.2151 3.5401 0
M  V30 1837 N 172.938 -1.57226 0.108567 0
M  V30 1838 C 174.186 -1.94448 -0.550853 0
M  V30 1839 C 174.507 -0.992074 -1.67878 0
M  V30 1840 O 173.777 -0.0465 -1.95845 0
M  V30 1841 H 172.357 -0.717897 -0.206479 0
M  V30 1842 H 175.019 -1.94112 0.175062 0
M  V30 1843 H 174.115 -2.97218 -0.952259 0
M  V30 1844 N 174.416 0.165178 -1.56732 0
M  V30 1845 C 175.379 1.18822 -1.95995 0
M  V30 1846 C 176.379 1.3685 -0.84431 0
M  V30 1847 O 177.569 1.34152 -1.11126 0
M  V30 1848 C 174.701 2.5521 -2.26011 0
M  V30 1849 H 175.894 0.851825 -2.87548 0
M  V30 1850 H 173.447 0.407857 -1.50885 0
M  V30 1851 H 174.182 2.93852 -1.37191 0
M  V30 1852 H 173.967 2.43489 -3.07336 0
M  V30 1853 H 175.457 3.28927 -2.57288 0
M  V30 1854 N 175.894 1.51508 0.433938 0
M  V30 1855 C 176.804 1.75917 1.5521 0
M  V30 1856 C 177.82 0.643545 1.61662 0
M  V30 1857 O 178.996 0.926183 1.7884 0
M  V30 1858 C 176.061 1.88213 2.91164 0
M  V30 1859 C 175.122 3.12074 2.94802 0
M  V30 1860 C 174.355 3.23774 4.24271 0
M  V30 1861 O 174.578 2.4133 5.16833 0
M  V30 1862 O 173.512 4.16774 4.34262 0
M  V30 1863 H 177.338 2.70777 1.37527 0
M  V30 1864 H 174.923 1.36051 0.617293 0
M  V30 1865 H 176.805 1.98267 3.71845 0
M  V30 1866 H 175.48 0.965413 3.08968 0
M  V30 1867 H 174.387 3.07497 2.13065 0
M  V30 1868 H 175.72 4.03446 2.81943 0
M  V30 1869 N 177.372 -0.689602 1.41712 0
M  V30 1870 C 178.304 -1.815 1.39966 0
M  V30 1871 C 179.317 -1.59995 0.300917 0
M  V30 1872 O 180.506 -1.69387 0.563039 0
M  V30 1873 C 177.606 -3.18364 1.16179 0
M  V30 1874 C 176.779 -3.66847 2.38206 0
M  V30 1875 C 175.838 -4.82398 2.10186 0
M  V30 1876 O 174.864 -4.93706 2.83272 0
M  V30 1877 N 176.066 -5.70064 1.0958 0
M  V30 1878 H 178.831 -1.83488 2.36965 0
M  V30 1879 H 176.392 -0.872149 1.36401 0
M  V30 1880 H 178.384 -3.93301 0.953756 0
M  V30 1881 H 176.954 -3.11365 0.27756 0
M  V30 1882 H 176.174 -2.82751 2.74673 0
M  V30 1883 H 177.462 -3.95978 3.19498 0
M  V30 1884 H 176.86 -5.63565 0.491019 0
M  V30 1885 H 175.417 -6.44874 0.947656 0
M  V30 1886 N 178.85 -1.27639 -0.924453 0
M  V30 1887 C 179.76 -1.12466 -2.05885 0
M  V30 1888 C 180.776 -0.053869 -1.73917 0
M  V30 1889 O 181.952 -0.261012 -1.99702 0
M  V30 1890 C 179.017 -0.776768 -3.37886 0
M  V30 1891 C 178.078 -1.92878 -3.83532 0
M  V30 1892 C 177.311 -1.59739 -5.09234 0
M  V30 1893 O 177.534 -0.506782 -5.68144 0
M  V30 1894 O 176.468 -2.43761 -5.50331 0
M  V30 1895 H 180.294 -2.07671 -2.21599 0
M  V30 1896 H 177.879 -1.06857 -1.04413 0
M  V30 1897 H 179.761 -0.596229 -4.17161 0
M  V30 1898 H 178.436 0.145732 -3.23372 0
M  V30 1899 H 177.343 -2.1644 -3.0513 0
M  V30 1900 H 178.676 -2.8316 -4.02593 0
M  V30 1901 N 180.328 1.1314 -1.09713 0
M  V30 1902 C 181.574 1.84757 -0.836224 0
M  V30 1903 C 181.907 1.8347 0.636598 0
M  V30 1904 O 181.182 1.27491 1.46889 0
M  V30 1905 C 181.465 3.32782 -1.37578 0
M  V30 1906 C 181.318 3.42567 -2.91493 0
M  V30 1907 C 182.637 4.28307 -1.01198 0
M  V30 1908 H 179.756 0.67082 -0.305236 0
M  V30 1909 H 182.398 1.3278 -1.35903 0
M  V30 1910 H 180.548 3.77177 -0.931097 0
M  V30 1911 H 182.22 3.06862 -3.44432 0
M  V30 1912 H 180.463 2.83349 -3.28475 0
M  V30 1913 H 181.134 4.46674 -3.24324 0
M  V30 1914 H 183.61 3.91999 -1.39556 0
M  V30 1915 H 182.486 5.30307 -1.41653 0
M  V30 1916 H 182.747 4.42029 0.0794833 0
M  V30 1917 N 181.806 0.884767 1.30421 0
M  V30 1918 C 182.716 0.355398 2.31892 0
M  V30 1919 C 183.732 -0.542261 1.65335 0
M  V30 1920 O 184.908 -0.435432 1.96637 0
M  V30 1921 C 181.973 -0.421661 3.44126 0
M  V30 1922 C 181.034 0.505727 4.26311 0
M  V30 1923 C 180.267 -0.234343 5.33185 0
M  V30 1924 O 180.49 -1.46045 5.51386 0
M  V30 1925 O 179.424 0.415443 6.00465 0
M  V30 1926 H 183.25 1.19685 2.79122 0
M  V30 1927 H 180.835 0.648596 1.34587 0
M  V30 1928 H 182.717 -0.861641 4.12497 0
M  V30 1929 H 181.392 -1.23942 2.99032 0
M  V30 1930 H 180.299 0.994513 3.60639 0
M  V30 1931 H 181.632 1.28948 4.75009 0
M  V30 1932 N 183.284 -1.43765 0.645699 0
M  V30 1933 C 184.231 -2.30745 -0.0504648 0
M  V30 1934 C 185.201 -1.4432 -0.822241 0
M  V30 1935 O 186.386 -1.73202 -0.800358 0
M  V30 1936 C 183.526 -3.29802 -1.0161 0
M  V30 1937 C 182.639 -4.31326 -0.241219 0
M  V30 1938 C 181.774 -5.17469 -1.19998 0
M  V30 1939 C 180.813 -6.10691 -0.415094 0
M  V30 1940 N 179.95 -6.89483 -1.32506 0
M  V30 1941 H 184.79 -2.8973 0.697155 0
M  V30 1942 H 182.327 -1.42738 0.355563 0
M  V30 1943 H 184.285 -3.85734 -1.58949 0
M  V30 1944 H 182.915 -2.72483 -1.73069 0
M  V30 1945 H 181.967 -3.77749 0.448334 0
M  V30 1946 H 183.279 -4.9743 0.369437 0
M  V30 1947 H 182.433 -5.7799 -1.84424 0
M  V30 1948 H 181.172 -4.51473 -1.84455 0
M  V30 1949 H 180.177 -5.49265 0.242565 0
M  V30 1950 H 181.402 -6.78727 0.224966 0
M  V30 1951 H 179.348 -6.26142 -1.95657 0
M  V30 1952 H 179.265 -7.52081 -0.768783 0
M  V30 1953 H 180.533 -7.54516 -1.9577 0
M  V30 1954 N 184.763 -0.387143 -1.52771 0
M  V30 1955 C 186.01 0.195735 -2.01552 0
M  V30 1956 C 186.338 1.46995 -1.27369 0
M  V30 1957 O 185.593 1.92325 -0.361879 0
M  V30 1958 C 185.892 0.512209 -3.53711 0
M  V30 1959 C 185.558 -0.670202 -4.45891 0
M  V30 1960 C 184.22 -0.994586 -4.70809 0
M  V30 1961 C 186.572 -1.46134 -5.00294 0
M  V30 1962 C 183.9 -2.11169 -5.4738 0
M  V30 1963 C 186.252 -2.56903 -5.78086 0
M  V30 1964 C 184.916 -2.89852 -6.01284 0
M  V30 1965 H 184.186 0.0716246 -0.73753 0
M  V30 1966 H 186.833 -0.524046 -1.8419 0
M  V30 1967 H 185.138 1.31329 -3.69134 0
M  V30 1968 H 186.835 0.975804 -3.88946 0
M  V30 1969 H 183.425 -0.407366 -4.2666 0
M  V30 1970 H 187.609 -1.22397 -4.80971 0
M  V30 1971 H 182.865 -2.3707 -5.63567 0
M  V30 1972 H 187.039 -3.18608 -6.19243 0
M  V30 1973 H 184.666 -3.76533 -6.60399 0
M  V30 1974 N 186.241 1.57166 -0.116904 0
M  V30 1975 C 187.469 1.99473 0.549383 0
M  V30 1976 C 187.884 0.996541 1.60357 0
M  V30 1977 O 187.241 -0.0108731 1.82497 0
M  V30 1978 C 187.292 3.41788 1.17741 0
M  V30 1979 O 187.013 4.37788 0.165362 0
M  V30 1980 C 188.514 3.99216 1.92722 0
M  V30 1981 H 185.734 0.655009 0.145616 0
M  V30 1982 H 188.278 2.03494 -0.202625 0
M  V30 1983 H 186.433 3.38713 1.88021 0
M  V30 1984 H 186.847 5.20806 0.621403 0
M  V30 1985 H 188.321 5.00882 2.31995 0
M  V30 1986 H 188.798 3.3824 2.80161 0
M  V30 1987 H 189.404 4.0583 1.27209 0
M  V30 1988 N 187.719 -0.156864 1.56817 0
M  V30 1989 C 188.666 -1.19394 1.97519 0
M  V30 1990 C 189.636 -1.4322 0.841265 0
M  V30 1991 O 190.821 -1.55719 1.10255 0
M  V30 1992 C 187.961 -2.52483 2.35258 0
M  V30 1993 C 187.074 -2.35914 3.61896 0
M  V30 1994 C 186.209 -3.61969 3.88782 0
M  V30 1995 C 185.248 -3.40395 5.08722 0
M  V30 1996 N 184.385 -4.58556 5.31668 0
M  V30 1997 H 189.225 -0.839845 2.85921 0
M  V30 1998 H 186.762 -0.403264 1.41464 0
M  V30 1999 H 188.72 -3.30071 2.55165 0
M  V30 2000 H 187.35 -2.85859 1.49949 0
M  V30 2001 H 186.402 -1.49429 3.49821 0
M  V30 2002 H 187.714 -2.15926 4.49641 0
M  V30 2003 H 186.868 -4.47989 4.09135 0
M  V30 2004 H 185.607 -3.84951 2.9944 0
M  V30 2005 H 184.612 -2.52763 4.88253 0
M  V30 2006 H 185.837 -3.18822 5.99608 0
M  V30 2007 H 183.783 -4.81729 4.45279 0
M  V30 2008 H 183.7 -4.41535 6.13664 0
M  V30 2009 H 184.968 -5.45817 5.5651 0
M  V30 2010 N 189.197 -1.51736 -0.425897 0
M  V30 2011 C 190.613 -1.40166 -0.76326 0
M  V30 2012 C 190.813 -0.492962 -1.95377 0
M  V30 2013 O 189.869 0.0475815 -2.52455 0
M  V30 2014 C 191.182 -2.82403 -1.03291 0
M  V30 2015 C 192.73 -2.91632 -1.13665 0
M  V30 2016 C 193.205 -4.34801 -1.43916 0
M  V30 2017 N 194.696 -4.3796 -1.50816 0
M  V30 2018 C 195.431 -5.4578 -1.75817 0
M  V30 2019 N 194.927 -6.63744 -1.98534 0
M  V30 2020 N 196.72 -5.33274 -1.77694 0
M  V30 2021 H 188.871 -2.09361 0.358 0
M  V30 2022 H 191.134 -0.942941 0.0978094 0
M  V30 2023 H 190.84 -3.50943 -0.230696 0
M  V30 2024 H 190.714 -3.22428 -1.95754 0
M  V30 2025 H 193.101 -2.23284 -1.92947 0
M  V30 2026 H 193.182 -2.55088 -0.190756 0
M  V30 2027 H 192.826 -5.03703 -0.65157 0
M  V30 2028 H 192.756 -4.68868 -2.39729 0
M  V30 2029 H 195.247 -3.52919 -1.35118 0
M  V30 2030 H 195.56 -7.41704 -2.17013 0
M  V30 2031 H 193.905 -6.66839 -1.95832 0
M  V30 2032 H 197.096 -4.40098 -1.59473 0
M  V30 2033 H 197.269 -6.1738 -1.9684 0
M  V30 2034 N 190.675 0.682077 -1.42076 0
M  V30 2035 C 191.605 1.80796 -1.47767 0
M  V30 2036 C 192.586 1.6677 -0.334954 0
M  V30 2037 O 193.771 1.863 -0.548264 0
M  V30 2038 C 190.901 3.19038 -1.37229 0
M  V30 2039 C 189.855 3.47789 -2.49453 0
M  V30 2040 C 189.181 4.8553 -2.23975 0
M  V30 2041 C 190.481 3.45411 -3.91776 0
M  V30 2042 H 192.175 1.7629 -2.41997 0
M  V30 2043 H 189.721 0.846721 -1.16476 0
M  V30 2044 H 191.674 3.97528 -1.39821 0
M  V30 2045 H 190.398 3.24204 -0.394907 0
M  V30 2046 H 189.057 2.71657 -2.46166 0
M  V30 2047 H 188.705 4.87337 -1.24547 0
M  V30 2048 H 188.405 5.0573 -2.99184 0
M  V30 2049 H 189.929 5.66312 -2.28304 0
M  V30 2050 H 191.343 4.13882 -3.96705 0
M  V30 2051 H 189.74 3.77145 -4.66778 0
M  V30 2052 H 190.81 2.44122 -4.18966 0
M  V30 2053 N 192.153 1.28127 0.917671 0
M  V30 2054 C 193.399 1.15223 1.66888 0
M  V30 2055 C 193.732 -0.299293 1.9188 0
M  V30 2056 O 193.007 -1.21805 1.51637 0
M  V30 2057 C 193.29 1.94706 3.02922 0
M  V30 2058 C 193.143 3.47898 2.85109 0
M  V30 2059 C 194.462 1.75939 4.03402 0
M  V30 2060 H 191.581 0.419946 0.605652 0
M  V30 2061 H 194.223 1.57398 1.06423 0
M  V30 2062 H 192.373 1.58864 3.54534 0
M  V30 2063 H 194.045 3.93624 2.40537 0
M  V30 2064 H 192.288 3.7373 2.20246 0
M  V30 2065 H 192.959 3.98765 3.81694 0
M  V30 2066 H 195.435 2.07209 3.60837 0
M  V30 2067 H 194.311 2.33931 4.96556 0
M  V30 2068 H 194.572 0.709877 4.36364 0
M  V30 2069 N 193.631 -1.12557 1.10312 0
M  V30 2070 C 194.578 -2.18247 0.750781 0
M  V30 2071 C 195.548 -1.63853 -0.272293 0
M  V30 2072 O 196.733 -1.90195 -0.151862 0
M  V30 2073 C 193.873 -3.44591 0.187379 0
M  V30 2074 C 192.986 -4.13046 1.2656 0
M  V30 2075 C 192.121 -5.27034 0.663978 0
M  V30 2076 C 191.16 -5.87353 1.72287 0
M  V30 2077 N 190.297 -6.92757 1.1416 0
M  V30 2078 H 195.137 -2.47732 1.65628 0
M  V30 2079 H 192.674 -1.21629 0.827337 0
M  V30 2080 H 194.632 -4.16904 -0.157148 0
M  V30 2081 H 193.262 -3.15527 -0.681355 0
M  V30 2082 H 192.314 -3.38924 1.72727 0
M  V30 2083 H 193.626 -4.53947 2.06721 0
M  V30 2084 H 192.78 -6.06104 0.268824 0
M  V30 2085 H 191.519 -4.87407 -0.169082 0
M  V30 2086 H 190.524 -5.06971 2.12746 0
M  V30 2087 H 191.749 -6.29051 2.55875 0
M  V30 2088 H 189.695 -6.5517 0.329984 0
M  V30 2089 H 189.612 -7.3225 1.88007 0
M  V30 2090 H 190.88 -7.75658 0.772956 0
M  V30 2091 N 195.109 -0.891671 -1.2995 0
M  V30 2092 C 196.355 -0.514261 -1.96171 0
M  V30 2093 C 196.688 0.935506 -1.70182 0
M  V30 2094 O 195.963 1.66204 -1.01028 0
M  V30 2095 C 196.246 -0.797719 -3.51153 0
M  V30 2096 C 196.099 -2.2986 -3.86632 0
M  V30 2097 C 197.418 -0.278749 -4.39216 0
M  V30 2098 H 194.537 -0.188314 -0.712535 0
M  V30 2099 H 197.179 -1.11689 -1.53706 0
M  V30 2100 H 195.329 -0.284826 -3.87455 0
M  V30 2101 H 197.001 -2.88042 -3.60319 0
M  V30 2102 H 195.244 -2.76257 -3.34462 0
M  V30 2103 H 195.915 -2.44753 -4.94773 0
M  V30 2104 H 198.391 -0.717825 -4.09862 0
M  V30 2105 H 197.267 -0.506353 -5.46559 0
M  V30 2106 H 197.528 0.820266 -4.34424 0
M  V30 2107 N 196.587 1.43421 -0.653314 0
M  V30 2108 C 197.815 2.06163 -0.174491 0
M  V30 2109 C 198.23 1.48969 1.1599 0
M  V30 2110 O 197.587 0.621042 1.71608 0
M  V30 2111 C 197.638 3.61417 -0.0774865 0
M  V30 2112 O 197.359 4.16485 -1.35912 0
M  V30 2113 C 198.86 4.41235 0.427402 0
M  V30 2114 H 196.08 0.664946 -0.0899353 0
M  V30 2115 H 198.624 1.83924 -0.893988 0
M  V30 2116 H 196.779 3.82841 0.59257 0
M  V30 2117 H 197.193 5.10153 -1.21839 0
M  V30 2118 H 198.667 5.5021 0.44423 0
M  V30 2119 H 199.144 4.14268 1.45873 0
M  V30 2120 H 199.75 4.2478 -0.210167 0
M  V30 2121 N 198.065 0.39524 1.52563 0
M  V30 2122 C 199.012 -0.437036 2.26624 0
M  V30 2123 C 199.982 -1.05281 1.28472 0
M  V30 2124 O 201.167 -1.07971 1.57311 0
M  V30 2125 C 198.307 -1.55524 3.08069 0
M  V30 2126 C 197.42 -0.961745 4.21158 0
M  V30 2127 C 196.555 -2.05149 4.89987 0
M  V30 2128 C 195.594 -1.4342 5.95061 0
M  V30 2129 N 194.731 -2.46351 6.57462 0
M  V30 2130 H 199.571 0.200976 2.97322 0
M  V30 2131 H 197.108 0.110944 1.46681 0
M  V30 2132 H 199.066 -2.21437 3.53584 0
M  V30 2133 H 197.696 -2.16348 2.3957 0
M  V30 2134 H 196.748 -0.192048 3.79915 0
M  V30 2135 H 198.06 -0.470701 4.96574 0
M  V30 2136 H 197.214 -2.78819 5.38837 0
M  V30 2137 H 195.953 -2.57615 4.14109 0
M  V30 2138 H 194.958 -0.682774 5.45544 0
M  V30 2139 H 196.183 -0.917416 6.72875 0
M  V30 2140 H 194.129 -2.97975 5.8442 0
M  V30 2141 H 194.046 -2.02019 7.28508 0
M  V30 2142 H 195.314 -3.19633 7.10954 0
M  V30 2143 N 199.544 -1.57102 0.125237 0
M  V30 2144 C 200.476 -2.12726 -0.853237 0
M  V30 2145 C 201.489 -1.07145 -1.22571 0
M  V30 2146 O 202.678 -1.34497 -1.17358 0
M  V30 2147 C 199.778 -2.61709 -2.15317 0
M  V30 2148 C 198.951 -3.91456 -1.95143 0
M  V30 2149 C 198.01 -4.25973 -3.08923 0
M  V30 2150 O 197.036 -4.94682 -2.81564 0
M  V30 2151 N 198.238 -3.83795 -4.35524 0
M  V30 2152 H 201.003 -2.97307 -0.377964 0
M  V30 2153 H 198.564 -1.61792 -0.0590011 0
M  V30 2154 H 200.556 -2.81826 -2.90441 0
M  V30 2155 H 199.126 -1.81974 -2.54174 0
M  V30 2156 H 198.346 -3.80185 -1.04177 0
M  V30 2157 H 199.634 -4.76283 -1.78976 0
M  V30 2158 H 199.032 -3.2839 -4.60626 0
M  V30 2159 H 197.589 -4.09008 -5.07499 0
M  V30 2160 N 201.022 0.148545 -1.56898 0
M  V30 2161 C 201.972 1.1886 -1.94567 0
M  V30 2162 C 202.956 1.3863 -0.816735 0
M  V30 2163 O 204.148 1.40218 -1.08018 0
M  V30 2164 C 201.277 2.52262 -2.32849 0
M  V30 2165 C 200.363 2.36092 -3.52309 0
M  V30 2166 N 200.754 1.89674 -4.6889 0
M  V30 2167 C 199.052 2.66848 -3.57363 0
M  V30 2168 C 199.753 1.86511 -5.50989 0
M  V30 2169 N 198.729 2.29766 -4.92655 0
M  V30 2170 H 202.531 0.821793 -2.82177 0
M  V30 2171 H 200.045 0.356615 -1.58436 0
M  V30 2172 H 202.042 3.27447 -2.58039 0
M  V30 2173 H 200.702 2.89727 -1.46589 0
M  V30 2174 H 201.713 1.59663 -4.92674 0
M  V30 2175 H 198.39 3.08198 -2.81639 0
M  V30 2176 H 199.78 1.52128 -6.54452 0
M  V30 2177 N 202.5 1.5196 0.417844 0
M  V30 2178 C 203.448 1.75278 1.52907 0
M  V30 2179 C 204.442 0.619611 1.57662 0
M  V30 2180 O 205.648 0.801457 1.61173 0
M  V30 2181 H 202.023 0.554141 0.508362 0
M  V30 2182 H 203.994 2.68389 1.30422 0
M  V30 2183 C 202.743 1.91262 2.90369 0
M  V30 2184 H 202.066 2.77872 2.8745 0
M  V30 2185 H 203.506 2.11581 3.67436 0
M  V30 2186 C 201.965 0.677431 3.30019 0
M  V30 2187 O 202.495 -0.158799 4.01386 0
M  V30 2188 N 200.701 0.515851 2.85985 0
M  V30 2189 H 200.248 1.19744 2.28077 0
M  V30 2190 H 200.206 -0.309315 3.12875 0
M  V30 2191 N 203.978 -0.674533 1.42435 0
M  V30 2192 C 205.255 -1.4305 1.33402 0
M  V30 2193 C 205.635 -2.11081 -0.0284674 0
M  V30 2194 O 204.983 -2.03257 -1.04397 0
M  V30 2195 C 205.193 -2.43272 2.50239 0
M  V30 2196 C 206.541 -3.07907 2.92367 0
M  V30 2197 O 207.565 -2.53599 2.50132 0
M  V30 2198 O 206.424 -4.0632 3.65467 0
M  V30 2199 H 203.518 -0.638076 0.526106 0
M  V30 2200 H 206.064 -0.703235 1.54443 0
M  V30 2201 H 204.836 -1.91803 3.41068 0
M  V30 2202 H 204.459 -3.23479 2.31186 0
M  V30 2203 N 205.456 -1.28612 -0.910864 0
M  V30 2204 C 206.366 -1.14643 -2.0468 0
M  V30 2205 C 207.382 -0.0723121 -1.7385 0
M  V30 2206 O 208.558 -0.282178 -1.99413 0
M  V30 2207 C 205.623 -0.812561 -3.37044 0
M  V30 2208 C 204.684 -1.96935 -3.81465 0
M  V30 2209 C 203.917 -1.65131 -5.07511 0
M  V30 2210 O 204.14 -0.567013 -5.67575 0
M  V30 2211 O 203.074 -2.49585 -5.47714 0
M  V30 2212 H 206.9 -2.1001 -2.19384 0
M  V30 2213 H 204.485 -1.07958 -1.03274 0
M  V30 2214 H 206.367 -0.640441 -4.16505 0
M  V30 2215 H 205.042 0.111426 -3.23508 0
M  V30 2216 H 203.949 -2.19664 -3.02818 0
M  V30 2217 H 205.282 -2.87414 -3.99567 0
M  V30 2218 N 206.934 1.1197 -1.10907 0
M  V30 2219 C 208.174 1.85224 -0.864378 0
M  V30 2220 C 208.538 1.82411 0.599178 0
M  V30 2221 O 209.739 2.51057 0.960416 0
M  V30 2222 C 208.01 3.2868 -1.40371 0
M  V30 2223 S 209.569 4.1925 -1.29518 0
M  V30 2224 H 206.387 0.63878 -0.312219 0
M  V30 2225 H 208.989 1.3485 -1.41548 0
M  V30 2226 H 207.693 3.28289 -2.46281 0
M  V30 2227 H 207.224 3.84121 -0.849402 0
M  V30 2228 H 209.239 4.95539 -0.256059 0
M  V30 2229 N 208.412 0.89855 1.29475 0
M  V30 2230 C 209.359 0.373819 2.27753 0
M  V30 2231 C 210.329 -0.543444 1.56958 0
M  V30 2232 O 211.514 -0.468934 1.84948 0
M  V30 2233 C 208.654 -0.393648 3.42848 0
M  V30 2234 C 207.767 0.554379 4.28428 0
M  V30 2235 C 206.902 -0.230026 5.30702 0
M  V30 2236 C 205.941 0.712599 6.07938 0
M  V30 2237 N 205.078 -0.0373283 7.0209 0
M  V30 2238 H 209.918 1.21699 2.72017 0
M  V30 2239 H 207.455 0.611456 1.33789 0
M  V30 2240 H 209.413 -0.85466 4.08352 0
M  V30 2241 H 208.043 -1.20128 2.99615 0
M  V30 2242 H 207.095 1.13391 3.63107 0
M  V30 2243 H 208.407 1.27597 4.82204 0
M  V30 2244 H 207.561 -0.752288 6.02018 0
M  V30 2245 H 206.3 -0.984758 4.77654 0
M  V30 2246 H 205.305 1.24637 5.35486 0
M  V30 2247 H 206.53 1.46664 6.63074 0
M  V30 2248 H 204.476 -0.774348 6.51414 0
M  V30 2249 H 204.393 0.624374 7.53417 0
M  V30 2250 H 205.661 -0.539891 7.77628 0
M  V30 2251 N 209.89 -1.43072 0.660911 0
M  V30 2252 C 210.84 -2.27948 -0.04847 0
M  V30 2253 C 211.824 -1.40325 -0.787246 0
M  V30 2254 O 213.016 -1.63893 -0.668446 0
M  V30 2255 C 210.145 -3.28143 -1.00881 0
M  V30 2256 C 209.231 -4.23252 -0.268108 0
M  V30 2257 N 209.622 -5.00656 0.719528 0
M  V30 2258 C 207.92 -4.43092 -0.508493 0
M  V30 2259 C 208.621 -5.70019 1.15988 0
M  V30 2260 N 207.597 -5.41364 0.492584 0
M  V30 2261 H 211.399 -2.85213 0.709279 0
M  V30 2262 H 208.913 -1.54869 0.488822 0
M  V30 2263 H 210.91 -3.87736 -1.53188 0
M  V30 2264 H 209.57 -2.7244 -1.76654 0
M  V30 2265 H 210.581 -5.06115 1.09855 0
M  V30 2266 H 207.258 -3.98449 -1.24679 0
M  V30 2267 H 208.648 -6.4214 1.97751 0
M  V30 2268 N 211.368 -0.403325 -1.52352 0
M  V30 2269 C 212.298 0.416205 -2.29761 0
M  V30 2270 C 213.279 1.05123 -1.33728 0
M  V30 2271 O 214.464 1.06134 -1.62632 0
M  V30 2272 C 211.594 1.53624 -3.11475 0
M  V30 2273 C 210.548 1.02653 -4.15507 0
M  V30 2274 C 209.874 2.23971 -4.85532 0
M  V30 2275 C 211.174 0.08463 -5.22231 0
M  V30 2276 H 212.868 -0.229701 -2.98518 0
M  V30 2277 H 210.414 -0.111913 -1.43564 0
M  V30 2278 H 212.367 2.1165 -3.64393 0
M  V30 2279 H 211.091 2.20994 -2.40477 0
M  V30 2280 H 209.75 0.46871 -3.63591 0
M  V30 2281 H 209.398 2.89883 -4.11068 0
M  V30 2282 H 209.098 1.90521 -5.55856 0
M  V30 2283 H 210.622 2.82614 -5.41259 0
M  V30 2284 H 212.036 0.573509 -5.70424 0
M  V30 2285 H 210.433 -0.160783 -5.99885 0
M  V30 2286 H 211.503 -0.86237 -4.7717 0
M  V30 2287 N 212.846 1.57033 -0.133567 0
M  V30 2288 C 213.776 2.1909 0.807567 0
M  V30 2289 C 214.757 1.13517 1.26681 0
M  V30 2290 O 215.942 1.41809 1.32679 0
M  V30 2291 C 213.072 2.80188 2.05212 0
M  V30 2292 C 212.026 3.91471 1.73015 0
M  V30 2293 C 211.352 4.39443 3.04622 0
M  V30 2294 C 212.652 5.12886 0.987168 0
M  V30 2295 H 214.346 2.97988 0.290403 0
M  V30 2296 H 211.892 1.43335 0.138239 0
M  V30 2297 H 213.845 3.22264 2.71521 0
M  V30 2298 H 212.569 1.98601 2.59278 0
M  V30 2299 H 211.228 3.49993 1.0909 0
M  V30 2300 H 210.876 3.54695 3.56651 0
M  V30 2301 H 210.576 5.14495 2.83847 0
M  V30 2302 H 212.1 4.8418 3.72024 0
M  V30 2303 H 213.514 5.51891 1.55208 0
M  V30 2304 H 211.911 5.93615 0.87985 0
M  V30 2305 H 212.981 4.84894 -0.0235286 0
M  V30 2306 N 214.325 -0.140222 1.56975 0
M  V30 2307 C 215.55 -0.870414 1.88251 0
M  V30 2308 C 215.975 -1.73637 0.723312 0
M  V30 2309 O 215.333 -1.78329 -0.32689 0
M  V30 2310 C 215.381 -1.69737 3.18154 0
M  V30 2311 O 214.485 -2.80229 3.02565 0
M  V30 2312 H 213.826 -0.242025 0.61832 0
M  V30 2313 H 216.356 -0.128999 2.04193 0
M  V30 2314 H 216.366 -2.09099 3.50345 0
M  V30 2315 H 215.041 -1.06152 4.02125 0
M  V30 2316 H 213.618 -2.44224 2.81796 0
M  V30 2317 N 215.803 -1.52179 -0.40978 0
M  V30 2318 C 216.733 -1.78435 -1.5061 0
M  V30 2319 C 217.714 -0.635295 -1.57791 0
M  V30 2320 O 218.899 -0.880823 -1.73076 0
M  V30 2321 C 216.029 -1.93444 -2.88439 0
M  V30 2322 C 214.983 -3.09038 -2.96108 0
M  V30 2323 C 214.309 -3.09268 -4.36185 0
M  V30 2324 C 215.609 -4.48508 -2.67652 0
M  V30 2325 H 217.303 -2.70237 -1.28889 0
M  V30 2326 H 214.849 -1.30036 -0.618605 0
M  V30 2327 H 216.802 -2.10394 -3.65119 0
M  V30 2328 H 215.526 -0.983129 -3.11452 0
M  V30 2329 H 214.185 -2.91837 -2.21872 0
M  V30 2330 H 213.833 -2.11861 -4.56206 0
M  V30 2331 H 213.533 -3.86907 -4.42241 0
M  V30 2332 H 215.057 -3.28348 -5.14801 0
M  V30 2333 H 216.471 -4.65918 -3.34056 0
M  V30 2334 H 214.868 -5.28059 -2.85085 0
M  V30 2335 H 215.938 -4.56649 -1.63095 0
M  V30 2336 N 217.281 0.66697 -1.42791 0
M  V30 2337 C 218.214 1.79177 -1.41318 0
M  V30 2338 C 219.192 1.60234 -0.276401 0
M  V30 2339 O 220.376 1.82602 -0.46785 0
M  V30 2340 C 217.503 3.16289 -1.21157 0
M  V30 2341 C 216.549 3.53964 -2.37932 0
M  V30 2342 S 217.382 3.55501 -4.00474 0
M  V30 2343 C 218.538 4.95292 -3.8267 0
M  V30 2344 H 218.771 1.80153 -2.365 0
M  V30 2345 H 216.304 0.838357 -1.29657 0
M  V30 2346 H 218.262 3.95428 -1.10212 0
M  V30 2347 H 216.923 3.1289 -0.275481 0
M  V30 2348 H 216.116 4.53646 -2.19594 0
M  V30 2349 H 215.718 2.82204 -2.45432 0
M  V30 2350 H 218.01 5.83584 -3.44145 0
M  V30 2351 H 218.953 5.18679 -4.82055 0
M  V30 2352 H 219.361 4.68179 -3.15386 0
M  V30 2353 N 218.759 1.29093 0.90403 0
M  V30 2354 C 220.007 1.16583 1.65085 0
M  V30 2355 C 220.328 -0.283933 1.92922 0
M  V30 2356 O 219.598 -1.19509 1.55224 0
M  V30 2357 H 218.178 0.428467 0.611903 0
M  V30 2358 H 220.84 1.61959 1.08422 0
M  V30 2359 H 219.936 1.71266 2.6091 0
M  V30 2360 N 220.237 -1.11381 1.11499 0
M  V30 2361 C 221.486 -1.82494 0.858993 0
M  V30 2362 C 221.799 -1.85605 -0.617278 0
M  V30 2363 O 223.005 -2.52824 -0.989552 0
M  V30 2364 C 221.461 -3.27745 1.48699 0
M  V30 2365 C 221.069 -3.32961 2.99735 0
M  V30 2366 C 222.813 -4.03754 1.31085 0
M  V30 2367 C 220.72 -4.72612 3.55516 0
M  V30 2368 H 219.65 -0.683802 0.317696 0
M  V30 2369 H 222.301 -1.25331 1.34031 0
M  V30 2370 H 220.683 -3.84844 0.933339 0
M  V30 2371 H 221.857 -2.85741 3.61509 0
M  V30 2372 H 220.172 -2.70433 3.16631 0
M  V30 2373 H 222.769 -5.06891 1.70192 0
M  V30 2374 H 223.112 -4.15527 0.253496 0
M  V30 2375 H 223.645 -3.53043 1.83318 0
M  V30 2376 H 220.384 -4.66036 4.60967 0
M  V30 2377 H 219.904 -5.2024 2.98513 0
M  V30 2378 H 221.583 -5.4157 3.53992 0
M  V30 2379 N 221.715 -0.905404 -1.28997 0
M  V30 2380 C 223.126 -0.581953 -1.77398 0
M  V30 2381 C 223.477 0.902552 -1.74208 0
M  V30 2382 O 222.602 1.70584 -1.33154 0
M  V30 2383 C 223.197 -1.04961 -3.22131 0
M  V30 2384 C 221.756 -0.777229 -3.68288 0
M  V30 2385 C 220.903 -1.22109 -2.48967 0
M  V30 2386 H 223.854 -1.08754 -1.15578 0
M  V30 2387 H 223.875 -0.387387 -3.78523 0
M  V30 2388 H 223.387 -2.13008 -3.24421 0
M  V30 2389 H 221.488 0.290383 -3.71467 0
M  V30 2390 H 221.601 -1.37911 -4.58822 0
M  V30 2391 H 219.965 -0.639971 -2.46529 0
M  V30 2392 H 220.748 -2.30972 -2.53982 0
M  V30 2393 N 223.193 1.4272 -0.668489 0
M  V30 2394 C 224.423 2.05668 -0.196063 0
M  V30 2395 C 224.831 1.5028 1.14946 0
M  V30 2396 O 224.174 0.6348 1.72383 0
M  V30 2397 C 224.236 3.59469 -0.0468879 0
M  V30 2398 C 223.9 4.37518 -1.32012 0
M  V30 2399 C 224.897 4.68584 -2.25222 0
M  V30 2400 C 222.582 4.77266 -1.56596 0
M  V30 2401 C 224.576 5.38326 -3.41297 0
M  V30 2402 C 222.263 5.4675 -2.72962 0
M  V30 2403 C 223.261 5.77204 -3.65137 0
M  V30 2404 O 222.949 6.45264 -4.79468 0
M  V30 2405 H 222.681 0.669382 -0.0943599 0
M  V30 2406 H 225.235 1.83954 -0.913788 0
M  V30 2407 H 223.465 3.79817 0.726357 0
M  V30 2408 H 225.154 4.04071 0.384852 0
M  V30 2409 H 225.92 4.38382 -2.07477 0
M  V30 2410 H 221.799 4.52959 -0.857249 0
M  V30 2411 H 225.343 5.62014 -4.13263 0
M  V30 2412 H 221.24 5.76369 -2.90635 0
M  V30 2413 H 222.008 6.63753 -4.78931 0
M  V30 2414 N 224.671 0.411399 1.52136 0
M  V30 2415 C 225.601 -0.404015 2.29978 0
M  V30 2416 C 226.582 -1.04412 1.34284 0
M  V30 2417 O 227.767 -1.0527 1.63192 0
M  V30 2418 C 224.897 -1.5197 3.12286 0
M  V30 2419 C 223.851 -1.00448 4.16046 0
M  V30 2420 C 223.177 -2.21393 4.86712 0
M  V30 2421 C 224.477 -0.0569336 5.22269 0
M  V30 2422 H 226.171 0.245529 2.98392 0
M  V30 2423 H 223.717 0.119525 1.43503 0
M  V30 2424 H 225.67 -2.09715 3.6551 0
M  V30 2425 H 224.394 -2.19716 2.41646 0
M  V30 2426 H 223.053 -0.449421 3.63835 0
M  V30 2427 H 222.701 -2.87699 4.12599 0
M  V30 2428 H 222.401 -1.87571 5.56858 0
M  V30 2429 H 223.925 -2.7974 5.4275 0
M  V30 2430 H 225.339 -0.54325 5.7072 0
M  V30 2431 H 223.736 0.192594 5.99791 0
M  V30 2432 H 224.806 0.887663 4.76706 0
M  V30 2433 N 226.149 -1.5696 0.141893 0
M  V30 2434 C 227.426 -1.87553 -0.555281 0
M  V30 2435 C 227.806 -1.04699 -1.83306 0
M  V30 2436 O 227.154 -0.132346 -2.28116 0
M  V30 2437 C 227.364 -3.39093 -0.825664 0
M  V30 2438 C 228.712 -4.08199 -1.16869 0
M  V30 2439 O 229.736 -3.44242 -0.915185 0
M  V30 2440 O 228.595 -5.21139 -1.6455 0
M  V30 2441 H 225.689 -0.777188 -0.282679 0
M  V30 2442 H 228.235 -1.68763 0.17812 0
M  V30 2443 H 227.007 -3.91221 0.0788633 0
M  V30 2444 H 226.63 -3.63393 -1.61343 0
M  V30 2445 N 227.627 0.131896 -1.57047 0
M  V30 2446 C 228.59 1.14638 -1.98471 0
M  V30 2447 C 229.59 1.35029 -0.873148 0
M  V30 2448 O 230.78 1.31764 -1.13946 0
M  V30 2449 C 227.912 2.50358 -2.31373 0
M  V30 2450 H 229.105 0.79064 -2.8929 0
M  V30 2451 H 226.658 0.375761 -1.51716 0
M  V30 2452 H 227.393 2.90876 -1.43393 0
M  V30 2453 H 227.178 2.36915 -3.12432 0
M  V30 2454 H 228.668 3.23395 -2.64207 0
M  V30 2455 N 229.106 1.52395 0.401703 0
M  V30 2456 C 230.517 1.58899 0.980202 0
M  V30 2457 C 230.868 0.434032 1.91339 0
M  V30 2458 O 229.993 -0.444619 2.11783 0
M  V30 2459 C 230.588 2.87994 1.78451 0
M  V30 2460 C 229.147 2.96953 2.31292 0
M  V30 2461 C 228.294 2.53903 1.11483 0
M  V30 2462 H 231.245 1.57657 0.18168 0
M  V30 2463 H 231.266 2.73765 2.64259 0
M  V30 2464 H 230.778 3.72035 1.10506 0
M  V30 2465 H 228.879 2.17422 3.02586 0
M  V30 2466 H 228.992 4.01344 2.61649 0
M  V30 2467 H 227.356 2.07925 1.47104 0
M  V30 2468 H 228.139 3.40326 0.450928 0
M  V30 2469 N 230.584 -0.659388 1.43143 0
M  V30 2470 C 231.809 -1.45221 1.48073 0
M  V30 2471 C 232.234 -1.87845 0.097995 0
M  V30 2472 O 231.592 -1.56985 -0.90694 0
M  V30 2473 C 231.64 -2.66748 2.42647 0
M  V30 2474 O 230.744 -3.65583 1.90848 0
M  V30 2475 H 230.085 -0.435669 0.501088 0
M  V30 2476 H 232.615 -0.807432 1.87994 0
M  V30 2477 H 232.625 -3.14637 2.59745 0
M  V30 2478 H 231.3 -2.35067 3.43098 0
M  V30 2479 H 229.877 -3.24693 1.83381 0
M  V30 2480 N 232.062 -1.29571 -0.897171 0
M  V30 2481 C 232.972 -1.16808 -2.03453 0
M  V30 2482 C 233.988 -0.0907471 -1.73763 0
M  V30 2483 O 235.164 -0.303312 -1.99103 0
M  V30 2484 C 232.229 -0.848264 -3.36163 0
M  V30 2485 C 231.29 -2.0097 -3.79354 0
M  V30 2486 C 230.523 -1.70505 -5.05731 0
M  V30 2487 O 230.746 -0.62718 -5.66941 0
M  V30 2488 O 229.68 -2.5538 -5.45036 0
M  V30 2489 H 233.506 -2.12325 -2.17144 0
M  V30 2490 H 231.091 -1.09047 -1.02123 0
M  V30 2491 H 232.973 -0.684581 -4.15802 0
M  V30 2492 H 231.648 0.0771071 -3.23608 0
M  V30 2493 H 230.555 -2.22863 -3.00471 0
M  V30 2494 H 231.888 -2.91636 -3.96496 0
M  V30 2495 N 233.54 1.10788 -1.12088 0
M  V30 2496 C 234.503 2.15207 -0.788577 0
M  V30 2497 C 235.503 1.59609 0.195317 0
M  V30 2498 O 236.693 1.74174 -0.0300193 0
M  V30 2499 C 233.825 3.4047 -0.171174 0
M  V30 2500 H 235.018 2.46116 -1.71368 0
M  V30 2501 H 232.571 1.26089 -0.923652 0
M  V30 2502 H 233.306 3.15176 0.763832 0
M  V30 2503 H 233.091 3.82109 -0.879514 0
M  V30 2504 H 234.581 4.17576 0.04496 0
M  V30 2505 N 235.018 0.912232 1.28515 0
M  V30 2506 C 235.928 0.404506 2.31086 0
M  V30 2507 C 236.944 -0.50707 1.66448 0
M  V30 2508 O 238.12 -0.393624 1.97516 0
M  V30 2509 C 235.185 -0.348572 3.44943 0
M  V30 2510 C 234.246 0.59604 4.25142 0
M  V30 2511 C 233.479 -0.121194 5.33562 0
M  V30 2512 O 233.702 -1.34317 5.5436 0
M  V30 2513 O 232.636 0.542716 5.99448 0
M  V30 2514 H 236.462 1.25579 2.76521 0
M  V30 2515 H 234.047 0.676998 1.33181 0
M  V30 2516 H 235.929 -0.77395 4.14232 0
M  V30 2517 H 234.604 -1.17571 3.01594 0
M  V30 2518 H 233.511 1.07079 3.58448 0
M  V30 2519 H 234.844 1.38995 4.72167 0
M  V30 2520 N 236.496 -1.42363 0.676048 0
M  V30 2521 C 237.459 -2.29199 0.00766941 0
M  V30 2522 C 238.459 -1.43389 -0.727745 0
M  V30 2523 O 239.649 -1.64764 -0.56556 0
M  V30 2524 C 236.781 -3.2591 -0.999785 0
M  V30 2525 H 237.974 -2.89794 0.771988 0
M  V30 2526 H 235.527 -1.50024 0.438468 0
M  V30 2527 H 236.262 -2.70256 -1.79255 0
M  V30 2528 H 236.047 -3.89202 -0.475829 0
M  V30 2529 H 237.537 -3.91028 -1.46583 0
M  V30 2530 N 237.974 -0.419461 -1.51915 0
M  V30 2531 C 239.199 0.154572 -2.06823 0
M  V30 2532 C 239.624 1.3722 -1.28656 0
M  V30 2533 O 238.982 1.78461 -0.319583 0
M  V30 2534 C 239.03 0.473172 -3.57482 0
M  V30 2535 O 238.134 1.56255 -3.81652 0
M  V30 2536 H 237.475 0.0096924 -0.663929 0
M  V30 2537 H 240.005 -0.595642 -1.95738 0
M  V30 2538 H 240.015 0.728825 -4.01438 0
M  V30 2539 H 238.69 -0.416873 -4.13805 0
M  V30 2540 H 237.267 1.29825 -3.49571 0
M  V30 2541 N 239.452 1.56882 -0.150215 0
M  V30 2542 C 240.692 1.98119 0.502804 0
M  V30 2543 C 241.056 1.03327 1.61826 0
M  V30 2544 O 242.257 1.33621 2.33236 0
M  V30 2545 C 240.528 3.43329 0.992988 0
M  V30 2546 S 242.087 4.0659 1.65015 0
M  V30 2547 H 238.905 0.692189 0.162467 0
M  V30 2548 H 241.507 1.93988 -0.242689 0
M  V30 2549 H 240.211 4.10046 0.170436 0
M  V30 2550 H 239.742 3.5118 1.77303 0
M  V30 2551 H 241.757 3.99906 2.93752 0
M  V30 2552 N 240.93 -0.123565 1.57115 0
M  V30 2553 C 241.893 -1.13583 1.99076 0
M  V30 2554 C 242.893 -1.34564 0.880296 0
M  V30 2555 O 244.083 -1.31158 1.14644 0
M  V30 2556 C 241.215 -2.49128 2.32698 0
M  V30 2557 H 242.408 -0.775287 2.89706 0
M  V30 2558 H 239.961 -0.36771 1.51913 0
M  V30 2559 H 240.696 -2.90111 1.44934 0
M  V30 2560 H 240.481 -2.35255 3.13684 0
M  V30 2561 H 241.971 -3.2199 2.65918 0
M  V30 2562 N 242.408 -1.52605 -0.393616 0
M  V30 2563 C 243.371 -1.76415 -1.46323 0
M  V30 2564 C 244.371 -0.634126 -1.47768 0
M  V30 2565 O 245.561 -0.902142 -1.4902 0
M  V30 2566 C 242.693 -1.8607 -2.85641 0
M  V30 2567 H 243.886 -2.71916 -1.26498 0
M  V30 2568 H 241.439 -1.43257 -0.625073 0
M  V30 2569 H 242.174 -0.925378 -3.10817 0
M  V30 2570 H 241.959 -2.68235 -2.85993 0
M  V30 2571 H 243.449 -2.06179 -3.63153 0
M  V30 2572 N 243.887 0.651787 -1.4349 0
M  V30 2573 C 244.817 1.77621 -1.51569 0
M  V30 2574 C 245.798 1.66022 -0.370253 0
M  V30 2575 O 246.983 1.85095 -0.587658 0
M  V30 2576 C 244.113 3.16056 -1.43966 0
M  V30 2577 C 243.067 3.4242 -2.56774 0
M  V30 2578 C 242.393 4.8067 -2.34223 0
M  V30 2579 C 243.693 3.37023 -3.99015 0
M  V30 2580 H 245.387 1.71117 -2.45681 0
M  V30 2581 H 242.933 0.821825 -1.18246 0
M  V30 2582 H 244.886 3.94472 -1.48221 0
M  V30 2583 H 243.61 3.23293 -0.463586 0
M  V30 2584 H 242.269 2.66375 -2.51873 0
M  V30 2585 H 241.917 4.84585 -1.34856 0
M  V30 2586 H 241.617 4.9927 -3.09844 0
M  V30 2587 H 243.141 5.61342 -2.40265 0
M  V30 2588 H 244.555 4.05374 -4.05395 0
M  V30 2589 H 242.952 3.67159 -4.74673 0
M  V30 2590 H 244.022 2.3518 -4.2405 0
M  V30 2591 N 245.365 1.30045 0.890287 0
M  V30 2592 C 246.611 1.18737 1.64406 0
M  V30 2593 C 246.944 -0.258525 1.92472 0
M  V30 2594 O 246.219 -1.18562 1.54186 0
M  V30 2595 C 246.502 2.01087 2.98724 0
M  V30 2596 C 246.355 3.53867 2.77665 0
M  V30 2597 C 247.674 1.84457 3.9958 0
M  V30 2598 H 244.793 0.432698 0.596608 0
M  V30 2599 H 247.435 1.5962 1.0306 0
M  V30 2600 H 245.585 1.66349 3.51084 0
M  V30 2601 H 247.257 3.98637 2.32133 0
M  V30 2602 H 245.5 3.78318 2.12269 0
M  V30 2603 H 246.171 4.06772 3.7315 0
M  V30 2604 H 248.647 2.14817 3.56361 0
M  V30 2605 H 247.523 2.44411 4.91482 0
M  V30 2606 H 247.784 0.802276 4.3476 0
M  V30 2607 N 246.843 -1.10192 1.12674 0
M  V30 2608 C 247.79 -2.16606 0.796906 0
M  V30 2609 C 248.76 -1.64394 -0.237476 0
M  V30 2610 O 249.945 -1.90474 -0.111484 0
M  V30 2611 C 247.085 -3.44116 0.26043 0
M  V30 2612 C 246.198 -4.10268 1.35293 0
M  V30 2613 C 245.333 -5.25507 0.775621 0
M  V30 2614 C 244.372 -5.83567 1.84706 0
M  V30 2615 N 243.509 -6.90179 1.28829 0
M  V30 2616 H 248.349 -2.44163 1.70846 0
M  V30 2617 H 245.886 -1.19846 0.85295 0
M  V30 2618 H 247.844 -4.17143 -0.0686814 0
M  V30 2619 H 246.474 -3.16901 -0.614274 0
M  V30 2620 H 245.526 -3.35184 1.79877 0
M  V30 2621 H 246.838 -4.4946 2.16303 0
M  V30 2622 H 245.992 -6.05398 0.397327 0
M  V30 2623 H 244.731 -4.87656 -0.0656581 0
M  V30 2624 H 243.736 -5.02344 2.23452 0
M  V30 2625 H 244.961 -6.23482 2.69161 0
M  V30 2626 H 242.907 -6.54322 0.468881 0
M  V30 2627 H 242.824 -7.28097 2.03497 0
M  V30 2628 H 244.092 -7.73844 0.937311 0
M  V30 2629 N 248.321 -0.919034 -1.28029 0
M  V30 2630 C 249.284 -0.416182 -2.2539 0
M  V30 2631 C 250.284 0.460438 -1.54067 0
M  V30 2632 O 251.474 0.262744 -1.72207 0
M  V30 2633 C 248.606 0.402707 -3.38513 0
M  V30 2634 H 249.799 -1.27629 -2.71387 0
M  V30 2635 H 247.352 -0.698919 -1.39803 0
M  V30 2636 H 248.087 1.282 -2.97885 0
M  V30 2637 H 247.872 -0.225698 -3.9145 0
M  V30 2638 H 249.362 0.745191 -4.10897 0
M  V30 2639 N 249.799 1.42003 -0.683588 0
M  V30 2640 C 251.047 2.01015 -0.209101 0
M  V30 2641 C 251.368 1.54365 1.19149 0
M  V30 2642 O 250.638 0.769083 1.80172 0
M  V30 2643 H 249.218 0.743294 -0.074315 0
M  V30 2644 H 251.88 1.73798 -0.882066 0
M  V30 2645 H 250.976 3.11343 -0.2172 0
M  V30 2646 N 251.277 0.427512 1.51691 0
M  V30 2647 C 252.224 -0.388867 2.275 0
M  V30 2648 C 253.194 -1.02532 1.30677 0
M  V30 2649 O 254.379 -1.0461 1.59566 0
M  V30 2650 C 251.519 -1.48954 3.11298 0
M  V30 2651 C 250.632 -0.872194 4.23104 0
M  V30 2652 C 249.767 -1.94709 4.94228 0
M  V30 2653 C 248.806 -1.30766 5.97969 0
M  V30 2654 N 247.943 -2.32349 6.62539 0
M  V30 2655 H 252.783 0.263997 2.96828 0
M  V30 2656 H 250.32 0.142033 1.46413 0
M  V30 2657 H 252.278 -2.13887 3.58201 0
M  V30 2658 H 250.908 -2.11217 2.44105 0
M  V30 2659 H 249.96 -0.111419 3.80237 0
M  V30 2660 H 251.272 -0.365264 4.97461 0
M  V30 2661 H 250.426 -2.67327 5.44629 0
M  V30 2662 H 249.165 -2.48773 4.1948 0
M  V30 2663 H 248.17 -0.566902 5.4687 0
M  V30 2664 H 249.395 -0.774483 6.74669 0
M  V30 2665 H 247.341 -2.85511 5.90609 0
M  V30 2666 H 247.258 -1.8652 7.3263 0
M  V30 2667 H 248.526 -3.04481 7.17574 0
M  V30 2668 N 252.755 -1.56801 0.158532 0
M  V30 2669 C 254.001 -1.96781 -0.490405 0
M  V30 2670 C 254.334 -1.04397 -1.63753 0
M  V30 2671 O 253.609 -0.0885805 -1.94298 0
M  V30 2672 C 253.892 -3.4635 -0.985594 0
M  V30 2673 C 253.745 -4.49512 0.160824 0
M  V30 2674 C 255.064 -3.98697 -1.86355 0
M  V30 2675 H 252.183 -0.715482 -0.176788 0
M  V30 2676 H 254.825 -1.88451 0.242088 0
M  V30 2677 H 252.975 -3.53579 -1.60978 0
M  V30 2678 H 254.647 -4.54353 0.797537 0
M  V30 2679 H 252.89 -4.26013 0.818256 0
M  V30 2680 H 253.561 -5.51531 -0.227569 0
M  V30 2681 H 256.037 -3.94019 -1.33746 0
M  V30 2682 H 254.913 -5.03792 -2.17909 0
M  V30 2683 H 255.174 -3.41744 -2.8047 0
M  V30 2684 N 254.233 0.115231 -1.57178 0
M  V30 2685 C 255.463 0.835224 -1.88964 0
M  V30 2686 C 255.871 1.73774 -0.74829 0
M  V30 2687 O 255.214 1.81401 0.289739 0
M  V30 2688 C 255.276 1.7178 -3.15804 0
M  V30 2689 C 254.94 0.989198 -4.46166 0
M  V30 2690 C 255.937 0.328263 -5.18863 0
M  V30 2691 C 253.622 0.969256 -4.9286 0
M  V30 2692 C 255.616 -0.342873 -6.36477 0
M  V30 2693 C 253.303 0.294324 -6.10391 0
M  V30 2694 C 254.301 -0.360582 -6.82048 0
M  V30 2695 O 253.989 -1.02474 -7.97342 0
M  V30 2696 H 253.721 0.245197 -0.629964 0
M  V30 2697 H 256.275 0.10303 -2.05141 0
M  V30 2698 H 254.505 2.49173 -2.95719 0
M  V30 2699 H 256.194 2.31255 -3.33581 0
M  V30 2700 H 256.96 0.335263 -4.8384 0
M  V30 2701 H 252.839 1.46844 -4.36987 0
M  V30 2702 H 256.383 -0.854629 -6.92345 0
M  V30 2703 H 252.28 0.285099 -6.4487 0
M  V30 2704 H 253.048 -0.929594 -8.13204 0
M  V30 2705 N 255.711 1.52812 0.385517 0
M  V30 2706 C 256.674 1.77188 1.45386 0
M  V30 2707 C 257.674 0.641953 1.4743 0
M  V30 2708 O 258.864 0.910033 1.4854 0
M  V30 2709 C 255.996 1.87582 2.8465 0
M  V30 2710 H 257.189 2.72583 1.25054 0
M  V30 2711 H 254.742 1.43586 0.617467 0
M  V30 2712 H 255.477 0.941849 3.10322 0
M  V30 2713 H 255.262 2.69748 2.84567 0
M  V30 2714 H 256.752 2.08102 3.62054 0
M  V30 2715 N 257.189 -0.644168 1.43834 0
M  V30 2716 C 258.152 -1.73857 1.49353 0
M  V30 2717 C 259.152 -1.56315 0.377112 0
M  V30 2718 O 260.342 -1.62048 0.639226 0
M  V30 2719 C 257.474 -3.12819 1.35488 0
M  V30 2720 H 258.667 -1.70342 2.46827 0
M  V30 2721 H 256.22 -0.856652 1.30733 0
M  V30 2722 H 256.955 -3.2194 0.390569 0
M  V30 2723 H 256.74 -3.26958 2.16428 0
M  V30 2724 H 258.23 -3.92606 1.42302 0
M  V30 2725 N 258.668 -1.30515 -0.883378 0
M  V30 2726 C 259.631 -1.1701 -1.97082 0
M  V30 2727 C 260.631 -0.10089 -1.60483 0
M  V30 2728 O 261.821 -0.349127 -1.70666 0
M  V30 2729 C 258.953 -0.793045 -3.31547 0
M  V30 2730 H 260.146 -2.13622 -2.10489 0
M  V30 2731 H 257.699 -1.13935 -1.06998 0
M  V30 2732 H 258.434 0.172499 -3.23841 0
M  V30 2733 H 258.219 -1.56576 -3.5948 0
M  V30 2734 H 259.709 -0.722073 -4.1131 0
M  V30 2735 N 260.146 1.09593 -1.13257 0
M  V30 2736 C 261.374 1.855 -0.916378 0
M  V30 2737 C 261.789 1.81069 0.534738 0
M  V30 2738 O 261.146 1.20562 1.37007 0
M  V30 2739 C 261.197 3.33546 -1.39388 0
M  V30 2740 O 260.918 3.37927 -2.78813 0
M  V30 2741 C 262.419 4.26299 -1.21588 0
M  V30 2742 H 259.639 0.585991 -0.326887 0
M  V30 2743 H 262.183 1.38488 -1.5047 0
M  V30 2744 H 260.338 3.77992 -0.848597 0
M  V30 2745 H 260.752 4.30254 -2.9997 0
M  V30 2746 H 262.226 5.28341 -1.59876 0
M  V30 2747 H 262.703 4.38918 -0.157376 0
M  V30 2748 H 263.309 3.87668 -1.7491 0
M  V30 2749 N 261.624 0.925811 1.2754 0
M  V30 2750 C 262.534 0.428993 2.30644 0
M  V30 2751 C 263.55 -0.489387 1.66976 0
M  V30 2752 O 264.726 -0.372653 1.97922 0
M  V30 2753 C 261.791 -0.311967 3.45294 0
M  V30 2754 C 260.852 0.641098 4.24486 0
M  V30 2755 C 260.085 -0.0645955 5.33661 0
M  V30 2756 O 260.308 -1.28429 5.55754 0
M  V30 2757 O 259.242 0.606265 5.98839 0
M  V30 2758 H 263.068 1.28504 2.75173 0
M  V30 2759 H 260.653 0.691086 1.32455 0
M  V30 2760 H 262.535 -0.729972 4.15029 0
M  V30 2761 H 261.21 -1.14365 3.02824 0
M  V30 2762 H 260.117 1.10874 3.57292 0
M  V30 2763 H 261.45 1.43995 4.70666 0
M  V30 2764 N 263.102 -1.41638 0.69111 0
M  V30 2765 C 264.379 -1.95036 0.148421 0
M  V30 2766 C 264.759 -1.63072 -1.34055 0
M  V30 2767 O 264.107 -0.93538 -2.08478 0
M  V30 2768 C 264.317 -3.46279 0.434951 0
M  V30 2769 C 265.665 -4.23069 0.360275 0
M  V30 2770 O 266.689 -3.54277 0.369613 0
M  V30 2771 O 265.548 -5.45583 0.316534 0
M  V30 2772 H 262.642 -0.826908 0.0123654 0
M  V30 2773 H 265.188 -1.5138 0.766963 0
M  V30 2774 H 263.96 -3.6281 1.46576 0
M  V30 2775 H 263.583 -3.97019 -0.214787 0
M  V30 2776 N 264.58 -0.43555 -1.51462 0
M  V30 2777 C 265.513 0.421989 -2.24264 0
M  V30 2778 C 266.491 1.02619 -1.26127 0
M  V30 2779 O 267.675 1.069 -1.55257 0
M  V30 2780 C 264.802 1.588 -2.99166 0
M  V30 2781 C 263.848 1.10465 -4.11946 0
M  V30 2782 S 264.681 0.048146 -5.35478 0
M  V30 2783 C 265.837 1.21887 -6.13917 0
M  V30 2784 H 266.07 -0.196102 -2.96653 0
M  V30 2785 H 263.603 -0.220054 -1.52824 0
M  V30 2786 H 265.561 2.25647 -3.42919 0
M  V30 2787 H 264.222 2.1775 -2.26371 0
M  V30 2788 H 263.415 1.97654 -4.63626 0
M  V30 2789 H 263.017 0.51445 -3.70445 0
M  V30 2790 H 265.309 2.13756 -6.42895 0
M  V30 2791 H 266.252 0.742076 -7.04201 0
M  V30 2792 H 266.66 1.45663 -5.45383 0
M  V30 2793 N 266.058 1.56714 -0.166846 0
M  V30 2794 C 267.335 1.88412 0.525373 0
M  V30 2795 C 267.715 1.07602 1.81618 0
M  V30 2796 O 267.063 0.168621 2.27877 0
M  V30 2797 C 267.273 3.40363 0.771613 0
M  V30 2798 C 268.621 4.10007 1.1036 0
M  V30 2799 O 269.645 3.45655 0.860304 0
M  V30 2800 O 268.504 5.2369 1.56239 0
M  V30 2801 H 265.598 0.781587 0.270278 0
M  V30 2802 H 268.144 1.68458 -0.204946 0
M  V30 2803 H 266.916 3.91046 -0.141093 0
M  V30 2804 H 266.539 3.65914 1.55541 0
M  V30 2805 N 267.536 -0.106894 1.57237 0
M  V30 2806 C 268.776 -0.818277 1.87306 0
M  V30 2807 C 269.14 -1.76474 0.756371 0
M  V30 2808 O 270.341 -2.5186 0.939155 0
M  V30 2809 C 268.612 -1.53806 3.22612 0
M  V30 2810 S 270.171 -2.28935 3.74345 0
M  V30 2811 H 266.989 -0.272862 0.656557 0
M  V30 2812 H 269.591 -0.075988 1.95352 0
M  V30 2813 H 268.295 -0.834951 4.01817 0
M  V30 2814 H 267.826 -2.32049 3.17674 0
M  V30 2815 H 269.841 -3.54871 3.46815 0
M  V30 2816 N 269.014 -1.53014 -0.377408 0
M  V30 2817 C 269.944 -1.81589 -1.46791 0
M  V30 2818 C 270.925 -0.668622 -1.56408 0
M  V30 2819 O 272.11 -0.917337 -1.71168 0
M  V30 2820 C 269.24 -1.99519 -2.8427 0
M  V30 2821 C 268.194 -3.15249 -2.89486 0
M  V30 2822 C 267.52 -3.18451 -4.29527 0
M  V30 2823 C 268.82 -4.54084 -2.58079 0
M  V30 2824 H 270.514 -2.7291 -1.23127 0
M  V30 2825 H 268.06 -1.31319 -0.590883 0
M  V30 2826 H 270.013 -2.18092 -3.60575 0
M  V30 2827 H 268.737 -1.04897 -3.09296 0
M  V30 2828 H 267.396 -2.96477 -2.15631 0
M  V30 2829 H 267.044 -2.2149 -4.5161 0
M  V30 2830 H 266.744 -3.962 -4.33934 0
M  V30 2831 H 268.268 -3.39193 -5.07721 0
M  V30 2832 H 269.682 -4.72899 -3.24098 0
M  V30 2833 H 268.079 -5.33987 -2.7382 0
M  V30 2834 H 269.149 -4.60006 -1.53372 0
M  V30 2835 N 270.492 0.636531 -1.44174 0
M  V30 2836 C 271.72 1.42353 -1.50144 0
M  V30 2837 C 272.135 1.88389 -0.124575 0
M  V30 2838 O 271.492 1.6051 0.868489 0
M  V30 2839 C 271.543 2.64744 -2.46156 0
M  V30 2840 O 271.264 2.20629 -3.7849 0
M  V30 2841 C 272.765 3.57929 -2.61537 0
M  V30 2842 H 269.985 0.436752 -0.5094 0
M  V30 2843 H 272.529 0.778933 -1.89084 0
M  V30 2844 H 270.684 3.25307 -2.10366 0
M  V30 2845 H 271.098 2.99938 -4.30276 0
M  V30 2846 H 272.572 4.40428 -3.32757 0
M  V30 2847 H 273.049 4.06382 -1.66585 0
M  V30 2848 H 273.655 3.03238 -2.98206 0
M  V30 2849 N 271.97 1.30982 0.876444 0
M  V30 2850 C 273.217 1.20296 1.62896 0
M  V30 2851 C 273.545 -0.240395 1.93009 0
M  V30 2852 O 272.8 -1.18733 1.55567 0
M  V30 2853 C 273.099 1.98572 2.9716 0
M  V30 2854 C 272.765 3.48125 2.86566 0
M  V30 2855 C 271.427 3.88905 2.83383 0
M  V30 2856 C 273.779 4.43322 2.74071 0
M  V30 2857 C 271.107 5.2316 2.65556 0
M  V30 2858 C 273.459 5.77695 2.57781 0
M  V30 2859 C 272.123 6.17704 2.52979 0
M  V30 2860 H 271.393 0.440193 0.59608 0
M  V30 2861 H 274.04 1.62177 1.01837 0
M  V30 2862 H 272.345 1.49352 3.62217 0
M  V30 2863 H 274.042 1.8769 3.54364 0
M  V30 2864 H 270.632 3.15723 2.89856 0
M  V30 2865 H 274.816 4.12752 2.75589 0
M  V30 2866 H 270.072 5.53241 2.60259 0
M  V30 2867 H 274.246 6.51091 2.47089 0
M  V30 2868 H 271.873 7.21678 2.38924 0
M  V30 2869 N 273.449 -1.08991 1.13837 0
M  V30 2870 C 274.697 -1.80899 0.901098 0
M  V30 2871 C 275.018 -1.86356 -0.574134 0
M  V30 2872 O 274.288 -1.35235 -1.41733 0
M  V30 2873 H 272.868 -0.669966 0.330386 0
M  V30 2874 H 275.53 -1.318 1.43578 0
M  V30 2875 H 274.626 -2.83929 1.29578 0
M  V30 2876 N 274.927 -0.932562 -1.27047 0
M  V30 2877 C 276.152 -0.591474 -1.98787 0
M  V30 2878 C 276.577 0.824601 -1.69062 0
M  V30 2879 O 275.935 1.5541 -0.933677 0
M  V30 2880 C 275.983 -0.829808 -3.50922 0
M  V30 2881 O 275.087 0.102266 -4.12273 0
M  V30 2882 H 274.428 -0.227185 -0.623926 0
M  V30 2883 H 276.958 -1.25314 -1.61733 0
M  V30 2884 H 276.968 -0.747292 -4.01098 0
M  V30 2885 H 275.643 -1.86201 -3.7189 0
M  V30 2886 H 274.22 -0.0305761 -3.72887 0
M  V30 2887 N 276.405 1.4127 -0.698611 0
M  V30 2888 C 277.816 1.84187 -0.305289 0
M  V30 2889 C 278.167 1.58449 1.15708 0
M  V30 2890 O 277.292 1.05651 1.88856 0
M  V30 2891 C 277.887 3.3435 -0.547314 0
M  V30 2892 C 276.446 3.75826 -0.207878 0
M  V30 2893 C 275.593 2.64647 -0.828099 0
M  V30 2894 H 278.544 1.30778 -0.89904 0
M  V30 2895 H 278.565 3.8001 0.192998 0
M  V30 2896 H 278.077 3.53051 -1.61172 0
M  V30 2897 H 276.178 3.62725 0.852143 0
M  V30 2898 H 276.291 4.74462 -0.665021 0
M  V30 2899 H 274.655 2.53395 -0.257458 0
M  V30 2900 H 275.438 2.86165 -1.89643 0
M  V30 2901 N 277.883 0.443576 1.51229 0
M  V30 2902 C 279.129 -0.120975 2.02439 0
M  V30 2903 C 279.462 -1.41815 1.32674 0
M  V30 2904 O 278.737 -1.89373 0.443622 0
M  V30 2905 C 279.02 -0.333291 3.58554 0
M  V30 2906 C 278.873 0.982968 4.38928 0
M  V30 2907 C 280.192 -1.10028 4.26124 0
M  V30 2908 H 277.311 -0.0424923 0.735774 0
M  V30 2909 H 279.953 0.583794 1.80809 0
M  V30 2910 H 278.103 -0.933614 3.77115 0
M  V30 2911 H 279.775 1.61775 4.32003 0
M  V30 2912 H 278.018 1.58611 4.03763 0
M  V30 2913 H 278.689 0.788379 5.46341 0
M  V30 2914 H 281.165 -0.591711 4.11871 0
M  V30 2915 H 280.041 -1.21761 5.35225 0
M  V30 2916 H 280.302 -2.12996 3.87408 0
M  V30 2917 N 279.361 -1.56624 0.175154 0
M  V30 2918 C 280.291 -2.21155 -0.749195 0
M  V30 2919 C 281.272 -1.16836 -1.23626 0
M  V30 2920 O 282.457 -1.45277 -1.28873 0
M  V30 2921 C 279.587 -2.8553 -1.97711 0
M  V30 2922 C 278.541 -3.95921 -1.62575 0
M  V30 2923 C 277.867 -4.47365 -2.92864 0
M  V30 2924 C 279.167 -5.15323 -0.850838 0
M  V30 2925 H 280.861 -2.98653 -0.211295 0
M  V30 2926 H 278.407 -1.43651 -0.100188 0
M  V30 2927 H 280.36 -3.2935 -2.62881 0
M  V30 2928 H 279.084 -2.05406 -2.53921 0
M  V30 2929 H 277.743 -3.52762 -0.997719 0
M  V30 2930 H 277.391 -3.64027 -3.47122 0
M  V30 2931 H 277.091 -5.21839 -2.70106 0
M  V30 2932 H 278.615 -4.93873 -3.59056 0
M  V30 2933 H 280.029 -5.55812 -1.40521 0
M  V30 2934 H 278.426 -5.95739 -0.722154 0
M  V30 2935 H 279.496 -4.84661 0.152082 0
M  V30 2936 N 280.839 0.0985539 -1.57292 0
M  V30 2937 C 281.772 1.15082 -1.97057 0
M  V30 2938 C 282.75 1.39025 -0.843255 0
M  V30 2939 O 283.934 1.52842 -1.10325 0
M  V30 2940 C 281.061 2.50069 -2.28437 0
M  V30 2941 C 280.107 2.42428 -3.509 0
M  V30 2942 S 280.94 1.84414 -5.02744 0
M  V30 2943 C 282.096 3.21032 -5.37298 0
M  V30 2944 H 282.329 0.811815 -2.86002 0
M  V30 2945 H 279.862 0.306102 -1.51335 0
M  V30 2946 H 281.82 3.27729 -2.47192 0
M  V30 2947 H 280.481 2.8114 -1.40069 0
M  V30 2948 H 279.674 3.41911 -3.70288 0
M  V30 2949 H 279.276 1.72896 -3.31637 0
M  V30 2950 H 281.568 4.17297 -5.33731 0
M  V30 2951 H 282.511 3.06452 -6.38352 0
M  V30 2952 H 282.919 3.20404 -4.64759 0
M  V30 2953 N 282.317 1.53212 0.369288 0
M  V30 2954 C 283.733 1.42902 0.710712 0
M  V30 2955 C 283.933 0.565135 1.93413 0
M  V30 2956 O 282.989 0.0461484 2.52458 0
M  V30 2957 C 284.302 2.86042 0.927382 0
M  V30 2958 C 285.85 2.9565 1.02762 0
M  V30 2959 C 286.325 4.39843 1.27679 0
M  V30 2960 N 287.816 4.43256 1.34457 0
M  V30 2961 C 288.551 5.51929 1.55439 0
M  V30 2962 N 288.047 6.70655 1.73762 0
M  V30 2963 N 289.84 5.39502 1.57779 0
M  V30 2964 H 281.991 2.07888 -0.435457 0
M  V30 2965 H 284.254 0.938661 -0.132739 0
M  V30 2966 H 283.96 3.51557 0.100287 0
M  V30 2967 H 283.834 3.29472 1.83653 0
M  V30 2968 H 286.221 2.30291 1.84527 0
M  V30 2969 H 286.302 2.5562 0.0959504 0
M  V30 2970 H 285.946 5.05774 0.464175 0
M  V30 2971 H 285.876 4.77443 2.22162 0
M  V30 2972 H 288.367 3.5769 1.21926 0
M  V30 2973 H 288.68 7.49248 1.89335 0
M  V30 2974 H 287.025 6.73648 1.70948 0
M  V30 2975 H 290.216 4.45713 1.43029 0
M  V30 2976 H 290.389 6.2426 1.7379 0
M  V30 2977 N 283.795 -0.628877 1.44509 0
M  V30 2978 C 284.745 -1.7345 1.47983 0
M  V30 2979 C 285.729 -1.5715 0.345373 0
M  V30 2980 O 286.921 -1.66848 0.590829 0
M  V30 2981 C 284.05 -3.12143 1.42904 0
M  V30 2982 C 283.136 -3.33906 2.61472 0
M  V30 2983 N 283.527 -3.26024 3.86706 0
M  V30 2984 C 281.825 -3.64709 2.56716 0
M  V30 2985 C 282.526 -3.48536 4.65722 0
M  V30 2986 N 281.502 -3.71517 3.96832 0
M  V30 2987 H 285.304 -1.65818 2.42655 0
M  V30 2988 H 282.818 -0.831419 1.39503 0
M  V30 2989 H 284.815 -3.91433 1.43476 0
M  V30 2990 H 283.475 -3.2094 0.492717 0
M  V30 2991 H 284.486 -3.04893 4.18641 0
M  V30 2992 H 281.163 -3.80473 1.71891 0
M  V30 2993 H 282.553 -3.48016 5.74747 0
M  V30 2994 N 285.273 -1.31445 -0.869486 0
M  V30 2995 C 286.203 -1.21727 -1.99261 0
M  V30 2996 C 287.184 -0.104359 -1.6978 0
M  V30 2997 O 288.369 -0.289038 -1.92037 0
M  V30 2998 C 285.499 -0.924317 -3.34774 0
M  V30 2999 C 284.453 -1.99685 -3.78563 0
M  V30 3000 C 283.779 -1.55658 -5.11541 0
M  V30 3001 C 285.079 -3.41003 -3.95619 0
M  V30 3002 H 286.773 -2.1569 -2.07649 0
M  V30 3003 H 284.319 -1.03839 -0.997675 0
M  V30 3004 H 286.272 -0.842934 -4.12883 0
M  V30 3005 H 284.996 0.0509793 -3.2656 0
M  V30 3006 H 283.655 -2.06813 -3.02694 0
M  V30 3007 H 283.303 -0.569132 -4.9977 0
M  V30 3008 H 283.003 -2.27409 -5.41811 0
M  V30 3009 H 284.527 -1.48928 -5.92159 0
M  V30 3010 H 285.941 -3.36547 -4.64122 0
M  V30 3011 H 284.338 -4.10975 -4.37286 0
M  V30 3012 H 285.408 -3.81754 -2.98985 0
M  V30 3013 N 286.751 1.08385 -1.14413 0
M  V30 3014 C 287.979 1.84517 -0.936001 0
M  V30 3015 C 288.394 1.81626 0.515503 0
M  V30 3016 O 287.751 1.22008 1.35721 0
M  V30 3017 C 287.802 3.32049 -1.42918 0
M  V30 3018 O 287.523 3.34951 -2.82381 0
M  V30 3019 C 289.024 4.24986 -1.26103 0
M  V30 3020 H 286.244 0.582491 -0.333084 0
M  V30 3021 H 288.788 1.36885 -1.5193 0
M  V30 3022 H 286.943 3.7707 -0.888641 0
M  V30 3023 H 287.357 4.27048 -3.04517 0
M  V30 3024 H 288.831 5.26615 -1.6547 0
M  V30 3025 H 289.308 4.38726 -0.20392 0
M  V30 3026 H 289.914 3.85791 -1.79012 0
M  V30 3027 N 288.23 0.939286 1.26551 0
M  V30 3028 C 289.193 0.451987 2.24699 0
M  V30 3029 C 290.193 -0.435869 1.5478 0
M  V30 3030 O 291.383 -0.235314 1.72603 0
M  V30 3031 C 288.515 -0.348801 3.39111 0
M  V30 3032 H 289.708 1.3193 2.69322 0
M  V30 3033 H 287.261 0.721072 1.38673 0
M  V30 3034 H 287.996 -1.23444 2.99887 0
M  V30 3035 H 287.781 0.287945 3.91041 0
M  V30 3036 H 289.271 -0.679726 4.12031 0
M  V30 3037 N 289.708 -1.40897 0.706093 0
M  V30 3038 C 290.933 -2.05895 0.249435 0
M  V30 3039 C 291.358 -1.52823 -1.09666 0
M  V30 3040 O 290.716 -0.659589 -1.68876 0
M  V30 3041 C 290.764 -3.59872 0.22904 0
M  V30 3042 O 289.868 -4.04708 -0.792784 0
M  V30 3043 H 289.209 -0.653206 0.119241 0
M  V30 3044 H 291.739 -1.80471 0.96391 0
M  V30 3045 H 291.749 -4.07951 0.0634791 0
M  V30 3046 H 290.424 -3.97866 1.21141 0
M  V30 3047 H 289.001 -3.68111 -0.59572 0
M  V30 3048 N 291.186 -0.45159 -1.50991 0
M  V30 3049 C 292.096 0.358431 -2.31846 0
M  V30 3050 C 293.112 1.01438 -1.41373 0
M  V30 3051 O 294.288 1.00663 -1.74439 0
M  V30 3052 C 291.353 1.43704 -3.15515 0
M  V30 3053 C 290.414 0.799742 -4.21785 0
M  V30 3054 C 289.647 1.82696 -5.01456 0
M  V30 3055 O 289.87 3.05105 -4.81941 0
M  V30 3056 O 288.804 1.40958 -5.85162 0
M  V30 3057 H 292.63 -0.302032 -3.02194 0
M  V30 3058 H 290.215 -0.213825 -1.47862 0
M  V30 3059 H 292.097 2.06227 -3.67489 0
M  V30 3060 H 290.772 2.08133 -2.47916 0
M  V30 3061 H 289.679 0.136084 -3.73852 0
M  V30 3062 H 291.012 0.198718 -4.91799 0
M  V30 3063 N 292.664 1.56529 -0.183458 0
M  V30 3064 C 293.627 2.17324 0.728223 0
M  V30 3065 C 294.627 1.12453 1.14939 0
M  V30 3066 O 295.817 1.37902 1.06437 0
M  V30 3067 C 292.949 2.76591 1.99274 0
M  V30 3068 H 294.142 2.99241 0.198772 0
M  V30 3069 H 291.695 1.5616 0.0661391 0
M  V30 3070 H 292.43 1.98441 2.56499 0
M  V30 3071 H 292.215 3.5335 1.69959 0
M  V30 3072 H 293.705 3.23311 2.6431 0
M  V30 3073 N 294.142 -0.090211 1.57342 0
M  V30 3074 C 295.089 -1.10909 2.02405 0
M  V30 3075 C 296.059 -1.39523 0.901252 0
M  V30 3076 O 297.244 -1.50903 1.1676 0
M  V30 3077 C 294.384 -2.42277 2.45755 0
M  V30 3078 C 293.497 -2.20352 3.71576 0
M  V30 3079 C 292.632 -3.45154 4.03785 0
M  V30 3080 C 291.671 -3.18512 5.22701 0
M  V30 3081 N 290.808 -4.35593 5.50639 0
M  V30 3082 H 295.648 -0.71782 2.89225 0
M  V30 3083 H 293.185 -0.342901 1.43048 0
M  V30 3084 H 295.143 -3.18951 2.68935 0
M  V30 3085 H 293.773 -2.79242 1.61938 0
M  V30 3086 H 292.825 -1.34458 3.55844 0
M  V30 3087 H 294.137 -1.96661 4.58395 0
M  V30 3088 H 293.291 -4.30233 4.27767 0
M  V30 3089 H 292.03 -3.71904 3.15498 0
M  V30 3090 H 291.035 -2.31827 4.98534 0
M  V30 3091 H 292.26 -2.93103 6.12591 0
M  V30 3092 H 290.206 -4.6241 4.6531 0
M  V30 3093 H 290.123 -4.1511 6.31838 0
M  V30 3094 H 291.391 -5.21723 5.7916 0
M  V30 3095 N 295.62 -1.53406 -0.361157 0
M  V30 3096 C 296.567 -1.80156 -1.44265 0
M  V30 3097 C 297.537 -0.646183 -1.53015 0
M  V30 3098 O 298.722 -0.888818 -1.68833 0
M  V30 3099 C 295.862 -2.00116 -2.81154 0
M  V30 3100 C 294.975 -3.27833 -2.81335 0
M  V30 3101 C 294.11 -3.37957 -4.09828 0
M  V30 3102 C 293.149 -4.59689 -4.04168 0
M  V30 3103 N 292.286 -4.66942 -5.24318 0
M  V30 3104 H 297.126 -2.72438 -1.20754 0
M  V30 3105 H 294.663 -1.34954 -0.585296 0
M  V30 3106 H 296.621 -2.09677 -3.60682 0
M  V30 3107 H 295.251 -1.11167 -3.03054 0
M  V30 3108 H 294.303 -3.27204 -1.94014 0
M  V30 3109 H 295.615 -4.17442 -2.73027 0
M  V30 3110 H 294.769 -3.46853 -4.97773 0
M  V30 3111 H 293.508 -2.46372 -4.20894 0
M  V30 3112 H 292.513 -4.50889 -3.14609 0
M  V30 3113 H 293.738 -5.5262 -3.947 0
M  V30 3114 H 291.684 -3.7826 -5.35962 0
M  V30 3115 H 291.601 -5.50462 -5.18197 0
M  V30 3116 H 292.869 -4.80127 -6.14084 0
M  V30 3117 N 297.098 0.621204 -1.44841 0
M  V30 3118 C 298.028 1.74366 -1.55303 0
M  V30 3119 C 299.009 1.65199 -0.405385 0
M  V30 3120 O 300.194 1.83807 -0.626787 0
M  V30 3121 C 297.324 3.12931 -1.50637 0
M  V30 3122 C 296.278 3.36896 -2.63979 0
M  V30 3123 C 295.604 4.75594 -2.44366 0
M  V30 3124 C 296.904 3.28483 -4.06074 0
M  V30 3125 H 298.598 1.65867 -2.49256 0
M  V30 3126 H 296.144 0.796558 -1.19962 0
M  V30 3127 H 298.097 3.9124 -1.56555 0
M  V30 3128 H 296.821 3.22237 -0.532057 0
M  V30 3129 H 295.48 2.60972 -2.57467 0
M  V30 3130 H 295.128 4.81616 -1.45105 0
M  V30 3131 H 294.828 4.92586 -3.20364 0
M  V30 3132 H 296.352 5.5612 -2.52117 0
M  V30 3133 H 297.766 3.96684 -4.13902 0
M  V30 3134 H 296.163 3.57008 -4.82354 0
M  V30 3135 H 297.233 2.26133 -4.28943 0
M  V30 3136 N 298.576 1.31904 0.862503 0
M  V30 3137 C 299.987 1.19803 1.43193 0
M  V30 3138 C 300.338 -0.192567 1.95253 0
M  V30 3139 O 299.463 -1.09081 1.86896 0
M  V30 3140 C 300.058 2.16883 2.60283 0
M  V30 3141 C 298.617 2.08692 3.13248 0
M  V30 3142 C 297.764 2.05691 1.85975 0
M  V30 3143 H 300.715 1.43846 0.670365 0
M  V30 3144 H 300.736 1.76278 3.37204 0
M  V30 3145 H 300.248 3.18083 2.22363 0
M  V30 3146 H 298.349 1.10713 3.55771 0
M  V30 3147 H 298.462 2.9815 3.75025 0
M  V30 3148 H 296.826 1.50814 2.05249 0
M  V30 3149 H 297.609 3.08659 1.50282 0
M  V30 3150 N 300.054 -1.07777 1.14986 0
M  V30 3151 C 301.303 -1.79669 0.916617 0
M  V30 3152 C 301.616 -1.87474 -0.557917 0
M  V30 3153 O 302.822 -2.55845 -0.908617 0
M  V30 3154 C 301.278 -3.22848 1.59051 0
M  V30 3155 C 300.886 -3.23257 3.10176 0
M  V30 3156 C 302.63 -3.99379 1.43864 0
M  V30 3157 C 300.537 -4.61063 3.70372 0
M  V30 3158 H 299.467 -0.673349 0.33929 0
M  V30 3159 H 302.118 -1.21003 1.37951 0
M  V30 3160 H 300.5 -3.8168 1.0553 0
M  V30 3161 H 301.674 -2.74095 3.70417 0
M  V30 3162 H 299.989 -2.60222 3.25074 0
M  V30 3163 H 302.586 -5.0122 1.86232 0
M  V30 3164 H 302.929 -4.14511 0.385564 0
M  V30 3165 H 303.462 -3.47032 1.94457 0
M  V30 3166 H 300.201 -4.51135 4.7556 0
M  V30 3167 H 299.721 -5.1048 3.14913 0
M  V30 3168 H 301.4 -5.30034 3.71043 0
M  V30 3169 N 301.532 -0.945985 -1.26051 0
M  V30 3170 C 302.464 -0.416662 -2.25381 0
M  V30 3171 C 303.477 0.462712 -1.56086 0
M  V30 3172 O 304.666 0.272383 -1.7641 0
M  V30 3173 C 301.766 0.419812 -3.3629 0
M  V30 3174 C 300.939 -0.444531 -4.35135 0
M  V30 3175 C 299.998 0.332305 -5.2515 0
M  V30 3176 O 299.024 -0.266324 -5.68577 0
M  V30 3177 N 300.226 1.62763 -5.57215 0
M  V30 3178 H 302.991 -1.27059 -2.71433 0
M  V30 3179 H 300.552 -0.815392 -1.39868 0
M  V30 3180 H 302.544 0.947013 -3.93464 0
M  V30 3181 H 301.114 1.17456 -2.89694 0
M  V30 3182 H 300.334 -1.15291 -3.76964 0
M  V30 3183 H 301.622 -1.03478 -4.98166 0
M  V30 3184 H 301.02 2.13603 -5.23823 0
M  V30 3185 H 299.577 2.10097 -6.17011 0
M  V30 3186 N 303.011 1.40521 -0.713556 0
M  V30 3187 C 303.921 2.34522 -0.0606667 0
M  V30 3188 C 304.937 1.57193 0.74607 0
M  V30 3189 O 306.113 1.89591 0.679493 0
M  V30 3190 C 303.178 3.36081 0.851491 0
M  V30 3191 C 302.239 4.29286 0.0349339 0
M  V30 3192 C 301.472 5.25994 0.903649 0
M  V30 3193 O 301.695 5.28616 2.14292 0
M  V30 3194 O 300.629 6.00918 0.343723 0
M  V30 3195 H 304.455 2.91968 -0.835972 0
M  V30 3196 H 302.04 1.41681 -0.47402 0
M  V30 3197 H 303.922 3.98369 1.37404 0
M  V30 3198 H 302.597 2.81052 1.60598 0
M  V30 3199 H 301.504 3.70289 -0.532633 0
M  V30 3200 H 302.837 4.87462 -0.681287 0
M  V30 3201 N 304.489 0.459591 1.5075 0
M  V30 3202 C 305.736 -0.0993495 2.02256 0
M  V30 3203 C 306.064 -1.40751 1.34237 0
M  V30 3204 O 305.319 -1.90379 0.453228 0
M  V30 3205 C 305.618 -0.342866 3.55752 0
M  V30 3206 C 305.284 0.88218 4.42186 0
M  V30 3207 C 303.946 1.21808 4.65528 0
M  V30 3208 C 306.298 1.69837 4.92752 0
M  V30 3209 C 303.626 2.37045 5.36681 0
M  V30 3210 C 305.978 2.84192 5.65171 0
M  V30 3211 C 304.642 3.1821 5.8677 0
M  V30 3212 H 303.912 -0.0363545 0.740108 0
M  V30 3213 H 306.559 0.611329 1.8148 0
M  V30 3214 H 304.864 -1.13567 3.7498 0
M  V30 3215 H 306.561 -0.789121 3.93159 0
M  V30 3216 H 303.151 0.610467 4.2423 0
M  V30 3217 H 307.335 1.45205 4.74583 0
M  V30 3218 H 302.591 2.63689 5.51614 0
M  V30 3219 H 306.765 3.4779 6.03337 0
M  V30 3220 H 304.392 4.07613 6.41682 0
M  V30 3221 N 305.967 -1.56429 0.191757 0
M  V30 3222 C 306.917 -2.15548 -0.743184 0
M  V30 3223 C 307.901 -1.09531 -1.17863 0
M  V30 3224 O 309.093 -1.35602 -1.13759 0
M  V30 3225 C 306.222 -2.81577 -1.96391 0
M  V30 3226 C 305.308 -3.9478 -1.54951 0
M  V30 3227 N 305.699 -4.98677 -0.845876 0
M  V30 3228 C 303.997 -4.06319 -1.83905 0
M  V30 3229 C 304.698 -5.78183 -0.638724 0
M  V30 3230 N 303.674 -5.30495 -1.18643 0
M  V30 3231 H 307.476 -2.9324 -0.196839 0
M  V30 3232 H 304.99 -1.62398 -0.0081603 0
M  V30 3233 H 306.987 -3.22321 -2.64415 0
M  V30 3234 H 305.647 -2.05371 -2.51501 0
M  V30 3235 H 306.658 -5.15464 -0.501704 0
M  V30 3236 H 303.335 -3.41238 -2.40548 0
M  V30 3237 H 304.725 -6.71851 -0.0807929 0
M  V30 3238 N 307.445 0.0818655 -1.57387 0
M  V30 3239 C 308.375 1.09885 -2.06028 0
M  V30 3240 C 309.356 1.4098 -0.951774 0
M  V30 3241 O 310.541 1.50781 -1.22387 0
M  V30 3242 C 307.671 2.4151 -2.4958 0
M  V30 3243 C 306.625 2.24792 -3.64215 0
M  V30 3244 C 305.951 3.61712 -3.93787 0
M  V30 3245 C 307.251 1.67749 -4.94629 0
M  V30 3246 H 308.945 0.694128 -2.91243 0
M  V30 3247 H 306.491 0.332448 -1.4011 0
M  V30 3248 H 308.444 3.12939 -2.82219 0
M  V30 3249 H 307.168 2.83943 -1.61381 0
M  V30 3250 H 305.827 1.55807 -3.31843 0
M  V30 3251 H 305.475 4.01697 -3.02735 0
M  V30 3252 H 305.175 3.51368 -4.70971 0
M  V30 3253 H 306.699 4.34587 -4.28913 0
M  V30 3254 H 308.113 2.29032 -5.25564 0
M  V30 3255 H 306.51 1.68128 -5.76067 0
M  V30 3256 H 307.58 0.638059 -4.80684 0
M  V30 3257 N 308.923 1.53595 0.353017 0
M  V30 3258 C 310.148 1.7462 1.11904 0
M  V30 3259 C 310.573 0.479721 1.8188 0
M  V30 3260 O 309.931 -0.567066 1.72204 0
M  V30 3261 C 309.979 2.92029 2.11545 0
M  V30 3262 O 309.083 2.61516 3.18878 0
M  V30 3263 H 308.424 0.579531 0.324099 0
M  V30 3264 H 310.954 2.00525 0.406301 0
M  V30 3265 H 310.964 3.18551 2.5493 0
M  V30 3266 H 309.639 3.83888 1.60008 0
M  V30 3267 H 308.216 2.45852 2.80377 0
M  V30 3268 N 310.401 -0.613514 1.45168 0
M  V30 3269 C 311.817 -0.933629 1.29443 0
M  V30 3270 C 312.017 -2.00028 0.243101 0
M  V30 3271 O 311.073 -2.49848 -0.364992 0
M  V30 3272 C 312.386 -1.38018 2.67155 0
M  V30 3273 C 313.934 -1.49471 2.75004 0
M  V30 3274 C 314.409 -1.97503 4.13227 0
M  V30 3275 N 315.9 -2.04746 4.15491 0
M  V30 3276 C 316.635 -2.43121 5.19307 0
M  V30 3277 N 316.131 -2.80506 6.33473 0
M  V30 3278 N 317.924 -2.43408 5.06664 0
M  V30 3279 H 310.075 0.0916097 2.12202 0
M  V30 3280 H 312.338 -0.0216655 0.947752 0
M  V30 3281 H 312.044 -0.670625 3.45247 0
M  V30 3282 H 311.918 -2.34784 2.95222 0
M  V30 3283 H 314.305 -2.19519 1.9722 0
M  V30 3284 H 314.386 -0.510342 2.50657 0
M  V30 3285 H 314.03 -1.28045 4.91495 0
M  V30 3286 H 313.96 -2.96843 4.34962 0
M  V30 3287 H 316.451 -1.78468 3.33103 0
M  V30 3288 H 316.764 -3.08652 7.08487 0
M  V30 3289 H 315.109 -2.78216 6.36884 0
M  V30 3290 H 318.3 -2.13604 4.16523 0
M  V30 3291 H 318.473 -2.72989 5.87691 0
M  V30 3292 N 311.879 -1.3236 -0.855495 0
M  V30 3293 C 313.128 -1.22226 -1.60448 0
M  V30 3294 C 313.441 0.214733 -1.94418 0
M  V30 3295 O 314.647 0.437917 -2.67945 0
M  V30 3296 C 313.103 -2.14063 -2.89318 0
M  V30 3297 C 312.711 -3.62839 -2.62777 0
M  V30 3298 C 314.455 -2.12764 -3.67331 0
M  V30 3299 C 312.362 -4.4664 -3.87643 0
M  V30 3300 H 311.292 -0.453904 -0.602069 0
M  V30 3301 H 313.943 -1.57314 -0.944698 0
M  V30 3302 H 312.325 -1.71889 -3.5675 0
M  V30 3303 H 313.499 -4.1335 -2.03662 0
M  V30 3304 H 311.814 -3.66261 -1.98096 0
M  V30 3305 H 314.411 -2.72611 -4.59987 0
M  V30 3306 H 314.754 -1.11841 -4.00995 0
M  V30 3307 H 315.287 -2.53214 -3.06802 0
M  V30 3308 H 312.026 -5.48373 -3.5912 0
M  V30 3309 H 311.546 -4.0088 -4.46156 0
M  V30 3310 H 313.225 -4.59597 -4.55389 0
M  V30 3311 N 313.357 1.07166 -1.15556 0
M  V30 3312 C 314.287 2.16403 -0.877046 0
M  V30 3313 C 315.268 1.69217 0.173111 0
M  V30 3314 O 316.453 1.94181 0.027084 0
M  V30 3315 C 313.583 3.45349 -0.367632 0
M  V30 3316 C 312.537 4.05995 -1.35468 0
M  V30 3317 C 311.863 5.30045 -0.704038 0
M  V30 3318 C 313.163 4.45804 -2.72132 0
M  V30 3319 H 314.857 2.39959 -1.79053 0
M  V30 3320 H 312.403 1.15325 -0.862331 0
M  V30 3321 H 314.356 4.21095 -0.160317 0
M  V30 3322 H 313.08 3.21385 0.581326 0
M  V30 3323 H 311.739 3.32296 -1.54839 0
M  V30 3324 H 311.387 5.02373 0.251128 0
M  V30 3325 H 311.087 5.71579 -1.36277 0
M  V30 3326 H 312.611 6.08495 -0.50654 0
M  V30 3327 H 314.025 5.12671 -2.56595 0
M  V30 3328 H 312.422 4.98296 -3.34397 0
M  V30 3329 H 313.492 3.57083 -3.28054 0
M  V30 3330 N 314.835 0.952656 1.25548 0
M  V30 3331 C 315.767 0.428609 2.25157 0
M  V30 3332 C 316.78 -0.454428 1.56329 0
M  V30 3333 O 317.969 -0.263023 1.76552 0
M  V30 3334 C 315.069 -0.401972 3.36508 0
M  V30 3335 C 314.242 0.467601 4.34893 0
M  V30 3336 C 313.301 -0.30445 5.25319 0
M  V30 3337 O 312.327 0.296473 5.68427 0
M  V30 3338 N 313.529 -1.59805 5.5807 0
M  V30 3339 H 316.294 1.28497 2.70756 0
M  V30 3340 H 313.855 0.822798 1.39433 0
M  V30 3341 H 315.847 -0.926134 3.9396 0
M  V30 3342 H 314.417 -1.15918 2.90313 0
M  V30 3343 H 313.637 1.17288 3.76347 0
M  V30 3344 H 314.925 1.06119 4.97611 0
M  V30 3345 H 314.323 -2.10823 5.24948 0
M  V30 3346 H 312.88 -2.06822 6.18116 0
M  V30 3347 N 316.313 -1.40141 0.720998 0
M  V30 3348 C 317.223 -2.34486 0.0731031 0
M  V30 3349 C 318.239 -1.57587 -0.737723 0
M  V30 3350 O 319.415 -1.89949 -0.669429 0
M  V30 3351 C 316.48 -3.36528 -0.833656 0
M  V30 3352 C 315.541 -4.29298 -0.0121673 0
M  V30 3353 C 314.774 -5.26466 -0.875742 0
M  V30 3354 O 314.997 -5.29745 -2.11485 0
M  V30 3355 O 313.931 -6.01092 -0.31185 0
M  V30 3356 H 317.757 -2.9152 0.851444 0
M  V30 3357 H 315.342 -1.41427 0.481527 0
M  V30 3358 H 317.224 -3.99093 -1.35289 0
M  V30 3359 H 315.899 -2.81899 -1.59105 0
M  V30 3360 H 314.806 -3.70001 0.552262 0
M  V30 3361 H 316.139 -4.87094 0.707129 0
M  V30 3362 N 317.792 -0.46758 -1.50504 0
M  V30 3363 C 318.722 0.318381 -2.31319 0
M  V30 3364 C 319.703 0.993564 -1.38066 0
M  V30 3365 O 320.888 0.991411 -1.66987 0
M  V30 3366 C 318.018 1.40275 -3.17711 0
M  V30 3367 C 316.972 0.849373 -4.19487 0
M  V30 3368 C 316.298 2.03177 -4.94594 0
M  V30 3369 C 317.598 -0.136942 -5.2212 0
M  V30 3370 H 319.292 -0.356106 -2.97275 0
M  V30 3371 H 316.838 -0.172703 -1.42961 0
M  V30 3372 H 318.791 1.96004 -3.73042 0
M  V30 3373 H 317.515 2.10596 -2.49634 0
M  V30 3374 H 316.174 0.314076 -3.65252 0
M  V30 3375 H 315.822 2.72187 -4.22993 0
M  V30 3376 H 315.522 1.66774 -5.63436 0
M  V30 3377 H 317.046 2.59403 -5.52759 0
M  V30 3378 H 318.46 0.331056 -5.72343 0
M  V30 3379 H 316.857 -0.41507 -5.98663 0
M  V30 3380 H 317.927 -1.06398 -4.73083 0
M  V30 3381 N 319.27 1.56325 -0.20005 0
M  V30 3382 C 320.518 1.97329 0.436547 0
M  V30 3383 C 320.839 1.08826 1.61808 0
M  V30 3384 O 320.109 0.160604 1.95241 0
M  V30 3385 H 318.689 0.728714 0.164272 0
M  V30 3386 H 321.351 1.92761 -0.287937 0
M  V30 3387 H 320.447 3.02264 0.777353 0
M  V30 3388 N 320.748 -0.0735177 1.57428 0
M  V30 3389 C 321.678 -1.0879 2.06608 0
M  V30 3390 C 322.659 -1.40473 0.959237 0
M  V30 3391 O 323.844 -1.5013 1.23185 0
M  V30 3392 C 320.974 -2.40183 2.50857 0
M  V30 3393 C 319.928 -2.22858 3.65402 0
M  V30 3394 C 319.254 -3.59619 3.957 0
M  V30 3395 C 320.554 -1.65123 4.95511 0
M  V30 3396 H 322.248 -0.678673 2.91607 0
M  V30 3397 H 319.794 -0.325013 1.40284 0
M  V30 3398 H 321.747 -3.11437 2.83874 0
M  V30 3399 H 320.471 -2.83083 1.62885 0
M  V30 3400 H 319.13 -1.54045 3.32664 0
M  V30 3401 H 318.778 -4.00086 3.04861 0
M  V30 3402 H 318.478 -3.48866 4.72828 0
M  V30 3403 H 320.002 -4.32306 4.31212 0
M  V30 3404 H 321.416 -2.26241 5.26771 0
M  V30 3405 H 319.813 -1.65071 5.7695 0
M  V30 3406 H 320.883 -0.612559 4.81015 0
M  V30 3407 N 322.226 -1.5378 -0.344866 0
M  V30 3408 C 323.174 -1.82373 -1.4437 0
M  V30 3409 C 324.168 -0.694128 -1.54526 0
M  V30 3410 O 325.374 -0.877442 -1.57165 0
M  V30 3411 H 321.749 -0.577765 -0.481344 0
M  V30 3412 H 323.72 -2.74306 -1.17468 0
M  V30 3413 C 322.469 -2.04898 -2.80913 0
M  V30 3414 H 321.792 -2.9127 -2.73865 0
M  V30 3415 H 323.232 -2.28871 -3.56923 0
M  V30 3416 C 321.691 -0.834116 -3.26411 0
M  V30 3417 O 322.221 -0.0328885 -4.01687 0
M  V30 3418 N 320.427 -0.65171 -2.83198 0
M  V30 3419 H 319.974 -1.30489 -2.22104 0
M  V30 3420 H 319.932 0.159686 -3.13994 0
M  V30 3421 N 323.704 0.605807 -1.45491 0
M  V30 3422 C 324.636 1.73031 -1.5031 0
M  V30 3423 C 325.649 1.57968 -0.393687 0
M  V30 3424 O 326.838 1.65817 -0.660839 0
M  V30 3425 C 323.938 3.11049 -1.34543 0
M  V30 3426 C 323.111 3.52334 -2.59189 0
M  V30 3427 C 322.17 4.69323 -2.37954 0
M  V30 3428 O 321.196 4.7635 -3.11575 0
M  V30 3429 N 322.398 5.62705 -1.4263 0
M  V30 3430 H 325.163 1.6936 -2.4726 0
M  V30 3431 H 322.724 0.79114 -1.41254 0
M  V30 3432 H 324.716 3.87071 -1.18144 0
M  V30 3433 H 323.286 3.09217 -0.458623 0
M  V30 3434 H 322.506 2.66256 -2.90691 0
M  V30 3435 H 323.794 3.76677 -3.42041 0
M  V30 3436 H 323.192 5.59744 -0.818758 0
M  V30 3437 H 321.749 6.38252 -1.32202 0
M  V30 3438 N 325.182 1.32811 0.848464 0
M  V30 3439 C 326.092 1.24278 1.98978 0
M  V30 3440 C 327.108 0.155176 1.73307 0
M  V30 3441 O 328.284 0.376999 1.9784 0
M  V30 3442 C 325.349 0.972444 3.32783 0
M  V30 3443 C 324.41 2.14911 3.71634 0
M  V30 3444 C 323.643 1.89157 4.99054 0
M  V30 3445 O 323.866 0.837165 5.64223 0
M  V30 3446 O 322.8 2.75433 5.35183 0
M  V30 3447 H 326.626 2.20238 2.09115 0
M  V30 3448 H 324.211 1.12762 0.980052 0
M  V30 3449 H 326.093 0.838432 4.12975 0
M  V30 3450 H 324.768 0.043051 3.23671 0
M  V30 3451 H 323.675 2.33862 2.91992 0
M  V30 3452 H 325.008 3.06151 3.85399 0
M  V30 3453 N 326.66 -1.06551 1.16123 0
M  V30 3454 C 327.592 -2.13908 0.823171 0
M  V30 3455 C 328.605 -1.61926 -0.16843 0
M  V30 3456 O 329.794 -1.78412 0.055962 0
M  V30 3457 C 326.894 -3.38283 0.204424 0
M  V30 3458 C 326.067 -4.19589 1.23548 0
M  V30 3459 C 325.126 -5.2233 0.637011 0
M  V30 3460 O 324.152 -5.54034 1.30516 0
M  V30 3461 N 325.354 -5.77621 -0.577474 0
M  V30 3462 H 328.119 -2.43508 1.74711 0
M  V30 3463 H 325.68 -1.2253 1.05821 0
M  V30 3464 H 327.672 -4.0416 -0.208909 0
M  V30 3465 H 326.242 -3.06329 -0.623012 0
M  V30 3466 H 325.462 -3.49406 1.82507 0
M  V30 3467 H 326.75 -4.70718 1.93137 0
M  V30 3468 H 326.148 -5.54125 -1.13853 0
M  V30 3469 H 324.705 -6.45087 -0.933053 0
M  V30 3470 N 328.138 -0.959301 -1.25041 0
M  V30 3471 C 329.385 -0.616611 -1.92884 0
M  V30 3472 C 329.713 0.847036 -1.75087 0
M  V30 3473 O 328.968 1.62374 -1.09239 0
M  V30 3474 C 329.267 -0.927136 -3.45165 0
M  V30 3475 C 328.933 -2.37757 -3.83122 0
M  V30 3476 C 327.595 -2.77402 -3.93194 0
M  V30 3477 C 329.947 -3.31929 -4.01836 0
M  V30 3478 C 327.275 -4.10277 -4.19392 0
M  V30 3479 C 329.627 -4.64423 -4.29528 0
M  V30 3480 C 328.291 -5.03857 -4.37818 0
M  V30 3481 H 327.561 -0.225634 -0.705812 0
M  V30 3482 H 330.208 -1.20921 -1.48493 0
M  V30 3483 H 328.513 -0.252195 -3.90987 0
M  V30 3484 H 330.21 -0.6405 -3.95852 0
M  V30 3485 H 326.8 -2.06013 -3.75841 0
M  V30 3486 H 330.984 -3.02488 -3.93465 0
M  V30 3487 H 326.24 -4.40467 -4.24027 0
M  V30 3488 H 330.414 -5.37369 -4.42953 0
M  V30 3489 H 328.041 -6.06843 -4.57871 0
M  V30 3490 N 329.616 1.39756 -0.72842 0
M  V30 3491 C 330.862 2.00942 -0.273892 0
M  V30 3492 C 331.195 1.57656 1.13394 0
M  V30 3493 O 330.47 0.802434 1.77176 0
M  V30 3494 C 330.753 3.58211 -0.368346 0
M  V30 3495 C 330.606 4.11534 -1.81548 0
M  V30 3496 C 331.925 4.39372 0.253054 0
M  V30 3497 H 329.044 0.730047 -0.100996 0
M  V30 3498 H 331.686 1.66056 -0.923337 0
M  V30 3499 H 329.836 3.88061 0.184588 0
M  V30 3500 H 331.508 3.92431 -2.42478 0
M  V30 3501 H 329.751 3.65341 -2.33898 0
M  V30 3502 H 330.422 5.20682 -1.83288 0
M  V30 3503 H 332.898 4.15527 -0.218224 0
M  V30 3504 H 331.774 5.48677 0.156585 0
M  V30 3505 H 332.035 4.21358 1.33826 0
M  V30 3506 N 331.094 0.475555 1.50254 0
M  V30 3507 C 332.371 -0.139685 1.95101 0
M  V30 3508 C 332.751 -1.56555 1.41611 0
M  V30 3509 O 332.099 -2.19956 0.618993 0
M  V30 3510 C 332.309 -0.0784298 3.48912 0
M  V30 3511 C 333.657 -0.265095 4.23772 0
M  V30 3512 O 334.681 -0.154808 3.55863 0
M  V30 3513 O 333.54 -0.488327 5.44314 0
M  V30 3514 H 330.634 -0.109236 0.819754 0
M  V30 3515 H 333.18 0.536276 1.61004 0
M  V30 3516 H 331.952 0.916918 3.80405 0
M  V30 3517 H 331.575 -0.795655 3.89558 0
M  V30 3518 N 332.573 -1.56217 0.208337 0
M  V30 3519 C 333.503 -2.22694 -0.702116 0
M  V30 3520 C 334.484 -1.19432 -1.2112 0
M  V30 3521 O 335.669 -1.47978 -1.25762 0
M  V30 3522 C 332.799 -2.8966 -1.9161 0
M  V30 3523 C 331.753 -3.9928 -1.5414 0
M  V30 3524 C 331.079 -4.53476 -2.83308 0
M  V30 3525 C 332.379 -5.17012 -0.741339 0
M  V30 3526 H 334.073 -2.99034 -0.147898 0
M  V30 3527 H 331.619 -1.43831 -0.0696951 0
M  V30 3528 H 333.572 -3.34852 -2.55836 0
M  V30 3529 H 332.296 -2.10746 -2.49507 0
M  V30 3530 H 330.955 -3.54799 -0.922668 0
M  V30 3531 H 330.603 -3.71308 -3.39322 0
M  V30 3532 H 330.303 -5.27451 -2.58976 0
M  V30 3533 H 331.827 -5.01378 -3.485 0
M  V30 3534 H 333.241 -5.58667 -1.28699 0
M  V30 3535 H 331.638 -5.97137 -0.595627 0
M  V30 3536 H 332.708 -4.8423 0.254851 0
M  V30 3537 N 334.051 0.0651679 -1.57465 0
M  V30 3538 C 335.291 0.768329 -1.8941 0
M  V30 3539 C 335.655 1.74406 -0.802894 0
M  V30 3540 O 336.856 2.49281 -1.0056 0
M  V30 3541 C 335.127 1.45199 -3.26576 0
M  V30 3542 S 336.686 2.1893 -3.80283 0
M  V30 3543 H 333.504 0.255359 -0.663561 0
M  V30 3544 H 336.106 0.024167 -1.95485 0
M  V30 3545 H 334.81 0.728123 -4.03889 0
M  V30 3546 H 334.341 2.23545 -3.23715 0
M  V30 3547 H 336.356 3.45551 -3.56102 0
M  V30 3548 N 335.529 1.53961 0.336706 0
M  V30 3549 C 336.778 1.70751 1.07363 0
M  V30 3550 C 337.091 0.481061 1.89592 0
M  V30 3551 O 338.297 0.530046 2.66276 0
M  V30 3552 C 336.753 3.01965 1.95818 0
M  V30 3553 C 336.361 4.31971 1.18764 0
M  V30 3554 C 338.105 3.28121 2.69327 0
M  V30 3555 C 336.012 5.54255 2.06289 0
M  V30 3556 H 334.942 0.636292 0.404535 0
M  V30 3557 H 337.593 1.80459 0.332681 0
M  V30 3558 H 335.975 2.86132 2.7376 0
M  V30 3559 H 337.149 4.5853 0.456849 0
M  V30 3560 H 335.464 4.12481 0.569946 0
M  V30 3561 H 338.061 4.16673 3.35094 0
M  V30 3562 H 338.404 2.45426 3.36261 0
M  V30 3563 H 338.937 3.44762 1.98454 0
M  V30 3564 H 335.676 6.39513 1.43885 0
M  V30 3565 H 335.196 5.31935 2.77138 0
M  V30 3566 H 336.875 5.90159 2.65182 0
M  V30 3567 N 337.007 -0.598083 1.45811 0
M  V30 3568 C 337.937 -1.71873 1.58057 0
M  V30 3569 C 338.918 -1.64533 0.431615 0
M  V30 3570 O 340.103 -1.82787 0.65595 0
M  V30 3571 C 337.233 -3.10495 1.55597 0
M  V30 3572 C 336.187 -3.32654 2.69305 0
M  V30 3573 C 335.513 -4.71646 2.51902 0
M  V30 3574 C 336.813 -3.21981 4.11248 0
M  V30 3575 H 338.507 -1.61881 2.51863 0
M  V30 3576 H 336.053 -0.777372 1.21214 0
M  V30 3577 H 338.006 -3.88699 1.6276 0
M  V30 3578 H 336.73 -3.2135 0.583255 0
M  V30 3579 H 335.389 -2.56843 2.61586 0
M  V30 3580 H 335.037 -4.79246 1.52748 0
M  V30 3581 H 334.737 -4.87426 3.2816 0
M  V30 3582 H 336.261 -5.52038 2.60933 0
M  V30 3583 H 337.675 -3.90049 4.20161 0
M  V30 3584 H 336.072 -3.49289 4.87972 0
M  V30 3585 H 337.142 -2.1928 4.32486 0
M  V30 3586 N 338.485 -1.33259 -0.841409 0
M  V30 3587 C 339.415 -1.25926 -1.96634 0
M  V30 3588 C 340.396 -0.140349 -1.6952 0
M  V30 3589 O 341.581 -0.329707 -1.91381 0
M  V30 3590 C 338.711 -0.99512 -3.32738 0
M  V30 3591 C 337.665 -2.0767 -3.74242 0
M  V30 3592 C 336.991 -1.66474 -5.08125 0
M  V30 3593 C 338.291 -3.49318 -3.88297 0
M  V30 3594 H 339.985 -2.20046 -2.03027 0
M  V30 3595 H 337.531 -1.05931 -0.975425 0
M  V30 3596 H 339.484 -0.930323 -4.11002 0
M  V30 3597 H 338.208 -0.0183004 -3.26595 0
M  V30 3598 H 336.867 -2.13187 -2.98239 0
M  V30 3599 H 336.515 -0.675012 -4.9845 0
M  V30 3600 H 336.215 -2.3885 -5.36865 0
M  V30 3601 H 337.739 -1.61455 -5.88867 0
M  V30 3602 H 339.153 -3.46316 -4.56879 0
M  V30 3603 H 337.55 -4.20158 -4.28471 0
M  V30 3604 H 338.62 -3.8801 -2.9082 0
M  V30 3605 N 339.963 1.05934 -1.16686 0
M  V30 3606 C 341.211 1.78447 -0.948744 0
M  V30 3607 C 341.532 1.87813 0.524523 0
M  V30 3608 O 340.802 1.38945 1.38098 0
M  V30 3609 H 339.382 0.660971 -0.348033 0
M  V30 3610 H 342.044 1.27947 -1.47022 0
M  V30 3611 H 341.14 2.80394 -1.37061 0
M  V30 3612 N 341.441 0.965919 1.2453 0
M  V30 3613 C 342.666 0.643971 1.97149 0
M  V30 3614 C 343.091 -0.779487 1.71189 0
M  V30 3615 O 342.449 -1.5288 0.974553 0
M  V30 3616 C 342.497 0.922557 3.48599 0
M  V30 3617 O 341.601 0.00707672 4.12399 0
M  V30 3618 H 340.942 0.243647 0.617683 0
M  V30 3619 H 343.472 1.29558 1.58353 0
M  V30 3620 H 343.482 0.853373 3.98976 0
M  V30 3621 H 342.157 1.95996 3.66822 0
M  V30 3622 H 340.734 0.12943 3.72675 0
M  V30 3623 N 342.919 -1.39368 0.735821 0
M  V30 3624 C 344.196 -1.94465 0.210395 0
M  V30 3625 C 344.576 -1.67254 -1.28799 0
M  V30 3626 O 343.924 -1.00123 -2.05396 0
M  V30 3627 C 344.134 -3.4472 0.544897 0
M  V30 3628 C 345.482 -4.21708 0.494689 0
M  V30 3629 O 346.506 -3.52922 0.482136 0
M  V30 3630 O 345.365 -5.44299 0.489947 0
M  V30 3631 H 342.459 -0.826096 0.0386666 0
M  V30 3632 H 345.005 -1.48863 0.814735 0
M  V30 3633 H 343.777 -3.57963 1.58045 0
M  V30 3634 H 343.4 -3.97502 -0.08837 0
M  V30 3635 N 344.397 -0.483516 -1.5 0
M  V30 3636 C 345.627 0.0643896 -2.065 0
M  V30 3637 C 346.035 1.32949 -1.34615 0
M  V30 3638 O 345.378 1.79003 -0.412756 0
M  V30 3639 C 345.44 0.405983 -3.572 0
M  V30 3640 C 345.104 -0.758875 -4.50655 0
M  V30 3641 C 346.101 -1.64445 -4.93208 0
M  V30 3642 C 343.786 -0.952725 -4.93182 0
M  V30 3643 C 345.78 -2.70818 -5.77006 0
M  V30 3644 C 343.467 -2.01966 -5.76761 0
M  V30 3645 C 344.465 -2.89574 -6.18576 0
M  V30 3646 O 344.153 -3.94429 -7.00486 0
M  V30 3647 H 343.885 -0.00934786 -0.675935 0
M  V30 3648 H 346.439 -0.674959 -1.93993 0
M  V30 3649 H 344.669 1.19869 -3.67652 0
M  V30 3650 H 346.358 0.890433 -3.96013 0
M  V30 3651 H 347.124 -1.50643 -4.61012 0
M  V30 3652 H 343.003 -0.280247 -4.60147 0
M  V30 3653 H 346.547 -3.3923 -6.09565 0
M  V30 3654 H 342.444 -2.1577 -6.0837 0
M  V30 3655 H 343.212 -3.91568 -7.1876 0
M  V30 3656 N 345.875 1.56104 -0.216619 0
M  V30 3657 C 347.115 2.00074 0.418322 0
M  V30 3658 C 347.479 1.10098 1.57297 0
M  V30 3659 O 348.68 1.43393 2.27359 0
M  V30 3660 C 346.951 3.47231 0.846477 0
M  V30 3661 S 348.51 4.13223 1.47622 0
M  V30 3662 H 345.328 0.698457 0.132962 0
M  V30 3663 H 347.93 1.92784 -0.324748 0
M  V30 3664 H 346.634 4.104 -0.0036319 0
M  V30 3665 H 346.165 3.58384 1.62248 0
M  V30 3666 H 348.18 4.12005 2.76526 0
M  V30 3667 N 347.353 -0.0568162 1.57498 0
M  V30 3668 C 348.263 -1.08346 2.08083 0
M  V30 3669 C 349.279 -1.41439 1.01346 0
M  V30 3670 O 350.455 -1.51316 1.32912 0
M  V30 3671 C 347.52 -2.37352 2.52715 0
M  V30 3672 C 346.581 -2.11093 3.73816 0
M  V30 3673 C 345.814 -3.33949 4.1631 0
M  V30 3674 O 346.037 -4.43622 3.58547 0
M  V30 3675 O 344.971 -3.21279 5.08983 0
M  V30 3676 H 348.797 -0.683667 2.95905 0
M  V30 3677 H 346.382 -0.271965 1.46904 0
M  V30 3678 H 348.264 -3.13246 2.81877 0
M  V30 3679 H 346.939 -2.76681 1.68016 0
M  V30 3680 H 345.846 -1.32856 3.49714 0
M  V30 3681 H 347.179 -1.76637 4.59413 0
M  V30 3682 N 348.832 -1.54138 -0.328536 0
M  V30 3683 C 350.057 -1.76378 -1.09112 0
M  V30 3684 C 350.482 -0.508596 -1.81094 0
M  V30 3685 O 349.84 0.539598 -1.73084 0
M  V30 3686 C 349.888 -2.95358 -2.06872 0
M  V30 3687 O 348.992 -2.66556 -3.14677 0
M  V30 3688 H 348.333 -0.584614 -0.314838 0
M  V30 3689 H 350.863 -2.01146 -0.374348 0
M  V30 3690 H 350.873 -3.22566 -2.4983 0
M  V30 3691 H 349.548 -3.86385 -1.5388 0
M  V30 3692 H 348.125 -2.50282 -2.7643 0
M  V30 3693 N 350.31 0.590341 -1.46126 0
M  V30 3694 C 351.559 1.34499 -1.50309 0
M  V30 3695 C 351.872 1.94977 -0.156021 0
M  V30 3696 O 353.078 2.71395 -0.0756037 0
M  V30 3697 C 351.534 2.43723 -2.64815 0
M  V30 3698 C 351.142 1.89582 -4.0591 0
M  V30 3699 C 352.886 3.20579 -2.78262 0
M  V30 3700 C 350.793 2.9639 -5.11769 0
M  V30 3701 H 349.723 0.505593 -0.559368 0
M  V30 3702 H 352.374 0.630848 -1.72315 0
M  V30 3703 H 350.756 3.17902 -2.36124 0
M  V30 3704 H 351.93 1.21997 -4.44357 0
M  V30 3705 H 350.245 1.25418 -3.97063 0
M  V30 3706 H 352.842 4.00276 -3.54519 0
M  V30 3707 H 353.185 3.72684 -1.85505 0
M  V30 3708 H 353.718 2.53505 -3.06562 0
M  V30 3709 H 350.457 2.49181 -6.06291 0
M  V30 3710 H 349.977 3.62487 -4.77873 0
M  V30 3711 H 351.656 3.60474 -5.37278 0
M  V30 3712 N 351.788 1.33704 0.83433 0
M  V30 3713 C 353.204 1.13137 1.12571 0
M  V30 3714 C 353.404 -0.0747261 2.01361 0
M  V30 3715 O 352.46 -0.753647 2.4099 0
M  V30 3716 C 353.773 2.42105 1.78342 0
M  V30 3717 C 355.321 2.48054 1.90888 0
M  V30 3718 C 355.796 3.76995 2.60075 0
M  V30 3719 N 357.287 3.78092 2.67584 0
M  V30 3720 C 358.022 4.74574 3.21818 0
M  V30 3721 N 357.518 5.81434 3.76705 0
M  V30 3722 N 359.311 4.62044 3.20112 0
M  V30 3723 H 351.462 2.11 0.243489 0
M  V30 3724 H 353.725 0.932532 0.17055 0
M  V30 3725 H 353.431 3.30391 1.20561 0
M  V30 3726 H 353.305 2.54594 2.7832 0
M  V30 3727 H 355.692 1.60215 2.47821 0
M  V30 3728 H 355.773 2.39502 0.898459 0
M  V30 3729 H 355.417 4.65219 2.03799 0
M  V30 3730 H 355.347 3.82825 3.61597 0
M  V30 3731 H 357.838 3.00865 2.28667 0
M  V30 3732 H 358.151 6.51084 4.16305 0
M  V30 3733 H 356.496 5.85163 3.7498 0
M  V30 3734 H 359.687 3.77716 2.76493 0
M  V30 3735 H 359.86 5.37406 3.62076 0
M  V30 3736 N 353.266 -1.05314 1.17247 0
M  V30 3737 C 354.514 -1.77941 0.958194 0
M  V30 3738 C 354.835 -1.88089 -0.514556 0
M  V30 3739 O 354.105 -1.39676 -1.37359 0
M  V30 3740 H 352.685 -0.659116 0.351533 0
M  V30 3741 H 355.347 -1.27166 1.47699 0
M  V30 3742 H 354.443 -2.79663 1.38546 0
M  V30 3743 N 354.744 -0.972509 -1.24016 0
M  V30 3744 C 355.993 -0.632603 -1.91523 0
M  V30 3745 C 356.306 0.836641 -1.76804 0
M  V30 3746 O 357.512 1.28728 -2.39043 0
M  V30 3747 C 355.968 -1.08082 -3.43287 0
M  V30 3748 C 355.576 -2.57386 -3.66683 0
M  V30 3749 C 357.32 -0.814288 -4.16617 0
M  V30 3750 C 355.227 -2.95915 -5.12043 0
M  V30 3751 H 354.157 -0.232898 -0.717129 0
M  V30 3752 H 356.808 -1.17936 -1.40582 0
M  V30 3753 H 355.19 -0.462339 -3.93292 0
M  V30 3754 H 356.364 -3.24405 -3.27258 0
M  V30 3755 H 354.679 -2.81701 -3.06649 0
M  V30 3756 H 357.276 -1.0781 -5.23718 0
M  V30 3757 H 357.619 0.24955 -4.15551 0
M  V30 3758 H 358.152 -1.39397 -3.72577 0
M  V30 3759 H 354.891 -4.0139 -5.18234 0
M  V30 3760 H 354.411 -2.33584 -5.52448 0
M  V30 3761 H 356.09 -2.86086 -5.80314 0
M  V30 3762 N 356.222 1.38976 -0.743202 0
M  V30 3763 C 357.47 1.99948 -0.29417 0
M  V30 3764 C 357.791 1.59279 1.12495 0
M  V30 3765 O 357.061 0.844808 1.76748 0
M  V30 3766 H 355.641 0.739473 -0.105774 0
M  V30 3767 H 358.303 1.699 -0.954986 0
M  V30 3768 H 357.399 3.10142 -0.349056 0
M  V30 3769 N 357.7 0.491464 1.49741 0
M  V30 3770 C 359.111 0.0413169 1.86654 0
M  V30 3771 C 359.462 -1.36985 1.40462 0
M  V30 3772 O 358.587 -2.01917 0.778354 0
M  V30 3773 C 359.182 0.0682023 3.38731 0
M  V30 3774 C 357.741 -0.32656 3.74981 0
M  V30 3775 C 356.888 0.444888 2.73708 0
M  V30 3776 H 359.839 0.704733 1.42194 0
M  V30 3777 H 359.86 -0.729322 3.73445 0
M  V30 3778 H 359.372 1.09539 3.72321 0
M  V30 3779 H 357.473 -1.35734 3.46997 0
M  V30 3780 H 357.586 -0.013741 4.79098 0
M  V30 3781 H 355.95 -0.104062 2.54487 0
M  V30 3782 H 356.733 1.47197 3.10142 0
M  V30 3783 N 359.178 -1.55987 0.224894 0
M  V30 3784 C 360.125 -2.20436 -0.68385 0
M  V30 3785 C 361.095 -1.16102 -1.18783 0
M  V30 3786 O 362.28 -1.4447 -1.24632 0
M  V30 3787 C 359.42 -2.89076 -1.88491 0
M  V30 3788 C 358.533 -4.08012 -1.41951 0
M  V30 3789 C 357.668 -4.64426 -2.5784 0
M  V30 3790 C 356.707 -5.75656 -2.08053 0
M  V30 3791 N 355.844 -6.26347 -3.17227 0
M  V30 3792 H 360.684 -2.97727 -0.12754 0
M  V30 3793 H 358.221 -1.47011 -0.0511978 0
M  V30 3794 H 360.179 -3.27059 -2.59014 0
M  V30 3795 H 358.809 -2.14298 -2.41405 0
M  V30 3796 H 357.861 -3.75492 -0.609095 0
M  V30 3797 H 359.173 -4.88375 -1.01447 0
M  V30 3798 H 358.327 -5.04869 -3.3644 0
M  V30 3799 H 357.066 -3.83233 -3.01635 0
M  V30 3800 H 356.071 -5.34712 -1.27916 0
M  V30 3801 H 357.296 -6.58686 -1.65255 0
M  V30 3802 H 355.242 -5.48067 -3.60497 0
M  V30 3803 H 355.159 -7.01843 -2.80986 0
M  V30 3804 H 356.427 -6.71447 -3.95953 0
M  V30 3805 N 360.656 0.0484629 -1.57525 0
M  V30 3806 C 362.072 0.40375 -1.54409 0
M  V30 3807 C 362.272 1.77786 -0.948384 0
M  V30 3808 O 361.328 2.46189 -0.560983 0
M  V30 3809 C 362.641 0.323394 -2.98956 0
M  V30 3810 C 364.189 0.401892 -3.10409 0
M  V30 3811 C 364.664 0.351195 -4.56652 0
M  V30 3812 N 366.155 0.410576 -4.61377 0
M  V30 3813 C 366.89 0.393933 -5.72045 0
M  V30 3814 N 366.386 0.330724 -6.9201 0
M  V30 3815 N 368.179 0.442227 -5.60358 0
M  V30 3816 H 360.33 -0.851016 -1.94606 0
M  V30 3817 H 362.593 -0.321721 -0.89174 0
M  V30 3818 H 362.299 -0.62011 -3.4619 0
M  V30 3819 H 362.173 1.12463 -3.60044 0
M  V30 3820 H 364.56 1.33582 -2.63134 0
M  V30 3821 H 364.641 -0.428342 -2.52188 0
M  V30 3822 H 364.285 -0.578987 -5.04589 0
M  V30 3823 H 364.215 1.19928 -5.12762 0
M  V30 3824 H 366.706 0.462729 -3.75056 0
M  V30 3825 H 367.019 0.322592 -7.72126 0
M  V30 3826 H 365.364 0.29706 -6.94365 0
M  V30 3827 H 368.555 0.489464 -4.65534 0
M  V30 3828 H 368.728 0.425788 -6.466 0
M  V30 3829 N 362.134 1.5431 0.320358 0
M  V30 3830 C 363.097 1.83195 1.3774 0
M  V30 3831 C 364.097 0.703906 1.44575 0
M  V30 3832 O 365.287 0.972214 1.44546 0
M  V30 3833 C 362.419 1.99487 2.76438 0
M  V30 3834 H 363.612 2.77642 1.1338 0
M  V30 3835 H 361.165 1.46076 0.556012 0
M  V30 3836 H 361.9 1.07262 3.06048 0
M  V30 3837 H 361.685 2.81575 2.7287 0
M  V30 3838 H 363.175 2.23271 3.52902 0
M  V30 3839 N 363.613 -0.582584 1.46437 0
M  V30 3840 C 364.859 -1.34278 1.51978 0
M  V30 3841 C 365.192 -1.93446 0.170973 0
M  V30 3842 O 364.467 -1.76481 -0.817608 0
M  V30 3843 C 364.75 -2.47203 2.61845 0
M  V30 3844 C 364.603 -1.93069 4.06257 0
M  V30 3845 C 365.922 -3.49247 2.67795 0
M  V30 3846 H 363.041 -0.486876 0.553282 0
M  V30 3847 H 365.683 -0.654437 1.78374 0
M  V30 3848 H 363.833 -3.0592 2.39469 0
M  V30 3849 H 365.505 -1.38808 4.3992 0
M  V30 3850 H 363.748 -1.23898 4.1573 0
M  V30 3851 H 364.419 -2.74586 4.7886 0
M  V30 3852 H 366.895 -3.00411 2.8791 0
M  V30 3853 H 365.771 -4.25719 3.46489 0
M  V30 3854 H 366.032 -4.06482 1.73852 0
M  V30 3855 N 365.091 -1.34144 -0.827227 0
M  V30 3856 C 366.368 -1.16844 -1.56865 0
M  V30 3857 C 366.748 0.260654 -2.09485 0
M  V30 3858 O 366.096 1.26138 -1.9053 0
M  V30 3859 C 366.306 -2.21939 -2.6934 0
M  V30 3860 C 367.654 -2.56695 -3.3822 0
M  V30 3861 O 368.678 -2.20695 -2.79593 0
M  V30 3862 O 367.537 -3.18518 -4.44082 0
M  V30 3863 H 364.631 -0.452669 -0.692112 0
M  V30 3864 H 367.177 -1.45763 -0.868973 0
M  V30 3865 H 365.949 -3.17882 -2.28182 0
M  V30 3866 H 365.572 -1.94172 -3.46962 0
M  V30 3867 N 366.569 1.04691 -1.17803 0
M  V30 3868 C 367.499 2.14494 -0.92275 0
M  V30 3869 C 368.48 1.69546 0.137179 0
M  V30 3870 O 369.665 1.94195 -0.0141108 0
M  V30 3871 C 366.795 3.44491 -0.440803 0
M  V30 3872 C 365.749 4.03031 -1.4405 0
M  V30 3873 C 365.075 5.28432 -0.81631 0
M  V30 3874 C 366.375 4.39932 -2.81527 0
M  V30 3875 H 368.069 2.36107 -1.84103 0
M  V30 3876 H 365.615 1.1347 -0.886599 0
M  V30 3877 H 367.568 4.2066 -0.249602 0
M  V30 3878 H 366.292 3.22546 0.513025 0
M  V30 3879 H 364.951 3.28937 -1.61853 0
M  V30 3880 H 364.599 5.02792 0.144511 0
M  V30 3881 H 364.299 5.68559 -1.48371 0
M  V30 3882 H 365.823 6.07284 -0.635496 0
M  V30 3883 H 367.237 5.07113 -2.67412 0
M  V30 3884 H 365.634 4.9109 -3.44892 0
M  V30 3885 H 366.704 3.50045 -3.35554 0
M  V30 3886 N 368.047 0.979072 1.23499 0
M  V30 3887 C 369.296 0.642751 1.91185 0
M  V30 3888 C 369.609 -0.827253 1.77245 0
M  V30 3889 O 370.815 -1.27458 2.39722 0
M  V30 3890 C 369.271 1.09901 3.42709 0
M  V30 3891 C 368.879 2.59327 3.65313 0
M  V30 3892 C 370.623 0.836371 4.16179 0
M  V30 3893 C 368.53 2.98627 5.10467 0
M  V30 3894 H 367.46 0.236698 0.715884 0
M  V30 3895 H 370.111 1.1868 1.39955 0
M  V30 3896 H 368.493 0.48319 3.93041 0
M  V30 3897 H 369.667 3.26136 3.25533 0
M  V30 3898 H 367.982 2.83323 3.05151 0
M  V30 3899 H 370.579 1.10586 5.23139 0
M  V30 3900 H 370.922 -0.227509 4.15678 0
M  V30 3901 H 371.455 1.41371 3.71832 0
M  V30 3902 H 368.194 4.04133 5.16098 0
M  V30 3903 H 367.714 2.3651 5.51201 0
M  V30 3904 H 369.393 2.89159 5.78788 0
M  V30 3905 N 369.525 -1.3858 0.750561 0
M  V30 3906 C 370.457 -2.29057 0.0810714 0
M  V30 3907 C 371.47 -1.47596 -0.686973 0
M  V30 3908 O 372.659 -1.70495 -0.528563 0
M  V30 3909 C 369.759 -3.26475 -0.909247 0
M  V30 3910 C 368.932 -4.36945 -0.199478 0
M  V30 3911 C 367.991 -5.14572 -1.10011 0
M  V30 3912 O 367.017 -5.66321 -0.57177 0
M  V30 3913 N 368.219 -5.27262 -2.42849 0
M  V30 3914 H 370.984 -2.87153 0.858087 0
M  V30 3915 H 368.545 -1.50328 0.60109 0
M  V30 3916 H 370.537 -3.75285 -1.51471 0
M  V30 3917 H 369.107 -2.69298 -1.58736 0
M  V30 3918 H 368.327 -3.8981 0.586664 0
M  V30 3919 H 369.615 -5.07963 0.291783 0
M  V30 3920 H 369.013 -4.86763 -2.88233 0
M  V30 3921 H 367.57 -5.79456 -2.98453 0
M  V30 3922 N 371.003 -0.499398 -1.49478 0
M  V30 3923 C 371.95 0.279881 -2.29097 0
M  V30 3924 C 372.92 0.961805 -1.3542 0
M  V30 3925 O 374.105 0.968777 -1.64376 0
M  V30 3926 C 371.245 1.33932 -3.18051 0
M  V30 3927 C 370.358 0.669333 -4.26783 0
M  V30 3928 C 369.493 1.70907 -5.02955 0
M  V30 3929 C 368.532 1.02087 -6.03527 0
M  V30 3930 N 367.669 2.00474 -6.7287 0
M  V30 3931 H 372.509 -0.405317 -2.95231 0
M  V30 3932 H 370.046 -0.211726 -1.45568 0
M  V30 3933 H 372.004 1.96553 -3.67998 0
M  V30 3934 H 370.634 1.9933 -2.53904 0
M  V30 3935 H 369.686 -0.0701234 -3.80335 0
M  V30 3936 H 370.998 0.127503 -4.98637 0
M  V30 3937 H 370.152 2.41037 -5.56764 0
M  V30 3938 H 368.891 2.28476 -4.30871 0
M  V30 3939 H 367.896 0.305338 -5.48951 0
M  V30 3940 H 369.121 0.451708 -6.77596 0
M  V30 3941 H 367.067 2.57007 -6.03559 0
M  V30 3942 H 366.984 1.51353 -7.40694 0
M  V30 3943 H 368.252 2.69897 -7.31284 0
M  V30 3944 N 372.481 1.55866 -0.233164 0
M  V30 3945 C 373.431 2.17442 0.685774 0
M  V30 3946 C 374.415 1.12617 1.14918 0
M  V30 3947 O 375.607 1.3857 1.10124 0
M  V30 3948 C 372.736 2.86685 1.88856 0
M  V30 3949 C 371.822 3.98749 1.4443 0
M  V30 3950 N 372.213 5.00744 0.713364 0
M  V30 3951 C 370.511 4.11052 1.73068 0
M  V30 3952 C 371.212 5.79673 0.485205 0
M  V30 3953 N 370.188 5.33454 1.04536 0
M  V30 3954 H 373.99 2.93659 0.119022 0
M  V30 3955 H 371.504 1.62362 -0.0348995 0
M  V30 3956 H 373.501 3.29218 2.55776 0
M  V30 3957 H 372.161 2.11967 2.45967 0
M  V30 3958 H 373.172 5.16613 0.364861 0
M  V30 3959 H 369.849 3.47495 2.31416 0
M  V30 3960 H 371.239 6.71829 -0.097365 0
M  V30 3961 N 373.959 -0.0401083 1.57549 0
M  V30 3962 C 374.906 -1.04413 2.05831 0
M  V30 3963 C 375.876 -1.36585 0.945184 0
M  V30 3964 O 377.061 -1.47112 1.21502 0
M  V30 3965 C 374.201 -2.34336 2.53339 0
M  V30 3966 C 373.314 -2.08419 3.78398 0
M  V30 3967 C 372.449 -3.32133 4.14561 0
M  V30 3968 C 371.488 -3.01721 5.3257 0
M  V30 3969 N 370.625 -4.17855 5.64218 0
M  V30 3970 H 375.465 -0.625442 2.91363 0
M  V30 3971 H 373.002 -0.297218 1.44066 0
M  V30 3972 H 374.96 -3.10234 2.78946 0
M  V30 3973 H 373.59 -2.73948 1.7074 0
M  V30 3974 H 372.642 -1.23069 3.59942 0
M  V30 3975 H 373.954 -1.81978 4.64419 0
M  V30 3976 H 373.108 -4.16406 4.41238 0
M  V30 3977 H 371.847 -3.61678 3.2717 0
M  V30 3978 H 370.852 -2.15849 5.05657 0
M  V30 3979 H 372.077 -2.73466 6.21605 0
M  V30 3980 H 370.023 -4.47372 4.79786 0
M  V30 3981 H 369.94 -3.94798 6.44725 0
M  V30 3982 H 371.208 -5.03033 5.95465 0
M  V30 3983 N 375.437 -1.54477 -0.31217 0
M  V30 3984 C 376.662 -1.77526 -1.07235 0
M  V30 3985 C 377.087 -0.527775 -1.80544 0
M  V30 3986 O 376.445 0.52121 -1.73646 0
M  V30 3987 C 376.493 -2.97535 -2.03728 0
M  V30 3988 O 375.597 -2.69878 -3.11833 0
M  V30 3989 H 374.938 -0.58792 -0.30862 0
M  V30 3990 H 377.468 -2.01532 -0.352993 0
M  V30 3991 H 377.478 -3.25198 -2.46395 0
M  V30 3992 H 376.153 -3.87996 -1.49774 0
M  V30 3993 H 374.73 -2.53199 -2.7376 0
M  V30 3994 N 376.915 0.57481 -1.46744 0
M  V30 3995 C 378.164 1.32898 -1.51727 0
M  V30 3996 C 378.477 1.948 -0.176692 0
M  V30 3997 O 379.683 2.71299 -0.104385 0
M  V30 3998 C 378.139 2.40901 -2.67385 0
M  V30 3999 C 377.747 1.85266 -4.07898 0
M  V30 4000 C 379.491 3.17609 -2.81646 0
M  V30 4001 C 377.398 2.90945 -5.14883 0
M  V30 4002 H 376.328 0.499631 -0.564699 0
M  V30 4003 H 378.979 0.612536 -1.72975 0
M  V30 4004 H 377.361 3.15379 -2.39483 0
M  V30 4005 H 378.535 1.17278 -4.45626 0
M  V30 4006 H 376.85 1.21199 -3.98371 0
M  V30 4007 H 379.447 3.96493 -3.58744 0
M  V30 4008 H 379.79 3.70696 -1.89448 0
M  V30 4009 H 380.323 2.50239 -3.09233 0
M  V30 4010 H 377.062 2.42736 -6.089 0
M  V30 4011 H 376.582 3.57398 -4.81691 0
M  V30 4012 H 378.261 3.54755 -5.41071 0
M  V30 4013 N 378.394 1.34581 0.820102 0
M  V30 4014 C 379.304 1.28471 1.96297 0
M  V30 4015 C 380.32 0.191902 1.72939 0
M  V30 4016 O 381.496 0.418879 1.96996 0
M  V30 4017 C 378.561 1.04281 3.30645 0
M  V30 4018 C 377.622 2.22745 3.66992 0
M  V30 4019 C 376.855 1.997 4.9493 0
M  V30 4020 O 377.078 0.956656 5.6232 0
M  V30 4021 O 376.012 2.86723 5.2922 0
M  V30 4022 H 379.838 2.24624 2.04396 0
M  V30 4023 H 377.423 1.14816 0.955913 0
M  V30 4024 H 379.305 0.925841 4.11104 0
M  V30 4025 H 377.98 0.111697 3.23507 0
M  V30 4026 H 376.887 2.40003 2.86966 0
M  V30 4027 H 378.22 3.14257 3.78819 0
M  V30 4028 N 379.872 -1.04064 1.18357 0
M  V30 4029 C 380.782 -2.15569 0.925596 0
M  V30 4030 C 381.798 -1.7365 -0.110295 0
M  V30 4031 O 382.974 -2.01273 0.0716218 0
M  V30 4032 C 380.039 -3.43704 0.454836 0
M  V30 4033 C 379.1 -4.00004 1.55869 0
M  V30 4034 C 378.333 -5.22023 1.1103 0
M  V30 4035 O 378.556 -5.70392 -0.0309756 0
M  V30 4036 O 377.49 -5.70856 1.90805 0
M  V30 4037 H 381.316 -2.40187 1.8586 0
M  V30 4038 H 378.901 -1.1402 0.965394 0
M  V30 4039 H 380.783 -4.20923 0.200382 0
M  V30 4040 H 379.458 -3.20559 -0.449876 0
M  V30 4041 H 378.365 -3.24172 1.86716 0
M  V30 4042 H 379.698 -4.2749 2.43953 0
M  V30 4043 N 381.35 -0.985608 -1.22978 0
M  V30 4044 C 382.599 -0.652881 -1.90841 0
M  V30 4045 C 382.912 0.817842 -1.77681 0
M  V30 4046 O 384.118 1.26185 -2.40395 0
M  V30 4047 C 382.574 -1.11717 -3.42122 0
M  V30 4048 C 382.182 -2.6126 -3.63933 0
M  V30 4049 C 383.926 -0.85843 -4.1573 0
M  V30 4050 C 381.833 -3.0133 -5.08876 0
M  V30 4051 H 380.763 -0.240491 -0.714619 0
M  V30 4052 H 383.414 -1.1942 -1.39324 0
M  V30 4053 H 381.796 -0.504027 -3.92779 0
M  V30 4054 H 382.97 -3.27858 -3.23799 0
M  V30 4055 H 381.285 -2.84937 -3.03644 0
M  V30 4056 H 383.882 -1.13359 -5.22546 0
M  V30 4057 H 384.225 0.205461 -4.15793 0
M  V30 4058 H 384.758 -1.43341 -3.71077 0
M  V30 4059 H 381.497 -4.06864 -5.13947 0
M  V30 4060 H 381.017 -2.3943 -5.49939 0
M  V30 4061 H 382.696 -2.92224 -5.77247 0
M  V30 4062 N 382.828 1.3818 -0.7579 0
M  V30 4063 C 384.074 2.00316 -0.316453 0
M  V30 4064 C 384.407 1.60026 1.10025 0
M  V30 4065 O 383.682 0.839835 1.75434 0
M  V30 4066 C 383.965 3.57349 -0.444245 0
M  V30 4067 C 383.818 4.07591 -1.90236 0
M  V30 4068 C 385.137 4.3981 0.1598 0
M  V30 4069 H 382.256 0.727741 -0.116459 0
M  V30 4070 H 384.898 1.6406 -0.958352 0
M  V30 4071 H 383.048 3.88365 0.102233 0
M  V30 4072 H 384.72 3.87199 -2.50748 0
M  V30 4073 H 382.963 3.60297 -2.41595 0
M  V30 4074 H 383.634 5.16677 -1.94291 0
M  V30 4075 H 386.11 4.14971 -0.306314 0
M  V30 4076 H 384.986 5.48885 0.0401675 0
M  V30 4077 H 385.247 4.24102 1.24859 0
M  V30 4078 N 384.306 0.507319 1.49211 0
M  V30 4079 C 385.722 0.163682 1.58758 0
M  V30 4080 C 385.922 -1.33208 1.51188 0
M  V30 4081 O 384.978 -2.10855 1.38911 0
M  V30 4082 C 386.291 0.746095 2.91297 0
M  V30 4083 C 387.839 0.712773 3.04776 0
M  V30 4084 C 388.314 1.27336 4.39943 0
M  V30 4085 N 389.805 1.23433 4.46451 0
M  V30 4086 C 390.54 1.63821 5.495 0
M  V30 4087 N 390.036 2.11832 6.5962 0
M  V30 4088 N 391.829 1.55198 5.4025 0
M  V30 4089 H 383.98 1.47972 1.52375 0
M  V30 4090 H 386.243 0.614147 0.722168 0
M  V30 4091 H 385.949 1.79534 3.02424 0
M  V30 4092 H 385.823 0.210137 3.76614 0
M  V30 4093 H 388.21 -0.327656 2.93275 0
M  V30 4094 H 388.291 1.28595 2.21127 0
M  V30 4095 H 387.935 2.3126 4.52196 0
M  V30 4096 H 387.865 0.676066 5.22242 0
M  V30 4097 H 390.356 0.882627 3.67448 0
M  V30 4098 H 390.669 2.40703 7.34358 0
M  V30 4099 H 389.014 2.1581 6.60644 0
M  V30 4100 H 392.205 1.17505 4.53112 0
M  V30 4101 H 392.378 1.86997 6.20432 0
M  V30 4102 N 385.784 -1.5574 0.241426 0
M  V30 4103 C 387.2 -1.59196 -0.113548 0
M  V30 4104 C 387.4 -1.25852 -1.57364 0
M  V30 4105 O 386.456 -1.00322 -2.31715 0
M  V30 4106 C 387.769 -2.99814 0.230695 0
M  V30 4107 C 389.317 -3.12513 0.174547 0
M  V30 4108 C 389.792 -4.55342 0.492744 0
M  V30 4109 N 391.283 -4.61076 0.443043 0
M  V30 4110 C 392.018 -5.6956 0.662484 0
M  V30 4111 N 391.514 -6.86328 0.944761 0
M  V30 4112 N 393.307 -5.58957 0.593564 0
M  V30 4113 H 385.458 -1.75685 1.19368 0
M  V30 4114 H 387.721 -0.81756 0.479896 0
M  V30 4115 H 387.427 -3.28932 1.24485 0
M  V30 4116 H 387.301 -3.74568 -0.444833 0
M  V30 4117 H 389.688 -2.83179 -0.830277 0
M  V30 4118 H 389.769 -2.40045 0.883845 0
M  V30 4119 H 389.413 -4.85396 1.4951 0
M  V30 4120 H 389.343 -5.26062 -0.23797 0
M  V30 4121 H 391.834 -3.77179 0.233374 0
M  V30 4122 H 392.147 -7.64935 1.09977 0
M  V30 4123 H 390.492 -6.88025 0.982175 0
M  V30 4124 H 393.683 -4.66611 0.373123 0
M  V30 4125 H 393.856 -6.43433 0.767981 0
M  V30 4126 N 387.262 0.0317525 -1.57568 0
M  V30 4127 C 388.192 1.03274 -2.0942 0
M  V30 4128 C 389.173 1.3788 -0.996143 0
M  V30 4129 O 390.358 1.46811 -1.27122 0
M  V30 4130 C 387.488 2.33448 -2.57137 0
M  V30 4131 C 386.442 2.13091 -3.71182 0
M  V30 4132 C 385.768 3.49001 -4.05095 0
M  V30 4133 C 387.068 1.51928 -4.99715 0
M  V30 4134 H 388.762 0.60112 -2.93303 0
M  V30 4135 H 386.308 0.287705 -1.41097 0
M  V30 4136 H 388.261 3.03802 -2.92032 0
M  V30 4137 H 386.985 2.78665 -1.70333 0
M  V30 4138 H 385.644 1.45171 -3.36632 0
M  V30 4139 H 385.292 3.91862 -3.15362 0
M  V30 4140 H 384.992 3.36207 -4.81911 0
M  V30 4141 H 386.516 4.20721 -4.42522 0
M  V30 4142 H 387.93 2.12196 -5.32584 0
M  V30 4143 H 386.327 1.49716 -5.81124 0
M  V30 4144 H 387.397 0.484811 -4.8247 0
M  V30 4145 N 388.74 1.54641 0.303973 0
M  V30 4146 C 390.017 1.64455 1.05896 0
M  V30 4147 C 390.397 0.490923 2.05312 0
M  V30 4148 O 389.745 -0.512685 2.22674 0
M  V30 4149 C 389.955 3.02331 1.74347 0
M  V30 4150 C 391.303 3.59045 2.26653 0
M  V30 4151 O 392.327 3.04764 1.84384 0
M  V30 4152 O 391.186 4.54081 3.04093 0
M  V30 4153 H 388.28 0.666729 0.489287 0
M  V30 4154 H 390.826 1.66986 0.302298 0
M  V30 4155 H 389.598 3.77734 1.02142 0
M  V30 4156 H 389.221 3.03565 2.56777 0
M  V30 4157 N 390.218 -0.567019 1.47046 0
M  V30 4158 C 391.629 -1.14916 1.47143 0
M  V30 4159 C 391.98 -1.94954 0.220767 0
M  V30 4160 O 391.105 -2.05602 -0.67505 0
M  V30 4161 C 391.7 -2.09069 2.666 0
M  V30 4162 C 390.259 -2.62575 2.69687 0
M  V30 4163 C 389.406 -1.38755 2.40088 0
M  V30 4164 H 392.357 -0.354126 1.54699 0
M  V30 4165 H 392.378 -2.92789 2.43011 0
M  V30 4166 H 391.89 -1.50789 3.57609 0
M  V30 4167 H 389.991 -3.24681 1.82792 0
M  V30 4168 H 390.104 -3.04239 3.70102 0
M  V30 4169 H 388.468 -1.69098 1.90468 0
M  V30 4170 H 389.251 -0.822822 3.33293 0
M  V30 4171 N 391.696 -1.35014 -0.812953 0
M  V30 4172 C 392.644 -1.27435 -1.94585 0
M  V30 4173 C 393.638 -0.170494 -1.6854 0
M  V30 4174 O 394.844 -0.336085 -1.76835 0
M  V30 4175 H 391.219 -0.396144 -0.639198 0
M  V30 4176 H 393.19 -2.23158 -1.98098 0
M  V30 4177 C 391.939 -1.05677 -3.31252 0
M  V30 4178 H 391.262 -1.89853 -3.51846 0
M  V30 4179 H 392.702 -1.04413 -4.10943 0
M  V30 4180 C 391.161 0.239615 -3.36047 0
M  V30 4181 O 391.691 1.23759 -3.8216 0
M  V30 4182 N 389.897 0.276186 -2.89285 0
M  V30 4183 H 389.444 -0.53653 -2.51951 0
M  V30 4184 H 389.402 1.14332 -2.92875 0
M  V30 4185 N 393.175 1.03435 -1.18907 0
M  V30 4186 C 394.122 2.11591 -0.921837 0
M  V30 4187 C 395.092 1.65499 0.141226 0
M  V30 4188 O 396.277 1.908 0.000242829 0
M  V30 4189 C 393.417 3.42012 -0.460616 0
M  V30 4190 C 392.53 4.01682 -1.58982 0
M  V30 4191 C 391.665 5.20091 -1.08069 0
M  V30 4192 C 390.704 5.71805 -2.18416 0
M  V30 4193 N 389.841 6.81494 -1.68849 0
M  V30 4194 H 394.681 2.33787 -1.8479 0
M  V30 4195 H 392.218 1.1467 -0.921373 0
M  V30 4196 H 394.176 4.16834 -0.174642 0
M  V30 4197 H 392.806 3.19944 0.428467 0
M  V30 4198 H 391.858 3.24127 -1.99113 0
M  V30 4199 H 393.17 4.36084 -2.4214 0
M  V30 4200 H 392.324 6.02051 -0.749615 0
M  V30 4201 H 391.063 4.87209 -0.218771 0
M  V30 4202 H 390.068 4.88461 -2.5236 0
M  V30 4203 H 391.293 6.06728 -3.05054 0
M  V30 4204 H 389.239 6.50475 -0.849572 0
M  V30 4205 H 389.156 7.14994 -2.45601 0
M  V30 4206 H 390.424 7.67063 -1.38689 0
M  V30 4207 N 394.653 0.992116 1.22453 0
M  V30 4208 C 395.883 0.684949 1.94915 0
M  V30 4209 C 396.291 -0.754292 1.73514 0
M  V30 4210 O 395.634 -1.52056 1.03076 0
M  V30 4211 C 395.696 0.910054 3.47791 0
M  V30 4212 C 395.36 2.33363 3.92926 0
M  V30 4213 C 396.357 3.31308 4.00663 0
M  V30 4214 C 394.042 2.66785 4.25595 0
M  V30 4215 C 396.036 4.6075 4.40441 0
M  V30 4216 C 393.723 3.96446 4.65053 0
M  V30 4217 C 394.721 4.9324 4.72444 0
M  V30 4218 O 394.409 6.20584 5.1101 0
M  V30 4219 H 394.141 0.25258 0.62704 0
M  V30 4220 H 396.695 1.32939 1.56577 0
M  V30 4221 H 394.925 0.208443 3.86138 0
M  V30 4222 H 396.614 0.598257 4.01467 0
M  V30 4223 H 397.38 3.0682 3.75615 0
M  V30 4224 H 393.259 1.92148 4.19047 0
M  V30 4225 H 396.803 5.363 4.46126 0
M  V30 4226 H 392.7 4.20724 4.89552 0
M  V30 4227 H 393.468 6.24509 5.29085 0
M  V30 4228 N 396.131 -1.37776 0.765217 0
M  V30 4229 C 397.542 -1.82521 0.392819 0
M  V30 4230 C 397.893 -1.63789 -1.08017 0
M  V30 4231 O 397.018 -1.14542 -1.83601 0
M  V30 4232 C 397.613 -3.31358 0.706214 0
M  V30 4233 C 396.172 -3.74406 0.386952 0
M  V30 4234 C 395.319 -2.60394 0.953422 0
M  V30 4235 H 398.27 -1.2634 0.960412 0
M  V30 4236 H 398.291 -3.80498 -0.0114706 0
M  V30 4237 H 397.803 -3.44959 1.77833 0
M  V30 4238 H 395.904 -3.66377 -0.678112 0
M  V30 4239 H 396.017 -4.70749 0.890636 0
M  V30 4240 H 394.381 -2.51878 0.378064 0
M  V30 4241 H 395.164 -2.76791 2.03081 0
M  V30 4242 N 397.609 -0.515225 -1.4894 0
M  V30 4243 C 398.855 0.0242508 -2.02785 0
M  V30 4244 C 399.188 1.35323 -1.39289 0
M  V30 4245 O 398.463 1.87041 -0.533469 0
M  V30 4246 C 398.746 0.16184 -3.59736 0
M  V30 4247 C 398.599 -1.19127 -4.33738 0
M  V30 4248 C 399.918 0.895719 -4.30888 0
M  V30 4249 H 397.037 0.00733914 -0.736963 0
M  V30 4250 H 399.679 -0.669395 -1.77818 0
M  V30 4251 H 397.829 0.752624 -3.8114 0
M  V30 4252 H 399.501 -1.82202 -4.23792 0
M  V30 4253 H 397.744 -1.77695 -3.95736 0
M  V30 4254 H 398.415 -1.04815 -5.41957 0
M  V30 4255 H 400.891 0.394528 -4.14225 0
M  V30 4256 H 399.767 0.960859 -5.40425 0
M  V30 4257 H 400.028 1.9427 -3.97129 0
M  V30 4258 N 399.087 1.5561 -0.249682 0
M  V30 4259 C 400.498 1.84979 0.252949 0
M  V30 4260 C 400.849 1.17153 1.57384 0
M  V30 4261 O 399.974 0.450884 2.11651 0
M  V30 4262 C 400.569 3.35584 0.465732 0
M  V30 4263 C 399.128 3.65169 0.912624 0
M  V30 4264 C 398.275 2.77299 -0.00859085 0
M  V30 4265 H 401.226 1.51513 -0.47217 0
M  V30 4266 H 401.247 3.57313 1.30795 0
M  V30 4267 H 400.759 3.8492 -0.49579 0
M  V30 4268 H 398.86 3.21312 1.88652 0
M  V30 4269 H 398.973 4.72912 0.767559 0
M  V30 4270 H 397.337 2.49678 0.50327 0
M  V30 4271 H 398.12 3.29442 -0.965537 0
M  V30 4272 N 400.565 -0.0233959 1.57583 0
M  V30 4273 C 401.475 -1.03907 2.10334 0
M  V30 4274 C 402.491 -1.39257 1.04323 0
M  V30 4275 O 403.667 -1.48462 1.36091 0
M  V30 4276 C 400.732 -2.31938 2.57693 0
M  V30 4277 C 399.793 -2.03117 3.78209 0
M  V30 4278 C 399.026 -3.25043 4.233 0
M  V30 4279 O 399.249 -4.35916 3.67876 0
M  V30 4280 O 398.183 -3.10411 5.15683 0
M  V30 4281 H 402.009 -0.620748 2.97288 0
M  V30 4282 H 399.594 -0.240743 1.47448 0
M  V30 4283 H 401.476 -3.07196 2.88458 0
M  V30 4284 H 400.151 -2.73055 1.73847 0
M  V30 4285 H 399.058 -1.25408 3.52454 0
M  V30 4286 H 400.391 -1.66852 4.63056 0
M  V30 4287 N 402.043 -1.548 -0.295768 0
M  V30 4288 C 402.991 -1.86874 -1.38495 0
M  V30 4289 C 403.985 -0.742938 -1.52239 0
M  V30 4290 O 405.191 -0.926999 -1.54294 0
M  V30 4291 H 401.566 -0.592786 -0.462719 0
M  V30 4292 H 403.537 -2.77904 -1.08682 0
M  V30 4293 C 402.286 -2.13732 -2.74252 0
M  V30 4294 H 401.609 -2.99835 -2.64459 0
M  V30 4295 H 403.049 -2.4011 -3.49461 0
M  V30 4296 C 401.508 -0.937539 -3.23592 0
M  V30 4297 O 402.038 -0.160665 -4.01379 0
M  V30 4298 N 400.244 -0.741478 -2.80981 0
M  V30 4299 H 399.791 -1.37489 -2.1784 0
M  V30 4300 H 399.749 0.0597103 -3.14343 0
M  V30 4301 N 403.521 0.559213 -1.47345 0
M  V30 4302 C 404.767 1.31614 -1.55079 0
M  V30 4303 C 405.122 1.91257 -0.209422 0
M  V30 4304 O 404.415 1.74796 0.784656 0
M  V30 4305 C 404.609 2.44853 -2.6035 0
M  V30 4306 C 404.438 1.96305 -4.04591 0
M  V30 4307 C 403.208 1.8024 -4.72061 0
M  V30 4308 C 405.406 1.50872 -4.91673 0
M  V30 4309 N 403.388 1.26011 -6.00828 0
M  V30 4310 C 404.759 1.08395 -6.10451 0
M  V30 4311 C 406.814 1.38905 -4.78132 0
M  V30 4312 C 405.517 0.551399 -7.17183 0
M  V30 4313 C 407.543 0.870518 -5.84958 0
M  V30 4314 C 406.905 0.455661 -7.02925 0
M  V30 4315 H 403.004 0.473712 -0.62219 0
M  V30 4316 H 405.588 0.634103 -1.84085 0
M  V30 4317 H 403.759 3.10589 -2.33215 0
M  V30 4318 H 405.491 3.11849 -2.57938 0
M  V30 4319 H 402.246 2.02895 -4.27937 0
M  V30 4320 H 402.67 1.00991 -6.69425 0
M  V30 4321 H 407.312 1.69591 -3.87297 0
M  V30 4322 H 405.03 0.232159 -8.07766 0
M  V30 4323 H 408.616 0.781507 -5.76527 0
M  V30 4324 H 407.496 0.0606414 -7.84177 0
M  V30 4325 N 404.999 1.35443 0.805782 0
M  V30 4326 C 405.929 1.31095 1.93226 0
M  V30 4327 C 406.91 0.185244 1.69088 0
M  V30 4328 O 408.095 0.380332 1.90439 0
M  V30 4329 C 405.225 1.08299 3.29983 0
M  V30 4330 C 404.179 2.17519 3.68605 0
M  V30 4331 C 403.505 1.79887 5.03532 0
M  V30 4332 C 404.805 3.5949 3.78898 0
M  V30 4333 H 406.499 2.25352 1.97122 0
M  V30 4334 H 404.045 1.0848 0.946996 0
M  V30 4335 H 405.998 1.03897 4.08391 0
M  V30 4336 H 404.722 0.104885 3.26432 0
M  V30 4337 H 403.381 2.2102 2.92482 0
M  V30 4338 H 403.029 0.80693 4.96485 0
M  V30 4339 H 402.729 2.53001 5.30344 0
M  V30 4340 H 404.253 1.77011 5.84379 0
M  V30 4341 H 405.667 3.58307 4.47536 0
M  V30 4342 H 404.064 4.31371 4.1718 0
M  V30 4343 H 405.134 3.95584 2.80431 0
M  V30 4344 N 406.477 -1.02803 1.19454 0
M  V30 4345 C 407.427 -2.0945 0.900827 0
M  V30 4346 C 408.411 -1.60335 -0.134715 0
M  V30 4347 O 409.603 -1.76857 0.0710924 0
M  V30 4348 C 406.732 -3.4044 0.442229 0
M  V30 4349 C 405.818 -3.96286 1.51056 0
M  V30 4350 N 406.209 -4.25785 2.73021 0
M  V30 4351 C 404.507 -4.24307 1.37404 0
M  V30 4352 C 405.208 -4.70654 3.41848 0
M  V30 4353 N 404.184 -4.72238 2.69243 0
M  V30 4354 H 407.986 -2.3015 1.82779 0
M  V30 4355 H 405.5 -1.20672 1.08683 0
M  V30 4356 H 407.497 -4.16354 0.21326 0
M  V30 4357 H 406.157 -3.21159 -0.478238 0
M  V30 4358 H 407.168 -4.15041 3.09776 0
M  V30 4359 H 403.845 -4.14285 0.517103 0
M  V30 4360 H 405.235 -5.02392 4.46152 0
M  V30 4361 N 407.956 -0.998596 -1.21925 0
M  V30 4362 C 408.903 -0.553621 -2.24062 0
M  V30 4363 C 409.873 0.416999 -1.6078 0
M  V30 4364 O 411.058 0.320482 -1.88089 0
M  V30 4365 C 408.198 0.119959 -3.44891 0
M  V30 4366 C 407.311 -0.893077 -4.22668 0
M  V30 4367 C 406.446 -0.192424 -5.30851 0
M  V30 4368 C 405.485 -1.19344 -6.00353 0
M  V30 4369 N 404.622 -0.520707 -7.00166 0
M  V30 4370 H 409.462 -1.4293 -2.61486 0
M  V30 4371 H 406.999 -0.715838 -1.28507 0
M  V30 4372 H 408.957 0.527459 -4.13852 0
M  V30 4373 H 407.587 0.959389 -3.08214 0
M  V30 4374 H 406.639 -1.41886 -3.52948 0
M  V30 4375 H 407.951 -1.65512 -4.70539 0
M  V30 4376 H 407.105 0.271515 -6.06092 0
M  V30 4377 H 405.844 0.602075 -4.83969 0
M  V30 4378 H 404.849 -1.66795 -5.23889 0
M  V30 4379 H 406.074 -1.98891 -6.49322 0
M  V30 4380 H 404.02 0.254252 -6.55507 0
M  V30 4381 H 403.937 -1.2211 -7.46073 0
M  V30 4382 H 405.205 -0.0797596 -7.79459 0
M  V30 4383 N 409.434 1.37368 -0.772513 0
M  V30 4384 C 410.344 2.34053 -0.160081 0
M  V30 4385 C 411.36 1.60216 0.678728 0
M  V30 4386 O 412.536 1.92303 0.59847 0
M  V30 4387 C 409.601 3.3939 0.708182 0
M  V30 4388 C 408.662 4.29048 -0.147172 0
M  V30 4389 C 407.895 5.29354 0.679744 0
M  V30 4390 O 408.118 5.3723 1.91678 0
M  V30 4391 O 407.052 6.01835 0.0885444 0
M  V30 4392 H 410.878 2.88159 -0.959053 0
M  V30 4393 H 408.463 1.39543 -0.533685 0
M  V30 4394 H 410.345 4.03839 1.20384 0
M  V30 4395 H 409.02 2.8761 1.48533 0
M  V30 4396 H 407.927 3.67697 -0.689205 0
M  V30 4397 H 409.26 4.84134 -0.887423 0
M  V30 4398 N 410.912 0.523116 1.48665 0
M  V30 4399 C 411.875 -0.232592 2.28017 0
M  V30 4400 C 412.875 -0.874021 1.34972 0
M  V30 4401 O 414.065 -0.735132 1.57929 0
M  V30 4402 C 411.197 -1.33586 3.13636 0
M  V30 4403 H 412.39 0.464008 2.96289 0
M  V30 4404 H 409.943 0.278816 1.53793 0
M  V30 4405 H 410.678 -2.06593 2.4998 0
M  V30 4406 H 410.463 -0.881125 3.82071 0
M  V30 4407 H 411.953 -1.86759 3.73511 0
M  V30 4408 N 412.39 -1.55475 0.257931 0
M  V30 4409 C 413.34 -2.18506 -0.651094 0
M  V30 4410 C 414.324 -1.14431 -1.13112 0
M  V30 4411 O 415.516 -1.40305 -1.07905 0
M  V30 4412 C 412.645 -2.89653 -1.84272 0
M  V30 4413 C 411.731 -4.00996 -1.38068 0
M  V30 4414 N 412.122 -5.01816 -0.633609 0
M  V30 4415 C 410.42 -4.13753 -1.66506 0
M  V30 4416 C 411.121 -5.80371 -0.392922 0
M  V30 4417 N 410.097 -5.3505 -0.960359 0
M  V30 4418 H 413.899 -2.93811 -0.0722883 0
M  V30 4419 H 411.413 -1.62286 0.0607256 0
M  V30 4420 H 413.41 -3.33245 -2.50506 0
M  V30 4421 H 412.07 -2.15854 -2.42564 0
M  V30 4422 H 413.081 -5.17128 -0.282626 0
M  V30 4423 H 409.758 -3.51133 -2.25858 0
M  V30 4424 H 411.148 -6.7159 0.204235 0
M  V30 4425 N 413.868 0.0150385 -1.57593 0
M  V30 4426 C 414.8 1.03912 -2.04291 0
M  V30 4427 C 415.813 1.31618 -0.958146 0
M  V30 4428 O 417.002 1.28859 -1.23522 0
M  V30 4429 C 414.102 2.37749 -2.41514 0
M  V30 4430 C 413.275 2.29198 -3.72541 0
M  V30 4431 C 412.334 3.45598 -3.96797 0
M  V30 4432 O 411.36 3.24461 -4.67668 0
M  V30 4433 N 412.562 4.67945 -3.43523 0
M  V30 4434 H 415.327 0.64099 -2.92765 0
M  V30 4435 H 412.888 0.20272 -1.60626 0
M  V30 4436 H 414.88 3.14364 -2.54867 0
M  V30 4437 H 413.45 2.69357 -1.58637 0
M  V30 4438 H 412.67 1.3759 -3.69408 0
M  V30 4439 H 413.958 2.20642 -4.5847 0
M  V30 4440 H 413.356 4.88017 -2.86104 0
M  V30 4441 H 411.913 5.41878 -3.62232 0
M  V30 4442 N 415.346 1.54954 0.287554 0
M  V30 4443 C 416.276 1.89839 1.35954 0
M  V30 4444 C 417.257 0.758675 1.52244 0
M  V30 4445 O 418.442 1.01557 1.65529 0
M  V30 4446 C 415.572 2.15753 2.72154 0
M  V30 4447 C 414.526 3.3159 2.70614 0
M  V30 4448 C 413.852 3.42952 4.10229 0
M  V30 4449 C 415.152 4.68359 2.31165 0
M  V30 4450 H 416.846 2.79625 1.07007 0
M  V30 4451 H 414.392 1.3454 0.513316 0
M  V30 4452 H 416.345 2.38743 3.47246 0
M  V30 4453 H 415.069 1.22752 3.02654 0
M  V30 4454 H 413.728 3.08545 1.97979 0
M  V30 4455 H 413.376 2.47443 4.37928 0
M  V30 4456 H 413.076 4.20826 4.10097 0
M  V30 4457 H 414.6 3.68218 4.87081 0
M  V30 4458 H 416.014 4.9099 2.95976 0
M  V30 4459 H 414.411 5.49044 2.42221 0
M  V30 4460 H 415.481 4.68165 1.26291 0
M  V30 4461 N 416.824 -0.551391 1.4764 0
M  V30 4462 C 418.071 -1.3083 1.54563 0
M  V30 4463 C 418.399 -1.93359 0.210361 0
M  V30 4464 O 417.654 -1.78721 -0.797332 0
M  V30 4465 C 417.953 -2.43469 2.61644 0
M  V30 4466 C 417.619 -1.98732 4.04742 0
M  V30 4467 C 416.281 -1.86248 4.43695 0
M  V30 4468 C 418.633 -1.64659 4.94507 0
M  V30 4469 C 415.961 -1.37995 5.70241 0
M  V30 4470 C 418.313 -1.17875 6.21521 0
M  V30 4471 C 416.977 -1.03992 6.5935 0
M  V30 4472 H 416.247 -0.478741 0.565587 0
M  V30 4473 H 418.894 -0.617697 1.81264 0
M  V30 4474 H 417.199 -3.18109 2.28722 0
M  V30 4475 H 418.896 -3.01642 2.64222 0
M  V30 4476 H 415.486 -2.09393 3.73968 0
M  V30 4477 H 419.67 -1.73174 4.65107 0
M  V30 4478 H 414.926 -1.25915 5.98294 0
M  V30 4479 H 419.1 -0.905739 6.90485 0
M  V30 4480 H 416.727 -0.663794 7.57296 0
M  V30 4481 N 418.302 -1.35869 -0.798587 0
M  V30 4482 C 419.232 -1.32118 -1.92528 0
M  V30 4483 C 420.213 -0.194209 -1.68988 0
M  V30 4484 O 421.398 -0.390426 -1.90235 0
M  V30 4485 C 418.528 -1.10047 -3.29404 0
M  V30 4486 C 417.482 -2.19471 -3.67446 0
M  V30 4487 C 416.808 -1.82555 -5.02571 0
M  V30 4488 C 418.108 -3.61495 -3.76987 0
M  V30 4489 H 419.802 -2.26394 -1.95924 0
M  V30 4490 H 417.348 -1.08981 -0.94123 0
M  V30 4491 H 419.301 -1.06061 -4.07835 0
M  V30 4492 H 418.025 -0.122195 -3.26371 0
M  V30 4493 H 416.684 -2.22568 -2.91306 0
M  V30 4494 H 416.332 -0.833249 -4.9605 0
M  V30 4495 H 416.032 -2.5581 -5.28995 0
M  V30 4496 H 417.556 -1.80108 -5.83432 0
M  V30 4497 H 418.97 -3.60676 -4.4563 0
M  V30 4498 H 417.367 -4.33577 -4.14887 0
M  V30 4499 H 418.437 -3.97065 -2.78329 0
M  V30 4500 N 419.78 1.02168 -1.19998 0
M  V30 4501 C 420.69 2.14069 -0.959774 0
M  V30 4502 C 421.706 1.73804 0.082655 0
M  V30 4503 O 422.882 2.01133 -0.103633 0
M  V30 4504 C 419.947 3.42936 -0.509459 0
M  V30 4505 C 419.008 3.97474 -1.62213 0
M  V30 4506 C 418.241 5.2019 -1.19321 0
M  V30 4507 O 418.464 5.70369 -0.0597726 0
M  V30 4508 O 417.398 5.67749 -1.99863 0
M  V30 4509 H 421.224 2.37199 -1.89658 0
M  V30 4510 H 418.809 1.12469 -0.983411 0
M  V30 4511 H 420.691 4.20551 -0.267322 0
M  V30 4512 H 419.366 3.21234 0.398821 0
M  V30 4513 H 418.273 3.21161 -1.9185 0
M  V30 4514 H 419.606 4.23555 -2.50723 0
M  V30 4515 N 421.258 1.00505 1.21394 0
M  V30 4516 C 422.669 0.721082 1.72213 0
M  V30 4517 C 423.02 -0.761263 1.80829 0
M  V30 4518 O 422.145 -1.59464 1.46288 0
M  V30 4519 C 422.74 1.30228 3.12772 0
M  V30 4520 C 421.299 1.06743 3.60947 0
M  V30 4521 C 420.446 1.41507 2.38477 0
M  V30 4522 H 423.397 1.17594 1.06571 0
M  V30 4523 H 423.418 0.686955 3.74247 0
M  V30 4524 H 422.93 2.38115 3.06468 0
M  V30 4525 H 421.031 0.00572162 3.726 0
M  V30 4526 H 421.144 1.73936 4.46411 0
M  V30 4527 H 419.508 0.833852 2.40664 0
M  V30 4528 H 420.291 2.50424 2.34824 0
M  V30 4529 N 422.737 -1.36956 0.779787 0
M  V30 4530 C 423.647 -2.33965 0.172491 0
M  V30 4531 C 424.663 -1.60574 -0.670222 0
M  V30 4532 O 425.839 -1.92617 -0.588263 0
M  V30 4533 C 422.904 -3.39761 -0.690173 0
M  V30 4534 C 421.965 -4.28964 0.169924 0
M  V30 4535 C 421.198 -5.29707 -0.651662 0
M  V30 4536 O 421.421 -5.38238 -1.88827 0
M  V30 4537 O 420.355 -6.01873 -0.0566264 0
M  V30 4538 H 424.181 -2.87647 0.974321 0
M  V30 4539 H 421.766 -1.39258 0.541078 0
M  V30 4540 H 423.648 -4.04471 -1.1824 0
M  V30 4541 H 422.323 -2.88394 -1.47006 0
M  V30 4542 H 421.23 -3.67326 0.708696 0
M  V30 4543 H 422.563 -4.83656 0.913085 0
M  V30 4544 N 424.215 -0.530993 -1.48385 0
M  V30 4545 C 425.461 0.00274135 -2.028 0
M  V30 4546 C 425.794 1.33838 -1.40716 0
M  V30 4547 O 425.069 1.86465 -0.553277 0
M  V30 4548 C 425.352 0.123676 -3.59888 0
M  V30 4549 C 425.205 -1.2372 -4.3245 0
M  V30 4550 C 426.524 0.849967 -4.31814 0
M  V30 4551 H 423.643 -0.000477758 -0.737 0
M  V30 4552 H 426.285 -0.688217 -1.77098 0
M  V30 4553 H 424.435 0.712157 -3.81917 0
M  V30 4554 H 426.107 -1.86687 -4.21836 0
M  V30 4555 H 424.35 -1.81882 -3.93829 0
M  V30 4556 H 425.021 -1.10557 -5.40815 0
M  V30 4557 H 427.497 0.350572 -4.14621 0
M  V30 4558 H 426.373 0.903486 -5.41413 0
M  V30 4559 H 426.634 1.90047 -3.99167 0
M  V30 4560 N 425.693 1.55336 -0.266172 0
M  V30 4561 C 426.623 2.25146 0.618981 0
M  V30 4562 C 427.604 1.23845 1.16604 0
M  V30 4563 O 428.789 1.52544 1.20183 0
M  V30 4564 C 425.919 2.96572 1.80728 0
M  V30 4565 C 424.873 4.04726 1.39215 0
M  V30 4566 C 424.199 4.63678 2.66283 0
M  V30 4567 C 425.499 5.19407 0.548942 0
M  V30 4568 H 427.193 2.99377 0.0368116 0
M  V30 4569 H 424.739 1.43991 0.0162651 0
M  V30 4570 H 426.692 3.44116 2.43232 0
M  V30 4571 H 425.416 2.19861 2.41514 0
M  V30 4572 H 424.075 3.57979 0.790351 0
M  V30 4573 H 423.723 3.83646 3.25308 0
M  V30 4574 H 423.423 5.367 2.39222 0
M  V30 4575 H 424.947 5.13967 3.29651 0
M  V30 4576 H 426.361 5.63059 1.07876 0
M  V30 4577 H 424.758 5.98936 0.373593 0
M  V30 4578 H 425.828 4.8295 -0.434394 0
M  V30 4579 N 427.171 -0.0066808 1.57599 0
M  V30 4580 C 428.448 -0.729586 1.81484 0
M  V30 4581 C 428.828 -1.92359 0.869558 0
M  V30 4582 O 428.176 -2.28348 -0.0832533 0
M  V30 4583 C 428.386 -1.1416 3.29801 0
M  V30 4584 C 429.734 -1.54823 3.95367 0
M  V30 4585 O 430.758 -1.23558 3.34084 0
M  V30 4586 O 429.617 -2.12937 5.03309 0
M  V30 4587 H 426.711 -0.354674 0.747085 0
M  V30 4588 H 429.257 0.0182609 1.6969 0
M  V30 4589 H 428.029 -0.290231 3.90222 0
M  V30 4590 H 427.652 -1.94876 3.46568 0
M  V30 4591 N 428.649 -1.55105 -0.279332 0
M  V30 4592 C 430.06 -1.66186 -0.850832 0
M  V30 4593 C 430.411 -0.584707 -1.87285 0
M  V30 4594 O 429.536 0.274919 -2.14647 0
M  V30 4595 C 430.131 -3.01264 -1.55001 0
M  V30 4596 C 428.69 -3.14394 -2.06963 0
M  V30 4597 C 427.837 -2.61959 -0.909536 0
M  V30 4598 H 430.788 -1.58602 -0.0558235 0
M  V30 4599 H 430.809 -2.93899 -2.41669 0
M  V30 4600 H 430.321 -3.7964 -0.805931 0
M  V30 4601 H 428.422 -2.4078 -2.84352 0
M  V30 4602 H 428.535 -4.20867 -2.28928 0
M  V30 4603 H 426.899 -2.18957 -1.30116 0
M  V30 4604 H 427.682 -3.42833 -0.179062 0
M  V30 4605 N 430.127 0.543554 -1.4793 0
M  V30 4606 C 431.037 1.67657 -1.64098 0
M  V30 4607 C 432.053 1.65934 -0.523622 0
M  V30 4608 O 433.229 1.85133 -0.792943 0
M  V30 4609 C 430.294 3.04146 -1.66421 0
M  V30 4610 C 429.355 3.16831 -2.89684 0
M  V30 4611 C 428.588 4.46809 -2.91886 0
M  V30 4612 O 428.811 5.33095 -2.02895 0
M  V30 4613 O 427.745 4.63573 -3.83906 0
M  V30 4614 H 431.571 1.56957 -2.59997 0
M  V30 4615 H 429.156 0.715116 -1.31173 0
M  V30 4616 H 431.038 3.85346 -1.70548 0
M  V30 4617 H 429.713 3.152 -0.736923 0
M  V30 4618 H 428.62 2.34977 -2.91095 0
M  V30 4619 H 429.953 3.10687 -3.81752 0
M  V30 4620 N 431.605 1.3629 0.791371 0
M  V30 4621 C 432.83 1.33726 1.58531 0
M  V30 4622 C 433.255 -0.0794933 1.87932 0
M  V30 4623 O 432.613 -1.05087 1.47738 0
M  V30 4624 C 432.661 2.16425 2.88431 0
M  V30 4625 O 431.765 1.5554 3.81944 0
M  V30 4626 H 431.106 0.457793 0.480959 0
M  V30 4627 H 433.636 1.79547 0.981031 0
M  V30 4628 H 433.646 2.28933 3.37718 0
M  V30 4629 H 432.321 3.19415 2.66359 0
M  V30 4630 H 430.898 1.51961 3.40532 0
M  V30 4631 N 433.083 -1.0153 1.20538 0
M  V30 4632 C 434.329 -1.75408 1.01783 0
M  V30 4633 C 434.662 -1.88943 -0.448814 0
M  V30 4634 O 433.937 -1.4162 -1.33319 0
M  V30 4635 C 434.22 -3.17255 1.70356 0
M  V30 4636 C 434.073 -3.11508 3.24473 0
M  V30 4637 C 435.392 -4.15955 1.43769 0
M  V30 4638 H 432.511 -0.636713 0.371167 0
M  V30 4639 H 435.153 -1.18436 1.4857 0
M  V30 4640 H 433.303 -3.65898 1.30578 0
M  V30 4641 H 434.975 -2.70658 3.73553 0
M  V30 4642 H 433.218 -2.4887 3.55311 0
M  V30 4643 H 433.889 -4.11784 3.67611 0
M  V30 4644 H 436.365 -3.75973 1.7828 0
M  V30 4645 H 435.241 -5.13368 1.94279 0
M  V30 4646 H 435.502 -4.40586 0.365564 0
M  V30 4647 N 434.561 -1.01147 -1.20859 0
M  V30 4648 C 435.471 -0.58686 -2.27141 0
M  V30 4649 C 436.487 0.373198 -1.69951 0
M  V30 4650 O 437.663 0.235423 -2.00019 0
M  V30 4651 C 434.728 0.0733602 -3.46622 0
M  V30 4652 C 433.789 -0.931995 -4.19061 0
M  V30 4653 C 433.022 -0.303186 -5.32838 0
M  V30 4654 O 433.245 0.898395 -5.63281 0
M  V30 4655 O 432.179 -1.01735 -5.9324 0
M  V30 4656 H 436.005 -1.47155 -2.65667 0
M  V30 4657 H 433.59 -0.780689 -1.2738 0
M  V30 4658 H 435.472 0.442333 -4.19072 0
M  V30 4659 H 434.147 0.932329 -3.09983 0
M  V30 4660 H 433.054 -1.35224 -3.48805 0
M  V30 4661 H 434.387 -1.76076 -4.59628 0
M  V30 4662 N 436.039 1.36541 -0.78704 0
M  V30 4663 C 436.969 2.32659 -0.197992 0
M  V30 4664 C 437.95 1.56533 0.665697 0
M  V30 4665 O 439.135 1.84698 0.60001 0
M  V30 4666 C 436.265 3.40778 0.669901 0
M  V30 4667 C 435.219 4.27897 -0.0937039 0
M  V30 4668 C 434.545 5.27163 0.894629 0
M  V30 4669 C 435.845 5.06334 -1.28154 0
M  V30 4670 H 437.539 2.82171 -1.00099 0
M  V30 4671 H 435.085 1.35665 -0.482793 0
M  V30 4672 H 437.038 4.07008 1.09191 0
M  V30 4673 H 435.762 2.89827 1.50558 0
M  V30 4674 H 434.421 3.6322 -0.49666 0
M  V30 4675 H 434.069 4.72486 1.72527 0
M  V30 4676 H 433.769 5.86317 0.388149 0
M  V30 4677 H 435.293 5.96266 1.31525 0
M  V30 4678 H 436.707 5.65617 -0.93541 0
M  V30 4679 H 435.104 5.74888 -1.72115 0
M  V30 4680 H 436.174 4.38114 -2.07807 0
M  V30 4681 N 437.518 0.538854 1.48102 0
M  V30 4682 C 438.465 -0.219042 2.29758 0
M  V30 4683 C 439.435 -0.925562 1.37922 0
M  V30 4684 O 440.62 -0.924855 1.66886 0
M  V30 4685 C 437.76 -1.25452 3.2149 0
M  V30 4686 C 436.873 -0.555943 4.28408 0
M  V30 4687 C 436.008 -1.57512 5.0731 0
M  V30 4688 C 435.047 -0.860498 6.06021 0
M  V30 4689 N 434.184 -1.82564 6.77949 0
M  V30 4690 H 439.024 0.483449 2.94052 0
M  V30 4691 H 436.561 0.250247 1.44956 0
M  V30 4692 H 438.519 -1.86727 3.7308 0
M  V30 4693 H 437.149 -1.92528 2.591 0
M  V30 4694 H 436.201 0.170938 3.80016 0
M  V30 4695 H 437.513 0.00474616 4.988 0
M  V30 4696 H 436.667 -2.26191 5.62959 0
M  V30 4697 H 435.406 -2.16972 4.36778 0
M  V30 4698 H 434.411 -0.159686 5.49568 0
M  V30 4699 H 435.636 -0.271897 6.78555 0
M  V30 4700 H 433.582 -2.40915 6.10161 0
M  V30 4701 H 433.499 -1.31662 7.44447 0
M  V30 4702 H 434.767 -2.50414 7.38182 0
M  V30 4703 N 438.996 -1.55193 0.274407 0
M  V30 4704 C 440.242 -2.00604 -0.33608 0
M  V30 4705 C 440.597 -1.15948 -1.53538 0
M  V30 4706 O 439.89 -0.221385 -1.90317 0
M  V30 4707 C 440.084 -3.49019 -0.769458 0
M  V30 4708 C 439.913 -4.48038 0.386301 0
M  V30 4709 C 438.683 -4.97757 0.869854 0
M  V30 4710 C 440.881 -4.99558 1.22254 0
M  V30 4711 N 438.863 -5.80575 1.99515 0
M  V30 4712 C 440.234 -5.79816 2.19575 0
M  V30 4713 C 442.289 -4.81799 1.25597 0
M  V30 4714 C 440.992 -6.44208 3.19981 0
M  V30 4715 C 443.018 -5.46989 2.24848 0
M  V30 4716 C 442.38 -6.27058 3.20901 0
M  V30 4717 H 438.479 -0.777013 -0.088172 0
M  V30 4718 H 441.063 -1.90583 0.398266 0
M  V30 4719 H 439.234 -3.59383 -1.47303 0
M  V30 4720 H 440.966 -3.81263 -1.35722 0
M  V30 4721 H 437.721 -4.71464 0.449281 0
M  V30 4722 H 438.145 -6.26675 2.5614 0
M  V30 4723 H 442.787 -4.19501 0.527158 0
M  V30 4724 H 440.505 -7.05656 3.93796 0
M  V30 4725 H 444.091 -5.35189 2.28174 0
M  V30 4726 H 442.971 -6.7661 3.96445 0
M  V30 4727 N 440.474 -0.00167713 -1.576 0
M  V30 4728 C 441.699 0.69739 -1.95323 0
M  V30 4729 C 442.124 1.6642 -0.876706 0
M  V30 4730 O 441.482 1.80548 0.165007 0
M  V30 4731 C 441.53 1.40403 -3.32144 0
M  V30 4732 O 440.634 2.5185 -3.26566 0
M  V30 4733 H 439.975 0.185373 -0.637599 0
M  V30 4734 H 442.505 -0.0553665 -2.04525 0
M  V30 4735 H 442.515 1.76707 -3.67748 0
M  V30 4736 H 441.19 0.695167 -4.10049 0
M  V30 4737 H 439.767 2.17861 -3.0264 0
M  V30 4738 N 441.952 1.55251 0.271103 0
M  V30 4739 C 442.862 1.9136 1.35714 0
M  V30 4740 C 443.878 0.811075 1.5394 0
M  V30 4741 O 445.054 1.11031 1.6803 0
M  V30 4742 C 442.119 2.1798 2.69603 0
M  V30 4743 C 441.18 3.4153 2.60107 0
M  V30 4744 C 440.413 3.66871 3.8761 0
M  V30 4745 O 440.636 2.94689 4.8838 0
M  V30 4746 O 439.57 4.60405 3.87699 0
M  V30 4747 H 443.396 2.83815 1.08088 0
M  V30 4748 H 440.981 1.41821 0.469792 0
M  V30 4749 H 442.863 2.36518 3.48765 0
M  V30 4750 H 441.538 1.28708 2.97012 0
M  V30 4751 H 440.445 3.28325 1.79314 0
M  V30 4752 H 441.778 4.31027 2.37647 0
M  V30 4753 N 443.43 -0.535701 1.48216 0
M  V30 4754 C 444.841 -1.11769 1.49548 0
M  V30 4755 C 445.192 -1.94442 0.26207 0
M  V30 4756 O 444.317 -2.06987 -0.631287 0
M  V30 4757 C 444.912 -2.03367 2.70975 0
M  V30 4758 C 443.471 -2.56795 2.75196 0
M  V30 4759 C 442.618 -1.33631 2.42977 0
M  V30 4760 H 445.569 -0.321232 1.55415 0
M  V30 4761 H 445.59 -2.87569 2.49167 0
M  V30 4762 H 445.102 -1.43169 3.60727 0
M  V30 4763 H 443.203 -3.20731 1.89638 0
M  V30 4764 H 443.316 -2.9632 3.76472 0
M  V30 4765 H 441.68 -1.6502 1.94012 0
M  V30 4766 H 442.463 -0.75194 3.34964 0
M  V30 4767 N 444.908 -1.36708 -0.784132 0
M  V30 4768 C 445.856 -1.31533 -1.91838 0
M  V30 4769 C 446.85 -0.206205 -1.6814 0
M  V30 4770 O 448.056 -0.373519 -1.76082 0
M  V30 4771 H 444.431 -0.409613 -0.630651 0
M  V30 4772 H 446.402 -2.2731 -1.9332 0
M  V30 4773 C 445.151 -1.12679 -3.28936 0
M  V30 4774 H 444.474 -1.97274 -3.4774 0
M  V30 4775 H 445.914 -1.13106 -4.08636 0
M  V30 4776 C 444.373 0.168281 -3.36479 0
M  V30 4777 O 444.903 1.15625 -3.84699 0
M  V30 4778 N 443.109 0.214762 -2.89805 0
M  V30 4779 H 442.656 -0.589852 -2.50756 0
M  V30 4780 H 442.614 1.08094 -2.95234 0
M  V30 4781 N 446.386 1.0089 -1.21074 0
M  V30 4782 C 447.296 2.13039 -0.982425 0
M  V30 4783 C 448.312 1.73881 0.0642161 0
M  V30 4784 O 449.488 2.01012 -0.12496 0
M  V30 4785 C 446.553 3.42377 -0.545803 0
M  V30 4786 C 445.614 3.95731 -1.6642 0
M  V30 4787 C 444.847 5.18896 -1.24832 0
M  V30 4788 O 445.07 5.70273 -0.120265 0
M  V30 4789 O 444.004 5.65597 -2.05873 0
M  V30 4790 H 447.83 2.35175 -1.92163 0
M  V30 4791 H 445.415 1.1142 -0.995285 0
M  V30 4792 H 447.297 4.20244 -0.311912 0
M  V30 4793 H 445.972 3.21639 0.364727 0
M  V30 4794 H 444.879 3.19108 -1.95246 0
M  V30 4795 H 446.212 4.20872 -2.55201 0
M  V30 4796 N 447.864 1.01787 1.20321 0
M  V30 4797 C 448.774 0.598898 2.26827 0
M  V30 4798 C 449.79 -0.36418 1.70146 0
M  V30 4799 O 450.966 -0.224812 2.00141 0
M  V30 4800 C 448.031 -0.0549769 3.46656 0
M  V30 4801 C 447.092 0.954205 4.18561 0
M  V30 4802 C 446.325 0.331439 5.3267 0
M  V30 4803 O 446.548 -0.86851 5.63749 0
M  V30 4804 O 445.482 1.0488 5.92692 0
M  V30 4805 H 449.308 1.48562 2.64883 0
M  V30 4806 H 446.893 0.787434 1.26964 0
M  V30 4807 H 448.775 -0.420102 4.19301 0
M  V30 4808 H 447.45 -0.915876 3.10473 0
M  V30 4809 H 446.357 1.37072 3.48083 0
M  V30 4810 H 447.69 1.78511 4.58688 0
M  V30 4811 N 449.342 -1.36122 0.79427 0
M  V30 4812 C 450.252 -2.33769 0.197296 0
M  V30 4813 C 451.268 -1.61276 -0.653153 0
M  V30 4814 O 452.444 -1.9323 -0.5678 0
M  V30 4815 C 449.509 -3.40474 -0.654098 0
M  V30 4816 C 448.57 -4.28759 0.215411 0
M  V30 4817 C 447.803 -5.30368 -0.595443 0
M  V30 4818 O 448.026 -5.40211 -1.83107 0
M  V30 4819 O 446.96 -6.019 0.00721351 0
M  V30 4820 H 450.786 -2.86597 1.00478 0
M  V30 4821 H 448.371 -1.38676 0.555818 0
M  V30 4822 H 450.253 -4.05703 -1.13944 0
M  V30 4823 H 448.928 -2.89937 -1.43938 0
M  V30 4824 H 447.835 -3.66554 0.747615 0
M  V30 4825 H 449.168 -4.82661 0.964332 0
M  V30 4826 N 450.82 -0.546701 -1.47814 0
M  V30 4827 C 451.75 0.195317 -2.32682 0
M  V30 4828 C 452.731 0.918981 -1.43139 0
M  V30 4829 O 453.916 0.901501 -1.72008 0
M  V30 4830 C 451.046 1.23237 -3.247 0
M  V30 4831 C 450 0.625818 -4.234 0
M  V30 4832 C 449.326 1.76674 -5.04669 0
M  V30 4833 C 450.626 -0.413515 -5.2066 0
M  V30 4834 H 452.32 -0.513184 -2.94969 0
M  V30 4835 H 449.866 -0.248241 -1.41844 0
M  V30 4836 H 451.819 1.75955 -3.82907 0
M  V30 4837 H 450.543 1.97067 -2.60446 0
M  V30 4838 H 449.202 0.120023 -3.66403 0
M  V30 4839 H 448.85 2.49383 -4.36826 0
M  V30 4840 H 448.55 1.36673 -5.71484 0
M  V30 4841 H 450.074 2.29738 -5.65732 0
M  V30 4842 H 451.488 0.0272042 -5.73294 0
M  V30 4843 H 449.885 -0.731825 -5.95621 0
M  V30 4844 H 450.955 -1.31325 -4.66778 0
M  V30 4845 N 452.299 1.55045 -0.282633 0
M  V30 4846 C 453.548 1.98938 0.332667 0
M  V30 4847 C 453.861 1.17455 1.56409 0
M  V30 4848 O 455.067 1.51527 2.25282 0
M  V30 4849 C 453.523 3.54105 0.643226 0
M  V30 4850 C 453.131 4.44374 -0.568814 0
M  V30 4851 C 454.875 4.06569 1.22074 0
M  V30 4852 C 452.782 5.90943 -0.232426 0
M  V30 4853 H 451.712 0.743043 0.128075 0
M  V30 4854 H 454.363 1.79341 -0.388464 0
M  V30 4855 H 452.745 3.69532 1.42346 0
M  V30 4856 H 453.919 4.40718 -1.34551 0
M  V30 4857 H 452.234 4.02585 -1.06369 0
M  V30 4858 H 454.831 5.13626 1.48635 0
M  V30 4859 H 455.174 3.56057 2.15707 0
M  V30 4860 H 455.707 3.94612 0.502621 0
M  V30 4861 H 452.446 6.45567 -1.13683 0
M  V30 4862 H 451.966 5.9765 0.507357 0
M  V30 4863 H 453.645 6.4677 0.172657 0
M  V30 4864 N 453.777 0.010035 1.57597 0
M  V30 4865 C 454.724 -0.978122 2.09049 0
M  V30 4866 C 455.694 -1.33509 0.988159 0
M  V30 4867 O 456.879 -1.43172 1.26121 0
M  V30 4868 C 454.019 -2.26158 2.60666 0
M  V30 4869 C 453.132 -1.96275 3.84838 0
M  V30 4870 C 452.267 -3.18776 4.24918 0
M  V30 4871 C 451.306 -2.84625 5.41899 0
M  V30 4872 N 450.443 -3.99693 5.77226 0
M  V30 4873 H 455.283 -0.532431 2.93205 0
M  V30 4874 H 452.82 -0.251234 1.44939 0
M  V30 4875 H 454.778 -3.01202 2.88675 0
M  V30 4876 H 453.408 -2.68378 1.79369 0
M  V30 4877 H 452.46 -1.11555 3.63675 0
M  V30 4878 H 453.772 -1.67111 4.69974 0
M  V30 4879 H 452.926 -4.02157 4.54262 0
M  V30 4880 H 451.665 -3.51087 3.38511 0
M  V30 4881 H 450.67 -1.99653 5.12268 0
M  V30 4882 H 451.895 -2.53551 6.29991 0
M  V30 4883 H 449.841 -4.31882 4.93776 0
M  V30 4884 H 449.758 -3.74087 6.56959 0
M  V30 4885 H 451.026 -4.83834 6.11167 0
M  V30 4886 N 455.255 -1.55392 -0.262866 0
M  V30 4887 C 456.502 -1.76476 -0.993109 0
M  V30 4888 C 456.83 -0.571479 -1.85915 0
M  V30 4889 O 456.085 0.445733 -1.90556 0
M  V30 4890 C 456.384 -3.02889 -1.89718 0
M  V30 4891 C 456.05 -4.34974 -1.18781 0
M  V30 4892 C 454.712 -4.7087 -0.991699 0
M  V30 4893 C 457.064 -5.16695 -0.683798 0
M  V30 4894 C 454.392 -5.86036 -0.279024 0
M  V30 4895 C 456.744 -6.32598 0.0153327 0
M  V30 4896 C 455.408 -6.67127 0.223062 0
M  V30 4897 H 454.678 -0.64577 -0.363404 0
M  V30 4898 H 457.325 -1.89664 -0.264525 0
M  V30 4899 H 455.63 -2.84644 -2.6923 0
M  V30 4900 H 457.327 -3.16399 -2.46359 0
M  V30 4901 H 453.917 -4.06765 -1.35058 0
M  V30 4902 H 458.101 -4.8943 -0.8229 0
M  V30 4903 H 453.357 -6.11306 -0.107456 0
M  V30 4904 H 457.531 -6.95171 0.413584 0
M  V30 4905 H 455.158 -7.56216 0.777265 0
M  V30 4906 N 456.733 0.527833 -1.48498 0
M  V30 4907 C 457.666 1.64892 -1.57753 0
M  V30 4908 C 458.644 1.5687 -0.427867 0
M  V30 4909 O 459.828 1.77311 -0.639764 0
M  V30 4910 C 456.955 3.03301 -1.50752 0
M  V30 4911 C 456.001 3.29675 -2.70586 0
M  V30 4912 S 456.834 3.15712 -4.32535 0
M  V30 4913 C 457.99 4.56564 -4.28136 0
M  V30 4914 H 458.223 1.56792 -2.52594 0
M  V30 4915 H 455.756 0.710959 -1.37057 0
M  V30 4916 H 457.714 3.83123 -1.474 0
M  V30 4917 H 456.375 3.08839 -0.572454 0
M  V30 4918 H 455.568 4.3065 -2.61833 0
M  V30 4919 H 455.17 2.57526 -2.71212 0
M  V30 4920 H 457.462 5.48126 -3.98201 0
M  V30 4921 H 458.405 4.70371 -5.29298 0
M  V30 4922 H 458.813 4.35987 -3.58574 0
M  V30 4923 N 458.211 1.37122 0.776871 0
M  V30 4924 C 459.451 1.33441 1.54831 0
M  V30 4925 C 459.815 -0.0818963 1.91825 0
M  V30 4926 O 461.016 -0.24338 2.67696 0
M  V30 4927 C 459.287 2.24267 2.78279 0
M  V30 4928 S 460.846 2.38389 3.68397 0
M  V30 4929 H 457.664 0.473791 0.530135 0
M  V30 4930 H 460.266 1.7282 0.913968 0
M  V30 4931 H 458.97 3.261 2.49173 0
M  V30 4932 H 458.501 1.85953 3.46677 0
M  V30 4933 H 460.516 1.59068 4.70013 0
M  V30 4934 N 459.689 -1.00246 1.21608 0
M  V30 4935 C 460.937 -1.73717 1.0328 0
M  V30 4936 C 461.258 -1.90102 -0.434318 0
M  V30 4937 O 460.528 -1.45376 -1.31311 0
M  V30 4938 H 459.108 -0.643613 0.379172 0
M  V30 4939 H 461.77 -1.20787 1.52959 0
M  V30 4940 H 460.866 -2.73535 1.50283 0
M  V30 4941 N 461.167 -1.02423 -1.1978 0
M  V30 4942 C 462.077 -0.610919 -2.26506 0
M  V30 4943 C 463.093 0.355152 -1.70337 0
M  V30 4944 O 464.269 0.214195 -2.00258 0
M  V30 4945 C 461.334 0.0365921 -3.46681 0
M  V30 4946 C 460.395 -0.976389 -4.18049 0
M  V30 4947 C 459.628 -0.359683 -5.32487 0
M  V30 4948 O 459.851 0.838601 -5.64202 0
M  V30 4949 O 458.785 -1.08022 -5.92127 0
M  V30 4950 H 462.611 -1.49965 -2.64091 0
M  V30 4951 H 460.196 -0.794156 -1.26545 0
M  V30 4952 H 462.078 0.39786 -4.19518 0
M  V30 4953 H 460.753 0.899398 -3.10954 0
M  V30 4954 H 459.66 -1.38916 -3.47352 0
M  V30 4955 H 460.993 -1.80941 -4.57735 0
M  V30 4956 N 462.645 1.35699 -0.801477 0
M  V30 4957 C 463.592 2.29876 -0.206294 0
M  V30 4958 C 464.562 1.52565 0.656752 0
M  V30 4959 O 465.747 1.81024 0.602906 0
M  V30 4960 C 462.887 3.39052 0.643272 0
M  V30 4961 C 462 4.31335 -0.239644 0
M  V30 4962 C 461.135 5.27599 0.61744 0
M  V30 4963 C 460.174 6.11521 -0.26619 0
M  V30 4964 N 459.311 6.99938 0.550571 0
M  V30 4965 H 464.151 2.80187 -1.01484 0
M  V30 4966 H 461.688 1.37902 -0.511997 0
M  V30 4967 H 463.646 4.0101 1.15094 0
M  V30 4968 H 462.276 2.9003 1.41713 0
M  V30 4969 H 461.328 3.70426 -0.865381 0
M  V30 4970 H 462.64 4.90243 -0.919985 0
M  V30 4971 H 461.794 5.94906 1.19045 0
M  V30 4972 H 460.533 4.69176 1.33137 0
M  V30 4973 H 459.538 5.43166 -0.851507 0
M  V30 4974 H 460.763 6.72022 -0.9779 0
M  V30 4975 H 458.709 6.44008 1.24856 0
M  V30 4976 H 458.626 7.55966 -0.071832 0
M  V30 4977 H 459.894 7.71599 1.10702 0
M  V30 4978 N 464.123 0.554532 1.47522 0
M  V30 4979 C 465.055 -0.232106 2.28022 0
M  V30 4980 C 466.068 -0.881865 1.36847 0
M  V30 4981 O 467.257 -0.756168 1.61692 0
M  V30 4982 C 464.357 -1.34604 3.11022 0
M  V30 4983 C 463.53 -0.793582 4.30141 0
M  V30 4984 C 462.589 -1.79168 4.94758 0
M  V30 4985 O 461.615 -1.33886 5.5323 0
M  V30 4986 N 462.817 -3.12495 4.89211 0
M  V30 4987 H 465.582 0.458407 2.96173 0
M  V30 4988 H 463.143 0.390433 1.57122 0
M  V30 4989 H 465.135 -2.01243 3.51118 0
M  V30 4990 H 463.705 -1.93983 2.45131 0
M  V30 4991 H 462.925 0.0495025 3.94169 0
M  V30 4992 H 464.213 -0.403776 5.07195 0
M  V30 4993 H 463.611 -3.51931 4.42901 0
M  V30 4994 H 462.168 -3.74698 5.33333 0
M  V30 4995 N 465.601 -1.54893 0.290851 0
M  V30 4996 C 466.848 -1.99933 -0.321391 0
M  V30 4997 C 467.176 -1.17927 -1.54672 0
M  V30 4998 O 466.431 -0.240902 -1.94212 0
M  V30 4999 C 466.73 -3.49815 -0.732397 0
M  V30 5000 C 466.396 -4.4921 0.390056 0
M  V30 5001 C 465.058 -4.76107 0.698223 0
M  V30 5002 C 467.41 -5.08453 1.14562 0
M  V30 5003 C 464.738 -5.59514 1.76526 0
M  V30 5004 C 467.09 -5.9302 2.2025 0
M  V30 5005 C 465.754 -6.18232 2.51684 0
M  V30 5006 H 465.024 -0.731608 -0.117605 0
M  V30 5007 H 467.671 -1.87107 0.407839 0
M  V30 5008 H 465.976 -3.60199 -1.54155 0
M  V30 5009 H 467.673 -3.82083 -1.21712 0
M  V30 5010 H 464.263 -4.28372 0.13976 0
M  V30 5011 H 468.447 -4.87683 0.920801 0
M  V30 5012 H 463.703 -5.77289 2.01364 0
M  V30 5013 H 467.877 -6.37955 2.7926 0
M  V30 5014 H 465.504 -6.82653 3.34499 0
M  V30 5015 N 467.08 -0.0183926 -1.57589 0
M  V30 5016 C 468.305 0.676634 -1.96052 0
M  V30 5017 C 468.73 1.6548 -0.894307 0
M  V30 5018 O 468.088 1.80712 0.145849 0
M  V30 5019 C 468.136 1.36872 -3.33614 0
M  V30 5020 O 467.24 2.48372 -3.29219 0
M  V30 5021 H 466.581 0.1786 -0.63953 0
M  V30 5022 H 469.111 -0.077056 -2.04455 0
M  V30 5023 H 469.121 1.72797 -3.69601 0
M  V30 5024 H 467.796 0.651636 -4.10763 0
M  V30 5025 H 466.373 2.14639 -3.04934 0
M  V30 5026 N 468.558 1.5553 0.254621 0
M  V30 5027 C 469.468 1.92789 1.33677 0
M  V30 5028 C 470.484 0.827356 1.53071 0
M  V30 5029 O 471.66 1.12807 1.66843 0
M  V30 5030 C 468.725 2.20827 2.67275 0
M  V30 5031 C 467.786 3.4427 2.5647 0
M  V30 5032 C 467.019 3.70961 3.83697 0
M  V30 5033 O 467.242 2.99852 4.85227 0
M  V30 5034 O 466.176 4.64491 3.82794 0
M  V30 5035 H 470.002 2.84945 1.05071 0
M  V30 5036 H 467.587 1.42312 0.454723 0
M  V30 5037 H 469.469 2.40204 3.46237 0
M  V30 5038 H 468.144 1.31851 2.9563 0
M  V30 5039 H 467.051 3.30209 1.75821 0
M  V30 5040 H 468.384 4.33524 2.33062 0
M  V30 5041 N 470.036 -0.519951 1.48776 0
M  V30 5042 C 470.946 -1.65025 1.66745 0
M  V30 5043 C 471.962 -1.6508 0.549954 0
M  V30 5044 O 473.138 -1.83848 0.822295 0
M  V30 5045 C 470.203 -3.0146 1.71238 0
M  V30 5046 C 469.264 -3.12182 2.94688 0
M  V30 5047 C 468.497 -4.42109 2.98958 0
M  V30 5048 O 468.72 -5.29799 2.1135 0
M  V30 5049 O 467.654 -4.57406 3.91233 0
M  V30 5050 H 471.48 -1.52801 2.62461 0
M  V30 5051 H 469.065 -0.694157 1.32294 0
M  V30 5052 H 470.947 -3.82584 1.76657 0
M  V30 5053 H 469.622 -3.13988 0.786975 0
M  V30 5054 H 468.529 -2.30316 2.94797 0
M  V30 5055 H 469.862 -3.04574 3.86646 0
M  V30 5056 N 471.514 -1.37532 -0.769588 0
M  V30 5057 C 472.93 -1.18379 -1.07045 0
M  V30 5058 C 473.13 -0.0214312 -2.01489 0
M  V30 5059 O 472.186 0.637809 -2.44312 0
M  V30 5060 C 473.499 -2.50338 -1.66588 0
M  V30 5061 C 475.047 -2.56879 -1.78835 0
M  V30 5062 C 475.522 -3.88974 -2.41792 0
M  V30 5063 N 477.013 -3.90428 -2.4924 0
M  V30 5064 C 477.748 -4.89388 -2.98809 0
M  V30 5065 N 477.244 -5.98745 -3.48535 0
M  V30 5066 N 479.037 -4.76791 -2.97703 0
M  V30 5067 H 471.188 -2.11921 -0.142541 0
M  V30 5068 H 473.451 -0.939608 -0.125863 0
M  V30 5069 H 473.157 -3.35767 -1.0466 0
M  V30 5070 H 473.031 -2.67583 -2.65856 0
M  V30 5071 H 475.418 -1.71856 -2.39895 0
M  V30 5072 H 475.499 -2.43516 -0.783166 0
M  V30 5073 H 475.143 -4.74412 -1.81371 0
M  V30 5074 H 475.073 -3.99641 -3.4292 0
M  V30 5075 H 477.564 -3.11433 -2.14052 0
M  V30 5076 H 477.877 -6.70205 -3.84767 0
M  V30 5077 H 476.222 -6.02387 -3.46634 0
M  V30 5078 H 479.413 -3.90478 -2.58157 0
M  V30 5079 H 479.586 -5.54069 -3.36024 0
M  V30 5080 N 472.992 0.995999 -1.22138 0
M  V30 5081 C 474.241 1.72928 -1.03821 0
M  V30 5082 C 474.554 1.90872 0.427444 0
M  V30 5083 O 475.76 2.61496 0.730212 0
M  V30 5084 C 474.216 3.11124 -1.80913 0
M  V30 5085 C 473.824 3.01122 -3.31707 0
M  V30 5086 C 475.568 3.8852 -1.71035 0
M  V30 5087 C 473.475 4.34453 -4.01253 0
M  V30 5088 H 472.405 0.648376 -0.384869 0
M  V30 5089 H 475.056 1.11213 -1.45959 0
M  V30 5090 H 473.438 3.73503 -1.31573 0
M  V30 5091 H 474.612 2.47926 -3.88419 0
M  V30 5092 H 472.927 2.3721 -3.42228 0
M  V30 5093 H 475.524 4.872 -2.20318 0
M  V30 5094 H 475.867 4.1087 -0.670196 0
M  V30 5095 H 476.4 3.32812 -2.17902 0
M  V30 5096 H 473.139 4.17303 -5.05508 0
M  V30 5097 H 472.659 4.87574 -3.49331 0
M  V30 5098 H 474.338 5.03215 -4.06674 0
M  V30 5099 N 474.47 1.03057 1.19235 0
M  V30 5100 C 475.886 0.747947 1.40989 0
M  V30 5101 C 476.086 -0.666752 1.90149 0
M  V30 5102 O 475.142 -1.43249 2.07933 0
M  V30 5103 C 476.455 1.7855 2.41951 0
M  V30 5104 C 478.003 1.80524 2.55695 0
M  V30 5105 C 478.478 2.83243 3.59913 0
M  V30 5106 N 479.969 2.8207 3.67411 0
M  V30 5107 C 480.704 3.58204 4.47747 0
M  V30 5108 N 480.2 4.44057 5.31775 0
M  V30 5109 N 481.993 3.46738 4.42413 0
M  V30 5110 H 474.144 1.94367 0.856468 0
M  V30 5111 H 476.407 0.840412 0.438647 0
M  V30 5112 H 476.113 2.79973 2.12857 0
M  V30 5113 H 475.987 1.6092 3.41152 0
M  V30 5114 H 478.374 0.79778 2.84112 0
M  V30 5115 H 478.455 2.02229 1.56643 0
M  V30 5116 H 478.099 3.84161 3.32239 0
M  V30 5117 H 478.029 2.58795 4.5862 0
M  V30 5118 H 480.52 2.19803 3.074 0
M  V30 5119 H 480.833 4.98884 5.90199 0
M  V30 5120 H 479.178 4.48129 5.3123 0
M  V30 5121 H 482.369 2.79077 3.75811 0
M  V30 5122 H 482.542 4.06322 5.04783 0
M  V30 5123 N 475.948 -1.35272 0.808662 0
M  V30 5124 C 477.173 -2.03477 0.401475 0
M  V30 5125 C 477.598 -1.60537 -0.980279 0
M  V30 5126 O 476.956 -0.78304 -1.63518 0
M  V30 5127 C 477.004 -3.57181 0.495354 0
M  V30 5128 O 476.108 -4.09474 -0.490397 0
M  V30 5129 H 475.449 -0.642561 0.167366 0
M  V30 5130 H 477.979 -1.72824 1.09512 0
M  V30 5131 H 477.989 -4.06356 0.365912 0
M  V30 5132 H 476.664 -3.87784 1.5032 0
M  V30 5133 H 475.241 -3.71516 -0.321023 0
M  V30 5134 N 477.426 -0.562348 -1.47226 0
M  V30 5135 C 478.674 -0.0401371 -2.0206 0
M  V30 5136 C 478.995 1.3165 -1.43852 0
M  V30 5137 O 478.265 1.85976 -0.615599 0
M  V30 5138 H 476.845 -0.0118479 -0.746906 0
M  V30 5139 H 479.507 -0.73352 -1.8057 0
M  V30 5140 H 478.603 0.0441254 -3.12069 0
M  V30 5141 N 478.904 1.54736 -0.299062 0
M  V30 5142 C 480.15 2.00397 0.311244 0
M  V30 5143 C 480.483 1.18716 1.53688 0
M  V30 5144 O 479.758 0.263154 1.92712 0
M  V30 5145 C 480.041 3.53817 0.669761 0
M  V30 5146 C 479.894 4.46239 -0.564882 0
M  V30 5147 C 481.213 4.13856 1.49702 0
M  V30 5148 H 478.332 0.728493 0.111653 0
M  V30 5149 H 480.974 1.85506 -0.410774 0
M  V30 5150 H 479.124 3.66637 1.28491 0
M  V30 5151 H 480.796 4.45328 -1.20337 0
M  V30 5152 H 479.039 4.16916 -1.19849 0
M  V30 5153 H 479.71 5.5134 -0.269918 0
M  V30 5154 H 482.186 4.04461 0.977284 0
M  V30 5155 H 481.062 5.21365 1.71666 0
M  V30 5156 H 481.323 3.65608 2.48563 0
M  V30 5157 N 480.382 0.0267497 1.57577 0
M  V30 5158 C 481.329 -0.955894 2.10075 0
M  V30 5159 C 482.299 -1.32453 1.00226 0
M  V30 5160 O 483.484 -1.41826 1.27632 0
M  V30 5161 C 480.624 -2.2338 2.6305 0
M  V30 5162 C 479.737 -1.92183 3.86898 0
M  V30 5163 C 478.872 -3.14251 4.28275 0
M  V30 5164 C 477.911 -2.78862 5.44888 0
M  V30 5165 N 477.048 -3.93548 5.81433 0
M  V30 5166 H 481.888 -0.501303 2.93753 0
M  V30 5167 H 479.425 -0.235847 1.45197 0
M  V30 5168 H 481.383 -2.98124 2.91853 0
M  V30 5169 H 480.013 -2.6646 1.82205 0
M  V30 5170 H 479.065 -1.07692 3.64838 0
M  V30 5171 H 480.377 -1.62117 4.7172 0
M  V30 5172 H 479.531 -3.97317 4.58502 0
M  V30 5173 H 478.27 -3.47476 3.42215 0
M  V30 5174 H 477.275 -1.94208 5.14357 0
M  V30 5175 H 478.5 -2.46855 6.32645 0
M  V30 5176 H 476.446 -4.2662 4.98328 0
M  V30 5177 H 476.363 -3.67098 6.6089 0
M  V30 5178 H 477.631 -4.77325 6.16264 0
M  V30 5179 N 481.861 -1.55662 -0.24637 0
M  V30 5180 C 483.277 -1.48098 -0.594907 0
M  V30 5181 C 483.477 -0.717044 -1.8831 0
M  V30 5182 O 482.533 -0.246618 -2.51293 0
M  V30 5183 C 483.846 -2.92507 -0.697146 0
M  V30 5184 C 485.394 -3.02881 -0.789436 0
M  V30 5185 C 485.869 -4.48598 -0.923232 0
M  V30 5186 N 487.36 -4.52538 -0.988088 0
M  V30 5187 C 488.095 -5.62536 -1.11089 0
M  V30 5188 N 487.591 -6.82342 -1.19919 0
M  V30 5189 N 489.384 -5.50334 -1.14408 0
M  V30 5190 H 481.535 -2.0377 0.599278 0
M  V30 5191 H 483.798 -0.925145 0.20691 0
M  V30 5192 H 483.504 -3.51242 0.179396 0
M  V30 5193 H 483.378 -3.43024 -1.5689 0
M  V30 5194 H 485.765 -2.44226 -1.65643 0
M  V30 5195 H 485.846 -2.55574 0.107482 0
M  V30 5196 H 485.49 -5.07864 -0.0607927 0
M  V30 5197 H 485.42 -4.93587 -1.8352 0
M  V30 5198 H 487.911 -3.66248 -0.931167 0
M  V30 5199 H 488.224 -7.61924 -1.29197 0
M  V30 5200 H 486.569 -6.85102 -1.16876 0
M  V30 5201 H 489.76 -4.5567 -1.07158 0
M  V30 5202 H 489.933 -6.36096 -1.23634 0
M  V30 5203 N 483.339 0.512053 -1.4905 0
M  V30 5204 C 484.269 1.62365 -1.67809 0
M  V30 5205 C 485.25 1.61737 -0.526809 0
M  V30 5206 O 486.435 1.78651 -0.761404 0
M  V30 5207 C 483.565 3.00895 -1.73435 0
M  V30 5208 C 482.519 3.16387 -2.88242 0
M  V30 5209 C 481.845 4.56157 -2.78971 0
M  V30 5210 C 483.145 2.97457 -4.29321 0
M  V30 5211 H 484.839 1.46921 -2.60873 0
M  V30 5212 H 482.385 0.705379 -1.2554 0
M  V30 5213 H 484.338 3.78549 -1.85145 0
M  V30 5214 H 483.062 3.17403 -0.769619 0
M  V30 5215 H 481.721 2.41155 -2.76116 0
M  V30 5216 H 481.369 4.69525 -1.8043 0
M  V30 5217 H 481.069 4.67465 -3.5602 0
M  V30 5218 H 482.593 5.35886 -2.92675 0
M  V30 5219 H 484.007 3.64888 -4.42187 0
M  V30 5220 H 482.404 3.20245 -5.07507 0
M  V30 5221 H 483.474 1.93692 -4.44535 0
M  V30 5222 N 484.817 1.37938 0.762283 0
M  V30 5223 C 486.042 1.37059 1.55659 0
M  V30 5224 C 486.467 -0.0396123 1.88058 0
M  V30 5225 O 485.825 -1.01929 1.49934 0
M  V30 5226 C 485.873 2.22494 2.83776 0
M  V30 5227 O 484.977 1.63607 3.78559 0
M  V30 5228 H 484.318 0.467892 0.47114 0
M  V30 5229 H 486.848 1.81587 0.942725 0
M  V30 5230 H 486.858 2.36045 3.32786 0
M  V30 5231 H 485.533 3.24993 2.59524 0
M  V30 5232 H 484.11 1.5915 3.37233 0
M  V30 5233 N 486.295 -0.989507 1.22664 0
M  V30 5234 C 487.242 -2.08024 0.999733 0
M  V30 5235 C 488.212 -1.65909 -0.0797047 0
M  V30 5236 O 489.397 -1.90669 0.0705715 0
M  V30 5237 C 486.537 -3.40067 0.587234 0
M  V30 5238 C 485.65 -3.95505 1.73781 0
M  V30 5239 C 484.785 -5.15722 1.27297 0
M  V30 5240 C 483.824 -5.63305 2.39488 0
M  V30 5241 N 482.961 -6.74758 1.94026 0
M  V30 5242 H 487.801 -2.26768 1.9334 0
M  V30 5243 H 485.338 -1.11171 0.963297 0
M  V30 5244 H 487.296 -4.15899 0.329227 0
M  V30 5245 H 485.926 -3.21314 -0.309426 0
M  V30 5246 H 484.978 -3.16513 2.11006 0
M  V30 5247 H 486.29 -4.26797 2.58158 0
M  V30 5248 H 485.444 -5.98854 0.972546 0
M  V30 5249 H 484.183 -4.86061 0.399445 0
M  V30 5250 H 483.188 -4.78759 2.70315 0
M  V30 5251 H 484.413 -5.94988 3.27362 0
M  V30 5252 H 482.359 -6.46874 1.09041 0
M  V30 5253 H 482.276 -7.05386 2.71968 0
M  V30 5254 H 483.544 -7.61387 1.67062 0
M  V30 5255 N 487.773 -1.03688 -1.18687 0
M  V30 5256 C 488.998 -0.757819 -1.93059 0
M  V30 5257 C 489.423 0.678353 -1.75442 0
M  V30 5258 O 488.781 1.46938 -1.06203 0
M  V30 5259 C 488.829 -1.12423 -3.42627 0
M  V30 5260 O 487.933 -0.247505 -4.11657 0
M  V30 5261 H 487.274 -0.279245 -0.602427 0
M  V30 5262 H 489.804 -1.3857 -1.5053 0
M  V30 5263 H 489.814 -1.08454 -3.93322 0
M  V30 5264 H 488.489 -2.17049 -3.54771 0
M  V30 5265 H 487.066 -0.34649 -3.71287 0
M  V30 5266 N 489.251 1.34841 -0.815825 0
M  V30 5267 C 490.667 1.51543 -0.500697 0
M  V30 5268 C 490.867 1.76261 0.976444 0
M  V30 5269 O 489.923 1.8094 1.76117 0
M  V30 5270 C 491.236 2.68487 -1.35407 0
M  V30 5271 C 492.784 2.82368 -1.35046 0
M  V30 5272 C 493.259 4.02347 -2.18816 0
M  V30 5273 N 494.75 4.09542 -2.16402 0
M  V30 5274 C 495.485 5.01517 -2.77971 0
M  V30 5275 N 494.981 5.98763 -3.48503 0
M  V30 5276 N 496.774 4.94334 -2.67563 0
M  V30 5277 H 488.925 1.17055 -1.77234 0
M  V30 5278 H 491.188 0.573481 -0.754866 0
M  V30 5279 H 490.894 2.56829 -2.40274 0
M  V30 5280 H 490.768 3.63321 -1.01377 0
M  V30 5281 H 493.155 2.93471 -0.309604 0
M  V30 5282 H 493.236 1.88363 -1.73069 0
M  V30 5283 H 492.88 3.92004 -3.22948 0
M  V30 5284 H 492.81 4.95551 -1.78148 0
M  V30 5285 H 495.301 3.39932 -1.65091 0
M  V30 5286 H 495.614 6.6556 -3.92747 0
M  V30 5287 H 493.959 5.98909 -3.52609 0
M  V30 5288 H 497.15 4.1732 -2.12041 0
M  V30 5289 H 497.323 5.6582 -3.15834 0
M  V30 5290 N 490.729 0.570148 1.46925 0
M  V30 5291 C 491.661 -0.207909 2.28255 0
M  V30 5292 C 492.674 -0.867301 1.37774 0
M  V30 5293 O 493.863 -0.738976 1.62485 0
M  V30 5294 C 490.963 -1.31298 3.12433 0
M  V30 5295 C 490.136 -0.747915 4.30958 0
M  V30 5296 C 489.195 -1.7391 4.9663 0
M  V30 5297 O 488.221 -1.2801 5.54619 0
M  V30 5298 N 489.423 -3.07288 4.92498 0
M  V30 5299 H 492.188 0.489794 2.95671 0
M  V30 5300 H 489.749 0.407076 1.56699 0
M  V30 5301 H 491.741 -1.97507 3.53232 0
M  V30 5302 H 490.311 -1.91373 2.47175 0
M  V30 5303 H 489.531 0.0913066 3.94094 0
M  V30 5304 H 490.819 -0.349958 5.07595 0
M  V30 5305 H 490.217 -3.47213 4.46609 0
M  V30 5306 H 488.774 -3.69021 5.37277 0
M  V30 5307 N 492.207 -1.54576 0.307264 0
M  V30 5308 C 493.455 -1.99867 -0.299574 0
M  V30 5309 C 493.776 -1.19714 -1.53927 0
M  V30 5310 O 493.046 -0.29472 -1.9367 0
M  V30 5311 H 491.626 -0.738299 -0.113683 0
M  V30 5312 H 494.288 -1.9032 0.420042 0
M  V30 5313 H 493.384 -3.06901 -0.567283 0
M  V30 5314 N 493.685 -0.035106 -1.57561 0
M  V30 5315 C 494.91 0.655802 -1.96759 0
M  V30 5316 C 495.335 1.64523 -0.911809 0
M  V30 5317 O 494.693 1.80857 0.126673 0
M  V30 5318 C 494.741 1.33326 -3.35047 0
M  V30 5319 O 493.845 2.44866 -3.31835 0
M  V30 5320 H 493.186 0.171807 -0.641388 0
M  V30 5321 H 495.716 -0.0987369 -2.04362 0
M  V30 5322 H 495.726 1.68867 -3.71413 0
M  V30 5323 H 494.401 0.608033 -4.11431 0
M  V30 5324 H 492.978 2.11392 -3.07193 0
M  V30 5325 N 495.163 1.55791 0.238111 0
M  V30 5326 C 496.391 1.82098 0.982233 0
M  V30 5327 C 496.806 0.612025 1.78605 0
M  V30 5328 O 496.163 -0.419381 1.77616 0
M  V30 5329 C 496.214 3.0673 1.91309 0
M  V30 5330 O 495.935 4.2296 1.14179 0
M  V30 5331 C 497.436 3.45903 2.77248 0
M  V30 5332 H 494.656 0.605748 0.288635 0
M  V30 5333 H 497.2 2.02862 0.258341 0
M  V30 5334 H 495.355 2.87991 2.59114 0
M  V30 5335 H 495.769 4.93653 1.7722 0
M  V30 5336 H 497.243 4.36189 3.38295 0
M  V30 5337 H 497.72 2.66891 3.48806 0
M  V30 5338 H 498.326 3.67024 2.14881 0
M  V30 5339 N 496.642 -0.504142 1.49319 0
M  V30 5340 C 497.574 -1.62265 1.61872 0
M  V30 5341 C 498.587 -1.54881 0.501573 0
M  V30 5342 O 499.776 -1.6087 0.773497 0
M  V30 5343 C 496.876 -3.01042 1.55651 0
M  V30 5344 C 496.049 -3.33642 2.82845 0
M  V30 5345 C 495.108 -4.51816 2.69719 0
M  V30 5346 O 494.134 -4.53755 3.4365 0
M  V30 5347 N 495.336 -5.51543 1.81055 0
M  V30 5348 H 498.101 -1.51924 2.58339 0
M  V30 5349 H 495.662 -0.691954 1.46368 0
M  V30 5350 H 497.654 -3.78013 1.44528 0
M  V30 5351 H 496.224 -3.05323 0.670546 0
M  V30 5352 H 495.444 -2.45598 3.08343 0
M  V30 5353 H 496.732 -3.5222 3.67177 0
M  V30 5354 H 496.13 -5.52774 1.20241 0
M  V30 5355 H 494.687 -6.27629 1.75856 0
M  V30 5356 N 498.12 -1.38341 -0.754957 0
M  V30 5357 C 499.368 -1.34208 -1.51105 0
M  V30 5358 C 499.689 0.0677634 -1.94882 0
M  V30 5359 O 498.959 1.01517 -1.67544 0
M  V30 5360 H 497.539 -0.493819 -0.560493 0
M  V30 5361 H 500.201 -1.73005 -0.897507 0
M  V30 5362 H 499.297 -1.99203 -2.4026 0
M  V30 5363 N 499.598 0.982988 -1.23187 0
M  V30 5364 C 501.014 1.2487 -0.993967 0
M  V30 5365 C 501.214 1.99155 0.306498 0
M  V30 5366 O 500.27 2.30688 1.0266 0
M  V30 5367 C 501.583 2.05078 -2.19917 0
M  V30 5368 C 503.131 2.18227 -2.2438 0
M  V30 5369 C 503.606 3.01825 -3.44479 0
M  V30 5370 N 505.097 3.09411 -3.44702 0
M  V30 5371 C 505.832 3.74412 -4.34285 0
M  V30 5372 N 505.328 4.41259 -5.341 0
M  V30 5373 N 507.121 3.71273 -4.22035 0
M  V30 5374 H 499.272 0.485253 -2.06783 0
M  V30 5375 H 501.535 0.276979 -0.906635 0
M  V30 5376 H 501.241 1.57867 -3.14279 0
M  V30 5377 H 501.115 3.05829 -2.2079 0
M  V30 5378 H 503.502 2.64648 -1.30559 0
M  V30 5379 H 503.583 1.16873 -2.2754 0
M  V30 5380 H 503.227 2.56102 -4.38605 0
M  V30 5381 H 503.157 4.03342 -3.38559 0
M  V30 5382 H 505.648 2.61845 -2.7248 0
M  V30 5383 H 505.961 4.88629 -5.98717 0
M  V30 5384 H 504.306 4.39975 -5.38002 0
M  V30 5385 H 507.497 3.18217 -3.43301 0
M  V30 5386 H 507.67 4.21649 -4.92053 0
M  V30 5387 N 501.076 1.04316 1.18135 0
M  V30 5388 C 502.006 0.657299 2.24058 0
M  V30 5389 C 502.987 -0.340678 1.66654 0
M  V30 5390 O 504.172 -0.220223 1.92947 0
M  V30 5391 C 501.302 0.0220715 3.47293 0
M  V30 5392 C 500.256 0.943857 4.17463 0
M  V30 5393 C 499.582 0.172973 5.3442 0
M  V30 5394 C 500.882 2.26409 4.70677 0
M  V30 5395 H 502.576 1.5428 2.56589 0
M  V30 5396 H 500.122 0.743263 1.23335 0
M  V30 5397 H 502.075 -0.259607 4.206 0
M  V30 5398 H 500.799 -0.898323 3.14003 0
M  V30 5399 H 499.458 1.20996 3.46057 0
M  V30 5400 H 499.106 -0.749907 4.97379 0
M  V30 5401 H 498.806 0.787098 5.82304 0
M  V30 5402 H 500.33 -0.101628 6.10515 0
M  V30 5403 H 501.744 2.04294 5.35665 0
M  V30 5404 H 500.141 2.8314 5.29105 0
M  V30 5405 H 501.211 2.90883 3.87962 0
M  V30 5406 N 502.554 -1.34406 0.822964 0
M  V30 5407 C 503.831 -1.92733 0.333641 0
M  V30 5408 C 504.211 -1.75107 -1.17901 0
M  V30 5409 O 503.559 -1.12983 -1.98613 0
M  V30 5410 C 503.769 -3.40557 0.763023 0
M  V30 5411 C 505.117 -4.17709 0.761879 0
M  V30 5412 O 506.141 -3.49141 0.705606 0
M  V30 5413 O 505 -5.40082 0.835109 0
M  V30 5414 H 502.094 -0.821964 0.0911249 0
M  V30 5415 H 504.64 -1.4338 0.907757 0
M  V30 5416 H 503.412 -3.47187 1.8049 0
M  V30 5417 H 503.035 -3.97259 0.164605 0
M  V30 5418 N 504.032 -0.577932 -1.46621 0
M  V30 5419 C 505.309 0.00495287 -1.95599 0
M  V30 5420 C 505.689 1.46428 -1.5206 0
M  V30 5421 O 505.037 2.1517 -0.769046 0
M  V30 5422 C 505.247 -0.162114 -3.48623 0
M  V30 5423 C 506.595 -0.0274623 -4.24591 0
M  V30 5424 O 507.619 -0.0907067 -3.56084 0
M  V30 5425 O 506.478 0.1122 -5.46385 0
M  V30 5426 H 503.572 0.0525057 -0.825332 0
M  V30 5427 H 506.118 -0.645914 -1.56927 0
M  V30 5428 H 504.89 -1.17679 -3.73185 0
M  V30 5429 H 504.513 0.525407 -3.94113 0
M  V30 5430 N 505.51 1.54411 -0.315457 0
M  V30 5431 C 506.757 2.00419 0.289543 0
M  V30 5432 C 507.085 1.20373 1.52776 0
M  V30 5433 O 506.34 0.271769 1.93804 0
M  V30 5434 C 506.639 3.50936 0.676652 0
M  V30 5435 C 506.305 4.48532 -0.461472 0
M  V30 5436 C 504.967 4.74936 -0.773879 0
M  V30 5437 C 507.319 5.06567 -1.22637 0
M  V30 5438 C 504.647 5.56634 -1.85405 0
M  V30 5439 C 506.999 5.89441 -2.29657 0
M  V30 5440 C 505.663 6.1415 -2.61488 0
M  V30 5441 H 504.933 0.733386 0.105951 0
M  V30 5442 H 507.58 1.86434 -0.437554 0
M  V30 5443 H 505.885 3.62606 1.48405 0
M  V30 5444 H 507.582 3.83971 1.15618 0
M  V30 5445 H 504.172 4.28096 -0.207893 0
M  V30 5446 H 508.356 4.86157 -0.998271 0
M  V30 5447 H 503.612 5.74012 -2.10523 0
M  V30 5448 H 507.786 6.33432 -2.89374 0
M  V30 5449 H 505.413 6.77245 -3.45317 0
M  V30 5450 N 506.988 0.0434614 1.5754 0
M  V30 5451 C 508.235 -0.632035 1.92384 0
M  V30 5452 C 508.563 -1.71304 0.921157 0
M  V30 5453 O 507.818 -1.95583 -0.067744 0
M  V30 5454 C 508.117 -1.2738 3.3393 0
M  V30 5455 C 507.783 -0.321757 4.49751 0
M  V30 5456 C 506.445 -0.0597611 4.81163 0
M  V30 5457 C 508.797 0.331158 5.20147 0
M  V30 5458 C 506.125 0.862715 5.80322 0
M  V30 5459 C 508.477 1.24178 6.20292 0
M  V30 5460 C 507.141 1.51252 6.50138 0
M  V30 5461 H 506.411 -0.231278 0.703983 0
M  V30 5462 H 509.058 0.108294 1.91194 0
M  V30 5463 H 507.363 -2.08921 3.3145 0
M  V30 5464 H 509.06 -1.80326 3.58167 0
M  V30 5465 H 505.65 -0.53614 4.25233 0
M  V30 5466 H 509.834 0.141826 4.96097 0
M  V30 5467 H 505.09 1.08003 6.01785 0
M  V30 5468 H 509.264 1.75381 6.73954 0
M  V30 5469 H 506.891 2.22897 7.26788 0
M  V30 5470 N 508.466 -1.55915 -0.229846 0
M  V30 5471 C 509.413 -1.91734 -1.28478 0
M  V30 5472 C 510.383 -0.773539 -1.46988 0
M  V30 5473 O 511.568 -1.02871 -1.60693 0
M  V30 5474 C 508.708 -2.23224 -2.63182 0
M  V30 5475 C 507.821 -3.50497 -2.52539 0
M  V30 5476 C 506.956 -3.71474 -3.79711 0
M  V30 5477 C 505.995 -4.92289 -3.63755 0
M  V30 5478 N 505.132 -5.09698 -4.82858 0
M  V30 5479 H 509.972 -2.81692 -0.972308 0
M  V30 5480 H 507.509 -1.39429 -0.468815 0
M  V30 5481 H 509.467 -2.3949 -3.41614 0
M  V30 5482 H 508.097 -1.36451 -2.92542 0
M  V30 5483 H 507.149 -3.4247 -1.65585 0
M  V30 5484 H 508.461 -4.39079 -2.36666 0
M  V30 5485 H 507.615 -3.87791 -4.66586 0
M  V30 5486 H 506.354 -2.81157 -3.985 0
M  V30 5487 H 505.359 -4.7593 -2.75264 0
M  V30 5488 H 506.584 -5.84083 -3.46445 0
M  V30 5489 H 504.53 -4.22322 -5.01976 0
M  V30 5490 H 504.447 -5.92399 -4.69681 0
M  V30 5491 H 505.715 -5.30443 -5.71183 0
M  V30 5492 N 509.944 0.496216 -1.49584 0
M  V30 5493 C 511.19 1.25189 -1.59548 0
M  V30 5494 C 511.523 1.9212 -0.283466 0
M  V30 5495 O 510.798 1.80947 0.713324 0
M  V30 5496 C 511.081 2.31516 -2.75812 0
M  V30 5497 C 510.934 1.69054 -4.16822 0
M  V30 5498 C 512.253 3.3304 -2.87702 0
M  V30 5499 H 509.372 0.45379 -0.580727 0
M  V30 5500 H 512.014 0.549327 -1.81886 0
M  V30 5501 H 510.164 2.91438 -2.56897 0
M  V30 5502 H 511.836 1.12923 -4.47265 0
M  V30 5503 H 510.079 0.994485 -4.22247 0
M  V30 5504 H 510.75 2.462 -4.94054 0
M  V30 5505 H 513.226 2.83114 -3.04936 0
M  V30 5506 H 512.102 4.04794 -3.7072 0
M  V30 5507 H 512.363 3.95655 -1.97255 0
M  V30 5508 N 511.423 1.38739 0.74761 0
M  V30 5509 C 512.651 1.38521 1.53686 0
M  V30 5510 C 513.066 -0.0235129 1.88785 0
M  V30 5511 O 512.423 -0.991662 1.53207 0
M  V30 5512 C 512.474 2.24641 2.83229 0
M  V30 5513 O 512.195 3.60026 2.49625 0
M  V30 5514 C 513.696 2.32669 3.77333 0
M  V30 5515 H 510.916 0.473589 0.475347 0
M  V30 5516 H 513.46 1.82395 0.924786 0
M  V30 5517 H 511.615 1.84213 3.40799 0
M  V30 5518 H 512.029 4.05435 3.3275 0
M  V30 5519 H 513.503 2.97201 4.65162 0
M  V30 5520 H 513.98 1.3421 4.18192 0
M  V30 5521 H 514.586 2.73512 3.25685 0
M  V30 5522 N 512.901 -0.976442 1.23707 0
M  V30 5523 C 514.149 -1.71487 1.06942 0
M  V30 5524 C 514.47 -1.9098 -0.393897 0
M  V30 5525 O 513.74 -1.48128 -1.28198 0
M  V30 5526 H 512.32 -0.635425 0.392739 0
M  V30 5527 H 514.982 -1.17515 1.55487 0
M  V30 5528 H 514.078 -2.70286 1.56051 0
M  V30 5529 N 514.379 -1.04941 -1.1758 0
M  V30 5530 C 515.604 -0.778253 -1.92245 0
M  V30 5531 C 516.029 0.659707 -1.76152 0
M  V30 5532 O 515.387 1.45803 -1.07755 0
M  V30 5533 C 515.435 -1.16051 -3.41416 0
M  V30 5534 O 514.539 -0.291153 -4.11371 0
M  V30 5535 H 513.88 -0.285619 -0.599431 0
M  V30 5536 H 516.41 -1.40159 -1.49052 0
M  V30 5537 H 516.42 -1.12619 -3.92149 0
M  V30 5538 H 515.095 -2.208 -3.52449 0
M  V30 5539 H 513.672 -0.385851 -3.70898 0
M  V30 5540 N 515.857 1.33968 -0.830081 0
M  V30 5541 C 516.787 2.31911 -0.271911 0
M  V30 5542 C 517.768 1.58571 0.61556 0
M  V30 5543 O 518.953 1.86514 0.540946 0
M  V30 5544 C 516.083 3.42737 0.561146 0
M  V30 5545 C 515.037 4.27383 -0.229789 0
M  V30 5546 C 514.363 5.29742 0.726463 0
M  V30 5547 C 515.663 5.02 -1.44197 0
M  V30 5548 H 517.357 2.78844 -1.09025 0
M  V30 5549 H 514.903 1.34061 -0.52571 0
M  V30 5550 H 516.856 4.10276 0.961867 0
M  V30 5551 H 515.58 2.94471 1.41261 0
M  V30 5552 H 514.239 3.61456 -0.611964 0
M  V30 5553 H 513.887 4.77736 1.57408 0
M  V30 5554 H 513.587 5.87255 0.20142 0
M  V30 5555 H 515.111 6.00149 1.12489 0
M  V30 5556 H 516.525 5.62355 -1.11488 0
M  V30 5557 H 514.922 5.69122 -1.90317 0
M  V30 5558 H 515.992 4.31281 -2.2164 0
M  V30 5559 N 517.335 0.585699 1.46312 0
M  V30 5560 C 518.56 0.0762461 2.0726 0
M  V30 5561 C 518.985 -1.22071 1.43109 0
M  V30 5562 O 518.343 -1.73804 0.515942 0
M  V30 5563 C 518.391 -0.0729404 3.60526 0
M  V30 5564 O 517.495 -1.1287 3.96654 0
M  V30 5565 H 516.836 0.0641558 0.660893 0
M  V30 5566 H 519.366 0.809492 1.87905 0
M  V30 5567 H 519.376 -0.278158 4.07051 0
M  V30 5568 H 518.051 0.874188 4.06609 0
M  V30 5569 H 516.628 -0.901703 3.61834 0
M  V30 5570 N 518.813 -1.54241 0.323641 0
M  V30 5571 C 520.038 -2.05452 -0.283605 0
M  V30 5572 C 520.463 -1.19823 -1.44997 0
M  V30 5573 O 519.821 -0.207358 -1.8011 0
M  V30 5574 C 519.869 -3.53823 -0.695795 0
M  V30 5575 O 518.973 -3.71134 -1.79815 0
M  V30 5576 H 518.314 -0.662024 -0.0511917 0
M  V30 5577 H 520.844 -1.99079 0.472073 0
M  V30 5578 H 520.854 -3.96094 -0.978434 0
M  V30 5579 H 519.529 -4.15602 0.157287 0
M  V30 5580 H 518.106 -3.40768 -1.51431 0
M  V30 5581 N 520.291 -0.0518155 -1.57515 0
M  V30 5582 C 521.254 0.907547 -2.10467 0
M  V30 5583 C 522.254 1.23947 -1.02439 0
M  V30 5584 O 523.444 1.17604 -1.2851 0
M  V30 5585 C 520.576 2.21723 -2.58944 0
M  V30 5586 H 521.769 0.44851 -2.96527 0
M  V30 5587 H 519.322 0.196598 -1.55059 0
M  V30 5588 H 520.057 2.72206 -1.76279 0
M  V30 5589 H 519.842 1.98935 -3.37886 0
M  V30 5590 H 521.332 2.90441 -3.00056 0
M  V30 5591 N 521.769 1.56035 0.221574 0
M  V30 5592 C 522.716 1.92413 1.27459 0
M  V30 5593 C 523.686 0.781323 1.46576 0
M  V30 5594 O 524.871 1.03721 1.60145 0
M  V30 5595 C 522.011 2.24617 2.61995 0
M  V30 5596 C 521.124 3.51831 2.50677 0
M  V30 5597 C 520.259 3.73482 3.77736 0
M  V30 5598 C 519.298 4.94211 3.6114 0
M  V30 5599 N 518.435 5.12252 4.80148 0
M  V30 5600 H 523.275 2.82203 0.957355 0
M  V30 5601 H 520.812 1.39676 0.461415 0
M  V30 5602 H 522.77 2.41298 3.40339 0
M  V30 5603 H 521.4 1.38 2.91815 0
M  V30 5604 H 520.452 3.43343 1.63767 0
M  V30 5605 H 521.764 4.40328 2.34334 0
M  V30 5606 H 520.918 3.9026 4.64523 0
M  V30 5607 H 519.657 2.83266 3.97003 0
M  V30 5608 H 518.662 4.77384 2.72736 0
M  V30 5609 H 519.887 5.85912 3.43343 0
M  V30 5610 H 517.833 4.24978 4.99729 0
M  V30 5611 H 517.75 5.94881 4.66532 0
M  V30 5612 H 519.018 5.33465 5.68362 0
M  V30 5613 N 523.247 -0.488276 1.49845 0
M  V30 5614 C 524.663 -0.820566 1.3689 0
M  V30 5615 C 524.863 -1.97248 0.411752 0
M  V30 5616 O 523.919 -2.52042 -0.151931 0
M  V30 5617 C 525.232 -1.1488 2.77891 0
M  V30 5618 C 526.78 -1.25626 2.86683 0
M  V30 5619 C 527.255 -1.61772 4.28479 0
M  V30 5620 N 528.746 -1.68797 4.31349 0
M  V30 5621 C 529.481 -1.98235 5.38043 0
M  V30 5622 N 528.977 -2.2581 6.54967 0
M  V30 5623 N 530.77 -1.99593 5.2547 0
M  V30 5624 H 522.921 0.271123 2.10662 0
M  V30 5625 H 525.184 0.058735 0.946179 0
M  V30 5626 H 524.89 -0.375614 3.49688 0
M  V30 5627 H 524.764 -2.08919 3.14058 0
M  V30 5628 H 527.151 -2.02014 2.15114 0
M  V30 5629 H 527.232 -0.296072 2.54081 0
M  V30 5630 H 526.876 -0.859295 5.00578 0
M  V30 5631 H 526.806 -2.58912 4.58554 0
M  V30 5632 H 529.297 -1.49595 3.4703 0
M  V30 5633 H 529.61 -2.47497 7.32096 0
M  V30 5634 H 527.955 -2.23239 6.58171 0
M  V30 5635 H 531.146 -1.77535 4.33127 0
M  V30 5636 H 531.319 -2.222 6.08713 0
M  V30 5637 N 524.725 -1.39134 -0.740242 0
M  V30 5638 C 525.672 -1.37434 -1.8542 0
M  V30 5639 C 526.642 -0.234822 -1.64432 0
M  V30 5640 O 527.827 -0.429125 -1.85912 0
M  V30 5641 C 524.967 -1.21844 -3.22875 0
M  V30 5642 C 524.08 -2.45296 -3.55603 0
M  V30 5643 C 523.215 -2.22334 -4.82432 0
M  V30 5644 C 522.254 -3.41488 -5.07988 0
M  V30 5645 N 521.391 -3.17877 -6.26018 0
M  V30 5646 H 526.231 -2.3266 -1.86207 0
M  V30 5647 H 523.768 -1.15578 -0.909946 0
M  V30 5648 H 525.726 -1.10818 -4.02213 0
M  V30 5649 H 524.356 -0.3025 -3.21379 0
M  V30 5650 H 523.408 -2.66945 -2.71006 0
M  V30 5651 H 524.72 -3.34063 -3.7041 0
M  V30 5652 H 523.874 -2.0852 -5.69741 0
M  V30 5653 H 522.613 -1.30954 -4.6979 0
M  V30 5654 H 521.618 -3.55807 -4.19144 0
M  V30 5655 H 522.843 -4.33763 -5.22519 0
M  V30 5656 H 520.789 -2.29156 -6.14673 0
M  V30 5657 H 520.706 -4.00198 -6.41387 0
M  V30 5658 H 521.974 -3.07746 -7.16179 0
M  V30 5659 N 526.204 0.969867 -1.24223 0
M  V30 5660 C 527.114 2.09806 -1.0497 0
M  V30 5661 C 528.13 1.73998 0.00886455 0
M  V30 5662 O 529.306 2.00513 -0.188848 0
M  V30 5663 C 526.371 3.40467 -0.654452 0
M  V30 5664 C 525.432 3.90236 -1.78926 0
M  V30 5665 C 524.665 5.14662 -1.41277 0
M  V30 5666 O 524.888 5.69602 -0.301632 0
M  V30 5667 O 523.822 5.58761 -2.23763 0
M  V30 5668 H 527.648 2.28942 -1.99548 0
M  V30 5669 H 525.233 1.08197 -1.03023 0
M  V30 5670 H 527.115 4.19039 -0.445452 0
M  V30 5671 H 525.79 3.22636 0.262216 0
M  V30 5672 H 524.697 3.12735 -2.05299 0
M  V30 5673 H 526.03 4.1254 -2.68462 0
M  V30 5674 N 527.682 1.05563 1.17022 0
M  V30 5675 C 529.093 0.793475 1.69 0
M  V30 5676 C 529.444 -0.683882 1.83895 0
M  V30 5677 O 528.569 -1.53116 1.5292 0
M  V30 5678 C 529.164 1.43376 3.06967 0
M  V30 5679 C 527.723 1.21956 3.56095 0
M  V30 5680 C 526.87 1.51494 2.3226 0
M  V30 5681 H 529.821 1.22008 1.01487 0
M  V30 5682 H 529.842 0.845068 3.70997 0
M  V30 5683 H 529.354 2.50899 2.96093 0
M  V30 5684 H 527.455 0.163749 3.7224 0
M  V30 5685 H 527.568 1.92713 4.38633 0
M  V30 5686 H 525.932 0.935175 2.3691 0
M  V30 5687 H 526.715 2.60159 2.23992 0
M  V30 5688 N 529.16 -1.33526 0.837174 0
M  V30 5689 C 530.07 -2.33023 0.271568 0
M  V30 5690 C 531.086 -1.63272 -0.601514 0
M  V30 5691 O 532.262 -1.94939 -0.506038 0
M  V30 5692 C 529.327 -3.42382 -0.545448 0
M  V30 5693 C 528.388 -4.27857 0.351709 0
M  V30 5694 C 527.621 -5.31994 -0.426409 0
M  V30 5695 O 527.844 -5.45763 -1.65828 0
M  V30 5696 O 526.778 -6.01572 0.1987 0
M  V30 5697 H 530.604 -2.83256 1.09545 0
M  V30 5698 H 528.189 -1.36837 0.599655 0
M  V30 5699 H 530.071 -4.09122 -1.00979 0
M  V30 5700 H 528.746 -2.94369 -1.34641 0
M  V30 5701 H 527.653 -3.6399 0.863853 0
M  V30 5702 H 528.986 -4.79349 1.1174 0
M  V30 5703 N 530.638 -0.59345 -1.46 0
M  V30 5704 C 532.049 -0.169801 -1.85926 0
M  V30 5705 C 532.4 1.26984 -1.49565 0
M  V30 5706 O 531.525 1.96076 -0.915602 0
M  V30 5707 C 532.12 -0.301385 -3.37457 0
M  V30 5708 C 530.679 0.0674684 -3.7634 0
M  V30 5709 C 529.826 -0.632383 -2.69993 0
M  V30 5710 H 532.777 -0.801014 -1.37002 0
M  V30 5711 H 532.798 0.470331 -3.77582 0
M  V30 5712 H 532.31 -1.34927 -3.63891 0
M  V30 5713 H 530.411 1.11507 -3.55523 0
M  V30 5714 H 530.524 -0.316332 -4.78055 0
M  V30 5715 H 528.888 -0.0714961 -2.546 0
M  V30 5716 H 529.671 -1.68212 -2.99265 0
M  V30 5717 N 532.116 1.54067 -0.331816 0
M  V30 5718 C 533.063 2.24623 0.530372 0
M  V30 5719 C 534.033 1.24009 1.10503 0
M  V30 5720 O 535.218 1.52712 1.14384 0
M  V30 5721 C 532.358 3.01374 1.68129 0
M  V30 5722 C 531.471 4.16821 1.13507 0
M  V30 5723 C 530.606 4.81085 2.25234 0
M  V30 5724 C 529.645 5.88621 1.67903 0
M  V30 5725 N 528.782 6.46713 2.73326 0
M  V30 5726 H 533.622 2.97898 -0.0778607 0
M  V30 5727 H 531.159 1.47014 -0.0501965 0
M  V30 5728 H 533.117 3.44125 2.35868 0
M  V30 5729 H 531.747 2.30419 2.26069 0
M  V30 5730 H 530.799 3.78796 0.348979 0
M  V30 5731 H 532.111 4.94203 0.675633 0
M  V30 5732 H 531.265 5.26846 3.00862 0
M  V30 5733 H 530.004 4.03102 2.74518 0
M  V30 5734 H 529.009 5.42254 0.907773 0
M  V30 5735 H 530.234 6.68506 1.19487 0
M  V30 5736 H 528.18 5.71599 3.21886 0
M  V30 5737 H 528.097 7.19532 2.3197 0
M  V30 5738 H 529.365 6.97129 3.48758 0
M  V30 5739 N 533.594 0.0601682 1.57485 0
M  V30 5740 C 534.842 -0.610386 1.92662 0
M  V30 5741 C 535.163 -1.70849 0.939981 0
M  V30 5742 O 534.433 -1.95895 -0.0137455 0
M  V30 5743 H 533.013 -0.228457 0.711208 0
M  V30 5744 H 535.675 0.115288 1.94559 0
M  V30 5745 H 534.771 -1.0432 2.94149 0
M  V30 5746 N 535.072 -1.5615 -0.213296 0
M  V30 5747 C 536.297 -1.83986 -0.957282 0
M  V30 5748 C 536.722 -0.641526 -1.76822 0
M  V30 5749 O 536.08 0.409722 -1.7661 0
M  V30 5750 C 536.128 -3.09889 -1.84393 0
M  V30 5751 O 535.232 -2.89163 -2.94038 0
M  V30 5752 H 534.573 -0.606357 -0.270605 0
M  V30 5753 H 537.103 -2.03369 -0.224111 0
M  V30 5754 H 537.113 -3.40209 -2.25215 0
M  V30 5755 H 535.788 -3.96735 -1.24795 0
M  V30 5756 H 534.365 -2.70097 -2.57103 0
M  V30 5757 N 536.55 0.480323 -1.50102 0
M  V30 5758 C 537.778 1.25657 -1.64371 0
M  V30 5759 C 538.193 1.86011 -0.323316 0
M  V30 5760 O 537.55 1.68803 0.693682 0
M  V30 5761 C 537.601 2.37197 -2.728 0
M  V30 5762 O 537.322 1.7932 -3.9972 0
M  V30 5763 C 538.823 3.2823 -2.9796 0
M  V30 5764 H 536.043 0.380369 -0.552775 0
M  V30 5765 H 538.587 0.574379 -1.96268 0
M  V30 5766 H 536.742 3.01208 -2.43623 0
M  V30 5767 H 537.156 2.52701 -4.59611 0
M  V30 5768 H 538.63 4.02725 -3.77513 0
M  V30 5769 H 539.107 3.86462 -2.08671 0
M  V30 5770 H 539.713 2.69964 -3.28633 0
M  V30 5771 N 538.028 1.39524 0.732853 0
M  V30 5772 C 538.975 1.38416 1.84688 0
M  V30 5773 C 539.945 0.243539 1.64305 0
M  V30 5774 O 541.13 0.438979 1.85681 0
M  V30 5775 C 538.27 1.23555 3.22224 0
M  V30 5776 C 537.383 2.47179 3.54298 0
M  V30 5777 C 536.518 2.2489 4.81246 0
M  V30 5778 C 535.557 3.44178 5.0617 0
M  V30 5779 N 534.694 3.21192 6.24323 0
M  V30 5780 H 539.534 2.33645 1.84971 0
M  V30 5781 H 537.071 1.16059 0.903804 0
M  V30 5782 H 539.029 1.12949 4.0162 0
M  V30 5783 H 537.659 0.31954 3.21215 0
M  V30 5784 H 536.711 2.68379 2.69587 0
M  V30 5785 H 538.023 3.36022 3.68633 0
M  V30 5786 H 537.177 2.11538 5.68627 0
M  V30 5787 H 535.916 1.33443 4.69089 0
M  V30 5788 H 534.921 3.58025 4.17251 0
M  V30 5789 H 536.146 4.36528 5.20212 0
M  V30 5790 H 534.092 2.32413 6.1345 0
M  V30 5791 H 534.009 4.03594 6.39256 0
M  V30 5792 H 535.277 3.1154 7.14537 0
M  V30 5793 N 539.506 -0.963266 1.24736 0
M  V30 5794 C 540.453 -2.05857 1.04363 0
M  V30 5795 C 541.423 -1.6604 -0.0444951 0
M  V30 5796 O 542.608 -1.90477 0.110999 0
M  V30 5797 C 539.748 -3.38745 0.659235 0
M  V30 5798 C 538.861 -3.9173 1.82131 0
M  V30 5799 C 537.996 -5.12906 1.38208 0
M  V30 5800 C 537.035 -5.58098 2.51382 0
M  V30 5801 N 536.172 -6.7049 2.08295 0
M  V30 5802 H 541.012 -2.22616 1.98107 0
M  V30 5803 H 538.549 -1.09103 0.986661 0
M  V30 5804 H 540.507 -4.15107 0.417371 0
M  V30 5805 H 539.137 -3.21898 -0.241201 0
M  V30 5806 H 538.189 -3.11966 2.17672 0
M  V30 5807 H 539.501 -4.21225 2.67153 0
M  V30 5808 H 538.655 -5.96657 1.09935 0
M  V30 5809 H 537.394 -4.85105 0.502456 0
M  V30 5810 H 536.399 -4.72917 2.80409 0
M  V30 5811 H 537.624 -5.87911 3.39909 0
M  V30 5812 H 535.57 -6.44416 1.22737 0
M  V30 5813 H 535.487 -6.99458 2.86869 0
M  V30 5814 H 536.755 -7.57672 1.83175 0
M  V30 5815 N 540.985 -1.06182 -1.16461 0
M  V30 5816 C 541.932 -0.671613 -2.20812 0
M  V30 5817 C 542.902 0.331186 -1.62765 0
M  V30 5818 O 544.087 0.22033 -1.89524 0
M  V30 5819 C 541.227 -0.063029 -3.45042 0
M  V30 5820 C 540.34 -1.11587 -4.1734 0
M  V30 5821 C 539.475 -0.473546 -5.29085 0
M  V30 5822 C 538.514 -1.51 -5.93182 0
M  V30 5823 N 537.651 -0.891118 -6.96422 0
M  V30 5824 H 542.491 -1.56589 -2.53542 0
M  V30 5825 H 540.028 -0.782951 -1.24532 0
M  V30 5826 H 541.986 0.307344 -4.16066 0
M  V30 5827 H 540.616 0.794663 -3.12866 0
M  V30 5828 H 539.668 -1.60396 -3.44931 0
M  V30 5829 H 540.98 -1.90221 -4.61104 0
M  V30 5830 H 540.134 -0.0501432 -6.06679 0
M  V30 5831 H 538.873 0.344687 -4.8648 0
M  V30 5832 H 537.878 -1.94331 -5.14311 0
M  V30 5833 H 539.103 -2.33031 -6.37866 0
M  V30 5834 H 537.049 -0.0935753 -6.55933 0
M  V30 5835 H 536.966 -1.61486 -7.38551 0
M  V30 5836 H 538.234 -0.492822 -7.77941 0
M  V30 5837 N 542.463 1.3308 -0.844243 0
M  V30 5838 C 543.426 2.27403 -0.286485 0
M  V30 5839 C 544.426 1.51179 0.547872 0
M  V30 5840 O 545.616 1.70421 0.360886 0
M  V30 5841 C 542.748 3.35653 0.595813 0
M  V30 5842 H 543.941 2.78248 -1.11885 0
M  V30 5843 H 541.494 1.43574 -0.617749 0
M  V30 5844 H 542.229 2.90058 1.4504 0
M  V30 5845 H 542.014 3.921 -0.00125994 0
M  V30 5846 H 543.504 4.05958 0.979168 0
M  V30 5847 N 543.941 0.601185 1.45683 0
M  V30 5848 C 544.888 -0.121396 2.30481 0
M  V30 5849 C 545.858 -0.866232 1.41724 0
M  V30 5850 O 547.043 -0.85324 1.70659 0
M  V30 5851 C 544.183 -1.11704 3.26521 0
M  V30 5852 C 543.296 -0.373741 4.3038 0
M  V30 5853 C 542.431 -1.35854 5.13534 0
M  V30 5854 C 541.47 -0.602689 6.09126 0
M  V30 5855 N 540.607 -1.53645 6.85082 0
M  V30 5856 H 545.447 0.607732 2.91737 0
M  V30 5857 H 542.984 0.311502 1.43764 0
M  V30 5858 H 544.942 -1.70735 3.80664 0
M  V30 5859 H 543.572 -1.81366 2.67032 0
M  V30 5860 H 542.624 0.331962 3.78949 0
M  V30 5861 H 543.936 0.2163 4.98331 0
M  V30 5862 H 543.09 -2.02111 5.72046 0
M  V30 5863 H 541.829 -1.98251 4.45587 0
M  V30 5864 H 540.834 0.0735482 5.49751 0
M  V30 5865 H 542.059 0.0161467 6.79098 0
M  V30 5866 H 540.005 -2.14819 6.1983 0
M  V30 5867 H 539.922 -0.999688 7.49361 0
M  V30 5868 H 541.19 -2.1888 7.48139 0
M  V30 5869 N 545.419 -1.53889 0.339982 0
M  V30 5870 C 546.647 -2.05271 -0.259114 0
M  V30 5871 C 547.062 -1.21517 -1.44496 0
M  V30 5872 O 546.419 -0.24966 -1.80784 0
M  V30 5873 C 546.47 -3.55092 -0.677634 0
M  V30 5874 O 546.191 -4.35667 0.461051 0
M  V30 5875 C 547.692 -4.22631 -1.33782 0
M  V30 5876 H 544.912 -0.669085 -0.0506566 0
M  V30 5877 H 547.456 -1.9852 0.490935 0
M  V30 5878 H 545.611 -3.62077 -1.37763 0
M  V30 5879 H 546.025 -5.24343 0.128144 0
M  V30 5880 H 547.499 -5.28861 -1.58145 0
M  V30 5881 H 547.976 -3.74758 -2.29027 0
M  V30 5882 H 548.582 -4.19829 -0.679957 0
M  V30 5883 N 546.897 -0.0685191 -1.57451 0
M  V30 5884 C 548.145 0.60016 -1.92983 0
M  V30 5885 C 548.466 1.70348 -0.949028 0
M  V30 5886 O 547.736 1.959 0.00335647 0
M  V30 5887 H 546.316 0.224682 -0.712409 0
M  V30 5888 H 548.978 -0.125605 -1.94495 0
M  V30 5889 H 548.074 1.02759 -2.94698 0
M  V30 5890 N 548.375 1.56261 0.205012 0
M  V30 5891 C 549.338 1.92908 1.23771 0
M  V30 5892 C 550.338 0.809208 1.38955 0
M  V30 5893 O 551.528 1.07676 1.36936 0
M  V30 5894 C 548.66 2.19442 2.60879 0
M  V30 5895 H 549.853 2.85287 0.924728 0
M  V30 5896 H 547.406 1.49798 0.446125 0
M  V30 5897 H 548.141 1.29668 2.97248 0
M  V30 5898 H 547.926 3.0104 2.51232 0
M  V30 5899 H 549.416 2.48833 3.35368 0
M  V30 5900 N 549.853 -0.472356 1.50355 0
M  V30 5901 C 550.816 -1.5529 1.68576 0
M  V30 5902 C 551.816 -1.50863 0.556511 0
M  V30 5903 O 553.006 -1.53505 0.823516 0
M  V30 5904 C 550.138 -2.94921 1.70981 0
M  V30 5905 H 551.331 -1.40451 2.64978 0
M  V30 5906 H 548.884 -0.698645 1.39816 0
M  V30 5907 H 549.619 -3.15204 0.762675 0
M  V30 5908 H 549.404 -2.99541 2.53017 0
M  V30 5909 H 550.894 -3.73372 1.87037 0
M  V30 5910 N 551.331 -1.39911 -0.725443 0
M  V30 5911 C 552.579 -1.37382 -1.48224 0
M  V30 5912 C 552.9 0.0264107 -1.94982 0
M  V30 5913 O 552.17 0.979408 -1.6966 0
M  V30 5914 H 550.75 -0.505596 -0.549892 0
M  V30 5915 H 553.412 -1.7487 -0.860608 0
M  V30 5916 H 552.508 -2.04254 -2.3598 0
M  V30 5917 N 552.809 0.956637 -1.25245 0
M  V30 5918 C 553.756 2.053 -1.05454 0
M  V30 5919 C 554.726 1.66062 0.0356889 0
M  V30 5920 O 555.911 1.90415 -0.121099 0
M  V30 5921 C 553.051 3.38391 -0.677191 0
M  V30 5922 C 552.164 3.90758 -1.84206 0
M  V30 5923 C 551.299 5.12165 -1.40926 0
M  V30 5924 C 550.338 5.56757 -2.54338 0
M  V30 5925 N 549.475 6.69376 -2.11848 0
M  V30 5926 H 554.315 2.21562 -1.99284 0
M  V30 5927 H 551.852 1.08578 -0.992434 0
M  V30 5928 H 553.81 4.1488 -0.43938 0
M  V30 5929 H 552.44 3.22021 0.224127 0
M  V30 5930 H 551.492 3.10808 -2.19323 0
M  V30 5931 H 552.804 4.19802 -2.69383 0
M  V30 5932 H 551.958 5.96065 -1.13098 0
M  V30 5933 H 550.697 4.84832 -0.528175 0
M  V30 5934 H 549.702 4.71423 -2.82913 0
M  V30 5935 H 550.927 5.861 -3.43022 0
M  V30 5936 H 548.873 6.43756 -1.26153 0
M  V30 5937 H 548.79 6.97927 -2.90574 0
M  V30 5938 H 550.058 7.5669 -1.87191 0
M  V30 5939 N 554.287 1.06798 1.15896 0
M  V30 5940 C 555.534 0.787767 1.86549 0
M  V30 5941 C 555.862 -0.685959 1.82002 0
M  V30 5942 O 555.117 -1.5188 1.23414 0
M  V30 5943 C 555.416 1.23414 3.35416 0
M  V30 5944 C 555.082 2.71285 3.6016 0
M  V30 5945 C 553.744 3.11676 3.66622 0
M  V30 5946 C 556.096 3.6676 3.7032 0
M  V30 5947 C 553.424 4.4637 3.8075 0
M  V30 5948 C 555.776 5.01209 3.8597 0
M  V30 5949 C 554.44 5.41229 3.90676 0
M  V30 5950 H 553.71 0.288264 0.682631 0
M  V30 5951 H 556.357 1.338 1.37003 0
M  V30 5952 H 554.662 0.60319 3.87129 0
M  V30 5953 H 556.359 0.994298 3.88477 0
M  V30 5954 H 552.949 2.39015 3.55767 0
M  V30 5955 H 557.133 3.36685 3.64633 0
M  V30 5956 H 552.389 4.76855 3.82648 0
M  V30 5957 H 556.563 5.75067 3.92773 0
M  V30 5958 H 554.19 6.45602 4.01375 0
M  V30 5959 N 555.766 -1.3263 0.851289 0
M  V30 5960 C 556.713 -2.28952 0.291469 0
M  V30 5961 C 557.683 -1.54897 -0.599676 0
M  V30 5962 O 558.868 -1.83137 -0.535305 0
M  V30 5963 C 556.008 -3.41206 -0.516992 0
M  V30 5964 C 555.121 -4.30148 0.399566 0
M  V30 5965 C 554.256 -5.29527 -0.4212 0
M  V30 5966 C 553.295 -6.10112 0.492969 0
M  V30 5967 N 552.432 -7.01499 -0.290414 0
M  V30 5968 H 557.272 -2.76228 1.11813 0
M  V30 5969 H 554.809 -1.35907 0.562826 0
M  V30 5970 H 556.767 -4.05005 -1.00132 0
M  V30 5971 H 555.397 -2.9509 -1.30851 0
M  V30 5972 H 554.449 -3.66959 1.00227 0
M  V30 5973 H 555.761 -4.8649 1.1013 0
M  V30 5974 H 554.915 -5.98914 -0.968832 0
M  V30 5975 H 553.654 -4.73794 -1.15632 0
M  V30 5976 H 552.659 -5.39632 1.05251 0
M  V30 5977 H 553.884 -6.6793 1.22664 0
M  V30 5978 H 551.83 -6.48199 -1.00868 0
M  V30 5979 H 551.747 -7.55178 0.352354 0
M  V30 5980 H 553.015 -7.75176 -0.819882 0
M  V30 5981 N 557.244 -0.608902 -1.45362 0
M  V30 5982 C 558.66 -0.272659 -1.57254 0
M  V30 5983 C 558.86 1.22477 -1.60005 0
M  V30 5984 O 557.916 2.00785 -1.53106 0
M  V30 5985 C 559.229 -0.944991 -2.85465 0
M  V30 5986 C 560.777 -0.921033 -2.99142 0
M  V30 5987 C 561.252 -1.5734 -4.30126 0
M  V30 5988 N 562.743 -1.53895 -4.36887 0
M  V30 5989 C 563.478 -2.01286 -5.36909 0
M  V30 5990 N 562.974 -2.56768 -6.43461 0
M  V30 5991 N 564.767 -1.92046 -5.28275 0
M  V30 5992 H 556.918 -1.58117 -1.4182 0
M  V30 5993 H 559.181 -0.662437 -0.678146 0
M  V30 5994 H 558.887 -1.99941 -2.89338 0
M  V30 5995 H 558.761 -0.469079 -3.74272 0
M  V30 5996 H 561.148 0.124846 -2.94836 0
M  V30 5997 H 561.229 -1.43522 -2.11743 0
M  V30 5998 H 560.873 -2.61862 -4.35191 0
M  V30 5999 H 560.803 -1.03422 -5.16344 0
M  V30 6000 H 563.294 -1.13366 -3.60495 0
M  V30 6001 H 563.607 -2.9072 -7.16032 0
M  V30 6002 H 561.952 -2.60808 -6.44208 0
M  V30 6003 H 565.143 -1.48439 -4.43941 0
M  V30 6004 H 565.316 -2.29293 -6.06077 0
M  V30 6005 N 558.722 1.53707 -0.348139 0
M  V30 6006 C 559.97 2.00591 0.246478 0
M  V30 6007 C 560.291 1.23753 1.50699 0
M  V30 6008 O 559.561 0.345964 1.92821 0
M  V30 6009 H 558.141 0.741053 0.0940679 0
M  V30 6010 H 560.803 1.89139 -0.470354 0
M  V30 6011 H 559.899 3.08297 0.485714 0
M  V30 6012 N 560.2 0.0768682 1.57412 0
M  V30 6013 C 561.147 -0.888577 2.13009 0
M  V30 6014 C 562.117 -1.29198 1.0439 0
M  V30 6015 O 563.302 -1.37694 1.3208 0
M  V30 6016 C 560.442 -2.14899 2.70023 0
M  V30 6017 C 559.555 -1.79777 3.92816 0
M  V30 6018 C 558.69 -3.00467 4.38056 0
M  V30 6019 C 557.729 -2.61385 5.53484 0
M  V30 6020 N 556.866 -3.74851 5.93659 0
M  V30 6021 H 561.706 -0.407593 2.95199 0
M  V30 6022 H 559.243 -0.189534 1.45874 0
M  V30 6023 H 561.201 -2.88688 3.0119 0
M  V30 6024 H 559.831 -2.60529 1.9059 0
M  V30 6025 H 558.883 -0.960301 3.68079 0
M  V30 6026 H 560.195 -1.47027 4.76639 0
M  V30 6027 H 559.349 -3.82529 4.7091 0
M  V30 6028 H 558.088 -3.36413 3.53097 0
M  V30 6029 H 557.093 -1.77746 5.20275 0
M  V30 6030 H 558.318 -2.26603 6.40178 0
M  V30 6031 H 556.264 -4.1055 5.11649 0
M  V30 6032 H 556.181 -3.45887 6.72234 0
M  V30 6033 H 557.449 -4.57477 6.31138 0
M  V30 6034 O 561.717 -1.61375 -0.0636308 0
M  V30 6035 H 562.408 -1.81049 -0.688533 0
M  V30 END ATOM
M  V30 BEGIN BOND
M  V30 END BOND
M  V30 END CTAB
M  END
$$$$
