drugbank_target|P39805 Transcription antiterminator LicT (DB04530)
 OpenBabel12092120303D

  0  0  0     0  0            999 V3000
M  V30 BEGIN CTAB
M  V30 COUNTS 4586 4624 0 0 0
M  V30 BEGIN ATOM
M  V30 1 H -0.908 1.98254 -0.117106 0
M  V30 2 N 0 1.576 0 0
M  V30 3 C 0.933 2.03868 1.02534 0
M  V30 4 C 1.911 0.928543 1.3348 0
M  V30 5 O 3.095 1.19667 1.45644 0
M  V30 6 C 0.222 2.43627 2.35294 0
M  V30 7 C -0.732 3.65373 2.2001 0
M  V30 8 S 0.101 5.13292 1.52614 0
M  V30 9 C 1.257 5.56322 2.86805 0
M  V30 10 H 1.49 2.90518 0.631377 0
M  V30 11 H -0.977 1.52953 0.210867 0
M  V30 12 H 0.981 2.67203 3.11629 0
M  V30 13 H -0.358 1.57376 2.7183 0
M  V30 14 H -1.165 3.90944 3.18086 0
M  V30 15 H -1.563 3.418 1.51819 0
M  V30 16 H 0.729 5.58782 3.83104 0
M  V30 17 H 1.672 6.56266 2.65933 0
M  V30 18 H 2.08 4.83886 2.90714 0
M  V30 19 N 1.4781 -0.272755 1.55222 0
M  V30 20 C 2.4251 -1.33716 1.88119 0
M  V30 21 C 3.3951 -1.49066 0.73271 0
M  V30 22 O 4.5801 -1.63469 0.984002 0
M  V30 23 C 1.7201 -2.69238 2.15882 0
M  V30 24 C 0.8331 -2.62108 3.43399 0
M  V30 25 C -0.0319 -3.89811 3.60861 0
M  V30 26 C -0.9929 -3.77193 4.8207 0
M  V30 27 N -1.8559 -4.9673 4.96189 0
M  V30 28 H 2.9841 -1.04962 2.78903 0
M  V30 29 H 0.5211 -0.507088 1.38083 0
M  V30 30 H 2.4791 -3.48089 2.29978 0
M  V30 31 H 1.1091 -2.96194 1.28331 0
M  V30 32 H 0.1611 -1.74967 3.37773 0
M  V30 33 H 1.4731 -2.48685 4.32386 0
M  V30 34 H 0.6271 -4.77103 3.74777 0
M  V30 35 H -0.6339 -4.06102 2.7006 0
M  V30 36 H -1.6289 -2.88284 4.68159 0
M  V30 37 H -0.4039 -3.62421 5.74307 0
M  V30 38 H -2.4579 -5.13431 4.08319 0
M  V30 39 H -2.5409 -4.85839 5.79221 0
M  V30 40 H -1.2729 -5.85594 5.1449 0
M  V30 41 N 2.9562 -1.48159 -0.537278 0
M  V30 42 C 4.2052 -1.5506 -1.28993 0
M  V30 43 C 4.5182 -0.226211 -1.94288 0
M  V30 44 O 5.7242 -0.173395 -2.70946 0
M  V30 45 C 4.1802 -2.73429 -2.34018 0
M  V30 46 C 3.7882 -4.1248 -1.74825 0
M  V30 47 C 5.5322 -2.89638 -3.10339 0
M  V30 48 C 3.4392 -5.22121 -2.77747 0
M  V30 49 H 2.3692 -0.577231 -0.485098 0
M  V30 50 H 5.0202 -1.74478 -0.568317 0
M  V30 51 H 3.4022 -2.47431 -3.09182 0
M  V30 52 H 4.5762 -4.48466 -1.05899 0
M  V30 53 H 2.8912 -4.01327 -1.11022 0
M  V30 54 H 5.4882 -3.68718 -3.87235 0
M  V30 55 H 5.8312 -1.9882 -3.65754 0
M  V30 56 H 6.3642 -3.15502 -2.42288 0
M  V30 57 H 3.1032 -6.1488 -2.27161 0
M  V30 58 H 2.6232 -4.90631 -3.45024 0
M  V30 59 H 4.3022 -5.49924 -3.4087 0
M  V30 60 N 4.4343 0.785586 -1.36625 0
M  V30 61 C 5.3973 1.87999 -1.31107 0
M  V30 62 C 6.3973 1.59316 -0.217959 0
M  V30 63 O 7.5873 1.67656 -0.472977 0
M  V30 64 C 4.7193 3.24861 -1.03334 0
M  V30 65 H 5.9123 1.94307 -2.2844 0
M  V30 66 H 3.4653 0.983813 -1.21453 0
M  V30 67 H 4.2003 3.24235 -0.0647432 0
M  V30 68 H 3.9853 3.4707 -1.82441 0
M  V30 69 H 5.4753 4.04929 -1.02088 0
M  V30 70 N 5.9124 1.20967 1.01018 0
M  V30 71 C 6.8594 0.964281 2.09691 0
M  V30 72 C 7.8294 -0.107853 1.65749 0
M  V30 73 O 9.0144 0.0381987 1.90762 0
M  V30 74 C 6.1544 0.52943 3.41015 0
M  V30 75 C 5.2674 1.67043 3.98398 0
M  V30 76 C 4.4024 1.18525 5.17808 0
M  V30 77 C 3.4414 2.29892 5.67288 0
M  V30 78 N 2.5784 1.82546 6.77954 0
M  V30 79 H 7.4184 1.89463 2.30017 0
M  V30 80 H 4.9554 0.944289 1.1279 0
M  V30 81 H 6.9134 0.258588 4.16398 0
M  V30 82 H 5.5434 -0.363919 3.20742 0
M  V30 83 H 4.5954 2.05603 3.20049 0
M  V30 84 H 5.9074 2.50877 4.31117 0
M  V30 85 H 5.0614 0.870762 6.00419 0
M  V30 86 H 3.8004 0.316887 4.86669 0
M  V30 87 H 2.8054 2.6215 4.83278 0
M  V30 88 H 4.0304 3.17216 6.00459 0
M  V30 89 H 1.9764 0.980454 6.48632 0
M  V30 90 H 1.8934 2.59956 7.09901 0
M  V30 91 H 3.1614 1.54115 7.64113 0
M  V30 92 N 7.3905 -1.2043 1.01659 0
M  V30 93 C 8.6365 -1.90079 0.706963 0
M  V30 94 C 8.9695 -1.78648 -0.761474 0
M  V30 95 O 8.2445 -1.17069 -1.55323 0
M  V30 96 C 8.5275 -3.41469 1.14327 0
M  V30 97 C 8.3805 -3.61833 2.67201 0
M  V30 98 C 9.6995 -4.34261 0.714529 0
M  V30 99 H 6.8185 -0.690254 0.2583 0
M  V30 100 H 9.4605 -1.41826 1.26433 0
M  V30 101 H 7.6105 -3.82696 0.669056 0
M  V30 102 H 9.2825 -3.2986 3.22475 0
M  V30 103 H 7.5255 -3.05304 3.08175 0
M  V30 104 H 8.1965 -4.67955 2.92783 0
M  V30 105 H 10.6725 -4.00682 1.12221 0
M  V30 106 H 9.5485 -5.38806 1.04784 0
M  V30 107 H 9.8095 -4.40431 -0.383799 0
M  V30 108 N 8.8686 -0.792821 -1.36206 0
M  V30 109 C 10.1176 -0.363353 -1.984 0
M  V30 110 C 10.4306 1.07172 -1.63626 0
M  V30 111 O 11.6366 1.60362 -2.19081 0
M  V30 112 C 10.0926 -0.59872 -3.54885 0
M  V30 113 C 9.7006 -2.04543 -3.9858 0
M  V30 114 C 11.4446 -0.233926 -4.23855 0
M  V30 115 C 9.3516 -2.22727 -5.47856 0
M  V30 116 H 8.2816 -0.13212 -0.742334 0
M  V30 117 H 10.9326 -0.974935 -1.55458 0
M  V30 118 H 9.3146 0.0826222 -3.95914 0
M  V30 119 H 10.4886 -2.76345 -3.68741 0
M  V30 120 H 8.8036 -2.36879 -3.42458 0
M  V30 121 H 11.4006 -0.348027 -5.33566 0
M  V30 122 H 11.7436 0.818351 -4.08177 0
M  V30 123 H 12.2766 -0.868639 -3.882 0
M  V30 124 H 9.0156 -3.2635 -5.68486 0
M  V30 125 H 8.5356 -1.55434 -5.7931 0
M  V30 126 H 10.2146 -2.03607 -6.14128 0
M  V30 127 N 10.3467 1.47872 -0.545128 0
M  V30 128 C 11.2947 2.31533 0.222512 0
M  V30 129 C 12.2887 1.42177 0.920985 0
M  V30 130 O 13.4947 1.59005 0.843645 0
M  V30 131 H 9.8697 0.746519 0.0906278 0
M  V30 132 H 11.8407 2.94139 -0.50246 0
M  V30 133 C 10.5897 3.2457 1.24699 0
M  V30 134 H 9.9127 3.93283 0.718944 0
M  V30 135 H 11.3527 3.85963 1.75523 0
M  V30 136 C 9.8117 2.47237 2.28856 0
M  V30 137 O 10.3417 2.20808 3.35569 0
M  V30 138 N 8.5477 2.08461 2.02466 0
M  V30 139 H 8.0947 2.30155 1.157 0
M  V30 140 H 8.0527 1.57033 2.72375 0
M  V30 141 N 11.8248 0.280983 1.55075 0
M  V30 142 C 12.7728 -0.619864 2.24188 0
M  V30 143 C 13.7668 -1.15315 1.24092 0
M  V30 144 O 14.9728 -1.1061 1.42005 0
M  V30 145 H 11.3478 -0.218459 0.719569 0
M  V30 146 H 13.3188 -0.0141831 2.98397 0
M  V30 147 C 12.0678 -1.7899 2.98091 0
M  V30 148 H 11.3908 -1.38874 3.74905 0
M  V30 149 H 12.8308 -2.39672 3.49762 0
M  V30 150 C 11.2898 -2.68192 2.03899 0
M  V30 151 O 11.8198 -3.6872 1.594 0
M  V30 152 N 10.0258 -2.35488 1.70275 0
M  V30 153 H 9.5728 -1.53787 2.06658 0
M  V30 154 H 9.5308 -2.95442 1.07524 0
M  V30 155 N 13.3029 -1.57598 0.00835791 0
M  V30 156 C 14.2509 -2.10078 -0.998508 0
M  V30 157 C 15.2449 -1.02262 -1.35051 0
M  V30 158 O 16.4509 -1.20719 -1.33518 0
M  V30 159 H 12.8259 -0.670903 -0.339696 0
M  V30 160 H 14.7969 -2.93648 -0.530398 0
M  V30 161 C 13.5459 -2.62615 -2.27879 0
M  V30 162 H 12.8689 -3.45213 -2.01662 0
M  V30 163 H 14.3089 -3.03004 -2.96588 0
M  V30 164 C 12.7679 -1.54407 -2.99433 0
M  V30 165 O 13.2979 -0.931812 -3.90743 0
M  V30 166 N 11.5039 -1.2695 -2.61404 0
M  V30 167 H 11.0509 -1.76924 -1.87232 0
M  V30 168 H 11.0089 -0.547704 -3.09593 0
M  V30 169 N 14.781 0.264519 -1.55364 0
M  V30 170 C 16.027 0.99646 -1.76631 0
M  V30 171 C 16.36 1.85632 -0.570478 0
M  V30 172 O 15.635 1.89647 0.43175 0
M  V30 173 C 15.918 1.87187 -3.07625 0
M  V30 174 C 15.771 1.04138 -4.37579 0
M  V30 175 C 17.09 2.85749 -3.34717 0
M  V30 176 H 14.209 0.360841 -0.642622 0
M  V30 177 H 16.851 0.268218 -1.88097 0
M  V30 178 H 15.001 2.49279 -2.9798 0
M  V30 179 H 16.673 0.440517 -4.59192 0
M  V30 180 H 14.916 0.345115 -4.32425 0
M  V30 181 H 15.587 1.68729 -5.2558 0
M  V30 182 H 18.063 2.33793 -3.4421 0
M  V30 183 H 16.939 3.44136 -4.27623 0
M  V30 184 H 17.2 3.61311 -2.54768 0
M  V30 185 N 16.2591 1.48442 0.529413 0
M  V30 186 C 17.5081 1.55742 1.28169 0
M  V30 187 C 17.8211 0.236511 1.94165 0
M  V30 188 O 19.0271 0.187761 2.7085 0
M  V30 189 C 17.4831 2.74667 2.32564 0
M  V30 190 C 17.0911 4.13402 1.72636 0
M  V30 191 C 18.8351 2.9128 3.08798 0
M  V30 192 C 16.7421 5.23587 2.74975 0
M  V30 193 H 15.6721 0.579796 0.48203 0
M  V30 194 H 18.3231 1.74776 0.559056 0
M  V30 195 H 16.7051 2.49067 3.07866 0
M  V30 196 H 17.8791 4.49022 1.03519 0
M  V30 197 H 16.1941 4.0191 1.08892 0
M  V30 198 H 18.7911 3.70767 3.85274 0
M  V30 199 H 19.1341 2.00757 3.64695 0
M  V30 200 H 19.6671 3.16782 2.40611 0
M  V30 201 H 16.4061 6.16076 2.23897 0
M  V30 202 H 15.9261 4.92454 3.42417 0
M  V30 203 H 17.6051 5.51724 3.37949 0
M  V30 204 N 17.7372 -0.778329 1.37039 0
M  V30 205 C 18.9622 -1.57248 1.35233 0
M  V30 206 C 19.3872 -1.87999 -0.0615568 0
M  V30 207 O 18.7452 -1.48734 -1.03672 0
M  V30 208 C 18.7932 -2.86353 2.19167 0
M  V30 209 O 17.8972 -3.80442 1.59178 0
M  V30 210 H 17.2382 -0.476569 0.462362 0
M  V30 211 H 19.7682 -0.963853 1.80474 0
M  V30 212 H 19.7782 -3.35519 2.32145 0
M  V30 213 H 18.4532 -2.63299 3.21942 0
M  V30 214 H 17.0302 -3.39067 1.55203 0
M  V30 215 N 19.2153 -1.21501 -1.00376 0
M  V30 216 C 20.4613 -1.03452 -1.74429 0
M  V30 217 C 20.7943 0.430764 -1.89362 0
M  V30 218 O 20.0693 1.31962 -1.42886 0
M  V30 219 C 20.3523 -1.73375 -3.15615 0
M  V30 220 C 20.2053 -3.27431 -3.08397 0
M  V30 221 C 21.5243 -1.47732 -4.14564 0
M  V30 222 H 18.6433 -0.377226 -0.633143 0
M  V30 223 H 21.2853 -1.49693 -1.17013 0
M  V30 224 H 19.4353 -1.34064 -3.64636 0
M  V30 225 H 21.1073 -3.76119 -2.67081 0
M  V30 226 H 19.3503 -3.5767 -2.45468 0
M  V30 227 H 20.0213 -3.71524 -4.08258 0
M  V30 228 H 22.4973 -1.8186 -3.74254 0
M  V30 229 H 21.3733 -1.99169 -5.11491 0
M  V30 230 H 21.6343 -0.407589 -4.40217 0
M  V30 231 N 20.6934 1.19889 -1.02296 0
M  V30 232 C 21.9394 1.89701 -0.717033 0
M  V30 233 C 22.2724 1.7905 0.751989 0
M  V30 234 O 21.5474 1.17891 1.547 0
M  V30 235 C 21.8304 3.40858 -1.16136 0
M  V30 236 C 21.6834 3.60411 -2.69117 0
M  V30 237 C 23.0024 4.33876 -0.737549 0
M  V30 238 H 20.1214 0.688874 -0.261957 0
M  V30 239 H 22.7634 1.41154 -1.27183 0
M  V30 240 H 20.9134 3.82335 -0.689342 0
M  V30 241 H 22.5854 3.28145 -3.2422 0
M  V30 242 H 20.8284 3.03665 -3.0979 0
M  V30 243 H 21.4994 4.66396 -2.95261 0
M  V30 244 H 23.9754 4.00081 -1.14344 0
M  V30 245 H 22.8514 5.38242 -1.0764 0
M  V30 246 H 23.1124 4.40628 0.360436 0
M  V30 247 N 22.1715 0.800033 1.35784 0
M  V30 248 C 23.1195 0.193851 2.31791 0
M  V30 249 C 24.1135 -0.652744 1.56319 0
M  V30 250 O 25.3195 -0.546641 1.71499 0
M  V30 251 H 21.6945 0.04392 0.750716 0
M  V30 252 H 23.6655 1.01883 2.80468 0
M  V30 253 C 22.4145 -0.648338 3.41602 0
M  V30 254 H 21.7375 -0.00624665 3.998 0
M  V30 255 H 23.1775 -1.03898 4.11073 0
M  V30 256 C 21.6365 -1.8111 2.84079 0
M  V30 257 O 22.1665 -2.90825 2.77099 0
M  V30 258 N 20.3725 -1.62056 2.41218 0
M  V30 259 H 19.9195 -0.728123 2.47095 0
M  V30 260 H 19.8775 -2.40013 2.03079 0
M  V30 261 N 23.6496 -1.47581 0.552962 0
M  V30 262 C 24.5596 -2.33743 -0.200353 0
M  V30 263 C 25.5756 -1.47928 -0.916151 0
M  V30 264 O 26.7516 -1.80865 -0.885993 0
M  V30 265 C 23.8166 -3.24536 -1.21973 0
M  V30 266 C 22.8776 -4.26238 -0.511819 0
M  V30 267 C 22.1106 -5.12693 -1.48263 0
M  V30 268 O 22.3336 -5.01525 -2.71714 0
M  V30 269 O 21.2676 -5.93375 -1.00945 0
M  V30 270 H 25.0936 -2.9945 0.506304 0
M  V30 271 H 22.6786 -1.46071 0.313622 0
M  V30 272 H 24.5606 -3.80631 -1.80827 0
M  V30 273 H 23.2356 -2.61462 -1.90839 0
M  V30 274 H 22.1426 -3.73914 0.117799 0
M  V30 275 H 23.4756 -4.92014 0.135308 0
M  V30 276 N 25.1277 -0.289203 -1.54924 0
M  V30 277 C 26.0597 0.625583 -2.20497 0
M  V30 278 C 27.0727 1.10667 -1.19402 0
M  V30 279 O 28.2617 1.02615 -1.46056 0
M  V30 280 C 25.3617 1.86702 -2.82835 0
M  V30 281 C 24.5347 1.5304 -4.09753 0
M  V30 282 C 23.5937 2.62576 -4.56005 0
M  V30 283 O 22.6197 2.28167 -5.21468 0
M  V30 284 N 23.8217 3.92901 -4.27328 0
M  V30 285 H 26.5867 0.0642801 -2.99631 0
M  V30 286 H 24.1477 -0.110896 -1.6152 0
M  V30 287 H 26.1397 2.59304 -3.10715 0
M  V30 288 H 24.7097 2.33702 -2.07611 0
M  V30 289 H 23.9297 0.637564 -3.8901 0
M  V30 290 H 25.2177 1.28072 -4.92418 0
M  V30 291 H 24.6157 4.23671 -3.74859 0
M  V30 292 H 23.1727 4.61837 -4.59946 0
M  V30 293 N 26.6058 1.57591 -0.0167156 0
M  V30 294 C 27.8538 1.90906 0.663285 0
M  V30 295 C 28.1748 0.892509 1.73376 0
M  V30 296 O 27.4448 -0.0677623 1.95783 0
M  V30 297 H 26.0248 0.704637 0.247983 0
M  V30 298 H 28.6868 1.94803 -0.0615909 0
M  V30 299 H 27.7828 2.9116 1.12393 0
M  V30 300 N 28.0839 -0.256276 1.55502 0
M  V30 301 C 29.0309 -1.31714 1.89526 0
M  V30 302 C 30.0009 -1.4828 0.748479 0
M  V30 303 O 31.1859 -1.62416 1.00128 0
M  V30 304 C 28.3259 -2.66933 2.18725 0
M  V30 305 C 27.4389 -2.58452 3.4616 0
M  V30 306 C 26.5739 -3.85961 3.64976 0
M  V30 307 C 25.6129 -3.72059 4.86044 0
M  V30 308 N 24.7499 -4.9144 5.01429 0
M  V30 309 H 29.5899 -1.01998 2.80001 0
M  V30 310 H 27.1269 -0.492413 1.38613 0
M  V30 311 H 29.0849 -3.4563 2.33657 0
M  V30 312 H 27.7149 -2.94816 1.31466 0
M  V30 313 H 26.7669 -1.71374 3.3961 0
M  V30 314 H 28.0789 -2.44085 4.34999 0
M  V30 315 H 27.2329 -4.73101 3.79816 0
M  V30 316 H 25.9719 -4.03215 2.74353 0
M  V30 317 H 24.9769 -2.83302 4.7119 0
M  V30 318 H 26.2019 -3.56309 5.78118 0
M  V30 319 H 24.1479 -5.09072 4.13741 0
M  V30 320 H 24.0649 -4.79668 5.84341 0
M  V30 321 H 25.3329 -5.80104 5.20672 0
M  V30 322 N 29.562 -1.4872 -0.521534 0
M  V30 323 C 30.472 -1.66569 -1.65203 0
M  V30 324 C 31.488 -0.548197 -1.65139 0
M  V30 325 O 32.664 -0.820339 -1.83936 0
M  V30 326 C 29.729 -1.70917 -3.01642 0
M  V30 327 C 28.79 -2.94356 -3.12495 0
M  V30 328 C 28.023 -2.98487 -4.42426 0
M  V30 329 O 28.246 -2.10786 -5.30024 0
M  V30 330 O 27.18 -3.90746 -4.57822 0
M  V30 331 H 31.006 -2.62298 -1.5308 0
M  V30 332 H 28.591 -1.3222 -0.695565 0
M  V30 333 H 30.473 -1.7625 -3.82771 0
M  V30 334 H 29.148 -0.783633 -3.14071 0
M  V30 335 H 28.055 -2.94552 -2.3063 0
M  V30 336 H 29.388 -3.86322 -3.04986 0
M  V30 337 N 31.0401 0.771051 -1.3745 0
M  V30 338 C 31.9701 1.89827 -1.3597 0
M  V30 339 C 32.9511 1.68562 -0.228216 0
M  V30 340 O 34.1361 1.8941 -0.428675 0
M  V30 341 C 31.2661 3.2712 -1.16662 0
M  V30 342 C 30.2201 3.6295 -2.2683 0
M  V30 343 C 29.5461 4.98791 -1.92644 0
M  V30 344 C 30.8461 3.69627 -3.69017 0
M  V30 345 H 32.5401 1.91323 -2.30295 0
M  V30 346 H 30.0861 0.919082 -1.10855 0
M  V30 347 H 32.0391 4.05615 -1.14256 0
M  V30 348 H 30.7631 3.26059 -0.187926 0
M  V30 349 H 29.4221 2.86763 -2.28392 0
M  V30 350 H 29.0701 4.94271 -0.933021 0
M  V30 351 H 28.7701 5.23733 -2.66416 0
M  V30 352 H 30.2941 5.79685 -1.91826 0
M  V30 353 H 31.7081 4.38273 -3.69581 0
M  V30 354 H 30.1051 4.06067 -4.41848 0
M  V30 355 H 31.1751 2.70273 -4.02592 0
M  V30 356 N 32.5182 1.22032 0.997298 0
M  V30 357 C 33.7642 1.04376 1.73878 0
M  V30 358 C 34.0972 -0.420716 1.89588 0
M  V30 359 O 33.3722 -1.31202 1.43583 0
M  V30 360 C 33.6552 1.75047 3.14691 0
M  V30 361 C 33.5082 3.29062 3.06656 0
M  V30 362 C 34.8272 1.49928 4.13775 0
M  V30 363 H 31.9462 0.380578 0.631133 0
M  V30 364 H 34.5882 1.50312 1.16217 0
M  V30 365 H 32.7382 1.35996 3.63919 0
M  V30 366 H 34.4102 3.7753 2.65083 0
M  V30 367 H 32.6532 3.58967 2.43568 0
M  V30 368 H 33.3242 3.73683 4.06282 0
M  V30 369 H 35.8002 1.83842 3.73285 0
M  V30 370 H 34.6762 2.01878 5.10428 0
M  V30 371 H 34.9372 0.430929 4.39995 0
M  V30 372 N 33.9963 -1.19345 1.0293 0
M  V30 373 C 35.2423 -1.89318 0.727083 0
M  V30 374 C 35.5753 -1.79446 -0.742483 0
M  V30 375 O 34.8503 -1.1871 -1.54072 0
M  V30 376 C 35.1333 -3.40238 1.17942 0
M  V30 377 C 34.9863 -3.58979 2.71024 0
M  V30 378 C 36.3053 -4.33479 0.760548 0
M  V30 379 H 33.4243 -0.687475 0.265606 0
M  V30 380 H 36.0663 -1.40477 1.2793 0
M  V30 381 H 34.2163 -3.81964 0.709608 0
M  V30 382 H 35.8883 -3.26421 3.25955 0
M  V30 383 H 34.1313 -3.02018 3.11396 0
M  V30 384 H 34.8023 -4.64823 2.9773 0
M  V30 385 H 37.2783 -3.99469 1.16464 0
M  V30 386 H 36.1543 -5.37664 1.10493 0
M  V30 387 H 36.4153 -4.40813 -0.337063 0
M  V30 388 N 35.4744 -0.807222 -1.35358 0
M  V30 389 C 36.4074 -0.163572 -2.27613 0
M  V30 390 C 37.3854 0.670817 -1.48118 0
M  V30 391 O 38.5694 0.63796 -1.77376 0
M  V30 392 C 35.6964 0.773015 -3.29761 0
M  V30 393 C 34.7424 0.0181653 -4.26496 0
M  V30 394 S 35.5754 -1.31831 -5.19019 0
M  V30 395 C 36.7314 -0.38619 -6.24707 0
M  V30 396 H 36.9644 -0.945757 -2.81856 0
M  V30 397 H 34.4974 -0.602315 -1.42167 0
M  V30 398 H 36.4554 1.30788 -3.89108 0
M  V30 399 H 35.1164 1.52859 -2.74396 0
M  V30 400 H 34.3094 0.729534 -4.98692 0
M  V30 401 H 33.9114 -0.446761 -3.71322 0
M  V30 402 H 36.2034 0.428295 -6.76145 0
M  V30 403 H 37.1464 -1.07736 -6.99856 0
M  V30 404 H 37.5544 0.018398 -5.64497 0
M  V30 405 N 36.9525 1.47285 -0.560781 0
M  V30 406 C 38.2005 2.02064 -0.0379868 0
M  V30 407 C 38.5215 1.43711 1.31803 0
M  V30 408 O 37.7915 0.61362 1.86042 0
M  V30 409 H 36.3715 0.746918 -0.0110531 0
M  V30 410 H 39.0335 1.80648 -0.731598 0
M  V30 411 H 38.1295 3.12064 0.0474463 0
M  V30 412 N 38.4306 0.297415 1.54768 0
M  V30 413 C 39.8466 -0.0560823 1.59501 0
M  V30 414 C 40.0466 -1.52725 1.31444 0
M  V30 415 O 39.1026 -2.27947 1.08611 0
M  V30 416 C 40.4156 0.338631 2.98787 0
M  V30 417 C 41.9636 0.287097 3.11681 0
M  V30 418 C 42.4386 0.656579 4.53269 0
M  V30 419 N 43.9296 0.608977 4.59179 0
M  V30 420 C 44.6646 0.867385 5.66802 0
M  V30 421 N 44.1606 1.19157 6.82476 0
M  V30 422 N 45.9536 0.794687 5.56454 0
M  V30 423 H 38.1046 1.25624 1.71267 0
M  V30 424 H 40.3676 0.509057 0.799728 0
M  V30 425 H 40.0736 1.36263 3.2423 0
M  V30 426 H 39.9476 -0.309508 3.75928 0
M  V30 427 H 42.3346 -0.727649 2.85988 0
M  V30 428 H 42.4156 0.969809 2.36703 0
M  V30 429 H 42.0596 1.66912 4.7969 0
M  V30 430 H 41.9896 -0.0481649 5.26578 0
M  V30 431 H 44.4806 0.369198 3.76092 0
M  V30 432 H 44.7936 1.37482 7.60473 0
M  V30 433 H 43.1386 1.22958 6.84037 0
M  V30 434 H 46.3296 0.541098 4.64962 0
M  V30 435 H 46.5026 0.999445 6.40246 0
M  V30 436 N 39.9087 -1.5758 0.0250728 0
M  V30 437 C 41.1567 -1.91255 -0.653151 0
M  V30 438 C 41.4777 -0.901691 -1.729 0
M  V30 439 O 40.7477 0.0573785 -1.95816 0
M  V30 440 H 39.3277 -0.705942 -0.244243 0
M  V30 441 H 41.9897 -1.94767 0.0719209 0
M  V30 442 H 41.0857 -2.91752 -1.10847 0
M  V30 443 N 41.3868 0.248026 -1.55636 0
M  V30 444 C 42.3168 1.31079 -1.93237 0
M  V30 445 C 43.2978 1.50264 -0.797174 0
M  V30 446 O 44.4828 1.62891 -1.05737 0
M  V30 447 C 41.6128 2.66575 -2.22609 0
M  V30 448 C 40.5668 2.62087 -3.3837 0
M  V30 449 C 39.8928 4.01369 -3.53281 0
M  V30 450 C 41.1928 2.19171 -4.7409 0
M  V30 451 H 42.8868 0.998556 -2.82257 0
M  V30 452 H 40.4328 0.47891 -1.35803 0
M  V30 453 H 42.3858 3.41057 -2.47503 0
M  V30 454 H 41.1098 2.99432 -1.30414 0
M  V30 455 H 39.7688 1.90063 -3.13483 0
M  V30 456 H 39.4168 4.31489 -2.58508 0
M  V30 457 H 39.1168 3.99254 -4.31127 0
M  V30 458 H 40.6408 4.77552 -3.80495 0
M  V30 459 H 42.0548 2.83384 -4.98363 0
M  V30 460 H 40.4518 2.2817 -5.5503 0
M  V30 461 H 41.5218 1.14336 -4.71227 0
M  V30 462 N 42.8649 1.48995 0.513639 0
M  V30 463 C 43.8279 1.64229 1.59879 0
M  V30 464 C 44.8279 0.514696 1.5234 0
M  V30 465 O 46.0179 0.78087 1.55718 0
M  V30 466 C 43.1499 1.62783 2.99524 0
M  V30 467 H 44.3429 2.61004 1.47705 0
M  V30 468 H 41.8959 1.37837 0.736936 0
M  V30 469 H 42.6309 0.675461 3.17188 0
M  V30 470 H 42.4159 2.4466 3.06404 0
M  V30 471 H 43.9059 1.76669 3.78388 0
M  V30 472 N 44.343 -0.763751 1.37857 0
M  V30 473 C 45.59 -1.52257 1.33506 0
M  V30 474 C 45.918 -1.94343 -0.078022 0
M  V30 475 O 45.173 -1.64958 -1.05297 0
M  V30 476 C 45.472 -2.79499 2.22745 0
M  V30 477 C 45.138 -2.56426 3.70886 0
M  V30 478 C 43.8 -2.49842 4.11257 0
M  V30 479 C 46.152 -2.36008 4.64704 0
M  V30 480 C 43.48 -2.20841 5.43549 0
M  V30 481 C 45.832 -2.0853 5.97242 0
M  V30 482 C 44.496 -2.00396 6.36709 0
M  V30 483 H 43.766 -0.557149 0.488534 0
M  V30 484 H 46.413 -0.879073 1.70131 0
M  V30 485 H 44.718 -3.48447 1.79142 0
M  V30 486 H 46.415 -3.37413 2.16688 0
M  V30 487 H 43.005 -2.62416 3.38874 0
M  V30 488 H 47.189 -2.40079 4.34368 0
M  V30 489 H 42.445 -2.13045 5.73081 0
M  V30 490 H 46.619 -1.91732 6.69486 0
M  V30 491 H 44.246 -1.77688 7.39142 0
M  V30 492 N 45.8211 -1.22559 -0.990812 0
M  V30 493 C 46.7531 -0.955325 -2.08342 0
M  V30 494 C 47.7661 0.0668408 -1.62663 0
M  V30 495 O 48.9551 -0.167421 -1.77713 0
M  V30 496 C 46.0551 -0.415566 -3.36342 0
M  V30 497 C 45.2281 -1.49544 -4.11042 0
M  V30 498 C 44.2871 -0.962399 -5.17324 0
M  V30 499 O 43.3131 -1.64907 -5.44788 0
M  V30 500 N 44.5151 0.215134 -5.80101 0
M  V30 501 H 47.2801 -1.89596 -2.32106 0
M  V30 502 H 44.8411 -1.13276 -1.15673 0
M  V30 503 H 46.8331 -0.0442386 -4.04676 0
M  V30 504 H 45.4031 0.430232 -3.09625 0
M  V30 505 H 44.6231 -2.04 -3.37309 0
M  V30 506 H 45.9111 -2.22195 -4.57719 0
M  V30 507 H 45.3091 0.789779 -5.6016 0
M  V30 508 H 43.8661 0.527826 -6.49659 0
M  V30 509 N 47.2992 1.18797 -1.03562 0
M  V30 510 C 48.2462 2.22253 -0.622259 0
M  V30 511 C 49.2162 1.61987 0.36736 0
M  V30 512 O 50.4012 1.88986 0.262492 0
M  V30 513 C 47.5412 3.45097 0.0138462 0
M  V30 514 C 46.6542 4.19722 -1.02263 0
M  V30 515 C 45.7892 5.30009 -0.355573 0
M  V30 516 C 44.8282 5.96399 -1.37749 0
M  V30 517 N 43.9652 6.98234 -0.735766 0
M  V30 518 H 48.8052 2.56968 -1.50903 0
M  V30 519 H 46.3422 1.26245 -0.755017 0
M  V30 520 H 48.3002 4.15279 0.399948 0
M  V30 521 H 46.9302 3.11018 0.864158 0
M  V30 522 H 45.9822 3.48418 -1.52673 0
M  V30 523 H 47.2942 4.65227 -1.79903 0
M  V30 524 H 46.4482 6.0664 0.0850095 0
M  V30 525 H 45.1872 4.85592 0.452967 0
M  V30 526 H 44.1922 5.18512 -1.82826 0
M  V30 527 H 45.4172 6.42899 -2.18764 0
M  V30 528 H 43.3632 6.55979 0.0525597 0
M  V30 529 H 43.2802 7.41965 -1.44995 0
M  V30 530 H 44.5482 7.78845 -0.31941 0
M  V30 531 N 48.7773 0.814389 1.34928 0
M  V30 532 C 49.7243 0.22822 2.29669 0
M  V30 533 C 50.6943 -0.642164 1.53184 0
M  V30 534 O 51.8793 -0.585605 1.81591 0
M  V30 535 C 49.0193 -0.61089 3.3965 0
M  V30 536 C 48.1323 0.280792 4.31086 0
M  V30 537 C 47.2673 -0.567067 5.28165 0
M  V30 538 C 46.3063 0.324531 6.11239 0
M  V30 539 N 45.4433 -0.483756 7.00431 0
M  V30 540 H 50.2833 1.04153 2.79206 0
M  V30 541 H 47.8203 0.525133 1.37407 0
M  V30 542 H 49.7783 -1.11263 4.0209 0
M  V30 543 H 48.4083 -1.38939 2.91369 0
M  V30 544 H 47.4603 0.900688 3.69583 0
M  V30 545 H 48.7723 0.966723 4.89342 0
M  V30 546 H 47.9263 -1.13363 5.96015 0
M  V30 547 H 46.6653 -1.28654 4.70425 0
M  V30 548 H 45.6703 0.903298 5.42329 0
M  V30 549 H 46.8953 1.04198 6.71059 0
M  V30 550 H 44.8413 -1.18706 6.45171 0
M  V30 551 H 44.7583 0.143965 7.55863 0
M  V30 552 H 46.0263 -1.03334 7.7262 0
M  V30 553 N 50.2554 -1.46986 0.568584 0
M  V30 554 C 51.4804 -2.07335 0.0520528 0
M  V30 555 C 51.9054 -1.41675 -1.23733 0
M  V30 556 O 51.2634 -0.495623 -1.74394 0
M  V30 557 C 51.3114 -3.60417 -0.11501 0
M  V30 558 O 50.4154 -3.95309 -1.17492 0
M  V30 559 H 49.7564 -0.661597 0.0564385 0
M  V30 560 H 52.2864 -1.88837 0.787507 0
M  V30 561 H 52.2964 -4.06698 -0.325644 0
M  V30 562 H 50.9714 -4.07601 0.826675 0
M  V30 563 H 49.5484 -3.60757 -0.943869 0
M  V30 564 N 51.7335 -0.305618 -1.54608 0
M  V30 565 C 52.9815 0.301701 -1.99835 0
M  V30 566 C 53.3025 1.54054 -1.19551 0
M  V30 567 O 52.5725 1.93702 -0.292658 0
M  V30 568 H 51.1525 0.114468 -0.738178 0
M  V30 569 H 53.8145 -0.418016 -1.90364 0
M  V30 570 H 52.9105 0.570548 -3.06841 0
M  V30 571 N 53.2116 1.57565 -0.0334293 0
M  V30 572 C 54.4886 1.83282 0.683163 0
M  V30 573 C 54.8686 0.91823 1.90084 0
M  V30 574 O 54.2166 -0.025113 2.28486 0
M  V30 575 C 54.4266 3.32599 1.0573 0
M  V30 576 C 55.7746 3.99179 1.44711 0
M  V30 577 O 56.7986 3.3712 1.15015 0
M  V30 578 O 55.6576 5.08565 2.0006 0
M  V30 579 H 52.7516 0.755869 0.335546 0
M  V30 580 H 55.2976 1.69589 -0.0614402 0
M  V30 581 H 54.0696 3.90834 0.190828 0
M  V30 582 H 53.6926 3.51415 1.85993 0
M  V30 583 N 54.6897 -0.239769 1.55765 0
M  V30 584 C 55.9667 -0.990056 1.68693 0
M  V30 585 C 56.3467 -2.03107 0.5754 0
M  V30 586 O 55.6947 -2.24604 -0.42017 0
M  V30 587 C 55.9047 -1.61696 3.09282 0
M  V30 588 C 57.2527 -2.11613 3.6811 0
M  V30 589 O 58.2767 -1.71624 3.12127 0
M  V30 590 O 57.1357 -2.85057 4.66267 0
M  V30 591 H 54.2297 -0.461299 0.686391 0
M  V30 592 H 56.7757 -0.232991 1.68093 0
M  V30 593 H 55.5477 -0.864357 3.81634 0
M  V30 594 H 55.1707 -2.44005 3.13923 0
M  V30 595 N 56.1678 -1.49265 -0.50573 0
M  V30 596 C 57.4138 -1.58748 -1.26202 0
M  V30 597 C 57.7468 -0.271227 -1.92297 0
M  V30 598 O 57.0218 0.724831 -1.80489 0
M  V30 599 C 57.3048 -2.74332 -2.33268 0
M  V30 600 C 57.1578 -4.15737 -1.71705 0
M  V30 601 C 58.4768 -2.85576 -3.34865 0
M  V30 602 H 55.5958 -0.577826 -0.457478 0
M  V30 603 H 58.2378 -1.81532 -0.560897 0
M  V30 604 H 56.3878 -2.55036 -2.93068 0
M  V30 605 H 58.0598 -4.46537 -1.15769 0
M  V30 606 H 56.3028 -4.21605 -1.02135 0
M  V30 607 H 56.9738 -4.92477 -2.49341 0
M  V30 608 H 59.4498 -3.03127 -2.8505 0
M  V30 609 H 58.3258 -3.68135 -4.07146 0
M  V30 610 H 58.5868 -1.94732 -3.96903 0
M  V30 611 N 57.6459 0.756429 -1.3826 0
M  V30 612 C 58.9229 1.50584 -1.24835 0
M  V30 613 C 59.3029 2.10556 0.151485 0
M  V30 614 O 58.6509 1.96825 1.1607 0
M  V30 615 C 58.8609 2.57448 -2.3563 0
M  V30 616 C 60.2089 3.24429 -2.73917 0
M  V30 617 O 61.2329 2.67751 -2.34921 0
M  V30 618 O 60.0919 4.26937 -3.41156 0
M  V30 619 H 57.1859 0.667664 -0.48801 0
M  V30 620 H 59.7319 0.792083 -1.5008 0
M  V30 621 H 58.5039 2.11362 -3.29305 0
M  V30 622 H 58.1269 3.36408 -2.11933 0
M  V30 623 N 59.124 1.23083 0.984299 0
M  V30 624 C 60.034 1.02515 2.11016 0
M  V30 625 C 61.05 -0.0291702 1.73976 0
M  V30 626 O 62.226 0.165434 2.00719 0
M  V30 627 C 59.291 0.614673 3.41208 0
M  V30 628 C 58.352 1.74359 3.92297 0
M  V30 629 C 57.585 1.35261 5.16275 0
M  V30 630 O 57.808 0.235136 5.69915 0
M  V30 631 O 56.742 2.17227 5.61334 0
M  V30 632 H 60.568 1.96862 2.31255 0
M  V30 633 H 58.153 1.01753 1.09392 0
M  V30 634 H 60.035 0.396518 4.1953 0
M  V30 635 H 58.71 -0.299851 3.22308 0
M  V30 636 H 57.617 2.01635 3.1511 0
M  V30 637 H 58.95 2.63629 4.15645 0
M  V30 638 N 60.6021 -1.18246 1.0419 0
M  V30 639 C 61.5651 -2.20128 0.638452 0
M  V30 640 C 62.5651 -1.57885 -0.304805 0
M  V30 641 O 63.7551 -1.73967 -0.0900369 0
M  V30 642 C 60.8871 -3.4084 -0.0637751 0
M  V30 643 H 62.0801 -2.57336 1.54007 0
M  V30 644 H 59.6331 -1.32152 0.834598 0
M  V30 645 H 60.3681 -3.09166 -0.979136 0
M  V30 646 H 60.1531 -3.8726 0.614198 0
M  V30 647 H 61.6431 -4.16274 -0.332512 0
M  V30 648 N 62.0802 -0.821533 -1.34494 0
M  V30 649 C 63.4962 -0.507117 -1.51329 0
M  V30 650 C 63.6962 0.968964 -1.76673 0
M  V30 651 O 62.7522 1.75348 -1.81685 0
M  V30 652 C 64.0652 -1.36544 -2.67911 0
M  V30 653 C 65.6132 -1.36242 -2.81793 0
M  V30 654 C 66.0882 -2.2052 -4.01416 0
M  V30 655 N 67.5792 -2.18136 -4.08621 0
M  V30 656 C 68.3142 -2.80095 -5.00334 0
M  V30 657 N 67.8102 -3.51039 -5.9728 0
M  V30 658 N 69.6032 -2.69656 -4.93196 0
M  V30 659 H 61.7542 -1.77729 -1.16302 0
M  V30 660 H 64.0172 -0.757291 -0.570276 0
M  V30 661 H 63.7232 -2.41361 -2.55808 0
M  V30 662 H 63.5972 -1.02917 -3.62888 0
M  V30 663 H 65.9842 -0.322041 -2.93338 0
M  V30 664 H 66.0652 -1.73866 -1.87628 0
M  V30 665 H 65.7092 -3.24607 -3.90631 0
M  V30 666 H 65.6392 -1.80247 -4.94791 0
M  V30 667 H 68.1302 -1.6653 -3.39229 0
M  V30 668 H 68.4432 -3.95565 -6.63889 0
M  V30 669 H 66.7882 -3.55145 -5.97409 0
M  V30 670 H 69.9792 -2.13808 -4.16418 0
M  V30 671 H 70.1522 -3.1823 -5.64476 0
M  V30 672 N 63.5583 1.46682 -0.576371 0
M  V30 673 C 64.8073 2.01619 -0.0572825 0
M  V30 674 C 65.1203 1.45417 1.30818 0
M  V30 675 O 66.3263 1.92133 1.91825 0
M  V30 676 C 64.7823 3.59863 -0.0518371 0
M  V30 677 C 64.3903 4.25059 -1.41523 0
M  V30 678 C 66.1343 4.2248 0.413639 0
M  V30 679 C 64.0413 5.75364 -1.36785 0
M  V30 680 H 62.9713 0.753794 -0.0176448 0
M  V30 681 H 65.6223 1.68481 -0.727076 0
M  V30 682 H 64.0043 3.90048 0.683994 0
M  V30 683 H 65.1783 4.06491 -2.17029 0
M  V30 684 H 63.4933 3.7451 -1.8202 0
M  V30 685 H 66.0903 5.3265 0.467779 0
M  V30 686 H 66.4333 3.90976 1.42982 0
M  V30 687 H 66.9663 3.96897 -0.267929 0
M  V30 688 H 63.7053 6.11518 -2.36063 0
M  V30 689 H 63.2253 5.96214 -0.654895 0
M  V30 690 H 64.9043 6.37955 -1.07805 0
M  V30 691 N 65.0364 0.313813 1.54444 0
M  V30 692 C 65.9464 -0.565714 2.27677 0
M  V30 693 C 66.9624 -1.13754 1.31666 0
M  V30 694 O 68.1384 -1.15959 1.64668 0
M  V30 695 C 65.2034 -1.71528 3.01296 0
M  V30 696 C 64.2644 -1.17624 4.12872 0
M  V30 697 C 63.4974 -2.27102 4.8297 0
M  V30 698 O 63.7204 -3.47256 4.52514 0
M  V30 699 O 62.6544 -1.9307 5.70094 0
M  V30 700 H 66.4804 0.0287296 3.03686 0
M  V30 701 H 64.0654 0.0798312 1.49187 0
M  V30 702 H 65.9474 -2.38476 3.4743 0
M  V30 703 H 64.6224 -2.29608 2.2817 0
M  V30 704 H 63.5294 -0.472124 3.71109 0
M  V30 705 H 64.8624 -0.640695 4.88012 0
M  V30 706 N 66.5145 -1.57545 0.0417849 0
M  V30 707 C 67.4615 -2.10977 -0.935805 0
M  V30 708 C 68.4315 -1.01486 -1.31491 0
M  V30 709 O 69.6165 -1.2898 -1.40602 0
M  V30 710 C 66.7565 -2.65169 -2.2086 0
M  V30 711 C 65.8695 -3.88714 -1.88482 0
M  V30 712 C 65.0045 -4.31254 -3.1015 0
M  V30 713 C 64.0435 -5.47524 -2.7365 0
M  V30 714 N 63.1805 -5.85162 -3.87982 0
M  V30 715 H 68.0205 -2.94218 -0.473249 0
M  V30 716 H 65.5575 -1.45415 -0.221981 0
M  V30 717 H 67.5155 -2.94685 -2.95325 0
M  V30 718 H 66.1455 -1.8474 -2.64709 0
M  V30 719 H 65.1975 -3.65849 -1.04205 0
M  V30 720 H 66.5095 -4.73245 -1.57608 0
M  V30 721 H 65.6635 -4.62273 -3.92923 0
M  V30 722 H 64.4025 -3.45516 -3.44195 0
M  V30 723 H 63.4075 -5.16187 -1.89291 0
M  V30 724 H 64.6325 -6.34971 -2.40807 0
M  V30 725 H 62.5785 -5.02377 -4.21846 0
M  V30 726 H 62.4955 -6.64362 -3.60775 0
M  V30 727 H 63.7635 -6.20791 -4.71422 0
M  V30 728 N 67.9926 0.231505 -1.5589 0
M  V30 729 C 69.2386 0.95877 -1.78705 0
M  V30 730 C 69.5716 1.8438 -0.609725 0
M  V30 731 O 68.8466 1.90521 0.391426 0
M  V30 732 C 69.1296 1.8062 -3.11526 0
M  V30 733 C 68.9826 0.948328 -4.39689 0
M  V30 734 C 70.3016 2.78585 -3.40703 0
M  V30 735 H 67.4206 0.347129 -0.650131 0
M  V30 736 H 70.0626 0.228259 -1.88624 0
M  V30 737 H 68.2126 2.42902 -3.03201 0
M  V30 738 H 69.8846 0.343016 -4.60023 0
M  V30 739 H 68.1276 0.253314 -4.3306 0
M  V30 740 H 68.7986 1.57543 -5.29041 0
M  V30 741 H 71.2746 2.26439 -3.49091 0
M  V30 742 H 70.1506 3.34988 -4.34826 0
M  V30 743 H 70.4116 3.55825 -2.62375 0
M  V30 744 N 69.4707 1.49531 0.497807 0
M  V30 745 C 70.7177 1.59179 1.25173 0
M  V30 746 C 71.0457 0.279932 1.92475 0
M  V30 747 O 70.3007 -0.732383 1.81479 0
M  V30 748 C 70.5997 2.70252 2.33878 0
M  V30 749 C 70.2657 4.11644 1.84012 0
M  V30 750 C 68.9277 4.50121 1.70132 0
M  V30 751 C 71.2797 5.00121 1.46725 0
M  V30 752 C 68.6077 5.74845 1.17348 0
M  V30 753 C 70.9597 6.25366 0.95392 0
M  V30 754 C 69.6237 6.6267 0.801538 0
M  V30 755 H 68.8937 0.582478 0.45804 0
M  V30 756 H 71.5407 1.83373 0.551948 0
M  V30 757 H 69.8457 2.40041 3.09657 0
M  V30 758 H 71.5427 2.74925 2.9192 0
M  V30 759 H 68.1327 3.81274 1.95775 0
M  V30 760 H 72.3167 4.71048 1.56294 0
M  V30 761 H 67.5727 6.02444 1.04264 0
M  V30 762 H 71.7467 6.93301 0.656225 0
M  V30 763 H 69.3737 7.59197 0.390351 0
M  V30 764 N 70.9488 -0.749086 1.3866 0
M  V30 765 C 72.1768 -1.53834 1.38358 0
M  V30 766 C 72.5918 -1.88783 -0.0255219 0
M  V30 767 O 71.9488 -1.53101 -0.993292 0
M  V30 768 C 71.9998 -2.83468 2.2434 0
M  V30 769 O 71.7208 -2.50008 3.5976 0
M  V30 770 C 73.2218 -3.7758 2.32267 0
M  V30 771 H 70.4418 -0.47585 0.473083 0
M  V30 772 H 72.9858 -0.926726 1.82297 0
M  V30 773 H 71.1408 -3.40995 1.83851 0
M  V30 774 H 71.5548 -3.33182 4.05081 0
M  V30 775 H 73.0288 -4.65478 2.96706 0
M  V30 776 H 73.5058 -4.18334 1.33765 0
M  V30 777 H 74.1118 -3.25976 2.73166 0
M  V30 778 N 72.4269 -1.23603 -0.977757 0
M  V30 779 C 73.3569 -1.04401 -2.0886 0
M  V30 780 C 74.3379 0.0399052 -1.70053 0
M  V30 781 O 75.5229 -0.125246 -1.93796 0
M  V30 782 C 72.6529 -0.637269 -3.41403 0
M  V30 783 C 71.6069 -1.66883 -3.94124 0
M  V30 784 C 70.9329 -1.11745 -5.22893 0
M  V30 785 C 72.2329 -3.06247 -4.23096 0
M  V30 786 H 73.9269 -1.97316 -2.25182 0
M  V30 787 H 71.4729 -0.950096 -1.08209 0
M  V30 788 H 73.4259 -0.48998 -4.18542 0
M  V30 789 H 72.1499 0.327557 -3.24953 0
M  V30 790 H 70.8089 -1.80416 -3.19133 0
M  V30 791 H 70.4569 -0.143527 -5.02795 0
M  V30 792 H 70.1569 -1.80672 -5.59134 0
M  V30 793 H 71.6809 -0.982067 -6.02651 0
M  V30 794 H 73.0949 -2.96001 -4.90975 0
M  V30 795 H 71.4919 -3.72436 -4.70544 0
M  V30 796 H 72.5619 -3.55041 -3.30263 0
M  V30 797 N 73.905 1.17692 -1.04816 0
M  V30 798 C 75.182 1.83768 -0.669963 0
M  V30 799 C 75.562 1.93232 0.849986 0
M  V30 800 O 74.91 1.46397 1.75443 0
M  V30 801 C 75.12 3.21641 -1.35455 0
M  V30 802 C 76.468 3.97592 -1.49017 0
M  V30 803 O 77.492 3.31107 -1.31326 0
M  V30 804 O 76.351 5.16729 -1.77914 0
M  V30 805 H 73.445 0.792799 -0.235368 0
M  V30 806 H 75.991 1.25021 -1.14751 0
M  V30 807 H 74.763 3.097 -2.39168 0
M  V30 808 H 74.386 3.88052 -0.866107 0
M  V30 809 N 75.3831 0.828654 1.34056 0
M  V30 810 C 76.3311 0.242973 2.31327 0
M  V30 811 C 77.3251 -0.61944 1.57668 0
M  V30 812 O 78.5311 -0.51014 1.7262 0
M  V30 813 H 74.9061 0.059834 0.749616 0
M  V30 814 H 76.8771 1.07809 2.78244 0
M  V30 815 C 75.6261 -0.575733 3.429 0
M  V30 816 H 74.9491 0.0785582 3.99723 0
M  V30 817 H 76.3891 -0.951547 4.13185 0
M  V30 818 C 74.8481 -1.75044 2.87856 0
M  V30 819 O 75.3781 -2.84882 2.83205 0
M  V30 820 N 73.5841 -1.56903 2.44602 0
M  V30 821 H 73.1311 -0.675547 2.48584 0
M  V30 822 H 73.0891 -2.35652 2.08124 0
M  V30 823 N 76.8612 -1.46375 0.584142 0
M  V30 824 C 77.8082 -2.30323 -0.148286 0
M  V30 825 C 78.7782 -1.40703 -0.882713 0
M  V30 826 O 79.9632 -1.69651 -0.873099 0
M  V30 827 C 77.1032 -3.25196 -1.15507 0
M  V30 828 C 76.2162 -4.29915 -0.423943 0
M  V30 829 C 75.3512 -5.11914 -1.41838 0
M  V30 830 C 74.3902 -6.08381 -0.673736 0
M  V30 831 N 73.5272 -6.83242 -1.6163 0
M  V30 832 H 78.3672 -2.92427 0.573644 0
M  V30 833 H 75.9042 -1.44118 0.294703 0
M  V30 834 H 77.8622 -3.78646 -1.75166 0
M  V30 835 H 76.4922 -2.64898 -1.8447 0
M  V30 836 H 75.5442 -3.7931 0.287714 0
M  V30 837 H 76.8562 -4.98549 0.158128 0
M  V30 838 H 76.0102 -5.69648 -2.08773 0
M  V30 839 H 74.7492 -4.43243 -2.03438 0
M  V30 840 H 73.7542 -5.49799 0.00938483 0
M  V30 841 H 74.9792 -6.79071 -0.0631082 0
M  V30 842 H 72.9252 -6.1728 -2.22038 0
M  V30 843 H 72.8422 -7.48144 -1.08707 0
M  V30 844 H 74.1102 -7.45534 -2.27596 0
M  V30 845 N 78.3393 -0.321999 -1.54275 0
M  V30 846 C 79.6163 0.335232 -1.92706 0
M  V30 847 C 79.9963 1.70006 -1.25145 0
M  V30 848 O 79.3443 2.25067 -0.394596 0
M  V30 849 C 79.5543 0.429008 -3.46353 0
M  V30 850 C 80.9023 0.690029 -4.18956 0
M  V30 851 O 81.9263 0.511992 -3.52501 0
M  V30 852 O 80.7853 1.03338 -5.36641 0
M  V30 853 H 77.8793 0.191143 -0.804608 0
M  V30 854 H 80.4253 -0.3716 -1.65581 0
M  V30 855 H 79.1973 -0.529611 -3.87699 0
M  V30 856 H 78.8203 1.18348 -3.79578 0
M  V30 857 N 79.8174 1.5752 -0.0501392 0
M  V30 858 C 81.0634 1.92936 0.624798 0
M  V30 859 C 81.3964 0.928685 1.70555 0
M  V30 860 O 80.6714 -0.0454779 1.94447 0
M  V30 861 C 80.9544 3.38737 1.22185 0
M  V30 862 C 80.8074 4.49552 0.149218 0
M  V30 863 C 82.1264 3.84913 2.13378 0
M  V30 864 H 79.2454 0.701604 0.225657 0
M  V30 865 H 81.8874 1.89671 -0.111693 0
M  V30 866 H 80.0374 3.4165 1.84953 0
M  V30 867 H 81.7094 4.58768 -0.482648 0
M  V30 868 H 79.9524 4.30638 -0.522841 0
M  V30 869 H 80.6234 5.48653 0.606966 0
M  V30 870 H 83.0994 3.8387 1.60572 0
M  V30 871 H 81.9754 4.87584 2.52097 0
M  V30 872 H 82.2364 3.21611 3.03346 0
M  V30 873 N 81.2955 -0.223234 1.56011 0
M  V30 874 C 82.5205 -0.968978 1.83373 0
M  V30 875 C 82.9455 -1.77227 0.630254 0
M  V30 876 O 82.3035 -1.76345 -0.420959 0
M  V30 877 C 82.3515 -1.86363 3.08709 0
M  V30 878 O 81.4555 -2.95873 2.87285 0
M  V30 879 H 80.7965 -0.274461 0.604622 0
M  V30 880 H 83.3265 -0.237056 2.03222 0
M  V30 881 H 83.3365 -2.27376 3.38768 0
M  V30 882 H 82.0115 -1.27319 3.95933 0
M  V30 883 H 80.5885 -2.58818 2.68454 0
M  V30 884 N 82.7736 -1.49793 -0.48987 0
M  V30 885 C 83.6836 -1.70036 -1.61632 0
M  V30 886 C 84.6996 -0.583102 -1.63939 0
M  V30 887 O 85.8756 -0.859169 -1.82154 0
M  V30 888 C 82.9406 -1.77277 -2.97949 0
M  V30 889 C 82.0016 -3.00918 -3.06181 0
M  V30 890 C 81.2346 -3.07804 -4.35996 0
M  V30 891 O 81.4576 -2.21982 -5.25433 0
M  V30 892 O 80.3916 -4.00369 -4.49431 0
M  V30 893 H 84.2176 -2.65486 -1.47482 0
M  V30 894 H 81.8026 -1.33666 -0.667362 0
M  V30 895 H 83.6846 -1.84329 -3.78947 0
M  V30 896 H 82.3596 -0.850076 -3.12339 0
M  V30 897 H 81.2666 -2.99377 -2.2433 0
M  V30 898 H 82.5996 -3.92704 -2.96723 0
M  V30 899 N 84.2517 0.741722 -1.39055 0
M  V30 900 C 85.1987 1.85566 -1.37237 0
M  V30 901 C 86.1687 1.64457 -0.233072 0
M  V30 902 O 87.3537 1.85957 -0.427147 0
M  V30 903 C 84.4937 3.23004 -1.215 0
M  V30 904 C 83.6067 3.55864 -2.44918 0
M  V30 905 C 82.7417 4.82669 -2.21821 0
M  V30 906 C 81.7807 5.08351 -3.40948 0
M  V30 907 N 80.9177 6.26356 -3.17211 0
M  V30 908 H 85.7577 1.86455 -2.32462 0
M  V30 909 H 83.2947 0.911176 -1.15482 0
M  V30 910 H 85.2527 4.02331 -1.10389 0
M  V30 911 H 83.8827 3.21411 -0.29908 0
M  V30 912 H 82.9347 2.7129 -2.66657 0
M  V30 913 H 84.2467 3.70765 -3.33668 0
M  V30 914 H 83.4007 5.69962 -2.07914 0
M  V30 915 H 82.1397 4.69929 -1.30454 0
M  V30 916 H 81.1447 4.19522 -3.55361 0
M  V30 917 H 82.3697 5.22981 -4.33207 0
M  V30 918 H 80.3157 6.14917 -2.28502 0
M  V30 919 H 80.2327 6.41813 -3.99515 0
M  V30 920 H 81.5007 7.16506 -3.06984 0
M  V30 921 N 85.7298 1.2412 0.971189 0
M  V30 922 C 86.9768 1.07881 1.71371 0
M  V30 923 C 87.3048 -0.382901 1.90694 0
M  V30 924 O 86.5598 -1.29945 1.46331 0
M  V30 925 C 86.8588 1.75983 3.11071 0
M  V30 926 C 86.5248 3.25909 3.11599 0
M  V30 927 C 85.1868 3.66813 3.11451 0
M  V30 928 C 87.5388 4.21771 3.062 0
M  V30 929 C 84.8668 5.02021 3.03631 0
M  V30 930 C 87.2188 5.56982 2.99923 0
M  V30 931 C 85.8828 5.97237 2.98102 0
M  V30 932 H 85.1528 0.394764 0.62709 0
M  V30 933 H 87.7998 1.54176 1.13587 0
M  V30 934 H 86.1048 1.22072 3.72298 0
M  V30 935 H 87.8018 1.60887 3.6731 0
M  V30 936 H 84.3918 2.93353 3.12477 0
M  V30 937 H 88.5758 3.91172 3.05447 0
M  V30 938 H 83.8318 5.32411 3.0058 0
M  V30 939 H 88.0058 6.30969 2.94704 0
M  V30 940 H 85.6328 7.01967 2.91798 0
M  V30 941 N 87.2079 -1.17134 1.05439 0
M  V30 942 C 88.1549 -2.21235 0.657539 0
M  V30 943 C 89.1249 -1.62551 -0.341543 0
M  V30 944 O 90.3099 -1.89379 -0.232393 0
M  V30 945 C 87.4499 -3.45076 0.0410575 0
M  V30 946 C 86.5629 -4.18042 1.08927 0
M  V30 947 C 85.6979 -5.29376 0.439848 0
M  V30 948 C 84.7369 -5.94132 1.4722 0
M  V30 949 N 83.8739 -6.96975 0.846756 0
M  V30 950 H 88.7139 -2.54534 1.54972 0
M  V30 951 H 86.2509 -1.25028 0.775006 0
M  V30 952 H 88.2089 -4.15862 -0.33383 0
M  V30 953 H 86.8389 -3.12353 -0.814568 0
M  V30 954 H 85.8909 -3.45945 1.58196 0
M  V30 955 H 87.2029 -4.62306 1.87282 0
M  V30 956 H 86.3569 -6.06699 0.0115125 0
M  V30 957 H 85.0959 -4.86251 -0.375656 0
M  V30 958 H 84.1009 -5.15538 1.91052 0
M  V30 959 H 85.3259 -6.39337 2.28965 0
M  V30 960 H 83.2719 -6.5598 0.0518075 0
M  V30 961 H 83.1889 -7.39565 1.5678 0
M  V30 962 H 84.4569 -7.78239 0.443277 0
M  V30 963 N 88.686 -0.835752 -1.33615 0
M  V30 964 C 89.914 -0.443344 -2.02094 0
M  V30 965 C 90.329 0.954522 -1.62894 0
M  V30 966 O 89.686 1.61982 -0.840723 0
M  V30 967 C 89.737 -0.550775 -3.5728 0
M  V30 968 O 89.458 -1.89356 -3.95065 0
M  V30 969 C 90.959 -0.154919 -4.43029 0
M  V30 970 H 88.179 -0.176359 -0.647409 0
M  V30 971 H 90.723 -1.12746 -1.70612 0
M  V30 972 H 88.878 0.0853997 -3.87306 0
M  V30 973 H 89.292 -1.87687 -4.89769 0
M  V30 974 H 90.766 -0.281144 -5.51284 0
M  V30 975 H 91.243 0.902863 -4.2982 0
M  V30 976 H 91.849 -0.765404 -4.18356 0
M  V30 977 N 90.1641 1.46063 -0.591896 0
M  V30 978 C 91.0941 2.33172 0.123673 0
M  V30 979 C 92.0751 1.45897 0.87453 0
M  V30 980 O 93.2601 1.74698 0.848181 0
M  V30 981 C 90.3901 3.28336 1.13194 0
M  V30 982 C 89.3441 4.25124 0.495324 0
M  V30 983 C 88.6701 5.09863 1.61071 0
M  V30 984 C 89.9701 5.19143 -0.573425 0
M  V30 985 H 91.6641 2.93252 -0.603646 0
M  V30 986 H 89.2101 1.41014 -0.291741 0
M  V30 987 H 91.1631 3.88137 1.64097 0
M  V30 988 H 89.8871 2.66383 1.88965 0
M  V30 989 H 88.5461 3.66599 0.00729452 0
M  V30 990 H 88.1941 4.44288 2.35832 0
M  V30 991 H 87.8941 5.75417 1.19035 0
M  V30 992 H 89.4181 5.72529 2.12233 0
M  V30 993 H 90.8321 5.73106 -0.1491 0
M  V30 994 H 89.2291 5.93089 -0.914636 0
M  V30 995 H 90.2991 4.62519 -1.45617 0
M  V30 996 N 91.6422 0.330177 1.54103 0
M  V30 997 C 92.5722 -0.525353 2.27513 0
M  V30 998 C 93.5532 -1.11383 1.2856 0
M  V30 999 O 94.7382 -1.13773 1.57383 0
M  V30 1000 C 91.8682 -1.6831 3.03791 0
M  V30 1001 C 90.8222 -1.2236 4.10137 0
M  V30 1002 C 90.1482 -2.46882 4.74293 0
M  V30 1003 C 91.4482 -0.333697 5.21233 0
M  V30 1004 H 93.1422 0.087013 2.99274 0
M  V30 1005 H 90.6882 0.0432893 1.43935 0
M  V30 1006 H 92.6412 -2.28795 3.5388 0
M  V30 1007 H 91.3652 -2.32216 2.29659 0
M  V30 1008 H 90.0242 -0.64165 3.60941 0
M  V30 1009 H 89.6722 -3.09165 3.96769 0
M  V30 1010 H 89.3722 -2.16825 5.46133 0
M  V30 1011 H 90.8962 -3.08117 5.27159 0
M  V30 1012 H 92.3102 -0.845013 5.67038 0
M  V30 1013 H 90.7072 -0.125612 5.99969 0
M  V30 1014 H 91.7772 0.633724 4.80741 0
M  V30 1015 N 93.1203 -1.57491 0.0584922 0
M  V30 1016 C 94.3503 -1.9701 -0.622134 0
M  V30 1017 C 94.7583 -0.935034 -1.6448 0
M  V30 1018 O 94.1013 0.0882904 -1.83488 0
M  V30 1019 C 94.1633 -3.32794 -1.35972 0
M  V30 1020 C 93.8273 -4.54343 -0.492043 0
M  V30 1021 C 94.8243 -5.19323 0.244901 0
M  V30 1022 C 92.5093 -5.00534 -0.420821 0
M  V30 1023 C 94.5033 -6.28835 1.04143 0
M  V30 1024 C 92.1903 -6.09921 0.379389 0
M  V30 1025 C 93.1883 -6.73933 1.10919 0
M  V30 1026 O 92.8763 -7.81216 1.89623 0
M  V30 1027 H 92.6083 -0.653127 -0.174359 0
M  V30 1028 H 95.1623 -2.05029 0.123418 0
M  V30 1029 H 93.3923 -3.21351 -2.15105 0
M  V30 1030 H 95.0813 -3.5701 -1.93129 0
M  V30 1031 H 95.8473 -4.8459 0.19939 0
M  V30 1032 H 91.7263 -4.50496 -0.978474 0
M  V30 1033 H 95.2703 -6.7873 1.61157 0
M  V30 1034 H 91.1673 -6.44089 0.426512 0
M  V30 1035 H 91.9353 -7.98029 1.81913 0
M  V30 1036 N 94.5984 0.214957 -1.56127 0
M  V30 1037 C 95.8754 0.963093 -1.70247 0
M  V30 1038 C 96.2554 2.02166 -0.60764 0
M  V30 1039 O 95.6034 2.25244 0.384385 0
M  V30 1040 C 95.8134 1.56756 -3.11815 0
M  V30 1041 C 97.1614 2.0573 -3.7143 0
M  V30 1042 O 98.1854 1.66637 -3.14818 0
M  V30 1043 O 97.0444 2.77603 -4.70743 0
M  V30 1044 H 94.1384 0.450321 -0.693643 0
M  V30 1045 H 96.6844 0.206219 -1.68442 0
M  V30 1046 H 95.4564 0.803533 -3.82961 0
M  V30 1047 H 95.0794 2.3898 -3.17765 0
M  V30 1048 N 96.0765 1.50051 0.48192 0
M  V30 1049 C 97.3255 1.59741 1.23149 0
M  V30 1050 C 97.6385 0.298163 1.93314 0
M  V30 1051 O 98.8445 0.273835 2.70116 0
M  V30 1052 C 97.3005 2.81926 2.23708 0
M  V30 1053 C 96.9085 4.18685 1.59396 0
M  V30 1054 C 98.6525 3.00956 2.99375 0
M  V30 1055 C 96.5595 5.3207 2.58178 0
M  V30 1056 H 95.4895 0.594838 0.46334 0
M  V30 1057 H 98.1405 1.76467 0.503169 0
M  V30 1058 H 96.5225 2.58736 2.99786 0
M  V30 1059 H 97.6965 4.52088 0.891811 0
M  V30 1060 H 96.0115 4.05171 0.960503 0
M  V30 1061 H 98.6085 3.82836 3.73283 0
M  V30 1062 H 98.9515 2.12258 3.58123 0
M  V30 1063 H 99.4845 3.24277 2.30411 0
M  V30 1064 H 96.2235 6.22888 2.04184 0
M  V30 1065 H 95.7435 5.03098 3.26577 0
M  V30 1066 H 97.4225 5.62196 3.20225 0
M  V30 1067 N 97.5546 -0.734337 1.39446 0
M  V30 1068 C 98.9656 -1.31264 1.32766 0
M  V30 1069 C 99.3166 -1.96198 -0.00767497 0
M  V30 1070 O 98.4416 -1.96346 -0.909796 0
M  V30 1071 C 99.0366 -2.38682 2.4045 0
M  V30 1072 C 97.5956 -2.92184 2.37288 0
M  V30 1073 C 96.7426 -1.6576 2.22304 0
M  V30 1074 H 99.6936 -0.531799 1.49525 0
M  V30 1075 H 99.7146 -3.19087 2.07276 0
M  V30 1076 H 99.2266 -1.91392 3.37625 0
M  V30 1077 H 97.3276 -3.43752 1.43754 0
M  V30 1078 H 97.4406 -3.45253 3.3217 0
M  V30 1079 H 95.8046 -1.9012 1.69489 0
M  V30 1080 H 96.5876 -1.20521 3.21449 0
M  V30 1081 N 99.0327 -1.24633 -0.964593 0
M  V30 1082 C 100.282 -1.08188 -1.7023 0
M  V30 1083 C 100.595 0.37873 -1.91898 0
M  V30 1084 O 101.801 0.663427 -2.6327 0
M  V30 1085 C 100.257 -1.88773 -3.06419 0
M  V30 1086 C 99.8647 -3.39263 -2.92582 0
M  V30 1087 C 101.609 -1.80867 -3.84041 0
M  V30 1088 C 99.5157 -4.1218 -4.24101 0
M  V30 1089 H 98.4457 -0.401245 -0.638372 0
M  V30 1090 H 101.097 -1.48742 -1.07462 0
M  V30 1091 H 99.4787 -1.41035 -3.70034 0
M  V30 1092 H 100.653 -3.94603 -2.37961 0
M  V30 1093 H 98.9677 -3.48154 -2.28424 0
M  V30 1094 H 101.565 -2.32646 -4.81435 0
M  V30 1095 H 101.908 -0.774543 -4.09031 0
M  V30 1096 H 102.441 -2.26301 -3.27159 0
M  V30 1097 H 99.1797 -5.15965 -4.04303 0
M  V30 1098 H 98.6997 -3.61626 -4.78526 0
M  V30 1099 H 100.379 -4.19349 -4.92702 0
M  V30 1100 N 100.511 1.16574 -1.06058 0
M  V30 1101 C 101.421 2.2452 -0.680282 0
M  V30 1102 C 102.437 1.71348 0.302604 0
M  V30 1103 O 103.613 2.00822 0.152513 0
M  V30 1104 C 100.678 3.46629 -0.0700315 0
M  V30 1105 C 99.7388 4.14849 -1.10448 0
M  V30 1106 C 98.9718 5.31129 -0.523256 0
M  V30 1107 O 99.1948 5.66514 0.664709 0
M  V30 1108 O 98.1288 5.88526 -1.26179 0
M  V30 1109 H 101.955 2.59355 -1.58015 0
M  V30 1110 H 99.5398 1.24043 -0.832694 0
M  V30 1111 H 101.422 4.20543 0.268667 0
M  V30 1112 H 100.097 3.13573 0.803353 0
M  V30 1113 H 99.0038 3.42916 -1.49532 0
M  V30 1114 H 100.337 4.51954 -1.94931 0
M  V30 1115 N 101.989 0.842826 1.3317 0
M  V30 1116 C 103.229 0.446574 1.99462 0
M  V30 1117 C 103.593 -0.976818 1.65295 0
M  V30 1118 O 104.794 -1.477 2.24584 0
M  V30 1119 C 103.065 0.665353 3.51152 0
M  V30 1120 S 104.624 0.364911 4.3728 0
M  V30 1121 H 101.442 0.167803 0.690915 0
M  V30 1122 H 104.044 1.09297 1.62094 0
M  V30 1123 H 102.748 1.7006 3.73507 0
M  V30 1124 H 102.279 0.00494568 3.934 0
M  V30 1125 H 104.294 -0.813761 4.89482 0
M  V30 1126 N 103.467 -1.45747 0.599634 0
M  V30 1127 C 104.4 -2.27547 -0.172552 0
M  V30 1128 C 105.378 -1.36657 -0.881116 0
M  V30 1129 O 106.562 -1.66081 -0.891595 0
M  V30 1130 C 103.689 -3.14829 -1.24903 0
M  V30 1131 C 102.735 -4.21603 -0.644465 0
M  V30 1132 S 103.568 -5.32754 0.541606 0
M  V30 1133 C 104.724 -6.23604 -0.535656 0
M  V30 1134 H 104.957 -2.92691 0.521468 0
M  V30 1135 H 102.49 -1.49473 0.386947 0
M  V30 1136 H 104.448 -3.65675 -1.86527 0
M  V30 1137 H 103.109 -2.48965 -1.91508 0
M  V30 1138 H 102.302 -4.82566 -1.45417 0
M  V30 1139 H 101.904 -3.73857 -0.103534 0
M  V30 1140 H 104.196 -6.62519 -1.41686 0
M  V30 1141 H 105.139 -7.0809 0.0376246 0
M  V30 1142 H 105.547 -5.58103 -0.84741 0
M  V30 1143 N 104.945 -0.338344 -1.53925 0
M  V30 1144 C 105.855 0.529421 -2.28548 0
M  V30 1145 C 106.871 1.11645 -1.3346 0
M  V30 1146 O 108.047 1.13325 -1.66492 0
M  V30 1147 C 105.112 1.66713 -3.03987 0
M  V30 1148 C 104.173 1.11041 -4.14691 0
M  V30 1149 C 103.406 2.19389 -4.86522 0
M  V30 1150 O 103.629 3.40013 -4.57982 0
M  V30 1151 O 102.563 1.83976 -5.73094 0
M  V30 1152 H 106.389 -0.0770399 -3.03602 0
M  V30 1153 H 103.974 -0.103555 -1.49041 0
M  V30 1154 H 105.856 2.32918 -3.5118 0
M  V30 1155 H 104.531 2.25949 -2.31794 0
M  V30 1156 H 103.438 0.413024 -3.71813 0
M  V30 1157 H 104.771 0.562975 -4.8897 0
M  V30 1158 N 106.423 1.57458 -0.0668435 0
M  V30 1159 C 107.669 1.93587 0.6043 0
M  V30 1160 C 108.002 0.946722 1.69561 0
M  V30 1161 O 107.277 -0.0248516 1.94484 0
M  V30 1162 C 107.56 3.40014 1.18585 0
M  V30 1163 C 107.413 4.49685 0.101529 0
M  V30 1164 C 108.732 3.87154 2.09284 0
M  V30 1165 H 105.851 0.703958 0.218202 0
M  V30 1166 H 108.493 1.89542 -0.131804 0
M  V30 1167 H 106.643 3.43592 1.81319 0
M  V30 1168 H 108.315 4.5823 -0.531279 0
M  V30 1169 H 106.558 4.30059 -0.568487 0
M  V30 1170 H 107.229 5.49266 0.54874 0
M  V30 1171 H 109.705 3.85551 1.56491 0
M  V30 1172 H 108.581 4.90231 2.46911 0
M  V30 1173 H 108.842 3.2481 2.99918 0
M  V30 1174 N 107.901 -0.206675 1.56239 0
M  V30 1175 C 109.126 -0.949474 1.8439 0
M  V30 1176 C 109.551 -1.76549 0.649016 0
M  V30 1177 O 108.909 -1.76782 -0.402231 0
M  V30 1178 C 108.957 -1.83078 3.10668 0
M  V30 1179 O 108.061 -2.9281 2.90407 0
M  V30 1180 H 107.402 -0.268033 0.607499 0
M  V30 1181 H 109.932 -0.215488 2.03462 0
M  V30 1182 H 109.942 -2.2377 3.41161 0
M  V30 1183 H 108.617 -1.23112 3.97261 0
M  V30 1184 H 107.194 -2.55956 2.71184 0
M  V30 1185 N 109.379 -1.50304 -0.473955 0
M  V30 1186 C 110.289 -1.7174 -1.5982 0
M  V30 1187 C 111.305 -0.600457 -1.63311 0
M  V30 1188 O 112.481 -0.878441 -1.81233 0
M  V30 1189 C 109.546 -1.80427 -2.96052 0
M  V30 1190 C 108.607 -3.04148 -3.02972 0
M  V30 1191 C 107.84 -3.12411 -4.32706 0
M  V30 1192 O 108.063 -2.27542 -5.23049 0
M  V30 1193 O 106.997 -4.05113 -4.45159 0
M  V30 1194 H 110.823 -2.67035 -1.44657 0
M  V30 1195 H 108.408 -1.34366 -0.653148 0
M  V30 1196 H 110.29 -1.88338 -3.7697 0
M  V30 1197 H 108.965 -0.883156 -3.11419 0
M  V30 1198 H 107.872 -3.0174 -2.21142 0
M  V30 1199 H 109.205 -3.95829 -2.92541 0
M  V30 1200 N 110.857 0.726932 -1.39834 0
M  V30 1201 C 111.767 1.87131 -1.41489 0
M  V30 1202 C 112.783 1.71239 -0.308757 0
M  V30 1203 O 113.959 1.93701 -0.551529 0
M  V30 1204 C 111.024 3.22811 -1.26468 0
M  V30 1205 C 110.085 3.51039 -2.47124 0
M  V30 1206 C 109.318 4.80245 -2.3281 0
M  V30 1207 O 109.541 5.54537 -1.33585 0
M  V30 1208 O 108.475 5.08554 -3.21957 0
M  V30 1209 H 112.301 1.8869 -2.3797 0
M  V30 1210 H 109.886 0.875837 -1.21035 0
M  V30 1211 H 111.768 4.03877 -1.20255 0
M  V30 1212 H 110.443 3.22005 -0.330862 0
M  V30 1213 H 109.35 2.70027 -2.58914 0
M  V30 1214 H 110.683 3.56632 -3.39227 0
M  V30 1215 N 112.336 1.25143 0.95797 0
M  V30 1216 C 113.585 1.0909 1.69654 0
M  V30 1217 C 113.898 -0.368548 1.92097 0
M  V30 1218 O 115.104 -0.649455 2.63618 0
M  V30 1219 C 113.56 1.90395 3.05414 0
M  V30 1220 C 113.168 3.4081 2.90779 0
M  V30 1221 C 114.912 1.82901 3.83076 0
M  V30 1222 C 112.819 4.14423 4.21909 0
M  V30 1223 H 111.749 0.404625 0.636235 0
M  V30 1224 H 114.4 1.4931 1.06672 0
M  V30 1225 H 112.782 1.42996 3.69281 0
M  V30 1226 H 113.956 3.95859 2.35865 0
M  V30 1227 H 112.271 3.49361 2.26575 0
M  V30 1228 H 114.868 2.35196 4.80195 0
M  V30 1229 H 115.211 0.796224 4.08615 0
M  V30 1230 H 115.744 2.28033 3.25954 0
M  V30 1231 H 112.483 5.18102 4.01561 0
M  V30 1232 H 112.003 3.64159 4.76601 0
M  V30 1233 H 113.682 4.21956 4.90471 0
M  V30 1234 N 113.814 -1.1601 1.06675 0
M  V30 1235 C 115.063 -1.85973 0.780818 0
M  V30 1236 C 115.376 -1.82819 -0.695444 0
M  V30 1237 O 116.582 -2.484 -1.09589 0
M  V30 1238 C 115.038 -3.33757 1.34665 0
M  V30 1239 C 114.646 -3.45374 2.85343 0
M  V30 1240 C 116.39 -4.0895 1.13843 0
M  V30 1241 C 114.297 -4.87266 3.35151 0
M  V30 1242 H 113.227 -0.696661 0.288407 0
M  V30 1243 H 115.878 -1.30903 1.28595 0
M  V30 1244 H 114.26 -3.88456 0.769274 0
M  V30 1245 H 115.434 -3.00816 3.49065 0
M  V30 1246 H 113.749 -2.83619 3.04876 0
M  V30 1247 H 116.346 -5.13654 1.4854 0
M  V30 1248 H 116.689 -4.16229 0.0770282 0
M  V30 1249 H 117.222 -3.605 1.68179 0
M  V30 1250 H 113.961 -4.85168 4.40786 0
M  V30 1251 H 113.481 -5.32433 2.76179 0
M  V30 1252 H 115.16 -5.56097 3.30704 0
M  V30 1253 N 115.292 -0.849877 -1.32721 0
M  V30 1254 C 116.517 -0.463856 -2.02146 0
M  V30 1255 C 116.942 0.930449 -1.63476 0
M  V30 1256 O 116.3 1.61033 -0.832952 0
M  V30 1257 C 116.348 -0.604955 -3.55489 0
M  V30 1258 O 115.452 0.36425 -4.10788 0
M  V30 1259 H 114.793 -0.187046 -0.637111 0
M  V30 1260 H 117.323 -1.14775 -1.69375 0
M  V30 1261 H 117.333 -0.490696 -4.05038 0
M  V30 1262 H 116.008 -1.62174 -3.82978 0
M  V30 1263 H 114.585 0.206628 -3.72327 0
M  V30 1264 N 116.77 1.45427 -0.607355 0
M  V30 1265 C 118 2.06314 -0.108656 0
M  V30 1266 C 118.408 1.45269 1.21217 0
M  V30 1267 O 117.751 0.561115 1.74921 0
M  V30 1268 C 117.813 3.59345 0.105618 0
M  V30 1269 C 117.477 4.42723 -1.13337 0
M  V30 1270 C 118.474 4.77715 -2.05145 0
M  V30 1271 C 116.159 4.83478 -1.36213 0
M  V30 1272 C 118.153 5.52317 -3.18158 0
M  V30 1273 C 115.84 5.57835 -2.49527 0
M  V30 1274 C 116.838 5.92171 -3.40327 0
M  V30 1275 O 116.526 6.65019 -4.51669 0
M  V30 1276 H 116.258 0.672782 -0.0658842 0
M  V30 1277 H 118.812 1.87664 -0.834945 0
M  V30 1278 H 117.042 3.76394 0.886796 0
M  V30 1279 H 118.731 4.02076 0.555886 0
M  V30 1280 H 119.497 4.46787 -1.88697 0
M  V30 1281 H 115.376 4.56188 -0.664362 0
M  V30 1282 H 118.92 5.79036 -3.89054 0
M  V30 1283 H 114.817 5.88177 -2.65928 0
M  V30 1284 H 115.585 6.83469 -4.50348 0
M  V30 1285 N 118.248 0.346503 1.53744 0
M  V30 1286 C 119.211 -0.496439 2.23759 0
M  V30 1287 C 120.211 -1.0252 1.2388 0
M  V30 1288 O 121.401 -0.913974 1.48297 0
M  V30 1289 C 118.533 -1.69187 2.95954 0
M  V30 1290 H 119.726 0.115952 2.99676 0
M  V30 1291 H 117.279 0.0978939 1.55993 0
M  V30 1292 H 118.014 -2.34288 2.24231 0
M  V30 1293 H 117.799 -1.31989 3.69217 0
M  V30 1294 H 119.289 -2.28969 3.49232 0
M  V30 1295 N 119.726 -1.57421 0.075193 0
M  V30 1296 C 120.673 -2.12915 -0.890843 0
M  V30 1297 C 121.643 -1.04252 -1.29309 0
M  V30 1298 O 122.828 -1.31933 -1.37834 0
M  V30 1299 C 119.968 -2.69795 -2.15186 0
M  V30 1300 C 119.081 -3.92624 -1.80194 0
M  V30 1301 C 118.216 -4.37736 -3.00933 0
M  V30 1302 C 117.255 -5.53205 -2.61974 0
M  V30 1303 N 116.392 -5.9326 -3.75483 0
M  V30 1304 H 121.232 -2.95156 -0.410735 0
M  V30 1305 H 118.769 -1.45854 -0.191086 0
M  V30 1306 H 120.727 -3.00883 -2.89008 0
M  V30 1307 H 119.357 -1.90313 -2.60731 0
M  V30 1308 H 118.409 -3.67977 -0.964218 0
M  V30 1309 H 119.721 -4.76482 -1.47534 0
M  V30 1310 H 118.875 -4.70503 -3.8303 0
M  V30 1311 H 117.614 -3.52739 -3.36789 0
M  V30 1312 H 116.619 -5.20086 -1.783 0
M  V30 1313 H 117.844 -6.39936 -2.27284 0
M  V30 1314 H 115.79 -5.11212 -4.11094 0
M  V30 1315 H 115.707 -6.71865 -3.46602 0
M  V30 1316 H 116.975 -6.30651 -4.58148 0
M  V30 1317 N 121.204 0.198386 -1.56346 0
M  V30 1318 C 122.134 1.24865 -1.9731 0
M  V30 1319 C 123.115 1.47651 -0.844576 0
M  V30 1320 O 124.3 1.59444 -1.10866 0
M  V30 1321 C 121.43 2.59358 -2.30977 0
M  V30 1322 C 120.384 2.5119 -3.46537 0
M  V30 1323 C 119.71 3.89926 -3.65871 0
M  V30 1324 C 121.01 2.03977 -4.80823 0
M  V30 1325 H 122.704 0.908252 -2.85291 0
M  V30 1326 H 120.25 0.435462 -1.37258 0
M  V30 1327 H 122.203 3.33011 -2.58228 0
M  V30 1328 H 120.927 2.95132 -1.39874 0
M  V30 1329 H 119.586 1.79993 -3.19371 0
M  V30 1330 H 119.234 4.23046 -2.72105 0
M  V30 1331 H 118.934 3.85336 -4.4361 0
M  V30 1332 H 120.458 4.65205 -3.95495 0
M  V30 1333 H 121.872 2.67386 -5.07127 0
M  V30 1334 H 120.269 2.10397 -5.62008 0
M  V30 1335 H 121.339 0.992861 -4.74626 0
M  V30 1336 N 122.682 1.50554 0.465978 0
M  V30 1337 C 123.614 1.65949 1.58093 0
M  V30 1338 C 124.627 0.540827 1.53554 0
M  V30 1339 O 125.816 0.814187 1.5885 0
M  V30 1340 C 122.916 1.63261 2.96983 0
M  V30 1341 C 122.089 2.91245 3.26336 0
M  V30 1342 C 121.148 2.8113 4.44806 0
M  V30 1343 O 120.174 3.55086 4.44862 0
M  V30 1344 N 121.376 1.95032 5.46756 0
M  V30 1345 H 124.141 2.62122 1.45301 0
M  V30 1346 H 121.702 1.48082 0.65448 0
M  V30 1347 H 123.694 1.54101 3.74212 0
M  V30 1348 H 122.264 0.748032 3.03518 0
M  V30 1349 H 121.484 3.14493 2.37672 0
M  V30 1350 H 122.772 3.76022 3.42761 0
M  V30 1351 H 122.17 1.3427 5.49534 0
M  V30 1352 H 120.727 1.91772 6.2295 0
M  V30 1353 N 124.16 -0.719506 1.40217 0
M  V30 1354 C 125.09 -1.8465 1.42922 0
M  V30 1355 C 126.071 -1.67599 0.29062 0
M  V30 1356 O 127.256 -1.87688 0.498677 0
M  V30 1357 C 124.386 -3.22565 1.28722 0
M  V30 1358 C 123.34 -3.54281 2.40144 0
M  V30 1359 C 122.666 -4.91298 2.11023 0
M  V30 1360 C 123.966 -3.55676 3.82481 0
M  V30 1361 H 125.66 -1.82644 2.37237 0
M  V30 1362 H 123.206 -0.877305 1.1419 0
M  V30 1363 H 125.159 -4.01095 1.29232 0
M  V30 1364 H 123.883 -3.25137 0.308811 0
M  V30 1365 H 122.542 -2.78088 2.38877 0
M  V30 1366 H 122.19 -4.90468 1.11582 0
M  V30 1367 H 121.89 -5.13485 2.8567 0
M  V30 1368 H 123.414 -5.72166 2.13209 0
M  V30 1369 H 124.828 -4.24254 3.85592 0
M  V30 1370 H 123.225 -3.89388 4.56614 0
M  V30 1371 H 124.295 -2.55144 4.12346 0
M  V30 1372 N 125.638 -1.25649 -0.95132 0
M  V30 1373 C 126.886 -1.10375 -1.69298 0
M  V30 1374 C 127.207 0.355339 -1.91735 0
M  V30 1375 O 126.477 1.25188 -1.50681 0
M  V30 1376 H 125.057 -0.405461 -0.627384 0
M  V30 1377 H 127.719 -1.57823 -1.14358 0
M  V30 1378 H 126.815 -1.61465 -2.67087 0
M  V30 1379 N 127.117 1.15442 -1.07289 0
M  V30 1380 C 128.064 2.20161 -0.692653 0
M  V30 1381 C 129.034 1.63073 0.31564 0
M  V30 1382 O 130.219 1.89725 0.202235 0
M  V30 1383 C 127.359 3.44967 -0.0959509 0
M  V30 1384 C 126.472 4.16256 -1.15564 0
M  V30 1385 C 125.607 5.28609 -0.524011 0
M  V30 1386 C 124.646 5.91715 -1.56653 0
M  V30 1387 N 123.783 6.9554 -0.957531 0
M  V30 1388 H 128.623 2.52037 -1.59002 0
M  V30 1389 H 126.16 1.2378 -0.794798 0
M  V30 1390 H 128.118 4.16341 0.267628 0
M  V30 1391 H 126.748 3.1361 0.764772 0
M  V30 1392 H 125.8 3.43385 -1.6368 0
M  V30 1393 H 127.112 4.59268 -1.94613 0
M  V30 1394 H 126.266 6.06604 -0.108032 0
M  V30 1395 H 125.005 4.86787 0.29825 0
M  V30 1396 H 124.01 5.12433 -1.9923 0
M  V30 1397 H 125.235 6.35614 -2.39107 0
M  V30 1398 H 123.181 6.55814 -0.156162 0
M  V30 1399 H 123.098 7.36977 -1.68526 0
M  V30 1400 H 124.366 7.77435 -0.567032 0
M  V30 1401 N 128.595 0.856903 1.32268 0
M  V30 1402 C 129.542 0.301172 2.28827 0
M  V30 1403 C 130.512 -0.593104 1.5515 0
M  V30 1404 O 131.697 -0.527537 1.83362 0
M  V30 1405 C 128.837 -0.502523 3.41422 0
M  V30 1406 C 127.95 0.417797 4.29975 0
M  V30 1407 C 127.085 -0.398749 5.29701 0
M  V30 1408 C 126.124 0.518827 6.09897 0
M  V30 1409 N 125.261 -0.260674 7.01616 0
M  V30 1410 H 130.101 1.12983 2.75751 0
M  V30 1411 H 127.638 0.568582 1.35667 0
M  V30 1412 H 129.596 -0.984141 4.05426 0
M  V30 1413 H 128.226 -1.29599 2.95642 0
M  V30 1414 H 127.278 1.01781 3.66531 0
M  V30 1415 H 128.59 1.12191 4.86019 0
M  V30 1416 H 127.744 -0.943435 5.9932 0
M  V30 1417 H 126.483 -1.13622 4.7428 0
M  V30 1418 H 125.488 1.07538 5.39181 0
M  V30 1419 H 126.713 1.25495 6.67404 0
M  V30 1420 H 124.659 -0.981198 6.4862 0
M  V30 1421 H 124.576 0.384364 7.55022 0
M  V30 1422 H 125.844 -0.787014 7.75517 0
M  V30 1423 N 130.073 -1.45103 0.615059 0
M  V30 1424 C 131.003 -2.33339 -0.0865619 0
M  V30 1425 C 131.984 -1.4727 -0.851209 0
M  V30 1426 O 133.169 -1.76026 -0.820281 0
M  V30 1427 C 130.299 -3.30095 -1.07956 0
M  V30 1428 C 129.253 -4.25858 -0.427628 0
M  V30 1429 C 128.579 -5.12361 -1.5294 0
M  V30 1430 C 129.879 -5.18165 0.655944 0
M  V30 1431 H 131.573 -2.92254 0.650224 0
M  V30 1432 H 129.119 -1.40532 0.314138 0
M  V30 1433 H 131.072 -3.90698 -1.57901 0
M  V30 1434 H 129.796 -2.69355 -1.84703 0
M  V30 1435 H 128.455 -3.66564 0.0510292 0
M  V30 1436 H 128.103 -4.47984 -2.28734 0
M  V30 1437 H 127.803 -5.77238 -1.09865 0
M  V30 1438 H 129.327 -5.75833 -2.03098 0
M  V30 1439 H 130.741 -5.72796 0.240257 0
M  V30 1440 H 129.138 -5.91559 1.00888 0
M  V30 1441 H 130.208 -4.60144 1.52957 0
M  V30 1442 N 131.551 -0.354651 -1.53558 0
M  V30 1443 C 132.499 0.512195 -2.26891 0
M  V30 1444 C 133.493 1.09263 -1.29452 0
M  V30 1445 O 134.699 1.03709 -1.47121 0
M  V30 1446 H 131.074 0.183878 -0.729173 0
M  V30 1447 H 133.045 -0.128202 -2.98124 0
M  V30 1448 C 131.794 1.64563 -3.06291 0
M  V30 1449 H 131.117 1.20829 -3.81104 0
M  V30 1450 H 132.557 2.22711 -3.60799 0
M  V30 1451 C 131.016 2.58158 -2.16462 0
M  V30 1452 O 131.546 3.60695 -1.76811 0
M  V30 1453 N 129.752 2.27096 -1.81317 0
M  V30 1454 H 129.299 1.43751 -2.1376 0
M  V30 1455 H 129.257 2.89975 -1.21498 0
M  V30 1456 N 133.029 1.57378 -0.0835403 0
M  V30 1457 C 134.306 1.85363 0.624507 0
M  V30 1458 C 134.686 0.978239 1.87066 0
M  V30 1459 O 134.034 0.0475908 2.2845 0
M  V30 1460 C 134.244 3.35795 0.950947 0
M  V30 1461 C 135.592 4.03581 1.31939 0
M  V30 1462 O 136.616 3.40609 1.04232 0
M  V30 1463 O 135.475 5.14672 1.83779 0
M  V30 1464 H 132.569 0.766162 0.311329 0
M  V30 1465 H 135.115 1.69307 -0.115362 0
M  V30 1466 H 133.887 3.91244 0.0663899 0
M  V30 1467 H 133.51 3.57154 1.74719 0
M  V30 1468 N 134.507 -0.190092 1.56449 0
M  V30 1469 C 135.732 -0.929864 1.85387 0
M  V30 1470 C 136.157 -1.7585 0.667704 0
M  V30 1471 O 135.515 -1.77198 -0.383459 0
M  V30 1472 C 135.563 -1.79773 3.12593 0
M  V30 1473 O 134.667 -2.89713 2.93496 0
M  V30 1474 H 134.008 -0.261574 0.610307 0
M  V30 1475 H 136.538 -0.193896 2.03679 0
M  V30 1476 H 136.548 -2.20139 3.43515 0
M  V30 1477 H 135.223 -1.18892 3.98544 0
M  V30 1478 H 133.8 -2.53065 2.73884 0
M  V30 1479 N 135.985 -1.50799 -0.457987 0
M  V30 1480 C 137.234 -1.6168 -1.20593 0
M  V30 1481 C 137.547 -0.32888 -1.92815 0
M  V30 1482 O 138.753 -0.316773 -2.69646 0
M  V30 1483 C 137.209 -2.8545 -2.19195 0
M  V30 1484 C 136.817 -4.21168 -1.52715 0
M  V30 1485 C 138.561 -3.05681 -2.94549 0
M  V30 1486 C 136.468 -5.3611 -2.4968 0
M  V30 1487 H 135.398 -0.602134 -0.453818 0
M  V30 1488 H 138.049 -1.77245 -0.475031 0
M  V30 1489 H 136.431 -2.63472 -2.95632 0
M  V30 1490 H 137.605 -4.53449 -0.819775 0
M  V30 1491 H 135.92 -4.06648 -0.895922 0
M  V30 1492 H 138.517 -3.88727 -3.67145 0
M  V30 1493 H 138.86 -2.17929 -3.54701 0
M  V30 1494 H 139.393 -3.27901 -2.25223 0
M  V30 1495 H 136.132 -6.26057 -1.94249 0
M  V30 1496 H 135.652 -5.0823 -3.18532 0
M  V30 1497 H 137.331 -5.6722 -3.11241 0
M  V30 1498 N 137.463 0.71206 -1.40597 0
M  V30 1499 C 138.693 1.49894 -1.42181 0
M  V30 1500 C 139.101 1.89189 -0.0208078 0
M  V30 1501 O 138.444 1.56223 0.966436 0
M  V30 1502 C 138.506 2.80215 -2.25211 0
M  V30 1503 C 138.17 2.63221 -3.73582 0
M  V30 1504 C 139.167 2.30249 -4.66135 0
M  V30 1505 C 136.852 2.79376 -4.17438 0
M  V30 1506 C 138.846 2.13645 -6.00529 0
M  V30 1507 C 136.533 2.6239 -5.51901 0
M  V30 1508 C 137.531 2.29573 -6.43262 0
M  V30 1509 O 137.219 2.12719 -7.75246 0
M  V30 1510 H 136.951 0.469031 -0.486812 0
M  V30 1511 H 139.505 0.88564 -1.85326 0
M  V30 1512 H 137.735 3.4389 -1.76852 0
M  V30 1513 H 139.424 3.41947 -2.18694 0
M  V30 1514 H 140.19 2.17398 -4.33547 0
M  V30 1515 H 136.069 3.03906 -3.46644 0
M  V30 1516 H 139.613 1.87953 -6.71803 0
M  V30 1517 H 135.51 2.74826 -5.84073 0
M  V30 1518 H 136.278 2.27611 -7.86216 0
M  V30 1519 N 138.941 1.26152 0.944643 0
M  V30 1520 C 140.187 1.11657 1.69294 0
M  V30 1521 C 140.52 -0.339926 1.91202 0
M  V30 1522 O 139.795 -1.24994 1.49019 0
M  V30 1523 C 140.078 1.88236 3.06984 0
M  V30 1524 C 139.931 3.41772 2.92424 0
M  V30 1525 C 141.25 1.67343 4.07043 0
M  V30 1526 H 138.369 0.407004 0.614424 0
M  V30 1527 H 141.011 1.55106 1.09737 0
M  V30 1528 H 139.161 1.51308 3.57824 0
M  V30 1529 H 140.833 3.88433 2.48832 0
M  V30 1530 H 139.076 3.68974 2.28124 0
M  V30 1531 H 139.747 3.90579 3.90067 0
M  V30 1532 H 142.223 1.99509 3.65151 0
M  V30 1533 H 141.099 2.23346 5.01406 0
M  V30 1534 H 141.36 0.617158 4.37771 0
M  V30 1535 N 140.419 -1.14872 1.07899 0
M  V30 1536 C 141.644 -1.90202 0.826926 0
M  V30 1537 C 142.069 -1.77774 -0.614664 0
M  V30 1538 O 141.427 -1.11431 -1.43013 0
M  V30 1539 C 141.475 -3.38352 1.24702 0
M  V30 1540 O 140.579 -4.10497 0.39575 0
M  V30 1541 H 139.92 -0.591968 0.300782 0
M  V30 1542 H 142.45 -1.45437 1.43907 0
M  V30 1543 H 142.46 -3.89156 1.22563 0
M  V30 1544 H 141.135 -3.46715 2.29698 0
M  V30 1545 H 139.712 -3.69796 0.480117 0
M  V30 1546 N 141.898 -0.863906 -1.31812 0
M  V30 1547 C 142.828 -0.330843 -2.31144 0
M  V30 1548 C 143.809 0.575005 -1.60087 0
M  V30 1549 O 144.994 0.493304 -1.8783 0
M  V30 1550 C 142.124 0.47374 -3.44054 0
M  V30 1551 C 141.078 -0.338481 -4.26659 0
M  V30 1552 C 140.404 0.591412 -5.31419 0
M  V30 1553 C 141.704 -1.56926 -4.98168 0
M  V30 1554 H 143.398 -1.16086 -2.75979 0
M  V30 1555 H 140.944 -0.559657 -1.32679 0
M  V30 1556 H 142.897 0.857143 -4.12591 0
M  V30 1557 H 141.621 1.33721 -2.9797 0
M  V30 1558 H 140.28 -0.703754 -3.59782 0
M  V30 1559 H 139.928 1.45199 -4.81587 0
M  V30 1560 H 139.628 0.0519022 -5.87577 0
M  V30 1561 H 141.152 0.97179 -6.02817 0
M  V30 1562 H 142.566 -1.25764 -5.59336 0
M  V30 1563 H 140.963 -2.04739 -5.64094 0
M  V30 1564 H 142.033 -2.32544 -4.25501 0
M  V30 1565 N 143.376 1.44774 -0.622745 0
M  V30 1566 C 144.604 2.06487 -0.130722 0
M  V30 1567 C 145.019 1.46476 1.19123 0
M  V30 1568 O 144.376 0.584502 1.72887 0
M  V30 1569 C 144.427 3.615 -0.000807207 0
M  V30 1570 O 144.148 4.19274 -1.27048 0
M  V30 1571 C 145.649 4.40229 0.520898 0
M  V30 1572 H 142.869 0.666704 -0.0758106 0
M  V30 1573 H 145.413 1.85779 -0.854774 0
M  V30 1574 H 143.568 3.81498 0.673643 0
M  V30 1575 H 143.982 5.12622 -1.1099 0
M  V30 1576 H 145.456 5.49144 0.560838 0
M  V30 1577 H 145.933 4.1108 1.54627 0
M  V30 1578 H 146.539 4.25131 -0.120018 0
M  V30 1579 N 144.854 0.36279 1.53368 0
M  V30 1580 C 146.131 -0.284021 1.93527 0
M  V30 1581 C 146.511 -1.66628 1.29608 0
M  V30 1582 O 145.859 -2.23942 0.45413 0
M  V30 1583 C 146.069 -0.337028 3.47369 0
M  V30 1584 C 147.417 -0.578708 4.20638 0
M  V30 1585 O 148.441 -0.418352 3.53735 0
M  V30 1586 O 147.3 -0.89074 5.39192 0
M  V30 1587 H 144.394 -0.169743 0.809393 0
M  V30 1588 H 146.94 0.41537 1.64538 0
M  V30 1589 H 145.712 0.632217 3.86159 0
M  V30 1590 H 145.335 -1.08243 3.82582 0
M  V30 1591 N 146.332 -1.57332 0.0918853 0
M  V30 1592 C 147.282 -2.10385 -0.87876 0
M  V30 1593 C 148.266 -1.01814 -1.24591 0
M  V30 1594 O 149.458 -1.28093 -1.22152 0
M  V30 1595 C 146.587 -2.68517 -2.13901 0
M  V30 1596 C 145.673 -3.84126 -1.79744 0
M  V30 1597 N 146.064 -4.92288 -1.1613 0
M  V30 1598 C 144.362 -3.93801 -2.09373 0
M  V30 1599 C 145.063 -5.7295 -1.00513 0
M  V30 1600 N 144.039 -5.21876 -1.5214 0
M  V30 1601 H 147.841 -2.91395 -0.38293 0
M  V30 1602 H 145.355 -1.62017 -0.111423 0
M  V30 1603 H 147.352 -3.04852 -2.84378 0
M  V30 1604 H 146.012 -1.88961 -2.64053 0
M  V30 1605 H 147.023 -5.1123 -0.828504 0
M  V30 1606 H 143.7 -3.25249 -2.61762 0
M  V30 1607 H 145.09 -6.69978 -0.507902 0
M  V30 1608 N 147.81 0.181792 -1.56548 0
M  V30 1609 C 149.059 0.898348 -1.8059 0
M  V30 1610 C 149.372 1.83862 -0.667379 0
M  V30 1611 O 150.578 2.59678 -0.792446 0
M  V30 1612 C 149.034 1.64791 -3.19956 0
M  V30 1613 C 148.642 0.751789 -4.41647 0
M  V30 1614 C 150.386 2.35331 -3.53298 0
M  V30 1615 C 148.293 1.50098 -5.72035 0
M  V30 1616 H 147.223 0.339194 -0.673397 0
M  V30 1617 H 149.874 0.151413 -1.82874 0
M  V30 1618 H 148.256 2.43921 -3.11959 0
M  V30 1619 H 149.43 -0.0018076 -4.608 0
M  V30 1620 H 147.745 0.156562 -4.16106 0
M  V30 1621 H 150.342 2.91958 -4.47956 0
M  V30 1622 H 150.685 3.10164 -2.77676 0
M  V30 1623 H 151.218 1.63154 -3.62803 0
M  V30 1624 H 147.957 0.795175 -6.50659 0
M  V30 1625 H 147.477 2.22817 -5.56878 0
M  V30 1626 H 149.156 2.05125 -6.13622 0
M  V30 1627 N 149.288 1.51039 0.449983 0
M  V30 1628 C 150.236 1.71995 1.5659 0
M  V30 1629 C 151.23 0.586029 1.5894 0
M  V30 1630 O 152.436 0.76709 1.62837 0
M  V30 1631 H 148.811 0.543233 0.520001 0
M  V30 1632 H 150.782 2.65562 1.36085 0
M  V30 1633 C 149.531 1.8506 2.9436 0
M  V30 1634 H 148.854 2.71712 2.93279 0
M  V30 1635 H 150.294 2.0374 3.71842 0
M  V30 1636 C 148.753 0.607277 3.31382 0
M  V30 1637 O 149.283 -0.243903 4.00959 0
M  V30 1638 N 147.489 0.455073 2.87015 0
M  V30 1639 H 147.036 1.14879 2.30566 0
M  V30 1640 H 146.994 -0.375611 3.12148 0
M  V30 1641 N 150.766 -0.704594 1.40972 0
M  V30 1642 C 152.013 -1.46458 1.39844 0
M  V30 1643 C 152.341 -1.94499 0.00447594 0
M  V30 1644 O 151.596 -1.69275 -0.982057 0
M  V30 1645 C 151.895 -2.698 2.34399 0
M  V30 1646 C 151.561 -2.40464 3.81429 0
M  V30 1647 C 150.223 -2.32174 4.21484 0
M  V30 1648 C 152.575 -2.16086 4.74296 0
M  V30 1649 C 149.903 -1.97589 5.52427 0
M  V30 1650 C 152.255 -1.83011 6.05549 0
M  V30 1651 C 150.919 -1.7321 6.44635 0
M  V30 1652 H 150.189 -0.535927 0.511725 0
M  V30 1653 H 152.836 -0.806124 1.73706 0
M  V30 1654 H 151.141 -3.40536 1.93759 0
M  V30 1655 H 152.838 -3.27919 2.30804 0
M  V30 1656 H 149.428 -2.47808 3.49699 0
M  V30 1657 H 153.612 -2.2144 4.4416 0
M  V30 1658 H 148.868 -1.88547 5.81601 0
M  V30 1659 H 153.042 -1.63164 6.77016 0
M  V30 1660 H 150.669 -1.46179 7.46013 0
M  V30 1661 N 152.244 -1.26651 -0.937939 0
M  V30 1662 C 153.207 -1.08546 -2.01867 0
M  V30 1663 C 154.207 -0.0327327 -1.60767 0
M  V30 1664 O 155.397 -0.276427 -1.71993 0
M  V30 1665 C 152.529 -0.651711 -3.34613 0
M  V30 1666 H 153.722 -2.04502 -2.1936 0
M  V30 1667 H 151.275 -1.09294 -1.11734 0
M  V30 1668 H 152.01 0.309696 -3.22818 0
M  V30 1669 H 151.795 -1.41189 -3.65798 0
M  V30 1670 H 153.285 -0.546973 -4.14002 0
M  V30 1671 N 153.722 1.14298 -1.08507 0
M  V30 1672 C 154.971 1.84708 -0.810305 0
M  V30 1673 C 155.284 1.83903 0.666271 0
M  V30 1674 O 156.49 2.50112 1.05624 0
M  V30 1675 C 154.946 3.31572 -1.39957 0
M  V30 1676 C 154.554 3.40791 -2.90801 0
M  V30 1677 C 156.298 4.07087 -1.20334 0
M  V30 1678 C 154.205 4.81872 -3.4286 0
M  V30 1679 H 153.135 0.691985 -0.299454 0
M  V30 1680 H 155.786 1.28841 -1.30661 0
M  V30 1681 H 154.168 3.87183 -0.830976 0
M  V30 1682 H 155.342 2.95225 -3.53806 0
M  V30 1683 H 153.657 2.78732 -3.0935 0
M  V30 1684 H 156.254 5.11225 -1.56693 0
M  V30 1685 H 156.597 4.16054 -0.143237 0
M  V30 1686 H 157.13 3.57779 -1.73893 0
M  V30 1687 H 153.869 4.78094 -4.48449 0
M  V30 1688 H 153.389 5.27972 -2.84615 0
M  V30 1689 H 155.068 5.50765 -3.39509 0
M  V30 1690 N 155.201 0.870884 1.31352 0
M  V30 1691 C 156.133 0.28455 2.27427 0
M  V30 1692 C 157.146 -0.552927 1.53123 0
M  V30 1693 O 158.335 -0.374771 1.74521 0
M  V30 1694 C 155.435 -0.615164 3.3327 0
M  V30 1695 C 154.608 0.190079 4.36987 0
M  V30 1696 C 153.667 -0.637917 5.22319 0
M  V30 1697 O 152.693 -0.065626 5.69162 0
M  V30 1698 N 153.895 -1.94973 5.46778 0
M  V30 1699 H 156.66 1.11017 2.7838 0
M  V30 1700 H 154.221 0.732458 1.44384 0
M  V30 1701 H 156.213 -1.1748 3.87273 0
M  V30 1702 H 154.783 -1.34146 2.82354 0
M  V30 1703 H 154.003 0.931165 3.83044 0
M  V30 1704 H 155.291 0.742579 5.03352 0
M  V30 1705 H 154.689 -2.4378 5.10478 0
M  V30 1706 H 153.246 -2.45713 6.03712 0
M  V30 1707 N 156.679 -1.44442 0.630414 0
M  V30 1708 C 158.095 -1.56832 0.295973 0
M  V30 1709 C 158.295 -1.61806 -1.20088 0
M  V30 1710 O 157.351 -1.5607 -1.9849 0
M  V30 1711 C 158.664 -2.84031 0.987264 0
M  V30 1712 C 160.212 -2.97742 0.96534 0
M  V30 1713 C 160.687 -4.27743 1.63708 0
M  V30 1714 N 162.178 -4.34555 1.60364 0
M  V30 1715 C 162.913 -5.33862 2.09234 0
M  V30 1716 N 162.409 -6.39578 2.66292 0
M  V30 1717 N 164.202 -5.25366 1.99867 0
M  V30 1718 H 156.353 -1.39457 1.60205 0
M  V30 1719 H 158.616 -0.668237 0.672431 0
M  V30 1720 H 158.322 -2.86338 2.04215 0
M  V30 1721 H 158.196 -3.73534 0.524588 0
M  V30 1722 H 160.583 -2.94989 -0.0810639 0
M  V30 1723 H 160.664 -2.09589 1.4665 0
M  V30 1724 H 160.308 -4.31255 2.68293 0
M  V30 1725 H 160.238 -5.14752 1.11076 0
M  V30 1726 H 162.729 -3.58772 1.18705 0
M  V30 1727 H 163.042 -7.11637 3.01317 0
M  V30 1728 H 161.387 -6.40265 2.70343 0
M  V30 1729 H 164.578 -4.41688 1.55013 0
M  V30 1730 H 164.751 -6.02606 2.38265 0
M  V30 1731 N 158.157 -0.370918 -1.53173 0
M  V30 1732 C 159.105 0.488101 -2.27421 0
M  V30 1733 C 160.099 1.07884 -1.30604 0
M  V30 1734 O 161.305 1.02143 -1.48212 0
M  V30 1735 H 157.68 0.176134 -0.731082 0
M  V30 1736 H 159.651 -0.159815 -2.97972 0
M  V30 1737 C 158.4 1.61306 -3.08019 0
M  V30 1738 H 157.723 1.1678 -3.82364 0
M  V30 1739 H 159.163 2.18872 -3.63141 0
M  V30 1740 C 157.622 2.55848 -2.19188 0
M  V30 1741 O 158.152 3.58799 -1.80626 0
M  V30 1742 N 156.358 2.2516 -1.83715 0
M  V30 1743 H 155.905 1.41476 -2.15273 0
M  V30 1744 H 155.863 2.8867 -1.24567 0
M  V30 1745 N 159.635 1.57281 -0.100228 0
M  V30 1746 C 160.567 2.11342 0.886972 0
M  V30 1747 C 161.58 1.05182 1.24261 0
M  V30 1748 O 162.769 1.32613 1.19483 0
M  V30 1749 C 159.869 2.5825 2.19454 0
M  V30 1750 C 159.042 3.88302 2.01346 0
M  V30 1751 C 158.101 4.21004 3.15661 0
M  V30 1752 O 157.127 4.9014 2.89398 0
M  V30 1753 N 158.329 3.76818 4.41575 0
M  V30 1754 H 161.094 2.96668 0.425216 0
M  V30 1755 H 158.655 1.61678 0.0847334 0
M  V30 1756 H 160.647 2.7717 2.94888 0
M  V30 1757 H 159.217 1.77907 2.57037 0
M  V30 1758 H 158.437 3.7848 1.10212 0
M  V30 1759 H 159.725 4.73375 1.8653 0
M  V30 1760 H 159.123 3.2102 4.65792 0
M  V30 1761 H 157.68 4.00882 5.13942 0
M  V30 1762 N 161.113 -0.173488 1.56642 0
M  V30 1763 C 162.06 -1.21482 1.96242 0
M  V30 1764 C 163.03 -1.44104 0.826027 0
M  V30 1765 O 164.215 -1.5688 1.08597 0
M  V30 1766 C 161.355 -2.54964 2.32567 0
M  V30 1767 C 160.468 -2.39739 3.59373 0
M  V30 1768 C 159.603 -3.66072 3.84921 0
M  V30 1769 C 158.642 -3.45771 5.05083 0
M  V30 1770 N 157.779 -4.64169 5.26775 0
M  V30 1771 H 162.619 -0.870123 2.85014 0
M  V30 1772 H 160.156 -0.418245 1.41029 0
M  V30 1773 H 162.114 -3.32758 2.5165 0
M  V30 1774 H 160.744 -2.87433 1.46908 0
M  V30 1775 H 159.796 -1.53131 3.48217 0
M  V30 1776 H 161.108 -2.20683 4.47326 0
M  V30 1777 H 160.262 -4.52303 4.0436 0
M  V30 1778 H 159.001 -3.88105 2.9534 0
M  V30 1779 H 158.006 -2.57927 4.85545 0
M  V30 1780 H 159.231 -3.25163 5.96193 0
M  V30 1781 H 157.177 -4.86425 4.40144 0
M  V30 1782 H 157.094 -4.48019 6.08946 0
M  V30 1783 H 158.362 -5.51689 5.5069 0
M  V30 1784 N 162.591 -1.51276 -0.441967 0
M  V30 1785 C 163.839 -1.63392 -1.18943 0
M  V30 1786 C 164.16 -0.350159 -1.9183 0
M  V30 1787 O 163.43 0.633784 -1.85364 0
M  V30 1788 H 162.01 -0.602164 -0.442049 0
M  V30 1789 H 164.672 -1.88186 -0.507165 0
M  V30 1790 H 163.768 -2.45934 -1.92154 0
M  V30 1791 N 164.069 0.697108 -1.41344 0
M  V30 1792 C 164.999 1.82353 -1.45841 0
M  V30 1793 C 165.98 1.67115 -0.317247 0
M  V30 1794 O 167.165 1.86871 -0.528474 0
M  V30 1795 C 164.295 3.20476 -1.33838 0
M  V30 1796 C 163.249 3.50415 -2.4575 0
M  V30 1797 C 162.575 4.87878 -2.18813 0
M  V30 1798 C 163.875 3.49546 -3.88091 0
M  V30 1799 H 165.569 1.78846 -2.40113 0
M  V30 1800 H 163.115 0.859028 -1.15571 0
M  V30 1801 H 165.068 3.98988 -1.35596 0
M  V30 1802 H 163.792 3.24604 -0.360498 0
M  V30 1803 H 162.451 2.74253 -2.43271 0
M  V30 1804 H 162.099 4.8863 -1.19371 0
M  V30 1805 H 161.799 5.08875 -2.93803 0
M  V30 1806 H 163.323 5.68702 -2.22284 0
M  V30 1807 H 164.737 4.18066 -3.92293 0
M  V30 1808 H 163.134 3.82075 -4.62751 0
M  V30 1809 H 164.204 2.48552 -4.16353 0
M  V30 1810 N 165.547 1.27147 0.931209 0
M  V30 1811 C 166.824 1.0401 1.65654 0
M  V30 1812 C 167.204 -0.426297 2.06751 0
M  V30 1813 O 166.552 -1.40879 1.79904 0
M  V30 1814 C 166.762 1.99834 2.86125 0
M  V30 1815 C 168.11 2.29007 3.57549 0
M  V30 1816 O 169.134 1.97779 2.96246 0
M  V30 1817 O 167.993 2.82222 4.67989 0
M  V30 1818 H 165.087 0.396239 0.725895 0
M  V30 1819 H 167.633 1.38397 0.982056 0
M  V30 1820 H 166.405 2.98744 2.52721 0
M  V30 1821 H 166.028 1.65987 3.61295 0
M  V30 1822 N 167.025 -1.13721 1.09112 0
M  V30 1823 C 168.274 -1.84275 0.82009 0
M  V30 1824 C 168.587 -1.84253 -0.656509 0
M  V30 1825 O 169.793 -2.50668 -1.04296 0
M  V30 1826 C 168.249 -3.30825 1.41714 0
M  V30 1827 C 167.857 -3.39244 2.92605 0
M  V30 1828 C 169.601 -4.06443 1.22492 0
M  V30 1829 C 167.508 -4.80047 3.45411 0
M  V30 1830 H 166.438 -0.690387 0.30312 0
M  V30 1831 H 169.089 -1.28146 1.31343 0
M  V30 1832 H 167.471 -3.86737 0.851498 0
M  V30 1833 H 168.645 -2.93344 3.55367 0
M  V30 1834 H 166.96 -2.77088 3.10823 0
M  V30 1835 H 169.557 -5.10387 1.59402 0
M  V30 1836 H 169.9 -4.15972 0.165299 0
M  V30 1837 H 170.433 -3.56852 1.75788 0
M  V30 1838 H 167.172 -4.75709 4.50978 0
M  V30 1839 H 166.692 -5.26455 2.87411 0
M  V30 1840 H 168.371 -5.48957 3.42425 0
M  V30 1841 N 168.503 -0.877838 -1.30888 0
M  V30 1842 C 169.45 -0.337538 -2.28318 0
M  V30 1843 C 170.42 0.568346 -1.56074 0
M  V30 1844 O 171.605 0.498298 -1.84178 0
M  V30 1845 C 168.745 0.448142 -3.42178 0
M  V30 1846 C 167.858 -0.48615 -4.29256 0
M  V30 1847 C 166.993 0.314427 -5.30269 0
M  V30 1848 C 166.032 -0.615791 -6.08995 0
M  V30 1849 N 165.169 0.14902 -7.01942 0
M  V30 1850 H 170.009 -1.17356 -2.73919 0
M  V30 1851 H 167.546 -0.590094 -1.34745 0
M  V30 1852 H 169.504 0.919517 -4.06941 0
M  V30 1853 H 168.134 1.24879 -2.97666 0
M  V30 1854 H 167.186 -1.076 -3.64865 0
M  V30 1855 H 168.498 -1.19909 -4.84173 0
M  V30 1856 H 167.652 0.847969 -6.00745 0
M  V30 1857 H 166.391 1.06062 -4.76027 0
M  V30 1858 H 165.396 -1.16102 -5.37401 0
M  V30 1859 H 166.621 -1.36097 -6.65323 0
M  V30 1860 H 164.567 0.877884 -6.50099 0
M  V30 1861 H 164.484 -0.504433 -7.54315 0
M  V30 1862 H 165.752 0.663537 -7.76671 0
M  V30 1863 N 169.982 1.44106 -0.638065 0
M  V30 1864 C 170.93 2.3248 0.0748149 0
M  V30 1865 C 171.924 1.47746 0.828702 0
M  V30 1866 O 173.13 1.64049 0.740816 0
M  V30 1867 H 169.505 0.750771 0.0429686 0
M  V30 1868 H 171.476 2.90348 -0.688504 0
M  V30 1869 C 170.225 3.31843 1.03805 0
M  V30 1870 H 169.548 3.97059 0.467375 0
M  V30 1871 H 170.988 3.96345 1.50622 0
M  V30 1872 C 169.447 2.61291 2.1267 0
M  V30 1873 O 169.977 2.41702 3.20847 0
M  V30 1874 N 168.183 2.20915 1.88798 0
M  V30 1875 H 167.73 2.37047 1.00829 0
M  V30 1876 H 167.688 1.74038 2.61836 0
M  V30 1877 N 171.46 0.379036 1.52974 0
M  V30 1878 C 172.423 -0.448865 2.24762 0
M  V30 1879 C 173.423 -0.998689 1.26027 0
M  V30 1880 O 174.613 -0.882313 1.50203 0
M  V30 1881 C 171.745 -1.62872 2.99476 0
M  V30 1882 H 172.938 0.179491 2.99362 0
M  V30 1883 H 170.491 0.13096 1.5575 0
M  V30 1884 H 171.226 -2.29479 2.29151 0
M  V30 1885 H 171.011 -1.24128 3.71934 0
M  V30 1886 H 172.501 -2.2151 3.5401 0
M  V30 1887 N 172.938 -1.57226 0.108567 0
M  V30 1888 C 173.868 -2.17778 -0.84232 0
M  V30 1889 C 174.849 -1.11487 -1.2847 0
M  V30 1890 O 176.034 -1.39681 -1.34918 0
M  V30 1891 C 173.164 -2.76888 -2.09644 0
M  V30 1892 C 172.118 -3.88669 -1.79221 0
M  V30 1893 C 171.444 -4.34541 -3.11574 0
M  V30 1894 C 172.744 -5.11251 -1.06864 0
M  V30 1895 H 174.438 -2.97489 -0.337774 0
M  V30 1896 H 171.984 -1.43097 -0.161025 0
M  V30 1897 H 173.937 -3.17904 -2.76614 0
M  V30 1898 H 172.661 -1.94451 -2.62405 0
M  V30 1899 H 171.32 -3.48213 -1.14644 0
M  V30 1900 H 170.968 -3.48977 -3.62249 0
M  V30 1901 H 170.668 -5.09914 -2.91996 0
M  V30 1902 H 172.192 -4.782 -3.7968 0
M  V30 1903 H 173.606 -5.49352 -1.63968 0
M  V30 1904 H 172.003 -5.9214 -0.974178 0
M  V30 1905 H 173.073 -4.8487 -0.0536168 0
M  V30 1906 N 174.416 0.165178 -1.56732 0
M  V30 1907 C 175.346 1.20651 -1.99914 0
M  V30 1908 C 176.327 1.45827 -0.875705 0
M  V30 1909 O 177.512 1.57057 -1.14223 0
M  V30 1910 C 174.642 2.54401 -2.36427 0
M  V30 1911 C 173.596 2.43782 -3.51787 0
M  V30 1912 C 172.922 3.82078 -3.7406 0
M  V30 1913 C 174.222 1.93732 -4.85041 0
M  V30 1914 H 175.916 0.847534 -2.87154 0
M  V30 1915 H 173.462 0.40625 -1.38151 0
M  V30 1916 H 175.415 3.27458 -2.65234 0
M  V30 1917 H 174.139 2.92098 -1.46103 0
M  V30 1918 H 172.798 1.73178 -3.23117 0
M  V30 1919 H 172.446 4.17179 -2.81017 0
M  V30 1920 H 172.146 3.7584 -4.51684 0
M  V30 1921 H 173.67 4.56712 -4.05274 0
M  V30 1922 H 175.084 2.56569 -5.12684 0
M  V30 1923 H 173.481 1.98428 -5.66345 0
M  V30 1924 H 174.551 0.891962 -4.76626 0
M  V30 1925 N 175.894 1.51508 0.433938 0
M  V30 1926 C 177.14 1.65549 1.18173 0
M  V30 1927 C 177.495 0.368751 1.88833 0
M  V30 1928 O 176.788 -0.635616 1.8075 0
M  V30 1929 C 176.982 2.79928 2.22205 0
M  V30 1930 C 176.811 4.19601 1.61756 0
M  V30 1931 C 175.581 4.85489 1.40101 0
M  V30 1932 C 177.779 5.02574 1.09194 0
M  V30 1933 N 175.761 6.09266 0.752859 0
M  V30 1934 C 177.132 6.17381 0.569255 0
M  V30 1935 C 179.187 4.88079 0.984025 0
M  V30 1936 C 177.89 7.19282 -0.0507472 0
M  V30 1937 C 179.916 5.90191 0.377912 0
M  V30 1938 C 179.278 7.04272 -0.134216 0
M  V30 1939 H 175.377 0.659653 0.419979 0
M  V30 1940 H 177.961 1.88746 0.477818 0
M  V30 1941 H 176.132 2.5839 2.89982 0
M  V30 1942 H 177.864 2.83132 2.89168 0
M  V30 1943 H 174.619 4.43417 1.66369 0
M  V30 1944 H 175.043 6.75528 0.446123 0
M  V30 1945 H 179.685 4.00131 1.36583 0
M  V30 1946 H 177.403 8.06876 -0.444676 0
M  V30 1947 H 180.989 5.81045 0.296269 0
M  V30 1948 H 179.869 7.81933 -0.59585 0
M  V30 1949 N 177.372 -0.689602 1.41712 0
M  V30 1950 C 178.282 -1.83314 1.46401 0
M  V30 1951 C 179.298 -1.7036 0.35405 0
M  V30 1952 O 180.474 -1.92171 0.602692 0
M  V30 1953 C 177.539 -3.19344 1.34982 0
M  V30 1954 C 176.6 -3.44363 2.56344 0
M  V30 1955 C 175.833 -4.73904 2.45461 0
M  V30 1956 O 176.056 -5.508 1.48241 0
M  V30 1957 O 174.99 -4.99839 3.35328 0
M  V30 1958 H 178.816 -1.82314 2.42889 0
M  V30 1959 H 176.401 -0.843438 1.23315 0
M  V30 1960 H 178.283 -4.00547 1.3092 0
M  V30 1961 H 176.958 -3.21014 0.41612 0
M  V30 1962 H 175.865 -2.63067 2.65982 0
M  V30 1963 H 177.198 -3.47512 3.48563 0
M  V30 1964 N 178.85 -1.27639 -0.924453 0
M  V30 1965 C 180.078 -1.16989 -1.70649 0
M  V30 1966 C 180.493 0.272869 -1.86818 0
M  V30 1967 O 179.85 1.18549 -1.38753 0
M  V30 1968 C 179.901 -1.85229 -3.10439 0
M  V30 1969 O 179.622 -3.23868 -2.95028 0
M  V30 1970 C 181.123 -1.80746 -4.04779 0
M  V30 1971 H 178.343 -0.406595 -0.53378 0
M  V30 1972 H 180.887 -1.68569 -1.15778 0
M  V30 1973 H 179.042 -1.37545 -3.6216 0
M  V30 1974 H 179.456 -3.57889 -3.83426 0
M  V30 1975 H 180.93 -2.33101 -5.00368 0
M  V30 1976 H 181.407 -0.777499 -4.32263 0
M  V30 1977 H 182.013 -2.28059 -3.58984 0
M  V30 1978 N 180.328 1.1314 -1.09713 0
M  V30 1979 C 181.275 2.18642 -0.739196 0
M  V30 1980 C 182.245 1.63706 0.280978 0
M  V30 1981 O 183.43 1.90111 0.161946 0
M  V30 1982 C 180.57 3.44685 -0.169102 0
M  V30 1983 C 179.683 4.13711 -1.24367 0
M  V30 1984 C 178.818 5.27379 -0.636019 0
M  V30 1985 C 177.857 5.88259 -1.69169 0
M  V30 1986 N 176.994 6.93352 -1.10485 0
M  V30 1987 H 181.834 2.48607 -1.64312 0
M  V30 1988 H 179.371 1.22066 -0.820875 0
M  V30 1989 H 181.329 4.16815 0.179256 0
M  V30 1990 H 179.959 3.15161 0.698079 0
M  V30 1991 H 179.011 3.39835 -1.70927 0
M  V30 1992 H 180.323 4.55037 -2.04311 0
M  V30 1993 H 179.477 6.06238 -0.236677 0
M  V30 1994 H 178.216 4.8731 0.194928 0
M  V30 1995 H 177.221 5.08092 -2.10055 0
M  V30 1996 H 178.446 6.30399 -2.52536 0
M  V30 1997 H 176.392 6.55335 -0.295234 0
M  V30 1998 H 176.309 7.33236 -1.84121 0
M  V30 1999 H 177.577 7.76057 -0.73181 0
M  V30 2000 N 181.806 0.884767 1.30421 0
M  V30 2001 C 183.222 0.57874 1.48737 0
M  V30 2002 C 183.422 -0.883567 1.81095 0
M  V30 2003 O 182.478 -1.6648 1.89844 0
M  V30 2004 C 183.791 1.49171 2.61091 0
M  V30 2005 C 185.339 1.49532 2.74971 0
M  V30 2006 C 185.814 2.39421 3.90438 0
M  V30 2007 N 187.305 2.37383 3.97748 0
M  V30 2008 C 188.04 3.03647 4.86401 0
M  V30 2009 N 187.536 3.79136 5.79852 0
M  V30 2010 N 189.329 2.9288 4.79768 0
M  V30 2011 H 181.48 1.83075 1.0769 0
M  V30 2012 H 183.743 0.783637 0.533495 0
M  V30 2013 H 183.449 2.53291 2.44001 0
M  V30 2014 H 183.323 1.20113 3.57565 0
M  V30 2015 H 185.71 0.46163 2.91467 0
M  V30 2016 H 185.791 1.8262 1.79119 0
M  V30 2017 H 185.435 3.42874 3.74699 0
M  V30 2018 H 185.365 2.03649 4.85628 0
M  V30 2019 H 187.856 1.82525 3.30897 0
M  V30 2020 H 188.169 4.26789 6.4426 0
M  V30 2021 H 186.514 3.83243 5.79784 0
M  V30 2022 H 189.705 2.33433 4.05742 0
M  V30 2023 H 189.878 3.448 5.4865 0
M  V30 2024 N 183.284 -1.43765 0.645699 0
M  V30 2025 C 184.214 -2.33471 -0.0370477 0
M  V30 2026 C 185.195 -1.49042 -0.819779 0
M  V30 2027 O 186.38 -1.77726 -0.782758 0
M  V30 2028 C 183.51 -3.32311 -1.0093 0
M  V30 2029 C 182.464 -4.2667 -0.337201 0
M  V30 2030 C 181.79 -5.1549 -1.42037 0
M  V30 2031 C 183.09 -5.16657 0.765706 0
M  V30 2032 H 184.784 -2.90809 0.712069 0
M  V30 2033 H 182.33 -1.39834 0.343876 0
M  V30 2034 H 184.283 -3.9396 -1.49578 0
M  V30 2035 H 183.007 -2.73213 -1.78948 0
M  V30 2036 H 181.666 -3.66374 0.128771 0
M  V30 2037 H 181.314 -4.52735 -2.1918 0
M  V30 2038 H 181.014 -5.79438 -0.975966 0
M  V30 2039 H 182.538 -5.80012 -1.90838 0
M  V30 2040 H 183.952 -5.72158 0.361702 0
M  V30 2041 H 182.349 -5.89286 1.13413 0
M  V30 2042 H 183.419 -4.56796 1.62683 0
M  V30 2043 N 184.763 -0.387143 -1.52771 0
M  V30 2044 C 185.993 0.195585 -2.05672 0
M  V30 2045 C 186.401 1.41241 -1.25887 0
M  V30 2046 O 185.744 1.81265 -0.298081 0
M  V30 2047 C 185.806 0.632327 -3.53895 0
M  V30 2048 C 185.47 -0.470739 -4.54569 0
M  V30 2049 C 186.467 -1.32746 -5.02667 0
M  V30 2050 C 184.152 -0.637151 -4.98243 0
M  V30 2051 C 186.146 -2.33574 -5.93061 0
M  V30 2052 C 183.833 -1.64877 -5.88438 0
M  V30 2053 C 184.831 -2.49649 -6.35739 0
M  V30 2054 O 184.519 -3.49082 -7.24153 0
M  V30 2055 H 184.251 0.033658 -0.675162 0
M  V30 2056 H 186.805 -0.550221 -1.97893 0
M  V30 2057 H 185.035 1.43008 -3.59285 0
M  V30 2058 H 186.724 1.14048 -3.89548 0
M  V30 2059 H 187.49 -1.21019 -4.69659 0
M  V30 2060 H 183.369 0.0129567 -4.60998 0
M  V30 2061 H 186.913 -2.99777 -6.29904 0
M  V30 2062 H 182.81 -1.76643 -6.2086 0
M  V30 2063 H 183.578 -3.45065 -7.42208 0
M  V30 2064 N 186.241 1.57166 -0.116904 0
M  V30 2065 C 187.188 2.15202 0.83408 0
M  V30 2066 C 188.158 1.07644 1.26499 0
M  V30 2067 O 189.343 1.35541 1.34288 0
M  V30 2068 C 186.483 2.75405 2.07957 0
M  V30 2069 C 185.596 3.97264 1.69721 0
M  V30 2070 C 184.731 4.45561 2.89221 0
M  V30 2071 C 183.77 5.59956 2.47215 0
M  V30 2072 N 182.907 6.03006 3.59622 0
M  V30 2073 H 187.747 2.96141 0.332335 0
M  V30 2074 H 185.284 1.46309 0.152349 0
M  V30 2075 H 187.242 3.08439 2.80929 0
M  V30 2076 H 185.872 1.97159 2.55594 0
M  V30 2077 H 184.924 3.70404 0.866316 0
M  V30 2078 H 186.236 4.80226 1.34849 0
M  V30 2079 H 185.39 4.80493 3.7042 0
M  V30 2080 H 184.129 3.61544 3.27318 0
M  V30 2081 H 183.134 5.2463 1.64448 0
M  V30 2082 H 184.359 6.45738 2.10238 0
M  V30 2083 H 182.305 5.21931 3.97396 0
M  V30 2084 H 182.222 6.80819 3.28667 0
M  V30 2085 H 183.49 6.42576 4.41267 0
M  V30 2086 N 187.719 -0.156864 1.56817 0
M  V30 2087 C 188.996 -0.899244 1.73704 0
M  V30 2088 C 189.376 -1.99771 0.682254 0
M  V30 2089 O 188.724 -2.26515 -0.300522 0
M  V30 2090 C 188.934 -1.45075 3.17418 0
M  V30 2091 C 190.282 -1.91802 3.7881 0
M  V30 2092 O 191.306 -1.54838 3.20786 0
M  V30 2093 O 190.165 -2.5994 4.80722 0
M  V30 2094 H 187.259 -0.424267 0.709878 0
M  V30 2095 H 189.805 -0.143561 1.69092 0
M  V30 2096 H 188.577 -0.660846 3.85679 0
M  V30 2097 H 188.2 -2.27021 3.26416 0
M  V30 2098 N 189.197 -1.51736 -0.425897 0
M  V30 2099 C 190.107 -1.76738 -1.54275 0
M  V30 2100 C 191.123 -0.65211 -1.61318 0
M  V30 2101 O 192.299 -0.935654 -1.78346 0
M  V30 2102 C 189.364 -1.89755 -2.90162 0
M  V30 2103 C 188.425 -3.13633 -2.93143 0
M  V30 2104 C 187.658 -3.2602 -4.22548 0
M  V30 2105 O 187.881 -2.44067 -5.15546 0
M  V30 2106 O 186.815 -4.19071 -4.32046 0
M  V30 2107 H 190.641 -2.71502 -1.36089 0
M  V30 2108 H 188.226 -1.36376 -0.610069 0
M  V30 2109 H 190.108 -2.00236 -3.70788 0
M  V30 2110 H 188.783 -0.981785 -3.08452 0
M  V30 2111 H 187.69 -3.08622 -2.11431 0
M  V30 2112 H 189.023 -4.04936 -2.798 0
M  V30 2113 N 190.675 0.682077 -1.42076 0
M  V30 2114 C 191.922 1.44215 -1.42156 0
M  V30 2115 C 192.25 1.94468 -0.0354186 0
M  V30 2116 O 191.505 1.70816 0.955002 0
M  V30 2117 C 191.804 2.66036 -2.38662 0
M  V30 2118 C 191.47 2.34366 -3.85206 0
M  V30 2119 C 190.132 2.25439 -4.25124 0
M  V30 2120 C 192.484 2.08513 -4.77673 0
M  V30 2121 C 189.812 1.88775 -5.55501 0
M  V30 2122 C 192.164 1.73354 -6.08384 0
M  V30 2123 C 190.828 1.62933 -6.47309 0
M  V30 2124 H 190.098 0.527718 -0.520187 0
M  V30 2125 H 192.745 0.778387 -1.74967 0
M  V30 2126 H 191.05 3.3741 -1.99152 0
M  V30 2127 H 192.747 3.24205 -2.35991 0
M  V30 2128 H 189.337 2.42213 -3.53597 0
M  V30 2129 H 193.521 2.14346 -4.47626 0
M  V30 2130 H 188.777 1.7927 -5.84527 0
M  V30 2131 H 192.951 1.52373 -6.79526 0
M  V30 2132 H 190.578 1.34292 -7.48244 0
M  V30 2133 N 192.153 1.28127 0.917671 0
M  V30 2134 C 193.116 1.11744 2.00115 0
M  V30 2135 C 194.116 0.0583052 1.60694 0
M  V30 2136 O 195.306 0.303755 1.71531 0
M  V30 2137 C 192.438 0.704862 3.33533 0
M  V30 2138 H 193.631 2.07966 2.16079 0
M  V30 2139 H 191.184 1.11058 1.09981 0
M  V30 2140 H 191.919 -0.258299 3.2327 0
M  V30 2141 H 191.704 1.4699 3.63505 0
M  V30 2142 H 193.194 0.612768 4.1308 0
M  V30 2143 N 193.631 -1.12557 1.10312 0
M  V30 2144 C 194.88 -1.83395 0.839588 0
M  V30 2145 C 195.193 -1.84939 -0.636929 0
M  V30 2146 O 196.399 -2.51761 -1.01631 0
M  V30 2147 C 194.855 -3.29303 1.45215 0
M  V30 2148 C 194.463 -3.36122 2.96186 0
M  V30 2149 C 196.207 -4.05121 1.26796 0
M  V30 2150 C 194.114 -4.76357 3.50483 0
M  V30 2151 H 193.044 -0.687133 0.310425 0
M  V30 2152 H 195.695 -1.26746 1.32694 0
M  V30 2153 H 194.077 -3.85812 0.892469 0
M  V30 2154 H 195.251 -2.89559 3.58458 0
M  V30 2155 H 193.566 -2.73776 3.13745 0
M  V30 2156 H 196.163 -5.08668 1.64806 0
M  V30 2157 H 196.506 -4.15773 0.209409 0
M  V30 2158 H 197.039 -3.54967 1.79563 0
M  V30 2159 H 193.778 -4.70899 4.55998 0
M  V30 2160 H 193.298 -5.23377 2.92978 0
M  V30 2161 H 194.977 -5.45294 3.48228 0
M  V30 2162 N 195.109 -0.891671 -1.2995 0
M  V30 2163 C 196.357 -0.512486 -1.95494 0
M  V30 2164 C 196.678 0.942776 -1.70695 0
M  V30 2165 O 195.948 1.66374 -1.03424 0
M  V30 2166 H 194.528 -0.186533 -0.723336 0
M  V30 2167 H 197.19 -1.13621 -1.58355 0
M  V30 2168 H 196.286 -0.688342 -3.04415 0
M  V30 2169 N 196.587 1.43421 -0.653314 0
M  V30 2170 C 197.534 2.30768 0.0382271 0
M  V30 2171 C 198.504 1.44755 0.814576 0
M  V30 2172 O 199.689 1.73624 0.791162 0
M  V30 2173 C 196.829 3.30336 0.998599 0
M  V30 2174 C 195.942 4.31448 0.218342 0
M  V30 2175 C 195.077 5.18098 1.17252 0
M  V30 2176 C 194.116 6.10902 0.382702 0
M  V30 2177 N 193.253 6.90176 1.28848 0
M  V30 2178 H 198.093 2.89357 -0.712511 0
M  V30 2179 H 195.63 1.42548 -0.363128 0
M  V30 2180 H 197.588 3.86572 1.56901 0
M  V30 2181 H 196.218 2.73397 1.71621 0
M  V30 2182 H 195.27 3.77506 -0.46836 0
M  V30 2183 H 196.582 4.97227 -0.395812 0
M  V30 2184 H 195.736 5.7896 1.81356 0
M  V30 2185 H 194.475 4.52444 1.82058 0
M  V30 2186 H 193.48 5.49128 -0.27169 0
M  V30 2187 H 194.705 6.78598 -0.260957 0
M  V30 2188 H 192.651 6.27171 1.92334 0
M  V30 2189 H 192.568 7.52478 0.728887 0
M  V30 2190 H 193.836 7.55543 1.91766 0
M  V30 2191 N 198.065 0.39524 1.52563 0
M  V30 2192 C 198.975 -0.444232 2.30356 0
M  V30 2193 C 199.991 -1.06615 1.37511 0
M  V30 2194 O 201.167 -1.07067 1.70583 0
M  V30 2195 C 198.232 -1.55315 3.09964 0
M  V30 2196 C 197.293 -0.955734 4.18526 0
M  V30 2197 C 196.526 -2.01181 4.9433 0
M  V30 2198 O 196.749 -3.22781 4.70285 0
M  V30 2199 O 195.683 -1.62579 5.79527 0
M  V30 2200 H 199.509 0.189667 3.03107 0
M  V30 2201 H 197.094 0.1588 1.48554 0
M  V30 2202 H 198.976 -2.19724 3.59582 0
M  V30 2203 H 197.651 -2.17191 2.4002 0
M  V30 2204 H 196.558 -0.274743 3.7309 0
M  V30 2205 H 197.891 -0.381109 4.90722 0
M  V30 2206 N 199.544 -1.57102 0.125237 0
M  V30 2207 C 200.507 -2.14471 -0.80838 0
M  V30 2208 C 201.507 -1.0811 -1.19033 0
M  V30 2209 O 202.697 -1.33856 -1.11482 0
M  V30 2210 C 199.829 -2.69005 -2.09402 0
M  V30 2211 H 201.022 -2.98297 -0.309696 0
M  V30 2212 H 198.575 -1.55807 -0.124051 0
M  V30 2213 H 199.31 -1.88785 -2.63687 0
M  V30 2214 H 199.095 -3.46799 -1.82957 0
M  V30 2215 H 200.585 -3.13278 -2.76128 0
M  V30 2216 N 201.022 0.148545 -1.56898 0
M  V30 2217 C 201.952 1.18524 -2.01182 0
M  V30 2218 C 202.933 1.4489 -0.891123 0
M  V30 2219 O 204.118 1.55836 -1.15882 0
M  V30 2220 C 201.248 2.51879 -2.39112 0
M  V30 2221 C 200.202 2.40038 -3.54353 0
M  V30 2222 C 199.528 3.78089 -3.78091 0
M  V30 2223 C 200.828 1.88577 -4.87069 0
M  V30 2224 H 202.522 0.817029 -2.88036 0
M  V30 2225 H 200.068 0.391575 -1.38574 0
M  V30 2226 H 202.021 3.24627 -2.68692 0
M  V30 2227 H 200.745 2.90532 -1.49193 0
M  V30 2228 H 199.404 1.69742 -3.24936 0
M  V30 2229 H 199.052 4.14175 -2.85426 0
M  V30 2230 H 198.752 3.71028 -4.55645 0
M  V30 2231 H 200.276 4.52387 -4.10095 0
M  V30 2232 H 201.69 2.51117 -5.15377 0
M  V30 2233 H 200.087 1.9241 -5.68417 0
M  V30 2234 H 201.157 0.84136 -4.77545 0
M  V30 2235 N 202.5 1.5196 0.417844 0
M  V30 2236 C 203.746 1.65836 1.16732 0
M  V30 2237 C 204.079 0.382881 1.90388 0
M  V30 2238 O 203.354 -0.618368 1.84408 0
M  V30 2239 C 203.637 2.87466 2.16876 0
M  V30 2240 C 203.49 4.25041 1.47174 0
M  V30 2241 C 204.809 3.04613 3.17646 0
M  V30 2242 H 201.928 0.603515 0.423011 0
M  V30 2243 H 204.57 1.84494 0.454105 0
M  V30 2244 H 202.72 2.71689 2.777 0
M  V30 2245 H 204.392 4.52527 0.895376 0
M  V30 2246 H 202.635 4.26843 0.773806 0
M  V30 2247 H 203.306 5.06176 2.20204 0
M  V30 2248 H 205.782 3.1923 2.66892 0
M  V30 2249 H 204.658 3.91247 3.8499 0
M  V30 2250 H 204.919 2.17541 3.84874 0
M  V30 2251 N 203.978 -0.674533 1.42435 0
M  V30 2252 C 204.911 -1.79924 1.40366 0
M  V30 2253 C 205.889 -1.60378 0.267899 0
M  V30 2254 O 207.073 -1.82847 0.458159 0
M  V30 2255 C 204.2 -3.16927 1.19478 0
M  V30 2256 C 203.246 -3.55221 2.36051 0
M  V30 2257 S 204.079 -3.5762 3.98583 0
M  V30 2258 C 205.235 -4.97315 3.80038 0
M  V30 2259 H 205.468 -1.81405 2.35541 0
M  V30 2260 H 203.001 -0.845221 1.29211 0
M  V30 2261 H 204.959 -3.96007 1.08114 0
M  V30 2262 H 203.62 -3.13031 0.258883 0
M  V30 2263 H 202.813 -4.54804 2.17185 0
M  V30 2264 H 202.415 -2.83502 2.43932 0
M  V30 2265 H 204.707 -5.85401 3.41045 0
M  V30 2266 H 205.65 -5.21228 4.79298 0
M  V30 2267 H 206.058 -4.69845 3.12899 0
M  V30 2268 N 205.456 -1.28612 -0.910864 0
M  V30 2269 C 206.702 -1.16106 -1.66274 0
M  V30 2270 C 207.035 0.289113 -1.92036 0
M  V30 2271 O 206.31 1.21 -1.52281 0
M  V30 2272 C 206.593 -1.96309 -3.01885 0
M  V30 2273 C 206.446 -3.49405 -2.8326 0
M  V30 2274 C 207.765 -1.78076 -4.02463 0
M  V30 2275 H 204.884 -0.423152 -0.603417 0
M  V30 2276 H 207.526 -1.57961 -1.05586 0
M  V30 2277 H 205.676 -1.60742 -3.53687 0
M  V30 2278 H 207.348 -3.94894 -2.38446 0
M  V30 2279 H 205.591 -3.74893 -2.18261 0
M  V30 2280 H 206.262 -4.00784 -3.79574 0
M  V30 2281 H 208.738 -2.0912 -3.59733 0
M  V30 2282 H 207.614 -2.36561 -4.95308 0
M  V30 2283 H 207.875 -0.733008 -4.35981 0
M  V30 2284 N 206.934 1.1197 -1.10907 0
M  V30 2285 C 207.881 2.17846 -0.762345 0
M  V30 2286 C 208.851 1.63995 0.263599 0
M  V30 2287 O 210.036 1.90273 0.141773 0
M  V30 2288 C 207.176 3.44487 -0.205651 0
M  V30 2289 C 206.289 4.12369 -1.28748 0
M  V30 2290 C 205.424 5.26674 -0.691919 0
M  V30 2291 C 204.463 5.86431 -1.75399 0
M  V30 2292 N 203.6 6.92142 -1.17833 0
M  V30 2293 H 208.44 2.46851 -1.6694 0
M  V30 2294 H 205.977 1.21188 -0.833776 0
M  V30 2295 H 207.935 4.16981 0.135037 0
M  V30 2296 H 206.565 3.15884 0.664613 0
M  V30 2297 H 205.617 3.38003 -1.74522 0
M  V30 2298 H 206.929 4.52844 -2.09125 0
M  V30 2299 H 206.083 6.05953 -0.300963 0
M  V30 2300 H 204.822 4.8749 0.143232 0
M  V30 2301 H 203.827 5.05835 -2.15432 0
M  V30 2302 H 205.052 6.27685 -2.59208 0
M  V30 2303 H 202.998 6.54985 -0.364725 0
M  V30 2304 H 202.915 7.31242 -1.91887 0
M  V30 2305 H 204.183 7.75237 -0.81408 0
M  V30 2306 N 208.412 0.89855 1.29475 0
M  V30 2307 C 209.36 0.365253 2.29714 0
M  V30 2308 C 210.354 -0.534993 1.6073 0
M  V30 2309 O 211.56 -0.417921 1.75081 0
M  V30 2310 H 207.935 0.0994853 0.74539 0
M  V30 2311 H 209.906 1.22406 2.72138 0
M  V30 2312 C 208.655 -0.393159 3.4547 0
M  V30 2313 H 207.978 0.290332 3.98744 0
M  V30 2314 H 209.418 -0.731189 4.17648 0
M  V30 2315 C 207.877 -1.59539 2.9673 0
M  V30 2316 O 208.407 -2.69469 2.97908 0
M  V30 2317 N 206.613 -1.43716 2.52575 0
M  V30 2318 H 206.16 -0.542828 2.51816 0
M  V30 2319 H 206.118 -2.24288 2.20323 0
M  V30 2320 N 209.89 -1.43072 0.660911 0
M  V30 2321 C 210.837 -2.30785 -0.0259884 0
M  V30 2322 C 211.807 -1.45184 -0.806888 0
M  V30 2323 O 212.992 -1.74041 -0.781943 0
M  V30 2324 C 210.132 -3.30861 -0.981067 0
M  V30 2325 C 209.245 -4.31558 -0.195458 0
M  V30 2326 C 208.38 -5.18712 -1.14503 0
M  V30 2327 C 207.419 -6.11097 -0.350299 0
M  V30 2328 N 206.556 -6.90849 -1.25186 0
M  V30 2329 H 211.396 -2.88975 0.727846 0
M  V30 2330 H 208.933 -1.42353 0.370682 0
M  V30 2331 H 210.891 -3.87399 -1.54849 0
M  V30 2332 H 209.521 -2.74304 -1.70169 0
M  V30 2333 H 208.573 -3.77252 0.488374 0
M  V30 2334 H 209.885 -4.9701 0.422176 0
M  V30 2335 H 209.039 -5.79914 -1.78284 0
M  V30 2336 H 207.778 -4.53404 -1.79656 0
M  V30 2337 H 206.783 -5.48976 0.300808 0
M  V30 2338 H 208.008 -6.7845 0.296941 0
M  V30 2339 H 205.954 -6.28182 -1.89005 0
M  V30 2340 H 205.871 -7.52854 -0.688971 0
M  V30 2341 H 207.139 -7.5655 -1.87757 0
M  V30 2342 N 211.368 -0.403325 -1.52352 0
M  V30 2343 C 212.596 0.174012 -2.06167 0
M  V30 2344 C 213.011 1.39347 -1.27388 0
M  V30 2345 O 212.368 1.79597 -0.324201 0
M  V30 2346 C 212.419 0.530223 -3.5759 0
M  V30 2347 O 212.14 -0.640806 -4.33388 0
M  V30 2348 C 213.641 1.16192 -4.27802 0
M  V30 2349 H 210.861 0.0229464 -0.670608 0
M  V30 2350 H 213.405 -0.572604 -1.9632 0
M  V30 2351 H 211.56 1.22673 -3.67464 0
M  V30 2352 H 211.974 -0.344851 -5.23365 0
M  V30 2353 H 213.448 1.36141 -5.34948 0
M  V30 2354 H 213.925 2.13335 -3.83907 0
M  V30 2355 H 214.531 0.505775 -4.22282 0
M  V30 2356 N 212.846 1.57033 -0.133567 0
M  V30 2357 C 214.094 1.953 0.519848 0
M  V30 2358 C 214.415 1.01866 1.66278 0
M  V30 2359 O 213.685 0.0776513 1.95746 0
M  V30 2360 H 212.265 0.721091 0.195032 0
M  V30 2361 H 214.927 1.93809 -0.205921 0
M  V30 2362 H 214.023 2.98695 0.904854 0
M  V30 2363 N 214.325 -0.140222 1.56975 0
M  V30 2364 C 215.571 -0.852949 1.83991 0
M  V30 2365 C 215.904 -1.80512 0.716187 0
M  V30 2366 O 215.179 -1.92479 -0.279681 0
M  V30 2367 C 215.462 -1.6215 3.21527 0
M  V30 2368 C 215.315 -0.690363 4.4447 0
M  V30 2369 C 216.634 -2.58247 3.56366 0
M  V30 2370 H 213.753 -0.308634 0.669264 0
M  V30 2371 H 216.395 -0.117898 1.89634 0
M  V30 2372 H 214.545 -2.24812 3.16847 0
M  V30 2373 H 216.217 -0.0742264 4.6124 0
M  V30 2374 H 214.46 -0.000396433 4.338 0
M  V30 2375 H 215.131 -1.2643 5.37326 0
M  V30 2376 H 217.607 -2.05701 3.61699 0
M  V30 2377 H 216.483 -3.09067 4.53617 0
M  V30 2378 H 216.744 -3.39923 2.82674 0
M  V30 2379 N 215.803 -1.52179 -0.40978 0
M  V30 2380 C 217.028 -1.70347 -1.18308 0
M  V30 2381 C 217.453 -0.411887 -1.83535 0
M  V30 2382 O 216.811 0.630587 -1.6998 0
M  V30 2383 C 216.859 -2.83977 -2.22238 0
M  V30 2384 O 215.963 -2.495 -3.28365 0
M  V30 2385 H 215.304 -0.567103 -0.345384 0
M  V30 2386 H 217.834 -1.98879 -0.480445 0
M  V30 2387 H 217.844 -3.0887 -2.66577 0
M  V30 2388 H 216.519 -3.77685 -1.74146 0
M  V30 2389 H 215.096 -2.35277 -2.89308 0
M  V30 2390 N 217.281 0.66697 -1.42791 0
M  V30 2391 C 218.211 1.79218 -1.49677 0
M  V30 2392 C 219.192 1.66405 -0.352623 0
M  V30 2393 O 220.377 1.85708 -0.567993 0
M  V30 2394 C 217.507 3.17565 -1.40605 0
M  V30 2395 C 216.461 3.45124 -2.53127 0
M  V30 2396 C 215.787 4.83127 -2.29112 0
M  V30 2397 C 217.087 3.41236 -3.95418 0
M  V30 2398 H 218.781 1.73713 -2.43853 0
M  V30 2399 H 216.327 0.83432 -1.17367 0
M  V30 2400 H 218.28 3.96022 -1.44029 0
M  V30 2401 H 217.004 3.23767 -0.429271 0
M  V30 2402 H 215.663 2.69031 -2.49034 0
M  V30 2403 H 215.311 4.85988 -1.29709 0
M  V30 2404 H 215.011 5.02528 -3.04531 0
M  V30 2405 H 216.535 5.63859 -2.34297 0
M  V30 2406 H 217.949 4.09651 -4.01073 0
M  V30 2407 H 216.346 3.72173 -4.70752 0
M  V30 2408 H 217.416 2.39665 -4.21532 0
M  V30 2409 N 218.759 1.29093 0.90403 0
M  V30 2410 C 220.17 1.15186 1.46932 0
M  V30 2411 C 220.521 -0.254587 1.94541 0
M  V30 2412 O 219.646 -1.14972 1.83332 0
M  V30 2413 C 220.241 2.08492 2.67051 0
M  V30 2414 C 218.8 1.98621 3.19729 0
M  V30 2415 C 217.947 1.9967 1.92425 0
M  V30 2416 H 220.898 1.41641 0.715789 0
M  V30 2417 H 220.919 1.65461 3.42641 0
M  V30 2418 H 220.431 3.10847 2.3237 0
M  V30 2419 H 218.532 0.993389 3.59114 0
M  V30 2420 H 218.645 2.86068 3.8432 0
M  V30 2421 H 217.009 1.44208 2.09943 0
M  V30 2422 H 217.792 3.03721 1.60026 0
M  V30 2423 N 220.237 -1.11381 1.11499 0
M  V30 2424 C 221.147 -2.21019 0.786628 0
M  V30 2425 C 222.163 -1.72597 -0.220507 0
M  V30 2426 O 223.339 -2.01321 -0.0565251 0
M  V30 2427 C 220.404 -3.459 0.235333 0
M  V30 2428 C 219.465 -4.09107 1.30115 0
M  V30 2429 C 218.698 -5.28027 0.776068 0
M  V30 2430 O 218.921 -5.6904 -0.393661 0
M  V30 2431 O 217.855 -5.81835 1.54114 0
M  V30 2432 H 221.681 -2.51521 1.70209 0
M  V30 2433 H 219.266 -1.19928 0.890928 0
M  V30 2434 H 221.148 -4.21346 -0.067715 0
M  V30 2435 H 219.823 -3.17049 -0.652828 0
M  V30 2436 H 218.73 -3.35391 1.65722 0
M  V30 2437 H 220.063 -4.42139 2.16273 0
M  V30 2438 N 221.715 -0.905404 -1.28997 0
M  V30 2439 C 222.992 -0.453513 -1.9027 0
M  V30 2440 C 223.372 1.06721 -1.82137 0
M  V30 2441 O 222.72 1.91159 -1.25182 0
M  V30 2442 C 222.93 -0.974494 -3.35119 0
M  V30 2443 C 224.278 -1.0216 -4.12127 0
M  V30 2444 O 225.302 -0.922557 -3.44046 0
M  V30 2445 O 224.161 -1.17121 -5.33802 0
M  V30 2446 H 221.255 -0.142347 -0.814657 0
M  V30 2447 H 223.801 -0.995642 -1.37423 0
M  V30 2448 H 222.573 -2.01848 -3.35221 0
M  V30 2449 H 222.196 -0.412706 -3.95452 0
M  V30 2450 N 223.193 1.4272 -0.668489 0
M  V30 2451 C 224.103 2.34596 0.0139753 0
M  V30 2452 C 225.119 1.5474 0.795703 0
M  V30 2453 O 226.295 1.87334 0.739466 0
M  V30 2454 C 223.36 3.33202 0.957982 0
M  V30 2455 C 222.421 4.28957 0.17149 0
M  V30 2456 C 221.654 5.22853 1.07053 0
M  V30 2457 O 221.877 5.21531 2.31001 0
M  V30 2458 O 220.811 5.9952 0.534727 0
M  V30 2459 H 224.637 2.9448 -0.742661 0
M  V30 2460 H 222.222 1.43117 -0.428705 0
M  V30 2461 H 224.104 3.93796 1.50008 0
M  V30 2462 H 222.779 2.758 1.69458 0
M  V30 2463 H 221.686 3.71796 -0.414558 0
M  V30 2464 H 223.019 4.89383 -0.52586 0
M  V30 2465 N 224.671 0.411399 1.52136 0
M  V30 2466 C 225.634 -0.401089 2.25663 0
M  V30 2467 C 226.634 -0.971732 1.28117 0
M  V30 2468 O 227.824 -0.850254 1.52041 0
M  V30 2469 C 224.956 -1.56483 3.02863 0
M  V30 2470 H 226.149 0.24295 2.98914 0
M  V30 2471 H 223.702 0.163968 1.55438 0
M  V30 2472 H 224.437 -2.24567 2.33967 0
M  V30 2473 H 224.222 -1.16211 3.74483 0
M  V30 2474 H 225.712 -2.13951 3.58629 0
M  V30 2475 N 226.149 -1.5696 0.141893 0
M  V30 2476 C 227.397 -1.95573 -0.509484 0
M  V30 2477 C 227.718 -1.02746 -1.65736 0
M  V30 2478 O 226.988 -0.0880311 -1.95702 0
M  V30 2479 H 225.568 -0.722115 -0.191205 0
M  V30 2480 H 228.23 -1.93697 0.216196 0
M  V30 2481 H 227.326 -2.99171 -0.889 0
M  V30 2482 N 227.627 0.131896 -1.57047 0
M  V30 2483 C 228.874 0.841932 -1.84168 0
M  V30 2484 C 229.202 1.8048 -0.725066 0
M  V30 2485 O 228.457 1.93618 0.284692 0
M  V30 2486 C 228.756 1.63703 -3.17704 0
M  V30 2487 C 228.422 0.81961 -4.43388 0
M  V30 2488 C 227.084 0.594148 -4.77518 0
M  V30 2489 C 229.436 0.248977 -5.20605 0
M  V30 2490 C 226.764 -0.212409 -5.86315 0
M  V30 2491 C 229.116 -0.544701 -6.30251 0
M  V30 2492 C 227.78 -0.780599 -6.6292 0
M  V30 2493 H 227.05 0.308085 -0.673917 0
M  V30 2494 H 229.697 0.104867 -1.91213 0
M  V30 2495 H 228.002 2.44464 -3.06177 0
M  V30 2496 H 229.699 2.19015 -3.35907 0
M  V30 2497 H 226.289 1.00542 -4.16641 0
M  V30 2498 H 230.473 0.410408 -4.946 0
M  V30 2499 H 225.729 -0.404524 -6.1006 0
M  V30 2500 H 229.903 -0.993922 -6.89271 0
M  V30 2501 H 227.53 -1.40742 -7.47058 0
M  V30 2502 N 229.106 1.52395 0.401703 0
M  V30 2503 C 230.355 1.66044 1.14509 0
M  V30 2504 C 230.668 0.400216 1.91462 0
M  V30 2505 O 231.874 0.416632 2.68284 0
M  V30 2506 C 230.33 2.93388 2.0845 0
M  V30 2507 C 229.938 4.26545 1.36978 0
M  V30 2508 C 231.682 3.16402 2.83001 0
M  V30 2509 C 229.589 5.45007 2.29611 0
M  V30 2510 H 228.519 0.618562 0.431158 0
M  V30 2511 H 231.17 1.78886 0.40892 0
M  V30 2512 H 229.552 2.74263 2.8565 0
M  V30 2513 H 230.726 4.56179 0.650916 0
M  V30 2514 H 229.041 4.09692 0.74438 0
M  V30 2515 H 231.638 4.02085 3.52465 0
M  V30 2516 H 231.981 2.30943 3.46368 0
M  V30 2517 H 232.514 3.36034 2.12898 0
M  V30 2518 H 229.253 6.32835 1.70879 0
M  V30 2519 H 228.773 5.19702 2.9945 0
M  V30 2520 H 230.452 5.7838 2.89974 0
M  V30 2521 N 230.584 -0.659388 1.43143 0
M  V30 2522 C 231.547 -1.75432 1.47501 0
M  V30 2523 C 232.547 -1.56707 0.360512 0
M  V30 2524 O 233.737 -1.62717 0.622002 0
M  V30 2525 C 230.869 -3.14239 1.32162 0
M  V30 2526 H 232.062 -1.7295 2.45006 0
M  V30 2527 H 229.615 -0.870469 1.29817 0
M  V30 2528 H 230.35 -3.22336 0.356401 0
M  V30 2529 H 230.135 -3.29235 2.12948 0
M  V30 2530 H 231.625 -3.94094 1.3813 0
M  V30 2531 N 232.062 -1.29571 -0.897171 0
M  V30 2532 C 232.992 -1.17473 -2.01798 0
M  V30 2533 C 233.973 -0.068323 -1.69963 0
M  V30 2534 O 235.158 -0.248239 -1.92607 0
M  V30 2535 C 232.288 -0.853099 -3.36659 0
M  V30 2536 C 231.242 -1.9161 -3.82713 0
M  V30 2537 C 230.568 -1.44773 -5.14728 0
M  V30 2538 C 231.868 -3.32535 -4.02763 0
M  V30 2539 H 233.562 -2.11237 -2.12177 0
M  V30 2540 H 231.108 -1.01699 -1.01948 0
M  V30 2541 H 233.061 -0.755165 -4.14578 0
M  V30 2542 H 231.785 0.120236 -3.26379 0
M  V30 2543 H 230.444 -2.00346 -3.07013 0
M  V30 2544 H 230.092 -0.462995 -5.00865 0
M  V30 2545 H 229.792 -2.15865 -5.46513 0
M  V30 2546 H 231.316 -1.36334 -5.95185 0
M  V30 2547 H 232.73 -3.26626 -4.71156 0
M  V30 2548 H 231.127 -4.01607 -4.45905 0
M  V30 2549 H 232.197 -3.75326 -3.07016 0
M  V30 2550 N 233.54 1.10788 -1.12088 0
M  V30 2551 C 234.49 2.15158 -0.754401 0
M  V30 2552 C 235.474 1.59026 0.244846 0
M  V30 2553 O 236.666 1.76927 0.0509097 0
M  V30 2554 C 233.795 3.42677 -0.206657 0
M  V30 2555 C 232.881 4.05751 -1.23398 0
M  V30 2556 N 233.272 4.43582 -2.43041 0
M  V30 2557 C 231.57 4.32764 -1.07848 0
M  V30 2558 C 232.271 4.93085 -3.08613 0
M  V30 2559 N 231.247 4.89664 -2.36072 0
M  V30 2560 H 235.049 2.42195 -1.6649 0
M  V30 2561 H 232.563 1.27872 -1.00112 0
M  V30 2562 H 234.56 4.16834 0.0740646 0
M  V30 2563 H 233.22 3.17101 0.698342 0
M  V30 2564 H 234.231 4.35395 -2.80449 0
M  V30 2565 H 230.908 4.16863 -0.230483 0
M  V30 2566 H 232.298 5.31933 -4.10483 0
M  V30 2567 N 235.018 0.912232 1.28515 0
M  V30 2568 C 236.267 0.540504 1.94323 0
M  V30 2569 C 236.58 -0.920044 1.72611 0
M  V30 2570 O 237.786 -1.39986 2.32629 0
M  V30 2571 C 236.242 0.915803 3.48053 0
M  V30 2572 C 235.85 2.39598 3.78546 0
M  V30 2573 C 237.594 0.614588 4.20027 0
M  V30 2574 C 235.501 2.71148 5.25578 0
M  V30 2575 H 234.431 0.198418 0.727424 0
M  V30 2576 H 237.082 1.11094 1.46049 0
M  V30 2577 H 235.464 0.274168 3.9505 0
M  V30 2578 H 236.638 3.08422 3.42364 0
M  V30 2579 H 234.953 2.66749 3.1974 0
M  V30 2580 H 237.55 0.827002 5.28266 0
M  V30 2581 H 237.893 -0.447531 4.13887 0
M  V30 2582 H 238.426 1.21462 3.78803 0
M  V30 2583 H 235.165 3.76207 5.36794 0
M  V30 2584 H 234.685 2.0696 5.62963 0
M  V30 2585 H 236.364 2.58072 5.93302 0
M  V30 2586 N 236.496 -1.42363 0.676048 0
M  V30 2587 C 237.742 -2.0182 0.199125 0
M  V30 2588 C 238.075 -1.53339 -1.19168 0
M  V30 2589 O 237.35 -0.736124 -1.80032 0
M  V30 2590 C 237.633 -3.59331 0.235144 0
M  V30 2591 C 237.486 -4.17989 1.66149 0
M  V30 2592 C 238.805 -4.3813 -0.41595 0
M  V30 2593 H 235.924 -0.733293 0.0738311 0
M  V30 2594 H 238.566 -1.69368 0.86107 0
M  V30 2595 H 236.716 -3.87109 -0.328487 0
M  V30 2596 H 238.388 -4.0116 2.27747 0
M  V30 2597 H 236.631 -3.7377 2.20178 0
M  V30 2598 H 237.302 -5.27126 1.63837 0
M  V30 2599 H 239.778 -4.16051 0.0638529 0
M  V30 2600 H 238.654 -5.47717 -0.360115 0
M  V30 2601 H 238.915 -4.16101 -1.49373 0
M  V30 2602 N 237.974 -0.419461 -1.51915 0
M  V30 2603 C 238.922 0.415502 -2.28859 0
M  V30 2604 C 239.916 1.03674 -1.3397 0
M  V30 2605 O 241.122 0.973757 -1.51387 0
M  V30 2606 H 237.497 0.152786 -0.736315 0
M  V30 2607 H 239.468 -0.254531 -2.97312 0
M  V30 2608 C 238.217 1.51425 -3.12995 0
M  V30 2609 H 237.54 1.04556 -3.85886 0
M  V30 2610 H 238.98 2.07208 -3.6992 0
M  V30 2611 C 237.439 2.48745 -2.27217 0
M  V30 2612 O 237.969 3.52871 -1.9195 0
M  V30 2613 N 236.175 2.19202 -1.90785 0
M  V30 2614 H 235.722 1.34556 -2.19664 0
M  V30 2615 H 235.68 2.84561 -1.33687 0
M  V30 2616 N 239.452 1.56882 -0.150215 0
M  V30 2617 C 240.415 2.1573 0.774157 0
M  V30 2618 C 241.415 1.0999 1.17298 0
M  V30 2619 O 242.605 1.35613 1.09338 0
M  V30 2620 C 239.737 2.72302 2.05096 0
M  V30 2621 H 240.93 2.98752 0.262201 0
M  V30 2622 H 238.483 1.55985 0.099248 0
M  V30 2623 H 239.218 1.92956 2.6065 0
M  V30 2624 H 239.003 3.49665 1.77416 0
M  V30 2625 H 240.493 3.17632 2.71109 0
M  V30 2626 N 240.93 -0.123565 1.57115 0
M  V30 2627 C 241.84 -1.17074 2.033 0
M  V30 2628 C 242.856 -1.4561 0.952559 0
M  V30 2629 O 244.032 -1.56817 1.26374 0
M  V30 2630 C 241.097 -2.47857 2.42421 0
M  V30 2631 C 240.158 -2.26758 3.64526 0
M  V30 2632 C 239.391 -3.51305 4.01771 0
M  V30 2633 O 239.614 -4.5843 3.39409 0
M  V30 2634 O 238.548 -3.42578 4.94898 0
M  V30 2635 H 242.374 -0.808555 2.92739 0
M  V30 2636 H 239.959 -0.334027 1.45618 0
M  V30 2637 H 241.841 -3.2492 2.68338 0
M  V30 2638 H 240.516 -2.83558 1.5613 0
M  V30 2639 H 239.423 -1.47569 3.43765 0
M  V30 2640 H 240.756 -1.95963 4.51508 0
M  V30 2641 N 242.408 -1.52605 -0.393616 0
M  V30 2642 C 243.338 -1.80022 -1.48709 0
M  V30 2643 C 244.319 -0.651995 -1.57108 0
M  V30 2644 O 245.504 -0.89913 -1.72132 0
M  V30 2645 C 242.634 -1.96492 -2.86371 0
M  V30 2646 C 241.588 -3.12161 -2.92813 0
M  V30 2647 C 240.914 -3.13877 -4.3288 0
M  V30 2648 C 242.214 -4.51322 -2.6288 0
M  V30 2649 H 243.908 -2.71589 -1.26015 0
M  V30 2650 H 241.454 -1.30684 -0.604778 0
M  V30 2651 H 243.407 -2.14255 -3.62867 0
M  V30 2652 H 242.131 -1.01611 -3.10391 0
M  V30 2653 H 240.79 -2.94173 -2.18764 0
M  V30 2654 H 240.438 -2.16687 -4.53933 0
M  V30 2655 H 240.138 -3.91576 -4.38112 0
M  V30 2656 H 241.662 -3.33789 -5.1129 0
M  V30 2657 H 243.076 -4.69435 -3.29096 0
M  V30 2658 H 241.473 -5.31053 -2.79468 0
M  V30 2659 H 242.543 -4.58353 -1.58242 0
M  V30 2660 N 243.887 0.651787 -1.4349 0
M  V30 2661 C 244.835 1.78586 -1.49029 0
M  V30 2662 C 245.829 1.65448 -0.363767 0
M  V30 2663 O 247.035 1.71777 -0.537821 0
M  V30 2664 H 243.41 0.589236 -0.467231 0
M  V30 2665 H 245.381 1.71035 -2.44519 0
M  V30 2666 C 244.13 3.16851 -1.43181 0
M  V30 2667 H 243.453 3.27598 -2.29171 0
M  V30 2668 H 244.893 3.96156 -1.51118 0
M  V30 2669 C 243.352 3.36568 -0.149616 0
M  V30 2670 O 243.882 3.93885 0.788509 0
M  V30 2671 N 242.088 2.90539 -0.0593484 0
M  V30 2672 H 241.635 2.4408 -0.823575 0
M  V30 2673 H 241.593 3.04108 0.797853 0
M  V30 2674 N 245.365 1.30045 0.890287 0
M  V30 2675 C 246.275 1.17885 2.02831 0
M  V30 2676 C 247.291 0.0999609 1.73713 0
M  V30 2677 O 248.467 0.313867 1.98939 0
M  V30 2678 C 245.532 0.866079 3.35708 0
M  V30 2679 C 244.593 2.02979 3.78283 0
M  V30 2680 C 243.826 1.73184 5.0482 0
M  V30 2681 O 244.049 0.657237 5.66601 0
M  V30 2682 O 242.983 2.58267 5.43674 0
M  V30 2683 H 246.809 2.13474 2.16015 0
M  V30 2684 H 244.394 1.09587 1.01543 0
M  V30 2685 H 246.276 0.706623 4.15433 0
M  V30 2686 H 244.951 -0.0599443 3.23644 0
M  V30 2687 H 243.858 2.24454 2.99285 0
M  V30 2688 H 245.191 2.93734 3.94944 0
M  V30 2689 N 246.843 -1.10192 1.12674 0
M  V30 2690 C 247.753 -2.20172 0.810026 0
M  V30 2691 C 248.769 -1.72821 -0.202188 0
M  V30 2692 O 249.945 -2.01369 -0.0351691 0
M  V30 2693 C 247.01 -3.45631 0.272007 0
M  V30 2694 C 246.071 -4.07704 1.34447 0
M  V30 2695 C 245.304 -5.27175 0.832029 0
M  V30 2696 O 245.527 -5.69425 -0.333284 0
M  V30 2697 O 244.461 -5.80168 1.60277 0
M  V30 2698 H 248.287 -2.49701 1.72867 0
M  V30 2699 H 245.872 -1.18977 0.903597 0
M  V30 2700 H 247.754 -4.21394 -0.0230219 0
M  V30 2701 H 246.429 -3.17723 -0.619164 0
M  V30 2702 H 245.336 -3.33614 1.6927 0
M  V30 2703 H 246.669 -4.3982 2.2095 0
M  V30 2704 N 248.321 -0.919034 -1.28029 0
M  V30 2705 C 249.254 -0.355887 -2.25408 0
M  V30 2706 C 250.232 0.542874 -1.5327 0
M  V30 2707 O 251.416 0.485338 -1.82145 0
M  V30 2708 C 248.543 0.490759 -3.35126 0
M  V30 2709 C 247.589 -0.343358 -4.25116 0
M  V30 2710 S 248.422 -1.75344 -5.05979 0
M  V30 2711 C 249.578 -0.914244 -6.19187 0
M  V30 2712 H 249.811 -1.18123 -2.72826 0
M  V30 2713 H 247.344 -0.720636 -1.36551 0
M  V30 2714 H 249.302 0.973404 -3.98792 0
M  V30 2715 H 247.963 1.29054 -2.86363 0
M  V30 2716 H 247.156 0.304266 -5.03081 0
M  V30 2717 H 246.758 -0.759851 -3.662 0
M  V30 2718 H 249.05 -0.146282 -6.77342 0
M  V30 2719 H 249.993 -1.66661 -6.88208 0
M  V30 2720 H 250.401 -0.460082 -5.62622 0
M  V30 2721 N 249.799 1.42003 -0.683588 0
M  V30 2722 C 251.21 1.84501 -0.285736 0
M  V30 2723 C 251.561 1.57213 1.17382 0
M  V30 2724 O 250.686 1.03642 1.89966 0
M  V30 2725 C 251.281 3.34912 -0.511821 0
M  V30 2726 C 249.84 3.76025 -0.168005 0
M  V30 2727 C 248.987 2.6551 -0.799983 0
M  V30 2728 H 251.938 1.31724 -0.885119 0
M  V30 2729 H 251.959 3.79784 0.233292 0
M  V30 2730 H 251.471 3.54741 -1.57418 0
M  V30 2731 H 249.572 3.61801 0.890567 0
M  V30 2732 H 249.685 4.75141 -0.614661 0
M  V30 2733 H 248.049 2.53654 -0.230568 0
M  V30 2734 H 248.832 2.8816 -1.86597 0
M  V30 2735 N 251.277 0.427512 1.51691 0
M  V30 2736 C 252.225 -0.403359 2.29076 0
M  V30 2737 C 253.219 -1.02962 1.34518 0
M  V30 2738 O 254.425 -0.965715 1.51901 0
M  V30 2739 H 250.8 -0.148879 0.737115 0
M  V30 2740 H 252.771 0.270295 2.97173 0
M  V30 2741 C 251.52 -1.49763 3.13794 0
M  V30 2742 H 250.843 -1.02508 3.86435 0
M  V30 2743 H 252.283 -2.05244 3.71014 0
M  V30 2744 C 250.742 -2.47536 2.28533 0
M  V30 2745 O 251.272 -3.51848 1.93819 0
M  V30 2746 N 249.478 -2.18187 1.91945 0
M  V30 2747 H 249.025 -1.33389 2.20375 0
M  V30 2748 H 248.983 -2.83848 1.35195 0
M  V30 2749 N 252.755 -1.56801 0.158532 0
M  V30 2750 C 254.004 -1.95665 -0.489702 0
M  V30 2751 C 254.317 -1.04654 -1.65248 0
M  V30 2752 O 255.523 -1.33146 -2.3661 0
M  V30 2753 C 253.979 -3.47874 -0.922582 0
M  V30 2754 C 253.587 -4.47489 0.213893 0
M  V30 2755 C 255.331 -3.95583 -1.53996 0
M  V30 2756 C 253.238 -5.90921 -0.237903 0
M  V30 2757 H 252.168 -0.730516 -0.186716 0
M  V30 2758 H 254.819 -1.81861 0.244722 0
M  V30 2759 H 253.201 -3.57051 -1.71261 0
M  V30 2760 H 254.375 -4.50017 0.991036 0
M  V30 2761 H 252.69 -4.09764 0.740407 0
M  V30 2762 H 255.287 -5.0019 -1.8898 0
M  V30 2763 H 255.63 -3.37789 -2.43319 0
M  V30 2764 H 256.163 -3.8937 -0.814611 0
M  V30 2765 H 252.902 -6.52559 0.620236 0
M  V30 2766 H 252.422 -5.91729 -0.980676 0
M  V30 2767 H 254.101 -6.43352 -0.686067 0
M  V30 2768 N 254.233 0.115231 -1.57178 0
M  V30 2769 C 255.482 0.820945 -1.84237 0
M  V30 2770 C 255.795 1.80866 -0.744761 0
M  V30 2771 O 257.001 2.56083 -0.901871 0
M  V30 2772 C 255.457 1.51072 -3.26658 0
M  V30 2773 C 255.065 0.563795 -4.44438 0
M  V30 2774 C 256.809 2.20134 -3.62962 0
M  V30 2775 C 254.716 1.25701 -5.77887 0
M  V30 2776 H 253.646 0.310328 -0.687177 0
M  V30 2777 H 256.297 0.0737134 -1.83352 0
M  V30 2778 H 254.679 2.30471 -3.22024 0
M  V30 2779 H 255.853 -0.197247 -4.60378 0
M  V30 2780 H 254.168 -0.0200638 -4.16395 0
M  V30 2781 H 256.765 2.72696 -4.59936 0
M  V30 2782 H 257.108 2.98107 -2.90582 0
M  V30 2783 H 257.641 1.47619 -3.69396 0
M  V30 2784 H 254.38 0.518493 -6.53446 0
M  V30 2785 H 253.9 1.98997 -5.65827 0
M  V30 2786 H 255.579 1.78915 -6.2177 0
M  V30 2787 N 255.711 1.52812 0.385517 0
M  V30 2788 C 256.659 1.78482 1.49155 0
M  V30 2789 C 257.653 0.652914 1.56312 0
M  V30 2790 O 258.859 0.835464 1.59436 0
M  V30 2791 H 255.234 0.5648 0.496493 0
M  V30 2792 H 257.205 2.71095 1.24699 0
M  V30 2793 C 255.954 1.97378 2.86247 0
M  V30 2794 H 255.277 2.83907 2.81491 0
M  V30 2795 H 256.717 2.19327 3.62866 0
M  V30 2796 C 255.176 0.74728 3.28508 0
M  V30 2797 O 255.706 -0.0736232 4.01633 0
M  V30 2798 N 253.912 0.576396 2.84826 0
M  V30 2799 H 253.459 1.24555 2.25486 0
M  V30 2800 H 253.417 -0.24288 3.1346 0
M  V30 2801 N 257.189 -0.644168 1.43834 0
M  V30 2802 C 258.438 -1.39985 1.45214 0
M  V30 2803 C 258.751 -1.95421 0.0835494 0
M  V30 2804 O 259.957 -2.71488 -0.0251748 0
M  V30 2805 C 258.413 -2.53384 2.55587 0
M  V30 2806 C 258.021 -2.04517 3.98594 0
M  V30 2807 C 259.765 -3.30685 2.66172 0
M  V30 2808 C 257.672 -3.1518 5.00416 0
M  V30 2809 H 256.602 -0.526005 0.540218 0
M  V30 2810 H 259.253 -0.694367 1.69855 0
M  V30 2811 H 257.635 -3.26446 2.24163 0
M  V30 2812 H 258.809 -1.38405 4.39523 0
M  V30 2813 H 257.124 -1.40068 3.92135 0
M  V30 2814 H 259.721 -4.13158 3.39418 0
M  V30 2815 H 260.064 -3.79312 1.71546 0
M  V30 2816 H 260.597 -2.64708 2.96942 0
M  V30 2817 H 257.336 -2.71511 5.96625 0
M  V30 2818 H 256.856 -3.79974 4.64091 0
M  V30 2819 H 258.535 -3.80166 5.23529 0
M  V30 2820 N 258.668 -1.30515 -0.883378 0
M  V30 2821 C 259.896 -1.22359 -1.66841 0
M  V30 2822 C 260.311 0.213296 -1.87591 0
M  V30 2823 O 259.668 1.14075 -1.42454 0
M  V30 2824 C 259.719 -1.95011 -3.04389 0
M  V30 2825 O 259.44 -3.3309 -2.84575 0
M  V30 2826 C 260.941 -1.93532 -3.98824 0
M  V30 2827 H 258.161 -0.423371 -0.520575 0
M  V30 2828 H 260.705 -1.72167 -1.10357 0
M  V30 2829 H 258.86 -1.48997 -3.57601 0
M  V30 2830 H 259.274 -3.69907 -3.71846 0
M  V30 2831 H 260.748 -2.48902 -4.92699 0
M  V30 2832 H 261.225 -0.914627 -4.29571 0
M  V30 2833 H 261.831 -2.39364 -3.51547 0
M  V30 2834 N 260.146 1.09593 -1.13257 0
M  V30 2835 C 261.093 2.1618 -0.808381 0
M  V30 2836 C 262.063 1.64517 0.228754 0
M  V30 2837 O 263.248 1.9053 0.101381 0
M  V30 2838 C 260.388 3.43973 -0.278675 0
M  V30 2839 C 259.501 4.09545 -1.37466 0
M  V30 2840 C 258.636 5.25088 -0.803479 0
M  V30 2841 C 257.675 5.82579 -1.87799 0
M  V30 2842 N 256.812 6.89486 -1.32488 0
M  V30 2843 H 261.652 2.43254 -1.72138 0
M  V30 2844 H 259.189 1.19392 -0.859294 0
M  V30 2845 H 261.147 4.17174 0.0465583 0
M  V30 2846 H 259.777 3.17223 0.597459 0
M  V30 2847 H 258.829 3.34226 -1.81652 0
M  V30 2848 H 260.141 4.48307 -2.18684 0
M  V30 2849 H 259.295 6.05178 -0.429427 0
M  V30 2850 H 258.034 4.87684 0.0397956 0
M  V30 2851 H 257.039 5.01152 -2.26113 0
M  V30 2852 H 258.264 6.22045 -2.72463 0
M  V30 2853 H 256.21 6.54064 -0.503575 0
M  V30 2854 H 256.127 7.27007 -2.07355 0
M  V30 2855 H 257.395 7.73336 -0.978336 0
M  V30 2856 N 261.624 0.925811 1.2754 0
M  V30 2857 C 262.87 0.566092 1.94739 0
M  V30 2858 C 263.203 -0.890057 1.72603 0
M  V30 2859 O 262.478 -1.63467 1.05399 0
M  V30 2860 C 262.761 0.89054 3.48915 0
M  V30 2861 C 262.614 2.4003 3.80402 0
M  V30 2862 C 263.933 0.395101 4.38323 0
M  V30 2863 H 261.052 0.20714 0.707292 0
M  V30 2864 H 263.694 1.15725 1.50691 0
M  V30 2865 H 261.844 0.387452 3.86563 0
M  V30 2866 H 263.516 2.97494 3.52555 0
M  V30 2867 H 261.759 2.85028 3.2702 0
M  V30 2868 H 262.43 2.57785 4.8811 0
M  V30 2869 H 264.906 0.826241 4.07814 0
M  V30 2870 H 263.782 0.651086 5.45025 0
M  V30 2871 H 264.043 -0.704798 4.36446 0
M  V30 2872 N 263.102 -1.41638 0.69111 0
M  V30 2873 C 264.035 -2.28183 -0.0274913 0
M  V30 2874 C 265.013 -1.41984 -0.792424 0
M  V30 2875 O 266.197 -1.71415 -0.784169 0
M  V30 2876 C 263.324 -3.22135 -1.04628 0
M  V30 2877 C 262.37 -4.24848 -0.375037 0
M  V30 2878 S 263.203 -5.28231 0.879321 0
M  V30 2879 C 264.359 -6.25748 -0.137983 0
M  V30 2880 H 264.592 -2.88782 0.706553 0
M  V30 2881 H 262.125 -1.46709 0.481222 0
M  V30 2882 H 264.083 -3.76797 -1.62894 0
M  V30 2883 H 262.744 -2.6064 -1.75287 0
M  V30 2884 H 261.937 -4.90837 -1.14433 0
M  V30 2885 H 261.539 -3.73758 0.134434 0
M  V30 2886 H 263.831 -6.70188 -0.992659 0
M  V30 2887 H 264.774 -7.06417 0.487867 0
M  V30 2888 H 265.182 -5.62363 -0.490762 0
M  V30 2889 N 264.58 -0.43555 -1.51462 0
M  V30 2890 C 265.512 0.41257 -2.25456 0
M  V30 2891 C 266.525 0.987822 -1.29406 0
M  V30 2892 O 267.714 0.882266 -1.55172 0
M  V30 2893 C 264.814 1.58894 -2.99342 0
M  V30 2894 C 263.987 1.13288 -4.22474 0
M  V30 2895 C 263.046 2.17917 -4.78956 0
M  V30 2896 O 262.072 1.77425 -5.40841 0
M  V30 2897 N 263.274 3.50382 -4.62832 0
M  V30 2898 H 266.039 -0.221603 -2.9888 0
M  V30 2899 H 263.6 -0.264342 -1.59727 0
M  V30 2900 H 265.592 2.28508 -3.34015 0
M  V30 2901 H 264.162 2.12849 -2.28941 0
M  V30 2902 H 263.382 0.263881 -3.93316 0
M  V30 2903 H 264.67 0.805542 -5.02383 0
M  V30 2904 H 264.068 3.86013 -4.13534 0
M  V30 2905 H 262.625 4.15895 -5.01871 0
M  V30 2906 N 266.058 1.56714 -0.166846 0
M  V30 2907 C 266.968 2.21331 0.777791 0
M  V30 2908 C 267.984 1.20358 1.25658 0
M  V30 2909 O 269.16 1.53005 1.30964 0
M  V30 2910 C 266.225 2.83787 1.99163 0
M  V30 2911 C 265.286 3.99947 1.56016 0
M  V30 2912 C 264.519 4.59415 2.71613 0
M  V30 2913 O 264.742 4.17769 3.88362 0
M  V30 2914 O 263.676 5.49359 2.45945 0
M  V30 2915 H 267.502 3.02605 0.257636 0
M  V30 2916 H 265.087 1.49275 0.0611393 0
M  V30 2917 H 266.969 3.23405 2.70161 0
M  V30 2918 H 265.644 2.05513 2.50092 0
M  V30 2919 H 264.551 3.65007 0.819809 0
M  V30 2920 H 265.884 4.79801 1.09782 0
M  V30 2921 N 267.536 -0.106894 1.57237 0
M  V30 2922 C 268.785 -0.811163 1.8467 0
M  V30 2923 C 269.098 -1.80469 0.754342 0
M  V30 2924 O 270.304 -2.55601 0.915439 0
M  V30 2925 C 268.76 -1.49337 3.27454 0
M  V30 2926 C 268.368 -0.540217 4.44731 0
M  V30 2927 C 270.112 -2.18206 3.64124 0
M  V30 2928 C 268.019 -1.22634 5.78545 0
M  V30 2929 H 266.949 -0.306679 0.688813 0
M  V30 2930 H 269.6 -0.0639887 1.83388 0
M  V30 2931 H 267.982 -2.2876 3.23241 0
M  V30 2932 H 269.156 0.221659 4.60267 0
M  V30 2933 H 267.471 0.042146 4.16379 0
M  V30 2934 H 270.068 -2.70253 4.61376 0
M  V30 2935 H 270.411 -2.96562 2.92158 0
M  V30 2936 H 270.944 -1.45658 3.70174 0
M  V30 2937 H 267.683 -0.483832 6.53712 0
M  V30 2938 H 267.203 -1.95993 5.66874 0
M  V30 2939 H 268.882 -1.75615 6.2271 0
M  V30 2940 N 269.014 -1.53014 -0.377408 0
M  V30 2941 C 269.944 -1.81589 -1.46791 0
M  V30 2942 C 270.925 -0.668622 -1.56408 0
M  V30 2943 O 272.11 -0.917337 -1.71168 0
M  V30 2944 C 269.24 -1.99519 -2.8427 0
M  V30 2945 C 268.194 -3.15249 -2.89486 0
M  V30 2946 C 267.52 -3.18451 -4.29527 0
M  V30 2947 C 268.82 -4.54084 -2.58079 0
M  V30 2948 H 270.514 -2.7291 -1.23127 0
M  V30 2949 H 268.06 -1.31319 -0.590883 0
M  V30 2950 H 270.013 -2.18092 -3.60575 0
M  V30 2951 H 268.737 -1.04897 -3.09296 0
M  V30 2952 H 267.396 -2.96477 -2.15631 0
M  V30 2953 H 267.044 -2.2149 -4.5161 0
M  V30 2954 H 266.744 -3.962 -4.33934 0
M  V30 2955 H 268.268 -3.39193 -5.07721 0
M  V30 2956 H 269.682 -4.72899 -3.24098 0
M  V30 2957 H 268.079 -5.33987 -2.7382 0
M  V30 2958 H 269.149 -4.60006 -1.53372 0
M  V30 2959 N 270.492 0.636531 -1.44174 0
M  V30 2960 C 271.717 1.42847 -1.50364 0
M  V30 2961 C 272.142 1.87665 -0.127867 0
M  V30 2962 O 271.5 1.58408 0.88185 0
M  V30 2963 C 271.548 2.62854 -2.4686 0
M  V30 2964 O 270.652 3.62501 -1.9664 0
M  V30 2965 H 269.993 0.427642 -0.507955 0
M  V30 2966 H 272.523 0.777422 -1.89255 0
M  V30 2967 H 272.533 3.10465 -2.64718 0
M  V30 2968 H 271.208 2.29578 -3.46795 0
M  V30 2969 H 269.785 3.21735 -1.88523 0
M  V30 2970 N 271.97 1.30982 0.876444 0
M  V30 2971 C 273.219 1.19658 1.62373 0
M  V30 2972 C 273.532 -0.245636 1.94052 0
M  V30 2973 O 274.738 -0.48049 2.67214 0
M  V30 2974 C 273.194 2.09433 2.92687 0
M  V30 2975 C 272.802 3.58613 2.68516 0
M  V30 2976 C 274.546 2.06893 3.70669 0
M  V30 2977 C 272.453 4.40416 3.94699 0
M  V30 2978 H 271.383 0.444268 0.609214 0
M  V30 2979 H 274.034 1.55791 0.969605 0
M  V30 2980 H 272.416 1.66191 3.59439 0
M  V30 2981 H 273.59 4.10058 2.10212 0
M  V30 2982 H 271.905 3.63063 2.03898 0
M  V30 2983 H 274.502 2.65258 4.64265 0
M  V30 2984 H 274.845 1.05448 4.02724 0
M  V30 2985 H 275.378 2.48301 3.10792 0
M  V30 2986 H 272.117 5.42591 3.67798 0
M  V30 2987 H 271.637 3.93731 4.52477 0
M  V30 2988 H 273.316 4.52294 4.62644 0
M  V30 2989 N 273.449 -1.08991 1.13837 0
M  V30 2990 C 274.695 -1.81526 0.90422 0
M  V30 2991 C 275.028 -1.85706 -0.568066 0
M  V30 2992 O 274.303 -1.32855 -1.42056 0
M  V30 2993 C 274.586 -3.27447 1.49835 0
M  V30 2994 C 274.439 -3.31512 3.04006 0
M  V30 2995 C 275.758 -4.24256 1.17025 0
M  V30 2996 H 272.877 -0.659029 0.329923 0
M  V30 2997 H 275.519 -1.27644 1.40737 0
M  V30 2998 H 273.669 -3.73462 1.07044 0
M  V30 2999 H 275.341 -2.93867 3.55584 0
M  V30 3000 H 273.584 -2.70963 3.38765 0
M  V30 3001 H 274.255 -4.34329 3.40679 0
M  V30 3002 H 276.731 -3.86549 1.54009 0
M  V30 3003 H 275.607 -5.24684 1.61237 0
M  V30 3004 H 275.868 -4.42019 0.0846274 0
M  V30 3005 N 274.927 -0.932562 -1.27047 0
M  V30 3006 C 275.874 -0.434072 -2.26681 0
M  V30 3007 C 276.844 0.501639 -1.58344 0
M  V30 3008 O 278.029 0.419734 -1.86126 0
M  V30 3009 C 275.169 0.30261 -3.43771 0
M  V30 3010 C 274.282 -0.667774 -4.26808 0
M  V30 3011 C 273.417 0.0892393 -5.31125 0
M  V30 3012 C 272.456 -0.873532 -6.05835 0
M  V30 3013 N 271.593 -0.148832 -7.01942 0
M  V30 3014 H 276.433 -1.28868 -2.68695 0
M  V30 3015 H 273.97 -0.646713 -1.32121 0
M  V30 3016 H 275.928 0.746092 -4.10474 0
M  V30 3017 H 274.558 1.12142 -3.02695 0
M  V30 3018 H 273.61 -1.22978 -3.59973 0
M  V30 3019 H 274.922 -1.40337 -4.78651 0
M  V30 3020 H 274.076 0.592409 -6.03801 0
M  V30 3021 H 272.815 0.85777 -4.80097 0
M  V30 3022 H 271.82 -1.38791 -5.31994 0
M  V30 3023 H 273.045 -1.64193 -6.58952 0
M  V30 3024 H 270.991 0.601365 -6.53238 0
M  V30 3025 H 270.908 -0.82391 -7.51497 0
M  V30 3026 H 272.176 0.333527 -7.78786 0
M  V30 3027 N 276.405 1.4127 -0.698611 0
M  V30 3028 C 277.635 2.05205 -0.239644 0
M  V30 3029 C 278.043 1.52684 1.11733 0
M  V30 3030 O 277.386 0.671222 1.70998 0
M  V30 3031 C 277.448 3.59289 -0.123126 0
M  V30 3032 C 277.112 4.34619 -1.41263 0
M  V30 3033 C 278.109 4.63701 -2.35111 0
M  V30 3034 C 275.794 4.73837 -1.66684 0
M  V30 3035 C 277.788 5.30966 -3.52639 0
M  V30 3036 C 275.475 5.40837 -2.84498 0
M  V30 3037 C 276.473 5.69329 -3.77298 0
M  V30 3038 O 276.161 6.34949 -4.93047 0
M  V30 3039 H 275.893 0.66723 -0.108537 0
M  V30 3040 H 278.447 1.81974 -0.952602 0
M  V30 3041 H 276.677 3.81272 0.645628 0
M  V30 3042 H 278.366 4.04797 0.299056 0
M  V30 3043 H 279.132 4.33882 -2.16729 0
M  V30 3044 H 275.011 4.51039 -0.953135 0
M  V30 3045 H 278.555 5.53121 -4.25091 0
M  V30 3046 H 274.452 5.70075 -3.02795 0
M  V30 3047 H 275.22 6.53445 -4.92902 0
M  V30 3048 N 277.883 0.443576 1.51229 0
M  V30 3049 C 278.833 -0.382787 2.24764 0
M  V30 3050 C 279.817 -0.984836 1.27239 0
M  V30 3051 O 281.009 -0.901943 1.52296 0
M  V30 3052 C 278.138 -1.47989 3.09765 0
M  V30 3053 C 277.224 -0.886931 4.14722 0
M  V30 3054 N 277.615 -0.0237103 5.05794 0
M  V30 3055 C 275.913 -1.15385 4.30816 0
M  V30 3056 C 276.614 0.309971 5.80874 0
M  V30 3057 N 275.59 -0.307989 5.42727 0
M  V30 3058 H 279.392 0.282624 2.92538 0
M  V30 3059 H 276.906 0.256027 1.60369 0
M  V30 3060 H 278.903 -2.08482 3.61027 0
M  V30 3061 H 277.563 -2.14758 2.43535 0
M  V30 3062 H 278.574 0.34318 5.16762 0
M  V30 3063 H 275.251 -1.81857 3.75812 0
M  V30 3064 H 276.641 1.01279 6.64223 0
M  V30 3065 N 279.361 -1.56624 0.175154 0
M  V30 3066 C 280.608 -1.96999 -0.468811 0
M  V30 3067 C 280.936 -1.06129 -1.62994 0
M  V30 3068 O 280.191 -0.0961771 -1.95464 0
M  V30 3069 C 280.49 -3.43419 -0.989864 0
M  V30 3070 C 280.156 -4.50866 0.0557687 0
M  V30 3071 C 278.818 -4.79975 0.343134 0
M  V30 3072 C 281.17 -5.15551 0.765308 0
M  V30 3073 C 278.498 -5.71066 1.34536 0
M  V30 3074 C 280.85 -6.07724 1.75654 0
M  V30 3075 C 279.514 -6.35199 2.05132 0
M  V30 3076 H 278.784 -0.720869 -0.17155 0
M  V30 3077 H 281.431 -1.89616 0.267924 0
M  V30 3078 H 279.736 -3.47772 -1.80449 0
M  V30 3079 H 281.433 -3.72002 -1.49719 0
M  V30 3080 H 278.023 -4.28229 -0.178381 0
M  V30 3081 H 282.207 -4.9317 0.556513 0
M  V30 3082 H 277.463 -5.90635 1.57988 0
M  V30 3083 H 281.637 -6.56912 2.31169 0
M  V30 3084 H 279.264 -7.05584 2.8294 0
M  V30 3085 N 280.839 0.0985539 -1.57292 0
M  V30 3086 C 281.786 1.11981 -2.01814 0
M  V30 3087 C 282.756 1.39999 -0.89384 0
M  V30 3088 O 283.941 1.5152 -1.15958 0
M  V30 3089 C 281.081 2.43577 -2.44467 0
M  V30 3090 C 280.194 2.2232 -3.70402 0
M  V30 3091 C 279.329 3.4729 -4.01949 0
M  V30 3092 C 278.368 3.2128 -5.21005 0
M  V30 3093 N 277.505 4.38507 -5.48321 0
M  V30 3094 H 282.345 0.733149 -2.88841 0
M  V30 3095 H 279.882 0.350482 -1.42864 0
M  V30 3096 H 281.84 3.20373 -2.6724 0
M  V30 3097 H 280.47 2.80097 -1.60455 0
M  V30 3098 H 279.522 1.36343 -3.55126 0
M  V30 3099 H 280.834 1.99089 -4.57345 0
M  V30 3100 H 279.988 4.32495 -4.25479 0
M  V30 3101 H 278.727 3.73572 -3.13521 0
M  V30 3102 H 277.732 2.34468 -4.97298 0
M  V30 3103 H 278.957 2.96348 -6.11028 0
M  V30 3104 H 276.903 4.64871 -4.62851 0
M  V30 3105 H 276.82 4.18455 -6.29628 0
M  V30 3106 H 278.088 5.24787 -5.76385 0
M  V30 3107 N 282.317 1.53212 0.369288 0
M  V30 3108 C 283.566 1.68436 1.10961 0
M  V30 3109 C 283.879 0.440738 1.9057 0
M  V30 3110 O 285.085 0.473446 2.6734 0
M  V30 3111 C 283.541 2.97744 2.0218 0
M  V30 3112 C 283.149 4.29355 1.279 0
M  V30 3113 C 284.893 3.22334 2.76226 0
M  V30 3114 C 282.8 5.49755 2.17999 0
M  V30 3115 H 281.73 0.627568 0.41794 0
M  V30 3116 H 284.381 1.79713 0.370884 0
M  V30 3117 H 282.763 2.8026 2.79768 0
M  V30 3118 H 283.937 4.57458 0.554007 0
M  V30 3119 H 282.252 4.11179 0.657311 0
M  V30 3120 H 284.849 4.09471 3.43857 0
M  V30 3121 H 285.192 2.38238 3.41392 0
M  V30 3122 H 285.725 3.40475 2.05723 0
M  V30 3123 H 282.464 6.36318 1.57417 0
M  V30 3124 H 281.984 5.25937 2.88359 0
M  V30 3125 H 283.663 5.84401 2.77641 0
M  V30 3126 N 283.795 -0.628877 1.44509 0
M  V30 3127 C 284.705 -1.7694 1.54044 0
M  V30 3128 C 285.721 -1.68705 0.425987 0
M  V30 3129 O 286.897 -1.89442 0.683656 0
M  V30 3130 C 283.962 -3.13332 1.48405 0
M  V30 3131 C 283.023 -3.33181 2.70719 0
M  V30 3132 C 282.256 -4.63067 2.6534 0
M  V30 3133 O 282.479 -5.44017 1.71469 0
M  V30 3134 O 281.413 -4.85167 3.56226 0
M  V30 3135 H 285.239 -1.71848 2.50403 0
M  V30 3136 H 282.824 -0.790378 1.26781 0
M  V30 3137 H 284.706 -3.94634 1.47791 0
M  V30 3138 H 283.381 -3.1896 0.551898 0
M  V30 3139 H 282.288 -2.51549 2.769 0
M  V30 3140 H 283.621 -3.32416 3.62988 0
M  V30 3141 N 285.273 -1.31445 -0.869486 0
M  V30 3142 C 286.52 -1.21158 -1.62256 0
M  V30 3143 C 286.848 0.230155 -1.93133 0
M  V30 3144 O 286.103 1.17906 -1.56194 0
M  V30 3145 C 286.402 -2.00145 -2.96102 0
M  V30 3146 C 286.068 -3.4964 -2.84715 0
M  V30 3147 C 284.73 -3.90403 -2.81317 0
M  V30 3148 C 287.082 -4.44769 -2.71716 0
M  V30 3149 C 284.41 -5.24561 -2.62778 0
M  V30 3150 C 286.762 -5.79054 -2.54714 0
M  V30 3151 C 285.426 -6.19037 -2.49699 0
M  V30 3152 H 284.696 -0.443348 -0.593737 0
M  V30 3153 H 287.343 -1.62715 -1.00976 0
M  V30 3154 H 285.648 -1.5127 -3.6142 0
M  V30 3155 H 287.345 -1.89566 -3.53363 0
M  V30 3156 H 283.935 -3.17256 -2.88178 0
M  V30 3157 H 288.119 -4.14208 -2.73397 0
M  V30 3158 H 283.375 -5.54613 -2.57321 0
M  V30 3159 H 287.549 -6.52393 -2.43632 0
M  V30 3160 H 285.176 -7.22935 -2.35093 0
M  V30 3161 N 286.751 1.08385 -1.14413 0
M  V30 3162 C 287.699 2.17406 -0.826888 0
M  V30 3163 C 288.693 1.6827 0.195312 0
M  V30 3164 O 289.899 1.79927 0.0513892 0
M  V30 3165 H 286.274 0.70934 -0.249681 0
M  V30 3166 H 288.245 2.41388 -1.75426 0
M  V30 3167 C 286.994 3.46215 -0.320979 0
M  V30 3168 H 286.317 3.84401 -1.0989 0
M  V30 3169 H 287.757 4.23777 -0.137549 0
M  V30 3170 C 286.216 3.23067 0.955472 0
M  V30 3171 O 286.746 3.4668 2.02918 0
M  V30 3172 N 284.952 2.7661 0.890798 0
M  V30 3173 H 284.499 2.57594 0.0168815 0
M  V30 3174 H 284.457 2.61501 1.74542 0
M  V30 3175 N 288.23 0.939286 1.26551 0
M  V30 3176 C 289.14 0.453432 2.30176 0
M  V30 3177 C 290.156 -0.471649 1.67486 0
M  V30 3178 O 291.332 -0.35164 1.98306 0
M  V30 3179 C 288.397 -0.275326 3.45605 0
M  V30 3180 C 287.458 0.686084 4.23782 0
M  V30 3181 C 286.691 -0.00798994 5.33699 0
M  V30 3182 O 286.914 -1.22528 5.57085 0
M  V30 3183 O 285.848 0.669746 5.98162 0
M  V30 3184 H 289.674 1.31416 2.73795 0
M  V30 3185 H 287.259 0.705095 1.31715 0
M  V30 3186 H 289.141 -0.685911 4.1578 0
M  V30 3187 H 287.816 -1.11147 3.0402 0
M  V30 3188 H 286.723 1.14658 3.56096 0
M  V30 3189 H 288.056 1.48979 4.69112 0
M  V30 3190 N 289.708 -1.40897 0.706093 0
M  V30 3191 C 290.618 -2.3455 0.0482286 0
M  V30 3192 C 291.634 -1.56796 -0.754396 0
M  V30 3193 O 292.81 -1.89228 -0.689538 0
M  V30 3194 C 289.875 -3.35625 -0.869303 0
M  V30 3195 C 288.936 -4.29261 -0.0576994 0
M  V30 3196 C 288.169 -5.25508 -0.931531 0
M  V30 3197 O 288.392 -5.27472 -2.17092 0
M  V30 3198 O 287.326 -6.00727 -0.375587 0
M  V30 3199 H 291.152 -2.92407 0.820476 0
M  V30 3200 H 288.737 -1.4193 0.4665 0
M  V30 3201 H 290.619 -3.97635 -1.39514 0
M  V30 3202 H 289.294 -2.80196 -1.62086 0
M  V30 3203 H 288.201 -3.70566 0.512988 0
M  V30 3204 H 289.534 -4.87817 0.655426 0
M  V30 3205 N 291.186 -0.45159 -1.50991 0
M  V30 3206 C 292.411 0.110667 -2.07105 0
M  V30 3207 C 292.836 1.3446 -1.31538 0
M  V30 3208 O 292.194 1.77743 -0.357365 0
M  V30 3209 C 292.242 0.397238 -3.58405 0
M  V30 3210 O 291.346 1.48124 -3.84881 0
M  V30 3211 H 290.687 -0.00439271 -0.663985 0
M  V30 3212 H 293.217 -0.637026 -1.9443 0
M  V30 3213 H 293.227 0.64351 -4.02893 0
M  V30 3214 H 291.902 -0.504553 -4.12828 0
M  V30 3215 H 290.479 1.22381 -3.52246 0
M  V30 3216 N 292.664 1.56529 -0.183458 0
M  V30 3217 C 293.594 2.21549 0.737456 0
M  V30 3218 C 294.575 1.17489 1.23005 0
M  V30 3219 O 295.76 1.45959 1.281 0
M  V30 3220 C 292.89 2.86575 1.96194 0
M  V30 3221 C 291.844 3.96778 1.60473 0
M  V30 3222 C 291.17 4.48911 2.90487 0
M  V30 3223 C 292.47 5.15767 0.823497 0
M  V30 3224 H 294.164 2.98761 0.195453 0
M  V30 3225 H 291.71 1.43702 0.0925686 0
M  V30 3226 H 293.663 3.30739 2.61131 0
M  V30 3227 H 292.387 2.06749 2.52828 0
M  V30 3228 H 291.046 3.53286 0.978997 0
M  V30 3229 H 290.694 3.65862 3.45186 0
M  V30 3230 H 290.394 5.23265 2.67335 0
M  V30 3231 H 291.918 4.95771 3.56432 0
M  V30 3232 H 293.332 5.56549 1.37571 0
M  V30 3233 H 291.729 5.96114 0.690551 0
M  V30 3234 H 292.799 4.84574 -0.177782 0
M  V30 3235 N 294.142 -0.090211 1.57342 0
M  V30 3236 C 295.092 -1.11557 1.98844 0
M  V30 3237 C 296.076 -1.35503 0.867624 0
M  V30 3238 O 297.268 -1.36113 1.13148 0
M  V30 3239 C 294.397 -2.43446 2.42051 0
M  V30 3240 C 293.483 -2.22853 3.60828 0
M  V30 3241 N 293.874 -1.72141 4.75606 0
M  V30 3242 C 292.172 -2.53401 3.67021 0
M  V30 3243 C 292.873 -1.65932 5.57531 0
M  V30 3244 N 291.849 -2.11323 5.00843 0
M  V30 3245 H 295.651 -0.716499 2.85032 0
M  V30 3246 H 293.165 -0.297567 1.59651 0
M  V30 3247 H 295.162 -3.17644 2.70014 0
M  V30 3248 H 293.822 -2.84087 1.57241 0
M  V30 3249 H 294.833 -1.41268 4.98261 0
M  V30 3250 H 291.51 -2.97532 2.92884 0
M  V30 3251 H 292.9 -1.27733 6.59647 0
M  V30 3252 N 295.62 -1.53406 -0.361157 0
M  V30 3253 C 296.85 -1.73465 -1.1222 0
M  V30 3254 C 297.258 -0.465486 -1.83384 0
M  V30 3255 O 296.601 0.571611 -1.7458 0
M  V30 3256 C 296.663 -2.84834 -2.19339 0
M  V30 3257 C 296.327 -4.25038 -1.67903 0
M  V30 3258 C 297.324 -5.07231 -1.14074 0
M  V30 3259 C 295.009 -4.71464 -1.73282 0
M  V30 3260 C 297.003 -6.33942 -0.663068 0
M  V30 3261 C 294.69 -5.98153 -1.25127 0
M  V30 3262 C 295.688 -6.79223 -0.717296 0
M  V30 3263 O 295.376 -8.03533 -0.242865 0
M  V30 3264 H 295.108 -0.583526 -0.341283 0
M  V30 3265 H 297.662 -2.00964 -0.424591 0
M  V30 3266 H 295.892 -2.5282 -2.92607 0
M  V30 3267 H 297.581 -2.9303 -2.80871 0
M  V30 3268 H 298.347 -4.72534 -1.09254 0
M  V30 3269 H 294.226 -4.08432 -2.13786 0
M  V30 3270 H 297.77 -6.97167 -0.245612 0
M  V30 3271 H 293.667 -6.32347 -1.29642 0
M  V30 3272 H 294.435 -8.177 -0.361786 0
M  V30 3273 N 297.098 0.621204 -1.44841 0
M  V30 3274 C 298.328 1.40548 -1.51426 0
M  V30 3275 C 298.736 1.88673 -0.141083 0
M  V30 3276 O 298.079 1.62053 0.865128 0
M  V30 3277 C 298.141 2.65325 -2.42576 0
M  V30 3278 C 297.805 2.3893 -3.89566 0
M  V30 3279 C 298.802 2.00138 -4.79834 0
M  V30 3280 C 296.487 2.52263 -4.3436 0
M  V30 3281 C 298.481 1.75021 -6.129 0
M  V30 3282 C 296.168 2.2676 -5.67471 0
M  V30 3283 C 297.166 1.88199 -6.56559 0
M  V30 3284 O 296.854 1.62986 -7.87204 0
M  V30 3285 H 296.586 0.437122 -0.515655 0
M  V30 3286 H 299.14 0.765987 -1.90583 0
M  V30 3287 H 297.37 3.31947 -1.98364 0
M  V30 3288 H 299.059 3.27347 -2.39998 0
M  V30 3289 H 299.825 1.89386 -4.46495 0
M  V30 3290 H 295.704 2.81246 -3.65269 0
M  V30 3291 H 299.248 1.44848 -6.82396 0
M  V30 3292 H 295.145 2.37125 -6.00368 0
M  V30 3293 H 295.913 1.7715 -7.991 0
M  V30 3294 N 298.576 1.31904 0.862503 0
M  V30 3295 C 299.992 1.10724 1.14945 0
M  V30 3296 C 300.192 -0.117421 2.01158 0
M  V30 3297 O 299.248 -0.804595 2.39338 0
M  V30 3298 C 300.561 2.38267 1.83437 0
M  V30 3299 C 302.109 2.43949 1.96106 0
M  V30 3300 C 302.584 3.71394 2.68013 0
M  V30 3301 N 304.075 3.72331 2.75543 0
M  V30 3302 C 304.81 4.67641 3.31812 0
M  V30 3303 N 304.306 5.73313 3.88953 0
M  V30 3304 N 306.099 4.5515 3.29841 0
M  V30 3305 H 298.25 2.10436 0.288191 0
M  V30 3306 H 300.513 0.928705 0.190292 0
M  V30 3307 H 300.219 3.27759 1.27542 0
M  V30 3308 H 300.093 2.48633 2.83657 0
M  V30 3309 H 302.48 1.54922 2.51164 0
M  V30 3310 H 302.561 2.37543 0.949059 0
M  V30 3311 H 302.205 4.60791 2.13621 0
M  V30 3312 H 302.135 3.75069 3.69636 0
M  V30 3313 H 304.626 2.95947 2.34997 0
M  V30 3314 H 304.939 6.42107 4.30022 0
M  V30 3315 H 303.284 5.77077 3.87308 0
M  V30 3316 H 306.475 3.71766 2.84443 0
M  V30 3317 H 306.648 5.29604 3.73394 0
M  V30 3318 N 300.054 -1.07777 1.14986 0
M  V30 3319 C 301.301 -1.8029 0.922056 0
M  V30 3320 C 301.629 -1.86531 -0.55105 0
M  V30 3321 O 300.884 -1.34189 -1.42449 0
M  V30 3322 C 301.183 -3.25495 1.47608 0
M  V30 3323 C 300.849 -3.39361 2.96893 0
M  V30 3324 C 299.511 -3.42852 3.37647 0
M  V30 3325 C 301.863 -3.42512 3.92854 0
M  V30 3326 C 299.191 -3.47094 4.73015 0
M  V30 3327 C 301.543 -3.4829 5.28088 0
M  V30 3328 C 300.207 -3.50058 5.68345 0
M  V30 3329 H 299.477 -0.659727 0.337404 0
M  V30 3330 H 302.124 -1.26854 1.43459 0
M  V30 3331 H 300.429 -3.81683 0.88463 0
M  V30 3332 H 302.126 -3.80168 1.27568 0
M  V30 3333 H 298.716 -3.37339 2.64387 0
M  V30 3334 H 302.9 -3.3904 3.62444 0
M  V30 3335 H 298.156 -3.46758 5.03556 0
M  V30 3336 H 302.33 -3.49675 6.02246 0
M  V30 3337 H 299.957 -3.53097 6.73221 0
M  V30 3338 N 301.532 -0.945985 -1.26051 0
M  V30 3339 C 302.778 -0.597002 -1.93814 0
M  V30 3340 C 303.111 0.862484 -1.73997 0
M  V30 3341 O 302.386 1.61769 -1.07986 0
M  V30 3342 C 302.669 -0.945937 -3.47454 0
M  V30 3343 C 302.522 -2.46052 -3.76535 0
M  V30 3344 C 303.841 -0.464785 -4.37639 0
M  V30 3345 H 300.96 -0.218366 -0.703907 0
M  V30 3346 H 303.602 -1.18107 -1.48831 0
M  V30 3347 H 301.752 -0.448902 -3.85898 0
M  V30 3348 H 303.424 -3.03065 -3.47778 0
M  V30 3349 H 301.667 -2.90194 -3.22444 0
M  V30 3350 H 302.338 -2.65517 -4.83947 0
M  V30 3351 H 304.814 -0.891016 -4.06448 0
M  V30 3352 H 303.69 -0.737712 -5.4392 0
M  V30 3353 H 303.951 0.635274 -4.37512 0
M  V30 3354 N 303.011 1.40521 -0.713556 0
M  V30 3355 C 304.239 2.05237 -0.261775 0
M  V30 3356 C 304.654 1.53755 1.09567 0
M  V30 3357 O 304.011 0.693268 1.6882 0
M  V30 3358 C 304.062 3.60763 -0.230706 0
M  V30 3359 O 303.783 4.10345 -1.53455 0
M  V30 3360 C 305.284 4.42651 0.239874 0
M  V30 3361 H 302.504 0.660533 -0.118057 0
M  V30 3362 H 305.048 1.79967 -0.971192 0
M  V30 3363 H 303.203 3.8501 0.429661 0
M  V30 3364 H 303.617 5.04526 -1.43366 0
M  V30 3365 H 305.091 5.51599 0.210468 0
M  V30 3366 H 305.568 4.20082 1.28171 0
M  V30 3367 H 306.174 4.23507 -0.390142 0
M  V30 3368 N 304.489 0.459591 1.5075 0
M  V30 3369 C 305.439 -0.358926 2.25157 0
M  V30 3370 C 306.423 -0.971285 1.28276 0
M  V30 3371 O 307.615 -0.885739 1.53244 0
M  V30 3372 C 304.744 -1.44695 3.11317 0
M  V30 3373 C 303.83 -0.842894 4.15639 0
M  V30 3374 N 304.221 0.0299373 5.05791 0
M  V30 3375 C 302.519 -1.10809 4.32015 0
M  V30 3376 C 303.22 0.371563 5.80512 0
M  V30 3377 N 302.196 -0.250409 5.43023 0
M  V30 3378 H 305.998 0.313636 2.92222 0
M  V30 3379 H 303.512 0.273021 1.60089 0
M  V30 3380 H 305.509 -2.04641 3.63218 0
M  V30 3381 H 304.169 -2.12162 2.45799 0
M  V30 3382 H 305.18 0.39797 5.16369 0
M  V30 3383 H 301.857 -1.7786 3.77719 0
M  V30 3384 H 303.247 1.08319 6.63111 0
M  V30 3385 N 305.967 -1.56429 0.191757 0
M  V30 3386 C 306.897 -2.21937 -0.725696 0
M  V30 3387 C 307.878 -1.1814 -1.2238 0
M  V30 3388 O 309.063 -1.46636 -1.27325 0
M  V30 3389 C 306.193 -2.87611 -1.94672 0
M  V30 3390 C 305.147 -3.97623 -1.58366 0
M  V30 3391 C 304.473 -4.50446 -2.88102 0
M  V30 3392 C 305.773 -5.16197 -0.796133 0
M  V30 3393 H 307.467 -2.98861 -0.179606 0
M  V30 3394 H 305.013 -1.43749 -0.0849464 0
M  V30 3395 H 306.966 -3.3212 -2.59373 0
M  V30 3396 H 305.69 -2.08087 -2.51728 0
M  V30 3397 H 304.349 -3.53801 -0.960247 0
M  V30 3398 H 303.997 -3.67688 -3.43241 0
M  V30 3399 H 303.697 -5.24675 -2.64556 0
M  V30 3400 H 305.221 -4.97654 -3.53798 0
M  V30 3401 H 306.635 -5.57271 -1.34618 0
M  V30 3402 H 305.032 -5.96471 -0.658928 0
M  V30 3403 H 306.102 -4.84473 0.203478 0
M  V30 3404 N 307.445 0.0818655 -1.57387 0
M  V30 3405 C 308.392 1.09834 -2.0299 0
M  V30 3406 C 309.362 1.39043 -0.908639 0
M  V30 3407 O 310.547 1.50282 -1.17559 0
M  V30 3408 C 307.687 2.40971 -2.47037 0
M  V30 3409 C 306.8 2.18379 -3.7274 0
M  V30 3410 C 305.935 3.43008 -4.0561 0
M  V30 3411 C 304.974 3.15736 -5.24383 0
M  V30 3412 N 304.111 4.32667 -5.52941 0
M  V30 3413 H 308.951 0.702472 -2.89602 0
M  V30 3414 H 306.488 0.33531 -1.43227 0
M  V30 3415 H 308.446 3.1752 -2.70623 0
M  V30 3416 H 307.076 2.78379 -1.63417 0
M  V30 3417 H 306.128 1.32569 -3.56552 0
M  V30 3418 H 307.44 1.94227 -4.59431 0
M  V30 3419 H 306.594 4.27958 -4.30043 0
M  V30 3420 H 305.333 3.70225 -3.17466 0
M  V30 3421 H 304.338 2.2918 -4.99757 0
M  V30 3422 H 305.563 2.8985 -6.14136 0
M  V30 3423 H 303.509 4.59935 -4.67756 0
M  V30 3424 H 303.426 4.11753 -6.34031 0
M  V30 3425 H 304.694 5.18644 -5.81918 0
M  V30 3426 N 308.923 1.53595 0.353017 0
M  V30 3427 C 310.17 1.70385 1.09431 0
M  V30 3428 C 310.498 0.462113 1.88931 0
M  V30 3429 O 309.753 -0.556074 1.87633 0
M  V30 3430 C 310.052 2.91313 2.07054 0
M  V30 3431 C 309.718 4.27308 1.43939 0
M  V30 3432 C 308.38 4.64287 1.26454 0
M  V30 3433 C 310.732 5.11829 0.983883 0
M  V30 3434 C 308.06 5.83412 0.620226 0
M  V30 3435 C 310.412 6.31611 0.353516 0
M  V30 3436 C 309.076 6.67293 0.166272 0
M  V30 3437 H 308.346 0.623484 0.400436 0
M  V30 3438 H 310.993 1.87799 0.374655 0
M  V30 3439 H 309.298 2.68463 2.85368 0
M  V30 3440 H 310.995 3.01497 2.64387 0
M  V30 3441 H 307.585 3.98198 1.58543 0
M  V30 3442 H 311.769 4.838 1.10685 0
M  V30 3443 H 307.025 6.09639 0.463681 0
M  V30 3444 H 311.199 6.964 -0.00757555 0
M  V30 3445 H 308.826 7.59461 -0.335047 0
M  V30 3446 N 310.401 -0.613514 1.45168 0
M  V30 3447 C 311.648 -1.37268 1.48875 0
M  V30 3448 C 311.976 -1.94077 0.128161 0
M  V30 3449 O 311.231 -1.75178 -0.872416 0
M  V30 3450 C 311.53 -2.54347 2.51083 0
M  V30 3451 C 311.196 -2.1572 3.95949 0
M  V30 3452 C 309.858 -2.04899 4.35396 0
M  V30 3453 C 312.21 -1.85485 4.87078 0
M  V30 3454 C 309.538 -1.62057 5.63875 0
M  V30 3455 C 311.89 -1.4413 6.15962 0
M  V30 3456 C 310.554 -1.31863 6.54346 0
M  V30 3457 H 309.824 -0.502299 0.544773 0
M  V30 3458 H 312.471 -0.694021 1.78481 0
M  V30 3459 H 310.776 -3.27524 2.15024 0
M  V30 3460 H 312.473 -3.12577 2.51191 0
M  V30 3461 H 309.063 -2.25066 3.64751 0
M  V30 3462 H 313.247 -1.92745 4.57343 0
M  V30 3463 H 308.503 -1.51177 5.92415 0
M  V30 3464 H 312.677 -1.19778 6.86022 0
M  V30 3465 H 310.304 -0.984392 7.538 0
M  V30 3466 N 311.879 -1.3236 -0.855495 0
M  V30 3467 C 312.842 -1.21164 -1.94556 0
M  V30 3468 C 313.842 -0.134908 -1.60233 0
M  V30 3469 O 315.032 -0.385249 -1.69887 0
M  V30 3470 C 312.164 -0.863192 -3.29791 0
M  V30 3471 H 313.357 -2.18038 -2.05911 0
M  V30 3472 H 310.91 -1.16179 -1.04557 0
M  V30 3473 H 311.645 0.103769 -3.24134 0
M  V30 3474 H 311.43 -1.64166 -3.56078 0
M  V30 3475 H 312.92 -0.809156 -4.09686 0
M  V30 3476 N 313.357 1.07166 -1.15556 0
M  V30 3477 C 314.289 2.14341 -0.811815 0
M  V30 3478 C 315.302 1.61835 0.177015 0
M  V30 3479 O 316.491 1.78439 -0.0464996 0
M  V30 3480 C 313.591 3.38387 -0.186481 0
M  V30 3481 C 312.764 4.20238 -1.21321 0
M  V30 3482 C 311.823 5.2266 -0.609302 0
M  V30 3483 O 310.849 5.54719 -1.27576 0
M  V30 3484 N 312.051 5.77306 0.608099 0
M  V30 3485 H 314.816 2.44431 -1.73417 0
M  V30 3486 H 312.377 1.23089 -1.0517 0
M  V30 3487 H 314.369 4.04044 0.230339 0
M  V30 3488 H 312.939 3.05994 0.639249 0
M  V30 3489 H 312.159 3.50369 -1.80652 0
M  V30 3490 H 313.447 4.71736 -1.90638 0
M  V30 3491 H 312.845 5.53513 1.1679 0
M  V30 3492 H 311.402 6.44583 0.96725 0
M  V30 3493 N 314.835 0.952656 1.25548 0
M  V30 3494 C 316.251 0.656769 1.4546 0
M  V30 3495 C 316.451 -0.78633 1.85524 0
M  V30 3496 O 315.507 -1.56183 1.98402 0
M  V30 3497 C 316.82 1.62801 2.52817 0
M  V30 3498 C 318.368 1.63897 2.66659 0
M  V30 3499 C 318.843 2.5978 3.77198 0
M  V30 3500 N 320.334 2.58133 3.84606 0
M  V30 3501 C 321.069 3.29003 4.69621 0
M  V30 3502 N 320.565 4.09339 5.58939 0
M  V30 3503 N 322.358 3.179 4.63569 0
M  V30 3504 H 314.509 1.88526 0.978344 0
M  V30 3505 H 316.772 0.810815 0.491206 0
M  V30 3506 H 316.478 2.65869 2.30232 0
M  V30 3507 H 316.352 1.38898 3.50695 0
M  V30 3508 H 318.739 0.615481 2.8861 0
M  V30 3509 H 318.82 1.91858 1.69187 0
M  V30 3510 H 318.464 3.62254 3.55997 0
M  V30 3511 H 318.394 2.29105 4.7415 0
M  V30 3512 H 320.885 1.99809 3.20757 0
M  V30 3513 H 321.198 4.6034 6.20731 0
M  V30 3514 H 319.543 4.13438 5.58654 0
M  V30 3515 H 322.734 2.54612 3.92798 0
M  V30 3516 H 322.907 3.73398 5.29602 0
M  V30 3517 N 316.313 -1.40141 0.720998 0
M  V30 3518 C 317.243 -2.33339 0.0867621 0
M  V30 3519 C 318.224 -1.53178 -0.739622 0
M  V30 3520 O 319.409 -1.81625 -0.687449 0
M  V30 3521 C 316.539 -3.37194 -0.831728 0
M  V30 3522 C 315.493 -4.27857 -0.110558 0
M  V30 3523 C 314.819 -5.22294 -1.14513 0
M  V30 3524 C 316.119 -5.11872 1.0385 0
M  V30 3525 H 317.813 -2.86626 0.865219 0
M  V30 3526 H 315.359 -1.37814 0.417516 0
M  V30 3527 H 317.312 -4.01335 -1.28485 0
M  V30 3528 H 316.036 -2.82314 -1.64214 0
M  V30 3529 H 314.695 -3.65176 0.322797 0
M  V30 3530 H 314.343 -4.63717 -1.94874 0
M  V30 3531 H 314.043 -5.83797 -0.667446 0
M  V30 3532 H 315.567 -5.89312 -1.59824 0
M  V30 3533 H 316.981 -5.69436 0.664482 0
M  V30 3534 H 315.378 -5.82445 1.4449 0
M  V30 3535 H 316.448 -4.4753 1.86668 0
M  V30 3536 N 317.792 -0.46758 -1.50504 0
M  V30 3537 C 319.039 0.0886219 -2.02306 0
M  V30 3538 C 319.367 1.40037 -1.34981 0
M  V30 3539 O 318.622 1.90136 -0.463318 0
M  V30 3540 C 318.921 0.323995 -3.55928 0
M  V30 3541 C 318.587 -0.905618 -4.41712 0
M  V30 3542 C 317.249 -1.24275 -4.64875 0
M  V30 3543 C 319.601 -1.72448 -4.91845 0
M  V30 3544 C 316.929 -2.39888 -5.35417 0
M  V30 3545 C 319.281 -2.87185 -5.63656 0
M  V30 3546 C 317.945 -3.21317 -5.85074 0
M  V30 3547 H 317.215 0.0324291 -0.74029 0
M  V30 3548 H 319.862 -0.620945 -1.81153 0
M  V30 3549 H 318.167 1.11577 -3.75577 0
M  V30 3550 H 319.864 0.76826 -3.93572 0
M  V30 3551 H 316.454 -0.632956 -4.239 0
M  V30 3552 H 320.638 -1.4772 -4.73806 0
M  V30 3553 H 315.894 -2.66611 -5.50208 0
M  V30 3554 H 320.068 -3.50985 -6.01484 0
M  V30 3555 H 317.695 -4.1101 -6.39511 0
M  V30 3556 N 319.27 1.56325 -0.20005 0
M  V30 3557 C 320.218 2.20666 0.735482 0
M  V30 3558 C 321.212 1.17934 1.21605 0
M  V30 3559 O 322.418 1.36068 1.17837 0
M  V30 3560 H 318.793 0.70725 0.255542 0
M  V30 3561 H 320.764 2.9792 0.169166 0
M  V30 3562 C 319.513 2.88391 1.94232 0
M  V30 3563 H 318.836 3.67185 1.58161 0
M  V30 3564 H 320.276 3.3684 2.57517 0
M  V30 3565 C 318.735 1.89692 2.78421 0
M  V30 3566 O 319.265 1.40032 3.76502 0
M  V30 3567 N 317.471 1.57813 2.44015 0
M  V30 3568 H 317.018 1.9839 1.64314 0
M  V30 3569 H 316.976 0.920325 3.00628 0
M  V30 3570 N 320.748 -0.0735177 1.57428 0
M  V30 3571 C 321.996 -0.771472 1.86796 0
M  V30 3572 C 322.317 -1.78201 0.791804 0
M  V30 3573 O 321.587 -1.95074 -0.179718 0
M  V30 3574 H 320.167 -0.28791 0.689287 0
M  V30 3575 H 322.829 -0.0500161 1.94836 0
M  V30 3576 H 321.925 -1.28874 2.8425 0
M  V30 3577 N 322.226 -1.5378 -0.344866 0
M  V30 3578 C 323.454 -1.74899 -1.10534 0
M  V30 3579 C 323.869 -0.487534 -1.82397 0
M  V30 3580 O 323.226 0.540741 -1.74305 0
M  V30 3581 C 323.277 -2.92822 -2.11984 0
M  V30 3582 O 322.998 -4.14089 -1.43044 0
M  V30 3583 C 324.499 -3.25982 -3.00417 0
M  V30 3584 H 321.719 -0.584426 -0.329678 0
M  V30 3585 H 324.263 -2.006 -0.397474 0
M  V30 3586 H 322.418 -2.69457 -2.78338 0
M  V30 3587 H 322.832 -4.80272 -2.10805 0
M  V30 3588 H 324.306 -4.11848 -3.67539 0
M  V30 3589 H 324.783 -2.42228 -3.66363 0
M  V30 3590 H 325.389 -3.51349 -2.39654 0
M  V30 3591 N 323.704 0.605807 -1.45491 0
M  V30 3592 C 324.654 1.71074 -1.50724 0
M  V30 3593 C 325.638 1.5658 -0.37033 0
M  V30 3594 O 326.83 1.65887 -0.617299 0
M  V30 3595 C 323.959 3.0983 -1.47852 0
M  V30 3596 C 323.045 3.29704 -2.66751 0
M  V30 3597 N 323.436 3.19831 -3.91844 0
M  V30 3598 C 321.734 3.60579 -2.62486 0
M  V30 3599 C 322.435 3.41083 -4.71208 0
M  V30 3600 N 321.411 3.65157 -4.02693 0
M  V30 3601 H 325.213 1.61937 -2.45263 0
M  V30 3602 H 322.727 0.80912 -1.40808 0
M  V30 3603 H 324.724 3.89101 -1.49686 0
M  V30 3604 H 323.384 3.20115 -0.543714 0
M  V30 3605 H 324.395 2.98194 -4.23439 0
M  V30 3606 H 321.072 3.7769 -1.77922 0
M  V30 3607 H 322.462 3.38828 -5.80211 0
M  V30 3608 N 325.182 1.32811 0.848464 0
M  V30 3609 C 326.115 1.16601 1.96162 0
M  V30 3610 C 327.093 0.0638855 1.62474 0
M  V30 3611 O 328.277 0.224348 1.8716 0
M  V30 3612 C 325.404 0.786333 3.29446 0
M  V30 3613 C 324.45 1.89459 3.8211 0
M  V30 3614 S 325.283 3.50395 4.04949 0
M  V30 3615 C 326.439 3.14413 5.41198 0
M  V30 3616 H 326.672 2.10832 2.09612 0
M  V30 3617 H 324.205 1.17543 1.00115 0
M  V30 3618 H 326.163 0.574044 4.06466 0
M  V30 3619 H 324.824 -0.137218 3.138 0
M  V30 3620 H 324.017 1.58207 4.78526 0
M  V30 3621 H 323.619 2.06304 3.11953 0
M  V30 3622 H 325.911 2.64642 6.23675 0
M  V30 3623 H 326.854 4.09874 5.77416 0
M  V30 3624 H 327.262 2.51266 5.05495 0
M  V30 3625 N 326.66 -1.06551 1.16123 0
M  V30 3626 C 327.57 -2.17484 0.879662 0
M  V30 3627 C 328.586 -1.73377 -0.147104 0
M  V30 3628 O 329.762 -2.01379 0.0289128 0
M  V30 3629 C 326.827 -3.44591 0.381829 0
M  V30 3630 C 325.888 -4.0322 1.4735 0
M  V30 3631 C 325.121 -5.24261 0.999324 0
M  V30 3632 O 325.344 -5.70198 -0.151957 0
M  V30 3633 O 324.278 -5.74775 1.78653 0
M  V30 3634 H 328.104 -2.44075 1.80724 0
M  V30 3635 H 325.689 -1.16042 0.940992 0
M  V30 3636 H 327.571 -4.21254 0.111053 0
M  V30 3637 H 326.246 -3.19532 -0.51777 0
M  V30 3638 H 325.153 -3.2806 1.79798 0
M  V30 3639 H 326.486 -4.32568 2.34831 0
M  V30 3640 N 328.138 -0.959301 -1.25041 0
M  V30 3641 C 329.363 -0.633507 -1.97488 0
M  V30 3642 C 329.788 0.788555 -1.70773 0
M  V30 3643 O 329.146 1.53394 -0.966431 0
M  V30 3644 C 329.194 -0.904057 -3.49083 0
M  V30 3645 O 328.298 0.0147939 -4.12397 0
M  V30 3646 H 327.639 -0.240368 -0.618966 0
M  V30 3647 H 330.169 -1.28717 -1.59038 0
M  V30 3648 H 330.179 -0.832203 -3.99423 0
M  V30 3649 H 328.854 -1.94048 -3.67856 0
M  V30 3650 H 327.431 -0.109664 -3.72739 0
M  V30 3651 N 329.616 1.39756 -0.72842 0
M  V30 3652 C 330.548 2.29157 -0.0446202 0
M  V30 3653 C 331.561 1.46484 0.710367 0
M  V30 3654 O 332.75 1.69632 0.55562 0
M  V30 3655 C 329.85 3.24987 0.961071 0
M  V30 3656 C 329.023 4.36572 0.268967 0
M  V30 3657 C 328.082 5.12756 1.18184 0
M  V30 3658 O 327.108 5.6534 0.661794 0
M  V30 3659 N 328.31 5.23331 2.51206 0
M  V30 3660 H 331.075 2.88482 -0.812295 0
M  V30 3661 H 328.636 1.51265 -0.577098 0
M  V30 3662 H 330.628 3.72827 1.57423 0
M  V30 3663 H 329.198 2.66739 1.63 0
M  V30 3664 H 328.418 3.90694 -0.524574 0
M  V30 3665 H 329.706 5.08363 -0.210934 0
M  V30 3666 H 329.104 4.82116 2.9594 0
M  V30 3667 H 327.661 5.74634 3.07634 0
M  V30 3668 N 331.094 0.475555 1.50254 0
M  V30 3669 C 332.371 -0.139685 1.95101 0
M  V30 3670 C 332.751 -1.56555 1.41611 0
M  V30 3671 O 332.099 -2.19956 0.618993 0
M  V30 3672 C 332.309 -0.0784298 3.48912 0
M  V30 3673 C 333.657 -0.265095 4.23772 0
M  V30 3674 O 334.681 -0.154808 3.55863 0
M  V30 3675 O 333.54 -0.488327 5.44314 0
M  V30 3676 H 330.634 -0.109236 0.819754 0
M  V30 3677 H 333.18 0.536276 1.61004 0
M  V30 3678 H 331.952 0.916918 3.80405 0
M  V30 3679 H 331.575 -0.795655 3.89558 0
M  V30 3680 N 332.573 -1.56217 0.208337 0
M  V30 3681 C 333.85 -1.89739 -0.475234 0
M  V30 3682 C 334.23 -1.1238 -1.78701 0
M  V30 3683 O 333.578 -0.228979 -2.2735 0
M  V30 3684 C 333.788 -3.42289 -0.681101 0
M  V30 3685 C 335.136 -4.12789 -0.994507 0
M  V30 3686 O 336.16 -3.47814 -0.768357 0
M  V30 3687 O 335.019 -5.27649 -1.42299 0
M  V30 3688 H 332.113 -0.788478 -0.249461 0
M  V30 3689 H 334.659 -1.67855 0.249538 0
M  V30 3690 H 333.431 -3.90534 0.244722 0
M  V30 3691 H 333.054 -3.69909 -1.45785 0
M  V30 3692 N 334.051 0.0651679 -1.57465 0
M  V30 3693 C 335.298 0.763063 -1.87573 0
M  V30 3694 C 335.626 1.77242 -0.800961 0
M  V30 3695 O 334.881 1.94651 0.202316 0
M  V30 3696 C 335.18 1.50081 -3.24362 0
M  V30 3697 C 334.846 0.630816 -4.46466 0
M  V30 3698 C 333.508 0.391082 -4.79608 0
M  V30 3699 C 335.86 0.0279465 -5.21193 0
M  V30 3700 C 333.188 -0.460894 -5.84887 0
M  V30 3701 C 335.54 -0.811522 -6.27373 0
M  V30 3702 C 334.204 -1.06106 -6.59013 0
M  V30 3703 H 333.474 0.279224 -0.686378 0
M  V30 3704 H 336.121 0.0236726 -1.91485 0
M  V30 3705 H 334.426 2.31258 -3.16271 0
M  V30 3706 H 336.123 2.04571 -3.44894 0
M  V30 3707 H 332.713 0.8278 -4.2053 0
M  V30 3708 H 336.897 0.200262 -4.95896 0
M  V30 3709 H 332.153 -0.662907 -6.07796 0
M  V30 3710 H 336.327 -1.28537 -6.84435 0
M  V30 3711 H 333.954 -1.723 -7.40417 0
M  V30 3712 N 335.529 1.53961 0.336706 0
M  V30 3713 C 336.459 1.85417 1.41925 0
M  V30 3714 C 337.44 0.709856 1.5458 0
M  V30 3715 O 338.625 0.962396 1.68676 0
M  V30 3716 C 335.755 2.06985 2.78881 0
M  V30 3717 C 334.709 3.22813 2.81026 0
M  V30 3718 C 334.035 3.29727 4.20932 0
M  V30 3719 C 335.335 4.60767 2.45949 0
M  V30 3720 H 337.029 2.76079 1.15848 0
M  V30 3721 H 334.575 1.32839 0.555859 0
M  V30 3722 H 336.528 2.27575 3.54665 0
M  V30 3723 H 335.252 1.13061 3.06406 0
M  V30 3724 H 333.911 3.0209 2.07695 0
M  V30 3725 H 333.559 2.33385 4.45579 0
M  V30 3726 H 333.259 4.07566 4.23277 0
M  V30 3727 H 334.783 3.52536 4.98549 0
M  V30 3728 H 336.197 4.81325 3.11446 0
M  V30 3729 H 334.594 5.4106 2.59566 0
M  V30 3730 H 335.664 4.6391 1.41122 0
M  V30 3731 N 337.007 -0.598083 1.45811 0
M  V30 3732 C 337.937 -1.71873 1.58057 0
M  V30 3733 C 338.918 -1.64533 0.431615 0
M  V30 3734 O 340.103 -1.82787 0.65595 0
M  V30 3735 C 337.233 -3.10495 1.55597 0
M  V30 3736 C 336.187 -3.32654 2.69305 0
M  V30 3737 C 335.513 -4.71646 2.51902 0
M  V30 3738 C 336.813 -3.21981 4.11248 0
M  V30 3739 H 338.507 -1.61881 2.51863 0
M  V30 3740 H 336.053 -0.777372 1.21214 0
M  V30 3741 H 338.006 -3.88699 1.6276 0
M  V30 3742 H 336.73 -3.2135 0.583255 0
M  V30 3743 H 335.389 -2.56843 2.61586 0
M  V30 3744 H 335.037 -4.79246 1.52748 0
M  V30 3745 H 334.737 -4.87426 3.2816 0
M  V30 3746 H 336.261 -5.52038 2.60933 0
M  V30 3747 H 337.675 -3.90049 4.20161 0
M  V30 3748 H 336.072 -3.49289 4.87972 0
M  V30 3749 H 337.142 -2.1928 4.32486 0
M  V30 3750 N 338.485 -1.33259 -0.841409 0
M  V30 3751 C 339.762 -1.15174 -1.58096 0
M  V30 3752 C 340.142 0.282858 -2.09196 0
M  V30 3753 O 339.49 1.28151 -1.89181 0
M  V30 3754 C 339.7 -2.1907 -2.71679 0
M  V30 3755 C 341.048 -2.53093 -3.40924 0
M  V30 3756 O 342.072 -2.17717 -2.81918 0
M  V30 3757 O 340.931 -3.1379 -4.47435 0
M  V30 3758 H 338.025 -0.445303 -0.696875 0
M  V30 3759 H 340.571 -1.44833 -0.884385 0
M  V30 3760 H 339.343 -3.15443 -2.31541 0
M  V30 3761 H 338.966 -1.90481 -3.49002 0
M  V30 3762 N 339.963 1.05934 -1.16686 0
M  V30 3763 C 341.191 1.8249 -0.974929 0
M  V30 3764 C 341.606 1.82679 0.476861 0
M  V30 3765 O 340.963 1.2486 1.33103 0
M  V30 3766 C 341.014 3.28943 -1.49929 0
M  V30 3767 O 340.735 3.28886 -2.89423 0
M  V30 3768 C 342.236 4.22215 -1.35089 0
M  V30 3769 H 339.456 0.575295 -0.345365 0
M  V30 3770 H 342 1.33631 -1.548 0
M  V30 3771 H 340.155 3.751 -0.968423 0
M  V30 3772 H 340.569 4.20493 -3.13506 0
M  V30 3773 H 342.043 5.22987 -1.76603 0
M  V30 3774 H 342.52 4.38195 -0.296935 0
M  V30 3775 H 343.126 3.81907 -1.87155 0
M  V30 3776 N 341.441 0.965919 1.2453 0
M  V30 3777 C 342.687 0.62776 1.92839 0
M  V30 3778 C 343.02 -0.834694 1.75347 0
M  V30 3779 O 342.295 -1.60031 1.10546 0
M  V30 3780 C 342.578 1.00109 3.45905 0
M  V30 3781 C 342.431 2.52011 3.72573 0
M  V30 3782 C 343.75 0.53435 4.36844 0
M  V30 3783 H 340.869 0.229537 0.700344 0
M  V30 3784 H 343.511 1.2046 1.46933 0
M  V30 3785 H 341.661 0.510238 3.85135 0
M  V30 3786 H 343.333 3.08559 3.42912 0
M  V30 3787 H 341.576 2.95287 3.17786 0
M  V30 3788 H 342.247 2.73183 4.79661 0
M  V30 3789 H 344.723 0.955565 4.04979 0
M  V30 3790 H 343.599 0.824152 5.42678 0
M  V30 3791 H 343.86 -0.565589 4.38467 0
M  V30 3792 N 342.919 -1.39368 0.735821 0
M  V30 3793 C 343.866 -2.30599 0.0963825 0
M  V30 3794 C 344.836 -1.49257 -0.728794 0
M  V30 3795 O 346.021 -1.77941 -0.688588 0
M  V30 3796 C 343.161 -3.35596 -0.804305 0
M  V30 3797 C 342.274 -4.31987 0.0335761 0
M  V30 3798 C 341.409 -5.24053 -0.868461 0
M  V30 3799 C 340.448 -6.12095 -0.0258776 0
M  V30 3800 N 339.585 -6.96514 -0.883893 0
M  V30 3801 H 344.425 -2.8471 0.880002 0
M  V30 3802 H 341.962 -1.40188 0.445619 0
M  V30 3803 H 343.92 -3.95062 -1.34096 0
M  V30 3804 H 342.55 -2.82938 -1.55389 0
M  V30 3805 H 341.602 -3.74133 0.68766 0
M  V30 3806 H 342.914 -4.94074 0.685036 0
M  V30 3807 H 342.068 -5.88549 -1.47293 0
M  V30 3808 H 340.807 -4.62289 -1.5537 0
M  V30 3809 H 339.812 -5.4661 0.591386 0
M  V30 3810 H 341.037 -6.75923 0.656156 0
M  V30 3811 H 338.983 -6.37318 -1.55441 0
M  V30 3812 H 338.9 -7.55448 -0.288931 0
M  V30 3813 H 340.168 -7.65439 -1.4739 0
M  V30 3814 N 344.397 -0.483516 -1.5 0
M  V30 3815 C 345.307 0.309172 -2.32554 0
M  V30 3816 C 346.323 0.984159 -1.43493 0
M  V30 3817 O 347.499 0.969399 -1.76535 0
M  V30 3818 C 344.564 1.36979 -3.18493 0
M  V30 3819 C 343.625 0.710095 -4.23387 0
M  V30 3820 C 342.858 1.72018 -5.05218 0
M  V30 3821 O 343.081 2.94813 -4.88305 0
M  V30 3822 O 342.015 1.28515 -5.8802 0
M  V30 3823 H 345.841 -0.366064 -3.01486 0
M  V30 3824 H 343.426 -0.24514 -1.47375 0
M  V30 3825 H 345.308 1.98385 -3.71781 0
M  V30 3826 H 343.983 2.02828 -2.52275 0
M  V30 3827 H 342.89 0.0567539 -3.74057 0
M  V30 3828 H 344.223 0.0943557 -4.9211 0
M  V30 3829 N 345.875 1.56104 -0.216619 0
M  V30 3830 C 346.822 2.2007 0.695531 0
M  V30 3831 C 347.792 1.15471 1.19397 0
M  V30 3832 O 348.977 1.43807 1.25396 0
M  V30 3833 C 346.117 2.88073 1.90021 0
M  V30 3834 C 345.23 4.07253 1.44113 0
M  V30 3835 C 344.365 4.63052 2.603 0
M  V30 3836 C 343.404 5.74545 2.11103 0
M  V30 3837 N 342.541 6.24656 3.20545 0
M  V30 3838 H 347.381 2.97655 0.143327 0
M  V30 3839 H 344.918 1.46982 0.0589934 0
M  V30 3840 H 346.876 3.25681 2.60745 0
M  V30 3841 H 345.506 2.13015 2.42538 0
M  V30 3842 H 344.558 3.75164 0.628999 0
M  V30 3843 H 345.87 4.8783 1.04036 0
M  V30 3844 H 345.024 5.03078 3.39113 0
M  V30 3845 H 343.763 3.81628 3.03663 0
M  V30 3846 H 342.768 5.34027 1.3075 0
M  V30 3847 H 343.993 6.57801 1.68746 0
M  V30 3848 H 341.939 5.46148 3.63399 0
M  V30 3849 H 341.856 7.00343 2.84704 0
M  V30 3850 H 343.124 6.69338 3.99508 0
M  V30 3851 N 347.353 -0.0568162 1.57498 0
M  V30 3852 C 348.583 -0.764515 1.91934 0
M  V30 3853 C 348.991 -1.70877 0.81227 0
M  V30 3854 O 348.334 -1.82351 -0.222213 0
M  V30 3855 C 348.396 -1.5994 3.21962 0
M  V30 3856 C 348.06 -0.822925 4.4953 0
M  V30 3857 C 349.057 -0.135464 5.19723 0
M  V30 3858 C 346.742 -0.785666 4.96117 0
M  V30 3859 C 348.736 0.578861 6.34766 0
M  V30 3860 C 346.423 -0.0675784 6.11063 0
M  V30 3861 C 347.421 0.613471 6.80239 0
M  V30 3862 O 347.109 1.31996 7.92989 0
M  V30 3863 H 346.841 -0.221647 0.63863 0
M  V30 3864 H 349.395 -0.0268218 2.05382 0
M  V30 3865 H 347.625 -2.38026 3.04763 0
M  V30 3866 H 349.314 -2.18715 3.41934 0
M  V30 3867 H 350.08 -0.155458 4.84751 0
M  V30 3868 H 345.959 -1.30524 4.42136 0
M  V30 3869 H 349.503 1.111 6.88696 0
M  V30 3870 H 345.4 -0.0455636 6.45484 0
M  V30 3871 H 346.168 1.23077 8.09194 0
M  V30 3872 N 348.832 -1.54138 -0.328536 0
M  V30 3873 C 349.782 -1.79557 -1.4051 0
M  V30 3874 C 350.766 -0.651373 -1.47126 0
M  V30 3875 O 351.958 -0.911226 -1.51742 0
M  V30 3876 C 349.087 -2.02196 -2.77438 0
M  V30 3877 C 348.173 -3.22724 -2.75155 0
M  V30 3878 N 348.564 -4.43881 -2.42494 0
M  V30 3879 C 346.862 -3.24196 -3.06289 0
M  V30 3880 C 347.563 -5.25797 -2.48822 0
M  V30 3881 N 346.539 -4.62862 -2.8506 0
M  V30 3882 H 350.341 -2.70814 -1.1418 0
M  V30 3883 H 347.855 -1.53265 -0.536991 0
M  V30 3884 H 349.852 -2.18546 -3.55026 0
M  V30 3885 H 348.512 -1.12191 -3.04702 0
M  V30 3886 H 349.523 -4.70969 -2.15428 0
M  V30 3887 H 346.2 -2.44208 -3.38627 0
M  V30 3888 H 347.59 -6.32535 -2.26603 0
M  V30 3889 N 350.31 0.590341 -1.46126 0
M  V30 3890 C 351.726 0.912917 -1.30912 0
M  V30 3891 C 351.926 1.99616 -0.274893 0
M  V30 3892 O 350.982 2.50397 0.325197 0
M  V30 3893 C 352.295 1.3375 -2.69317 0
M  V30 3894 C 353.843 1.45077 -2.77348 0
M  V30 3895 C 354.318 1.90904 -4.16317 0
M  V30 3896 N 355.809 1.9811 -4.18696 0
M  V30 3897 C 356.544 2.34828 -5.23109 0
M  V30 3898 N 356.04 2.70393 -6.37856 0
M  V30 3899 N 357.833 2.35317 -5.10473 0
M  V30 3900 H 349.984 -0.125358 -2.1203 0
M  V30 3901 H 352.247 0.00658481 -0.947977 0
M  V30 3902 H 351.953 0.615614 -3.4627 0
M  V30 3903 H 351.827 2.30058 -2.9892 0
M  V30 3904 H 354.214 2.16353 -2.00687 0
M  V30 3905 H 354.295 0.4704 -2.51438 0
M  V30 3906 H 353.939 1.20209 -4.9347 0
M  V30 3907 H 353.869 2.89886 -4.39629 0
M  V30 3908 H 356.36 1.73146 -3.359 0
M  V30 3909 H 356.673 2.97341 -7.13308 0
M  V30 3910 H 355.018 2.68048 -6.41229 0
M  V30 3911 H 358.209 2.0695 -4.19868 0
M  V30 3912 H 358.382 2.63605 -5.9196 0
M  V30 3913 N 351.788 1.33704 0.83433 0
M  V30 3914 C 352.751 1.24244 1.92603 0
M  V30 3915 C 353.751 0.160383 1.59998 0
M  V30 3916 O 354.941 0.412228 1.69252 0
M  V30 3917 C 352.073 0.91555 3.28376 0
M  V30 3918 H 353.266 2.21287 2.02416 0
M  V30 3919 H 350.819 1.17827 1.02696 0
M  V30 3920 H 351.554 -0.0521886 3.24258 0
M  V30 3921 H 351.339 1.69811 3.53422 0
M  V30 3922 H 352.829 0.874231 4.08347 0
M  V30 3923 N 353.266 -1.05314 1.17247 0
M  V30 3924 C 354.496 -1.81707 0.983166 0
M  V30 3925 C 354.904 -1.83222 -0.471822 0
M  V30 3926 O 354.247 -1.25721 -1.3394 0
M  V30 3927 C 354.309 -3.29134 1.44606 0
M  V30 3928 C 353.973 -3.51304 2.92292 0
M  V30 3929 C 354.97 -3.4353 3.90235 0
M  V30 3930 C 352.655 -3.78306 3.30439 0
M  V30 3931 C 354.649 -3.62442 5.24323 0
M  V30 3932 C 352.336 -3.96866 4.64694 0
M  V30 3933 C 353.334 -3.88933 5.61445 0
M  V30 3934 O 353.022 -4.06976 6.93272 0
M  V30 3935 H 352.754 -0.579476 0.348114 0
M  V30 3936 H 355.308 -1.33705 1.55924 0
M  V30 3937 H 353.538 -3.78046 0.813537 0
M  V30 3938 H 355.227 -3.87049 1.22262 0
M  V30 3939 H 355.993 -3.22648 3.62109 0
M  V30 3940 H 351.872 -3.83585 2.55702 0
M  V30 3941 H 355.416 -3.56165 5.99827 0
M  V30 3942 H 351.313 -4.1724 4.92525 0
M  V30 3943 H 352.081 -4.24209 6.99992 0
M  V30 3944 N 354.744 -0.972509 -1.24016 0
M  V30 3945 C 355.654 -0.5143 -2.28893 0
M  V30 3946 C 356.67 0.427078 -1.68677 0
M  V30 3947 O 357.846 0.298939 -1.99169 0
M  V30 3948 C 354.911 0.183598 -3.46214 0
M  V30 3949 C 353.972 -0.798202 -4.21814 0
M  V30 3950 C 353.205 -0.133514 -5.33533 0
M  V30 3951 O 353.428 1.07714 -5.60137 0
M  V30 3952 O 352.362 -0.828103 -5.96176 0
M  V30 3953 H 356.188 -1.38629 -2.70214 0
M  V30 3954 H 353.773 -0.739769 -1.29799 0
M  V30 3955 H 355.655 0.575433 -4.17453 0
M  V30 3956 H 354.33 1.03048 -3.0686 0
M  V30 3957 H 353.237 -1.24059 -3.52931 0
M  V30 3958 H 354.57 -1.61364 -4.64997 0
M  V30 3959 N 356.222 1.38976 -0.743202 0
M  V30 3960 C 357.462 2.02193 -0.29954 0
M  V30 3961 C 357.826 1.5771 1.09506 0
M  V30 3962 O 359.027 2.13184 1.63726 0
M  V30 3963 C 357.298 3.55077 -0.406822 0
M  V30 3964 S 358.857 4.38778 -0.0442109 0
M  V30 3965 H 355.675 0.701335 -0.116836 0
M  V30 3966 H 358.277 1.69651 -0.971529 0
M  V30 3967 H 356.981 3.84942 -1.42295 0
M  V30 3968 H 356.512 3.92383 0.282707 0
M  V30 3969 H 358.527 4.82222 1.16947 0
M  V30 3970 N 357.7 0.491464 1.49741 0
M  V30 3971 C 358.928 -0.0535151 2.06831 0
M  V30 3972 C 359.343 -1.31683 1.35296 0
M  V30 3973 O 358.7 -1.77402 0.42836 0
M  V30 3974 C 358.751 -0.320835 3.60073 0
M  V30 3975 O 358.472 0.892394 4.28915 0
M  V30 3976 C 359.973 -0.910519 4.33848 0
M  V30 3977 H 357.193 0.0161909 0.670805 0
M  V30 3978 H 359.737 0.68609 1.92647 0
M  V30 3979 H 357.892 -1.0104 3.73991 0
M  V30 3980 H 358.306 0.649401 5.20464 0
M  V30 3981 H 359.78 -1.04721 5.41976 0
M  V30 3982 H 360.257 -1.90589 3.95692 0
M  V30 3983 H 360.863 -0.258712 4.24512 0
M  V30 3984 N 359.178 -1.55987 0.224894 0
M  V30 3985 C 360.125 -2.20436 -0.68385 0
M  V30 3986 C 361.095 -1.16102 -1.18783 0
M  V30 3987 O 362.28 -1.4447 -1.24632 0
M  V30 3988 C 359.42 -2.89076 -1.88491 0
M  V30 3989 C 358.533 -4.08012 -1.41951 0
M  V30 3990 C 357.668 -4.64426 -2.5784 0
M  V30 3991 C 356.707 -5.75656 -2.08053 0
M  V30 3992 N 355.844 -6.26347 -3.17227 0
M  V30 3993 H 360.684 -2.97727 -0.12754 0
M  V30 3994 H 358.221 -1.47011 -0.0511978 0
M  V30 3995 H 360.179 -3.27059 -2.59014 0
M  V30 3996 H 358.809 -2.14298 -2.41405 0
M  V30 3997 H 357.861 -3.75492 -0.609095 0
M  V30 3998 H 359.173 -4.88375 -1.01447 0
M  V30 3999 H 358.327 -5.04869 -3.3644 0
M  V30 4000 H 357.066 -3.83233 -3.01635 0
M  V30 4001 H 356.071 -5.34712 -1.27916 0
M  V30 4002 H 357.296 -6.58686 -1.65255 0
M  V30 4003 H 355.242 -5.48067 -3.60497 0
M  V30 4004 H 355.159 -7.01843 -2.80986 0
M  V30 4005 H 356.427 -6.71447 -3.95953 0
M  V30 4006 N 360.656 0.0484629 -1.57525 0
M  V30 4007 C 361.603 1.05504 -2.05275 0
M  V30 4008 C 362.573 1.37084 -0.937927 0
M  V30 4009 O 363.758 1.47754 -1.2072 0
M  V30 4010 C 360.898 2.35676 -2.52093 0
M  V30 4011 C 360.011 2.10423 -3.77288 0
M  V30 4012 C 359.146 3.34327 -4.12794 0
M  V30 4013 C 358.185 3.04542 -5.30962 0
M  V30 4014 N 357.322 4.20841 -5.61994 0
M  V30 4015 H 362.162 0.640885 -2.91027 0
M  V30 4016 H 359.699 0.304854 -1.43906 0
M  V30 4017 H 361.657 3.11709 -2.77297 0
M  V30 4018 H 360.287 2.7485 -1.69285 0
M  V30 4019 H 359.339 1.24976 -3.59284 0
M  V30 4020 H 360.651 1.84438 -4.63448 0
M  V30 4021 H 359.805 4.1874 -4.39024 0
M  V30 4022 H 358.544 3.63408 -3.25247 0
M  V30 4023 H 357.549 2.18528 -5.04505 0
M  V30 4024 H 358.774 2.76758 -6.20146 0
M  V30 4025 H 356.72 4.4991 -4.77406 0
M  V30 4026 H 356.637 3.98212 -6.42622 0
M  V30 4027 H 357.905 5.06184 -5.92789 0
M  V30 4028 N 362.134 1.5431 0.320358 0
M  V30 4029 C 363.383 1.7188 1.05546 0
M  V30 4030 C 363.696 0.501143 1.89071 0
M  V30 4031 O 364.902 0.558258 2.65699 0
M  V30 4032 C 363.358 3.04025 1.92605 0
M  V30 4033 C 362.966 4.33207 1.14176 0
M  V30 4034 C 364.71 3.30959 2.65832 0
M  V30 4035 C 362.617 5.56412 2.00399 0
M  V30 4036 H 361.547 0.640547 0.397763 0
M  V30 4037 H 364.198 1.80802 0.313522 0
M  V30 4038 H 362.58 2.89019 2.7071 0
M  V30 4039 H 363.754 4.58989 0.40819 0
M  V30 4040 H 362.069 4.13062 0.526165 0
M  V30 4041 H 364.666 4.20203 3.30656 0
M  V30 4042 H 365.009 2.48979 3.33639 0
M  V30 4043 H 365.542 3.46847 1.94787 0
M  V30 4044 H 362.281 6.41004 1.37094 0
M  V30 4045 H 361.801 5.34844 2.7148 0
M  V30 4046 H 363.48 5.92938 2.58908 0
M  V30 4047 N 363.613 -0.582584 1.46437 0
M  V30 4048 C 364.545 -1.70618 1.53043 0
M  V30 4049 C 365.558 -1.57322 0.418769 0
M  V30 4050 O 366.747 -1.64744 0.687136 0
M  V30 4051 C 363.847 -3.08869 1.39474 0
M  V30 4052 C 363.02 -3.48166 2.64762 0
M  V30 4053 C 362.079 -4.65478 2.4539 0
M  V30 4054 O 361.105 -4.71333 3.19114 0
M  V30 4055 N 362.307 -5.60365 1.51564 0
M  V30 4056 H 365.072 -1.65405 2.49923 0
M  V30 4057 H 362.633 -0.768567 1.42494 0
M  V30 4058 H 364.625 -3.85143 1.24287 0
M  V30 4059 H 363.195 -3.08449 0.507758 0
M  V30 4060 H 362.415 -2.61598 2.9489 0
M  V30 4061 H 363.703 -3.71188 3.4799 0
M  V30 4062 H 363.101 -5.5837 0.907705 0
M  V30 4063 H 361.658 -6.36068 1.4234 0
M  V30 4064 N 365.091 -1.34144 -0.827227 0
M  V30 4065 C 366.319 -1.29325 -1.61501 0
M  V30 4066 C 366.734 0.13354 -1.88327 0
M  V30 4067 O 366.091 1.0793 -1.47164 0
M  V30 4068 C 366.142 -2.07746 -2.95844 0
M  V30 4069 O 365.863 -3.4486 -2.70191 0
M  V30 4070 C 367.364 -2.10273 -3.90256 0
M  V30 4071 H 364.584 -0.445069 -0.50215 0
M  V30 4072 H 367.128 -1.76693 -1.02955 0
M  V30 4073 H 365.283 -1.6403 -3.5096 0
M  V30 4074 H 365.697 -3.85345 -3.55822 0
M  V30 4075 H 367.171 -2.69575 -4.81698 0
M  V30 4076 H 367.648 -1.096 -4.25305 0
M  V30 4077 H 368.254 -2.54059 -3.41078 0
M  V30 4078 N 366.569 1.04691 -1.17803 0
M  V30 4079 C 367.799 1.81183 -0.992788 0
M  V30 4080 C 368.207 1.8347 0.462098 0
M  V30 4081 O 367.55 1.2643 1.33271 0
M  V30 4082 C 367.612 3.28363 -1.46349 0
M  V30 4083 C 367.276 3.49749 -2.94151 0
M  V30 4084 C 368.273 3.41456 -3.92051 0
M  V30 4085 C 365.958 3.76548 -3.32441 0
M  V30 4086 C 367.952 3.59656 -5.26238 0
M  V30 4087 C 365.639 3.94396 -4.66792 0
M  V30 4088 C 366.637 3.8595 -5.635 0
M  V30 4089 O 366.325 4.03294 -6.9542 0
M  V30 4090 H 366.057 0.577622 -0.351182 0
M  V30 4091 H 368.611 1.32876 -1.5663 0
M  V30 4092 H 366.841 3.77609 -0.833574 0
M  V30 4093 H 368.53 3.86395 -1.24313 0
M  V30 4094 H 369.296 3.20723 -3.63815 0
M  V30 4095 H 365.175 3.82224 -2.57732 0
M  V30 4096 H 368.719 3.52979 -6.01707 0
M  V30 4097 H 364.616 4.14622 -4.94731 0
M  V30 4098 H 365.384 4.2049 -7.02232 0
M  V30 4099 N 368.047 0.979072 1.23499 0
M  V30 4100 C 369.296 0.642751 1.91185 0
M  V30 4101 C 369.609 -0.827253 1.77245 0
M  V30 4102 O 370.815 -1.27458 2.39722 0
M  V30 4103 C 369.271 1.09901 3.42709 0
M  V30 4104 C 368.879 2.59327 3.65313 0
M  V30 4105 C 370.623 0.836371 4.16179 0
M  V30 4106 C 368.53 2.98627 5.10467 0
M  V30 4107 H 367.46 0.236698 0.715884 0
M  V30 4108 H 370.111 1.1868 1.39955 0
M  V30 4109 H 368.493 0.48319 3.93041 0
M  V30 4110 H 369.667 3.26136 3.25533 0
M  V30 4111 H 367.982 2.83323 3.05151 0
M  V30 4112 H 370.579 1.10586 5.23139 0
M  V30 4113 H 370.922 -0.227509 4.15678 0
M  V30 4114 H 371.455 1.41371 3.71832 0
M  V30 4115 H 368.194 4.04133 5.16098 0
M  V30 4116 H 367.714 2.3651 5.51201 0
M  V30 4117 H 369.393 2.89159 5.78788 0
M  V30 4118 N 369.525 -1.3858 0.750561 0
M  V30 4119 C 370.435 -2.34278 0.122825 0
M  V30 4120 C 371.451 -1.59116 -0.704131 0
M  V30 4121 O 372.627 -1.91326 -0.628987 0
M  V30 4122 C 369.692 -3.38221 -0.762086 0
M  V30 4123 C 368.753 -4.29227 0.078896 0
M  V30 4124 C 367.986 -5.28205 -0.763874 0
M  V30 4125 O 368.209 -5.34112 -2.00201 0
M  V30 4126 O 367.143 -6.01618 -0.18428 0
M  V30 4127 H 370.969 -2.89649 0.913088 0
M  V30 4128 H 368.554 -1.40374 0.511417 0
M  V30 4129 H 370.436 -4.01872 -1.26793 0
M  V30 4130 H 369.111 -2.85211 -1.5309 0
M  V30 4131 H 368.018 -3.68747 0.630621 0
M  V30 4132 H 369.351 -4.85484 0.810289 0
M  V30 4133 N 371.003 -0.499398 -1.49478 0
M  V30 4134 C 372.419 -0.155261 -1.58843 0
M  V30 4135 C 372.619 1.34008 -1.50479 0
M  V30 4136 O 371.675 2.11589 -1.37791 0
M  V30 4137 C 372.988 -0.730636 -2.91689 0
M  V30 4138 C 374.536 -0.696599 -3.0515 0
M  V30 4139 C 375.011 -1.25001 -4.40612 0
M  V30 4140 N 376.502 -1.21064 -4.47099 0
M  V30 4141 C 377.237 -1.60905 -5.50361 0
M  V30 4142 N 376.733 -2.08331 -6.60735 0
M  V30 4143 N 378.526 -1.52331 -5.41065 0
M  V30 4144 H 370.677 -1.47162 -1.53158 0
M  V30 4145 H 372.94 -0.610309 -0.725415 0
M  V30 4146 H 372.646 -1.77928 -3.03372 0
M  V30 4147 H 372.52 -0.190161 -3.7672 0
M  V30 4148 H 374.907 0.343204 -2.93097 0
M  V30 4149 H 374.988 -1.2742 -2.21806 0
M  V30 4150 H 374.632 -2.28859 -4.53416 0
M  V30 4151 H 374.562 -0.64836 -5.22593 0
M  V30 4152 H 377.053 -0.863128 -3.67911 0
M  V30 4153 H 377.366 -2.36805 -7.35624 0
M  V30 4154 H 375.711 -2.12304 -6.6178 0
M  V30 4155 H 378.902 -1.151 -4.53729 0
M  V30 4156 H 379.075 -1.83704 -6.21415 0
M  V30 4157 N 372.481 1.55866 -0.233164 0
M  V30 4158 C 373.391 2.24431 0.683217 0
M  V30 4159 C 374.407 1.2558 1.2044 0
M  V30 4160 O 375.583 1.58422 1.24356 0
M  V30 4161 C 372.648 2.91979 1.86947 0
M  V30 4162 C 371.709 4.06204 1.38912 0
M  V30 4163 C 370.942 4.70522 2.51883 0
M  V30 4164 O 371.165 4.33865 3.70293 0
M  V30 4165 O 370.099 5.59296 2.22423 0
M  V30 4166 H 373.925 3.03426 0.129059 0
M  V30 4167 H 371.51 1.494 -0.0022283 0
M  V30 4168 H 373.392 3.34573 2.56201 0
M  V30 4169 H 372.067 2.15935 2.41151 0
M  V30 4170 H 370.974 3.68155 0.664259 0
M  V30 4171 H 372.307 4.84025 0.893328 0
M  V30 4172 N 373.959 -0.0401083 1.57549 0
M  V30 4173 C 375.189 -0.744115 1.92734 0
M  V30 4174 C 375.597 -1.70005 0.830348 0
M  V30 4175 O 374.94 -1.82576 -0.20286 0
M  V30 4176 C 375.002 -1.56516 3.2364 0
M  V30 4177 C 374.666 -0.7752 4.50377 0
M  V30 4178 C 375.663 -0.0803326 5.19838 0
M  V30 4179 C 373.348 -0.733002 4.96923 0
M  V30 4180 C 375.342 0.646154 6.34116 0
M  V30 4181 C 373.029 -0.00276321 6.111 0
M  V30 4182 C 374.027 0.685585 6.7955 0
M  V30 4183 O 373.715 1.40399 7.91545 0
M  V30 4184 H 373.447 -0.214861 0.640945 0
M  V30 4185 H 376.001 -0.00503675 2.05399 0
M  V30 4186 H 374.231 -2.3478 3.07271 0
M  V30 4187 H 375.92 -2.15076 3.44234 0
M  V30 4188 H 376.686 -0.104035 4.84888 0
M  V30 4189 H 372.565 -1.25827 4.43496 0
M  V30 4190 H 376.109 1.18398 6.87479 0
M  V30 4191 H 372.006 0.0229012 6.45496 0
M  V30 4192 H 372.774 1.31653 8.07843 0
M  V30 4193 N 375.437 -1.54477 -0.31217 0
M  V30 4194 C 376.347 -1.87695 -1.4074 0
M  V30 4195 C 377.363 -0.769975 -1.56036 0
M  V30 4196 O 378.539 -1.06537 -1.70915 0
M  V30 4197 C 375.604 -2.10755 -2.75287 0
M  V30 4198 C 374.665 -3.34514 -2.69071 0
M  V30 4199 C 373.898 -3.56465 -3.97201 0
M  V30 4200 O 374.121 -2.81637 -4.96021 0
M  V30 4201 O 373.055 -4.49964 -3.9977 0
M  V30 4202 H 376.881 -2.80849 -1.15574 0
M  V30 4203 H 374.466 -1.40526 -0.507228 0
M  V30 4204 H 376.348 -2.27188 -3.54913 0
M  V30 4205 H 375.023 -1.20788 -3.0032 0
M  V30 4206 H 373.93 -3.23456 -1.87955 0
M  V30 4207 H 375.263 -4.24575 -2.48992 0
M  V30 4208 N 376.915 0.57481 -1.46744 0
M  V30 4209 C 377.865 1.67838 -1.54319 0
M  V30 4210 C 378.849 1.55759 -0.40346 0
M  V30 4211 O 380.041 1.6454 -0.652347 0
M  V30 4212 C 377.17 3.06624 -1.5439 0
M  V30 4213 C 376.256 3.23971 -2.73685 0
M  V30 4214 N 376.647 3.11447 -3.9854 0
M  V30 4215 C 374.945 3.5493 -2.70075 0
M  V30 4216 C 375.646 3.31011 -4.78337 0
M  V30 4217 N 374.622 3.56533 -4.10348 0
M  V30 4218 H 378.424 1.56698 -2.48642 0
M  V30 4219 H 375.938 0.779071 -1.42493 0
M  V30 4220 H 377.935 3.85839 -1.57905 0
M  V30 4221 H 376.595 3.1889 -0.611493 0
M  V30 4222 H 377.606 2.89145 -4.29669 0
M  V30 4223 H 374.283 3.73832 -1.85893 0
M  V30 4224 H 375.673 3.26445 -5.87268 0
M  V30 4225 N 378.394 1.34581 0.820102 0
M  V30 4226 C 379.341 1.2639 1.93117 0
M  V30 4227 C 380.311 0.138554 1.65521 0
M  V30 4228 O 381.496 0.320004 1.88097 0
M  V30 4229 C 378.636 1.02812 3.29429 0
M  V30 4230 C 377.749 2.24146 3.693 0
M  V30 4231 C 376.884 1.93829 4.94574 0
M  V30 4232 C 375.923 3.1129 5.27034 0
M  V30 4233 N 375.06 2.80838 6.43486 0
M  V30 4234 H 379.9 2.21408 1.99455 0
M  V30 4235 H 377.437 1.10077 0.975784 0
M  V30 4236 H 379.395 0.871788 4.0799 0
M  V30 4237 H 378.025 0.114612 3.22596 0
M  V30 4238 H 377.077 2.50691 2.86109 0
M  V30 4239 H 378.389 3.11899 3.89257 0
M  V30 4240 H 377.543 1.74948 5.80929 0
M  V30 4241 H 376.282 1.03341 4.76626 0
M  V30 4242 H 375.287 3.30764 4.39175 0
M  V30 4243 H 376.512 4.02561 5.4692 0
M  V30 4244 H 374.458 1.92929 6.26988 0
M  V30 4245 H 374.375 3.62123 6.63629 0
M  V30 4246 H 375.643 2.65467 7.32903 0
M  V30 4247 N 379.872 -1.04064 1.18357 0
M  V30 4248 C 380.802 -2.14001 0.934113 0
M  V30 4249 C 381.783 -1.69616 -0.128186 0
M  V30 4250 O 382.968 -1.94185 0.0244093 0
M  V30 4251 C 380.098 -3.44253 0.459066 0
M  V30 4252 C 379.052 -4.02261 1.46185 0
M  V30 4253 C 378.378 -5.27992 0.844322 0
M  V30 4254 C 379.678 -4.38432 2.83856 0
M  V30 4255 H 381.372 -2.35127 1.85352 0
M  V30 4256 H 378.918 -1.12998 0.892604 0
M  V30 4257 H 380.871 -4.20522 0.271907 0
M  V30 4258 H 379.595 -3.22813 -0.495912 0
M  V30 4259 H 378.254 -3.28074 1.63595 0
M  V30 4260 H 377.902 -5.02862 -0.117845 0
M  V30 4261 H 377.602 -5.67765 1.51384 0
M  V30 4262 H 379.126 -6.06938 0.667693 0
M  V30 4263 H 380.54 -5.05688 2.70098 0
M  V30 4264 H 378.937 -4.89254 3.47491 0
M  V30 4265 H 380.007 -3.4826 3.37406 0
M  V30 4266 N 381.35 -0.985608 -1.22978 0
M  V30 4267 C 382.578 -0.675582 -1.95559 0
M  V30 4268 C 382.993 0.758413 -1.72897 0
M  V30 4269 O 382.35 1.51094 -1.02357 0
M  V30 4270 C 382.401 -0.96293 -3.48439 0
M  V30 4271 O 382.122 -2.34057 -3.70336 0
M  V30 4272 C 383.623 -0.669585 -4.38214 0
M  V30 4273 H 380.843 -0.250523 -0.622478 0
M  V30 4274 H 383.387 -1.3184 -1.56328 0
M  V30 4275 H 381.542 -0.366033 -3.85667 0
M  V30 4276 H 381.956 -2.43424 -4.64591 0
M  V30 4277 H 383.43 -0.920967 -5.44263 0
M  V30 4278 H 383.907 0.396383 -4.37408 0
M  V30 4279 H 384.513 -1.2472 -4.06602 0
M  V30 4280 N 382.828 1.3818 -0.7579 0
M  V30 4281 C 384.053 2.04827 -0.325679 0
M  V30 4282 C 384.478 1.56788 1.03919 0
M  V30 4283 O 383.836 0.721811 1.66312 0
M  V30 4284 C 383.884 3.58774 -0.362447 0
M  V30 4285 O 382.988 4.07372 0.642033 0
M  V30 4286 H 382.329 0.64833 -0.143402 0
M  V30 4287 H 384.859 1.7677 -1.03023 0
M  V30 4288 H 384.869 4.07434 -0.214844 0
M  V30 4289 H 383.544 3.93096 -1.35824 0
M  V30 4290 H 382.121 3.70068 0.458688 0
M  V30 4291 N 384.306 0.507319 1.49211 0
M  V30 4292 C 385.583 -0.0982702 1.95353 0
M  V30 4293 C 385.963 -1.53516 1.449 0
M  V30 4294 O 385.311 -2.18594 0.66551 0
M  V30 4295 C 385.521 -0.00440283 3.49 0
M  V30 4296 C 386.869 -0.175147 4.24239 0
M  V30 4297 O 387.893 -0.0792891 3.56112 0
M  V30 4298 O 386.752 -0.37276 5.45227 0
M  V30 4299 H 383.846 -0.0918236 0.821887 0
M  V30 4300 H 386.392 0.570307 1.5983 0
M  V30 4301 H 385.164 0.997402 3.78375 0
M  V30 4302 H 384.787 -0.712845 3.91158 0
M  V30 4303 N 385.784 -1.5574 0.241426 0
M  V30 4304 C 386.694 -2.2479 -0.671305 0
M  V30 4305 C 387.71 -1.26217 -1.19772 0
M  V30 4306 O 388.886 -1.59079 -1.23514 0
M  V30 4307 C 385.951 -2.92966 -1.85396 0
M  V30 4308 C 385.012 -4.06935 -1.36756 0
M  V30 4309 C 384.245 -4.71851 -2.49384 0
M  V30 4310 O 384.468 -4.35823 -3.67987 0
M  V30 4311 O 383.402 -5.60467 -2.19454 0
M  V30 4312 H 387.228 -3.0349 -0.112966 0
M  V30 4313 H 384.813 -1.49397 0.0101513 0
M  V30 4314 H 386.695 -3.35927 -2.54423 0
M  V30 4315 H 385.37 -2.17211 -2.40002 0
M  V30 4316 H 384.277 -3.68503 -0.644726 0
M  V30 4317 H 385.61 -4.84492 -0.867647 0
M  V30 4318 N 387.262 0.0317525 -1.57568 0
M  V30 4319 C 388.192 1.03274 -2.0942 0
M  V30 4320 C 389.173 1.3788 -0.996143 0
M  V30 4321 O 390.358 1.46811 -1.27122 0
M  V30 4322 C 387.488 2.33448 -2.57137 0
M  V30 4323 C 386.442 2.13091 -3.71182 0
M  V30 4324 C 385.768 3.49001 -4.05095 0
M  V30 4325 C 387.068 1.51928 -4.99715 0
M  V30 4326 H 388.762 0.60112 -2.93303 0
M  V30 4327 H 386.308 0.287705 -1.41097 0
M  V30 4328 H 388.261 3.03802 -2.92032 0
M  V30 4329 H 386.985 2.78665 -1.70333 0
M  V30 4330 H 385.644 1.45171 -3.36632 0
M  V30 4331 H 385.292 3.91862 -3.15362 0
M  V30 4332 H 384.992 3.36207 -4.81911 0
M  V30 4333 H 386.516 4.20721 -4.42522 0
M  V30 4334 H 387.93 2.12196 -5.32584 0
M  V30 4335 H 386.327 1.49716 -5.81124 0
M  V30 4336 H 387.397 0.484811 -4.8247 0
M  V30 4337 N 388.74 1.54641 0.303973 0
M  V30 4338 C 389.67 1.88386 1.3796 0
M  V30 4339 C 390.651 0.742485 1.5304 0
M  V30 4340 O 391.836 0.997959 1.66597 0
M  V30 4341 C 388.966 2.12854 2.74427 0
M  V30 4342 C 387.92 3.28702 2.74115 0
M  V30 4343 C 387.246 3.38582 4.13844 0
M  V30 4344 C 388.546 4.65881 2.3612 0
M  V30 4345 H 390.24 2.78474 1.09966 0
M  V30 4346 H 387.786 1.33988 0.527556 0
M  V30 4347 H 389.739 2.35047 3.49758 0
M  V30 4348 H 388.463 1.19535 3.03939 0
M  V30 4349 H 387.122 3.06428 2.0124 0
M  V30 4350 H 386.77 2.42784 4.40528 0
M  V30 4351 H 386.47 4.16453 4.14537 0
M  V30 4352 H 387.994 3.63031 4.90959 0
M  V30 4353 H 389.408 4.87823 3.01167 0
M  V30 4354 H 387.805 5.46444 2.48031 0
M  V30 4355 H 388.875 4.66799 1.3125 0
M  V30 4356 N 390.218 -0.567019 1.47046 0
M  V30 4357 C 391.448 -1.34831 1.56538 0
M  V30 4358 C 391.856 -1.8802 0.21101 0
M  V30 4359 O 391.199 -1.65152 -0.804387 0
M  V30 4360 C 391.261 -2.56139 2.52256 0
M  V30 4361 C 390.925 -2.24307 3.98165 0
M  V30 4362 C 391.922 -1.82192 4.86931 0
M  V30 4363 C 389.607 -2.35968 4.43423 0
M  V30 4364 C 391.601 -1.52153 6.18973 0
M  V30 4365 C 389.288 -2.05542 5.75496 0
M  V30 4366 C 390.286 -1.63701 6.63092 0
M  V30 4367 O 389.974 -1.33657 7.92711 0
M  V30 4368 H 389.706 -0.417683 0.531523 0
M  V30 4369 H 392.26 -0.694726 1.93294 0
M  V30 4370 H 390.49 -3.24356 2.10548 0
M  V30 4371 H 392.179 -3.18214 2.51982 0
M  V30 4372 H 392.945 -1.72684 4.53217 0
M  V30 4373 H 388.824 -2.67495 3.75456 0
M  V30 4374 H 392.368 -1.19421 6.87302 0
M  V30 4375 H 388.265 -2.14679 6.08755 0
M  V30 4376 H 389.033 -1.4737 8.05124 0
M  V30 4377 N 391.696 -1.35014 -0.812953 0
M  V30 4378 C 392.626 -1.30069 -1.93919 0
M  V30 4379 C 393.607 -0.176275 -1.69184 0
M  V30 4380 O 394.792 -0.370227 -1.90638 0
M  V30 4381 C 391.922 -1.06547 -3.30552 0
M  V30 4382 C 390.876 -2.15561 -3.69753 0
M  V30 4383 C 390.202 -1.77214 -5.04479 0
M  V30 4384 C 391.502 -3.57476 -3.808 0
M  V30 4385 H 393.196 -2.24303 -1.98314 0
M  V30 4386 H 390.742 -1.07977 -0.952736 0
M  V30 4387 H 392.695 -1.01729 -4.08937 0
M  V30 4388 H 391.419 -0.0875719 -3.26483 0
M  V30 4389 H 390.078 -2.19466 -2.9365 0
M  V30 4390 H 389.726 -0.780589 -4.96906 0
M  V30 4391 H 389.426 -2.50184 -5.31678 0
M  V30 4392 H 390.95 -1.7391 -5.8531 0
M  V30 4393 H 392.364 -3.55929 -4.4943 0
M  V30 4394 H 390.761 -4.29152 -4.19462 0
M  V30 4395 H 391.831 -3.94091 -2.82525 0
M  V30 4396 N 393.175 1.03435 -1.18907 0
M  V30 4397 C 394.403 1.80381 -1.01342 0
M  V30 4398 C 394.818 1.83649 0.438005 0
M  V30 4399 O 394.175 1.27655 1.30424 0
M  V30 4400 C 394.226 3.25689 -1.56873 0
M  V30 4401 O 393.947 3.22673 -2.96334 0
M  V30 4402 C 395.448 4.19255 -1.44014 0
M  V30 4403 H 392.668 0.56784 -0.35749 0
M  V30 4404 H 395.212 1.30317 -1.576 0
M  V30 4405 H 393.367 3.72962 -1.04777 0
M  V30 4406 H 393.781 4.13748 -3.22355 0
M  V30 4407 H 395.255 5.19123 -1.87657 0
M  V30 4408 H 395.732 4.37467 -0.389815 0
M  V30 4409 H 396.338 3.77851 -1.95214 0
M  V30 4410 N 394.653 0.992116 1.22453 0
M  V30 4411 C 395.902 0.662992 1.90492 0
M  V30 4412 C 396.215 -0.808407 1.78113 0
M  V30 4413 O 397.421 -1.24908 2.41061 0
M  V30 4414 C 395.877 1.1353 3.41524 0
M  V30 4415 C 395.485 2.63187 3.62542 0
M  V30 4416 C 397.229 0.880465 4.15269 0
M  V30 4417 C 395.136 3.04024 5.0727 0
M  V30 4418 H 394.066 0.244278 0.713333 0
M  V30 4419 H 396.717 1.20157 1.38688 0
M  V30 4420 H 395.099 0.52485 3.92506 0
M  V30 4421 H 396.273 3.2957 3.22056 0
M  V30 4422 H 394.588 2.86543 3.02129 0
M  V30 4423 H 397.185 1.16128 5.21937 0
M  V30 4424 H 397.528 -0.183408 4.15896 0
M  V30 4425 H 398.061 1.45307 3.70312 0
M  V30 4426 H 394.8 4.09584 5.11782 0
M  V30 4427 H 394.32 2.42343 5.48662 0
M  V30 4428 H 395.999 2.95282 5.75689 0
M  V30 4429 N 396.131 -1.37776 0.765217 0
M  V30 4430 C 397.081 -2.2768 0.12075 0
M  V30 4431 C 398.065 -1.45778 -0.680988 0
M  V30 4432 O 399.257 -1.684 -0.545033 0
M  V30 4433 C 396.386 -3.34722 -0.762626 0
M  V30 4434 C 395.472 -4.24074 0.0465881 0
M  V30 4435 N 395.863 -4.93939 1.08892 0
M  V30 4436 C 394.161 -4.45643 -0.178418 0
M  V30 4437 C 394.862 -5.59845 1.57951 0
M  V30 4438 N 393.838 -5.36218 0.892797 0
M  V30 4439 H 397.64 -2.79166 0.918889 0
M  V30 4440 H 395.154 -1.50816 0.602353 0
M  V30 4441 H 397.151 -3.98031 -1.24005 0
M  V30 4442 H 395.811 -2.84793 -1.55959 0
M  V30 4443 H 396.822 -4.96572 1.47095 0
M  V30 4444 H 393.499 -4.06599 -0.9478 0
M  V30 4445 H 394.889 -6.25703 2.44838 0
M  V30 4446 N 397.609 -0.515225 -1.4894 0
M  V30 4447 C 398.858 0.0261361 -2.01683 0
M  V30 4448 C 399.171 1.36719 -1.39883 0
M  V30 4449 O 400.377 1.99606 -1.84037 0
M  V30 4450 C 398.833 0.0970111 -3.59769 0
M  V30 4451 C 398.441 -1.23825 -4.30548 0
M  V30 4452 C 400.185 0.587981 -4.20408 0
M  V30 4453 C 398.092 -1.12877 -5.80528 0
M  V30 4454 H 397.022 0.0135398 -0.753878 0
M  V30 4455 H 399.673 -0.656787 -1.71343 0
M  V30 4456 H 398.055 0.844694 -3.86886 0
M  V30 4457 H 399.229 -2.00034 -4.15118 0
M  V30 4458 H 397.544 -1.66379 -3.81716 0
M  V30 4459 H 400.141 0.68763 -5.3026 0
M  V30 4460 H 400.484 1.59026 -3.84729 0
M  V30 4461 H 401.017 -0.103582 -3.97665 0
M  V30 4462 H 397.756 -2.10575 -6.20756 0
M  V30 4463 H 397.276 -0.407799 -5.98412 0
M  V30 4464 H 398.955 -0.813332 -6.41868 0
M  V30 4465 N 399.087 1.5561 -0.249682 0
M  V30 4466 C 399.997 2.25143 0.659375 0
M  V30 4467 C 401.013 1.2685 1.19101 0
M  V30 4468 O 402.189 1.59732 1.22669 0
M  V30 4469 C 399.254 2.93945 1.8384 0
M  V30 4470 C 398.315 4.07655 1.34596 0
M  V30 4471 C 397.548 4.73167 2.46878 0
M  V30 4472 O 397.771 4.37768 3.65671 0
M  V30 4473 O 396.705 5.61623 2.16478 0
M  V30 4474 H 400.531 3.03545 0.0968698 0
M  V30 4475 H 398.116 1.49389 -0.018074 0
M  V30 4476 H 399.998 3.37271 2.52638 0
M  V30 4477 H 398.673 2.18481 2.38847 0
M  V30 4478 H 397.58 3.68839 0.625174 0
M  V30 4479 H 398.913 4.84946 0.841941 0
M  V30 4480 N 400.565 -0.0233959 1.57583 0
M  V30 4481 C 401.981 -0.379134 1.55031 0
M  V30 4482 C 402.181 -1.76255 0.976548 0
M  V30 4483 O 401.237 -2.45266 0.600078 0
M  V30 4484 C 402.55 -0.275792 2.99433 0
M  V30 4485 C 404.098 -0.352458 3.11009 0
M  V30 4486 C 404.573 -0.278501 4.57152 0
M  V30 4487 N 406.064 -0.337123 4.61972 0
M  V30 4488 C 406.799 -0.302876 5.726 0
M  V30 4489 N 406.295 -0.220589 6.92449 0
M  V30 4490 N 408.088 -0.353023 5.6099 0
M  V30 4491 H 400.239 0.881869 1.93227 0
M  V30 4492 H 402.502 0.335867 0.886509 0
M  V30 4493 H 402.208 0.675108 3.4516 0
M  V30 4494 H 402.082 -1.06721 3.61788 0
M  V30 4495 H 404.469 -1.29379 2.65226 0
M  V30 4496 H 404.55 0.468409 2.51475 0
M  V30 4497 H 404.194 0.659189 5.03604 0
M  V30 4498 H 404.124 -1.11755 5.14605 0
M  V30 4499 H 406.615 -0.403002 3.75745 0
M  V30 4500 H 406.928 -0.199713 7.72542 0
M  V30 4501 H 405.273 -0.186555 6.9475 0
M  V30 4502 H 408.464 -0.415339 4.66254 0
M  V30 4503 H 408.637 -0.322866 6.47195 0
M  V30 4504 N 402.043 -1.548 -0.295768 0
M  V30 4505 C 403.289 -1.74588 -1.03184 0
M  V30 4506 C 403.622 -0.532962 -1.86744 0
M  V30 4507 O 402.897 0.469872 -1.88739 0
M  V30 4508 C 403.18 -3.03791 -1.93347 0
M  V30 4509 C 403.033 -4.35392 -1.12933 0
M  V30 4510 C 404.352 -3.28892 -2.92435 0
M  V30 4511 H 401.471 -0.635221 -0.373715 0
M  V30 4512 H 404.113 -1.87519 -0.30606 0
M  V30 4513 H 402.263 -2.92898 -2.55232 0
M  V30 4514 H 403.935 -4.58211 -0.532943 0
M  V30 4515 H 402.178 -4.31642 -0.432168 0
M  V30 4516 H 402.849 -5.22074 -1.79284 0
M  V30 4517 H 405.325 -3.39429 -2.4068 0
M  V30 4518 H 404.201 -4.20603 -3.52682 0
M  V30 4519 H 404.462 -2.47437 -3.6637 0
M  V30 4520 N 403.521 0.559213 -1.47345 0
M  V30 4521 C 404.767 1.31843 -1.54095 0
M  V30 4522 C 405.1 1.93149 -0.201726 0
M  V30 4523 O 404.375 1.77759 0.789428 0
M  V30 4524 C 404.658 2.43006 -2.65744 0
M  V30 4525 C 404.511 1.86581 -4.09277 0
M  V30 4526 C 405.83 3.44943 -2.73318 0
M  V30 4527 H 402.949 0.478012 -0.560957 0
M  V30 4528 H 405.591 0.625977 -1.79392 0
M  V30 4529 H 403.741 3.02072 -2.44305 0
M  V30 4530 H 405.413 1.31792 -4.42073 0
M  V30 4531 H 403.656 1.17268 -4.17649 0
M  V30 4532 H 404.327 2.66933 -4.83168 0
M  V30 4533 H 406.803 2.95793 -2.92653 0
M  V30 4534 H 405.679 4.20153 -3.53218 0
M  V30 4535 H 405.94 4.03665 -1.80296 0
M  V30 4536 N 404.999 1.35443 0.805782 0
M  V30 4537 C 405.946 1.28431 1.91766 0
M  V30 4538 C 406.916 0.156102 1.65365 0
M  V30 4539 O 408.101 0.339936 1.87747 0
M  V30 4540 C 405.241 1.06301 3.2832 0
M  V30 4541 C 404.354 2.2805 3.66902 0
M  V30 4542 C 403.489 1.99064 4.92491 0
M  V30 4543 C 402.528 3.16863 5.23703 0
M  V30 4544 N 401.665 2.87647 6.40471 0
M  V30 4545 H 406.505 2.23511 1.97096 0
M  V30 4546 H 404.042 1.11105 0.964054 0
M  V30 4547 H 406 0.915012 4.07042 0
M  V30 4548 H 404.63 0.148822 3.22457 0
M  V30 4549 H 403.682 2.53711 2.83434 0
M  V30 4550 H 404.994 3.1601 3.85927 0
M  V30 4551 H 404.148 1.81099 5.7904 0
M  V30 4552 H 402.887 1.0839 4.75503 0
M  V30 4553 H 401.892 3.35404 4.35642 0
M  V30 4554 H 403.117 4.08339 5.4262 0
M  V30 4555 H 401.063 1.99568 6.24907 0
M  V30 4556 H 400.98 3.69141 6.59751 0
M  V30 4557 H 402.248 2.73226 7.30047 0
M  V30 4558 N 406.477 -1.02803 1.19454 0
M  V30 4559 C 407.409 -2.11181 0.890807 0
M  V30 4560 C 408.422 -1.6238 -0.116829 0
M  V30 4561 O 409.611 -1.78144 0.112694 0
M  V30 4562 C 406.711 -3.37461 0.311942 0
M  V30 4563 C 405.884 -4.15446 1.36834 0
M  V30 4564 C 404.943 -5.20039 0.802864 0
M  V30 4565 O 403.969 -5.49602 1.48077 0
M  V30 4566 N 405.171 -5.79165 -0.393417 0
M  V30 4567 H 407.936 -2.37827 1.82369 0
M  V30 4568 H 405.497 -1.19101 1.09666 0
M  V30 4569 H 407.489 -4.0462 -0.0802225 0
M  V30 4570 H 406.059 -3.08156 -0.52524 0
M  V30 4571 H 405.279 -3.43423 1.93531 0
M  V30 4572 H 406.567 -4.64335 2.08015 0
M  V30 4573 H 405.965 -5.57466 -0.961658 0
M  V30 4574 H 404.522 -6.47729 -0.727351 0
M  V30 4575 N 407.956 -0.998596 -1.21925 0
M  V30 4576 C 408.919 -0.558679 -2.22287 0
M  V30 4577 C 409.919 0.361525 -1.56683 0
M  V30 4578 O 411.109 0.152695 -1.73529 0
M  V30 4579 C 408.241 0.18661 -3.40389 0
M  V30 4580 H 409.434 -1.4463 -2.62721 0
M  V30 4581 H 406.987 -0.786413 -1.35075 0
M  V30 4582 H 407.722 1.08996 -3.05435 0
M  V30 4583 H 407.507 -0.474188 -3.89222 0
M  V30 4584 H 408.997 0.482367 -4.14805 0
M  V30 4585 O 409.473 1.33471 -0.909268 0
M  V30 4586 H 410.164 1.86473 -0.524175 0
M  V30 END ATOM
M  V30 BEGIN BOND
M  V30 END BOND
M  V30 END CTAB
M  END
$$$$
