drugbank_target|P39905 Glial cell line-derived neurotrophic factor (DB09301)
 OpenBabel12092120223D

  0  0  0     0  0            999 V3000
M  V30 BEGIN CTAB
M  V30 COUNTS 3333 3362 0 0 0
M  V30 BEGIN ATOM
M  V30 1 H -0.908 1.98254 -0.117106 0
M  V30 2 N 0 1.576 0 0
M  V30 3 C 0.933 2.03868 1.02534 0
M  V30 4 C 1.911 0.928543 1.3348 0
M  V30 5 O 3.095 1.19667 1.45644 0
M  V30 6 C 0.222 2.43627 2.35294 0
M  V30 7 C -0.732 3.65373 2.2001 0
M  V30 8 S 0.101 5.13292 1.52614 0
M  V30 9 C 1.257 5.56322 2.86805 0
M  V30 10 H 1.49 2.90518 0.631377 0
M  V30 11 H -0.977 1.52953 0.210867 0
M  V30 12 H 0.981 2.67203 3.11629 0
M  V30 13 H -0.358 1.57376 2.7183 0
M  V30 14 H -1.165 3.90944 3.18086 0
M  V30 15 H -1.563 3.418 1.51819 0
M  V30 16 H 0.729 5.58782 3.83104 0
M  V30 17 H 1.672 6.56266 2.65933 0
M  V30 18 H 2.08 4.83886 2.90714 0
M  V30 19 N 1.4781 -0.272755 1.55222 0
M  V30 20 C 2.4251 -1.33716 1.88119 0
M  V30 21 C 3.3951 -1.49066 0.73271 0
M  V30 22 O 4.5801 -1.63469 0.984002 0
M  V30 23 C 1.7201 -2.69238 2.15882 0
M  V30 24 C 0.8331 -2.62108 3.43399 0
M  V30 25 C -0.0319 -3.89811 3.60861 0
M  V30 26 C -0.9929 -3.77193 4.8207 0
M  V30 27 N -1.8559 -4.9673 4.96189 0
M  V30 28 H 2.9841 -1.04962 2.78903 0
M  V30 29 H 0.5211 -0.507088 1.38083 0
M  V30 30 H 2.4791 -3.48089 2.29978 0
M  V30 31 H 1.1091 -2.96194 1.28331 0
M  V30 32 H 0.1611 -1.74967 3.37773 0
M  V30 33 H 1.4731 -2.48685 4.32386 0
M  V30 34 H 0.6271 -4.77103 3.74777 0
M  V30 35 H -0.6339 -4.06102 2.7006 0
M  V30 36 H -1.6289 -2.88284 4.68159 0
M  V30 37 H -0.4039 -3.62421 5.74307 0
M  V30 38 H -2.4579 -5.13431 4.08319 0
M  V30 39 H -2.5409 -4.85839 5.79221 0
M  V30 40 H -1.2729 -5.85594 5.1449 0
M  V30 41 N 2.9562 -1.48159 -0.537278 0
M  V30 42 C 3.8862 -1.65029 -1.6519 0
M  V30 43 C 4.8672 -0.499281 -1.62607 0
M  V30 44 O 6.0522 -0.730972 -1.79918 0
M  V30 45 C 3.1822 -1.68303 -3.03795 0
M  V30 46 C 2.1362 -2.8283 -3.21234 0
M  V30 47 C 1.4622 -2.71189 -4.60826 0
M  V30 48 C 2.7622 -4.24211 -3.04701 0
M  V30 49 H 4.4562 -2.58341 -1.51328 0
M  V30 50 H 2.0022 -1.24325 -0.726585 0
M  V30 51 H 3.9552 -1.78693 -3.81637 0
M  V30 52 H 2.6792 -0.715635 -3.18663 0
M  V30 53 H 1.3382 -2.71983 -2.45807 0
M  V30 54 H 0.9862 -1.72435 -4.7252 0
M  V30 55 H 0.6862 -3.48035 -4.7344 0
M  V30 56 H 2.2102 -2.83537 -5.40777 0
M  V30 57 H 3.6242 -4.3593 -3.72341 0
M  V30 58 H 2.0212 -5.01998 -3.28813 0
M  V30 59 H 3.0912 -4.41184 -2.01209 0
M  V30 60 N 4.4343 0.785586 -1.36625 0
M  V30 61 C 5.6803 1.5452 -1.32269 0
M  V30 62 C 6.0353 1.92159 0.0962266 0
M  V30 63 O 5.3283 1.60158 1.05167 0
M  V30 64 C 5.5223 2.83007 -2.1827 0
M  V30 65 C 5.3513 2.57925 -3.68382 0
M  V30 66 C 4.1213 2.52752 -4.37544 0
M  V30 67 C 6.3193 2.26861 -4.61561 0
M  V30 68 N 4.3013 2.19608 -5.73276 0
M  V30 69 C 5.6723 2.03738 -5.85569 0
M  V30 70 C 7.7273 2.129 -4.50087 0
M  V30 71 C 6.4303 1.68065 -6.9939 0
M  V30 72 C 8.4563 1.78626 -5.63779 0
M  V30 73 C 7.8183 1.56353 -6.86828 0
M  V30 74 H 3.9173 0.566301 -0.539283 0
M  V30 75 H 6.5013 0.917736 -1.71714 0
M  V30 76 H 4.6723 3.43614 -1.81063 0
M  V30 77 H 6.4043 3.48775 -2.05275 0
M  V30 78 H 3.1593 2.6813 -3.90389 0
M  V30 79 H 3.5833 2.05771 -6.44971 0
M  V30 80 H 8.2253 2.28808 -3.55537 0
M  V30 81 H 5.9433 1.50895 -7.93887 0
M  V30 82 H 9.5293 1.68502 -5.56865 0
M  V30 83 H 8.4093 1.30223 -7.73312 0
M  V30 84 N 5.9124 1.20967 1.01018 0
M  V30 85 C 7.1894 0.93264 1.71934 0
M  V30 86 C 7.5694 -0.55692 2.03621 0
M  V30 87 O 6.9174 -1.52035 1.7058 0
M  V30 88 C 7.1274 1.81233 2.98254 0
M  V30 89 C 8.4754 2.05804 3.71389 0
M  V30 90 O 9.4994 1.78539 3.08225 0
M  V30 91 O 8.3584 2.51888 4.84989 0
M  V30 92 H 5.4524 0.349272 0.749625 0
M  V30 93 H 7.9984 1.31871 1.06808 0
M  V30 94 H 6.7704 2.82067 2.71208 0
M  V30 95 H 6.3934 1.42674 3.7112 0
M  V30 96 N 7.3905 -1.2043 1.01659 0
M  V30 97 C 8.6365 -1.90079 0.706963 0
M  V30 98 C 8.9695 -1.78648 -0.761474 0
M  V30 99 O 8.2445 -1.17069 -1.55323 0
M  V30 100 C 8.5275 -3.41469 1.14327 0
M  V30 101 C 8.3805 -3.61833 2.67201 0
M  V30 102 C 9.6995 -4.34261 0.714529 0
M  V30 103 H 6.8185 -0.690254 0.2583 0
M  V30 104 H 9.4605 -1.41826 1.26433 0
M  V30 105 H 7.6105 -3.82696 0.669056 0
M  V30 106 H 9.2825 -3.2986 3.22475 0
M  V30 107 H 7.5255 -3.05304 3.08175 0
M  V30 108 H 8.1965 -4.67955 2.92783 0
M  V30 109 H 10.6725 -4.00682 1.12221 0
M  V30 110 H 9.5485 -5.38806 1.04784 0
M  V30 111 H 9.8095 -4.40431 -0.383799 0
M  V30 112 N 8.8686 -0.792821 -1.36206 0
M  V30 113 C 10.1146 -0.36733 -1.99446 0
M  V30 114 C 10.4476 1.05917 -1.62774 0
M  V30 115 O 9.7226 1.7324 -0.88421 0
M  V30 116 C 10.0056 -0.535044 -3.56103 0
M  V30 117 C 9.8586 -2.00548 -4.02617 0
M  V30 118 C 11.1776 0.0478191 -4.40074 0
M  V30 119 H 8.2966 -0.134941 -0.724541 0
M  V30 120 H 10.9386 -0.999794 -1.61568 0
M  V30 121 H 9.0886 0.00336329 -3.885 0
M  V30 122 H 10.7606 -2.60521 -3.80692 0
M  V30 123 H 9.0036 -2.50686 -3.54032 0
M  V30 124 H 9.6746 -2.07377 -5.11565 0
M  V30 125 H 12.1506 -0.411822 -4.14057 0
M  V30 126 H 11.0266 -0.0995336 -5.4881 0
M  V30 127 H 11.2876 1.14025 -4.27142 0
M  V30 128 N 10.3467 1.47872 -0.545128 0
M  V30 129 C 11.3097 2.28337 0.198717 0
M  V30 130 C 12.3097 1.36255 0.853888 0
M  V30 131 O 13.4997 1.59003 0.711606 0
M  V30 132 C 10.6317 3.15585 1.28915 0
M  V30 133 H 11.8247 2.95567 -0.507941 0
M  V30 134 H 9.3777 1.53362 -0.301616 0
M  V30 135 H 10.1127 2.53019 2.02859 0
M  V30 136 H 9.8977 3.83337 0.824309 0
M  V30 137 H 11.3877 3.76243 1.81194 0
M  V30 138 N 11.8248 0.280983 1.55075 0
M  V30 139 C 13.0708 -0.33461 2.00021 0
M  V30 140 C 13.4038 -1.55063 1.16915 0
M  V30 141 O 12.6788 -1.93006 0.240646 0
M  V30 142 C 12.9618 -0.711007 3.53011 0
M  V30 143 C 12.8148 0.512766 4.46868 0
M  V30 144 C 14.1338 -1.54522 4.12081 0
M  V30 145 H 11.2528 -0.120147 0.727141 0
M  V30 146 H 13.8948 0.389097 1.85973 0
M  V30 147 H 12.0448 -1.32761 3.65112 0
M  V30 148 H 13.7168 1.15131 4.46702 0
M  V30 149 H 11.9598 1.14975 4.18286 0
M  V30 150 H 12.6308 0.205556 5.51617 0
M  V30 151 H 15.1068 -1.02442 4.03293 0
M  V30 152 H 13.9828 -1.77739 5.19327 0
M  V30 153 H 14.2438 -2.52813 3.62682 0
M  V30 154 N 13.3029 -1.57598 0.00835791 0
M  V30 155 C 14.5429 -1.92788 -0.679136 0
M  V30 156 C 14.9069 -0.883378 -1.70471 0
M  V30 157 O 16.1079 -1.12079 -2.44319 0
M  V30 158 C 14.3789 -3.32994 -1.29807 0
M  V30 159 S 15.9379 -3.90082 -2.00952 0
M  V30 160 H 12.7559 -0.67475 -0.224127 0
M  V30 161 H 15.3579 -1.95385 0.0670497 0
M  V30 162 H 14.0619 -4.06846 -0.538922 0
M  V30 163 H 13.5929 -3.33791 -2.082 0
M  V30 164 H 15.6079 -3.71834 -3.28563 0
M  V30 165 N 14.781 0.264519 -1.55364 0
M  V30 166 C 15.711 1.33121 -1.91836 0
M  V30 167 C 16.692 1.51101 -0.781192 0
M  V30 168 O 17.877 1.64003 -1.04003 0
M  V30 169 C 15.007 2.68921 -2.19769 0
M  V30 170 C 13.961 2.65661 -3.35571 0
M  V30 171 C 13.287 4.05093 -3.49004 0
M  V30 172 C 14.587 2.24187 -4.71739 0
M  V30 173 H 16.281 1.02844 -2.81182 0
M  V30 174 H 13.827 0.493286 -1.35287 0
M  V30 175 H 15.78 3.43663 -2.43872 0
M  V30 176 H 14.504 3.00799 -1.27231 0
M  V30 177 H 13.163 1.93377 -3.1145 0
M  V30 178 H 12.811 4.34206 -2.53917 0
M  V30 179 H 12.511 4.03804 -4.26868 0
M  V30 180 H 14.035 4.81561 -3.75408 0
M  V30 181 H 15.449 2.88654 -4.9533 0
M  V30 182 H 13.846 2.34044 -5.52579 0
M  V30 183 H 14.916 1.19327 -4.69988 0
M  V30 184 N 16.2591 1.48442 0.529413 0
M  V30 185 C 17.5051 1.5672 1.28711 0
M  V30 186 C 17.8381 0.2406 1.92704 0
M  V30 187 O 17.1131 -0.753454 1.79313 0
M  V30 188 C 17.3961 2.70587 2.37603 0
M  V30 189 C 17.2491 4.12953 1.78297 0
M  V30 190 C 18.5681 2.80212 3.39366 0
M  V30 191 H 15.6871 0.570474 0.466613 0
M  V30 192 H 18.3291 1.80617 0.589706 0
M  V30 193 H 16.4791 2.50342 2.97088 0
M  V30 194 H 18.1511 4.44639 1.22858 0
M  V30 195 H 16.3941 4.19927 1.0883 0
M  V30 196 H 17.0651 4.88448 2.57144 0
M  V30 197 H 19.5411 2.98553 2.89836 0
M  V30 198 H 18.4171 3.61611 4.12951 0
M  V30 199 H 18.6781 1.88393 3.99951 0
M  V30 200 N 17.7372 -0.778329 1.37039 0
M  V30 201 C 18.6672 -1.90546 1.34962 0
M  V30 202 C 19.6482 -1.68681 0.219274 0
M  V30 203 O 20.8332 -1.89634 0.418624 0
M  V30 204 C 17.9632 -3.27734 1.14925 0
M  V30 205 C 16.9172 -3.64147 2.24902 0
M  V30 206 C 16.2432 -4.99806 1.89996 0
M  V30 207 C 17.5432 -3.71579 3.67051 0
M  V30 208 H 19.2372 -1.92541 2.29277 0
M  V30 209 H 16.7832 -0.924948 1.10366 0
M  V30 210 H 18.7362 -4.06215 1.12104 0
M  V30 211 H 17.4602 -3.26154 0.170631 0
M  V30 212 H 16.1192 -2.8797 2.26868 0
M  V30 213 H 15.7672 -4.94759 0.906796 0
M  V30 214 H 15.4672 -5.25139 2.63634 0
M  V30 215 H 16.9912 -5.80694 1.88749 0
M  V30 216 H 18.4052 -4.40227 3.67251 0
M  V30 217 H 16.8022 -4.08405 4.39688 0
M  V30 218 H 17.8722 -2.72404 4.01154 0
M  V30 219 N 19.2153 -1.21501 -1.00376 0
M  V30 220 C 20.1453 -0.999478 -2.11028 0
M  V30 221 C 21.1263 0.0759671 -1.6993 0
M  V30 222 O 22.3113 -0.0841106 -1.94018 0
M  V30 223 C 19.4413 -0.564709 -3.42678 0
M  V30 224 C 18.3953 -1.58486 -3.97576 0
M  V30 225 C 17.7213 -1.00628 -5.25146 0
M  V30 226 C 19.0213 -2.97204 -4.29496 0
M  V30 227 H 20.7153 -1.92495 -2.29317 0
M  V30 228 H 18.2613 -0.92693 -1.102 0
M  V30 229 H 20.2143 -0.401091 -4.19487 0
M  V30 230 H 18.9383 0.396411 -3.24185 0
M  V30 231 H 17.5973 -1.73606 -3.22888 0
M  V30 232 H 17.2453 -0.0368439 -5.02987 0
M  V30 233 H 16.9453 -1.68771 -5.62841 0
M  V30 234 H 18.4693 -0.854015 -6.04598 0
M  V30 235 H 19.8833 -2.8552 -4.97143 0
M  V30 236 H 18.2803 -3.62372 -4.78338 0
M  V30 237 H 19.3503 -3.47956 -3.3772 0
M  V30 238 N 20.6934 1.19889 -1.02296 0
M  V30 239 C 21.6434 2.20777 -0.56934 0
M  V30 240 C 22.6274 1.56379 0.378741 0
M  V30 241 O 23.8194 1.75859 0.200673 0
M  V30 242 C 20.9484 3.43196 0.0845077 0
M  V30 243 C 20.0344 4.14749 -0.88566 0
M  V30 244 N 20.4254 4.62584 -2.04573 0
M  V30 245 C 18.7234 4.40347 -0.707835 0
M  V30 246 C 19.4244 5.17466 -2.65714 0
M  V30 247 N 18.4004 5.0791 -1.93723 0
M  V30 248 H 22.2024 2.55434 -1.45365 0
M  V30 249 H 19.7164 1.35897 -0.88915 0
M  V30 250 H 21.7134 4.14707 0.427067 0
M  V30 251 H 20.3734 3.10042 0.964574 0
M  V30 252 H 21.3844 4.57597 -2.4254 0
M  V30 253 H 18.0614 4.17317 0.12364 0
M  V30 254 H 19.4514 5.64808 -3.63925 0
M  V30 255 N 22.1715 0.800033 1.35784 0
M  V30 256 C 23.3995 0.389606 2.03199 0
M  V30 257 C 23.8145 -0.997375 1.60306 0
M  V30 258 O 23.1715 -1.64154 0.797481 0
M  V30 259 C 23.2225 0.455855 3.58614 0
M  V30 260 O 22.9435 1.78815 3.99946 0
M  V30 261 C 24.4445 0.0374032 4.43284 0
M  V30 262 H 21.6645 0.159132 0.651857 0
M  V30 263 H 24.2085 1.08183 1.73541 0
M  V30 264 H 22.3635 -0.188057 3.86943 0
M  V30 265 H 22.7775 1.74636 4.94573 0
M  V30 266 H 24.2515 0.134882 5.51835 0
M  V30 267 H 24.7285 -1.01651 4.27275 0
M  V30 268 H 25.3345 0.654215 4.20238 0
M  V30 269 N 23.6496 -1.47581 0.552962 0
M  V30 270 C 24.6126 -2.28439 -0.186605 0
M  V30 271 C 25.6126 -1.36706 -0.84665 0
M  V30 272 O 26.8026 -1.59378 -0.703164 0
M  V30 273 C 23.9346 -3.16264 -1.2724 0
M  V30 274 H 25.1276 -2.95294 0.523609 0
M  V30 275 H 22.6806 -1.532 0.309745 0
M  V30 276 H 23.4156 -2.54091 -2.01514 0
M  V30 277 H 23.2006 -3.83769 -0.803968 0
M  V30 278 H 24.6906 -3.77198 -1.79196 0
M  V30 279 N 25.1277 -0.289203 -1.54924 0
M  V30 280 C 26.3527 0.329299 -2.04769 0
M  V30 281 C 26.7777 1.4763 -1.16564 0
M  V30 282 O 26.1357 1.80527 -0.167186 0
M  V30 283 C 26.1837 0.774438 -3.52186 0
M  V30 284 O 25.2877 1.88038 -3.67036 0
M  V30 285 H 24.6287 0.0659259 -0.660719 0
M  V30 286 H 27.1587 -0.42761 -2.00082 0
M  V30 287 H 27.1687 1.06642 -3.93816 0
M  V30 288 H 25.8437 -0.0646707 -4.1585 0
M  V30 289 H 24.4207 1.58985 -3.3731 0
M  V30 290 N 26.6058 1.57591 -0.0167156 0
M  V30 291 C 27.5688 2.08393 0.954204 0
M  V30 292 C 28.5688 0.996531 1.26198 0
M  V30 293 O 29.7588 1.25858 1.20438 0
M  V30 294 C 26.8908 2.5394 2.27436 0
M  V30 295 H 28.0838 2.95455 0.514451 0
M  V30 296 H 25.6368 1.54582 0.231089 0
M  V30 297 H 26.3718 1.70171 2.76066 0
M  V30 298 H 26.1568 3.33371 2.06412 0
M  V30 299 H 27.6468 2.93512 2.97053 0
M  V30 300 N 28.0839 -0.256276 1.55502 0
M  V30 301 C 29.3309 -0.985619 1.76895 0
M  V30 302 C 29.6589 -1.85671 0.579355 0
M  V30 303 O 28.9139 -1.90744 -0.437651 0
M  V30 304 C 29.2129 -1.88432 3.03691 0
M  V30 305 C 28.8789 -1.16936 4.35473 0
M  V30 306 C 27.5409 -0.97173 4.71286 0
M  V30 307 C 29.8929 -0.661889 5.1698 0
M  V30 308 C 27.2209 -0.254179 5.86149 0
M  V30 309 C 29.5729 0.042149 6.32586 0
M  V30 310 C 28.2369 0.25134 6.67027 0
M  V30 311 H 27.5069 -0.360663 0.647304 0
M  V30 312 H 30.1539 -0.256483 1.89775 0
M  V30 313 H 28.4589 -2.68021 2.85783 0
M  V30 314 H 30.1559 -2.45015 3.1744 0
M  V30 315 H 26.7459 -1.33332 4.07333 0
M  V30 316 H 30.9299 -0.802145 4.89775 0
M  V30 317 H 26.1859 -0.0815408 6.11346 0
M  V30 318 H 30.3599 0.443049 6.94989 0
M  V30 319 H 27.9869 0.809314 7.5588 0
M  V30 320 N 29.562 -1.4872 -0.521534 0
M  V30 321 C 30.973 -1.50607 -1.10337 0
M  V30 322 C 31.324 -0.280612 -1.94183 0
M  V30 323 O 30.449 0.611507 -2.0758 0
M  V30 324 C 31.044 -2.72903 -2.00772 0
M  V30 325 C 29.603 -2.77634 -2.54158 0
M  V30 326 C 28.75 -2.44241 -1.31307 0
M  V30 327 H 31.701 -1.55714 -0.306388 0
M  V30 328 H 31.722 -2.519 -2.85178 0
M  V30 329 H 31.234 -3.62077 -1.39721 0
M  V30 330 H 29.335 -1.92689 -3.18907 0
M  V30 331 H 29.448 -3.79283 -2.92714 0
M  V30 332 H 27.812 -1.95577 -1.63161 0
M  V30 333 H 28.595 -3.35666 -0.719943 0
M  V30 334 N 31.0401 0.771051 -1.3745 0
M  V30 335 C 31.9701 1.89827 -1.3597 0
M  V30 336 C 32.9511 1.68562 -0.228216 0
M  V30 337 O 34.1361 1.8941 -0.428675 0
M  V30 338 C 31.2661 3.2712 -1.16662 0
M  V30 339 C 30.2201 3.6295 -2.2683 0
M  V30 340 C 29.5461 4.98791 -1.92644 0
M  V30 341 C 30.8461 3.69627 -3.69017 0
M  V30 342 H 32.5401 1.91323 -2.30295 0
M  V30 343 H 30.0861 0.919082 -1.10855 0
M  V30 344 H 32.0391 4.05615 -1.14256 0
M  V30 345 H 30.7631 3.26059 -0.187926 0
M  V30 346 H 29.4221 2.86763 -2.28392 0
M  V30 347 H 29.0701 4.94271 -0.933021 0
M  V30 348 H 28.7701 5.23733 -2.66416 0
M  V30 349 H 30.2941 5.79685 -1.91826 0
M  V30 350 H 31.7081 4.38273 -3.69581 0
M  V30 351 H 30.1051 4.06067 -4.41848 0
M  V30 352 H 31.1751 2.70273 -4.02592 0
M  V30 353 N 32.5182 1.22032 0.997298 0
M  V30 354 C 33.9292 1.0397 1.55071 0
M  V30 355 C 34.2802 -0.398192 1.92117 0
M  V30 356 O 33.4052 -1.28254 1.74298 0
M  V30 357 C 34.0002 1.88109 2.81781 0
M  V30 358 C 32.5592 1.74357 3.33581 0
M  V30 359 C 31.7062 1.84846 2.06706 0
M  V30 360 H 34.6572 1.35941 0.818883 0
M  V30 361 H 34.6782 1.39589 3.53971 0
M  V30 362 H 34.1902 2.92754 2.54787 0
M  V30 363 H 32.2912 0.72427 3.65493 0
M  V30 364 H 32.4042 2.56772 4.04481 0
M  V30 365 H 30.7682 1.28238 2.20062 0
M  V30 366 H 31.5512 2.91014 1.82114 0
M  V30 367 N 33.9963 -1.19345 1.0293 0
M  V30 368 C 34.9593 -2.20793 0.615069 0
M  V30 369 C 35.9593 -1.57553 -0.321533 0
M  V30 370 O 37.1493 -1.73862 -0.108483 0
M  V30 371 C 34.2813 -3.40754 -0.0999222 0
M  V30 372 H 35.4743 -2.58955 1.51269 0
M  V30 373 H 33.0273 -1.3303 0.820534 0
M  V30 374 H 33.7623 -3.0811 -1.01187 0
M  V30 375 H 33.5473 -3.87889 0.57309 0
M  V30 376 H 35.0373 -4.15898 -0.376645 0
M  V30 377 N 35.4744 -0.807222 -1.35358 0
M  V30 378 C 36.7224 -0.387122 -1.98358 0
M  V30 379 C 37.0434 1.04942 -1.64354 0
M  V30 380 O 36.3134 1.72615 -0.926339 0
M  V30 381 H 34.8934 -0.140154 -0.733734 0
M  V30 382 H 37.5554 -1.0332 -1.6526 0
M  V30 383 H 36.6514 -0.493352 -3.08176 0
M  V30 384 N 36.9525 1.47285 -0.560781 0
M  V30 385 C 37.8995 2.30058 0.18491 0
M  V30 386 C 38.8695 1.39281 0.904986 0
M  V30 387 O 40.0545 1.68241 0.899979 0
M  V30 388 C 37.1945 3.23317 1.20666 0
M  V30 389 C 36.3075 4.29186 0.492285 0
M  V30 390 C 35.4425 5.09592 1.49964 0
M  V30 391 C 34.4815 6.07232 0.770439 0
M  V30 392 N 33.6185 6.80584 1.72479 0
M  V30 393 H 38.4585 2.93302 -0.527048 0
M  V30 394 H 35.9955 1.44568 -0.271738 0
M  V30 395 H 37.9535 3.75811 1.81168 0
M  V30 396 H 36.5835 2.61929 1.88661 0
M  V30 397 H 35.6355 3.7972 -0.227333 0
M  V30 398 H 36.9475 4.98738 -0.0787929 0
M  V30 399 H 36.1015 5.66254 2.17809 0
M  V30 400 H 34.8405 4.3995 2.10464 0
M  V30 401 H 33.8455 5.49745 0.0780846 0
M  V30 402 H 35.0705 6.78884 0.171134 0
M  V30 403 H 33.0165 6.1367 2.3183 0
M  V30 404 H 32.9335 7.46319 1.20596 0
M  V30 405 H 34.2015 7.41818 2.39428 0
M  V30 406 N 38.4306 0.297415 1.54768 0
M  V30 407 C 39.8466 -0.0560823 1.59501 0
M  V30 408 C 40.0466 -1.52725 1.31444 0
M  V30 409 O 39.1026 -2.27947 1.08611 0
M  V30 410 C 40.4156 0.338631 2.98787 0
M  V30 411 C 41.9636 0.287097 3.11681 0
M  V30 412 C 42.4386 0.656579 4.53269 0
M  V30 413 N 43.9296 0.608977 4.59179 0
M  V30 414 C 44.6646 0.867385 5.66802 0
M  V30 415 N 44.1606 1.19157 6.82476 0
M  V30 416 N 45.9536 0.794687 5.56454 0
M  V30 417 H 38.1046 1.25624 1.71267 0
M  V30 418 H 40.3676 0.509057 0.799728 0
M  V30 419 H 40.0736 1.36263 3.2423 0
M  V30 420 H 39.9476 -0.309508 3.75928 0
M  V30 421 H 42.3346 -0.727649 2.85988 0
M  V30 422 H 42.4156 0.969809 2.36703 0
M  V30 423 H 42.0596 1.66912 4.7969 0
M  V30 424 H 41.9896 -0.0481649 5.26578 0
M  V30 425 H 44.4806 0.369198 3.76092 0
M  V30 426 H 44.7936 1.37482 7.60473 0
M  V30 427 H 43.1386 1.22958 6.84037 0
M  V30 428 H 46.3296 0.541098 4.64962 0
M  V30 429 H 46.5026 0.999445 6.40246 0
M  V30 430 N 39.9087 -1.5758 0.0250728 0
M  V30 431 C 41.3197 -1.79476 -0.514323 0
M  V30 432 C 41.6707 -0.934956 -1.72491 0
M  V30 433 O 40.7957 -0.144245 -2.15919 0
M  V30 434 C 41.3907 -3.25503 -0.939842 0
M  V30 435 C 39.9497 -3.48408 -1.42438 0
M  V30 436 C 39.0967 -2.74583 -0.387201 0
M  V30 437 H 42.0477 -1.567 0.25113 0
M  V30 438 H 42.0687 -3.34992 -1.80445 0
M  V30 439 H 41.5807 -3.88056 -0.0585628 0
M  V30 440 H 39.6817 -2.91103 -2.32572 0
M  V30 441 H 39.7947 -4.57119 -1.43455 0
M  V30 442 H 38.1587 -2.39942 -0.854409 0
M  V30 443 H 38.9417 -3.39849 0.485543 0
M  V30 444 N 41.3868 0.248026 -1.55636 0
M  V30 445 C 42.7978 0.817177 -1.67866 0
M  V30 446 C 43.1488 1.86069 -0.622322 0
M  V30 447 O 42.2738 2.15157 0.231618 0
M  V30 448 C 42.8688 1.489 -3.04326 0
M  V30 449 C 41.4278 2.00587 -3.185 0
M  V30 450 C 40.5748 0.856573 -2.63739 0
M  V30 451 H 43.5258 0.0238579 -1.58682 0
M  V30 452 H 43.5468 2.35698 -2.98708 0
M  V30 453 H 43.0588 0.729279 -3.81186 0
M  V30 454 H 41.1598 2.79443 -2.4646 0
M  V30 455 H 41.2728 2.20402 -4.25393 0
M  V30 456 H 39.6368 1.25678 -2.21534 0
M  V30 457 H 40.4198 0.109953 -3.43124 0
M  V30 458 N 42.8649 1.48995 0.513639 0
M  V30 459 C 43.7749 1.67443 1.64317 0
M  V30 460 C 44.7909 0.556947 1.64846 0
M  V30 461 O 45.9669 0.830082 1.83498 0
M  V30 462 C 43.0319 1.72515 3.00732 0
M  V30 463 C 42.0929 2.96009 3.1093 0
M  V30 464 C 41.3259 3.00829 4.40837 0
M  V30 465 O 41.5489 2.13594 5.28898 0
M  V30 466 O 40.4829 3.93168 4.55744 0
M  V30 467 H 44.3089 2.63106 1.51687 0
M  V30 468 H 41.8939 1.32588 0.688543 0
M  V30 469 H 43.7759 1.78277 3.81831 0
M  V30 470 H 42.4509 0.800278 3.13651 0
M  V30 471 H 41.3579 2.9577 2.29065 0
M  V30 472 H 42.6909 3.87934 3.02933 0
M  V30 473 N 44.343 -0.763751 1.37857 0
M  V30 474 C 45.306 -1.85889 1.34081 0
M  V30 475 C 46.306 -1.58949 0.243277 0
M  V30 476 O 47.496 -1.66882 0.499589 0
M  V30 477 C 44.628 -3.23176 1.08489 0
M  V30 478 H 45.821 -1.90648 2.31502 0
M  V30 479 H 43.374 -0.964367 1.23003 0
M  V30 480 H 44.109 -3.24091 0.116318 0
M  V30 481 H 43.894 -3.44124 1.8794 0
M  V30 482 H 45.384 -4.03254 1.08517 0
M  V30 483 N 45.8211 -1.22559 -0.990812 0
M  V30 484 C 47.2321 -1.04791 -1.54518 0
M  V30 485 C 47.5831 0.387998 -1.92325 0
M  V30 486 O 46.7081 1.27328 -1.74976 0
M  V30 487 C 47.3031 -1.896 -2.80779 0
M  V30 488 C 45.8621 -1.76124 -3.32652 0
M  V30 489 C 45.0091 -1.8594 -2.05722 0
M  V30 490 H 47.9601 -1.36374 -0.811662 0
M  V30 491 H 47.9811 -1.41464 -3.53225 0
M  V30 492 H 47.4931 -2.94101 -2.53231 0
M  V30 493 H 45.5941 -0.743643 -3.65104 0
M  V30 494 H 45.7071 -2.58913 -4.03114 0
M  V30 495 H 44.0711 -1.29403 -2.19379 0
M  V30 496 H 44.8541 -2.91976 -1.80568 0
M  V30 497 N 47.2992 1.18797 -1.03562 0
M  V30 498 C 48.2622 2.20464 -0.626769 0
M  V30 499 C 49.2622 1.57721 0.313173 0
M  V30 500 O 50.4522 1.73917 0.0992615 0
M  V30 501 C 47.5842 3.40802 0.0818498 0
M  V30 502 H 48.7772 2.58149 -1.5264 0
M  V30 503 H 46.3302 1.32593 -0.827578 0
M  V30 504 H 47.0652 3.08642 0.995518 0
M  V30 505 H 46.8502 3.8758 -0.593652 0
M  V30 506 H 48.3402 4.16092 0.354584 0
M  V30 507 N 48.7773 0.814389 1.34928 0
M  V30 508 C 49.6873 0.231978 2.3345 0
M  V30 509 C 50.7033 -0.629139 1.62228 0
M  V30 510 O 51.8793 -0.539052 1.94052 0
M  V30 511 C 48.9443 -0.603482 3.41407 0
M  V30 512 C 48.0053 0.279037 4.28392 0
M  V30 513 C 47.2383 -0.516643 5.31193 0
M  V30 514 O 47.4613 -1.75068 5.4287 0
M  V30 515 O 46.3953 0.0965652 6.01823 0
M  V30 516 H 50.2213 1.04721 2.85074 0
M  V30 517 H 47.8063 0.576343 1.37836 0
M  V30 518 H 49.6883 -1.07908 4.0735 0
M  V30 519 H 48.3633 -1.39618 2.92042 0
M  V30 520 H 47.2703 0.801948 3.65403 0
M  V30 521 H 48.6033 1.03588 4.81176 0
M  V30 522 N 50.2554 -1.46986 0.568584 0
M  V30 523 C 51.5324 -1.95592 -0.0174074 0
M  V30 524 C 51.9124 -1.51124 -1.47393 0
M  V30 525 O 51.2604 -0.755329 -2.15655 0
M  V30 526 C 51.4704 -3.48719 0.139913 0
M  V30 527 C 52.8184 -4.246 0.000426376 0
M  V30 528 O 53.8424 -3.56135 0.0680316 0
M  V30 529 O 52.7014 -5.46302 -0.146988 0
M  V30 530 H 49.7954 -0.82498 -0.0577599 0
M  V30 531 H 52.3414 -1.57335 0.635909 0
M  V30 532 H 51.1134 -3.73927 1.15301 0
M  V30 533 H 50.7364 -3.93771 -0.550491 0
M  V30 534 N 51.7335 -0.305618 -1.54608 0
M  V30 535 C 53.1495 0.0476228 -1.59529 0
M  V30 536 C 53.3495 1.52025 -1.32252 0
M  V30 537 O 52.4055 2.27368 -1.09818 0
M  V30 538 C 53.7185 -0.354471 -2.98603 0
M  V30 539 C 55.2665 -0.303622 -3.11524 0
M  V30 540 C 55.7415 -0.680608 -4.52915 0
M  V30 541 N 57.2325 -0.63332 -4.5885 0
M  V30 542 C 57.9675 -0.897432 -5.66334 0
M  V30 543 N 57.4635 -1.22775 -6.81834 0
M  V30 544 N 59.2565 -0.824186 -5.56025 0
M  V30 545 H 51.4075 -1.2653 -1.70599 0
M  V30 546 H 53.6705 -0.513291 -0.797017 0
M  V30 547 H 53.3765 -1.3798 -3.23503 0
M  V30 548 H 53.2505 0.289568 -3.76087 0
M  V30 549 H 55.6375 0.712472 -2.8637 0
M  V30 550 H 55.7185 -0.982348 -2.36185 0
M  V30 551 H 55.3625 -1.69453 -4.78799 0
M  V30 552 H 55.2925 0.0202385 -5.26596 0
M  V30 553 H 57.7835 -0.389138 -3.75891 0
M  V30 554 H 58.0965 -1.41513 -7.59733 0
M  V30 555 H 56.4415 -1.26583 -6.83375 0
M  V30 556 H 59.6325 -0.565748 -4.64669 0
M  V30 557 H 59.8055 -1.03338 -6.39707 0
M  V30 558 N 53.2116 1.57565 -0.0334293 0
M  V30 559 C 54.4366 1.96689 0.657895 0
M  V30 560 C 54.8616 0.910057 1.64619 0
M  V30 561 O 54.2196 -0.128598 1.80843 0
M  V30 562 C 54.2676 3.34905 1.33683 0
M  V30 563 O 53.3716 3.31574 2.45219 0
M  V30 564 H 52.7126 0.641205 0.172489 0
M  V30 565 H 55.2426 2.04372 -0.0965621 0
M  V30 566 H 55.2526 3.71234 1.69262 0
M  V30 567 H 53.9276 4.11366 0.612411 0
M  V30 568 H 52.5046 3.06968 2.11719 0
M  V30 569 N 54.6897 -0.239769 1.55765 0
M  V30 570 C 55.6197 -1.30052 1.9393 0
M  V30 571 C 56.6007 -1.49839 0.805132 0
M  V30 572 O 57.7857 -1.62328 1.06599 0
M  V30 573 C 54.9157 -2.65391 2.2402 0
M  V30 574 C 53.8697 -2.60289 3.39755 0
M  V30 575 C 53.1957 -3.99489 3.55405 0
M  V30 576 C 54.4957 -2.16654 4.75246 0
M  V30 577 H 56.1897 -0.983573 2.82783 0
M  V30 578 H 53.7357 -0.471701 1.36055 0
M  V30 579 H 55.6887 -3.3974 2.49308 0
M  V30 580 H 54.4127 -2.98736 1.32 0
M  V30 581 H 53.0717 -1.88398 3.14487 0
M  V30 582 H 52.7197 -4.30112 2.60793 0
M  V30 583 H 52.4197 -3.96962 4.33238 0
M  V30 584 H 53.9437 -4.75528 3.83022 0
M  V30 585 H 55.3577 -2.80737 4.99859 0
M  V30 586 H 53.7547 -2.25223 5.56232 0
M  V30 587 H 54.8247 -1.11835 4.71827 0
M  V30 588 N 56.1678 -1.49265 -0.50573 0
M  V30 589 C 57.4158 -1.582 -1.25766 0
M  V30 590 C 57.7368 -0.268482 -1.93143 0
M  V30 591 O 57.0068 0.711833 -1.8251 0
M  V30 592 H 55.5868 -0.582873 -0.467191 0
M  V30 593 H 58.2488 -1.85865 -0.586525 0
M  V30 594 H 57.3448 -2.37563 -2.02412 0
M  V30 595 N 57.6459 0.756429 -1.3826 0
M  V30 596 C 59.0619 1.0591 -1.19395 0
M  V30 597 C 59.2619 2.01459 -0.0406567 0
M  V30 598 O 58.3179 2.44909 0.614467 0
M  V30 599 C 59.6309 1.64191 -2.51916 0
M  V30 600 C 61.1789 1.76376 -2.58574 0
M  V30 601 C 61.6539 2.38069 -3.91264 0
M  V30 602 N 63.1449 2.45503 -3.92788 0
M  V30 603 C 63.8799 2.94126 -4.92217 0
M  V30 604 N 63.3759 3.42805 -6.02043 0
M  V30 605 N 65.1689 2.9314 -4.7961 0
M  V30 606 H 57.3199 0.122313 -2.12048 0
M  V30 607 H 59.5829 0.116892 -0.940766 0
M  V30 608 H 59.2889 1.01451 -3.3675 0
M  V30 609 H 59.1629 2.6329 -2.70108 0
M  V30 610 H 61.5499 2.38244 -1.74137 0
M  V30 611 H 61.6309 0.759894 -2.44252 0
M  V30 612 H 61.2749 1.76835 -4.76121 0
M  V30 613 H 61.2049 3.39091 -4.02895 0
M  V30 614 H 63.6959 2.1107 -3.13461 0
M  V30 615 H 64.0089 3.78354 -6.73846 0
M  V30 616 H 62.3539 3.4087 -6.05667 0
M  V30 617 H 65.5449 2.54419 -3.92923 0
M  V30 618 H 65.7179 3.30721 -5.5725 0
M  V30 619 N 59.124 1.23083 0.984299 0
M  V30 620 C 60.54 0.992637 1.24975 0
M  V30 621 C 60.74 -0.308618 1.99123 0
M  V30 622 O 59.796 -1.02905 2.30579 0
M  V30 623 C 61.109 2.19698 2.05312 0
M  V30 624 C 62.657 2.24147 2.18465 0
M  V30 625 C 63.132 3.44157 3.02192 0
M  V30 626 N 64.623 3.44372 3.09777 0
M  V30 627 C 65.358 4.33886 3.74874 0
M  V30 628 N 64.854 5.3363 4.41827 0
M  V30 629 N 66.647 4.21639 3.71721 0
M  V30 630 H 58.798 2.06731 0.487453 0
M  V30 631 H 61.061 0.906339 0.277944 0
M  V30 632 H 60.767 3.1411 1.58201 0
M  V30 633 H 60.641 2.20465 3.06064 0
M  V30 634 H 63.028 1.30277 2.64786 0
M  V30 635 H 63.109 2.27415 1.17115 0
M  V30 636 H 62.753 4.38332 2.56568 0
M  V30 637 H 62.683 3.3813 4.03702 0
M  V30 638 H 65.174 2.72201 2.62135 0
M  V30 639 H 65.487 5.98196 4.89266 0
M  V30 640 H 63.832 5.37534 4.40548 0
M  V30 641 H 67.023 3.42962 3.18582 0
M  V30 642 H 67.196 4.91604 4.22173 0
M  V30 643 N 60.6021 -1.18246 1.0419 0
M  V30 644 C 62.0181 -1.40269 0.761366 0
M  V30 645 C 62.2181 -1.90777 -0.648578 0
M  V30 646 O 61.2741 -2.0929 -1.41258 0
M  V30 647 C 62.5871 -2.40237 1.8085 0
M  V30 648 C 64.1351 -2.53961 1.82955 0
M  V30 649 C 64.6101 -3.57194 2.86664 0
M  V30 650 N 66.1011 -3.64702 2.85563 0
M  V30 651 C 66.8361 -4.44309 3.6246 0
M  V30 652 N 66.3321 -5.27514 4.49111 0
M  V30 653 N 68.1251 -4.39084 3.50944 0
M  V30 654 H 60.2761 -0.837882 1.95175 0
M  V30 655 H 62.5391 -0.430608 0.84456 0
M  V30 656 H 62.2451 -2.10176 2.81991 0
M  V30 657 H 62.1191 -3.39601 1.64168 0
M  V30 658 H 64.5061 -2.83338 0.824855 0
M  V30 659 H 64.5871 -1.54706 2.03715 0
M  V30 660 H 64.2311 -3.28558 3.87314 0
M  V30 661 H 64.1611 -4.5613 2.6316 0
M  V30 662 H 66.6521 -3.05289 2.22727 0
M  V30 663 H 66.9651 -5.85411 5.04493 0
M  V30 664 H 65.3101 -5.2693 4.53178 0
M  V30 665 H 68.5011 -3.7313 2.82651 0
M  V30 666 H 68.6741 -5.00883 4.11121 0
M  V30 667 N 62.0802 -0.821533 -1.34494 0
M  V30 668 C 63.0432 -0.247847 -2.27856 0
M  V30 669 C 64.0432 0.573453 -1.50227 0
M  V30 670 O 65.2332 0.389759 -1.69784 0
M  V30 671 C 62.3652 0.652698 -3.34593 0
M  V30 672 H 63.5582 -1.07146 -2.80107 0
M  V30 673 H 61.1112 -0.593291 -1.44602 0
M  V30 674 H 61.8462 1.49943 -2.87555 0
M  V30 675 H 61.6312 0.065292 -3.92046 0
M  V30 676 H 63.1212 1.04793 -4.04238 0
M  V30 677 N 63.5583 1.46682 -0.576371 0
M  V30 678 C 64.9693 1.86112 -0.148091 0
M  V30 679 C 65.3203 1.48073 1.2872 0
M  V30 680 O 64.4453 0.892656 1.97131 0
M  V30 681 C 65.0403 3.37786 -0.261982 0
M  V30 682 C 63.5993 3.76235 0.111384 0
M  V30 683 C 62.7463 2.70713 -0.60083 0
M  V30 684 H 65.6973 1.37927 -0.78497 0
M  V30 685 H 65.7183 3.77007 0.514364 0
M  V30 686 H 65.2303 3.6544 -1.30671 0
M  V30 687 H 63.3313 3.54198 1.15649 0
M  V30 688 H 63.4443 4.78391 -0.26052 0
M  V30 689 H 61.8083 2.54666 -0.0417783 0
M  V30 690 H 62.5913 3.01208 -1.64708 0
M  V30 691 N 65.0364 0.313813 1.54444 0
M  V30 692 C 66.2834 -0.291675 2.00388 0
M  V30 693 C 66.6114 -1.52904 1.2021 0
M  V30 694 O 65.8664 -1.93833 0.269707 0
M  V30 695 C 66.1654 -0.680386 3.50864 0
M  V30 696 C 65.8314 0.456699 4.48581 0
M  V30 697 C 64.4934 0.768824 4.75018 0
M  V30 698 C 66.8454 1.22098 5.06697 0
M  V30 699 C 64.1734 1.84812 5.56831 0
M  V30 700 C 66.5254 2.29029 5.89685 0
M  V30 701 C 65.1894 2.60834 6.14428 0
M  V30 702 H 64.4594 -0.106732 0.733273 0
M  V30 703 H 67.1064 0.43557 1.86481 0
M  V30 704 H 65.4114 -1.48791 3.62448 0
M  V30 705 H 67.1084 -1.16026 3.83847 0
M  V30 706 H 63.6984 0.203337 4.28117 0
M  V30 707 H 67.8824 0.993096 4.86263 0
M  V30 708 H 63.1384 2.09912 5.74236 0
M  V30 709 H 67.3124 2.887 6.33739 0
M  V30 710 H 64.9394 3.44596 6.77612 0
M  V30 711 N 66.5145 -1.57545 0.0417849 0
M  V30 712 C 67.4775 -2.09885 -0.92093 0
M  V30 713 C 68.4775 -1.01648 -1.24596 0
M  V30 714 O 69.6675 -1.27759 -1.1842 0
M  V30 715 C 66.7995 -2.57527 -2.23367 0
M  V30 716 H 67.9925 -2.96236 -0.467382 0
M  V30 717 H 65.5455 -1.5493 -0.206467 0
M  V30 718 H 66.2805 -1.74542 -2.73323 0
M  V30 719 H 66.0655 -3.36613 -2.01083 0
M  V30 720 H 67.5555 -2.98201 -2.92346 0
M  V30 721 N 67.9926 0.231505 -1.5589 0
M  V30 722 C 68.9226 1.29022 -1.94617 0
M  V30 723 C 69.9036 1.4941 -0.813067 0
M  V30 724 O 71.0886 1.6176 -1.07459 0
M  V30 725 C 68.2186 2.64199 -2.25424 0
M  V30 726 C 67.1726 2.58484 -3.41131 0
M  V30 727 C 66.4986 3.97599 -3.57518 0
M  V30 728 C 67.7986 2.1413 -4.76388 0
M  V30 729 H 69.4926 0.968563 -2.83301 0
M  V30 730 H 67.0386 0.464479 -1.36303 0
M  V30 731 H 68.9916 3.38413 -2.51107 0
M  V30 732 H 67.7156 2.98032 -1.33583 0
M  V30 733 H 66.3746 1.86727 -3.15481 0
M  V30 734 H 66.0226 4.28723 -2.6307 0
M  V30 735 H 65.7226 3.94659 -4.35337 0
M  V30 736 H 67.2466 4.7349 -3.85538 0
M  V30 737 H 68.6606 2.78083 -5.01341 0
M  V30 738 H 67.0576 2.2227 -5.57419 0
M  V30 739 H 68.1276 1.09331 -4.72414 0
M  V30 740 N 69.4707 1.49531 0.497807 0
M  V30 741 C 70.6957 1.63159 1.28039 0
M  V30 742 C 71.1207 0.30418 1.85624 0
M  V30 743 O 70.4787 -0.728618 1.66015 0
M  V30 744 C 70.5267 2.70537 2.38416 0
M  V30 745 O 69.6307 2.29931 3.42353 0
M  V30 746 H 68.9717 0.546001 0.377861 0
M  V30 747 H 71.5017 1.9574 0.59558 0
M  V30 748 H 71.5117 2.92802 2.84132 0
M  V30 749 H 70.1867 3.6689 1.95869 0
M  V30 750 H 68.7637 2.18009 3.02533 0
M  V30 751 N 70.9488 -0.749086 1.3866 0
M  V30 752 C 72.1738 -1.54344 1.38538 0
M  V30 753 C 72.5988 -1.88088 -0.0216655 0
M  V30 754 O 71.9568 -1.50899 -1.00494 0
M  V30 755 C 72.0048 -2.8164 2.25192 0
M  V30 756 O 71.1088 -3.7698 1.67212 0
M  V30 757 H 70.4498 -0.466654 0.472367 0
M  V30 758 H 72.9798 -0.925355 1.82478 0
M  V30 759 H 72.9898 -3.30519 2.3921 0
M  V30 760 H 71.6648 -2.56411 3.27454 0
M  V30 761 H 70.2418 -3.35699 1.6236 0
M  V30 762 N 72.4269 -1.23603 -0.977757 0
M  V30 763 C 73.7039 -0.977897 -1.69401 0
M  V30 764 C 74.0839 0.502738 -2.05026 0
M  V30 765 O 73.4319 1.47459 -1.74551 0
M  V30 766 C 73.6419 -1.89077 -2.93345 0
M  V30 767 C 74.9899 -2.15579 -3.65802 0
M  V30 768 O 76.0139 -1.86648 -3.03383 0
M  V30 769 O 74.8729 -2.64658 -4.78141 0
M  V30 770 H 71.9669 -0.369025 -0.740101 0
M  V30 771 H 74.5129 -1.34657 -1.03274 0
M  V30 772 H 73.2849 -2.89158 -2.63634 0
M  V30 773 H 72.9079 -1.52463 -3.67207 0
M  V30 774 N 73.905 1.17692 -1.04816 0
M  V30 775 C 75.13 1.92327 -0.776207 0
M  V30 776 C 75.555 1.76082 0.661581 0
M  V30 777 O 74.913 1.076 1.45917 0
M  V30 778 C 74.961 3.41539 -1.15687 0
M  V30 779 O 74.065 4.11402 -0.286775 0
M  V30 780 H 73.406 0.599735 -0.284981 0
M  V30 781 H 75.936 1.49201 -1.4 0
M  V30 782 H 75.946 3.92269 -1.12202 0
M  V30 783 H 74.621 3.52684 -2.20425 0
M  V30 784 H 73.198 3.70939 -0.381903 0
M  V30 785 N 75.3831 0.828654 1.34056 0
M  V30 786 C 76.3311 0.242973 2.31327 0
M  V30 787 C 77.3251 -0.61944 1.57668 0
M  V30 788 O 78.5311 -0.51014 1.7262 0
M  V30 789 H 74.9061 0.059834 0.749616 0
M  V30 790 H 76.8771 1.07809 2.78244 0
M  V30 791 C 75.6261 -0.575733 3.429 0
M  V30 792 H 74.9491 0.0785582 3.99723 0
M  V30 793 H 76.3891 -0.951547 4.13185 0
M  V30 794 C 74.8481 -1.75044 2.87856 0
M  V30 795 O 75.3781 -2.84882 2.83205 0
M  V30 796 N 73.5841 -1.56903 2.44602 0
M  V30 797 H 73.1311 -0.675547 2.48584 0
M  V30 798 H 73.0891 -2.35652 2.08124 0
M  V30 799 N 76.8612 -1.46375 0.584142 0
M  V30 800 C 77.7942 -2.27351 -0.196676 0
M  V30 801 C 78.7722 -1.35715 -0.895561 0
M  V30 802 O 79.9562 -1.65126 -0.90916 0
M  V30 803 C 77.0832 -3.13486 -1.28235 0
M  V30 804 C 76.1292 -4.20896 -0.689145 0
M  V30 805 S 76.9622 -5.33299 0.48507 0
M  V30 806 C 78.1182 -6.23 -0.601767 0
M  V30 807 H 78.3512 -2.93228 0.490395 0
M  V30 808 H 75.8842 -1.49875 0.371071 0
M  V30 809 H 77.8422 -3.63676 -1.90395 0
M  V30 810 H 76.5032 -2.4692 -1.94138 0
M  V30 811 H 75.6962 -4.80997 -1.50527 0
M  V30 812 H 75.2982 -3.73726 -0.143181 0
M  V30 813 H 77.5902 -6.60979 -1.48705 0
M  V30 814 H 78.5332 -7.0809 -0.0374799 0
M  V30 815 H 78.9412 -5.57173 -0.906557 0
M  V30 816 N 78.3393 -0.321999 -1.54275 0
M  V30 817 C 79.7503 0.166384 -1.85957 0
M  V30 818 C 80.1013 1.51747 -1.24367 0
M  V30 819 O 79.2263 2.09317 -0.549124 0
M  V30 820 C 79.8213 0.308681 -3.37391 0
M  V30 821 C 78.3803 0.741286 -3.69028 0
M  V30 822 C 77.5273 -0.137937 -2.76957 0
M  V30 823 H 80.4783 -0.542335 -1.49146 0
M  V30 824 H 80.4993 1.13984 -3.63026 0
M  V30 825 H 80.0113 -0.674809 -3.82188 0
M  V30 826 H 78.1123 1.73458 -3.29762 0
M  V30 827 H 78.2253 0.546118 -4.75977 0
M  V30 828 H 76.5893 0.386251 -2.51754 0
M  V30 829 H 77.3723 -1.11816 -3.2458 0
M  V30 830 N 79.8174 1.5752 -0.0501392 0
M  V30 831 C 80.7274 2.14952 0.939827 0
M  V30 832 C 81.7434 1.10706 1.34239 0
M  V30 833 O 82.9194 1.42869 1.41952 0
M  V30 834 C 79.9844 2.68232 2.19665 0
M  V30 835 C 79.0454 3.87272 1.85253 0
M  V30 836 C 78.2784 4.38002 3.04943 0
M  V30 837 O 78.5014 3.87811 4.18281 0
M  V30 838 O 77.4354 5.29602 2.86017 0
M  V30 839 H 81.2614 2.9986 0.481392 0
M  V30 840 H 78.8464 1.4841 0.171699 0
M  V30 841 H 80.7284 3.02475 2.93406 0
M  V30 842 H 79.4034 1.86395 2.64648 0
M  V30 843 H 78.3104 3.5792 1.0883 0
M  V30 844 H 79.6434 4.70336 1.4507 0
M  V30 845 N 81.2955 -0.223234 1.56011 0
M  V30 846 C 82.5725 -0.972108 1.69733 0
M  V30 847 C 82.9525 -2.02485 0.59691 0
M  V30 848 O 82.3005 -2.25037 -0.396324 0
M  V30 849 C 82.5105 -1.58407 3.10979 0
M  V30 850 C 83.8585 -2.07696 3.70334 0
M  V30 851 O 84.8825 -1.68304 3.1393 0
M  V30 852 O 83.7415 -2.80096 4.69264 0
M  V30 853 H 80.8355 -0.453993 0.691245 0
M  V30 854 H 83.3815 -0.215149 1.68331 0
M  V30 855 H 82.1535 -0.823831 3.82529 0
M  V30 856 H 81.7765 -2.40661 3.16493 0
M  V30 857 N 82.7736 -1.49793 -0.48987 0
M  V30 858 C 84.0036 -1.6333 -1.26518 0
M  V30 859 C 84.4116 -0.308392 -1.8667 0
M  V30 860 O 83.7546 0.717512 -1.69108 0
M  V30 861 C 83.8166 -2.6522 -2.4269 0
M  V30 862 C 83.4806 -4.09279 -2.03321 0
M  V30 863 C 84.4776 -4.95738 -1.56652 0
M  V30 864 C 82.1626 -4.55082 -2.12616 0
M  V30 865 C 84.1566 -6.26041 -1.19795 0
M  V30 866 C 81.8436 -5.85396 -1.75371 0
M  V30 867 C 82.8416 -6.707 -1.29036 0
M  V30 868 O 82.5296 -7.98584 -0.92299 0
M  V30 869 H 82.2616 -0.552502 -0.389509 0
M  V30 870 H 84.8156 -1.96642 -0.593381 0
M  V30 871 H 83.0456 -2.27112 -3.12981 0
M  V30 872 H 84.7346 -2.68171 -3.04695 0
M  V30 873 H 85.5006 -4.61575 -1.48908 0
M  V30 874 H 81.3796 -3.88844 -2.47631 0
M  V30 875 H 84.9236 -6.92578 -0.835582 0
M  V30 876 H 80.8206 -6.19085 -1.82768 0
M  V30 877 H 81.5886 -8.11692 -1.05349 0
M  V30 878 N 84.2517 0.741722 -1.39055 0
M  V30 879 C 85.6627 1.31966 -1.32068 0
M  V30 880 C 86.0137 1.96192 0.0180797 0
M  V30 881 O 85.1387 1.95861 0.920196 0
M  V30 882 C 85.7337 2.39954 -2.39181 0
M  V30 883 C 84.2927 2.93438 -2.35735 0
M  V30 884 C 83.4397 1.66936 -2.21422 0
M  V30 885 H 86.3907 0.539721 -1.4924 0
M  V30 886 H 86.4117 3.20182 -2.05581 0
M  V30 887 H 85.9237 1.9318 -3.36605 0
M  V30 888 H 84.0247 3.4451 -1.41929 0
M  V30 889 H 84.1377 3.4701 -3.30335 0
M  V30 890 H 82.5017 1.91016 -1.68478 0
M  V30 891 H 83.2847 1.22224 -3.20806 0
M  V30 892 N 85.7298 1.2412 0.971189 0
M  V30 893 C 87.0068 0.986867 1.6888 0
M  V30 894 C 87.3868 -0.491857 2.0529 0
M  V30 895 O 86.7348 -1.46531 1.75331 0
M  V30 896 C 86.9448 1.9063 2.92338 0
M  V30 897 C 88.2928 2.17515 3.64654 0
M  V30 898 O 89.3168 1.88254 3.02388 0
M  V30 899 O 88.1758 2.6719 4.7673 0
M  V30 900 H 85.2698 0.372944 0.738134 0
M  V30 901 H 87.8158 1.35203 1.02559 0
M  V30 902 H 86.5878 2.90552 2.62097 0
M  V30 903 H 86.2108 1.54408 3.66393 0
M  V30 904 N 87.2079 -1.17134 1.05439 0
M  V30 905 C 88.1399 -2.2078 0.615539 0
M  V30 906 C 89.1529 -1.59584 -0.322001 0
M  V30 907 O 90.3419 -1.78133 -0.114344 0
M  V30 908 C 87.4419 -3.38691 -0.118938 0
M  V30 909 C 86.6149 -4.29454 0.829924 0
M  V30 910 C 85.6739 -5.26024 0.136258 0
M  V30 911 O 84.6999 -5.63952 0.77115 0
M  V30 912 N 85.9019 -5.69487 -1.1254 0
M  V30 913 H 88.6669 -2.59052 1.50705 0
M  V30 914 H 86.2279 -1.32058 0.936603 0
M  V30 915 H 88.2199 -4.00329 -0.593179 0
M  V30 916 H 86.7899 -2.98996 -0.91215 0
M  V30 917 H 86.0099 -3.65211 1.48373 0
M  V30 918 H 87.2979 -4.86984 1.47392 0
M  V30 919 H 86.6959 -5.4075 -1.6615 0
M  V30 920 H 85.2529 -6.33257 -1.54366 0
M  V30 921 N 88.686 -0.835752 -1.33615 0
M  V30 922 C 89.933 -0.429959 -1.97883 0
M  V30 923 C 90.261 1.01006 -1.66217 0
M  V30 924 O 89.516 1.72047 -0.93265 0
M  V30 925 C 89.815 -0.593925 -3.52431 0
M  V30 926 C 89.481 -2.00158 -4.04039 0
M  V30 927 C 88.143 -2.38662 -4.17844 0
M  V30 928 C 90.495 -2.92117 -4.31644 0
M  V30 929 C 87.823 -3.68435 -4.56588 0
M  V30 930 C 90.175 -4.21368 -4.71838 0
M  V30 931 C 88.839 -4.59833 -4.83849 0
M  V30 932 H 88.109 -0.157333 -0.724104 0
M  V30 933 H 90.756 -1.06217 -1.59343 0
M  V30 934 H 89.061 0.121619 -3.91611 0
M  V30 935 H 90.758 -0.260282 -4.00154 0
M  V30 936 H 87.348 -1.69252 -3.93766 0
M  V30 937 H 91.532 -2.63608 -4.20505 0
M  V30 938 H 86.788 -3.98046 -4.64079 0
M  V30 939 H 90.962 -4.92703 -4.92155 0
M  V30 940 H 88.589 -5.60438 -5.13627 0
M  V30 941 N 90.1641 1.46063 -0.591896 0
M  V30 942 C 91.4411 1.95595 -0.0137119 0
M  V30 943 C 91.8211 1.5345 1.4497 0
M  V30 944 O 91.1691 0.789543 2.14426 0
M  V30 945 C 91.3791 3.48453 -0.195373 0
M  V30 946 C 92.7271 4.24546 -0.0679765 0
M  V30 947 O 93.7511 3.55982 -0.124681 0
M  V30 948 O 92.6101 5.46467 0.0600579 0
M  V30 949 H 89.7041 0.825795 0.0446279 0
M  V30 950 H 92.2501 1.56303 -0.660859 0
M  V30 951 H 91.0221 3.72045 -1.21235 0
M  V30 952 H 90.6451 3.94597 0.487775 0
M  V30 953 N 91.6422 0.330177 1.54103 0
M  V30 954 C 92.9192 -0.325007 1.92881 0
M  V30 955 C 93.2992 -1.6934 1.26045 0
M  V30 956 O 92.6472 -2.24855 0.406526 0
M  V30 957 C 92.8572 -0.410634 3.46576 0
M  V30 958 C 94.2052 -0.667801 4.19316 0
M  V30 959 O 95.2292 -0.49329 3.52768 0
M  V30 960 O 94.0882 -1.00491 5.37181 0
M  V30 961 H 91.1822 -0.186873 0.80561 0
M  V30 962 H 93.7282 0.380376 1.65382 0
M  V30 963 H 92.5002 0.550164 3.87413 0
M  V30 964 H 92.1232 -1.16333 3.802 0
M  V30 965 N 93.1203 -1.57491 0.0584922 0
M  V30 966 C 94.3663 -1.93264 -0.614558 0
M  V30 967 C 94.6993 -0.937717 -1.7006 0
M  V30 968 O 93.9743 0.0351652 -1.94468 0
M  V30 969 C 94.2573 -3.3938 -1.20386 0
M  V30 970 C 94.1103 -4.49625 -0.125375 0
M  V30 971 C 95.4293 -3.86039 -2.11334 0
M  V30 972 H 92.5483 -0.702791 -0.221933 0
M  V30 973 H 95.1903 -1.8961 0.12175 0
M  V30 974 H 93.3403 -3.42626 -1.83139 0
M  V30 975 H 95.0123 -4.58506 0.506971 0
M  V30 976 H 93.2553 -4.30354 0.545672 0
M  V30 977 H 93.9263 -5.48967 -0.577861 0
M  V30 978 H 96.4023 -3.84716 -1.58534 0
M  V30 979 H 95.2783 -4.88914 -2.49507 0
M  V30 980 H 95.5393 -3.23215 -3.01636 0
M  V30 981 N 94.5984 0.214957 -1.56127 0
M  V30 982 C 95.5314 1.29382 -1.87977 0
M  V30 983 C 96.5094 1.44897 -0.737807 0
M  V30 984 O 97.6934 1.60605 -0.986833 0
M  V30 985 C 94.8204 2.66325 -2.09258 0
M  V30 986 C 93.8664 2.67789 -3.31951 0
M  V30 987 S 94.6994 2.21198 -4.8768 0
M  V30 988 C 95.8554 3.60003 -5.12004 0
M  V30 989 H 96.0884 1.02173 -2.79192 0
M  V30 990 H 93.6214 0.417516 -1.48648 0
M  V30 991 H 95.5794 3.45162 -2.22201 0
M  V30 992 H 94.2404 2.90755 -1.18829 0
M  V30 993 H 93.4334 3.68436 -3.43906 0
M  V30 994 H 93.0354 1.9702 -3.17898 0
M  V30 995 H 95.3274 4.55739 -5.01307 0
M  V30 996 H 96.2704 3.52959 -6.13861 0
M  V30 997 H 96.6784 3.53996 -4.39712 0
M  V30 998 N 96.0765 1.50051 0.48192 0
M  V30 999 C 97.3535 1.51009 1.2432 0
M  V30 1000 C 97.7335 0.248587 2.09631 0
M  V30 1001 O 97.0815 -0.768409 2.15192 0
M  V30 1002 C 97.2915 2.79981 2.08355 0
M  V30 1003 C 98.6395 3.3022 2.66908 0
M  V30 1004 O 99.6635 2.81228 2.18607 0
M  V30 1005 O 98.5225 4.15595 3.54884 0
M  V30 1006 H 95.6165 0.605239 0.563573 0
M  V30 1007 H 98.1625 1.62332 0.494627 0
M  V30 1008 H 96.9345 3.63275 1.45419 0
M  V30 1009 H 96.5575 2.7161 2.90368 0
M  V30 1010 N 97.5546 -0.734337 1.39446 0
M  V30 1011 C 98.8016 -1.49391 1.36706 0
M  V30 1012 C 99.1296 -1.94465 -0.0367813 0
M  V30 1013 O 98.3846 -1.67154 -1.01774 0
M  V30 1014 C 98.6836 -2.74711 2.28623 0
M  V30 1015 C 98.3496 -2.48501 3.76242 0
M  V30 1016 C 97.0116 -2.41062 4.16464 0
M  V30 1017 C 99.3636 -2.26098 4.69606 0
M  V30 1018 C 96.6916 -2.09262 5.48112 0
M  V30 1019 C 99.0436 -1.95814 6.01531 0
M  V30 1020 C 97.7076 -1.86845 6.40816 0
M  V30 1021 H 96.9776 -0.546661 0.500243 0
M  V30 1022 H 99.6246 -0.842788 1.71957 0
M  V30 1023 H 97.9296 -3.44569 1.86492 0
M  V30 1024 H 99.6266 -3.32741 2.23796 0
M  V30 1025 H 96.2166 -2.55169 3.44364 0
M  V30 1026 H 100.401 -2.30812 4.39363 0
M  V30 1027 H 95.6566 -2.00841 5.77471 0
M  V30 1028 H 99.8306 -1.77488 6.73403 0
M  V30 1029 H 97.4576 -1.6197 7.42745 0
M  V30 1030 N 99.0327 -1.24633 -0.964593 0
M  V30 1031 C 100.282 -1.08188 -1.7023 0
M  V30 1032 C 100.595 0.37873 -1.91898 0
M  V30 1033 O 101.801 0.663427 -2.6327 0
M  V30 1034 C 100.257 -1.88773 -3.06419 0
M  V30 1035 C 99.8647 -3.39263 -2.92582 0
M  V30 1036 C 101.609 -1.80867 -3.84041 0
M  V30 1037 C 99.5157 -4.1218 -4.24101 0
M  V30 1038 H 98.4457 -0.401245 -0.638372 0
M  V30 1039 H 101.097 -1.48742 -1.07462 0
M  V30 1040 H 99.4787 -1.41035 -3.70034 0
M  V30 1041 H 100.653 -3.94603 -2.37961 0
M  V30 1042 H 98.9677 -3.48154 -2.28424 0
M  V30 1043 H 101.565 -2.32646 -4.81435 0
M  V30 1044 H 101.908 -0.774543 -4.09031 0
M  V30 1045 H 102.441 -2.26301 -3.27159 0
M  V30 1046 H 99.1797 -5.15965 -4.04303 0
M  V30 1047 H 98.6997 -3.61626 -4.78526 0
M  V30 1048 H 100.379 -4.19349 -4.92702 0
M  V30 1049 N 100.511 1.16574 -1.06058 0
M  V30 1050 C 101.443 2.2045 -0.627239 0
M  V30 1051 C 102.456 1.59752 0.313534 0
M  V30 1052 O 103.645 1.78192 0.104896 0
M  V30 1053 C 100.745 3.3875 0.100974 0
M  V30 1054 C 99.9178 4.29008 -0.852687 0
M  V30 1055 C 98.9768 5.25944 -0.164152 0
M  V30 1056 O 98.0028 5.63535 -0.801047 0
M  V30 1057 N 99.2048 5.70075 1.09518 0
M  V30 1058 H 101.97 2.58249 -1.52077 0
M  V30 1059 H 99.5308 1.3156 -0.943594 0
M  V30 1060 H 101.523 4.00638 0.57194 0
M  V30 1061 H 100.093 2.99476 0.89628 0
M  V30 1062 H 99.3128 3.64419 -1.50308 0
M  V30 1063 H 100.601 4.86195 -1.49972 0
M  V30 1064 H 99.9988 5.41624 1.6328 0
M  V30 1065 H 98.5558 6.34067 1.51006 0
M  V30 1066 N 101.989 0.842826 1.3317 0
M  V30 1067 C 102.952 0.284065 2.27433 0
M  V30 1068 C 103.952 -0.54948 1.5112 0
M  V30 1069 O 105.142 -0.362699 1.70382 0
M  V30 1070 C 102.274 -0.599384 3.35589 0
M  V30 1071 H 103.467 1.11589 2.78366 0
M  V30 1072 H 101.02 0.616221 1.4364 0
M  V30 1073 H 101.755 -1.45349 2.89904 0
M  V30 1074 H 101.54 -0.00291266 3.921 0
M  V30 1075 H 103.03 -0.983488 4.05854 0
M  V30 1076 N 103.467 -1.45747 0.599634 0
M  V30 1077 C 104.695 -2.06668 0.0978551 0
M  V30 1078 C 105.11 -1.44562 -1.21439 0
M  V30 1079 O 104.467 -0.556923 -1.73795 0
M  V30 1080 C 104.518 -3.61456 -0.0567044 0
M  V30 1081 O 104.239 -4.21242 1.20361 0
M  V30 1082 C 105.74 -4.39345 -0.590869 0
M  V30 1083 H 102.96 -0.667825 0.0651943 0
M  V30 1084 H 105.504 -1.87115 0.82511 0
M  V30 1085 H 103.659 -3.80378 -0.734251 0
M  V30 1086 H 104.073 -5.14323 1.02821 0
M  V30 1087 H 105.547 -5.48182 -0.648131 0
M  V30 1088 H 106.024 -4.08568 -1.61147 0
M  V30 1089 H 106.63 -4.25268 0.0523679 0
M  V30 1090 N 104.945 -0.338344 -1.53925 0
M  V30 1091 C 106.194 0.260732 -2.00008 0
M  V30 1092 C 106.507 1.52073 -1.23017 0
M  V30 1093 O 107.713 2.19672 -1.5955 0
M  V30 1094 C 106.169 0.51515 -3.56194 0
M  V30 1095 C 105.777 -0.728645 -4.42035 0
M  V30 1096 C 107.521 1.07337 -4.10706 0
M  V30 1097 C 105.428 -0.445315 -5.89721 0
M  V30 1098 H 104.358 0.101205 -0.747177 0
M  V30 1099 H 107.009 -0.452866 -1.77824 0
M  V30 1100 H 105.391 1.28932 -3.74423 0
M  V30 1101 H 106.565 -1.50352 -4.35581 0
M  V30 1102 H 104.88 -1.20813 -3.98489 0
M  V30 1103 H 107.477 1.30022 -5.18651 0
M  V30 1104 H 107.82 2.0273 -3.63602 0
M  V30 1105 H 108.353 0.360034 -3.96167 0
M  V30 1106 H 105.092 -1.36883 -6.41049 0
M  V30 1107 H 104.612 0.291569 -5.99091 0
M  V30 1108 H 106.291 -0.0606218 -6.46972 0
M  V30 1109 N 106.423 1.57458 -0.0668435 0
M  V30 1110 C 107.37 2.12439 0.902122 0
M  V30 1111 C 108.34 1.03565 1.2986 0
M  V30 1112 O 109.525 1.312 1.38532 0
M  V30 1113 C 106.665 2.6865 2.16614 0
M  V30 1114 C 105.778 3.91663 1.82274 0
M  V30 1115 C 104.913 4.36134 3.0325 0
M  V30 1116 C 103.952 5.51808 2.64904 0
M  V30 1117 N 103.089 5.9126 3.78624 0
M  V30 1118 H 107.929 2.94934 0.426382 0
M  V30 1119 H 105.466 1.4575 0.198819 0
M  V30 1120 H 107.424 2.99346 2.90599 0
M  V30 1121 H 106.054 1.88928 2.61737 0
M  V30 1122 H 105.106 3.6746 0.983719 0
M  V30 1123 H 106.418 4.75693 1.50059 0
M  V30 1124 H 105.572 4.68465 3.85519 0
M  V30 1125 H 104.311 3.50948 3.38655 0
M  V30 1126 H 103.316 5.19133 1.81055 0
M  V30 1127 H 104.541 6.38722 2.30675 0
M  V30 1128 H 102.487 5.09024 4.138 0
M  V30 1129 H 102.404 6.70018 3.5016 0
M  V30 1130 H 103.672 6.28212 4.61486 0
M  V30 1131 N 107.901 -0.206675 1.56239 0
M  V30 1132 C 109.317 -0.557025 1.49564 0
M  V30 1133 C 109.517 -1.86424 0.764735 0
M  V30 1134 O 108.573 -2.50584 0.310491 0
M  V30 1135 C 109.886 -0.622478 2.94186 0
M  V30 1136 C 111.434 -0.712099 3.04792 0
M  V30 1137 C 111.909 -0.808767 4.50803 0
M  V30 1138 N 113.4 -0.8726 4.54907 0
M  V30 1139 C 114.135 -0.967365 5.65181 0
M  V30 1140 N 113.631 -1.02515 6.85173 0
M  V30 1141 N 115.424 -1.00366 5.53067 0
M  V30 1142 H 107.575 0.650943 2.02179 0
M  V30 1143 H 109.838 0.230387 0.919579 0
M  V30 1144 H 109.544 0.268727 3.50672 0
M  V30 1145 H 109.418 -1.4811 3.46905 0
M  V30 1146 H 111.805 -1.59374 2.48363 0
M  V30 1147 H 111.886 0.172489 2.55218 0
M  V30 1148 H 111.53 0.0684754 5.07854 0
M  V30 1149 H 111.46 -1.70899 4.98098 0
M  V30 1150 H 113.951 -0.837657 3.68499 0
M  V30 1151 H 114.264 -1.09765 7.64965 0
M  V30 1152 H 112.609 -0.994026 6.87855 0
M  V30 1153 H 115.8 -0.95527 4.58249 0
M  V30 1154 H 115.973 -1.07405 6.39037 0
M  V30 1155 N 109.379 -1.50304 -0.473955 0
M  V30 1156 C 110.309 -1.71886 -1.58042 0
M  V30 1157 C 111.29 -0.567799 -1.60344 0
M  V30 1158 O 112.475 -0.806623 -1.76656 0
M  V30 1159 C 109.605 -1.81036 -2.96384 0
M  V30 1160 C 108.559 -2.962 -3.08949 0
M  V30 1161 C 107.885 -2.9049 -4.48909 0
M  V30 1162 C 109.185 -4.36752 -2.86434 0
M  V30 1163 H 110.879 -2.64527 -1.40234 0
M  V30 1164 H 108.425 -1.27295 -0.673201 0
M  V30 1165 H 110.378 -1.94719 -3.73714 0
M  V30 1166 H 109.102 -0.850147 -3.15341 0
M  V30 1167 H 107.761 -2.82164 -2.3405 0
M  V30 1168 H 107.409 -1.92321 -4.64781 0
M  V30 1169 H 107.109 -3.67802 -4.58253 0
M  V30 1170 H 108.633 -3.06218 -5.28264 0
M  V30 1171 H 110.047 -4.5133 -3.53517 0
M  V30 1172 H 108.444 -5.15493 -3.07225 0
M  V30 1173 H 109.514 -4.49321 -1.82316 0
M  V30 1174 N 110.857 0.726932 -1.39834 0
M  V30 1175 C 111.804 1.841 -1.39197 0
M  V30 1176 C 112.774 1.642 -0.250502 0
M  V30 1177 O 113.959 1.85494 -0.446846 0
M  V30 1178 C 111.099 3.21697 -1.24919 0
M  V30 1179 C 110.212 3.53247 -2.48678 0
M  V30 1180 C 109.347 4.80289 -2.26928 0
M  V30 1181 C 108.386 5.04707 -3.4632 0
M  V30 1182 N 107.523 6.22956 -3.23836 0
M  V30 1183 H 112.363 1.83979 -2.34427 0
M  V30 1184 H 109.9 0.898876 -1.16442 0
M  V30 1185 H 111.858 4.01137 -1.1465 0
M  V30 1186 H 110.488 3.21076 -0.333153 0
M  V30 1187 H 109.54 2.68447 -2.69519 0
M  V30 1188 H 110.852 3.67205 -3.37582 0
M  V30 1189 H 110.006 5.67725 -2.13947 0
M  V30 1190 H 108.745 4.68519 -1.35431 0
M  V30 1191 H 107.75 4.1573 -3.5979 0
M  V30 1192 H 108.975 5.18357 -4.38729 0
M  V30 1193 H 106.921 6.12459 -2.35011 0
M  V30 1194 H 106.838 6.37539 -4.063 0
M  V30 1195 H 108.106 7.1321 -3.14566 0
M  V30 1196 N 112.336 1.25143 0.95797 0
M  V30 1197 C 113.752 1.01892 1.22842 0
M  V30 1198 C 113.952 -0.266311 1.99732 0
M  V30 1199 O 113.008 -0.979913 2.3271 0
M  V30 1200 C 114.321 2.24004 2.00606 0
M  V30 1201 C 115.869 2.28731 2.13662 0
M  V30 1202 C 116.344 3.5049 2.94823 0
M  V30 1203 N 117.835 3.50866 3.02403 0
M  V30 1204 C 118.57 4.4174 3.65586 0
M  V30 1205 N 118.066 5.42882 4.30408 0
M  V30 1206 N 119.859 4.29429 3.62694 0
M  V30 1207 H 112.01 2.07718 0.443493 0
M  V30 1208 H 114.273 0.912031 0.258657 0
M  V30 1209 H 113.979 3.17395 1.51503 0
M  V30 1210 H 113.853 2.26907 3.01319 0
M  V30 1211 H 116.24 1.35865 2.61963 0
M  V30 1212 H 116.321 2.29848 1.12265 0
M  V30 1213 H 115.965 4.43676 2.47213 0
M  V30 1214 H 115.895 3.46617 3.96439 0
M  V30 1215 H 118.386 2.777 2.56302 0
M  V30 1216 H 118.699 6.0844 4.76467 0
M  V30 1217 H 117.044 5.46758 4.29047 0
M  V30 1218 H 120.235 3.49643 3.11236 0
M  V30 1219 H 120.408 5.00448 4.1165 0
M  V30 1220 N 113.814 -1.1601 1.06675 0
M  V30 1221 C 115.039 -1.91068 0.806706 0
M  V30 1222 C 115.464 -1.77112 -0.633485 0
M  V30 1223 O 114.822 -1.09908 -1.44187 0
M  V30 1224 C 114.87 -3.39655 1.21106 0
M  V30 1225 O 113.974 -4.10893 0.352189 0
M  V30 1226 H 113.315 -0.595125 0.294486 0
M  V30 1227 H 115.845 -1.46955 1.42356 0
M  V30 1228 H 115.855 -3.90434 1.18428 0
M  V30 1229 H 114.53 -3.49132 2.26008 0
M  V30 1230 H 113.107 -3.70285 0.440868 0
M  V30 1231 N 115.292 -0.849877 -1.32721 0
M  V30 1232 C 116.703 -0.506188 -1.79707 0
M  V30 1233 C 117.054 0.975627 -1.70223 0
M  V30 1234 O 116.179 1.76078 -1.25799 0
M  V30 1235 C 116.774 -0.912044 -3.26293 0
M  V30 1236 C 115.333 -0.620326 -3.71253 0
M  V30 1237 C 114.48 -1.11439 -2.53922 0
M  V30 1238 H 117.431 -1.03754 -1.20087 0
M  V30 1239 H 117.452 -0.226493 -3.79825 0
M  V30 1240 H 116.964 -1.99057 -3.33164 0
M  V30 1241 H 115.065 0.447674 -3.69901 0
M  V30 1242 H 115.178 -1.18327 -4.64258 0
M  V30 1243 H 113.542 -0.534834 -2.49021 0
M  V30 1244 H 114.325 -2.19992 -2.6355 0
M  V30 1245 N 116.77 1.45427 -0.607355 0
M  V30 1246 C 118.047 1.9557 -0.0344566 0
M  V30 1247 C 118.427 1.54979 1.43334 0
M  V30 1248 O 117.775 0.812241 2.13576 0
M  V30 1249 C 117.985 3.48226 -0.232321 0
M  V30 1250 C 119.333 4.2445 -0.113001 0
M  V30 1251 O 120.357 3.55829 -0.162431 0
M  V30 1252 O 119.216 5.465 0.00209442 0
M  V30 1253 H 116.31 0.826222 0.0358667 0
M  V30 1254 H 118.856 1.55594 -0.6774 0
M  V30 1255 H 117.628 3.70739 -1.25174 0
M  V30 1256 H 117.251 3.95092 0.445896 0
M  V30 1257 N 118.248 0.346503 1.53744 0
M  V30 1258 C 119.195 -0.508914 2.25119 0
M  V30 1259 C 120.165 -1.09315 1.25058 0
M  V30 1260 O 121.35 -1.12921 1.53797 0
M  V30 1261 C 118.49 -1.65246 3.02965 0
M  V30 1262 C 117.603 -1.09525 4.17886 0
M  V30 1263 C 116.738 -2.20634 4.83212 0
M  V30 1264 C 115.777 -1.62279 5.90196 0
M  V30 1265 N 114.914 -2.67143 6.49291 0
M  V30 1266 H 119.754 0.106283 2.9781 0
M  V30 1267 H 117.291 0.0642227 1.4696 0
M  V30 1268 H 119.249 -2.32574 3.4636 0
M  V30 1269 H 117.879 -2.2386 2.32565 0
M  V30 1270 H 116.931 -0.312818 3.79112 0
M  V30 1271 H 118.243 -0.628444 4.94825 0
M  V30 1272 H 117.397 -2.95821 5.29693 0
M  V30 1273 H 116.136 -2.70659 4.05703 0
M  V30 1274 H 115.141 -0.855989 5.43096 0
M  V30 1275 H 116.366 -1.13102 6.69615 0
M  V30 1276 H 114.312 -3.16417 5.74645 0
M  V30 1277 H 114.229 -2.25093 7.21713 0
M  V30 1278 H 115.497 -3.4209 7.00425 0
M  V30 1279 N 119.726 -1.57421 0.075193 0
M  V30 1280 C 120.658 -2.09904 -0.920483 0
M  V30 1281 C 121.671 -1.03191 -1.25918 0
M  V30 1282 O 122.86 -1.30695 -1.21577 0
M  V30 1283 C 119.96 -2.54726 -2.23534 0
M  V30 1284 C 119.133 -3.8505 -2.07498 0
M  V30 1285 C 118.192 -4.15929 -3.22319 0
M  V30 1286 O 117.218 -4.85474 -2.9716 0
M  V30 1287 N 118.42 -3.69745 -4.47514 0
M  V30 1288 H 121.185 -2.95954 -0.472359 0
M  V30 1289 H 118.746 -1.61523 -0.110444 0
M  V30 1290 H 120.738 -2.72443 -2.9926 0
M  V30 1291 H 119.308 -1.73795 -2.59835 0
M  V30 1292 H 118.528 -3.76679 -1.16219 0
M  V30 1293 H 119.816 -4.70348 -1.94038 0
M  V30 1294 H 119.214 -3.13569 -4.7084 0
M  V30 1295 H 117.771 -3.92655 -5.20255 0
M  V30 1296 N 121.204 0.198386 -1.56346 0
M  V30 1297 C 122.137 1.27381 -1.89339 0
M  V30 1298 C 123.115 1.44106 -0.753134 0
M  V30 1299 O 124.299 1.59549 -1.00381 0
M  V30 1300 C 121.426 2.6409 -2.12071 0
M  V30 1301 C 120.472 2.64253 -3.34772 0
M  V30 1302 S 121.305 2.16013 -4.89999 0
M  V30 1303 C 122.461 3.54553 -5.15794 0
M  V30 1304 H 122.694 0.992058 -2.8026 0
M  V30 1305 H 120.227 0.401726 -1.49082 0
M  V30 1306 H 122.185 3.42786 -2.2585 0
M  V30 1307 H 120.846 2.89478 -1.21906 0
M  V30 1308 H 120.039 3.64768 -3.47794 0
M  V30 1309 H 119.641 1.93637 -3.1997 0
M  V30 1310 H 121.933 4.50396 -5.06112 0
M  V30 1311 H 122.876 3.46428 -6.1757 0
M  V30 1312 H 123.284 3.49313 -4.43442 0
M  V30 1313 N 122.682 1.50554 0.465978 0
M  V30 1314 C 123.645 1.69233 1.54574 0
M  V30 1315 C 124.645 0.562901 1.50626 0
M  V30 1316 O 125.835 0.830016 1.53155 0
M  V30 1317 C 122.967 1.7223 2.94193 0
M  V30 1318 H 124.16 2.65571 1.39327 0
M  V30 1319 H 121.713 1.40111 0.692711 0
M  V30 1320 H 122.448 0.77603 3.14878 0
M  V30 1321 H 122.233 2.54285 2.98466 0
M  V30 1322 H 123.723 1.88618 3.72576 0
M  V30 1323 N 124.16 -0.719506 1.40217 0
M  V30 1324 C 125.406 -1.48152 1.38488 0
M  V30 1325 C 125.739 -1.94195 -0.0141867 0
M  V30 1326 O 125.014 -1.67884 -0.982096 0
M  V30 1327 C 125.297 -2.71035 2.37091 0
M  V30 1328 C 125.15 -2.30912 3.86005 0
M  V30 1329 C 126.469 -3.73182 2.33288 0
M  V30 1330 H 123.588 -0.537395 0.504357 0
M  V30 1331 H 126.23 -0.821472 1.71324 0
M  V30 1332 H 124.38 -3.27352 2.0922 0
M  V30 1333 H 126.052 -1.80107 4.24687 0
M  V30 1334 H 124.295 -1.62958 4.02029 0
M  V30 1335 H 124.966 -3.18978 4.50508 0
M  V30 1336 H 127.442 -3.26485 2.57966 0
M  V30 1337 H 126.318 -4.56806 3.04334 0
M  V30 1338 H 126.579 -4.21202 1.34317 0
M  V30 1339 N 125.638 -1.25649 -0.95132 0
M  V30 1340 C 126.568 -1.08808 -2.06599 0
M  V30 1341 C 127.549 0.00382547 -1.701 0
M  V30 1342 O 128.734 -0.166325 -1.93486 0
M  V30 1343 C 125.864 -0.709542 -3.39975 0
M  V30 1344 C 124.818 -1.75206 -3.90496 0
M  V30 1345 C 124.144 -1.22811 -5.20405 0
M  V30 1346 C 125.444 -3.15153 -4.16504 0
M  V30 1347 H 127.138 -2.02048 -2.20946 0
M  V30 1348 H 124.684 -0.972835 -1.06169 0
M  V30 1349 H 126.637 -0.578649 -4.17408 0
M  V30 1350 H 125.361 0.258556 -3.25575 0
M  V30 1351 H 124.02 -1.87145 -3.15234 0
M  V30 1352 H 123.668 -0.250145 -5.02378 0
M  V30 1353 H 123.368 -1.92492 -5.55176 0
M  V30 1354 H 124.892 -1.10968 -6.00432 0
M  V30 1355 H 126.306 -3.06349 -4.84586 0
M  V30 1356 H 124.703 -3.82333 -4.62538 0
M  V30 1357 H 125.773 -3.61966 -3.22658 0
M  V30 1358 N 127.117 1.15442 -1.07289 0
M  V30 1359 C 128.528 1.67803 -0.818475 0
M  V30 1360 C 128.879 1.8489 0.656507 0
M  V30 1361 O 128.004 1.55176 1.50829 0
M  V30 1362 C 128.599 3.04805 -1.47917 0
M  V30 1363 C 127.158 3.54245 -1.27229 0
M  V30 1364 C 126.305 2.29986 -1.54925 0
M  V30 1365 H 129.256 0.996646 -1.23502 0
M  V30 1366 H 129.277 3.69702 -0.90005 0
M  V30 1367 H 128.789 2.92336 -2.55267 0
M  V30 1368 H 126.89 3.71956 -0.21899 0
M  V30 1369 H 127.003 4.35723 -1.99203 0
M  V30 1370 H 125.367 2.35496 -0.970242 0
M  V30 1371 H 126.15 2.20105 -2.63455 0
M  V30 1372 N 128.595 0.856903 1.32268 0
M  V30 1373 C 130.011 0.547061 1.49931 0
M  V30 1374 C 130.211 -0.921781 1.7918 0
M  V30 1375 O 129.267 -1.70469 1.8627 0
M  V30 1376 C 130.58 1.43599 2.64196 0
M  V30 1377 C 132.128 1.43665 2.78081 0
M  V30 1378 C 132.603 2.31085 3.95428 0
M  V30 1379 N 134.094 2.28893 4.02694 0
M  V30 1380 C 134.829 2.93262 4.92732 0
M  V30 1381 N 134.325 3.66751 5.87763 0
M  V30 1382 N 136.118 2.82638 4.85873 0
M  V30 1383 H 128.269 1.8075 1.11549 0
M  V30 1384 H 130.532 0.772144 0.549997 0
M  V30 1385 H 130.238 2.48058 2.49319 0
M  V30 1386 H 130.112 1.12502 3.60032 0
M  V30 1387 H 132.499 0.399701 2.92381 0
M  V30 1388 H 132.58 1.7878 1.82952 0
M  V30 1389 H 132.224 3.34849 3.81888 0
M  V30 1390 H 132.154 1.93302 4.89839 0
M  V30 1391 H 134.645 1.75466 3.34694 0
M  V30 1392 H 134.958 4.13027 6.53168 0
M  V30 1393 H 133.303 3.70859 5.87783 0
M  V30 1394 H 136.494 2.24774 4.10602 0
M  V30 1395 H 136.667 3.33084 5.55841 0
M  V30 1396 N 130.073 -1.45103 0.615059 0
M  V30 1397 C 131.489 -1.57137 0.279322 0
M  V30 1398 C 131.689 -1.60523 -1.21797 0
M  V30 1399 O 130.745 -1.53956 -2.00134 0
M  V30 1400 C 132.058 -2.85062 0.957083 0
M  V30 1401 C 133.606 -2.98749 0.933706 0
M  V30 1402 C 134.081 -4.29455 1.59162 0
M  V30 1403 N 135.572 -4.36231 1.55746 0
M  V30 1404 C 136.307 -5.36051 2.0356 0
M  V30 1405 N 135.803 -6.42367 2.59494 0
M  V30 1406 N 137.596 -5.27456 1.94284 0
M  V30 1407 H 129.747 -1.41148 1.58717 0
M  V30 1408 H 132.01 -0.675331 0.665306 0
M  V30 1409 H 131.716 -2.88488 2.01166 0
M  V30 1410 H 131.59 -3.7407 0.48494 0
M  V30 1411 H 133.977 -2.94886 -0.112347 0
M  V30 1412 H 134.058 -2.11132 1.44419 0
M  V30 1413 H 133.702 -4.34077 2.63704 0
M  V30 1414 H 133.632 -5.15901 1.0561 0
M  V30 1415 H 136.123 -3.60011 1.14893 0
M  V30 1416 H 136.436 -7.14793 2.93752 0
M  V30 1417 H 134.781 -6.43097 2.63537 0
M  V30 1418 H 137.972 -4.43308 1.5032 0
M  V30 1419 H 138.145 -6.05099 2.3186 0
M  V30 1420 N 131.551 -0.354651 -1.53558 0
M  V30 1421 C 132.461 0.50515 -2.29097 0
M  V30 1422 C 133.477 1.10223 -1.34636 0
M  V30 1423 O 134.653 1.11553 -1.67684 0
M  V30 1424 C 131.718 1.63479 -3.05738 0
M  V30 1425 C 130.779 1.06636 -4.15845 0
M  V30 1426 C 130.012 2.14217 -4.88822 0
M  V30 1427 O 130.235 3.35137 -4.61562 0
M  V30 1428 O 129.169 1.77887 -5.75013 0
M  V30 1429 H 132.995 -0.109237 -3.03503 0
M  V30 1430 H 130.58 -0.119357 -1.48922 0
M  V30 1431 H 132.462 2.2918 -3.5363 0
M  V30 1432 H 131.137 2.23478 -2.34178 0
M  V30 1433 H 130.044 0.373565 -3.7223 0
M  V30 1434 H 131.377 0.511081 -4.89539 0
M  V30 1435 N 133.029 1.57378 -0.0835403 0
M  V30 1436 C 134.445 1.57246 0.273109 0
M  V30 1437 C 134.645 1.09385 1.69225 0
M  V30 1438 O 133.701 0.765051 2.40631 0
M  V30 1439 C 135.014 3.00614 0.0720628 0
M  V30 1440 C 136.562 3.12684 0.1407 0
M  V30 1441 C 137.037 4.57989 -0.0322094 0
M  V30 1442 N 138.528 4.63194 0.0230085 0
M  V30 1443 C 139.263 5.73335 -0.0861941 0
M  V30 1444 N 138.759 6.9235 -0.24958 0
M  V30 1445 N 140.552 5.62093 -0.0282886 0
M  V30 1446 H 132.703 1.86801 -1.0109 0
M  V30 1447 H 134.966 0.861687 -0.395222 0
M  V30 1448 H 134.672 3.39786 -0.907662 0
M  V30 1449 H 134.546 3.68193 0.81936 0
M  V30 1450 H 136.933 2.73391 1.11092 0
M  V30 1451 H 137.014 2.47719 -0.637896 0
M  V30 1452 H 136.658 4.97973 -0.999247 0
M  V30 1453 H 136.588 5.21 0.765937 0
M  V30 1454 H 139.079 3.77613 0.14722 0
M  V30 1455 H 139.392 7.72117 -0.324733 0
M  V30 1456 H 137.737 6.94415 -0.285097 0
M  V30 1457 H 140.928 4.67997 0.0981408 0
M  V30 1458 H 141.101 6.47895 -0.116845 0
M  V30 1459 N 134.507 -0.190092 1.56449 0
M  V30 1460 C 135.455 -1.25501 1.95837 0
M  V30 1461 C 136.449 -1.4685 0.844485 0
M  V30 1462 O 137.655 -1.47651 1.02952 0
M  V30 1463 H 134.03 -0.421447 0.622805 0
M  V30 1464 H 136.001 -0.895821 2.84636 0
M  V30 1465 C 134.75 -2.59124 2.31841 0
M  V30 1466 H 134.073 -2.43514 3.17082 0
M  V30 1467 H 135.513 -3.32371 2.6326 0
M  V30 1468 C 133.972 -3.16488 1.15486 0
M  V30 1469 O 134.502 -3.99365 0.432535 0
M  V30 1470 N 132.708 -2.75305 0.930349 0
M  V30 1471 H 132.255 -2.08013 1.51948 0
M  V30 1472 H 132.213 -3.14024 0.153634 0
M  V30 1473 N 135.985 -1.50799 -0.457987 0
M  V30 1474 C 137.401 -1.38515 -0.792819 0
M  V30 1475 C 137.601 -0.451409 -1.96379 0
M  V30 1476 O 136.657 0.10112 -2.52297 0
M  V30 1477 C 137.97 -2.80149 -1.09258 0
M  V30 1478 C 139.518 -2.89156 -1.19825 0
M  V30 1479 C 139.993 -4.31651 -1.53106 0
M  V30 1480 N 141.484 -4.34662 -1.60072 0
M  V30 1481 C 142.219 -5.41928 -1.87354 0
M  V30 1482 N 141.715 -6.59384 -2.12568 0
M  V30 1483 N 143.508 -5.29385 -1.88965 0
M  V30 1484 H 135.659 -2.10073 0.313511 0
M  V30 1485 H 137.922 -0.944803 0.0777862 0
M  V30 1486 H 137.628 -3.50374 -0.305084 0
M  V30 1487 H 137.502 -3.18204 -2.02549 0
M  V30 1488 H 139.889 -2.19141 -1.97639 0
M  V30 1489 H 139.97 -2.54626 -0.244821 0
M  V30 1490 H 139.614 -5.02208 -0.758266 0
M  V30 1491 H 139.544 -4.63678 -2.49621 0
M  V30 1492 H 142.035 -3.49973 -1.42573 0
M  V30 1493 H 142.348 -7.36934 -2.32696 0
M  V30 1494 H 140.693 -6.62535 -2.09933 0
M  V30 1495 H 143.884 -4.36616 -1.68772 0
M  V30 1496 H 144.057 -6.13066 -2.09891 0
M  V30 1497 N 137.463 0.71206 -1.40597 0
M  V30 1498 C 138.395 1.83704 -1.37061 0
M  V30 1499 C 139.408 1.60453 -0.275426 0
M  V30 1500 O 140.597 1.70262 -0.53602 0
M  V30 1501 C 137.697 3.20172 -1.11099 0
M  V30 1502 C 136.87 3.7059 -2.3234 0
M  V30 1503 C 135.929 4.85681 -2.02485 0
M  V30 1504 O 134.955 4.9815 -2.75382 0
M  V30 1505 N 136.157 5.71735 -1.00497 0
M  V30 1506 H 138.922 1.87235 -2.34016 0
M  V30 1507 H 136.483 0.893739 -1.34996 0
M  V30 1508 H 138.475 3.94768 -0.891064 0
M  V30 1509 H 137.045 3.11767 -0.227989 0
M  V30 1510 H 136.265 2.87085 -2.7014 0
M  V30 1511 H 137.553 4.01011 -3.13157 0
M  V30 1512 H 136.951 5.64275 -0.401298 0
M  V30 1513 H 135.508 6.463 -0.844942 0
M  V30 1514 N 138.941 1.26152 0.944643 0
M  V30 1515 C 139.904 1.07474 2.0244 0
M  V30 1516 C 140.904 0.0242064 1.60782 0
M  V30 1517 O 142.094 0.267302 1.72137 0
M  V30 1518 C 139.226 0.633956 3.34953 0
M  V30 1519 H 140.419 2.03336 2.20442 0
M  V30 1520 H 137.972 1.087 1.12312 0
M  V30 1521 H 138.707 -0.326811 3.22649 0
M  V30 1522 H 138.492 1.39247 3.66542 0
M  V30 1523 H 139.982 0.52501 4.14287 0
M  V30 1524 N 140.419 -1.14872 1.07899 0
M  V30 1525 C 141.382 -2.17986 0.708161 0
M  V30 1526 C 142.382 -1.58775 -0.25442 0
M  V30 1527 O 143.572 -1.74166 -0.034645 0
M  V30 1528 C 140.704 -3.40871 0.0446929 0
M  V30 1529 H 141.897 -2.52306 1.62116 0
M  V30 1530 H 139.45 -1.2943 0.876218 0
M  V30 1531 H 140.185 -3.12124 -0.880281 0
M  V30 1532 H 139.97 -3.8511 0.737091 0
M  V30 1533 H 141.46 -4.17121 -0.19991 0
M  V30 1534 N 141.898 -0.863906 -1.31812 0
M  V30 1535 C 142.861 -0.320212 -2.26952 0
M  V30 1536 C 143.861 0.525369 -1.51975 0
M  V30 1537 O 145.051 0.335547 -1.70938 0
M  V30 1538 C 142.183 0.545919 -3.365 0
M  V30 1539 H 143.376 -1.16004 -2.76556 0
M  V30 1540 H 140.929 -0.638995 -1.42641 0
M  V30 1541 H 141.664 1.40718 -2.92179 0
M  V30 1542 H 141.449 -0.0594674 -3.92055 0
M  V30 1543 H 142.939 0.918796 -4.07367 0
M  V30 1544 N 143.376 1.44774 -0.622745 0
M  V30 1545 C 144.339 2.29069 0.0774015 0
M  V30 1546 C 145.339 1.4059 0.780461 0
M  V30 1547 O 146.529 1.62551 0.626322 0
M  V30 1548 C 143.661 3.21974 1.12006 0
M  V30 1549 H 144.854 2.92459 -0.663901 0
M  V30 1550 H 142.407 1.51548 -0.382486 0
M  V30 1551 H 143.142 2.63417 1.89162 0
M  V30 1552 H 142.927 3.87168 0.619951 0
M  V30 1553 H 144.417 3.85318 1.60995 0
M  V30 1554 N 144.854 0.36279 1.53368 0
M  V30 1555 C 145.802 -0.500155 2.27159 0
M  V30 1556 C 146.796 -1.08575 1.3003 0
M  V30 1557 O 148.002 -1.02927 1.47668 0
M  V30 1558 H 144.377 -0.180009 0.730138 0
M  V30 1559 H 146.348 0.14401 2.98052 0
M  V30 1560 C 145.097 -1.62937 3.07159 0
M  V30 1561 H 144.42 -1.18806 3.8174 0
M  V30 1562 H 145.86 -2.20795 3.61975 0
M  V30 1563 C 144.319 -2.57007 2.17829 0
M  V30 1564 O 144.849 -3.59752 1.78721 0
M  V30 1565 N 143.055 -2.26131 1.82518 0
M  V30 1566 H 142.602 -1.42616 2.14519 0
M  V30 1567 H 142.56 -2.89327 1.23034 0
M  V30 1568 N 146.332 -1.57332 0.0918853 0
M  V30 1569 C 147.743 -1.81496 -0.437739 0
M  V30 1570 C 148.094 -1.00727 -1.6837 0
M  V30 1571 O 147.219 -0.235694 -2.15113 0
M  V30 1572 C 147.814 -3.29197 -0.800939 0
M  V30 1573 C 146.373 -3.54136 -1.27532 0
M  V30 1574 C 145.52 -2.75979 -0.270392 0
M  V30 1575 H 148.471 -1.55494 0.317366 0
M  V30 1576 H 148.492 -3.42344 -1.66074 0
M  V30 1577 H 148.004 -3.87955 0.106078 0
M  V30 1578 H 146.105 -3.00705 -2.20016 0
M  V30 1579 H 146.218 -4.62792 -1.23938 0
M  V30 1580 H 144.582 -2.43349 -0.751872 0
M  V30 1581 H 145.365 -3.37484 0.629248 0
M  V30 1582 N 147.81 0.181792 -1.56548 0
M  V30 1583 C 148.72 1.24538 -1.98815 0
M  V30 1584 C 149.736 1.49045 -0.897861 0
M  V30 1585 O 150.912 1.61399 -1.20467 0
M  V30 1586 C 147.977 2.56683 -2.33055 0
M  V30 1587 C 147.038 2.40131 -3.55859 0
M  V30 1588 C 146.271 3.65975 -3.88456 0
M  V30 1589 O 146.494 4.70711 -3.22161 0
M  V30 1590 O 145.428 3.6071 -4.81842 0
M  V30 1591 H 149.254 0.916647 -2.89536 0
M  V30 1592 H 146.839 0.387842 -1.44278 0
M  V30 1593 H 148.721 3.34655 -2.56094 0
M  V30 1594 H 147.396 2.89157 -1.45498 0
M  V30 1595 H 146.303 1.60226 -3.38051 0
M  V30 1596 H 147.636 2.12585 -4.43924 0
M  V30 1597 N 149.288 1.51039 0.449983 0
M  V30 1598 C 150.236 1.71995 1.5659 0
M  V30 1599 C 151.23 0.586029 1.5894 0
M  V30 1600 O 152.436 0.76709 1.62837 0
M  V30 1601 H 148.811 0.543233 0.520001 0
M  V30 1602 H 150.782 2.65562 1.36085 0
M  V30 1603 C 149.531 1.8506 2.9436 0
M  V30 1604 H 148.854 2.71712 2.93279 0
M  V30 1605 H 150.294 2.0374 3.71842 0
M  V30 1606 C 148.753 0.607277 3.31382 0
M  V30 1607 O 149.283 -0.243903 4.00959 0
M  V30 1608 N 147.489 0.455073 2.87015 0
M  V30 1609 H 147.036 1.14879 2.30566 0
M  V30 1610 H 146.994 -0.375611 3.12148 0
M  V30 1611 N 150.766 -0.704594 1.40972 0
M  V30 1612 C 151.991 -1.49858 1.43378 0
M  V30 1613 C 152.416 -1.88061 0.038184 0
M  V30 1614 O 151.774 -1.5402 -0.956425 0
M  V30 1615 C 151.822 -2.74333 2.34038 0
M  V30 1616 O 150.926 -3.7147 1.7912 0
M  V30 1617 H 150.267 -0.45139 0.486974 0
M  V30 1618 H 152.797 -0.866832 1.8533 0
M  V30 1619 H 152.807 -3.22741 2.49604 0
M  V30 1620 H 151.482 -2.45863 3.35446 0
M  V30 1621 H 150.059 -3.30363 1.72958 0
M  V30 1622 N 152.244 -1.26651 -0.937939 0
M  V30 1623 C 153.66 -1.03834 -1.21205 0
M  V30 1624 C 153.86 0.234502 -2.00131 0
M  V30 1625 O 152.916 0.942767 -2.3424 0
M  V30 1626 C 154.229 -2.27167 -1.97017 0
M  V30 1627 C 155.777 -2.32101 -2.09996 0
M  V30 1628 C 156.252 -3.55136 -2.8921 0
M  V30 1629 N 157.743 -3.55632 -2.96783 0
M  V30 1630 C 158.478 -4.475 -3.58512 0
M  V30 1631 N 157.974 -5.4966 -4.21717 0
M  V30 1632 N 159.767 -4.35145 -3.55816 0
M  V30 1633 H 151.918 -2.08398 -0.410391 0
M  V30 1634 H 154.181 -0.916031 -0.244114 0
M  V30 1635 H 153.887 -3.19765 -1.46434 0
M  V30 1636 H 153.761 -2.31672 -2.97671 0
M  V30 1637 H 156.148 -1.40015 -2.59769 0
M  V30 1638 H 156.229 -2.31605 -1.08594 0
M  V30 1639 H 155.873 -4.47553 -2.40123 0
M  V30 1640 H 155.803 -3.5288 -3.90875 0
M  V30 1641 H 158.294 -2.81743 -2.51852 0
M  V30 1642 H 158.607 -6.15943 -4.66727 0
M  V30 1643 H 156.952 -5.53514 -4.20294 0
M  V30 1644 H 160.143 -3.5455 -3.05634 0
M  V30 1645 H 160.316 -5.06934 -4.03636 0
M  V30 1646 N 153.722 1.14298 -1.08507 0
M  V30 1647 C 154.97 1.84993 -0.813763 0
M  V30 1648 C 155.291 1.83405 0.662393 0
M  V30 1649 O 154.561 1.28319 1.48024 0
M  V30 1650 H 153.141 0.684966 -0.298045 0
M  V30 1651 H 155.803 1.385 -1.37126 0
M  V30 1652 H 154.899 2.89788 -1.15884 0
M  V30 1653 N 155.201 0.870884 1.31352 0
M  V30 1654 C 156.148 0.325425 2.28494 0
M  V30 1655 C 157.118 -0.576615 1.5577 0
M  V30 1656 O 158.303 -0.508059 1.83911 0
M  V30 1657 C 155.443 -0.466283 3.41935 0
M  V30 1658 C 154.556 0.463378 4.29508 0
M  V30 1659 C 153.691 -0.342544 5.30094 0
M  V30 1660 C 152.73 0.583486 6.09313 0
M  V30 1661 N 151.867 -0.186244 7.01853 0
M  V30 1662 H 156.707 1.15901 2.74538 0
M  V30 1663 H 154.244 0.58294 1.35056 0
M  V30 1664 H 156.202 -0.941085 4.06447 0
M  V30 1665 H 154.832 -1.26456 2.97 0
M  V30 1666 H 153.884 1.05663 3.65431 0
M  V30 1667 H 155.196 1.1734 4.84802 0
M  V30 1668 H 154.35 -0.879816 6.00287 0
M  V30 1669 H 153.089 -1.08585 4.75458 0
M  V30 1670 H 152.094 1.13251 5.3801 0
M  V30 1671 H 153.319 1.32566 6.66035 0
M  V30 1672 H 151.265 -0.912348 6.49625 0
M  V30 1673 H 151.182 0.464422 7.54572 0
M  V30 1674 H 152.45 -0.704716 7.76308 0
M  V30 1675 N 156.679 -1.44442 0.630414 0
M  V30 1676 C 157.927 -2.01653 0.134351 0
M  V30 1677 C 158.248 -1.49836 -1.24796 0
M  V30 1678 O 157.518 -0.701684 -1.82902 0
M  V30 1679 H 156.098 -0.74554 0.0466769 0
M  V30 1680 H 158.76 -1.76952 0.816955 0
M  V30 1681 H 157.856 -3.11935 0.101498 0
M  V30 1682 N 158.157 -0.370918 -1.53173 0
M  V30 1683 C 159.573 -0.0200818 -1.59587 0
M  V30 1684 C 159.773 1.46279 -1.38581 0
M  V30 1685 O 158.829 2.22506 -1.19363 0
M  V30 1686 C 160.142 -0.4808 -2.96831 0
M  V30 1687 C 161.69 -0.435477 -3.09956 0
M  V30 1688 C 162.165 -0.872092 -4.4962 0
M  V30 1689 N 163.656 -0.827364 -4.55751 0
M  V30 1690 C 164.391 -1.13683 -5.62018 0
M  V30 1691 N 163.887 -1.51584 -6.76014 0
M  V30 1692 N 165.68 -1.05927 -5.52029 0
M  V30 1693 H 157.831 -1.33652 -1.65079 0
M  V30 1694 H 160.094 -0.546634 -0.774529 0
M  V30 1695 H 159.8 -1.51577 -3.1736 0
M  V30 1696 H 159.674 0.129796 -3.76977 0
M  V30 1697 H 162.061 0.590371 -2.89134 0
M  V30 1698 H 162.142 -1.08164 -2.31806 0
M  V30 1699 H 161.786 -1.89608 -4.71181 0
M  V30 1700 H 161.716 -0.203127 -5.26208 0
M  V30 1701 H 164.207 -0.548216 -3.73902 0
M  V30 1702 H 164.52 -1.73609 -7.53047 0
M  V30 1703 H 162.865 -1.55454 -6.77391 0
M  V30 1704 H 166.056 -0.762321 -4.61851 0
M  V30 1705 H 166.229 -1.30378 -6.34749 0
M  V30 1706 N 159.635 1.57281 -0.100228 0
M  V30 1707 C 161.051 1.57527 0.256416 0
M  V30 1708 C 161.251 1.11173 1.68056 0
M  V30 1709 O 160.307 0.79053 2.39806 0
M  V30 1710 C 161.62 3.00673 0.0401747 0
M  V30 1711 C 163.168 3.12815 0.107528 0
M  V30 1712 C 163.643 4.57929 -0.0807834 0
M  V30 1713 N 165.134 4.63193 -0.0261207 0
M  V30 1714 C 165.869 5.73212 -0.146999 0
M  V30 1715 N 165.365 6.92047 -0.322999 0
M  V30 1716 N 167.158 5.62031 -0.0879044 0
M  V30 1717 H 159.309 1.85718 -1.03065 0
M  V30 1718 H 161.572 0.857446 -0.404339 0
M  V30 1719 H 161.278 3.38804 -0.943649 0
M  V30 1720 H 161.152 3.69042 0.780262 0
M  V30 1721 H 163.539 2.74554 1.08186 0
M  V30 1722 H 163.62 2.47028 -0.664134 0
M  V30 1723 H 163.264 4.96886 -1.05201 0
M  V30 1724 H 163.194 5.21783 0.710635 0
M  V30 1725 H 165.685 3.77748 0.107161 0
M  V30 1726 H 165.998 7.7173 -0.406608 0
M  V30 1727 H 164.343 6.94074 -0.358733 0
M  V30 1728 H 167.534 4.68075 0.048498 0
M  V30 1729 H 167.707 6.47734 -0.185557 0
M  V30 1730 N 161.113 -0.173488 1.56642 0
M  V30 1731 C 162.361 -0.888706 1.81512 0
M  V30 1732 C 162.682 -1.82875 0.676872 0
M  V30 1733 O 161.952 -1.93536 -0.303414 0
M  V30 1734 H 160.532 -0.331164 0.669582 0
M  V30 1735 H 163.194 -0.173823 1.94123 0
M  V30 1736 H 162.29 -1.46691 2.75478 0
M  V30 1737 N 162.591 -1.51276 -0.441967 0
M  V30 1738 C 163.523 -1.68444 -1.55433 0
M  V30 1739 C 164.536 -0.565187 -1.52674 0
M  V30 1740 O 165.725 -0.839356 -1.57534 0
M  V30 1741 C 162.825 -1.67966 -2.94348 0
M  V30 1742 C 161.998 -2.964 -3.21661 0
M  V30 1743 C 161.057 -2.88171 -4.40277 0
M  V30 1744 O 160.083 -3.62119 -4.39157 0
M  V30 1745 N 161.285 -2.03706 -5.43584 0
M  V30 1746 H 164.05 -2.644 -1.41112 0
M  V30 1747 H 161.611 -1.49104 -0.630838 0
M  V30 1748 H 163.603 -1.60035 -3.71713 0
M  V30 1749 H 162.173 -0.796225 -3.0229 0
M  V30 1750 H 161.393 -3.18234 -2.32638 0
M  V30 1751 H 162.681 -3.81427 -3.36736 0
M  V30 1752 H 162.079 -1.42995 -5.47329 0
M  V30 1753 H 160.636 -2.01658 -6.1982 0
M  V30 1754 N 164.069 0.697108 -1.41344 0
M  V30 1755 C 165.485 1.00751 -1.2378 0
M  V30 1756 C 165.685 2.01105 -0.126066 0
M  V30 1757 O 164.741 2.47295 0.51004 0
M  V30 1758 C 166.054 1.53359 -2.58653 0
M  V30 1759 C 167.602 1.6525 -2.65822 0
M  V30 1760 C 168.077 2.2126 -4.01009 0
M  V30 1761 N 169.568 2.28622 -4.02847 0
M  V30 1762 C 170.303 2.72984 -5.04249 0
M  V30 1763 N 169.799 3.16962 -6.16041 0
M  V30 1764 N 171.592 2.72534 -4.91611 0
M  V30 1765 H 163.743 0.0322662 -2.12375 0
M  V30 1766 H 166.006 0.0768853 -0.944877 0
M  V30 1767 H 165.712 0.870773 -3.4075 0
M  V30 1768 H 165.586 2.51597 -2.81032 0
M  V30 1769 H 167.973 2.30644 -1.84086 0
M  V30 1770 H 168.054 0.655614 -2.47256 0
M  V30 1771 H 167.698 1.56482 -4.83193 0
M  V30 1772 H 167.628 3.21698 -4.16915 0
M  V30 1773 H 170.119 1.97585 -3.22131 0
M  V30 1774 H 170.432 3.49434 -6.89287 0
M  V30 1775 H 168.777 3.14875 -6.1958 0
M  V30 1776 H 171.968 2.37525 -4.0336 0
M  V30 1777 H 172.141 3.06789 -5.70775 0
M  V30 1778 N 165.547 1.27147 0.931209 0
M  V30 1779 C 166.795 1.13055 1.6752 0
M  V30 1780 C 167.116 -0.324791 1.92276 0
M  V30 1781 O 166.386 -1.22775 1.52654 0
M  V30 1782 H 164.966 0.415391 0.620854 0
M  V30 1783 H 167.628 1.59623 1.11833 0
M  V30 1784 H 166.724 1.65694 2.64485 0
M  V30 1785 N 167.025 -1.13721 1.09112 0
M  V30 1786 C 167.972 -2.19031 0.727591 0
M  V30 1787 C 168.942 -1.63555 -0.289656 0
M  V30 1788 O 170.127 -1.90023 -0.172026 0
M  V30 1789 C 167.267 -3.4477 0.15082 0
M  V30 1790 C 166.38 -4.14365 1.22172 0
M  V30 1791 C 165.515 -5.27709 0.608042 0
M  V30 1792 C 164.554 -5.89147 1.66047 0
M  V30 1793 N 163.691 -6.93929 1.06806 0
M  V30 1794 H 168.531 -2.49475 1.62991 0
M  V30 1795 H 166.068 -1.22499 0.81439 0
M  V30 1796 H 168.026 -4.16714 -0.201358 0
M  V30 1797 H 166.656 -3.14787 -0.714783 0
M  V30 1798 H 165.708 -3.40737 1.69122 0
M  V30 1799 H 167.02 -4.56114 2.01895 0
M  V30 1800 H 166.174 -6.06355 0.204523 0
M  V30 1801 H 164.913 -4.872 -0.220769 0
M  V30 1802 H 163.918 -5.09198 2.07357 0
M  V30 1803 H 165.143 -6.31729 2.49189 0
M  V30 1804 H 163.089 -6.55483 0.260476 0
M  V30 1805 H 163.006 -7.34202 1.8023 0
M  V30 1806 H 164.274 -7.76434 0.690644 0
M  V30 1807 N 168.503 -0.877838 -1.30888 0
M  V30 1808 C 169.451 -0.328662 -2.30266 0
M  V30 1809 C 170.445 0.560496 -1.59859 0
M  V30 1810 O 171.651 0.445722 -1.74394 0
M  V30 1811 H 168.026 -0.0876142 -0.746879 0
M  V30 1812 H 169.997 -1.18061 -2.74051 0
M  V30 1813 C 168.746 0.448071 -3.44801 0
M  V30 1814 H 168.069 -0.226859 -3.99156 0
M  V30 1815 H 169.509 0.797541 -4.16432 0
M  V30 1816 C 167.968 1.64239 -2.94155 0
M  V30 1817 O 168.498 2.74175 -2.93583 0
M  V30 1818 N 166.704 1.47716 -2.50256 0
M  V30 1819 H 166.251 0.582821 -2.5092 0
M  V30 1820 H 166.209 2.27765 -2.16727 0
M  V30 1821 N 169.982 1.44106 -0.638065 0
M  V30 1822 C 171.398 1.56672 -0.304286 0
M  V30 1823 C 171.598 1.6244 1.19228 0
M  V30 1824 O 170.654 1.57121 1.9766 0
M  V30 1825 C 171.967 2.83503 -1.00231 0
M  V30 1826 C 173.515 2.97226 -0.981116 0
M  V30 1827 C 173.99 4.26868 -1.65974 0
M  V30 1828 N 175.481 4.33698 -1.62666 0
M  V30 1829 C 176.216 5.32745 -2.12063 0
M  V30 1830 N 175.712 6.38157 -2.6968 0
M  V30 1831 N 177.505 5.24299 -2.02651 0
M  V30 1832 H 169.656 1.38605 -1.60942 0
M  V30 1833 H 171.919 0.664661 -0.675965 0
M  V30 1834 H 171.625 2.85251 -2.0573 0
M  V30 1835 H 171.499 3.73251 -0.54439 0
M  V30 1836 H 173.886 2.95027 0.0654188 0
M  V30 1837 H 173.967 2.08808 -1.47759 0
M  V30 1838 H 173.611 4.29826 -2.70576 0
M  V30 1839 H 173.541 5.14156 -1.13804 0
M  V30 1840 H 176.032 3.58138 -1.20606 0
M  V30 1841 H 176.345 7.10029 -3.05087 0
M  V30 1842 H 174.69 6.38823 -2.73734 0
M  V30 1843 H 177.881 4.4086 -1.57353 0
M  V30 1844 H 178.054 6.01334 -2.41457 0
M  V30 1845 N 171.46 0.379036 1.52974 0
M  V30 1846 C 172.708 -0.206014 2.01047 0
M  V30 1847 C 173.029 -1.48175 1.26765 0
M  V30 1848 O 172.299 -1.92085 0.384743 0
M  V30 1849 H 170.879 -0.0791184 0.742798 0
M  V30 1850 H 173.541 0.508366 1.88153 0
M  V30 1851 H 172.637 -0.423501 3.09213 0
M  V30 1852 N 172.938 -1.57226 0.108567 0
M  V30 1853 C 174.178 -1.96717 -0.555155 0
M  V30 1854 C 174.542 -0.990003 -1.64508 0
M  V30 1855 O 175.743 -1.2739 -2.36696 0
M  V30 1856 C 174.014 -3.40575 -1.08367 0
M  V30 1857 S 175.573 -4.02072 -1.75737 0
M  V30 1858 H 172.391 -0.687638 -0.180762 0
M  V30 1859 H 174.993 -1.94563 0.191172 0
M  V30 1860 H 173.697 -4.0945 -0.279092 0
M  V30 1861 H 173.228 -3.46356 -1.86551 0
M  V30 1862 H 175.243 -3.91977 -3.04251 0
M  V30 1863 N 174.416 0.165178 -1.56732 0
M  V30 1864 C 175.662 0.882112 -1.82611 0
M  V30 1865 C 175.995 1.81628 -0.687378 0
M  V30 1866 O 175.27 1.92009 0.310267 0
M  V30 1867 C 175.553 1.67245 -3.18906 0
M  V30 1868 C 175.406 0.760987 -4.43316 0
M  V30 1869 C 176.725 2.63884 -3.52212 0
M  V30 1870 H 173.844 0.319242 -0.664269 0
M  V30 1871 H 176.486 0.148052 -1.89422 0
M  V30 1872 H 174.636 2.29824 -3.1323 0
M  V30 1873 H 176.308 0.147596 -4.61064 0
M  V30 1874 H 174.551 0.0694102 -4.33744 0
M  V30 1875 H 175.222 1.34962 -5.35247 0
M  V30 1876 H 177.698 2.11429 -3.58381 0
M  V30 1877 H 176.574 3.16245 -4.48643 0
M  V30 1878 H 176.835 3.44377 -2.77231 0
M  V30 1879 N 175.894 1.51508 0.433938 0
M  V30 1880 C 176.824 1.76016 1.53429 0
M  V30 1881 C 177.805 0.610112 1.58782 0
M  V30 1882 O 178.99 0.853177 1.74455 0
M  V30 1883 C 176.12 1.88831 2.9148 0
M  V30 1884 C 175.074 3.04288 3.00987 0
M  V30 1885 C 174.4 3.0229 4.4105 0
M  V30 1886 C 175.7 4.44193 2.74754 0
M  V30 1887 H 177.394 2.68152 1.33171 0
M  V30 1888 H 174.94 1.29035 0.639214 0
M  V30 1889 H 176.893 2.04559 3.6842 0
M  V30 1890 H 175.617 0.933455 3.12976 0
M  V30 1891 H 174.276 2.8827 2.26486 0
M  V30 1892 H 173.924 2.04576 4.59519 0
M  V30 1893 H 173.624 3.79822 4.4834 0
M  V30 1894 H 175.148 3.20116 5.1996 0
M  V30 1895 H 176.562 4.60544 3.41426 0
M  V30 1896 H 174.959 5.23457 2.9345 0
M  V30 1897 H 176.029 4.53996 1.70339 0
M  V30 1898 N 177.372 -0.689602 1.41712 0
M  V30 1899 C 178.6 -1.47827 1.44758 0
M  V30 1900 C 179.015 -1.88721 0.0545703 0
M  V30 1901 O 178.372 -1.57176 -0.927463 0
M  V30 1902 C 178.423 -2.73698 2.3616 0
M  V30 1903 O 178.144 -2.34524 3.7004 0
M  V30 1904 C 179.645 -3.67389 2.48072 0
M  V30 1905 H 176.865 -0.455357 0.49284 0
M  V30 1906 H 179.409 -0.848574 1.86063 0
M  V30 1907 H 177.564 -3.32891 1.98148 0
M  V30 1908 H 177.978 -3.15701 4.18847 0
M  V30 1909 H 179.452 -4.52475 3.16181 0
M  V30 1910 H 179.929 -4.12284 1.51388 0
M  V30 1911 H 180.535 -3.14097 2.86746 0
M  V30 1912 N 178.85 -1.27639 -0.924453 0
M  V30 1913 C 179.813 -1.10681 -2.00705 0
M  V30 1914 C 180.813 -0.0497823 -1.60723 0
M  V30 1915 O 182.003 -0.294654 -1.7169 0
M  V30 1916 C 179.135 -0.687164 -3.33902 0
M  V30 1917 H 180.328 -2.06817 -2.17179 0
M  V30 1918 H 177.881 -1.10473 -1.10569 0
M  V30 1919 H 178.616 0.275439 -3.23128 0
M  V30 1920 H 178.401 -1.45061 -3.6428 0
M  V30 1921 H 179.891 -0.590853 -4.13399 0
M  V30 1922 N 180.328 1.1314 -1.09713 0
M  V30 1923 C 181.577 1.83838 -0.829851 0
M  V30 1924 C 181.89 1.84599 0.646728 0
M  V30 1925 O 183.096 2.51218 1.02965 0
M  V30 1926 C 181.552 3.30069 -1.43466 0
M  V30 1927 C 181.16 3.37688 -2.94399 0
M  V30 1928 C 182.904 4.05788 -1.24645 0
M  V30 1929 C 180.811 4.78209 -3.47952 0
M  V30 1930 H 179.741 0.68877 -0.306777 0
M  V30 1931 H 182.392 1.27448 -1.3202 0
M  V30 1932 H 180.774 3.8628 -0.871996 0
M  V30 1933 H 181.948 2.91456 -3.56918 0
M  V30 1934 H 180.263 2.75436 -3.12289 0
M  V30 1935 H 182.86 5.09535 -1.62107 0
M  V30 1936 H 183.203 4.15878 -0.187357 0
M  V30 1937 H 183.736 3.55915 -1.77678 0
M  V30 1938 H 180.475 4.73311 -4.53495 0
M  V30 1939 H 179.995 5.24924 -2.90198 0
M  V30 1940 H 181.674 5.47133 -3.45332 0
M  V30 1941 N 181.806 0.884767 1.30421 0
M  V30 1942 C 182.756 0.322846 2.25703 0
M  V30 1943 C 183.74 -0.548582 1.51259 0
M  V30 1944 O 184.932 -0.39304 1.72581 0
M  V30 1945 C 182.061 -0.461787 3.4018 0
M  V30 1946 C 181.147 0.423717 4.21978 0
M  V30 1947 N 181.538 1.52408 4.82292 0
M  V30 1948 C 179.836 0.218795 4.45463 0
M  V30 1949 C 180.537 2.07136 5.43571 0
M  V30 1950 N 179.513 1.36635 5.26148 0
M  V30 1951 H 183.315 1.16363 2.69883 0
M  V30 1952 H 180.829 0.73415 1.44859 0
M  V30 1953 H 182.826 -0.880985 4.07485 0
M  V30 1954 H 181.486 -1.30001 2.9754 0
M  V30 1955 H 182.497 1.90693 4.81515 0
M  V30 1956 H 179.174 -0.582275 4.1342 0
M  V30 1957 H 180.564 2.99538 6.01437 0
M  V30 1958 N 183.284 -1.43765 0.645699 0
M  V30 1959 C 184.214 -2.33471 -0.0370477 0
M  V30 1960 C 185.195 -1.49042 -0.819779 0
M  V30 1961 O 186.38 -1.77726 -0.782758 0
M  V30 1962 C 183.51 -3.32311 -1.0093 0
M  V30 1963 C 182.464 -4.2667 -0.337201 0
M  V30 1964 C 181.79 -5.1549 -1.42037 0
M  V30 1965 C 183.09 -5.16657 0.765706 0
M  V30 1966 H 184.784 -2.90809 0.712069 0
M  V30 1967 H 182.33 -1.39834 0.343876 0
M  V30 1968 H 184.283 -3.9396 -1.49578 0
M  V30 1969 H 183.007 -2.73213 -1.78948 0
M  V30 1970 H 181.666 -3.66374 0.128771 0
M  V30 1971 H 181.314 -4.52735 -2.1918 0
M  V30 1972 H 181.014 -5.79438 -0.975966 0
M  V30 1973 H 182.538 -5.80012 -1.90838 0
M  V30 1974 H 183.952 -5.72158 0.361702 0
M  V30 1975 H 182.349 -5.89286 1.13413 0
M  V30 1976 H 183.419 -4.56796 1.62683 0
M  V30 1977 N 184.763 -0.387143 -1.52771 0
M  V30 1978 C 185.711 0.463953 -2.27926 0
M  V30 1979 C 186.705 1.06493 -1.31741 0
M  V30 1980 O 187.911 1.00565 -1.49287 0
M  V30 1981 H 184.286 0.16837 -0.732909 0
M  V30 1982 H 186.257 -0.19141 -2.97785 0
M  V30 1983 C 185.006 1.5803 -3.09713 0
M  V30 1984 H 184.329 1.12718 -3.83581 0
M  V30 1985 H 185.769 2.15008 -3.65442 0
M  V30 1986 C 184.228 2.53509 -2.2189 0
M  V30 1987 O 184.758 3.56863 -1.84422 0
M  V30 1988 N 182.964 2.23199 -1.86093 0
M  V30 1989 H 182.511 1.39185 -2.16761 0
M  V30 1990 H 182.469 2.87333 -1.27621 0
M  V30 1991 N 186.241 1.57166 -0.116904 0
M  V30 1992 C 187.487 1.95412 0.542405 0
M  V30 1993 C 187.82 1.00019 1.66463 0
M  V30 1994 O 187.095 0.0370346 1.94465 0
M  V30 1995 C 187.378 3.43615 1.07708 0
M  V30 1996 C 187.231 4.49781 -0.0415868 0
M  V30 1997 C 188.55 3.93616 1.96861 0
M  V30 1998 H 185.669 0.710543 0.195696 0
M  V30 1999 H 188.311 1.89027 -0.192038 0
M  V30 2000 H 186.461 3.49187 1.70296 0
M  V30 2001 H 188.133 4.56308 -0.676793 0
M  V30 2002 H 186.376 4.28033 -0.705019 0
M  V30 2003 H 187.047 5.50733 0.373717 0
M  V30 2004 H 189.523 3.90335 1.44146 0
M  V30 2005 H 188.399 4.97838 2.3119 0
M  V30 2006 H 188.66 3.34188 2.89432 0
M  V30 2007 N 187.719 -0.156864 1.56817 0
M  V30 2008 C 188.947 -0.886316 1.86955 0
M  V30 2009 C 189.362 -1.75185 0.703975 0
M  V30 2010 O 188.719 -1.79555 -0.326552 0
M  V30 2011 C 188.77 -1.75117 3.16253 0
M  V30 2012 O 188.491 -0.920537 4.2832 0
M  V30 2013 C 189.992 -2.58905 3.59837 0
M  V30 2014 H 187.212 -0.25678 0.619923 0
M  V30 2015 H 189.756 -0.152615 2.0393 0
M  V30 2016 H 187.911 -2.43805 3.01062 0
M  V30 2017 H 188.325 -1.51337 5.02192 0
M  V30 2018 H 189.799 -3.1518 4.53172 0
M  V30 2019 H 190.276 -3.34472 2.84649 0
M  V30 2020 H 190.882 -1.95526 3.7769 0
M  V30 2021 N 189.197 -1.51736 -0.425897 0
M  V30 2022 C 190.474 -1.55519 -1.1863 0
M  V30 2023 C 190.854 -0.326219 -2.08564 0
M  V30 2024 O 190.202 0.688012 -2.17896 0
M  V30 2025 C 190.412 -2.87521 -1.9782 0
M  V30 2026 C 191.76 -3.39899 -2.54468 0
M  V30 2027 O 192.784 -2.89148 -2.08019 0
M  V30 2028 O 191.643 -4.2848 -3.39215 0
M  V30 2029 H 188.737 -0.625739 -0.540721 0
M  V30 2030 H 191.283 -1.64055 -0.434038 0
M  V30 2031 H 190.055 -3.68422 -1.31836 0
M  V30 2032 H 189.678 -2.822 -2.80088 0
M  V30 2033 N 190.675 0.682077 -1.42076 0
M  V30 2034 C 191.605 1.80796 -1.47767 0
M  V30 2035 C 192.586 1.6677 -0.334954 0
M  V30 2036 O 193.771 1.863 -0.548264 0
M  V30 2037 C 190.901 3.19038 -1.37229 0
M  V30 2038 C 189.855 3.47789 -2.49453 0
M  V30 2039 C 189.181 4.8553 -2.23975 0
M  V30 2040 C 190.481 3.45411 -3.91776 0
M  V30 2041 H 192.175 1.7629 -2.41997 0
M  V30 2042 H 189.721 0.846721 -1.16476 0
M  V30 2043 H 191.674 3.97528 -1.39821 0
M  V30 2044 H 190.398 3.24204 -0.394907 0
M  V30 2045 H 189.057 2.71657 -2.46166 0
M  V30 2046 H 188.705 4.87337 -1.24547 0
M  V30 2047 H 188.405 5.0573 -2.99184 0
M  V30 2048 H 189.929 5.66312 -2.28304 0
M  V30 2049 H 191.343 4.13882 -3.96705 0
M  V30 2050 H 189.74 3.77145 -4.66778 0
M  V30 2051 H 190.81 2.44122 -4.18966 0
M  V30 2052 N 192.153 1.28127 0.917671 0
M  V30 2053 C 193.401 1.14825 1.66312 0
M  V30 2054 C 193.722 -0.304379 1.9261 0
M  V30 2055 O 192.992 -1.21149 1.53947 0
M  V30 2056 H 191.572 0.421953 0.616413 0
M  V30 2057 H 194.234 1.608 1.10134 0
M  V30 2058 H 193.33 1.68489 2.62712 0
M  V30 2059 N 193.631 -1.12557 1.10312 0
M  V30 2060 C 194.561 -2.20341 0.772798 0
M  V30 2061 C 195.542 -1.68198 -0.25365 0
M  V30 2062 O 196.727 -1.93831 -0.119699 0
M  V30 2063 C 193.857 -3.46709 0.202443 0
M  V30 2064 C 192.811 -4.11996 1.15943 0
M  V30 2065 C 192.137 -5.328 0.450345 0
M  V30 2066 C 193.437 -4.5828 2.50552 0
M  V30 2067 H 195.131 -2.48229 1.674 0
M  V30 2068 H 192.677 -1.19308 0.806326 0
M  V30 2069 H 194.63 -4.2138 -0.0407752 0
M  V30 2070 H 193.354 -3.18245 -0.734001 0
M  V30 2071 H 192.013 -3.39305 1.38808 0
M  V30 2072 H 191.661 -5.00602 -0.490531 0
M  V30 2073 H 191.361 -5.7743 1.08851 0
M  V30 2074 H 192.885 -6.10219 0.215642 0
M  V30 2075 H 194.299 -5.2433 2.31843 0
M  V30 2076 H 192.696 -5.13683 3.10242 0
M  V30 2077 H 193.766 -3.72329 3.10643 0
M  V30 2078 N 195.109 -0.891671 -1.2995 0
M  V30 2079 C 196.357 -0.512486 -1.95494 0
M  V30 2080 C 196.678 0.942776 -1.70695 0
M  V30 2081 O 195.948 1.66374 -1.03424 0
M  V30 2082 H 194.528 -0.186533 -0.723336 0
M  V30 2083 H 197.19 -1.13621 -1.58355 0
M  V30 2084 H 196.286 -0.688342 -3.04415 0
M  V30 2085 N 196.587 1.43421 -0.653314 0
M  V30 2086 C 197.817 2.05864 -0.174238 0
M  V30 2087 C 198.225 1.49052 1.16534 0
M  V30 2088 O 197.568 0.616481 1.73047 0
M  V30 2089 C 197.63 3.59499 -0.00875873 0
M  V30 2090 C 197.294 4.38893 -1.27364 0
M  V30 2091 C 198.291 4.70947 -2.20239 0
M  V30 2092 C 195.976 4.789 -1.51525 0
M  V30 2093 C 197.97 5.41916 -3.35568 0
M  V30 2094 C 195.657 5.49614 -2.67147 0
M  V30 2095 C 196.655 5.81044 -3.58994 0
M  V30 2096 O 196.343 6.50313 -4.72597 0
M  V30 2097 H 196.075 0.670345 -0.0872549 0
M  V30 2098 H 198.629 1.84913 -0.894226 0
M  V30 2099 H 196.859 3.79025 0.7666 0
M  V30 2100 H 198.548 4.0364 0.427687 0
M  V30 2101 H 199.314 4.40558 -2.02815 0
M  V30 2102 H 195.193 4.53843 -0.809158 0
M  V30 2103 H 198.737 5.66365 -4.07279 0
M  V30 2104 H 194.634 5.79419 -2.84505 0
M  V30 2105 H 195.402 6.68795 -4.71864 0
M  V30 2106 N 198.065 0.39524 1.52563 0
M  V30 2107 C 198.975 -0.444232 2.30356 0
M  V30 2108 C 199.991 -1.06615 1.37511 0
M  V30 2109 O 201.167 -1.07067 1.70583 0
M  V30 2110 C 198.232 -1.55315 3.09964 0
M  V30 2111 C 197.293 -0.955734 4.18526 0
M  V30 2112 C 196.526 -2.01181 4.9433 0
M  V30 2113 O 196.749 -3.22781 4.70285 0
M  V30 2114 O 195.683 -1.62579 5.79527 0
M  V30 2115 H 199.509 0.189667 3.03107 0
M  V30 2116 H 197.094 0.1588 1.48554 0
M  V30 2117 H 198.976 -2.19724 3.59582 0
M  V30 2118 H 197.651 -2.17191 2.4002 0
M  V30 2119 H 196.558 -0.274743 3.7309 0
M  V30 2120 H 197.891 -0.381109 4.90722 0
M  V30 2121 N 199.544 -1.57102 0.125237 0
M  V30 2122 C 200.772 -1.99761 -0.538797 0
M  V30 2123 C 201.187 -1.00503 -1.59827 0
M  V30 2124 O 200.544 0.00119474 -1.825 0
M  V30 2125 C 200.595 -3.42408 -1.15927 0
M  V30 2126 O 200.316 -4.37869 -0.142143 0
M  V30 2127 C 201.817 -4.00232 -1.90602 0
M  V30 2128 H 199.037 -0.655772 -0.14214 0
M  V30 2129 H 201.581 -2.03383 0.213413 0
M  V30 2130 H 199.736 -3.39706 -1.86223 0
M  V30 2131 H 200.15 -5.21128 -0.593775 0
M  V30 2132 H 201.624 -5.02105 -2.29335 0
M  V30 2133 H 202.101 -3.39721 -2.78363 0
M  V30 2134 H 202.707 -4.06499 -1.25055 0
M  V30 2135 N 201.022 0.148545 -1.56898 0
M  V30 2136 C 201.969 1.18345 -1.98149 0
M  V30 2137 C 202.939 1.42772 -0.848848 0
M  V30 2138 O 204.124 1.55132 -1.11079 0
M  V30 2139 C 201.264 2.51231 -2.36594 0
M  V30 2140 C 200.377 2.33991 -3.63142 0
M  V30 2141 C 199.512 3.59902 -3.90697 0
M  V30 2142 C 198.551 3.37692 -5.1052 0
M  V30 2143 N 197.688 4.5573 -5.34092 0
M  V30 2144 H 202.528 0.82467 -2.86362 0
M  V30 2145 H 200.065 0.395756 -1.41676 0
M  V30 2146 H 202.023 3.28713 -2.56912 0
M  V30 2147 H 200.653 2.85059 -1.51463 0
M  V30 2148 H 199.705 1.47572 -3.50609 0
M  V30 2149 H 201.017 2.13539 -4.5078 0
M  V30 2150 H 200.171 4.45813 -4.11505 0
M  V30 2151 H 198.91 3.83357 -3.01477 0
M  V30 2152 H 197.915 2.5017 -4.89587 0
M  V30 2153 H 199.14 3.15637 -6.0129 0
M  V30 2154 H 197.086 4.79361 -4.47827 0
M  V30 2155 H 197.003 4.38274 -6.15996 0
M  V30 2156 H 198.271 5.42858 -5.59397 0
M  V30 2157 N 202.5 1.5196 0.417844 0
M  V30 2158 C 203.41 1.77554 1.53336 0
M  V30 2159 C 204.426 0.660655 1.6097 0
M  V30 2160 O 205.602 0.945099 1.77848 0
M  V30 2161 C 202.667 1.91291 2.89152 0
M  V30 2162 C 201.728 3.15183 2.91475 0
M  V30 2163 C 200.961 3.28256 4.20813 0
M  V30 2164 O 201.184 2.46798 5.14244 0
M  V30 2165 O 200.118 4.21356 4.29817 0
M  V30 2166 H 203.944 2.7222 1.34647 0
M  V30 2167 H 201.529 1.36698 0.602828 0
M  V30 2168 H 203.411 2.02199 3.69721 0
M  V30 2169 H 202.086 0.998129 3.07927 0
M  V30 2170 H 200.993 3.09739 2.09791 0
M  V30 2171 H 202.326 4.06414 2.77648 0
M  V30 2172 N 203.978 -0.674533 1.42435 0
M  V30 2173 C 204.888 -1.81751 1.48337 0
M  V30 2174 C 205.904 -1.69975 0.372099 0
M  V30 2175 O 207.08 -1.91521 0.62304 0
M  V30 2176 C 204.145 -3.17895 1.38361 0
M  V30 2177 C 203.206 -3.41625 2.59982 0
M  V30 2178 C 202.439 -4.71274 2.50473 0
M  V30 2179 O 202.662 -5.49197 1.54075 0
M  V30 2180 O 201.596 -4.96254 3.4061 0
M  V30 2181 H 205.422 -1.79728 2.44809 0
M  V30 2182 H 203.007 -0.830312 1.24202 0
M  V30 2183 H 204.889 -3.99136 1.35161 0
M  V30 2184 H 203.564 -3.20555 0.450144 0
M  V30 2185 H 202.471 -2.60231 2.68757 0
M  V30 2186 H 203.804 -3.43796 3.52229 0
M  V30 2187 N 205.456 -1.28612 -0.910864 0
M  V30 2188 C 206.386 -1.15326 -2.03032 0
M  V30 2189 C 207.367 -0.0502924 -1.70026 0
M  V30 2190 O 208.552 -0.227797 -1.92859 0
M  V30 2191 C 205.682 -0.817343 -3.37545 0
M  V30 2192 C 204.636 -1.8754 -3.84724 0
M  V30 2193 C 203.962 -1.39305 -5.16235 0
M  V30 2194 C 205.262 -3.28244 -4.06267 0
M  V30 2195 H 206.956 -2.08975 -2.14406 0
M  V30 2196 H 204.502 -1.00612 -1.03021 0
M  V30 2197 H 206.455 -0.711151 -4.15356 0
M  V30 2198 H 205.179 0.154846 -3.26233 0
M  V30 2199 H 203.838 -1.97079 -3.09121 0
M  V30 2200 H 203.486 -0.409846 -5.01328 0
M  V30 2201 H 203.186 -2.10057 -5.48771 0
M  V30 2202 H 204.71 -1.30014 -5.96598 0
M  V30 2203 H 206.124 -3.21611 -4.74594 0
M  V30 2204 H 204.521 -3.96855 -4.5014 0
M  V30 2205 H 205.591 -3.72048 -3.10979 0
M  V30 2206 N 206.934 1.1197 -1.10907 0
M  V30 2207 C 208.183 1.82947 -0.849302 0
M  V30 2208 C 208.496 1.85275 0.627112 0
M  V30 2209 O 209.702 2.52296 1.00295 0
M  V30 2210 C 208.158 3.28529 -1.46959 0
M  V30 2211 C 207.766 3.34546 -2.97965 0
M  V30 2212 C 209.51 4.04443 -1.28942 0
M  V30 2213 C 207.417 4.74491 -3.53004 0
M  V30 2214 H 206.347 0.685477 -0.314065 0
M  V30 2215 H 208.998 1.2604 -1.33365 0
M  V30 2216 H 207.38 3.85333 -0.912917 0
M  V30 2217 H 208.554 2.87654 -3.59989 0
M  V30 2218 H 206.869 2.72108 -3.15192 0
M  V30 2219 H 209.466 5.07787 -1.67502 0
M  V30 2220 H 209.809 4.15656 -0.231456 0
M  V30 2221 H 210.342 3.5401 -1.81443 0
M  V30 2222 H 207.081 4.68474 -4.58489 0
M  V30 2223 H 206.601 5.21816 -2.9575 0
M  V30 2224 H 208.28 5.4344 -3.51115 0
M  V30 2225 N 208.412 0.89855 1.29475 0
M  V30 2226 C 209.659 0.523882 1.95606 0
M  V30 2227 C 209.987 -0.929608 1.70847 0
M  V30 2228 O 209.242 -1.67401 1.01367 0
M  V30 2229 C 209.541 0.761398 3.49195 0
M  V30 2230 C 209.207 2.19207 3.94029 0
M  V30 2231 C 207.869 2.58326 4.05982 0
M  V30 2232 C 210.221 3.12379 4.17216 0
M  V30 2233 C 207.549 3.898 4.38489 0
M  V30 2234 C 209.901 4.43401 4.51197 0
M  V30 2235 C 208.565 4.82394 4.61359 0
M  V30 2236 H 207.835 0.191702 0.715773 0
M  V30 2237 H 210.482 1.13699 1.54094 0
M  V30 2238 H 208.787 0.0653622 3.91745 0
M  V30 2239 H 210.484 0.450904 3.98457 0
M  V30 2240 H 207.074 1.87846 3.85242 0
M  V30 2241 H 211.258 2.83371 4.07449 0
M  V30 2242 H 206.514 4.19734 4.44559 0
M  V30 2243 H 210.688 5.15623 4.68087 0
M  V30 2244 H 208.315 5.84306 4.86303 0
M  V30 2245 N 209.89 -1.43072 0.660911 0
M  V30 2246 C 211.306 -1.56169 0.329173 0
M  V30 2247 C 211.506 -1.64317 -1.16629 0
M  V30 2248 O 210.562 -1.60245 -1.95135 0
M  V30 2249 C 211.875 -2.81873 1.04729 0
M  V30 2250 C 213.423 -2.95627 1.02828 0
M  V30 2251 C 213.898 -4.24174 1.72744 0
M  V30 2252 N 215.389 -4.31055 1.69545 0
M  V30 2253 C 216.124 -5.29304 2.20511 0
M  V30 2254 N 215.62 -6.33786 2.79799 0
M  V30 2255 N 217.413 -5.21008 2.10966 0
M  V30 2256 H 209.564 -1.36027 1.63127 0
M  V30 2257 H 211.827 -0.653823 0.686454 0
M  V30 2258 H 211.533 -2.81942 2.10242 0
M  V30 2259 H 211.407 -3.72338 0.603702 0
M  V30 2260 H 213.794 -2.95094 -0.0184742 0
M  V30 2261 H 213.875 -2.06431 1.51063 0
M  V30 2262 H 213.519 -4.25467 2.7738 0
M  V30 2263 H 213.449 -5.1228 1.2197 0
M  V30 2264 H 215.94 -3.56174 1.26288 0
M  V30 2265 H 216.253 -7.05086 3.16344 0
M  V30 2266 H 214.598 -6.34387 2.83863 0
M  V30 2267 H 217.789 -4.38301 1.64347 0
M  V30 2268 H 217.962 -5.97416 2.50993 0
M  V30 2269 N 211.368 -0.403325 -1.52352 0
M  V30 2270 C 212.598 0.17376 -2.05868 0
M  V30 2271 C 213.006 1.39898 -1.27378 0
M  V30 2272 O 212.349 1.80939 -0.31729 0
M  V30 2273 C 212.411 0.594756 -3.54546 0
M  V30 2274 C 212.075 -0.518926 -4.54044 0
M  V30 2275 C 213.072 -1.3807 -5.01231 0
M  V30 2276 C 210.757 -0.689961 -4.97539 0
M  V30 2277 C 212.751 -2.39852 -5.90551 0
M  V30 2278 C 210.438 -1.71109 -5.86656 0
M  V30 2279 C 211.436 -2.56378 -6.33056 0
M  V30 2280 O 211.124 -3.56743 -7.20409 0
M  V30 2281 H 210.856 0.0264951 -0.675481 0
M  V30 2282 H 213.41 -0.571179 -1.97299 0
M  V30 2283 H 211.64 1.39189 -3.60782 0
M  V30 2284 H 213.329 1.0991 -3.90736 0
M  V30 2285 H 214.095 -1.25994 -4.68349 0
M  V30 2286 H 209.974 -0.035939 -4.60986 0
M  V30 2287 H 213.518 -3.06441 -6.26689 0
M  V30 2288 H 209.415 -1.83218 -6.18952 0
M  V30 2289 H 210.183 -3.52918 -7.38506 0
M  V30 2290 N 212.846 1.57033 -0.133567 0
M  V30 2291 C 214.086 1.97575 0.523789 0
M  V30 2292 C 214.45 1.01605 1.62912 0
M  V30 2293 O 215.651 1.3114 2.3464 0
M  V30 2294 C 213.922 3.42256 1.02935 0
M  V30 2295 S 215.481 4.04817 1.69319 0
M  V30 2296 H 212.299 0.690427 0.169799 0
M  V30 2297 H 214.901 1.94234 -0.222101 0
M  V30 2298 H 213.605 4.09842 0.213917 0
M  V30 2299 H 213.136 3.4928 1.81017 0
M  V30 2300 H 215.151 3.96767 2.97977 0
M  V30 2301 N 214.325 -0.140222 1.56975 0
M  V30 2302 C 215.55 -0.870414 1.88251 0
M  V30 2303 C 215.975 -1.73637 0.723312 0
M  V30 2304 O 215.333 -1.78329 -0.32689 0
M  V30 2305 C 215.381 -1.69737 3.18154 0
M  V30 2306 O 214.485 -2.80229 3.02565 0
M  V30 2307 H 213.826 -0.242025 0.61832 0
M  V30 2308 H 216.356 -0.128999 2.04193 0
M  V30 2309 H 216.366 -2.09099 3.50345 0
M  V30 2310 H 215.041 -1.06152 4.02125 0
M  V30 2311 H 213.618 -2.44224 2.81796 0
M  V30 2312 N 215.803 -1.52179 -0.40978 0
M  V30 2313 C 217.051 -1.65878 -1.15451 0
M  V30 2314 C 217.372 -0.390771 -1.91044 0
M  V30 2315 O 216.642 0.594323 -1.86667 0
M  V30 2316 H 215.222 -0.611405 -0.429177 0
M  V30 2317 H 217.884 -1.89219 -0.467134 0
M  V30 2318 H 216.98 -2.49954 -1.86894 0
M  V30 2319 N 217.281 0.66697 -1.42791 0
M  V30 2320 C 218.506 1.46004 -1.47301 0
M  V30 2321 C 218.931 1.87894 -0.0880317 0
M  V30 2322 O 218.289 1.56502 0.915253 0
M  V30 2323 C 218.337 2.68031 -2.41229 0
M  V30 2324 O 217.441 3.6659 -1.88906 0
M  V30 2325 H 216.782 0.43832 -0.49877 0
M  V30 2326 H 219.312 0.817391 -1.87563 0
M  V30 2327 H 219.322 3.1601 -2.58073 0
M  V30 2328 H 217.997 2.36883 -3.41847 0
M  V30 2329 H 216.574 3.25661 -1.81656 0
M  V30 2330 N 218.759 1.29093 0.90403 0
M  V30 2331 C 219.999 1.18076 1.66845 0
M  V30 2332 C 220.363 -0.26436 1.90171 0
M  V30 2333 O 221.564 -0.497423 2.64157 0
M  V30 2334 C 219.835 1.96722 2.98388 0
M  V30 2335 S 221.394 2.0219 3.89441 0
M  V30 2336 H 218.212 0.421104 0.572881 0
M  V30 2337 H 220.814 1.63322 1.07453 0
M  V30 2338 H 219.518 3.00866 2.7912 0
M  V30 2339 H 219.049 1.52064 3.62823 0
M  V30 2340 H 221.064 1.13545 4.83034 0
M  V30 2341 N 220.237 -1.11381 1.11499 0
M  V30 2342 C 221.514 -1.7955 0.775965 0
M  V30 2343 C 221.894 -1.97859 -0.73588 0
M  V30 2344 O 221.242 -1.56376 -1.66609 0
M  V30 2345 C 221.452 -3.13196 1.53977 0
M  V30 2346 C 222.8 -3.88227 1.71944 0
M  V30 2347 O 223.824 -3.22887 1.50407 0
M  V30 2348 O 222.683 -5.05477 2.07738 0
M  V30 2349 H 219.777 -0.777728 0.28119 0
M  V30 2350 H 222.323 -1.18118 1.21845 0
M  V30 2351 H 221.095 -2.95229 2.56818 0
M  V30 2352 H 220.718 -3.82342 1.09088 0
M  V30 2353 N 221.715 -0.905404 -1.28997 0
M  V30 2354 C 222.678 -0.392253 -2.25819 0
M  V30 2355 C 223.678 0.476753 -1.5357 0
M  V30 2356 O 224.868 0.280994 -1.71919 0
M  V30 2357 C 222 0.438588 -3.38067 0
M  V30 2358 H 223.193 -1.24743 -2.72725 0
M  V30 2359 H 220.746 -0.684051 -1.40536 0
M  V30 2360 H 221.481 1.31352 -2.96508 0
M  V30 2361 H 221.266 -0.184167 -3.91667 0
M  V30 2362 H 222.756 0.78873 -4.10084 0
M  V30 2363 N 223.193 1.4272 -0.668489 0
M  V30 2364 C 224.156 2.292 0.00448567 0
M  V30 2365 C 225.156 1.43001 0.735339 0
M  V30 2366 O 226.346 1.64461 0.57429 0
M  V30 2367 C 223.478 3.25375 1.01705 0
M  V30 2368 H 224.671 2.90199 -0.756608 0
M  V30 2369 H 222.224 1.50254 -0.430506 0
M  V30 2370 H 222.959 2.69301 1.80686 0
M  V30 2371 H 222.744 3.88944 0.496463 0
M  V30 2372 H 224.234 3.90245 1.48655 0
M  V30 2373 N 224.671 0.411399 1.52136 0
M  V30 2374 C 225.581 -0.419774 2.30814 0
M  V30 2375 C 226.597 -1.0515 1.38634 0
M  V30 2376 O 227.773 -1.05252 1.71709 0
M  V30 2377 C 224.838 -1.52019 3.11594 0
M  V30 2378 C 223.899 -0.91129 4.19516 0
M  V30 2379 C 223.132 -1.95927 4.96436 0
M  V30 2380 O 223.355 -3.17775 4.73683 0
M  V30 2381 O 222.289 -1.56423 5.81219 0
M  V30 2382 H 226.115 0.221805 3.02889 0
M  V30 2383 H 223.7 0.174547 1.48377 0
M  V30 2384 H 225.582 -2.15898 3.61892 0
M  V30 2385 H 224.257 -2.14633 2.42311 0
M  V30 2386 H 223.164 -0.235157 3.7336 0
M  V30 2387 H 224.497 -0.32904 4.91099 0
M  V30 2388 N 226.149 -1.5696 0.141893 0
M  V30 2389 C 227.377 -2.00322 -0.517579 0
M  V30 2390 C 227.792 -1.02193 -1.58752 0
M  V30 2391 O 227.149 -0.0181619 -1.82491 0
M  V30 2392 C 227.2 -3.43618 -1.12289 0
M  V30 2393 O 226.921 -4.37995 -0.0956929 0
M  V30 2394 C 228.422 -4.02231 -1.86347 0
M  V30 2395 H 225.642 -0.657243 -0.135177 0
M  V30 2396 H 228.186 -2.03146 0.234973 0
M  V30 2397 H 226.341 -3.41662 -1.82609 0
M  V30 2398 H 226.755 -5.21729 -0.538469 0
M  V30 2399 H 228.229 -5.04509 -2.23997 0
M  V30 2400 H 228.706 -3.42655 -2.74744 0
M  V30 2401 H 229.312 -4.07802 -1.20737 0
M  V30 2402 N 227.627 0.131896 -1.57047 0
M  V30 2403 C 228.855 0.856461 -1.88341 0
M  V30 2404 C 229.27 1.74042 -0.731757 0
M  V30 2405 O 228.627 1.80051 0.297945 0
M  V30 2406 C 228.678 1.70064 -3.18999 0
M  V30 2407 O 228.399 0.852278 -4.2973 0
M  V30 2408 C 229.9 2.53148 -3.63911 0
M  V30 2409 H 227.12 0.246885 -0.62393 0
M  V30 2410 H 229.664 0.120152 -2.04147 0
M  V30 2411 H 227.819 2.38984 -3.04902 0
M  V30 2412 H 228.233 1.43329 -5.04537 0
M  V30 2413 H 229.707 3.07931 -4.58129 0
M  V30 2414 H 230.184 3.29901 -2.89935 0
M  V30 2415 H 230.79 1.89492 -3.80753 0
M  V30 2416 N 229.106 1.52395 0.401703 0
M  V30 2417 C 230.336 1.70429 1.1678 0
M  V30 2418 C 230.744 0.416702 1.84554 0
M  V30 2419 O 230.087 -0.617697 1.73003 0
M  V30 2420 C 230.149 2.78919 2.26814 0
M  V30 2421 C 229.813 4.20437 1.79113 0
M  V30 2422 C 230.81 5.04028 1.27482 0
M  V30 2423 C 228.495 4.66704 1.85722 0
M  V30 2424 C 230.489 6.31961 0.830913 0
M  V30 2425 C 228.176 5.94625 1.40942 0
M  V30 2426 C 229.174 6.77082 0.897128 0
M  V30 2427 O 228.862 8.02607 0.455822 0
M  V30 2428 H 228.594 0.574272 0.356634 0
M  V30 2429 H 231.148 1.99767 0.477724 0
M  V30 2430 H 229.378 2.44973 2.99207 0
M  V30 2431 H 231.067 2.8548 2.88541 0
M  V30 2432 H 231.833 4.69471 1.21744 0
M  V30 2433 H 227.712 4.0262 2.24539 0
M  V30 2434 H 231.256 6.96271 0.430368 0
M  V30 2435 H 227.153 6.28688 1.46362 0
M  V30 2436 H 227.921 8.16453 0.578457 0
M  V30 2437 N 230.584 -0.659388 1.43143 0
M  V30 2438 C 231.861 -1.41627 1.34912 0
M  V30 2439 C 232.241 -2.11099 -0.00607785 0
M  V30 2440 O 231.589 -2.04353 -1.02236 0
M  V30 2441 C 231.799 -2.40604 2.52805 0
M  V30 2442 C 233.147 -3.04789 2.95616 0
M  V30 2443 O 234.171 -2.50932 2.52807 0
M  V30 2444 O 233.03 -4.02421 3.69756 0
M  V30 2445 H 230.124 -0.63246 0.532844 0
M  V30 2446 H 232.67 -0.686814 1.5518 0
M  V30 2447 H 231.442 -1.88174 3.43083 0
M  V30 2448 H 231.065 -3.21009 2.34604 0
M  V30 2449 N 232.062 -1.29571 -0.897171 0
M  V30 2450 C 233.009 -1.14916 -2.00158 0
M  V30 2451 C 233.979 -0.0418149 -1.66047 0
M  V30 2452 O 235.164 -0.209793 -1.89643 0
M  V30 2453 C 232.304 -0.834307 -3.34863 0
M  V30 2454 C 231.417 -2.02234 -3.8174 0
M  V30 2455 C 230.552 -1.64664 -5.05034 0
M  V30 2456 C 229.591 -2.80033 -5.44286 0
M  V30 2457 N 228.728 -2.42843 -6.58765 0
M  V30 2458 H 233.568 -2.09403 -2.12025 0
M  V30 2459 H 231.105 -1.042 -1.0383 0
M  V30 2460 H 233.063 -0.632436 -4.12379 0
M  V30 2461 H 231.693 0.0736656 -3.22716 0
M  V30 2462 H 230.745 -2.33583 -3.00238 0
M  V30 2463 H 232.057 -2.88673 -4.06779 0
M  V30 2464 H 231.211 -1.4078 -5.9014 0
M  V30 2465 H 229.95 -0.753766 -4.8184 0
M  V30 2466 H 228.955 -3.04596 -4.57713 0
M  V30 2467 H 230.18 -3.69989 -5.6946 0
M  V30 2468 H 228.126 -1.56046 -6.3717 0
M  V30 2469 H 228.043 -3.22815 -6.83613 0
M  V30 2470 H 229.311 -2.22285 -7.47134 0
M  V30 2471 N 233.54 1.10788 -1.12088 0
M  V30 2472 C 234.789 1.82036 -0.868659 0
M  V30 2473 C 235.102 1.85929 0.607426 0
M  V30 2474 O 236.308 2.53346 0.97613 0
M  V30 2475 C 234.764 3.26951 -1.50435 0
M  V30 2476 C 234.372 3.31367 -3.01496 0
M  V30 2477 C 236.116 4.03053 -1.33225 0
M  V30 2478 C 234.023 4.7072 -3.58017 0
M  V30 2479 H 232.953 0.682108 -0.321318 0
M  V30 2480 H 235.604 1.24618 -1.34694 0
M  V30 2481 H 233.986 3.84343 -0.953735 0
M  V30 2482 H 235.16 2.83819 -3.6302 0
M  V30 2483 H 233.475 2.6875 -3.18061 0
M  V30 2484 H 236.072 5.05981 -1.72878 0
M  V30 2485 H 236.415 4.15387 -0.275529 0
M  V30 2486 H 236.948 3.52066 -1.85188 0
M  V30 2487 H 233.687 4.63585 -4.63432 0
M  V30 2488 H 233.207 5.1865 -3.01268 0
M  V30 2489 H 234.886 5.39685 -3.56859 0
M  V30 2490 N 235.018 0.912232 1.28515 0
M  V30 2491 C 235.948 0.416403 2.29757 0
M  V30 2492 C 236.929 -0.515194 1.6211 0
M  V30 2493 O 238.114 -0.423253 1.89532 0
M  V30 2494 C 235.244 -0.34572 3.45575 0
M  V30 2495 C 234.198 0.496599 4.25109 0
M  V30 2496 C 233.524 -0.393771 5.33248 0
M  V30 2497 C 234.824 1.75307 4.92001 0
M  V30 2498 H 236.518 1.26249 2.7148 0
M  V30 2499 H 234.064 0.608515 1.30511 0
M  V30 2500 H 236.017 -0.703422 4.15488 0
M  V30 2501 H 234.741 -1.2257 3.02728 0
M  V30 2502 H 233.4 0.8368 3.56922 0
M  V30 2503 H 233.048 -1.27225 4.86644 0
M  V30 2504 H 232.748 0.166209 5.87365 0
M  V30 2505 H 234.272 -0.747389 6.06009 0
M  V30 2506 H 235.686 1.46437 5.54283 0
M  V30 2507 H 234.083 2.25534 5.56106 0
M  V30 2508 H 235.153 2.48176 4.16577 0
M  V30 2509 N 236.496 -1.42363 0.676048 0
M  V30 2510 C 237.443 -2.308 -0.00150904 0
M  V30 2511 C 238.413 -1.46032 -0.791444 0
M  V30 2512 O 239.598 -1.74861 -0.76344 0
M  V30 2513 C 236.738 -3.31883 -0.945919 0
M  V30 2514 C 235.851 -4.31741 -0.149675 0
M  V30 2515 C 234.986 -5.19898 -1.08995 0
M  V30 2516 C 234.025 -6.11434 -0.285465 0
M  V30 2517 N 233.162 -6.92138 -1.17851 0
M  V30 2518 H 238.002 -2.88187 0.758455 0
M  V30 2519 H 235.539 -1.41952 0.38576 0
M  V30 2520 H 237.497 -3.89019 -1.50731 0
M  V30 2521 H 236.127 -2.76093 -1.6725 0
M  V30 2522 H 235.179 -3.76713 0.528359 0
M  V30 2523 H 236.491 -4.96534 0.474866 0
M  V30 2524 H 235.645 -5.81772 -1.72123 0
M  V30 2525 H 234.384 -4.55284 -1.74837 0
M  V30 2526 H 233.389 -5.48627 0.359018 0
M  V30 2527 H 234.614 -6.78097 0.368883 0
M  V30 2528 H 232.56 -6.30152 -1.82332 0
M  V30 2529 H 232.477 -7.53542 -0.609082 0
M  V30 2530 H 233.745 -7.58499 -1.79722 0
M  V30 2531 N 237.974 -0.419461 -1.51915 0
M  V30 2532 C 238.922 0.415502 -2.28859 0
M  V30 2533 C 239.916 1.03674 -1.3397 0
M  V30 2534 O 241.122 0.973757 -1.51387 0
M  V30 2535 H 237.497 0.152786 -0.736315 0
M  V30 2536 H 239.468 -0.254531 -2.97312 0
M  V30 2537 C 238.217 1.51425 -3.12995 0
M  V30 2538 H 237.54 1.04556 -3.85886 0
M  V30 2539 H 238.98 2.07208 -3.6992 0
M  V30 2540 C 237.439 2.48745 -2.27217 0
M  V30 2541 O 237.969 3.52871 -1.9195 0
M  V30 2542 N 236.175 2.19202 -1.90785 0
M  V30 2543 H 235.722 1.34556 -2.19664 0
M  V30 2544 H 235.68 2.84561 -1.33687 0
M  V30 2545 N 239.452 1.56882 -0.150215 0
M  V30 2546 C 240.382 2.19935 0.784284 0
M  V30 2547 C 241.363 1.14854 1.25469 0
M  V30 2548 O 242.548 1.43209 1.31168 0
M  V30 2549 C 239.678 2.82349 2.02229 0
M  V30 2550 C 238.632 3.93285 1.68853 0
M  V30 2551 C 237.958 4.42649 2.99944 0
M  V30 2552 C 239.258 5.13904 0.932714 0
M  V30 2553 H 240.952 2.9828 0.258781 0
M  V30 2554 H 238.498 1.43473 0.123029 0
M  V30 2555 H 240.451 3.25126 2.68088 0
M  V30 2556 H 239.175 2.0134 2.57157 0
M  V30 2557 H 237.834 3.5113 1.05371 0
M  V30 2558 H 237.482 3.58458 3.52869 0
M  V30 2559 H 237.182 5.17476 2.78374 0
M  V30 2560 H 238.706 4.88099 3.66868 0
M  V30 2561 H 240.12 5.53506 1.49345 0
M  V30 2562 H 238.517 5.94515 0.81684 0
M  V30 2563 H 239.587 4.84842 -0.0749568 0
M  V30 2564 N 240.93 -0.123565 1.57115 0
M  V30 2565 C 242.155 -0.850398 1.89164 0
M  V30 2566 C 242.58 -1.7286 0.741688 0
M  V30 2567 O 241.938 -1.78665 -0.307958 0
M  V30 2568 C 241.986 -1.66353 3.19936 0
M  V30 2569 O 241.09 -2.77004 3.0552 0
M  V30 2570 H 240.431 -0.235454 0.620852 0
M  V30 2571 H 242.961 -0.107335 2.04318 0
M  V30 2572 H 242.971 -2.05372 3.52543 0
M  V30 2573 H 241.646 -1.01881 4.03228 0
M  V30 2574 H 240.223 -2.41221 2.84371 0
M  V30 2575 N 242.408 -1.52605 -0.393616 0
M  V30 2576 C 243.824 -1.41753 -0.733357 0
M  V30 2577 C 244.024 -0.534293 -1.94287 0
M  V30 2578 O 243.08 -0.0059787 -2.52499 0
M  V30 2579 C 244.393 -2.84531 -0.972772 0
M  V30 2580 C 245.941 -2.93978 -1.07453 0
M  V30 2581 C 246.416 -4.37756 -1.3466 0
M  V30 2582 N 247.907 -4.4106 -1.41492 0
M  V30 2583 C 248.642 -5.49387 -1.642 0
M  V30 2584 N 248.138 -6.67806 -1.8441 0
M  V30 2585 N 249.931 -5.36923 -1.66342 0
M  V30 2586 H 242.082 -2.08555 0.402328 0
M  V30 2587 H 244.345 -0.940654 0.117789 0
M  V30 2588 H 244.051 -3.51353 -0.156204 0
M  V30 2589 H 243.925 -3.26508 -1.88871 0
M  V30 2590 H 246.312 -2.27326 -1.88167 0
M  V30 2591 H 246.393 -2.55435 -0.136605 0
M  V30 2592 H 246.037 -5.04972 -0.544581 0
M  V30 2593 H 245.967 -4.73848 -2.2973 0
M  V30 2594 H 248.458 -3.55705 -1.27601 0
M  V30 2595 H 248.771 -7.46141 -2.01231 0
M  V30 2596 H 247.116 -6.70843 -1.81644 0
M  V30 2597 H 250.307 -4.43381 -1.50102 0
M  V30 2598 H 250.48 -6.21416 -1.837 0
M  V30 2599 N 243.887 0.651787 -1.4349 0
M  V30 2600 C 244.835 1.78586 -1.49029 0
M  V30 2601 C 245.829 1.65448 -0.363767 0
M  V30 2602 O 247.035 1.71777 -0.537821 0
M  V30 2603 H 243.41 0.589236 -0.467231 0
M  V30 2604 H 245.381 1.71035 -2.44519 0
M  V30 2605 C 244.13 3.16851 -1.43181 0
M  V30 2606 H 243.453 3.27598 -2.29171 0
M  V30 2607 H 244.893 3.96156 -1.51118 0
M  V30 2608 C 243.352 3.36568 -0.149616 0
M  V30 2609 O 243.882 3.93885 0.788509 0
M  V30 2610 N 242.088 2.90539 -0.0593484 0
M  V30 2611 H 241.635 2.4408 -0.823575 0
M  V30 2612 H 241.593 3.04108 0.797853 0
M  V30 2613 N 245.365 1.30045 0.890287 0
M  V30 2614 C 246.781 1.08261 1.17268 0
M  V30 2615 C 246.981 -0.160063 2.00863 0
M  V30 2616 O 246.037 -0.855181 2.37577 0
M  V30 2617 C 247.35 2.34323 1.8845 0
M  V30 2618 C 248.898 2.39735 2.01237 0
M  V30 2619 C 249.373 3.65625 2.7583 0
M  V30 2620 N 250.864 3.66402 2.83379 0
M  V30 2621 C 251.599 4.60498 3.41657 0
M  V30 2622 N 251.095 5.64933 4.01026 0
M  V30 2623 N 252.888 4.48051 3.39421 0
M  V30 2624 H 245.039 2.09777 0.332762 0
M  V30 2625 H 247.302 0.92446 0.209948 0
M  V30 2626 H 247.008 3.2498 1.34465 0
M  V30 2627 H 246.882 2.4256 2.88867 0
M  V30 2628 H 249.269 1.4956 2.54393 0
M  V30 2629 H 249.35 2.35476 0.999232 0
M  V30 2630 H 248.994 4.56156 2.23347 0
M  V30 2631 H 248.924 3.67144 3.77509 0
M  V30 2632 H 251.415 2.90896 2.41222 0
M  V30 2633 H 251.728 6.32841 4.43545 0
M  V30 2634 H 250.073 5.68732 3.99461 0
M  V30 2635 H 253.264 3.65649 2.92264 0
M  V30 2636 H 253.437 5.21565 3.84544 0
M  V30 2637 N 246.843 -1.10192 1.12674 0
M  V30 2638 C 248.259 -1.34235 0.863317 0
M  V30 2639 C 248.459 -1.95062 -0.505277 0
M  V30 2640 O 247.515 -2.19192 -1.25345 0
M  V30 2641 C 248.828 -2.2616 1.98172 0
M  V30 2642 C 250.376 -2.3969 2.0129 0
M  V30 2643 C 250.851 -3.34946 3.1237 0
M  V30 2644 N 252.342 -3.42515 3.11829 0
M  V30 2645 C 253.077 -4.16199 3.94419 0
M  V30 2646 N 252.573 -4.92747 4.87004 0
M  V30 2647 N 254.366 -4.11843 3.82547 0
M  V30 2648 H 246.517 -0.690798 2.00853 0
M  V30 2649 H 248.78 -0.366774 0.874174 0
M  V30 2650 H 248.486 -1.8868 2.96804 0
M  V30 2651 H 248.36 -3.26488 1.88906 0
M  V30 2652 H 250.747 -2.76438 1.03276 0
M  V30 2653 H 250.828 -1.39169 2.14629 0
M  V30 2654 H 250.472 -2.98923 4.10619 0
M  V30 2655 H 250.402 -4.35353 2.96269 0
M  V30 2656 H 252.893 -2.87926 2.44759 0
M  V30 2657 H 253.206 -5.46376 5.46528 0
M  V30 2658 H 251.551 -4.91862 4.91016 0
M  V30 2659 H 254.742 -3.51136 3.0955 0
M  V30 2660 H 254.915 -4.69007 4.47142 0
M  V30 2661 N 248.321 -0.919034 -1.28029 0
M  V30 2662 C 249.251 -0.428581 -2.29533 0
M  V30 2663 C 250.232 0.50659 -1.62381 0
M  V30 2664 O 251.417 0.413195 -1.89753 0
M  V30 2665 C 248.547 0.327388 -3.45753 0
M  V30 2666 C 247.501 -0.519137 -4.2484 0
M  V30 2667 C 246.827 0.365486 -5.33449 0
M  V30 2668 C 248.127 -1.77914 -4.91064 0
M  V30 2669 H 249.821 -1.27687 -2.70807 0
M  V30 2670 H 247.367 -0.615428 -1.30186 0
M  V30 2671 H 249.32 0.681378 -4.15855 0
M  V30 2672 H 248.044 1.20963 -3.03374 0
M  V30 2673 H 246.703 -0.855717 -3.56473 0
M  V30 2674 H 246.351 1.24642 -4.87312 0
M  V30 2675 H 246.051 -0.197356 -5.87268 0
M  V30 2676 H 247.575 0.715241 -6.06396 0
M  V30 2677 H 248.989 -1.49374 -5.53498 0
M  V30 2678 H 247.386 -2.2848 -5.54903 0
M  V30 2679 H 248.456 -2.50382 -4.15255 0
M  V30 2680 N 249.799 1.42003 -0.683588 0
M  V30 2681 C 251.045 2.01712 -0.209825 0
M  V30 2682 C 251.378 1.53968 1.18353 0
M  V30 2683 O 250.653 0.745661 1.79639 0
M  V30 2684 C 250.936 3.59202 -0.254197 0
M  V30 2685 C 250.789 4.17102 -1.68363 0
M  V30 2686 C 252.108 4.38344 0.392709 0
M  V30 2687 H 249.227 0.732891 -0.0777189 0
M  V30 2688 H 251.869 1.68909 -0.87004 0
M  V30 2689 H 250.019 3.87278 0.307954 0
M  V30 2690 H 251.691 3.99946 -2.29871 0
M  V30 2691 H 249.934 3.72597 -2.22157 0
M  V30 2692 H 250.605 5.26249 -1.6663 0
M  V30 2693 H 253.081 4.16011 -0.0859162 0
M  V30 2694 H 251.957 5.47901 0.331063 0
M  V30 2695 H 252.218 4.16887 1.47164 0
M  V30 2696 N 251.277 0.427512 1.51691 0
M  V30 2697 C 252.502 -0.143601 2.06902 0
M  V30 2698 C 252.927 -1.36536 1.29382 0
M  V30 2699 O 252.285 -1.78289 0.329043 0
M  V30 2700 C 252.333 -0.454207 3.57728 0
M  V30 2701 O 251.437 -1.54228 3.82475 0
M  V30 2702 H 250.778 -0.00617128 0.663971 0
M  V30 2703 H 253.308 0.606014 1.95419 0
M  V30 2704 H 253.318 -0.707525 4.01818 0
M  V30 2705 H 251.993 0.438812 4.13579 0
M  V30 2706 H 250.57 -1.2797 3.50254 0
M  V30 2707 N 252.755 -1.56801 0.158532 0
M  V30 2708 C 254.032 -1.88131 -0.535357 0
M  V30 2709 C 254.412 -1.06638 -1.82186 0
M  V30 2710 O 253.76 -0.156533 -2.27963 0
M  V30 2711 C 253.97 -3.39949 -0.789653 0
M  V30 2712 C 255.318 -4.09416 -1.12533 0
M  V30 2713 O 256.342 -3.45194 -0.878622 0
M  V30 2714 O 255.201 -5.22855 -1.59014 0
M  V30 2715 H 252.295 -0.780143 -0.27442 0
M  V30 2716 H 254.841 -1.68564 0.19601 0
M  V30 2717 H 253.613 -3.91115 0.120353 0
M  V30 2718 H 253.236 -3.65084 -1.57479 0
M  V30 2719 N 254.233 0.115231 -1.57178 0
M  V30 2720 C 255.18 1.14115 -2.00615 0
M  V30 2721 C 256.15 1.40939 -0.878941 0
M  V30 2722 O 257.335 1.52741 -1.14345 0
M  V30 2723 C 254.475 2.46156 -2.4187 0
M  V30 2724 C 253.588 2.26236 -3.68024 0
M  V30 2725 C 252.723 3.51534 -3.98243 0
M  V30 2726 C 251.762 3.26787 -5.17568 0
M  V30 2727 N 250.899 4.44298 -5.43639 0
M  V30 2728 H 255.739 0.763743 -2.88047 0
M  V30 2729 H 253.276 0.365615 -1.42484 0
M  V30 2730 H 255.234 3.23189 -2.63827 0
M  V30 2731 H 253.864 2.81783 -1.57475 0
M  V30 2732 H 252.916 1.40102 -3.5366 0
M  V30 2733 H 254.228 2.03929 -4.55208 0
M  V30 2734 H 253.382 4.36984 -4.20868 0
M  V30 2735 H 252.121 3.76876 -3.09541 0
M  V30 2736 H 251.126 2.39729 -4.94783 0
M  V30 2737 H 252.351 3.02812 -6.0785 0
M  V30 2738 H 250.297 4.69754 -4.57895 0
M  V30 2739 H 250.214 4.25109 -6.25154 0
M  V30 2740 H 251.482 5.3087 -5.70786 0
M  V30 2741 N 255.711 1.52812 0.385517 0
M  V30 2742 C 256.957 1.68275 1.13188 0
M  V30 2743 C 257.29 0.423179 1.89533 0
M  V30 2744 O 256.565 -0.579113 1.85679 0
M  V30 2745 C 256.848 2.92001 2.1073 0
M  V30 2746 C 256.701 4.28067 1.38125 0
M  V30 2747 C 258.02 3.11283 3.11113 0
M  V30 2748 H 255.139 0.612352 0.410115 0
M  V30 2749 H 257.781 1.85415 0.414869 0
M  V30 2750 H 255.931 2.77519 2.71874 0
M  V30 2751 H 257.603 4.54324 0.799187 0
M  V30 2752 H 255.846 4.28388 0.683092 0
M  V30 2753 H 256.517 5.10733 2.09417 0
M  V30 2754 H 258.993 3.2482 2.6006 0
M  V30 2755 H 257.869 3.99325 3.76605 0
M  V30 2756 H 258.13 2.25656 3.80173 0
M  V30 2757 N 257.189 -0.644168 1.43834 0
M  V30 2758 C 258.437 -1.40117 1.45642 0
M  V30 2759 C 258.758 -1.94814 0.0852413 0
M  V30 2760 O 258.028 -1.74988 -0.880688 0
M  V30 2761 H 256.608 -0.52005 0.536243 0
M  V30 2762 H 259.27 -0.7591 1.7951 0
M  V30 2763 H 258.366 -2.23902 2.17427 0
M  V30 2764 N 258.668 -1.30515 -0.883378 0
M  V30 2765 C 259.6 -1.12846 -1.99496 0
M  V30 2766 C 260.613 -0.0712571 -1.62644 0
M  V30 2767 O 261.802 -0.317432 -1.75655 0
M  V30 2768 C 258.902 -0.699123 -3.3161 0
M  V30 2769 C 258.075 -1.83842 -3.96889 0
M  V30 2770 C 257.134 -1.39737 -5.07307 0
M  V30 2771 O 256.16 -2.10485 -5.28852 0
M  V30 2772 N 257.362 -0.277279 -5.79837 0
M  V30 2773 H 260.127 -2.08585 -2.15203 0
M  V30 2774 H 257.688 -1.22672 -1.05656 0
M  V30 2775 H 259.68 -0.387044 -4.02845 0
M  V30 2776 H 258.25 0.166276 -3.12157 0
M  V30 2777 H 257.47 -2.31853 -3.18807 0
M  V30 2778 H 258.758 -2.60187 -4.37241 0
M  V30 2779 H 258.156 0.3122 -5.64838 0
M  V30 2780 H 256.713 -0.0246623 -6.51795 0
M  V30 2781 N 260.146 1.09593 -1.13257 0
M  V30 2782 C 261.109 2.14359 -0.811358 0
M  V30 2783 C 262.109 1.59808 0.178377 0
M  V30 2784 O 263.299 1.74132 -0.0484911 0
M  V30 2785 C 260.431 3.40269 -0.207276 0
M  V30 2786 H 261.624 2.44284 -1.73969 0
M  V30 2787 H 259.177 1.25102 -0.936973 0
M  V30 2788 H 259.912 3.15969 0.73036 0
M  V30 2789 H 259.697 3.81154 -0.919992 0
M  V30 2790 H 261.187 4.176 0.000667944 0
M  V30 2791 N 261.624 0.925811 1.2754 0
M  V30 2792 C 262.864 0.572521 1.96218 0
M  V30 2793 C 263.228 -0.869719 1.71172 0
M  V30 2794 O 264.429 -1.33119 2.33523 0
M  V30 2795 C 262.7 0.887325 3.4621 0
M  V30 2796 S 264.259 0.642266 4.34074 0
M  V30 2797 H 261.077 0.211403 0.678845 0
M  V30 2798 H 263.679 1.19384 1.54815 0
M  V30 2799 H 262.383 1.93469 3.61936 0
M  V30 2800 H 261.914 0.255123 3.92572 0
M  V30 2801 H 263.929 -0.500822 4.93666 0
M  V30 2802 N 263.102 -1.41638 0.69111 0
M  V30 2803 C 264.342 -2.03166 0.224291 0
M  V30 2804 C 264.706 -1.53537 -1.15284 0
M  V30 2805 O 265.907 -2.0696 -1.71525 0
M  V30 2806 C 264.178 -3.56342 0.274758 0
M  V30 2807 S 265.737 -4.3864 -0.118669 0
M  V30 2808 H 262.555 -0.705188 0.0907263 0
M  V30 2809 H 265.157 -1.7314 0.907895 0
M  V30 2810 H 263.861 -3.89958 1.2791 0
M  V30 2811 H 263.392 -3.91063 -0.428142 0
M  V30 2812 H 265.407 -4.77549 -1.34764 0
M  V30 2813 N 264.58 -0.43555 -1.51462 0
M  V30 2814 C 265.996 -0.0877501 -1.59359 0
M  V30 2815 C 266.196 1.4027 -1.4466 0
M  V30 2816 O 265.252 2.17243 -1.28693 0
M  V30 2817 C 266.565 -0.606264 -2.94525 0
M  V30 2818 C 268.113 -0.566548 -3.0783 0
M  V30 2819 C 268.588 -1.06201 -4.45517 0
M  V30 2820 N 270.079 -1.01992 -4.51832 0
M  V30 2821 C 270.814 -1.37417 -5.5669 0
M  V30 2822 N 270.31 -1.80119 -6.68976 0
M  V30 2823 N 272.103 -1.29245 -5.47039 0
M  V30 2824 H 264.254 -1.40533 -1.59261 0
M  V30 2825 H 266.517 -0.578992 -0.750648 0
M  V30 2826 H 266.223 -1.64901 -3.10645 0
M  V30 2827 H 266.097 -0.0302097 -3.77188 0
M  V30 2828 H 268.484 0.467208 -2.91378 0
M  V30 2829 H 268.565 -1.17898 -2.2701 0
M  V30 2830 H 268.209 -2.09422 -4.62715 0
M  V30 2831 H 268.139 -0.426127 -5.24873 0
M  V30 2832 H 270.63 -0.706308 -3.71241 0
M  V30 2833 H 270.943 -2.05392 -7.45006 0
M  V30 2834 H 269.288 -1.84044 -6.70189 0
M  V30 2835 H 272.479 -0.957522 -4.58202 0
M  V30 2836 H 272.652 -1.57182 -6.28648 0
M  V30 2837 N 266.058 1.56714 -0.166846 0
M  V30 2838 C 267.469 1.83378 0.350646 0
M  V30 2839 C 267.82 1.08646 1.63372 0
M  V30 2840 O 266.945 0.338058 2.13743 0
M  V30 2841 C 267.54 3.32643 0.642963 0
M  V30 2842 C 266.099 3.59818 1.10491 0
M  V30 2843 C 265.246 2.76954 0.138411 0
M  V30 2844 H 268.197 1.53803 -0.391193 0
M  V30 2845 H 268.218 3.49878 1.49551 0
M  V30 2846 H 267.73 3.87007 -0.291055 0
M  V30 2847 H 265.831 3.1086 2.05418 0
M  V30 2848 H 265.944 4.68178 1.01716 0
M  V30 2849 H 264.308 2.4666 0.634911 0
M  V30 2850 H 265.091 3.34097 -0.789549 0
M  V30 2851 N 267.536 -0.106894 1.57237 0
M  V30 2852 C 268.785 -0.811163 1.8467 0
M  V30 2853 C 269.098 -1.80469 0.754342 0
M  V30 2854 O 270.304 -2.55601 0.915439 0
M  V30 2855 C 268.76 -1.49337 3.27454 0
M  V30 2856 C 268.368 -0.540217 4.44731 0
M  V30 2857 C 270.112 -2.18206 3.64124 0
M  V30 2858 C 268.019 -1.22634 5.78545 0
M  V30 2859 H 266.949 -0.306679 0.688813 0
M  V30 2860 H 269.6 -0.0639887 1.83388 0
M  V30 2861 H 267.982 -2.2876 3.23241 0
M  V30 2862 H 269.156 0.221659 4.60267 0
M  V30 2863 H 267.471 0.042146 4.16379 0
M  V30 2864 H 270.068 -2.70253 4.61376 0
M  V30 2865 H 270.411 -2.96562 2.92158 0
M  V30 2866 H 270.944 -1.45658 3.70174 0
M  V30 2867 H 267.683 -0.483832 6.53712 0
M  V30 2868 H 267.203 -1.95993 5.66874 0
M  V30 2869 H 268.882 -1.75615 6.2271 0
M  V30 2870 N 269.014 -1.53014 -0.377408 0
M  V30 2871 C 269.977 -1.77957 -1.44444 0
M  V30 2872 C 270.977 -0.649763 -1.47087 0
M  V30 2873 O 272.167 -0.917897 -1.48055 0
M  V30 2874 C 269.299 -1.89089 -2.83651 0
M  V30 2875 H 270.492 -2.73243 -1.23606 0
M  V30 2876 H 268.045 -1.43912 -0.609844 0
M  V30 2877 H 268.78 -0.958293 -3.09818 0
M  V30 2878 H 268.565 -2.71254 -2.83132 0
M  V30 2879 H 270.055 -2.1002 -3.60945 0
M  V30 2880 N 270.492 0.636531 -1.44174 0
M  V30 2881 C 271.739 1.39619 -1.46672 0
M  V30 2882 C 272.067 1.94257 -0.0972691 0
M  V30 2883 O 271.322 1.73768 0.900175 0
M  V30 2884 C 271.621 2.58309 -2.47005 0
M  V30 2885 C 271.287 2.21992 -3.92467 0
M  V30 2886 C 269.949 2.118 -4.32081 0
M  V30 2887 C 272.301 1.9321 -4.84065 0
M  V30 2888 C 269.629 1.71007 -5.61225 0
M  V30 2889 C 271.981 1.53911 -6.13591 0
M  V30 2890 C 270.645 1.42257 -6.52165 0
M  V30 2891 H 269.915 0.510902 -0.536712 0
M  V30 2892 H 272.562 0.722328 -1.77355 0
M  V30 2893 H 270.867 3.30903 -2.09786 0
M  V30 2894 H 272.564 3.16533 -2.46186 0
M  V30 2895 H 269.154 2.30841 -3.61124 0
M  V30 2896 H 273.338 1.99997 -4.54219 0
M  V30 2897 H 268.594 1.60583 -5.89935 0
M  V30 2898 H 272.768 1.30677 -6.8403 0
M  V30 2899 H 270.395 1.10419 -7.52138 0
M  V30 2900 N 271.97 1.30982 0.876444 0
M  V30 2901 C 273.247 1.10942 1.61094 0
M  V30 2902 C 273.627 -0.338223 2.08373 0
M  V30 2903 O 272.975 -1.33122 1.85717 0
M  V30 2904 C 273.185 2.11789 2.77392 0
M  V30 2905 C 274.533 2.43965 3.47514 0
M  V30 2906 O 275.557 2.10166 2.87591 0
M  V30 2907 O 274.416 3.01817 4.55597 0
M  V30 2908 H 271.51 0.42667 0.708436 0
M  V30 2909 H 274.056 1.42438 0.922474 0
M  V30 2910 H 272.828 3.09194 2.39823 0
M  V30 2911 H 272.451 1.81161 3.5393 0
M  V30 2912 N 273.449 -1.08991 1.13837 0
M  V30 2913 C 274.726 -1.77863 0.813876 0
M  V30 2914 C 275.106 -1.99375 -0.693746 0
M  V30 2915 O 274.454 -1.59875 -1.63255 0
M  V30 2916 C 274.664 -3.0986 1.60586 0
M  V30 2917 C 276.012 -3.84493 1.8014 0
M  V30 2918 O 277.036 -3.19624 1.57222 0
M  V30 2919 O 275.895 -5.00957 2.18413 0
M  V30 2920 H 272.989 -0.771589 0.297624 0
M  V30 2921 H 275.535 -1.15507 1.24323 0
M  V30 2922 H 274.307 -2.89715 2.63022 0
M  V30 2923 H 273.93 -3.79942 1.17173 0
M  V30 2924 N 274.927 -0.932562 -1.27047 0
M  V30 2925 C 276.204 -0.49377 -1.89265 0
M  V30 2926 C 276.584 1.02833 -1.8436 0
M  V30 2927 O 275.932 1.88461 -1.29209 0
M  V30 2928 C 276.142 -1.04536 -3.32976 0
M  V30 2929 C 277.49 -1.10879 -4.09867 0
M  V30 2930 O 278.514 -0.995327 -3.42011 0
M  V30 2931 O 277.373 -1.28417 -5.31198 0
M  V30 2932 H 274.467 -0.159596 -0.811454 0
M  V30 2933 H 277.013 -1.02457 -1.3528 0
M  V30 2934 H 275.785 -2.08913 -3.30864 0
M  V30 2935 H 275.408 -0.496494 -3.94488 0
M  V30 2936 N 276.405 1.4127 -0.698611 0
M  V30 2937 C 277.335 2.33447 -0.049629 0
M  V30 2938 C 278.316 1.51982 0.763898 0
M  V30 2939 O 279.501 1.80509 0.716257 0
M  V30 2940 C 276.631 3.35828 0.885267 0
M  V30 2941 C 275.585 4.27627 0.178613 0
M  V30 2942 C 274.911 5.20406 1.22807 0
M  V30 2943 C 276.211 5.13459 -0.956933 0
M  V30 2944 H 277.905 2.87966 -0.81951 0
M  V30 2945 H 275.451 1.38461 -0.395538 0
M  V30 2946 H 277.404 3.9924 1.34854 0
M  V30 2947 H 276.128 2.79666 1.68685 0
M  V30 2948 H 274.787 3.65643 -0.26466 0
M  V30 2949 H 274.435 4.60558 2.02226 0
M  V30 2950 H 274.135 5.82661 0.760239 0
M  V30 2951 H 275.659 5.86695 1.69179 0
M  V30 2952 H 277.073 5.70421 -0.573805 0
M  V30 2953 H 275.47 5.8467 -1.35205 0
M  V30 2954 H 276.54 4.50443 -1.79524 0
M  V30 2955 N 277.883 0.443576 1.51229 0
M  V30 2956 C 279.108 -0.121648 2.07043 0
M  V30 2957 C 279.533 -1.35156 1.30823 0
M  V30 2958 O 278.891 -1.7793 0.347934 0
M  V30 2959 C 278.939 -0.41624 3.5819 0
M  V30 2960 O 278.043 -1.50163 3.8409 0
M  V30 2961 H 277.384 0.000871367 0.663999 0
M  V30 2962 H 279.914 0.626706 1.94765 0
M  V30 2963 H 279.924 -0.664867 4.02546 0
M  V30 2964 H 278.599 0.482653 4.1309 0
M  V30 2965 H 277.176 -1.24248 3.51592 0
M  V30 2966 N 279.361 -1.56624 0.175154 0
M  V30 2967 C 280.608 -1.96999 -0.468811 0
M  V30 2968 C 280.936 -1.06129 -1.62994 0
M  V30 2969 O 280.191 -0.0961771 -1.95464 0
M  V30 2970 C 280.49 -3.43419 -0.989864 0
M  V30 2971 C 280.156 -4.50866 0.0557687 0
M  V30 2972 C 278.818 -4.79975 0.343134 0
M  V30 2973 C 281.17 -5.15551 0.765308 0
M  V30 2974 C 278.498 -5.71066 1.34536 0
M  V30 2975 C 280.85 -6.07724 1.75654 0
M  V30 2976 C 279.514 -6.35199 2.05132 0
M  V30 2977 H 278.784 -0.720869 -0.17155 0
M  V30 2978 H 281.431 -1.89616 0.267924 0
M  V30 2979 H 279.736 -3.47772 -1.80449 0
M  V30 2980 H 281.433 -3.72002 -1.49719 0
M  V30 2981 H 278.023 -4.28229 -0.178381 0
M  V30 2982 H 282.207 -4.9317 0.556513 0
M  V30 2983 H 277.463 -5.90635 1.57988 0
M  V30 2984 H 281.637 -6.56912 2.31169 0
M  V30 2985 H 279.264 -7.05584 2.8294 0
M  V30 2986 N 280.839 0.0985539 -1.57292 0
M  V30 2987 C 281.769 1.12064 -2.04851 0
M  V30 2988 C 282.75 1.41981 -0.936767 0
M  V30 2989 O 283.935 1.52071 -1.20781 0
M  V30 2990 C 281.065 2.44144 -2.47004 0
M  V30 2991 C 280.019 2.28643 -3.6181 0
M  V30 2992 C 279.345 3.65869 -3.89929 0
M  V30 2993 C 280.645 1.72986 -4.92822 0
M  V30 2994 H 282.339 0.724979 -2.9049 0
M  V30 2995 H 279.885 0.34729 -1.39749 0
M  V30 2996 H 281.838 3.15914 -2.78884 0
M  V30 2997 H 280.562 2.85639 -1.5836 0
M  V30 2998 H 279.221 1.59318 -3.30172 0
M  V30 2999 H 278.869 4.04885 -2.98458 0
M  V30 3000 H 278.569 3.56344 -4.67218 0
M  V30 3001 H 280.093 4.39112 -4.2428 0
M  V30 3002 H 281.507 2.34593 -5.23105 0
M  V30 3003 H 279.904 1.74229 -5.74251 0
M  V30 3004 H 280.974 0.689007 -4.7998 0
M  V30 3005 N 282.317 1.53212 0.369288 0
M  V30 3006 C 283.594 1.59815 1.12776 0
M  V30 3007 C 283.974 0.403402 2.0721 0
M  V30 3008 O 283.322 -0.606667 2.20299 0
M  V30 3009 C 283.532 2.94664 1.87013 0
M  V30 3010 C 284.88 3.49109 2.41677 0
M  V30 3011 O 285.904 2.96669 1.97144 0
M  V30 3012 O 284.763 4.40775 3.23079 0
M  V30 3013 H 281.857 0.645376 0.517125 0
M  V30 3014 H 284.403 1.65553 0.37285 0
M  V30 3015 H 283.175 3.73061 1.18071 0
M  V30 3016 H 282.798 2.92401 2.69421 0
M  V30 3017 N 283.795 -0.628877 1.44509 0
M  V30 3018 C 285.072 -1.38733 1.37886 0
M  V30 3019 C 285.452 -2.11065 0.0387008 0
M  V30 3020 O 284.8 -2.06476 -0.97878 0
M  V30 3021 C 285.01 -2.35188 2.57852 0
M  V30 3022 C 286.358 -2.9845 3.02014 0
M  V30 3023 O 287.382 -2.45513 2.58073 0
M  V30 3024 O 286.241 -3.94487 3.78209 0
M  V30 3025 H 283.335 -0.621015 0.54614 0
M  V30 3026 H 285.881 -0.653744 1.56602 0
M  V30 3027 H 284.653 -1.80855 3.46998 0
M  V30 3028 H 284.276 -3.1596 2.4136 0
M  V30 3029 N 285.273 -1.31445 -0.869486 0
M  V30 3030 C 286.221 -1.19067 -1.99814 0
M  V30 3031 C 287.215 -0.0988569 -1.69111 0
M  V30 3032 O 288.421 -0.260781 -1.78101 0
M  V30 3033 H 284.796 -0.368677 -0.655425 0
M  V30 3034 H 286.767 -2.14555 -2.07385 0
M  V30 3035 C 285.516 -0.915323 -3.35436 0
M  V30 3036 H 284.839 -1.74759 -3.59582 0
M  V30 3037 H 286.279 -0.868895 -4.15001 0
M  V30 3038 C 284.738 0.381928 -3.34728 0
M  V30 3039 O 285.268 1.39857 -3.76567 0
M  V30 3040 N 283.474 0.398633 -2.87853 0
M  V30 3041 H 283.021 -0.429186 -2.54 0
M  V30 3042 H 282.979 1.26651 -2.87762 0
M  V30 3043 N 286.751 1.08385 -1.14413 0
M  V30 3044 C 287.681 2.17321 -0.854044 0
M  V30 3045 C 288.662 1.69024 0.191049 0
M  V30 3046 O 289.847 1.94141 0.0476779 0
M  V30 3047 C 286.977 3.45719 -0.330983 0
M  V30 3048 C 285.931 4.07409 -1.31155 0
M  V30 3049 C 285.257 5.30762 -0.64778 0
M  V30 3050 C 286.557 4.48665 -2.67388 0
M  V30 3051 H 288.251 2.41845 -1.76498 0
M  V30 3052 H 285.797 1.16233 -0.850051 0
M  V30 3053 H 287.75 4.21241 -0.115645 0
M  V30 3054 H 286.474 3.2075 0.615381 0
M  V30 3055 H 285.133 3.33919 -1.51306 0
M  V30 3056 H 284.781 5.02078 0.304398 0
M  V30 3057 H 284.481 5.72992 -1.30207 0
M  V30 3058 H 286.005 6.08998 -0.441972 0
M  V30 3059 H 287.419 5.15364 -2.51143 0
M  V30 3060 H 285.816 5.01814 -3.29093 0
M  V30 3061 H 286.886 3.60543 -3.24248 0
M  V30 3062 N 288.23 0.939286 1.26551 0
M  V30 3063 C 289.476 0.586715 1.94128 0
M  V30 3064 C 289.809 -0.8717 1.73537 0
M  V30 3065 O 289.084 -1.62339 1.07127 0
M  V30 3066 C 289.367 0.927497 3.4795 0
M  V30 3067 C 289.22 2.44052 3.77834 0
M  V30 3068 C 290.539 0.441569 4.37879 0
M  V30 3069 H 287.658 0.21463 0.705055 0
M  V30 3070 H 290.3 1.17316 1.49455 0
M  V30 3071 H 288.45 0.428431 3.8613 0
M  V30 3072 H 290.122 3.01216 3.4938 0
M  V30 3073 H 288.365 2.8848 3.23978 0
M  V30 3074 H 289.036 2.62947 4.85348 0
M  V30 3075 H 291.512 0.869448 4.06915 0
M  V30 3076 H 290.388 0.708856 5.44304 0
M  V30 3077 H 290.649 -0.658467 4.37169 0
M  V30 3078 N 289.708 -1.40897 0.706093 0
M  V30 3079 C 290.938 -2.05075 0.250523 0
M  V30 3080 C 291.346 -1.53275 -1.10921 0
M  V30 3081 O 290.689 -0.680281 -1.7064 0
M  V30 3082 C 290.751 -3.59219 0.142178 0
M  V30 3083 C 290.415 -4.33864 1.43566 0
M  V30 3084 C 291.412 -4.62448 2.37566 0
M  V30 3085 C 289.097 -4.72946 1.69195 0
M  V30 3086 C 291.091 -5.29088 3.5545 0
M  V30 3087 C 288.778 -5.3932 2.87362 0
M  V30 3088 C 289.776 -5.6732 3.80312 0
M  V30 3089 O 289.464 -6.32325 4.96408 0
M  V30 3090 H 289.196 -0.666645 0.112074 0
M  V30 3091 H 291.75 -1.81467 0.962239 0
M  V30 3092 H 289.98 -3.81609 -0.6254 0
M  V30 3093 H 291.669 -4.0495 -0.277584 0
M  V30 3094 H 292.435 -4.32727 2.19027 0
M  V30 3095 H 288.314 -4.50527 0.977042 0
M  V30 3096 H 291.858 -5.50859 4.28018 0
M  V30 3097 H 287.755 -5.68461 3.05814 0
M  V30 3098 H 288.523 -6.50821 4.9636 0
M  V30 3099 N 291.186 -0.45159 -1.50991 0
M  V30 3100 C 292.136 0.370861 -2.24964 0
M  V30 3101 C 293.12 0.978074 -1.2776 0
M  V30 3102 O 294.312 0.893854 -1.52772 0
M  V30 3103 C 291.441 1.46344 -3.10545 0
M  V30 3104 C 290.527 0.864924 -4.15187 0
M  V30 3105 N 290.918 -0.00311354 -5.058 0
M  V30 3106 C 289.216 1.13099 -4.31422 0
M  V30 3107 C 289.917 -0.340772 -5.80701 0
M  V30 3108 N 288.893 0.279203 -5.42883 0
M  V30 3109 H 292.695 -0.298134 -2.92384 0
M  V30 3110 H 290.209 -0.264528 -1.60231 0
M  V30 3111 H 292.206 2.06565 -3.62128 0
M  V30 3112 H 290.866 2.13463 -2.4467 0
M  V30 3113 H 291.877 -0.37058 -5.16572 0
M  V30 3114 H 288.554 1.79861 -3.76771 0
M  V30 3115 H 289.944 -1.048 -6.63677 0
M  V30 3116 N 292.664 1.56529 -0.183458 0
M  V30 3117 C 293.913 1.96419 0.458511 0
M  V30 3118 C 294.226 1.0727 1.63562 0
M  V30 3119 O 295.432 1.36893 2.34462 0
M  V30 3120 C 293.888 3.49298 0.867122 0
M  V30 3121 C 293.496 4.47092 -0.285057 0
M  V30 3122 C 295.24 3.97983 1.47683 0
M  V30 3123 C 293.147 5.91225 0.143862 0
M  V30 3124 H 292.077 0.733394 0.175071 0
M  V30 3125 H 294.728 1.81448 -0.273624 0
M  V30 3126 H 293.11 3.59731 1.65559 0
M  V30 3127 H 294.284 4.48383 -1.0625 0
M  V30 3128 H 292.599 4.08535 -0.805503 0
M  V30 3129 H 295.196 5.03134 1.80999 0
M  V30 3130 H 295.539 3.41618 2.37914 0
M  V30 3131 H 296.072 3.90617 0.752562 0
M  V30 3132 H 292.811 6.5149 -0.723974 0
M  V30 3133 H 292.331 5.93214 0.886413 0
M  V30 3134 H 294.01 6.44362 0.583628 0
M  V30 3135 N 294.142 -0.090211 1.57342 0
M  V30 3136 C 295.072 -1.10976 2.05443 0
M  V30 3137 C 296.053 -1.41482 0.944284 0
M  V30 3138 O 297.238 -1.51428 1.21586 0
M  V30 3139 C 294.368 -2.42831 2.48295 0
M  V30 3140 C 293.322 -2.26721 3.63018 0
M  V30 3141 C 292.648 -3.63796 3.91863 0
M  V30 3142 C 293.948 -1.7037 4.93732 0
M  V30 3143 H 295.642 -0.709564 2.9087 0
M  V30 3144 H 293.188 -0.339874 1.39932 0
M  V30 3145 H 295.141 -3.14431 2.80555 0
M  V30 3146 H 293.865 -2.84795 1.59873 0
M  V30 3147 H 292.524 -1.57565 3.31012 0
M  V30 3148 H 292.172 -4.03297 3.00601 0
M  V30 3149 H 291.872 -3.53861 4.69101 0
M  V30 3150 H 293.396 -4.36855 4.26603 0
M  V30 3151 H 294.81 -2.31816 5.24342 0
M  V30 3152 H 293.207 -1.71181 5.75167 0
M  V30 3153 H 294.277 -0.663542 4.80339 0
M  V30 3154 N 295.62 -1.53406 -0.361157 0
M  V30 3155 C 297.036 -1.43277 -0.703124 0
M  V30 3156 C 297.236 -0.575384 -1.9311 0
M  V30 3157 O 296.292 -0.0595362 -2.5243 0
M  V30 3158 C 297.605 -2.8653 -0.9122 0
M  V30 3159 C 299.153 -2.96191 -1.01193 0
M  V30 3160 C 299.628 -4.40514 -1.25345 0
M  V30 3161 N 301.119 -4.43962 -1.32105 0
M  V30 3162 C 301.854 -5.52746 -1.5251 0
M  V30 3163 N 301.35 -6.71567 -1.70203 0
M  V30 3164 N 303.143 -5.40331 -1.54916 0
M  V30 3165 H 295.294 -2.07654 0.446475 0
M  V30 3166 H 297.557 -0.937944 0.137715 0
M  V30 3167 H 297.263 -3.51605 -0.0816414 0
M  V30 3168 H 297.137 -3.30441 -1.81903 0
M  V30 3169 H 299.524 -2.31266 -1.83303 0
M  V30 3170 H 299.605 -2.55667 -0.0823929 0
M  V30 3171 H 299.249 -5.06014 -0.437346 0
M  V30 3172 H 299.179 -4.78614 -2.19627 0
M  V30 3173 H 301.67 -3.58332 -1.20028 0
M  V30 3174 H 301.983 -7.50241 -1.85359 0
M  V30 3175 H 300.328 -6.74545 -1.67373 0
M  V30 3176 H 303.519 -4.46465 -1.40663 0
M  V30 3177 H 303.692 -6.25173 -1.70477 0
M  V30 3178 N 297.098 0.621204 -1.44841 0
M  V30 3179 C 298.045 1.73267 -1.5247 0
M  V30 3180 C 299.015 1.6189 -0.371611 0
M  V30 3181 O 300.2 1.81668 -0.58321 0
M  V30 3182 C 297.34 3.11545 -1.48438 0
M  V30 3183 C 296.453 3.33827 -2.74196 0
M  V30 3184 C 295.588 4.62133 -2.61929 0
M  V30 3185 C 294.627 4.77627 -3.82804 0
M  V30 3186 N 293.764 5.97219 -3.69153 0
M  V30 3187 H 298.604 1.66082 -2.47428 0
M  V30 3188 H 296.141 0.810026 -1.22788 0
M  V30 3189 H 298.099 3.91528 -1.4409 0
M  V30 3190 H 296.729 3.1772 -0.570402 0
M  V30 3191 H 295.781 2.47715 -2.88689 0
M  V30 3192 H 297.093 3.41153 -3.6389 0
M  V30 3193 H 296.247 5.50291 -2.5547 0
M  V30 3194 H 294.986 4.57182 -1.69811 0
M  V30 3195 H 293.991 3.87896 -3.89637 0
M  V30 3196 H 295.216 4.84385 -4.75971 0
M  V30 3197 H 293.162 5.93339 -2.79794 0
M  V30 3198 H 293.079 6.05644 -4.52472 0
M  V30 3199 H 294.347 6.87912 -3.66603 0
M  V30 3200 N 298.576 1.31904 0.862503 0
M  V30 3201 C 299.526 1.16772 1.95827 0
M  V30 3202 C 300.51 0.0767098 1.60717 0
M  V30 3203 O 301.702 0.302407 1.74398 0
M  V30 3204 C 298.831 0.884858 3.317 0
M  V30 3205 C 297.917 2.0172 3.73055 0
M  V30 3206 N 298.308 3.265 3.86305 0
M  V30 3207 C 296.606 1.91861 4.02623 0
M  V30 3208 C 297.307 4.00616 4.2176 0
M  V30 3209 N 296.283 3.28847 4.32852 0
M  V30 3210 H 300.085 2.11382 2.04193 0
M  V30 3211 H 297.599 1.2357 1.05377 0
M  V30 3212 H 299.596 0.757419 4.09962 0
M  V30 3213 H 298.256 -0.0529448 3.24657 0
M  V30 3214 H 299.267 3.61529 3.70833 0
M  V30 3215 H 295.944 1.05593 4.03926 0
M  V30 3216 H 297.334 5.08182 4.39546 0
M  V30 3217 N 300.054 -1.07777 1.14986 0
M  V30 3218 C 301.279 -1.84558 0.946213 0
M  V30 3219 C 301.704 -1.81323 -0.500362 0
M  V30 3220 O 301.062 -1.20301 -1.35637 0
M  V30 3221 C 301.11 -3.29736 1.45968 0
M  V30 3222 O 300.214 -4.07149 0.65601 0
M  V30 3223 H 299.555 -0.571641 0.33782 0
M  V30 3224 H 302.085 -1.35991 1.52865 0
M  V30 3225 H 302.095 -3.80574 1.47063 0
M  V30 3226 H 300.77 -3.31406 2.51283 0
M  V30 3227 H 299.347 -3.65994 0.714322 0
M  V30 3228 N 301.532 -0.945985 -1.26051 0
M  V30 3229 C 302.495 -0.463897 -2.24456 0
M  V30 3230 C 303.495 0.427655 -1.55009 0
M  V30 3231 O 304.685 0.226157 -1.72726 0
M  V30 3232 C 301.817 0.330812 -3.39291 0
M  V30 3233 H 303.01 -1.33357 -2.68619 0
M  V30 3234 H 300.563 -0.728416 -1.38289 0
M  V30 3235 H 301.298 1.21852 -3.00537 0
M  V30 3236 H 301.083 -0.308679 -3.90883 0
M  V30 3237 H 302.573 0.657865 -4.12386 0
M  V30 3238 N 303.011 1.40521 -0.713556 0
M  V30 3239 C 303.958 2.30723 -0.059684 0
M  V30 3240 C 304.928 1.48079 0.752448 0
M  V30 3241 O 306.113 1.76823 0.71681 0
M  V30 3242 C 303.253 3.34274 0.857594 0
M  V30 3243 C 302.366 4.31986 0.0351536 0
M  V30 3244 C 301.501 5.22605 0.951724 0
M  V30 3245 C 300.54 6.11976 0.123253 0
M  V30 3246 N 299.677 6.9502 0.99459 0
M  V30 3247 H 304.517 2.86074 -0.834596 0
M  V30 3248 H 302.054 1.40879 -0.42326 0
M  V30 3249 H 304.012 3.92879 1.40364 0
M  V30 3250 H 302.642 2.8043 1.59871 0
M  V30 3251 H 301.694 3.7518 -0.628052 0
M  V30 3252 H 303.006 4.95101 -0.606347 0
M  V30 3253 H 302.16 5.86131 1.56638 0
M  V30 3254 H 300.899 4.59759 1.62705 0
M  V30 3255 H 299.904 5.47482 -0.50435 0
M  V30 3256 H 301.129 6.76881 -0.548539 0
M  V30 3257 H 299.075 6.34764 1.6556 0
M  V30 3258 H 298.992 7.54892 0.40908 0
M  V30 3259 H 300.26 7.62997 1.59549 0
M  V30 3260 N 304.489 0.459591 1.5075 0
M  V30 3261 C 305.905 0.113092 1.59199 0
M  V30 3262 C 306.105 -1.37951 1.46874 0
M  V30 3263 O 305.161 -2.15168 1.32132 0
M  V30 3264 C 306.474 0.653043 2.93523 0
M  V30 3265 C 308.022 0.615449 3.0689 0
M  V30 3266 C 308.497 1.13275 4.43771 0
M  V30 3267 N 309.988 1.09167 4.50152 0
M  V30 3268 C 310.723 1.46256 5.54434 0
M  V30 3269 N 310.219 1.90739 6.66026 0
M  V30 3270 N 312.012 1.37932 5.44914 0
M  V30 3271 H 304.163 1.43049 1.57005 0
M  V30 3272 H 306.426 0.590861 0.741341 0
M  V30 3273 H 306.132 1.69822 3.07983 0
M  V30 3274 H 306.006 0.0902132 3.77092 0
M  V30 3275 H 308.393 -0.420793 2.92084 0
M  V30 3276 H 308.474 1.21495 2.25106 0
M  V30 3277 H 308.118 2.16757 4.59324 0
M  V30 3278 H 308.048 0.509576 5.24129 0
M  V30 3279 H 310.539 0.76528 3.7007 0
M  V30 3280 H 310.852 2.17218 7.41644 0
M  V30 3281 H 309.197 1.94683 6.67176 0
M  V30 3282 H 312.388 1.0303 4.56621 0
M  V30 3283 H 312.561 1.67164 6.26067 0
M  V30 3284 N 305.967 -1.56429 0.191757 0
M  V30 3285 C 307.207 -1.99383 -0.450099 0
M  V30 3286 C 307.571 -1.07581 -1.59029 0
M  V30 3287 O 308.772 -1.39758 -2.29611 0
M  V30 3288 C 307.043 -3.45841 -0.901611 0
M  V30 3289 S 308.602 -4.10822 -1.54177 0
M  V30 3290 H 305.42 -0.696253 -0.144057 0
M  V30 3291 H 308.022 -1.93276 0.294036 0
M  V30 3292 H 306.726 -4.10354 -0.0616596 0
M  V30 3293 H 306.257 -3.55757 -1.67929 0
M  V30 3294 H 308.272 -4.07553 -2.83046 0
M  V30 3295 N 307.445 0.0818655 -1.57387 0
M  V30 3296 C 308.693 0.781368 -1.86384 0
M  V30 3297 C 309.014 1.78618 -0.782342 0
M  V30 3298 O 308.284 1.94976 0.190061 0
M  V30 3299 H 306.864 0.291562 -0.687751 0
M  V30 3300 H 309.526 0.060348 -1.94807 0
M  V30 3301 H 308.622 1.3038 -2.83562 0
M  V30 3302 N 308.923 1.53595 0.353017 0
M  V30 3303 C 310.163 1.72094 1.10286 0
M  V30 3304 C 310.527 0.469217 1.86178 0
M  V30 3305 O 311.728 0.531083 2.63501 0
M  V30 3306 C 309.999 2.94386 2.02661 0
M  V30 3307 S 311.558 3.33651 2.84996 0
M  V30 3308 H 308.376 0.605433 0.372789 0
M  V30 3309 H 310.978 1.91722 0.38248 0
M  V30 3310 H 309.682 3.83669 1.45691 0
M  V30 3311 H 309.213 2.77197 2.79152 0
M  V30 3312 H 311.228 2.86645 4.0503 0
M  V30 3313 N 310.401 -0.613514 1.45168 0
M  V30 3314 C 311.65 -1.36874 1.4815 0
M  V30 3315 C 311.963 -1.952 0.124982 0
M  V30 3316 O 313.169 -2.71481 0.0324176 0
M  V30 3317 C 311.625 -2.47905 2.60904 0
M  V30 3318 C 311.233 -1.96016 4.02842 0
M  V30 3319 C 312.977 -3.24965 2.73126 0
M  V30 3320 C 310.884 -3.04494 5.06988 0
M  V30 3321 H 309.814 -0.514428 0.551253 0
M  V30 3322 H 312.465 -0.658182 1.7129 0
M  V30 3323 H 310.847 -3.21618 2.31037 0
M  V30 3324 H 312.021 -1.29051 4.4236 0
M  V30 3325 H 310.336 -1.31719 3.95018 0
M  V30 3326 H 312.933 -4.05865 3.48106 0
M  V30 3327 H 313.276 -3.75588 1.79553 0
M  V30 3328 H 313.809 -2.5835 3.0249 0
M  V30 3329 H 310.548 -2.58795 6.0225 0
M  V30 3330 H 310.068 -3.70044 4.72046 0
M  V30 3331 H 311.747 -3.68976 5.31475 0
M  V30 3332 O 311.918 -1.42644 -0.757294 0
M  V30 3333 H 312.609 -1.33267 -1.40569 0
M  V30 END ATOM
M  V30 BEGIN BOND
M  V30 END BOND
M  V30 END CTAB
M  END
$$$$
