drugbank_target|P40238 Thrombopoietin receptor (DB05332; DB05930; DB06210; DB06534; DB11995; DB13125)
 OpenBabel12092120323D

  0  0  0     0  0            999 V3000
M  V30 BEGIN CTAB
M  V30 COUNTS 9883 10040 0 0 0
M  V30 BEGIN ATOM
M  V30 1 H -0.908 1.98254 -0.117106 0
M  V30 2 N 0 1.576 0 0
M  V30 3 C 0.933 2.03868 1.02534 0
M  V30 4 C 1.911 0.928543 1.3348 0
M  V30 5 O 3.095 1.19667 1.45644 0
M  V30 6 C 0.222 2.43627 2.35294 0
M  V30 7 C -0.732 3.65373 2.2001 0
M  V30 8 S 0.101 5.13292 1.52614 0
M  V30 9 C 1.257 5.56322 2.86805 0
M  V30 10 H 1.49 2.90518 0.631377 0
M  V30 11 H -0.977 1.52953 0.210867 0
M  V30 12 H 0.981 2.67203 3.11629 0
M  V30 13 H -0.358 1.57376 2.7183 0
M  V30 14 H -1.165 3.90944 3.18086 0
M  V30 15 H -1.563 3.418 1.51819 0
M  V30 16 H 0.729 5.58782 3.83104 0
M  V30 17 H 1.672 6.56266 2.65933 0
M  V30 18 H 2.08 4.83886 2.90714 0
M  V30 19 N 1.4781 -0.272755 1.55222 0
M  V30 20 C 2.8891 -0.84378 1.66545 0
M  V30 21 C 3.2401 -1.87035 0.592641 0
M  V30 22 O 2.3651 -2.14761 -0.265818 0
M  V30 23 C 2.9601 -1.53723 3.01918 0
M  V30 24 C 1.5191 -2.05628 3.15268 0
M  V30 25 C 0.6661 -0.898424 2.62343 0
M  V30 26 H 3.6171 -0.0490998 1.58624 0
M  V30 27 H 3.6381 -2.40421 2.94921 0
M  V30 28 H 3.1501 -0.78983 3.79978 0
M  V30 29 H 1.2511 -2.83329 2.41983 0
M  V30 30 H 1.3641 -2.27142 4.21833 0
M  V30 31 H -0.2719 -1.29186 2.19506 0
M  V30 32 H 0.5111 -0.164528 3.42906 0
M  V30 33 N 2.9562 -1.48159 -0.537278 0
M  V30 34 C 4.1812 -1.59707 -1.32319 0
M  V30 35 C 4.6062 -0.254859 -1.86365 0
M  V30 36 O 3.9642 0.772378 -1.64024 0
M  V30 37 C 4.0122 -2.6412 -2.45505 0
M  V30 38 O 3.1162 -2.20774 -3.48328 0
M  V30 39 H 2.4572 -0.535791 -0.392204 0
M  V30 40 H 4.9872 -1.94092 -0.647268 0
M  V30 41 H 4.9972 -2.85166 -2.91795 0
M  V30 42 H 3.6722 -3.61567 -2.05528 0
M  V30 43 H 2.2492 -2.09911 -3.08207 0
M  V30 44 N 4.4343 0.785586 -1.36625 0
M  V30 45 C 5.6803 1.5452 -1.32269 0
M  V30 46 C 6.0353 1.92159 0.0962266 0
M  V30 47 O 5.3283 1.60158 1.05167 0
M  V30 48 C 5.5223 2.83007 -2.1827 0
M  V30 49 C 5.3513 2.57925 -3.68382 0
M  V30 50 C 4.1213 2.52752 -4.37544 0
M  V30 51 C 6.3193 2.26861 -4.61561 0
M  V30 52 N 4.3013 2.19608 -5.73276 0
M  V30 53 C 5.6723 2.03738 -5.85569 0
M  V30 54 C 7.7273 2.129 -4.50087 0
M  V30 55 C 6.4303 1.68065 -6.9939 0
M  V30 56 C 8.4563 1.78626 -5.63779 0
M  V30 57 C 7.8183 1.56353 -6.86828 0
M  V30 58 H 3.9173 0.566301 -0.539283 0
M  V30 59 H 6.5013 0.917736 -1.71714 0
M  V30 60 H 4.6723 3.43614 -1.81063 0
M  V30 61 H 6.4043 3.48775 -2.05275 0
M  V30 62 H 3.1593 2.6813 -3.90389 0
M  V30 63 H 3.5833 2.05771 -6.44971 0
M  V30 64 H 8.2253 2.28808 -3.55537 0
M  V30 65 H 5.9433 1.50895 -7.93887 0
M  V30 66 H 9.5293 1.68502 -5.56865 0
M  V30 67 H 8.4093 1.30223 -7.73312 0
M  V30 68 N 5.9124 1.20967 1.01018 0
M  V30 69 C 6.8754 0.965918 2.07853 0
M  V30 70 C 7.8754 -0.0610545 1.60684 0
M  V30 71 O 9.0654 0.175681 1.73312 0
M  V30 72 C 6.1974 0.455513 3.37843 0
M  V30 73 H 7.3904 1.91365 2.3091 0
M  V30 74 H 4.9434 1.02594 1.17916 0
M  V30 75 H 5.6784 -0.497381 3.20463 0
M  V30 76 H 5.4634 1.19622 3.73407 0
M  V30 77 H 6.9534 0.304667 4.16487 0
M  V30 78 N 7.3905 -1.2043 1.01659 0
M  V30 79 C 8.3205 -2.25466 0.607226 0
M  V30 80 C 9.3015 -1.65853 -0.377716 0
M  V30 81 O 10.4865 -1.92409 -0.263149 0
M  V30 82 C 7.6165 -3.47256 -0.0552949 0
M  V30 83 C 6.5705 -4.19462 0.850632 0
M  V30 84 C 5.8965 -5.34673 0.0538859 0
M  V30 85 C 7.1965 -4.75603 2.15868 0
M  V30 86 H 8.8905 -2.59962 1.48526 0
M  V30 87 H 6.4365 -1.2496 0.715605 0
M  V30 88 H 8.3895 -4.19917 -0.353233 0
M  V30 89 H 7.1135 -3.11924 -0.968045 0
M  V30 90 H 5.7725 -3.48667 1.13257 0
M  V30 91 H 5.4205 -4.95585 -0.860514 0
M  V30 92 H 5.1205 -5.83913 0.657192 0
M  V30 93 H 6.6445 -6.10138 -0.237598 0
M  V30 94 H 8.0585 -5.40083 1.92311 0
M  V30 95 H 6.4555 -5.3528 2.71284 0
M  V30 96 H 7.5255 -3.94346 2.82169 0
M  V30 97 N 8.8686 -0.792821 -1.36206 0
M  V30 98 C 10.1156 -0.366786 -1.99151 0
M  V30 99 C 10.4436 1.06243 -1.62919 0
M  V30 100 O 9.6986 1.74927 -0.877442 0
M  V30 101 C 9.9976 -0.481501 -3.54142 0
M  V30 102 C 9.6636 -1.87202 -4.10203 0
M  V30 103 C 8.3256 -2.25248 -4.25226 0
M  V30 104 C 10.6776 -2.78237 -4.40719 0
M  V30 105 C 8.0056 -3.53723 -4.68078 0
M  V30 106 C 10.3576 -4.06144 -4.85005 0
M  V30 107 C 9.0216 -4.44207 -4.98234 0
M  V30 108 H 8.2916 -0.134217 -0.728743 0
M  V30 109 H 10.9386 -1.01094 -1.62641 0
M  V30 110 H 9.2436 0.246146 -3.91026 0
M  V30 111 H 10.9406 -0.132844 -4.0078 0
M  V30 112 H 7.5306 -1.56639 -3.98951 0
M  V30 113 H 11.7146 -2.50097 -4.28679 0
M  V30 114 H 6.9706 -3.8308 -4.76508 0
M  V30 115 H 11.1446 -4.76796 -5.07581 0
M  V30 116 H 8.7716 -5.43814 -5.31197 0
M  V30 117 N 10.3467 1.47872 -0.545128 0
M  V30 118 C 11.2797 2.2675 0.256885 0
M  V30 119 C 12.2577 1.33293 0.931228 0
M  V30 120 O 13.4417 1.62657 0.95262 0
M  V30 121 C 10.5687 3.09976 1.36501 0
M  V30 122 C 9.6147 4.1892 0.800496 0
M  V30 123 S 10.4477 5.34397 -0.343505 0
M  V30 124 C 11.6037 6.21186 0.766733 0
M  V30 125 H 11.8367 2.94425 -0.412479 0
M  V30 126 H 9.3697 1.50806 -0.331204 0
M  V30 127 H 11.3277 3.585 1.9997 0
M  V30 128 H 9.9887 2.41686 2.00616 0
M  V30 129 H 9.1817 4.76836 1.63227 0
M  V30 130 H 8.7837 3.73215 0.242217 0
M  V30 131 H 11.0757 6.56804 1.66178 0
M  V30 132 H 12.0187 7.07742 0.225204 0
M  V30 133 H 12.4267 5.54574 1.05396 0
M  V30 134 N 11.8248 0.280983 1.55075 0
M  V30 135 C 13.0708 -0.33461 2.00021 0
M  V30 136 C 13.4038 -1.55063 1.16915 0
M  V30 137 O 12.6788 -1.93006 0.240646 0
M  V30 138 C 12.9618 -0.711007 3.53011 0
M  V30 139 C 12.8148 0.512766 4.46868 0
M  V30 140 C 14.1338 -1.54522 4.12081 0
M  V30 141 H 11.2528 -0.120147 0.727141 0
M  V30 142 H 13.8948 0.389097 1.85973 0
M  V30 143 H 12.0448 -1.32761 3.65112 0
M  V30 144 H 13.7168 1.15131 4.46702 0
M  V30 145 H 11.9598 1.14975 4.18286 0
M  V30 146 H 12.6308 0.205556 5.51617 0
M  V30 147 H 15.1068 -1.02442 4.03293 0
M  V30 148 H 13.9828 -1.77739 5.19327 0
M  V30 149 H 14.2438 -2.52813 3.62682 0
M  V30 150 N 13.3029 -1.57598 0.00835791 0
M  V30 151 C 14.5309 -1.95214 -0.68549 0
M  V30 152 C 14.9459 -0.883706 -1.66841 0
M  V30 153 O 14.3029 0.136565 -1.81988 0
M  V30 154 C 14.3539 -3.32865 -1.41007 0
M  V30 155 O 14.0749 -4.35609 -0.466552 0
M  V30 156 C 15.5759 -3.84991 -2.19765 0
M  V30 157 H 12.7959 -0.643422 -0.190392 0
M  V30 158 H 15.3399 -2.04406 0.0619607 0
M  V30 159 H 13.4949 -3.24956 -2.10908 0
M  V30 160 H 13.9089 -5.15288 -0.978699 0
M  V30 161 H 15.3829 -4.8371 -2.65948 0
M  V30 162 H 15.8599 -3.18137 -3.02796 0
M  V30 163 H 16.4659 -3.96103 -1.54864 0
M  V30 164 N 14.781 0.264519 -1.55364 0
M  V30 165 C 16.006 1.01726 -1.80739 0
M  V30 166 C 16.431 1.78836 -0.583044 0
M  V30 167 O 15.789 1.75167 0.467566 0
M  V30 168 C 15.837 1.94482 -3.03659 0
M  V30 169 O 14.941 3.03386 -2.7934 0
M  V30 170 H 14.282 0.290395 -0.597132 0
M  V30 171 H 16.812 0.290854 -2.02522 0
M  V30 172 H 16.822 2.36278 -3.32621 0
M  V30 173 H 15.497 1.37772 -3.92418 0
M  V30 174 H 14.074 2.65844 -2.61498 0
M  V30 175 N 16.2591 1.48442 0.529413 0
M  V30 176 C 17.4991 1.58086 1.29569 0
M  V30 177 C 17.8631 0.249302 1.90375 0
M  V30 178 O 19.0641 0.220738 2.67892 0
M  V30 179 C 17.3351 2.68793 2.35552 0
M  V30 180 S 18.8941 2.98207 3.21898 0
M  V30 181 H 15.7121 0.557922 0.440732 0
M  V30 182 H 18.3141 1.85966 0.603059 0
M  V30 183 H 17.0181 3.64102 1.89363 0
M  V30 184 H 16.5491 2.42817 3.09522 0
M  V30 185 H 18.5641 2.37548 4.35644 0
M  V30 186 N 17.7372 -0.778329 1.37039 0
M  V30 187 C 18.6672 -1.90546 1.34962 0
M  V30 188 C 19.6482 -1.68681 0.219274 0
M  V30 189 O 20.8332 -1.89634 0.418624 0
M  V30 190 C 17.9632 -3.27734 1.14925 0
M  V30 191 C 16.9172 -3.64147 2.24902 0
M  V30 192 C 16.2432 -4.99806 1.89996 0
M  V30 193 C 17.5432 -3.71579 3.67051 0
M  V30 194 H 19.2372 -1.92541 2.29277 0
M  V30 195 H 16.7832 -0.924948 1.10366 0
M  V30 196 H 18.7362 -4.06215 1.12104 0
M  V30 197 H 17.4602 -3.26154 0.170631 0
M  V30 198 H 16.1192 -2.8797 2.26868 0
M  V30 199 H 15.7672 -4.94759 0.906796 0
M  V30 200 H 15.4672 -5.25139 2.63634 0
M  V30 201 H 16.9912 -5.80694 1.88749 0
M  V30 202 H 18.4052 -4.40227 3.67251 0
M  V30 203 H 16.8022 -4.08405 4.39688 0
M  V30 204 H 17.8722 -2.72404 4.01154 0
M  V30 205 N 19.2153 -1.21501 -1.00376 0
M  V30 206 C 20.1453 -0.999478 -2.11028 0
M  V30 207 C 21.1263 0.0759671 -1.6993 0
M  V30 208 O 22.3113 -0.0841106 -1.94018 0
M  V30 209 C 19.4413 -0.564709 -3.42678 0
M  V30 210 C 18.3953 -1.58486 -3.97576 0
M  V30 211 C 17.7213 -1.00628 -5.25146 0
M  V30 212 C 19.0213 -2.97204 -4.29496 0
M  V30 213 H 20.7153 -1.92495 -2.29317 0
M  V30 214 H 18.2613 -0.92693 -1.102 0
M  V30 215 H 20.2143 -0.401091 -4.19487 0
M  V30 216 H 18.9383 0.396411 -3.24185 0
M  V30 217 H 17.5973 -1.73606 -3.22888 0
M  V30 218 H 17.2453 -0.0368439 -5.02987 0
M  V30 219 H 16.9453 -1.68771 -5.62841 0
M  V30 220 H 18.4693 -0.854015 -6.04598 0
M  V30 221 H 19.8833 -2.8552 -4.97143 0
M  V30 222 H 18.2803 -3.62372 -4.78338 0
M  V30 223 H 19.3503 -3.47956 -3.3772 0
M  V30 224 N 20.6934 1.19889 -1.02296 0
M  V30 225 C 21.6234 2.25141 -0.619174 0
M  V30 226 C 22.6044 1.66051 0.368915 0
M  V30 227 O 23.7894 1.92546 0.252941 0
M  V30 228 C 20.9194 3.4728 0.0368783 0
M  V30 229 C 19.8734 4.19005 -0.872865 0
M  V30 230 C 19.1994 5.34637 -0.0822402 0
M  V30 231 C 20.4994 4.74452 -2.18387 0
M  V30 232 H 22.1934 2.59171 -1.49903 0
M  V30 233 H 19.7394 1.24579 -0.722222 0
M  V30 234 H 21.6924 4.20098 0.330958 0
M  V30 235 H 20.4164 3.12433 0.95149 0
M  V30 236 H 19.0754 3.48061 -1.15105 0
M  V30 237 H 18.7234 4.96034 0.83422 0
M  V30 238 H 18.4234 5.83557 -0.688149 0
M  V30 239 H 19.9474 6.10255 0.205238 0
M  V30 240 H 21.3614 5.39055 -1.95172 0
M  V30 241 H 19.7584 5.33834 -2.74119 0
M  V30 242 H 20.8284 3.92844 -2.84257 0
M  V30 243 N 22.1715 0.800033 1.35784 0
M  V30 244 C 23.1345 0.211565 2.28221 0
M  V30 245 C 24.1345 -0.59728 1.49296 0
M  V30 246 O 25.3245 -0.416721 1.69142 0
M  V30 247 C 22.4565 -0.705846 3.33513 0
M  V30 248 H 23.6495 1.02677 2.81776 0
M  V30 249 H 21.2025 0.570211 1.45528 0
M  V30 250 H 21.9375 -1.54498 2.85133 0
M  V30 251 H 21.7225 -0.127655 3.91892 0
M  V30 252 H 23.2125 -1.11211 4.02519 0
M  V30 253 N 23.6496 -1.47581 0.552962 0
M  V30 254 C 25.0606 -1.86324 0.118463 0
M  V30 255 C 25.4116 -1.46006 -1.3106 0
M  V30 256 O 24.5366 -0.861182 -1.98526 0
M  V30 257 C 25.1316 -3.3816 0.20821 0
M  V30 258 C 23.6906 -3.7601 -0.171226 0
M  V30 259 C 22.8376 -2.71634 0.557686 0
M  V30 260 H 25.7886 -1.39159 0.762928 0
M  V30 261 H 25.8096 -3.76141 -0.574278 0
M  V30 262 H 25.3216 -3.67473 1.24841 0
M  V30 263 H 23.4226 -3.52313 -1.21269 0
M  V30 264 H 23.5356 -4.78745 0.184379 0
M  V30 265 H 21.8996 -2.547 0.00125792 0
M  V30 266 H 22.6826 -3.0379 1.59896 0
M  V30 267 N 25.1277 -0.289203 -1.54924 0
M  V30 268 C 26.0597 0.625583 -2.20497 0
M  V30 269 C 27.0727 1.10667 -1.19402 0
M  V30 270 O 28.2617 1.02615 -1.46056 0
M  V30 271 C 25.3617 1.86702 -2.82835 0
M  V30 272 C 24.5347 1.5304 -4.09753 0
M  V30 273 C 23.5937 2.62576 -4.56005 0
M  V30 274 O 22.6197 2.28167 -5.21468 0
M  V30 275 N 23.8217 3.92901 -4.27328 0
M  V30 276 H 26.5867 0.0642801 -2.99631 0
M  V30 277 H 24.1477 -0.110896 -1.6152 0
M  V30 278 H 26.1397 2.59304 -3.10715 0
M  V30 279 H 24.7097 2.33702 -2.07611 0
M  V30 280 H 23.9297 0.637564 -3.8901 0
M  V30 281 H 25.2177 1.28072 -4.92418 0
M  V30 282 H 24.6157 4.23671 -3.74859 0
M  V30 283 H 23.1727 4.61837 -4.59946 0
M  V30 284 N 26.6058 1.57591 -0.0167156 0
M  V30 285 C 27.5538 2.10604 0.987353 0
M  V30 286 C 28.5478 1.02977 1.34507 0
M  V30 287 O 29.7538 1.21425 1.32875 0
M  V30 288 H 26.1288 0.672695 0.336134 0
M  V30 289 H 28.0998 2.93925 0.514817 0
M  V30 290 C 26.8488 2.6382 2.26483 0
M  V30 291 H 26.1718 3.46278 1.99829 0
M  V30 292 H 27.6118 3.04573 2.94977 0
M  V30 293 C 26.0708 1.55992 2.9861 0
M  V30 294 O 26.6008 0.952521 3.90243 0
M  V30 295 N 24.8068 1.28335 2.60727 0
M  V30 296 H 24.3538 1.77914 1.86291 0
M  V30 297 H 24.3118 0.564115 3.09298 0
M  V30 298 N 28.0839 -0.256276 1.55502 0
M  V30 299 C 29.0139 -1.32102 1.92539 0
M  V30 300 C 29.9949 -1.50684 0.789194 0
M  V30 301 O 31.1799 -1.63449 1.04872 0
M  V30 302 C 28.3099 -2.67752 2.21192 0
M  V30 303 C 27.2639 -2.63878 3.36975 0
M  V30 304 C 26.5899 -4.03236 3.51147 0
M  V30 305 C 27.8899 -2.21682 4.72921 0
M  V30 306 H 29.5839 -1.01351 2.81724 0
M  V30 307 H 27.1299 -0.486105 1.35547 0
M  V30 308 H 29.0829 -3.42365 2.45691 0
M  V30 309 H 27.8069 -3.0012 1.28824 0
M  V30 310 H 26.4659 -1.91722 3.12471 0
M  V30 311 H 26.1139 -4.32854 2.56216 0
M  V30 312 H 25.8139 -4.01535 4.29003 0
M  V30 313 H 27.3379 -4.79563 3.77957 0
M  V30 314 H 28.7519 -2.86023 4.96854 0
M  V30 315 H 27.1489 -2.3111 5.53812 0
M  V30 316 H 28.2189 -1.16833 4.70615 0
M  V30 317 N 29.562 -1.4872 -0.521534 0
M  V30 318 C 30.525 -1.63379 -1.60748 0
M  V30 319 C 31.525 -0.50661 -1.52611 0
M  V30 320 O 32.715 -0.772601 -1.5613 0
M  V30 321 C 29.847 -1.61192 -3.00383 0
M  V30 322 H 31.04 -2.60217 -1.49087 0
M  V30 323 H 28.593 -1.37444 -0.744235 0
M  V30 324 H 29.328 -0.65863 -3.17541 0
M  V30 325 H 29.113 -2.43032 -3.07698 0
M  V30 326 H 30.603 -1.7466 -3.7932 0
M  V30 327 N 31.0401 0.771051 -1.3745 0
M  V30 328 C 31.9721 1.89352 -1.29146 0
M  V30 329 C 32.9851 1.61477 -0.207124 0
M  V30 330 O 34.1741 1.72382 -0.463324 0
M  V30 331 C 31.2741 3.24596 -0.974195 0
M  V30 332 C 30.4471 3.80111 -2.16413 0
M  V30 333 C 29.5061 4.93832 -1.81703 0
M  V30 334 O 28.5321 5.09382 -2.54006 0
M  V30 335 N 29.7341 5.75483 -0.761573 0
M  V30 336 H 32.4991 1.96991 -2.25864 0
M  V30 337 H 30.0601 0.950191 -1.31084 0
M  V30 338 H 32.0521 3.98193 -0.722828 0
M  V30 339 H 30.6221 3.12454 -0.0955527 0
M  V30 340 H 29.8421 2.98284 -2.57721 0
M  V30 341 H 31.1301 4.13932 -2.95867 0
M  V30 342 H 30.5281 5.65469 -0.161609 0
M  V30 343 H 29.0851 6.49302 -0.570064 0
M  V30 344 N 32.5182 1.22032 0.997298 0
M  V30 345 C 33.7642 1.04376 1.73878 0
M  V30 346 C 34.0972 -0.420716 1.89588 0
M  V30 347 O 33.3722 -1.31202 1.43583 0
M  V30 348 C 33.6552 1.75047 3.14691 0
M  V30 349 C 33.5082 3.29062 3.06656 0
M  V30 350 C 34.8272 1.49928 4.13775 0
M  V30 351 H 31.9462 0.380578 0.631133 0
M  V30 352 H 34.5882 1.50312 1.16217 0
M  V30 353 H 32.7382 1.35996 3.63919 0
M  V30 354 H 34.4102 3.7753 2.65083 0
M  V30 355 H 32.6532 3.58967 2.43568 0
M  V30 356 H 33.3242 3.73683 4.06282 0
M  V30 357 H 35.8002 1.83842 3.73285 0
M  V30 358 H 34.6762 2.01878 5.10428 0
M  V30 359 H 34.9372 0.430929 4.39995 0
M  V30 360 N 33.9963 -1.19345 1.0293 0
M  V30 361 C 35.2213 -1.93538 0.745511 0
M  V30 362 C 35.6463 -1.75007 -0.689511 0
M  V30 363 O 35.0043 -1.05265 -1.47611 0
M  V30 364 C 35.0523 -3.43336 1.10239 0
M  V30 365 O 34.1563 -4.11806 0.221289 0
M  V30 366 H 33.4973 -0.604193 0.275404 0
M  V30 367 H 36.0273 -1.5141 1.37609 0
M  V30 368 H 36.0373 -3.94004 1.05947 0
M  V30 369 H 34.7123 -3.56146 2.14786 0
M  V30 370 H 33.2893 -3.715 0.322842 0
M  V30 371 N 35.4744 -0.807222 -1.35358 0
M  V30 372 C 36.6994 -0.399309 -2.0352 0
M  V30 373 C 37.1244 0.981986 -1.60433 0
M  V30 374 O 36.4824 1.63601 -0.781299 0
M  V30 375 C 36.5304 -0.491552 -3.57234 0
M  V30 376 O 35.6344 0.494754 -4.09421 0
M  V30 377 H 34.9754 -0.166682 -0.642739 0
M  V30 378 H 37.5054 -1.09328 -1.72941 0
M  V30 379 H 37.5154 -0.361588 -4.06395 0
M  V30 380 H 36.1904 -1.49907 -3.87944 0
M  V30 381 H 34.7674 0.324977 -3.71481 0
M  V30 382 N 36.9525 1.47285 -0.560781 0
M  V30 383 C 37.8845 2.28118 0.222438 0
M  V30 384 C 38.8975 1.37219 0.876056 0
M  V30 385 O 40.0865 1.62011 0.749307 0
M  V30 386 C 37.1865 3.1159 1.33285 0
M  V30 387 C 36.3595 4.30473 0.77534 0
M  V30 388 C 35.4185 4.95513 1.77069 0
M  V30 389 O 34.4445 5.53792 1.31539 0
M  V30 390 N 35.6465 4.90531 3.10418 0
M  V30 391 H 38.4115 2.95976 -0.470958 0
M  V30 392 H 35.9725 1.56955 -0.39709 0
M  V30 393 H 37.9645 3.51967 1.99752 0
M  V30 394 H 36.5345 2.45951 1.92943 0
M  V30 395 H 35.7545 3.94144 -0.0662113 0
M  V30 396 H 37.0425 5.07362 0.382272 0
M  V30 397 H 36.4405 4.44389 3.5005 0
M  V30 398 H 34.9975 5.34917 3.72434 0
M  V30 399 N 38.4306 0.297415 1.54768 0
M  V30 400 C 39.7076 -0.365847 1.92148 0
M  V30 401 C 40.0876 -1.71975 1.22424 0
M  V30 402 O 39.4356 -2.25666 0.358739 0
M  V30 403 C 39.6456 -0.484056 3.45627 0
M  V30 404 C 40.9936 -0.756594 4.17805 0
M  V30 405 O 42.0176 -0.568007 3.51642 0
M  V30 406 O 40.8766 -1.11863 5.34929 0
M  V30 407 H 37.9706 -0.203919 0.801465 0
M  V30 408 H 40.5166 0.34521 1.66152 0
M  V30 409 H 39.2886 0.467865 3.88493 0
M  V30 410 H 38.9116 -1.24372 3.77647 0
M  V30 411 N 39.9087 -1.5758 0.0250728 0
M  V30 412 C 41.1547 -1.91917 -0.655413 0
M  V30 413 C 41.4877 -0.901433 -1.72011 0
M  V30 414 O 40.7627 0.0764069 -1.9435 0
M  V30 415 C 41.0457 -3.36751 -1.27558 0
M  V30 416 C 40.8987 -4.49258 -0.220719 0
M  V30 417 C 42.2177 -3.81469 -2.19475 0
M  V30 418 H 39.3367 -0.697925 -0.23679 0
M  V30 419 H 41.9787 -1.89825 0.0815036 0
M  V30 420 H 40.1287 -3.38664 -1.90365 0
M  V30 421 H 41.8007 -4.59478 0.409601 0
M  V30 422 H 40.0437 -4.31415 0.454264 0
M  V30 423 H 40.7147 -5.47618 -0.694175 0
M  V30 424 H 43.1907 -3.81266 -1.66659 0
M  V30 425 H 42.0667 -4.83512 -2.59822 0
M  V30 426 H 42.3277 -3.16744 -3.08424 0
M  V30 427 N 41.3868 0.248026 -1.55636 0
M  V30 428 C 42.6118 0.998028 -1.81808 0
M  V30 429 C 43.0368 1.78207 -0.601979 0
M  V30 430 O 42.3948 1.75653 0.448961 0
M  V30 431 C 42.4428 1.9125 -3.05705 0
M  V30 432 O 41.5468 3.00406 -2.82542 0
M  V30 433 H 40.8878 0.284045 -0.600179 0
M  V30 434 H 43.4178 0.269357 -2.02819 0
M  V30 435 H 43.4278 2.32737 -3.35108 0
M  V30 436 H 42.1028 1.33602 -3.93857 0
M  V30 437 H 40.6798 2.63056 -2.64303 0
M  V30 438 N 42.8649 1.48995 0.513639 0
M  V30 439 C 43.7949 1.67636 1.62544 0
M  V30 440 C 44.7759 0.525087 1.61793 0
M  V30 441 O 45.9609 0.759502 1.78732 0
M  V30 442 C 43.0909 1.73114 3.01079 0
M  V30 443 C 42.0449 2.87905 3.16693 0
M  V30 444 C 41.3709 2.78486 4.56453 0
M  V30 445 C 42.6709 4.29005 2.97913 0
M  V30 446 H 44.3649 2.60716 1.47198 0
M  V30 447 H 41.9109 1.25465 0.706714 0
M  V30 448 H 43.8639 1.84742 3.78746 0
M  V30 449 H 42.5879 0.766241 3.17484 0
M  V30 450 H 41.2469 2.75859 2.41448 0
M  V30 451 H 40.8949 1.7993 4.69717 0
M  V30 452 H 40.5949 3.55523 4.67843 0
M  V30 453 H 42.1189 2.92104 5.36197 0
M  V30 454 H 43.5329 4.41798 3.65359 0
M  V30 455 H 41.9299 5.07166 3.20785 0
M  V30 456 H 42.9999 4.44329 1.94165 0
M  V30 457 N 44.343 -0.763751 1.37857 0
M  V30 458 C 45.273 -1.89103 1.36975 0
M  V30 459 C 46.254 -1.68439 0.237152 0
M  V30 460 O 47.439 -1.8918 0.438713 0
M  V30 461 C 44.569 -3.26496 1.18395 0
M  V30 462 C 43.523 -3.61741 2.28751 0
M  V30 463 C 42.849 -4.97762 1.95286 0
M  V30 464 C 44.149 -3.67665 3.70972 0
M  V30 465 H 45.843 -1.90099 2.31307 0
M  V30 466 H 43.389 -0.91319 1.11341 0
M  V30 467 H 45.342 -4.05003 1.16406 0
M  V30 468 H 44.066 -3.25955 0.205215 0
M  V30 469 H 42.725 -2.85547 2.29909 0
M  V30 470 H 42.373 -4.93769 0.959221 0
M  V30 471 H 42.073 -5.22313 2.69189 0
M  V30 472 H 43.597 -5.7866 1.94898 0
M  V30 473 H 45.011 -4.36307 3.719 0
M  V30 474 H 43.408 -4.03718 4.43995 0
M  V30 475 H 44.478 -2.68134 4.0402 0
M  V30 476 N 45.8211 -1.22559 -0.990812 0
M  V30 477 C 46.7841 -0.998863 -2.0629 0
M  V30 478 C 47.7841 0.0354834 -1.60761 0
M  V30 479 O 48.9741 -0.203231 -1.7301 0
M  V30 480 C 46.1061 -0.509203 -3.37076 0
M  V30 481 H 47.2991 -1.95014 -2.27837 0
M  V30 482 H 44.8521 -1.04456 -1.16269 0
M  V30 483 H 45.5871 0.446335 -3.21214 0
M  V30 484 H 45.3721 -1.25547 -3.71457 0
M  V30 485 H 46.8621 -0.370888 -4.1595 0
M  V30 486 N 47.2992 1.18797 -1.03562 0
M  V30 487 C 48.5242 1.9314 -0.755764 0
M  V30 488 C 48.9492 1.7537 0.68022 0
M  V30 489 O 48.3072 1.06046 1.47051 0
M  V30 490 C 48.3552 3.42747 -1.12058 0
M  V30 491 O 47.4592 4.11683 -0.243124 0
M  V30 492 H 46.8002 0.602724 -0.278604 0
M  V30 493 H 49.3302 1.50678 -1.3841 0
M  V30 494 H 49.3402 3.93437 -1.08035 0
M  V30 495 H 48.0152 3.55002 -2.16672 0
M  V30 496 H 46.5922 3.71323 -0.342539 0
M  V30 497 N 48.7773 0.814389 1.34928 0
M  V30 498 C 50.0543 0.321363 1.92942 0
M  V30 499 C 50.4343 -1.19014 1.74353 0
M  V30 500 O 49.7823 -1.99328 1.11716 0
M  V30 501 C 49.9923 0.741323 3.41036 0
M  V30 502 C 51.3403 0.735266 4.18185 0
M  V30 503 O 52.3643 0.68336 3.49584 0
M  V30 504 O 51.2233 0.800703 5.40602 0
M  V30 505 H 48.3173 0.0858893 0.822528 0
M  V30 506 H 50.8633 0.898609 1.43955 0
M  V30 507 H 49.6353 1.78276 3.4833 0
M  V30 508 H 49.2583 0.139307 3.97356 0
M  V30 509 N 50.2554 -1.46986 0.568584 0
M  V30 510 C 51.4804 -2.07335 0.0520528 0
M  V30 511 C 51.9054 -1.41675 -1.23733 0
M  V30 512 O 51.2634 -0.495623 -1.74394 0
M  V30 513 C 51.3114 -3.60417 -0.11501 0
M  V30 514 O 50.4154 -3.95309 -1.17492 0
M  V30 515 H 49.7564 -0.661597 0.0564385 0
M  V30 516 H 52.2864 -1.88837 0.787507 0
M  V30 517 H 52.2964 -4.06698 -0.325644 0
M  V30 518 H 50.9714 -4.07601 0.826675 0
M  V30 519 H 49.5484 -3.60757 -0.943869 0
M  V30 520 N 51.7335 -0.305618 -1.54608 0
M  V30 521 C 52.6435 0.57778 -2.27374 0
M  V30 522 C 53.6595 1.14451 -1.31061 0
M  V30 523 O 54.8355 1.16831 -1.6405 0
M  V30 524 C 51.9005 1.73123 -3.00382 0
M  V30 525 C 50.9615 1.19812 -4.12242 0
M  V30 526 C 50.1945 2.2966 -4.81759 0
M  V30 527 O 50.4175 3.49651 -4.50666 0
M  V30 528 O 49.3515 1.96091 -5.69062 0
M  V30 529 H 53.1775 -0.012624 -3.03697 0
M  V30 530 H 50.7625 -0.0719184 -1.49227 0
M  V30 531 H 52.6445 2.40315 -3.4616 0
M  V30 532 H 51.3195 2.30815 -2.26949 0
M  V30 533 H 50.2265 0.491798 -3.70853 0
M  V30 534 H 51.5595 0.666566 -4.87666 0
M  V30 535 N 53.2116 1.57565 -0.0334293 0
M  V30 536 C 54.6226 1.79746 0.504798 0
M  V30 537 C 54.9736 0.944091 1.71992 0
M  V30 538 O 54.0986 0.155694 2.15839 0
M  V30 539 C 54.6936 3.25997 0.922567 0
M  V30 540 C 53.2526 3.49159 1.40588 0
M  V30 541 C 52.3996 2.74785 0.372633 0
M  V30 542 H 55.3506 1.56565 -0.259436 0
M  V30 543 H 55.3716 3.35945 1.78666 0
M  V30 544 H 54.8836 3.88081 0.0379825 0
M  V30 545 H 52.9846 2.92332 2.31025 0
M  V30 546 H 53.0976 4.57873 1.41028 0
M  V30 547 H 51.4616 2.40391 0.841672 0
M  V30 548 H 52.2446 3.39587 -0.503559 0
M  V30 549 N 54.6897 -0.239769 1.55765 0
M  V30 550 C 55.6197 -1.30052 1.9393 0
M  V30 551 C 56.6007 -1.49839 0.805132 0
M  V30 552 O 57.7857 -1.62328 1.06599 0
M  V30 553 C 54.9157 -2.65391 2.2402 0
M  V30 554 C 53.8697 -2.60289 3.39755 0
M  V30 555 C 53.1957 -3.99489 3.55405 0
M  V30 556 C 54.4957 -2.16654 4.75246 0
M  V30 557 H 56.1897 -0.983573 2.82783 0
M  V30 558 H 53.7357 -0.471701 1.36055 0
M  V30 559 H 55.6887 -3.3974 2.49308 0
M  V30 560 H 54.4127 -2.98736 1.32 0
M  V30 561 H 53.0717 -1.88398 3.14487 0
M  V30 562 H 52.7197 -4.30112 2.60793 0
M  V30 563 H 52.4197 -3.96962 4.33238 0
M  V30 564 H 53.9437 -4.75528 3.83022 0
M  V30 565 H 55.3577 -2.80737 4.99859 0
M  V30 566 H 53.7547 -2.25223 5.56232 0
M  V30 567 H 54.8247 -1.11835 4.71827 0
M  V30 568 N 56.1678 -1.49265 -0.50573 0
M  V30 569 C 57.1148 -1.65585 -1.6078 0
M  V30 570 C 58.0848 -0.497396 -1.58478 0
M  V30 571 O 59.2698 -0.72385 -1.76536 0
M  V30 572 C 56.4098 -1.72408 -2.98948 0
M  V30 573 C 55.5228 -2.99525 -3.11301 0
M  V30 574 C 54.6578 -2.97356 -4.40174 0
M  V30 575 C 53.6968 -4.19074 -4.46143 0
M  V30 576 N 52.8338 -4.14841 -5.66437 0
M  V30 577 H 57.6738 -2.59688 -1.46172 0
M  V30 578 H 55.2108 -1.28761 -0.711261 0
M  V30 579 H 57.1688 -1.74344 -3.79025 0
M  V30 580 H 55.7988 -0.817753 -3.1227 0
M  V30 581 H 54.8508 -3.07222 -2.24318 0
M  V30 582 H 56.1628 -3.89518 -3.11572 0
M  V30 583 H 55.3168 -2.97829 -5.28567 0
M  V30 584 H 54.0558 -2.05133 -4.42461 0
M  V30 585 H 53.0608 -4.1885 -3.56153 0
M  V30 586 H 54.2858 -5.12483 -4.45575 0
M  V30 587 H 52.2318 -3.25453 -5.69575 0
M  V30 588 H 52.1488 -4.98564 -5.68304 0
M  V30 589 H 53.4168 -4.1941 -6.57051 0
M  V30 590 N 57.6459 0.756429 -1.3826 0
M  V30 591 C 58.8859 1.52833 -1.35725 0
M  V30 592 C 59.2499 1.91926 0.0534106 0
M  V30 593 O 60.4509 2.68028 0.203613 0
M  V30 594 C 58.7219 2.74919 -2.28373 0
M  V30 595 S 60.2809 3.64817 -2.43832 0
M  V30 596 H 57.0989 0.523043 -0.481608 0
M  V30 597 H 59.7009 0.888212 -1.74158 0
M  V30 598 H 58.4049 2.44304 -3.29763 0
M  V30 599 H 57.9359 3.43878 -1.91079 0
M  V30 600 H 59.9509 4.676 -1.66027 0
M  V30 601 N 59.124 1.23083 0.984299 0
M  V30 602 C 60.371 1.06057 1.72505 0
M  V30 603 C 60.699 -0.403105 1.90277 0
M  V30 604 O 59.954 -1.3149 1.44944 0
M  V30 605 C 60.253 1.72673 3.1292 0
M  V30 606 C 59.919 3.22586 3.15038 0
M  V30 607 C 58.581 3.63489 3.15324 0
M  V30 608 C 60.933 4.185 3.10657 0
M  V30 609 C 58.261 4.98772 3.08939 0
M  V30 610 C 60.613 5.53769 3.05814 0
M  V30 611 C 59.277 5.94041 3.04419 0
M  V30 612 H 58.547 0.388091 0.631242 0
M  V30 613 H 61.194 1.52963 1.15215 0
M  V30 614 H 59.499 1.18116 3.73572 0
M  V30 615 H 61.196 1.56982 3.68996 0
M  V30 616 H 57.786 2.90022 3.15571 0
M  V30 617 H 61.97 3.87911 3.09579 0
M  V30 618 H 57.226 5.29193 3.0621 0
M  V30 619 H 61.4 6.27808 3.0138 0
M  V30 620 H 59.027 6.98833 2.99227 0
M  V30 621 N 60.6021 -1.18246 1.0419 0
M  V30 622 C 61.8271 -1.92736 0.765996 0
M  V30 623 C 62.2521 -1.75728 -0.67091 0
M  V30 624 O 61.6101 -1.06825 -1.46486 0
M  V30 625 C 61.6581 -3.42148 1.13875 0
M  V30 626 O 60.7621 -4.11548 0.264954 0
M  V30 627 H 60.1031 -0.601238 0.281797 0
M  V30 628 H 62.6331 -1.49942 1.39207 0
M  V30 629 H 62.6431 -3.92858 1.1012 0
M  V30 630 H 61.3181 -3.53848 2.18551 0
M  V30 631 H 59.8951 -3.71137 0.362226 0
M  V30 632 N 62.0802 -0.821533 -1.34494 0
M  V30 633 C 63.4962 -0.507117 -1.51329 0
M  V30 634 C 63.6962 0.968964 -1.76673 0
M  V30 635 O 62.7522 1.75348 -1.81685 0
M  V30 636 C 64.0652 -1.36544 -2.67911 0
M  V30 637 C 65.6132 -1.36242 -2.81793 0
M  V30 638 C 66.0882 -2.2052 -4.01416 0
M  V30 639 N 67.5792 -2.18136 -4.08621 0
M  V30 640 C 68.3142 -2.80095 -5.00334 0
M  V30 641 N 67.8102 -3.51039 -5.9728 0
M  V30 642 N 69.6032 -2.69656 -4.93196 0
M  V30 643 H 61.7542 -1.77729 -1.16302 0
M  V30 644 H 64.0172 -0.757291 -0.570276 0
M  V30 645 H 63.7232 -2.41361 -2.55808 0
M  V30 646 H 63.5972 -1.02917 -3.62888 0
M  V30 647 H 65.9842 -0.322041 -2.93338 0
M  V30 648 H 66.0652 -1.73866 -1.87628 0
M  V30 649 H 65.7092 -3.24607 -3.90631 0
M  V30 650 H 65.6392 -1.80247 -4.94791 0
M  V30 651 H 68.1302 -1.6653 -3.39229 0
M  V30 652 H 68.4432 -3.95565 -6.63889 0
M  V30 653 H 66.7882 -3.55145 -5.97409 0
M  V30 654 H 69.9792 -2.13808 -4.16418 0
M  V30 655 H 70.1522 -3.1823 -5.64476 0
M  V30 656 N 63.5583 1.46682 -0.576371 0
M  V30 657 C 64.7863 2.06798 -0.0649635 0
M  V30 658 C 65.2013 1.42612 1.23723 0
M  V30 659 O 64.5583 0.529203 1.74659 0
M  V30 660 C 64.6093 3.6132 0.114202 0
M  V30 661 O 64.3303 4.23104 -1.13644 0
M  V30 662 C 65.8313 4.38349 0.66069 0
M  V30 663 H 63.0513 0.668778 -0.0545616 0
M  V30 664 H 65.5953 1.88404 -0.795237 0
M  V30 665 H 63.7503 3.79162 0.794673 0
M  V30 666 H 64.1643 5.15894 -0.946253 0
M  V30 667 H 65.6383 5.47081 0.73526 0
M  V30 668 H 66.1153 4.05953 1.67627 0
M  V30 669 H 66.7213 4.25297 0.0152951 0
M  V30 670 N 65.0364 0.313813 1.54444 0
M  V30 671 C 66.2834 -0.291675 2.00388 0
M  V30 672 C 66.6114 -1.52904 1.2021 0
M  V30 673 O 65.8664 -1.93833 0.269707 0
M  V30 674 C 66.1654 -0.680386 3.50864 0
M  V30 675 C 65.8314 0.456699 4.48581 0
M  V30 676 C 64.4934 0.768824 4.75018 0
M  V30 677 C 66.8454 1.22098 5.06697 0
M  V30 678 C 64.1734 1.84812 5.56831 0
M  V30 679 C 66.5254 2.29029 5.89685 0
M  V30 680 C 65.1894 2.60834 6.14428 0
M  V30 681 H 64.4594 -0.106732 0.733273 0
M  V30 682 H 67.1064 0.43557 1.86481 0
M  V30 683 H 65.4114 -1.48791 3.62448 0
M  V30 684 H 67.1084 -1.16026 3.83847 0
M  V30 685 H 63.6984 0.203337 4.28117 0
M  V30 686 H 67.8824 0.993096 4.86263 0
M  V30 687 H 63.1384 2.09912 5.74236 0
M  V30 688 H 67.3124 2.887 6.33739 0
M  V30 689 H 64.9394 3.44596 6.77612 0
M  V30 690 N 66.5145 -1.57545 0.0417849 0
M  V30 691 C 67.4245 -2.14451 -0.951213 0
M  V30 692 C 68.4405 -1.09992 -1.34825 0
M  V30 693 O 69.6165 -1.42114 -1.42708 0
M  V30 694 C 66.6815 -2.67063 -2.21084 0
M  V30 695 C 65.7425 -3.86284 -1.87304 0
M  V30 696 C 64.9755 -4.36378 -3.07261 0
M  V30 697 O 65.1985 -3.85587 -4.20332 0
M  V30 698 O 64.1325 -5.28077 -2.88822 0
M  V30 699 H 67.9585 -2.99601 -0.497287 0
M  V30 700 H 65.5435 -1.48317 -0.179567 0
M  V30 701 H 67.4255 -3.00914 -2.95006 0
M  V30 702 H 66.1005 -1.84989 -2.65633 0
M  V30 703 H 65.0075 -3.57338 -1.10727 0
M  V30 704 H 66.3405 -4.6956 -1.47562 0
M  V30 705 N 67.9926 0.231505 -1.5589 0
M  V30 706 C 69.2696 0.981096 -1.69215 0
M  V30 707 C 69.6496 2.02799 -0.586164 0
M  V30 708 O 68.9976 2.24823 0.408253 0
M  V30 709 C 69.2076 1.60054 -3.10135 0
M  V30 710 C 70.5556 2.09658 -3.69227 0
M  V30 711 O 71.5796 1.69967 -3.13033 0
M  V30 712 O 70.4386 2.8258 -4.67772 0
M  V30 713 H 67.5326 0.457653 -0.688827 0
M  V30 714 H 70.0786 0.224073 -1.68214 0
M  V30 715 H 68.8506 0.844105 -3.82087 0
M  V30 716 H 68.4736 2.42336 -3.15212 0
M  V30 717 N 69.4707 1.49531 0.497807 0
M  V30 718 C 70.4007 1.6935 1.60757 0
M  V30 719 C 71.3817 0.542218 1.61227 0
M  V30 720 O 72.5667 0.778417 1.77917 0
M  V30 721 C 69.6967 1.76298 2.99226 0
M  V30 722 C 68.6507 2.91248 3.13622 0
M  V30 723 C 67.9767 2.83312 4.53474 0
M  V30 724 C 69.2767 4.3214 2.93346 0
M  V30 725 H 70.9707 2.62263 1.44425 0
M  V30 726 H 68.5167 1.26208 0.693367 0
M  V30 727 H 70.4697 1.88749 3.76765 0
M  V30 728 H 69.1937 0.799871 3.16654 0
M  V30 729 H 67.8527 2.78404 2.38509 0
M  V30 730 H 67.5007 1.84902 4.67782 0
M  V30 731 H 67.2007 3.60465 4.64046 0
M  V30 732 H 68.7247 2.97775 5.33069 0
M  V30 733 H 70.1387 4.45649 3.60652 0
M  V30 734 H 68.5357 5.1054 3.15387 0
M  V30 735 H 69.6057 4.46363 1.89441 0
M  V30 736 N 70.9488 -0.749086 1.3866 0
M  V30 737 C 72.1768 -1.53834 1.38358 0
M  V30 738 C 72.5918 -1.88783 -0.0255219 0
M  V30 739 O 71.9488 -1.53101 -0.993292 0
M  V30 740 C 71.9998 -2.83468 2.2434 0
M  V30 741 O 71.7208 -2.50008 3.5976 0
M  V30 742 C 73.2218 -3.7758 2.32267 0
M  V30 743 H 70.4418 -0.47585 0.473083 0
M  V30 744 H 72.9858 -0.926726 1.82297 0
M  V30 745 H 71.1408 -3.40995 1.83851 0
M  V30 746 H 71.5548 -3.33182 4.05081 0
M  V30 747 H 73.0288 -4.65478 2.96706 0
M  V30 748 H 73.5058 -4.18334 1.33765 0
M  V30 749 H 74.1118 -3.25976 2.73166 0
M  V30 750 N 72.4269 -1.23603 -0.977757 0
M  V30 751 C 73.6669 -1.08148 -1.73446 0
M  V30 752 C 74.0309 0.374785 -1.88307 0
M  V30 753 O 75.2319 0.650588 -2.60808 0
M  V30 754 C 73.5029 -1.78991 -3.0935 0
M  V30 755 S 75.0619 -1.79141 -4.00567 0
M  V30 756 H 71.8799 -0.386987 -0.596458 0
M  V30 757 H 74.4819 -1.5678 -1.16792 0
M  V30 758 H 73.1859 -2.8408 -2.96187 0
M  V30 759 H 72.7169 -1.30651 -3.71071 0
M  V30 760 H 74.7319 -0.851892 -4.88833 0
M  V30 761 N 73.905 1.17692 -1.04816 0
M  V30 762 C 75.152 1.87859 -0.75599 0
M  V30 763 C 75.48 1.80812 0.716752 0
M  V30 764 O 74.735 1.20819 1.53952 0
M  V30 765 C 75.034 3.37462 -1.17703 0
M  V30 766 C 74.7 3.64713 -2.65133 0
M  V30 767 C 73.362 3.71859 -3.05408 0
M  V30 768 C 75.714 3.76492 -3.60421 0
M  V30 769 C 73.042 3.88271 -4.39843 0
M  V30 770 C 75.394 3.94421 -4.94585 0
M  V30 771 C 74.058 3.99806 -5.3452 0
M  V30 772 H 73.328 0.687425 -0.276636 0
M  V30 773 H 75.975 1.39255 -1.31455 0
M  V30 774 H 74.28 3.88097 -0.537395 0
M  V30 775 H 75.977 3.90109 -0.928218 0
M  V30 776 H 72.567 3.59772 -2.32942 0
M  V30 777 H 76.751 3.70295 -3.30447 0
M  V30 778 H 72.007 3.90687 -4.70291 0
M  V30 779 H 76.181 4.02477 -5.68318 0
M  V30 780 H 73.808 4.12276 -6.38696 0
M  V30 781 N 75.3831 0.828654 1.34056 0
M  V30 782 C 76.6291 0.429279 1.98818 0
M  V30 783 C 76.9841 -0.998011 1.64492 0
M  V30 784 O 76.2771 -1.68652 0.909228 0
M  V30 785 C 76.4711 0.575226 3.52741 0
M  V30 786 C 76.3001 2.01515 4.02022 0
M  V30 787 C 75.0701 2.64825 4.30344 0
M  V30 788 C 77.2681 2.98261 4.18981 0
M  V30 789 N 75.2501 3.99998 4.65698 0
M  V30 790 C 76.6211 4.18356 4.57578 0
M  V30 791 C 78.6761 2.94802 4.01243 0
M  V30 792 C 77.3791 5.35454 4.80293 0
M  V30 793 C 79.4051 4.11121 4.25128 0
M  V30 794 C 78.7671 5.29969 4.64018 0
M  V30 795 H 74.8661 0.205304 0.754569 0
M  V30 796 H 77.4501 1.07457 1.62361 0
M  V30 797 H 75.6211 -0.0401962 3.88379 0
M  V30 798 H 77.3531 0.148292 4.04428 0
M  V30 799 H 74.1081 2.16027 4.21461 0
M  V30 800 H 74.5321 4.69653 4.87601 0
M  V30 801 H 79.1741 2.04054 3.70299 0
M  V30 802 H 76.8921 6.26755 5.10102 0
M  V30 803 H 80.4781 4.0985 4.12934 0
M  V30 804 H 79.3581 6.18479 4.82134 0
M  V30 805 N 76.8612 -1.46375 0.584142 0
M  V30 806 C 78.1382 -1.956 0.0033388 0
M  V30 807 C 78.5182 -1.52679 -1.45782 0
M  V30 808 O 77.8662 -0.77816 -2.14842 0
M  V30 809 C 78.0762 -3.48551 0.176891 0
M  V30 810 C 79.4242 -4.24576 0.0454609 0
M  V30 811 O 80.4482 -3.56043 0.105801 0
M  V30 812 O 79.3072 -5.46427 -0.0890376 0
M  V30 813 H 76.4012 -0.825547 -0.0490066 0
M  V30 814 H 78.9472 -1.56652 0.65256 0
M  V30 815 H 77.7192 -3.72683 1.1926 0
M  V30 816 H 77.3422 -3.94332 -0.508695 0
M  V30 817 N 78.3393 -0.321999 -1.54275 0
M  V30 818 C 79.2493 0.553631 -2.27974 0
M  V30 819 C 80.2653 1.13054 -1.32268 0
M  V30 820 O 81.4413 1.15084 -1.6528 0
M  V30 821 C 78.5063 1.69927 -3.02201 0
M  V30 822 C 77.5673 1.15433 -4.1349 0
M  V30 823 C 76.8003 2.24537 -4.84168 0
M  V30 824 O 77.0233 3.44852 -4.5435 0
M  V30 825 O 75.9573 1.90044 -5.7111 0
M  V30 826 H 79.7833 -0.0448345 -3.03667 0
M  V30 827 H 77.3683 -0.0877418 -1.49142 0
M  V30 828 H 79.2503 2.3663 -3.48689 0
M  V30 829 H 77.9253 2.28395 -2.29385 0
M  V30 830 H 76.8323 0.452436 -3.71354 0
M  V30 831 H 78.1653 0.614805 -4.88345 0
M  V30 832 N 79.8174 1.5752 -0.0501392 0
M  V30 833 C 80.7274 2.14952 0.939827 0
M  V30 834 C 81.7434 1.10706 1.34239 0
M  V30 835 O 82.9194 1.42869 1.41952 0
M  V30 836 C 79.9844 2.68232 2.19665 0
M  V30 837 C 79.0454 3.87272 1.85253 0
M  V30 838 C 78.2784 4.38002 3.04943 0
M  V30 839 O 78.5014 3.87811 4.18281 0
M  V30 840 O 77.4354 5.29602 2.86017 0
M  V30 841 H 81.2614 2.9986 0.481392 0
M  V30 842 H 78.8464 1.4841 0.171699 0
M  V30 843 H 80.7284 3.02475 2.93406 0
M  V30 844 H 79.4034 1.86395 2.64648 0
M  V30 845 H 78.3104 3.5792 1.0883 0
M  V30 846 H 79.6434 4.70336 1.4507 0
M  V30 847 N 81.2955 -0.223234 1.56011 0
M  V30 848 C 82.2055 -1.29766 1.95443 0
M  V30 849 C 83.2215 -1.51373 0.858028 0
M  V30 850 O 84.3975 -1.64536 1.16146 0
M  V30 851 C 81.4625 -2.62772 2.26167 0
M  V30 852 C 80.5235 -2.49482 3.49367 0
M  V30 853 C 79.7565 -3.76145 3.78616 0
M  V30 854 O 79.9795 -4.79087 3.09568 0
M  V30 855 O 78.9135 -3.73358 4.72109 0
M  V30 856 H 82.7395 -0.99309 2.87004 0
M  V30 857 H 80.3245 -0.425958 1.43199 0
M  V30 858 H 82.2065 -3.41327 2.47131 0
M  V30 859 H 80.8815 -2.92913 1.37781 0
M  V30 860 H 79.7885 -1.69133 3.33684 0
M  V30 861 H 81.1215 -2.2428 4.38131 0
M  V30 862 N 82.7736 -1.49793 -0.48987 0
M  V30 863 C 83.7366 -1.66752 -1.57246 0
M  V30 864 C 84.7366 -0.538867 -1.51502 0
M  V30 865 O 85.9266 -0.805545 -1.54456 0
M  V30 866 C 83.0586 -1.67528 -2.96896 0
M  V30 867 H 84.2516 -2.63321 -1.43534 0
M  V30 868 H 81.8046 -1.38992 -0.714914 0
M  V30 869 H 82.5396 -0.725837 -3.16073 0
M  V30 870 H 82.3246 -2.49504 -3.02473 0
M  V30 871 H 83.8146 -1.82667 -3.7553 0
M  V30 872 N 84.2517 0.741722 -1.39055 0
M  V30 873 C 85.2147 1.83733 -1.37021 0
M  V30 874 C 86.2147 1.58542 -0.268534 0
M  V30 875 O 87.4047 1.66067 -0.526076 0
M  V30 876 C 84.5367 3.2141 -1.13617 0
M  V30 877 H 85.7297 1.86941 -2.34506 0
M  V30 878 H 83.2827 0.944676 -1.24521 0
M  V30 879 H 84.0177 3.23865 -0.167863 0
M  V30 880 H 83.8027 3.4109 -1.93391 0
M  V30 881 H 85.2927 4.01477 -1.14918 0
M  V30 882 N 85.7298 1.2412 0.971189 0
M  V30 883 C 87.1408 1.07236 1.52831 0
M  V30 884 C 87.4918 -0.357352 1.92918 0
M  V30 885 O 86.6168 -1.24528 1.76979 0
M  V30 886 C 87.2118 1.94043 2.77728 0
M  V30 887 C 85.7708 1.81394 3.29808 0
M  V30 888 C 84.9178 1.89189 2.02738 0
M  V30 889 H 87.8688 1.37648 0.789864 0
M  V30 890 H 87.8898 1.47066 3.5093 0
M  V30 891 H 87.4018 2.98093 2.4852 0
M  V30 892 H 85.5028 0.801634 3.63874 0
M  V30 893 H 85.6158 2.65294 3.98944 0
M  V30 894 H 83.9798 1.32877 2.17292 0
M  V30 895 H 84.7628 2.94812 1.759 0
M  V30 896 N 87.2079 -1.17134 1.05439 0
M  V30 897 C 88.4329 -1.91913 0.786396 0
M  V30 898 C 88.8579 -1.7643 -0.652234 0
M  V30 899 O 88.2159 -1.08372 -1.45345 0
M  V30 900 C 88.2639 -3.40921 1.17497 0
M  V30 901 O 87.3679 -4.11244 0.308589 0
M  V30 902 H 86.7089 -0.598215 0.288158 0
M  V30 903 H 89.2389 -1.48457 1.4079 0
M  V30 904 H 89.2489 -3.91668 1.14281 0
M  V30 905 H 87.9239 -3.5151 2.22292 0
M  V30 906 H 86.5009 -3.70731 0.40157 0
M  V30 907 N 88.686 -0.835752 -1.33615 0
M  V30 908 C 89.934 -0.429109 -1.97492 0
M  V30 909 C 90.255 1.01433 -1.66543 0
M  V30 910 O 89.525 1.70611 -0.962744 0
M  V30 911 H 88.105 -0.155686 -0.730596 0
M  V30 912 H 90.767 -1.06802 -1.63031 0
M  V30 913 H 89.863 -0.55861 -3.0706 0
M  V30 914 N 90.1641 1.46063 -0.591896 0
M  V30 915 C 91.3921 2.06717 -0.0868936 0
M  V30 916 C 91.8071 1.43916 1.22203 0
M  V30 917 O 91.1641 0.547698 1.74088 0
M  V30 918 C 91.2151 3.6142 0.0758725 0
M  V30 919 O 90.9361 4.21874 -1.18126 0
M  V30 920 C 92.4371 4.39025 0.61416 0
M  V30 921 H 89.6571 0.668162 -0.0616518 0
M  V30 922 H 92.2011 1.8755 -0.815175 0
M  V30 923 H 90.3561 3.79983 0.754413 0
M  V30 924 H 90.7701 5.14861 -1.00092 0
M  V30 925 H 92.2441 5.4783 0.677193 0
M  V30 926 H 92.7211 4.07708 1.63312 0
M  V30 927 H 93.3271 4.2529 -0.0298142 0
M  V30 928 N 91.6422 0.330177 1.54103 0
M  V30 929 C 92.8722 -0.271784 2.04805 0
M  V30 930 C 93.2802 -1.45816 1.20559 0
M  V30 931 O 92.6232 -1.82247 0.2306 0
M  V30 932 C 92.6852 -0.763238 3.51305 0
M  V30 933 C 92.3492 0.301705 4.56003 0
M  V30 934 C 93.3462 1.13999 5.07248 0
M  V30 935 C 91.0312 0.451793 5.00264 0
M  V30 936 C 93.0252 2.11402 6.01322 0
M  V30 937 C 90.7122 1.42924 5.94151 0
M  V30 938 C 91.7102 2.25882 6.44567 0
M  V30 939 O 91.3982 3.21965 7.3661 0
M  V30 940 H 91.1302 -0.058693 0.673447 0
M  V30 941 H 93.6842 0.476395 1.99799 0
M  V30 942 H 91.9142 -1.56244 3.5373 0
M  V30 943 H 93.6032 -1.28427 3.85047 0
M  V30 944 H 94.3692 1.03505 4.73827 0
M  V30 945 H 90.2482 -0.184044 4.60632 0
M  V30 946 H 93.7922 2.76192 6.40596 0
M  V30 947 H 89.6892 1.53479 6.26988 0
M  V30 948 H 90.4572 3.17281 7.54503 0
M  V30 949 N 93.1203 -1.57491 0.0584922 0
M  V30 950 C 94.0523 -2.08916 -0.942694 0
M  V30 951 C 95.0653 -1.0185 -1.27006 0
M  V30 952 O 96.2543 -1.29398 -1.22957 0
M  V30 953 C 93.3543 -2.52341 -2.26224 0
M  V30 954 C 92.5273 -3.82827 -2.1157 0
M  V30 955 C 91.5863 -4.12487 -3.26712 0
M  V30 956 O 90.6123 -4.82295 -3.02292 0
M  V30 957 N 91.8143 -3.64978 -4.5141 0
M  V30 958 H 94.5793 -2.95437 -0.503722 0
M  V30 959 H 92.1403 -1.61397 -0.12757 0
M  V30 960 H 94.1323 -2.69254 -3.02133 0
M  V30 961 H 92.7023 -1.7103 -2.61663 0
M  V30 962 H 91.9223 -3.75425 -1.20208 0
M  V30 963 H 93.2103 -4.68263 -1.99015 0
M  V30 964 H 92.6083 -3.08558 -4.7414 0
M  V30 965 H 91.1653 -3.87115 -5.2439 0
M  V30 966 N 94.5984 0.214957 -1.56127 0
M  V30 967 C 95.5284 1.2695 -1.95974 0
M  V30 968 C 96.5094 1.48539 -0.828868 0
M  V30 969 O 97.6944 1.60611 -1.09168 0
M  V30 970 C 94.8244 2.61794 -2.28214 0
M  V30 971 C 93.7784 2.54851 -3.43853 0
M  V30 972 C 93.1044 3.93785 -3.61715 0
M  V30 973 C 94.4044 2.09065 -4.78632 0
M  V30 974 H 96.0984 0.93846 -2.84312 0
M  V30 975 H 93.6444 0.449996 -1.36788 0
M  V30 976 H 95.5974 3.35731 -2.54682 0
M  V30 977 H 94.3214 2.96599 -1.36736 0
M  V30 978 H 92.9804 1.8337 -3.17444 0
M  V30 979 H 92.6284 4.25908 -2.67602 0
M  V30 980 H 92.3284 3.90019 -4.39498 0
M  V30 981 H 93.8524 4.69374 -3.90539 0
M  V30 982 H 95.2664 2.7275 -5.04262 0
M  V30 983 H 93.6634 2.16346 -5.59745 0
M  V30 984 H 94.7334 1.04315 -4.73547 0
M  V30 985 N 96.0765 1.50051 0.48192 0
M  V30 986 C 97.0065 1.71046 1.58951 0
M  V30 987 C 97.9875 0.559288 1.60642 0
M  V30 988 O 99.1725 0.797243 1.77081 0
M  V30 989 C 96.3025 1.79462 2.97339 0
M  V30 990 C 95.2565 2.94558 3.10515 0
M  V30 991 C 94.5825 2.88105 4.50444 0
M  V30 992 C 95.8825 4.35227 2.88747 0
M  V30 993 H 97.5765 2.6378 1.41635 0
M  V30 994 H 95.1225 1.26936 0.679942 0
M  V30 995 H 97.0755 1.92734 3.74742 0
M  V30 996 H 95.7995 0.833412 3.15788 0
M  V30 997 H 94.4585 2.80918 2.35543 0
M  V30 998 H 94.1065 1.89853 4.65795 0
M  V30 999 H 93.8065 3.65366 4.60197 0
M  V30 1000 H 95.3305 3.03412 5.29881 0
M  V30 1001 H 96.7445 4.49449 3.55905 0
M  V30 1002 H 95.1415 5.13856 3.09955 0
M  V30 1003 H 96.2115 4.48347 1.84696 0
M  V30 1004 N 97.5546 -0.734337 1.39446 0
M  V30 1005 C 98.7846 -1.52137 1.39778 0
M  V30 1006 C 99.1926 -1.89198 -0.00929312 0
M  V30 1007 O 98.5356 -1.54666 -0.991168 0
M  V30 1008 C 98.5976 -2.83762 2.20724 0
M  V30 1009 C 98.2616 -2.69131 3.69347 0
M  V30 1010 C 99.2586 -2.37635 4.62413 0
M  V30 1011 C 96.9436 -2.85982 4.1294 0
M  V30 1012 C 98.9376 -2.23172 5.97054 0
M  V30 1013 C 96.6246 -2.71137 5.47657 0
M  V30 1014 C 97.6226 -2.39777 6.39528 0
M  V30 1015 O 97.3106 -2.25026 7.71763 0
M  V30 1016 H 97.0426 -0.476717 0.479288 0
M  V30 1017 H 99.5966 -0.915012 1.83893 0
M  V30 1018 H 97.8266 -3.4666 1.71359 0
M  V30 1019 H 99.5156 -3.45383 2.13226 0
M  V30 1020 H 100.282 -2.24267 4.30034 0
M  V30 1021 H 96.1606 -3.09383 3.41765 0
M  V30 1022 H 99.7046 -1.98617 6.68728 0
M  V30 1023 H 95.6016 -2.84083 5.79626 0
M  V30 1024 H 96.3696 -2.40091 7.82495 0
M  V30 1025 N 99.0327 -1.24633 -0.964593 0
M  V30 1026 C 99.9957 -1.0424 -2.04124 0
M  V30 1027 C 100.996 0.00137563 -1.608 0
M  V30 1028 O 102.186 -0.239883 -1.7254 0
M  V30 1029 C 99.3177 -0.580588 -3.3592 0
M  V30 1030 H 100.511 -1.99803 -2.23649 0
M  V30 1031 H 98.0637 -1.06899 -1.14027 0
M  V30 1032 H 98.7987 0.3781 -3.22088 0
M  V30 1033 H 98.5837 -1.33398 -3.6871 0
M  V30 1034 H 100.074 -0.459034 -4.15069 0
M  V30 1035 N 100.511 1.16574 -1.06058 0
M  V30 1036 C 101.741 1.90675 -0.795397 0
M  V30 1037 C 102.149 1.77547 0.653735 0
M  V30 1038 O 101.492 1.11611 1.45907 0
M  V30 1039 C 101.554 3.42011 -1.10764 0
M  V30 1040 C 101.218 3.78924 -2.55471 0
M  V30 1041 C 102.215 3.81042 -3.53699 0
M  V30 1042 C 99.8998 4.09626 -2.90708 0
M  V30 1043 C 101.894 4.13346 -4.85205 0
M  V30 1044 C 99.5808 4.41597 -4.22416 0
M  V30 1045 C 100.579 4.43436 -5.19474 0
M  V30 1046 O 100.267 4.74649 -6.48817 0
M  V30 1047 H 99.9988 0.611554 -0.288058 0
M  V30 1048 H 102.553 1.48711 -1.41683 0
M  V30 1049 H 100.783 3.84312 -0.429128 0
M  V30 1050 H 102.472 3.97384 -0.827077 0
M  V30 1051 H 103.238 3.57437 -3.27817 0
M  V30 1052 H 99.1168 4.07361 -2.15819 0
M  V30 1053 H 102.661 4.14696 -5.60957 0
M  V30 1054 H 98.5578 4.64667 -4.48056 0
M  V30 1055 H 99.3258 4.9247 -6.5377 0
M  V30 1056 N 101.989 0.842826 1.3317 0
M  V30 1057 C 103.4 0.496651 1.79973 0
M  V30 1058 C 103.751 -0.984641 1.69703 0
M  V30 1059 O 102.876 -1.76743 1.24863 0
M  V30 1060 C 103.471 0.894727 3.26772 0
M  V30 1061 C 102.03 0.600629 3.71577 0
M  V30 1062 C 101.177 1.10091 2.5451 0
M  V30 1063 H 104.128 1.03116 1.20635 0
M  V30 1064 H 104.149 0.206347 3.7994 0
M  V30 1065 H 103.661 1.97287 3.34215 0
M  V30 1066 H 101.762 -0.467284 3.69658 0
M  V30 1067 H 101.875 1.15863 4.64879 0
M  V30 1068 H 100.239 0.52162 2.49301 0
M  V30 1069 H 101.022 2.18591 2.64713 0
M  V30 1070 N 103.467 -1.45747 0.599634 0
M  V30 1071 C 104.883 -1.57424 0.26264 0
M  V30 1072 C 105.083 -1.59222 -1.23493 0
M  V30 1073 O 104.139 -1.51825 -2.01756 0
M  V30 1074 C 105.452 -2.86061 0.926795 0
M  V30 1075 C 107 -2.99722 0.901967 0
M  V30 1076 C 107.475 -4.31119 1.54598 0
M  V30 1077 N 108.966 -4.37858 1.5111 0
M  V30 1078 C 109.701 -5.3818 1.97863 0
M  V30 1079 N 109.197 -6.45083 2.52666 0
M  V30 1080 N 110.99 -5.29487 1.88679 0
M  V30 1081 H 103.141 -1.42823 1.57211 0
M  V30 1082 H 105.404 -0.68235 0.658105 0
M  V30 1083 H 105.11 -2.90605 1.98095 0
M  V30 1084 H 104.984 -3.74563 0.445238 0
M  V30 1085 H 107.371 -2.9475 -0.143617 0
M  V30 1086 H 107.452 -2.12652 1.42171 0
M  V30 1087 H 107.096 -4.36849 2.59085 0
M  V30 1088 H 107.026 -5.16992 1.00132 0
M  V30 1089 H 109.517 -3.61209 1.11068 0
M  V30 1090 H 109.83 -7.17869 2.86155 0
M  V30 1091 H 108.175 -6.45856 2.56701 0
M  V30 1092 H 111.366 -4.44877 1.4561 0
M  V30 1093 H 111.539 -6.07524 2.25429 0
M  V30 1094 N 104.945 -0.338344 -1.53925 0
M  V30 1095 C 105.855 0.529421 -2.28548 0
M  V30 1096 C 106.871 1.11645 -1.3346 0
M  V30 1097 O 108.047 1.13325 -1.66492 0
M  V30 1098 C 105.112 1.66713 -3.03987 0
M  V30 1099 C 104.173 1.11041 -4.14691 0
M  V30 1100 C 103.406 2.19389 -4.86522 0
M  V30 1101 O 103.629 3.40013 -4.57982 0
M  V30 1102 O 102.563 1.83976 -5.73094 0
M  V30 1103 H 106.389 -0.0770399 -3.03602 0
M  V30 1104 H 103.974 -0.103555 -1.49041 0
M  V30 1105 H 105.856 2.32918 -3.5118 0
M  V30 1106 H 104.531 2.25949 -2.31794 0
M  V30 1107 H 103.438 0.413024 -3.71813 0
M  V30 1108 H 104.771 0.562975 -4.8897 0
M  V30 1109 N 106.423 1.57458 -0.0668435 0
M  V30 1110 C 107.37 2.12439 0.902122 0
M  V30 1111 C 108.34 1.03565 1.2986 0
M  V30 1112 O 109.525 1.312 1.38532 0
M  V30 1113 C 106.665 2.6865 2.16614 0
M  V30 1114 C 105.778 3.91663 1.82274 0
M  V30 1115 C 104.913 4.36134 3.0325 0
M  V30 1116 C 103.952 5.51808 2.64904 0
M  V30 1117 N 103.089 5.9126 3.78624 0
M  V30 1118 H 107.929 2.94934 0.426382 0
M  V30 1119 H 105.466 1.4575 0.198819 0
M  V30 1120 H 107.424 2.99346 2.90599 0
M  V30 1121 H 106.054 1.88928 2.61737 0
M  V30 1122 H 105.106 3.6746 0.983719 0
M  V30 1123 H 106.418 4.75693 1.50059 0
M  V30 1124 H 105.572 4.68465 3.85519 0
M  V30 1125 H 104.311 3.50948 3.38655 0
M  V30 1126 H 103.316 5.19133 1.81055 0
M  V30 1127 H 104.541 6.38722 2.30675 0
M  V30 1128 H 102.487 5.09024 4.138 0
M  V30 1129 H 102.404 6.70018 3.5016 0
M  V30 1130 H 103.672 6.28212 4.61486 0
M  V30 1131 N 107.901 -0.206675 1.56239 0
M  V30 1132 C 109.312 -0.772383 1.69974 0
M  V30 1133 C 109.663 -1.84353 0.671436 0
M  V30 1134 O 108.788 -2.15695 -0.174491 0
M  V30 1135 C 109.383 -1.40779 3.08167 0
M  V30 1136 C 107.942 -1.92072 3.23706 0
M  V30 1137 C 107.089 -0.786347 2.65917 0
M  V30 1138 H 110.04 0.0182223 1.5869 0
M  V30 1139 H 110.061 -2.27696 3.04852 0
M  V30 1140 H 109.573 -0.627958 3.82986 0
M  V30 1141 H 107.674 -2.7281 2.53782 0
M  V30 1142 H 107.787 -2.09046 4.31087 0
M  V30 1143 H 106.151 -1.1976 2.24788 0
M  V30 1144 H 106.934 -0.0189416 3.43295 0
M  V30 1145 N 109.379 -1.50304 -0.473955 0
M  V30 1146 C 110.795 -1.37667 -0.807466 0
M  V30 1147 C 110.995 -0.430555 -1.96846 0
M  V30 1148 O 110.051 0.127874 -2.52176 0
M  V30 1149 C 111.364 -2.78974 -1.12223 0
M  V30 1150 C 112.912 -2.87868 -1.22885 0
M  V30 1151 C 113.387 -4.30003 -1.57676 0
M  V30 1152 N 114.878 -4.3294 -1.64673 0
M  V30 1153 C 115.613 -5.3991 -1.93091 0
M  V30 1154 N 115.109 -6.57092 -2.1955 0
M  V30 1155 N 116.902 -5.27351 -1.94569 0
M  V30 1156 H 109.053 -2.10394 0.291212 0
M  V30 1157 H 111.316 -0.945575 0.0677609 0
M  V30 1158 H 111.022 -3.50031 -0.342229 0
M  V30 1159 H 110.896 -3.16038 -2.05913 0
M  V30 1160 H 113.283 -2.17032 -1.99953 0
M  V30 1161 H 113.364 -2.54352 -0.271814 0
M  V30 1162 H 113.008 -5.01375 -0.81149 0
M  V30 1163 H 112.938 -4.61004 -2.54525 0
M  V30 1164 H 115.429 -3.48441 -1.46277 0
M  V30 1165 H 115.742 -7.34425 -2.405 0
M  V30 1166 H 114.087 -6.60272 -2.16948 0
M  V30 1167 H 117.278 -4.34801 -1.73394 0
M  V30 1168 H 117.451 -6.10805 -2.16381 0
M  V30 1169 N 110.857 0.726932 -1.39834 0
M  V30 1170 C 111.82 1.82269 -1.38962 0
M  V30 1171 C 112.82 1.58248 -0.285334 0
M  V30 1172 O 114.01 1.65499 -0.54366 0
M  V30 1173 C 111.142 3.20186 -1.17019 0
M  V30 1174 H 112.335 1.84443 -2.36476 0
M  V30 1175 H 109.888 0.931416 -1.25516 0
M  V30 1176 H 110.623 3.23669 -0.202204 0
M  V30 1177 H 110.408 3.3902 -1.96998 0
M  V30 1178 H 111.898 4.00235 -1.1917 0
M  V30 1179 N 112.336 1.25143 0.95797 0
M  V30 1180 C 113.576 1.10893 1.71703 0
M  V30 1181 C 113.94 -0.34478 1.88879 0
M  V30 1182 O 115.141 -0.609014 2.6181 0
M  V30 1183 C 113.412 1.83889 3.06463 0
M  V30 1184 S 114.971 1.85491 3.97666 0
M  V30 1185 H 111.789 0.396428 0.590226 0
M  V30 1186 H 114.391 1.58618 1.14283 0
M  V30 1187 H 113.095 2.88756 2.9163 0
M  V30 1188 H 112.626 1.36538 3.68946 0
M  V30 1189 H 114.641 0.929553 4.87415 0
M  V30 1190 N 113.814 -1.1601 1.06675 0
M  V30 1191 C 115.225 -1.68235 0.809565 0
M  V30 1192 C 115.576 -1.8454 -0.666303 0
M  V30 1193 O 114.701 -1.54374 -1.5165 0
M  V30 1194 C 115.296 -3.05585 1.46299 0
M  V30 1195 C 113.855 -3.54915 1.25349 0
M  V30 1196 C 113.002 -2.30804 1.53703 0
M  V30 1197 H 115.953 -1.00318 1.22971 0
M  V30 1198 H 115.974 -3.70174 0.880431 0
M  V30 1199 H 115.486 -2.93686 2.53713 0
M  V30 1200 H 113.587 -3.72067 0.199261 0
M  V30 1201 H 113.7 -4.36774 1.9689 0
M  V30 1202 H 112.064 -2.36007 0.957739 0
M  V30 1203 H 112.847 -2.21499 2.62284 0
M  V30 1204 N 115.292 -0.849877 -1.32721 0
M  V30 1205 C 116.222 -0.306308 -2.31482 0
M  V30 1206 C 117.203 0.591952 -1.59468 0
M  V30 1207 O 118.388 0.513199 -1.87296 0
M  V30 1208 C 115.518 0.510204 -3.43532 0
M  V30 1209 C 114.472 -0.293209 -4.26994 0
M  V30 1210 C 113.798 0.647743 -5.30762 0
M  V30 1211 C 115.098 -1.51634 -4.99804 0
M  V30 1212 H 116.792 -1.13153 -2.77195 0
M  V30 1213 H 114.338 -0.545553 -1.33266 0
M  V30 1214 H 116.291 0.900856 -4.11658 0
M  V30 1215 H 115.015 1.36874 -2.96535 0
M  V30 1216 H 113.674 -0.665555 -3.60508 0
M  V30 1217 H 113.322 1.50299 -4.8002 0
M  V30 1218 H 113.022 0.11422 -5.87489 0
M  V30 1219 H 114.546 1.03567 -6.01753 0
M  V30 1220 H 115.96 -1.19824 -5.60638 0
M  V30 1221 H 114.357 -1.98745 -5.66234 0
M  V30 1222 H 115.427 -2.28018 -4.27943 0
M  V30 1223 N 116.77 1.45427 -0.607355 0
M  V30 1224 C 117.995 2.07124 -0.107006 0
M  V30 1225 C 118.42 1.44906 1.19933 0
M  V30 1226 O 117.778 0.541687 1.73019 0
M  V30 1227 C 117.826 3.60595 0.0194119 0
M  V30 1228 O 116.93 3.98285 1.0697 0
M  V30 1229 H 116.271 0.659868 -0.0739597 0
M  V30 1230 H 118.801 1.86683 -0.837297 0
M  V30 1231 H 118.811 4.07419 0.2177 0
M  V30 1232 H 117.486 4.05266 -0.934453 0
M  V30 1233 H 116.063 3.63133 0.847889 0
M  V30 1234 N 118.248 0.346503 1.53744 0
M  V30 1235 C 119.473 -0.253074 2.0585 0
M  V30 1236 C 119.898 -1.43202 1.21962 0
M  V30 1237 O 119.256 -1.79783 0.234073 0
M  V30 1238 C 119.304 -0.643193 3.54817 0
M  V30 1239 O 118.408 -1.74286 3.73762 0
M  V30 1240 H 117.749 -0.0413583 0.662711 0
M  V30 1241 H 120.279 0.501574 1.98357 0
M  V30 1242 H 120.289 -0.919526 3.97503 0
M  V30 1243 H 118.964 0.218966 4.15323 0
M  V30 1244 H 117.541 -1.46356 3.42979 0
M  V30 1245 N 119.726 -1.57421 0.075193 0
M  V30 1246 C 120.658 -2.09904 -0.920483 0
M  V30 1247 C 121.671 -1.03191 -1.25918 0
M  V30 1248 O 122.86 -1.30695 -1.21577 0
M  V30 1249 C 119.96 -2.54726 -2.23534 0
M  V30 1250 C 119.133 -3.8505 -2.07498 0
M  V30 1251 C 118.192 -4.15929 -3.22319 0
M  V30 1252 O 117.218 -4.85474 -2.9716 0
M  V30 1253 N 118.42 -3.69745 -4.47514 0
M  V30 1254 H 121.185 -2.95954 -0.472359 0
M  V30 1255 H 118.746 -1.61523 -0.110444 0
M  V30 1256 H 120.738 -2.72443 -2.9926 0
M  V30 1257 H 119.308 -1.73795 -2.59835 0
M  V30 1258 H 118.528 -3.76679 -1.16219 0
M  V30 1259 H 119.816 -4.70348 -1.94038 0
M  V30 1260 H 119.214 -3.13569 -4.7084 0
M  V30 1261 H 117.771 -3.92655 -5.20255 0
M  V30 1262 N 121.204 0.198386 -1.56346 0
M  V30 1263 C 122.429 0.939682 -1.84891 0
M  V30 1264 C 122.854 1.76202 -0.658369 0
M  V30 1265 O 122.212 1.76993 0.392851 0
M  V30 1266 C 122.26 1.81428 -3.11635 0
M  V30 1267 O 121.364 2.91265 -2.91956 0
M  V30 1268 H 120.705 0.264807 -0.608912 0
M  V30 1269 H 123.235 0.204695 -2.03573 0
M  V30 1270 H 123.245 2.21958 -3.42343 0
M  V30 1271 H 121.92 1.21004 -3.97908 0
M  V30 1272 H 120.497 2.54514 -2.72538 0
M  V30 1273 N 122.682 1.50554 0.465978 0
M  V30 1274 C 123.615 1.64436 1.58227 0
M  V30 1275 C 124.593 0.492367 1.54966 0
M  V30 1276 O 125.777 0.712536 1.74514 0
M  V30 1277 C 122.904 1.63165 2.96808 0
M  V30 1278 C 121.95 2.83987 3.18204 0
M  V30 1279 S 122.783 4.45219 2.97557 0
M  V30 1280 C 123.939 4.46649 4.3847 0
M  V30 1281 H 124.172 2.58861 1.46213 0
M  V30 1282 H 121.705 1.3988 0.653678 0
M  V30 1283 H 123.663 1.63116 3.76701 0
M  V30 1284 H 122.324 0.69967 3.06208 0
M  V30 1285 H 121.517 2.79416 4.19455 0
M  V30 1286 H 121.119 2.81629 2.46092 0
M  V30 1287 H 123.411 4.20526 5.31191 0
M  V30 1288 H 124.354 5.48295 4.48082 0
M  V30 1289 H 124.762 3.76296 4.20787 0
M  V30 1290 N 124.16 -0.719506 1.40217 0
M  V30 1291 C 125.571 -1.29848 1.34151 0
M  V30 1292 C 125.922 -1.96196 0.0131349 0
M  V30 1293 O 125.047 -1.973 -0.88892 0
M  V30 1294 C 125.642 -2.36118 2.42968 0
M  V30 1295 C 124.201 -2.8965 2.40374 0
M  V30 1296 C 123.348 -1.63393 2.24049 0
M  V30 1297 H 126.299 -0.51591 1.5008 0
M  V30 1298 H 126.32 -3.16871 2.10649 0
M  V30 1299 H 125.832 -1.878 3.39636 0
M  V30 1300 H 123.933 -3.42208 1.47392 0
M  V30 1301 H 124.046 -3.4171 3.35814 0
M  V30 1302 H 122.41 -1.88312 1.71495 0
M  V30 1303 H 123.193 -1.17104 3.2271 0
M  V30 1304 N 125.638 -1.25649 -0.95132 0
M  V30 1305 C 126.588 -1.03004 -2.03406 0
M  V30 1306 C 127.572 0.034187 -1.60864 0
M  V30 1307 O 128.764 -0.181549 -1.76066 0
M  V30 1308 C 125.893 -0.654255 -3.37008 0
M  V30 1309 C 124.979 -1.75542 -3.86065 0
M  V30 1310 N 125.37 -2.99113 -4.07879 0
M  V30 1311 C 123.668 -1.63669 -4.14884 0
M  V30 1312 C 124.369 -3.70611 -4.48356 0
M  V30 1313 N 123.345 -2.98247 -4.54477 0
M  V30 1314 H 127.147 -1.96813 -2.1827 0
M  V30 1315 H 124.661 -1.16017 -1.13639 0
M  V30 1316 H 126.658 -0.473206 -4.14206 0
M  V30 1317 H 125.318 0.276468 -3.23521 0
M  V30 1318 H 126.329 -3.35124 -3.94857 0
M  V30 1319 H 123.006 -0.775161 -4.10241 0
M  V30 1320 H 124.396 -4.76695 -4.73509 0
M  V30 1321 N 127.117 1.15442 -1.07289 0
M  V30 1322 C 128.364 1.86213 -0.795668 0
M  V30 1323 C 128.692 1.82291 0.678238 0
M  V30 1324 O 127.947 1.24057 1.51355 0
M  V30 1325 C 128.246 3.3489 -1.24834 0
M  V30 1326 C 127.912 3.59007 -2.72809 0
M  V30 1327 C 126.574 3.65298 -3.13227 0
M  V30 1328 C 128.926 3.68762 -3.68326 0
M  V30 1329 C 126.254 3.78854 -4.4798 0
M  V30 1330 C 128.606 3.83842 -5.0284 0
M  V30 1331 C 127.27 3.88378 -5.4288 0
M  V30 1332 H 126.54 0.681403 -0.291155 0
M  V30 1333 H 129.187 1.36435 -1.34379 0
M  V30 1334 H 127.492 3.8687 -0.619595 0
M  V30 1335 H 129.189 3.88052 -1.01076 0
M  V30 1336 H 125.779 3.5475 -2.40521 0
M  V30 1337 H 129.963 3.63202 -3.38227 0
M  V30 1338 H 125.219 3.80623 -4.78472 0
M  V30 1339 H 129.393 3.90332 -5.76727 0
M  V30 1340 H 127.02 3.98635 -6.47298 0
M  V30 1341 N 128.595 0.856903 1.32268 0
M  V30 1342 C 129.843 0.460474 1.96784 0
M  V30 1343 C 130.164 -0.987701 1.68135 0
M  V30 1344 O 129.434 -1.69058 0.989765 0
M  V30 1345 H 128.014 0.167289 0.728027 0
M  V30 1346 H 130.676 1.09383 1.61312 0
M  V30 1347 H 129.772 0.60739 3.06133 0
M  V30 1348 N 130.073 -1.45103 0.615059 0
M  V30 1349 C 131.301 -2.06553 0.11977 0
M  V30 1350 C 131.716 -1.45842 -1.19898 0
M  V30 1351 O 131.073 -0.575325 -1.73194 0
M  V30 1352 C 131.124 -3.61495 -0.018364 0
M  V30 1353 O 130.845 -4.19942 1.24822 0
M  V30 1354 C 132.346 -4.39947 -0.544237 0
M  V30 1355 H 129.566 -0.667096 0.0722739 0
M  V30 1356 H 132.11 -1.8623 0.84491 0
M  V30 1357 H 130.265 -3.81135 -0.693865 0
M  V30 1358 H 130.679 -5.13204 1.0827 0
M  V30 1359 H 132.153 -5.48838 -0.589953 0
M  V30 1360 H 132.63 -4.10255 -1.56805 0
M  V30 1361 H 133.236 -4.25188 0.0974703 0
M  V30 1362 N 131.551 -0.354651 -1.53558 0
M  V30 1363 C 132.967 -0.00315426 -1.596 0
M  V30 1364 C 133.167 1.47741 -1.37021 0
M  V30 1365 O 132.223 2.23759 -1.16996 0
M  V30 1366 C 133.536 -0.44929 -2.97325 0
M  V30 1367 C 135.084 -0.402578 -3.104 0
M  V30 1368 C 135.559 -0.824355 -4.5052 0
M  V30 1369 N 137.05 -0.778979 -4.56603 0
M  V30 1370 C 137.785 -1.07715 -5.63192 0
M  V30 1371 N 137.281 -1.44405 -6.77583 0
M  V30 1372 N 139.074 -1.00066 -5.53121 0
M  V30 1373 H 131.225 -1.31893 -1.66487 0
M  V30 1374 H 133.488 -0.538388 -0.780284 0
M  V30 1375 H 133.194 -1.48202 -3.1895 0
M  V30 1376 H 133.068 0.169772 -3.76818 0
M  V30 1377 H 135.455 0.621004 -2.88492 0
M  V30 1378 H 135.536 -1.05699 -2.32941 0
M  V30 1379 H 135.18 -1.846 -4.73165 0
M  V30 1380 H 135.11 -0.147304 -5.26394 0
M  V30 1381 H 137.601 -0.508528 -3.74463 0
M  V30 1382 H 137.914 -1.65612 -7.54846 0
M  V30 1383 H 136.259 -1.4826 -6.79002 0
M  V30 1384 H 139.45 -0.713293 -4.62633 0
M  V30 1385 H 139.623 -1.23638 -6.36096 0
M  V30 1386 N 133.029 1.57378 -0.0835403 0
M  V30 1387 C 134.259 1.97975 0.590713 0
M  V30 1388 C 134.667 0.961083 1.62972 0
M  V30 1389 O 134.01 -0.0590879 1.83605 0
M  V30 1390 C 134.072 3.34915 1.3066 0
M  V30 1391 C 133.736 4.55069 0.419698 0
M  V30 1392 C 134.733 5.18868 -0.32749 0
M  V30 1393 C 132.418 5.0114 0.341137 0
M  V30 1394 C 134.412 6.27098 -1.14134 0
M  V30 1395 C 132.099 6.0924 -0.476374 0
M  V30 1396 C 133.097 6.72083 -1.21627 0
M  V30 1397 O 132.785 7.781 -2.02028 0
M  V30 1398 H 132.517 0.655818 0.163947 0
M  V30 1399 H 135.071 2.04807 -0.156021 0
M  V30 1400 H 133.301 3.24733 2.09966 0
M  V30 1401 H 134.99 3.60037 1.87424 0
M  V30 1402 H 135.756 4.84211 -0.276459 0
M  V30 1403 H 131.635 4.51996 0.90668 0
M  V30 1404 H 135.179 6.7608 -1.71935 0
M  V30 1405 H 131.076 6.43329 -0.528927 0
M  V30 1406 H 131.844 7.95034 -1.94586 0
M  V30 1407 N 134.507 -0.190092 1.56449 0
M  V30 1408 C 135.753 -0.911052 1.81184 0
M  V30 1409 C 136.086 -1.82699 0.658396 0
M  V30 1410 O 135.361 -1.91491 -0.340775 0
M  V30 1411 C 135.644 -1.72297 3.16205 0
M  V30 1412 C 135.497 -0.831419 4.42049 0
M  V30 1413 C 136.816 -2.69454 3.47969 0
M  V30 1414 H 133.935 -0.32977 0.659106 0
M  V30 1415 H 136.577 -0.178169 1.89163 0
M  V30 1416 H 134.727 -2.34778 3.09534 0
M  V30 1417 H 136.399 -0.220929 4.60771 0
M  V30 1418 H 134.642 -0.138406 4.33579 0
M  V30 1419 H 135.313 -1.43461 5.33032 0
M  V30 1420 H 137.789 -2.17104 3.54972 0
M  V30 1421 H 136.665 -3.23342 4.43555 0
M  V30 1422 H 136.926 -3.48744 2.71717 0
M  V30 1423 N 135.985 -1.50799 -0.457987 0
M  V30 1424 C 137.225 -1.64088 -1.21879 0
M  V30 1425 C 137.589 -0.339848 -1.88968 0
M  V30 1426 O 138.79 -0.348301 -2.66534 0
M  V30 1427 C 137.061 -2.79726 -2.2246 0
M  V30 1428 S 138.62 -3.13225 -3.07303 0
M  V30 1429 H 135.438 -0.578314 -0.41361 0
M  V30 1430 H 138.04 -1.88632 -0.513645 0
M  V30 1431 H 136.744 -3.72722 -1.71775 0
M  V30 1432 H 136.275 -2.57308 -2.97584 0
M  V30 1433 H 138.29 -2.58062 -4.23814 0
M  V30 1434 N 137.463 0.71206 -1.40597 0
M  V30 1435 C 138.395 1.83704 -1.37061 0
M  V30 1436 C 139.408 1.60453 -0.275426 0
M  V30 1437 O 140.597 1.70262 -0.53602 0
M  V30 1438 C 137.697 3.20172 -1.11099 0
M  V30 1439 C 136.87 3.7059 -2.3234 0
M  V30 1440 C 135.929 4.85681 -2.02485 0
M  V30 1441 O 134.955 4.9815 -2.75382 0
M  V30 1442 N 136.157 5.71735 -1.00497 0
M  V30 1443 H 138.922 1.87235 -2.34016 0
M  V30 1444 H 136.483 0.893739 -1.34996 0
M  V30 1445 H 138.475 3.94768 -0.891064 0
M  V30 1446 H 137.045 3.11767 -0.227989 0
M  V30 1447 H 136.265 2.87085 -2.7014 0
M  V30 1448 H 137.553 4.01011 -3.13157 0
M  V30 1449 H 136.951 5.64275 -0.401298 0
M  V30 1450 H 135.508 6.463 -0.844942 0
M  V30 1451 N 138.941 1.26152 0.944643 0
M  V30 1452 C 140.188 1.11492 1.69044 0
M  V30 1453 C 140.516 -0.342366 1.91463 0
M  V30 1454 O 139.771 -1.26812 1.49054 0
M  V30 1455 C 140.07 1.82541 3.07268 0
M  V30 1456 C 139.736 3.32445 3.04616 0
M  V30 1457 C 138.398 3.73337 3.036 0
M  V30 1458 C 140.75 4.28171 2.97185 0
M  V30 1459 C 138.078 5.08348 2.92915 0
M  V30 1460 C 140.43 5.63218 2.88041 0
M  V30 1461 C 139.094 6.03426 2.85366 0
M  V30 1462 H 138.364 0.407977 0.618576 0
M  V30 1463 H 141.011 1.56551 1.10291 0
M  V30 1464 H 139.316 1.29941 3.69625 0
M  V30 1465 H 141.013 1.68642 3.63815 0
M  V30 1466 H 137.603 2.99915 3.06185 0
M  V30 1467 H 141.787 3.97563 2.97081 0
M  V30 1468 H 137.043 5.38667 2.89219 0
M  V30 1469 H 141.217 6.37078 2.81254 0
M  V30 1470 H 138.844 7.07999 2.76842 0
M  V30 1471 N 140.419 -1.14872 1.07899 0
M  V30 1472 C 141.83 -1.67367 0.827363 0
M  V30 1473 C 142.181 -1.85236 -0.646693 0
M  V30 1474 O 141.306 -1.55974 -1.50004 0
M  V30 1475 C 141.901 -3.04016 1.49532 0
M  V30 1476 C 140.46 -3.53566 1.29106 0
M  V30 1477 C 139.607 -2.29161 1.56143 0
M  V30 1478 H 142.558 -0.990083 1.24028 0
M  V30 1479 H 142.579 -3.69219 0.919643 0
M  V30 1480 H 142.091 -2.90978 2.56814 0
M  V30 1481 H 140.192 -3.71835 0.238713 0
M  V30 1482 H 140.305 -4.34661 2.01511 0
M  V30 1483 H 138.669 -2.34978 0.982717 0
M  V30 1484 H 139.452 -2.18705 2.64619 0
M  V30 1485 N 141.898 -0.863906 -1.31812 0
M  V30 1486 C 143.175 -0.39275 -1.91616 0
M  V30 1487 C 143.555 1.12461 -1.7865 0
M  V30 1488 O 142.903 1.95045 -1.19037 0
M  V30 1489 C 143.113 -0.867385 -3.38049 0
M  V30 1490 C 144.461 -0.889966 -4.15168 0
M  V30 1491 O 145.485 -0.812635 -3.46806 0
M  V30 1492 O 144.344 -1.00079 -5.37258 0
M  V30 1493 H 141.438 -0.116358 -0.818773 0
M  V30 1494 H 143.984 -0.951418 -1.40521 0
M  V30 1495 H 142.756 -1.91081 -3.41473 0
M  V30 1496 H 142.379 -0.286687 -3.96565 0
M  V30 1497 N 143.376 1.44774 -0.622745 0
M  V30 1498 C 144.308 2.28856 0.125485 0
M  V30 1499 C 145.321 1.40811 0.817069 0
M  V30 1500 O 146.51 1.65044 0.679918 0
M  V30 1501 C 143.61 3.16963 1.19949 0
M  V30 1502 C 142.783 4.33374 0.592064 0
M  V30 1503 C 141.842 5.02577 1.55893 0
M  V30 1504 O 140.868 5.58873 1.07933 0
M  V30 1505 N 142.07 5.03256 2.89334 0
M  V30 1506 H 144.835 2.93713 -0.596068 0
M  V30 1507 H 142.396 1.55129 -0.463303 0
M  V30 1508 H 144.388 3.60123 1.84644 0
M  V30 1509 H 142.958 2.53913 1.82337 0
M  V30 1510 H 142.178 3.93509 -0.233322 0
M  V30 1511 H 143.466 5.08527 0.166738 0
M  V30 1512 H 142.864 4.58836 3.30887 0
M  V30 1513 H 141.421 5.50232 3.49412 0
M  V30 1514 N 144.854 0.36279 1.53368 0
M  V30 1515 C 145.764 -0.492994 2.29362 0
M  V30 1516 C 146.78 -1.09507 1.35219 0
M  V30 1517 O 147.956 -1.10662 1.68273 0
M  V30 1518 C 145.021 -1.61855 3.066 0
M  V30 1519 C 144.082 -1.04429 4.16405 0
M  V30 1520 C 143.315 -2.11621 4.89951 0
M  V30 1521 O 143.538 -3.32684 4.63333 0
M  V30 1522 O 142.472 -1.74835 5.75948 0
M  V30 1523 H 146.298 0.125331 3.03441 0
M  V30 1524 H 143.883 0.127253 1.48857 0
M  V30 1525 H 145.765 -2.27302 3.54841 0
M  V30 1526 H 144.44 -2.22233 2.3536 0
M  V30 1527 H 143.347 -0.353819 3.72423 0
M  V30 1528 H 144.68 -0.485113 4.89804 0
M  V30 1529 N 146.332 -1.57332 0.0918853 0
M  V30 1530 C 147.242 -2.17368 -0.882505 0
M  V30 1531 C 148.258 -1.14226 -1.31257 0
M  V30 1532 O 149.434 -1.46582 -1.38115 0
M  V30 1533 C 146.499 -2.73962 -2.12476 0
M  V30 1534 C 145.56 -3.92048 -1.7492 0
M  V30 1535 C 144.793 -4.45933 -2.93223 0
M  V30 1536 O 145.016 -3.98764 -4.07852 0
M  V30 1537 O 143.95 -5.36999 -2.71875 0
M  V30 1538 H 147.776 -3.01031 -0.40172 0
M  V30 1539 H 145.361 -1.48813 -0.132291 0
M  V30 1540 H 147.243 -3.10147 -2.85283 0
M  V30 1541 H 145.918 -1.93347 -2.59613 0
M  V30 1542 H 144.825 -3.6068 -0.993025 0
M  V30 1543 H 146.158 -4.74017 -1.32548 0
M  V30 1544 N 147.81 0.181792 -1.56548 0
M  V30 1545 C 149.056 0.901431 -1.81665 0
M  V30 1546 C 149.389 1.82347 -0.668075 0
M  V30 1547 O 148.664 1.91669 0.330615 0
M  V30 1548 C 148.947 1.70618 -3.17115 0
M  V30 1549 C 148.8 0.807964 -4.42484 0
M  V30 1550 C 150.119 2.67605 -3.49393 0
M  V30 1551 H 147.238 0.32627 -0.660846 0
M  V30 1552 H 149.88 0.168134 -1.89255 0
M  V30 1553 H 148.03 2.33133 -3.10775 0
M  V30 1554 H 149.702 0.19649 -4.60881 0
M  V30 1555 H 147.945 0.115411 -4.33646 0
M  V30 1556 H 148.616 1.40632 -5.33785 0
M  V30 1557 H 151.092 2.15218 -3.56118 0
M  V30 1558 H 149.968 3.20985 -4.45264 0
M  V30 1559 H 150.229 3.47298 -2.73563 0
M  V30 1560 N 149.288 1.51039 0.449983 0
M  V30 1561 C 150.704 1.38934 0.785462 0
M  V30 1562 C 150.904 0.461817 1.96136 0
M  V30 1563 O 149.96 -0.0877389 2.52348 0
M  V30 1564 C 151.273 2.80724 1.0777 0
M  V30 1565 C 152.821 2.89787 1.1829 0
M  V30 1566 C 153.296 4.32457 1.50815 0
M  V30 1567 N 154.787 4.35505 1.57764 0
M  V30 1568 C 155.522 5.42914 1.84477 0
M  V30 1569 N 155.018 6.60502 2.09068 0
M  V30 1570 N 156.811 5.3038 1.86155 0
M  V30 1571 H 148.962 2.09904 -0.324647 0
M  V30 1572 H 151.225 0.944378 -0.0827957 0
M  V30 1573 H 150.931 3.50531 0.286498 0
M  V30 1574 H 150.805 3.19273 2.00859 0
M  V30 1575 H 153.192 2.20186 1.96474 0
M  V30 1576 H 153.273 2.54752 0.231314 0
M  V30 1577 H 152.917 5.02603 0.731622 0
M  V30 1578 H 152.847 4.64995 2.47158 0
M  V30 1579 H 155.338 3.50724 1.40715 0
M  V30 1580 H 155.651 7.38158 2.28785 0
M  V30 1581 H 153.996 6.63639 2.06416 0
M  V30 1582 H 157.187 4.37505 1.66454 0
M  V30 1583 H 157.36 6.1417 2.06637 0
M  V30 1584 N 150.766 -0.704594 1.40972 0
M  V30 1585 C 151.696 -1.83124 1.44872 0
M  V30 1586 C 152.677 -1.67281 0.30838 0
M  V30 1587 O 153.862 -1.87149 0.518556 0
M  V30 1588 C 150.992 -3.21181 1.32136 0
M  V30 1589 C 149.946 -3.51714 2.43888 0
M  V30 1590 C 149.272 -4.89032 2.16222 0
M  V30 1591 C 150.572 -3.516 3.86232 0
M  V30 1592 H 152.266 -1.80117 2.39161 0
M  V30 1593 H 149.812 -0.865145 1.15114 0
M  V30 1594 H 151.765 -3.99702 1.33479 0
M  V30 1595 H 150.489 -3.24791 0.343279 0
M  V30 1596 H 149.148 -2.75539 2.41813 0
M  V30 1597 H 148.796 -4.89256 1.16778 0
M  V30 1598 H 148.496 -5.10426 2.911 0
M  V30 1599 H 150.02 -5.69873 2.19265 0
M  V30 1600 H 151.434 -4.2014 3.9007 0
M  V30 1601 H 149.831 -3.84523 4.60719 0
M  V30 1602 H 150.901 -2.50757 4.15029 0
M  V30 1603 N 152.244 -1.26651 -0.937939 0
M  V30 1604 C 153.491 -1.12387 -1.6845 0
M  V30 1605 C 153.819 0.332208 -1.91642 0
M  V30 1606 O 153.074 1.2602 -1.49725 0
M  V30 1607 C 153.373 -1.84168 -3.06295 0
M  V30 1608 C 153.039 -3.34056 -3.02849 0
M  V30 1609 C 151.701 -3.74942 -3.01616 0
M  V30 1610 C 154.053 -4.29741 -2.9491 0
M  V30 1611 C 151.381 -5.09894 -2.90215 0
M  V30 1612 C 153.733 -5.64738 -2.8505 0
M  V30 1613 C 152.397 -6.0493 -2.82162 0
M  V30 1614 H 151.667 -0.411252 -0.616403 0
M  V30 1615 H 154.314 -1.57134 -1.09459 0
M  V30 1616 H 152.619 -1.319 -3.6893 0
M  V30 1617 H 154.316 -1.70569 -3.62915 0
M  V30 1618 H 150.906 -3.01534 -3.0459 0
M  V30 1619 H 155.09 -3.99133 -2.94969 0
M  V30 1620 H 150.346 -5.40194 -2.86358 0
M  V30 1621 H 154.52 -6.38561 -2.77872 0
M  V30 1622 H 152.147 -7.09457 -2.73084 0
M  V30 1623 N 153.722 1.14298 -1.08507 0
M  V30 1624 C 154.969 1.85359 -0.815373 0
M  V30 1625 C 155.297 1.83001 0.658865 0
M  V30 1626 O 154.552 1.25655 1.50031 0
M  V30 1627 C 154.851 3.33547 -1.28379 0
M  V30 1628 C 154.517 3.56093 -2.76602 0
M  V30 1629 C 153.179 3.61955 -3.17084 0
M  V30 1630 C 155.531 3.64834 -3.72217 0
M  V30 1631 C 152.859 3.74082 -4.51973 0
M  V30 1632 C 155.211 3.78487 -5.06883 0
M  V30 1633 C 153.875 3.82598 -5.46969 0
M  V30 1634 H 153.145 0.678276 -0.298366 0
M  V30 1635 H 155.792 1.35002 -1.35819 0
M  V30 1636 H 154.097 3.86191 -0.660593 0
M  V30 1637 H 155.794 3.86959 -1.05186 0
M  V30 1638 H 152.384 3.52179 -2.4427 0
M  V30 1639 H 156.568 3.59595 -3.42061 0
M  V30 1640 H 151.824 3.75527 -4.82483 0
M  V30 1641 H 155.998 3.84193 -5.80834 0
M  V30 1642 H 153.625 3.91747 -6.51489 0
M  V30 1643 N 155.201 0.870884 1.31352 0
M  V30 1644 C 156.612 0.534714 1.78879 0
M  V30 1645 C 156.963 -0.948423 1.71754 0
M  V30 1646 O 156.088 -1.74055 1.28584 0
M  V30 1647 C 156.683 0.963839 3.24801 0
M  V30 1648 C 155.242 0.679311 3.70219 0
M  V30 1649 C 154.389 1.15465 2.52117 0
M  V30 1650 H 157.34 1.05651 1.18421 0
M  V30 1651 H 157.361 0.286892 3.79417 0
M  V30 1652 H 156.873 2.04332 3.29955 0
M  V30 1653 H 154.974 -0.388769 3.70566 0
M  V30 1654 H 155.087 1.25698 4.62317 0
M  V30 1655 H 153.451 0.574383 2.48139 0
M  V30 1656 H 154.234 2.24157 2.60016 0
M  V30 1657 N 156.679 -1.44442 0.630414 0
M  V30 1658 C 157.609 -2.33418 -0.0618083 0
M  V30 1659 C 158.59 -1.48165 -0.835541 0
M  V30 1660 O 159.775 -1.76886 -0.801564 0
M  V30 1661 C 156.905 -3.31222 -1.04449 0
M  V30 1662 C 155.859 -4.26288 -0.382436 0
M  V30 1663 C 155.185 -5.13954 -1.47497 0
M  V30 1664 C 156.485 -5.1744 0.710865 0
M  V30 1665 H 158.179 -2.91548 0.681184 0
M  V30 1666 H 155.725 -1.40191 0.329026 0
M  V30 1667 H 157.678 -3.92351 -1.53748 0
M  V30 1668 H 156.402 -2.71299 -1.81836 0
M  V30 1669 H 155.061 -3.6649 0.0899054 0
M  V30 1670 H 154.709 -4.50385 -2.2397 0
M  V30 1671 H 154.409 -5.7837 -1.03737 0
M  V30 1672 H 155.933 -5.77955 -1.96979 0
M  V30 1673 H 157.347 -5.72509 0.300996 0
M  V30 1674 H 155.744 -5.90455 1.07156 0
M  V30 1675 H 156.814 -4.58496 1.57829 0
M  V30 1676 N 158.157 -0.370918 -1.53173 0
M  V30 1677 C 159.107 0.489588 -2.22681 0
M  V30 1678 C 160.091 1.04442 -1.22395 0
M  V30 1679 O 161.283 0.973578 -1.47819 0
M  V30 1680 C 158.412 1.626 -3.02351 0
M  V30 1681 C 157.498 1.08379 -4.10018 0
M  V30 1682 N 157.889 0.265004 -5.05105 0
M  V30 1683 C 156.187 1.35809 -4.2482 0
M  V30 1684 C 156.888 -0.0324755 -5.81691 0
M  V30 1685 N 155.864 0.566581 -5.40639 0
M  V30 1686 H 159.666 -0.142729 -2.93553 0
M  V30 1687 H 157.18 -0.179221 -1.61408 0
M  V30 1688 H 159.177 2.2547 -3.50669 0
M  V30 1689 H 157.837 2.26132 -2.33011 0
M  V30 1690 H 158.848 -0.0962352 -5.17811 0
M  V30 1691 H 155.525 1.9958 -3.66707 0
M  V30 1692 H 156.915 -0.69473 -6.68299 0
M  V30 1693 N 159.635 1.57281 -0.100228 0
M  V30 1694 C 160.565 2.17328 0.853857 0
M  V30 1695 C 161.546 1.10804 1.2906 0
M  V30 1696 O 162.731 1.38963 1.35657 0
M  V30 1697 C 159.861 2.75772 2.11109 0
M  V30 1698 C 158.815 3.87713 1.81279 0
M  V30 1699 C 158.141 4.32882 3.13874 0
M  V30 1700 C 159.441 5.10677 1.09574 0
M  V30 1701 H 161.135 2.97305 0.353545 0
M  V30 1702 H 158.681 1.43009 0.168612 0
M  V30 1703 H 160.634 3.16433 2.78296 0
M  V30 1704 H 159.358 1.93057 2.63432 0
M  V30 1705 H 158.017 3.476 1.16489 0
M  V30 1706 H 157.665 3.47051 3.64095 0
M  V30 1707 H 157.365 5.08358 2.94696 0
M  V30 1708 H 158.889 4.7618 3.82211 0
M  V30 1709 H 160.303 5.48474 1.66879 0
M  V30 1710 H 158.7 5.91615 1.00557 0
M  V30 1711 H 159.77 4.84835 0.0793299 0
M  V30 1712 N 161.113 -0.173488 1.56642 0
M  V30 1713 C 162.359 -0.887108 1.83035 0
M  V30 1714 C 162.714 -1.79965 0.680461 0
M  V30 1715 O 162.007 -1.88854 -0.323225 0
M  V30 1716 C 162.201 -1.72069 3.13252 0
M  V30 1717 C 162.03 -0.89035 4.40798 0
M  V30 1718 C 160.8 -0.566282 5.02117 0
M  V30 1719 C 162.998 -0.232921 5.13772 0
M  V30 1720 N 160.98 0.280427 6.13259 0
M  V30 1721 C 162.351 0.475046 6.18177 0
M  V30 1722 C 164.406 -0.150863 4.97671 0
M  V30 1723 C 163.109 1.25729 7.08227 0
M  V30 1724 C 165.135 0.618039 5.88162 0
M  V30 1725 C 164.497 1.31438 6.92029 0
M  V30 1726 H 160.596 -0.303303 0.720785 0
M  V30 1727 H 163.18 -0.154244 1.94088 0
M  V30 1728 H 161.351 -2.42499 3.03395 0
M  V30 1729 H 163.083 -2.37545 3.2765 0
M  V30 1730 H 159.838 -0.895852 4.6505 0
M  V30 1731 H 160.262 0.694027 6.73433 0
M  V30 1732 H 164.904 -0.674868 4.17379 0
M  V30 1733 H 162.622 1.79265 7.87966 0
M  V30 1734 H 166.208 0.683173 5.77775 0
M  V30 1735 H 165.088 1.89981 7.6084 0
M  V30 1736 N 162.591 -1.51276 -0.441967 0
M  V30 1737 C 163.837 -1.63958 -1.19355 0
M  V30 1738 C 164.17 -0.352543 -1.90973 0
M  V30 1739 O 163.445 0.647627 -1.83401 0
M  V30 1740 C 163.728 -2.83979 -2.21422 0
M  V30 1741 C 163.581 -4.22646 -1.53918 0
M  V30 1742 C 164.9 -2.99521 -3.22451 0
M  V30 1743 H 162.019 -0.596709 -0.432559 0
M  V30 1744 H 164.661 -1.83748 -0.483398 0
M  V30 1745 H 162.811 -2.67237 -2.81987 0
M  V30 1746 H 164.483 -4.51045 -0.967256 0
M  V30 1747 H 162.726 -4.25558 -0.841615 0
M  V30 1748 H 163.397 -5.02609 -2.28229 0
M  V30 1749 H 165.873 -3.14944 -2.71937 0
M  V30 1750 H 164.749 -3.85072 -3.91166 0
M  V30 1751 H 165.01 -2.11391 -3.88287 0
M  V30 1752 N 164.069 0.697108 -1.41344 0
M  V30 1753 C 165.016 1.81106 -1.43071 0
M  V30 1754 C 165.986 1.63632 -0.285275 0
M  V30 1755 O 167.171 1.84504 -0.486091 0
M  V30 1756 C 164.311 3.18975 -1.31715 0
M  V30 1757 C 163.424 3.47892 -2.56115 0
M  V30 1758 C 162.559 4.75367 -2.37064 0
M  V30 1759 C 161.598 4.97247 -3.56948 0
M  V30 1760 N 160.735 6.15947 -3.36977 0
M  V30 1761 H 165.575 1.78965 -2.38276 0
M  V30 1762 H 163.112 0.873975 -1.18322 0
M  V30 1763 H 165.07 3.98615 -1.23133 0
M  V30 1764 H 163.7 3.20297 -0.401183 0
M  V30 1765 H 162.752 2.62669 -2.75153 0
M  V30 1766 H 164.064 3.59962 -3.45295 0
M  V30 1767 H 163.218 5.63059 -2.25941 0
M  V30 1768 H 161.957 4.65541 -1.45338 0
M  V30 1769 H 160.962 4.08004 -3.68527 0
M  V30 1770 H 162.187 5.08934 -4.49626 0
M  V30 1771 H 160.133 6.07336 -2.47949 0
M  V30 1772 H 160.05 6.28777 -4.19732 0
M  V30 1773 H 161.318 7.06377 -3.29623 0
M  V30 1774 N 165.547 1.27147 0.931209 0
M  V30 1775 C 166.495 1.09398 2.05268 0
M  V30 1776 C 167.489 0.0180591 1.6939 0
M  V30 1777 O 168.695 0.17551 1.79142 0
M  V30 1778 H 165.07 0.336986 0.672268 0
M  V30 1779 H 167.041 2.04416 2.17386 0
M  V30 1780 C 165.79 0.75424 3.39421 0
M  V30 1781 H 165.113 1.57404 3.67511 0
M  V30 1782 H 166.553 0.669903 4.18674 0
M  V30 1783 C 165.012 -0.541197 3.32525 0
M  V30 1784 O 165.542 -1.57664 3.69466 0
M  V30 1785 N 163.748 -0.535517 2.85623 0
M  V30 1786 H 163.295 0.307511 2.55758 0
M  V30 1787 H 163.253 -1.40236 2.81392 0
M  V30 1788 N 167.025 -1.13721 1.09112 0
M  V30 1789 C 168.271 -1.85198 0.826414 0
M  V30 1790 C 168.604 -1.83129 -0.646319 0
M  V30 1791 O 167.879 -1.2671 -1.47563 0
M  V30 1792 C 168.162 -3.33507 1.35812 0
M  V30 1793 C 168.015 -3.44108 2.89672 0
M  V30 1794 C 169.334 -4.28838 0.989256 0
M  V30 1795 H 166.453 -0.67243 0.301675 0
M  V30 1796 H 169.095 -1.33499 1.35197 0
M  V30 1797 H 167.245 -3.77666 0.911082 0
M  V30 1798 H 168.917 -3.08684 3.428 0
M  V30 1799 H 167.16 -2.85087 3.26967 0
M  V30 1800 H 167.831 -4.48388 3.21951 0
M  V30 1801 H 170.307 -3.92734 1.37475 0
M  V30 1802 H 169.183 -5.31051 1.38838 0
M  V30 1803 H 169.444 -4.4198 -0.102924 0
M  V30 1804 N 168.503 -0.877838 -1.30888 0
M  V30 1805 C 169.75 -0.492696 -1.96415 0
M  V30 1806 C 170.078 0.956671 -1.69346 0
M  V30 1807 O 169.333 1.68993 -0.986913 0
M  V30 1808 C 169.632 -0.705748 -3.50363 0
M  V30 1809 C 169.298 -2.1291 -3.97467 0
M  V30 1810 C 167.96 -2.51834 -4.1004 0
M  V30 1811 C 170.312 -3.05702 -4.22132 0
M  V30 1812 C 167.64 -3.82775 -4.44635 0
M  V30 1813 C 169.992 -4.36166 -4.58194 0
M  V30 1814 C 168.656 -4.74993 -4.68975 0
M  V30 1815 H 167.926 -0.18029 -0.718733 0
M  V30 1816 H 170.573 -1.11233 -1.55883 0
M  V30 1817 H 168.878 -0.00303058 -3.918 0
M  V30 1818 H 170.575 -0.387456 -3.99124 0
M  V30 1819 H 167.165 -1.81694 -3.88182 0
M  V30 1820 H 171.349 -2.76853 -4.11906 0
M  V30 1821 H 166.605 -4.12609 -4.51181 0
M  V30 1822 H 170.779 -5.08111 -4.76231 0
M  V30 1823 H 168.406 -5.76495 -4.95537 0
M  V30 1824 N 169.982 1.44106 -0.638065 0
M  V30 1825 C 170.912 2.33448 0.0494287 0
M  V30 1826 C 171.893 1.48606 0.827672 0
M  V30 1827 O 173.078 1.77308 0.792173 0
M  V30 1828 C 170.208 3.31771 1.02691 0
M  V30 1829 C 169.162 4.26485 0.359823 0
M  V30 1830 C 168.488 5.14729 1.44769 0
M  V30 1831 C 169.788 5.17056 -0.738296 0
M  V30 1832 H 171.482 2.91183 -0.696636 0
M  V30 1833 H 169.028 1.40014 -0.336456 0
M  V30 1834 H 170.981 3.93161 1.51666 0
M  V30 1835 H 169.705 2.7226 1.80395 0
M  V30 1836 H 168.364 3.66437 -0.10934 0
M  V30 1837 H 168.012 4.51566 2.21578 0
M  V30 1838 H 167.712 5.78913 1.00668 0
M  V30 1839 H 169.236 5.78991 1.93911 0
M  V30 1840 H 170.65 5.72342 -0.331354 0
M  V30 1841 H 169.047 5.89879 -1.10286 0
M  V30 1842 H 170.117 4.57652 -1.60258 0
M  V30 1843 N 171.46 0.379036 1.52974 0
M  V30 1844 C 172.408 -0.476033 2.27677 0
M  V30 1845 C 173.402 -1.0719 1.31174 0
M  V30 1846 O 174.608 -1.01355 1.48752 0
M  V30 1847 H 170.983 -0.172255 0.732006 0
M  V30 1848 H 172.954 0.175615 2.97883 0
M  V30 1849 C 171.703 -1.5967 3.0887 0
M  V30 1850 H 171.026 -1.1475 3.82978 0
M  V30 1851 H 172.466 -2.16943 3.64296 0
M  V30 1852 C 170.925 -2.54682 2.20542 0
M  V30 1853 O 171.455 -3.57836 1.82527 0
M  V30 1854 N 169.661 -2.24183 1.84907 0
M  V30 1855 H 169.208 -1.40333 2.1602 0
M  V30 1856 H 169.166 -2.88006 1.26096 0
M  V30 1857 N 172.938 -1.57226 0.108567 0
M  V30 1858 C 173.87 -2.11809 -0.875752 0
M  V30 1859 C 174.883 -1.05839 -1.23701 0
M  V30 1860 O 176.072 -1.33245 -1.18778 0
M  V30 1861 C 173.172 -2.59411 -2.18081 0
M  V30 1862 C 172.345 -3.89364 -1.99284 0
M  V30 1863 C 171.404 -4.22672 -3.13424 0
M  V30 1864 O 170.43 -4.91668 -2.86795 0
M  V30 1865 N 171.632 -3.79154 -4.3957 0
M  V30 1866 H 174.397 -2.9689 -0.409477 0
M  V30 1867 H 171.958 -1.61721 -0.076158 0
M  V30 1868 H 173.95 -2.7873 -2.93414 0
M  V30 1869 H 172.52 -1.79268 -2.5609 0
M  V30 1870 H 171.74 -3.79059 -1.08203 0
M  V30 1871 H 173.028 -4.74358 -1.84017 0
M  V30 1872 H 172.426 -3.23486 -4.64083 0
M  V30 1873 H 170.983 -4.03602 -5.11809 0
M  V30 1874 N 174.416 0.165178 -1.56732 0
M  V30 1875 C 175.644 0.896218 -1.86482 0
M  V30 1876 C 176.059 1.75555 -0.694675 0
M  V30 1877 O 175.416 1.79379 0.33607 0
M  V30 1878 C 175.467 1.76792 -3.1532 0
M  V30 1879 O 175.188 0.943239 -4.27825 0
M  V30 1880 C 176.689 2.6081 -3.58459 0
M  V30 1881 H 173.909 0.260064 -0.618553 0
M  V30 1882 H 176.453 0.163428 -2.03846 0
M  V30 1883 H 174.608 2.45398 -2.99764 0
M  V30 1884 H 175.022 1.53998 -5.01383 0
M  V30 1885 H 176.496 3.17579 -4.51495 0
M  V30 1886 H 176.973 3.35977 -2.82872 0
M  V30 1887 H 177.579 1.97526 -3.76648 0
M  V30 1888 N 175.894 1.51508 0.433938 0
M  V30 1889 C 177.31 1.39759 0.770682 0
M  V30 1890 C 177.51 0.482594 1.95636 0
M  V30 1891 O 176.566 -0.0609691 2.52426 0
M  V30 1892 C 177.879 2.81851 1.04787 0
M  V30 1893 C 179.427 2.91025 1.1521 0
M  V30 1894 C 179.902 4.34032 1.46219 0
M  V30 1895 N 181.393 4.37154 1.53136 0
M  V30 1896 C 182.128 5.4484 1.78709 0
M  V30 1897 N 181.624 6.62682 2.02051 0
M  V30 1898 N 183.417 5.32324 1.80519 0
M  V30 1899 H 175.568 2.09548 -0.346892 0
M  V30 1900 H 177.831 0.943446 -0.0928074 0
M  V30 1901 H 177.537 3.50815 0.249304 0
M  V30 1902 H 177.411 3.21386 1.97461 0
M  V30 1903 H 179.798 2.22257 1.94128 0
M  V30 1904 H 179.879 2.54983 0.204281 0
M  V30 1905 H 179.523 5.03351 0.678274 0
M  V30 1906 H 179.453 4.6759 2.42212 0
M  V30 1907 H 181.944 3.52197 1.36987 0
M  V30 1908 H 182.257 7.40543 2.20943 0
M  V30 1909 H 180.602 6.65791 1.99366 0
M  V30 1910 H 183.793 4.39246 1.61805 0
M  V30 1911 H 183.966 6.16328 2.00111 0
M  V30 1912 N 177.372 -0.689602 1.41712 0
M  V30 1913 C 178.6 -1.47827 1.44758 0
M  V30 1914 C 179.015 -1.88721 0.0545703 0
M  V30 1915 O 178.372 -1.57176 -0.927463 0
M  V30 1916 C 178.423 -2.73698 2.3616 0
M  V30 1917 O 178.144 -2.34524 3.7004 0
M  V30 1918 C 179.645 -3.67389 2.48072 0
M  V30 1919 H 176.865 -0.455357 0.49284 0
M  V30 1920 H 179.409 -0.848574 1.86063 0
M  V30 1921 H 177.564 -3.32891 1.98148 0
M  V30 1922 H 177.978 -3.15701 4.18847 0
M  V30 1923 H 179.452 -4.52475 3.16181 0
M  V30 1924 H 179.929 -4.12284 1.51388 0
M  V30 1925 H 180.535 -3.14097 2.86746 0
M  V30 1926 N 178.85 -1.27639 -0.924453 0
M  V30 1927 C 179.782 -1.06442 -2.02985 0
M  V30 1928 C 180.795 -0.0194771 -1.62788 0
M  V30 1929 O 181.984 -0.261388 -1.76576 0
M  V30 1930 C 179.084 -0.59327 -3.33667 0
M  V30 1931 C 178.257 -1.71123 -4.02537 0
M  V30 1932 C 177.316 -1.23527 -5.11495 0
M  V30 1933 O 176.342 -1.93553 -5.35281 0
M  V30 1934 N 177.544 -0.0926678 -5.80426 0
M  V30 1935 H 180.309 -2.01633 -2.2173 0
M  V30 1936 H 177.87 -1.19248 -1.09505 0
M  V30 1937 H 179.862 -0.258686 -4.03872 0
M  V30 1938 H 178.432 0.265502 -3.1147 0
M  V30 1939 H 177.652 -2.21593 -3.26022 0
M  V30 1940 H 178.94 -2.46145 -4.45298 0
M  V30 1941 H 178.338 0.491741 -5.63559 0
M  V30 1942 H 176.895 0.182714 -6.51544 0
M  V30 1943 N 180.328 1.1314 -1.09713 0
M  V30 1944 C 181.744 1.36477 -0.827423 0
M  V30 1945 C 181.944 1.93654 0.556817 0
M  V30 1946 O 181 2.15791 1.31112 0
M  V30 1947 C 182.313 2.31334 -1.92106 0
M  V30 1948 C 183.861 2.44943 -1.94864 0
M  V30 1949 C 184.336 3.4311 -3.0338 0
M  V30 1950 N 185.827 3.50662 -3.02639 0
M  V30 1951 C 186.562 4.2651 -3.83246 0
M  V30 1952 N 186.058 5.05485 -4.73768 0
M  V30 1953 N 187.851 4.2184 -3.71493 0
M  V30 1954 H 180.002 0.743807 -1.9895 0
M  V30 1955 H 182.265 0.389823 -0.864143 0
M  V30 1956 H 181.971 1.96483 -2.91698 0
M  V30 1957 H 181.845 3.31381 -1.80184 0
M  V30 1958 H 184.232 2.79079 -0.959099 0
M  V30 1959 H 184.313 1.4481 -2.10864 0
M  V30 1960 H 183.957 3.09704 -4.02549 0
M  V30 1961 H 183.887 4.43055 -2.84622 0
M  V30 1962 H 186.378 2.94315 -2.37039 0
M  V30 1963 H 186.691 5.60675 -5.3185 0
M  V30 1964 H 185.036 5.04708 -4.77802 0
M  V30 1965 H 188.227 3.5922 -3.00131 0
M  V30 1966 H 188.4 4.80697 -4.3455 0
M  V30 1967 N 181.806 0.884767 1.30421 0
M  V30 1968 C 183.052 0.503851 1.96441 0
M  V30 1969 C 183.385 -0.944518 1.69684 0
M  V30 1970 O 182.66 -1.66737 1.00145 0
M  V30 1971 C 182.943 0.779085 3.51571 0
M  V30 1972 C 182.796 2.27807 3.87846 0
M  V30 1973 C 184.115 0.255452 4.39358 0
M  V30 1974 H 181.234 0.184533 0.713524 0
M  V30 1975 H 183.876 1.10872 1.54297 0
M  V30 1976 H 182.026 0.264274 3.876 0
M  V30 1977 H 183.698 2.86127 3.61841 0
M  V30 1978 H 181.941 2.74479 3.35922 0
M  V30 1979 H 182.612 2.42125 4.96064 0
M  V30 1980 H 185.088 0.696079 4.10236 0
M  V30 1981 H 183.964 0.477361 5.4682 0
M  V30 1982 H 184.225 -0.843293 4.33983 0
M  V30 1983 N 183.284 -1.43765 0.645699 0
M  V30 1984 C 184.214 -2.33471 -0.0370477 0
M  V30 1985 C 185.195 -1.49042 -0.819779 0
M  V30 1986 O 186.38 -1.77726 -0.782758 0
M  V30 1987 C 183.51 -3.32311 -1.0093 0
M  V30 1988 C 182.464 -4.2667 -0.337201 0
M  V30 1989 C 181.79 -5.1549 -1.42037 0
M  V30 1990 C 183.09 -5.16657 0.765706 0
M  V30 1991 H 184.784 -2.90809 0.712069 0
M  V30 1992 H 182.33 -1.39834 0.343876 0
M  V30 1993 H 184.283 -3.9396 -1.49578 0
M  V30 1994 H 183.007 -2.73213 -1.78948 0
M  V30 1995 H 181.666 -3.66374 0.128771 0
M  V30 1996 H 181.314 -4.52735 -2.1918 0
M  V30 1997 H 181.014 -5.79438 -0.975966 0
M  V30 1998 H 182.538 -5.80012 -1.90838 0
M  V30 1999 H 183.952 -5.72158 0.361702 0
M  V30 2000 H 182.349 -5.89286 1.13413 0
M  V30 2001 H 183.419 -4.56796 1.62683 0
M  V30 2002 N 184.763 -0.387143 -1.52771 0
M  V30 2003 C 186.01 0.195735 -2.01552 0
M  V30 2004 C 186.338 1.46995 -1.27369 0
M  V30 2005 O 185.593 1.92325 -0.361879 0
M  V30 2006 C 185.892 0.512209 -3.53711 0
M  V30 2007 C 185.558 -0.670202 -4.45891 0
M  V30 2008 C 184.22 -0.994586 -4.70809 0
M  V30 2009 C 186.572 -1.46134 -5.00294 0
M  V30 2010 C 183.9 -2.11169 -5.4738 0
M  V30 2011 C 186.252 -2.56903 -5.78086 0
M  V30 2012 C 184.916 -2.89852 -6.01284 0
M  V30 2013 H 184.186 0.0716246 -0.73753 0
M  V30 2014 H 186.833 -0.524046 -1.8419 0
M  V30 2015 H 185.138 1.31329 -3.69134 0
M  V30 2016 H 186.835 0.975804 -3.88946 0
M  V30 2017 H 183.425 -0.407366 -4.2666 0
M  V30 2018 H 187.609 -1.22397 -4.80971 0
M  V30 2019 H 182.865 -2.3707 -5.63567 0
M  V30 2020 H 187.039 -3.18608 -6.19243 0
M  V30 2021 H 184.666 -3.76533 -6.60399 0
M  V30 2022 N 186.241 1.57166 -0.116904 0
M  V30 2023 C 187.487 1.95412 0.542405 0
M  V30 2024 C 187.82 1.00019 1.66463 0
M  V30 2025 O 187.095 0.0370346 1.94465 0
M  V30 2026 C 187.378 3.43615 1.07708 0
M  V30 2027 C 187.231 4.49781 -0.0415868 0
M  V30 2028 C 188.55 3.93616 1.96861 0
M  V30 2029 H 185.669 0.710543 0.195696 0
M  V30 2030 H 188.311 1.89027 -0.192038 0
M  V30 2031 H 186.461 3.49187 1.70296 0
M  V30 2032 H 188.133 4.56308 -0.676793 0
M  V30 2033 H 186.376 4.28033 -0.705019 0
M  V30 2034 H 187.047 5.50733 0.373717 0
M  V30 2035 H 189.523 3.90335 1.44146 0
M  V30 2036 H 188.399 4.97838 2.3119 0
M  V30 2037 H 188.66 3.34188 2.89432 0
M  V30 2038 N 187.719 -0.156864 1.56817 0
M  V30 2039 C 188.996 -0.899244 1.73704 0
M  V30 2040 C 189.376 -1.99771 0.682254 0
M  V30 2041 O 188.724 -2.26515 -0.300522 0
M  V30 2042 C 188.934 -1.45075 3.17418 0
M  V30 2043 C 190.282 -1.91802 3.7881 0
M  V30 2044 O 191.306 -1.54838 3.20786 0
M  V30 2045 O 190.165 -2.5994 4.80722 0
M  V30 2046 H 187.259 -0.424267 0.709878 0
M  V30 2047 H 189.805 -0.143561 1.69092 0
M  V30 2048 H 188.577 -0.660846 3.85679 0
M  V30 2049 H 188.2 -2.27021 3.26416 0
M  V30 2050 N 189.197 -1.51736 -0.425897 0
M  V30 2051 C 190.422 -1.69082 -1.20108 0
M  V30 2052 C 190.847 -0.392398 -1.83962 0
M  V30 2053 O 190.205 0.64858 -1.69302 0
M  V30 2054 C 190.253 -2.81604 -2.25237 0
M  V30 2055 O 189.357 -2.46004 -3.30992 0
M  V30 2056 H 188.698 -0.563408 -0.35138 0
M  V30 2057 H 191.228 -1.98358 -0.501512 0
M  V30 2058 H 191.238 -3.06025 -2.69838 0
M  V30 2059 H 189.913 -3.75817 -1.78142 0
M  V30 2060 H 188.49 -2.32195 -2.91787 0
M  V30 2061 N 190.675 0.682077 -1.42076 0
M  V30 2062 C 191.921 1.44428 -1.42367 0
M  V30 2063 C 192.254 1.94164 -0.0373056 0
M  V30 2064 O 191.529 1.70429 0.937239 0
M  V30 2065 C 191.812 2.64654 -2.44194 0
M  V30 2066 C 191.665 2.20596 -3.91991 0
M  V30 2067 C 192.984 3.66865 -2.431 0
M  V30 2068 H 190.103 0.523834 -0.518428 0
M  V30 2069 H 192.745 0.77576 -1.73442 0
M  V30 2070 H 190.895 3.2169 -2.17826 0
M  V30 2071 H 192.567 1.68783 -4.29313 0
M  V30 2072 H 190.81 1.52242 -4.06208 0
M  V30 2073 H 191.481 3.06921 -4.58807 0
M  V30 2074 H 193.957 3.19531 -2.66532 0
M  V30 2075 H 192.833 4.48577 -3.16339 0
M  V30 2076 H 193.094 4.17493 -1.45437 0
M  V30 2077 N 192.153 1.28127 0.917671 0
M  V30 2078 C 193.401 1.14825 1.66312 0
M  V30 2079 C 193.722 -0.304379 1.9261 0
M  V30 2080 O 192.992 -1.21149 1.53947 0
M  V30 2081 H 191.572 0.421953 0.616413 0
M  V30 2082 H 194.234 1.608 1.10134 0
M  V30 2083 H 193.33 1.68489 2.62712 0
M  V30 2084 N 193.631 -1.12557 1.10312 0
M  V30 2085 C 194.561 -2.20341 0.772798 0
M  V30 2086 C 195.542 -1.68198 -0.25365 0
M  V30 2087 O 196.727 -1.93831 -0.119699 0
M  V30 2088 C 193.857 -3.46709 0.202443 0
M  V30 2089 C 192.811 -4.11996 1.15943 0
M  V30 2090 C 192.137 -5.328 0.450345 0
M  V30 2091 C 193.437 -4.5828 2.50552 0
M  V30 2092 H 195.131 -2.48229 1.674 0
M  V30 2093 H 192.677 -1.19308 0.806326 0
M  V30 2094 H 194.63 -4.2138 -0.0407752 0
M  V30 2095 H 193.354 -3.18245 -0.734001 0
M  V30 2096 H 192.013 -3.39305 1.38808 0
M  V30 2097 H 191.661 -5.00602 -0.490531 0
M  V30 2098 H 191.361 -5.7743 1.08851 0
M  V30 2099 H 192.885 -6.10219 0.215642 0
M  V30 2100 H 194.299 -5.2433 2.31843 0
M  V30 2101 H 192.696 -5.13683 3.10242 0
M  V30 2102 H 193.766 -3.72329 3.10643 0
M  V30 2103 N 195.109 -0.891671 -1.2995 0
M  V30 2104 C 196.52 -0.563104 -1.78006 0
M  V30 2105 C 196.871 0.920978 -1.73241 0
M  V30 2106 O 195.996 1.71987 -1.31337 0
M  V30 2107 C 196.591 -1.01539 -3.23226 0
M  V30 2108 C 195.15 -0.738124 -3.69092 0
M  V30 2109 C 194.297 -1.19461 -2.50249 0
M  V30 2110 H 197.248 -1.07522 -1.16725 0
M  V30 2111 H 197.269 -0.347217 -3.78912 0
M  V30 2112 H 196.781 -2.09555 -3.26662 0
M  V30 2113 H 194.882 0.329766 -3.71138 0
M  V30 2114 H 194.995 -1.33037 -4.60259 0
M  V30 2115 H 193.359 -0.613787 -2.47194 0
M  V30 2116 H 194.142 -2.28265 -2.56417 0
M  V30 2117 N 196.587 1.43421 -0.653314 0
M  V30 2118 C 197.55 2.29182 0.0287951 0
M  V30 2119 C 198.55 1.42213 0.750465 0
M  V30 2120 O 199.74 1.63843 0.591701 0
M  V30 2121 C 196.872 3.24278 1.05151 0
M  V30 2122 H 198.065 2.90985 -0.725786 0
M  V30 2123 H 195.618 1.50702 -0.414545 0
M  V30 2124 H 196.353 2.6737 1.83532 0
M  V30 2125 H 196.138 3.88396 0.537687 0
M  V30 2126 H 197.628 3.88647 1.52786 0
M  V30 2127 N 198.065 0.39524 1.52563 0
M  V30 2128 C 199.476 -0.0774719 1.86539 0
M  V30 2129 C 199.827 -1.45641 1.31466 0
M  V30 2130 O 198.952 -2.06459 0.648367 0
M  V30 2131 C 199.547 -0.147356 3.38479 0
M  V30 2132 C 198.106 -0.564373 3.72145 0
M  V30 2133 C 197.253 0.269919 2.75983 0
M  V30 2134 H 200.204 0.612876 1.46388 0
M  V30 2135 H 200.225 -0.965343 3.68051 0
M  V30 2136 H 199.737 0.856387 3.78534 0
M  V30 2137 H 197.838 -1.57527 3.37663 0
M  V30 2138 H 197.951 -0.318402 4.78041 0
M  V30 2139 H 196.315 -0.265696 2.5331 0
M  V30 2140 H 197.098 1.27175 3.18875 0
M  V30 2141 N 199.544 -1.57102 0.125237 0
M  V30 2142 C 200.955 -1.82384 -0.399142 0
M  V30 2143 C 201.306 -1.04276 -1.66195 0
M  V30 2144 O 200.431 -0.281269 -2.14564 0
M  V30 2145 C 201.026 -3.30821 -0.730932 0
M  V30 2146 C 199.585 -3.56762 -1.19992 0
M  V30 2147 C 198.732 -2.7649 -0.211792 0
M  V30 2148 H 201.683 -1.54786 0.350277 0
M  V30 2149 H 201.704 -3.4579 -1.58775 0
M  V30 2150 H 201.216 -3.87643 0.188345 0
M  V30 2151 H 199.317 -3.05305 -2.13588 0
M  V30 2152 H 199.43 -4.65317 -1.14093 0
M  V30 2153 H 197.794 -2.4489 -0.700085 0
M  V30 2154 H 198.577 -3.36073 0.700691 0
M  V30 2155 N 201.022 0.148545 -1.56898 0
M  V30 2156 C 202.247 0.880385 -1.87787 0
M  V30 2157 C 202.672 1.74018 -0.714093 0
M  V30 2158 O 202.03 1.78153 0.336343 0
M  V30 2159 C 202.078 1.71422 -3.17249 0
M  V30 2160 O 201.182 2.8183 -3.01074 0
M  V30 2161 H 200.523 0.245301 -0.617028 0
M  V30 2162 H 203.053 0.139826 -2.04122 0
M  V30 2163 H 203.063 2.10954 -3.49231 0
M  V30 2164 H 201.738 1.08284 -4.01556 0
M  V30 2165 H 200.315 2.45715 -2.80497 0
M  V30 2166 N 202.5 1.5196 0.417844 0
M  V30 2167 C 203.749 1.6482 1.16264 0
M  V30 2168 C 204.062 0.379886 1.91876 0
M  V30 2169 O 205.268 0.388154 2.68711 0
M  V30 2170 C 203.724 2.91161 2.1155 0
M  V30 2171 C 203.332 4.25068 1.41495 0
M  V30 2172 C 205.076 3.13383 2.86341 0
M  V30 2173 C 202.983 5.42541 2.35379 0
M  V30 2174 H 201.913 0.613954 0.437694 0
M  V30 2175 H 204.564 1.78442 0.427871 0
M  V30 2176 H 202.946 2.71218 2.88543 0
M  V30 2177 H 204.12 4.55463 0.699263 0
M  V30 2178 H 202.435 4.0888 0.787792 0
M  V30 2179 H 205.032 3.98324 3.5671 0
M  V30 2180 H 205.375 2.27256 3.48798 0
M  V30 2181 H 205.908 3.33757 2.1645 0
M  V30 2182 H 202.647 6.30987 1.77582 0
M  V30 2183 H 202.167 5.16497 3.04945 0
M  V30 2184 H 203.846 5.75272 2.96093 0
M  V30 2185 N 203.978 -0.674533 1.42435 0
M  V30 2186 C 205.227 -1.43034 1.42212 0
M  V30 2187 C 205.54 -1.95555 0.0420788 0
M  V30 2188 O 206.746 -2.71374 -0.0827558 0
M  V30 2189 C 205.202 -2.58748 2.50155 0
M  V30 2190 C 204.81 -2.12925 3.94166 0
M  V30 2191 C 206.554 -3.36257 2.59098 0
M  V30 2192 C 204.461 -3.25723 4.93618 0
M  V30 2193 H 203.391 -0.537345 0.528939 0
M  V30 2194 H 206.042 -0.73024 1.68344 0
M  V30 2195 H 204.424 -3.31128 2.17188 0
M  V30 2196 H 205.598 -1.47697 4.36488 0
M  V30 2197 H 203.913 -1.48354 3.89076 0
M  V30 2198 H 206.51 -4.20264 3.30578 0
M  V30 2199 H 206.853 -3.82866 1.63461 0
M  V30 2200 H 207.386 -2.70947 2.9126 0
M  V30 2201 H 204.125 -2.84105 5.90732 0
M  V30 2202 H 203.645 -3.89732 4.55926 0
M  V30 2203 H 205.324 -3.91186 5.15347 0
M  V30 2204 N 205.456 -1.28612 -0.910864 0
M  V30 2205 C 206.403 -1.12786 -2.01365 0
M  V30 2206 C 207.373 -0.024201 -1.66082 0
M  V30 2207 O 208.558 -0.189667 -1.89855 0
M  V30 2208 C 205.698 -0.798743 -3.35729 0
M  V30 2209 C 204.811 -1.98173 -3.83864 0
M  V30 2210 C 203.946 -1.59298 -5.06752 0
M  V30 2211 C 202.985 -2.74245 -5.47226 0
M  V30 2212 N 202.122 -2.35842 -6.61304 0
M  V30 2213 H 206.962 -2.07142 -2.14234 0
M  V30 2214 H 204.499 -1.03093 -1.0493 0
M  V30 2215 H 206.457 -0.588662 -4.13026 0
M  V30 2216 H 205.087 0.10789 -3.2262 0
M  V30 2217 H 204.139 -2.30386 -3.02699 0
M  V30 2218 H 205.451 -2.84343 -4.09818 0
M  V30 2219 H 204.605 -1.34513 -5.916 0
M  V30 2220 H 203.344 -0.702618 -4.82612 0
M  V30 2221 H 202.349 -2.99725 -4.60918 0
M  V30 2222 H 203.574 -3.63928 -5.73353 0
M  V30 2223 H 201.52 -1.49279 -6.38789 0
M  V30 2224 H 201.437 -3.15546 -6.86998 0
M  V30 2225 H 202.705 -2.14348 -7.4945 0
M  V30 2226 N 206.934 1.1197 -1.10907 0
M  V30 2227 C 207.897 2.16031 -0.765707 0
M  V30 2228 C 208.897 1.59393 0.212235 0
M  V30 2229 O 210.087 1.74196 -0.0115441 0
M  V30 2230 C 207.219 3.40632 -0.135053 0
M  V30 2231 H 208.412 2.47919 -1.68748 0
M  V30 2232 H 205.965 1.27061 -0.910226 0
M  V30 2233 H 206.7 3.14348 0.797218 0
M  V30 2234 H 206.485 3.8302 -0.838937 0
M  V30 2235 H 207.975 4.17505 0.0892469 0
M  V30 2236 N 208.412 0.89855 1.29475 0
M  V30 2237 C 209.345 0.319981 2.25945 0
M  V30 2238 C 210.323 -0.567189 1.52387 0
M  V30 2239 O 211.507 -0.514254 1.8135 0
M  V30 2240 C 208.634 -0.544013 3.34303 0
M  V30 2241 C 207.68 0.275682 4.25608 0
M  V30 2242 S 208.513 1.67272 5.08704 0
M  V30 2243 C 209.669 0.815621 6.20563 0
M  V30 2244 H 209.902 1.13767 2.74671 0
M  V30 2245 H 207.435 0.69882 1.3768 0
M  V30 2246 H 209.393 -1.03673 3.97193 0
M  V30 2247 H 208.054 -1.33593 2.84274 0
M  V30 2248 H 207.247 -0.384263 5.02533 0
M  V30 2249 H 206.849 0.701496 3.67362 0
M  V30 2250 H 209.141 0.0385042 6.77489 0
M  V30 2251 H 210.084 1.55691 6.90772 0
M  V30 2252 H 210.492 0.370516 5.63283 0
M  V30 2253 N 209.89 -1.43072 0.660911 0
M  V30 2254 C 211.138 -2.01323 0.177094 0
M  V30 2255 C 211.459 -1.5245 -1.2159 0
M  V30 2256 O 210.729 -0.740322 -1.81373 0
M  V30 2257 H 209.309 -0.744382 0.0624804 0
M  V30 2258 H 211.971 -1.75179 0.854305 0
M  V30 2259 H 211.067 -3.11649 0.167641 0
M  V30 2260 N 211.368 -0.403325 -1.52352 0
M  V30 2261 C 212.616 0.174003 -2.0135 0
M  V30 2262 C 212.937 1.46139 -1.29106 0
M  V30 2263 O 212.207 1.91448 -0.415253 0
M  V30 2264 H 210.787 0.0672911 -0.743963 0
M  V30 2265 H 213.449 -0.538235 -1.87321 0
M  V30 2266 H 212.545 0.374254 -3.09848 0
M  V30 2267 N 212.846 1.57033 -0.133567 0
M  V30 2268 C 214.071 2.00475 0.531477 0
M  V30 2269 C 214.496 1.01291 1.58499 0
M  V30 2270 O 213.854 -0.0133279 1.81295 0
M  V30 2271 C 213.902 3.42729 1.12113 0
M  V30 2272 O 213.006 3.46498 2.23636 0
M  V30 2273 H 212.347 0.650876 0.131362 0
M  V30 2274 H 214.877 2.03344 -0.22634 0
M  V30 2275 H 214.887 3.81246 1.4531 0
M  V30 2276 H 213.562 4.14428 0.349557 0
M  V30 2277 H 212.139 3.19811 1.91769 0
M  V30 2278 N 214.325 -0.140222 1.56975 0
M  V30 2279 C 215.257 -1.19818 1.95388 0
M  V30 2280 C 216.27 -1.38816 0.850525 0
M  V30 2281 O 217.459 -1.38267 1.12891 0
M  V30 2282 C 214.559 -2.56189 2.21857 0
M  V30 2283 C 213.732 -2.58077 3.5315 0
M  V30 2284 C 212.791 -3.76037 3.6808 0
M  V30 2285 O 211.817 -3.60598 4.40406 0
M  V30 2286 N 213.019 -4.93763 3.05251 0
M  V30 2287 H 215.784 -0.871609 2.86746 0
M  V30 2288 H 213.345 -0.32972 1.58507 0
M  V30 2289 H 215.337 -3.33623 2.2908 0
M  V30 2290 H 213.907 -2.81111 1.36731 0
M  V30 2291 H 213.127 -1.6651 3.57307 0
M  V30 2292 H 214.415 -2.56377 4.39486 0
M  V30 2293 H 213.813 -5.09209 2.46419 0
M  V30 2294 H 212.37 -5.68949 3.18026 0
M  V30 2295 N 215.803 -1.52179 -0.40978 0
M  V30 2296 C 217.214 -1.58377 -0.988615 0
M  V30 2297 C 217.565 -0.423879 -1.91566 0
M  V30 2298 O 216.69 0.455844 -2.11544 0
M  V30 2299 C 217.285 -2.87044 -1.79976 0
M  V30 2300 C 215.844 -2.95722 -2.32863 0
M  V30 2301 C 214.991 -2.53309 -1.12828 0
M  V30 2302 H 217.942 -1.57558 -0.190039 0
M  V30 2303 H 217.963 -2.7236 -2.65707 0
M  V30 2304 H 217.475 -3.71444 -1.12478 0
M  V30 2305 H 215.576 -2.15814 -3.03735 0
M  V30 2306 H 215.689 -3.99951 -2.63773 0
M  V30 2307 H 214.053 -2.07142 -1.48204 0
M  V30 2308 H 214.836 -3.40082 -0.46897 0
M  V30 2309 N 217.281 0.66697 -1.42791 0
M  V30 2310 C 218.529 1.42417 -1.43394 0
M  V30 2311 C 218.85 1.94925 -0.0542373 0
M  V30 2312 O 218.12 1.73564 0.908415 0
M  V30 2313 H 216.7 0.528515 -0.527902 0
M  V30 2314 H 219.362 0.787562 -1.78279 0
M  V30 2315 H 218.458 2.27333 -2.13837 0
M  V30 2316 N 218.759 1.29093 0.90403 0
M  V30 2317 C 219.669 1.15727 2.0407 0
M  V30 2318 C 220.685 0.0815308 1.73809 0
M  V30 2319 O 221.861 0.292749 1.99261 0
M  V30 2320 C 218.926 0.830424 3.36608 0
M  V30 2321 C 217.987 1.98955 3.80415 0
M  V30 2322 C 217.22 1.6782 5.06628 0
M  V30 2323 O 217.443 0.597105 5.67266 0
M  V30 2324 O 216.377 2.52486 5.46383 0
M  V30 2325 H 220.203 2.11171 2.18267 0
M  V30 2326 H 217.788 1.08504 1.027 0
M  V30 2327 H 219.67 0.662521 4.16159 0
M  V30 2328 H 218.345 -0.0942678 3.23563 0
M  V30 2329 H 217.252 2.21267 3.01648 0
M  V30 2330 H 218.585 2.89529 3.98037 0
M  V30 2331 N 220.237 -1.11381 1.11499 0
M  V30 2332 C 221.167 -2.19509 0.796125 0
M  V30 2333 C 222.148 -1.68458 -0.235796 0
M  V30 2334 O 223.333 -1.93947 -0.0991344 0
M  V30 2335 C 220.463 -3.46475 0.239205 0
M  V30 2336 C 219.417 -4.10744 1.20307 0
M  V30 2337 C 218.743 -5.32293 0.50683 0
M  V30 2338 C 220.043 -4.55597 2.55399 0
M  V30 2339 H 221.737 -2.46439 1.70024 0
M  V30 2340 H 219.283 -1.18446 0.818935 0
M  V30 2341 H 221.236 -4.214 0.00392006 0
M  V30 2342 H 219.96 -3.19006 -0.700206 0
M  V30 2343 H 218.619 -3.37813 1.42399 0
M  V30 2344 H 218.267 -5.01095 -0.437408 0
M  V30 2345 H 217.967 -5.76243 1.1497 0
M  V30 2346 H 219.491 -6.09956 0.280351 0
M  V30 2347 H 220.905 -5.21841 2.37391 0
M  V30 2348 H 219.302 -5.10363 3.15673 0
M  V30 2349 H 220.372 -3.69013 3.14575 0
M  V30 2350 N 221.715 -0.905404 -1.28997 0
M  V30 2351 C 222.647 -0.344748 -2.26592 0
M  V30 2352 C 223.66 0.512135 -1.54535 0
M  V30 2353 O 224.849 0.328368 -1.75454 0
M  V30 2354 C 221.949 0.526587 -3.34784 0
M  V30 2355 C 221.122 -0.305871 -4.36329 0
M  V30 2356 C 220.181 0.499209 -5.23827 0
M  V30 2357 O 219.207 -0.0853004 -5.69136 0
M  V30 2358 N 220.409 1.80408 -5.51755 0
M  V30 2359 H 223.174 -1.18359 -2.75338 0
M  V30 2360 H 220.735 -0.770481 -1.42391 0
M  V30 2361 H 222.727 1.07171 -3.90252 0
M  V30 2362 H 221.297 1.26613 -2.85811 0
M  V30 2363 H 220.517 -1.0324 -3.80441 0
M  V30 2364 H 221.805 -0.875773 -5.01206 0
M  V30 2365 H 221.203 2.3016 -5.16762 0
M  V30 2366 H 219.76 2.29621 -6.10014 0
M  V30 2367 N 223.193 1.4272 -0.668489 0
M  V30 2368 C 224.442 2.00846 -0.185389 0
M  V30 2369 C 224.755 1.53442 1.21305 0
M  V30 2370 O 225.961 2.03944 1.79218 0
M  V30 2371 C 224.417 3.58805 -0.280591 0
M  V30 2372 C 224.025 4.15198 -1.68268 0
M  V30 2373 C 225.769 4.24255 0.14412 0
M  V30 2374 C 223.676 5.655 -1.73099 0
M  V30 2375 H 222.606 0.751145 -0.0655475 0
M  V30 2376 H 225.257 1.63516 -0.832752 0
M  V30 2377 H 223.639 3.93608 0.434553 0
M  V30 2378 H 224.813 3.91866 -2.42441 0
M  V30 2379 H 223.128 3.62176 -2.05469 0
M  V30 2380 H 225.725 5.34547 0.128086 0
M  V30 2381 H 226.068 3.99277 1.17827 0
M  V30 2382 H 226.601 3.94389 -0.519798 0
M  V30 2383 H 223.34 5.95268 -2.74475 0
M  V30 2384 H 222.86 5.90842 -1.03274 0
M  V30 2385 H 224.539 6.29808 -1.48158 0
M  V30 2386 N 224.671 0.411399 1.52136 0
M  V30 2387 C 225.896 -0.165538 2.06738 0
M  V30 2388 C 226.321 -1.379 1.27926 0
M  V30 2389 O 225.679 -1.78628 0.310114 0
M  V30 2390 C 225.727 -0.492124 3.57226 0
M  V30 2391 O 224.831 -1.58276 3.80818 0
M  V30 2392 H 224.172 -0.0132132 0.663869 0
M  V30 2393 H 226.702 0.585253 1.96051 0
M  V30 2394 H 226.712 -0.750104 4.01045 0
M  V30 2395 H 225.387 0.394922 4.14021 0
M  V30 2396 H 223.964 -1.31677 3.48877 0
M  V30 2397 N 226.149 -1.5696 0.141893 0
M  V30 2398 C 227.395 -1.97034 -0.504884 0
M  V30 2399 C 227.75 -1.02518 -1.62812 0
M  V30 2400 O 227.043 -0.0592943 -1.91508 0
M  V30 2401 C 227.237 -3.41242 -1.06249 0
M  V30 2402 C 227.066 -4.497 0.00519653 0
M  V30 2403 C 225.836 -5.03338 0.444873 0
M  V30 2404 C 228.034 -5.08122 0.794767 0
M  V30 2405 N 226.016 -5.95395 1.49593 0
M  V30 2406 C 227.387 -5.96339 1.69645 0
M  V30 2407 C 229.442 -4.9071 0.843122 0
M  V30 2408 C 228.145 -6.69009 2.64233 0
M  V30 2409 C 230.171 -5.64077 1.77681 0
M  V30 2410 C 229.533 -6.51999 2.66603 0
M  V30 2411 H 225.632 -0.766745 -0.153707 0
M  V30 2412 H 228.216 -1.93273 0.235313 0
M  V30 2413 H 226.387 -3.45606 -1.77231 0
M  V30 2414 H 228.119 -3.68389 -1.67546 0
M  V30 2415 H 224.874 -4.73576 0.0480959 0
M  V30 2416 H 225.298 -6.46128 2.02107 0
M  V30 2417 H 229.94 -4.22459 0.169732 0
M  V30 2418 H 227.658 -7.36492 3.32575 0
M  V30 2419 H 231.244 -5.52602 1.81996 0
M  V30 2420 H 230.124 -7.07775 3.37675 0
M  V30 2421 N 227.627 0.131896 -1.57047 0
M  V30 2422 C 228.537 1.1815 -2.02676 0
M  V30 2423 C 229.553 1.46113 -0.944824 0
M  V30 2424 O 230.729 1.57485 -1.25541 0
M  V30 2425 C 227.794 2.49139 -2.41103 0
M  V30 2426 C 226.855 2.28688 -3.63318 0
M  V30 2427 C 226.088 3.53431 -3.99903 0
M  V30 2428 O 226.311 4.60223 -3.36973 0
M  V30 2429 O 225.245 3.45198 -4.93074 0
M  V30 2430 H 229.071 0.824069 -2.92306 0
M  V30 2431 H 226.656 0.341745 -1.45439 0
M  V30 2432 H 228.538 3.26338 -2.66611 0
M  V30 2433 H 227.213 2.84382 -1.54624 0
M  V30 2434 H 226.12 1.4939 -3.42977 0
M  V30 2435 H 227.453 1.98355 -4.50462 0
M  V30 2436 N 229.106 1.52395 0.401703 0
M  V30 2437 C 230.016 1.7917 1.51444 0
M  V30 2438 C 231.032 0.677691 1.6026 0
M  V30 2439 O 232.208 0.963909 1.76835 0
M  V30 2440 C 229.273 1.94347 2.87107 0
M  V30 2441 C 228.334 3.18257 2.88116 0
M  V30 2442 C 227.567 3.32701 4.17308 0
M  V30 2443 O 227.79 2.52238 5.11598 0
M  V30 2444 O 226.724 4.25891 4.25324 0
M  V30 2445 H 230.55 2.73633 1.31752 0
M  V30 2446 H 228.135 1.3733 0.588296 0
M  V30 2447 H 230.017 2.06109 3.67555 0
M  V30 2448 H 228.692 1.03073 3.06851 0
M  V30 2449 H 227.599 3.11947 2.06494 0
M  V30 2450 H 228.932 4.09336 2.73322 0
M  V30 2451 N 230.584 -0.659388 1.43143 0
M  V30 2452 C 231.995 -1.24041 1.39537 0
M  V30 2453 C 232.346 -1.95963 0.0963364 0
M  V30 2454 O 231.471 -2.00892 -0.804438 0
M  V30 2455 C 232.066 -2.25601 2.52764 0
M  V30 2456 C 230.625 -2.79195 2.52443 0
M  V30 2457 C 229.772 -1.53743 2.30778 0
M  V30 2458 H 232.723 -0.451792 1.52133 0
M  V30 2459 H 232.744 -3.07651 2.23899 0
M  V30 2460 H 232.256 -1.73226 3.47296 0
M  V30 2461 H 230.357 -3.35649 1.61773 0
M  V30 2462 H 230.47 -3.2716 3.50004 0
M  V30 2463 H 228.834 -1.80869 1.79328 0
M  V30 2464 H 229.617 -1.03312 3.27386 0
M  V30 2465 N 232.062 -1.29571 -0.897171 0
M  V30 2466 C 233.025 -1.14913 -1.98312 0
M  V30 2467 C 234.025 -0.0838629 -1.60581 0
M  V30 2468 O 235.215 -0.331006 -1.71026 0
M  V30 2469 C 232.347 -0.757835 -3.3237 0
M  V30 2470 H 233.54 -2.11377 -2.12743 0
M  V30 2471 H 231.093 -1.12793 -1.08201 0
M  V30 2472 H 231.828 0.206837 -3.2364 0
M  V30 2473 H 231.613 -1.52755 -3.61121 0
M  V30 2474 H 233.103 -0.678408 -4.12053 0
M  V30 2475 N 233.54 1.10788 -1.12088 0
M  V30 2476 C 234.951 1.64181 -0.88891 0
M  V30 2477 C 235.302 1.87508 0.577498 0
M  V30 2478 O 234.427 1.61434 1.44112 0
M  V30 2479 C 235.022 2.98257 -1.60712 0
M  V30 2480 C 233.581 3.4853 -1.42139 0
M  V30 2481 C 232.728 2.23208 -1.6454 0
M  V30 2482 H 235.679 0.943368 -1.27618 0
M  V30 2483 H 235.7 3.65552 -1.05604 0
M  V30 2484 H 235.212 2.81246 -2.67436 0
M  V30 2485 H 233.313 3.70692 -0.376552 0
M  V30 2486 H 233.426 4.26882 -2.17505 0
M  V30 2487 H 231.79 2.31169 -1.06925 0
M  V30 2488 H 232.573 2.08733 -2.72554 0
M  V30 2489 N 235.018 0.912232 1.28515 0
M  V30 2490 C 235.928 0.404506 2.31086 0
M  V30 2491 C 236.944 -0.50707 1.66448 0
M  V30 2492 O 238.12 -0.393624 1.97516 0
M  V30 2493 C 235.185 -0.348572 3.44943 0
M  V30 2494 C 234.246 0.59604 4.25142 0
M  V30 2495 C 233.479 -0.121194 5.33562 0
M  V30 2496 O 233.702 -1.34317 5.5436 0
M  V30 2497 O 232.636 0.542716 5.99448 0
M  V30 2498 H 236.462 1.25579 2.76521 0
M  V30 2499 H 234.047 0.676998 1.33181 0
M  V30 2500 H 235.929 -0.77395 4.14232 0
M  V30 2501 H 234.604 -1.17571 3.01594 0
M  V30 2502 H 233.511 1.07079 3.58448 0
M  V30 2503 H 234.844 1.38995 4.72167 0
M  V30 2504 N 236.496 -1.42363 0.676048 0
M  V30 2505 C 237.745 -2.00745 0.196037 0
M  V30 2506 C 238.058 -1.54083 -1.20489 0
M  V30 2507 O 239.264 -2.04891 -1.78134 0
M  V30 2508 C 237.72 -3.58651 0.299616 0
M  V30 2509 C 237.328 -4.143 1.70468 0
M  V30 2510 C 239.072 -4.24326 -0.121619 0
M  V30 2511 C 236.979 -5.64574 1.76096 0
M  V30 2512 H 235.909 -0.750787 0.0695301 0
M  V30 2513 H 238.56 -1.63072 0.841412 0
M  V30 2514 H 236.942 -3.93833 -0.413673 0
M  V30 2515 H 238.116 -3.90575 2.44515 0
M  V30 2516 H 236.431 -3.61081 2.07387 0
M  V30 2517 H 239.028 -5.34607 -0.0997362 0
M  V30 2518 H 239.371 -3.99897 -1.15708 0
M  V30 2519 H 239.904 -3.94108 0.540706 0
M  V30 2520 H 236.643 -5.93804 2.77628 0
M  V30 2521 H 236.163 -5.90286 1.06406 0
M  V30 2522 H 237.842 -6.29013 1.51496 0
M  V30 2523 N 237.974 -0.419461 -1.51915 0
M  V30 2524 C 239.199 0.154572 -2.06823 0
M  V30 2525 C 239.624 1.3722 -1.28656 0
M  V30 2526 O 238.982 1.78461 -0.319583 0
M  V30 2527 C 239.03 0.473172 -3.57482 0
M  V30 2528 O 238.134 1.56255 -3.81652 0
M  V30 2529 H 237.475 0.0096924 -0.663929 0
M  V30 2530 H 240.005 -0.595642 -1.95738 0
M  V30 2531 H 240.015 0.728825 -4.01438 0
M  V30 2532 H 238.69 -0.416873 -4.13805 0
M  V30 2533 H 237.267 1.29825 -3.49571 0
M  V30 2534 N 239.452 1.56882 -0.150215 0
M  V30 2535 C 240.729 1.87844 0.545327 0
M  V30 2536 C 241.109 1.0567 1.82749 0
M  V30 2537 O 240.457 0.144442 2.28043 0
M  V30 2538 C 240.667 3.39526 0.80767 0
M  V30 2539 C 242.015 4.08814 1.14703 0
M  V30 2540 O 243.039 3.44723 0.896917 0
M  V30 2541 O 241.898 5.22004 1.61784 0
M  V30 2542 H 238.992 0.778677 0.278553 0
M  V30 2543 H 241.538 1.68666 -0.187068 0
M  V30 2544 H 240.31 3.91173 -0.0996096 0
M  V30 2545 H 239.933 3.64243 1.59413 0
M  V30 2546 N 240.93 -0.123565 1.57115 0
M  V30 2547 C 242.177 -0.832153 1.84612 0
M  V30 2548 C 242.505 -1.80093 0.734627 0
M  V30 2549 O 241.76 -1.93766 -0.27442 0
M  V30 2550 C 242.059 -1.62016 3.18568 0
M  V30 2551 C 241.725 -0.796084 4.43817 0
M  V30 2552 C 240.387 -0.568816 4.77826 0
M  V30 2553 C 242.739 -0.221364 5.2073 0
M  V30 2554 C 240.067 0.243499 5.86194 0
M  V30 2555 C 242.419 0.578117 6.29953 0
M  V30 2556 C 241.083 0.815744 6.62497 0
M  V30 2557 H 240.353 -0.304507 0.675542 0
M  V30 2558 H 243 -0.0947248 1.91266 0
M  V30 2559 H 241.305 -2.42837 3.0747 0
M  V30 2560 H 243.002 -2.17231 3.37064 0
M  V30 2561 H 239.592 -0.983307 4.17168 0
M  V30 2562 H 243.776 -0.384173 4.94811 0
M  V30 2563 H 239.032 0.436871 6.09837 0
M  V30 2564 H 243.206 1.03046 6.88734 0
M  V30 2565 H 240.833 1.44701 7.46301 0
M  V30 2566 N 242.408 -1.52605 -0.393616 0
M  V30 2567 C 243.338 -1.80022 -1.48709 0
M  V30 2568 C 244.319 -0.651995 -1.57108 0
M  V30 2569 O 245.504 -0.89913 -1.72132 0
M  V30 2570 C 242.634 -1.96492 -2.86371 0
M  V30 2571 C 241.588 -3.12161 -2.92813 0
M  V30 2572 C 240.914 -3.13877 -4.3288 0
M  V30 2573 C 242.214 -4.51322 -2.6288 0
M  V30 2574 H 243.908 -2.71589 -1.26015 0
M  V30 2575 H 241.454 -1.30684 -0.604778 0
M  V30 2576 H 243.407 -2.14255 -3.62867 0
M  V30 2577 H 242.131 -1.01611 -3.10391 0
M  V30 2578 H 240.79 -2.94173 -2.18764 0
M  V30 2579 H 240.438 -2.16687 -4.53933 0
M  V30 2580 H 240.138 -3.91576 -4.38112 0
M  V30 2581 H 241.662 -3.33789 -5.1129 0
M  V30 2582 H 243.076 -4.69435 -3.29096 0
M  V30 2583 H 241.473 -5.31053 -2.79468 0
M  V30 2584 H 242.543 -4.58353 -1.58242 0
M  V30 2585 N 243.887 0.651787 -1.4349 0
M  V30 2586 C 245.303 0.96762 -1.26922 0
M  V30 2587 C 245.503 2.00602 -0.189982 0
M  V30 2588 O 244.559 2.48793 0.431107 0
M  V30 2589 C 245.872 1.45052 -2.63401 0
M  V30 2590 C 247.42 1.5671 -2.70945 0
M  V30 2591 C 247.895 2.0839 -4.07845 0
M  V30 2592 N 249.386 2.1569 -4.09917 0
M  V30 2593 C 250.121 2.56804 -5.12679 0
M  V30 2594 N 249.617 2.97203 -6.25813 0
M  V30 2595 N 251.41 2.56756 -5.00033 0
M  V30 2596 H 243.561 -0.0353158 -2.12371 0
M  V30 2597 H 245.824 0.0467858 -0.946845 0
M  V30 2598 H 245.53 0.761926 -3.43348 0
M  V30 2599 H 245.404 2.42529 -2.88894 0
M  V30 2600 H 247.791 2.2467 -1.9133 0
M  V30 2601 H 247.872 0.57662 -2.49216 0
M  V30 2602 H 247.516 1.41031 -4.87927 0
M  V30 2603 H 247.446 3.08271 -4.26938 0
M  V30 2604 H 249.937 1.87237 -3.28254 0
M  V30 2605 H 250.25 3.27328 -7.00055 0
M  V30 2606 H 248.595 2.95004 -6.29283 0
M  V30 2607 H 251.786 2.24572 -4.10713 0
M  V30 2608 H 251.959 2.88475 -5.80247 0
M  V30 2609 N 245.365 1.30045 0.890287 0
M  V30 2610 C 246.595 1.21296 1.67245 0
M  V30 2611 C 247.003 -0.227471 1.87828 0
M  V30 2612 O 246.346 -1.16296 1.422 0
M  V30 2613 C 246.408 1.86519 3.07329 0
M  V30 2614 C 246.072 3.35837 3.09939 0
M  V30 2615 C 247.069 4.31915 2.89389 0
M  V30 2616 C 244.754 3.77196 3.31706 0
M  V30 2617 C 246.748 5.67325 2.90552 0
M  V30 2618 C 244.435 5.12725 3.32499 0
M  V30 2619 C 245.433 6.076 3.11947 0
M  V30 2620 O 245.121 7.40655 3.12547 0
M  V30 2621 H 244.853 0.4211 0.528821 0
M  V30 2622 H 247.407 1.72111 1.12103 0
M  V30 2623 H 245.637 1.30228 3.64112 0
M  V30 2624 H 247.326 1.71963 3.67673 0
M  V30 2625 H 248.092 4.01294 2.72375 0
M  V30 2626 H 243.971 3.03796 3.4674 0
M  V30 2627 H 247.515 6.41354 2.74429 0
M  V30 2628 H 243.412 5.42988 3.49047 0
M  V30 2629 H 244.18 7.49577 3.28749 0
M  V30 2630 N 246.843 -1.10192 1.12674 0
M  V30 2631 C 247.753 -2.20172 0.810026 0
M  V30 2632 C 248.769 -1.72821 -0.202188 0
M  V30 2633 O 249.945 -2.01369 -0.0351691 0
M  V30 2634 C 247.01 -3.45631 0.272007 0
M  V30 2635 C 246.071 -4.07704 1.34447 0
M  V30 2636 C 245.304 -5.27175 0.832029 0
M  V30 2637 O 245.527 -5.69425 -0.333284 0
M  V30 2638 O 244.461 -5.80168 1.60277 0
M  V30 2639 H 248.287 -2.49701 1.72867 0
M  V30 2640 H 245.872 -1.18977 0.903597 0
M  V30 2641 H 247.754 -4.21394 -0.0230219 0
M  V30 2642 H 246.429 -3.17723 -0.619164 0
M  V30 2643 H 245.336 -3.33614 1.6927 0
M  V30 2644 H 246.669 -4.3982 2.2095 0
M  V30 2645 N 248.321 -0.919034 -1.28029 0
M  V30 2646 C 249.251 -0.428581 -2.29533 0
M  V30 2647 C 250.232 0.50659 -1.62381 0
M  V30 2648 O 251.417 0.413195 -1.89753 0
M  V30 2649 C 248.547 0.327388 -3.45753 0
M  V30 2650 C 247.501 -0.519137 -4.2484 0
M  V30 2651 C 246.827 0.365486 -5.33449 0
M  V30 2652 C 248.127 -1.77914 -4.91064 0
M  V30 2653 H 249.821 -1.27687 -2.70807 0
M  V30 2654 H 247.367 -0.615428 -1.30186 0
M  V30 2655 H 249.32 0.681378 -4.15855 0
M  V30 2656 H 248.044 1.20963 -3.03374 0
M  V30 2657 H 246.703 -0.855717 -3.56473 0
M  V30 2658 H 246.351 1.24642 -4.87312 0
M  V30 2659 H 246.051 -0.197356 -5.87268 0
M  V30 2660 H 247.575 0.715241 -6.06396 0
M  V30 2661 H 248.989 -1.49374 -5.53498 0
M  V30 2662 H 247.386 -2.2848 -5.54903 0
M  V30 2663 H 248.456 -2.50382 -4.15255 0
M  V30 2664 N 249.799 1.42003 -0.683588 0
M  V30 2665 C 251.215 1.55625 -0.353976 0
M  V30 2666 C 251.415 1.66151 1.14 0
M  V30 2667 O 250.471 1.63329 1.92561 0
M  V30 2668 C 251.784 2.80171 -1.092 0
M  V30 2669 C 253.332 2.93954 -1.07518 0
M  V30 2670 C 253.807 4.21372 -1.79471 0
M  V30 2671 N 255.298 4.28303 -1.76381 0
M  V30 2672 C 256.033 5.25729 -2.28904 0
M  V30 2673 N 255.529 6.29254 -2.89846 0
M  V30 2674 N 257.322 5.17586 -2.19228 0
M  V30 2675 H 249.473 1.33415 -1.6527 0
M  V30 2676 H 251.736 0.64282 -0.696769 0
M  V30 2677 H 251.442 2.78561 -2.14701 0
M  V30 2678 H 251.316 3.7133 -0.662862 0
M  V30 2679 H 253.703 2.95086 -0.028475 0
M  V30 2680 H 253.784 2.04002 -1.54328 0
M  V30 2681 H 253.428 4.21001 -2.84114 0
M  V30 2682 H 253.358 5.10275 -1.30104 0
M  V30 2683 H 255.849 3.54119 -1.31939 0
M  V30 2684 H 256.162 6.99964 -3.27522 0
M  V30 2685 H 254.507 6.29791 -2.93919 0
M  V30 2686 H 257.698 4.35631 -1.71299 0
M  V30 2687 H 257.871 5.93348 -2.60466 0
M  V30 2688 N 251.277 0.427512 1.51691 0
M  V30 2689 C 252.507 -0.140986 2.06118 0
M  V30 2690 C 252.915 -1.37854 1.29588 0
M  V30 2691 O 252.258 -1.80411 0.346036 0
M  V30 2692 C 252.32 -0.538276 3.55447 0
M  V30 2693 C 251.984 0.591095 4.53161 0
M  V30 2694 C 252.981 1.46027 4.98971 0
M  V30 2695 C 250.666 0.769028 4.96378 0
M  V30 2696 C 252.66 2.49216 5.8666 0
M  V30 2697 C 250.347 1.80421 5.83859 0
M  V30 2698 C 251.345 2.66417 6.28897 0
M  V30 2699 O 251.033 3.68159 7.14643 0
M  V30 2700 H 250.765 -0.0157455 0.675817 0
M  V30 2701 H 253.319 0.602495 1.96365 0
M  V30 2702 H 251.549 -1.33432 3.6295 0
M  V30 2703 H 253.238 -1.0368 3.92435 0
M  V30 2704 H 254.004 1.33429 4.66285 0
M  V30 2705 H 249.883 0.109273 4.6087 0
M  V30 2706 H 253.427 3.16372 6.21735 0
M  V30 2707 H 249.324 1.93042 6.15959 0
M  V30 2708 H 250.092 3.64622 7.32798 0
M  V30 2709 N 252.755 -1.56801 0.158532 0
M  V30 2710 C 254.003 -1.96102 -0.488712 0
M  V30 2711 C 254.324 -1.04498 -1.64636 0
M  V30 2712 O 253.594 -0.108783 -1.95598 0
M  V30 2713 H 252.174 -0.724102 -0.183535 0
M  V30 2714 H 254.836 -1.93457 0.236728 0
M  V30 2715 H 253.932 -3.00097 -0.857219 0
M  V30 2716 N 254.233 0.115231 -1.57178 0
M  V30 2717 C 255.644 0.67197 -1.74188 0
M  V30 2718 C 255.995 1.80125 -0.777777 0
M  V30 2719 O 255.12 2.16346 0.0484376 0
M  V30 2720 C 255.715 1.22573 -3.1585 0
M  V30 2721 C 254.274 1.72872 -3.34353 0
M  V30 2722 C 253.421 0.629972 -2.70049 0
M  V30 2723 H 256.372 -0.110712 -1.58313 0
M  V30 2724 H 256.393 2.09535 -3.17609 0
M  V30 2725 H 255.905 0.403598 -3.85996 0
M  V30 2726 H 254.006 2.5755 -2.69256 0
M  V30 2727 H 254.119 1.83557 -4.42542 0
M  V30 2728 H 252.483 1.0645 -2.31388 0
M  V30 2729 H 253.266 -0.181241 -3.42821 0
M  V30 2730 N 255.711 1.52812 0.385517 0
M  V30 2731 C 257.127 1.4214 0.725829 0
M  V30 2732 C 257.327 0.544589 1.94001 0
M  V30 2733 O 256.383 0.0193693 2.52493 0
M  V30 2734 C 257.696 2.85042 0.957668 0
M  V30 2735 C 259.244 2.94543 1.05892 0
M  V30 2736 C 259.719 4.38464 1.32337 0
M  V30 2737 N 261.21 4.41804 1.39151 0
M  V30 2738 C 261.945 5.5025 1.61285 0
M  V30 2739 N 261.441 6.68775 1.80866 0
M  V30 2740 N 263.234 5.37798 1.63492 0
M  V30 2741 H 255.385 2.08338 -0.413383 0
M  V30 2742 H 257.648 0.940016 -0.122775 0
M  V30 2743 H 257.354 3.51431 0.137568 0
M  V30 2744 H 257.228 3.27505 1.87137 0
M  V30 2745 H 259.615 2.28321 1.86959 0
M  V30 2746 H 259.696 2.55504 0.123057 0
M  V30 2747 H 259.34 5.05254 0.517793 0
M  V30 2748 H 259.27 4.75059 2.27214 0
M  V30 2749 H 261.761 3.56377 1.25713 0
M  V30 2750 H 262.074 7.47197 1.97271 0
M  V30 2751 H 260.419 6.71797 1.78083 0
M  V30 2752 H 263.61 4.44171 1.47749 0
M  V30 2753 H 263.783 6.22382 1.80402 0
M  V30 2754 N 257.189 -0.644168 1.43834 0
M  V30 2755 C 258.466 -1.40188 1.36406 0
M  V30 2756 C 258.846 -2.11094 0.0163124 0
M  V30 2757 O 258.194 -2.05426 -1.00062 0
M  V30 2758 C 258.404 -2.3791 2.55343 0
M  V30 2759 C 259.752 -3.01637 2.98832 0
M  V30 2760 O 260.776 -2.48237 2.55455 0
M  V30 2761 O 259.635 -3.98477 3.74003 0
M  V30 2762 H 256.729 -0.626773 0.539523 0
M  V30 2763 H 259.275 -0.670317 1.559 0
M  V30 2764 H 258.047 -1.84525 3.4506 0
M  V30 2765 H 257.67 -3.18503 2.37995 0
M  V30 2766 N 258.668 -1.30515 -0.883378 0
M  V30 2767 C 260.079 -1.17509 -1.45081 0
M  V30 2768 C 260.43 0.223605 -1.94922 0
M  V30 2769 O 259.555 1.12041 -1.85137 0
M  V30 2770 C 260.15 -2.12715 -2.63701 0
M  V30 2771 C 258.709 -2.03682 -3.16529 0
M  V30 2772 C 257.856 -2.02706 -1.89224 0
M  V30 2773 H 260.807 -1.42762 -0.693165 0
M  V30 2774 H 260.828 -1.70891 -3.39965 0
M  V30 2775 H 260.34 -3.14505 -2.27395 0
M  V30 2776 H 258.441 -1.05039 -3.57488 0
M  V30 2777 H 258.554 -2.92146 -3.7972 0
M  V30 2778 H 256.918 -1.4753 -2.07622 0
M  V30 2779 H 257.701 -3.06229 -1.55174 0
M  V30 2780 N 260.146 1.09593 -1.13257 0
M  V30 2781 C 261.093 2.1618 -0.808381 0
M  V30 2782 C 262.063 1.64517 0.228754 0
M  V30 2783 O 263.248 1.9053 0.101381 0
M  V30 2784 C 260.388 3.43973 -0.278675 0
M  V30 2785 C 259.501 4.09545 -1.37466 0
M  V30 2786 C 258.636 5.25088 -0.803479 0
M  V30 2787 C 257.675 5.82579 -1.87799 0
M  V30 2788 N 256.812 6.89486 -1.32488 0
M  V30 2789 H 261.652 2.43254 -1.72138 0
M  V30 2790 H 259.189 1.19392 -0.859294 0
M  V30 2791 H 261.147 4.17174 0.0465583 0
M  V30 2792 H 259.777 3.17223 0.597459 0
M  V30 2793 H 258.829 3.34226 -1.81652 0
M  V30 2794 H 260.141 4.48307 -2.18684 0
M  V30 2795 H 259.295 6.05178 -0.429427 0
M  V30 2796 H 258.034 4.87684 0.0397956 0
M  V30 2797 H 257.039 5.01152 -2.26113 0
M  V30 2798 H 258.264 6.22045 -2.72463 0
M  V30 2799 H 256.21 6.54064 -0.503575 0
M  V30 2800 H 256.127 7.27007 -2.07355 0
M  V30 2801 H 257.395 7.73336 -0.978336 0
M  V30 2802 N 261.624 0.925811 1.2754 0
M  V30 2803 C 262.572 0.413897 2.28888 0
M  V30 2804 C 263.566 -0.500779 1.61829 0
M  V30 2805 O 264.772 -0.38069 1.75928 0
M  V30 2806 H 261.147 0.115274 0.743112 0
M  V30 2807 H 263.118 1.28151 2.69481 0
M  V30 2808 C 261.867 -0.319792 3.46226 0
M  V30 2809 H 261.19 0.374846 3.98039 0
M  V30 2810 H 262.63 -0.642435 4.19105 0
M  V30 2811 C 261.089 -1.53209 3.00048 0
M  V30 2812 O 261.619 -2.6309 3.03557 0
M  V30 2813 N 259.825 -1.38326 2.55566 0
M  V30 2814 H 259.372 -0.489292 2.5291 0
M  V30 2815 H 259.33 -2.19564 2.25031 0
M  V30 2816 N 263.102 -1.41638 0.69111 0
M  V30 2817 C 264.327 -2.06148 0.227583 0
M  V30 2818 C 264.752 -1.51652 -1.11281 0
M  V30 2819 O 264.11 -0.64164 -1.69566 0
M  V30 2820 C 264.158 -3.60095 0.190858 0
M  V30 2821 O 263.262 -4.03845 -0.835664 0
M  V30 2822 H 262.603 -0.654434 0.112306 0
M  V30 2823 H 265.133 -1.81484 0.944714 0
M  V30 2824 H 265.143 -4.07995 0.020207 0
M  V30 2825 H 263.818 -3.99129 1.16915 0
M  V30 2826 H 262.395 -3.67458 -0.63473 0
M  V30 2827 N 264.58 -0.43555 -1.51462 0
M  V30 2828 C 265.808 0.130242 -2.0649 0
M  V30 2829 C 266.223 1.36614 -1.30315 0
M  V30 2830 O 265.58 1.78869 -0.362223 0
M  V30 2831 C 265.631 0.454253 -3.58635 0
M  V30 2832 O 265.352 -0.73259 -4.31931 0
M  V30 2833 C 266.853 1.07091 -4.3017 0
M  V30 2834 H 264.073 0.00871669 -0.670943 0
M  V30 2835 H 266.617 -0.614117 -1.95061 0
M  V30 2836 H 264.772 1.14851 -3.69984 0
M  V30 2837 H 265.186 -0.455787 -5.22516 0
M  V30 2838 H 266.66 1.24764 -5.37716 0
M  V30 2839 H 267.137 2.05144 -3.88346 0
M  V30 2840 H 267.743 0.416089 -4.2326 0
M  V30 2841 N 266.058 1.56714 -0.166846 0
M  V30 2842 C 267.306 1.96358 0.478305 0
M  V30 2843 C 267.627 1.0537 1.6408 0
M  V30 2844 O 266.897 0.119154 1.95537 0
M  V30 2845 H 265.477 0.725065 0.179692 0
M  V30 2846 H 268.139 1.93329 -0.246985 0
M  V30 2847 H 267.235 3.00547 0.841292 0
M  V30 2848 N 267.536 -0.106894 1.57237 0
M  V30 2849 C 268.947 -0.662723 1.74542 0
M  V30 2850 C 269.298 -1.7971 0.787319 0
M  V30 2851 O 268.423 -2.16368 -0.0369636 0
M  V30 2852 C 269.018 -1.20896 3.16496 0
M  V30 2853 C 267.577 -1.71096 3.35266 0
M  V30 2854 C 266.724 -0.615642 2.7038 0
M  V30 2855 H 269.675 0.119106 1.58252 0
M  V30 2856 H 269.696 -2.07847 3.18716 0
M  V30 2857 H 269.208 -0.383122 3.86204 0
M  V30 2858 H 267.309 -2.56119 2.70618 0
M  V30 2859 H 267.422 -1.81208 4.43509 0
M  V30 2860 H 265.786 -1.05222 2.31949 0
M  V30 2861 H 266.569 0.199419 3.4272 0
M  V30 2862 N 269.014 -1.53014 -0.377408 0
M  V30 2863 C 270.242 -1.72515 -1.14219 0
M  V30 2864 C 270.657 -0.448735 -1.8339 0
M  V30 2865 O 270.014 0.577592 -1.73119 0
M  V30 2866 C 270.065 -2.8826 -2.18148 0
M  V30 2867 O 269.786 -4.10962 -1.51795 0
M  V30 2868 C 271.287 -3.19536 -3.07264 0
M  V30 2869 H 268.507 -0.577301 -0.342001 0
M  V30 2870 H 271.051 -1.99712 -0.439935 0
M  V30 2871 H 269.206 -2.63492 -2.83991 0
M  V30 2872 H 269.62 -4.75693 -2.20945 0
M  V30 2873 H 271.094 -4.03959 -3.76193 0
M  V30 2874 H 271.571 -2.34403 -3.71419 0
M  V30 2875 H 272.177 -3.46186 -2.47053 0
M  V30 2876 N 270.492 0.636531 -1.44174 0
M  V30 2877 C 271.738 1.39826 -1.4689 0
M  V30 2878 C 272.071 1.93947 -0.0990585 0
M  V30 2879 O 271.346 1.73325 0.882544 0
M  V30 2880 C 271.629 2.56751 -2.5249 0
M  V30 2881 C 271.482 2.08014 -3.98811 0
M  V30 2882 C 272.801 3.58946 -2.54649 0
M  V30 2883 H 269.92 0.507075 -0.53483 0
M  V30 2884 H 272.562 0.720188 -1.75822 0
M  V30 2885 H 270.712 3.14597 -2.2795 0
M  V30 2886 H 272.384 1.5504 -4.34466 0
M  V30 2887 H 270.627 1.39242 -4.10846 0
M  V30 2888 H 271.298 2.92169 -4.68339 0
M  V30 2889 H 273.774 3.1089 -2.76563 0
M  V30 2890 H 272.65 4.38286 -3.3045 0
M  V30 2891 H 272.911 4.12655 -1.58646 0
M  V30 2892 N 271.97 1.30982 0.876444 0
M  V30 2893 C 273.219 1.19658 1.62373 0
M  V30 2894 C 273.532 -0.245636 1.94052 0
M  V30 2895 O 274.738 -0.48049 2.67214 0
M  V30 2896 C 273.194 2.09433 2.92687 0
M  V30 2897 C 272.802 3.58613 2.68516 0
M  V30 2898 C 274.546 2.06893 3.70669 0
M  V30 2899 C 272.453 4.40416 3.94699 0
M  V30 2900 H 271.383 0.444268 0.609214 0
M  V30 2901 H 274.034 1.55791 0.969605 0
M  V30 2902 H 272.416 1.66191 3.59439 0
M  V30 2903 H 273.59 4.10058 2.10212 0
M  V30 2904 H 271.905 3.63063 2.03898 0
M  V30 2905 H 274.502 2.65258 4.64265 0
M  V30 2906 H 274.845 1.05448 4.02724 0
M  V30 2907 H 275.378 2.48301 3.10792 0
M  V30 2908 H 272.117 5.42591 3.67798 0
M  V30 2909 H 271.637 3.93731 4.52477 0
M  V30 2910 H 273.316 4.52294 4.62644 0
M  V30 2911 N 273.449 -1.08991 1.13837 0
M  V30 2912 C 274.381 -2.15606 0.777612 0
M  V30 2913 C 275.394 -1.61533 -0.202739 0
M  V30 2914 O 276.583 -1.78491 0.0181055 0
M  V30 2915 C 273.683 -3.3864 0.132623 0
M  V30 2916 C 272.856 -4.22115 1.1462 0
M  V30 2917 C 271.915 -5.23564 0.526074 0
M  V30 2918 O 270.941 -5.56678 1.18735 0
M  V30 2919 N 272.143 -5.76266 -0.699866 0
M  V30 2920 H 274.908 -2.47159 1.69506 0
M  V30 2921 H 272.469 -1.24747 1.03198 0
M  V30 2922 H 274.461 -4.03626 -0.29459 0
M  V30 2923 H 273.031 -3.04938 -0.687849 0
M  V30 2924 H 272.251 -3.53199 1.75055 0
M  V30 2925 H 273.539 -4.74709 1.83109 0
M  V30 2926 H 272.937 -5.51585 -1.25581 0
M  V30 2927 H 271.494 -6.42963 -1.06968 0
M  V30 2928 N 274.927 -0.932562 -1.27047 0
M  V30 2929 C 275.857 -0.452902 -2.29066 0
M  V30 2930 C 276.838 0.489338 -1.62909 0
M  V30 2931 O 278.023 0.393046 -1.90181 0
M  V30 2932 C 275.153 0.290698 -3.46081 0
M  V30 2933 C 274.107 -0.564168 -4.24265 0
M  V30 2934 C 273.433 0.308886 -5.33807 0
M  V30 2935 C 274.733 -1.83112 -4.89149 0
M  V30 2936 H 276.427 -1.30552 -2.69437 0
M  V30 2937 H 273.973 -0.629201 -1.29526 0
M  V30 2938 H 275.926 0.637233 -4.16554 0
M  V30 2939 H 274.65 1.17738 -3.0464 0
M  V30 2940 H 273.309 -0.893477 -3.55545 0
M  V30 2941 H 272.957 1.19467 -4.88607 0
M  V30 2942 H 272.657 -0.259633 -5.87026 0
M  V30 2943 H 274.181 0.650884 -6.07121 0
M  V30 2944 H 275.595 -1.55236 -5.51883 0
M  V30 2945 H 273.992 -2.34353 -5.52448 0
M  V30 2946 H 275.062 -2.54772 -4.12576 0
M  V30 2947 N 276.405 1.4127 -0.698611 0
M  V30 2948 C 277.654 2.00408 -0.227949 0
M  V30 2949 C 277.967 1.55981 1.18023 0
M  V30 2950 O 279.173 2.07699 1.74852 0
M  V30 2951 C 277.629 3.58129 -0.356636 0
M  V30 2952 C 277.237 4.11536 -1.77037 0
M  V30 2953 C 278.981 4.24466 0.0540969 0
M  V30 2954 C 276.888 5.61701 -1.85055 0
M  V30 2955 H 275.818 0.749586 -0.0814657 0
M  V30 2956 H 278.469 1.61713 -0.867249 0
M  V30 2957 H 276.851 3.94442 0.350965 0
M  V30 2958 H 278.025 3.86636 -2.50698 0
M  V30 2959 H 276.34 3.57736 -2.13105 0
M  V30 2960 H 278.937 5.34698 0.0146723 0
M  V30 2961 H 279.28 4.01687 1.09332 0
M  V30 2962 H 279.813 3.93198 -0.603337 0
M  V30 2963 H 276.552 5.89312 -2.8704 0
M  V30 2964 H 276.072 5.88519 -1.15783 0
M  V30 2965 H 277.751 6.26524 -1.61484 0
M  V30 2966 N 277.883 0.443576 1.51229 0
M  V30 2967 C 278.846 -0.353132 2.26463 0
M  V30 2968 C 279.846 -0.944338 1.3015 0
M  V30 2969 O 281.036 -0.817813 1.5381 0
M  V30 2970 C 278.168 -1.50023 3.06114 0
M  V30 2971 H 279.361 0.3063 2.98332 0
M  V30 2972 H 276.914 0.196902 1.55055 0
M  V30 2973 H 277.649 -2.19553 2.38677 0
M  V30 2974 H 277.434 -1.08241 3.76864 0
M  V30 2975 H 278.924 -2.06296 3.63087 0
M  V30 2976 N 279.361 -1.56624 0.175154 0
M  V30 2977 C 280.589 -2.01374 -0.474971 0
M  V30 2978 C 281.004 -1.05537 -1.56548 0
M  V30 2979 O 280.361 -0.0568668 -1.82411 0
M  V30 2980 C 280.412 -3.45923 -1.04975 0
M  V30 2981 O 280.133 -4.381 -0.00276605 0
M  V30 2982 C 281.634 -4.06093 -1.77773 0
M  V30 2983 H 278.854 -0.659962 -0.121206 0
M  V30 2984 H 281.398 -2.02601 0.27801 0
M  V30 2985 H 279.553 -3.45458 -1.75321 0
M  V30 2986 H 279.967 -5.22753 -0.427681 0
M  V30 2987 H 281.441 -5.09147 -2.13245 0
M  V30 2988 H 281.918 -3.48405 -2.67414 0
M  V30 2989 H 282.524 -4.10272 -1.12059 0
M  V30 2990 N 280.839 0.0985539 -1.57292 0
M  V30 2991 C 281.749 1.13824 -2.05137 0
M  V30 2992 C 282.765 1.44076 -0.975604 0
M  V30 2993 O 283.941 1.54786 -1.28853 0
M  V30 2994 C 281.006 2.43969 -2.46333 0
M  V30 2995 C 280.067 2.2093 -3.68087 0
M  V30 2996 C 279.3 3.44869 -4.0731 0
M  V30 2997 O 279.523 4.52972 -3.46659 0
M  V30 2998 O 278.457 3.34661 -5.00285 0
M  V30 2999 H 282.283 0.761881 -2.93988 0
M  V30 3000 H 279.868 0.310818 -1.46131 0
M  V30 3001 H 281.75 3.20609 -2.73473 0
M  V30 3002 H 280.425 2.81038 -1.60621 0
M  V30 3003 H 279.332 1.42081 -3.46069 0
M  V30 3004 H 280.665 1.88755 -4.54568 0
M  V30 3005 N 282.317 1.53212 0.369288 0
M  V30 3006 C 283.545 1.73119 1.13303 0
M  V30 3007 C 283.96 0.458455 1.83149 0
M  V30 3008 O 283.317 -0.568403 1.73423 0
M  V30 3009 C 283.368 2.89413 2.16616 0
M  V30 3010 O 283.089 4.11761 1.49614 0
M  V30 3011 C 284.59 3.21161 3.05566 0
M  V30 3012 H 281.81 0.579107 0.338934 0
M  V30 3013 H 284.354 1.99942 0.429338 0
M  V30 3014 H 282.509 2.64994 2.82589 0
M  V30 3015 H 282.923 4.76858 2.18419 0
M  V30 3016 H 284.397 4.05949 3.74045 0
M  V30 3017 H 284.874 2.36369 3.70171 0
M  V30 3018 H 285.48 3.47492 2.45213 0
M  V30 3019 N 283.795 -0.628877 1.44509 0
M  V30 3020 C 285.035 -1.39993 1.48934 0
M  V30 3021 C 285.399 -1.91627 0.119604 0
M  V30 3022 O 286.6 -2.68772 0.0385283 0
M  V30 3023 C 284.871 -2.53241 2.52198 0
M  V30 3024 S 286.43 -3.41383 2.75687 0
M  V30 3025 H 283.248 -0.477558 0.526744 0
M  V30 3026 H 285.85 -0.727804 1.81448 0
M  V30 3027 H 284.554 -2.13622 3.50419 0
M  V30 3028 H 284.085 -3.25278 2.21264 0
M  V30 3029 H 286.1 -4.50752 2.07453 0
M  V30 3030 N 285.273 -1.31445 -0.869486 0
M  V30 3031 C 286.513 -1.22458 -1.63656 0
M  V30 3032 C 286.877 0.213846 -1.90805 0
M  V30 3033 O 288.078 0.427212 -2.65383 0
M  V30 3034 C 286.349 -2.04564 -2.93067 0
M  V30 3035 S 287.908 -2.12445 -3.83944 0
M  V30 3036 H 284.726 -0.436145 -0.561514 0
M  V30 3037 H 287.328 -1.66114 -1.03085 0
M  V30 3038 H 286.032 -3.0816 -2.71045 0
M  V30 3039 H 285.563 -1.6163 -3.58663 0
M  V30 3040 H 287.578 -1.26312 -4.79854 0
M  V30 3041 N 286.751 1.08385 -1.14413 0
M  V30 3042 C 288.162 1.62258 -0.923535 0
M  V30 3043 C 288.513 1.88691 0.537595 0
M  V30 3044 O 287.638 1.64454 1.40655 0
M  V30 3045 C 288.233 2.94781 -1.67002 0
M  V30 3046 C 286.792 3.45437 -1.495 0
M  V30 3047 C 285.939 2.19668 -1.69238 0
M  V30 3048 H 288.89 0.916086 -1.2959 0
M  V30 3049 H 288.911 3.63229 -1.13334 0
M  V30 3050 H 288.423 2.7551 -2.73342 0
M  V30 3051 H 286.524 3.6981 -0.455097 0
M  V30 3052 H 286.637 4.22173 -2.2651 0
M  V30 3053 H 285.001 2.28849 -1.11804 0
M  V30 3054 H 285.784 2.02905 -2.7692 0
M  V30 3055 N 288.23 0.939286 1.26551 0
M  V30 3056 C 289.193 0.451987 2.24699 0
M  V30 3057 C 290.193 -0.435869 1.5478 0
M  V30 3058 O 291.383 -0.235314 1.72603 0
M  V30 3059 C 288.515 -0.348801 3.39111 0
M  V30 3060 H 289.708 1.3193 2.69322 0
M  V30 3061 H 287.261 0.721072 1.38673 0
M  V30 3062 H 287.996 -1.23444 2.99887 0
M  V30 3063 H 287.781 0.287945 3.91041 0
M  V30 3064 H 289.271 -0.679726 4.12031 0
M  V30 3065 N 289.708 -1.40897 0.706093 0
M  V30 3066 C 290.638 -2.33418 0.0620085 0
M  V30 3067 C 291.619 -1.52385 -0.755827 0
M  V30 3068 O 292.804 -1.80886 -0.706674 0
M  V30 3069 C 289.934 -3.36293 -0.867445 0
M  V30 3070 C 288.888 -4.27716 -0.155932 0
M  V30 3071 C 288.214 -5.2105 -1.20046 0
M  V30 3072 C 289.514 -5.12944 0.984149 0
M  V30 3073 H 291.208 -2.87527 0.83477 0
M  V30 3074 H 288.754 -1.38249 0.402875 0
M  V30 3075 H 290.707 -3.99949 -1.32735 0
M  V30 3076 H 289.431 -2.80556 -1.67199 0
M  V30 3077 H 288.09 -3.65498 0.284047 0
M  V30 3078 H 287.738 -4.61624 -1.99781 0
M  V30 3079 H 287.438 -5.83056 -0.729328 0
M  V30 3080 H 288.962 -5.87584 -1.66066 0
M  V30 3081 H 290.376 -5.70109 0.604048 0
M  V30 3082 H 288.773 -5.83945 1.38304 0
M  V30 3083 H 289.843 -4.49485 1.81911 0
M  V30 3084 N 291.186 -0.45159 -1.50991 0
M  V30 3085 C 292.118 0.388634 -2.25881 0
M  V30 3086 C 293.131 0.974041 -1.30446 0
M  V30 3087 O 294.32 0.865758 -1.56099 0
M  V30 3088 C 291.42 1.5571 -3.01011 0
M  V30 3089 C 290.593 1.08801 -4.23652 0
M  V30 3090 C 289.652 2.12825 -4.8124 0
M  V30 3091 O 288.678 1.71678 -5.42693 0
M  V30 3092 N 289.88 3.45453 -4.66522 0
M  V30 3093 H 292.645 -0.25329 -2.98628 0
M  V30 3094 H 290.206 -0.281268 -1.59438 0
M  V30 3095 H 292.198 2.24952 -3.3642 0
M  V30 3096 H 290.768 2.10409 -2.31186 0
M  V30 3097 H 289.988 0.22215 -3.93574 0
M  V30 3098 H 291.276 0.752213 -5.03209 0
M  V30 3099 H 290.674 3.81605 -4.17605 0
M  V30 3100 H 289.231 4.10549 -5.06254 0
M  V30 3101 N 292.664 1.56529 -0.183458 0
M  V30 3102 C 294.08 1.58664 0.172554 0
M  V30 3103 C 294.28 1.19925 1.61926 0
M  V30 3104 O 293.336 0.916534 2.35278 0
M  V30 3105 C 294.649 3.00463 -0.119262 0
M  V30 3106 C 296.197 3.12945 -0.0584396 0
M  V30 3107 C 296.672 4.56857 -0.323408 0
M  V30 3108 N 298.163 4.62403 -0.271612 0
M  V30 3109 C 298.898 5.71626 -0.450639 0
M  V30 3110 N 298.394 6.89362 -0.689384 0
M  V30 3111 N 300.187 5.60775 -0.385701 0
M  V30 3112 H 292.338 1.79994 -1.12765 0
M  V30 3113 H 294.601 0.834808 -0.449222 0
M  V30 3114 H 294.307 3.33326 -1.12192 0
M  V30 3115 H 294.181 3.72659 0.583544 0
M  V30 3116 H 296.568 2.79902 0.934805 0
M  V30 3117 H 296.649 2.4316 -0.794144 0
M  V30 3118 H 296.293 4.9061 -1.31392 0
M  V30 3119 H 296.223 5.24816 0.43305 0
M  V30 3120 H 298.714 3.77785 -0.0932256 0
M  V30 3121 H 299.027 7.68489 -0.815113 0
M  V30 3122 H 297.372 6.91196 -0.726142 0
M  V30 3123 H 300.563 4.67674 -0.199687 0
M  V30 3124 H 300.736 6.4584 -0.528646 0
M  V30 3125 N 294.142 -0.090211 1.57342 0
M  V30 3126 C 295.553 -0.644173 1.75235 0
M  V30 3127 C 295.904 -1.78865 0.806335 0
M  V30 3128 O 295.029 -2.16395 -0.0140128 0
M  V30 3129 C 295.624 -1.17532 3.1776 0
M  V30 3130 C 294.183 -1.67531 3.37061 0
M  V30 3131 C 293.33 -0.58693 2.71017 0
M  V30 3132 H 296.281 0.135884 1.58117 0
M  V30 3133 H 296.302 -2.04455 3.20902 0
M  V30 3134 H 295.814 -0.342138 3.86589 0
M  V30 3135 H 293.915 -2.53234 2.73319 0
M  V30 3136 H 294.028 -1.76493 4.45406 0
M  V30 3137 H 292.392 -1.02756 2.33052 0
M  V30 3138 H 293.175 0.235758 3.4249 0
M  V30 3139 N 295.62 -1.53406 -0.361157 0
M  V30 3140 C 296.57 -1.76536 -1.44287 0
M  V30 3141 C 297.554 -0.620019 -1.48474 0
M  V30 3142 O 298.746 -0.878834 -1.53641 0
M  V30 3143 C 295.875 -1.96266 -2.81664 0
M  V30 3144 C 294.961 -3.16815 -2.81938 0
M  V30 3145 N 295.352 -4.38637 -2.51855 0
M  V30 3146 C 293.65 -3.17627 -3.13096 0
M  V30 3147 C 294.351 -5.20401 -2.59919 0
M  V30 3148 N 293.327 -4.56712 -2.94814 0
M  V30 3149 H 297.129 -2.68331 -1.19899 0
M  V30 3150 H 294.643 -1.52091 -0.56938 0
M  V30 3151 H 296.64 -2.10966 -3.59582 0
M  V30 3152 H 295.3 -1.05702 -3.07013 0
M  V30 3153 H 296.311 -4.66293 -2.25369 0
M  V30 3154 H 292.988 -2.36971 -3.43731 0
M  V30 3155 H 294.378 -6.27586 -2.39969 0
M  V30 3156 N 297.098 0.621204 -1.44841 0
M  V30 3157 C 298.323 1.41244 -1.51871 0
M  V30 3158 C 298.748 1.87519 -0.147764 0
M  V30 3159 O 298.106 1.59334 0.865 0
M  V30 3160 C 298.154 2.60221 -2.49634 0
M  V30 3161 O 297.258 3.60395 -2.00473 0
M  V30 3162 H 296.599 0.42223 -0.512463 0
M  V30 3163 H 299.129 0.757305 -1.90069 0
M  V30 3164 H 299.139 3.0764 -2.67996 0
M  V30 3165 H 297.814 2.25887 -3.4921 0
M  V30 3166 H 296.391 3.19717 -1.91925 0
M  V30 3167 N 298.576 1.31904 0.862503 0
M  V30 3168 C 299.539 1.20131 1.95195 0
M  V30 3169 C 300.539 0.126409 1.60302 0
M  V30 3170 O 301.729 0.376234 1.70089 0
M  V30 3171 C 298.861 0.845691 3.30244 0
M  V30 3172 H 300.054 2.16943 2.07064 0
M  V30 3173 H 297.607 1.15622 1.05172 0
M  V30 3174 H 298.342 -0.120957 3.24074 0
M  V30 3175 H 298.127 1.62276 3.56944 0
M  V30 3176 H 299.617 0.787418 4.10109 0
M  V30 3177 N 300.054 -1.07777 1.14986 0
M  V30 3178 C 301.279 -1.84558 0.946213 0
M  V30 3179 C 301.704 -1.81323 -0.500362 0
M  V30 3180 O 301.062 -1.20301 -1.35637 0
M  V30 3181 C 301.11 -3.29736 1.45968 0
M  V30 3182 O 300.214 -4.07149 0.65601 0
M  V30 3183 H 299.555 -0.571641 0.33782 0
M  V30 3184 H 302.085 -1.35991 1.52865 0
M  V30 3185 H 302.095 -3.80574 1.47063 0
M  V30 3186 H 300.77 -3.31406 2.51283 0
M  V30 3187 H 299.347 -3.65994 0.714322 0
M  V30 3188 N 301.532 -0.945985 -1.26051 0
M  V30 3189 C 302.495 -0.463897 -2.24456 0
M  V30 3190 C 303.495 0.427655 -1.55009 0
M  V30 3191 O 304.685 0.226157 -1.72726 0
M  V30 3192 C 301.817 0.330812 -3.39291 0
M  V30 3193 H 303.01 -1.33357 -2.68619 0
M  V30 3194 H 300.563 -0.728416 -1.38289 0
M  V30 3195 H 301.298 1.21852 -3.00537 0
M  V30 3196 H 301.083 -0.308679 -3.90883 0
M  V30 3197 H 302.573 0.657865 -4.12386 0
M  V30 3198 N 303.011 1.40521 -0.713556 0
M  V30 3199 C 303.941 2.33381 -0.0743864 0
M  V30 3200 C 304.922 1.52784 0.747735 0
M  V30 3201 O 306.107 1.81258 0.697071 0
M  V30 3202 C 303.237 3.36748 0.849598 0
M  V30 3203 C 302.191 4.27793 0.133247 0
M  V30 3204 C 301.517 5.21679 1.17281 0
M  V30 3205 C 302.817 5.12415 -1.01134 0
M  V30 3206 H 304.511 2.87081 -0.850007 0
M  V30 3207 H 302.057 1.38034 -0.410201 0
M  V30 3208 H 304.01 4.00648 1.30612 0
M  V30 3209 H 302.734 2.81439 1.65709 0
M  V30 3210 H 301.393 3.65342 -0.303426 0
M  V30 3211 H 301.041 4.62677 1.9733 0
M  V30 3212 H 300.741 5.83435 0.698397 0
M  V30 3213 H 302.265 5.88456 1.62947 0
M  V30 3214 H 303.679 5.69781 -0.634274 0
M  V30 3215 H 302.076 5.83203 -1.41399 0
M  V30 3216 H 303.146 4.48514 -1.84292 0
M  V30 3217 N 304.489 0.459591 1.5075 0
M  V30 3218 C 305.766 -0.160371 1.94941 0
M  V30 3219 C 306.146 -1.58048 1.39943 0
M  V30 3220 O 305.494 -2.206 0.595629 0
M  V30 3221 C 305.704 -0.115432 3.48809 0
M  V30 3222 C 307.052 -0.310026 4.23467 0
M  V30 3223 O 308.076 -0.192543 3.55679 0
M  V30 3224 O 306.935 -0.546031 5.43765 0
M  V30 3225 H 304.029 -0.117925 0.818549 0
M  V30 3226 H 306.575 0.519169 1.61563 0
M  V30 3227 H 305.347 0.87652 3.81357 0
M  V30 3228 H 304.97 -0.836928 3.88692 0
M  V30 3229 N 305.967 -1.56429 0.191757 0
M  V30 3230 C 306.899 -2.16154 -0.762245 0
M  V30 3231 C 307.912 -1.12247 -1.17917 0
M  V30 3232 O 309.101 -1.39353 -1.11548 0
M  V30 3233 C 306.201 -2.70606 -2.04024 0
M  V30 3234 C 305.374 -3.99381 -1.78364 0
M  V30 3235 C 304.433 -4.38692 -2.90578 0
M  V30 3236 O 303.459 -5.06179 -2.6033 0
M  V30 3237 N 304.661 -4.01922 -4.18854 0
M  V30 3238 H 307.426 -2.98643 -0.251526 0
M  V30 3239 H 304.987 -1.61897 0.00967373 0
M  V30 3240 H 306.979 -2.93891 -2.78227 0
M  V30 3241 H 305.549 -1.9259 -2.46227 0
M  V30 3242 H 304.769 -3.84262 -0.879581 0
M  V30 3243 H 306.057 -4.83445 -1.58614 0
M  V30 3244 H 305.455 -3.47631 -4.46283 0
M  V30 3245 H 304.012 -4.30165 -4.89695 0
M  V30 3246 N 307.445 0.0818655 -1.57387 0
M  V30 3247 C 308.67 0.799946 -1.91352 0
M  V30 3248 C 309.095 1.70833 -0.787258 0
M  V30 3249 O 308.453 1.79419 0.26048 0
M  V30 3250 C 308.501 1.57812 -3.24234 0
M  V30 3251 O 307.605 2.68806 -3.12757 0
M  V30 3252 H 306.946 0.21891 -0.626877 0
M  V30 3253 H 309.476 0.0531256 -2.04531 0
M  V30 3254 H 309.486 1.95952 -3.57864 0
M  V30 3255 H 308.161 0.911548 -4.05788 0
M  V30 3256 H 306.738 2.33597 -2.90666 0
M  V30 3257 N 308.923 1.53595 0.353017 0
M  V30 3258 C 310.334 1.61937 0.929153 0
M  V30 3259 C 310.685 0.494686 1.89861 0
M  V30 3260 O 309.81 -0.377017 2.1309 0
M  V30 3261 C 310.405 2.93526 1.69199 0
M  V30 3262 C 308.964 3.04161 2.21727 0
M  V30 3263 C 308.111 2.57322 1.03348 0
M  V30 3264 H 311.062 1.58155 0.131431 0
M  V30 3265 H 311.083 2.82034 2.55416 0
M  V30 3266 H 310.595 3.75362 0.986144 0
M  V30 3267 H 308.696 2.26938 2.95516 0
M  V30 3268 H 308.809 4.09465 2.48748 0
M  V30 3269 H 307.173 2.12499 1.40414 0
M  V30 3270 H 307.956 3.41588 0.342428 0
M  V30 3271 N 310.401 -0.613514 1.45168 0
M  V30 3272 C 311.641 -1.38405 1.5041 0
M  V30 3273 C 312.005 -1.91489 0.139922 0
M  V30 3274 O 313.206 -2.68716 0.067033 0
M  V30 3275 C 311.477 -2.50552 2.5487 0
M  V30 3276 S 313.036 -3.38439 2.79292 0
M  V30 3277 H 309.854 -0.471945 0.531779 0
M  V30 3278 H 312.456 -0.708518 1.82209 0
M  V30 3279 H 311.16 -2.09894 3.52665 0
M  V30 3280 H 310.691 -3.22913 2.24701 0
M  V30 3281 H 312.706 -4.48527 2.12222 0
M  V30 3282 N 311.879 -1.3236 -0.855495 0
M  V30 3283 C 312.842 -1.21164 -1.94556 0
M  V30 3284 C 313.842 -0.134908 -1.60233 0
M  V30 3285 O 315.032 -0.385249 -1.69887 0
M  V30 3286 C 312.164 -0.863192 -3.29791 0
M  V30 3287 H 313.357 -2.18038 -2.05911 0
M  V30 3288 H 310.91 -1.16179 -1.04557 0
M  V30 3289 H 311.645 0.103769 -3.24134 0
M  V30 3290 H 311.43 -1.64166 -3.56078 0
M  V30 3291 H 312.92 -0.809156 -4.09686 0
M  V30 3292 N 313.357 1.07166 -1.15556 0
M  V30 3293 C 314.289 2.14341 -0.811815 0
M  V30 3294 C 315.302 1.61835 0.177015 0
M  V30 3295 O 316.491 1.78439 -0.0464996 0
M  V30 3296 C 313.591 3.38387 -0.186481 0
M  V30 3297 C 312.764 4.20238 -1.21321 0
M  V30 3298 C 311.823 5.2266 -0.609302 0
M  V30 3299 O 310.849 5.54719 -1.27576 0
M  V30 3300 N 312.051 5.77306 0.608099 0
M  V30 3301 H 314.816 2.44431 -1.73417 0
M  V30 3302 H 312.377 1.23089 -1.0517 0
M  V30 3303 H 314.369 4.04044 0.230339 0
M  V30 3304 H 312.939 3.05994 0.639249 0
M  V30 3305 H 312.159 3.50369 -1.80652 0
M  V30 3306 H 313.447 4.71736 -1.90638 0
M  V30 3307 H 312.845 5.53513 1.1679 0
M  V30 3308 H 311.402 6.44583 0.96725 0
M  V30 3309 N 314.835 0.952656 1.25548 0
M  V30 3310 C 316.246 0.647392 1.75116 0
M  V30 3311 C 316.597 -0.837274 1.77438 0
M  V30 3312 O 315.722 -1.65525 1.39393 0
M  V30 3313 C 316.317 1.16845 3.18014 0
M  V30 3314 C 314.876 0.913382 3.6515 0
M  V30 3315 C 314.023 1.31265 2.44264 0
M  V30 3316 H 316.974 1.12968 1.11462 0
M  V30 3317 H 316.995 0.527606 3.76824 0
M  V30 3318 H 316.507 2.24902 3.16292 0
M  V30 3319 H 314.608 -0.152316 3.72289 0
M  V30 3320 H 314.721 1.54845 4.53387 0
M  V30 3321 H 313.085 0.731028 2.43984 0
M  V30 3322 H 313.868 2.40239 2.45234 0
M  V30 3323 N 316.313 -1.40141 0.720998 0
M  V30 3324 C 317.541 -2.05096 0.272656 0
M  V30 3325 C 317.956 -1.54334 -1.0875 0
M  V30 3326 O 317.313 -0.702211 -1.6845 0
M  V30 3327 C 317.364 -3.60636 0.249835 0
M  V30 3328 O 317.085 -4.09526 1.55629 0
M  V30 3329 C 318.586 -4.42772 -0.216396 0
M  V30 3330 H 315.806 -0.659897 0.121558 0
M  V30 3331 H 318.35 -1.79449 0.980723 0
M  V30 3332 H 316.505 -3.85232 -0.409237 0
M  V30 3333 H 316.919 -5.03758 1.4604 0
M  V30 3334 H 318.393 -5.51702 -0.181212 0
M  V30 3335 H 318.87 -4.20756 -1.25941 0
M  V30 3336 H 319.476 -4.23294 0.412596 0
M  V30 3337 N 317.792 -0.46758 -1.50504 0
M  V30 3338 C 318.725 0.374324 -2.25109 0
M  V30 3339 C 319.703 0.99921 -1.28275 0
M  V30 3340 O 320.887 1.03583 -1.57489 0
M  V30 3341 C 318.014 1.52419 -3.02467 0
M  V30 3342 C 317.06 1.01702 -4.14197 0
M  V30 3343 S 317.893 -0.0654477 -5.3546 0
M  V30 3344 C 319.049 1.08837 -6.16365 0
M  V30 3345 H 319.282 -0.258983 -2.9617 0
M  V30 3346 H 316.815 -0.252421 -1.52323 0
M  V30 3347 H 318.773 2.18322 -3.47628 0
M  V30 3348 H 317.434 2.129 -2.30938 0
M  V30 3349 H 316.627 1.87776 -4.67714 0
M  V30 3350 H 316.229 0.435757 -3.71453 0
M  V30 3351 H 318.521 2.00071 -6.47285 0
M  V30 3352 H 319.464 0.592538 -7.05616 0
M  V30 3353 H 319.872 1.34061 -5.4835 0
M  V30 3354 N 319.27 1.56325 -0.20005 0
M  V30 3355 C 320.681 1.8408 0.31167 0
M  V30 3356 C 321.032 1.12087 1.61031 0
M  V30 3357 O 320.157 0.38332 2.12978 0
M  V30 3358 C 320.752 3.33932 0.57226 0
M  V30 3359 C 319.311 3.6208 1.02834 0
M  V30 3360 C 318.458 2.77186 0.079634 0
M  V30 3361 H 321.409 1.52939 -0.423729 0
M  V30 3362 H 321.43 3.52971 1.42096 0
M  V30 3363 H 320.942 3.86303 -0.37308 0
M  V30 3364 H 319.043 3.15147 1.98778 0
M  V30 3365 H 319.156 4.7023 0.917624 0
M  V30 3366 H 317.52 2.47951 0.582448 0
M  V30 3367 H 318.303 3.32347 -0.860238 0
M  V30 3368 N 320.748 -0.0735177 1.57428 0
M  V30 3369 C 321.994 -0.768909 1.88307 0
M  V30 3370 C 322.349 -1.75273 0.793535 0
M  V30 3371 O 321.642 -1.90527 -0.202466 0
M  V30 3372 C 321.836 -1.51799 3.23561 0
M  V30 3373 C 321.665 -0.608217 4.45568 0
M  V30 3374 C 320.435 -0.245808 5.04702 0
M  V30 3375 C 322.633 0.0942904 5.14214 0
M  V30 3376 N 320.615 0.66987 6.10234 0
M  V30 3377 C 321.986 0.867222 6.13905 0
M  V30 3378 C 324.041 0.165943 4.97623 0
M  V30 3379 C 322.744 1.70515 6.98797 0
M  V30 3380 C 324.77 0.990837 5.83041 0
M  V30 3381 C 324.132 1.75182 6.82269 0
M  V30 3382 H 320.231 -0.25685 0.738615 0
M  V30 3383 H 322.815 -0.030499 1.94676 0
M  V30 3384 H 320.986 -2.22713 3.18203 0
M  V30 3385 H 322.718 -2.16226 3.42094 0
M  V30 3386 H 319.473 -0.598284 4.69806 0
M  V30 3387 H 319.897 1.1209 6.67656 0
M  V30 3388 H 324.539 -0.408064 4.20826 0
M  V30 3389 H 322.257 2.29013 7.7497 0
M  V30 3390 H 325.843 1.04923 5.72261 0
M  V30 3391 H 324.723 2.37983 7.47217 0
M  V30 3392 N 322.226 -1.5378 -0.344866 0
M  V30 3393 C 323.158 -1.77988 -1.44406 0
M  V30 3394 C 324.171 -0.661138 -1.48771 0
M  V30 3395 O 325.36 -0.937842 -1.51877 0
M  V30 3396 C 322.46 -1.86345 -2.8307 0
M  V30 3397 C 321.633 -3.16256 -3.0216 0
M  V30 3398 C 320.692 -3.15588 -4.21059 0
M  V30 3399 O 319.718 -3.89314 -4.15239 0
M  V30 3400 N 320.92 -2.37864 -5.29529 0
M  V30 3401 H 323.685 -2.72839 -1.24012 0
M  V30 3402 H 321.246 -1.52814 -0.534737 0
M  V30 3403 H 323.238 -1.83351 -3.60783 0
M  V30 3404 H 321.808 -0.986858 -2.96614 0
M  V30 3405 H 321.028 -3.32385 -2.11929 0
M  V30 3406 H 322.316 -4.0207 -3.11797 0
M  V30 3407 H 321.714 -1.77514 -5.37127 0
M  V30 3408 H 320.271 -2.40668 -6.05741 0
M  V30 3409 N 323.704 0.605807 -1.45491 0
M  V30 3410 C 324.981 1.36522 -1.40075 0
M  V30 3411 C 325.361 2.10976 -0.0722744 0
M  V30 3412 O 324.709 2.08007 0.945808 0
M  V30 3413 C 324.919 2.31056 -2.61561 0
M  V30 3414 C 326.267 2.93608 -3.06724 0
M  V30 3415 O 327.291 2.41376 -2.61946 0
M  V30 3416 O 326.15 3.88421 -3.84437 0
M  V30 3417 H 323.244 0.612248 -0.555951 0
M  V30 3418 H 325.79 0.628747 -1.57623 0
M  V30 3419 H 324.562 1.75311 -3.49831 0
M  V30 3420 H 324.185 3.12081 -2.46356 0
M  V30 3421 N 325.182 1.32811 0.848464 0
M  V30 3422 C 326.43 1.23479 1.59991 0
M  V30 3423 C 326.751 -0.201853 1.93952 0
M  V30 3424 O 326.021 -1.12818 1.60153 0
M  V30 3425 H 324.601 0.454034 0.593179 0
M  V30 3426 H 327.263 1.66412 1.01455 0
M  V30 3427 H 326.359 1.82178 2.53412 0
M  V30 3428 N 326.66 -1.06551 1.16123 0
M  V30 3429 C 328.071 -1.60768 0.949232 0
M  V30 3430 C 328.422 -1.89523 -0.507508 0
M  V30 3431 O 327.547 -1.66671 -1.38021 0
M  V30 3432 C 328.142 -2.92086 1.71671 0
M  V30 3433 C 326.701 -3.43015 1.54977 0
M  V30 3434 C 325.848 -2.16947 1.72711 0
M  V30 3435 H 328.799 -0.895354 1.31031 0
M  V30 3436 H 328.82 -3.6138 1.19099 0
M  V30 3437 H 328.332 -2.71127 2.7769 0
M  V30 3438 H 326.433 -3.69039 0.513873 0
M  V30 3439 H 326.546 -4.18516 2.33198 0
M  V30 3440 H 324.91 -2.27041 1.15431 0
M  V30 3441 H 325.693 -1.98473 2.80113 0
M  V30 3442 N 328.138 -0.959301 -1.25041 0
M  V30 3443 C 329.085 -0.482057 -2.2571 0
M  V30 3444 C 330.055 0.467939 -1.59372 0
M  V30 3445 O 331.24 0.380159 -1.86974 0
M  V30 3446 C 328.38 0.229623 -3.44335 0
M  V30 3447 C 327.493 -0.758156 -4.25295 0
M  V30 3448 C 326.628 -0.0234403 -5.31195 0
M  V30 3449 C 325.667 -1.00184 -6.03846 0
M  V30 3450 N 324.804 -0.29769 -7.01469 0
M  V30 3451 H 329.644 -1.34538 -2.65901 0
M  V30 3452 H 327.181 -0.674592 -1.3072 0
M  V30 3453 H 329.139 0.658856 -4.11965 0
M  V30 3454 H 327.769 1.05696 -3.05005 0
M  V30 3455 H 326.821 -1.30586 -3.57284 0
M  V30 3456 H 328.133 -1.50458 -4.75567 0
M  V30 3457 H 327.287 0.464201 -6.04922 0
M  V30 3458 H 326.026 0.755741 -4.81809 0
M  V30 3459 H 325.031 -1.50044 -5.2893 0
M  V30 3460 H 326.256 -1.78133 -6.55321 0
M  V30 3461 H 324.202 0.462668 -6.54366 0
M  V30 3462 H 324.119 -0.983128 -7.4958 0
M  V30 3463 H 325.387 0.16826 -7.79318 0
M  V30 3464 N 329.616 1.39756 -0.72842 0
M  V30 3465 C 330.548 2.29157 -0.0446202 0
M  V30 3466 C 331.561 1.46484 0.710367 0
M  V30 3467 O 332.75 1.69632 0.55562 0
M  V30 3468 C 329.85 3.24987 0.961071 0
M  V30 3469 C 329.023 4.36572 0.268967 0
M  V30 3470 C 328.082 5.12756 1.18184 0
M  V30 3471 O 327.108 5.6534 0.661794 0
M  V30 3472 N 328.31 5.23331 2.51206 0
M  V30 3473 H 331.075 2.88482 -0.812295 0
M  V30 3474 H 328.636 1.51265 -0.577098 0
M  V30 3475 H 330.628 3.72827 1.57423 0
M  V30 3476 H 329.198 2.66739 1.63 0
M  V30 3477 H 328.418 3.90694 -0.524574 0
M  V30 3478 H 329.706 5.08363 -0.210934 0
M  V30 3479 H 329.104 4.82116 2.9594 0
M  V30 3480 H 327.661 5.74634 3.07634 0
M  V30 3481 N 331.094 0.475555 1.50254 0
M  V30 3482 C 332.322 -0.0754493 2.06762 0
M  V30 3483 C 332.737 -1.33111 1.33891 0
M  V30 3484 O 332.094 -1.77846 0.40952 0
M  V30 3485 C 332.145 -0.359008 3.59713 0
M  V30 3486 O 331.866 0.846851 4.29837 0
M  V30 3487 C 333.367 -0.956484 4.32858 0
M  V30 3488 H 330.587 0.00907525 0.670939 0
M  V30 3489 H 333.131 0.665618 1.93364 0
M  V30 3490 H 331.286 -1.05001 3.72899 0
M  V30 3491 H 331.7 0.594162 5.21124 0
M  V30 3492 H 333.174 -1.10463 5.40834 0
M  V30 3493 H 333.651 -1.94775 3.93649 0
M  V30 3494 H 334.257 -0.303723 4.24214 0
M  V30 3495 N 332.573 -1.56217 0.208337 0
M  V30 3496 C 333.798 -2.02782 -0.435222 0
M  V30 3497 C 334.223 -1.08738 -1.53485 0
M  V30 3498 O 333.581 -0.0731855 -1.81152 0
M  V30 3499 C 333.629 -3.47687 -0.956335 0
M  V30 3500 O 332.733 -3.56773 -2.06849 0
M  V30 3501 H 332.074 -0.656403 -0.100158 0
M  V30 3502 H 334.604 -2.02033 0.3231 0
M  V30 3503 H 334.614 -3.87745 -1.26955 0
M  V30 3504 H 333.289 -4.15624 -0.15143 0
M  V30 3505 H 331.866 -3.28597 -1.76292 0
M  V30 3506 N 334.051 0.0651679 -1.57465 0
M  V30 3507 C 335.462 0.616213 -1.76238 0
M  V30 3508 C 335.813 1.7756 -0.834689 0
M  V30 3509 O 334.938 2.1639 -0.0204156 0
M  V30 3510 C 335.533 1.12462 -3.1959 0
M  V30 3511 C 334.092 1.62147 -3.39684 0
M  V30 3512 C 333.239 0.543739 -2.71917 0
M  V30 3513 H 336.19 -0.161022 -1.57881 0
M  V30 3514 H 336.211 1.99324 -3.24114 0
M  V30 3515 H 335.723 0.280592 -3.87084 0
M  V30 3516 H 333.824 2.48854 -2.77313 0
M  V30 3517 H 333.937 1.69385 -4.48158 0
M  V30 3518 H 332.301 0.990352 -2.34657 0
M  V30 3519 H 333.084 -0.290216 -3.42071 0
M  V30 3520 N 335.529 1.53961 0.336706 0
M  V30 3521 C 336.754 1.75797 1.10046 0
M  V30 3522 C 337.179 0.498985 1.81361 0
M  V30 3523 O 336.537 -0.548769 1.72795 0
M  V30 3524 C 336.585 2.94257 2.08436 0
M  V30 3525 O 335.689 2.64883 3.16087 0
M  V30 3526 H 335.03 0.582936 0.317934 0
M  V30 3527 H 337.56 2.00945 0.38501 0
M  V30 3528 H 337.57 3.21237 2.51537 0
M  V30 3529 H 336.245 3.85564 1.55927 0
M  V30 3530 H 334.822 2.48812 2.77753 0
M  V30 3531 N 337.007 -0.598083 1.45811 0
M  V30 3532 C 338.423 -0.919847 1.30426 0
M  V30 3533 C 338.623 -1.99759 0.264303 0
M  V30 3534 O 337.679 -2.50221 -0.338472 0
M  V30 3535 C 338.992 -1.35176 2.68603 0
M  V30 3536 C 340.54 -1.46546 2.76574 0
M  V30 3537 C 341.015 -1.9311 4.15298 0
M  V30 3538 N 342.506 -2.00328 4.1764 0
M  V30 3539 C 343.241 -2.37599 5.21856 0
M  V30 3540 N 342.737 -2.73771 6.36413 0
M  V30 3541 N 344.53 -2.38021 5.09218 0
M  V30 3542 H 336.681 0.114111 2.12093 0
M  V30 3543 H 338.944 -0.0116121 0.947929 0
M  V30 3544 H 338.65 -0.633969 3.45939 0
M  V30 3545 H 338.524 -2.3164 2.97696 0
M  V30 3546 H 340.911 -2.17415 1.99537 0
M  V30 3547 H 340.992 -0.483727 2.51185 0
M  V30 3548 H 340.636 -1.22824 4.92825 0
M  V30 3549 H 340.566 -2.92213 4.38086 0
M  V30 3550 H 343.057 -1.74925 3.34977 0
M  V30 3551 H 343.37 -3.0112 7.11721 0
M  V30 3552 H 341.715 -2.71445 6.39799 0
M  V30 3553 H 344.906 -2.09174 4.18765 0
M  V30 3554 H 345.079 -2.66741 5.90554 0
M  V30 3555 N 338.485 -1.33259 -0.841409 0
M  V30 3556 C 339.395 -1.25332 -1.98316 0
M  V30 3557 C 340.411 -0.164364 -1.73222 0
M  V30 3558 O 341.587 -0.387486 -1.97637 0
M  V30 3559 C 338.652 -0.990078 -3.32262 0
M  V30 3560 C 337.713 -2.16879 -3.70489 0
M  V30 3561 C 336.946 -1.91801 -4.98044 0
M  V30 3562 O 337.169 -0.867075 -5.63771 0
M  V30 3563 O 336.103 -2.78267 -5.33714 0
M  V30 3564 H 339.929 -2.21344 -2.07944 0
M  V30 3565 H 337.514 -1.1328 -0.974058 0
M  V30 3566 H 339.396 -0.860321 -4.12524 0
M  V30 3567 H 338.071 -0.0602155 -3.23644 0
M  V30 3568 H 336.978 -2.35407 -2.90748 0
M  V30 3569 H 338.311 -3.0819 -3.8377 0
M  V30 3570 N 339.963 1.05934 -1.16686 0
M  V30 3571 C 340.926 2.11669 -0.879144 0
M  V30 3572 C 341.926 1.60294 0.127445 0
M  V30 3573 O 343.116 1.7389 -0.103865 0
M  V30 3574 C 340.248 3.39438 -0.315425 0
M  V30 3575 H 341.441 2.38626 -1.81653 0
M  V30 3576 H 338.994 1.22058 -0.976299 0
M  V30 3577 H 339.729 3.18132 0.629468 0
M  V30 3578 H 339.514 3.78034 -1.04079 0
M  V30 3579 H 341.004 4.17391 -0.132189 0
M  V30 3580 N 341.441 0.965919 1.2453 0
M  V30 3581 C 342.666 0.643971 1.97149 0
M  V30 3582 C 343.091 -0.779487 1.71189 0
M  V30 3583 O 342.449 -1.5288 0.974553 0
M  V30 3584 C 342.497 0.922557 3.48599 0
M  V30 3585 O 341.601 0.00707672 4.12399 0
M  V30 3586 H 340.942 0.243647 0.617683 0
M  V30 3587 H 343.472 1.29558 1.58353 0
M  V30 3588 H 343.482 0.853373 3.98976 0
M  V30 3589 H 342.157 1.95996 3.66822 0
M  V30 3590 H 340.734 0.12943 3.72675 0
M  V30 3591 N 342.919 -1.39368 0.735821 0
M  V30 3592 C 343.882 -2.2896 0.104874 0
M  V30 3593 C 344.882 -1.46347 -0.666274 0
M  V30 3594 O 346.072 -1.67014 -0.49517 0
M  V30 3595 C 343.204 -3.29857 -0.860656 0
M  V30 3596 H 344.397 -2.86259 0.894205 0
M  V30 3597 H 341.95 -1.48029 0.501704 0
M  V30 3598 H 342.685 -2.77615 -1.67631 0
M  V30 3599 H 342.47 -3.9087 -0.310327 0
M  V30 3600 H 343.96 -3.96893 -1.29867 0
M  V30 3601 N 344.397 -0.483516 -1.5 0
M  V30 3602 C 345.327 0.293829 -2.31644 0
M  V30 3603 C 346.308 0.978864 -1.39112 0
M  V30 3604 O 347.493 0.973644 -1.68029 0
M  V30 3605 C 344.623 1.36897 -3.19181 0
M  V30 3606 C 343.577 0.804833 -4.20365 0
M  V30 3607 C 342.903 1.9792 -4.96721 0
M  V30 3608 C 344.203 -0.192313 -5.21946 0
M  V30 3609 H 345.897 -0.387616 -2.9688 0
M  V30 3610 H 343.443 -0.187856 -1.42769 0
M  V30 3611 H 345.396 1.92037 -3.751 0
M  V30 3612 H 344.12 2.07936 -2.51853 0
M  V30 3613 H 342.779 0.275319 -3.65565 0
M  V30 3614 H 342.427 2.67686 -4.25856 0
M  V30 3615 H 342.127 1.60789 -5.65173 0
M  V30 3616 H 343.651 2.53526 -5.55479 0
M  V30 3617 H 345.065 0.270333 -5.72662 0
M  V30 3618 H 343.462 -0.478543 -5.98189 0
M  V30 3619 H 344.532 -1.11409 -4.71928 0
M  V30 3620 N 345.875 1.56104 -0.216619 0
M  V30 3621 C 347.103 2.02563 0.421413 0
M  V30 3622 C 347.518 1.0965 1.53695 0
M  V30 3623 O 346.875 0.10521 1.82196 0
M  V30 3624 C 346.926 3.48584 0.957665 0
M  V30 3625 O 346.647 4.37953 -0.113389 0
M  V30 3626 C 348.148 4.10664 1.66943 0
M  V30 3627 H 345.368 0.662944 0.103665 0
M  V30 3628 H 347.912 2.01793 -0.331629 0
M  V30 3629 H 346.067 3.49985 1.661 0
M  V30 3630 H 346.481 5.23704 0.288932 0
M  V30 3631 H 347.955 5.14622 1.99671 0
M  V30 3632 H 348.432 3.55373 2.58083 0
M  V30 3633 H 349.038 4.13098 1.01142 0
M  V30 3634 N 347.353 -0.0568162 1.57498 0
M  V30 3635 C 348.316 -1.05038 2.03715 0
M  V30 3636 C 349.316 -1.30709 0.936577 0
M  V30 3637 O 350.506 -1.26178 1.20103 0
M  V30 3638 C 347.638 -2.39034 2.43055 0
M  V30 3639 H 348.831 -0.651715 2.92733 0
M  V30 3640 H 346.384 -0.302947 1.53336 0
M  V30 3641 H 347.119 -2.83703 1.57108 0
M  V30 3642 H 346.904 -2.21739 3.2338 0
M  V30 3643 H 348.394 -3.10421 2.79336 0
M  V30 3644 N 348.832 -1.54138 -0.328536 0
M  V30 3645 C 349.742 -1.86192 -1.42723 0
M  V30 3646 C 350.758 -0.753382 -1.56844 0
M  V30 3647 O 351.934 -1.04718 -1.72035 0
M  V30 3648 C 348.999 -2.07824 -2.77507 0
M  V30 3649 C 348.06 -3.31641 -2.72603 0
M  V30 3650 C 347.293 -3.52232 -4.00959 0
M  V30 3651 O 347.516 -2.7636 -4.9898 0
M  V30 3652 O 346.45 -4.45699 -4.0452 0
M  V30 3653 H 350.276 -2.79608 -1.18547 0
M  V30 3654 H 347.861 -1.3998 -0.522104 0
M  V30 3655 H 349.743 -2.23411 -3.57303 0
M  V30 3656 H 348.418 -1.17596 -3.01584 0
M  V30 3657 H 347.325 -3.21444 -1.91376 0
M  V30 3658 H 348.658 -4.2191 -2.53481 0
M  V30 3659 N 350.31 0.590341 -1.46126 0
M  V30 3660 C 351.558 1.34616 -1.50742 0
M  V30 3661 C 351.879 1.94363 -0.157486 0
M  V30 3662 O 351.149 1.78136 0.815136 0
M  V30 3663 H 349.729 0.499789 -0.555175 0
M  V30 3664 H 352.391 0.691953 -1.82203 0
M  V30 3665 H 351.487 2.15678 -2.25587 0
M  V30 3666 N 351.788 1.33704 0.83433 0
M  V30 3667 C 353.036 1.25169 1.58673 0
M  V30 3668 C 353.357 -0.18127 1.94156 0
M  V30 3669 O 352.627 -1.11113 1.6134 0
M  V30 3670 H 351.207 0.4603 0.58833 0
M  V30 3671 H 353.869 1.67478 0.996847 0
M  V30 3672 H 352.965 1.84856 2.51465 0
M  V30 3673 N 353.266 -1.05314 1.17247 0
M  V30 3674 C 354.491 -1.82509 0.985148 0
M  V30 3675 C 354.916 -1.82343 -0.461788 0
M  V30 3676 O 354.274 -1.23151 -1.33055 0
M  V30 3677 C 354.322 -3.26566 1.52929 0
M  V30 3678 O 353.426 -4.05666 0.742225 0
M  V30 3679 H 352.767 -0.564347 0.349869 0
M  V30 3680 H 355.297 -1.32718 1.55715 0
M  V30 3681 H 355.307 -3.77369 1.55103 0
M  V30 3682 H 353.982 -3.26001 2.58256 0
M  V30 3683 H 352.559 -3.64397 0.791794 0
M  V30 3684 N 354.744 -0.972509 -1.24016 0
M  V30 3685 C 355.984 -0.644951 -1.93958 0
M  V30 3686 C 356.348 0.80559 -1.74282 0
M  V30 3687 O 357.549 1.2436 -2.38302 0
M  V30 3688 C 355.82 -1.01521 -3.42678 0
M  V30 3689 S 357.379 -0.802927 -4.31391 0
M  V30 3690 H 354.197 -0.236452 -0.670531 0
M  V30 3691 H 356.799 -1.25048 -1.50277 0
M  V30 3692 H 355.503 -2.06769 -3.54506 0
M  V30 3693 H 355.034 -0.400648 -3.91355 0
M  V30 3694 H 357.049 0.317256 -4.95185 0
M  V30 3695 N 356.222 1.38976 -0.743202 0
M  V30 3696 C 357.152 2.33171 -0.123873 0
M  V30 3697 C 358.133 1.54336 0.71516 0
M  V30 3698 O 359.318 1.82696 0.658467 0
M  V30 3699 C 356.448 3.38474 0.777978 0
M  V30 3700 C 355.402 4.27979 0.0424758 0
M  V30 3701 C 354.728 5.2405 1.06189 0
M  V30 3702 C 356.028 5.10155 -1.1198 0
M  V30 3703 H 357.722 2.85213 -0.910709 0
M  V30 3704 H 355.268 1.37133 -0.439388 0
M  V30 3705 H 357.221 4.03328 1.22084 0
M  V30 3706 H 355.945 2.84891 1.59702 0
M  V30 3707 H 354.604 3.64616 -0.380853 0
M  V30 3708 H 354.252 4.66758 1.87472 0
M  V30 3709 H 353.952 5.84785 0.574485 0
M  V30 3710 H 355.476 5.9178 1.50428 0
M  V30 3711 H 356.89 5.68307 -0.75499 0
M  V30 3712 H 355.287 5.80073 -1.53738 0
M  V30 3713 H 356.357 4.44504 -1.93764 0
M  V30 3714 N 357.7 0.491464 1.49741 0
M  V30 3715 C 358.949 -0.0582189 2.01616 0
M  V30 3716 C 359.262 -1.38927 1.3769 0
M  V30 3717 O 360.468 -2.02509 1.80838 0
M  V30 3718 C 358.924 -0.154235 3.59569 0
M  V30 3719 C 358.532 1.1696 4.32463 0
M  V30 3720 C 360.276 -0.65479 4.1942 0
M  V30 3721 C 358.183 1.03627 5.8225 0
M  V30 3722 H 357.113 -0.0255317 0.753568 0
M  V30 3723 H 359.764 0.629445 1.72367 0
M  V30 3724 H 358.146 -0.906138 3.85493 0
M  V30 3725 H 359.32 1.93405 4.18248 0
M  V30 3726 H 357.635 1.60285 3.84315 0
M  V30 3727 H 360.232 -0.771903 5.29099 0
M  V30 3728 H 360.575 -1.65127 3.8215 0
M  V30 3729 H 361.108 0.040304 3.9778 0
M  V30 3730 H 357.847 2.00672 6.24028 0
M  V30 3731 H 357.367 0.312546 5.98985 0
M  V30 3732 H 359.046 0.711114 6.4308 0
M  V30 3733 N 359.178 -1.55987 0.224894 0
M  V30 3734 C 360.403 -2.03232 -0.41369 0
M  V30 3735 C 360.828 -1.10359 -1.52323 0
M  V30 3736 O 360.186 -0.092395 -1.81064 0
M  V30 3737 C 360.234 -3.48682 -0.919405 0
M  V30 3738 O 359.338 -3.58947 -2.03054 0
M  V30 3739 H 358.679 -0.657428 -0.0931903 0
M  V30 3740 H 361.209 -2.01679 0.34451 0
M  V30 3741 H 361.219 -3.8907 -1.22835 0
M  V30 3742 H 359.894 -4.15761 -0.107339 0
M  V30 3743 H 358.471 -3.30448 -1.72796 0
M  V30 3744 N 360.656 0.0484629 -1.57525 0
M  V30 3745 C 361.904 0.741657 -1.88 0
M  V30 3746 C 362.225 1.76918 -0.820054 0
M  V30 3747 O 361.495 1.95335 0.148661 0
M  V30 3748 H 360.075 0.276908 -0.69378 0
M  V30 3749 H 362.737 0.019013 -1.94891 0
M  V30 3750 H 361.833 1.24336 -2.86264 0
M  V30 3751 N 362.134 1.5431 0.320358 0
M  V30 3752 C 363.064 1.86912 1.3995 0
M  V30 3753 C 364.045 0.726211 1.53819 0
M  V30 3754 O 365.23 0.980233 1.67646 0
M  V30 3755 C 362.36 2.09932 2.7667 0
M  V30 3756 C 361.314 3.25776 2.77586 0
M  V30 3757 C 360.64 3.34173 4.17412 0
M  V30 3758 C 361.94 4.6335 2.41048 0
M  V30 3759 H 363.634 2.77292 1.12914 0
M  V30 3760 H 361.18 1.33421 0.541738 0
M  V30 3761 H 363.133 2.31324 3.52232 0
M  V30 3762 H 361.857 1.16304 3.0519 0
M  V30 3763 H 360.516 3.04276 2.04479 0
M  V30 3764 H 360.164 2.38098 4.43078 0
M  V30 3765 H 359.864 4.12033 4.18931 0
M  V30 3766 H 361.388 3.57803 4.94782 0
M  V30 3767 H 362.802 4.84602 3.06324 0
M  V30 3768 H 361.199 5.43782 2.53813 0
M  V30 3769 H 362.269 4.65381 1.36193 0
M  V30 3770 N 363.613 -0.582584 1.46437 0
M  V30 3771 C 364.545 -1.70618 1.53043 0
M  V30 3772 C 365.558 -1.57322 0.418769 0
M  V30 3773 O 366.747 -1.64744 0.687136 0
M  V30 3774 C 363.847 -3.08869 1.39474 0
M  V30 3775 C 363.02 -3.48166 2.64762 0
M  V30 3776 C 362.079 -4.65478 2.4539 0
M  V30 3777 O 361.105 -4.71333 3.19114 0
M  V30 3778 N 362.307 -5.60365 1.51564 0
M  V30 3779 H 365.072 -1.65405 2.49923 0
M  V30 3780 H 362.633 -0.768567 1.42494 0
M  V30 3781 H 364.625 -3.85143 1.24287 0
M  V30 3782 H 363.195 -3.08449 0.507758 0
M  V30 3783 H 362.415 -2.61598 2.9489 0
M  V30 3784 H 363.703 -3.71188 3.4799 0
M  V30 3785 H 363.101 -5.5837 0.907705 0
M  V30 3786 H 361.658 -6.36068 1.4234 0
M  V30 3787 N 365.091 -1.34144 -0.827227 0
M  V30 3788 C 366.502 -1.23557 -1.39966 0
M  V30 3789 C 366.853 0.140731 -1.95695 0
M  V30 3790 O 365.978 1.04087 -1.89723 0
M  V30 3791 C 366.573 -2.23708 -2.54441 0
M  V30 3792 C 365.132 -2.16924 -3.07605 0
M  V30 3793 C 364.279 -2.10549 -1.80456 0
M  V30 3794 H 367.23 -1.45573 -0.631991 0
M  V30 3795 H 367.251 -1.85157 -3.32411 0
M  V30 3796 H 366.763 -3.23866 -2.13851 0
M  V30 3797 H 364.864 -1.20107 -3.52711 0
M  V30 3798 H 364.977 -3.07988 -3.66988 0
M  V30 3799 H 363.341 -1.56203 -2.01178 0
M  V30 3800 H 364.124 -3.12535 -1.42046 0
M  V30 3801 N 366.569 1.04691 -1.17803 0
M  V30 3802 C 367.817 1.7743 -0.967617 0
M  V30 3803 C 368.138 1.88359 0.504574 0
M  V30 3804 O 367.408 1.40402 1.36617 0
M  V30 3805 H 365.988 0.657242 -0.355024 0
M  V30 3806 H 368.65 1.2638 -1.48371 0
M  V30 3807 H 367.746 2.78924 -1.40027 0
M  V30 3808 N 368.047 0.979072 1.23499 0
M  V30 3809 C 368.995 0.510604 2.26926 0
M  V30 3810 C 369.989 -0.431691 1.63807 0
M  V30 3811 O 371.195 -0.30573 1.77385 0
M  V30 3812 H 367.57 0.146688 0.737554 0
M  V30 3813 H 369.541 1.39466 2.63803 0
M  V30 3814 C 368.29 -0.172658 3.47271 0
M  V30 3815 H 367.613 0.543331 3.96091 0
M  V30 3816 H 369.053 -0.464101 4.21452 0
M  V30 3817 C 367.512 -1.40345 3.06276 0
M  V30 3818 O 368.042 -2.49978 3.14442 0
M  V30 3819 N 366.248 -1.27362 2.61203 0
M  V30 3820 H 365.795 -0.381584 2.54758 0
M  V30 3821 H 365.753 -2.09822 2.34141 0
M  V30 3822 N 369.525 -1.3858 0.750561 0
M  V30 3823 C 370.75 -2.04997 0.314812 0
M  V30 3824 C 371.175 -1.56235 -1.04749 0
M  V30 3825 O 370.533 -0.712981 -1.66692 0
M  V30 3826 C 370.581 -3.58961 0.343415 0
M  V30 3827 O 369.685 -4.07025 -0.663628 0
M  V30 3828 H 369.026 -0.649081 0.139962 0
M  V30 3829 H 371.556 -1.77313 1.02084 0
M  V30 3830 H 371.566 -4.07542 0.193233 0
M  V30 3831 H 370.241 -3.93811 1.33738 0
M  V30 3832 H 368.818 -3.6982 -0.478307 0
M  V30 3833 N 371.003 -0.499398 -1.49478 0
M  V30 3834 C 372.233 0.0424839 -2.06556 0
M  V30 3835 C 372.641 1.31514 -1.36018 0
M  V30 3836 O 371.984 1.78555 -0.431718 0
M  V30 3837 C 372.046 0.368074 -3.57611 0
M  V30 3838 C 371.71 -0.806631 -4.49825 0
M  V30 3839 C 372.707 -1.69667 -4.91436 0
M  V30 3840 C 370.392 -1.00498 -4.92144 0
M  V30 3841 C 372.386 -2.76923 -5.74101 0
M  V30 3842 C 370.073 -2.08072 -5.74586 0
M  V30 3843 C 371.071 -2.96119 -6.15469 0
M  V30 3844 O 370.759 -4.01836 -6.96264 0
M  V30 3845 H 370.491 -0.0165165 -0.675798 0
M  V30 3846 H 373.045 -0.695497 -1.93267 0
M  V30 3847 H 371.275 1.15963 -3.68903 0
M  V30 3848 H 372.964 0.848381 -3.96935 0
M  V30 3849 H 373.73 -1.55524 -4.59388 0
M  V30 3850 H 369.609 -0.329036 -4.59824 0
M  V30 3851 H 373.153 -3.45676 -6.05932 0
M  V30 3852 H 369.05 -2.22211 -6.06047 0
M  V30 3853 H 369.818 -3.9917 -7.14567 0
M  V30 3854 N 372.481 1.55866 -0.233164 0
M  V30 3855 C 373.727 1.99643 0.389148 0
M  V30 3856 C 374.082 1.11836 1.56558 0
M  V30 3857 O 373.375 0.170848 1.90837 0
M  V30 3858 C 373.569 3.46856 0.861724 0
M  V30 3859 C 373.398 4.48904 -0.267376 0
M  V30 3860 C 372.168 4.99888 -0.737577 0
M  V30 3861 C 374.366 5.02624 -1.08966 0
M  V30 3862 N 372.348 5.8566 -1.84052 0
M  V30 3863 C 373.719 5.85434 -2.04125 0
M  V30 3864 C 375.774 4.84959 -1.12779 0
M  V30 3865 C 374.477 6.52466 -3.02789 0
M  V30 3866 C 376.503 5.52759 -2.10266 0
M  V30 3867 C 375.865 6.35346 -3.04162 0
M  V30 3868 H 371.964 0.774402 0.108742 0
M  V30 3869 H 374.548 1.91572 -0.347596 0
M  V30 3870 H 372.719 3.55352 1.5678 0
M  V30 3871 H 374.451 3.77531 1.45783 0
M  V30 3872 H 371.206 4.7249 -0.324122 0
M  V30 3873 H 371.63 6.33246 -2.39434 0
M  V30 3874 H 376.272 4.20751 -0.415749 0
M  V30 3875 H 373.99 7.15849 -3.74948 0
M  V30 3876 H 377.576 5.41051 -2.13905 0
M  V30 3877 H 376.456 6.86883 -3.78366 0
M  V30 3878 N 373.959 -0.0401083 1.57549 0
M  V30 3879 C 374.889 -1.04384 2.08869 0
M  V30 3880 C 375.87 -1.38407 0.988817 0
M  V30 3881 O 377.055 -1.47483 1.26342 0
M  V30 3882 C 374.185 -2.34808 2.55895 0
M  V30 3883 C 373.139 -2.15057 3.70047 0
M  V30 3884 C 372.465 -3.51145 4.03239 0
M  V30 3885 C 373.765 -1.54576 4.98902 0
M  V30 3886 H 375.459 -0.616666 2.92981 0
M  V30 3887 H 373.005 -0.295184 1.40942 0
M  V30 3888 H 374.958 -3.05346 2.90417 0
M  V30 3889 H 373.682 -2.79565 1.68853 0
M  V30 3890 H 372.341 -1.46954 3.35857 0
M  V30 3891 H 371.989 -3.93529 3.13279 0
M  V30 3892 H 371.689 -3.38758 4.80122 0
M  V30 3893 H 373.213 -4.23062 4.40285 0
M  V30 3894 H 374.627 -2.15017 5.31451 0
M  V30 3895 H 373.024 -1.52796 5.80322 0
M  V30 3896 H 374.094 -0.51039 4.82206 0
M  V30 3897 N 375.437 -1.54477 -0.31217 0
M  V30 3898 C 376.369 -1.81011 -1.40598 0
M  V30 3899 C 377.382 -0.692546 -1.47335 0
M  V30 3900 O 378.571 -0.969847 -1.49854 0
M  V30 3901 C 375.671 -1.92307 -2.79054 0
M  V30 3902 C 374.844 -3.22594 -2.95384 0
M  V30 3903 C 373.903 -3.24448 -4.1427 0
M  V30 3904 O 372.929 -3.98035 -4.06887 0
M  V30 3905 N 374.131 -2.49042 -5.24365 0
M  V30 3906 H 376.896 -2.75408 -1.18196 0
M  V30 3907 H 374.457 -1.53914 -0.502202 0
M  V30 3908 H 376.449 -1.90962 -3.56813 0
M  V30 3909 H 375.019 -1.04955 -2.94454 0
M  V30 3910 H 374.239 -3.36806 -2.04831 0
M  V30 3911 H 375.527 -4.08593 -3.03198 0
M  V30 3912 H 374.925 -1.88867 -5.33241 0
M  V30 3913 H 373.482 -2.53463 -6.005 0
M  V30 3914 N 376.915 0.57481 -1.46744 0
M  V30 3915 C 377.845 1.69337 -1.60771 0
M  V30 3916 C 378.826 1.63825 -0.457736 0
M  V30 3917 O 380.011 1.8172 -0.684947 0
M  V30 3918 C 377.141 3.0798 -1.60517 0
M  V30 3919 C 376.095 3.28327 -2.74564 0
M  V30 3920 C 375.421 4.67578 -2.59373 0
M  V30 3921 C 376.721 3.15398 -4.16319 0
M  V30 3922 H 378.415 1.57853 -2.54407 0
M  V30 3923 H 375.961 0.75799 -1.22436 0
M  V30 3924 H 377.914 3.86061 -1.68923 0
M  V30 3925 H 376.638 3.20381 -0.634305 0
M  V30 3926 H 375.297 2.52649 -2.65639 0
M  V30 3927 H 374.945 4.76755 -1.60353 0
M  V30 3928 H 374.645 4.82144 -3.35873 0
M  V30 3929 H 376.169 5.47817 -2.69682 0
M  V30 3930 H 377.583 3.83315 -4.26313 0
M  V30 3931 H 375.98 3.41482 -4.93468 0
M  V30 3932 H 377.05 2.12372 -4.3592 0
M  V30 3933 N 378.394 1.34581 0.820102 0
M  V30 3934 C 379.81 1.14325 1.11364 0
M  V30 3935 C 380.01 -0.0533648 2.01429 0
M  V30 3936 O 379.066 -0.728044 2.41776 0
M  V30 3937 C 380.379 2.43983 1.75764 0
M  V30 3938 C 381.927 2.50065 1.88246 0
M  V30 3939 C 382.402 3.79732 2.56061 0
M  V30 3940 N 383.893 3.80908 2.63558 0
M  V30 3941 C 384.628 4.77961 3.16766 0
M  V30 3942 N 384.124 5.85397 3.70517 0
M  V30 3943 N 385.917 4.65413 3.15194 0
M  V30 3944 H 378.068 2.11246 0.221096 0
M  V30 3945 H 380.331 0.934289 0.160649 0
M  V30 3946 H 380.037 3.31651 1.1705 0
M  V30 3947 H 379.911 2.57531 2.75604 0
M  V30 3948 H 382.298 1.62834 2.46108 0
M  V30 3949 H 382.379 2.40442 0.873006 0
M  V30 3950 H 382.023 4.67354 1.98853 0
M  V30 3951 H 381.953 3.86639 3.57516 0
M  V30 3952 H 384.444 3.03274 2.25463 0
M  V30 3953 H 384.757 6.55463 4.09376 0
M  V30 3954 H 383.102 5.89107 3.68752 0
M  V30 3955 H 386.293 3.80627 2.72471 0
M  V30 3956 H 386.466 5.41216 3.56356 0
M  V30 3957 N 379.872 -1.04064 1.18357 0
M  V30 3958 C 381.097 -1.81454 1.00445 0
M  V30 3959 C 381.522 -1.82823 -0.442423 0
M  V30 3960 O 380.88 -1.24555 -1.31741 0
M  V30 3961 C 380.928 -3.24925 1.56384 0
M  V30 3962 O 380.032 -4.04856 0.785209 0
M  V30 3963 H 379.373 -0.560604 0.355835 0
M  V30 3964 H 381.903 -1.31059 1.57114 0
M  V30 3965 H 381.913 -3.75702 1.59097 0
M  V30 3966 H 380.588 -3.23244 2.61699 0
M  V30 3967 H 379.165 -3.63537 0.830399 0
M  V30 3968 N 381.35 -0.985608 -1.22978 0
M  V30 3969 C 382.26 -0.538548 -2.28335 0
M  V30 3970 C 383.276 0.409163 -1.69121 0
M  V30 3971 O 384.452 0.277797 -1.99475 0
M  V30 3972 C 381.517 0.146867 -3.46389 0
M  V30 3973 C 380.578 -0.842896 -4.20944 0
M  V30 3974 C 379.811 -0.190095 -5.33361 0
M  V30 3975 O 380.034 1.01767 -5.61248 0
M  V30 3976 O 378.968 -0.891289 -5.95264 0
M  V30 3977 H 382.794 -1.41487 -2.68729 0
M  V30 3978 H 380.379 -0.753495 -1.29007 0
M  V30 3979 H 382.261 0.531125 -4.1804 0
M  V30 3980 H 380.936 0.997871 -3.07935 0
M  V30 3981 H 379.843 -1.27795 -3.51595 0
M  V30 3982 H 381.176 -1.66287 -4.6326 0
M  V30 3983 N 382.828 1.3818 -0.7579 0
M  V30 3984 C 384.239 1.82726 -0.383134 0
M  V30 3985 C 384.59 1.63214 1.08884 0
M  V30 3986 O 383.715 1.13566 1.84205 0
M  V30 3987 C 384.31 3.31728 -0.688631 0
M  V30 3988 C 382.869 3.74606 -0.367091 0
M  V30 3989 C 382.016 2.60896 -0.939599 0
M  V30 3990 H 384.967 1.26847 -0.953699 0
M  V30 3991 H 384.988 3.80487 0.0316492 0
M  V30 3992 H 384.5 3.45898 -1.76001 0
M  V30 3993 H 382.601 3.66013 0.697532 0
M  V30 3994 H 382.714 4.71215 -0.865658 0
M  V30 3995 H 381.078 2.52075 -0.3647 0
M  V30 3996 H 381.861 2.77864 -2.0161 0
M  V30 3997 N 384.306 0.507319 1.49211 0
M  V30 3998 C 385.583 -0.0982702 1.95353 0
M  V30 3999 C 385.963 -1.53516 1.449 0
M  V30 4000 O 385.311 -2.18594 0.66551 0
M  V30 4001 C 385.521 -0.00440283 3.49 0
M  V30 4002 C 386.869 -0.175147 4.24239 0
M  V30 4003 O 387.893 -0.0792891 3.56112 0
M  V30 4004 O 386.752 -0.37276 5.45227 0
M  V30 4005 H 383.846 -0.0918236 0.821887 0
M  V30 4006 H 386.392 0.570307 1.5983 0
M  V30 4007 H 385.164 0.997402 3.78375 0
M  V30 4008 H 384.787 -0.712845 3.91158 0
M  V30 4009 N 385.784 -1.5574 0.241426 0
M  V30 4010 C 387.032 -1.98417 -0.384075 0
M  V30 4011 C 387.353 -1.13078 -1.58866 0
M  V30 4012 O 386.623 -0.212312 -1.94746 0
M  V30 4013 H 385.203 -0.732813 -0.144894 0
M  V30 4014 H 387.865 -1.9193 0.338943 0
M  V30 4015 H 386.961 -3.04219 -0.696939 0
M  V30 4016 N 387.262 0.0317525 -1.57568 0
M  V30 4017 C 388.511 0.722131 -1.8833 0
M  V30 4018 C 388.824 1.76664 -0.839587 0
M  V30 4019 O 390.03 2.50942 -1.03635 0
M  V30 4020 C 388.486 1.33544 -3.34207 0
M  V30 4021 C 388.094 0.327415 -4.46802 0
M  V30 4022 C 389.838 2.00585 -3.7412 0
M  V30 4023 C 387.745 0.948915 -5.83738 0
M  V30 4024 H 386.675 0.273466 -0.702661 0
M  V30 4025 H 389.326 -0.0235811 -1.83485 0
M  V30 4026 H 387.708 2.13077 -3.33788 0
M  V30 4027 H 388.882 -0.441006 -4.58685 0
M  V30 4028 H 387.197 -0.240758 -4.15703 0
M  V30 4029 H 389.794 2.47932 -4.73744 0
M  V30 4030 H 390.137 2.82285 -3.05975 0
M  V30 4031 H 390.67 1.27831 -3.76702 0
M  V30 4032 H 387.409 0.171387 -6.55276 0
M  V30 4033 H 386.929 1.68724 -5.7558 0
M  V30 4034 H 388.608 1.45705 -6.3038 0
M  V30 4035 N 388.74 1.54641 0.303973 0
M  V30 4036 C 389.965 1.78092 1.06292 0
M  V30 4037 C 390.39 0.537342 1.80262 0
M  V30 4038 O 389.748 -0.511993 1.7392 0
M  V30 4039 C 389.796 2.98612 2.02147 0
M  V30 4040 O 388.9 2.71528 3.10397 0
M  V30 4041 H 388.241 0.589548 0.305497 0
M  V30 4042 H 390.771 2.01716 0.3423 0
M  V30 4043 H 390.781 3.265 2.44667 0
M  V30 4044 H 389.456 3.88785 1.47714 0
M  V30 4045 H 388.033 2.54648 2.72413 0
M  V30 4046 N 390.218 -0.567019 1.47046 0
M  V30 4047 C 391.148 -1.68482 1.61667 0
M  V30 4048 C 392.129 -1.6358 0.466418 0
M  V30 4049 O 393.314 -1.81354 0.694574 0
M  V30 4050 C 390.444 -3.07124 1.62148 0
M  V30 4051 C 389.398 -3.26867 2.76301 0
M  V30 4052 C 388.724 -4.66196 2.61849 0
M  V30 4053 C 390.024 -3.13186 4.17986 0
M  V30 4054 H 391.718 -1.56502 2.5524 0
M  V30 4055 H 389.264 -0.751486 1.22836 0
M  V30 4056 H 391.217 -3.8516 1.70968 0
M  V30 4057 H 389.941 -3.2004 0.651287 0
M  V30 4058 H 388.6 -2.51237 2.66975 0
M  V30 4059 H 388.248 -4.75898 1.62879 0
M  V30 4060 H 387.948 -4.80356 3.38425 0
M  V30 4061 H 389.472 -5.46379 2.72584 0
M  V30 4062 H 390.886 -3.81049 4.2834 0
M  V30 4063 H 389.283 -3.3886 4.95272 0
M  V30 4064 H 390.353 -2.10057 4.3704 0
M  V30 4065 N 391.696 -1.35014 -0.812953 0
M  V30 4066 C 392.944 -1.27678 -1.56661 0
M  V30 4067 C 393.265 0.150359 -1.94419 0
M  V30 4068 O 392.535 1.08532 -1.63088 0
M  V30 4069 H 391.115 -0.469602 -0.580933 0
M  V30 4070 H 393.777 -1.69043 -0.970076 0
M  V30 4071 H 392.873 -1.88833 -2.48492 0
M  V30 4072 N 393.175 1.03435 -1.18907 0
M  V30 4073 C 394.423 1.76394 -0.986382 0
M  V30 4074 C 394.744 1.88883 0.484567 0
M  V30 4075 O 394.014 1.41843 1.3512 0
M  V30 4076 H 392.594 0.65344 -0.361975 0
M  V30 4077 H 395.256 1.248 -1.49703 0
M  V30 4078 H 394.352 2.77424 -1.42978 0
M  V30 4079 N 394.653 0.992116 1.22453 0
M  V30 4080 C 395.878 0.685644 1.95739 0
M  V30 4081 C 396.303 -0.743 1.72804 0
M  V30 4082 O 395.661 -1.50778 1.00676 0
M  V30 4083 C 395.709 0.996293 3.46564 0
M  V30 4084 O 394.813 0.0945512 4.12292 0
M  V30 4085 H 394.154 0.256694 0.612376 0
M  V30 4086 H 396.684 1.32888 1.5557 0
M  V30 4087 H 396.694 0.93781 3.97076 0
M  V30 4088 H 395.369 2.03733 3.62582 0
M  V30 4089 H 393.946 0.208451 3.72317 0
M  V30 4090 N 396.131 -1.37776 0.765217 0
M  V30 4091 C 397.377 -2.00604 0.336066 0
M  V30 4092 C 397.732 -1.59657 -1.07366 0
M  V30 4093 O 397.025 -0.829565 -1.7271 0
M  V30 4094 C 397.219 -3.5504 0.410053 0
M  V30 4095 C 397.048 -4.10985 1.82542 0
M  V30 4096 C 395.818 -4.42229 2.44461 0
M  V30 4097 C 398.016 -4.32438 2.78392 0
M  V30 4098 N 395.998 -4.8385 3.77839 0
M  V30 4099 C 397.369 -4.76596 3.96556 0
M  V30 4100 C 399.424 -4.14559 2.75764 0
M  V30 4101 C 398.127 -5.04748 5.12466 0
M  V30 4102 C 400.153 -4.43843 3.90842 0
M  V30 4103 C 399.515 -4.88235 5.07746 0
M  V30 4104 H 395.614 -0.763325 0.169881 0
M  V30 4105 H 398.198 -1.67197 0.997656 0
M  V30 4106 H 396.369 -3.87769 -0.221325 0
M  V30 4107 H 398.101 -4.0468 -0.0405285 0
M  V30 4108 H 394.856 -4.31079 1.96131 0
M  V30 4109 H 395.28 -5.08979 4.46396 0
M  V30 4110 H 399.922 -3.79415 1.86558 0
M  V30 4111 H 397.64 -5.38783 6.02277 0
M  V30 4112 H 401.226 -4.31603 3.90141 0
M  V30 4113 H 400.106 -5.10461 5.95315 0
M  V30 4114 N 397.609 -0.515225 -1.4894 0
M  V30 4115 C 398.857 0.0241671 -2.02086 0
M  V30 4116 C 399.178 1.3616 -1.3959 0
M  V30 4117 O 398.448 1.87841 -0.556121 0
M  V30 4118 H 397.028 0.0119203 -0.746905 0
M  V30 4119 H 399.69 -0.675702 -1.82812 0
M  V30 4120 H 398.786 0.143385 -3.1177 0
M  V30 4121 N 399.087 1.5561 -0.249682 0
M  V30 4122 C 400.312 2.03865 0.381305 0
M  V30 4123 C 400.737 1.12769 1.50548 0
M  V30 4124 O 400.095 0.121189 1.80895 0
M  V30 4125 C 400.143 3.50101 0.863816 0
M  V30 4126 O 399.247 3.62132 1.97318 0
M  V30 4127 H 398.588 0.658827 0.0827194 0
M  V30 4128 H 401.118 2.01105 -0.376552 0
M  V30 4129 H 401.128 3.90975 1.1663 0
M  V30 4130 H 399.803 4.1588 0.0411816 0
M  V30 4131 H 398.38 3.33155 1.67517 0
M  V30 4132 N 400.565 -0.0233959 1.57583 0
M  V30 4133 C 401.811 -0.708611 1.90657 0
M  V30 4134 C 402.166 -1.7266 0.848895 0
M  V30 4135 O 401.459 -1.91075 -0.141749 0
M  V30 4136 C 401.653 -1.41428 3.28227 0
M  V30 4137 C 401.482 -0.466155 4.47277 0
M  V30 4138 C 400.252 -0.085117 5.05228 0
M  V30 4139 C 402.45 0.257836 5.13653 0
M  V30 4140 N 400.432 0.863672 6.07794 0
M  V30 4141 C 401.803 1.06209 6.10835 0
M  V30 4142 C 403.858 0.324174 4.96844 0
M  V30 4143 C 402.561 1.9266 6.93018 0
M  V30 4144 C 404.587 1.17583 5.79593 0
M  V30 4145 C 403.949 1.96799 6.7635 0
M  V30 4146 H 400.048 -0.233222 0.746412 0
M  V30 4147 H 402.632 0.0314512 1.94675 0
M  V30 4148 H 400.803 -2.12477 3.25128 0
M  V30 4149 H 402.535 -2.05233 3.488 0
M  V30 4150 H 399.29 -0.448516 4.71471 0
M  V30 4151 H 399.714 1.33274 6.63752 0
M  V30 4152 H 404.356 -0.273975 4.21911 0
M  V30 4153 H 402.074 2.53552 7.67292 0
M  V30 4154 H 405.66 1.23076 5.68633 0
M  V30 4155 H 404.54 2.61635 7.39268 0
M  V30 4156 N 402.043 -1.548 -0.295768 0
M  V30 4157 C 403.268 -1.78653 -1.05346 0
M  V30 4158 C 403.693 -0.546894 -1.79974 0
M  V30 4159 O 403.051 0.502763 -1.7419 0
M  V30 4160 C 403.099 -2.99679 -2.00561 0
M  V30 4161 O 402.203 -2.7317 -3.08953 0
M  V30 4162 H 401.544 -0.59116 -0.302367 0
M  V30 4163 H 404.074 -2.01895 -0.331598 0
M  V30 4164 H 404.084 -3.27793 -2.42932 0
M  V30 4165 H 402.759 -3.89562 -1.4565 0
M  V30 4166 H 401.336 -2.56089 -2.71059 0
M  V30 4167 N 403.521 0.559213 -1.47345 0
M  V30 4168 C 404.451 1.67622 -1.62558 0
M  V30 4169 C 405.432 1.63331 -0.475087 0
M  V30 4170 O 406.617 1.80983 -0.704182 0
M  V30 4171 C 403.747 3.0626 -1.63774 0
M  V30 4172 C 402.701 3.25397 -2.7803 0
M  V30 4173 C 402.027 4.64801 -2.64318 0
M  V30 4174 C 403.327 3.10965 -4.19641 0
M  V30 4175 H 405.021 1.55146 -2.56067 0
M  V30 4176 H 402.567 0.744961 -1.23233 0
M  V30 4177 H 404.52 3.84247 -1.73008 0
M  V30 4178 H 403.244 3.1969 -0.66825 0
M  V30 4179 H 401.903 2.49817 -2.68304 0
M  V30 4180 H 401.551 4.75028 -1.65401 0
M  V30 4181 H 401.251 4.78555 -3.40968 0
M  V30 4182 H 402.775 5.44926 -2.75478 0
M  V30 4183 H 404.189 3.78772 -4.30354 0
M  V30 4184 H 402.586 3.36229 -4.97062 0
M  V30 4185 H 403.656 2.07736 -4.38148 0
M  V30 4186 N 404.999 1.35443 0.805782 0
M  V30 4187 C 406.41 1.25768 1.37983 0
M  V30 4188 C 406.761 -0.10958 1.95894 0
M  V30 4189 O 405.886 -1.01056 1.91355 0
M  V30 4190 C 406.481 2.27727 2.5085 0
M  V30 4191 C 405.04 2.2179 3.04115 0
M  V30 4192 C 404.187 2.13393 1.77084 0
M  V30 4193 H 407.138 1.4656 0.608752 0
M  V30 4194 H 407.159 1.90422 3.29424 0
M  V30 4195 H 406.671 3.27227 2.08671 0
M  V30 4196 H 404.772 1.25703 3.50756 0
M  V30 4197 H 404.885 3.13788 3.62042 0
M  V30 4198 H 403.249 1.59384 1.98668 0
M  V30 4199 H 404.032 3.14755 1.37056 0
M  V30 4200 N 406.477 -1.02803 1.19454 0
M  V30 4201 C 407.723 -1.76478 0.999171 0
M  V30 4202 C 408.056 -1.88456 -0.468828 0
M  V30 4203 O 407.331 -1.40198 -1.34814 0
M  V30 4204 C 407.614 -3.19044 1.66981 0
M  V30 4205 C 407.467 -3.14932 3.21151 0
M  V30 4206 C 408.786 -4.17456 1.39349 0
M  V30 4207 H 405.905 -0.640614 0.364393 0
M  V30 4208 H 408.547 -1.20005 1.47305 0
M  V30 4209 H 406.697 -3.67263 1.2669 0
M  V30 4210 H 408.369 -2.74605 3.70661 0
M  V30 4211 H 406.612 -2.52625 3.52652 0
M  V30 4212 H 407.283 -4.1566 3.63223 0
M  V30 4213 H 409.759 -3.77842 1.74283 0
M  V30 4214 H 408.635 -5.154 1.88823 0
M  V30 4215 H 408.896 -4.40949 0.318813 0
M  V30 4216 N 407.956 -0.998596 -1.21925 0
M  V30 4217 C 409.184 -0.696286 -1.94832 0
M  V30 4218 C 409.599 0.740032 -1.73692 0
M  V30 4219 O 408.956 1.5 -1.03953 0
M  V30 4220 C 409.007 -0.999833 -3.47398 0
M  V30 4221 O 408.728 -2.37972 -3.67833 0
M  V30 4222 C 410.229 -0.716025 -4.37479 0
M  V30 4223 H 407.449 -0.257111 -0.619786 0
M  V30 4224 H 409.993 -1.33491 -1.54921 0
M  V30 4225 H 408.148 -0.406918 -3.85257 0
M  V30 4226 H 408.562 -2.48338 -4.61983 0
M  V30 4227 H 410.036 -0.978642 -5.43256 0
M  V30 4228 H 410.513 0.349968 -4.37803 0
M  V30 4229 H 411.119 -1.29025 -4.05256 0
M  V30 4230 N 409.434 1.37368 -0.772513 0
M  V30 4231 C 410.68 1.99969 -0.337681 0
M  V30 4232 C 411.013 1.61184 1.08321 0
M  V30 4233 O 410.288 0.858395 1.74533 0
M  V30 4234 C 410.571 3.56858 -0.482121 0
M  V30 4235 C 410.424 4.0555 -1.94549 0
M  V30 4236 C 411.743 4.39955 0.113143 0
M  V30 4237 H 408.862 0.726464 -0.124171 0
M  V30 4238 H 411.504 1.63034 -0.975699 0
M  V30 4239 H 409.654 3.88452 0.0610361 0
M  V30 4240 H 411.326 3.84518 -2.54841 0
M  V30 4241 H 409.569 3.57715 -2.45403 0
M  V30 4242 H 410.24 5.14587 -1.9976 0
M  V30 4243 H 412.716 4.14623 -0.35031 0
M  V30 4244 H 411.592 5.48897 -0.0180514 0
M  V30 4245 H 411.853 4.25403 1.20354 0
M  V30 4246 N 410.912 0.523116 1.48665 0
M  V30 4247 C 412.189 -0.0775449 1.95446 0
M  V30 4248 C 412.569 -1.5197 1.4652 0
M  V30 4249 O 411.917 -2.17876 0.688657 0
M  V30 4250 C 412.127 0.0326135 3.48985 0
M  V30 4251 C 413.475 -0.130141 4.24401 0
M  V30 4252 O 414.499 -0.0415142 3.56176 0
M  V30 4253 O 413.358 -0.31491 5.45592 0
M  V30 4254 H 410.452 -0.0831012 0.822814 0
M  V30 4255 H 412.998 0.587227 1.59216 0
M  V30 4256 H 411.77 1.03748 3.77296 0
M  V30 4257 H 411.393 -0.671317 3.91892 0
M  V30 4258 N 412.39 -1.55475 0.257931 0
M  V30 4259 C 413.32 -2.24815 -0.630912 0
M  V30 4260 C 414.301 -1.23224 -1.17259 0
M  V30 4261 O 415.486 -1.51904 -1.20991 0
M  V30 4262 C 412.616 -2.95609 -1.82298 0
M  V30 4263 C 411.57 -4.03982 -1.41359 0
M  V30 4264 C 410.896 -4.6226 -2.68738 0
M  V30 4265 C 412.196 -5.19109 -0.57648 0
M  V30 4266 H 413.89 -2.99354 -0.0526878 0
M  V30 4267 H 411.436 -1.4398 -0.023901 0
M  V30 4268 H 413.389 -3.42822 -2.45054 0
M  V30 4269 H 412.113 -2.18577 -2.42676 0
M  V30 4270 H 410.772 -3.57555 -0.809324 0
M  V30 4271 H 410.42 -3.81915 -3.27338 0
M  V30 4272 H 410.12 -5.35424 -2.42065 0
M  V30 4273 H 411.644 -5.12212 -3.32372 0
M  V30 4274 H 413.058 -5.62479 -1.10861 0
M  V30 4275 H 411.455 -5.98729 -0.405351 0
M  V30 4276 H 412.525 -4.83174 0.408776 0
M  V30 4277 N 413.868 0.0150385 -1.57593 0
M  V30 4278 C 415.279 0.559832 -1.78109 0
M  V30 4279 C 415.63 1.74814 -0.890756 0
M  V30 4280 O 414.755 2.16216 -0.0892482 0
M  V30 4281 C 415.35 1.02238 -3.23006 0
M  V30 4282 C 413.909 1.51258 -3.44671 0
M  V30 4283 C 413.056 0.456955 -2.73509 0
M  V30 4284 H 416.007 -0.211169 -1.57289 0
M  V30 4285 H 416.028 1.88912 -3.30292 0
M  V30 4286 H 415.54 0.157302 -3.87781 0
M  V30 4287 H 413.641 2.39905 -2.8509 0
M  V30 4288 H 413.754 1.55042 -4.5332 0
M  V30 4289 H 412.118 0.915196 -2.37689 0
M  V30 4290 H 412.901 -0.398896 -3.40975 0
M  V30 4291 N 415.346 1.54954 0.287554 0
M  V30 4292 C 416.594 1.74528 1.01904 0
M  V30 4293 C 416.915 0.541349 1.87335 0
M  V30 4294 O 416.185 -0.444108 1.908 0
M  V30 4295 H 414.765 0.643576 0.379235 0
M  V30 4296 H 417.427 1.92333 0.315294 0
M  V30 4297 H 416.523 2.64015 1.6644 0
M  V30 4298 N 416.824 -0.551391 1.4764 0
M  V30 4299 C 418.101 -1.31229 1.45046 0
M  V30 4300 C 418.481 -2.10563 0.150527 0
M  V30 4301 O 417.829 -2.11374 -0.867956 0
M  V30 4302 C 418.039 -2.21189 2.69956 0
M  V30 4303 C 419.387 -2.82021 3.1741 0
M  V30 4304 O 420.411 -2.31488 2.70724 0
M  V30 4305 O 419.27 -3.73885 3.98588 0
M  V30 4306 H 416.364 -0.591193 0.578291 0
M  V30 4307 H 418.91 -0.569813 1.59847 0
M  V30 4308 H 417.682 -1.62207 3.56096 0
M  V30 4309 H 417.305 -3.02722 2.57769 0
M  V30 4310 N 418.302 -1.35869 -0.798587 0
M  V30 4311 C 419.265 -1.29307 -1.89242 0
M  V30 4312 C 420.265 -0.202747 -1.59517 0
M  V30 4313 O 421.455 -0.456957 -1.681 0
M  V30 4314 C 418.587 -1.00229 -3.25833 0
M  V30 4315 H 419.78 -2.26576 -1.96478 0
M  V30 4316 H 417.333 -1.20509 -0.995358 0
M  V30 4317 H 418.068 -0.033801 -3.24282 0
M  V30 4318 H 417.853 -1.79121 -3.48795 0
M  V30 4319 H 419.343 -0.98219 -4.05885 0
M  V30 4320 N 419.78 1.02168 -1.19998 0
M  V30 4321 C 421.026 1.75945 -1.00852 0
M  V30 4322 C 421.359 1.88702 0.458828 0
M  V30 4323 O 420.634 1.40911 1.34069 0
M  V30 4324 C 420.917 3.18154 -1.68671 0
M  V30 4325 C 420.77 3.13224 -3.22817 0
M  V30 4326 C 422.089 4.16711 -1.41561 0
M  V30 4327 H 419.208 0.638673 -0.367785 0
M  V30 4328 H 421.85 1.19222 -1.4794 0
M  V30 4329 H 420 3.66586 -1.28636 0
M  V30 4330 H 421.672 2.72635 -3.72112 0
M  V30 4331 H 419.915 2.50751 -3.53986 0
M  V30 4332 H 420.586 4.13728 -3.65422 0
M  V30 4333 H 423.062 3.76913 -1.76284 0
M  V30 4334 H 421.938 5.14391 -1.91553 0
M  V30 4335 H 422.199 4.40774 -0.342193 0
M  V30 4336 N 421.258 1.00505 1.21394 0
M  V30 4337 C 422.221 0.570459 2.21987 0
M  V30 4338 C 423.221 -0.353211 1.56873 0
M  V30 4339 O 424.411 -0.14349 1.73608 0
M  V30 4340 C 421.543 -0.168555 3.40483 0
M  V30 4341 H 422.736 1.46021 2.6195 0
M  V30 4342 H 420.289 0.793565 1.34656 0
M  V30 4343 H 421.024 -1.07374 3.06009 0
M  V30 4344 H 420.809 0.494823 3.88965 0
M  V30 4345 H 422.299 -0.460362 4.15055 0
M  V30 4346 N 422.737 -1.36956 0.779787 0
M  V30 4347 C 423.667 -2.32761 0.185651 0
M  V30 4348 C 424.648 -1.56177 -0.673989 0
M  V30 4349 O 425.833 -1.84378 -0.609797 0
M  V30 4350 C 422.963 -3.40418 -0.687964 0
M  V30 4351 C 421.917 -4.27941 0.0710102 0
M  V30 4352 C 421.243 -5.26681 -0.922573 0
M  V30 4353 C 422.543 -5.07006 1.25467 0
M  V30 4354 H 424.237 -2.82698 0.986008 0
M  V30 4355 H 421.783 -1.3592 0.475592 0
M  V30 4356 H 423.736 -4.06423 -1.11348 0
M  V30 4357 H 422.46 -2.89025 -1.52093 0
M  V30 4358 H 421.119 -3.63478 0.47739 0
M  V30 4359 H 420.767 -4.71565 -1.7503 0
M  V30 4360 H 420.467 -5.86103 -0.419237 0
M  V30 4361 H 421.991 -5.9556 -1.34686 0
M  V30 4362 H 423.405 -5.66105 0.905401 0
M  V30 4363 H 421.802 -5.75793 1.69063 0
M  V30 4364 H 422.872 -4.3921 2.05481 0
M  V30 4365 N 424.215 -0.530993 -1.48385 0
M  V30 4366 C 425.463 0.00273189 -2.021 0
M  V30 4367 C 425.784 1.34672 -1.41027 0
M  V30 4368 O 425.054 1.8724 -0.576012 0
M  V30 4369 H 423.634 0.00399774 -0.746989 0
M  V30 4370 H 426.296 -0.695054 -1.82085 0
M  V30 4371 H 425.392 0.11031 -3.11905 0
M  V30 4372 N 425.693 1.55336 -0.266172 0
M  V30 4373 C 426.623 2.25146 0.618981 0
M  V30 4374 C 427.604 1.23845 1.16604 0
M  V30 4375 O 428.789 1.52544 1.20183 0
M  V30 4376 C 425.919 2.96572 1.80728 0
M  V30 4377 C 424.873 4.04726 1.39215 0
M  V30 4378 C 424.199 4.63678 2.66283 0
M  V30 4379 C 425.499 5.19407 0.548942 0
M  V30 4380 H 427.193 2.99377 0.0368116 0
M  V30 4381 H 424.739 1.43991 0.0162651 0
M  V30 4382 H 426.692 3.44116 2.43232 0
M  V30 4383 H 425.416 2.19861 2.41514 0
M  V30 4384 H 424.075 3.57979 0.790351 0
M  V30 4385 H 423.723 3.83646 3.25308 0
M  V30 4386 H 423.423 5.367 2.39222 0
M  V30 4387 H 424.947 5.13967 3.29651 0
M  V30 4388 H 426.361 5.63059 1.07876 0
M  V30 4389 H 424.758 5.98936 0.373593 0
M  V30 4390 H 425.828 4.8295 -0.434394 0
M  V30 4391 N 427.171 -0.0066808 1.57599 0
M  V30 4392 C 428.103 -1.02827 2.04839 0
M  V30 4393 C 429.116 -1.31108 0.965113 0
M  V30 4394 O 430.305 -1.28202 1.24203 0
M  V30 4395 C 427.405 -2.36464 2.42771 0
M  V30 4396 C 426.578 -2.27219 3.73751 0
M  V30 4397 C 425.637 -3.43489 3.98625 0
M  V30 4398 O 424.663 -3.21976 4.69382 0
M  V30 4399 N 425.865 -4.66116 3.46 0
M  V30 4400 H 428.63 -0.625455 2.93101 0
M  V30 4401 H 426.191 -0.194198 1.60731 0
M  V30 4402 H 428.183 -3.13008 2.56531 0
M  V30 4403 H 426.753 -2.68512 1.60063 0
M  V30 4404 H 425.973 -1.35629 3.70133 0
M  V30 4405 H 427.261 -2.18208 4.59633 0
M  V30 4406 H 426.659 -4.86493 2.88688 0
M  V30 4407 H 425.216 -5.39949 3.65101 0
M  V30 4408 N 428.649 -1.55105 -0.279332 0
M  V30 4409 C 429.889 -1.7716 -1.01949 0
M  V30 4410 C 430.253 -0.557511 -1.83728 0
M  V30 4411 O 431.454 -0.656198 -2.60667 0
M  V30 4412 C 429.725 -3.0372 -1.88385 0
M  V30 4413 S 431.284 -3.46868 -2.68752 0
M  V30 4414 H 428.102 -0.62253 -0.343478 0
M  V30 4415 H 430.704 -1.93329 -0.290572 0
M  V30 4416 H 429.408 -3.90184 -1.2722 0
M  V30 4417 H 428.939 -2.902 -2.65608 0
M  V30 4418 H 430.954 -3.05643 -3.90892 0
M  V30 4419 N 430.127 0.543554 -1.4793 0
M  V30 4420 C 431.374 1.30008 -1.55255 0
M  V30 4421 C 431.702 1.93245 -0.220612 0
M  V30 4422 O 430.957 1.79141 0.787843 0
M  V30 4423 C 431.256 2.42078 -2.62932 0
M  V30 4424 C 430.922 1.96583 -4.0579 0
M  V30 4425 C 429.584 1.83893 -4.44676 0
M  V30 4426 C 431.936 1.62034 -4.95373 0
M  V30 4427 C 429.264 1.34969 -5.70964 0
M  V30 4428 C 431.616 1.14577 -6.22137 0
M  V30 4429 C 430.28 1.00493 -6.59892 0
M  V30 4430 H 429.55 0.475735 -0.568117 0
M  V30 4431 H 432.197 0.608075 -1.81589 0
M  V30 4432 H 430.502 3.16892 -2.30406 0
M  V30 4433 H 432.199 3.00236 -2.65818 0
M  V30 4434 H 428.789 2.07407 -3.75074 0
M  V30 4435 H 432.973 1.70705 -4.66019 0
M  V30 4436 H 428.229 1.2274 -5.98953 0
M  V30 4437 H 432.403 0.869109 -6.90955 0
M  V30 4438 H 430.03 0.623624 -7.57638 0
M  V30 4439 N 431.605 1.3629 0.791371 0
M  V30 4440 C 432.833 1.33562 1.58016 0
M  V30 4441 C 433.248 -0.0835616 1.88615 0
M  V30 4442 O 432.605 -1.0399 1.49974 0
M  V30 4443 C 432.656 2.15517 2.90232 0
M  V30 4444 O 432.377 3.51902 2.60953 0
M  V30 4445 C 433.878 2.20546 3.84544 0
M  V30 4446 H 431.098 0.458226 0.490173 0
M  V30 4447 H 433.642 1.79361 0.982345 0
M  V30 4448 H 431.797 1.73278 3.46487 0
M  V30 4449 H 432.211 3.94644 3.4548 0
M  V30 4450 H 433.685 2.82252 4.74382 0
M  V30 4451 H 434.162 1.20838 4.2225 0
M  V30 4452 H 434.768 2.63013 3.34222 0
M  V30 4453 N 433.083 -1.0153 1.20538 0
M  V30 4454 C 434.013 -2.11972 0.979295 0
M  V30 4455 C 434.994 -1.6985 -0.0921787 0
M  V30 4456 O 436.179 -1.94089 0.0655932 0
M  V30 4457 C 433.309 -3.43201 0.531984 0
M  V30 4458 C 432.263 -3.9907 1.54685 0
M  V30 4459 C 431.589 -5.26082 0.956127 0
M  V30 4460 C 432.889 -4.32313 2.93092 0
M  V30 4461 H 434.583 -2.31143 1.90298 0
M  V30 4462 H 432.129 -1.11079 0.916372 0
M  V30 4463 H 434.082 -4.1985 0.361044 0
M  V30 4464 H 432.806 -3.23792 -0.427327 0
M  V30 4465 H 431.465 -3.2453 1.70517 0
M  V30 4466 H 431.113 -5.02999 -0.0111538 0
M  V30 4467 H 430.813 -5.64426 1.63393 0
M  V30 4468 H 432.337 -6.05386 0.796284 0
M  V30 4469 H 433.751 -4.99845 2.80763 0
M  V30 4470 H 432.148 -4.81774 3.57791 0
M  V30 4471 H 433.218 -3.41025 3.44717 0
M  V30 4472 N 434.561 -1.01147 -1.20859 0
M  V30 4473 C 435.838 -0.613136 -1.85742 0
M  V30 4474 C 436.218 0.909004 -1.90526 0
M  V30 4475 O 435.566 1.79862 -1.40932 0
M  V30 4476 C 435.776 -1.255 -3.25654 0
M  V30 4477 C 437.124 -1.3672 -4.01986 0
M  V30 4478 O 438.148 -1.21082 -3.34989 0
M  V30 4479 O 437.007 -1.6194 -5.21956 0
M  V30 4480 H 434.101 -0.210878 -0.799662 0
M  V30 4481 H 436.647 -1.10853 -1.2849 0
M  V30 4482 H 435.419 -2.29532 -3.16908 0
M  V30 4483 H 435.042 -0.746369 -3.90532 0
M  V30 4484 N 436.039 1.36541 -0.78704 0
M  V30 4485 C 436.969 2.32659 -0.197992 0
M  V30 4486 C 437.95 1.56533 0.665697 0
M  V30 4487 O 439.135 1.84698 0.60001 0
M  V30 4488 C 436.265 3.40778 0.669901 0
M  V30 4489 C 435.219 4.27897 -0.0937039 0
M  V30 4490 C 434.545 5.27163 0.894629 0
M  V30 4491 C 435.845 5.06334 -1.28154 0
M  V30 4492 H 437.539 2.82171 -1.00099 0
M  V30 4493 H 435.085 1.35665 -0.482793 0
M  V30 4494 H 437.038 4.07008 1.09191 0
M  V30 4495 H 435.762 2.89827 1.50558 0
M  V30 4496 H 434.421 3.6322 -0.49666 0
M  V30 4497 H 434.069 4.72486 1.72527 0
M  V30 4498 H 433.769 5.86317 0.388149 0
M  V30 4499 H 435.293 5.96266 1.31525 0
M  V30 4500 H 436.707 5.65617 -0.93541 0
M  V30 4501 H 435.104 5.74888 -1.72115 0
M  V30 4502 H 436.174 4.38114 -2.07807 0
M  V30 4503 N 437.518 0.538854 1.48102 0
M  V30 4504 C 438.465 -0.219042 2.29758 0
M  V30 4505 C 439.435 -0.925562 1.37922 0
M  V30 4506 O 440.62 -0.924855 1.66886 0
M  V30 4507 C 437.76 -1.25452 3.2149 0
M  V30 4508 C 436.873 -0.555943 4.28408 0
M  V30 4509 C 436.008 -1.57512 5.0731 0
M  V30 4510 C 435.047 -0.860498 6.06021 0
M  V30 4511 N 434.184 -1.82564 6.77949 0
M  V30 4512 H 439.024 0.483449 2.94052 0
M  V30 4513 H 436.561 0.250247 1.44956 0
M  V30 4514 H 438.519 -1.86727 3.7308 0
M  V30 4515 H 437.149 -1.92528 2.591 0
M  V30 4516 H 436.201 0.170938 3.80016 0
M  V30 4517 H 437.513 0.00474616 4.988 0
M  V30 4518 H 436.667 -2.26191 5.62959 0
M  V30 4519 H 435.406 -2.16972 4.36778 0
M  V30 4520 H 434.411 -0.159686 5.49568 0
M  V30 4521 H 435.636 -0.271897 6.78555 0
M  V30 4522 H 433.582 -2.40915 6.10161 0
M  V30 4523 H 433.499 -1.31662 7.44447 0
M  V30 4524 H 434.767 -2.50414 7.38182 0
M  V30 4525 N 438.996 -1.55193 0.274407 0
M  V30 4526 C 439.944 -2.23924 -0.629362 0
M  V30 4527 C 440.938 -1.23602 -1.1584 0
M  V30 4528 O 442.144 -1.41535 -1.11211 0
M  V30 4529 H 438.519 -0.718637 -0.221507 0
M  V30 4530 H 440.49 -2.98388 -0.0268322 0
M  V30 4531 C 439.239 -2.97329 -1.80252 0
M  V30 4532 H 438.562 -3.74313 -1.40462 0
M  V30 4533 H 440.002 -3.48743 -2.41152 0
M  V30 4534 C 438.461 -2.0276 -2.69054 0
M  V30 4535 O 438.991 -1.57836 -3.69392 0
M  V30 4536 N 437.197 -1.69275 -2.36208 0
M  V30 4537 H 436.744 -2.06004 -1.54661 0
M  V30 4538 H 436.702 -1.06271 -2.95895 0
M  V30 4539 N 440.474 -0.00167713 -1.576 0
M  V30 4540 C 441.72 0.683832 -1.90923 0
M  V30 4541 C 442.053 1.7333 -0.875799 0
M  V30 4542 O 441.328 1.94215 0.10525 0
M  V30 4543 C 441.611 1.32543 -3.3482 0
M  V30 4544 C 441.464 0.287387 -4.48881 0
M  V30 4545 C 442.783 2.25114 -3.78169 0
M  V30 4546 H 439.902 0.247125 -0.694333 0
M  V30 4547 H 442.544 -0.0533149 -1.89925 0
M  V30 4548 H 440.694 1.95372 -3.35801 0
M  V30 4549 H 442.366 -0.341346 -4.60035 0
M  V30 4550 H 440.609 -0.39017 -4.32042 0
M  V30 4551 H 441.28 0.775393 -5.46527 0
M  V30 4552 H 443.756 1.723 -3.7875 0
M  V30 4553 H 442.632 2.66971 -4.79602 0
M  V30 4554 H 442.893 3.13092 -3.12131 0
M  V30 4555 N 441.952 1.55251 0.271103 0
M  V30 4556 C 443.18 1.79974 1.02064 0
M  V30 4557 C 443.595 0.574003 1.79863 0
M  V30 4558 O 442.952 -0.456962 1.76686 0
M  V30 4559 C 443.003 3.02603 1.97772 0
M  V30 4560 O 442.724 4.20443 1.23124 0
M  V30 4561 C 444.225 3.39944 2.84522 0
M  V30 4562 H 441.445 0.599489 0.301419 0
M  V30 4563 H 443.989 2.02268 0.301313 0
M  V30 4564 H 442.144 2.8243 2.65165 0
M  V30 4565 H 442.558 4.89783 1.87651 0
M  V30 4566 H 444.032 4.28915 3.47471 0
M  V30 4567 H 444.509 2.59432 3.54389 0
M  V30 4568 H 445.115 3.62383 2.22618 0
M  V30 4569 N 443.43 -0.535701 1.48216 0
M  V30 4570 C 444.67 -1.30238 1.57536 0
M  V30 4571 C 445.034 -1.90479 0.241229 0
M  V30 4572 O 446.235 -2.67983 0.20938 0
M  V30 4573 C 444.506 -2.3669 2.67792 0
M  V30 4574 S 446.065 -3.23159 2.9684 0
M  V30 4575 H 442.883 -0.443093 0.556048 0
M  V30 4576 H 445.485 -0.610937 1.85709 0
M  V30 4577 H 444.189 -1.90905 3.63296 0
M  V30 4578 H 443.72 -3.10548 2.41502 0
M  V30 4579 H 445.735 -4.36647 2.35699 0
M  V30 4580 N 444.908 -1.36708 -0.784132 0
M  V30 4581 C 445.84 -1.27333 -1.90575 0
M  V30 4582 C 446.853 -0.191706 -1.61667 0
M  V30 4583 O 448.042 -0.446854 -1.72816 0
M  V30 4584 C 445.142 -0.943177 -3.25511 0
M  V30 4585 C 444.315 -2.12776 -3.82158 0
M  V30 4586 C 443.374 -1.76983 -4.95544 0
M  V30 4587 O 442.4 -2.49134 -5.11782 0
M  V30 4588 N 443.602 -0.706624 -5.76183 0
M  V30 4589 H 446.367 -2.23974 -1.99138 0
M  V30 4590 H 443.928 -1.30171 -0.962656 0
M  V30 4591 H 445.92 -0.684799 -3.98864 0
M  V30 4592 H 444.49 -0.0657333 -3.12531 0
M  V30 4593 H 443.71 -2.54863 -3.0073 0
M  V30 4594 H 444.998 -2.91904 -4.16737 0
M  V30 4595 H 444.396 -0.107643 -5.65598 0
M  V30 4596 H 442.953 -0.50808 -6.49817 0
M  V30 4597 N 446.386 1.0089 -1.21074 0
M  V30 4598 C 447.632 1.7497 -1.03717 0
M  V30 4599 C 447.987 1.8764 0.425344 0
M  V30 4600 O 447.28 1.39679 1.3115 0
M  V30 4601 C 447.474 3.16335 -1.66334 0
M  V30 4602 C 447.303 3.17449 -3.18522 0
M  V30 4603 C 446.073 3.2425 -3.87543 0
M  V30 4604 C 448.271 3.02877 -4.15656 0
M  V30 4605 N 446.253 3.14949 -5.26954 0
M  V30 4606 C 447.624 3.0143 -5.41793 0
M  V30 4607 C 449.679 2.8715 -4.06755 0
M  V30 4608 C 448.382 2.85869 -6.60054 0
M  V30 4609 C 450.408 2.72944 -5.24648 0
M  V30 4610 C 449.77 2.72171 -6.49694 0
M  V30 4611 H 445.869 0.650627 -0.43383 0
M  V30 4612 H 448.453 1.19944 -1.53367 0
M  V30 4613 H 446.624 3.69638 -1.19256 0
M  V30 4614 H 448.356 3.78888 -1.42219 0
M  V30 4615 H 445.111 3.31288 -3.38446 0
M  V30 4616 H 445.535 3.13651 -5.9996 0
M  V30 4617 H 450.177 2.86557 -3.10878 0
M  V30 4618 H 447.895 2.8521 -7.56096 0
M  V30 4619 H 451.481 2.61782 -5.19578 0
M  V30 4620 H 450.361 2.61307 -7.39384 0
M  V30 4621 N 447.864 1.01787 1.20321 0
M  V30 4622 C 448.796 0.547357 2.22568 0
M  V30 4623 C 449.809 -0.370922 1.58518 0
M  V30 4624 O 450.998 -0.169067 1.77698 0
M  V30 4625 C 448.098 -0.223031 3.38165 0
M  V30 4626 C 447.271 0.697472 4.31803 0
M  V30 4627 C 446.33 -0.025562 5.26194 0
M  V30 4628 O 445.356 0.597367 5.66057 0
M  V30 4629 N 446.558 -1.29999 5.65757 0
M  V30 4630 H 449.323 1.42668 2.63564 0
M  V30 4631 H 446.884 0.895552 1.34876 0
M  V30 4632 H 448.876 -0.716002 3.98316 0
M  V30 4633 H 447.446 -1.00366 2.9605 0
M  V30 4634 H 446.666 1.37073 3.69601 0
M  V30 4635 H 447.954 1.32347 4.91286 0
M  V30 4636 H 447.352 -1.827 5.35385 0
M  V30 4637 H 445.909 -1.73766 6.28211 0
M  V30 4638 N 449.342 -1.36122 0.79427 0
M  V30 4639 C 450.274 -2.28683 0.153903 0
M  V30 4640 C 451.287 -1.49707 -0.639669 0
M  V30 4641 O 452.476 -1.7209 -0.474054 0
M  V30 4642 C 449.576 -3.29202 -0.804921 0
M  V30 4643 C 448.749 -4.37358 -0.060366 0
M  V30 4644 C 447.808 -5.17811 -0.935849 0
M  V30 4645 O 446.834 -5.67853 -0.391309 0
M  V30 4646 N 448.036 -5.34721 -2.25951 0
M  V30 4647 H 450.801 -2.84278 0.949008 0
M  V30 4648 H 448.362 -1.4834 0.648611 0
M  V30 4649 H 450.354 -3.79914 -1.39455 0
M  V30 4650 H 448.924 -2.74212 -1.50088 0
M  V30 4651 H 448.144 -3.87746 0.710382 0
M  V30 4652 H 449.432 -5.06777 0.45324 0
M  V30 4653 H 448.83 -4.95687 -2.72601 0
M  V30 4654 H 447.387 -5.88657 -2.79867 0
M  V30 4655 N 450.82 -0.546701 -1.47814 0
M  V30 4656 C 451.752 0.244196 -2.27895 0
M  V30 4657 C 452.765 0.88911 -1.36377 0
M  V30 4658 O 453.954 0.764733 -1.61289 0
M  V30 4659 C 451.054 1.36252 -3.10304 0
M  V30 4660 C 450.227 0.816382 -4.29714 0
M  V30 4661 C 449.286 1.81789 -4.93801 0
M  V30 4662 O 448.312 1.36818 -5.52512 0
M  V30 4663 N 449.514 3.15085 -4.87547 0
M  V30 4664 H 452.279 -0.442694 -2.96412 0
M  V30 4665 H 449.84 -0.382095 -1.57327 0
M  V30 4666 H 451.832 2.03102 -3.50045 0
M  V30 4667 H 450.402 1.95281 -2.44099 0
M  V30 4668 H 449.622 -0.0285981 -3.9419 0
M  V30 4669 H 450.91 0.430668 -5.06974 0
M  V30 4670 H 450.308 3.54275 -4.41028 0
M  V30 4671 H 448.865 3.77522 -5.31339 0
M  V30 4672 N 452.299 1.55045 -0.282633 0
M  V30 4673 C 453.576 1.9179 0.384166 0
M  V30 4674 C 453.956 1.20778 1.73136 0
M  V30 4675 O 453.304 0.33719 2.25998 0
M  V30 4676 C 453.514 3.45149 0.517014 0
M  V30 4677 C 454.862 4.17064 0.796427 0
M  V30 4678 O 455.886 3.51084 0.601535 0
M  V30 4679 O 454.745 5.33837 1.16962 0
M  V30 4680 H 451.839 0.799483 0.211558 0
M  V30 4681 H 454.385 1.66474 -0.32934 0
M  V30 4682 H 453.157 3.88922 -0.430772 0
M  V30 4683 H 452.78 3.76443 1.2797 0
M  V30 4684 N 453.777 0.010035 1.57597 0
M  V30 4685 C 454.727 -0.986858 2.05536 0
M  V30 4686 C 455.711 -1.29711 0.952042 0
M  V30 4687 O 456.903 -1.28641 1.21575 0
M  V30 4688 C 454.032 -2.2756 2.57043 0
M  V30 4689 C 453.118 -1.99455 3.74271 0
M  V30 4690 N 453.509 -1.41546 4.85591 0
M  V30 4691 C 451.807 -2.29547 3.82393 0
M  V30 4692 C 452.508 -1.3014 5.66956 0
M  V30 4693 N 451.484 -1.79044 5.13268 0
M  V30 4694 H 455.286 -0.533778 2.89012 0
M  V30 4695 H 452.8 -0.195432 1.6122 0
M  V30 4696 H 454.797 -2.99829 2.89669 0
M  V30 4697 H 453.457 -2.73512 1.7499 0
M  V30 4698 H 454.468 -1.09294 5.06236 0
M  V30 4699 H 451.145 -2.78304 3.11213 0
M  V30 4700 H 452.535 -0.855237 6.66435 0
M  V30 4701 N 455.255 -1.55392 -0.262866 0
M  V30 4702 C 456.218 -1.88181 -1.30846 0
M  V30 4703 C 457.218 -0.757079 -1.41862 0
M  V30 4704 O 458.408 -1.02519 -1.40838 0
M  V30 4705 C 455.54 -2.09609 -2.68844 0
M  V30 4706 H 456.733 -2.81659 -1.02997 0
M  V30 4707 H 454.286 -1.48039 -0.501414 0
M  V30 4708 H 455.021 -1.18547 -3.01856 0
M  V30 4709 H 454.806 -2.91508 -2.62231 0
M  V30 4710 H 456.296 -2.36215 -3.44372 0
M  V30 4711 N 456.733 0.527833 -1.48498 0
M  V30 4712 C 457.958 1.313 -1.60546 0
M  V30 4713 C 458.383 1.86199 -0.26672 0
M  V30 4714 O 457.741 1.64513 0.761918 0
M  V30 4715 C 457.789 2.43818 -2.65678 0
M  V30 4716 O 456.893 3.46916 -2.22987 0
M  V30 4717 H 456.234 0.388784 -0.538277 0
M  V30 4718 H 458.764 0.634896 -1.945 0
M  V30 4719 H 458.774 2.89973 -2.87018 0
M  V30 4720 H 457.449 2.03222 -3.62869 0
M  V30 4721 H 456.026 3.06864 -2.11869 0
M  V30 4722 N 458.211 1.37122 0.776871 0
M  V30 4723 C 459.436 1.354 1.57104 0
M  V30 4724 C 459.861 -0.0595562 1.88006 0
M  V30 4725 O 459.219 -1.03514 1.48844 0
M  V30 4726 C 459.267 2.19472 2.8612 0
M  V30 4727 O 458.371 1.59582 3.80273 0
M  V30 4728 H 457.712 0.462869 0.476076 0
M  V30 4729 H 460.242 1.80577 0.961932 0
M  V30 4730 H 460.252 2.32502 3.35271 0
M  V30 4731 H 458.927 3.22222 2.62956 0
M  V30 4732 H 457.504 1.55564 3.38902 0
M  V30 4733 N 459.689 -1.00246 1.21608 0
M  V30 4734 C 460.621 -2.09244 0.935401 0
M  V30 4735 C 461.634 -1.62592 -0.0823594 0
M  V30 4736 O 462.823 -1.77865 0.150456 0
M  V30 4737 C 459.923 -3.36724 0.383453 0
M  V30 4738 C 459.096 -4.1245 1.45615 0
M  V30 4739 C 458.155 -5.18219 0.912991 0
M  V30 4740 O 457.181 -5.46337 1.59701 0
M  V30 4741 N 458.383 -5.7987 -0.270478 0
M  V30 4742 H 461.148 -2.33905 1.87373 0
M  V30 4743 H 458.709 -1.16748 1.12167 0
M  V30 4744 H 460.701 -4.047 0.00562157 0
M  V30 4745 H 459.271 -3.09201 -0.459758 0
M  V30 4746 H 458.491 -3.39241 2.00772 0
M  V30 4747 H 459.779 -4.59819 2.17817 0
M  V30 4748 H 459.177 -5.59381 -0.843195 0
M  V30 4749 H 457.734 -6.49126 -0.589794 0
M  V30 4750 N 461.167 -1.02423 -1.1978 0
M  V30 4751 C 462.415 -0.716569 -1.8897 0
M  V30 4752 C 462.736 0.756769 -1.79716 0
M  V30 4753 O 462.006 1.5449 -1.20456 0
M  V30 4754 H 460.586 -0.262062 -0.699523 0
M  V30 4755 H 463.248 -1.29747 -1.45436 0
M  V30 4756 H 462.344 -1.00675 -2.95417 0
M  V30 4757 N 462.645 1.35699 -0.801477 0
M  V30 4758 C 463.892 1.98913 -0.379459 0
M  V30 4759 C 464.22 1.63592 1.05204 0
M  V30 4760 O 463.475 0.888563 1.74365 0
M  V30 4761 C 463.774 3.53828 -0.504041 0
M  V30 4762 C 463.44 4.09002 -1.8981 0
M  V30 4763 C 462.102 4.23783 -2.27951 0
M  V30 4764 C 464.454 4.38939 -2.81038 0
M  V30 4765 C 461.782 4.65816 -3.56696 0
M  V30 4766 C 464.134 4.82409 -4.09224 0
M  V30 4767 C 462.798 4.95395 -4.4737 0
M  V30 4768 H 462.068 0.727874 -0.138854 0
M  V30 4769 H 464.715 1.61994 -1.02128 0
M  V30 4770 H 463.02 3.91175 0.221242 0
M  V30 4771 H 464.717 4.00687 -0.158361 0
M  V30 4772 H 461.307 3.97946 -1.59176 0
M  V30 4773 H 465.491 4.27077 -2.52821 0
M  V30 4774 H 460.747 4.74059 -3.86106 0
M  V30 4775 H 464.921 5.04535 -4.80018 0
M  V30 4776 H 462.548 5.27724 -5.47185 0
M  V30 4777 N 464.123 0.554532 1.47522 0
M  V30 4778 C 465.37 0.029479 2.02479 0
M  V30 4779 C 465.698 -1.31929 1.42916 0
M  V30 4780 O 464.953 -1.87112 0.573385 0
M  V30 4781 C 465.252 -0.115927 3.57212 0
M  V30 4782 C 464.918 1.16161 4.3568 0
M  V30 4783 C 463.58 1.51168 4.56839 0
M  V30 4784 C 465.932 2.0083 4.80954 0
M  V30 4785 C 463.26 2.70696 5.2052 0
M  V30 4786 C 465.612 3.19559 5.45953 0
M  V30 4787 C 464.276 3.54882 5.65345 0
M  V30 4788 H 463.546 0.0107871 0.740921 0
M  V30 4789 H 466.193 0.725506 1.77225 0
M  V30 4790 H 464.498 -0.894902 3.81443 0
M  V30 4791 H 466.195 -0.53749 3.97381 0
M  V30 4792 H 462.785 0.879026 4.19489 0
M  V30 4793 H 466.969 1.75093 4.64388 0
M  V30 4794 H 462.225 2.98236 5.33728 0
M  V30 4795 H 466.399 3.85456 5.79997 0
M  V30 4796 H 464.026 4.47596 6.1446 0
M  V30 4797 N 465.601 -1.54893 0.290851 0
M  V30 4798 C 466.831 -2.04047 -0.323818 0
M  V30 4799 C 467.239 -1.16809 -1.48837 0
M  V30 4800 O 466.582 -0.184145 -1.82775 0
M  V30 4801 C 466.644 -3.49248 -0.852395 0
M  V30 4802 C 466.308 -4.56623 0.185557 0
M  V30 4803 C 467.305 -5.09985 1.01053 0
M  V30 4804 C 464.99 -5.01252 0.324332 0
M  V30 4805 C 466.984 -6.06507 1.96031 0
M  V30 4806 C 464.671 -5.97596 1.27757 0
M  V30 4807 C 465.669 -6.50107 2.09405 0
M  V30 4808 O 465.357 -7.44565 3.03114 0
M  V30 4809 H 465.089 -0.671735 -0.0758129 0
M  V30 4810 H 467.643 -2.00947 0.425393 0
M  V30 4811 H 465.873 -3.49639 -1.65195 0
M  V30 4812 H 467.562 -3.81654 -1.38185 0
M  V30 4813 H 468.328 -4.76307 0.914129 0
M  V30 4814 H 464.207 -4.60015 -0.301213 0
M  V30 4815 H 467.751 -6.47418 2.598 0
M  V30 4816 H 463.648 -6.30691 1.37473 0
M  V30 4817 H 464.416 -7.62334 2.97976 0
M  V30 4818 N 467.08 -0.0183926 -1.57589 0
M  V30 4819 C 468.03 0.975944 -2.06057 0
M  V30 4820 C 469.014 1.29204 -0.958908 0
M  V30 4821 O 470.206 1.27995 -1.22255 0
M  V30 4822 C 467.335 2.26194 -2.58247 0
M  V30 4823 C 466.421 1.97467 -3.75323 0
M  V30 4824 N 466.812 1.38968 -4.86335 0
M  V30 4825 C 465.11 2.27515 -3.83605 0
M  V30 4826 C 465.811 1.27131 -5.67638 0
M  V30 4827 N 464.787 1.76319 -5.14211 0
M  V30 4828 H 468.589 0.518444 -2.89291 0
M  V30 4829 H 466.103 0.18688 -1.61321 0
M  V30 4830 H 468.1 2.98289 -2.91255 0
M  V30 4831 H 466.76 2.7258 -1.76438 0
M  V30 4832 H 467.771 1.06608 -5.06809 0
M  V30 4833 H 464.448 2.76649 -3.12684 0
M  V30 4834 H 465.838 0.819882 -6.66879 0
M  V30 4835 N 468.558 1.5553 0.254621 0
M  V30 4836 C 469.783 1.81383 1.00573 0
M  V30 4837 C 470.208 0.594419 1.78461 0
M  V30 4838 O 469.566 -0.456403 1.75461 0
M  V30 4839 C 469.614 3.04892 1.92545 0
M  V30 4840 O 468.718 2.81266 3.01601 0
M  V30 4841 H 468.059 0.598969 0.286587 0
M  V30 4842 H 470.589 2.02703 0.277952 0
M  V30 4843 H 470.599 3.34119 2.34155 0
M  V30 4844 H 469.274 3.93287 1.3527 0
M  V30 4845 H 467.851 2.63185 2.64174 0
M  V30 4846 N 470.036 -0.519951 1.48776 0
M  V30 4847 C 471.452 -0.849418 1.35119 0
M  V30 4848 C 471.652 -1.98077 0.36982 0
M  V30 4849 O 470.708 -2.51664 -0.205359 0
M  V30 4850 C 472.021 -1.20748 2.75391 0
M  V30 4851 C 473.569 -1.31679 2.83954 0
M  V30 4852 C 474.044 -1.70824 4.24951 0
M  V30 4853 N 475.535 -1.77908 4.27672 0
M  V30 4854 C 476.27 -2.09603 5.33717 0
M  V30 4855 N 475.766 -2.39652 6.5003 0
M  V30 4856 N 477.559 -2.10694 5.21119 0
M  V30 4857 H 469.71 0.226377 2.1119 0
M  V30 4858 H 471.973 0.0386519 0.947212 0
M  V30 4859 H 471.679 -0.449703 3.48813 0
M  V30 4860 H 471.553 -2.15534 3.09556 0
M  V30 4861 H 473.94 -2.06532 2.10781 0
M  V30 4862 H 474.021 -0.3499 2.53396 0
M  V30 4863 H 473.665 -0.965282 4.98643 0
M  V30 4864 H 473.595 -2.6858 4.52959 0
M  V30 4865 H 476.086 -1.56923 3.43779 0
M  V30 4866 H 476.399 -2.6297 7.26682 0
M  V30 4867 H 474.744 -2.37149 6.53288 0
M  V30 4868 H 477.935 -1.86682 4.29264 0
M  V30 4869 H 478.108 -2.35062 6.03863 0
M  V30 4870 N 471.514 -1.37532 -0.769588 0
M  V30 4871 C 472.477 -1.33292 -1.86456 0
M  V30 4872 C 473.477 -0.236537 -1.59051 0
M  V30 4873 O 474.667 -0.492511 -1.67093 0
M  V30 4874 C 471.799 -1.07118 -3.23633 0
M  V30 4875 H 472.992 -2.30692 -1.91628 0
M  V30 4876 H 470.545 -1.22593 -0.969572 0
M  V30 4877 H 471.28 -0.102578 -3.24138 0
M  V30 4878 H 471.065 -1.86479 -3.44917 0
M  V30 4879 H 472.555 -1.06806 -4.03711 0
M  V30 4880 N 472.992 0.995999 -1.22138 0
M  V30 4881 C 474.408 1.25917 -0.980667 0
M  V30 4882 C 474.608 1.98819 0.327604 0
M  V30 4883 O 473.664 2.29587 1.05101 0
M  V30 4884 C 474.977 2.07399 -2.17729 0
M  V30 4885 C 476.525 2.20594 -2.22052 0
M  V30 4886 C 477 3.05462 -3.41258 0
M  V30 4887 N 478.491 3.13049 -3.41401 0
M  V30 4888 C 479.226 3.78997 -4.30289 0
M  V30 4889 N 478.722 4.46899 -5.2939 0
M  V30 4890 N 480.515 3.75728 -4.18073 0
M  V30 4891 H 472.666 0.507158 -2.06256 0
M  V30 4892 H 474.929 0.28658 -0.903646 0
M  V30 4893 H 474.635 1.61191 -3.12586 0
M  V30 4894 H 474.509 3.08154 -2.17534 0
M  V30 4895 H 476.896 2.66017 -1.27745 0
M  V30 4896 H 476.977 1.1928 -2.26287 0
M  V30 4897 H 476.621 2.60739 -4.35864 0
M  V30 4898 H 476.551 4.06911 -3.34262 0
M  V30 4899 H 479.042 2.64721 -2.69688 0
M  V30 4900 H 479.355 4.94952 -5.935 0
M  V30 4901 H 477.7 4.45657 -5.33306 0
M  V30 4902 H 480.891 3.2184 -3.39907 0
M  V30 4903 H 481.064 4.26845 -4.87553 0
M  V30 4904 N 474.47 1.03057 1.19235 0
M  V30 4905 C 475.71 0.736757 1.9066 0
M  V30 4906 C 476.074 -0.721521 1.77927 0
M  V30 4907 O 477.275 -1.12849 2.43964 0
M  V30 4908 C 475.546 1.17755 3.37444 0
M  V30 4909 S 477.105 1.00783 4.27069 0
M  V30 4910 H 473.923 0.268174 0.658486 0
M  V30 4911 H 476.525 1.32076 1.4414 0
M  V30 4912 H 475.229 2.23448 3.44237 0
M  V30 4913 H 474.76 0.586912 3.88997 0
M  V30 4914 H 476.775 -0.0806356 4.96134 0
M  V30 4915 N 475.948 -1.35272 0.808662 0
M  V30 4916 C 477.188 -2.00534 0.395668 0
M  V30 4917 C 477.552 -1.62755 -1.01857 0
M  V30 4918 O 478.753 -2.20752 -1.53368 0
M  V30 4919 C 477.024 -3.52732 0.575771 0
M  V30 4920 S 478.583 -4.38067 0.253507 0
M  V30 4921 H 475.401 -0.694962 0.150165 0
M  V30 4922 H 478.003 -1.64823 1.05137 0
M  V30 4923 H 476.707 -3.77714 1.60499 0
M  V30 4924 H 476.238 -3.93285 -0.0951739 0
M  V30 4925 H 478.253 -4.87252 -0.938068 0
M  V30 4926 N 477.426 -0.562348 -1.47226 0
M  V30 4927 C 478.837 -0.130325 -1.86245 0
M  V30 4928 C 479.188 1.30128 -1.46838 0
M  V30 4929 O 478.313 1.97974 -0.873805 0
M  V30 4930 C 478.908 -0.229738 -3.3802 0
M  V30 4931 C 477.467 0.14728 -3.76112 0
M  V30 4932 C 476.614 -0.574971 -2.71274 0
M  V30 4933 H 479.565 -0.771773 -1.3867 0
M  V30 4934 H 479.586 0.550316 -3.76499 0
M  V30 4935 H 479.098 -1.27178 -3.66671 0
M  V30 4936 H 477.199 1.19023 -3.53078 0
M  V30 4937 H 477.312 -0.214858 -4.78618 0
M  V30 4938 H 475.676 -0.0174756 -2.54694 0
M  V30 4939 H 476.459 -1.61827 -3.02766 0
M  V30 4940 N 478.904 1.54736 -0.299062 0
M  V30 4941 C 480.32 1.59507 0.0543849 0
M  V30 4942 C 480.52 1.31606 1.52585 0
M  V30 4943 O 479.576 1.08853 2.27832 0
M  V30 4944 C 480.889 2.98751 -0.34181 0
M  V30 4945 C 482.437 3.1165 -0.290414 0
M  V30 4946 C 482.912 4.53199 -0.661402 0
M  V30 4947 N 484.403 4.59114 -0.613863 0
M  V30 4948 C 485.138 5.66709 -0.873417 0
M  V30 4949 N 484.634 6.82349 -1.19884 0
M  V30 4950 N 486.427 5.56369 -0.800608 0
M  V30 4951 H 478.578 1.71133 -1.25806 0
M  V30 4952 H 480.841 0.799186 -0.509908 0
M  V30 4953 H 480.547 3.24085 -1.36608 0
M  V30 4954 H 480.421 3.75961 0.305508 0
M  V30 4955 H 482.808 2.86066 0.724605 0
M  V30 4956 H 482.889 2.366 -0.972327 0
M  V30 4957 H 482.533 4.79513 -1.67422 0
M  V30 4958 H 482.463 5.26583 0.0425612 0
M  V30 4959 H 484.954 3.76053 -0.3732 0
M  V30 4960 H 485.267 7.60326 -1.38291 0
M  V30 4961 H 483.612 6.83906 -1.23685 0
M  V30 4962 H 486.803 4.64904 -0.546045 0
M  V30 4963 H 486.976 6.40139 -1.00626 0
M  V30 4964 N 480.382 0.0267497 1.57577 0
M  V30 4965 C 481.659 -0.690926 1.82991 0
M  V30 4966 C 482.039 -1.90471 0.910164 0
M  V30 4967 O 481.387 -2.28474 -0.0347985 0
M  V30 4968 C 481.597 -1.07139 3.32148 0
M  V30 4969 C 482.945 -1.46402 3.98562 0
M  V30 4970 O 483.969 -1.16443 3.36629 0
M  V30 4971 O 482.828 -2.02214 5.07712 0
M  V30 4972 H 479.922 -0.338747 0.75444 0
M  V30 4973 H 482.468 0.0542506 1.69613 0
M  V30 4974 H 481.24 -0.207394 3.9075 0
M  V30 4975 H 480.863 -1.87481 3.50623 0
M  V30 4976 N 481.861 -1.55662 -0.24637 0
M  V30 4977 C 483.277 -1.48098 -0.594907 0
M  V30 4978 C 483.477 -0.717044 -1.8831 0
M  V30 4979 O 482.533 -0.246618 -2.51293 0
M  V30 4980 C 483.846 -2.92507 -0.697146 0
M  V30 4981 C 485.394 -3.02881 -0.789436 0
M  V30 4982 C 485.869 -4.48598 -0.923232 0
M  V30 4983 N 487.36 -4.52538 -0.988088 0
M  V30 4984 C 488.095 -5.62536 -1.11089 0
M  V30 4985 N 487.591 -6.82342 -1.19919 0
M  V30 4986 N 489.384 -5.50334 -1.14408 0
M  V30 4987 H 481.535 -2.0377 0.599278 0
M  V30 4988 H 483.798 -0.925145 0.20691 0
M  V30 4989 H 483.504 -3.51242 0.179396 0
M  V30 4990 H 483.378 -3.43024 -1.5689 0
M  V30 4991 H 485.765 -2.44226 -1.65643 0
M  V30 4992 H 485.846 -2.55574 0.107482 0
M  V30 4993 H 485.49 -5.07864 -0.0607927 0
M  V30 4994 H 485.42 -4.93587 -1.8352 0
M  V30 4995 H 487.911 -3.66248 -0.931167 0
M  V30 4996 H 488.224 -7.61924 -1.29197 0
M  V30 4997 H 486.569 -6.85102 -1.16876 0
M  V30 4998 H 489.76 -4.5567 -1.07158 0
M  V30 4999 H 489.933 -6.36096 -1.23634 0
M  V30 5000 N 483.339 0.512053 -1.4905 0
M  V30 5001 C 484.569 1.28928 -1.61434 0
M  V30 5002 C 484.977 1.87107 -0.280647 0
M  V30 5003 O 484.32 1.68024 0.742537 0
M  V30 5004 C 484.382 2.466 -2.61588 0
M  V30 5005 C 484.046 2.09375 -4.06216 0
M  V30 5006 C 485.043 1.63994 -4.93358 0
M  V30 5007 C 482.728 2.19348 -4.51876 0
M  V30 5008 C 484.722 1.29076 -6.24194 0
M  V30 5009 C 482.409 1.84041 -5.82728 0
M  V30 5010 C 483.407 1.38978 -6.68711 0
M  V30 5011 O 483.095 1.04144 -7.97126 0
M  V30 5012 H 482.827 0.397668 -0.546659 0
M  V30 5013 H 485.381 0.622507 -1.9574 0
M  V30 5014 H 483.611 3.16318 -2.22441 0
M  V30 5015 H 485.3 3.08642 -2.63619 0
M  V30 5016 H 486.066 1.55744 -4.59313 0
M  V30 5017 H 481.945 2.53376 -3.85125 0
M  V30 5018 H 485.489 0.938303 -6.91261 0
M  V30 5019 H 481.386 1.91938 -6.16304 0
M  V30 5020 H 482.154 1.17387 -8.10039 0
M  V30 5021 N 484.817 1.37938 0.762283 0
M  V30 5022 C 486.228 1.30094 1.33912 0
M  V30 5023 C 486.579 -0.0472026 1.96143 0
M  V30 5024 O 485.704 -0.94917 1.94473 0
M  V30 5025 C 486.299 2.35592 2.43478 0
M  V30 5026 C 484.858 2.31353 2.96905 0
M  V30 5027 C 484.005 2.18919 1.70205 0
M  V30 5028 H 486.956 1.48423 0.561816 0
M  V30 5029 H 486.977 2.00806 3.23199 0
M  V30 5030 H 486.489 3.33701 1.98155 0
M  V30 5031 H 484.59 1.36799 3.46579 0
M  V30 5032 H 484.703 3.25147 3.51875 0
M  V30 5033 H 483.067 1.65624 1.93496 0
M  V30 5034 H 483.85 3.18956 1.26973 0
M  V30 5035 N 486.295 -0.989507 1.22664 0
M  V30 5036 C 487.544 -1.72375 1.04737 0
M  V30 5037 C 487.857 -1.91096 -0.417316 0
M  V30 5038 O 489.063 -2.6188 -0.716334 0
M  V30 5039 C 487.519 -3.10161 1.82561 0
M  V30 5040 C 487.127 -2.99358 3.333 0
M  V30 5041 C 488.871 -3.87607 1.73093 0
M  V30 5042 C 486.778 -4.32319 4.03552 0
M  V30 5043 H 485.708 -0.646326 0.388302 0
M  V30 5044 H 488.359 -1.10437 1.46546 0
M  V30 5045 H 486.741 -3.728 1.33552 0
M  V30 5046 H 487.915 -2.45863 3.89728 0
M  V30 5047 H 486.23 -2.35392 3.43481 0
M  V30 5048 H 488.827 -4.86025 2.22899 0
M  V30 5049 H 489.17 -4.10509 0.691976 0
M  V30 5050 H 489.703 -3.31652 2.19663 0
M  V30 5051 H 486.442 -4.14616 5.07714 0
M  V30 5052 H 485.962 -4.85714 3.51911 0
M  V30 5053 H 487.641 -5.01051 4.09337 0
M  V30 5054 N 487.773 -1.03688 -1.18687 0
M  V30 5055 C 489.019 -0.74888 -1.89112 0
M  V30 5056 C 489.374 0.715345 -1.78607 0
M  V30 5057 O 488.667 1.51498 -1.17299 0
M  V30 5058 C 488.861 -1.14477 -3.3857 0
M  V30 5059 C 488.69 -2.64594 -3.63621 0
M  V30 5060 C 487.46 -3.31685 -3.812 0
M  V30 5061 C 489.658 -3.62811 -3.64517 0
M  V30 5062 N 487.64 -4.70822 -3.93955 0
M  V30 5063 C 489.011 -4.87603 -3.8294 0
M  V30 5064 C 491.066 -3.56495 -3.47585 0
M  V30 5065 C 489.769 -6.0684 -3.86184 0
M  V30 5066 C 491.795 -4.75155 -3.52111 0
M  V30 5067 C 491.157 -5.98765 -3.71026 0
M  V30 5068 H 487.256 -0.32603 -0.710794 0
M  V30 5069 H 489.84 -1.3258 -1.42586 0
M  V30 5070 H 488.011 -0.595974 -3.838 0
M  V30 5071 H 489.743 -0.808187 -3.96548 0
M  V30 5072 H 486.498 -2.82091 -3.80423 0
M  V30 5073 H 486.922 -5.43122 -4.04163 0
M  V30 5074 H 491.564 -2.61907 -3.31911 0
M  V30 5075 H 489.282 -7.01788 -4.00648 0
M  V30 5076 H 492.868 -4.71905 -3.40289 0
M  V30 5077 H 491.748 -6.89047 -3.74412 0
M  V30 5078 N 489.251 1.34841 -0.815825 0
M  V30 5079 C 490.161 2.33425 -0.234462 0
M  V30 5080 C 491.177 1.62295 0.627413 0
M  V30 5081 O 492.353 1.94109 0.536987 0
M  V30 5082 C 489.418 3.41471 0.599849 0
M  V30 5083 C 488.479 4.28362 -0.283596 0
M  V30 5084 C 487.712 5.31248 0.51099 0
M  V30 5085 O 487.935 5.43056 1.7449 0
M  V30 5086 O 486.869 6.01812 -0.10297 0
M  V30 5087 H 490.695 2.84962 -1.05024 0
M  V30 5088 H 488.28 1.37774 -0.577809 0
M  V30 5089 H 490.162 4.07464 1.07475 0
M  V30 5090 H 488.837 2.9219 1.39308 0
M  V30 5091 H 487.744 3.65318 -0.805836 0
M  V30 5092 H 489.077 4.81066 -1.041 0
M  V30 5093 N 490.729 0.570148 1.46925 0
M  V30 5094 C 491.677 -0.183181 2.31878 0
M  V30 5095 C 492.671 -0.896721 1.43719 0
M  V30 5096 O 493.877 -0.816536 1.60414 0
M  V30 5097 H 490.252 -0.077944 0.74795 0
M  V30 5098 H 492.223 0.552312 2.93244 0
M  V30 5099 C 490.972 -1.19172 3.2664 0
M  V30 5100 H 490.295 -0.652088 3.94446 0
M  V30 5101 H 491.735 -1.68946 3.88887 0
M  V30 5102 C 490.194 -2.24627 2.51086 0
M  V30 5103 O 490.724 -3.31773 2.26472 0
M  V30 5104 N 488.93 -1.98898 2.11867 0
M  V30 5105 H 488.477 -1.11777 2.32086 0
M  V30 5106 H 488.435 -2.6967 1.61634 0
M  V30 5107 N 492.207 -1.54576 0.307264 0
M  V30 5108 C 493.447 -2.02172 -0.300962 0
M  V30 5109 C 493.811 -1.19081 -1.50611 0
M  V30 5110 O 495.012 -1.56405 -2.18612 0
M  V30 5111 C 493.283 -3.51576 -0.642591 0
M  V30 5112 S 494.842 -4.21127 -1.23279 0
M  V30 5113 H 491.66 -0.705021 -0.0920141 0
M  V30 5114 H 494.262 -1.90563 0.436594 0
M  V30 5115 H 492.966 -4.09681 0.242901 0
M  V30 5116 H 492.497 -3.67234 -1.41077 0
M  V30 5117 H 494.512 -4.27426 -2.52034 0
M  V30 5118 N 493.685 -0.035106 -1.57561 0
M  V30 5119 C 494.595 0.960295 -2.14046 0
M  V30 5120 C 495.611 1.3529 -1.0942 0
M  V30 5121 O 496.787 1.43309 -1.41508 0
M  V30 5122 C 493.852 2.22214 -2.66124 0
M  V30 5123 C 492.913 1.8894 -3.85487 0
M  V30 5124 C 492.146 3.09109 -4.35072 0
M  V30 5125 O 492.369 4.21963 -3.83802 0
M  V30 5126 O 491.303 2.91058 -5.26848 0
M  V30 5127 H 495.129 0.509983 -2.99387 0
M  V30 5128 H 492.714 0.185853 -1.48239 0
M  V30 5129 H 494.596 2.96279 -2.99661 0
M  V30 5130 H 493.271 2.66414 -1.83862 0
M  V30 5131 H 492.178 1.12241 -3.56865 0
M  V30 5132 H 493.511 1.49551 -4.6893 0
M  V30 5133 N 495.163 1.55791 0.238111 0
M  V30 5134 C 496.073 1.94196 1.31625 0
M  V30 5135 C 497.089 0.843545 1.52185 0
M  V30 5136 O 498.265 1.1457 1.65637 0
M  V30 5137 C 495.33 2.2365 2.64918 0
M  V30 5138 C 494.391 3.46971 2.52804 0
M  V30 5139 C 493.624 3.7501 3.79741 0
M  V30 5140 O 493.847 3.04982 4.82019 0
M  V30 5141 O 492.781 4.68525 3.77846 0
M  V30 5142 H 496.607 2.86044 1.02043 0
M  V30 5143 H 494.192 1.42786 0.439603 0
M  V30 5144 H 496.074 2.43863 3.4367 0
M  V30 5145 H 494.749 1.34979 2.94215 0
M  V30 5146 H 493.656 3.32055 1.72309 0
M  V30 5147 H 494.989 4.35971 2.28451 0
M  V30 5148 N 496.642 -0.504142 1.49319 0
M  V30 5149 C 497.552 -1.63248 1.68486 0
M  V30 5150 C 498.568 -1.64488 0.567432 0
M  V30 5151 O 499.744 -1.82966 0.841749 0
M  V30 5152 C 496.809 -2.99627 1.74426 0
M  V30 5153 C 495.87 -3.09039 2.97982 0
M  V30 5154 C 495.103 -4.38913 3.0363 0
M  V30 5155 O 495.326 -5.27528 2.16958 0
M  V30 5156 O 494.26 -4.53231 3.96062 0
M  V30 5157 H 498.086 -1.50008 2.64067 0
M  V30 5158 H 495.671 -0.680086 1.33023 0
M  V30 5159 H 497.553 -3.80689 1.80705 0
M  V30 5160 H 496.228 -3.13136 0.820233 0
M  V30 5161 H 495.135 -2.27177 2.97223 0
M  V30 5162 H 496.468 -3.00456 3.89855 0
M  V30 5163 N 498.12 -1.38341 -0.754957 0
M  V30 5164 C 499.03 -1.3769 -1.89944 0
M  V30 5165 C 500.046 -0.274194 -1.71826 0
M  V30 5166 O 501.222 -0.512391 -1.94773 0
M  V30 5167 C 498.287 -1.19938 -3.25293 0
M  V30 5168 C 497.348 -2.40001 -3.55946 0
M  V30 5169 C 496.581 -2.23087 -4.84838 0
M  V30 5170 O 496.804 -1.22386 -5.57116 0
M  V30 5171 O 495.738 -3.11646 -5.14937 0
M  V30 5172 H 499.564 -2.3412 -1.93446 0
M  V30 5173 H 497.149 -1.19246 -0.900044 0
M  V30 5174 H 499.031 -1.12093 -4.06218 0
M  V30 5175 H 497.706 -0.265919 -3.22606 0
M  V30 5176 H 496.613 -2.53421 -2.75188 0
M  V30 5177 H 497.946 -3.31973 -3.63394 0
M  V30 5178 N 499.598 0.982988 -1.23187 0
M  V30 5179 C 500.545 2.07491 -1.01075 0
M  V30 5180 C 501.515 1.65949 0.070905 0
M  V30 5181 O 502.7 1.90629 -0.0806822 0
M  V30 5182 C 499.84 3.39751 -0.605261 0
M  V30 5183 C 498.953 3.94578 -1.75876 0
M  V30 5184 C 498.088 5.15039 -1.3003 0
M  V30 5185 C 497.127 5.62027 -2.42472 0
M  V30 5186 N 496.264 6.73719 -1.97602 0
M  V30 5187 H 501.104 2.25739 -1.9454 0
M  V30 5188 H 498.641 1.10659 -0.969179 0
M  V30 5189 H 500.599 4.15719 -0.351279 0
M  V30 5190 H 499.229 3.21473 0.292382 0
M  V30 5191 H 498.281 3.1539 -2.12681 0
M  V30 5192 H 499.593 4.25422 -2.60418 0
M  V30 5193 H 498.747 5.9833 -1.00429 0
M  V30 5194 H 497.486 4.85843 -0.425216 0
M  V30 5195 H 496.491 4.77318 -2.7285 0
M  V30 5196 H 497.716 5.93244 -3.30512 0
M  V30 5197 H 495.662 6.46287 -1.1247 0
M  V30 5198 H 495.579 7.03934 -2.75705 0
M  V30 5199 H 496.847 7.6049 -1.71098 0
M  V30 5200 N 501.076 1.04316 1.18135 0
M  V30 5201 C 502.304 0.768117 1.92113 0
M  V30 5202 C 502.719 -0.675057 1.76319 0
M  V30 5203 O 502.076 -1.46038 1.09449 0
M  V30 5204 C 502.127 1.12808 3.43448 0
M  V30 5205 O 501.848 2.5146 3.58747 0
M  V30 5206 C 503.349 0.8779 4.3452 0
M  V30 5207 H 500.569 0.279937 0.609817 0
M  V30 5208 H 503.113 1.39149 1.49859 0
M  V30 5209 H 501.268 0.549623 3.83481 0
M  V30 5210 H 501.682 2.65313 4.52448 0
M  V30 5211 H 503.156 1.17959 5.39249 0
M  V30 5212 H 503.633 -0.187239 4.38801 0
M  V30 5213 H 504.239 1.43977 4.00188 0
M  V30 5214 N 502.554 -1.34406 0.822964 0
M  V30 5215 C 503.502 -2.31428 0.233165 0
M  V30 5216 C 504.496 -1.57404 -0.626118 0
M  V30 5217 O 505.702 -1.72402 -0.517453 0
M  V30 5218 H 502.077 -0.749863 0.0566557 0
M  V30 5219 H 504.048 -2.78699 1.06628 0
M  V30 5220 C 502.797 -3.42653 -0.590264 0
M  V30 5221 H 502.12 -3.99753 0.0616129 0
M  V30 5222 H 503.56 -4.12778 -0.969054 0
M  V30 5223 C 502.019 -2.87112 -1.76262 0
M  V30 5224 O 502.549 -2.81995 -2.8608 0
M  V30 5225 N 500.755 -2.43934 -1.57938 0
M  V30 5226 H 500.302 -2.48296 -0.686078 0
M  V30 5227 H 500.26 -2.07123 -2.36532 0
M  V30 5228 N 504.032 -0.577932 -1.46621 0
M  V30 5229 C 505.443 -0.150071 -1.86096 0
M  V30 5230 C 505.794 1.28563 -1.48209 0
M  V30 5231 O 504.919 1.97036 -0.894754 0
M  V30 5232 C 505.514 -0.265576 -3.37758 0
M  V30 5233 C 504.073 0.10738 -3.76247 0
M  V30 5234 C 503.22 -0.603711 -2.70649 0
M  V30 5235 H 506.171 -0.786438 -1.37844 0
M  V30 5236 H 506.192 0.510352 -3.77062 0
M  V30 5237 H 505.704 -1.3106 -3.65301 0
M  V30 5238 H 503.805 1.15272 -3.54321 0
M  V30 5239 H 503.918 -0.26561 -4.78363 0
M  V30 5240 H 502.282 -0.0444884 -2.54661 0
M  V30 5241 H 503.065 -1.65029 -3.01032 0
M  V30 5242 N 505.51 1.54411 -0.315457 0
M  V30 5243 C 506.758 2.00023 0.288971 0
M  V30 5244 C 507.079 1.20529 1.5329 0
M  V30 5245 O 506.349 0.304986 1.93511 0
M  V30 5246 H 504.929 0.738891 0.109766 0
M  V30 5247 H 507.591 1.90094 -0.430129 0
M  V30 5248 H 506.687 3.07198 0.550999 0
M  V30 5249 N 506.988 0.0434614 1.5754 0
M  V30 5250 C 507.918 -0.931651 2.14109 0
M  V30 5251 C 508.899 -1.32971 1.06079 0
M  V30 5252 O 510.084 -1.40579 1.33982 0
M  V30 5253 C 507.214 -2.20914 2.67982 0
M  V30 5254 C 506.168 -1.95139 3.80926 0
M  V30 5255 C 505.494 -3.29276 4.21285 0
M  V30 5256 C 506.794 -1.27913 5.06395 0
M  V30 5257 H 508.488 -0.460497 2.95837 0
M  V30 5258 H 506.034 -0.220058 1.42309 0
M  V30 5259 H 507.987 -2.89522 3.06194 0
M  V30 5260 H 506.711 -2.70221 1.83434 0
M  V30 5261 H 505.37 -1.28945 3.43175 0
M  V30 5262 H 505.018 -3.76369 3.33699 0
M  V30 5263 H 504.718 -3.12831 4.97404 0
M  V30 5264 H 506.242 -3.99129 4.62091 0
M  V30 5265 H 507.656 -1.86544 5.42102 0
M  V30 5266 H 506.053 -1.2182 5.87605 0
M  V30 5267 H 507.123 -0.254066 4.84234 0
M  V30 5268 N 508.466 -1.55915 -0.229846 0
M  V30 5269 C 509.398 -1.88209 -1.30805 0
M  V30 5270 C 510.411 -0.769672 -1.43457 0
M  V30 5271 O 511.6 -1.04792 -1.44502 0
M  V30 5272 C 508.7 -2.06829 -2.68468 0
M  V30 5273 C 507.873 -3.37798 -2.77869 0
M  V30 5274 C 506.932 -3.45952 -3.96489 0
M  V30 5275 O 505.958 -4.19043 -3.85216 0
M  V30 5276 N 507.16 -2.76488 -5.10426 0
M  V30 5277 H 509.925 -2.81286 -1.03431 0
M  V30 5278 H 507.486 -1.5636 -0.41991 0
M  V30 5279 H 509.478 -2.09608 -3.46189 0
M  V30 5280 H 508.048 -1.20416 -2.88477 0
M  V30 5281 H 507.268 -3.4719 -1.86689 0
M  V30 5282 H 508.556 -4.24091 -2.81113 0
M  V30 5283 H 507.954 -2.16868 -5.2248 0
M  V30 5284 H 506.511 -2.84938 -5.8622 0
M  V30 5285 N 509.944 0.496216 -1.49584 0
M  V30 5286 C 511.172 1.27394 -1.63029 0
M  V30 5287 C 511.587 1.86344 -0.303569 0
M  V30 5288 O 510.944 1.68057 0.711547 0
M  V30 5289 C 510.995 2.40077 -2.70269 0
M  V30 5290 O 510.716 1.83549 -3.97796 0
M  V30 5291 C 512.217 3.31372 -2.94462 0
M  V30 5292 H 509.437 0.386211 -0.54871 0
M  V30 5293 H 511.981 0.595163 -1.95648 0
M  V30 5294 H 510.136 3.03775 -2.40415 0
M  V30 5295 H 510.55 2.57561 -4.56905 0
M  V30 5296 H 512.024 4.06707 -3.73221 0
M  V30 5297 H 512.501 3.88654 -2.0456 0
M  V30 5298 H 513.107 2.73435 -3.25751 0
M  V30 5299 N 511.423 1.38739 0.74761 0
M  V30 5300 C 512.834 1.31507 1.32524 0
M  V30 5301 C 513.185 -0.0263963 1.96182 0
M  V30 5302 O 512.31 -0.92849 1.95469 0
M  V30 5303 C 512.905 2.38162 2.40966 0
M  V30 5304 C 511.464 2.34489 2.94434 0
M  V30 5305 C 510.611 2.20712 1.67873 0
M  V30 5306 H 513.562 1.4901 0.546043 0
M  V30 5307 H 513.583 2.04222 3.21051 0
M  V30 5308 H 513.095 3.35783 1.94605 0
M  V30 5309 H 511.196 1.40467 3.45108 0
M  V30 5310 H 511.309 3.28861 3.48407 0
M  V30 5311 H 509.673 1.67667 1.91729 0
M  V30 5312 H 510.456 3.20285 1.23582 0
M  V30 5313 N 512.901 -0.976442 1.23707 0
M  V30 5314 C 513.833 -2.07212 0.979574 0
M  V30 5315 C 514.846 -1.6273 -0.0478528 0
M  V30 5316 O 516.035 -1.77506 0.18815 0
M  V30 5317 C 513.135 -3.35835 0.45479 0
M  V30 5318 C 512.308 -4.09268 1.54331 0
M  V30 5319 C 511.367 -5.16166 1.02271 0
M  V30 5320 O 510.393 -5.42827 1.71254 0
M  V30 5321 N 511.595 -5.80313 -0.147419 0
M  V30 5322 H 514.36 -2.29878 1.92292 0
M  V30 5323 H 511.921 -1.14343 1.14618 0
M  V30 5324 H 513.913 -4.04597 0.0914631 0
M  V30 5325 H 512.483 -3.10106 -0.394068 0
M  V30 5326 H 511.703 -3.34906 2.07923 0
M  V30 5327 H 512.991 -4.55095 2.27522 0
M  V30 5328 H 512.389 -5.61043 -0.724353 0
M  V30 5329 H 510.946 -6.50231 -0.451972 0
M  V30 5330 N 514.379 -1.04941 -1.1758 0
M  V30 5331 C 515.626 -0.757989 -1.87779 0
M  V30 5332 C 515.954 0.714827 -1.80888 0
M  V30 5333 O 515.209 1.53824 -1.20982 0
M  V30 5334 C 515.508 -1.18062 -3.37337 0
M  V30 5335 C 515.174 -2.65521 -3.6443 0
M  V30 5336 C 513.836 -3.05804 -3.71534 0
M  V30 5337 C 516.188 -3.60822 -3.76108 0
M  V30 5338 C 513.516 -4.40256 -3.87803 0
M  V30 5339 C 515.868 -4.95005 -3.93895 0
M  V30 5340 C 514.532 -5.34945 -3.99237 0
M  V30 5341 H 513.802 -0.277368 -0.68713 0
M  V30 5342 H 516.449 -1.31603 -1.39115 0
M  V30 5343 H 514.754 -0.541525 -3.8804 0
M  V30 5344 H 516.451 -0.932368 -3.9001 0
M  V30 5345 H 513.041 -2.33324 -3.59524 0
M  V30 5346 H 517.225 -3.30841 -3.69943 0
M  V30 5347 H 512.481 -4.70707 -3.90186 0
M  V30 5348 H 516.655 -5.68746 -4.01872 0
M  V30 5349 H 514.282 -6.39135 -4.11596 0
M  V30 5350 N 515.857 1.33968 -0.830081 0
M  V30 5351 C 517.082 2.02813 -0.433796 0
M  V30 5352 C 517.507 1.62076 0.954614 0
M  V30 5353 O 516.865 0.808955 1.62252 0
M  V30 5354 C 516.913 3.56348 -0.552115 0
M  V30 5355 O 516.017 4.10202 0.425191 0
M  V30 5356 H 515.358 0.639817 -0.177567 0
M  V30 5357 H 517.888 1.7106 -1.12248 0
M  V30 5358 H 517.898 4.05722 -0.430513 0
M  V30 5359 H 516.573 3.85344 -1.56471 0
M  V30 5360 H 515.15 3.71979 0.261878 0
M  V30 5361 N 517.335 0.585699 1.46312 0
M  V30 5362 C 518.751 0.247607 1.57668 0
M  V30 5363 C 518.951 -1.25007 1.58037 0
M  V30 5364 O 518.007 -2.03196 1.49893 0
M  V30 5365 C 519.32 0.899456 2.86933 0
M  V30 5366 C 520.868 0.873326 3.00569 0
M  V30 5367 C 521.343 1.50477 4.32574 0
M  V30 5368 N 522.834 1.46925 4.3928 0
M  V30 5369 C 523.569 1.92719 5.40044 0
M  V30 5370 N 523.065 2.46499 6.47464 0
M  V30 5371 N 524.858 1.83617 5.31264 0
M  V30 5372 H 517.009 1.55841 1.44317 0
M  V30 5373 H 519.272 0.651564 0.688599 0
M  V30 5374 H 518.978 1.95313 2.92482 0
M  V30 5375 H 518.852 0.409476 3.74971 0
M  V30 5376 H 521.239 -0.171736 2.946 0
M  V30 5377 H 521.32 1.40136 2.13999 0
M  V30 5378 H 520.964 2.54905 4.39302 0
M  V30 5379 H 520.894 0.951944 5.17924 0
M  V30 5380 H 523.385 1.07616 3.62253 0
M  V30 5381 H 523.698 2.79291 7.20567 0
M  V30 5382 H 522.043 2.50526 6.48276 0
M  V30 5383 H 525.234 1.41358 4.46246 0
M  V30 5384 H 525.407 2.19622 6.09648 0
M  V30 5385 N 518.813 -1.54241 0.323641 0
M  V30 5386 C 520.053 -2.0248 -0.279502 0
M  V30 5387 C 520.417 -1.20672 -1.49339 0
M  V30 5388 O 521.618 -1.58715 -2.1694 0
M  V30 5389 C 519.889 -3.52238 -0.605266 0
M  V30 5390 S 521.448 -4.22411 -1.18805 0
M  V30 5391 H 518.266 -0.705957 -0.0845313 0
M  V30 5392 H 520.868 -1.90089 0.456781 0
M  V30 5393 H 519.572 -4.094 0.286339 0
M  V30 5394 H 519.103 -3.6871 -1.37174 0
M  V30 5395 H 521.118 -4.30075 -2.47487 0
M  V30 5396 N 520.291 -0.0518155 -1.57515 0
M  V30 5397 C 521.241 0.932017 -2.0808 0
M  V30 5398 C 522.225 1.27141 -0.986098 0
M  V30 5399 O 523.417 1.25373 -1.24943 0
M  V30 5400 C 520.546 2.20665 -2.62986 0
M  V30 5401 C 519.632 1.89462 -3.79427 0
M  V30 5402 N 520.023 1.28621 -4.89173 0
M  V30 5403 C 518.321 2.19327 -3.88345 0
M  V30 5404 C 519.022 1.15062 -5.70207 0
M  V30 5405 N 517.998 1.65372 -5.17835 0
M  V30 5406 H 521.8 0.456964 -2.90326 0
M  V30 5407 H 519.314 0.152619 -1.61681 0
M  V30 5408 H 521.311 2.92044 -2.97516 0
M  V30 5409 H 519.971 2.68776 -1.8218 0
M  V30 5410 H 520.982 0.958341 -5.08956 0
M  V30 5411 H 517.659 2.69955 -3.18482 0
M  V30 5412 H 519.049 0.678243 -6.68468 0
M  V30 5413 N 521.769 1.56035 0.221574 0
M  V30 5414 C 523.016 1.79047 0.94597 0
M  V30 5415 C 523.344 0.62057 1.84334 0
M  V30 5416 O 522.599 -0.395053 1.91671 0
M  V30 5417 C 522.898 3.07813 1.8162 0
M  V30 5418 C 522.564 4.3797 1.07206 0
M  V30 5419 C 521.226 4.73334 0.866508 0
M  V30 5420 C 523.578 5.18326 0.546565 0
M  V30 5421 C 520.906 5.8657 0.123549 0
M  V30 5422 C 523.258 6.32335 -0.18305 0
M  V30 5423 C 521.922 6.66301 -0.399861 0
M  V30 5424 H 521.192 0.655178 0.346155 0
M  V30 5425 H 523.839 1.90299 0.214146 0
M  V30 5426 H 522.144 2.91682 2.61589 0
M  V30 5427 H 523.841 3.2282 2.37884 0
M  V30 5428 H 520.431 4.10202 1.24226 0
M  V30 5429 H 524.615 4.9144 0.692847 0
M  V30 5430 H 519.871 6.11376 -0.0546591 0
M  V30 5431 H 524.045 6.9383 -0.59775 0
M  V30 5432 H 521.672 7.53889 -0.977489 0
M  V30 5433 N 523.247 -0.488276 1.49845 0
M  V30 5434 C 524.194 -1.58836 1.67451 0
M  V30 5435 C 525.164 -1.57886 0.515857 0
M  V30 5436 O 526.349 -1.75679 0.744403 0
M  V30 5437 C 523.489 -2.96915 1.75885 0
M  V30 5438 C 522.602 -3.07784 3.03138 0
M  V30 5439 C 521.737 -4.36673 3.02473 0
M  V30 5440 C 520.776 -4.41222 4.24252 0
M  V30 5441 N 519.913 -5.61557 4.21424 0
M  V30 5442 H 524.753 -1.43131 2.61376 0
M  V30 5443 H 522.29 -0.696186 1.29583 0
M  V30 5444 H 524.248 -3.76965 1.78755 0
M  V30 5445 H 522.878 -3.11295 0.85414 0
M  V30 5446 H 521.93 -2.20717 3.09819 0
M  V30 5447 H 523.242 -3.07005 3.93128 0
M  V30 5448 H 522.396 -5.25055 3.03977 0
M  V30 5449 H 521.135 -4.40037 2.10283 0
M  V30 5450 H 520.14 -3.5124 4.22978 0
M  V30 5451 H 521.365 -4.39564 5.17649 0
M  V30 5452 H 519.311 -5.65738 3.32078 0
M  V30 5453 H 519.228 -5.62447 5.05163 0
M  V30 5454 H 520.496 -6.52111 4.2705 0
M  V30 5455 N 524.725 -1.39134 -0.740242 0
M  V30 5456 C 525.95 -1.39518 -1.53459 0
M  V30 5457 C 526.375 0.00968883 -1.88098 0
M  V30 5458 O 525.733 0.995312 -1.51536 0
M  V30 5459 C 525.781 -2.26981 -2.802 0
M  V30 5460 O 524.885 -1.69609 -3.75908 0
M  V30 5461 H 524.226 -0.475328 -0.463637 0
M  V30 5462 H 526.756 -1.83064 -0.913717 0
M  V30 5463 H 526.766 -2.41309 -3.28989 0
M  V30 5464 H 525.441 -3.29081 -2.5432 0
M  V30 5465 H 524.018 -1.64495 -3.34658 0
M  V30 5466 N 526.204 0.969867 -1.24223 0
M  V30 5467 C 527.62 1.23809 -1.00716 0
M  V30 5468 C 527.82 1.99469 0.285358 0
M  V30 5469 O 526.876 2.31764 1.00207 0
M  V30 5470 C 528.189 2.02734 -2.2208 0
M  V30 5471 C 529.737 2.15834 -2.26681 0
M  V30 5472 C 530.212 2.98154 -3.47661 0
M  V30 5473 N 531.703 3.05737 -3.47964 0
M  V30 5474 C 532.438 3.69785 -4.38231 0
M  V30 5475 N 531.934 4.35569 -5.3875 0
M  V30 5476 N 533.727 3.66775 -4.25949 0
M  V30 5477 H 525.878 0.463294 -2.07286 0
M  V30 5478 H 528.141 0.267348 -0.909521 0
M  V30 5479 H 527.847 1.54524 -3.15935 0
M  V30 5480 H 527.721 3.0347 -2.24021 0
M  V30 5481 H 530.108 2.63248 -1.33359 0
M  V30 5482 H 530.189 1.14453 -2.28767 0
M  V30 5483 H 529.833 2.51435 -4.41297 0
M  V30 5484 H 529.763 3.99729 -3.42818 0
M  V30 5485 H 532.254 2.58941 -2.75242 0
M  V30 5486 H 532.567 4.82251 -6.03866 0
M  V30 5487 H 530.912 4.34244 -5.42639 0
M  V30 5488 H 534.103 3.14558 -3.46657 0
M  V30 5489 H 534.276 4.16407 -4.96497 0
M  V30 5490 N 527.682 1.05563 1.17022 0
M  V30 5491 C 528.63 0.653887 2.2322 0
M  V30 5492 C 529.624 -0.326642 1.66221 0
M  V30 5493 O 530.83 -0.192301 1.7897 0
M  V30 5494 H 527.205 0.193297 0.726733 0
M  V30 5495 H 529.176 1.5596 2.54399 0
M  V30 5496 C 527.925 0.0485434 3.47666 0
M  V30 5497 H 527.248 0.79413 3.91834 0
M  V30 5498 H 528.688 -0.195133 4.23551 0
M  V30 5499 C 527.147 -1.20583 3.14581 0
M  V30 5500 O 527.677 -2.29475 3.29703 0
M  V30 5501 N 525.883 -1.10493 2.68774 0
M  V30 5502 H 525.43 -0.218795 2.56669 0
M  V30 5503 H 525.388 -1.94507 2.47011 0
M  V30 5504 N 529.16 -1.33526 0.837174 0
M  V30 5505 C 530.437 -1.92369 0.354065 0
M  V30 5506 C 530.817 -1.76348 -1.16038 0
M  V30 5507 O 530.165 -1.15083 -1.97403 0
M  V30 5508 C 530.375 -3.39728 0.799101 0
M  V30 5509 C 531.723 -4.16877 0.806139 0
M  V30 5510 O 532.747 -3.48373 0.742597 0
M  V30 5511 O 531.606 -5.39166 0.892345 0
M  V30 5512 H 528.7 -0.820952 0.0998378 0
M  V30 5513 H 531.246 -1.42409 0.922913 0
M  V30 5514 H 530.018 -3.45254 1.84162 0
M  V30 5515 H 529.641 -3.97062 0.206731 0
M  V30 5516 N 530.638 -0.59345 -1.46 0
M  V30 5517 C 531.863 -0.0872365 -2.07216 0
M  V30 5518 C 532.288 1.2131 -1.43755 0
M  V30 5519 O 531.646 1.73528 -0.525152 0
M  V30 5520 C 531.694 0.0538197 -3.6056 0
M  V30 5521 O 530.798 1.10765 -3.97247 0
M  V30 5522 H 530.139 -0.0676598 -0.660544 0
M  V30 5523 H 532.669 -0.819445 -1.87473 0
M  V30 5524 H 532.679 0.256567 -4.07193 0
M  V30 5525 H 531.354 -0.895739 -4.0614 0
M  V30 5526 H 529.931 0.882501 -3.62307 0
M  V30 5527 N 532.116 1.54067 -0.331816 0
M  V30 5528 C 533.365 1.99895 0.269209 0
M  V30 5529 C 533.678 1.22371 1.52593 0
M  V30 5530 O 534.884 1.58618 2.20347 0
M  V30 5531 C 533.34 3.55972 0.530244 0
M  V30 5532 C 532.948 4.4234 -0.709901 0
M  V30 5533 C 534.692 4.10247 1.09077 0
M  V30 5534 C 532.599 5.89905 -0.420312 0
M  V30 5535 H 531.529 0.746741 0.104371 0
M  V30 5536 H 534.18 1.78014 -0.445324 0
M  V30 5537 H 532.562 3.73873 1.30518 0
M  V30 5538 H 533.736 4.36215 -1.48504 0
M  V30 5539 H 532.051 3.98997 -1.19123 0
M  V30 5540 H 534.648 5.18095 1.32219 0
M  V30 5541 H 534.991 3.62739 2.0427 0
M  V30 5542 H 535.524 3.96011 0.376824 0
M  V30 5543 H 532.263 6.41623 -1.34164 0
M  V30 5544 H 531.783 5.98962 0.316962 0
M  V30 5545 H 533.462 6.46991 -0.0331956 0
M  V30 5546 N 533.594 0.0601682 1.57485 0
M  V30 5547 C 534.843 -0.611101 1.9222 0
M  V30 5548 C 535.156 -1.71469 0.941159 0
M  V30 5549 O 536.362 -2.44473 1.18089 0
M  V30 5550 C 534.818 -1.13832 3.41424 0
M  V30 5551 C 534.426 -0.0663596 4.47951 0
M  V30 5552 C 536.17 -1.78432 3.85178 0
M  V30 5553 C 534.077 -0.606965 5.88277 0
M  V30 5554 H 533.007 -0.232033 0.71741 0
M  V30 5555 H 535.658 0.130518 1.83035 0
M  V30 5556 H 534.04 -1.93254 3.45643 0
M  V30 5557 H 535.214 0.707682 4.55333 0
M  V30 5558 H 533.529 0.482715 4.13593 0
M  V30 5559 H 536.126 -2.1989 4.87394 0
M  V30 5560 H 536.469 -2.63966 3.21913 0
M  V30 5561 H 537.002 -1.05651 3.83514 0
M  V30 5562 H 533.741 0.21095 6.5516 0
M  V30 5563 H 533.261 -1.34879 5.84438 0
M  V30 5564 H 534.94 -1.08704 6.37803 0
M  V30 5565 N 535.072 -1.5615 -0.213296 0
M  V30 5566 C 536.022 -1.89485 -1.26804 0
M  V30 5567 C 537.006 -0.758713 -1.41889 0
M  V30 5568 O 538.198 -1.02127 -1.44565 0
M  V30 5569 C 535.327 -2.22219 -2.61675 0
M  V30 5570 C 534.413 -3.42245 -2.50458 0
M  V30 5571 N 534.804 -4.60645 -2.089 0
M  V30 5572 C 533.102 -3.46023 -2.81397 0
M  V30 5573 C 533.803 -5.42805 -2.09135 0
M  V30 5574 N 532.779 -4.82732 -2.49941 0
M  V30 5575 H 536.581 -2.78537 -0.937771 0
M  V30 5576 H 534.095 -1.56826 -0.421824 0
M  V30 5577 H 536.092 -2.44278 -3.37837 0
M  V30 5578 H 534.752 -1.34484 -2.95541 0
M  V30 5579 H 535.763 -4.85651 -1.79899 0
M  V30 5580 H 532.44 -2.68654 -3.1958 0
M  V30 5581 H 533.83 -6.47601 -1.79059 0
M  V30 5582 N 536.55 0.480323 -1.50102 0
M  V30 5583 C 537.799 1.22979 -1.59872 0
M  V30 5584 C 538.112 1.93282 -0.30022 0
M  V30 5585 O 539.318 2.70086 -0.276709 0
M  V30 5586 C 537.774 2.23408 -2.82164 0
M  V30 5587 C 537.382 1.5895 -4.18854 0
M  V30 5588 C 539.126 2.99055 -3.01275 0
M  V30 5589 C 537.033 2.57611 -5.32344 0
M  V30 5590 H 535.963 0.462707 -0.59533 0
M  V30 5591 H 538.614 0.501291 -1.7652 0
M  V30 5592 H 536.996 2.99511 -2.59055 0
M  V30 5593 H 538.17 0.887 -4.52182 0
M  V30 5594 H 536.485 0.956191 -4.05273 0
M  V30 5595 H 539.082 3.72876 -3.83233 0
M  V30 5596 H 539.425 3.57897 -2.12639 0
M  V30 5597 H 539.958 2.30066 -3.24522 0
M  V30 5598 H 536.697 2.03521 -6.23105 0
M  V30 5599 H 536.217 3.26041 -5.03445 0
M  V30 5600 H 537.896 3.19627 -5.62537 0
M  V30 5601 N 538.028 1.39524 0.732853 0
M  V30 5602 C 538.958 1.41153 1.86005 0
M  V30 5603 C 539.939 0.274614 1.67869 0
M  V30 5604 O 541.124 0.480745 1.88155 0
M  V30 5605 C 538.254 1.25638 3.23778 0
M  V30 5606 C 537.208 2.36752 3.56556 0
M  V30 5607 C 536.534 2.06326 4.93289 0
M  V30 5608 C 537.834 3.79069 3.5931 0
M  V30 5609 H 539.528 2.35484 1.84899 0
M  V30 5610 H 537.074 1.13348 0.888162 0
M  V30 5611 H 539.027 1.25398 4.0231 0
M  V30 5612 H 537.751 0.277772 3.25417 0
M  V30 5613 H 536.41 2.36213 2.80355 0
M  V30 5614 H 536.058 1.06897 4.9151 0
M  V30 5615 H 535.758 2.80757 5.16187 0
M  V30 5616 H 537.282 2.07739 5.74175 0
M  V30 5617 H 538.696 3.81526 4.27914 0
M  V30 5618 H 537.093 4.52878 3.93728 0
M  V30 5619 H 538.163 4.09893 2.59068 0
M  V30 5620 N 539.506 -0.963266 1.24736 0
M  V30 5621 C 540.752 -1.70933 1.09131 0
M  V30 5622 C 541.085 -1.90676 -0.368273 0
M  V30 5623 O 540.36 -1.47147 -1.27193 0
M  V30 5624 C 540.643 -3.09744 1.83658 0
M  V30 5625 C 540.496 -2.97465 3.37394 0
M  V30 5626 C 541.815 -4.09483 1.61282 0
M  V30 5627 H 538.934 -0.620398 0.397838 0
M  V30 5628 H 541.576 -1.12028 1.53459 0
M  V30 5629 H 539.726 -3.60031 1.4598 0
M  V30 5630 H 541.398 -2.54571 3.84696 0
M  V30 5631 H 539.641 -2.33576 3.65547 0
M  V30 5632 H 540.312 -3.95822 3.84745 0
M  V30 5633 H 542.788 -3.68073 1.94066 0
M  V30 5634 H 541.664 -5.04666 2.15878 0
M  V30 5635 H 541.925 -4.38639 0.552102 0
M  V30 5636 N 540.985 -1.06182 -1.16461 0
M  V30 5637 C 541.895 -0.682671 -2.24448 0
M  V30 5638 C 542.911 0.30078 -1.71381 0
M  V30 5639 O 544.087 0.150376 -2.00838 0
M  V30 5640 C 541.152 -0.0737202 -3.46622 0
M  V30 5641 C 540.213 -1.10889 -4.14731 0
M  V30 5642 C 539.446 -0.528908 -5.31073 0
M  V30 5643 O 539.669 0.65868 -5.66584 0
M  V30 5644 O 538.603 -1.26805 -5.88391 0
M  V30 5645 H 542.429 -1.58291 -2.59187 0
M  V30 5646 H 540.014 -0.834013 -1.23954 0
M  V30 5647 H 541.896 0.264192 -4.20571 0
M  V30 5648 H 540.571 0.800015 -3.13658 0
M  V30 5649 H 539.478 -1.49896 -3.42756 0
M  V30 5650 H 540.811 -1.95412 -4.51747 0
M  V30 5651 N 542.463 1.3308 -0.844243 0
M  V30 5652 C 543.709 1.97898 -0.443206 0
M  V30 5653 C 544.042 1.66699 0.99625 0
M  V30 5654 O 543.317 0.949704 1.69738 0
M  V30 5655 C 543.6 3.53801 -0.670606 0
M  V30 5656 C 543.453 3.94667 -2.15772 0
M  V30 5657 C 544.772 4.39936 -0.120226 0
M  V30 5658 H 541.891 0.718861 -0.162504 0
M  V30 5659 H 544.533 1.57633 -1.06075 0
M  V30 5660 H 542.683 3.88229 -0.14496 0
M  V30 5661 H 544.355 3.70469 -2.74865 0
M  V30 5662 H 542.598 3.44203 -2.6402 0
M  V30 5663 H 543.269 5.03275 -2.26757 0
M  V30 5664 H 545.745 4.12183 -0.5696 0
M  V30 5665 H 544.621 5.4803 -0.308984 0
M  V30 5666 H 544.882 4.31184 0.976347 0
M  V30 5667 N 543.941 0.601185 1.45683 0
M  V30 5668 C 545.169 0.100054 2.06658 0
M  V30 5669 C 545.584 -1.21285 1.44691 0
M  V30 5670 O 544.941 -1.73735 0.558772 0
M  V30 5671 C 544.992 -0.0528579 3.61461 0
M  V30 5672 O 544.713 1.20809 4.21114 0
M  V30 5673 C 546.214 -0.586193 4.39407 0
M  V30 5674 H 543.434 0.065905 0.667756 0
M  V30 5675 H 545.978 0.827101 1.87028 0
M  V30 5676 H 544.133 -0.730203 3.80456 0
M  V30 5677 H 544.547 1.03368 5.14213 0
M  V30 5678 H 546.021 -0.642297 5.4825 0
M  V30 5679 H 546.498 -1.60713 4.0874 0
M  V30 5680 H 547.104 0.0568935 4.25262 0
M  V30 5681 N 545.419 -1.53889 0.339982 0
M  V30 5682 C 546.647 -2.05271 -0.259114 0
M  V30 5683 C 547.062 -1.21517 -1.44496 0
M  V30 5684 O 546.419 -0.24966 -1.80784 0
M  V30 5685 C 546.47 -3.55092 -0.677634 0
M  V30 5686 O 546.191 -4.35667 0.461051 0
M  V30 5687 C 547.692 -4.22631 -1.33782 0
M  V30 5688 H 544.912 -0.669085 -0.0506566 0
M  V30 5689 H 547.456 -1.9852 0.490935 0
M  V30 5690 H 545.611 -3.62077 -1.37763 0
M  V30 5691 H 546.025 -5.24343 0.128144 0
M  V30 5692 H 547.499 -5.28861 -1.58145 0
M  V30 5693 H 547.976 -3.74758 -2.29027 0
M  V30 5694 H 548.582 -4.19829 -0.679957 0
M  V30 5695 N 546.897 -0.0685191 -1.57451 0
M  V30 5696 C 547.86 0.885173 -2.11417 0
M  V30 5697 C 548.86 1.22853 -1.03748 0
M  V30 5698 O 550.05 1.16235 -1.2975 0
M  V30 5699 C 547.182 2.18964 -2.61281 0
M  V30 5700 H 548.375 0.417034 -2.96986 0
M  V30 5701 H 545.928 0.18014 -1.55258 0
M  V30 5702 H 546.663 2.70321 -1.79156 0
M  V30 5703 H 546.448 1.9534 -3.39977 0
M  V30 5704 H 547.938 2.87242 -3.0312 0
M  V30 5705 N 548.375 1.56261 0.205012 0
M  V30 5706 C 549.786 1.70056 0.770574 0
M  V30 5707 C 550.137 0.673398 1.84282 0
M  V30 5708 O 549.262 -0.172196 2.15714 0
M  V30 5709 C 549.857 3.08316 1.40451 0
M  V30 5710 C 548.416 3.2391 1.91727 0
M  V30 5711 C 547.563 2.66001 0.783516 0
M  V30 5712 H 550.514 1.58688 -0.019911 0
M  V30 5713 H 550.535 3.05094 2.27371 0
M  V30 5714 H 550.047 3.83053 0.623882 0
M  V30 5715 H 548.148 2.54072 2.7254 0
M  V30 5716 H 548.261 4.3131 2.08588 0
M  V30 5717 H 546.625 2.24915 1.19521 0
M  V30 5718 H 547.408 3.43297 0.0152883 0
M  V30 5719 N 549.853 -0.472356 1.50355 0
M  V30 5720 C 551.101 -1.22211 1.60962 0
M  V30 5721 C 551.422 -1.92497 0.311439 0
M  V30 5722 O 550.692 -1.8405 -0.671002 0
M  V30 5723 H 549.272 -0.454092 0.593135 0
M  V30 5724 H 551.934 -0.544977 1.87126 0
M  V30 5725 H 551.03 -1.9707 2.42012 0
M  V30 5726 N 551.331 -1.39911 -0.725443 0
M  V30 5727 C 552.559 -1.40949 -1.51463 0
M  V30 5728 C 552.974 -0.0065242 -1.88799 0
M  V30 5729 O 552.331 0.967163 -1.54765 0
M  V30 5730 C 552.382 -2.29119 -2.79619 0
M  V30 5731 O 552.103 -3.63952 -2.43866 0
M  V30 5732 C 553.604 -2.38642 -3.73584 0
M  V30 5733 H 550.824 -0.481091 -0.467752 0
M  V30 5734 H 553.368 -1.83843 -0.895651 0
M  V30 5735 H 551.523 -1.89612 -3.37826 0
M  V30 5736 H 551.937 -4.10677 -3.26258 0
M  V30 5737 H 553.411 -3.04563 -4.60375 0
M  V30 5738 H 553.888 -1.40846 -4.16004 0
M  V30 5739 H 554.494 -2.78659 -3.21293 0
M  V30 5740 N 552.809 0.956637 -1.25245 0
M  V30 5741 C 554.055 1.70352 -1.10036 0
M  V30 5742 C 554.388 1.90869 0.358156 0
M  V30 5743 O 553.663 1.47819 1.26411 0
M  V30 5744 C 553.946 3.08766 -1.85298 0
M  V30 5745 C 553.799 2.95672 -3.38966 0
M  V30 5746 C 555.118 4.08622 -1.63451 0
M  V30 5747 H 552.237 0.618279 -0.401123 0
M  V30 5748 H 554.879 1.11212 -1.54051 0
M  V30 5749 H 553.029 3.59252 -1.47887 0
M  V30 5750 H 554.701 2.52527 -3.86041 0
M  V30 5751 H 552.944 2.31634 -3.6678 0
M  V30 5752 H 553.615 3.93776 -3.86839 0
M  V30 5753 H 556.091 3.67038 -1.96015 0
M  V30 5754 H 554.967 5.03514 -2.18551 0
M  V30 5755 H 555.228 4.3834 -0.575357 0
M  V30 5756 N 554.287 1.06798 1.15896 0
M  V30 5757 C 555.237 0.653213 2.18443 0
M  V30 5758 C 556.221 -0.318763 1.57711 0
M  V30 5759 O 557.413 -0.133388 1.76497 0
M  V30 5760 C 554.542 0.0465785 3.43268 0
M  V30 5761 C 553.628 1.04336 4.11066 0
M  V30 5762 N 554.019 2.22084 4.54436 0
M  V30 5763 C 552.317 0.875433 4.37324 0
M  V30 5764 C 553.018 2.85276 5.06944 0
M  V30 5765 N 551.994 2.12973 5.00143 0
M  V30 5766 H 555.796 1.55011 2.49698 0
M  V30 5767 H 553.31 0.940384 1.32403 0
M  V30 5768 H 555.307 -0.26843 4.16035 0
M  V30 5769 H 553.967 -0.845504 3.13499 0
M  V30 5770 H 554.978 2.59833 4.48004 0
M  V30 5771 H 551.655 0.0357721 4.17485 0
M  V30 5772 H 553.045 3.85223 5.50503 0
M  V30 5773 N 555.766 -1.3263 0.851289 0
M  V30 5774 C 556.991 -2.02097 0.466006 0
M  V30 5775 C 557.416 -1.63574 -0.928709 0
M  V30 5776 O 556.774 -0.834665 -1.60944 0
M  V30 5777 C 556.822 -3.55425 0.608737 0
M  V30 5778 O 555.926 -4.10827 -0.359878 0
M  V30 5779 H 555.267 -0.636911 0.187724 0
M  V30 5780 H 557.797 -1.69253 1.14955 0
M  V30 5781 H 557.807 -4.04986 0.495006 0
M  V30 5782 H 556.482 -3.82806 1.62581 0
M  V30 5783 H 555.059 -3.72349 -0.202666 0
M  V30 5784 N 557.244 -0.608902 -1.45362 0
M  V30 5785 C 558.474 -0.110852 -2.06302 0
M  V30 5786 C 558.882 1.21062 -1.45398 0
M  V30 5787 O 558.225 1.74861 -0.562976 0
M  V30 5788 C 558.287 0.101793 -3.59356 0
M  V30 5789 C 557.951 -1.13808 -4.42602 0
M  V30 5790 C 558.948 -2.05653 -4.77496 0
M  V30 5791 C 556.633 -1.36727 -4.83333 0
M  V30 5792 C 558.627 -3.18745 -5.51978 0
M  V30 5793 C 556.314 -2.5012 -5.57569 0
M  V30 5794 C 557.312 -3.40957 -5.91809 0
M  V30 5795 O 557 -4.52376 -6.64538 0
M  V30 5796 H 556.732 -0.0666001 -0.672711 0
M  V30 5797 H 559.286 -0.836942 -1.87575 0
M  V30 5798 H 557.516 0.88279 -3.76489 0
M  V30 5799 H 559.205 0.551607 -4.02134 0
M  V30 5800 H 559.971 -1.89172 -4.46586 0
M  V30 5801 H 555.85 -0.669216 -4.56117 0
M  V30 5802 H 559.394 -3.8967 -5.78622 0
M  V30 5803 H 555.291 -2.66553 -5.87894 0
M  V30 5804 H 556.059 -4.51075 -6.82989 0
M  V30 5805 N 558.722 1.53707 -0.348139 0
M  V30 5806 C 559.652 2.28111 0.498766 0
M  V30 5807 C 560.633 1.29851 1.09876 0
M  V30 5808 O 561.818 1.587 1.11928 0
M  V30 5809 C 558.948 3.05735 1.64753 0
M  V30 5810 C 557.902 4.11537 1.17565 0
M  V30 5811 C 557.228 4.77142 2.4133 0
M  V30 5812 C 558.528 5.21587 0.272844 0
M  V30 5813 H 560.222 2.99152 -0.121934 0
M  V30 5814 H 557.768 1.43875 -0.0600842 0
M  V30 5815 H 559.721 3.56526 2.24649 0
M  V30 5816 H 558.445 2.32354 2.2952 0
M  V30 5817 H 557.104 3.61665 0.599483 0
M  V30 5818 H 556.752 4.0035 3.04514 0
M  V30 5819 H 556.452 5.48626 2.10436 0
M  V30 5820 H 557.976 5.30719 3.01943 0
M  V30 5821 H 559.39 5.67986 0.778779 0
M  V30 5822 H 557.787 6.00074 0.0555849 0
M  V30 5823 H 558.857 4.79969 -0.689785 0
M  V30 5824 N 560.2 0.0768682 1.57412 0
M  V30 5825 C 561.448 -0.589918 1.93299 0
M  V30 5826 C 561.769 -1.69842 0.958049 0
M  V30 5827 O 561.039 -1.95899 0.00703261 0
M  V30 5828 H 559.619 -0.220901 0.713591 0
M  V30 5829 H 562.281 0.135917 1.94425 0
M  V30 5830 H 561.377 -1.01195 2.95239 0
M  V30 5831 N 561.678 -1.56367 -0.196722 0
M  V30 5832 C 562.903 -1.84991 -0.937714 0
M  V30 5833 C 563.328 -0.660244 -1.76132 0
M  V30 5834 O 562.686 0.390967 -1.77034 0
M  V30 5835 C 562.734 -3.11828 -1.81096 0
M  V30 5836 O 561.838 -2.92266 -2.90955 0
M  V30 5837 H 561.179 -0.609193 -0.264159 0
M  V30 5838 H 563.709 -2.03595 -0.202529 0
M  V30 5839 H 563.719 -3.42579 -2.21594 0
M  V30 5840 H 562.394 -3.98037 -1.2058 0
M  V30 5841 H 560.971 -2.72809 -2.54224 0
M  V30 5842 N 563.156 0.464375 -1.50603 0
M  V30 5843 C 564.567 1.04507 -1.5471 0
M  V30 5844 C 564.918 1.9297 -0.354542 0
M  V30 5845 O 564.043 2.09763 0.531812 0
M  V30 5846 C 564.638 1.90207 -2.80369 0
M  V30 5847 C 563.197 2.43373 -2.87135 0
M  V30 5848 C 562.344 1.21886 -2.49076 0
M  V30 5849 H 565.295 0.246716 -1.56771 0
M  V30 5850 H 565.316 2.75353 -2.62604 0
M  V30 5851 H 564.828 1.25796 -3.67147 0
M  V30 5852 H 562.929 3.11318 -2.04724 0
M  V30 5853 H 563.042 2.7802 -3.90181 0
M  V30 5854 H 561.406 1.55575 -2.01664 0
M  V30 5855 H 562.189 0.591268 -3.3817 0
M  V30 5856 N 564.634 1.40294 0.718013 0
M  V30 5857 C 565.881 1.3844 1.47786 0
M  V30 5858 C 566.209 -0.0140838 1.94495 0
M  V30 5859 O 565.464 -0.998165 1.68331 0
M  V30 5860 C 565.763 2.31814 2.72024 0
M  V30 5861 C 565.429 3.79117 2.44093 0
M  V30 5862 C 564.091 4.19249 2.36185 0
M  V30 5863 C 566.443 4.72212 2.20602 0
M  V30 5864 C 563.771 5.50516 2.02851 0
M  V30 5865 C 566.123 6.03775 1.88781 0
M  V30 5866 C 564.787 6.42953 1.79354 0
M  V30 5867 H 564.057 0.506588 0.540786 0
M  V30 5868 H 566.704 1.72929 0.822663 0
M  V30 5869 H 565.009 1.90501 3.42369 0
M  V30 5870 H 566.706 2.27664 3.30106 0
M  V30 5871 H 563.296 3.47318 2.51133 0
M  V30 5872 H 567.48 4.42026 2.25669 0
M  V30 5873 H 562.736 5.79776 1.94088 0
M  V30 5874 H 566.91 6.75428 1.69617 0
M  V30 5875 H 564.537 7.44584 1.53291 0
M  V30 5876 N 566.112 -0.949982 1.2575 0
M  V30 5877 C 567.358 -1.69822 1.11947 0
M  V30 5878 C 567.713 -1.89455 -0.335334 0
M  V30 5879 O 567.006 -1.45778 -1.24336 0
M  V30 5880 C 567.2 -3.08039 1.81237 0
M  V30 5881 C 567.029 -3.0189 3.33305 0
M  V30 5882 C 565.799 -3.05391 4.02573 0
M  V30 5883 C 567.997 -2.827 4.29634 0
M  V30 5884 N 565.979 -2.89449 5.4138 0
M  V30 5885 C 567.35 -2.75237 5.55558 0
M  V30 5886 C 569.405 -2.67416 4.19992 0
M  V30 5887 C 568.108 -2.54051 6.72942 0
M  V30 5888 C 570.134 -2.47602 5.37073 0
M  V30 5889 C 569.496 -2.40863 6.6194 0
M  V30 5890 H 565.595 -0.629188 0.464378 0
M  V30 5891 H 568.179 -1.1249 1.58916 0
M  V30 5892 H 566.35 -3.63528 1.36756 0
M  V30 5893 H 568.082 -3.71671 1.60134 0
M  V30 5894 H 564.837 -3.14763 3.53866 0
M  V30 5895 H 565.261 -2.84669 6.14241 0
M  V30 5896 H 569.903 -2.71398 3.24196 0
M  V30 5897 H 567.621 -2.48811 7.68842 0
M  V30 5898 H 571.207 -2.36694 5.31477 0
M  V30 5899 H 570.087 -2.25732 7.51009 0
M  V30 5900 N 567.59 -1.07411 -1.15328 0
M  V30 5901 C 568.839 -0.792643 -1.85473 0
M  V30 5902 C 569.152 0.683789 -1.83259 0
M  V30 5903 O 570.358 1.08005 -2.49093 0
M  V30 5904 C 568.814 -1.36787 -3.32892 0
M  V30 5905 C 568.422 -2.87536 -3.43551 0
M  V30 5906 C 570.166 -1.16444 -4.08217 0
M  V30 5907 C 568.073 -3.38247 -4.85122 0
M  V30 5908 H 567.003 -0.292838 -0.694811 0
M  V30 5909 H 569.654 -1.29426 -1.30082 0
M  V30 5910 H 568.036 -0.793993 -3.87958 0
M  V30 5911 H 569.21 -3.50973 -2.98588 0
M  V30 5912 H 567.525 -3.06676 -2.81672 0
M  V30 5913 H 570.122 -1.51808 -5.12697 0
M  V30 5914 H 570.465 -0.10353 -4.16171 0
M  V30 5915 H 570.998 -1.70472 -3.59422 0
M  V30 5916 H 567.737 -4.43866 -4.82351 0
M  V30 5917 H 567.257 -2.79564 -5.30664 0
M  V30 5918 H 568.936 -3.34238 -5.5398 0
M  V30 5919 N 569.068 1.32177 -0.85831 0
M  V30 5920 C 570.018 2.26307 -0.277307 0
M  V30 5921 C 571.002 1.50123 0.578946 0
M  V30 5922 O 572.194 1.71754 0.427731 0
M  V30 5923 C 569.323 3.39181 0.530232 0
M  V30 5924 C 568.409 4.22746 -0.338613 0
M  V30 5925 N 568.8 4.85265 -1.4266 0
M  V30 5926 C 567.098 4.45813 -0.129 0
M  V30 5927 C 567.799 5.47634 -1.96142 0
M  V30 5928 N 566.775 5.28794 -1.26007 0
M  V30 5929 H 570.577 2.72173 -1.10902 0
M  V30 5930 H 568.091 1.46308 -0.704816 0
M  V30 5931 H 570.088 4.05628 0.962904 0
M  V30 5932 H 568.748 2.9486 1.35969 0
M  V30 5933 H 569.759 4.85259 -1.80953 0
M  V30 5934 H 566.436 4.12163 0.665451 0
M  V30 5935 H 567.826 6.0735 -2.8736 0
M  V30 5936 N 570.547 0.616602 1.45037 0
M  V30 5937 C 571.479 -0.135186 2.28801 0
M  V30 5938 C 572.492 -0.82303 1.40464 0
M  V30 5939 O 573.681 -0.686909 1.64754 0
M  V30 5940 C 570.781 -1.21292 3.16451 0
M  V30 5941 C 569.954 -0.61043 4.3312 0
M  V30 5942 C 569.013 -1.58022 5.01912 0
M  V30 5943 O 568.039 -1.10301 5.58411 0
M  V30 5944 N 569.241 -2.91464 5.02025 0
M  V30 5945 H 572.006 0.583612 2.93963 0
M  V30 5946 H 569.567 0.456723 1.55324 0
M  V30 5947 H 571.559 -1.86169 3.59337 0
M  V30 5948 H 570.129 -1.83412 2.53138 0
M  V30 5949 H 569.349 0.216638 3.93604 0
M  V30 5950 H 570.637 -0.188293 5.08451 0
M  V30 5951 H 570.035 -3.32829 4.57429 0
M  V30 5952 H 568.592 -3.51741 5.48745 0
M  V30 5953 N 572.025 -1.5352 0.356285 0
M  V30 5954 C 572.988 -2.24071 -0.482182 0
M  V30 5955 C 573.988 -1.24531 -1.01729 0
M  V30 5956 O 575.178 -1.48876 -0.904513 0
M  V30 5957 C 572.31 -2.97025 -1.67299 0
M  V30 5958 H 573.503 -2.99596 0.135031 0
M  V30 5959 H 571.056 -1.55928 0.107825 0
M  V30 5960 H 571.791 -2.25719 -2.32855 0
M  V30 5961 H 571.576 -3.7005 -1.29636 0
M  V30 5962 H 573.066 -3.50683 -2.26741 0
M  V30 5963 N 573.503 -0.0852151 -1.57369 0
M  V30 5964 C 574.749 0.581666 -1.94279 0
M  V30 5965 C 575.082 1.68444 -0.966446 0
M  V30 5966 O 574.357 1.945 0.00215277 0
M  V30 5967 C 574.64 1.14609 -3.41375 0
M  V30 5968 C 574.493 0.0490414 -4.49773 0
M  V30 5969 C 575.812 2.04751 -3.8957 0
M  V30 5970 H 572.931 0.209972 -0.706456 0
M  V30 5971 H 575.573 -0.153915 -1.89376 0
M  V30 5972 H 573.723 1.77297 -3.45685 0
M  V30 5973 H 575.395 -0.584721 -4.57579 0
M  V30 5974 H 573.638 -0.618638 -4.29366 0
M  V30 5975 H 574.309 0.484601 -5.49869 0
M  V30 5976 H 576.785 1.51981 -3.87351 0
M  V30 5977 H 575.661 2.41173 -4.93079 0
M  V30 5978 H 575.922 2.96107 -3.28288 0
M  V30 5979 N 574.981 1.5647 0.188427 0
M  V30 5980 C 576.397 1.50204 0.539532 0
M  V30 5981 C 576.597 0.78644 1.85519 0
M  V30 5982 O 575.653 0.339714 2.50204 0
M  V30 5983 C 576.966 2.94893 0.588103 0
M  V30 5984 C 578.514 3.05602 0.67648 0
M  V30 5985 C 578.989 4.51716 0.756101 0
M  V30 5986 N 580.48 4.55894 0.819451 0
M  V30 5987 C 581.215 5.66272 0.90134 0
M  V30 5988 N 580.711 6.86323 0.945118 0
M  V30 5989 N 582.504 5.54201 0.939043 0
M  V30 5990 H 574.655 2.01406 -0.674493 0
M  V30 5991 H 576.918 0.916828 -0.241103 0
M  V30 5992 H 576.624 3.50334 -0.309633 0
M  V30 5993 H 576.498 3.4861 1.44051 0
M  V30 5994 H 578.885 2.50206 1.56465 0
M  V30 5995 H 578.966 2.54999 -0.202262 0
M  V30 5996 H 578.61 5.07739 -0.12774 0
M  V30 5997 H 578.54 5.00058 1.65074 0
M  V30 5998 H 581.031 3.69452 0.794594 0
M  V30 5999 H 581.344 7.66194 1.0083 0
M  V30 6000 H 579.689 6.88968 0.913683 0
M  V30 6001 H 582.88 4.59333 0.901725 0
M  V30 6002 H 583.053 6.40247 0.999402 0
M  V30 6003 N 576.459 -0.456382 1.50847 0
M  V30 6004 C 577.389 -1.56025 1.73719 0
M  V30 6005 C 578.37 -1.5967 0.586473 0
M  V30 6006 O 579.555 -1.75702 0.827185 0
M  V30 6007 C 576.685 -2.94251 1.84483 0
M  V30 6008 C 575.639 -3.05471 2.99786 0
M  V30 6009 C 574.965 -4.45489 2.95709 0
M  V30 6010 C 576.265 -2.81318 4.40065 0
M  V30 6011 H 577.959 -1.37138 2.66146 0
M  V30 6012 H 575.505 -0.658299 1.28072 0
M  V30 6013 H 577.458 -3.71417 1.99067 0
M  V30 6014 H 576.182 -3.14328 0.886891 0
M  V30 6015 H 574.841 -2.30741 2.84876 0
M  V30 6016 H 574.489 -4.62505 1.97732 0
M  V30 6017 H 574.189 -4.53929 3.73125 0
M  V30 6018 H 575.713 -5.24655 3.12362 0
M  V30 6019 H 577.127 -3.48226 4.55425 0
M  V30 6020 H 575.524 -3.01188 5.19043 0
M  V30 6021 H 576.594 -1.7706 4.51418 0
M  V30 6022 N 577.937 -1.40673 -0.710563 0
M  V30 6023 C 579.348 -1.34975 -1.28991 0
M  V30 6024 C 579.699 -0.0256272 -1.96183 0
M  V30 6025 O 578.824 0.876339 -1.97862 0
M  V30 6026 C 579.419 -2.44467 -2.34567 0
M  V30 6027 C 577.978 -2.42213 -2.88114 0
M  V30 6028 C 577.125 -2.25085 -1.61963 0
M  V30 6029 H 580.076 -1.50406 -0.506343 0
M  V30 6030 H 580.097 -2.12663 -3.15523 0
M  V30 6031 H 579.609 -3.40825 -1.85634 0
M  V30 6032 H 577.71 -1.49568 -3.41263 0
M  V30 6033 H 577.823 -3.37983 -3.39565 0
M  V30 6034 H 576.187 -1.72691 -1.87216 0
M  V30 6035 H 576.97 -3.23449 -1.15047 0
M  V30 6036 N 579.415 0.9433 -1.26252 0
M  V30 6037 C 580.643 1.72367 -1.14443 0
M  V30 6038 C 581.058 1.86392 0.300572 0
M  V30 6039 O 580.415 1.36978 1.20596 0
M  V30 6040 C 580.466 3.13155 -1.806 0
M  V30 6041 O 580.187 2.99803 -3.19452 0
M  V30 6042 C 581.688 4.07417 -1.74717 0
M  V30 6043 H 578.908 0.539758 -0.398626 0
M  V30 6044 H 581.452 1.18268 -1.66832 0
M  V30 6045 H 579.607 3.64162 -1.32154 0
M  V30 6046 H 580.021 3.88697 -3.52158 0
M  V30 6047 H 581.495 5.03773 -2.25647 0
M  V30 6048 H 581.972 4.3337 -0.713244 0
M  V30 6049 H 582.578 3.6233 -2.22704 0
M  V30 6050 N 580.893 1.08022 1.14757 0
M  V30 6051 C 582.304 0.829144 1.67279 0
M  V30 6052 C 582.655 -0.644721 1.85305 0
M  V30 6053 O 581.78 -1.49838 1.56133 0
M  V30 6054 C 582.375 1.49855 3.03857 0
M  V30 6055 C 580.934 1.29482 3.53428 0
M  V30 6056 C 580.081 1.56386 2.28995 0
M  V30 6057 H 583.032 1.24134 0.988762 0
M  V30 6058 H 583.053 0.923572 3.69121 0
M  V30 6059 H 582.565 2.57123 2.90705 0
M  V30 6060 H 580.666 0.242669 3.71809 0
M  V30 6061 H 580.779 2.01974 4.34446 0
M  V30 6062 H 579.143 0.985217 2.34874 0
M  V30 6063 H 579.926 2.64851 2.18423 0
M  V30 6064 N 582.371 -1.3172 0.865308 0
M  V30 6065 C 583.319 -2.30569 0.306674 0
M  V30 6066 C 584.313 -1.59317 -0.575724 0
M  V30 6067 O 585.519 -1.73961 -0.462343 0
M  V30 6068 H 581.894 -0.747681 0.0804834 0
M  V30 6069 H 583.865 -2.75165 1.15441 0
M  V30 6070 C 582.614 -3.44358 -0.480952 0
M  V30 6071 H 581.937 -3.99354 0.18876 0
M  V30 6072 H 583.377 -4.15652 -0.837241 0
M  V30 6073 C 581.836 -2.92574 -1.67039 0
M  V30 6074 O 582.366 -2.90954 -2.76964 0
M  V30 6075 N 580.572 -2.48835 -1.50097 0
M  V30 6076 H 580.119 -2.50353 -0.606738 0
M  V30 6077 H 580.077 -2.14543 -2.29823 0
M  V30 6078 N 583.85 -0.624285 -1.44708 0
M  V30 6079 C 584.779 0.0717025 -2.3339 0
M  V30 6080 C 585.76 0.841814 -1.47809 0
M  V30 6081 O 586.946 0.809056 -1.76544 0
M  V30 6082 C 584.076 1.05852 -3.30776 0
M  V30 6083 C 583.029 0.400503 -4.26122 0
M  V30 6084 C 582.356 1.49674 -5.13324 0
M  V30 6085 C 583.656 -0.688924 -5.17737 0
M  V30 6086 H 585.35 -0.668819 -2.91834 0
M  V30 6087 H 582.896 -0.32308 -1.40329 0
M  V30 6088 H 584.849 1.5541 -3.91696 0
M  V30 6089 H 583.572 1.82984 -2.70526 0
M  V30 6090 H 582.231 -0.0743687 -3.66525 0
M  V30 6091 H 581.88 2.25877 -4.49431 0
M  V30 6092 H 581.58 1.06188 -5.77926 0
M  V30 6093 H 583.104 1.99427 -5.77115 0
M  V30 6094 H 584.518 -0.276724 -5.72632 0
M  V30 6095 H 582.915 -1.04652 -5.90904 0
M  V30 6096 H 583.985 -1.55884 -4.5916 0
M  V30 6097 N 585.328 1.53329 -0.364422 0
M  V30 6098 C 586.278 2.22472 0.499024 0
M  V30 6099 C 587.262 1.21952 1.0496 0
M  V30 6100 O 588.454 1.47405 0.979836 0
M  V30 6101 C 585.583 3.01659 1.6388 0
M  V30 6102 C 584.669 4.09555 1.10116 0
M  V30 6103 N 585.06 5.04988 0.286414 0
M  V30 6104 C 583.358 4.2424 1.37608 0
M  V30 6105 C 584.059 5.81699 -0.00781682 0
M  V30 6106 N 583.035 5.40394 0.589494 0
M  V30 6107 H 586.837 2.93611 -0.130284 0
M  V30 6108 H 584.351 1.61483 -0.172377 0
M  V30 6109 H 586.348 3.4971 2.26954 0
M  V30 6110 H 585.008 2.32051 2.27118 0
M  V30 6111 H 586.019 5.17847 -0.0742839 0
M  V30 6112 H 582.696 3.65858 2.01133 0
M  V30 6113 H 584.086 6.68587 -0.666394 0
M  V30 6114 N 586.806 0.0935595 1.57322 0
M  V30 6115 C 588.052 -0.565234 1.95388 0
M  V30 6116 C 588.407 -1.65888 0.974632 0
M  V30 6117 O 587.7 -1.916 0.000376385 0
M  V30 6118 C 587.894 -1.16692 3.37813 0
M  V30 6119 C 587.723 -0.133091 4.49503 0
M  V30 6120 C 586.493 0.289884 5.04468 0
M  V30 6121 C 588.691 0.638141 5.10326 0
M  V30 6122 N 586.673 1.31214 5.99713 0
M  V30 6123 C 588.044 1.51227 6.01274 0
M  V30 6124 C 590.099 0.691827 4.9307 0
M  V30 6125 C 588.802 2.43536 6.76818 0
M  V30 6126 C 590.828 1.60251 5.69274 0
M  V30 6127 C 590.19 2.46427 6.59889 0
M  V30 6128 H 586.289 -0.177212 0.761656 0
M  V30 6129 H 588.873 0.175769 1.93905 0
M  V30 6130 H 587.044 -1.87775 3.39993 0
M  V30 6131 H 588.776 -1.78795 3.63063 0
M  V30 6132 H 585.531 -0.0975541 4.735 0
M  V30 6133 H 585.955 1.82143 6.52038 0
M  V30 6134 H 590.597 0.0397431 4.22781 0
M  V30 6135 H 588.315 3.0977 7.4637 0
M  V30 6136 H 591.901 1.64917 5.57937 0
M  V30 6137 H 590.781 3.15751 7.17824 0
M  V30 6138 N 588.284 -1.56567 -0.180126 0
M  V30 6139 C 589.7 -1.50488 -0.531559 0
M  V30 6140 C 589.9 -0.796267 -1.851 0
M  V30 6141 O 588.956 -0.352978 -2.50021 0
M  V30 6142 C 590.269 -2.95201 -0.572456 0
M  V30 6143 C 591.817 -3.05957 -0.660264 0
M  V30 6144 C 592.292 -4.5211 -0.732135 0
M  V30 6145 N 593.783 -4.56322 -0.795262 0
M  V30 6146 C 594.518 -5.66742 -0.871296 0
M  V30 6147 N 594.014 -6.86815 -0.908708 0
M  V30 6148 N 595.807 -5.54691 -0.909639 0
M  V30 6149 H 587.958 -2.01045 0.685165 0
M  V30 6150 H 590.221 -0.915536 0.245962 0
M  V30 6151 H 589.927 -3.50165 0.328208 0
M  V30 6152 H 589.801 -3.49369 -1.422 0
M  V30 6153 H 592.188 -2.51032 -1.55136 0
M  V30 6154 H 592.269 -2.54888 0.215783 0
M  V30 6155 H 591.913 -5.07664 0.154664 0
M  V30 6156 H 591.843 -5.00926 -1.6242 0
M  V30 6157 H 594.334 -3.69868 -0.77499 0
M  V30 6158 H 594.647 -7.66718 -0.967654 0
M  V30 6159 H 592.992 -6.89443 -0.877132 0
M  V30 6160 H 596.183 -4.59804 -0.877353 0
M  V30 6161 H 596.356 -6.40768 -0.965434 0
M  V30 6162 N 589.762 0.448376 -1.51087 0
M  V30 6163 C 590.672 1.56882 -1.74428 0
M  V30 6164 C 591.688 1.62268 -0.62809 0
M  V30 6165 O 592.864 1.79716 -0.909075 0
M  V30 6166 C 589.929 2.92947 -1.85426 0
M  V30 6167 C 588.99 2.97766 -3.09247 0
M  V30 6168 C 588.223 4.27341 -3.19711 0
M  V30 6169 O 588.446 5.19112 -2.36387 0
M  V30 6170 O 587.38 4.38219 -4.12611 0
M  V30 6171 H 591.206 1.40104 -2.69452 0
M  V30 6172 H 588.791 0.630247 -1.35456 0
M  V30 6173 H 590.673 3.73719 -1.94709 0
M  V30 6174 H 589.348 3.09876 -0.935887 0
M  V30 6175 H 588.255 2.15989 -3.0545 0
M  V30 6176 H 589.588 2.8578 -4.00738 0
M  V30 6177 N 591.24 1.41047 0.703093 0
M  V30 6178 C 592.489 1.39301 1.4587 0
M  V30 6179 C 592.802 0.00267077 1.956 0
M  V30 6180 O 594.008 -0.137414 2.71152 0
M  V30 6181 C 592.464 2.44891 2.63735 0
M  V30 6182 C 592.072 3.89796 2.20824 0
M  V30 6183 C 593.816 2.5227 3.41409 0
M  V30 6184 C 591.723 4.86955 3.35602 0
M  V30 6185 H 590.653 0.518005 0.547893 0
M  V30 6186 H 593.304 1.66839 0.764009 0
M  V30 6187 H 591.686 2.10472 3.35436 0
M  V30 6188 H 592.86 4.33424 1.56461 0
M  V30 6189 H 591.175 3.86008 1.56163 0
M  V30 6190 H 593.772 3.22044 4.26839 0
M  V30 6191 H 594.115 1.55714 3.86081 0
M  V30 6192 H 594.648 2.85742 2.7676 0
M  V30 6193 H 591.387 5.84888 2.9595 0
M  V30 6194 H 590.907 4.47982 3.98839 0
M  V30 6195 H 592.586 5.07361 4.01489 0
M  V30 6196 N 592.718 -0.936591 1.26751 0
M  V30 6197 C 593.943 -1.72288 1.15462 0
M  V30 6198 C 594.368 -1.85915 -0.285887 0
M  V30 6199 O 593.726 -1.35272 -1.20711 0
M  V30 6200 C 593.774 -3.10503 1.83359 0
M  V30 6201 O 592.878 -3.96745 1.1255 0
M  V30 6202 H 592.219 -0.52843 0.402067 0
M  V30 6203 H 594.749 -1.17271 1.67656 0
M  V30 6204 H 594.759 -3.60867 1.90365 0
M  V30 6205 H 593.434 -2.99901 2.88153 0
M  V30 6206 H 592.011 -3.55191 1.13551 0
M  V30 6207 N 594.196 -1.08629 -1.14182 0
M  V30 6208 C 595.421 -0.83902 -1.89671 0
M  V30 6209 C 595.846 0.603332 -1.78161 0
M  V30 6210 O 595.204 1.42301 -1.12339 0
M  V30 6211 C 595.252 -1.26854 -3.37551 0
M  V30 6212 O 594.356 -0.42188 -4.10236 0
M  V30 6213 H 593.697 -0.304545 -0.590041 0
M  V30 6214 H 596.227 -1.4483 -1.44518 0
M  V30 6215 H 596.237 -1.25038 -3.88368 0
M  V30 6216 H 594.912 -2.31901 -3.45246 0
M  V30 6217 H 593.489 -0.503654 -3.69483 0
M  V30 6218 N 595.674 1.31259 -0.872281 0
M  V30 6219 C 596.922 1.96233 -0.483409 0
M  V30 6220 C 597.243 1.69276 0.968012 0
M  V30 6221 O 596.513 1.00943 1.67891 0
M  V30 6222 H 595.093 0.726025 -0.175774 0
M  V30 6223 H 597.755 1.60024 -1.11258 0
M  V30 6224 H 596.851 3.05403 -0.643075 0
M  V30 6225 N 597.152 0.631951 1.44375 0
M  V30 6226 C 598.102 -0.0943862 2.27805 0
M  V30 6227 C 599.086 -0.815359 1.38711 0
M  V30 6228 O 600.278 -0.701331 1.62513 0
M  V30 6229 C 597.407 -1.07472 3.26044 0
M  V30 6230 C 596.493 -0.353329 4.22626 0
M  V30 6231 N 596.884 0.618512 5.02004 0
M  V30 6232 C 595.182 -0.597662 4.41977 0
M  V30 6233 C 595.883 1.0448 5.7224 0
M  V30 6234 N 594.859 0.383413 5.42246 0
M  V30 6235 H 598.661 0.651672 2.86584 0
M  V30 6236 H 596.175 0.45752 1.55822 0
M  V30 6237 H 598.172 -1.60969 3.84571 0
M  V30 6238 H 596.832 -1.82107 2.68825 0
M  V30 6239 H 597.843 0.996356 5.08226 0
M  V30 6240 H 594.52 -1.32682 3.95856 0
M  V30 6241 H 595.91 1.84773 6.45994 0
M  V30 6242 N 598.631 -1.53133 0.372548 0
M  V30 6243 C 599.561 -2.28876 -0.462412 0
M  V30 6244 C 600.542 -1.31583 -1.07796 0
M  V30 6245 O 601.727 -1.60461 -1.09389 0
M  V30 6246 C 598.857 -3.08317 -1.59868 0
M  V30 6247 C 597.811 -4.13355 -1.11003 0
M  V30 6248 C 597.137 -4.8092 -2.33708 0
M  V30 6249 C 598.437 -5.21955 -0.18983 0
M  V30 6250 H 600.131 -2.9892 0.169511 0
M  V30 6251 H 597.677 -1.43761 0.0829658 0
M  V30 6252 H 599.63 -3.60055 -2.18949 0
M  V30 6253 H 598.354 -2.35976 -2.25794 0
M  V30 6254 H 597.013 -3.62573 -0.541869 0
M  V30 6255 H 596.661 -4.05144 -2.98106 0
M  V30 6256 H 596.361 -5.51904 -2.01682 0
M  V30 6257 H 597.885 -5.35455 -2.93462 0
M  V30 6258 H 599.299 -5.69153 -0.688319 0
M  V30 6259 H 597.696 -6.00087 0.0398887 0
M  V30 6260 H 598.766 -4.78811 0.766057 0
M  V30 6261 N 600.109 -0.101901 -1.5727 0
M  V30 6262 C 601.019 0.868647 -2.17926 0
M  V30 6263 C 602.035 1.30527 -1.1506 0
M  V30 6264 O 603.211 1.37178 -1.47459 0
M  V30 6265 C 600.276 2.10727 -2.75309 0
M  V30 6266 C 599.337 1.7242 -3.93154 0
M  V30 6267 C 598.57 2.90377 -4.47791 0
M  V30 6268 O 598.793 4.05305 -4.01353 0
M  V30 6269 O 597.727 2.6845 -5.38719 0
M  V30 6270 H 601.553 0.382544 -3.01281 0
M  V30 6271 H 599.138 0.122812 -1.48894 0
M  V30 6272 H 601.02 2.83303 -3.11958 0
M  V30 6273 H 599.695 2.58376 -1.94996 0
M  V30 6274 H 598.602 0.970039 -3.61305 0
M  V30 6275 H 599.935 1.29528 -4.74851 0
M  V30 6276 N 601.587 1.56661 0.17182 0
M  V30 6277 C 602.517 1.99401 1.21498 0
M  V30 6278 C 603.498 0.869516 1.46197 0
M  V30 6279 O 604.683 1.13556 1.57539 0
M  V30 6280 C 601.813 2.35346 2.55401 0
M  V30 6281 C 600.767 3.5075 2.45272 0
M  V30 6282 C 600.093 3.72437 3.8366 0
M  V30 6283 C 601.393 4.84216 1.95787 0
M  V30 6284 H 603.087 2.86792 0.859699 0
M  V30 6285 H 600.633 1.37977 0.412103 0
M  V30 6286 H 602.586 2.63843 3.2858 0
M  V30 6287 H 601.31 1.44864 2.92715 0
M  V30 6288 H 599.969 3.2238 1.74547 0
M  V30 6289 H 599.617 2.79246 4.18367 0
M  V30 6290 H 599.317 4.50087 3.77751 0
M  V30 6291 H 600.841 4.03334 4.58426 0
M  V30 6292 H 602.255 5.11592 2.5874 0
M  V30 6293 H 600.652 5.65498 2.00827 0
M  V30 6294 H 601.722 4.76243 0.912159 0
M  V30 6295 N 603.065 -0.440357 1.51323 0
M  V30 6296 C 603.975 -1.55955 1.75258 0
M  V30 6297 C 604.991 -1.61933 0.636687 0
M  V30 6298 O 606.167 -1.79231 0.918593 0
M  V30 6299 C 603.232 -2.9196 1.86977 0
M  V30 6300 C 602.293 -2.96122 3.10822 0
M  V30 6301 C 601.526 -4.2564 3.21973 0
M  V30 6302 O 601.749 -5.17851 2.39137 0
M  V30 6303 O 600.683 -4.36025 4.14929 0
M  V30 6304 H 604.509 -1.38673 2.70191 0
M  V30 6305 H 602.094 -0.623055 1.35788 0
M  V30 6306 H 603.976 -3.72682 1.96688 0
M  V30 6307 H 602.651 -3.09375 0.952307 0
M  V30 6308 H 601.558 -2.14366 3.06591 0
M  V30 6309 H 602.891 -2.83651 4.02247 0
M  V30 6310 N 604.543 -1.41418 -0.695603 0
M  V30 6311 C 605.789 -1.41983 -1.45645 0
M  V30 6312 C 606.144 -0.0282216 -1.92379 0
M  V30 6313 O 605.437 0.945916 -1.66622 0
M  V30 6314 C 605.631 -2.36112 -2.68302 0
M  V30 6315 C 605.46 -3.84288 -2.33566 0
M  V30 6316 C 604.23 -4.52971 -2.23932 0
M  V30 6317 C 606.428 -4.75264 -1.96543 0
M  V30 6318 N 604.41 -5.86276 -1.82081 0
M  V30 6319 C 605.781 -5.97517 -1.6545 0
M  V30 6320 C 607.836 -4.62911 -1.83352 0
M  V30 6321 C 606.539 -7.08793 -1.22492 0
M  V30 6322 C 608.565 -5.74149 -1.41799 0
M  V30 6323 C 607.927 -6.95501 -1.11617 0
M  V30 6324 H 604.026 -0.574771 -0.530247 0
M  V30 6325 H 606.61 -1.77289 -0.804788 0
M  V30 6326 H 604.781 -2.02902 -3.31188 0
M  V30 6327 H 606.513 -2.27397 -3.34773 0
M  V30 6328 H 603.268 -4.06909 -2.42327 0
M  V30 6329 H 603.692 -6.56926 -1.63638 0
M  V30 6330 H 608.334 -3.69588 -2.05341 0
M  V30 6331 H 606.052 -8.01982 -0.992482 0
M  V30 6332 H 609.638 -5.66595 -1.32143 0
M  V30 6333 H 608.518 -7.80114 -0.799493 0
M  V30 6334 N 606.021 0.929856 -1.27246 0
M  V30 6335 C 606.953 2.03434 -1.0558 0
M  V30 6336 C 607.966 1.62795 -0.0125762 0
M  V30 6337 O 609.155 1.76685 -0.2539 0
M  V30 6338 C 606.255 3.33915 -0.57912 0
M  V30 6339 C 605.428 4.03259 -1.69415 0
M  V30 6340 C 604.487 5.12014 -1.21357 0
M  V30 6341 O 603.513 5.36097 -1.91282 0
M  V30 6342 N 604.715 5.8046 -0.0680622 0
M  V30 6343 H 607.48 2.22583 -2.00691 0
M  V30 6344 H 605.041 1.1001 -1.18783 0
M  V30 6345 H 607.033 4.03978 -0.241563 0
M  V30 6346 H 605.603 3.11355 0.278703 0
M  V30 6347 H 604.823 3.26958 -2.20209 0
M  V30 6348 H 606.111 4.46337 -2.44255 0
M  V30 6349 H 605.509 5.63345 0.515626 0
M  V30 6350 H 604.066 6.51461 0.210332 0
M  V30 6351 N 607.499 1.09233 1.13605 0
M  V30 6352 C 608.449 0.6994 2.17008 0
M  V30 6353 C 609.433 -0.285238 1.58352 0
M  V30 6354 O 610.625 -0.09592 1.7674 0
M  V30 6355 C 607.754 0.11938 3.43092 0
M  V30 6356 C 606.84 1.13031 4.0876 0
M  V30 6357 N 607.231 2.31673 4.49623 0
M  V30 6358 C 605.529 0.967999 4.35369 0
M  V30 6359 C 606.23 2.95964 5.00779 0
M  V30 6360 N 605.206 2.23534 4.95513 0
M  V30 6361 H 609.008 1.60272 2.46354 0
M  V30 6362 H 606.522 0.968257 1.30378 0
M  V30 6363 H 608.519 -0.180122 4.16511 0
M  V30 6364 H 607.179 -0.778816 3.15221 0
M  V30 6365 H 608.19 2.69277 4.42391 0
M  V30 6366 H 604.867 0.124319 4.17315 0
M  V30 6367 H 606.257 3.96813 5.42208 0
M  V30 6368 N 608.977 -1.30795 0.87923 0
M  V30 6369 C 610.388 -1.78535 0.546093 0
M  V30 6370 C 610.739 -1.72354 -0.937467 0
M  V30 6371 O 609.864 -1.2969 -1.73233 0
M  V30 6372 C 610.459 -3.24181 0.9845 0
M  V30 6373 C 609.018 -3.69779 0.702871 0
M  V30 6374 C 608.165 -2.51377 1.17068 0
M  V30 6375 H 611.116 -1.17746 1.06403 0
M  V30 6376 H 611.137 -3.79227 0.311045 0
M  V30 6377 H 610.649 -3.28647 2.06429 0
M  V30 6378 H 608.75 -3.70806 -0.365166 0
M  V30 6379 H 608.863 -4.61507 1.28639 0
M  V30 6380 H 607.227 -2.47768 0.590172 0
M  V30 6381 H 608.01 -2.58584 2.25808 0
M  V30 6382 N 610.455 -0.639598 -1.44038 0
M  V30 6383 C 611.68 -0.153117 -2.06834 0
M  V30 6384 C 612.105 1.16676 -1.47541 0
M  V30 6385 O 611.463 1.71769 -0.580093 0
M  V30 6386 C 611.511 -0.0609169 -3.60549 0
M  V30 6387 O 610.615 0.98071 -4.00569 0
M  V30 6388 H 609.956 -0.0886402 -0.658057 0
M  V30 6389 H 612.486 -0.878674 -1.84771 0
M  V30 6390 H 612.496 0.126892 -4.07803 0
M  V30 6391 H 611.171 -1.0245 -4.03084 0
M  V30 6392 H 609.748 0.766789 -3.64931 0
M  V30 6393 N 611.933 1.52934 -0.380664 0
M  V30 6394 C 613.158 2.06363 0.207157 0
M  V30 6395 C 613.583 1.25122 1.4045 0
M  V30 6396 O 612.941 0.274062 1.79217 0
M  V30 6397 C 612.989 3.56162 0.563996 0
M  V30 6398 O 612.093 3.77552 1.65917 0
M  V30 6399 H 611.434 0.663468 0.0265859 0
M  V30 6400 H 613.964 1.9719 -0.545635 0
M  V30 6401 H 613.974 3.99453 0.830752 0
M  V30 6402 H 612.649 4.14732 -0.311427 0
M  V30 6403 H 611.226 3.46154 1.3868 0
M  V30 6404 N 613.412 0.11024 1.57214 0
M  V30 6405 C 614.658 -0.544479 1.95977 0
M  V30 6406 C 615.013 -1.64845 0.992171 0
M  V30 6407 O 614.306 -1.91589 0.0206981 0
M  V30 6408 C 614.5 -1.13102 3.39032 0
M  V30 6409 C 614.329 -0.0854079 4.49619 0
M  V30 6410 C 613.099 0.343373 5.04132 0
M  V30 6411 C 615.297 0.692232 5.0962 0
M  V30 6412 N 613.279 1.37567 5.98288 0
M  V30 6413 C 614.65 1.57596 5.99636 0
M  V30 6414 C 616.705 0.744085 4.92309 0
M  V30 6415 C 615.408 2.50701 6.74197 0
M  V30 6416 C 617.434 1.6628 5.67543 0
M  V30 6417 C 616.796 2.53412 6.57238 0
M  V30 6418 H 612.895 -0.169124 0.763493 0
M  V30 6419 H 615.479 0.196326 1.93708 0
M  V30 6420 H 613.65 -1.84158 3.41965 0
M  V30 6421 H 615.382 -1.74934 3.64939 0
M  V30 6422 H 612.137 -0.0473277 4.73576 0
M  V30 6423 H 612.561 1.89048 6.50069 0
M  V30 6424 H 617.203 0.0845825 4.22715 0
M  V30 6425 H 614.921 3.17669 7.43043 0
M  V30 6426 H 618.507 1.70825 5.56156 0
M  V30 6427 H 617.387 3.23347 7.14434 0
M  V30 6428 N 614.89 -1.56749 -0.16351 0
M  V30 6429 C 615.853 -1.96121 -1.18613 0
M  V30 6430 C 616.853 -0.845765 -1.36761 0
M  V30 6431 O 618.043 -1.11268 -1.34033 0
M  V30 6432 C 615.175 -2.26282 -2.54969 0
M  V30 6433 H 616.368 -2.87639 -0.848764 0
M  V30 6434 H 613.921 -1.50928 -0.406251 0
M  V30 6435 H 614.656 -1.37504 -2.93706 0
M  V30 6436 H 614.441 -3.07595 -2.43162 0
M  V30 6437 H 615.931 -2.57638 -3.28653 0
M  V30 6438 N 616.368 0.432326 -1.51554 0
M  V30 6439 C 617.331 1.50765 -1.72634 0
M  V30 6440 C 618.331 1.49334 -0.596314 0
M  V30 6441 O 619.521 1.51268 -0.863925 0
M  V30 6442 C 616.653 2.90284 -1.7874 0
M  V30 6443 H 617.846 1.33377 -2.68609 0
M  V30 6444 H 615.399 0.661329 -1.4162 0
M  V30 6445 H 616.134 3.13071 -0.845977 0
M  V30 6446 H 615.919 2.92727 -2.6087 0
M  V30 6447 H 617.409 3.68282 -1.96871 0
M  V30 6448 N 617.846 1.41785 0.688094 0
M  V30 6449 C 618.778 1.40159 1.81351 0
M  V30 6450 C 619.791 0.30262 1.59963 0
M  V30 6451 O 620.98 0.564841 1.69327 0
M  V30 6452 C 618.08 1.16517 3.1824 0
M  V30 6453 C 617.253 2.38597 3.66593 0
M  V30 6454 C 616.312 2.10699 4.82174 0
M  V30 6455 O 615.338 2.83798 4.93404 0
M  V30 6456 N 616.54 1.10187 5.69947 0
M  V30 6457 H 619.305 2.3716 1.83236 0
M  V30 6458 H 616.866 1.36494 0.870697 0
M  V30 6459 H 618.858 0.957941 3.93199 0
M  V30 6460 H 617.428 0.280873 3.11336 0
M  V30 6461 H 616.648 2.74974 2.82459 0
M  V30 6462 H 617.936 3.19919 3.95638 0
M  V30 6463 H 617.334 0.497016 5.63512 0
M  V30 6464 H 615.891 0.954518 6.44773 0
M  V30 6465 N 619.324 -0.923095 1.27737 0
M  V30 6466 C 620.234 -2.05765 1.12685 0
M  V30 6467 C 621.25 -1.73911 0.0557197 0
M  V30 6468 O 622.426 -1.99674 0.263137 0
M  V30 6469 C 619.491 -3.37804 0.780363 0
M  V30 6470 C 618.552 -3.83326 1.93286 0
M  V30 6471 C 617.785 -5.09064 1.60281 0
M  V30 6472 O 618.008 -5.6809 0.512828 0
M  V30 6473 O 616.942 -5.50071 2.44347 0
M  V30 6474 H 620.768 -2.21378 2.07907 0
M  V30 6475 H 618.353 -1.04299 1.06968 0
M  V30 6476 H 620.235 -4.17097 0.600668 0
M  V30 6477 H 618.91 -3.23387 -0.142291 0
M  V30 6478 H 617.817 -3.049 2.16764 0
M  V30 6479 H 619.15 -4.02292 2.83588 0
M  V30 6480 N 620.802 -1.09834 -1.13024 0
M  V30 6481 C 622.03 -0.858902 -1.8823 0
M  V30 6482 C 622.445 0.590164 -1.79339 0
M  V30 6483 O 621.802 1.4065 -1.16292 0
M  V30 6484 C 621.853 -1.29066 -3.37675 0
M  V30 6485 O 621.574 -2.6829 -3.46341 0
M  V30 6486 C 623.075 -1.08421 -4.29837 0
M  V30 6487 H 620.295 -0.308713 -0.595766 0
M  V30 6488 H 622.839 -1.4614 -1.4305 0
M  V30 6489 H 620.994 -0.731961 -3.80422 0
M  V30 6490 H 621.408 -2.86598 -4.39274 0
M  V30 6491 H 622.882 -1.43553 -5.33007 0
M  V30 6492 H 623.359 -0.0223315 -4.39194 0
M  V30 6493 H 623.965 -1.62907 -3.92863 0
M  V30 6494 N 622.28 1.30327 -0.886154 0
M  V30 6495 C 623.52 1.97886 -0.511912 0
M  V30 6496 C 623.884 1.68417 0.921944 0
M  V30 6497 O 625.085 2.29319 1.40237 0
M  V30 6498 C 623.356 3.48775 -0.780444 0
M  V30 6499 S 624.915 4.35844 -0.508482 0
M  V30 6500 H 621.733 0.685024 -0.190428 0
M  V30 6501 H 624.335 1.58413 -1.14567 0
M  V30 6502 H 623.039 3.67714 -1.82248 0
M  V30 6503 H 622.57 3.93171 -0.134284 0
M  V30 6504 H 624.585 4.91893 0.65239 0
M  V30 6505 N 623.758 0.647228 1.43697 0
M  V30 6506 C 624.988 0.16551 2.05936 0
M  V30 6507 C 625.396 -1.17164 1.48557 0
M  V30 6508 O 624.739 -1.73307 0.60914 0
M  V30 6509 C 624.801 -0.00648082 3.59499 0
M  V30 6510 C 624.465 1.25503 4.39429 0
M  V30 6511 C 625.462 2.18241 4.71876 0
M  V30 6512 C 623.147 1.49494 4.79538 0
M  V30 6513 C 625.141 3.33268 5.43333 0
M  V30 6514 C 622.828 2.64815 5.50742 0
M  V30 6515 C 623.826 3.56528 5.82561 0
M  V30 6516 O 623.514 4.69836 6.52311 0
M  V30 6517 H 623.246 0.0844124 0.670709 0
M  V30 6518 H 625.8 0.88638 1.8529 0
M  V30 6519 H 624.03 -0.782661 3.78697 0
M  V30 6520 H 625.719 -0.444794 4.03456 0
M  V30 6521 H 626.485 2.00946 4.41413 0
M  V30 6522 H 622.364 0.789912 4.54182 0
M  V30 6523 H 625.908 4.04874 5.68087 0
M  V30 6524 H 621.805 2.82047 5.8062 0
M  V30 6525 H 622.573 4.69024 6.70789 0
M  V30 6526 N 625.236 -1.5273 0.388769 0
M  V30 6527 C 626.168 -2.24081 -0.481704 0
M  V30 6528 C 627.181 -1.26307 -1.02715 0
M  V30 6529 O 628.37 -1.52386 -0.929565 0
M  V30 6530 C 625.47 -2.94315 -1.68024 0
M  V30 6531 C 624.643 -4.18791 -1.26226 0
M  V30 6532 C 623.702 -4.72028 -2.32542 0
M  V30 6533 O 622.728 -5.35129 -1.93972 0
M  V30 6534 N 623.93 -4.51838 -3.64448 0
M  V30 6535 H 626.695 -2.9942 0.129591 0
M  V30 6536 H 624.256 -1.60465 0.2151 0
M  V30 6537 H 626.248 -3.26831 -2.38671 0
M  V30 6538 H 624.818 -2.22287 -2.19789 0
M  V30 6539 H 624.038 -3.92318 -0.384703 0
M  V30 6540 H 625.326 -4.99668 -0.959647 0
M  V30 6541 H 624.724 -4.01468 -3.98547 0
M  V30 6542 H 623.281 -4.88845 -4.31131 0
M  V30 6543 N 626.714 -0.118576 -1.57153 0
M  V30 6544 C 627.644 0.828436 -2.1831 0
M  V30 6545 C 628.625 1.27758 -1.12303 0
M  V30 6546 O 629.81 1.34026 -1.40537 0
M  V30 6547 C 626.94 2.07876 -2.78217 0
M  V30 6548 C 625.894 1.76742 -3.89803 0
M  V30 6549 C 625.22 3.08801 -4.36516 0
M  V30 6550 C 626.52 1.03606 -5.11921 0
M  V30 6551 H 628.214 0.318824 -2.97698 0
M  V30 6552 H 625.76 0.151911 -1.43196 0
M  V30 6553 H 627.713 2.74584 -3.19659 0
M  V30 6554 H 626.437 2.61161 -1.96118 0
M  V30 6555 H 625.096 1.12424 -3.48936 0
M  V30 6556 H 624.744 3.6002 -3.51276 0
M  V30 6557 H 624.444 2.88743 -5.11763 0
M  V30 6558 H 625.968 3.76627 -4.80608 0
M  V30 6559 H 627.382 1.60467 -5.50385 0
M  V30 6560 H 625.779 0.936454 -5.92748 0
M  V30 6561 H 626.849 0.0227421 -4.84895 0
M  V30 6562 N 628.193 1.56834 0.155195 0
M  V30 6563 C 629.609 1.51315 0.50755 0
M  V30 6564 C 629.809 0.825614 1.83809 0
M  V30 6565 O 628.865 0.39271 2.49427 0
M  V30 6566 C 630.178 2.96074 0.52542 0
M  V30 6567 C 631.726 3.06968 0.611505 0
M  V30 6568 C 632.201 4.53218 0.660115 0
M  V30 6569 N 633.692 4.5753 0.722564 0
M  V30 6570 C 634.427 5.68056 0.781023 0
M  V30 6571 N 633.923 6.88173 0.799327 0
M  V30 6572 N 635.716 5.56068 0.821278 0
M  V30 6573 H 627.867 1.9993 -0.717063 0
M  V30 6574 H 630.13 0.911507 -0.260496 0
M  V30 6575 H 629.836 3.49599 -0.383875 0
M  V30 6576 H 629.71 3.51587 1.36624 0
M  V30 6577 H 632.097 2.53468 1.51122 0
M  V30 6578 H 632.178 2.54513 -0.256306 0
M  V30 6579 H 631.822 5.07354 -0.23541 0
M  V30 6580 H 631.752 5.03447 1.5443 0
M  V30 6581 H 634.243 3.71054 0.716049 0
M  V30 6582 H 634.556 7.6816 0.845553 0
M  V30 6583 H 632.901 6.90751 0.767337 0
M  V30 6584 H 636.092 4.61142 0.804091 0
M  V30 6585 H 636.265 6.42223 0.863372 0
M  V30 6586 N 629.671 -0.424282 1.51781 0
M  V30 6587 C 630.901 -1.19297 1.68677 0
M  V30 6588 C 631.309 -1.85152 0.389258 0
M  V30 6589 O 630.652 -1.72067 -0.643311 0
M  V30 6590 C 630.714 -2.30929 2.75521 0
M  V30 6591 C 630.378 -1.85335 4.17732 0
M  V30 6592 C 631.375 -1.34951 5.0208 0
M  V30 6593 C 629.06 -1.92629 4.63896 0
M  V30 6594 C 631.054 -0.924636 6.30658 0
M  V30 6595 C 628.741 -1.49754 5.92467 0
M  V30 6596 C 629.739 -0.997543 6.75676 0
M  V30 6597 O 629.427 -0.57492 8.01842 0
M  V30 6598 H 629.159 -0.36512 0.568914 0
M  V30 6599 H 631.713 -0.507327 1.99036 0
M  V30 6600 H 629.943 -3.02811 2.40505 0
M  V30 6601 H 631.632 -2.92748 2.81165 0
M  V30 6602 H 632.398 -1.287 4.67612 0
M  V30 6603 H 628.277 -2.30491 3.99243 0
M  V30 6604 H 631.821 -0.533682 6.95556 0
M  V30 6605 H 627.718 -1.55679 6.26446 0
M  V30 6606 H 628.486 -0.699597 8.15505 0
M  V30 6607 N 631.149 -1.42148 -0.680565 0
M  V30 6608 C 632.377 -1.45696 -1.46902 0
M  V30 6609 C 632.792 -0.0665858 -1.88683 0
M  V30 6610 O 632.149 0.917436 -1.57764 0
M  V30 6611 C 632.2 -2.37898 -2.72188 0
M  V30 6612 O 631.921 -3.71526 -2.32163 0
M  V30 6613 C 633.422 -2.50407 -3.65802 0
M  V30 6614 H 630.642 -0.495729 -0.45221 0
M  V30 6615 H 633.186 -1.866 -0.836709 0
M  V30 6616 H 631.341 -2.00263 -3.31622 0
M  V30 6617 H 631.755 -4.20849 -3.13027 0
M  V30 6618 H 633.229 -3.19056 -4.50452 0
M  V30 6619 H 633.706 -1.5401 -4.11312 0
M  V30 6620 H 634.312 -2.8874 -3.12265 0
M  V30 6621 N 632.627 0.916307 -1.28225 0
M  V30 6622 C 633.875 1.6619 -1.15002 0
M  V30 6623 C 634.196 1.92642 0.302329 0
M  V30 6624 O 633.466 1.54076 1.20985 0
M  V30 6625 H 632.046 0.615964 -0.422608 0
M  V30 6626 H 634.708 1.09963 -1.60917 0
M  V30 6627 H 633.804 2.62533 -1.68769 0
M  V30 6628 N 634.105 1.10431 1.1244 0
M  V30 6629 C 635.015 0.765502 2.21759 0
M  V30 6630 C 636.031 -0.236966 1.72379 0
M  V30 6631 O 637.207 -0.0757329 2.01258 0
M  V30 6632 C 634.272 0.202316 3.46109 0
M  V30 6633 C 633.333 1.26205 4.1033 0
M  V30 6634 C 632.566 0.725648 5.28744 0
M  V30 6635 O 632.789 -0.447942 5.68638 0
M  V30 6636 O 631.723 1.48555 5.83279 0
M  V30 6637 H 635.549 1.67801 2.53133 0
M  V30 6638 H 633.134 0.879443 1.20773 0
M  V30 6639 H 635.016 -0.107918 4.21262 0
M  V30 6640 H 633.691 -0.683052 3.16411 0
M  V30 6641 H 632.598 1.62514 3.36957 0
M  V30 6642 H 633.931 2.12044 4.44183 0
M  V30 6643 N 635.583 -1.29855 0.893053 0
M  V30 6644 C 636.831 -1.9544 0.514566 0
M  V30 6645 C 637.152 -1.70795 -0.940959 0
M  V30 6646 O 636.422 -1.03601 -1.66264 0
M  V30 6647 H 635.002 -0.723137 0.187302 0
M  V30 6648 H 637.664 -1.58234 1.13789 0
M  V30 6649 H 636.76 -3.04341 0.691581 0
M  V30 6650 N 637.061 -0.65484 -1.43351 0
M  V30 6651 C 638.011 0.0581325 -2.27926 0
M  V30 6652 C 638.995 0.793188 -1.3999 0
M  V30 6653 O 640.187 0.675387 -1.63608 0
M  V30 6654 C 637.316 1.02272 -3.27712 0
M  V30 6655 C 636.402 0.286048 -4.23134 0
M  V30 6656 N 636.793 -0.698298 -5.00957 0
M  V30 6657 C 635.091 0.527272 -4.42872 0
M  V30 6658 C 635.792 -1.1357 -5.70506 0
M  V30 6659 N 634.768 -0.469631 -5.41568 0
M  V30 6660 H 638.57 -0.697182 -2.85511 0
M  V30 6661 H 636.084 -0.482252 -1.55074 0
M  V30 6662 H 638.081 1.5483 -3.87083 0
M  V30 6663 H 636.741 1.77807 -2.71688 0
M  V30 6664 H 637.752 -1.07708 -5.06576 0
M  V30 6665 H 634.429 1.26367 -3.97916 0
M  V30 6666 H 635.819 -1.95027 -6.42973 0
M  V30 6667 N 638.539 1.52521 -0.396863 0
M  V30 6668 C 639.471 2.24333 0.469814 0
M  V30 6669 C 640.484 1.2685 1.02043 0
M  V30 6670 O 641.673 1.52876 0.92147 0
M  V30 6671 C 638.773 2.95202 1.66461 0
M  V30 6672 C 637.946 4.19454 1.24003 0
M  V30 6673 C 637.005 4.73255 2.30036 0
M  V30 6674 O 636.031 5.36151 1.91131 0
M  V30 6675 N 637.233 4.53765 3.62047 0
M  V30 6676 H 639.998 2.99347 -0.145468 0
M  V30 6677 H 637.559 1.60348 -0.223606 0
M  V30 6678 H 639.551 3.28092 2.36934 0
M  V30 6679 H 638.121 2.2345 2.18607 0
M  V30 6680 H 637.341 3.92517 0.363892 0
M  V30 6681 H 638.629 5.0017 0.933135 0
M  V30 6682 H 638.027 4.03576 3.96412 0
M  V30 6683 H 636.584 4.91124 4.28533 0
M  V30 6684 N 640.017 0.126909 1.57088 0
M  V30 6685 C 641.294 -0.573152 1.87014 0
M  V30 6686 C 641.674 -1.84297 1.02945 0
M  V30 6687 O 641.022 -2.28232 0.110573 0
M  V30 6688 C 641.232 -0.857984 3.38289 0
M  V30 6689 C 642.58 -1.20759 4.07066 0
M  V30 6690 O 643.604 -0.947992 3.43353 0
M  V30 6691 O 642.463 -1.69516 5.19545 0
M  V30 6692 H 639.557 -0.290082 0.774456 0
M  V30 6693 H 642.103 0.162008 1.68925 0
M  V30 6694 H 640.875 0.0415286 3.91278 0
M  V30 6695 H 640.498 -1.64803 3.61837 0
M  V30 6696 N 641.495 -1.56914 -0.146875 0
M  V30 6697 C 642.741 -1.84515 -0.855914 0
M  V30 6698 C 643.096 -0.710909 -1.78784 0
M  V30 6699 O 642.389 0.291123 -1.89375 0
M  V30 6700 C 642.583 -3.16128 -1.66727 0
M  V30 6701 C 642.412 -4.42246 -0.815405 0
M  V30 6702 C 641.182 -5.03006 -0.480976 0
M  V30 6703 C 643.38 -5.14094 -0.145684 0
M  V30 6704 N 641.362 -6.12695 0.384476 0
M  V30 6705 C 642.733 -6.17282 0.579902 0
M  V30 6706 C 644.788 -4.97856 -0.0663705 0
M  V30 6707 C 643.491 -7.0599 1.37731 0
M  V30 6708 C 645.517 -5.87028 0.71778 0
M  V30 6709 C 644.879 -6.89698 1.43165 0
M  V30 6710 H 640.978 -0.725829 -0.291026 0
M  V30 6711 H 643.562 -1.94322 -0.121279 0
M  V30 6712 H 641.733 -3.07468 -2.37315 0
M  V30 6713 H 643.465 -3.31635 -2.31949 0
M  V30 6714 H 640.22 -4.66504 -0.816789 0
M  V30 6715 H 640.644 -6.72158 0.80823 0
M  V30 6716 H 645.286 -4.18465 -0.603929 0
M  V30 6717 H 643.004 -7.84809 1.92613 0
M  V30 6718 H 646.59 -5.76532 0.781141 0
M  V30 6719 H 645.47 -7.57505 2.02868 0
M  V30 6720 N 642.974 0.416227 -1.52004 0
M  V30 6721 C 643.921 1.50666 -1.74838 0
M  V30 6722 C 644.891 1.55245 -0.590599 0
M  V30 6723 O 646.076 1.71928 -0.827374 0
M  V30 6724 C 643.216 2.88185 -1.89851 0
M  V30 6725 C 642.329 2.92971 -3.17478 0
M  V30 6726 C 641.464 4.21745 -3.22962 0
M  V30 6727 C 640.503 4.20478 -4.4482 0
M  V30 6728 N 639.64 5.40811 -4.47736 0
M  V30 6729 H 644.48 1.30498 -2.67907 0
M  V30 6730 H 642.017 0.633568 -1.32757 0
M  V30 6731 H 643.975 3.68007 -1.96537 0
M  V30 6732 H 642.605 3.06865 -1.00169 0
M  V30 6733 H 641.657 2.05684 -3.19997 0
M  V30 6734 H 642.969 2.87899 -4.07328 0
M  V30 6735 H 642.123 5.09954 -3.28682 0
M  V30 6736 H 640.862 4.29503 -2.31038 0
M  V30 6737 H 639.867 3.30659 -4.39254 0
M  V30 6738 H 641.092 4.14366 -5.38031 0
M  V30 6739 H 639.038 5.4925 -3.58692 0
M  V30 6740 H 638.955 5.37705 -5.31422 0
M  V30 6741 H 640.223 6.30993 -4.57676 0
M  V30 6742 N 644.452 1.42507 0.673017 0
M  V30 6743 C 645.698 1.43284 1.43519 0
M  V30 6744 C 646.031 0.049668 1.94136 0
M  V30 6745 O 645.306 -0.926369 1.71022 0
M  V30 6746 C 645.589 2.45874 2.63093 0
M  V30 6747 C 645.442 3.93388 2.18096 0
M  V30 6748 C 646.761 2.45431 3.6531 0
M  V30 6749 H 643.88 0.521752 0.520522 0
M  V30 6750 H 646.522 1.73932 0.764701 0
M  V30 6751 H 644.672 2.19869 3.20296 0
M  V30 6752 H 646.344 4.30379 1.66046 0
M  V30 6753 H 644.587 4.07169 1.49652 0
M  V30 6754 H 645.258 4.60752 3.03993 0
M  V30 6755 H 647.734 2.68561 3.17827 0
M  V30 6756 H 646.61 3.19189 4.46553 0
M  V30 6757 H 646.871 1.48092 4.16559 0
M  V30 6758 N 645.93 -0.909495 1.28709 0
M  V30 6759 C 646.86 -2.0291 1.15542 0
M  V30 6760 C 647.841 -1.7002 0.0521017 0
M  V30 6761 O 649.026 -1.92835 0.229849 0
M  V30 6762 C 646.156 -3.37458 0.820935 0
M  V30 6763 C 645.11 -3.84524 1.87949 0
M  V30 6764 C 644.436 -5.16086 1.39854 0
M  V30 6765 C 645.736 -4.05918 3.28676 0
M  V30 6766 H 647.43 -2.14183 2.09203 0
M  V30 6767 H 644.976 -1.02913 1.00722 0
M  V30 6768 H 646.929 -4.1528 0.715571 0
M  V30 6769 H 645.653 -3.26249 -0.151374 0
M  V30 6770 H 644.312 -3.08911 1.97408 0
M  V30 6771 H 643.96 -5.01284 0.41518 0
M  V30 6772 H 643.66 -5.48547 2.1064 0
M  V30 6773 H 645.184 -5.96459 1.30649 0
M  V30 6774 H 646.598 -4.74252 3.22115 0
M  V30 6775 H 644.995 -4.49717 3.97334 0
M  V30 6776 H 646.065 -3.10583 3.72379 0
M  V30 6777 N 647.408 -1.11026 -1.11852 0
M  V30 6778 C 648.318 -0.777252 -2.2135 0
M  V30 6779 C 649.334 0.227821 -1.72502 0
M  V30 6780 O 650.51 0.0650587 -2.01295 0
M  V30 6781 C 647.575 -0.220668 -3.45997 0
M  V30 6782 C 646.636 -1.2838 -4.09655 0
M  V30 6783 C 645.869 -0.753678 -5.28352 0
M  V30 6784 O 646.092 0.417779 -5.68868 0
M  V30 6785 O 645.026 -1.51647 -5.82483 0
M  V30 6786 H 648.852 -1.69141 -2.5224 0
M  V30 6787 H 646.437 -0.885836 -1.20305 0
M  V30 6788 H 648.319 0.0855756 -4.21313 0
M  V30 6789 H 646.994 0.666262 -3.16769 0
M  V30 6790 H 645.901 -1.64299 -3.3609 0
M  V30 6791 H 647.234 -2.14396 -4.43052 0
M  V30 6792 N 648.886 1.2938 -0.899927 0
M  V30 6793 C 650.297 1.77644 -0.574427 0
M  V30 6794 C 650.648 1.73824 0.909928 0
M  V30 6795 O 649.773 1.32429 1.71147 0
M  V30 6796 C 650.368 3.22573 -1.03595 0
M  V30 6797 C 648.927 3.68614 -0.76161 0
M  V30 6798 C 648.074 2.49483 -1.21052 0
M  V30 6799 H 651.025 1.16038 -1.08263 0
M  V30 6800 H 651.046 3.78684 -0.371337 0
M  V30 6801 H 650.558 3.25321 -2.11631 0
M  V30 6802 H 648.659 3.7134 0.306127 0
M  V30 6803 H 648.772 4.59402 -1.35965 0
M  V30 6804 H 647.136 2.46798 -0.629515 0
M  V30 6805 H 647.919 2.54959 -2.29893 0
M  V30 6806 N 650.364 0.662433 1.43002 0
M  V30 6807 C 651.775 0.258315 1.84904 0
M  V30 6808 C 652.126 -1.19703 1.55453 0
M  V30 6809 O 651.251 -1.91484 1.00811 0
M  V30 6810 C 651.846 0.462047 3.35635 0
M  V30 6811 C 650.405 0.112165 3.76233 0
M  V30 6812 C 649.552 0.760479 2.66668 0
M  V30 6813 H 652.503 0.865467 1.33024 0
M  V30 6814 H 652.524 -0.289646 3.79396 0
M  V30 6815 H 652.036 1.52135 3.57039 0
M  V30 6816 H 650.137 -0.944179 3.60439 0
M  V30 6817 H 650.25 0.544058 4.76001 0
M  V30 6818 H 648.614 0.192887 2.53969 0
M  V30 6819 H 649.397 1.82299 2.90898 0
M  V30 6820 N 651.842 -1.52309 0.404946 0
M  V30 6821 C 652.772 -2.29805 -0.41376 0
M  V30 6822 C 653.753 -1.3384 -1.0498 0
M  V30 6823 O 654.938 -1.62745 -1.05961 0
M  V30 6824 C 652.068 -3.11639 -1.53292 0
M  V30 6825 C 651.022 -4.15616 -1.02211 0
M  V30 6826 C 650.348 -4.8577 -2.23455 0
M  V30 6827 C 651.648 -5.2224 -0.0790725 0
M  V30 6828 H 653.342 -2.98493 0.232878 0
M  V30 6829 H 650.888 -1.43552 0.113441 0
M  V30 6830 H 652.841 -3.64618 -2.11262 0
M  V30 6831 H 651.565 -2.40712 -2.20738 0
M  V30 6832 H 650.224 -3.63641 -0.46484 0
M  V30 6833 H 649.872 -4.11376 -2.89445 0
M  V30 6834 H 649.572 -5.56058 -1.89929 0
M  V30 6835 H 651.096 -5.4156 -2.82038 0
M  V30 6836 H 652.51 -5.70485 -0.567438 0
M  V30 6837 H 650.907 -5.99867 0.167167 0
M  V30 6838 H 651.977 -4.77078 0.867447 0
M  V30 6839 N 653.32 -0.135238 -1.57019 0
M  V30 6840 C 654.568 0.51777 -1.95355 0
M  V30 6841 C 654.889 1.6617 -1.02042 0
M  V30 6842 O 654.159 1.95738 -0.0797343 0
M  V30 6843 H 652.739 0.194264 -0.721298 0
M  V30 6844 H 655.401 -0.207983 -1.93787 0
M  V30 6845 H 654.497 0.901675 -2.98791 0
M  V30 6846 N 654.798 1.5699 0.138552 0
M  V30 6847 C 655.761 1.97984 1.15478 0
M  V30 6848 C 656.761 0.867416 1.35398 0
M  V30 6849 O 657.951 1.13387 1.32246 0
M  V30 6850 C 655.083 2.3031 2.51337 0
M  V30 6851 H 656.276 2.88953 0.802896 0
M  V30 6852 H 653.829 1.51555 0.382189 0
M  V30 6853 H 654.564 1.42159 2.91481 0
M  V30 6854 H 654.349 3.11425 2.38237 0
M  V30 6855 H 655.839 2.62834 3.24512 0
M  V30 6856 N 656.276 -0.40816 1.52223 0
M  V30 6857 C 657.692 -0.74685 1.41047 0
M  V30 6858 C 657.892 -1.94788 0.51573 0
M  V30 6859 O 656.948 -2.52494 -0.0181156 0
M  V30 6860 C 658.261 -0.999878 2.83589 0
M  V30 6861 C 659.809 -1.10253 2.92939 0
M  V30 6862 C 660.284 -1.38832 4.36451 0
M  V30 6863 N 661.775 -1.45694 4.3969 0
M  V30 6864 C 662.51 -1.69435 5.47795 0
M  V30 6865 N 662.006 -1.90774 6.66016 0
M  V30 6866 N 663.799 -1.71458 5.35312 0
M  V30 6867 H 655.95 0.382409 2.08929 0
M  V30 6868 H 658.213 0.108807 0.941735 0
M  V30 6869 H 657.919 -0.189723 3.51188 0
M  V30 6870 H 657.793 -1.91978 3.24691 0
M  V30 6871 H 660.18 -1.90328 2.2552 0
M  V30 6872 H 660.261 -0.160973 2.55293 0
M  V30 6873 H 659.905 -0.592741 5.04429 0
M  V30 6874 H 659.835 -2.34241 4.71634 0
M  V30 6875 H 662.326 -1.3099 3.54472 0
M  V30 6876 H 662.639 -2.08342 7.44186 0
M  V30 6877 H 660.984 -1.88037 6.69079 0
M  V30 6878 H 664.175 -1.54326 4.41929 0
M  V30 6879 H 664.348 -1.89621 6.19635 0
M  V30 6880 N 657.755 -1.42862 -0.66545 0
M  V30 6881 C 659.003 -1.43546 -1.42264 0
M  V30 6882 C 659.324 -0.0563116 -1.94919 0
M  V30 6883 O 658.594 0.906568 -1.73661 0
M  V30 6884 H 657.174 -0.528464 -0.527953 0
M  V30 6885 H 659.836 -1.78363 -0.785665 0
M  V30 6886 H 658.932 -2.14079 -2.27105 0
M  V30 6887 N 659.233 0.902656 -1.29189 0
M  V30 6888 C 660.481 1.6496 -1.16758 0
M  V30 6889 C 660.802 1.92952 0.28188 0
M  V30 6890 O 660.072 1.55351 1.19344 0
M  V30 6891 H 658.652 0.611447 -0.429118 0
M  V30 6892 H 661.314 1.0825 -1.62074 0
M  V30 6893 H 660.41 2.60728 -1.71544 0
M  V30 6894 N 660.711 1.11618 1.11262 0
M  V30 6895 C 661.939 0.888739 1.8684 0
M  V30 6896 C 662.354 -0.561558 1.80255 0
M  V30 6897 O 661.711 -1.38782 1.18515 0
M  V30 6898 C 661.762 1.34422 3.35579 0
M  V30 6899 O 661.483 2.73766 3.42029 0
M  V30 6900 C 662.984 1.15246 4.28058 0
M  V30 6901 H 660.204 0.318152 0.590779 0
M  V30 6902 H 662.748 1.48398 1.40707 0
M  V30 6903 H 660.903 0.79239 3.7921 0
M  V30 6904 H 661.317 2.9355 4.34659 0
M  V30 6905 H 662.791 1.52015 5.30656 0
M  V30 6906 H 663.268 0.0922007 4.39103 0
M  V30 6907 H 663.874 1.69136 3.90222 0
M  V30 6908 N 662.189 -1.289 0.906776 0
M  V30 6909 C 663.119 -2.29932 0.406659 0
M  V30 6910 C 664.1 -1.6189 -0.522061 0
M  V30 6911 O 665.285 -1.8935 -0.431283 0
M  V30 6912 C 662.415 -3.45425 -0.360366 0
M  V30 6913 C 661.369 -4.25316 0.478574 0
M  V30 6914 C 660.695 -5.33076 -0.416373 0
M  V30 6915 C 661.995 -4.92739 1.7322 0
M  V30 6916 H 663.689 -2.72013 1.25097 0
M  V30 6917 H 661.235 -1.30768 0.602977 0
M  V30 6918 H 663.188 -4.15186 -0.721029 0
M  V30 6919 H 661.912 -3.02206 -1.23852 0
M  V30 6920 H 660.571 -3.57273 0.821662 0
M  V30 6921 H 660.219 -4.86101 -1.29287 0
M  V30 6922 H 659.919 -5.8743 0.141309 0
M  V30 6923 H 661.443 -6.05686 -0.773072 0
M  V30 6924 H 662.857 -5.54898 1.44086 0
M  V30 6925 H 661.254 -5.57057 2.23175 0
M  V30 6926 H 662.324 -4.17625 2.46408 0
M  V30 6927 N 663.667 -0.670007 -1.42649 0
M  V30 6928 C 664.577 0.0114788 -2.34597 0
M  V30 6929 C 665.593 0.794055 -1.54825 0
M  V30 6930 O 666.769 0.737472 -1.87412 0
M  V30 6931 C 663.834 0.954436 -3.33304 0
M  V30 6932 C 662.895 0.166925 -4.28975 0
M  V30 6933 C 662.128 1.06497 -5.22967 0
M  V30 6934 O 662.351 2.30446 -5.21777 0
M  V30 6935 O 661.285 0.528347 -5.99577 0
M  V30 6936 H 665.111 -0.745794 -2.944 0
M  V30 6937 H 662.696 -0.430228 -1.43071 0
M  V30 6938 H 664.578 1.49589 -3.93956 0
M  V30 6939 H 663.253 1.69164 -2.7598 0
M  V30 6940 H 662.16 -0.418515 -3.71752 0
M  V30 6941 H 663.493 -0.531067 -4.89327 0
M  V30 6942 N 665.145 1.52092 -0.413018 0
M  V30 6943 C 666.075 2.30021 0.401567 0
M  V30 6944 C 667.056 1.34395 1.04269 0
M  V30 6945 O 668.241 1.63304 1.05097 0
M  V30 6946 C 665.371 3.12447 1.51638 0
M  V30 6947 C 664.325 4.16153 1.00005 0
M  V30 6948 C 663.651 4.86948 2.20875 0
M  V30 6949 C 664.951 5.22275 0.0513757 0
M  V30 6950 H 666.645 2.98365 -0.248704 0
M  V30 6951 H 664.191 1.4349 -0.121052 0
M  V30 6952 H 666.144 3.65733 2.09326 0
M  V30 6953 H 664.868 2.41879 2.19458 0
M  V30 6954 H 663.527 3.63882 0.445549 0
M  V30 6955 H 663.175 4.12905 2.8726 0
M  V30 6956 H 662.875 5.57057 1.86978 0
M  V30 6957 H 664.399 5.43048 2.79162 0
M  V30 6958 H 665.813 5.70778 0.537176 0
M  V30 6959 H 664.21 5.9977 -0.198977 0
M  V30 6960 H 665.28 4.76611 -0.892736 0
M  V30 6961 N 666.623 0.143563 1.56945 0
M  V30 6962 C 668.039 -0.212877 1.58174 0
M  V30 6963 C 668.239 -1.64926 1.15766 0
M  V30 6964 O 667.295 -2.37535 0.856361 0
M  V30 6965 C 668.608 0.0427573 3.0067 0
M  V30 6966 C 670.156 -0.0212221 3.12993 0
M  V30 6967 C 670.631 0.207036 4.57532 0
M  V30 6968 N 672.122 0.153845 4.62944 0
M  V30 6969 C 672.857 0.305018 5.72588 0
M  V30 6970 N 672.353 0.513722 6.90893 0
M  V30 6971 N 674.146 0.242862 5.61575 0
M  V30 6972 H 666.297 1.08148 1.82805 0
M  V30 6973 H 668.56 0.427831 0.84597 0
M  V30 6974 H 668.266 1.03672 3.36073 0
M  V30 6975 H 668.14 -0.678195 3.71053 0
M  V30 6976 H 670.527 -1.00574 2.77433 0
M  V30 6977 H 670.608 0.732004 2.45103 0
M  V30 6978 H 670.252 1.18863 4.93795 0
M  V30 6979 H 670.182 -0.566473 5.23544 0
M  V30 6980 H 672.673 -0.00294866 3.779 0
M  V30 6981 H 672.986 0.619273 7.70315 0
M  V30 6982 H 671.331 0.550001 6.9282 0
M  V30 6983 H 674.522 0.0806015 4.68031 0
M  V30 6984 H 674.695 0.364112 6.46976 0
M  V30 6985 N 668.101 -1.57061 -0.130224 0
M  V30 6986 C 669.512 -1.73539 -0.68856 0
M  V30 6987 C 669.863 -0.760554 -1.80859 0
M  V30 6988 O 668.988 0.0690796 -2.1629 0
M  V30 6989 C 669.583 -3.14666 -1.25581 0
M  V30 6990 C 668.142 -3.32689 -1.76055 0
M  V30 6991 C 667.289 -2.69436 -0.655712 0
M  V30 6992 H 670.24 -1.58412 0.0956002 0
M  V30 6993 H 670.261 -3.15595 -2.12556 0
M  V30 6994 H 669.773 -3.85593 -0.440412 0
M  V30 6995 H 667.874 -2.66786 -2.60108 0
M  V30 6996 H 667.987 -4.4077 -1.87772 0
M  V30 6997 H 666.351 -2.30362 -1.08654 0
M  V30 6998 H 667.134 -3.42979 0.14852 0
M  V30 6999 N 669.579 0.400081 -1.52437 0
M  V30 7000 C 670.995 0.739359 -1.41441 0
M  V30 7001 C 671.195 1.94512 -0.526053 0
M  V30 7002 O 670.251 2.525 0.00472502 0
M  V30 7003 C 671.564 0.984824 -2.84116 0
M  V30 7004 C 673.112 1.08698 -2.93519 0
M  V30 7005 C 673.587 1.36515 -4.37181 0
M  V30 7006 N 675.078 1.43361 -4.40457 0
M  V30 7007 C 675.813 1.66528 -5.48686 0
M  V30 7008 N 675.309 1.87239 -6.67018 0
M  V30 7009 N 677.102 1.68617 -5.36213 0
M  V30 7010 H 669.253 -0.393484 -2.08723 0
M  V30 7011 H 671.516 -0.1138 -0.941145 0
M  V30 7012 H 671.222 0.171096 -3.51284 0
M  V30 7013 H 671.096 1.90253 -3.25705 0
M  V30 7014 H 673.483 1.89129 -2.26526 0
M  V30 7015 H 673.564 0.147432 -2.55375 0
M  V30 7016 H 673.208 0.565982 -5.04737 0
M  V30 7017 H 673.138 2.31737 -4.7287 0
M  V30 7018 H 675.629 1.29108 -3.55161 0
M  V30 7019 H 675.942 2.04392 -7.45281 0
M  V30 7020 H 674.287 1.84486 -6.70067 0
M  V30 7021 H 677.478 1.5198 -4.42741 0
M  V30 7022 H 677.651 1.86332 -6.20632 0
M  V30 7023 N 671.057 1.43213 0.657864 0
M  V30 7024 C 672.282 1.48227 1.45064 0
M  V30 7025 C 672.707 0.0999939 1.87834 0
M  V30 7026 O 672.065 -0.905269 1.57081 0
M  V30 7027 C 672.113 2.42931 2.6649 0
M  V30 7028 O 671.217 1.91237 3.6538 0
M  V30 7029 H 670.558 0.501551 0.435135 0
M  V30 7030 H 673.088 1.8808 0.805431 0
M  V30 7031 H 673.098 2.6008 3.1436 0
M  V30 7032 H 671.773 3.43348 2.34701 0
M  V30 7033 H 670.35 1.83726 3.24498 0
M  V30 7034 N 672.536 -0.895792 1.29666 0
M  V30 7035 C 673.952 -1.17726 1.07763 0
M  V30 7036 C 674.152 -2.00794 -0.168576 0
M  V30 7037 O 673.208 -2.37213 -0.865244 0
M  V30 7038 C 674.521 -1.89441 2.33522 0
M  V30 7039 C 676.069 -2.02251 2.3888 0
M  V30 7040 C 676.544 -2.77378 3.64452 0
M  V30 7041 N 678.035 -2.8493 3.65198 0
M  V30 7042 C 678.77 -3.43606 4.59045 0
M  V30 7043 N 678.266 -4.03417 5.63228 0
M  V30 7044 N 680.059 -3.41317 4.46608 0
M  V30 7045 H 672.21 -0.341652 2.09634 0
M  V30 7046 H 674.473 -0.213865 0.923561 0
M  V30 7047 H 674.179 -1.35842 3.24407 0
M  V30 7048 H 674.053 -2.89893 2.41334 0
M  V30 7049 H 676.44 -2.55025 1.4848 0
M  V30 7050 H 676.521 -1.0092 2.3505 0
M  V30 7051 H 676.165 -2.25279 4.55205 0
M  V30 7052 H 676.095 -3.79062 3.65541 0
M  V30 7053 H 678.586 -2.42453 2.89871 0
M  V30 7054 H 678.899 -4.46224 6.30955 0
M  V30 7055 H 677.244 -4.01868 5.67033 0
M  V30 7056 H 680.435 -2.93812 3.64407 0
M  V30 7057 H 680.608 -3.86751 5.1993 0
M  V30 7058 N 674.014 -1.12206 -1.10668 0
M  V30 7059 C 675.244 -0.897332 -1.86095 0
M  V30 7060 C 675.652 0.556778 -1.80822 0
M  V30 7061 O 674.995 1.39658 -1.19337 0
M  V30 7062 C 675.057 -1.29095 -3.35522 0
M  V30 7063 C 674.721 -2.75586 -3.64556 0
M  V30 7064 C 675.718 -3.73785 -3.6136 0
M  V30 7065 C 673.403 -3.12432 -3.93309 0
M  V30 7066 C 675.397 -5.06845 -3.86506 0
M  V30 7067 C 673.084 -4.45675 -4.18111 0
M  V30 7068 C 674.082 -5.42691 -4.147 0
M  V30 7069 O 673.77 -6.73532 -4.38873 0
M  V30 7070 H 673.502 -0.320704 -0.595084 0
M  V30 7071 H 676.056 -1.49517 -1.40833 0
M  V30 7072 H 674.286 -0.636299 -3.81429 0
M  V30 7073 H 675.975 -1.04073 -3.92331 0
M  V30 7074 H 676.741 -3.46664 -3.39189 0
M  V30 7075 H 672.62 -2.3753 -3.95096 0
M  V30 7076 H 676.164 -5.82559 -3.83758 0
M  V30 7077 H 672.061 -4.72526 -4.39761 0
M  V30 7078 H 672.829 -6.79442 -4.564 0
M  V30 7079 N 675.492 1.28418 -0.913599 0
M  V30 7080 C 676.908 1.47411 -0.611728 0
M  V30 7081 C 677.108 1.83018 0.843008 0
M  V30 7082 O 676.164 1.93505 1.6221 0
M  V30 7083 C 677.477 2.57703 -1.5495 0
M  V30 7084 C 679.025 2.71572 -1.5562 0
M  V30 7085 C 679.5 3.85008 -2.48058 0
M  V30 7086 N 680.991 3.92361 -2.46184 0
M  V30 7087 C 681.726 4.79516 -3.14407 0
M  V30 7088 N 681.222 5.71262 -3.91958 0
M  V30 7089 N 683.015 4.73125 -3.03495 0
M  V30 7090 H 675.166 1.03585 -1.85429 0
M  V30 7091 H 677.429 0.515907 -0.795326 0
M  V30 7092 H 677.135 2.38298 -2.58663 0
M  V30 7093 H 677.009 3.54801 -1.28048 0
M  V30 7094 H 679.396 2.90366 -0.526441 0
M  V30 7095 H 679.477 1.75006 -1.86565 0
M  V30 7096 H 679.121 3.66969 -3.51136 0
M  V30 7097 H 679.051 4.80971 -2.14416 0
M  V30 7098 H 681.542 3.26749 -1.89851 0
M  V30 7099 H 681.855 6.34593 -4.41034 0
M  V30 7100 H 680.2 5.71103 -3.96063 0
M  V30 7101 H 683.391 4.00442 -2.42413 0
M  V30 7102 H 683.564 5.40834 -3.56935 0
M  V30 7103 N 676.97 0.677563 1.42291 0
M  V30 7104 C 677.9 0.014968 2.33495 0
M  V30 7105 C 678.881 -0.786376 1.50831 0
M  V30 7106 O 680.066 -0.742975 1.79426 0
M  V30 7107 C 677.196 -0.935023 3.34477 0
M  V30 7108 C 676.15 -0.242074 4.27315 0
M  V30 7109 C 675.476 -1.30519 5.18526 0
M  V30 7110 C 676.776 0.880604 5.14823 0
M  V30 7111 H 678.47 0.776671 2.89151 0
M  V30 7112 H 676.016 0.37494 1.39033 0
M  V30 7113 H 677.969 -1.40766 3.97194 0
M  V30 7114 H 676.693 -1.72818 2.77131 0
M  V30 7115 H 675.352 0.210351 3.65996 0
M  V30 7116 H 675 -2.09041 4.57505 0
M  V30 7117 H 674.7 -0.846652 5.81468 0
M  V30 7118 H 676.224 -1.7787 5.84119 0
M  V30 7119 H 677.638 0.489062 5.7121 0
M  V30 7120 H 676.035 1.26511 5.86613 0
M  V30 7121 H 677.105 1.72818 4.53059 0
M  V30 7122 N 678.448 -1.51871 0.421078 0
M  V30 7123 C 679.38 -2.25052 -0.434065 0
M  V30 7124 C 680.393 -1.28458 -1.00013 0
M  V30 7125 O 681.582 -1.54323 -0.897033 0
M  V30 7126 C 678.682 -2.97813 -1.61743 0
M  V30 7127 C 677.855 -4.21374 -1.17315 0
M  V30 7128 C 676.914 -4.76854 -2.22478 0
M  V30 7129 O 675.94 -5.39123 -1.82577 0
M  V30 7130 N 677.142 -4.59467 -3.54782 0
M  V30 7131 H 679.907 -2.99077 0.193073 0
M  V30 7132 H 677.468 -1.59972 0.249088 0
M  V30 7133 H 679.46 -3.3182 -2.31685 0
M  V30 7134 H 678.03 -2.26899 -2.15024 0
M  V30 7135 H 677.25 -3.93046 -0.3014 0
M  V30 7136 H 678.538 -5.01591 -0.853444 0
M  V30 7137 H 677.936 -4.09832 -3.89941 0
M  V30 7138 H 676.493 -4.9788 -4.20665 0
M  V30 7139 N 679.926 -0.151884 -1.56866 0
M  V30 7140 C 680.856 0.781943 -2.20018 0
M  V30 7141 C 681.837 1.25347 -1.14987 0
M  V30 7142 O 683.022 1.31015 -1.43348 0
M  V30 7143 C 680.152 2.01928 -2.82564 0
M  V30 7144 C 679.106 1.68434 -3.93464 0
M  V30 7145 C 678.432 2.99472 -4.42968 0
M  V30 7146 C 679.732 0.927244 -5.14003 0
M  V30 7147 H 681.426 0.255607 -2.98307 0
M  V30 7148 H 678.972 0.121502 -1.43486 0
M  V30 7149 H 680.925 2.67741 -3.25411 0
M  V30 7150 H 679.649 2.56943 -2.01614 0
M  V30 7151 H 678.308 1.04998 -3.51242 0
M  V30 7152 H 677.956 3.52488 -3.58834 0
M  V30 7153 H 677.656 2.77823 -5.17772 0
M  V30 7154 H 679.18 3.66348 -4.88489 0
M  V30 7155 H 680.594 1.48756 -5.53665 0
M  V30 7156 H 678.991 0.810513 -5.94601 0
M  V30 7157 H 680.061 -0.0801163 -4.84834 0
M  V30 7158 N 681.404 1.57128 0.121893 0
M  V30 7159 C 682.82 1.52357 0.47534 0
M  V30 7160 C 683.02 0.864417 1.82017 0
M  V30 7161 O 682.076 0.445529 2.48538 0
M  V30 7162 C 683.389 2.97122 0.4625 0
M  V30 7163 C 684.937 3.08196 0.546255 0
M  V30 7164 C 685.412 4.54516 0.563833 0
M  V30 7165 N 686.903 4.58959 0.625353 0
M  V30 7166 C 687.638 5.69585 0.660354 0
M  V30 7167 N 687.134 6.89714 0.653175 0
M  V30 7168 N 688.927 5.57685 0.703143 0
M  V30 7169 H 681.078 1.98364 -0.75931 0
M  V30 7170 H 683.341 0.905777 -0.279772 0
M  V30 7171 H 683.047 3.48706 -0.457943 0
M  V30 7172 H 682.921 3.54406 1.29136 0
M  V30 7173 H 685.308 2.56617 1.45712 0
M  V30 7174 H 685.389 2.53912 -0.310234 0
M  V30 7175 H 685.033 5.06741 -0.342974 0
M  V30 7176 H 684.963 5.06609 1.43716 0
M  V30 7177 H 687.454 3.72489 0.637182 0
M  V30 7178 H 687.767 7.69781 0.682425 0
M  V30 7179 H 686.112 6.92223 0.620646 0
M  V30 7180 H 689.303 4.62744 0.706095 0
M  V30 7181 H 689.476 6.43909 0.726952 0
M  V30 7182 N 682.882 -0.391992 1.52647 0
M  V30 7183 C 683.845 -1.46135 1.7657 0
M  V30 7184 C 684.845 -1.47701 0.635698 0
M  V30 7185 O 686.035 -1.48924 0.903728 0
M  V30 7186 C 683.167 -2.85443 1.86374 0
M  V30 7187 H 684.36 -1.26208 2.72051 0
M  V30 7188 H 681.913 -0.623549 1.43323 0
M  V30 7189 H 682.648 -3.10718 0.928685 0
M  V30 7190 H 682.433 -2.85708 2.68539 0
M  V30 7191 H 683.923 -3.62933 2.06566 0
M  V30 7192 N 684.36 -1.4356 -0.65026 0
M  V30 7193 C 685.776 -1.27025 -0.966269 0
M  V30 7194 C 685.976 -0.192117 -2.00582 0
M  V30 7195 O 685.032 0.428459 -2.48838 0
M  V30 7196 C 686.345 -2.63556 -1.44772 0
M  V30 7197 C 687.893 -2.71111 -1.56421 0
M  V30 7198 C 688.368 -4.08067 -2.07956 0
M  V30 7199 N 689.859 -4.10146 -2.15254 0
M  V30 7200 C 690.594 -5.12952 -2.56258 0
M  V30 7201 N 690.09 -6.26129 -2.96537 0
M  V30 7202 N 691.883 -5.00306 -2.56224 0
M  V30 7203 H 684.034 -2.12367 0.0375758 0
M  V30 7204 H 686.297 -0.946894 -0.0457782 0
M  V30 7205 H 686.003 -3.43429 -0.758271 0
M  V30 7206 H 685.877 -2.89152 -2.42221 0
M  V30 7207 H 688.264 -1.91569 -2.24467 0
M  V30 7208 H 688.345 -2.49277 -0.573967 0
M  V30 7209 H 687.989 -4.88077 -1.40511 0
M  V30 7210 H 687.919 -4.27266 -3.07817 0
M  V30 7211 H 690.41 -3.28453 -1.86887 0
M  V30 7212 H 690.723 -7.00403 -3.26582 0
M  V30 7213 H 689.068 -6.29597 -2.94334 0
M  V30 7214 H 692.259 -4.10952 -2.24135 0
M  V30 7215 H 692.432 -5.80553 -2.87857 0
M  V30 7216 N 685.838 0.888903 -1.30139 0
M  V30 7217 C 686.768 2.01046 -1.18755 0
M  V30 7218 C 687.749 1.69916 -0.0791438 0
M  V30 7219 O 688.934 1.92445 -0.260498 0
M  V30 7220 C 686.064 3.36109 -0.874518 0
M  V30 7221 C 685.018 3.81486 -1.94043 0
M  V30 7222 C 684.344 5.13796 -1.48047 0
M  V30 7223 C 685.644 4.00637 -3.35093 0
M  V30 7224 H 687.338 2.10828 -2.12584 0
M  V30 7225 H 684.884 1.01298 -1.02346 0
M  V30 7226 H 686.837 4.14089 -0.781548 0
M  V30 7227 H 685.561 3.26449 0.0994519 0
M  V30 7228 H 684.22 3.05731 -2.02297 0
M  V30 7229 H 683.868 5.0056 -0.494878 0
M  V30 7230 H 683.568 5.45127 -2.19341 0
M  V30 7231 H 685.092 5.94305 -1.40121 0
M  V30 7232 H 686.506 4.69067 -3.2962 0
M  V30 7233 H 684.903 4.43339 -4.04438 0
M  V30 7234 H 685.973 3.0462 -3.77273 0
M  V30 7235 N 687.317 1.12792 1.10072 0
M  V30 7236 C 688.265 0.794523 2.18609 0
M  V30 7237 C 689.259 -0.220271 1.67962 0
M  V30 7238 O 690.465 -0.0780938 1.79831 0
M  V30 7239 H 686.84 0.239123 0.712969 0
M  V30 7240 H 688.811 1.71823 2.43966 0
M  V30 7241 C 687.56 0.269548 3.46654 0
M  V30 7242 H 686.883 1.04171 3.8599 0
M  V30 7243 H 688.323 0.0746242 4.23934 0
M  V30 7244 C 686.782 -1.00333 3.21613 0
M  V30 7245 O 687.312 -2.08042 3.4363 0
M  V30 7246 N 685.518 -0.931763 2.75257 0
M  V30 7247 H 685.065 -0.0551197 2.57541 0
M  V30 7248 H 685.023 -1.78405 2.58881 0
M  V30 7249 N 688.795 -1.27931 0.920396 0
M  V30 7250 C 690.043 -1.94304 0.555906 0
M  V30 7251 C 690.364 -1.72753 -0.904519 0
M  V30 7252 O 689.634 -1.07104 -1.64029 0
M  V30 7253 H 688.214 -0.719001 0.202599 0
M  V30 7254 H 690.876 -1.55785 1.1712 0
M  V30 7255 H 689.972 -3.02806 0.755981 0
M  V30 7256 N 690.273 -0.685099 -1.4193 0
M  V30 7257 C 691.684 -0.287699 -1.8447 0
M  V30 7258 C 692.035 1.17215 -1.57338 0
M  V30 7259 O 691.16 1.89856 -1.03845 0
M  V30 7260 C 691.755 -0.515385 -3.34857 0
M  V30 7261 C 690.314 -0.172006 -3.76007 0
M  V30 7262 C 689.461 -0.802808 -2.65425 0
M  V30 7263 H 692.412 -0.88652 -1.3163 0
M  V30 7264 H 692.433 0.229251 -3.79809 0
M  V30 7265 H 691.945 -1.57796 -3.54573 0
M  V30 7266 H 690.046 0.886716 -3.61895 0
M  V30 7267 H 690.159 -0.619717 -4.75075 0
M  V30 7268 H 688.523 -0.233267 -2.5363 0
M  V30 7269 H 689.306 -1.86904 -2.87961 0
M  V30 7270 N 691.751 1.51645 -0.429126 0
M  V30 7271 C 692.979 2.06433 0.138994 0
M  V30 7272 C 693.394 1.29735 1.37165 0
M  V30 7273 O 692.751 0.354638 1.79021 0
M  V30 7274 C 692.802 3.58439 0.469452 0
M  V30 7275 O 692.523 4.32238 -0.714273 0
M  V30 7276 C 694.024 4.29712 1.08914 0
M  V30 7277 H 691.244 0.6709 0.0115608 0
M  V30 7278 H 693.788 1.9532 -0.605843 0
M  V30 7279 H 691.943 3.69494 1.16419 0
M  V30 7280 H 692.357 5.22704 -0.433633 0
M  V30 7281 H 693.831 5.37182 1.27042 0
M  V30 7282 H 694.308 3.87473 2.06788 0
M  V30 7283 H 694.914 4.2308 0.434028 0
M  V30 7284 N 693.229 0.160201 1.56784 0
M  V30 7285 C 694.459 -0.493449 2.00621 0
M  V30 7286 C 694.867 -1.5809 1.03943 0
M  V30 7287 O 694.21 -1.83675 0.0305343 0
M  V30 7288 C 694.272 -1.14169 3.4089 0
M  V30 7289 C 693.936 -0.197243 4.56574 0
M  V30 7290 C 694.933 0.580174 5.16653 0
M  V30 7291 C 692.618 -0.0963038 5.02208 0
M  V30 7292 C 694.612 1.44584 6.20785 0
M  V30 7293 C 692.299 0.772959 6.06192 0
M  V30 7294 C 693.297 1.54263 6.65351 0
M  V30 7295 O 692.985 2.39738 7.67321 0
M  V30 7296 H 692.717 -0.131764 0.663034 0
M  V30 7297 H 695.271 0.255728 2.03802 0
M  V30 7298 H 693.501 -1.93877 3.34587 0
M  V30 7299 H 695.19 -1.69641 3.6875 0
M  V30 7300 H 695.956 0.5123 4.82287 0
M  V30 7301 H 691.835 -0.685143 4.5588 0
M  V30 7302 H 695.379 2.04706 6.66889 0
M  V30 7303 H 691.276 0.842077 6.39984 0
M  V30 7304 H 692.044 2.33131 7.84597 0
M  V30 7305 N 694.707 -1.5719 -0.113559 0
M  V30 7306 C 695.639 -1.97393 -1.16484 0
M  V30 7307 C 696.652 -0.873964 -1.37352 0
M  V30 7308 O 697.841 -1.15222 -1.36331 0
M  V30 7309 C 694.941 -2.26174 -2.52386 0
M  V30 7310 C 694.114 -3.57479 -2.52046 0
M  V30 7311 C 693.173 -3.74409 -3.69735 0
M  V30 7312 O 692.199 -4.46463 -3.53071 0
M  V30 7313 N 693.401 -3.13588 -4.88511 0
M  V30 7314 H 696.166 -2.88184 -0.822814 0
M  V30 7315 H 693.727 -1.59044 -0.302769 0
M  V30 7316 H 695.719 -2.3471 -3.29687 0
M  V30 7317 H 694.289 -1.41483 -2.7875 0
M  V30 7318 H 693.509 -3.60081 -1.60421 0
M  V30 7319 H 694.797 -4.43775 -2.48881 0
M  V30 7320 H 694.195 -2.55026 -5.04953 0
M  V30 7321 H 692.752 -3.27637 -5.63469 0
M  V30 7322 N 696.185 0.383891 -1.52853 0
M  V30 7323 C 697.433 1.12619 -1.67814 0
M  V30 7324 C 697.754 1.90354 -0.423141 0
M  V30 7325 O 697.024 1.87649 0.562554 0
M  V30 7326 H 695.604 0.418738 -0.618601 0
M  V30 7327 H 698.266 0.43495 -1.89985 0
M  V30 7328 H 697.362 1.82624 -2.5309 0
M  V30 7329 N 697.663 1.43903 0.642637 0
M  V30 7330 C 699.074 1.40975 1.22404 0
M  V30 7331 C 699.425 0.1192 1.95838 0
M  V30 7332 O 698.55 -0.780939 2.01818 0
M  V30 7333 C 699.145 2.5538 2.22636 0
M  V30 7334 C 697.704 2.55684 2.76229 0
M  V30 7335 C 696.851 2.32556 1.51039 0
M  V30 7336 H 699.802 1.5265 0.434006 0
M  V30 7337 H 699.823 2.27474 3.05017 0
M  V30 7338 H 699.335 3.49294 1.69161 0
M  V30 7339 H 697.436 1.65679 3.33738 0
M  V30 7340 H 697.549 3.53799 3.23053 0
M  V30 7341 H 695.913 1.81427 1.78764 0
M  V30 7342 H 696.696 3.28569 0.99484 0
M  V30 7343 N 699.141 -0.881989 1.30609 0
M  V30 7344 C 700.387 -1.63649 1.20791 0
M  V30 7345 C 700.742 -1.90966 -0.234437 0
M  V30 7346 O 700.035 -1.52163 -1.16434 0
M  V30 7347 C 700.229 -2.97999 1.97311 0
M  V30 7348 C 700.058 -2.83798 3.48839 0
M  V30 7349 C 698.828 -2.83622 4.18195 0
M  V30 7350 C 701.026 -2.59529 4.44015 0
M  V30 7351 N 699.008 -2.60344 5.55962 0
M  V30 7352 C 700.379 -2.45401 5.69366 0
M  V30 7353 C 702.434 -2.44777 4.33576 0
M  V30 7354 C 701.137 -2.18023 6.85462 0
M  V30 7355 C 703.163 -2.18785 5.49443 0
M  V30 7356 C 702.525 -2.05436 6.73777 0
M  V30 7357 H 698.624 -0.603687 0.497077 0
M  V30 7358 H 701.208 -1.03908 1.64655 0
M  V30 7359 H 699.379 -3.55767 1.55834 0
M  V30 7360 H 701.111 -3.6266 1.79611 0
M  V30 7361 H 697.866 -2.95562 3.70054 0
M  V30 7362 H 698.29 -2.51709 6.28468 0
M  V30 7363 H 702.932 -2.53831 3.38126 0
M  V30 7364 H 700.65 -2.07707 7.8095 0
M  V30 7365 H 704.236 -2.08188 5.43276 0
M  V30 7366 H 703.116 -1.85605 7.61919 0
M  V30 7367 N 700.619 -1.13374 -1.09472 0
M  V30 7368 C 701.844 -0.918711 -1.85942 0
M  V30 7369 C 702.269 0.527225 -1.8056 0
M  V30 7370 O 701.627 1.37408 -1.18274 0
M  V30 7371 C 701.675 -1.41056 -3.31867 0
M  V30 7372 O 700.779 -0.595496 -4.08078 0
M  V30 7373 H 700.12 -0.329297 -0.576593 0
M  V30 7374 H 702.65 -1.50829 -1.38245 0
M  V30 7375 H 702.66 -1.41398 -3.82715 0
M  V30 7376 H 701.335 -2.46335 -3.35099 0
M  V30 7377 H 699.912 -0.659911 -3.67014 0
M  V30 7378 N 702.098 1.27442 -0.927168 0
M  V30 7379 C 703.323 1.99036 -0.583042 0
M  V30 7380 C 703.748 1.68711 0.83176 0
M  V30 7381 O 703.106 0.927081 1.55804 0
M  V30 7382 C 703.154 3.51271 -0.814925 0
M  V30 7383 O 702.258 4.12226 0.119742 0
M  V30 7384 H 701.599 0.624883 -0.224538 0
M  V30 7385 H 704.129 1.62263 -1.24628 0
M  V30 7386 H 704.139 4.01411 -0.730282 0
M  V30 7387 H 702.814 3.72676 -1.84623 0
M  V30 7388 H 701.391 3.72897 -0.0147688 0
M  V30 7389 N 703.576 0.692616 1.41565 0
M  V30 7390 C 704.822 0.231408 2.02079 0
M  V30 7391 C 705.177 -1.15514 1.53864 0
M  V30 7392 O 704.47 -1.76786 0.73873 0
M  V30 7393 C 704.664 0.225073 3.56691 0
M  V30 7394 C 704.493 1.60947 4.19912 0
M  V30 7395 C 703.263 2.2116 4.54331 0
M  V30 7396 C 705.461 2.55553 4.46315 0
M  V30 7397 N 703.443 3.52195 5.02824 0
M  V30 7398 C 704.814 3.71263 4.96552 0
M  V30 7399 C 706.869 2.53857 4.28323 0
M  V30 7400 C 705.572 4.85555 5.30687 0
M  V30 7401 C 707.598 3.67259 4.63546 0
M  V30 7402 C 706.96 4.81699 5.13951 0
M  V30 7403 H 703.059 0.130001 0.771119 0
M  V30 7404 H 705.643 0.909459 1.72154 0
M  V30 7405 H 703.814 -0.422453 3.86096 0
M  V30 7406 H 705.546 -0.250685 4.03923 0
M  V30 7407 H 702.301 1.73474 4.40685 0
M  V30 7408 H 702.725 4.19354 5.3148 0
M  V30 7409 H 707.367 1.66598 3.88594 0
M  V30 7410 H 705.085 5.73477 5.69341 0
M  V30 7411 H 708.671 3.67195 4.51286 0
M  V30 7412 H 707.551 5.67995 5.40695 0
M  V30 7413 N 705.054 -1.51416 0.437162 0
M  V30 7414 C 706.279 -2.0699 -0.130424 0
M  V30 7415 C 706.704 -1.30249 -1.35709 0
M  V30 7416 O 706.062 -0.340388 -1.78076 0
M  V30 7417 C 706.11 -3.5801 -0.43142 0
M  V30 7418 O 705.214 -3.8345 -1.5179 0
M  V30 7419 H 704.555 -0.663997 -0.00194339 0
M  V30 7420 H 707.085 -1.95029 0.618445 0
M  V30 7421 H 707.095 -4.02261 -0.681926 0
M  V30 7422 H 705.77 -4.13291 0.465137 0
M  V30 7423 H 704.347 -3.51062 -1.25737 0
M  V30 7424 N 706.532 -0.168513 -1.56696 0
M  V30 7425 C 707.809 0.523367 -1.88468 0
M  V30 7426 C 708.189 1.81503 -1.07796 0
M  V30 7427 O 707.537 2.27859 -0.171045 0
M  V30 7428 C 707.747 0.767991 -3.40445 0
M  V30 7429 C 709.095 1.09924 -4.10124 0
M  V30 7430 O 710.119 0.856625 -3.45746 0
M  V30 7431 O 708.978 1.55681 -5.23856 0
M  V30 7432 H 706.072 0.269447 -0.781874 0
M  V30 7433 H 708.618 -0.206739 -1.68436 0
M  V30 7434 H 707.39 -0.145254 -3.9103 0
M  V30 7435 H 707.013 1.55151 -3.66079 0
M  V30 7436 N 708.01 1.57248 0.105221 0
M  V30 7437 C 709.421 1.74612 0.660865 0
M  V30 7438 C 709.772 0.789231 1.79626 0
M  V30 7439 O 708.897 -0.0346611 2.16372 0
M  V30 7440 C 709.492 3.16624 1.20559 0
M  V30 7441 C 708.051 3.35447 1.7074 0
M  V30 7442 C 707.198 2.70445 0.612764 0
M  V30 7443 H 710.149 1.5824 -0.12079 0
M  V30 7444 H 710.17 3.18937 2.07508 0
M  V30 7445 H 709.682 3.86245 0.379012 0
M  V30 7446 H 707.783 2.7089 2.5583 0
M  V30 7447 H 707.896 4.43702 1.80736 0
M  V30 7448 H 706.26 2.32061 1.04975 0
M  V30 7449 H 707.043 3.42699 -0.203066 0
M  V30 7450 N 709.488 -0.375779 1.53054 0
M  V30 7451 C 710.716 -1.14036 1.72637 0
M  V30 7452 C 711.131 -1.83342 0.450687 0
M  V30 7453 O 710.488 -1.7318 -0.575749 0
M  V30 7454 C 710.539 -2.17841 2.88492 0
M  V30 7455 O 710.26 -1.51358 4.11123 0
M  V30 7456 C 711.761 -3.06924 3.19863 0
M  V30 7457 H 708.981 -0.341386 0.577665 0
M  V30 7458 H 711.525 -0.437809 1.99759 0
M  V30 7459 H 709.68 -2.8371 2.63794 0
M  V30 7460 H 710.094 -2.20439 4.75928 0
M  V30 7461 H 711.568 -3.75763 4.04359 0
M  V30 7462 H 712.045 -3.71169 2.34798 0
M  V30 7463 H 712.651 -2.46684 3.46449 0
M  V30 7464 N 710.966 -1.44241 -0.634997 0
M  V30 7465 C 712.382 -1.28043 -0.952742 0
M  V30 7466 C 712.582 -0.21338 -2.00367 0
M  V30 7467 O 711.638 0.402042 -2.49279 0
M  V30 7468 C 712.951 -2.65076 -1.41968 0
M  V30 7469 C 714.499 -2.72755 -1.53537 0
M  V30 7470 C 714.974 -4.10249 -2.03616 0
M  V30 7471 N 716.465 -4.12406 -2.10892 0
M  V30 7472 C 717.2 -5.15641 -2.50803 0
M  V30 7473 N 716.696 -6.29239 -2.89879 0
M  V30 7474 N 718.489 -5.02995 -2.50903 0
M  V30 7475 H 710.64 -2.12315 0.060098 0
M  V30 7476 H 712.903 -0.947326 -0.0357325 0
M  V30 7477 H 712.609 -3.44213 -0.721804 0
M  V30 7478 H 712.483 -2.91704 -2.39141 0
M  V30 7479 H 714.87 -1.93939 -2.22422 0
M  V30 7480 H 714.951 -2.49872 -0.547496 0
M  V30 7481 H 714.595 -4.8954 -1.35327 0
M  V30 7482 H 714.525 -4.30507 -3.03268 0
M  V30 7483 H 717.016 -3.30417 -1.83393 0
M  V30 7484 H 717.329 -7.03827 -3.19135 0
M  V30 7485 H 715.674 -6.32683 -2.8764 0
M  V30 7486 H 718.865 -4.13306 -2.19763 0
M  V30 7487 H 719.038 -5.83574 -2.81683 0
M  V30 7488 N 712.444 0.87505 -1.31075 0
M  V30 7489 C 713.69 1.63009 -1.20647 0
M  V30 7490 C 714.023 1.9276 0.236045 0
M  V30 7491 O 713.298 1.55559 1.16754 0
M  V30 7492 C 713.581 2.96357 -2.0456 0
M  V30 7493 C 713.434 2.73516 -3.57084 0
M  V30 7494 C 714.753 3.974 -1.89107 0
M  V30 7495 H 711.872 0.591518 -0.439631 0
M  V30 7496 H 714.514 1.0119 -1.60812 0
M  V30 7497 H 712.664 3.49119 -1.70435 0
M  V30 7498 H 714.336 2.27465 -4.01319 0
M  V30 7499 H 712.579 2.0784 -3.80769 0
M  V30 7500 H 713.25 3.68377 -4.11099 0
M  V30 7501 H 715.726 3.5383 -2.18961 0
M  V30 7502 H 714.602 4.88596 -2.5013 0
M  V30 7503 H 714.863 4.33794 -0.85296 0
M  V30 7504 N 713.922 1.13953 1.08869 0
M  V30 7505 C 714.832 0.835666 2.19212 0
M  V30 7506 C 715.848 -0.182005 1.73045 0
M  V30 7507 O 717.024 -0.0116661 2.01397 0
M  V30 7508 C 714.089 0.312325 3.4529 0
M  V30 7509 C 713.15 1.39196 4.06107 0
M  V30 7510 C 712.383 0.893496 5.26168 0
M  V30 7511 O 712.606 -0.266807 5.69776 0
M  V30 7512 O 711.54 1.67037 5.78258 0
M  V30 7513 H 715.366 1.75769 2.47667 0
M  V30 7514 H 712.951 0.917421 1.17914 0
M  V30 7515 H 714.833 0.0261582 4.21392 0
M  V30 7516 H 713.508 -0.582042 3.18424 0
M  V30 7517 H 712.415 1.73152 3.31616 0
M  V30 7518 H 713.748 2.26068 4.37212 0
M  V30 7519 N 715.4 -1.26948 0.933913 0
M  V30 7520 C 716.628 -1.98186 0.59414 0
M  V30 7521 C 717.043 -1.69614 -0.829257 0
M  V30 7522 O 716.4 -0.960213 -1.55197 0
M  V30 7523 C 716.451 -3.52123 0.818026 0
M  V30 7524 O 716.172 -3.79698 2.18543 0
M  V30 7525 C 717.673 -4.40608 0.48781 0
M  V30 7526 H 714.893 -0.632305 0.224569 0
M  V30 7527 H 717.437 -1.61646 1.25263 0
M  V30 7528 H 715.592 -3.86851 0.206246 0
M  V30 7529 H 716.006 -4.7426 2.24005 0
M  V30 7530 H 717.48 -5.47606 0.695126 0
M  V30 7531 H 717.957 -4.35394 -0.576913 0
M  V30 7532 H 718.563 -4.11411 1.078 0
M  V30 7533 N 716.879 -0.700114 -1.41195 0
M  V30 7534 C 717.842 -0.0465706 -2.29153 0
M  V30 7535 C 718.842 0.703302 -1.44604 0
M  V30 7536 O 720.032 0.537513 -1.657 0
M  V30 7537 C 717.164 0.944324 -3.2756 0
M  V30 7538 H 718.357 -0.821064 -2.88442 0
M  V30 7539 H 715.91 -0.463869 -1.49258 0
M  V30 7540 H 716.645 1.74642 -2.73259 0
M  V30 7541 H 716.43 0.409701 -3.89954 0
M  V30 7542 H 717.92 1.39925 -3.9346 0
M  V30 7543 N 718.357 1.51182 -0.445186 0
M  V30 7544 C 719.585 2.06568 0.117091 0
M  V30 7545 C 720 1.31182 1.35781 0
M  V30 7546 O 719.357 0.373605 1.78635 0
M  V30 7547 C 719.408 3.58917 0.431408 0
M  V30 7548 O 719.129 4.31456 -0.760078 0
M  V30 7549 C 720.63 4.30843 1.0435 0
M  V30 7550 H 717.85 0.670985 0.00444436 0
M  V30 7551 H 720.394 1.94666 -0.626525 0
M  V30 7552 H 718.549 3.70708 1.12493 0
M  V30 7553 H 718.963 5.22215 -0.489048 0
M  V30 7554 H 720.437 5.38499 1.21337 0
M  V30 7555 H 720.914 3.89644 2.02667 0
M  V30 7556 H 721.52 4.23516 0.38913 0
M  V30 7557 N 719.835 0.176821 1.56605 0
M  V30 7558 C 720.745 -0.763682 2.21822 0
M  V30 7559 C 721.761 -1.24889 1.21156 0
M  V30 7560 O 722.937 -1.29987 1.53836 0
M  V30 7561 C 720.002 -1.97352 2.8505 0
M  V30 7562 C 719.063 -1.53466 4.00932 0
M  V30 7563 C 718.296 -2.68682 4.61135 0
M  V30 7564 O 718.519 -3.85694 4.20234 0
M  V30 7565 O 717.453 -2.42442 5.50913 0
M  V30 7566 H 721.279 -0.238363 3.02763 0
M  V30 7567 H 718.864 -0.0516331 1.49311 0
M  V30 7568 H 720.746 -2.68096 3.25119 0
M  V30 7569 H 719.421 -2.48779 2.07101 0
M  V30 7570 H 718.328 -0.796551 3.65521 0
M  V30 7571 H 719.661 -1.06724 4.8049 0
M  V30 7572 N 721.313 -1.57302 -0.09688 0
M  V30 7573 C 722.541 -1.90202 -0.814295 0
M  V30 7574 C 722.956 -0.770344 -1.72369 0
M  V30 7575 O 722.313 0.257764 -1.8067 0
M  V30 7576 C 722.364 -3.22708 -1.62916 0
M  V30 7577 O 722.085 -4.31522 -0.756343 0
M  V30 7578 C 723.586 -3.69459 -2.44979 0
M  V30 7579 H 720.806 -0.629275 -0.232925 0
M  V30 7580 H 723.35 -2.04364 -0.0746482 0
M  V30 7581 H 721.505 -3.1015 -2.32133 0
M  V30 7582 H 721.919 -5.07604 -1.32054 0
M  V30 7583 H 723.393 -4.64875 -2.9765 0
M  V30 7584 H 723.87 -2.97211 -3.23361 0
M  V30 7585 H 724.476 -3.84879 -1.80964 0
M  V30 7586 N 722.791 0.367657 -1.53252 0
M  V30 7587 C 723.754 1.43308 -1.78873 0
M  V30 7588 C 724.754 1.46671 -0.659115 0
M  V30 7589 O 725.944 1.47468 -0.927306 0
M  V30 7590 C 723.076 2.82442 -1.90892 0
M  V30 7591 H 724.269 1.21864 -2.74024 0
M  V30 7592 H 721.822 0.600668 -1.44297 0
M  V30 7593 H 722.557 3.09202 -0.978 0
M  V30 7594 H 722.342 2.81399 -2.73051 0
M  V30 7595 H 723.832 3.59601 -2.12314 0
M  V30 7596 N 724.269 1.44576 0.627338 0
M  V30 7597 C 725.515 1.4877 1.38705 0
M  V30 7598 C 725.87 0.119976 1.92026 0
M  V30 7599 O 725.163 -0.865341 1.70946 0
M  V30 7600 C 725.357 2.48644 2.56731 0
M  V30 7601 C 725.186 3.94994 2.14965 0
M  V30 7602 C 723.956 4.63139 2.02065 0
M  V30 7603 C 726.154 4.841 1.73643 0
M  V30 7604 N 724.136 5.94296 1.53902 0
M  V30 7605 C 725.507 6.0473 1.36753 0
M  V30 7606 C 727.562 4.71131 1.61058 0
M  V30 7607 C 726.265 7.13831 0.885353 0
M  V30 7608 C 728.291 5.8026 1.14244 0
M  V30 7609 C 727.653 7.00034 0.783067 0
M  V30 7610 H 723.752 0.599415 0.50222 0
M  V30 7611 H 726.336 1.80926 0.719285 0
M  V30 7612 H 724.507 2.18472 3.2113 0
M  V30 7613 H 726.239 2.4311 3.23542 0
M  V30 7614 H 722.994 4.18007 2.22637 0
M  V30 7615 H 723.418 6.63985 1.32108 0
M  V30 7616 H 728.06 3.78964 1.87473 0
M  V30 7617 H 725.778 8.05804 0.608716 0
M  V30 7618 H 729.364 5.72254 1.0496 0
M  V30 7619 H 728.244 7.8304 0.426381 0
M  V30 7620 N 725.747 -0.868086 1.31537 0
M  V30 7621 C 726.996 -1.61607 1.20689 0
M  V30 7622 C 727.309 -1.94204 -0.233275 0
M  V30 7623 O 728.515 -2.67515 -0.463465 0
M  V30 7624 C 726.971 -2.91348 2.11292 0
M  V30 7625 C 726.579 -2.66227 3.60315 0
M  V30 7626 C 728.323 -3.69344 2.09249 0
M  V30 7627 C 726.23 -3.91887 4.42921 0
M  V30 7628 H 725.16 -0.606373 0.448138 0
M  V30 7629 H 727.811 -0.959666 1.56405 0
M  V30 7630 H 726.193 -3.58374 1.68477 0
M  V30 7631 H 727.367 -2.07597 4.11388 0
M  V30 7632 H 725.682 -2.01582 3.64354 0
M  V30 7633 H 728.279 -4.62567 2.68209 0
M  V30 7634 H 728.622 -4.02044 1.0801 0
M  V30 7635 H 729.155 -3.09205 2.50274 0
M  V30 7636 H 725.894 -3.64336 5.44922 0
M  V30 7637 H 725.414 -4.49961 3.96605 0
M  V30 7638 H 727.093 -4.59754 4.55231 0
M  V30 7639 N 727.225 -1.14528 -1.08264 0
M  V30 7640 C 728.45 -0.938381 -1.84957 0
M  V30 7641 C 728.875 0.508044 -1.81109 0
M  V30 7642 O 728.233 1.36146 -1.19724 0
M  V30 7643 C 728.281 -1.44568 -3.30352 0
M  V30 7644 O 727.385 -0.638745 -4.07423 0
M  V30 7645 H 726.726 -0.335394 -0.573068 0
M  V30 7646 H 729.256 -1.52287 -1.36637 0
M  V30 7647 H 729.266 -1.45449 -3.81194 0
M  V30 7648 H 727.941 -2.49876 -3.32468 0
M  V30 7649 H 726.518 -0.698801 -3.66294 0
M  V30 7650 N 728.703 1.26451 -0.940633 0
M  V30 7651 C 729.633 2.28773 -0.467479 0
M  V30 7652 C 730.614 1.63218 0.478955 0
M  V30 7653 O 731.799 1.90427 0.380929 0
M  V30 7654 C 728.929 3.46259 0.268656 0
M  V30 7655 C 727.883 4.23898 -0.591171 0
M  V30 7656 C 727.209 5.33993 0.274891 0
M  V30 7657 C 728.509 4.87974 -1.86223 0
M  V30 7658 H 730.203 2.68601 -1.32265 0
M  V30 7659 H 727.749 1.29123 -0.637436 0
M  V30 7660 H 729.702 4.16951 0.610696 0
M  V30 7661 H 728.426 3.05383 1.15796 0
M  V30 7662 H 727.085 3.54969 -0.916098 0
M  V30 7663 H 726.733 4.89358 1.16353 0
M  V30 7664 H 726.433 5.86849 -0.297006 0
M  V30 7665 H 727.957 6.07523 0.612213 0
M  V30 7666 H 729.371 5.50883 -1.58747 0
M  V30 7667 H 727.768 5.50945 -2.37866 0
M  V30 7668 H 728.838 4.10945 -2.57394 0
M  V30 7669 N 730.181 0.707592 1.40822 0
M  V30 7670 C 731.427 0.244031 2.01326 0
M  V30 7671 C 731.76 -1.15722 1.55955 0
M  V30 7672 O 731.035 -1.78347 0.776044 0
M  V30 7673 C 731.318 0.315128 3.58718 0
M  V30 7674 C 731.171 1.75419 4.14184 0
M  V30 7675 C 732.49 -0.318251 4.38948 0
M  V30 7676 H 729.609 0.0901471 0.731466 0
M  V30 7677 H 732.251 0.898584 1.67408 0
M  V30 7678 H 730.401 -0.242176 3.87744 0
M  V30 7679 H 732.073 2.36626 3.95987 0
M  V30 7680 H 730.316 2.28449 3.68773 0
M  V30 7681 H 730.987 1.75538 5.23345 0
M  V30 7682 H 733.463 0.156514 4.15806 0
M  V30 7683 H 732.339 -0.238019 5.48384 0
M  V30 7684 H 732.6 -1.40067 4.19325 0
M  V30 7685 N 731.66 -1.50943 0.453197 0
M  V30 7686 C 732.888 -2.06628 -0.106135 0
M  V30 7687 C 733.303 -1.31901 -1.35084 0
M  V30 7688 O 732.66 -0.383074 -1.78434 0
M  V30 7689 C 732.711 -3.5914 -0.412368 0
M  V30 7690 O 732.432 -4.31047 0.782948 0
M  V30 7691 C 733.933 -4.31391 -1.02064 0
M  V30 7692 H 731.153 -0.670999 -0.000885896 0
M  V30 7693 H 733.697 -1.94331 0.63684 0
M  V30 7694 H 731.852 -3.71299 -1.10526 0
M  V30 7695 H 732.266 -5.21948 0.516736 0
M  V30 7696 H 733.74 -5.39135 -1.1848 0
M  V30 7697 H 734.217 -3.90714 -2.00598 0
M  V30 7698 H 734.823 -4.23716 -0.366664 0
M  V30 7699 N 733.138 -0.185124 -1.56509 0
M  V30 7700 C 734.101 0.72591 -2.17401 0
M  V30 7701 C 735.101 1.14819 -1.12575 0
M  V30 7702 O 736.291 1.0629 -1.38015 0
M  V30 7703 C 733.423 1.98979 -2.76803 0
M  V30 7704 H 734.616 0.195588 -2.99262 0
M  V30 7705 H 732.169 0.0644772 -1.56167 0
M  V30 7706 H 732.904 2.56287 -1.98714 0
M  V30 7707 H 732.689 1.69583 -3.53531 0
M  V30 7708 H 734.179 2.63966 -3.23592 0
M  V30 7709 N 734.616 1.57351 0.0885366 0
M  V30 7710 C 735.546 2.05561 1.10757 0
M  V30 7711 C 736.527 0.945789 1.41382 0
M  V30 7712 O 737.712 1.21747 1.51299 0
M  V30 7713 C 734.842 2.48554 2.42566 0
M  V30 7714 C 733.796 3.63259 2.26334 0
M  V30 7715 C 733.122 3.9225 3.63378 0
M  V30 7716 C 734.422 4.93913 1.69844 0
M  V30 7717 H 736.116 2.90946 0.706468 0
M  V30 7718 H 733.662 1.39968 0.338385 0
M  V30 7719 H 735.615 2.8089 3.14132 0
M  V30 7720 H 734.339 1.60176 2.84625 0
M  V30 7721 H 732.998 3.31179 1.57213 0
M  V30 7722 H 732.646 3.0103 4.02976 0
M  V30 7723 H 732.346 4.69478 3.53362 0
M  V30 7724 H 733.87 4.27067 4.36401 0
M  V30 7725 H 735.284 5.24588 2.31258 0
M  V30 7726 H 733.681 5.75349 1.70569 0
M  V30 7727 H 734.751 4.80409 0.65843 0
M  V30 7728 N 736.094 -0.359525 1.53444 0
M  V30 7729 C 737.044 -1.441 1.7669 0
M  V30 7730 C 738.028 -1.48408 0.621599 0
M  V30 7731 O 739.22 -1.53547 0.880468 0
M  V30 7732 C 736.349 -2.81455 1.96566 0
M  V30 7733 C 735.435 -2.81601 3.17115 0
M  V30 7734 N 735.826 -2.51388 4.38905 0
M  V30 7735 C 734.124 -3.12758 3.1796 0
M  V30 7736 C 734.825 -2.59365 5.20677 0
M  V30 7737 N 733.801 -2.94328 4.57025 0
M  V30 7738 H 737.603 -1.19613 2.68458 0
M  V30 7739 H 735.117 -0.567761 1.52152 0
M  V30 7740 H 737.114 -3.59357 2.11348 0
M  V30 7741 H 735.774 -3.06901 1.06029 0
M  V30 7742 H 736.785 -2.24873 4.66533 0
M  V30 7743 H 733.462 -3.43479 2.37336 0
M  V30 7744 H 734.852 -2.39301 6.27841 0
M  V30 7745 N 737.572 -1.44907 -0.619662 0
M  V30 7746 C 738.502 -1.55488 -1.742 0
M  V30 7747 C 739.483 -0.407143 -1.65156 0
M  V30 7748 O 740.668 -0.628743 -1.8374 0
M  V30 7749 C 737.798 -1.5097 -3.1277 0
M  V30 7750 C 736.752 -2.64337 -3.36615 0
M  V30 7751 C 736.078 -2.44872 -4.75333 0
M  V30 7752 C 737.378 -4.06423 -3.28051 0
M  V30 7753 H 739.072 -2.49432 -1.65602 0
M  V30 7754 H 736.618 -1.20047 -0.795281 0
M  V30 7755 H 738.571 -1.56971 -3.91073 0
M  V30 7756 H 737.295 -0.535486 -3.2218 0
M  V30 7757 H 735.954 -2.57744 -2.60698 0
M  V30 7758 H 735.602 -1.45617 -4.81461 0
M  V30 7759 H 735.302 -3.20888 -4.92244 0
M  V30 7760 H 736.826 -2.52709 -5.55851 0
M  V30 7761 H 738.24 -4.14324 -3.96243 0
M  V30 7762 H 736.637 -4.82733 -3.56495 0
M  V30 7763 H 737.707 -4.29183 -2.25676 0
M  V30 7764 N 739.05 0.861098 -1.31996 0
M  V30 7765 C 740.296 1.61721 -1.22369 0
M  V30 7766 C 740.629 1.93 0.215587 0
M  V30 7767 O 739.904 1.56789 1.15098 0
M  V30 7768 C 740.187 2.9417 -2.07691 0
M  V30 7769 C 740.04 2.69714 -3.59965 0
M  V30 7770 C 741.359 3.95372 -1.93312 0
M  V30 7771 H 738.478 0.586822 -0.44588 0
M  V30 7772 H 741.12 0.994788 -1.61876 0
M  V30 7773 H 739.27 3.47292 -1.74128 0
M  V30 7774 H 740.942 2.23196 -4.03709 0
M  V30 7775 H 739.185 2.03789 -3.82952 0
M  V30 7776 H 739.856 3.63996 -4.14983 0
M  V30 7777 H 742.332 3.51487 -2.22701 0
M  V30 7778 H 741.208 4.85916 -2.55298 0
M  V30 7779 H 741.469 4.32865 -0.898922 0
M  V30 7780 N 740.528 1.15101 1.07655 0
M  V30 7781 C 741.458 0.867864 2.16773 0
M  V30 7782 C 742.439 -0.180283 1.69142 0
M  V30 7783 O 743.624 -0.0353152 1.94168 0
M  V30 7784 C 740.754 0.35299 3.45501 0
M  V30 7785 C 739.708 1.33746 4.06566 0
M  V30 7786 C 739.034 0.681562 5.30338 0
M  V30 7787 C 740.334 2.7024 4.46954 0
M  V30 7788 H 742.028 1.78034 2.40716 0
M  V30 7789 H 739.574 0.857435 1.15689 0
M  V30 7790 H 741.527 0.142465 4.21159 0
M  V30 7791 H 740.251 -0.594945 3.21135 0
M  V30 7792 H 738.91 1.53429 3.32949 0
M  V30 7793 H 738.558 -0.272422 5.02262 0
M  V30 7794 H 738.258 1.33853 5.72151 0
M  V30 7795 H 739.782 0.48074 6.08705 0
M  V30 7796 H 741.196 2.5442 5.13754 0
M  V30 7797 H 739.593 3.32282 4.99709 0
M  V30 7798 H 740.663 3.26537 3.58471 0
M  V30 7799 N 742.006 -1.2595 0.947325 0
M  V30 7800 C 743.254 -1.93081 0.596996 0
M  V30 7801 C 743.575 -1.74632 -0.867672 0
M  V30 7802 O 742.845 -1.1056 -1.6172 0
M  V30 7803 H 741.425 -0.714542 0.217805 0
M  V30 7804 H 744.087 -1.53265 1.20398 0
M  V30 7805 H 743.183 -3.01134 0.82004 0
M  V30 7806 N 743.484 -0.715051 -1.40445 0
M  V30 7807 C 744.414 -0.0768699 -2.33373 0
M  V30 7808 C 745.395 0.746109 -1.52863 0
M  V30 7809 O 746.58 0.695142 -1.81332 0
M  V30 7810 C 743.71 0.846014 -3.36838 0
M  V30 7811 C 742.664 0.128694 -4.27806 0
M  V30 7812 C 741.99 1.16726 -5.21804 0
M  V30 7813 C 743.29 -1.01679 -5.12307 0
M  V30 7814 H 744.984 -0.853061 -2.8699 0
M  V30 7815 H 742.53 -0.41167 -1.3799 0
M  V30 7816 H 744.483 1.30185 -4.00786 0
M  V30 7817 H 743.207 1.6541 -2.81615 0
M  V30 7818 H 741.866 -0.307314 -3.6531 0
M  V30 7819 H 741.514 1.96838 -4.62887 0
M  V30 7820 H 741.214 0.692188 -5.83509 0
M  V30 7821 H 742.738 1.62321 -5.88629 0
M  V30 7822 H 744.152 -0.640337 -5.69713 0
M  V30 7823 H 742.549 -1.4202 -5.83053 0
M  V30 7824 H 743.619 -1.84769 -4.48317 0
M  V30 7825 N 744.962 1.50701 -0.461195 0
M  V30 7826 C 746.187 2.07171 0.0974773 0
M  V30 7827 C 746.612 1.32391 1.3362 0
M  V30 7828 O 745.97 0.368676 1.77512 0
M  V30 7829 C 746.018 3.58651 0.374409 0
M  V30 7830 O 745.122 3.85816 1.4567 0
M  V30 7831 H 744.463 0.663944 -0.00862047 0
M  V30 7832 H 746.993 1.94021 -0.649394 0
M  V30 7833 H 747.003 4.03295 0.617843 0
M  V30 7834 H 745.678 4.12498 -0.530829 0
M  V30 7835 H 744.255 3.53018 1.20136 0
M  V30 7836 N 746.441 0.193421 1.56409 0
M  V30 7837 C 747.404 -0.714371 2.17783 0
M  V30 7838 C 748.404 -1.1422 1.13183 0
M  V30 7839 O 749.594 -1.05557 1.38576 0
M  V30 7840 C 746.726 -1.97509 2.77855 0
M  V30 7841 H 747.919 -0.179714 2.99361 0
M  V30 7842 H 745.472 -0.0561944 1.56199 0
M  V30 7843 H 746.207 -2.5523 2.0007 0
M  V30 7844 H 745.992 -1.67706 3.54425 0
M  V30 7845 H 747.482 -2.62246 3.24987 0
M  V30 7846 N 747.919 -1.57396 -0.0801906 0
M  V30 7847 C 749.165 -1.87113 -0.782083 0
M  V30 7848 C 749.498 -0.78458 -1.77646 0
M  V30 7849 O 748.773 0.205993 -1.93406 0
M  V30 7850 C 749.056 -3.27483 -1.49756 0
M  V30 7851 C 748.909 -4.46782 -0.520171 0
M  V30 7852 C 750.228 -3.65965 -2.44454 0
M  V30 7853 H 747.347 -0.680559 -0.282858 0
M  V30 7854 H 749.989 -1.89946 -0.0454139 0
M  V30 7855 H 748.139 -3.25199 -2.12551 0
M  V30 7856 H 749.811 -4.61187 0.101919 0
M  V30 7857 H 748.054 -4.33485 0.165219 0
M  V30 7858 H 748.725 -5.41761 -1.05824 0
M  V30 7859 H 751.201 -3.69289 -1.91742 0
M  V30 7860 H 750.077 -4.65086 -2.91524 0
M  V30 7861 H 750.338 -2.95446 -3.28883 0
M  V30 7862 N 749.397 0.351382 -1.53633 0
M  V30 7863 C 750.327 1.43688 -1.84055 0
M  V30 7864 C 751.308 1.55251 -0.695073 0
M  V30 7865 O 752.493 1.69587 -0.946257 0
M  V30 7866 C 749.623 2.80843 -2.04315 0
M  V30 7867 C 748.577 2.84094 -3.20117 0
M  V30 7868 C 747.903 4.2406 -3.25696 0
M  V30 7869 C 749.203 2.50334 -4.58399 0
M  V30 7870 H 750.897 1.18478 -2.74961 0
M  V30 7871 H 748.443 0.568509 -1.32303 0
M  V30 7872 H 750.396 3.56821 -2.2418 0
M  V30 7873 H 749.12 3.07471 -1.10132 0
M  V30 7874 H 747.779 2.10568 -3.00094 0
M  V30 7875 H 747.427 4.47785 -2.29123 0
M  V30 7876 H 747.127 4.27147 -4.03509 0
M  V30 7877 H 748.651 5.0189 -3.47762 0
M  V30 7878 H 750.065 3.16025 -4.78332 0
M  V30 7879 H 748.462 2.64717 -5.38558 0
M  V30 7880 H 749.532 1.45542 -4.62543 0
M  V30 7881 N 750.875 1.45233 0.611969 0
M  V30 7882 C 752.123 1.48727 1.36838 0
M  V30 7883 C 752.444 0.128616 1.94575 0
M  V30 7884 O 751.714 -0.84149 1.76906 0
M  V30 7885 H 750.294 0.547695 0.507976 0
M  V30 7886 H 752.956 1.81156 0.718925 0
M  V30 7887 H 752.052 2.2236 2.19003 0
M  V30 7888 N 752.353 -0.854086 1.3245 0
M  V30 7889 C 753.283 -1.97827 1.24044 0
M  V30 7890 C 754.264 -1.69646 0.124166 0
M  V30 7891 O 755.449 -1.91687 0.31143 0
M  V30 7892 C 752.579 -3.33673 0.963324 0
M  V30 7893 C 751.533 -3.76207 2.04089 0
M  V30 7894 C 750.859 -5.0969 1.61618 0
M  V30 7895 C 752.159 -3.91612 3.45597 0
M  V30 7896 H 753.853 -2.05118 2.18099 0
M  V30 7897 H 751.399 -0.985489 1.04996 0
M  V30 7898 H 753.352 -4.11871 0.891061 0
M  V30 7899 H 752.076 -3.26597 -0.0128649 0
M  V30 7900 H 750.735 -3.0026 2.10332 0
M  V30 7901 H 750.383 -4.99072 0.627418 0
M  V30 7902 H 750.083 -5.3912 2.33717 0
M  V30 7903 H 751.607 -5.90381 1.55829 0
M  V30 7904 H 753.021 -4.60163 3.4194 0
M  V30 7905 H 751.418 -4.3246 4.16051 0
M  V30 7906 H 752.488 -2.9451 3.85217 0
M  V30 7907 N 753.831 -1.1567 -1.07043 0
M  V30 7908 C 754.761 -0.879348 -2.16309 0
M  V30 7909 C 755.742 0.171311 -1.69235 0
M  V30 7910 O 756.927 0.0250175 -1.94184 0
M  V30 7911 C 754.057 -0.371307 -3.45309 0
M  V30 7912 C 753.011 -1.359 -4.05851 0
M  V30 7913 C 752.337 -0.709678 -5.29969 0
M  V30 7914 C 753.637 -2.72606 -4.45514 0
M  V30 7915 H 755.331 -1.79308 -2.39768 0
M  V30 7916 H 752.877 -0.863558 -1.15233 0
M  V30 7917 H 754.83 -0.164798 -4.21078 0
M  V30 7918 H 753.554 0.577906 -3.21446 0
M  V30 7919 H 752.213 -1.55193 -3.32131 0
M  V30 7920 H 751.861 0.245782 -5.02399 0
M  V30 7921 H 751.561 -1.36886 -5.71433 0
M  V30 7922 H 753.085 -0.513015 -6.08441 0
M  V30 7923 H 754.499 -2.57141 -5.12398 0
M  V30 7924 H 752.896 -3.34927 -4.97939 0
M  V30 7925 H 753.966 -3.28434 -3.56734 0
M  V30 7926 N 755.309 1.25446 -0.953992 0
M  V30 7927 C 756.239 2.28264 -0.491717 0
M  V30 7928 C 757.22 1.63717 0.461617 0
M  V30 7929 O 758.405 1.90821 0.36071 0
M  V30 7930 C 755.535 3.46525 0.231915 0
M  V30 7931 C 754.489 4.23247 -0.636098 0
M  V30 7932 C 753.815 5.34254 0.218238 0
M  V30 7933 C 755.115 4.85971 -1.91389 0
M  V30 7934 H 756.809 2.67183 -1.35106 0
M  V30 7935 H 754.355 1.2844 -0.651095 0
M  V30 7936 H 756.308 4.17576 0.566439 0
M  V30 7937 H 755.032 3.06594 1.12551 0
M  V30 7938 H 753.691 3.53978 -0.953696 0
M  V30 7939 H 753.339 4.90564 1.11156 0
M  V30 7940 H 753.039 5.86501 -0.359232 0
M  V30 7941 H 754.563 6.08138 0.547743 0
M  V30 7942 H 755.977 5.49168 -1.64581 0
M  V30 7943 H 754.374 5.48391 -2.43696 0
M  V30 7944 H 755.444 4.08192 -2.61738 0
M  V30 7945 N 756.787 0.722489 1.40064 0
M  V30 7946 C 757.717 0.0892452 2.33329 0
M  V30 7947 C 758.698 -0.737992 1.53257 0
M  V30 7948 O 759.883 -0.685516 1.81698 0
M  V30 7949 C 757.013 -0.828139 3.37282 0
M  V30 7950 C 755.967 -0.106005 4.27869 0
M  V30 7951 C 755.293 -1.13957 5.22415 0
M  V30 7952 C 756.593 1.04395 5.11761 0
M  V30 7953 H 758.287 0.868269 2.86534 0
M  V30 7954 H 755.833 0.418982 1.3777 0
M  V30 7955 H 757.786 -1.28058 4.01471 0
M  V30 7956 H 756.51 -1.63914 2.82489 0
M  V30 7957 H 755.169 0.326683 3.65142 0
M  V30 7958 H 754.817 -1.9438 4.63924 0
M  V30 7959 H 754.517 -0.661233 5.83868 0
M  V30 7960 H 756.041 -1.59197 5.89482 0
M  V30 7961 H 757.455 0.670541 5.69365 0
M  V30 7962 H 755.852 1.4511 5.82291 0
M  V30 7963 H 756.922 1.87144 4.47331 0
M  V30 7964 N 758.265 -1.50454 0.469181 0
M  V30 7965 C 759.681 -1.59124 0.123226 0
M  V30 7966 C 759.881 -1.47749 -1.37013 0
M  V30 7967 O 758.937 -1.335 -2.14322 0
M  V30 7968 C 760.25 -2.93101 0.67172 0
M  V30 7969 C 761.798 -3.06491 0.634978 0
M  V30 7970 C 762.273 -4.43041 1.16098 0
M  V30 7971 N 763.764 -4.49448 1.12031 0
M  V30 7972 C 764.499 -5.53491 1.49784 0
M  V30 7973 N 763.995 -6.64798 1.94976 0
M  V30 7974 N 765.788 -5.44025 1.41399 0
M  V30 7975 H 757.939 -1.56091 1.44046 0
M  V30 7976 H 760.202 -0.737564 0.59557 0
M  V30 7977 H 759.908 -3.06895 1.7178 0
M  V30 7978 H 759.782 -3.77027 0.114222 0
M  V30 7979 H 762.169 -2.92346 -0.402187 0
M  V30 7980 H 762.25 -2.24328 1.22926 0
M  V30 7981 H 761.894 -4.57935 2.19677 0
M  V30 7982 H 761.824 -5.23794 0.542939 0
M  V30 7983 H 764.315 -3.69575 0.788828 0
M  V30 7984 H 764.628 -7.40246 2.21936 0
M  V30 7985 H 762.973 -6.65923 1.98927 0
M  V30 7986 H 766.164 -4.55955 1.05935 0
M  V30 7987 H 766.337 -6.2499 1.71147 0
M  V30 7988 N 759.743 -0.201713 -1.56304 0
M  V30 7989 C 760.989 0.429292 -1.98818 0
M  V30 7990 C 761.344 1.58779 -1.08659 0
M  V30 7991 O 760.637 1.91142 -0.132365 0
M  V30 7992 C 760.831 0.931432 -3.45049 0
M  V30 7993 C 760.66 -0.176878 -4.49352 0
M  V30 7994 C 759.43 -0.636712 -5.01272 0
M  V30 7995 C 761.628 -0.988177 -5.04717 0
M  V30 7996 N 759.61 -1.72215 -5.8925 0
M  V30 7997 C 760.981 -1.92288 -5.89428 0
M  V30 7998 C 763.036 -1.02985 -4.87133 0
M  V30 7999 C 761.739 -2.89582 -6.58434 0
M  V30 8000 C 763.765 -1.99087 -5.56883 0
M  V30 8001 C 763.127 -2.913 -6.41345 0
M  V30 8002 H 759.226 0.124322 -0.772054 0
M  V30 8003 H 761.81 -0.308929 -1.92234 0
M  V30 8004 H 759.981 1.63907 -3.52121 0
M  V30 8005 H 761.713 1.5336 -3.74517 0
M  V30 8006 H 758.468 -0.228861 -4.73047 0
M  V30 8007 H 758.892 -2.26627 -6.37941 0
M  V30 8008 H 763.534 -0.330894 -4.21503 0
M  V30 8009 H 761.252 -3.6045 -7.23258 0
M  V30 8010 H 764.838 -2.0296 -5.45251 0
M  V30 8011 H 763.718 -3.6445 -6.94367 0
M  V30 8012 N 761.222 1.57436 0.0718424 0
M  V30 8013 C 762.154 2.00412 1.1121 0
M  V30 8014 C 763.167 0.910074 1.34987 0
M  V30 8015 O 764.356 1.18796 1.33228 0
M  V30 8016 C 761.456 2.32786 2.46301 0
M  V30 8017 C 760.629 3.64036 2.4248 0
M  V30 8018 C 759.688 3.8408 3.59679 0
M  V30 8019 O 758.714 4.55667 3.4111 0
M  V30 8020 N 759.916 3.2643 4.80025 0
M  V30 8021 H 762.681 2.90264 0.746118 0
M  V30 8022 H 760.242 1.59791 0.260495 0
M  V30 8023 H 762.234 2.43368 3.23348 0
M  V30 8024 H 760.804 1.48824 2.74901 0
M  V30 8025 H 760.024 3.64208 1.50818 0
M  V30 8026 H 761.312 4.50217 2.37027 0
M  V30 8027 H 760.71 2.68325 4.98014 0
M  V30 8028 H 759.267 3.42461 5.54584 0
M  V30 8029 N 762.7 -0.34323 1.53817 0
M  V30 8030 C 763.947 -1.08344 1.71079 0
M  V30 8031 C 764.275 -1.88633 0.474133 0
M  V30 8032 O 763.53 -1.87984 -0.544116 0
M  V30 8033 C 763.829 -2.05195 2.92626 0
M  V30 8034 C 763.495 -1.41215 4.28216 0
M  V30 8035 C 762.157 -1.23495 4.65083 0
M  V30 8036 C 764.509 -0.951273 5.12445 0
M  V30 8037 C 761.837 -0.583065 5.83796 0
M  V30 8038 C 764.189 -0.313292 6.31824 0
M  V30 8039 C 762.853 -0.123779 6.67385 0
M  V30 8040 H 762.123 -0.396458 0.626021 0
M  V30 8041 H 764.77 -0.362689 1.88034 0
M  V30 8042 H 763.075 -2.83653 2.70275 0
M  V30 8043 H 764.772 -2.62462 3.03175 0
M  V30 8044 H 761.362 -1.56005 3.992 0
M  V30 8045 H 765.546 -1.07602 4.84495 0
M  V30 8046 H 760.802 -0.424854 6.09922 0
M  V30 8047 H 764.976 0.0519179 6.96381 0
M  V30 8048 H 762.603 0.383398 7.59233 0
M  V30 8049 N 764.178 -1.45556 -0.604258 0
M  V30 8050 C 765.589 -1.44171 -1.18624 0
M  V30 8051 C 765.94 -0.171081 -1.95453 0
M  V30 8052 O 765.065 0.727156 -2.03817 0
M  V30 8053 C 765.66 -2.61193 -2.15786 0
M  V30 8054 C 764.219 -2.62918 -2.69353 0
M  V30 8055 C 763.366 -2.36479 -1.4482 0
M  V30 8056 H 766.317 -1.53747 -0.393381 0
M  V30 8057 H 766.338 -2.35481 -2.98879 0
M  V30 8058 H 765.85 -3.53656 -1.59841 0
M  V30 8059 H 763.951 -1.7447 -3.29228 0
M  V30 8060 H 764.064 -3.6224 -3.13559 0
M  V30 8061 H 762.428 -1.86103 -1.73891 0
M  V30 8062 H 763.211 -3.31091 -0.907376 0
M  V30 8063 N 765.656 0.84705 -1.32902 0
M  V30 8064 C 766.619 1.9378 -1.224 0
M  V30 8065 C 767.619 1.60144 -0.145108 0
M  V30 8066 O 768.809 1.69638 -0.396058 0
M  V30 8067 C 765.941 3.29234 -0.884174 0
M  V30 8068 H 767.134 2.04518 -2.19345 0
M  V30 8069 H 764.687 1.03816 -1.16842 0
M  V30 8070 H 765.422 3.24193 0.0831277 0
M  V30 8071 H 765.207 3.55026 -1.6643 0
M  V30 8072 H 766.697 4.09162 -0.835226 0
M  V30 8073 N 767.134 1.16236 1.06428 0
M  V30 8074 C 768.084 0.835994 2.12121 0
M  V30 8075 C 769.068 -0.183955 1.59845 0
M  V30 8076 O 770.26 0.0166741 1.76992 0
M  V30 8077 C 767.389 0.337333 3.41639 0
M  V30 8078 C 766.475 1.38798 4.00744 0
M  V30 8079 N 766.866 2.59799 4.3398 0
M  V30 8080 C 765.164 1.24292 4.28331 0
M  V30 8081 C 765.865 3.27213 4.80943 0
M  V30 8082 N 764.841 2.54594 4.80294 0
M  V30 8083 H 768.643 1.75615 2.35662 0
M  V30 8084 H 766.157 1.04921 1.23957 0
M  V30 8085 H 768.154 0.0851274 4.16813 0
M  V30 8086 H 766.814 -0.57677 3.19536 0
M  V30 8087 H 767.825 2.96867 4.24371 0
M  V30 8088 H 764.502 0.389464 4.15679 0
M  V30 8089 H 765.892 4.30492 5.15874 0
M  V30 8090 N 768.612 -1.24939 0.960631 0
M  V30 8091 C 769.842 -1.96595 0.635123 0
M  V30 8092 C 770.25 -1.71538 -0.798206 0
M  V30 8093 O 769.593 -0.991727 -1.5463 0
M  V30 8094 C 769.655 -3.49994 0.821248 0
M  V30 8095 C 769.319 -3.98738 2.23287 0
M  V30 8096 C 770.316 -4.08965 3.21004 0
M  V30 8097 C 768.001 -4.32247 2.55867 0
M  V30 8098 C 769.995 -4.52025 4.49391 0
M  V30 8099 C 767.682 -4.74991 3.84482 0
M  V30 8100 C 768.68 -4.84844 4.81056 0
M  V30 8101 O 768.368 -5.26638 6.07378 0
M  V30 8102 H 768.1 -0.633265 0.23654 0
M  V30 8103 H 770.654 -1.5991 1.28911 0
M  V30 8104 H 768.884 -3.86543 0.110105 0
M  V30 8105 H 770.573 -4.02859 0.495892 0
M  V30 8106 H 771.339 -3.83302 2.97161 0
M  V30 8107 H 767.218 -4.23801 1.81421 0
M  V30 8108 H 770.762 -4.5963 5.24773 0
M  V30 8109 H 766.659 -5.00101 4.08129 0
M  V30 8110 H 767.427 -5.44807 6.10842 0
M  V30 8111 N 770.09 -0.729906 -1.39679 0
M  V30 8112 C 771.506 -0.404951 -1.54377 0
M  V30 8113 C 771.706 1.08476 -1.6981 0
M  V30 8114 O 770.762 1.87087 -1.69572 0
M  V30 8115 C 772.075 -1.18352 -2.76429 0
M  V30 8116 C 773.623 -1.17124 -2.9026 0
M  V30 8117 C 774.098 -1.93227 -4.15244 0
M  V30 8118 N 775.589 -1.90368 -4.22273 0
M  V30 8119 C 776.324 -2.46065 -5.17918 0
M  V30 8120 N 775.82 -3.10378 -6.19385 0
M  V30 8121 N 777.613 -2.36127 -5.10099 0
M  V30 8122 H 769.764 -1.69567 -1.27909 0
M  V30 8123 H 772.027 -0.717527 -0.619564 0
M  V30 8124 H 771.733 -2.23743 -2.71352 0
M  V30 8125 H 771.607 -0.784589 -3.6895 0
M  V30 8126 H 773.994 -0.125478 -2.94833 0
M  V30 8127 H 774.075 -1.60951 -1.98817 0
M  V30 8128 H 773.719 -2.97802 -4.11432 0
M  V30 8129 H 773.649 -1.4681 -5.05722 0
M  V30 8130 H 776.14 -1.4351 -3.4959 0
M  V30 8131 H 776.453 -3.50358 -6.88817 0
M  V30 8132 H 774.798 -3.14467 -6.19787 0
M  V30 8133 H 777.989 -1.85529 -4.29763 0
M  V30 8134 H 778.162 -2.79833 -5.84463 0
M  V30 8135 N 771.568 1.50203 -0.477153 0
M  V30 8136 C 772.984 1.59056 -0.131663 0
M  V30 8137 C 773.184 1.48473 1.36227 0
M  V30 8138 O 772.24 1.34635 2.13611 0
M  V30 8139 C 773.553 2.92741 -0.687254 0
M  V30 8140 C 775.101 3.0615 -0.651223 0
M  V30 8141 C 775.576 4.42419 -1.18446 0
M  V30 8142 N 777.067 4.48847 -1.14413 0
M  V30 8143 C 777.802 5.52689 -1.52717 0
M  V30 8144 N 777.298 6.63754 -1.98499 0
M  V30 8145 N 779.091 5.43267 -1.44282 0
M  V30 8146 H 771.242 1.55325 -1.44872 0
M  V30 8147 H 773.505 0.734395 -0.599473 0
M  V30 8148 H 773.211 3.0598 -1.73405 0
M  V30 8149 H 773.085 3.76961 -0.134215 0
M  V30 8150 H 775.472 2.92556 0.386677 0
M  V30 8151 H 775.553 2.23673 -1.24114 0
M  V30 8152 H 775.197 4.56763 -2.22103 0
M  V30 8153 H 775.127 5.23498 -0.570709 0
M  V30 8154 H 777.618 3.69152 -0.808416 0
M  V30 8155 H 777.931 7.39059 -2.25859 0
M  V30 8156 H 776.276 6.64858 -2.02456 0
M  V30 8157 H 779.467 4.55387 -1.08352 0
M  V30 8158 H 779.64 6.24074 -1.74459 0
M  V30 8159 N 773.046 0.209999 1.56195 0
M  V30 8160 C 773.976 -0.699746 2.22769 0
M  V30 8161 C 774.957 -1.20993 1.1956 0
M  V30 8162 O 776.142 -1.25605 1.48112 0
M  V30 8163 C 773.272 -1.91302 2.89863 0
M  V30 8164 C 772.226 -1.53715 3.99444 0
M  V30 8165 C 771.552 -2.82826 4.53777 0
M  V30 8166 C 772.852 -0.735836 5.17091 0
M  V30 8167 H 774.546 -0.144716 2.9905 0
M  V30 8168 H 772.092 -0.0681645 1.43839 0
M  V30 8169 H 774.045 -2.5548 3.35124 0
M  V30 8170 H 772.769 -2.49283 2.11011 0
M  V30 8171 H 771.428 -0.918892 3.54897 0
M  V30 8172 H 771.076 -3.38927 3.71669 0
M  V30 8173 H 770.776 -2.58415 5.27727 0
M  V30 8174 H 772.3 -3.47966 5.01749 0
M  V30 8175 H 773.714 -1.28105 5.58804 0
M  V30 8176 H 772.111 -0.589272 5.972 0
M  V30 8177 H 773.181 0.260004 4.84202 0
M  V30 8178 N 774.524 -1.57472 -0.0634922 0
M  V30 8179 C 775.94 -1.54016 -0.418466 0
M  V30 8180 C 776.14 -0.931376 -1.78683 0
M  V30 8181 O 775.196 -0.537465 -2.46714 0
M  V30 8182 C 776.509 -2.98634 -0.351906 0
M  V30 8183 C 778.057 -3.10012 -0.431494 0
M  V30 8184 C 778.532 -4.56296 -0.394754 0
M  V30 8185 N 780.023 -4.60964 -0.454583 0
M  V30 8186 C 780.758 -5.71643 -0.448501 0
M  V30 8187 N 780.254 -6.91663 -0.396742 0
M  V30 8188 N 782.047 -5.5991 -0.495677 0
M  V30 8189 H 774.198 -1.95409 0.832408 0
M  V30 8190 H 776.461 -0.894769 0.313197 0
M  V30 8191 H 776.167 -3.46766 0.587048 0
M  V30 8192 H 776.041 -3.58955 -1.15893 0
M  V30 8193 H 778.428 -2.61848 -1.36087 0
M  V30 8194 H 778.509 -2.52585 0.404258 0
M  V30 8195 H 778.153 -5.05119 0.530811 0
M  V30 8196 H 778.083 -5.11594 -1.24815 0
M  V30 8197 H 780.574 -3.74598 -0.498496 0
M  V30 8198 H 780.887 -7.71783 -0.396256 0
M  V30 8199 H 779.232 -6.9405 -0.363304 0
M  V30 8200 H 782.423 -4.65046 -0.533864 0
M  V30 8201 H 782.596 -6.46164 -0.487469 0
M  V30 8202 N 776.003 0.335068 -1.53997 0
M  V30 8203 C 776.953 1.4127 -1.7896 0
M  V30 8204 C 777.937 1.474 -0.64513 0
M  V30 8205 O 779.129 1.52127 -0.904785 0
M  V30 8206 C 776.258 2.78292 -2.01018 0
M  V30 8207 C 775.344 2.7652 -3.21555 0
M  V30 8208 N 775.735 2.44374 -4.42849 0
M  V30 8209 C 774.033 3.0766 -3.22895 0
M  V30 8210 C 774.734 2.51049 -5.24737 0
M  V30 8211 N 773.71 2.8702 -4.6165 0
M  V30 8212 H 777.512 1.15327 -2.70327 0
M  V30 8213 H 775.026 0.543483 -1.53036 0
M  V30 8214 H 777.023 3.55949 -2.17039 0
M  V30 8215 H 775.683 3.05175 -1.10898 0
M  V30 8216 H 776.694 2.17422 -4.70051 0
M  V30 8217 H 773.371 3.3966 -2.42771 0
M  V30 8218 H 774.761 2.29283 -6.31569 0
M  V30 8219 N 777.481 1.45874 0.596531 0
M  V30 8220 C 778.444 1.54988 1.68853 0
M  V30 8221 C 779.444 0.428302 1.54991 0
M  V30 8222 O 780.634 0.692158 1.59859 0
M  V30 8223 C 777.766 1.457 3.08195 0
M  V30 8224 H 778.959 2.52294 1.62135 0
M  V30 8225 H 776.512 1.33479 0.813206 0
M  V30 8226 H 777.247 0.496204 3.20481 0
M  V30 8227 H 777.032 2.27061 3.19665 0
M  V30 8228 H 778.522 1.55133 3.87716 0
M  V30 8229 N 778.959 -0.83999 1.33349 0
M  V30 8230 C 779.889 -1.965 1.26135 0
M  V30 8231 C 780.87 -1.69505 0.142152 0
M  V30 8232 O 782.055 -1.91346 0.331743 0
M  V30 8233 C 779.185 -3.32632 0.99866 0
M  V30 8234 C 778.139 -3.74021 2.08068 0
M  V30 8235 C 777.465 -5.07947 1.67014 0
M  V30 8236 C 778.765 -3.87925 3.49731 0
M  V30 8237 H 780.459 -2.02793 2.20262 0
M  V30 8238 H 778.005 -0.974297 1.06035 0
M  V30 8239 H 779.958 -4.10903 0.934696 0
M  V30 8240 H 778.682 -3.26593 0.0217759 0
M  V30 8241 H 777.341 -2.98012 2.13505 0
M  V30 8242 H 776.989 -4.98378 0.680316 0
M  V30 8243 H 776.689 -5.36611 2.39422 0
M  V30 8244 H 778.213 -5.88695 1.62082 0
M  V30 8245 H 779.627 -4.5651 3.46802 0
M  V30 8246 H 778.024 -4.28023 4.20614 0
M  V30 8247 H 779.094 -2.90407 3.88319 0
M  V30 8248 N 780.437 -1.16799 -1.0581 0
M  V30 8249 C 781.683 -0.963929 -1.79109 0
M  V30 8250 C 782.038 0.502569 -1.8572 0
M  V30 8251 O 781.331 1.36813 -1.34137 0
M  V30 8252 C 781.525 -1.53111 -3.22942 0
M  V30 8253 C 781.354 -3.05123 -3.30348 0
M  V30 8254 C 780.124 -3.73804 -3.39998 0
M  V30 8255 C 782.322 -4.02777 -3.19805 0
M  V30 8256 N 780.304 -5.1348 -3.36469 0
M  V30 8257 C 781.675 -5.28866 -3.23576 0
M  V30 8258 C 783.73 -3.94533 -3.03724 0
M  V30 8259 C 782.433 -6.47669 -3.12918 0
M  V30 8260 C 784.459 -5.12913 -2.94405 0
M  V30 8261 C 783.821 -6.37884 -2.98803 0
M  V30 8262 H 779.92 -0.406555 -0.66801 0
M  V30 8263 H 782.504 -1.48277 -1.26183 0
M  V30 8264 H 780.675 -1.03869 -3.74254 0
M  V30 8265 H 782.407 -1.2643 -3.84444 0
M  V30 8266 H 779.162 -3.24457 -3.44999 0
M  V30 8267 H 779.586 -5.86477 -3.38191 0
M  V30 8268 H 784.228 -2.98763 -2.99166 0
M  V30 8269 H 781.946 -7.43656 -3.16231 0
M  V30 8270 H 785.532 -5.08309 -2.83042 0
M  V30 8271 H 784.412 -7.27946 -2.91657 0
M  V30 8272 N 781.915 1.24427 -0.967243 0
M  V30 8273 C 783.326 1.74349 -0.667785 0
M  V30 8274 C 783.677 1.78403 0.816509 0
M  V30 8275 O 782.802 1.41315 1.63887 0
M  V30 8276 C 783.397 3.16628 -1.20548 0
M  V30 8277 C 781.956 3.64059 -0.955934 0
M  V30 8278 C 781.103 2.42715 -1.34106 0
M  V30 8279 H 784.054 1.10136 -1.14262 0
M  V30 8280 H 784.075 3.76183 -0.571547 0
M  V30 8281 H 783.587 3.13646 -2.28578 0
M  V30 8282 H 781.688 3.72441 0.108858 0
M  V30 8283 H 781.801 4.51549 -1.60126 0
M  V30 8284 H 780.165 2.43114 -0.759452 0
M  V30 8285 H 780.948 2.42414 -2.43085 0
M  V30 8286 N 783.393 0.737304 1.3929 0
M  V30 8287 C 784.618 0.295237 2.05288 0
M  V30 8288 C 785.043 -1.06235 1.55228 0
M  V30 8289 O 784.401 -1.67365 0.697043 0
M  V30 8290 C 784.449 0.309146 3.59272 0
M  V30 8291 O 783.553 -0.702437 4.06374 0
M  V30 8292 H 782.894 0.133762 0.650387 0
M  V30 8293 H 785.424 1.00387 1.78279 0
M  V30 8294 H 785.434 0.154336 4.07708 0
M  V30 8295 H 784.109 1.29974 3.95069 0
M  V30 8296 H 782.686 -0.513574 3.69346 0
M  V30 8297 N 784.871 -1.49948 0.485112 0
M  V30 8298 C 785.801 -2.31675 -0.291364 0
M  V30 8299 C 786.782 -1.39216 -0.977383 0
M  V30 8300 O 787.967 -1.68133 -0.971855 0
M  V30 8301 C 785.097 -3.19326 -1.36558 0
M  V30 8302 C 784.051 -4.2045 -0.800359 0
M  V30 8303 C 783.377 -4.96931 -1.97391 0
M  V30 8304 C 784.677 -5.21925 0.197867 0
M  V30 8305 H 786.371 -2.96839 0.390775 0
M  V30 8306 H 783.917 -1.42749 0.189375 0
M  V30 8307 H 785.87 -3.75304 -1.91638 0
M  V30 8308 H 784.594 -2.52074 -2.07668 0
M  V30 8309 H 783.253 -3.65594 -0.271428 0
M  V30 8310 H 782.901 -4.26141 -2.67232 0
M  V30 8311 H 782.601 -5.65344 -1.60187 0
M  V30 8312 H 784.125 -5.55749 -2.52935 0
M  V30 8313 H 785.539 -5.72691 -0.264239 0
M  V30 8314 H 783.936 -5.98138 0.484908 0
M  V30 8315 H 785.006 -4.71809 1.11912 0
M  V30 8316 N 786.349 -0.21828 -1.56081 0
M  V30 8317 C 787.76 0.290166 -1.84431 0
M  V30 8318 C 788.111 1.59712 -1.13958 0
M  V30 8319 O 787.236 2.12516 -0.40815 0
M  V30 8320 C 787.831 0.53325 -3.34577 0
M  V30 8321 C 786.39 0.986011 -3.63256 0
M  V30 8322 C 785.537 0.0472798 -2.7726 0
M  V30 8323 H 788.488 -0.441548 -1.52434 0
M  V30 8324 H 788.509 1.37967 -3.54606 0
M  V30 8325 H 788.021 -0.418137 -3.85841 0
M  V30 8326 H 786.122 1.95087 -3.17446 0
M  V30 8327 H 786.235 0.862684 -4.71269 0
M  V30 8328 H 784.599 0.553471 -2.48614 0
M  V30 8329 H 785.382 -0.898966 -3.31321 0
M  V30 8330 N 787.827 1.57504 0.0551401 0
M  V30 8331 C 789.104 1.79155 0.785048 0
M  V30 8332 C 789.484 0.809995 1.94942 0
M  V30 8333 O 788.832 -0.153432 2.27984 0
M  V30 8334 C 789.042 3.26134 1.24247 0
M  V30 8335 C 790.39 3.90419 1.66908 0
M  V30 8336 O 791.414 3.30126 1.33772 0
M  V30 8337 O 790.273 4.96523 2.28314 0
M  V30 8338 H 787.367 0.735825 0.377479 0
M  V30 8339 H 789.913 1.69666 0.0339285 0
M  V30 8340 H 788.685 3.89145 0.410089 0
M  V30 8341 H 788.308 3.40411 2.05441 0
M  V30 8342 N 789.305 -0.326896 1.54172 0
M  V30 8343 C 790.235 -1.40741 1.86317 0
M  V30 8344 C 791.216 -1.54125 0.719684 0
M  V30 8345 O 792.401 -1.6806 0.973117 0
M  V30 8346 C 789.531 -2.77557 2.08757 0
M  V30 8347 C 788.485 -2.78965 3.24596 0
M  V30 8348 C 787.811 -4.18824 3.32401 0
M  V30 8349 C 789.111 -2.4301 4.62324 0
M  V30 8350 H 790.805 -1.14088 2.76811 0
M  V30 8351 H 788.351 -0.547389 1.3319 0
M  V30 8352 H 790.304 -3.53209 2.29829 0
M  V30 8353 H 789.028 -3.0568 1.15009 0
M  V30 8354 H 787.687 -2.05767 3.03406 0
M  V30 8355 H 787.335 -4.44083 2.36218 0
M  V30 8356 H 787.035 -4.20673 4.10253 0
M  V30 8357 H 788.559 -4.96294 3.55703 0
M  V30 8358 H 789.973 -3.08375 4.83299 0
M  V30 8359 H 788.37 -2.56116 5.42701 0
M  V30 8360 H 789.44 -1.38165 4.64799 0
M  V30 8361 N 790.784 -1.46188 -0.588786 0
M  V30 8362 C 791.734 -1.5271 -1.69303 0
M  V30 8363 C 792.718 -0.388578 -1.56137 0
M  V30 8364 O 793.91 -0.636616 -1.65155 0
M  V30 8365 C 791.039 -1.51457 -3.08084 0
M  V30 8366 C 790.125 -2.70581 -3.26568 0
M  V30 8367 N 790.516 -3.9555 -3.15236 0
M  V30 8368 C 788.814 -2.66676 -3.57491 0
M  V30 8369 C 789.515 -4.75157 -3.35561 0
M  V30 8370 N 788.491 -4.06927 -3.60432 0
M  V30 8371 H 792.293 -2.47136 -1.59063 0
M  V30 8372 H 789.807 -1.41743 -0.792632 0
M  V30 8373 H 791.804 -1.54216 -3.87328 0
M  V30 8374 H 790.464 -0.581036 -3.19459 0
M  V30 8375 H 791.475 -4.2689 -2.93232 0
M  V30 8376 H 788.152 -1.82317 -3.75588 0
M  V30 8377 H 789.542 -5.84126 -3.32034 0
M  V30 8378 N 792.262 0.832906 -1.33792 0
M  V30 8379 C 793.678 1.1245 -1.13257 0
M  V30 8380 C 793.878 2.01369 0.0725832 0
M  V30 8381 O 792.934 2.41071 0.751082 0
M  V30 8382 C 794.247 1.78084 -2.42294 0
M  V30 8383 C 795.795 1.90624 -2.48257 0
M  V30 8384 C 796.27 2.59673 -3.77271 0
M  V30 8385 N 797.761 2.67181 -3.78376 0
M  V30 8386 C 798.496 3.21313 -4.74916 0
M  V30 8387 N 797.992 3.76086 -5.81835 0
M  V30 8388 N 799.785 3.19621 -4.62384 0
M  V30 8389 H 791.936 0.241244 -2.11026 0
M  V30 8390 H 794.199 0.169557 -0.932713 0
M  V30 8391 H 793.905 1.20209 -3.30519 0
M  V30 8392 H 793.779 2.78049 -2.5489 0
M  V30 8393 H 796.166 2.4765 -1.60478 0
M  V30 8394 H 796.247 0.89591 -2.39598 0
M  V30 8395 H 795.891 2.03304 -4.65435 0
M  V30 8396 H 795.821 3.61189 -3.8321 0
M  V30 8397 H 798.312 2.28346 -3.01108 0
M  V30 8398 H 798.625 4.15612 -6.51526 0
M  V30 8399 H 796.97 3.74357 -5.85561 0
M  V30 8400 H 800.161 2.76091 -3.7801 0
M  V30 8401 H 800.334 3.61504 -5.37791 0
M  V30 8402 N 793.74 1.17359 1.05189 0
M  V30 8403 C 794.986 0.963413 1.78455 0
M  V30 8404 C 795.319 -0.506703 1.87473 0
M  V30 8405 O 794.594 -1.37611 1.37453 0
M  V30 8406 C 794.877 1.60519 3.22344 0
M  V30 8407 C 794.73 3.14741 3.21338 0
M  V30 8408 C 796.049 1.3091 4.20179 0
M  V30 8409 H 793.168 0.351412 0.647826 0
M  V30 8410 H 795.81 1.44858 1.22948 0
M  V30 8411 H 793.96 1.19265 3.69741 0
M  V30 8412 H 795.632 3.65053 2.82017 0
M  V30 8413 H 793.875 3.4749 2.59679 0
M  V30 8414 H 794.546 3.54775 4.22894 0
M  V30 8415 H 797.022 1.66635 3.81277 0
M  V30 8416 H 795.898 1.784 5.191 0
M  V30 8417 H 796.159 0.229908 4.41502 0
M  V30 8418 N 795.218 -1.23913 0.973828 0
M  V30 8419 C 796.148 -2.27453 0.527969 0
M  V30 8420 C 797.129 -1.6443 -0.435513 0
M  V30 8421 O 798.314 -1.9137 -0.330306 0
M  V30 8422 C 795.444 -3.4685 -0.176757 0
M  V30 8423 C 794.398 -4.22181 0.703352 0
M  V30 8424 C 793.724 -5.34534 -0.133215 0
M  V30 8425 C 795.024 -4.82865 1.99096 0
M  V30 8426 H 796.718 -2.65 1.3934 0
M  V30 8427 H 794.264 -1.27388 0.671446 0
M  V30 8428 H 796.217 -4.18424 -0.499934 0
M  V30 8429 H 794.941 -3.08346 -1.07659 0
M  V30 8430 H 793.6 -3.52416 1.00989 0
M  V30 8431 H 793.248 -4.92271 -1.03338 0
M  V30 8432 H 792.948 -5.85855 0.452494 0
M  V30 8433 H 794.472 -6.08933 -0.450924 0
M  V30 8434 H 795.886 -5.46481 1.73297 0
M  V30 8435 H 794.283 -5.44444 2.52389 0
M  V30 8436 H 795.353 -4.03977 2.68199 0
M  V30 8437 N 796.696 -0.74468 -1.38897 0
M  V30 8438 C 797.944 -0.296298 -1.99916 0
M  V30 8439 C 798.265 1.12325 -1.59399 0
M  V30 8440 O 797.535 1.76658 -0.846689 0
M  V30 8441 H 796.115 -0.106561 -0.73936 0
M  V30 8442 H 798.777 -0.956793 -1.69798 0
M  V30 8443 H 797.873 -0.352356 -3.10105 0
M  V30 8444 N 798.174 1.49689 -0.493057 0
M  V30 8445 C 799.106 2.26867 0.326195 0
M  V30 8446 C 800.119 1.33083 0.937697 0
M  V30 8447 O 801.308 1.58427 0.822382 0
M  V30 8448 C 798.408 3.0519 1.4735 0
M  V30 8449 C 797.581 4.26491 0.970767 0
M  V30 8450 C 796.64 4.86926 1.99473 0
M  V30 8451 O 795.666 5.47221 1.56647 0
M  V30 8452 N 796.868 4.75871 3.32456 0
M  V30 8453 H 799.633 2.97816 -0.335547 0
M  V30 8454 H 797.194 1.58602 -0.325129 0
M  V30 8455 H 799.186 3.42496 2.15589 0
M  V30 8456 H 797.756 2.369 2.03954 0
M  V30 8457 H 796.976 3.94036 0.113529 0
M  V30 8458 H 798.264 5.05092 0.613156 0
M  V30 8459 H 797.662 4.2797 3.69944 0
M  V30 8460 H 796.219 5.17383 3.96431 0
M  V30 8461 N 799.652 0.226554 1.55963 0
M  V30 8462 C 800.882 -0.407915 2.02533 0
M  V30 8463 C 801.29 -1.53539 1.10554 0
M  V30 8464 O 800.633 -1.8338 0.108409 0
M  V30 8465 C 800.695 -0.996081 3.45425 0
M  V30 8466 C 800.359 -0.00341651 4.57 0
M  V30 8467 C 801.356 0.798782 5.13727 0
M  V30 8468 C 799.041 0.116786 5.02164 0
M  V30 8469 C 801.035 1.70784 6.14094 0
M  V30 8470 C 798.722 1.02937 6.02368 0
M  V30 8471 C 799.72 1.82344 6.5821 0
M  V30 8472 O 799.408 2.72067 7.56462 0
M  V30 8473 H 799.14 -0.103524 0.668026 0
M  V30 8474 H 801.694 0.341937 2.02534 0
M  V30 8475 H 799.924 -1.79512 3.42509 0
M  V30 8476 H 801.613 -1.53848 3.75614 0
M  V30 8477 H 802.379 0.716393 4.7968 0
M  V30 8478 H 798.258 -0.491172 4.58376 0
M  V30 8479 H 801.802 2.32807 6.57607 0
M  V30 8480 H 797.699 1.11276 6.35836 0
M  V30 8481 H 798.467 2.66199 7.74003 0
M  V30 8482 N 801.13 -1.57531 -0.0467866 0
M  V30 8483 C 802.06 -2.08425 -1.05268 0
M  V30 8484 C 803.041 -0.982941 -1.38825 0
M  V30 8485 O 804.226 -1.25716 -1.48018 0
M  V30 8486 C 801.356 -2.54897 -2.35891 0
M  V30 8487 C 800.31 -3.69132 -2.16623 0
M  V30 8488 C 799.636 -4.01747 -3.52851 0
M  V30 8489 C 800.936 -4.98243 -1.56689 0
M  V30 8490 H 802.63 -2.92716 -0.62908 0
M  V30 8491 H 800.176 -1.40816 -0.301156 0
M  V30 8492 H 802.129 -2.8912 -3.06574 0
M  V30 8493 H 800.853 -1.67666 -2.80278 0
M  V30 8494 H 799.512 -3.35231 -1.48377 0
M  V30 8495 H 799.16 -3.11608 -3.94853 0
M  V30 8496 H 798.86 -4.78681 -3.4079 0
M  V30 8497 H 800.384 -4.38487 -4.24925 0
M  V30 8498 H 801.798 -5.30535 -2.17268 0
M  V30 8499 H 800.195 -5.79669 -1.55255 0
M  V30 8500 H 801.265 -4.81986 -0.530827 0
M  V30 8501 N 802.608 0.318715 -1.54344 0
M  V30 8502 C 804.024 0.663345 -1.45162 0
M  V30 8503 C 804.224 1.9145 -0.62842 0
M  V30 8504 O 803.28 2.5217 -0.129126 0
M  V30 8505 C 804.593 0.832836 -2.88937 0
M  V30 8506 C 806.141 0.929866 -2.98869 0
M  V30 8507 C 806.616 1.13149 -4.43803 0
M  V30 8508 N 808.107 1.19811 -4.47437 0
M  V30 8509 C 808.842 1.37209 -5.56742 0
M  V30 8510 N 808.338 1.51619 -6.76006 0
M  V30 8511 N 810.131 1.39956 -5.44398 0
M  V30 8512 H 802.282 -0.50357 -2.06344 0
M  V30 8513 H 804.545 -0.163528 -0.933789 0
M  V30 8514 H 804.251 -0.0153519 -3.51697 0
M  V30 8515 H 804.125 1.72721 -3.35332 0
M  V30 8516 H 806.512 1.76855 -2.36233 0
M  V30 8517 H 806.593 0.0118561 -2.55797 0
M  V30 8518 H 806.237 0.297636 -5.07027 0
M  V30 8519 H 806.167 2.06345 -4.84489 0
M  V30 8520 H 808.658 1.101 -3.61506 0
M  V30 8521 H 808.971 1.64599 -7.55067 0
M  V30 8522 H 807.316 1.48708 -6.78904 0
M  V30 8523 H 810.507 1.28298 -4.50175 0
M  V30 8524 H 810.68 1.53172 -6.29637 0
M  V30 8525 N 804.086 1.46499 0.581025 0
M  V30 8526 C 805.363 1.42372 1.34125 0
M  V30 8527 C 805.743 0.108073 2.10823 0
M  V30 8528 O 805.091 -0.910366 2.09582 0
M  V30 8529 C 805.301 2.65445 2.26583 0
M  V30 8530 C 806.649 3.11664 2.88359 0
M  V30 8531 O 807.673 2.66006 2.36896 0
M  V30 8532 O 806.532 3.90974 3.81839 0
M  V30 8533 H 803.626 0.566262 0.602724 0
M  V30 8534 H 806.172 1.58667 0.601903 0
M  V30 8535 H 804.944 3.52756 1.69348 0
M  V30 8536 H 804.567 2.51618 3.07854 0
M  V30 8537 N 805.565 -0.825799 1.34232 0
M  V30 8538 C 806.793 -1.61363 1.29497 0
M  V30 8539 C 807.208 -1.88341 -0.131536 0
M  V30 8540 O 806.565 -1.47279 -1.07773 0
M  V30 8541 C 806.616 -2.95623 2.08061 0
M  V30 8542 O 806.337 -2.69824 3.45147 0
M  V30 8543 C 807.838 -3.90032 2.10688 0
M  V30 8544 H 805.058 -0.501676 0.445603 0
M  V30 8545 H 807.602 -1.02767 1.76803 0
M  V30 8546 H 805.757 -3.50785 1.64404 0
M  V30 8547 H 806.171 -3.55412 3.85723 0
M  V30 8548 H 807.645 -4.81411 2.70087 0
M  V30 8549 H 808.122 -4.25188 1.10052 0
M  V30 8550 H 808.728 -3.40807 2.54422 0
M  V30 8551 N 807.043 -1.17915 -1.04565 0
M  V30 8552 C 808.006 -0.903787 -2.10628 0
M  V30 8553 C 809.006 0.10873 -1.60432 0
M  V30 8554 O 810.196 -0.124152 -1.73757 0
M  V30 8555 C 807.328 -0.355017 -3.39046 0
M  V30 8556 H 808.521 -1.84425 -2.3649 0
M  V30 8557 H 806.074 -0.990477 -1.2091 0
M  V30 8558 H 806.809 0.592297 -3.18845 0
M  V30 8559 H 806.594 -1.08484 -3.76794 0
M  V30 8560 H 808.084 -0.180891 -4.17208 0
M  V30 8561 N 808.521 1.23394 -0.980386 0
M  V30 8562 C 809.484 2.23092 -0.525619 0
M  V30 8563 C 810.484 1.56129 0.384745 0
M  V30 8564 O 811.674 1.73284 0.178439 0
M  V30 8565 C 808.806 3.40074 0.23712 0
M  V30 8566 H 809.999 2.64839 -1.40714 0
M  V30 8567 H 807.552 1.36227 -0.766275 0
M  V30 8568 H 808.287 3.03783 1.13518 0
M  V30 8569 H 808.072 3.89883 -0.416356 0
M  V30 8570 H 809.562 4.14043 0.543892 0
M  V30 8571 N 809.999 0.752036 1.385 0
M  V30 8572 C 810.929 0.138718 2.33088 0
M  V30 8573 C 811.91 -0.705318 1.54788 0
M  V30 8574 O 813.095 -0.646821 1.83112 0
M  V30 8575 C 810.225 -0.75641 3.38963 0
M  V30 8576 C 809.179 -0.0152239 4.27997 0
M  V30 8577 C 808.505 -1.0285 5.24715 0
M  V30 8578 C 809.805 1.15226 5.09431 0
M  V30 8579 H 811.499 0.928852 2.84627 0
M  V30 8580 H 809.045 0.448111 1.3685 0
M  V30 8581 H 810.998 -1.19513 4.04097 0
M  V30 8582 H 809.722 -1.57885 2.85902 0
M  V30 8583 H 808.381 0.404061 3.64366 0
M  V30 8584 H 808.029 -1.84496 4.67943 0
M  V30 8585 H 807.729 -0.537238 5.85139 0
M  V30 8586 H 809.253 -1.46657 5.92726 0
M  V30 8587 H 810.667 0.791161 5.67815 0
M  V30 8588 H 809.064 1.57428 5.79082 0
M  V30 8589 H 810.134 1.9659 4.43261 0
M  V30 8590 N 811.477 -1.49425 0.500989 0
M  V30 8591 C 812.702 -2.07356 -0.0425154 0
M  V30 8592 C 813.127 -1.35887 -1.30063 0
M  V30 8593 O 812.485 -0.41561 -1.76472 0
M  V30 8594 C 812.533 -3.59518 -0.279188 0
M  V30 8595 O 811.637 -3.89542 -1.3539 0
M  V30 8596 H 810.978 -0.663482 0.0262207 0
M  V30 8597 H 813.508 -1.92231 0.700607 0
M  V30 8598 H 813.518 -4.04791 -0.5107 0
M  V30 8599 H 812.193 -4.10946 0.640009 0
M  V30 8600 H 810.77 -3.56079 -1.10734 0
M  V30 8601 N 812.955 -0.234822 -1.55841 0
M  V30 8602 C 814.366 0.270588 -1.84729 0
M  V30 8603 C 814.717 1.58494 -1.15646 0
M  V30 8604 O 813.842 2.12071 -0.430667 0
M  V30 8605 C 814.437 0.497733 -3.35124 0
M  V30 8606 C 812.996 0.947428 -3.64281 0
M  V30 8607 C 812.143 0.01787 -2.77294 0
M  V30 8608 H 815.094 -0.457691 -1.51957 0
M  V30 8609 H 815.115 1.34199 -3.56049 0
M  V30 8610 H 814.627 -0.459037 -3.85376 0
M  V30 8611 H 812.728 1.91709 -3.19497 0
M  V30 8612 H 812.841 0.812651 -4.72158 0
M  V30 8613 H 811.205 0.527071 -2.49187 0
M  V30 8614 H 811.988 -0.934056 -3.30349 0
M  V30 8615 N 814.433 1.57553 0.0384317 0
M  V30 8616 C 815.844 1.77258 0.586211 0
M  V30 8617 C 816.195 0.864706 1.76117 0
M  V30 8618 O 815.32 0.057141 2.16325 0
M  V30 8619 C 815.915 3.21453 1.07021 0
M  V30 8620 C 814.474 3.42387 1.56358 0
M  V30 8621 C 813.621 2.72801 0.497508 0
M  V30 8622 H 816.572 1.57585 -0.187796 0
M  V30 8623 H 816.593 3.27451 1.93794 0
M  V30 8624 H 816.105 3.87505 0.214851 0
M  V30 8625 H 814.206 2.81497 2.44111 0
M  V30 8626 H 814.319 4.50968 1.61754 0
M  V30 8627 H 812.683 2.36305 0.95038 0
M  V30 8628 H 813.466 3.41529 -0.348234 0
M  V30 8629 N 815.911 -0.310526 1.54511 0
M  V30 8630 C 816.858 -1.38264 1.84802 0
M  V30 8631 C 817.828 -1.50808 0.696141 0
M  V30 8632 O 819.013 -1.6582 0.943846 0
M  V30 8633 C 816.153 -2.74422 2.09252 0
M  V30 8634 C 815.266 -2.70405 3.36906 0
M  V30 8635 C 814.401 -3.98495 3.51248 0
M  V30 8636 C 813.44 -3.88836 4.72729 0
M  V30 8637 N 812.577 -5.08683 4.83928 0
M  V30 8638 H 817.417 -1.11732 2.76261 0
M  V30 8639 H 814.954 -0.540609 1.36806 0
M  V30 8640 H 816.912 -3.53593 2.21422 0
M  V30 8641 H 815.542 -2.99235 1.2107 0
M  V30 8642 H 814.594 -1.83151 3.33406 0
M  V30 8643 H 815.906 -2.59155 4.26193 0
M  V30 8644 H 815.06 -4.861 3.63031 0
M  V30 8645 H 813.799 -4.12567 2.60077 0
M  V30 8646 H 812.804 -2.99615 4.60989 0
M  V30 8647 H 814.029 -3.76318 5.65298 0
M  V30 8648 H 811.975 -5.23236 3.95677 0
M  V30 8649 H 811.892 -4.99819 5.67201 0
M  V30 8650 H 813.16 -5.97966 5.00057 0
M  V30 8651 N 817.389 -1.46805 -0.573248 0
M  V30 8652 C 818.352 -1.57655 -1.66366 0
M  V30 8653 C 819.352 -0.452905 -1.5429 0
M  V30 8654 O 820.542 -0.717502 -1.58737 0
M  V30 8655 C 817.674 -1.50584 -3.05839 0
M  V30 8656 H 818.867 -2.54842 -1.581 0
M  V30 8657 H 816.42 -1.34756 -0.791868 0
M  V30 8658 H 817.155 -0.547127 -3.19651 0
M  V30 8659 H 816.94 -2.32118 -3.16012 0
M  V30 8660 H 818.43 -1.61282 -3.85199 0
M  V30 8661 N 818.867 0.818669 -1.34668 0
M  V30 8662 C 820.095 1.60674 -1.30351 0
M  V30 8663 C 820.51 1.88408 0.121546 0
M  V30 8664 O 819.867 1.47849 1.06991 0
M  V30 8665 C 819.918 2.94516 -2.09625 0
M  V30 8666 O 819.639 2.6799 -3.46573 0
M  V30 8667 C 821.14 3.8891 -2.12754 0
M  V30 8668 H 818.36 0.499306 -0.448258 0
M  V30 8669 H 820.904 1.01828 -1.77345 0
M  V30 8670 H 819.059 3.49908 -1.66262 0
M  V30 8671 H 819.473 3.53361 -3.87603 0
M  V30 8672 H 820.947 4.79972 -2.72637 0
M  V30 8673 H 821.424 4.24599 -1.12306 0
M  V30 8674 H 822.03 3.39453 -2.56225 0
M  V30 8675 N 820.346 1.18468 1.03938 0
M  V30 8676 C 821.592 0.982286 1.77423 0
M  V30 8677 C 821.925 -0.48679 1.88 0
M  V30 8678 O 821.2 -1.36146 1.38905 0
M  V30 8679 C 821.483 1.63929 3.20623 0
M  V30 8680 C 821.336 3.18132 3.17982 0
M  V30 8681 C 822.655 1.3536 4.18767 0
M  V30 8682 H 819.774 0.358264 0.644062 0
M  V30 8683 H 822.416 1.46154 1.21405 0
M  V30 8684 H 820.566 1.2318 3.68455 0
M  V30 8685 H 822.238 3.68024 2.78129 0
M  V30 8686 H 820.481 3.50225 2.55978 0
M  V30 8687 H 821.152 3.5924 4.19107 0
M  V30 8688 H 823.628 1.70669 3.79488 0
M  V30 8689 H 822.504 1.83896 5.17178 0
M  V30 8690 H 822.765 0.276722 4.41233 0
M  V30 8691 N 821.824 -1.22873 0.986916 0
M  V30 8692 C 823.049 -1.96028 0.677341 0
M  V30 8693 C 823.474 -1.72487 -0.750319 0
M  V30 8694 O 822.832 -1.00036 -1.51203 0
M  V30 8695 C 822.88 -3.46983 0.981593 0
M  V30 8696 O 821.984 -4.12328 0.0770729 0
M  V30 8697 H 821.325 -0.613458 0.254096 0
M  V30 8698 H 823.855 -1.56132 1.32227 0
M  V30 8699 H 823.865 -3.9747 0.920969 0
M  V30 8700 H 822.54 -3.63442 2.02194 0
M  V30 8701 H 821.117 -3.72402 0.192666 0
M  V30 8702 N 823.302 -0.75937 -1.38099 0
M  V30 8703 C 824.579 -0.243371 -1.9408 0
M  V30 8704 C 824.959 1.25942 -1.69416 0
M  V30 8705 O 824.307 2.03667 -1.03595 0
M  V30 8706 C 824.517 -0.603328 -3.43745 0
M  V30 8707 C 825.865 -0.566195 -4.20808 0
M  V30 8708 O 826.889 -0.541969 -3.52053 0
M  V30 8709 O 825.748 -0.582261 -5.43389 0
M  V30 8710 H 822.842 -0.0526825 -0.82532 0
M  V30 8711 H 825.388 -0.839884 -1.47459 0
M  V30 8712 H 824.16 -1.64098 -3.55229 0
M  V30 8713 H 823.783 0.0208887 -3.97595 0
M  V30 8714 N 824.78 1.49157 -0.508906 0
M  V30 8715 C 826.008 2.06879 0.0293734 0
M  V30 8716 C 826.423 1.36823 1.30095 0
M  V30 8717 O 825.78 0.449034 1.7689 0
M  V30 8718 C 825.831 3.60423 0.278791 0
M  V30 8719 O 825.552 4.27844 -0.942389 0
M  V30 8720 C 827.053 4.34881 0.859825 0
M  V30 8721 H 824.273 0.67057 -0.0240184 0
M  V30 8722 H 826.817 1.91834 -0.708526 0
M  V30 8723 H 824.972 3.75145 0.966689 0
M  V30 8724 H 825.386 5.19671 -0.710097 0
M  V30 8725 H 826.86 5.43161 0.983884 0
M  V30 8726 H 827.337 3.9789 1.85958 0
M  V30 8727 H 827.943 4.24785 0.209152 0
M  V30 8728 N 826.258 0.243083 1.55714 0
M  V30 8729 C 827.498 -0.384303 2.00755 0
M  V30 8730 C 827.862 -1.55406 1.12752 0
M  V30 8731 O 829.063 -2.24892 1.47231 0
M  V30 8732 C 827.334 -0.787419 3.48618 0
M  V30 8733 S 828.893 -1.40587 4.15669 0
M  V30 8734 H 825.711 -0.121088 0.700613 0
M  V30 8735 H 828.313 0.357423 1.92205 0
M  V30 8736 H 827.017 0.0732892 4.10335 0
M  V30 8737 H 826.548 -1.56142 3.61086 0
M  V30 8738 H 828.563 -2.69493 4.16639 0
M  V30 8739 N 827.736 -1.57571 -0.0300757 0
M  V30 8740 C 828.646 -2.09892 -1.04798 0
M  V30 8741 C 829.662 -1.03732 -1.39698 0
M  V30 8742 O 830.838 -1.35461 -1.49038 0
M  V30 8743 C 827.903 -2.56707 -2.33028 0
M  V30 8744 C 826.964 -3.77345 -2.04718 0
M  V30 8745 C 826.197 -4.21918 -3.26834 0
M  V30 8746 O 826.42 -3.66025 -4.37472 0
M  V30 8747 O 825.354 -5.14362 -3.12594 0
M  V30 8748 H 829.18 -2.97023 -0.633344 0
M  V30 8749 H 826.765 -1.47344 -0.246991 0
M  V30 8750 H 828.647 -2.87154 -3.08417 0
M  V30 8751 H 827.322 -1.72688 -2.73789 0
M  V30 8752 H 826.229 -3.51919 -1.26901 0
M  V30 8753 H 827.562 -4.62345 -1.68813 0
M  V30 8754 N 829.214 0.302327 -1.54673 0
M  V30 8755 C 830.124 1.39542 -1.88587 0
M  V30 8756 C 831.14 1.55543 -0.779895 0
M  V30 8757 O 832.316 1.70233 -1.07623 0
M  V30 8758 C 829.381 2.7394 -2.12504 0
M  V30 8759 C 828.442 2.66935 -3.3622 0
M  V30 8760 C 827.675 3.94923 -3.58987 0
M  V30 8761 O 827.898 4.94218 -2.84789 0
M  V30 8762 O 826.832 3.96896 -4.52501 0
M  V30 8763 H 830.658 1.13784 -2.81579 0
M  V30 8764 H 828.243 0.49827 -1.40846 0
M  V30 8765 H 830.125 3.5346 -2.29443 0
M  V30 8766 H 828.8 2.99544 -1.22698 0
M  V30 8767 H 827.707 1.85892 -3.24646 0
M  V30 8768 H 829.04 2.46283 -4.26152 0
M  V30 8769 N 830.692 1.47107 0.565454 0
M  V30 8770 C 831.938 1.53535 1.32495 0
M  V30 8771 C 832.271 0.193537 1.93233 0
M  V30 8772 O 831.546 -0.796956 1.77423 0
M  V30 8773 C 831.829 2.64712 2.4413 0
M  V30 8774 C 831.682 4.08482 1.88314 0
M  V30 8775 C 833.001 2.71853 3.46098 0
M  V30 8776 H 830.12 0.558926 0.480386 0
M  V30 8777 H 832.762 1.79125 0.633575 0
M  V30 8778 H 830.912 2.43023 3.03104 0
M  V30 8779 H 832.584 4.4151 1.33665 0
M  V30 8780 H 830.827 4.17148 1.19037 0
M  V30 8781 H 831.498 4.82032 2.68978 0
M  V30 8782 H 833.974 2.91397 2.97031 0
M  V30 8783 H 832.85 3.51433 4.21646 0
M  V30 8784 H 833.111 1.78584 4.04426 0
M  V30 8785 N 832.17 -0.811516 1.35101 0
M  V30 8786 C 833.08 -1.95475 1.29718 0
M  V30 8787 C 834.096 -1.72813 0.202909 0
M  V30 8788 O 835.272 -1.96725 0.431414 0
M  V30 8789 C 832.337 -3.29975 1.06385 0
M  V30 8790 C 831.398 -3.65566 2.25077 0
M  V30 8791 C 830.631 -4.93648 2.02848 0
M  V30 8792 O 830.854 -5.617 0.992442 0
M  V30 8793 O 829.788 -5.27384 2.90087 0
M  V30 8794 H 833.614 -2.02961 2.25921 0
M  V30 8795 H 831.199 -0.948583 1.15422 0
M  V30 8796 H 833.081 -4.10506 0.951999 0
M  V30 8797 H 831.756 -3.2343 0.132294 0
M  V30 8798 H 830.663 -2.85432 2.41825 0
M  V30 8799 H 831.996 -3.7681 3.16662 0
M  V30 8800 N 833.648 -1.19017 -1.03309 0
M  V30 8801 C 835.059 -0.993206 -1.5809 0
M  V30 8802 C 835.41 0.45505 -1.9085 0
M  V30 8803 O 834.535 1.33372 -1.70414 0
M  V30 8804 C 835.13 -1.79661 -2.87241 0
M  V30 8805 C 833.689 -1.64377 -3.38611 0
M  V30 8806 C 832.836 -1.78628 -2.12102 0
M  V30 8807 H 835.787 -1.3345 -0.858879 0
M  V30 8808 H 835.808 -1.29019 -3.57958 0
M  V30 8809 H 835.32 -2.85061 -2.63366 0
M  V30 8810 H 833.421 -0.615447 -3.67482 0
M  V30 8811 H 833.534 -2.44651 -4.11926 0
M  V30 8812 H 831.898 -1.21648 -2.23772 0
M  V30 8813 H 832.681 -2.8548 -1.90673 0
M  V30 8814 N 835.127 1.22348 -0.993418 0
M  V30 8815 C 836.352 1.95666 -0.687727 0
M  V30 8816 C 836.777 1.72883 0.741161 0
M  V30 8817 O 836.135 1.00837 1.50671 0
M  V30 8818 C 836.183 3.46457 -0.99998 0
M  V30 8819 O 835.287 4.12281 -0.0989386 0
M  V30 8820 H 834.628 0.612102 -0.257346 0
M  V30 8821 H 837.158 1.55428 -1.33054 0
M  V30 8822 H 837.168 3.96976 -0.942035 0
M  V30 8823 H 835.843 3.62365 -2.04118 0
M  V30 8824 H 834.42 3.72295 -0.212413 0
M  V30 8825 N 836.605 0.766683 1.37694 0
M  V30 8826 C 837.535 0.163432 2.32927 0
M  V30 8827 C 838.516 -0.688861 1.55527 0
M  V30 8828 O 839.701 -0.627363 1.83787 0
M  V30 8829 C 836.831 -0.720416 3.39746 0
M  V30 8830 C 835.785 0.0301718 4.27989 0
M  V30 8831 C 835.111 -0.972788 5.25776 0
M  V30 8832 C 836.411 1.20623 5.0818 0
M  V30 8833 H 838.105 0.958988 2.83626 0
M  V30 8834 H 835.651 0.462601 1.36367 0
M  V30 8835 H 837.604 -1.15221 4.05342 0
M  V30 8836 H 836.328 -1.54844 2.8756 0
M  V30 8837 H 834.987 0.442685 3.63917 0
M  V30 8838 H 834.635 -1.79522 4.69873 0
M  V30 8839 H 834.335 -0.475145 5.85676 0
M  V30 8840 H 835.859 -1.40362 5.94248 0
M  V30 8841 H 837.273 0.851341 5.66944 0
M  V30 8842 H 835.67 1.63561 5.7738 0
M  V30 8843 H 836.74 2.01281 4.41151 0
M  V30 8844 N 838.083 -1.48885 0.516809 0
M  V30 8845 C 839.013 -2.32241 -0.242157 0
M  V30 8846 C 839.994 -1.41258 -0.947633 0
M  V30 8847 O 841.179 -1.70156 -0.935973 0
M  V30 8848 C 838.309 -3.22151 -1.29754 0
M  V30 8849 C 837.263 -4.22053 -0.710995 0
M  V30 8850 C 836.589 -5.01007 -1.86806 0
M  V30 8851 C 837.889 -5.21388 0.30853 0
M  V30 8852 H 839.583 -2.95943 0.453651 0
M  V30 8853 H 837.129 -1.42316 0.219612 0
M  V30 8854 H 839.082 -3.79284 -1.83634 0
M  V30 8855 H 837.806 -2.56423 -2.02274 0
M  V30 8856 H 836.465 -3.66087 -0.193819 0
M  V30 8857 H 836.113 -4.31713 -2.58133 0
M  V30 8858 H 835.813 -5.68615 -1.48159 0
M  V30 8859 H 837.337 -5.60989 -2.4109 0
M  V30 8860 H 838.751 -5.73122 -0.142703 0
M  V30 8861 H 837.148 -5.96975 0.611673 0
M  V30 8862 H 838.218 -4.69329 1.21894 0
M  V30 8863 N 839.561 -0.251338 -1.55583 0
M  V30 8864 C 840.471 0.656978 -2.25213 0
M  V30 8865 C 841.487 1.18966 -1.26977 0
M  V30 8866 O 842.663 1.22499 -1.59862 0
M  V30 8867 C 839.728 1.83527 -2.94141 0
M  V30 8868 C 838.789 1.34162 -4.07798 0
M  V30 8869 C 838.022 2.46375 -4.73429 0
M  V30 8870 O 838.245 3.65205 -4.38157 0
M  V30 8871 O 837.179 2.15881 -5.61853 0
M  V30 8872 H 841.005 0.0936395 -3.03556 0
M  V30 8873 H 838.59 -0.0196638 -1.49387 0
M  V30 8874 H 840.472 2.52279 -3.3754 0
M  V30 8875 H 839.147 2.38614 -2.18735 0
M  V30 8876 H 838.054 0.621249 -3.68906 0
M  V30 8877 H 839.387 0.836779 -4.85035 0
M  V30 8878 N 841.039 1.57585 0.0217189 0
M  V30 8879 C 842.288 1.88786 0.710125 0
M  V30 8880 C 842.601 0.850819 1.76126 0
M  V30 8881 O 843.807 1.0523 2.50277 0
M  V30 8882 C 842.263 3.3505 1.31413 0
M  V30 8883 C 841.871 4.47001 0.298959 0
M  V30 8884 C 843.615 3.7539 1.98199 0
M  V30 8885 C 841.522 5.8433 0.911727 0
M  V30 8886 H 840.452 0.704388 0.268986 0
M  V30 8887 H 843.103 1.83466 -0.0352638 0
M  V30 8888 H 841.485 3.35138 2.10947 0
M  V30 8889 H 842.659 4.58395 -0.470203 0
M  V30 8890 H 840.974 4.15542 -0.267222 0
M  V30 8891 H 843.571 4.75314 2.4491 0
M  V30 8892 H 843.914 3.07766 2.80331 0
M  V30 8893 H 844.447 3.77508 1.2543 0
M  V30 8894 H 841.186 6.55372 0.129659 0
M  V30 8895 H 840.706 5.76643 1.65056 0
M  V30 8896 H 842.385 6.31295 1.41688 0
M  V30 8897 N 842.517 -0.29412 1.54831 0
M  V30 8898 C 843.447 -1.36757 1.89261 0
M  V30 8899 C 844.428 -1.52564 0.752214 0
M  V30 8900 O 845.613 -1.65958 1.00855 0
M  V30 8901 C 842.743 -2.73066 2.14597 0
M  V30 8902 C 841.697 -2.72017 3.3044 0
M  V30 8903 C 841.023 -4.11679 3.4121 0
M  V30 8904 C 842.323 -2.33149 4.67375 0
M  V30 8905 H 844.017 -1.08191 2.79169 0
M  V30 8906 H 841.563 -0.519014 1.34321 0
M  V30 8907 H 843.516 -3.48255 2.37269 0
M  V30 8908 H 842.24 -3.03172 1.21467 0
M  V30 8909 H 840.899 -1.99285 3.07703 0
M  V30 8910 H 840.547 -4.38973 2.45584 0
M  V30 8911 H 840.247 -4.11877 4.19084 0
M  V30 8912 H 841.771 -4.88637 3.6615 0
M  V30 8913 H 843.185 -2.98054 4.89731 0
M  V30 8914 H 841.582 -2.44546 5.48012 0
M  V30 8915 H 842.652 -1.28275 4.67626 0
M  V30 8916 N 843.995 -1.47404 -0.557645 0
M  V30 8917 C 845.406 -1.47872 -1.13977 0
M  V30 8918 C 845.757 -0.233176 -1.94809 0
M  V30 8919 O 844.882 0.661945 -2.06027 0
M  V30 8920 C 845.477 -2.67926 -2.07368 0
M  V30 8921 C 844.036 -2.71354 -2.60852 0
M  V30 8922 C 843.183 -2.40967 -1.37223 0
M  V30 8923 H 846.134 -1.54921 -0.344268 0
M  V30 8924 H 846.155 -2.44871 -2.91236 0
M  V30 8925 H 845.667 -3.58562 -1.48509 0
M  V30 8926 H 843.768 -1.84855 -3.23511 0
M  V30 8927 H 843.881 -3.72032 -3.01876 0
M  V30 8928 H 842.245 -1.91541 -1.67882 0
M  V30 8929 H 843.028 -3.33811 -0.801583 0
M  V30 8930 N 845.473 0.80434 -1.35529 0
M  V30 8931 C 846.42 1.91629 -1.28635 0
M  V30 8932 C 847.39 1.65348 -0.157862 0
M  V30 8933 O 848.575 1.87711 -0.341934 0
M  V30 8934 C 845.715 3.28207 -1.0665 0
M  V30 8935 C 844.828 3.66659 -2.28441 0
M  V30 8936 C 843.963 4.92279 -1.99588 0
M  V30 8937 C 843.002 5.23365 -3.1742 0
M  V30 8938 N 842.139 6.40165 -2.88328 0
M  V30 8939 H 846.979 1.96858 -2.23721 0
M  V30 8940 H 844.516 0.962871 -1.11208 0
M  V30 8941 H 846.474 4.06945 -0.919343 0
M  V30 8942 H 845.104 3.22441 -0.152253 0
M  V30 8943 H 844.156 2.83164 -2.54013 0
M  V30 8944 H 845.468 3.8559 -3.1642 0
M  V30 8945 H 844.622 5.78847 -1.81715 0
M  V30 8946 H 843.361 4.75387 -1.08896 0
M  V30 8947 H 842.366 4.35285 -3.35867 0
M  V30 8948 H 843.591 5.42185 -4.08916 0
M  V30 8949 H 841.537 6.24694 -2.00233 0
M  V30 8950 H 841.454 6.59357 -3.69843 0
M  V30 8951 H 842.722 7.29755 -2.74002 0
M  V30 8952 N 846.951 1.19563 1.02676 0
M  V30 8953 C 848.176 1.02556 1.80269 0
M  V30 8954 C 848.601 -0.421056 1.83327 0
M  V30 8955 O 847.959 -1.30279 1.26084 0
M  V30 8956 C 848.007 1.60165 3.23078 0
M  V30 8957 O 847.111 0.832404 4.03912 0
M  V30 8958 H 846.452 0.362354 0.556413 0
M  V30 8959 H 848.982 1.58633 1.29216 0
M  V30 8960 H 848.992 1.6347 3.7382 0
M  V30 8961 H 847.667 2.65454 3.20167 0
M  V30 8962 H 846.244 0.872768 3.62543 0
M  V30 8963 N 848.429 -1.21819 0.999893 0
M  V30 8964 C 849.654 -1.95298 0.698094 0
M  V30 8965 C 850.079 -1.73273 -0.731982 0
M  V30 8966 O 849.437 -1.01634 -1.50134 0
M  V30 8967 C 849.485 -3.45922 1.01834 0
M  V30 8968 O 848.589 -4.12223 0.120801 0
M  V30 8969 H 847.93 -0.610729 0.260588 0
M  V30 8970 H 850.46 -1.5472 1.33876 0
M  V30 8971 H 850.47 -3.96471 0.963074 0
M  V30 8972 H 849.145 -3.61278 2.06037 0
M  V30 8973 H 847.722 -3.72177 0.232153 0
M  V30 8974 N 849.908 -0.773975 -1.37286 0
M  V30 8975 C 850.818 -0.162571 -2.34036 0
M  V30 8976 C 851.834 0.677022 -1.60289 0
M  V30 8977 O 853.01 0.596423 -1.92366 0
M  V30 8978 C 850.075 0.70457 -3.39465 0
M  V30 8979 C 849.136 -0.151738 -4.29032 0
M  V30 8980 C 848.369 0.674111 -5.29426 0
M  V30 8981 O 848.592 1.91107 -5.37433 0
M  V30 8982 O 847.526 0.0821398 -6.01844 0
M  V30 8983 H 851.352 -0.962119 -2.88057 0
M  V30 8984 H 848.937 -0.53517 -1.39486 0
M  V30 8985 H 850.819 1.19954 -4.03967 0
M  V30 8986 H 849.494 1.48227 -2.87768 0
M  V30 8987 H 848.401 -0.693118 -3.67623 0
M  V30 8988 H 849.734 -0.892575 -4.84039 0
M  V30 8989 N 851.386 1.48609 -0.524698 0
M  V30 8990 C 852.802 1.58557 -0.182199 0
M  V30 8991 C 853.002 1.52732 1.31435 0
M  V30 8992 O 852.058 1.41362 2.0922 0
M  V30 8993 C 853.371 2.90406 -0.78004 0
M  V30 8994 C 854.919 3.03924 -0.748293 0
M  V30 8995 C 855.394 4.38427 -1.32462 0
M  V30 8996 N 856.885 4.4498 -1.28635 0
M  V30 8997 C 857.62 5.47551 -1.70223 0
M  V30 8998 N 857.116 6.57103 -2.19515 0
M  V30 8999 N 858.909 5.38402 -1.61493 0
M  V30 9000 H 851.06 1.50638 -1.4974 0
M  V30 9001 H 853.323 0.714952 -0.622533 0
M  V30 9002 H 853.029 3.00308 -1.83052 0
M  V30 9003 H 852.903 3.76343 -0.254075 0
M  V30 9004 H 855.29 2.93638 0.293407 0
M  V30 9005 H 855.371 2.19611 -1.31167 0
M  V30 9006 H 855.015 4.49466 -2.36522 0
M  V30 9007 H 854.945 5.21418 -0.736967 0
M  V30 9008 H 857.436 3.66393 -0.92545 0
M  V30 9009 H 857.749 7.31499 -2.49257 0
M  V30 9010 H 856.094 6.58081 -2.23506 0
M  V30 9011 H 859.285 4.5171 -1.22785 0
M  V30 9012 H 859.458 6.18208 -1.94225 0
M  V30 9013 N 852.864 0.259585 1.55447 0
M  V30 9014 C 854.092 -0.365392 2.03648 0
M  V30 9015 C 854.507 -1.50613 1.13847 0
M  V30 9016 O 853.864 -1.81837 0.155414 0
M  V30 9017 C 853.915 -0.861172 3.51093 0
M  V30 9018 O 853.636 0.234121 4.37474 0
M  V30 9019 C 855.137 -1.55555 4.15111 0
M  V30 9020 H 852.357 -0.0853439 0.66555 0
M  V30 9021 H 854.901 0.387151 2.00802 0
M  V30 9022 H 853.056 -1.56385 3.54433 0
M  V30 9023 H 853.47 -0.1444 5.24301 0
M  V30 9024 H 854.944 -1.85403 5.19932 0
M  V30 9025 H 855.421 -2.48185 3.62355 0
M  V30 9026 H 856.027 -0.89712 4.15731 0
M  V30 9027 N 854.342 -1.57594 -0.0133615 0
M  V30 9028 C 855.753 -1.78168 -0.557937 0
M  V30 9029 C 856.104 -0.892616 -1.74719 0
M  V30 9030 O 855.229 -0.0915491 -2.16206 0
M  V30 9031 C 855.824 -3.23115 -1.01894 0
M  V30 9032 C 854.383 -3.44831 -1.50892 0
M  V30 9033 C 853.53 -2.73558 -0.454044 0
M  V30 9034 H 856.481 -1.57266 0.212843 0
M  V30 9035 H 856.502 -3.30493 -1.8856 0
M  V30 9036 H 856.014 -3.87798 -0.153175 0
M  V30 9037 H 854.115 -2.85345 -2.39602 0
M  V30 9038 H 854.228 -4.53485 -1.54559 0
M  V30 9039 H 852.592 -2.37787 -0.912666 0
M  V30 9040 H 853.375 -3.40932 0.402524 0
M  V30 9041 N 855.82 0.285905 -1.54985 0
M  V30 9042 C 856.75 1.35752 -1.89983 0
M  V30 9043 C 857.731 1.52163 -0.760295 0
M  V30 9044 O 858.916 1.65421 -1.01733 0
M  V30 9045 C 856.046 2.71925 -2.16042 0
M  V30 9046 C 855 2.70261 -3.31878 0
M  V30 9047 C 854.326 4.09864 -3.43388 0
M  V30 9048 C 855.626 2.30667 -4.68604 0
M  V30 9049 H 857.32 1.06709 -2.79738 0
M  V30 9050 H 854.866 0.511884 -1.34595 0
M  V30 9051 H 856.819 3.46992 -2.39113 0
M  V30 9052 H 855.543 3.02523 -1.23074 0
M  V30 9053 H 854.202 1.97651 -3.08755 0
M  V30 9054 H 853.85 4.37664 -2.47909 0
M  V30 9055 H 853.55 4.09648 -4.21262 0
M  V30 9056 H 855.074 4.86689 -3.68736 0
M  V30 9057 H 856.488 2.95453 -4.91305 0
M  V30 9058 H 854.885 2.41637 -5.49301 0
M  V30 9059 H 855.955 1.25793 -4.68299 0
M  V30 9060 N 857.298 1.47698 0.54982 0
M  V30 9061 C 858.709 1.48474 1.13191 0
M  V30 9062 C 859.06 0.243504 1.94683 0
M  V30 9063 O 858.185 -0.651009 2.06375 0
M  V30 9064 C 858.78 2.69022 2.05944 0
M  V30 9065 C 857.339 2.72733 2.5941 0
M  V30 9066 C 856.486 2.41691 1.35944 0
M  V30 9067 H 859.437 1.55101 0.336048 0
M  V30 9068 H 859.458 2.46412 2.89934 0
M  V30 9069 H 858.97 3.59345 1.46605 0
M  V30 9070 H 857.071 1.86568 3.22526 0
M  V30 9071 H 857.184 3.73628 2.99899 0
M  V30 9072 H 855.548 1.92428 1.66864 0
M  V30 9073 H 856.331 3.34231 0.783869 0
M  V30 9074 N 858.776 -0.797141 1.35954 0
M  V30 9075 C 859.706 -1.92387 1.32323 0
M  V30 9076 C 860.687 -1.68967 0.196007 0
M  V30 9077 O 861.872 -1.90193 0.39245 0
M  V30 9078 C 859.002 -3.29286 1.10398 0
M  V30 9079 C 857.956 -3.67212 2.19862 0
M  V30 9080 C 857.282 -5.02377 1.8309 0
M  V30 9081 C 858.582 -3.76602 3.61896 0
M  V30 9082 H 860.276 -1.95683 2.26602 0
M  V30 9083 H 857.822 -0.94007 1.09081 0
M  V30 9084 H 859.775 -4.07721 1.06495 0
M  V30 9085 H 858.499 -3.26358 0.125668 0
M  V30 9086 H 857.158 -2.91069 2.22878 0
M  V30 9087 H 856.806 -4.95961 0.838527 0
M  V30 9088 H 856.506 -5.28722 2.56372 0
M  V30 9089 H 858.03 -5.8324 1.80729 0
M  V30 9090 H 859.444 -4.45246 3.6115 0
M  V30 9091 H 857.841 -4.14425 4.34018 0
M  V30 9092 H 858.911 -2.77906 3.97361 0
M  V30 9093 N 860.254 -1.20106 -1.0204 0
M  V30 9094 C 861.494 -1.02013 -1.77123 0
M  V30 9095 C 861.858 0.440439 -1.8688 0
M  V30 9096 O 863.059 0.74144 -2.58372 0
M  V30 9097 C 861.33 -1.68058 -3.15423 0
M  V30 9098 S 862.889 -1.65016 -4.0659 0
M  V30 9099 H 859.707 -0.365882 -0.609632 0
M  V30 9100 H 862.309 -1.52597 -1.22206 0
M  V30 9101 H 861.013 -2.73544 -3.05944 0
M  V30 9102 H 860.544 -1.17589 -3.75415 0
M  V30 9103 H 862.559 -0.680341 -4.91514 0
M  V30 9104 N 861.732 1.21287 -1.00634 0
M  V30 9105 C 862.957 1.94925 -0.708441 0
M  V30 9106 C 863.382 1.73659 0.722783 0
M  V30 9107 O 862.74 1.02429 1.49593 0
M  V30 9108 C 862.788 3.45377 -1.03667 0
M  V30 9109 O 861.892 4.12153 -0.142661 0
M  V30 9110 H 861.233 0.609338 -0.263824 0
M  V30 9111 H 863.763 1.54008 -1.34695 0
M  V30 9112 H 863.773 3.95954 -0.984086 0
M  V30 9113 H 862.448 3.6018 -2.0795 0
M  V30 9114 H 861.025 3.72048 -0.251888 0
M  V30 9115 N 863.21 0.781244 1.36873 0
M  V30 9116 C 864.435 0.360398 2.04245 0
M  V30 9117 C 864.86 -1.01242 1.58529 0
M  V30 9118 O 864.218 -1.65063 0.749936 0
M  V30 9119 C 864.266 0.42329 3.58107 0
M  V30 9120 O 863.37 -0.572796 4.08403 0
M  V30 9121 H 862.711 0.154386 0.645803 0
M  V30 9122 H 865.241 1.06008 1.74996 0
M  V30 9123 H 865.251 0.283967 4.07011 0
M  V30 9124 H 863.926 1.42477 3.90734 0
M  V30 9125 H 862.503 -0.395809 3.70793 0
M  V30 9126 N 864.689 -1.48329 0.532571 0
M  V30 9127 C 865.621 -2.27652 -0.265931 0
M  V30 9128 C 866.634 -1.35522 -0.902083 0
M  V30 9129 O 867.823 -1.60552 -0.780088 0
M  V30 9130 C 864.923 -3.0899 -1.39207 0
M  V30 9131 C 864.096 -4.28915 -0.857349 0
M  V30 9132 C 863.155 -4.92044 -1.86493 0
M  V30 9133 O 862.181 -5.51181 -1.42084 0
M  V30 9134 N 863.383 -4.84518 -3.19723 0
M  V30 9135 H 866.148 -2.96821 0.414389 0
M  V30 9136 H 863.709 -1.57684 0.367066 0
M  V30 9137 H 865.701 -3.48091 -2.06433 0
M  V30 9138 H 864.271 -2.42224 -1.97601 0
M  V30 9139 H 863.491 -3.94199 -0.00901765 0
M  V30 9140 H 864.779 -5.0654 -0.479025 0
M  V30 9141 H 864.177 -4.37628 -3.58467 0
M  V30 9142 H 862.734 -5.27712 -3.82575 0
M  V30 9143 N 866.167 -0.267825 -1.55308 0
M  V30 9144 C 867.13 0.60965 -2.20943 0
M  V30 9145 C 868.13 1.0869 -1.18504 0
M  V30 9146 O 869.32 0.988248 -1.43455 0
M  V30 9147 C 866.452 1.84027 -2.86961 0
M  V30 9148 H 867.645 0.0366806 -2.99878 0
M  V30 9149 H 865.198 -0.0183941 -1.56289 0
M  V30 9150 H 865.933 2.45394 -2.1202 0
M  V30 9151 H 865.718 1.50605 -3.62023 0
M  V30 9152 H 867.208 2.46442 -3.37129 0
M  V30 9153 N 867.645 1.57599 0.00500368 0
M  V30 9154 C 868.577 2.04949 1.02609 0
M  V30 9155 C 869.59 0.966507 1.31006 0
M  V30 9156 O 870.779 1.2434 1.2807 0
M  V30 9157 C 867.879 2.43023 2.36206 0
M  V30 9158 C 867.052 3.73993 2.26821 0
M  V30 9159 C 866.111 3.9899 3.43065 0
M  V30 9160 O 865.137 4.69725 3.21477 0
M  V30 9161 N 866.339 3.46496 4.65748 0
M  V30 9162 H 869.104 2.93167 0.622336 0
M  V30 9163 H 866.665 1.60752 0.192488 0
M  V30 9164 H 868.657 2.56863 3.12735 0
M  V30 9165 H 867.227 1.60349 2.68341 0
M  V30 9166 H 866.447 3.70277 1.35235 0
M  V30 9167 H 867.735 4.59865 2.17719 0
M  V30 9168 H 867.133 2.89206 4.86186 0
M  V30 9169 H 865.69 3.65675 5.3956 0
M  V30 9170 N 869.123 -0.277682 1.55134 0
M  V30 9171 C 870.056 -1.3685 1.82612 0
M  V30 9172 C 871.034 -1.47752 0.678833 0
M  V30 9173 O 872.218 -1.6445 0.921329 0
M  V30 9174 C 869.345 -2.74539 1.98359 0
M  V30 9175 C 868.391 -2.80945 3.20893 0
M  V30 9176 S 869.224 -2.40666 4.78373 0
M  V30 9177 C 870.38 -3.80338 4.97085 0
M  V30 9178 H 870.613 -1.13338 2.74849 0
M  V30 9179 H 868.146 -0.477063 1.46845 0
M  V30 9180 H 870.104 -3.53834 2.08115 0
M  V30 9181 H 868.765 -2.95306 1.07019 0
M  V30 9182 H 867.958 -3.81992 3.28783 0
M  V30 9183 H 867.56 -2.09667 3.09703 0
M  V30 9184 H 869.852 -4.75565 4.8254 0
M  V30 9185 H 870.795 -3.77403 5.99143 0
M  V30 9186 H 871.203 -3.71424 4.25094 0
M  V30 9187 N 870.601 -1.47988 -0.541979 0
M  V30 9188 C 871.878 -1.45878 -1.30303 0
M  V30 9189 C 872.258 -0.163931 -2.10463 0
M  V30 9190 O 871.606 0.854479 -2.11922 0
M  V30 9191 C 871.816 -2.71359 -2.19466 0
M  V30 9192 C 873.164 -3.19199 -2.79995 0
M  V30 9193 O 874.188 -2.72193 -2.2976 0
M  V30 9194 O 873.047 -4.00961 -3.71339 0
M  V30 9195 H 870.141 -0.582043 -0.587498 0
M  V30 9196 H 872.687 -1.60207 -0.559623 0
M  V30 9197 H 871.459 -3.57122 -1.59936 0
M  V30 9198 H 871.082 -2.59692 -3.01075 0
M  V30 9199 N 872.079 0.78992 -1.36375 0
M  V30 9200 C 873.309 1.57644 -1.33536 0
M  V30 9201 C 873.717 1.89007 0.0855075 0
M  V30 9202 O 873.06 1.50547 1.05267 0
M  V30 9203 C 873.122 2.92424 -2.09113 0
M  V30 9204 C 872.786 2.83793 -3.58205 0
M  V30 9205 C 873.783 2.56072 -4.52464 0
M  V30 9206 C 871.468 3.02386 -4.01084 0
M  V30 9207 C 873.462 2.47044 -5.87578 0
M  V30 9208 C 871.149 2.9298 -5.36289 0
M  V30 9209 C 872.147 2.65347 -6.29349 0
M  V30 9210 O 871.835 2.55935 -7.62071 0
M  V30 9211 H 871.567 0.495639 -0.459694 0
M  V30 9212 H 874.121 0.988354 -1.80058 0
M  V30 9213 H 872.351 3.53282 -1.57254 0
M  V30 9214 H 874.04 3.53693 -1.99139 0
M  V30 9215 H 874.806 2.4141 -4.2065 0
M  V30 9216 H 870.685 3.229 -3.29023 0
M  V30 9217 H 874.229 2.25396 -6.60184 0
M  V30 9218 H 870.126 3.07204 -5.67711 0
M  V30 9219 H 870.894 2.7142 -7.72187 0
M  V30 9220 N 873.557 1.20646 1.01402 0
M  V30 9221 C 874.973 0.961866 1.27359 0
M  V30 9222 C 875.173 -0.357083 1.98311 0
M  V30 9223 O 874.229 -1.08498 2.28001 0
M  V30 9224 C 875.542 2.14627 2.10609 0
M  V30 9225 C 877.09 2.18753 2.23866 0
M  V30 9226 C 877.565 3.36686 3.10494 0
M  V30 9227 N 879.056 3.36716 3.18083 0
M  V30 9228 C 879.791 4.24615 3.85343 0
M  V30 9229 N 879.287 5.22697 4.54708 0
M  V30 9230 N 881.08 4.12449 3.81893 0
M  V30 9231 H 873.231 2.05481 0.537721 0
M  V30 9232 H 875.494 0.899292 0.299963 0
M  V30 9233 H 875.2 3.10159 1.65814 0
M  V30 9234 H 875.074 2.12935 3.11349 0
M  V30 9235 H 877.461 1.23782 2.67885 0
M  V30 9236 H 877.542 2.24492 1.22626 0
M  V30 9237 H 877.186 4.31945 2.67181 0
M  V30 9238 H 877.116 3.28185 4.11828 0
M  V30 9239 H 879.607 2.65728 2.68695 0
M  V30 9240 H 879.92 5.86087 5.03708 0
M  V30 9241 H 878.265 5.26631 4.53525 0
M  V30 9242 H 881.456 3.35091 3.26851 0
M  V30 9243 H 881.629 4.81162 4.34035 0
M  V30 9244 N 875.035 -1.20752 1.01276 0
M  V30 9245 C 876.451 -1.42084 0.726934 0
M  V30 9246 C 876.651 -1.89138 -0.694907 0
M  V30 9247 O 875.707 -2.05783 -1.4632 0
M  V30 9248 C 877.02 -2.44575 1.74938 0
M  V30 9249 C 878.568 -2.58347 1.76708 0
M  V30 9250 C 879.043 -3.64078 2.77869 0
M  V30 9251 N 880.534 -3.71558 2.76585 0
M  V30 9252 C 881.269 -4.53016 3.51517 0
M  V30 9253 N 880.765 -5.38309 4.36114 0
M  V30 9254 N 882.558 -4.47512 3.40132 0
M  V30 9255 H 874.709 -0.885228 1.93074 0
M  V30 9256 H 876.972 -0.451075 0.833808 0
M  V30 9257 H 876.678 -2.1699 2.76782 0
M  V30 9258 H 876.552 -3.43503 1.55838 0
M  V30 9259 H 878.939 -2.85265 0.755516 0
M  V30 9260 H 879.02 -1.59628 1.99882 0
M  V30 9261 H 878.664 -3.37905 3.79187 0
M  V30 9262 H 878.594 -4.62412 2.51958 0
M  V30 9263 H 881.085 -3.10629 2.15216 0
M  V30 9264 H 881.398 -5.9754 4.90068 0
M  V30 9265 H 879.743 -5.37824 4.40194 0
M  V30 9266 H 882.934 -3.79912 2.73467 0
M  V30 9267 H 883.107 -5.10759 3.98784 0
M  V30 9268 N 876.513 -0.788492 -1.36457 0
M  V30 9269 C 877.443 -0.200468 -2.32638 0
M  V30 9270 C 878.424 0.664031 -1.56603 0
M  V30 9271 O 879.609 0.598045 -1.84762 0
M  V30 9272 C 876.739 0.666274 -3.40849 0
M  V30 9273 C 875.693 -0.0982574 -4.27887 0
M  V30 9274 C 875.019 0.889018 -5.27258 0
M  V30 9275 C 876.319 -1.28692 -5.06197 0
M  V30 9276 H 878.013 -1.00399 -2.82065 0
M  V30 9277 H 875.559 -0.484237 -1.35614 0
M  V30 9278 H 877.512 1.08757 -4.07124 0
M  V30 9279 H 876.236 1.50249 -2.89987 0
M  V30 9280 H 874.895 -0.500525 -3.63167 0
M  V30 9281 H 874.543 1.72024 -4.7267 0
M  V30 9282 H 874.243 0.381909 -5.86358 0
M  V30 9283 H 875.767 1.30891 -5.96406 0
M  V30 9284 H 877.181 -0.941429 -5.65517 0
M  V30 9285 H 875.578 -1.72726 -5.74705 0
M  V30 9286 H 876.648 -2.08273 -4.37893 0
M  V30 9287 N 877.991 1.48044 -0.54043 0
M  V30 9288 C 878.923 2.2779 0.253854 0
M  V30 9289 C 879.936 1.35999 0.894883 0
M  V30 9290 O 881.125 1.60963 0.771563 0
M  V30 9291 C 878.225 3.09724 1.37566 0
M  V30 9292 C 877.398 4.29364 0.83459 0
M  V30 9293 C 876.457 4.93026 1.83881 0
M  V30 9294 O 875.483 5.51927 1.39159 0
M  V30 9295 N 876.685 4.86207 3.17149 0
M  V30 9296 H 879.45 2.96597 -0.430125 0
M  V30 9297 H 877.011 1.57487 -0.375423 0
M  V30 9298 H 879.003 3.49181 2.04584 0
M  V30 9299 H 877.573 2.43269 1.96314 0
M  V30 9300 H 876.793 3.94198 -0.0118878 0
M  V30 9301 H 878.081 5.06787 0.452155 0
M  V30 9302 H 877.479 4.39523 3.56141 0
M  V30 9303 H 876.036 5.29733 3.79771 0
M  V30 9304 N 879.47 0.276058 1.55163 0
M  V30 9305 C 880.881 -0.221516 1.85381 0
M  V30 9306 C 881.232 -1.55372 1.19808 0
M  V30 9307 O 880.357 -2.10855 0.486742 0
M  V30 9308 C 880.952 -0.408706 3.36326 0
M  V30 9309 C 879.511 -0.850512 3.66665 0
M  V30 9310 C 878.658 0.055656 2.77244 0
M  V30 9311 H 881.609 0.497819 1.5069 0
M  V30 9312 H 881.63 -1.24711 3.59482 0
M  V30 9313 H 881.142 0.561052 3.84023 0
M  V30 9314 H 879.243 -1.83171 3.24468 0
M  V30 9315 H 879.356 -0.687181 4.74146 0
M  V30 9316 H 877.72 -0.460819 2.50497 0
M  V30 9317 H 878.503 1.02131 3.27756 0
M  V30 9318 N 880.948 -1.576 0.00335426 0
M  V30 9319 C 882.173 -1.95398 -0.695311 0
M  V30 9320 C 882.598 -0.878476 -1.66326 0
M  V30 9321 O 881.956 0.163086 -1.80565 0
M  V30 9322 C 882.004 -3.32293 -1.40049 0
M  V30 9323 O 881.108 -3.26834 -2.51502 0
M  V30 9324 H 880.449 -0.637796 -0.184694 0
M  V30 9325 H 882.979 -2.04519 0.057543 0
M  V30 9326 H 882.989 -3.67936 -1.76316 0
M  V30 9327 H 881.664 -4.10123 -0.690803 0
M  V30 9328 H 880.241 -3.02872 -2.17539 0
M  V30 9329 N 882.426 0.269451 -1.5528 0
M  V30 9330 C 883.666 1.00819 -1.77806 0
M  V30 9331 C 884.03 1.83369 -0.569198 0
M  V30 9332 O 885.231 2.60244 -0.672783 0
M  V30 9333 C 883.502 1.86447 -3.04913 0
M  V30 9334 S 885.061 2.66538 -3.48573 0
M  V30 9335 H 881.879 0.339508 -0.624704 0
M  V30 9336 H 884.481 0.278256 -1.9351 0
M  V30 9337 H 883.185 1.24733 -3.90986 0
M  V30 9338 H 882.716 2.63755 -2.91885 0
M  V30 9339 H 884.731 3.88938 -3.08126 0
M  V30 9340 N 883.904 1.48273 0.534124 0
M  V30 9341 C 884.834 1.6538 1.64839 0
M  V30 9342 C 885.815 0.502741 1.62501 0
M  V30 9343 O 887 0.734799 1.79762 0
M  V30 9344 C 884.13 1.68949 3.03436 0
M  V30 9345 C 883.084 2.83513 3.20631 0
M  V30 9346 C 882.41 2.72169 4.60248 0
M  V30 9347 C 883.71 4.24858 3.03797 0
M  V30 9348 H 885.404 2.58663 1.50777 0
M  V30 9349 H 882.95 1.24479 0.723937 0
M  V30 9350 H 884.903 1.79505 3.81256 0
M  V30 9351 H 883.627 0.722415 3.1851 0
M  V30 9352 H 882.286 2.72505 2.45227 0
M  V30 9353 H 881.934 1.7344 4.72152 0
M  V30 9354 H 881.634 3.49042 4.72698 0
M  V30 9355 H 883.158 2.84687 5.40172 0
M  V30 9356 H 884.572 4.36721 3.71413 0
M  V30 9357 H 882.969 5.02697 3.27743 0
M  V30 9358 H 884.039 4.41611 2.0027 0
M  V30 9359 N 885.382 -0.782676 1.36792 0
M  V30 9360 C 886.63 -1.53778 1.31136 0
M  V30 9361 C 886.951 -1.94706 -0.107014 0
M  V30 9362 O 886.221 -1.65465 -1.04872 0
M  V30 9363 H 884.801 -0.570328 0.482426 0
M  V30 9364 H 887.463 -0.932181 1.71162 0
M  V30 9365 H 886.559 -2.44224 1.94321 0
M  V30 9366 N 886.86 -1.21182 -1.00761 0
M  V30 9367 C 888.088 -1.05335 -1.78079 0
M  V30 9368 C 888.503 0.396988 -1.84579 0
M  V30 9369 O 887.86 1.27548 -1.30529 0
M  V30 9370 C 887.911 -1.64089 -3.22113 0
M  V30 9371 O 887.632 -3.03448 -3.15992 0
M  V30 9372 C 889.133 -1.53318 -4.15943 0
M  V30 9373 H 886.353 -0.37005 -0.559736 0
M  V30 9374 H 888.897 -1.60463 -1.26775 0
M  V30 9375 H 887.052 -1.13059 -3.70535 0
M  V30 9376 H 887.466 -3.31492 -4.06465 0
M  V30 9377 H 888.94 -1.99174 -5.14814 0
M  V30 9378 H 889.417 -0.487166 -4.3649 0
M  V30 9379 H 890.023 -2.03582 -3.73409 0
M  V30 9380 N 888.338 1.20213 -1.01915 0
M  V30 9381 C 889.271 2.2181 -0.536243 0
M  V30 9382 C 890.249 1.57144 0.417689 0
M  V30 9383 O 891.433 1.85461 0.337088 0
M  V30 9384 C 888.56 3.37989 0.219303 0
M  V30 9385 C 887.606 4.2097 -0.684571 0
M  V30 9386 S 888.439 4.90216 -2.15519 0
M  V30 9387 C 889.595 6.09814 -1.40988 0
M  V30 9388 H 889.828 2.62429 -1.39709 0
M  V30 9389 H 887.361 1.30305 -0.828254 0
M  V30 9390 H 889.319 4.05335 0.649112 0
M  V30 9391 H 887.98 2.95825 1.05575 0
M  V30 9392 H 887.173 5.03897 -0.101833 0
M  V30 9393 H 886.775 3.58892 -1.05227 0
M  V30 9394 H 889.067 6.73964 -0.691243 0
M  V30 9395 H 890.01 6.72552 -2.21539 0
M  V30 9396 H 890.418 5.5709 -0.911645 0
M  V30 9397 N 889.816 0.795718 1.36037 0
M  V30 9398 C 891.227 0.433379 1.816 0
M  V30 9399 C 891.578 -1.04341 1.66155 0
M  V30 9400 O 890.703 -1.81004 1.18603 0
M  V30 9401 C 891.298 0.77985 3.29703 0
M  V30 9402 C 889.857 0.470256 3.73451 0
M  V30 9403 C 889.004 1.01119 2.58206 0
M  V30 9404 H 891.955 0.988317 1.24169 0
M  V30 9405 H 891.976 0.0732898 3.80429 0
M  V30 9406 H 891.488 1.85473 3.40913 0
M  V30 9407 H 889.589 -0.596332 3.67797 0
M  V30 9408 H 889.702 0.995276 4.68648 0
M  V30 9409 H 888.066 0.434077 2.50974 0
M  V30 9410 H 888.849 2.09196 2.72198 0
M  V30 9411 N 891.294 -1.47756 0.548274 0
M  V30 9412 C 892.224 -2.32702 -0.19284 0
M  V30 9413 C 893.205 -1.43237 -0.917457 0
M  V30 9414 O 894.39 -1.72103 -0.89967 0
M  V30 9415 C 891.52 -3.24831 -1.22891 0
M  V30 9416 C 890.474 -4.23466 -0.621312 0
M  V30 9417 C 889.8 -5.04856 -1.76137 0
M  V30 9418 C 891.1 -5.20616 0.419055 0
M  V30 9419 H 892.794 -2.94914 0.516323 0
M  V30 9420 H 890.34 -1.41818 0.24975 0
M  V30 9421 H 892.293 -3.83094 -1.75547 0
M  V30 9422 H 891.017 -2.60656 -1.9679 0
M  V30 9423 H 889.676 -3.66416 -0.116123 0
M  V30 9424 H 889.324 -4.37091 -2.48918 0
M  V30 9425 H 889.024 -5.71629 -1.36065 0
M  V30 9426 H 890.548 -5.65976 -2.29136 0
M  V30 9427 H 891.962 -5.73296 -0.0211034 0
M  V30 9428 H 890.359 -5.95543 0.738163 0
M  V30 9429 H 891.429 -4.66638 1.31822 0
M  V30 9430 N 892.772 -0.284283 -1.55015 0
M  V30 9431 C 893.997 0.335799 -2.04664 0
M  V30 9432 C 894.422 1.47999 -1.16094 0
M  V30 9433 O 893.78 1.8058 -0.161454 0
M  V30 9434 C 893.828 0.785615 -3.51938 0
M  V30 9435 O 892.932 1.89202 -3.66437 0
M  V30 9436 H 892.273 0.0680233 -0.660506 0
M  V30 9437 H 894.803 -0.421255 -2.00216 0
M  V30 9438 H 894.813 1.07892 -3.93476 0
M  V30 9439 H 893.488 -0.0514675 -4.15868 0
M  V30 9440 H 892.065 1.60055 -3.36804 0
M  V30 9441 N 894.251 1.57596 -0.0117121 0
M  V30 9442 C 895.497 1.91355 0.671661 0
M  V30 9443 C 895.83 0.886818 1.72769 0
M  V30 9444 O 895.105 -0.0928813 1.94278 0
M  V30 9445 C 895.388 3.35657 1.30409 0
M  V30 9446 C 895.241 4.49055 0.2588 0
M  V30 9447 C 896.56 3.79595 2.22701 0
M  V30 9448 H 893.679 0.695893 0.242698 0
M  V30 9449 H 896.321 1.89887 -0.0654071 0
M  V30 9450 H 894.471 3.37038 1.9323 0
M  V30 9451 H 896.143 4.59809 -0.370631 0
M  V30 9452 H 894.386 4.31785 -0.417672 0
M  V30 9453 H 895.057 5.4701 0.740578 0
M  V30 9454 H 897.533 3.7984 1.69885 0
M  V30 9455 H 896.409 4.81292 2.63912 0
M  V30 9456 H 896.67 3.14118 3.11098 0
M  V30 9457 N 895.729 -0.261212 1.5542 0
M  V30 9458 C 896.969 -0.998748 1.78338 0
M  V30 9459 C 897.333 -1.83064 0.578914 0
M  V30 9460 O 898.534 -2.59884 0.686575 0
M  V30 9461 C 896.805 -1.84828 3.05898 0
M  V30 9462 S 898.364 -2.64686 3.49981 0
M  V30 9463 H 895.182 -0.33619 0.626496 0
M  V30 9464 H 897.784 -0.26799 1.93655 0
M  V30 9465 H 896.488 -1.22658 3.91642 0
M  V30 9466 H 896.019 -2.62203 2.9328 0
M  V30 9467 H 898.034 -3.87299 3.10184 0
M  V30 9468 N 897.207 -1.48554 -0.526253 0
M  V30 9469 C 898.618 -1.50256 -1.10815 0
M  V30 9470 C 898.969 -0.274445 -1.94271 0
M  V30 9471 O 898.094 0.618094 -2.07385 0
M  V30 9472 C 898.689 -2.72264 -2.01638 0
M  V30 9473 C 897.248 -2.76826 -2.55038 0
M  V30 9474 C 896.395 -2.43823 -1.32081 0
M  V30 9475 H 899.346 -1.55616 -0.31133 0
M  V30 9476 H 899.367 -2.50993 -2.85977 0
M  V30 9477 H 898.879 -3.61632 -1.4087 0
M  V30 9478 H 896.98 -1.91676 -3.19517 0
M  V30 9479 H 897.093 -3.78351 -2.93917 0
M  V30 9480 H 895.457 -1.95058 -1.63781 0
M  V30 9481 H 896.24 -3.35436 -0.730596 0
M  V30 9482 N 898.685 0.775411 -1.37205 0
M  V30 9483 C 900.096 1.35147 -1.28811 0
M  V30 9484 C 900.447 1.96089 0.0659168 0
M  V30 9485 O 899.572 1.93558 0.967684 0
M  V30 9486 C 900.167 2.45715 -2.33258 0
M  V30 9487 C 898.726 2.99099 -2.2851 0
M  V30 9488 C 897.873 1.72286 -2.17285 0
M  V30 9489 H 900.824 0.575954 -1.4788 0
M  V30 9490 H 900.845 3.251 -1.97712 0
M  V30 9491 H 900.357 2.01331 -3.31795 0
M  V30 9492 H 898.458 3.47868 -1.33485 0
M  V30 9493 H 898.571 3.54962 -3.21774 0
M  V30 9494 H 896.935 1.95068 -1.6377 0
M  V30 9495 H 897.718 1.3001 -3.1773 0
M  V30 9496 N 900.163 1.21714 1.00117 0
M  V30 9497 C 901.096 0.923113 2.08696 0
M  V30 9498 C 902.074 -0.130827 1.62073 0
M  V30 9499 O 903.258 -0.00103064 1.885 0
M  V30 9500 C 900.385 0.386807 3.36484 0
M  V30 9501 C 899.431 1.42414 4.0202 0
M  V30 9502 S 900.264 2.99466 4.43937 0
M  V30 9503 C 901.42 2.47452 5.74907 0
M  V30 9504 H 901.653 1.84258 2.33315 0
M  V30 9505 H 899.186 1.0473 1.1345 0
M  V30 9506 H 901.144 0.0839547 4.10414 0
M  V30 9507 H 899.805 -0.511413 3.09909 0
M  V30 9508 H 898.998 0.998593 4.94008 0
M  V30 9509 H 898.6 1.67527 3.34381 0
M  V30 9510 H 900.892 1.88177 6.50842 0
M  V30 9511 H 901.835 3.37898 6.22279 0
M  V30 9512 H 902.243 1.89027 5.31911 0
M  V30 9513 N 901.641 -1.19671 1.02551 0
M  V30 9514 C 902.604 -2.20987 0.608055 0
M  V30 9515 C 903.604 -1.5745 -0.326534 0
M  V30 9516 O 904.794 -1.73827 -0.114003 0
M  V30 9517 C 901.926 -3.4072 -0.11074 0
M  V30 9518 H 903.119 -2.59434 1.50446 0
M  V30 9519 H 900.672 -1.3329 0.816307 0
M  V30 9520 H 901.407 -3.07787 -1.02165 0
M  V30 9521 H 901.192 -3.88069 0.560772 0
M  V30 9522 H 902.682 -4.15776 -0.389848 0
M  V30 9523 N 903.119 -0.802921 -1.35613 0
M  V30 9524 C 904.029 -0.212177 -2.33639 0
M  V30 9525 C 905.045 0.642871 -1.61689 0
M  V30 9526 O 906.221 0.555485 -1.93588 0
M  V30 9527 C 903.286 0.632406 -3.40883 0
M  V30 9528 C 902.347 -0.242708 -4.28613 0
M  V30 9529 C 901.58 0.56166 -5.30736 0
M  V30 9530 O 901.803 1.79664 -5.41366 0
M  V30 9531 O 900.737 -0.0455387 -6.01883 0
M  V30 9532 H 904.563 -1.023 -2.85952 0
M  V30 9533 H 902.148 -0.564636 -1.38319 0
M  V30 9534 H 904.03 1.11358 -4.0642 0
M  V30 9535 H 902.705 1.42089 -2.90848 0
M  V30 9536 H 901.612 -0.77094 -3.6607 0
M  V30 9537 H 902.945 -0.995046 -4.82037 0
M  V30 9538 N 904.597 1.47463 -0.556102 0
M  V30 9539 C 905.822 2.07371 -0.0344729 0
M  V30 9540 C 906.247 1.40621 1.2493 0
M  V30 9541 O 905.605 0.48082 1.74808 0
M  V30 9542 C 905.653 3.60306 0.145563 0
M  V30 9543 O 904.757 3.94299 1.20839 0
M  V30 9544 H 904.098 0.662052 -0.0508274 0
M  V30 9545 H 906.628 1.89498 -0.771469 0
M  V30 9546 H 906.638 4.06408 0.360112 0
M  V30 9547 H 905.313 4.08288 -0.792089 0
M  V30 9548 H 903.89 3.59944 0.97442 0
M  V30 9549 N 906.075 0.2925 1.54862 0
M  V30 9550 C 907.323 -0.318633 1.99572 0
M  V30 9551 C 907.644 -1.55062 1.1824 0
M  V30 9552 O 906.914 -1.93943 0.276226 0
M  V30 9553 H 905.494 -0.120722 0.737181 0
M  V30 9554 H 908.156 0.401862 1.90712 0
M  V30 9555 H 907.252 -0.596542 3.06346 0
M  V30 9556 N 907.553 -1.57587 0.0200696 0
M  V30 9557 C 908.778 -1.96124 -0.674547 0
M  V30 9558 C 909.203 -0.896068 -1.65385 0
M  V30 9559 O 908.561 0.143925 -1.80728 0
M  V30 9560 C 908.609 -3.3376 -1.36517 0
M  V30 9561 O 907.713 -3.29483 -2.48022 0
M  V30 9562 H 907.054 -0.639719 -0.177919 0
M  V30 9563 H 909.584 -2.04447 0.0792317 0
M  V30 9564 H 909.594 -3.69785 -1.72403 0
M  V30 9565 H 908.269 -4.10832 -0.647265 0
M  V30 9566 H 906.846 -3.05162 -2.14314 0
M  V30 9567 N 909.032 0.252966 -1.55557 0
M  V30 9568 C 910.272 0.989276 -1.78865 0
M  V30 9569 C 910.636 1.82755 -0.588615 0
M  V30 9570 O 911.837 2.59516 -0.700347 0
M  V30 9571 C 910.108 1.83203 -3.06874 0
M  V30 9572 S 911.667 2.62826 -3.5138 0
M  V30 9573 H 908.485 0.332863 -0.62827 0
M  V30 9574 H 911.087 0.257716 -1.93794 0
M  V30 9575 H 909.791 1.20579 -3.92287 0
M  V30 9576 H 909.322 2.60644 -2.94666 0
M  V30 9577 H 911.337 3.85648 -3.12234 0
M  V30 9578 N 910.51 1.48831 0.518367 0
M  V30 9579 C 911.75 1.59045 1.28391 0
M  V30 9580 C 912.114 0.263443 1.90184 0
M  V30 9581 O 913.315 0.24064 2.67721 0
M  V30 9582 C 911.586 2.70536 2.33548 0
M  V30 9583 S 913.145 3.00591 3.19673 0
M  V30 9584 H 909.963 0.561182 0.436573 0
M  V30 9585 H 912.565 1.86409 0.589222 0
M  V30 9586 H 911.269 3.65499 1.86652 0
M  V30 9587 H 910.8 2.4511 3.07708 0
M  V30 9588 H 912.815 2.40779 4.33866 0
M  V30 9589 N 911.988 -0.768124 1.37614 0
M  V30 9590 C 913.216 -1.55726 1.36224 0
M  V30 9591 C 913.631 -1.8873 -0.0515357 0
M  V30 9592 O 912.988 -1.51718 -1.0143 0
M  V30 9593 C 913.039 -2.86533 2.20412 0
M  V30 9594 O 912.76 -2.54942 3.56281 0
M  V30 9595 C 914.261 -3.80745 2.27041 0
M  V30 9596 H 911.481 -0.482325 0.46648 0
M  V30 9597 H 914.025 -0.95176 1.81002 0
M  V30 9598 H 912.18 -3.43496 1.79134 0
M  V30 9599 H 912.594 -3.38732 4.00451 0
M  V30 9600 H 914.068 -4.69523 2.90263 0
M  V30 9601 H 914.545 -4.20138 1.27987 0
M  V30 9602 H 915.151 -3.2971 2.68647 0
M  V30 9603 N 913.466 -1.22244 -0.994698 0
M  V30 9604 C 914.694 -1.07218 -1.76952 0
M  V30 9605 C 915.109 0.377388 -1.8499 0
M  V30 9606 O 914.466 1.26157 -1.31874 0
M  V30 9607 C 914.517 -1.67496 -3.20355 0
M  V30 9608 O 914.238 -3.06782 -3.12756 0
M  V30 9609 C 915.739 -1.57721 -4.14294 0
M  V30 9610 H 912.959 -0.375966 -0.555779 0
M  V30 9611 H 915.503 -1.61799 -1.25065 0
M  V30 9612 H 913.658 -1.16982 -3.69315 0
M  V30 9613 H 914.072 -3.35784 -4.02926 0
M  V30 9614 H 915.546 -2.04623 -5.12673 0
M  V30 9615 H 916.023 -0.533434 -4.35949 0
M  V30 9616 H 916.629 -2.07531 -3.71229 0
M  V30 9617 N 914.944 1.19125 -1.03184 0
M  V30 9618 C 915.894 2.20348 -0.585731 0
M  V30 9619 C 916.878 1.56656 0.367109 0
M  V30 9620 O 918.07 1.76003 0.187598 0
M  V30 9621 C 915.199 3.43249 0.0590006 0
M  V30 9622 C 914.285 4.1408 -0.916457 0
M  V30 9623 N 914.676 4.61051 -2.08005 0
M  V30 9624 C 912.974 4.39809 -0.74054 0
M  V30 9625 C 913.675 5.15477 -2.69552 0
M  V30 9626 N 912.651 5.06456 -1.97493 0
M  V30 9627 H 916.453 2.54346 -1.47259 0
M  V30 9628 H 913.967 1.35232 -0.899225 0
M  V30 9629 H 915.964 4.15013 0.396236 0
M  V30 9630 H 914.624 3.1075 0.941507 0
M  V30 9631 H 915.635 4.55782 -2.45934 0
M  V30 9632 H 912.312 4.17397 0.0926238 0
M  V30 9633 H 913.702 5.62088 -3.68112 0
M  V30 9634 N 916.422 0.810101 1.35185 0
M  V30 9635 C 917.671 0.388589 1.97921 0
M  V30 9636 C 917.984 -1.05079 1.64978 0
M  V30 9637 O 919.19 -1.57559 2.21105 0
M  V30 9638 C 917.646 0.643864 3.54094 0
M  V30 9639 C 917.254 2.09602 3.95943 0
M  V30 9640 C 918.998 0.287883 4.23523 0
M  V30 9641 C 916.905 2.29686 5.44976 0
M  V30 9642 H 915.835 0.141562 0.740592 0
M  V30 9643 H 918.486 0.994653 1.54204 0
M  V30 9644 H 916.868 -0.0321978 3.95987 0
M  V30 9645 H 918.042 2.81018 3.65192 0
M  V30 9646 H 916.357 2.4122 3.39414 0
M  V30 9647 H 918.954 0.415946 5.3308 0
M  V30 9648 H 919.297 -0.766305 4.09186 0
M  V30 9649 H 919.83 0.918004 3.87063 0
M  V30 9650 H 916.569 3.33563 5.64284 0
M  V30 9651 H 916.089 1.62798 5.77284 0
M  V30 9652 H 917.768 2.11411 6.11485 0
M  V30 9653 N 917.9 -1.47166 0.563914 0
M  V30 9654 C 918.863 -2.28571 -0.169624 0
M  V30 9655 C 919.863 -1.37331 -0.836467 0
M  V30 9656 O 921.053 -1.59896 -0.6913 0
M  V30 9657 C 918.185 -3.17201 -1.24886 0
M  V30 9658 H 919.378 -2.94896 0.545539 0
M  V30 9659 H 916.931 -1.52966 0.321121 0
M  V30 9660 H 917.666 -2.55582 -1.99621 0
M  V30 9661 H 917.451 -3.84356 -0.775426 0
M  V30 9662 H 918.941 -3.7852 -1.76388 0
M  V30 9663 N 919.378 -0.300708 -1.54705 0
M  V30 9664 C 920.326 0.591264 -2.2496 0
M  V30 9665 C 921.32 1.13725 -1.2555 0
M  V30 9666 O 922.526 1.08793 -1.43402 0
M  V30 9667 H 918.901 0.209278 -0.722293 0
M  V30 9668 H 920.872 -0.0238175 -2.9839 0
M  V30 9669 C 919.621 1.75179 -3.00346 0
M  V30 9670 H 918.944 1.34089 -3.76643 0
M  V30 9671 H 920.384 2.35198 -3.52786 0
M  V30 9672 C 918.843 2.65574 -2.07298 0
M  V30 9673 O 919.373 3.6666 -1.64083 0
M  V30 9674 N 917.579 2.33301 -1.7326 0
M  V30 9675 H 917.126 1.51142 -2.08599 0
M  V30 9676 H 917.084 2.94049 -1.11278 0
M  V30 9677 N 920.856 1.57574 -0.0284266 0
M  V30 9678 C 921.806 2.06674 0.962804 0
M  V30 9679 C 922.79 0.967115 1.28591 0
M  V30 9680 O 923.982 1.23068 1.27214 0
M  V30 9681 C 921.111 2.59682 2.24545 0
M  V30 9682 C 920.197 3.76573 1.95073 0
M  V30 9683 N 920.588 4.8721 1.35869 0
M  V30 9684 C 918.886 3.85046 2.25068 0
M  V30 9685 C 919.587 5.68436 1.23514 0
M  V30 9686 N 918.563 5.15323 1.73041 0
M  V30 9687 H 922.365 2.89615 0.500013 0
M  V30 9688 H 919.879 1.61437 0.176604 0
M  V30 9689 H 921.876 2.93148 2.96428 0
M  V30 9690 H 920.536 1.7817 2.71451 0
M  V30 9691 H 921.547 5.07477 1.03379 0
M  V30 9692 H 918.224 3.14439 2.74653 0
M  V30 9693 H 919.614 6.67387 0.777403 0
M  V30 9694 N 922.334 -0.244713 1.55689 0
M  V30 9695 C 923.559 -0.994157 1.8202 0
M  V30 9696 C 923.984 -1.78079 0.60577 0
M  V30 9697 O 923.342 -1.75748 -0.445221 0
M  V30 9698 C 923.39 -1.90599 3.06111 0
M  V30 9699 O 922.494 -2.99804 2.8318 0
M  V30 9700 H 921.835 -0.282767 0.600782 0
M  V30 9701 H 924.365 -0.26504 2.02876 0
M  V30 9702 H 924.375 -2.32023 3.35603 0
M  V30 9703 H 923.05 -1.32763 3.9414 0
M  V30 9704 H 921.627 -2.62493 2.64862 0
M  V30 9705 N 923.813 -1.49104 -0.510467 0
M  V30 9706 C 925.043 -1.61571 -1.28757 0
M  V30 9707 C 925.451 -0.282638 -1.87077 0
M  V30 9708 O 924.794 0.740749 -1.68103 0
M  V30 9709 C 924.856 -2.61851 -2.46322 0
M  V30 9710 C 924.52 -4.06438 -2.08942 0
M  V30 9711 C 925.517 -4.93532 -1.63469 0
M  V30 9712 C 923.202 -4.52109 -2.18867 0
M  V30 9713 C 925.196 -6.24331 -1.28411 0
M  V30 9714 C 922.883 -5.82924 -1.83421 0
M  V30 9715 C 923.881 -6.68858 -1.38267 0
M  V30 9716 O 923.569 -7.97236 -1.03296 0
M  V30 9717 H 923.301 -0.547082 -0.397086 0
M  V30 9718 H 925.855 -1.95806 -0.620424 0
M  V30 9719 H 924.085 -2.22777 -3.16081 0
M  V30 9720 H 925.774 -2.63947 -3.08362 0
M  V30 9721 H 926.54 -4.59479 -1.55255 0
M  V30 9722 H 922.419 -3.85395 -2.52966 0
M  V30 9723 H 925.963 -6.9136 -0.930946 0
M  V30 9724 H 921.86 -6.16507 -1.91282 0
M  V30 9725 H 922.628 -8.10163 -1.16525 0
M  V30 9726 N 925.291 0.760815 -1.38019 0
M  V30 9727 C 926.221 1.88811 -1.37377 0
M  V30 9728 C 927.202 1.68388 -0.240737 0
M  V30 9729 O 928.387 1.89086 -0.442739 0
M  V30 9730 C 925.517 3.26244 -1.1909 0
M  V30 9731 C 924.471 3.61254 -2.29521 0
M  V30 9732 C 923.797 4.97346 -1.96345 0
M  V30 9733 C 925.097 3.66874 -3.71753 0
M  V30 9734 H 926.791 1.89606 -2.31711 0
M  V30 9735 H 924.337 0.910818 -1.11535 0
M  V30 9736 H 926.29 4.04755 -1.17267 0
M  V30 9737 H 925.014 3.2591 -0.212152 0
M  V30 9738 H 923.673 2.85057 -2.30517 0
M  V30 9739 H 923.321 4.93564 -0.969728 0
M  V30 9740 H 923.021 5.21739 -2.703 0
M  V30 9741 H 924.545 5.78244 -1.96129 0
M  V30 9742 H 925.959 4.35514 -3.72828 0
M  V30 9743 H 924.356 4.02772 -4.44853 0
M  V30 9744 H 925.426 2.67273 -4.0459 0
M  V30 9745 N 926.769 1.22769 0.988202 0
M  V30 9746 C 928.18 1.0512 1.54294 0
M  V30 9747 C 928.531 -0.383904 1.92407 0
M  V30 9748 O 927.656 -1.26955 1.75246 0
M  V30 9749 C 928.251 1.90198 2.80375 0
M  V30 9750 C 926.81 1.76831 3.32276 0
M  V30 9751 C 925.957 1.86377 2.05326 0
M  V30 9752 H 928.908 1.36546 0.808758 0
M  V30 9753 H 928.929 1.42216 3.52923 0
M  V30 9754 H 928.441 2.9464 2.52605 0
M  V30 9755 H 926.542 0.751412 3.64945 0
M  V30 9756 H 926.655 2.59771 4.02562 0
M  V30 9757 H 925.019 1.2987 2.19103 0
M  V30 9758 H 925.802 2.9236 1.79946 0
M  V30 9759 N 928.247 -1.18576 1.03814 0
M  V30 9760 C 929.177 -2.24334 0.647795 0
M  V30 9761 C 930.158 -1.66508 -0.34774 0
M  V30 9762 O 931.343 -1.92852 -0.228401 0
M  V30 9763 C 928.473 -3.47299 0.00734922 0
M  V30 9764 C 927.427 -4.17859 0.926152 0
M  V30 9765 C 926.753 -5.34489 0.150317 0
M  V30 9766 C 928.053 -4.71632 2.24411 0
M  V30 9767 H 929.747 -2.57241 1.53191 0
M  V30 9768 H 927.293 -1.23649 0.738028 0
M  V30 9769 H 929.246 -4.20486 -0.277434 0
M  V30 9770 H 927.97 -3.13619 -0.911626 0
M  V30 9771 H 926.629 -3.46567 1.19528 0
M  V30 9772 H 926.277 -4.97056 -0.770985 0
M  V30 9773 H 925.977 -5.82633 0.762407 0
M  V30 9774 H 927.501 -6.10467 -0.127508 0
M  V30 9775 H 928.915 -5.36526 2.02021 0
M  V30 9776 H 927.312 -5.303 2.80894 0
M  V30 9777 H 928.382 -3.89192 2.89236 0
M  V30 9778 N 929.725 -0.817259 -1.34754 0
M  V30 9779 C 930.95 -0.414423 -2.03217 0
M  V30 9780 C 931.375 0.970037 -1.61158 0
M  V30 9781 O 930.733 1.63016 -0.793436 0
M  V30 9782 C 930.781 -0.518087 -3.56859 0
M  V30 9783 O 929.885 0.464314 -4.09778 0
M  V30 9784 H 929.226 -0.171454 -0.641482 0
M  V30 9785 H 931.756 -1.10611 -1.72123 0
M  V30 9786 H 931.766 -0.391779 -4.06115 0
M  V30 9787 H 930.441 -1.52786 -3.86819 0
M  V30 9788 H 929.018 0.297361 -3.71712 0
M  V30 9789 N 931.203 1.46865 -0.571711 0
M  V30 9790 C 932.433 2.06518 -0.0583129 0
M  V30 9791 C 932.841 1.4227 1.24723 0
M  V30 9792 O 932.184 0.518293 1.76237 0
M  V30 9793 C 932.246 3.5898 0.193214 0
M  V30 9794 C 931.91 4.45355 -1.02507 0
M  V30 9795 C 932.907 4.82575 -1.93435 0
M  V30 9796 C 930.592 4.86656 -1.24382 0
M  V30 9797 C 932.586 5.59912 -3.04595 0
M  V30 9798 C 930.273 5.63754 -2.35849 0
M  V30 9799 C 931.271 6.00294 -3.25785 0
M  V30 9800 O 930.959 6.75836 -4.35318 0
M  V30 9801 H 930.691 0.674188 -0.0494584 0
M  V30 9802 H 933.245 1.89644 -0.788934 0
M  V30 9803 H 931.475 3.7412 0.978319 0
M  V30 9804 H 933.164 4.006 0.653769 0
M  V30 9805 H 933.93 4.51256 -1.77745 0
M  V30 9806 H 929.809 4.57672 -0.55292 0
M  V30 9807 H 933.353 5.88351 -3.74818 0
M  V30 9808 H 929.25 5.94487 -2.51506 0
M  V30 9809 H 930.018 6.94247 -4.33547 0
M  V30 9810 N 932.681 0.308908 1.54543 0
M  V30 9811 C 933.927 -0.291311 2.01303 0
M  V30 9812 C 934.282 -1.50917 1.19339 0
M  V30 9813 O 933.575 -1.89776 0.263724 0
M  V30 9814 C 933.769 -0.691522 3.50646 0
M  V30 9815 C 933.598 0.486007 4.47066 0
M  V30 9816 C 932.368 0.980515 4.95695 0
M  V30 9817 C 934.566 1.33352 4.96711 0
M  V30 9818 N 932.548 2.12398 5.75986 0
M  V30 9819 C 933.919 2.32436 5.74781 0
M  V30 9820 C 935.974 1.36298 4.78881 0
M  V30 9821 C 934.677 3.34252 6.36921 0
M  V30 9822 C 936.703 2.36976 5.41845 0
M  V30 9823 C 936.065 3.34789 6.19755 0
M  V30 9824 H 932.164 -0.0708418 0.778785 0
M  V30 9825 H 934.748 0.440621 1.89649 0
M  V30 9826 H 932.919 -1.39261 3.62575 0
M  V30 9827 H 934.651 -1.27196 3.84192 0
M  V30 9828 H 931.406 0.55419 4.70346 0
M  V30 9829 H 931.83 2.70036 6.20814 0
M  V30 9830 H 936.472 0.620472 4.18222 0
M  V30 9831 H 934.19 4.09417 6.96709 0
M  V30 9832 H 937.776 2.40039 5.29974 0
M  V30 9833 H 936.656 4.11418 6.67611 0
M  V30 9834 N 934.159 -1.57557 0.0367827 0
M  V30 9835 C 935.091 -2.07597 -0.971395 0
M  V30 9836 C 936.104 -1.0009 -1.28397 0
M  V30 9837 O 937.293 -1.27692 -1.24728 0
M  V30 9838 C 934.393 -2.492 -2.2968 0
M  V30 9839 C 933.566 -3.79875 -2.16826 0
M  V30 9840 C 932.625 -4.07946 -3.32366 0
M  V30 9841 O 931.651 -4.78083 -3.0891 0
M  V30 9842 N 932.853 -3.58722 -4.56397 0
M  V30 9843 H 935.618 -2.94714 -0.544389 0
M  V30 9844 H 933.179 -1.61205 -0.1498 0
M  V30 9845 H 935.171 -2.65065 -3.05815 0
M  V30 9846 H 933.741 -1.67407 -2.63995 0
M  V30 9847 H 932.961 -3.73732 -1.2537 0
M  V30 9848 H 934.249 -4.65476 -2.0545 0
M  V30 9849 H 933.647 -3.01994 -4.78347 0
M  V30 9850 H 932.204 -3.79852 -5.29675 0
M  V30 9851 N 935.637 0.236453 -1.55816 0
M  V30 9852 C 936.569 1.31602 -1.87653 0
M  V30 9853 C 937.582 1.43782 -0.763584 0
M  V30 9854 O 938.771 1.44945 -1.04178 0
M  V30 9855 C 935.871 2.69342 -2.05689 0
M  V30 9856 C 935.044 2.79298 -3.36617 0
M  V30 9857 C 934.103 3.97952 -3.44268 0
M  V30 9858 O 933.129 3.86989 -4.17406 0
M  V30 9859 N 934.331 5.11594 -2.74321 0
M  V30 9860 H 937.096 1.04623 -2.80845 0
M  V30 9861 H 934.657 0.426534 -1.5618 0
M  V30 9862 H 936.649 3.47074 -2.08138 0
M  V30 9863 H 935.219 2.88984 -1.19192 0
M  V30 9864 H 934.439 1.8816 -3.46395 0
M  V30 9865 H 935.727 2.82908 -4.22895 0
M  V30 9866 H 935.125 5.23394 -2.14651 0
M  V30 9867 H 933.682 5.87422 -2.8245 0
M  V30 9868 N 937.115 1.49373 0.502552 0
M  V30 9869 C 938.526 1.52 1.0841 0
M  V30 9870 C 938.877 0.305317 1.9381 0
M  V30 9871 O 938.002 -0.585023 2.08342 0
M  V30 9872 C 938.597 2.75437 1.97281 0
M  V30 9873 C 937.156 2.80848 2.50602 0
M  V30 9874 C 936.303 2.45894 1.28186 0
M  V30 9875 H 939.254 1.56092 0.286533 0
M  V30 9876 H 939.275 2.55511 2.81947 0
M  V30 9877 H 938.787 3.63827 1.35098 0
M  V30 9878 H 936.888 1.96735 3.16427 0
M  V30 9879 H 937.001 3.82979 2.8786 0
M  V30 9880 H 935.365 1.97639 1.60657 0
M  V30 9881 H 936.148 3.36556 0.677139 0
M  V30 9882 O 938.632 -0.647824 1.47937 0
M  V30 9883 H 939.323 -1.30144 1.43465 0
M  V30 END ATOM
M  V30 BEGIN BOND
M  V30 END BOND
M  V30 END CTAB
M  END
$$$$
