drugbank_target|P40259 B-cell antigen receptor complex-associated protein beta chain (DB12240)
 OpenBabel12092121203D

  0  0  0     0  0            999 V3000
M  V30 BEGIN CTAB
M  V30 COUNTS 3643 3678 0 0 0
M  V30 BEGIN ATOM
M  V30 1 H -0.908 1.98254 -0.117106 0
M  V30 2 N 0 1.576 0 0
M  V30 3 C 0.933 2.03868 1.02534 0
M  V30 4 C 1.911 0.928543 1.3348 0
M  V30 5 O 3.095 1.19667 1.45644 0
M  V30 6 C 0.222 2.43627 2.35294 0
M  V30 7 C -0.732 3.65373 2.2001 0
M  V30 8 S 0.101 5.13292 1.52614 0
M  V30 9 C 1.257 5.56322 2.86805 0
M  V30 10 H 1.49 2.90518 0.631377 0
M  V30 11 H -0.977 1.52953 0.210867 0
M  V30 12 H 0.981 2.67203 3.11629 0
M  V30 13 H -0.358 1.57376 2.7183 0
M  V30 14 H -1.165 3.90944 3.18086 0
M  V30 15 H -1.563 3.418 1.51819 0
M  V30 16 H 0.729 5.58782 3.83104 0
M  V30 17 H 1.672 6.56266 2.65933 0
M  V30 18 H 2.08 4.83886 2.90714 0
M  V30 19 N 1.4781 -0.272755 1.55222 0
M  V30 20 C 2.4411 -1.32041 1.87344 0
M  V30 21 C 3.4411 -1.42342 0.74803 0
M  V30 22 O 4.6311 -1.41488 1.0162 0
M  V30 23 C 1.7631 -2.70173 2.07893 0
M  V30 24 H 2.9561 -1.04789 2.80997 0
M  V30 25 H 0.5091 -0.51083 1.47717 0
M  V30 26 H 1.2441 -3.02605 1.16622 0
M  V30 27 H 1.0291 -2.64082 2.89833 0
M  V30 28 H 2.5191 -3.45869 2.34017 0
M  V30 29 N 2.9562 -1.48159 -0.537278 0
M  V30 30 C 4.3722 -1.34118 -0.865129 0
M  V30 31 C 4.5722 -0.346678 -1.98495 0
M  V30 32 O 3.6282 0.234715 -2.51407 0
M  V30 33 C 4.9412 -2.73963 -1.23954 0
M  V30 34 C 6.4892 -2.82397 -1.34984 0
M  V30 35 C 6.9642 -4.22928 -1.75772 0
M  V30 36 N 8.4552 -4.25566 -1.82887 0
M  V30 37 C 9.1902 -5.31235 -2.15817 0
M  V30 38 N 8.6862 -6.47189 -2.47222 0
M  V30 39 N 10.4792 -5.18624 -2.16761 0
M  V30 40 H 2.6302 -2.1144 0.201715 0
M  V30 41 H 4.8932 -0.947598 0.0275949 0
M  V30 42 H 4.5992 -3.48264 -0.490381 0
M  V30 43 H 4.4732 -3.0702 -2.19132 0
M  V30 44 H 6.8602 -2.08356 -2.08978 0
M  V30 45 H 6.9412 -2.5297 -0.379448 0
M  V30 46 H 6.5852 -4.97482 -1.02341 0
M  V30 47 H 6.5152 -4.49794 -2.73848 0
M  V30 48 H 9.0062 -3.41924 -1.60924 0
M  V30 49 H 9.3192 -7.23564 -2.71433 0
M  V30 50 H 7.6642 -6.50476 -2.44757 0
M  V30 51 H 10.8552 -4.27056 -1.91679 0
M  V30 52 H 11.0282 -6.01078 -2.42093 0
M  V30 53 N 4.4343 0.785586 -1.36625 0
M  V30 54 C 5.3643 1.91259 -1.33949 0
M  V30 55 C 6.3453 1.68795 -0.210325 0
M  V30 56 O 7.5303 1.89854 -0.408561 0
M  V30 57 C 4.6603 3.28339 -1.13186 0
M  V30 58 C 3.6143 3.65335 -2.22967 0
M  V30 59 C 2.9403 5.00806 -1.87342 0
M  V30 60 C 4.2403 3.7352 -3.65075 0
M  V30 61 H 5.9343 1.93755 -2.28253 0
M  V30 62 H 3.4803 0.930788 -1.09874 0
M  V30 63 H 5.4333 4.06804 -1.09948 0
M  V30 64 H 4.1573 3.2624 -0.153332 0
M  V30 65 H 2.8163 2.89169 -2.25337 0
M  V30 66 H 2.4643 4.95233 -0.880545 0
M  V30 67 H 2.1643 5.26529 -2.60846 0
M  V30 68 H 3.6883 5.81687 -1.85667 0
M  V30 69 H 5.1023 4.42168 -3.64911 0
M  V30 70 H 3.4993 4.10731 -4.37516 0
M  V30 71 H 4.5693 2.74527 -3.99703 0
M  V30 72 N 5.9124 1.20967 1.01018 0
M  V30 73 C 6.8754 0.965918 2.07853 0
M  V30 74 C 7.8754 -0.0610545 1.60684 0
M  V30 75 O 9.0654 0.175681 1.73312 0
M  V30 76 C 6.1974 0.455513 3.37843 0
M  V30 77 H 7.3904 1.91365 2.3091 0
M  V30 78 H 4.9434 1.02594 1.17916 0
M  V30 79 H 5.6784 -0.497381 3.20463 0
M  V30 80 H 5.4634 1.19622 3.73407 0
M  V30 81 H 6.9534 0.304667 4.16487 0
M  V30 82 N 7.3905 -1.2043 1.01659 0
M  V30 83 C 8.3205 -2.25466 0.607226 0
M  V30 84 C 9.3015 -1.65853 -0.377716 0
M  V30 85 O 10.4865 -1.92409 -0.263149 0
M  V30 86 C 7.6165 -3.47256 -0.0552949 0
M  V30 87 C 6.5705 -4.19462 0.850632 0
M  V30 88 C 5.8965 -5.34673 0.0538859 0
M  V30 89 C 7.1965 -4.75603 2.15868 0
M  V30 90 H 8.8905 -2.59962 1.48526 0
M  V30 91 H 6.4365 -1.2496 0.715605 0
M  V30 92 H 8.3895 -4.19917 -0.353233 0
M  V30 93 H 7.1135 -3.11924 -0.968045 0
M  V30 94 H 5.7725 -3.48667 1.13257 0
M  V30 95 H 5.4205 -4.95585 -0.860514 0
M  V30 96 H 5.1205 -5.83913 0.657192 0
M  V30 97 H 6.6445 -6.10138 -0.237598 0
M  V30 98 H 8.0585 -5.40083 1.92311 0
M  V30 99 H 6.4555 -5.3528 2.71284 0
M  V30 100 H 7.5255 -3.94346 2.82169 0
M  V30 101 N 8.8686 -0.792821 -1.36206 0
M  V30 102 C 10.0936 -0.377701 -2.03932 0
M  V30 103 C 10.5186 0.998947 -1.59382 0
M  V30 104 O 9.8766 1.64421 -0.763903 0
M  V30 105 C 9.9246 -0.453635 -3.57735 0
M  V30 106 O 9.0286 0.538151 -4.08874 0
M  V30 107 H 8.3696 -0.159855 -0.644471 0
M  V30 108 H 10.8996 -1.07488 -1.7409 0
M  V30 109 H 10.9096 -0.318464 -4.06755 0
M  V30 110 H 9.5846 -1.45784 -3.89512 0
M  V30 111 H 8.1616 0.364359 -3.71116 0
M  V30 112 N 10.3467 1.47872 -0.545128 0
M  V30 113 C 11.7577 1.86384 -0.108581 0
M  V30 114 C 12.1087 1.45309 1.31832 0
M  V30 115 O 11.2337 0.850641 1.9898 0
M  V30 116 C 11.8287 3.38265 -0.190274 0
M  V30 117 C 10.3877 3.75914 0.191164 0
M  V30 118 C 9.5347 2.71926 -0.543273 0
M  V30 119 H 12.4857 1.39561 -0.755537 0
M  V30 120 H 12.5067 3.75831 0.594217 0
M  V30 121 H 12.0187 3.6813 -1.2289 0
M  V30 122 H 10.1197 3.51665 1.23136 0
M  V30 123 H 10.2327 4.78836 -0.158987 0
M  V30 124 H 8.5967 2.54697 0.0122495 0
M  V30 125 H 9.3797 3.04634 -1.58282 0
M  V30 126 N 11.8248 0.280983 1.55075 0
M  V30 127 C 13.0708 -0.33461 2.00021 0
M  V30 128 C 13.4038 -1.55063 1.16915 0
M  V30 129 O 12.6788 -1.93006 0.240646 0
M  V30 130 C 12.9618 -0.711007 3.53011 0
M  V30 131 C 12.8148 0.512766 4.46868 0
M  V30 132 C 14.1338 -1.54522 4.12081 0
M  V30 133 H 11.2528 -0.120147 0.727141 0
M  V30 134 H 13.8948 0.389097 1.85973 0
M  V30 135 H 12.0448 -1.32761 3.65112 0
M  V30 136 H 13.7168 1.15131 4.46702 0
M  V30 137 H 11.9598 1.14975 4.18286 0
M  V30 138 H 12.6308 0.205556 5.51617 0
M  V30 139 H 15.1068 -1.02442 4.03293 0
M  V30 140 H 13.9828 -1.77739 5.19327 0
M  V30 141 H 14.2438 -2.52813 3.62682 0
M  V30 142 N 13.3029 -1.57598 0.00835791 0
M  V30 143 C 14.7139 -1.7892 -0.53333 0
M  V30 144 C 15.0649 -0.916609 -1.73473 0
M  V30 145 O 14.1899 -0.121336 -2.1606 0
M  V30 146 C 14.7849 -3.24488 -0.974313 0
M  V30 147 C 13.3439 -3.46878 -1.46125 0
M  V30 148 C 12.4909 -2.74157 -0.416302 0
M  V30 149 H 15.4419 -1.56958 0.234495 0
M  V30 150 H 15.4629 -3.3306 -1.83988 0
M  V30 151 H 14.9749 -3.87972 -0.099718 0
M  V30 152 H 13.0759 -2.8862 -2.35646 0
M  V30 153 H 13.1889 -4.55572 -1.48295 0
M  V30 154 H 11.5529 -2.39022 -0.87981 0
M  V30 155 H 12.3359 -3.40345 0.44947 0
M  V30 156 N 14.781 0.264519 -1.55364 0
M  V30 157 C 16.006 1.01726 -1.80739 0
M  V30 158 C 16.431 1.78836 -0.583044 0
M  V30 159 O 15.789 1.75167 0.467566 0
M  V30 160 C 15.837 1.94482 -3.03659 0
M  V30 161 O 14.941 3.03386 -2.7934 0
M  V30 162 H 14.282 0.290395 -0.597132 0
M  V30 163 H 16.812 0.290854 -2.02522 0
M  V30 164 H 16.822 2.36278 -3.32621 0
M  V30 165 H 15.497 1.37772 -3.92418 0
M  V30 166 H 14.074 2.65844 -2.61498 0
M  V30 167 N 16.2591 1.48442 0.529413 0
M  V30 168 C 17.2091 1.59407 1.63014 0
M  V30 169 C 18.1931 0.451166 1.54445 0
M  V30 170 O 19.3851 0.702635 1.62456 0
M  V30 171 C 16.5141 1.63746 3.01732 0
M  V30 172 C 15.6001 2.83518 3.15402 0
M  V30 173 N 15.9911 4.07929 2.99045 0
M  V30 174 C 14.2891 2.80862 3.46457 0
M  V30 175 C 14.9901 4.8829 3.16146 0
M  V30 176 N 13.9661 4.21117 3.43746 0
M  V30 177 H 17.7681 2.53343 1.48978 0
M  V30 178 H 15.2821 1.44821 0.734885 0
M  V30 179 H 17.2791 1.69695 3.80801 0
M  V30 180 H 15.9391 0.709264 3.16859 0
M  V30 181 H 16.9501 4.38357 2.75796 0
M  V30 182 H 13.6271 1.97301 3.67938 0
M  V30 183 H 15.0171 5.97028 3.08232 0
M  V30 184 N 17.7372 -0.778329 1.37039 0
M  V30 185 C 18.9832 -1.53817 1.33086 0
M  V30 186 C 19.3382 -1.92208 -0.0860346 0
M  V30 187 O 18.6312 -1.60713 -1.04316 0
M  V30 188 C 18.8252 -2.81845 2.19768 0
M  V30 189 C 18.6542 -2.55967 3.69744 0
M  V30 190 C 17.4242 -2.50428 4.38878 0
M  V30 191 C 19.6222 -2.2441 4.62758 0
M  V30 192 N 17.6042 -2.16564 5.74433 0
M  V30 193 C 18.9752 -2.0063 5.86641 0
M  V30 194 C 21.0302 -2.1051 4.5121 0
M  V30 195 C 19.7332 -1.64354 7.00272 0
M  V30 196 C 21.7592 -1.75634 5.64718 0
M  V30 197 C 21.1212 -1.52709 6.87648 0
M  V30 198 H 17.2202 -0.563434 0.542279 0
M  V30 199 H 19.8042 -0.908617 1.72198 0
M  V30 200 H 17.9752 -3.42649 1.82883 0
M  V30 201 H 19.7072 -3.47682 2.07122 0
M  V30 202 H 16.4622 -2.66056 3.91805 0
M  V30 203 H 16.8862 -2.02348 6.46053 0
M  V30 204 H 21.5282 -2.26919 3.56746 0
M  V30 205 H 19.2462 -1.46683 7.94676 0
M  V30 206 H 22.8322 -1.65546 5.57751 0
M  V30 207 H 21.7122 -1.2612 7.73992 0
M  V30 208 N 19.2153 -1.21501 -1.00376 0
M  V30 209 C 20.1483 -0.918669 -2.08892 0
M  V30 210 C 21.1263 0.134277 -1.62045 0
M  V30 211 O 22.3103 0.00504255 -1.88499 0
M  V30 212 C 19.4373 -0.379645 -3.36566 0
M  V30 213 C 18.4833 -1.41559 -4.02323 0
M  V30 214 S 19.3163 -2.98521 -4.44574 0
M  V30 215 C 20.4723 -2.46228 -5.75433 0
M  V30 216 H 20.7053 -1.83761 -2.33707 0
M  V30 217 H 18.2383 -1.04489 -1.13673 0
M  V30 218 H 20.1963 -0.0752195 -4.10431 0
M  V30 219 H 18.8573 0.518008 -3.09799 0
M  V30 220 H 18.0503 -0.988076 -4.9422 0
M  V30 221 H 17.6523 -1.66815 -3.34737 0
M  V30 222 H 19.9443 -1.86791 -6.51241 0
M  V30 223 H 20.8873 -3.36572 -6.22997 0
M  V30 224 H 21.2953 -1.87894 -5.32312 0
M  V30 225 N 20.6934 1.19889 -1.02296 0
M  V30 226 C 21.9394 1.89701 -0.717033 0
M  V30 227 C 22.2724 1.7905 0.751989 0
M  V30 228 O 21.5474 1.17891 1.547 0
M  V30 229 C 21.8304 3.40858 -1.16136 0
M  V30 230 C 21.6834 3.60411 -2.69117 0
M  V30 231 C 23.0024 4.33876 -0.737549 0
M  V30 232 H 20.1214 0.688874 -0.261957 0
M  V30 233 H 22.7634 1.41154 -1.27183 0
M  V30 234 H 20.9134 3.82335 -0.689342 0
M  V30 235 H 22.5854 3.28145 -3.2422 0
M  V30 236 H 20.8284 3.03665 -3.0979 0
M  V30 237 H 21.4994 4.66396 -2.95261 0
M  V30 238 H 23.9754 4.00081 -1.14344 0
M  V30 239 H 22.8514 5.38242 -1.0764 0
M  V30 240 H 23.1124 4.40628 0.360436 0
M  V30 241 N 22.1715 0.800033 1.35784 0
M  V30 242 C 23.1345 0.211565 2.28221 0
M  V30 243 C 24.1345 -0.59728 1.49296 0
M  V30 244 O 25.3245 -0.416721 1.69142 0
M  V30 245 C 22.4565 -0.705846 3.33513 0
M  V30 246 H 23.6495 1.02677 2.81776 0
M  V30 247 H 21.2025 0.570211 1.45528 0
M  V30 248 H 21.9375 -1.54498 2.85133 0
M  V30 249 H 21.7225 -0.127655 3.91892 0
M  V30 250 H 23.2125 -1.11211 4.02519 0
M  V30 251 N 23.6496 -1.47581 0.552962 0
M  V30 252 C 24.5796 -2.32762 -0.185451 0
M  V30 253 C 25.5606 -1.43527 -0.912905 0
M  V30 254 O 26.7456 -1.72388 -0.894201 0
M  V30 255 C 23.8756 -3.25219 -1.21859 0
M  V30 256 C 22.8296 -4.23661 -0.607864 0
M  V30 257 C 22.1556 -5.05413 -1.74533 0
M  V30 258 C 23.4556 -5.20481 0.435582 0
M  V30 259 H 25.1496 -2.94749 0.525684 0
M  V30 260 H 22.6956 -1.41738 0.254251 0
M  V30 261 H 24.6486 -3.8365 -1.7433 0
M  V30 262 H 23.3726 -2.61279 -1.95961 0
M  V30 263 H 22.0316 -3.66451 -0.104489 0
M  V30 264 H 21.6796 -4.3788 -2.47529 0
M  V30 265 H 21.3796 -5.72059 -1.34249 0
M  V30 266 H 22.9036 -5.66701 -2.27338 0
M  V30 267 H 24.3176 -5.733 -0.00290157 0
M  V30 268 H 22.7146 -5.95305 0.757067 0
M  V30 269 H 23.7846 -4.66217 1.33303 0
M  V30 270 N 25.1277 -0.289203 -1.54924 0
M  V30 271 C 26.0577 0.58549 -2.2604 0
M  V30 272 C 27.0387 1.14753 -1.25562 0
M  V30 273 O 28.2237 1.17906 -1.54311 0
M  V30 274 C 25.3537 1.76305 -2.99222 0
M  V30 275 C 24.3077 1.33191 -4.06748 0
M  V30 276 C 23.6337 2.5937 -4.6758 0
M  V30 277 C 24.9337 0.471775 -5.20165 0
M  V30 278 H 26.6277 -0.00763532 -2.99399 0
M  V30 279 H 24.1737 -0.00511229 -1.43999 0
M  V30 280 H 26.1267 2.38097 -3.47689 0
M  V30 281 H 24.8507 2.38223 -2.23422 0
M  V30 282 H 23.5097 0.737121 -3.59113 0
M  V30 283 H 23.1577 3.19576 -3.88433 0
M  V30 284 H 22.8577 2.31228 -5.40192 0
M  V30 285 H 24.3817 3.21985 -5.18804 0
M  V30 286 H 25.7957 0.995056 -5.64599 0
M  V30 287 H 24.1927 0.284639 -5.99425 0
M  V30 288 H 25.2627 -0.506041 -4.82252 0
M  V30 289 N 26.6058 1.57591 -0.0167156 0
M  V30 290 C 27.5358 2.12496 0.967858 0
M  V30 291 C 28.5168 1.03807 1.34752 0
M  V30 292 O 29.7018 1.31577 1.42833 0
M  V30 293 C 26.8318 2.64194 2.25431 0
M  V30 294 C 25.7858 3.77559 2.01576 0
M  V30 295 C 25.1118 4.15636 3.36379 0
M  V30 296 C 26.4118 5.04151 1.36489 0
M  V30 297 H 28.1058 2.95013 0.510643 0
M  V30 298 H 25.6518 1.41915 0.244181 0
M  V30 299 H 27.6048 3.01236 2.94678 0
M  V30 300 H 26.3288 1.78821 2.73296 0
M  V30 301 H 24.9878 3.40937 1.34751 0
M  V30 302 H 24.6358 3.27263 3.81979 0
M  V30 303 H 24.3358 4.92022 3.21229 0
M  V30 304 H 25.8598 4.5525 4.06915 0
M  V30 305 H 27.2738 5.38857 1.95718 0
M  V30 306 H 25.6708 5.85453 1.31776 0
M  V30 307 H 26.7408 4.83733 0.336219 0
M  V30 308 N 28.0839 -0.256276 1.55502 0
M  V30 309 C 29.0139 -1.32102 1.92539 0
M  V30 310 C 29.9949 -1.50684 0.789194 0
M  V30 311 O 31.1799 -1.63449 1.04872 0
M  V30 312 C 28.3099 -2.67752 2.21192 0
M  V30 313 C 27.2639 -2.63878 3.36975 0
M  V30 314 C 26.5899 -4.03236 3.51147 0
M  V30 315 C 27.8899 -2.21682 4.72921 0
M  V30 316 H 29.5839 -1.01351 2.81724 0
M  V30 317 H 27.1299 -0.486105 1.35547 0
M  V30 318 H 29.0829 -3.42365 2.45691 0
M  V30 319 H 27.8069 -3.0012 1.28824 0
M  V30 320 H 26.4659 -1.91722 3.12471 0
M  V30 321 H 26.1139 -4.32854 2.56216 0
M  V30 322 H 25.8139 -4.01535 4.29003 0
M  V30 323 H 27.3379 -4.79563 3.77957 0
M  V30 324 H 28.7519 -2.86023 4.96854 0
M  V30 325 H 27.1489 -2.3111 5.53812 0
M  V30 326 H 28.2189 -1.16833 4.70615 0
M  V30 327 N 29.562 -1.4872 -0.521534 0
M  V30 328 C 30.492 -1.66771 -1.63431 0
M  V30 329 C 31.473 -0.516499 -1.62069 0
M  V30 330 O 32.658 -0.750013 -1.79132 0
M  V30 331 C 29.788 -1.71515 -3.01993 0
M  V30 332 C 28.742 -2.86222 -3.18216 0
M  V30 333 C 28.068 -2.76061 -4.57924 0
M  V30 334 C 29.368 -4.27419 -3.00184 0
M  V30 335 H 31.062 -2.59932 -1.48579 0
M  V30 336 H 28.608 -1.25089 -0.713358 0
M  V30 337 H 30.561 -1.82731 -3.7972 0
M  V30 338 H 29.285 -0.749393 -3.17886 0
M  V30 339 H 27.944 -2.74575 -2.42908 0
M  V30 340 H 27.592 -1.77437 -4.70665 0
M  V30 341 H 27.292 -3.53037 -4.69722 0
M  V30 342 H 28.816 -2.89256 -5.37739 0
M  V30 343 H 30.23 -4.39855 -3.67697 0
M  V30 344 H 28.627 -5.05458 -3.2347 0
M  V30 345 H 29.697 -4.43293 -1.96518 0
M  V30 346 N 31.0401 0.771051 -1.3745 0
M  V30 347 C 32.2651 1.56529 -1.36065 0
M  V30 348 C 32.6901 1.88029 0.0515859 0
M  V30 349 O 32.0481 1.49282 1.02882 0
M  V30 350 C 32.0961 2.85187 -2.20683 0
M  V30 351 O 31.2001 3.79593 -1.61193 0
M  V30 352 H 30.5411 0.47411 -0.464883 0
M  V30 353 H 33.0711 0.954269 -1.80983 0
M  V30 354 H 33.0811 3.34283 -2.33921 0
M  V30 355 H 31.7561 2.61588 -3.23334 0
M  V30 356 H 30.3331 3.38239 -1.56999 0
M  V30 357 N 32.5182 1.22032 0.997298 0
M  V30 358 C 33.4812 0.987909 2.06816 0
M  V30 359 C 34.4812 -0.0440084 1.6074 0
M  V30 360 O 35.6712 0.194053 1.73116 0
M  V30 361 C 32.8032 0.49132 3.37341 0
M  V30 362 H 33.9962 1.93803 2.28868 0
M  V30 363 H 31.5492 1.03838 1.16822 0
M  V30 364 H 32.2842 -0.463364 3.20973 0
M  V30 365 H 32.0692 1.23575 3.72118 0
M  V30 366 H 33.5592 0.348824 4.16141 0
M  V30 367 N 33.9963 -1.19345 1.0293 0
M  V30 368 C 34.9063 -2.26245 0.620515 0
M  V30 369 C 35.9223 -1.70486 -0.347928 0
M  V30 370 O 37.0983 -2.00347 -0.205704 0
M  V30 371 C 34.1633 -3.46693 -0.0218957 0
M  V30 372 C 33.2243 -4.17632 0.994102 0
M  V30 373 C 32.4573 -5.32329 0.382253 0
M  V30 374 O 32.6803 -5.64552 -0.814676 0
M  V30 375 O 31.6143 -5.91664 1.10531 0
M  V30 376 H 35.4403 -2.63453 1.51083 0
M  V30 377 H 33.0253 -1.26207 0.799513 0
M  V30 378 H 34.9073 -4.19683 -0.380072 0
M  V30 379 H 33.5823 -3.11333 -0.886209 0
M  V30 380 H 32.4893 -3.4676 1.40387 0
M  V30 381 H 33.8223 -4.56964 1.8288 0
M  V30 382 N 35.4744 -0.807222 -1.35358 0
M  V30 383 C 36.8854 -0.44876 -1.81226 0
M  V30 384 C 37.2364 1.02929 -1.67033 0
M  V30 385 O 36.3614 1.79991 -1.20133 0
M  V30 386 C 36.9564 -0.807774 -3.2903 0
M  V30 387 C 35.5154 -0.501901 -3.73039 0
M  V30 388 C 34.6624 -1.03304 -2.57339 0
M  V30 389 H 37.6134 -0.998808 -1.23327 0
M  V30 390 H 37.6344 -0.10554 -3.80354 0
M  V30 391 H 37.1464 -1.88357 -3.39328 0
M  V30 392 H 35.2474 0.565128 -3.68289 0
M  V30 393 H 35.3604 -1.03497 -4.67787 0
M  V30 394 H 33.7244 -0.455339 -2.50597 0
M  V30 395 H 34.5074 -2.11496 -2.70415 0
M  V30 396 N 36.9525 1.47285 -0.560781 0
M  V30 397 C 38.1985 2.02764 -0.0381184 0
M  V30 398 C 38.5315 1.43384 1.30976 0
M  V30 399 O 37.8065 0.590733 1.85312 0
M  V30 400 C 38.0895 3.60064 0.0511427 0
M  V30 401 C 37.9425 4.2987 -1.32408 0
M  V30 402 C 39.2615 4.33439 0.762795 0
M  V30 403 H 36.3805 0.736841 -0.0153264 0
M  V30 404 H 39.0225 1.75675 -0.723759 0
M  V30 405 H 37.1725 3.83274 0.635065 0
M  V30 406 H 38.8445 4.17989 -1.95148 0
M  V30 407 H 37.0875 3.90085 -1.8978 0
M  V30 408 H 37.7585 5.38478 -1.21431 0
M  V30 409 H 40.2345 4.15243 0.266965 0
M  V30 410 H 39.1105 5.43124 0.794221 0
M  V30 411 H 39.3715 4.02915 1.81966 0
M  V30 412 N 38.4306 0.297415 1.54768 0
M  V30 413 C 39.8416 -0.195947 1.85669 0
M  V30 414 C 40.1926 -1.53707 1.21937 0
M  V30 415 O 39.3176 -2.10164 0.515754 0
M  V30 416 C 39.9126 -0.362318 3.36857 0
M  V30 417 C 38.4716 -0.799901 3.67802 0
M  V30 418 C 37.6186 0.0938578 2.77141 0
M  V30 419 H 40.5696 0.518538 1.4999 0
M  V30 420 H 40.5906 -1.19745 3.61167 0
M  V30 421 H 40.1026 0.613921 3.83214 0
M  V30 422 H 38.2036 -1.78682 3.26961 0
M  V30 423 H 38.3166 -0.621773 4.75048 0
M  V30 424 H 36.6806 -0.426254 2.51108 0
M  V30 425 H 37.4636 1.06639 3.26318 0
M  V30 426 N 39.9087 -1.5758 0.0250728 0
M  V30 427 C 40.8717 -2.08896 -0.943139 0
M  V30 428 C 41.8717 -1.00321 -1.25668 0
M  V30 429 O 43.0617 -1.26495 -1.19769 0
M  V30 430 C 40.1937 -2.55143 -2.26086 0
M  V30 431 H 41.3867 -2.95723 -0.498775 0
M  V30 432 H 38.9397 -1.54703 -0.222888 0
M  V30 433 H 39.6747 -1.71633 -2.75159 0
M  V30 434 H 39.4597 -3.34461 -2.04641 0
M  V30 435 H 40.9497 -2.95083 -2.95492 0
M  V30 436 N 41.3868 0.248026 -1.55636 0
M  V30 437 C 42.3498 1.29044 -1.89421 0
M  V30 438 C 43.3498 1.41134 -0.770581 0
M  V30 439 O 44.5398 1.39854 -1.03858 0
M  V30 440 C 41.6718 2.66831 -2.12165 0
M  V30 441 H 42.8648 1.00305 -2.82629 0
M  V30 442 H 40.4178 0.487265 -1.48511 0
M  V30 443 H 41.1528 3.00711 -1.21422 0
M  V30 444 H 40.9378 2.59438 -2.93997 0
M  V30 445 H 42.4278 3.42103 -2.3949 0
M  V30 446 N 42.8649 1.48995 0.513639 0
M  V30 447 C 44.2809 1.35478 0.843682 0
M  V30 448 C 44.4809 0.378213 1.97919 0
M  V30 449 O 43.5369 -0.194689 2.51748 0
M  V30 450 C 44.8499 2.75901 1.1958 0
M  V30 451 C 46.3979 2.84509 1.30474 0
M  V30 452 C 46.8729 4.25671 1.69021 0
M  V30 453 N 48.3639 4.28422 1.76094 0
M  V30 454 C 49.0989 5.34601 2.07338 0
M  V30 455 N 48.5949 6.5104 2.36894 0
M  V30 456 N 50.3879 5.22007 2.08483 0
M  V30 457 H 42.5389 2.11092 -0.235328 0
M  V30 458 H 44.8019 0.947039 -0.0426669 0
M  V30 459 H 44.5079 3.49001 0.434913 0
M  V30 460 H 44.3819 3.10467 2.1422 0
M  V30 461 H 46.7689 2.11655 2.05637 0
M  V30 462 H 46.8499 2.53542 0.339155 0
M  V30 463 H 46.4939 4.99048 0.944135 0
M  V30 464 H 46.4239 4.54094 2.66658 0
M  V30 465 H 48.9149 3.44441 1.55464 0
M  V30 466 H 49.2279 7.2779 2.59887 0
M  V30 467 H 47.5729 6.54287 2.34378 0
M  V30 468 H 50.7639 4.30051 1.84861 0
M  V30 469 H 50.9369 6.04854 2.325 0
M  V30 470 N 44.343 -0.763751 1.37857 0
M  V30 471 C 45.568 -1.55805 1.36893 0
M  V30 472 C 45.993 -1.88054 -0.0416135 0
M  V30 473 O 45.351 -1.49825 -1.02089 0
M  V30 474 C 45.399 -2.84012 2.22192 0
M  V30 475 O 44.503 -3.78732 1.63204 0
M  V30 476 H 43.844 -0.471638 0.46739 0
M  V30 477 H 46.374 -0.944657 1.81487 0
M  V30 478 H 46.384 -3.33037 2.35691 0
M  V30 479 H 45.059 -2.59869 3.24716 0
M  V30 480 H 43.636 -3.37402 1.58791 0
M  V30 481 N 45.8211 -1.22559 -0.990812 0
M  V30 482 C 46.7311 -1.01394 -2.11557 0
M  V30 483 C 47.7471 0.0383962 -1.73958 0
M  V30 484 O 48.9231 -0.154787 -2.00804 0
M  V30 485 C 45.9881 -0.596569 -3.41529 0
M  V30 486 C 45.0491 -1.72276 -3.93217 0
M  V30 487 C 44.2821 -1.32521 -5.16985 0
M  V30 488 O 44.5051 -0.204909 -5.70032 0
M  V30 489 O 43.4391 -2.14247 -5.62478 0
M  V30 490 H 47.2651 -1.95633 -2.32296 0
M  V30 491 H 44.8501 -1.01172 -1.0993 0
M  V30 492 H 46.7321 -0.374263 -4.19735 0
M  V30 493 H 45.4071 0.316939 -3.22145 0
M  V30 494 H 44.3141 -1.99961 -3.16174 0
M  V30 495 H 45.6471 -2.61421 -4.17037 0
M  V30 496 N 47.2992 1.18797 -1.03562 0
M  V30 497 C 48.5762 1.84469 -0.650434 0
M  V30 498 C 48.9562 1.92319 0.870433 0
M  V30 499 O 48.3042 1.44528 1.76986 0
M  V30 500 C 48.5142 3.2306 -1.32036 0
M  V30 501 C 49.8622 3.9915 -1.44792 0
M  V30 502 O 50.8862 3.32481 -1.27806 0
M  V30 503 O 49.7452 5.18587 -1.72423 0
M  V30 504 H 46.8392 0.795251 -0.226946 0
M  V30 505 H 49.3852 1.26231 -1.13419 0
M  V30 506 H 48.1572 3.1222 -2.3587 0
M  V30 507 H 47.7802 3.88949 -0.8249 0
M  V30 508 N 48.7773 0.814389 1.34928 0
M  V30 509 C 50.1933 0.499084 1.51596 0
M  V30 510 C 50.3933 -0.978319 1.76157 0
M  V30 511 O 49.4493 -1.76309 1.80752 0
M  V30 512 C 50.7623 1.35121 2.68631 0
M  V30 513 C 52.3103 1.34746 2.82511 0
M  V30 514 C 52.7853 2.18388 4.0258 0
M  V30 515 N 54.2763 2.15966 4.09772 0
M  V30 516 C 55.0113 2.77437 5.01813 0
M  V30 517 N 54.5073 3.47866 5.99134 0
M  V30 518 N 56.3003 2.67037 4.94619 0
M  V30 519 H 48.4513 1.7711 1.17243 0
M  V30 520 H 50.7143 0.754256 0.574284 0
M  V30 521 H 50.4203 2.40001 2.57085 0
M  V30 522 H 50.2943 1.00991 3.63429 0
M  V30 523 H 52.6813 0.30648 2.93504 0
M  V30 524 H 52.7623 1.72869 1.88547 0
M  V30 525 H 52.4063 3.2253 3.92347 0
M  V30 526 H 52.3363 1.77621 4.9574 0
M  V30 527 H 54.8273 1.64729 3.40107 0
M  V30 528 H 55.1403 3.92038 6.65977 0
M  V30 529 H 53.4853 3.51972 5.99284 0
M  V30 530 H 56.6763 2.11597 4.17546 0
M  V30 531 H 56.8493 3.15232 5.66156 0
M  V30 532 N 50.2554 -1.46986 0.568584 0
M  V30 533 C 51.4854 -2.0653 0.0539173 0
M  V30 534 C 51.8934 -1.42004 -1.25026 0
M  V30 535 O 51.2364 -0.514541 -1.76347 0
M  V30 536 C 51.2984 -3.58938 -0.200854 0
M  V30 537 C 50.9624 -4.45572 1.01559 0
M  V30 538 C 51.9594 -4.82986 1.92407 0
M  V30 539 C 49.6444 -4.8692 1.23346 0
M  V30 540 C 51.6384 -5.60559 3.03402 0
M  V30 541 C 49.3254 -5.64255 2.34649 0
M  V30 542 C 50.3234 -6.00986 3.24507 0
M  V30 543 O 50.0114 -6.76761 4.33878 0
M  V30 544 H 49.7434 -0.674292 0.0480234 0
M  V30 545 H 52.2974 -1.89812 0.784896 0
M  V30 546 H 50.5274 -3.73911 -0.986279 0
M  V30 547 H 52.2164 -4.0046 -0.662294 0
M  V30 548 H 52.9824 -4.51633 1.76785 0
M  V30 549 H 48.8614 -4.57789 0.543178 0
M  V30 550 H 52.4054 -5.89147 3.73565 0
M  V30 551 H 48.3024 -5.95021 2.5024 0
M  V30 552 H 49.0704 -6.95168 4.32068 0
M  V30 553 N 51.7335 -0.305618 -1.54608 0
M  V30 554 C 53.1495 0.0476228 -1.59529 0
M  V30 555 C 53.3495 1.52025 -1.32252 0
M  V30 556 O 52.4055 2.27368 -1.09818 0
M  V30 557 C 53.7185 -0.354471 -2.98603 0
M  V30 558 C 55.2665 -0.303622 -3.11524 0
M  V30 559 C 55.7415 -0.680608 -4.52915 0
M  V30 560 N 57.2325 -0.63332 -4.5885 0
M  V30 561 C 57.9675 -0.897432 -5.66334 0
M  V30 562 N 57.4635 -1.22775 -6.81834 0
M  V30 563 N 59.2565 -0.824186 -5.56025 0
M  V30 564 H 51.4075 -1.2653 -1.70599 0
M  V30 565 H 53.6705 -0.513291 -0.797017 0
M  V30 566 H 53.3765 -1.3798 -3.23503 0
M  V30 567 H 53.2505 0.289568 -3.76087 0
M  V30 568 H 55.6375 0.712472 -2.8637 0
M  V30 569 H 55.7185 -0.982348 -2.36185 0
M  V30 570 H 55.3625 -1.69453 -4.78799 0
M  V30 571 H 55.2925 0.0202385 -5.26596 0
M  V30 572 H 57.7835 -0.389138 -3.75891 0
M  V30 573 H 58.0965 -1.41513 -7.59733 0
M  V30 574 H 56.4415 -1.26583 -6.83375 0
M  V30 575 H 59.6325 -0.565748 -4.64669 0
M  V30 576 H 59.8055 -1.03338 -6.39707 0
M  V30 577 N 53.2116 1.57565 -0.0334293 0
M  V30 578 C 54.1596 2.1164 0.96496 0
M  V30 579 C 55.1536 1.04398 1.33407 0
M  V30 580 O 56.3596 1.22828 1.3158 0
M  V30 581 H 52.7346 0.676222 0.32898 0
M  V30 582 H 54.7056 2.94455 0.483614 0
M  V30 583 C 53.4546 2.66207 2.23672 0
M  V30 584 H 52.7776 3.48378 1.96145 0
M  V30 585 H 54.2176 3.07685 2.9173 0
M  V30 586 C 52.6766 1.59151 2.96939 0
M  V30 587 O 53.2066 0.993858 3.89211 0
M  V30 588 N 51.4126 1.31093 2.59351 0
M  V30 589 H 50.9596 1.7988 1.84393 0
M  V30 590 H 50.9176 0.596889 3.08682 0
M  V30 591 N 54.6897 -0.239769 1.55765 0
M  V30 592 C 56.1007 -0.808263 1.68297 0
M  V30 593 C 56.4517 -1.85736 0.632181 0
M  V30 594 O 55.5767 -2.15277 -0.220204 0
M  V30 595 C 56.1717 -1.47284 3.05111 0
M  V30 596 C 54.7307 -1.98895 3.19559 0
M  V30 597 C 53.8777 -0.842575 2.64189 0
M  V30 598 H 56.8287 -0.0154422 1.58692 0
M  V30 599 H 56.8497 -2.34111 2.99954 0
M  V30 600 H 56.3617 -0.709053 3.81568 0
M  V30 601 H 54.4627 -2.78132 2.47938 0
M  V30 602 H 54.5757 -2.18143 4.26556 0
M  V30 603 H 52.9397 -1.24501 2.22197 0
M  V30 604 H 53.7227 -0.0917552 3.43177 0
M  V30 605 N 56.1678 -1.49265 -0.50573 0
M  V30 606 C 57.1148 -1.65585 -1.6078 0
M  V30 607 C 58.0848 -0.497396 -1.58478 0
M  V30 608 O 59.2698 -0.72385 -1.76536 0
M  V30 609 C 56.4098 -1.72408 -2.98948 0
M  V30 610 C 55.5228 -2.99525 -3.11301 0
M  V30 611 C 54.6578 -2.97356 -4.40174 0
M  V30 612 C 53.6968 -4.19074 -4.46143 0
M  V30 613 N 52.8338 -4.14841 -5.66437 0
M  V30 614 H 57.6738 -2.59688 -1.46172 0
M  V30 615 H 55.2108 -1.28761 -0.711261 0
M  V30 616 H 57.1688 -1.74344 -3.79025 0
M  V30 617 H 55.7988 -0.817753 -3.1227 0
M  V30 618 H 54.8508 -3.07222 -2.24318 0
M  V30 619 H 56.1628 -3.89518 -3.11572 0
M  V30 620 H 55.3168 -2.97829 -5.28567 0
M  V30 621 H 54.0558 -2.05133 -4.42461 0
M  V30 622 H 53.0608 -4.1885 -3.56153 0
M  V30 623 H 54.2858 -5.12483 -4.45575 0
M  V30 624 H 52.2318 -3.25453 -5.69575 0
M  V30 625 H 52.1488 -4.98564 -5.68304 0
M  V30 626 H 53.4168 -4.1941 -6.57051 0
M  V30 627 N 57.6459 0.756429 -1.3826 0
M  V30 628 C 58.8939 1.51248 -1.34047 0
M  V30 629 C 59.2149 1.94875 0.0698372 0
M  V30 630 O 58.4849 1.67436 1.01696 0
M  V30 631 H 57.0649 0.561018 -0.493222 0
M  V30 632 H 59.7269 0.899347 -1.7291 0
M  V30 633 H 58.8229 2.40472 -1.98947 0
M  V30 634 N 59.124 1.23083 0.984299 0
M  V30 635 C 60.349 1.088 1.76571 0
M  V30 636 C 60.774 -0.356657 1.84688 0
M  V30 637 O 60.132 -1.25788 1.30565 0
M  V30 638 C 60.18 1.71371 3.17277 0
M  V30 639 O 59.284 0.973213 4.00752 0
M  V30 640 H 58.625 0.381599 0.543395 0
M  V30 641 H 61.155 1.63057 1.23587 0
M  V30 642 H 61.165 1.76449 3.67872 0
M  V30 643 H 59.84 2.76493 3.10684 0
M  V30 644 H 58.417 0.999078 3.59267 0
M  V30 645 N 60.6021 -1.18246 1.0419 0
M  V30 646 C 61.5651 -2.20128 0.638452 0
M  V30 647 C 62.5651 -1.57885 -0.304805 0
M  V30 648 O 63.7551 -1.73967 -0.0900369 0
M  V30 649 C 60.8871 -3.4084 -0.0637751 0
M  V30 650 H 62.0801 -2.57336 1.54007 0
M  V30 651 H 59.6331 -1.32152 0.834598 0
M  V30 652 H 60.3681 -3.09166 -0.979136 0
M  V30 653 H 60.1531 -3.8726 0.614198 0
M  V30 654 H 61.6431 -4.16274 -0.332512 0
M  V30 655 N 62.0802 -0.821533 -1.34494 0
M  V30 656 C 63.3202 -0.414785 -2.00147 0
M  V30 657 C 63.6842 1.00299 -1.6372 0
M  V30 658 O 64.8852 1.51255 -2.22206 0
M  V30 659 C 63.1562 -0.609403 -3.52166 0
M  V30 660 S 64.7152 -0.295297 -4.37805 0
M  V30 661 H 61.5332 -0.15679 -0.693497 0
M  V30 662 H 64.1352 -1.06705 -1.63812 0
M  V30 663 H 62.8392 -1.64096 -3.76166 0
M  V30 664 H 62.3702 0.0576414 -3.93358 0
M  V30 665 H 64.3852 0.891531 -4.88125 0
M  V30 666 N 63.5583 1.46682 -0.576371 0
M  V30 667 C 64.7833 2.07304 -0.0630475 0
M  V30 668 C 65.2083 1.42329 1.2298 0
M  V30 669 O 64.5663 0.504865 1.74129 0
M  V30 670 C 64.6143 3.60472 0.095895 0
M  V30 671 O 63.7183 3.95927 1.15394 0
M  V30 672 H 63.0593 0.661288 -0.0599463 0
M  V30 673 H 65.5893 1.88417 -0.797511 0
M  V30 674 H 65.5993 4.06865 0.304071 0
M  V30 675 H 64.2743 4.07157 -0.84828 0
M  V30 676 H 62.8513 3.61252 0.924724 0
M  V30 677 N 65.0364 0.313813 1.54444 0
M  V30 678 C 66.4524 -0.0391619 1.59552 0
M  V30 679 C 66.6524 -1.51322 1.33056 0
M  V30 680 O 65.7084 -2.26782 1.11022 0
M  V30 681 C 67.0214 0.370302 2.98411 0
M  V30 682 C 68.5694 0.320139 3.11358 0
M  V30 683 C 69.0444 0.704617 4.52547 0
M  V30 684 N 70.5354 0.657645 4.58508 0
M  V30 685 C 71.2704 0.927453 5.6585 0
M  V30 686 N 70.7664 1.26389 6.81174 0
M  V30 687 N 72.5594 0.853662 5.5558 0
M  V30 688 H 64.7104 1.27433 1.69925 0
M  V30 689 H 66.9734 0.517511 0.794284 0
M  V30 690 H 66.6794 1.39694 3.22767 0
M  V30 691 H 66.5534 -0.269619 3.76235 0
M  V30 692 H 68.9404 -0.697275 2.86744 0
M  V30 693 H 69.0214 0.99486 2.35661 0
M  V30 694 H 68.6654 1.7199 4.77893 0
M  V30 695 H 68.5954 0.00768843 5.26599 0
M  V30 696 H 71.0864 0.409067 3.75679 0
M  V30 697 H 71.3994 1.4554 7.58972 0
M  V30 698 H 69.7444 1.30206 6.82694 0
M  V30 699 H 72.9354 0.590383 4.64362 0
M  V30 700 H 73.1084 1.0673 6.3915 0
M  V30 701 N 66.5145 -1.57545 0.0417849 0
M  V30 702 C 67.7635 -1.91494 -0.633492 0
M  V30 703 C 68.0765 -0.921084 -1.72556 0
M  V30 704 O 69.2825 -1.15228 -2.45835 0
M  V30 705 C 67.7385 -3.40072 -1.17808 0
M  V30 706 C 67.3465 -4.47843 -0.118633 0
M  V30 707 C 69.0905 -3.8307 -1.82915 0
M  V30 708 C 66.9975 -5.87529 -0.675578 0
M  V30 709 H 65.9275 -0.714653 -0.24039 0
M  V30 710 H 68.5785 -1.83175 0.109148 0
M  V30 711 H 66.9605 -3.43364 -1.97274 0
M  V30 712 H 68.1345 -4.56128 0.654494 0
M  V30 713 H 66.4495 -4.14128 0.434414 0
M  V30 714 H 69.0465 -4.84794 -2.25563 0
M  V30 715 H 69.3895 -3.1881 -2.67705 0
M  V30 716 H 69.9225 -3.82255 -1.10119 0
M  V30 717 H 66.6615 -6.55362 0.134475 0
M  V30 718 H 66.1815 -5.82824 -1.4169 0
M  V30 719 H 67.8605 -6.36491 -1.1614 0
M  V30 720 N 67.9926 0.231505 -1.5589 0
M  V30 721 C 69.2386 0.954429 -1.79617 0
M  V30 722 C 69.5936 1.82367 -0.613199 0
M  V30 723 O 68.8866 1.87524 0.393094 0
M  V30 724 C 69.0806 1.83577 -3.0665 0
M  V30 725 C 68.9096 1.05334 -4.3719 0
M  V30 726 C 67.6796 0.75225 -4.99669 0
M  V30 727 C 69.8776 0.423444 -5.12554 0
M  V30 728 N 67.8596 -0.052627 -6.13877 0
M  V30 729 C 69.2306 -0.245287 -6.19515 0
M  V30 730 C 71.2856 0.335466 -4.96769 0
M  V30 731 C 69.9886 -0.993566 -7.12405 0
M  V30 732 C 72.0146 -0.399321 -5.9005 0
M  V30 733 C 71.3766 -1.05663 -6.9643 0
M  V30 734 H 67.4756 0.329846 -0.709031 0
M  V30 735 H 70.0596 0.226172 -1.93382 0
M  V30 736 H 68.2306 2.53592 -2.94186 0
M  V30 737 H 69.9626 2.49541 -3.18608 0
M  V30 738 H 66.7176 1.06783 -4.61405 0
M  V30 739 H 67.1416 -0.443609 -6.75545 0
M  V30 740 H 71.7836 0.829311 -4.14587 0
M  V30 741 H 69.5016 -1.49896 -7.94076 0
M  V30 742 H 73.0876 -0.468265 -5.79913 0
M  V30 743 H 71.9676 -1.61612 -7.67366 0
M  V30 744 N 69.4707 1.49531 0.497807 0
M  V30 745 C 70.4027 1.62559 1.61578 0
M  V30 746 C 71.4157 0.508134 1.54667 0
M  V30 747 O 72.6047 0.780309 1.60541 0
M  V30 748 C 69.7047 1.56925 3.00379 0
M  V30 749 C 68.8777 2.84257 3.3244 0
M  V30 750 C 67.9367 2.71632 4.50669 0
M  V30 751 O 66.9627 3.4557 4.52294 0
M  V30 752 N 68.1647 1.83391 5.5077 0
M  V30 753 H 70.9297 2.58981 1.50828 0
M  V30 754 H 68.4907 1.4666 0.685743 0
M  V30 755 H 70.4827 1.46129 3.77397 0
M  V30 756 H 69.0527 0.683483 3.05037 0
M  V30 757 H 68.2727 3.09381 2.44289 0
M  V30 758 H 69.5607 3.68666 3.5066 0
M  V30 759 H 68.9587 1.22583 5.52259 0
M  V30 760 H 67.5157 1.78515 6.26878 0
M  V30 761 N 70.9488 -0.749086 1.3866 0
M  V30 762 C 72.1738 -1.54344 1.38538 0
M  V30 763 C 72.5988 -1.88088 -0.0216655 0
M  V30 764 O 71.9568 -1.50899 -1.00494 0
M  V30 765 C 72.0048 -2.8164 2.25192 0
M  V30 766 O 71.1088 -3.7698 1.67212 0
M  V30 767 H 70.4498 -0.466654 0.472367 0
M  V30 768 H 72.9798 -0.925355 1.82478 0
M  V30 769 H 72.9898 -3.30519 2.3921 0
M  V30 770 H 71.6648 -2.56411 3.27454 0
M  V30 771 H 70.2418 -3.35699 1.6236 0
M  V30 772 N 72.4269 -1.23603 -0.977757 0
M  V30 773 C 73.8379 -1.06424 -1.53398 0
M  V30 774 C 74.1889 0.367578 -1.92726 0
M  V30 775 O 73.3139 1.25465 -1.76316 0
M  V30 776 C 73.9089 -1.92568 -2.78753 0
M  V30 777 C 72.4679 -1.79642 -3.30765 0
M  V30 778 C 71.6149 -1.88111 -2.03739 0
M  V30 779 H 74.5659 -1.37227 -0.797152 0
M  V30 780 H 74.5869 -1.45203 -3.51705 0
M  V30 781 H 74.0989 -2.96771 -2.50098 0
M  V30 782 H 72.1999 -0.782325 -3.64294 0
M  V30 783 H 72.3129 -2.63174 -4.00345 0
M  V30 784 H 70.6769 -1.31723 -2.17994 0
M  V30 785 H 71.4599 -2.93875 -1.77461 0
M  V30 786 N 73.905 1.17692 -1.04816 0
M  V30 787 C 75.321 1.39863 -0.768794 0
M  V30 788 C 75.521 1.91118 0.638451 0
M  V30 789 O 74.577 2.10036 1.40146 0
M  V30 790 C 75.89 2.39274 -1.82122 0
M  V30 791 C 77.438 2.52987 -1.843 0
M  V30 792 C 77.913 3.55669 -2.88555 0
M  V30 793 N 79.404 3.63183 -2.87493 0
M  V30 794 C 80.139 4.42381 -3.64811 0
M  V30 795 N 79.635 5.25125 -4.51903 0
M  V30 796 N 81.428 4.37217 -3.53267 0
M  V30 797 H 73.579 0.82752 -1.95617 0
M  V30 798 H 75.842 0.426123 -0.846831 0
M  V30 799 H 75.548 2.08678 -2.83102 0
M  V30 800 H 75.422 3.38725 -1.65967 0
M  V30 801 H 77.809 2.82896 -0.839869 0
M  V30 802 H 77.89 1.53623 -2.04532 0
M  V30 803 H 77.534 3.26499 -3.89051 0
M  V30 804 H 77.464 4.54728 -2.65575 0
M  V30 805 H 79.955 3.04103 -2.24343 0
M  V30 806 H 80.268 5.82728 -5.07591 0
M  V30 807 H 78.613 5.24519 -4.55966 0
M  V30 808 H 81.804 3.71626 -2.84625 0
M  V30 809 H 81.977 4.98696 -4.13771 0
M  V30 810 N 75.3831 0.828654 1.34056 0
M  V30 811 C 76.6301 0.419458 1.98108 0
M  V30 812 C 76.9581 -1.01886 1.65679 0
M  V30 813 O 76.2131 -1.72539 0.923512 0
M  V30 814 C 76.5121 0.575226 3.52741 0
M  V30 815 C 76.1781 1.98012 4.05095 0
M  V30 816 C 74.8401 2.36442 4.19104 0
M  V30 817 C 77.1921 2.89824 4.33188 0
M  V30 818 C 74.5201 3.66009 4.58535 0
M  V30 819 C 76.8721 4.1886 4.74066 0
M  V30 820 C 75.5361 4.5726 4.86281 0
M  V30 821 H 74.8061 0.153491 0.724929 0
M  V30 822 H 77.4531 1.05371 1.59904 0
M  V30 823 H 75.7581 -0.142385 3.91541 0
M  V30 824 H 77.4551 0.239057 4.00287 0
M  V30 825 H 74.0451 1.67162 3.94658 0
M  V30 826 H 78.2291 2.61375 4.21897 0
M  V30 827 H 73.4851 3.95579 4.66184 0
M  V30 828 H 77.6591 4.90086 4.94761 0
M  V30 829 H 75.2861 5.57707 5.16592 0
M  V30 830 N 76.8612 -1.46375 0.584142 0
M  V30 831 C 78.1102 -2.01585 0.0679741 0
M  V30 832 C 78.4232 -1.46109 -1.30045 0
M  V30 833 O 79.6292 -1.93148 -1.90804 0
M  V30 834 C 78.0852 -3.5983 0.0709207 0
M  V30 835 C 77.6932 -4.24303 1.43775 0
M  V30 836 C 79.4372 -4.22693 -0.391228 0
M  V30 837 C 77.3442 -5.74631 1.39834 0
M  V30 838 H 76.2742 -0.753689 0.0216421 0
M  V30 839 H 78.9252 -1.68093 0.736001 0
M  V30 840 H 77.3072 -3.90405 -0.663299 0
M  V30 841 H 78.4812 -4.05335 2.19181 0
M  V30 842 H 76.7962 -3.73539 1.84004 0
M  V30 843 H 79.3932 -5.3289 -0.439524 0
M  V30 844 H 79.7362 -3.91728 -1.40906 0
M  V30 845 H 80.2692 -3.96749 0.288974 0
M  V30 846 H 77.0082 -6.10258 2.39303 0
M  V30 847 H 76.5282 -5.95858 0.686505 0
M  V30 848 H 78.2072 -6.37375 1.11187 0
M  V30 849 N 78.3393 -0.321999 -1.54275 0
M  V30 850 C 79.3023 0.531975 -2.22941 0
M  V30 851 C 80.3023 1.04478 -1.22234 0
M  V30 852 O 81.4923 0.937452 -1.46825 0
M  V30 853 C 78.6243 1.73874 -2.93224 0
M  V30 854 H 79.8173 -0.0682612 -2.99822 0
M  V30 855 H 77.3703 -0.0730644 -1.56129 0
M  V30 856 H 78.1053 2.37825 -2.20476 0
M  V30 857 H 77.8903 1.37847 -3.6707 0
M  V30 858 H 79.3803 2.34496 -3.45545 0
M  V30 859 N 79.8174 1.5752 -0.0501392 0
M  V30 860 C 81.2334 1.56631 0.306402 0
M  V30 861 C 81.4334 1.0577 1.71508 0
M  V30 862 O 80.4894 0.713837 2.422 0
M  V30 863 C 81.8024 3.00393 0.135811 0
M  V30 864 C 83.3504 3.12315 0.206993 0
M  V30 865 C 83.8254 4.57954 0.064944 0
M  V30 866 N 85.3164 4.63041 0.121254 0
M  V30 867 C 86.0514 5.73389 0.0354381 0
M  V30 868 N 85.5474 6.92724 -0.102666 0
M  V30 869 N 87.3404 5.62026 0.090946 0
M  V30 870 H 79.4914 1.88903 -0.971046 0
M  V30 871 H 81.7544 0.869876 -0.376855 0
M  V30 872 H 81.4604 3.41635 -0.835384 0
M  V30 873 H 81.3344 3.66373 0.897275 0
M  V30 874 H 83.7214 2.70973 1.16866 0
M  V30 875 H 83.8024 2.49016 -0.585208 0
M  V30 876 H 83.4464 4.99981 -0.893394 0
M  V30 877 H 83.3764 5.19258 0.876277 0
M  V30 878 H 85.8674 3.77216 0.227284 0
M  V30 879 H 86.1804 7.72633 -0.160882 0
M  V30 880 H 84.5254 6.94864 -0.137737 0
M  V30 881 H 87.7164 4.67684 0.197388 0
M  V30 882 H 87.8894 6.47997 0.0206089 0
M  V30 883 N 81.2955 -0.223234 1.56011 0
M  V30 884 C 82.2425 -1.27664 1.92277 0
M  V30 885 C 83.2125 -1.46659 0.779763 0
M  V30 886 O 84.3975 -1.60256 1.03551 0
M  V30 887 C 81.5375 -2.62234 2.24338 0
M  V30 888 C 80.6505 -2.51051 3.51564 0
M  V30 889 C 79.7855 -3.78133 3.7308 0
M  V30 890 C 78.8245 -3.61665 4.93827 0
M  V30 891 N 77.9615 -4.80693 5.11741 0
M  V30 892 H 82.8015 -0.960358 2.82101 0
M  V30 893 H 80.3385 -0.462901 1.39627 0
M  V30 894 H 82.2965 -3.40596 2.40936 0
M  V30 895 H 80.9265 -2.91961 1.3769 0
M  V30 896 H 79.9785 -1.64132 3.43169 0
M  V30 897 H 81.2905 -2.34803 4.40079 0
M  V30 898 H 80.4445 -4.64938 3.89766 0
M  V30 899 H 79.1835 -3.97304 2.82844 0
M  V30 900 H 78.1885 -2.73244 4.77093 0
M  V30 901 H 79.4135 -3.43966 5.85546 0
M  V30 902 H 77.3595 -5.00181 4.24446 0
M  V30 903 H 77.2765 -4.67165 5.94384 0
M  V30 904 H 78.5445 -5.6893 5.3286 0
M  V30 905 N 82.7736 -1.49793 -0.48987 0
M  V30 906 C 84.1896 -1.36803 -0.822022 0
M  V30 907 C 84.3896 -0.409652 -1.97292 0
M  V30 908 O 83.4456 0.154614 -2.52026 0
M  V30 909 C 84.7586 -2.77768 -1.15175 0
M  V30 910 C 86.3066 -2.86549 -1.25931 0
M  V30 911 C 86.7816 -4.28306 -1.62228 0
M  V30 912 N 88.2726 -4.31169 -1.69256 0
M  V30 913 C 89.0076 -5.37832 -1.98807 0
M  V30 914 N 88.5036 -6.54726 -2.26507 0
M  V30 915 N 90.2966 -5.25258 -2.00152 0
M  V30 916 H 82.4476 -2.10691 0.268881 0
M  V30 917 H 84.7106 -0.946241 0.057728 0
M  V30 918 H 84.4166 -3.49648 -0.379335 0
M  V30 919 H 84.2906 -3.13836 -2.09253 0
M  V30 920 H 86.6776 -2.14899 -2.02243 0
M  V30 921 H 86.7586 -2.54049 -0.298776 0
M  V30 922 H 86.4026 -5.00486 -0.864622 0
M  V30 923 H 86.3326 -4.58279 -2.594 0
M  V30 924 H 88.8236 -3.4687 -1.49965 0
M  V30 925 H 89.1366 -7.31833 -2.48276 0
M  V30 926 H 87.4816 -6.57933 -2.23939 0
M  V30 927 H 90.6726 -4.32938 -1.77996 0
M  V30 928 H 90.8456 -6.08476 -2.22848 0
M  V30 929 N 84.2517 0.741722 -1.39055 0
M  V30 930 C 85.4997 1.49818 -1.35643 0
M  V30 931 C 85.8207 1.94938 0.0491642 0
M  V30 932 O 85.0907 1.68505 0.999141 0
M  V30 933 H 83.6707 0.555755 -0.499144 0
M  V30 934 H 86.3327 0.880957 -1.73854 0
M  V30 935 H 85.4287 2.38348 -2.01486 0
M  V30 936 N 85.7298 1.2412 0.971189 0
M  V30 937 C 86.9768 1.07881 1.71371 0
M  V30 938 C 87.3048 -0.382901 1.90694 0
M  V30 939 O 86.5598 -1.29945 1.46331 0
M  V30 940 C 86.8588 1.75983 3.11071 0
M  V30 941 C 86.5248 3.25909 3.11599 0
M  V30 942 C 85.1868 3.66813 3.11451 0
M  V30 943 C 87.5388 4.21771 3.062 0
M  V30 944 C 84.8668 5.02021 3.03631 0
M  V30 945 C 87.2188 5.56982 2.99923 0
M  V30 946 C 85.8828 5.97237 2.98102 0
M  V30 947 H 85.1528 0.394764 0.62709 0
M  V30 948 H 87.7998 1.54176 1.13587 0
M  V30 949 H 86.1048 1.22072 3.72298 0
M  V30 950 H 87.8018 1.60887 3.6731 0
M  V30 951 H 84.3918 2.93353 3.12477 0
M  V30 952 H 88.5758 3.91172 3.05447 0
M  V30 953 H 83.8318 5.32411 3.0058 0
M  V30 954 H 88.0058 6.30969 2.94704 0
M  V30 955 H 85.6328 7.01967 2.91798 0
M  V30 956 N 87.2079 -1.17134 1.05439 0
M  V30 957 C 88.4359 -1.91372 0.786414 0
M  V30 958 C 88.8509 -1.76955 -0.658202 0
M  V30 959 O 88.2079 -1.10838 -1.44987 0
M  V30 960 C 88.2589 -3.42356 1.1608 0
M  V30 961 O 87.9799 -3.56332 2.54871 0
M  V30 962 C 89.4809 -4.33663 0.919322 0
M  V30 963 H 86.7009 -0.607118 0.285743 0
M  V30 964 H 89.2449 -1.48525 1.40572 0
M  V30 965 H 87.3999 -3.82939 0.586191 0
M  V30 966 H 87.8139 -4.49896 2.69618 0
M  V30 967 H 89.2879 -5.38099 1.231 0
M  V30 968 H 89.7649 -4.38959 -0.145359 0
M  V30 969 H 90.3709 -3.98796 1.47789 0
M  V30 970 N 88.686 -0.835752 -1.33615 0
M  V30 971 C 89.932 -0.430596 -1.98176 0
M  V30 972 C 90.265 1.00684 -1.66061 0
M  V30 973 O 89.54 1.70339 -0.938877 0
M  V30 974 C 89.823 -0.648065 -3.5422 0
M  V30 975 C 89.676 -2.13255 -3.96033 0
M  V30 976 C 90.995 -0.0922113 -4.40003 0
M  V30 977 H 88.114 -0.157924 -0.719881 0
M  V30 978 H 90.756 -1.05069 -1.58305 0
M  V30 979 H 88.906 -0.120237 -3.88314 0
M  V30 980 H 90.578 -2.725 -3.72211 0
M  V30 981 H 88.821 -2.61823 -3.45878 0
M  V30 982 H 89.492 -2.23547 -5.04708 0
M  V30 983 H 91.968 -0.543343 -4.12537 0
M  V30 984 H 90.844 -0.274083 -5.48215 0
M  V30 985 H 91.105 1.00378 -4.30554 0
M  V30 986 N 90.1641 1.46063 -0.591896 0
M  V30 987 C 91.1111 2.30399 0.136069 0
M  V30 988 C 92.0811 1.41169 0.875238 0
M  V30 989 O 93.2661 1.70112 0.86409 0
M  V30 990 C 90.4061 3.25804 1.13781 0
M  V30 991 C 89.5191 4.30134 0.401137 0
M  V30 992 C 88.6541 5.12659 1.39121 0
M  V30 993 C 87.6931 6.0873 0.641462 0
M  V30 994 N 86.8301 6.8409 1.58004 0
M  V30 995 H 91.6701 2.92118 -0.589144 0
M  V30 996 H 89.2071 1.43959 -0.302342 0
M  V30 997 H 91.1651 3.79569 1.73156 0
M  V30 998 H 89.7951 2.65872 1.83062 0
M  V30 999 H 88.8471 3.79152 -0.307826 0
M  V30 1000 H 90.1591 4.98458 -0.184565 0
M  V30 1001 H 89.3131 5.70747 2.05749 0
M  V30 1002 H 88.0521 4.44316 2.01084 0
M  V30 1003 H 87.0571 5.49786 -0.0385419 0
M  V30 1004 H 88.2821 6.79095 0.0270945 0
M  V30 1005 H 86.2281 6.18449 2.18761 0
M  V30 1006 H 86.1451 7.48709 1.04738 0
M  V30 1007 H 87.4131 7.4673 2.23639 0
M  V30 1008 N 91.6422 0.330177 1.54103 0
M  V30 1009 C 92.5752 -0.575477 2.20825 0
M  V30 1010 C 93.5532 -1.11064 1.18758 0
M  V30 1011 O 94.7372 -1.17341 1.47524 0
M  V30 1012 C 91.8642 -1.79032 2.87516 0
M  V30 1013 C 90.9102 -1.38581 4.03358 0
M  V30 1014 S 91.7432 -0.416911 5.33875 0
M  V30 1015 C 92.8992 -1.63889 6.04062 0
M  V30 1016 H 93.1322 -0.00872114 2.97299 0
M  V30 1017 H 90.6652 0.114254 1.53977 0
M  V30 1018 H 92.6232 -2.48734 3.2656 0
M  V30 1019 H 91.2842 -2.32827 2.10832 0
M  V30 1020 H 90.4772 -2.29123 4.48908 0
M  V30 1021 H 90.0792 -0.768419 3.66021 0
M  V30 1022 H 92.3712 -2.57536 6.26643 0
M  V30 1023 H 93.3142 -1.22542 6.97416 0
M  V30 1024 H 93.7222 -1.82887 5.34053 0
M  V30 1025 N 93.1203 -1.57491 0.0584922 0
M  V30 1026 C 94.0703 -2.08474 -0.923188 0
M  V30 1027 C 95.0543 -0.991479 -1.26722 0
M  V30 1028 O 96.2463 -1.25473 -1.24842 0
M  V30 1029 C 93.3753 -2.6392 -2.19548 0
M  V30 1030 C 92.4613 -3.80227 -1.87852 0
M  V30 1031 N 92.8523 -4.89714 -1.26546 0
M  V30 1032 C 91.1503 -3.89271 -2.17679 0
M  V30 1033 C 91.8513 -5.70689 -1.12644 0
M  V30 1034 N 90.8273 -5.18531 -1.63176 0
M  V30 1035 H 94.6293 -2.90517 -0.444653 0
M  V30 1036 H 92.1433 -1.61745 -0.145764 0
M  V30 1037 H 94.1403 -2.98752 -2.9078 0
M  V30 1038 H 92.8003 -1.83318 -2.68001 0
M  V30 1039 H 93.8113 -5.09358 -0.936757 0
M  V30 1040 H 90.4883 -3.19623 -2.68602 0
M  V30 1041 H 91.8783 -6.6875 -0.6499 0
M  V30 1042 N 94.5984 0.214957 -1.56127 0
M  V30 1043 C 95.8384 0.945364 -1.81224 0
M  V30 1044 C 96.2024 1.81265 -0.633005 0
M  V30 1045 O 97.4034 2.57731 -0.763423 0
M  V30 1046 C 95.6744 1.75665 -3.1125 0
M  V30 1047 S 97.2334 2.54179 -3.57685 0
M  V30 1048 H 94.0514 0.317443 -0.6362 0
M  V30 1049 H 96.6534 0.210381 -1.94365 0
M  V30 1050 H 95.3574 1.10977 -3.9511 0
M  V30 1051 H 94.8884 2.53381 -3.00934 0
M  V30 1052 H 96.9034 3.7792 -3.21545 0
M  V30 1053 N 96.0765 1.50051 0.48192 0
M  V30 1054 C 97.3065 1.63999 1.2565 0
M  V30 1055 C 97.7145 0.318288 1.86504 0
M  V30 1056 O 97.0575 -0.708534 1.69486 0
M  V30 1057 C 97.1195 2.66504 2.4128 0
M  V30 1058 C 96.7835 4.10352 2.01148 0
M  V30 1059 C 97.7805 4.96562 1.54021 0
M  V30 1060 C 95.4655 4.56203 2.10199 0
M  V30 1061 C 97.4595 6.26668 1.16473 0
M  V30 1062 C 95.1465 5.86318 1.72264 0
M  V30 1063 C 96.1445 6.71375 1.25477 0
M  V30 1064 O 95.8325 7.99062 0.880626 0
M  V30 1065 H 95.5645 0.55456 0.386574 0
M  V30 1066 H 98.1185 1.96954 0.582944 0
M  V30 1067 H 96.3485 2.28769 3.11772 0
M  V30 1068 H 98.0375 2.69783 3.03268 0
M  V30 1069 H 98.8035 4.62358 1.46458 0
M  V30 1070 H 94.6825 3.90152 2.45566 0
M  V30 1071 H 98.2265 6.93011 0.798841 0
M  V30 1072 H 94.1235 6.20046 1.79482 0
M  V30 1073 H 94.8915 8.12239 1.01043 0
M  V30 1074 N 97.5546 -0.734337 1.39446 0
M  V30 1075 C 98.4876 -1.85715 1.32609 0
M  V30 1076 C 99.4656 -1.6137 0.199636 0
M  V30 1077 O 100.65 -1.84626 0.380195 0
M  V30 1078 C 97.7766 -3.21709 1.05929 0
M  V30 1079 C 96.8226 -3.64913 2.20773 0
M  V30 1080 S 97.6556 -3.74203 3.83056 0
M  V30 1081 C 98.8116 -5.12986 3.58603 0
M  V30 1082 H 99.0446 -1.91232 2.27635 0
M  V30 1083 H 96.5776 -0.899263 1.25509 0
M  V30 1084 H 98.5356 -4.00236 0.912203 0
M  V30 1085 H 97.1966 -3.13848 0.125883 0
M  V30 1086 H 96.3896 -4.63606 1.97699 0
M  V30 1087 H 95.9916 -2.93593 2.31688 0
M  V30 1088 H 98.2836 -5.99339 3.15909 0
M  V30 1089 H 99.2266 -5.41088 4.5676 0
M  V30 1090 H 99.6346 -4.82694 2.9269 0
M  V30 1091 N 99.0327 -1.24633 -0.964593 0
M  V30 1092 C 99.9807 -1.03917 -2.08096 0
M  V30 1093 C 100.975 0.0268581 -1.69379 0
M  V30 1094 O 102.181 -0.127952 -1.79545 0
M  V30 1095 H 98.5557 -0.319044 -0.680966 0
M  V30 1096 H 100.527 -1.98581 -2.22729 0
M  V30 1097 C 99.2757 -0.663983 -3.41301 0
M  V30 1098 H 98.5987 -1.47605 -3.71555 0
M  V30 1099 H 100.039 -0.558663 -4.20303 0
M  V30 1100 C 98.4977 0.629169 -3.30973 0
M  V30 1101 O 99.0277 1.67404 -3.65156 0
M  V30 1102 N 97.2337 0.611057 -2.84103 0
M  V30 1103 H 96.7807 -0.239593 -2.56483 0
M  V30 1104 H 96.7387 1.47647 -2.77575 0
M  V30 1105 N 100.511 1.16574 -1.06058 0
M  V30 1106 C 101.736 1.91493 -0.796562 0
M  V30 1107 C 102.161 1.76773 0.642868 0
M  V30 1108 O 101.519 1.09142 1.44768 0
M  V30 1109 C 101.567 3.40293 -1.19303 0
M  V30 1110 O 100.671 4.11074 -0.330394 0
M  V30 1111 H 100.012 0.596678 -0.291326 0
M  V30 1112 H 102.542 1.47708 -1.41575 0
M  V30 1113 H 102.552 3.91057 -1.16356 0
M  V30 1114 H 101.227 3.50326 -2.24153 0
M  V30 1115 H 99.8038 3.70513 -0.421225 0
M  V30 1116 N 101.989 0.842826 1.3317 0
M  V30 1117 C 102.952 0.284065 2.27433 0
M  V30 1118 C 103.952 -0.54948 1.5112 0
M  V30 1119 O 105.142 -0.362699 1.70382 0
M  V30 1120 C 102.274 -0.599384 3.35589 0
M  V30 1121 H 103.467 1.11589 2.78366 0
M  V30 1122 H 101.02 0.616221 1.4364 0
M  V30 1123 H 101.755 -1.45349 2.89904 0
M  V30 1124 H 101.54 -0.00291266 3.921 0
M  V30 1125 H 103.03 -0.983488 4.05854 0
M  V30 1126 N 103.467 -1.45747 0.599634 0
M  V30 1127 C 104.692 -2.07178 0.0960198 0
M  V30 1128 C 105.117 -1.44268 -1.207 0
M  V30 1129 O 104.475 -0.532503 -1.73303 0
M  V30 1130 C 104.523 -3.60579 -0.0385348 0
M  V30 1131 O 103.627 -3.97713 -1.0908 0
M  V30 1132 H 102.968 -0.660251 0.0704593 0
M  V30 1133 H 105.498 -1.87124 0.827385 0
M  V30 1134 H 105.508 -4.07298 -0.239304 0
M  V30 1135 H 104.183 -4.05756 0.912947 0
M  V30 1136 H 102.76 -3.62678 -0.867135 0
M  V30 1137 N 104.945 -0.338344 -1.53925 0
M  V30 1138 C 106.193 0.259245 -2.0043 0
M  V30 1139 C 106.514 1.51484 -1.22791 0
M  V30 1140 O 105.784 1.93037 -0.33368 0
M  V30 1141 H 104.364 0.0987845 -0.740439 0
M  V30 1142 H 107.026 -0.458302 -1.89435 0
M  V30 1143 H 106.122 0.505334 -3.07982 0
M  V30 1144 N 106.423 1.57458 -0.0668435 0
M  V30 1145 C 107.371 2.13639 0.919851 0
M  V30 1146 C 108.365 1.07204 1.31163 0
M  V30 1147 O 109.571 1.25591 1.28945 0
M  V30 1148 H 105.946 0.683048 0.314562 0
M  V30 1149 H 107.917 2.95415 0.421047 0
M  V30 1150 C 106.666 2.70892 2.17975 0
M  V30 1151 H 105.989 3.5246 1.88711 0
M  V30 1152 H 107.429 3.13803 2.85138 0
M  V30 1153 C 105.888 1.65414 2.93496 0
M  V30 1154 O 106.418 1.07619 3.87015 0
M  V30 1155 N 104.624 1.36564 2.56512 0
M  V30 1156 H 104.171 1.83751 1.80536 0
M  V30 1157 H 104.129 0.66223 3.07347 0
M  V30 1158 N 107.901 -0.206675 1.56239 0
M  V30 1159 C 109.147 -0.930218 1.80208 0
M  V30 1160 C 109.48 -1.83387 0.638981 0
M  V30 1161 O 108.755 -1.91119 -0.361066 0
M  V30 1162 C 109.038 -1.75641 3.1436 0
M  V30 1163 C 108.891 -0.878257 4.41142 0
M  V30 1164 C 110.21 -2.73129 3.45092 0
M  V30 1165 H 107.329 -0.336742 0.655571 0
M  V30 1166 H 109.971 -0.198222 1.88963 0
M  V30 1167 H 108.121 -2.38048 3.07027 0
M  V30 1168 H 109.793 -0.269787 4.6051 0
M  V30 1169 H 108.036 -0.184385 4.33408 0
M  V30 1170 H 108.707 -1.49106 5.3148 0
M  V30 1171 H 111.183 -2.20856 3.52649 0
M  V30 1172 H 110.059 -3.28028 4.40101 0
M  V30 1173 H 110.32 -3.51606 2.68003 0
M  V30 1174 N 109.379 -1.50304 -0.473955 0
M  V30 1175 C 110.604 -1.65175 -1.25427 0
M  V30 1176 C 111.029 -0.333673 -1.85117 0
M  V30 1177 O 110.387 0.702114 -1.67153 0
M  V30 1178 C 110.435 -2.74295 -2.34082 0
M  V30 1179 O 109.539 -2.35349 -3.38651 0
M  V30 1180 H 108.88 -0.551944 -0.369126 0
M  V30 1181 H 111.41 -1.96662 -0.564364 0
M  V30 1182 H 111.42 -2.97285 -2.79438 0
M  V30 1183 H 110.095 -3.69959 -1.90008 0
M  V30 1184 H 108.672 -2.22794 -2.99027 0
M  V30 1185 N 110.857 0.726932 -1.39834 0
M  V30 1186 C 112.103 1.48771 -1.38704 0
M  V30 1187 C 112.458 1.92394 0.0146387 0
M  V30 1188 O 111.751 1.64474 0.982797 0
M  V30 1189 C 111.945 2.73495 -2.30077 0
M  V30 1190 C 111.774 2.42068 -3.78989 0
M  V30 1191 C 110.544 2.33966 -4.4787 0
M  V30 1192 C 112.742 2.0708 -4.70768 0
M  V30 1193 N 110.724 1.95095 -5.82075 0
M  V30 1194 C 112.095 1.78719 -5.93683 0
M  V30 1195 C 114.15 1.93618 -4.58712 0
M  V30 1196 C 112.853 1.3825 -7.05889 0
M  V30 1197 C 114.879 1.54553 -5.70848 0
M  V30 1198 C 114.241 1.27082 -6.92842 0
M  V30 1199 H 110.34 0.542919 -0.562817 0
M  V30 1200 H 112.924 0.84408 -1.75452 0
M  V30 1201 H 111.095 3.35625 -1.95474 0
M  V30 1202 H 112.827 3.39755 -2.19883 0
M  V30 1203 H 109.582 2.51331 -4.0141 0
M  V30 1204 H 110.006 1.7823 -6.53118 0
M  V30 1205 H 114.648 2.13522 -3.64922 0
M  V30 1206 H 112.366 1.17088 -7.99572 0
M  V30 1207 H 115.952 1.44731 -5.6351 0
M  V30 1208 H 114.832 0.973069 -7.78139 0
M  V30 1209 N 112.336 1.25143 0.95797 0
M  V30 1210 C 113.266 1.07711 2.07173 0
M  V30 1211 C 114.247 -0.0128462 1.70095 0
M  V30 1212 O 115.432 0.156061 1.93572 0
M  V30 1213 C 112.562 0.691503 3.40346 0
M  V30 1214 C 111.516 1.73132 3.9142 0
M  V30 1215 C 110.842 1.20049 5.21049 0
M  V30 1216 C 112.142 3.1294 4.1817 0
M  V30 1217 H 113.836 2.00873 2.22014 0
M  V30 1218 H 111.382 0.967191 1.06684 0
M  V30 1219 H 113.335 0.556505 4.17709 0
M  V30 1220 H 112.059 -0.275819 3.25433 0
M  V30 1221 H 110.718 1.8547 3.16222 0
M  V30 1222 H 110.366 0.223499 5.02503 0
M  V30 1223 H 110.066 1.89545 5.56189 0
M  V30 1224 H 111.59 1.07782 6.01012 0
M  V30 1225 H 113.004 3.03775 4.86203 0
M  V30 1226 H 111.401 3.79875 4.64559 0
M  V30 1227 H 112.471 3.6025 3.24573 0
M  V30 1228 N 113.814 -1.1601 1.06675 0
M  V30 1229 C 115.06 -1.87145 0.796766 0
M  V30 1230 C 115.415 -1.8037 -0.669658 0
M  V30 1231 O 114.708 -1.21116 -1.48463 0
M  V30 1232 C 114.902 -3.35547 1.23057 0
M  V30 1233 C 114.731 -3.56769 2.73762 0
M  V30 1234 C 113.501 -3.72635 3.41279 0
M  V30 1235 C 115.699 -3.55166 3.7197 0
M  V30 1236 N 113.681 -3.81845 4.80695 0
M  V30 1237 C 115.052 -3.70406 4.97191 0
M  V30 1238 C 117.107 -3.384 3.65226 0
M  V30 1239 C 115.81 -3.70615 6.16471 0
M  V30 1240 C 117.836 -3.39904 4.83962 0
M  V30 1241 C 117.198 -3.55667 6.08013 0
M  V30 1242 H 113.297 -0.702267 0.344014 0
M  V30 1243 H 115.881 -1.39165 1.36166 0
M  V30 1244 H 114.052 -3.82159 0.693456 0
M  V30 1245 H 115.784 -3.94363 0.908844 0
M  V30 1246 H 112.539 -3.73121 2.91681 0
M  V30 1247 H 112.963 -3.90209 5.53232 0
M  V30 1248 H 117.605 -3.25138 2.70269 0
M  V30 1249 H 115.323 -3.82658 7.11757 0
M  V30 1250 H 118.909 -3.28169 4.80413 0
M  V30 1251 H 117.789 -3.56755 6.98352 0
M  V30 1252 N 115.292 -0.849877 -1.32721 0
M  V30 1253 C 116.239 -0.289033 -2.28983 0
M  V30 1254 C 117.209 0.601324 -1.54833 0
M  V30 1255 O 118.394 0.537253 -1.8308 0
M  V30 1256 C 115.534 0.520623 -3.4115 0
M  V30 1257 C 114.647 -0.394989 -4.3019 0
M  V30 1258 C 113.782 0.426834 -5.29482 0
M  V30 1259 C 112.821 -0.486476 -6.10164 0
M  V30 1260 N 111.958 0.297879 -7.01468 0
M  V30 1261 H 116.798 -1.11519 -2.76347 0
M  V30 1262 H 114.335 -0.56138 -1.35967 0
M  V30 1263 H 116.293 1.00563 -4.04899 0
M  V30 1264 H 114.923 1.31165 -2.9495 0
M  V30 1265 H 113.975 -0.99836 -3.67065 0
M  V30 1266 H 115.287 -1.09612 -4.86607 0
M  V30 1267 H 114.441 0.975205 -5.98811 0
M  V30 1268 H 113.18 1.16136 -4.73671 0
M  V30 1269 H 112.185 -1.04677 -5.39743 0
M  V30 1270 H 113.41 -1.21953 -6.6806 0
M  V30 1271 H 111.356 1.01558 -6.48091 0
M  V30 1272 H 111.273 -0.344318 -7.55216 0
M  V30 1273 H 112.541 0.828131 -7.75089 0
M  V30 1274 N 116.77 1.45427 -0.607355 0
M  V30 1275 C 117.702 2.2871 0.149752 0
M  V30 1276 C 118.715 1.39937 0.831958 0
M  V30 1277 O 119.904 1.64313 0.697385 0
M  V30 1278 C 117.004 3.15673 1.23304 0
M  V30 1279 C 116.177 4.32722 0.637996 0
M  V30 1280 C 115.236 5.00895 1.61215 0
M  V30 1281 O 114.262 5.57697 1.13854 0
M  V30 1282 N 115.464 5.00159 2.94655 0
M  V30 1283 H 118.229 2.94328 -0.564882 0
M  V30 1284 H 115.79 1.55612 -0.446823 0
M  V30 1285 H 117.782 3.58144 1.88454 0
M  V30 1286 H 116.352 2.51965 1.8502 0
M  V30 1287 H 115.572 3.93734 -0.191572 0
M  V30 1288 H 116.86 5.08321 0.220665 0
M  V30 1289 H 116.258 4.553 3.35735 0
M  V30 1290 H 114.815 5.46495 3.55228 0
M  V30 1291 N 118.248 0.346503 1.53744 0
M  V30 1292 C 119.158 -0.517293 2.28826 0
M  V30 1293 C 120.174 -1.10935 1.3405 0
M  V30 1294 O 121.35 -1.1244 1.6709 0
M  V30 1295 C 118.415 -1.65098 3.04866 0
M  V30 1296 C 117.476 -1.0884 4.15274 0
M  V30 1297 C 116.709 -2.16806 4.87679 0
M  V30 1298 O 116.932 -3.3758 4.59778 0
M  V30 1299 O 115.866 -1.80934 5.74061 0
M  V30 1300 H 119.692 0.0931396 3.03557 0
M  V30 1301 H 117.277 0.111458 1.48984 0
M  V30 1302 H 119.159 -2.31053 3.5241 0
M  V30 1303 H 117.834 -2.24717 2.32989 0
M  V30 1304 H 116.741 -0.3933 3.72027 0
M  V30 1305 H 118.074 -0.537036 4.89261 0
M  V30 1306 N 119.726 -1.57421 0.075193 0
M  V30 1307 C 120.659 -2.08528 -0.926904 0
M  V30 1308 C 121.637 -0.991171 -1.28898 0
M  V30 1309 O 122.821 -1.26479 -1.39769 0
M  V30 1310 C 119.948 -2.54576 -2.23402 0
M  V30 1311 C 118.994 -3.75454 -2.02327 0
M  V30 1312 S 119.827 -5.19989 -1.27951 0
M  V30 1313 C 120.983 -5.69372 -2.59935 0
M  V30 1314 H 121.216 -2.932 -0.492048 0
M  V30 1315 H 118.749 -1.53785 -0.137651 0
M  V30 1316 H 120.707 -2.81767 -2.98526 0
M  V30 1317 H 119.368 -1.70166 -2.64012 0
M  V30 1318 H 118.561 -4.05675 -2.99071 0
M  V30 1319 H 118.163 -3.48654 -1.35339 0
M  V30 1320 H 120.455 -5.76424 -3.56008 0
M  V30 1321 H 121.398 -6.68207 -2.34319 0
M  V30 1322 H 121.806 -4.97205 -2.67296 0
M  V30 1323 N 121.204 0.198386 -1.56346 0
M  V30 1324 C 122.481 0.944982 -1.71258 0
M  V30 1325 C 122.861 2.0151 -0.629048 0
M  V30 1326 O 122.209 2.25639 0.360473 0
M  V30 1327 C 122.419 1.5344 -3.1346 0
M  V30 1328 C 123.767 2.01778 -3.73591 0
M  V30 1329 O 124.791 1.63288 -3.16568 0
M  V30 1330 O 123.65 2.72594 -4.73661 0
M  V30 1331 H 120.744 0.442939 -0.69838 0
M  V30 1332 H 123.29 0.188342 -1.68652 0
M  V30 1333 H 122.062 0.762869 -3.83792 0
M  V30 1334 H 121.685 2.35596 -3.20282 0
M  V30 1335 N 122.682 1.50554 0.465978 0
M  V30 1336 C 123.592 1.72585 1.58907 0
M  V30 1337 C 124.608 0.60911 1.6299 0
M  V30 1338 O 125.784 0.88804 1.80765 0
M  V30 1339 C 122.849 1.81995 2.95091 0
M  V30 1340 C 121.91 3.05751 3.01355 0
M  V30 1341 C 121.143 3.14702 4.31043 0
M  V30 1342 O 121.366 2.30313 5.21835 0
M  V30 1343 O 120.3 4.07468 4.43005 0
M  V30 1344 H 124.126 2.67799 1.43239 0
M  V30 1345 H 121.711 1.34711 0.646013 0
M  V30 1346 H 123.593 1.90335 3.75966 0
M  V30 1347 H 122.268 0.899659 3.10947 0
M  V30 1348 H 121.175 3.02908 2.19539 0
M  V30 1349 H 122.508 3.97375 2.90437 0
M  V30 1350 N 124.16 -0.719506 1.40217 0
M  V30 1351 C 125.108 -1.85493 1.40339 0
M  V30 1352 C 126.102 -1.66995 0.284415 0
M  V30 1353 O 127.308 -1.74148 0.455252 0
M  V30 1354 H 123.683 -0.610857 0.438586 0
M  V30 1355 H 125.654 -1.82506 2.36081 0
M  V30 1356 C 124.403 -3.23321 1.27901 0
M  V30 1357 H 123.726 -3.38159 2.1328 0
M  V30 1358 H 125.166 -4.02914 1.32045 0
M  V30 1359 C 123.625 -3.36898 -0.0111355 0
M  V30 1360 O 124.155 -3.89674 -0.975538 0
M  V30 1361 N 122.361 -2.90492 -0.0793393 0
M  V30 1362 H 121.908 -2.47731 0.706183 0
M  V30 1363 H 121.866 -2.99955 -0.942038 0
M  V30 1364 N 125.638 -1.25649 -0.95132 0
M  V30 1365 C 127.049 -1.09654 -1.51106 0
M  V30 1366 C 127.4 0.326615 -1.93462 0
M  V30 1367 O 126.525 1.21697 -1.78938 0
M  V30 1368 C 127.12 -1.98437 -2.74605 0
M  V30 1369 C 125.679 -1.86618 -3.2688 0
M  V30 1370 C 124.826 -1.9239 -1.99703 0
M  V30 1371 H 127.777 -1.38887 -0.767865 0
M  V30 1372 H 127.798 -1.5263 -3.48546 0
M  V30 1373 H 127.31 -3.02009 -2.43746 0
M  V30 1374 H 125.411 -0.859421 -3.62553 0
M  V30 1375 H 125.524 -2.71607 -3.94673 0
M  V30 1376 H 123.888 -1.36317 -2.15151 0
M  V30 1377 H 124.671 -2.97573 -1.71188 0
M  V30 1378 N 127.117 1.15442 -1.07289 0
M  V30 1379 C 128.049 2.19773 -0.650585 0
M  V30 1380 C 129.062 1.60076 0.296572 0
M  V30 1381 O 130.251 1.78293 0.0859905 0
M  V30 1382 C 127.351 3.38838 0.0650398 0
M  V30 1383 C 126.524 4.2808 -0.898141 0
M  V30 1384 C 125.583 5.2574 -0.219926 0
M  V30 1385 O 124.609 5.62654 -0.860773 0
M  V30 1386 N 125.811 5.71205 1.03466 0
M  V30 1387 H 128.576 2.56622 -1.54808 0
M  V30 1388 H 126.137 1.30551 -0.957494 0
M  V30 1389 H 128.129 4.01222 0.529415 0
M  V30 1390 H 126.699 3.00409 0.864466 0
M  V30 1391 H 125.919 3.62804 -1.54165 0
M  V30 1392 H 127.207 4.84577 -1.5512 0
M  V30 1393 H 126.605 5.43325 1.57526 0
M  V30 1394 H 125.162 6.35633 1.44272 0
M  V30 1395 N 128.595 0.856903 1.32268 0
M  V30 1396 C 129.527 0.260412 2.27716 0
M  V30 1397 C 130.54 -0.569137 1.52528 0
M  V30 1398 O 131.729 -0.39326 1.74114 0
M  V30 1399 C 128.829 -0.650477 3.32599 0
M  V30 1400 C 128.002 0.14372 4.37164 0
M  V30 1401 C 127.061 -0.69328 5.21613 0
M  V30 1402 O 126.087 -0.12599 5.69061 0
M  V30 1403 N 127.289 -2.00761 5.44679 0
M  V30 1404 H 130.054 1.08059 2.79541 0
M  V30 1405 H 127.615 0.717103 1.45152 0
M  V30 1406 H 129.607 -1.21581 3.86005 0
M  V30 1407 H 128.177 -1.37133 2.80915 0
M  V30 1408 H 127.397 0.890486 3.8401 0
M  V30 1409 H 128.685 0.68915 5.04111 0
M  V30 1410 H 128.083 -2.49181 5.07863 0
M  V30 1411 H 126.64 -2.52103 6.01072 0
M  V30 1412 N 130.073 -1.45103 0.615059 0
M  V30 1413 C 131.003 -2.33339 -0.0865619 0
M  V30 1414 C 131.984 -1.4727 -0.851209 0
M  V30 1415 O 133.169 -1.76026 -0.820281 0
M  V30 1416 C 130.299 -3.30095 -1.07956 0
M  V30 1417 C 129.253 -4.25858 -0.427628 0
M  V30 1418 C 128.579 -5.12361 -1.5294 0
M  V30 1419 C 129.879 -5.18165 0.655944 0
M  V30 1420 H 131.573 -2.92254 0.650224 0
M  V30 1421 H 129.119 -1.40532 0.314138 0
M  V30 1422 H 131.072 -3.90698 -1.57901 0
M  V30 1423 H 129.796 -2.69355 -1.84703 0
M  V30 1424 H 128.455 -3.66564 0.0510292 0
M  V30 1425 H 128.103 -4.47984 -2.28734 0
M  V30 1426 H 127.803 -5.77238 -1.09865 0
M  V30 1427 H 129.327 -5.75833 -2.03098 0
M  V30 1428 H 130.741 -5.72796 0.240257 0
M  V30 1429 H 129.138 -5.91559 1.00888 0
M  V30 1430 H 130.208 -4.60144 1.52957 0
M  V30 1431 N 131.551 -0.354651 -1.53558 0
M  V30 1432 C 132.498 0.496968 -2.25386 0
M  V30 1433 C 133.468 1.0865 -1.25636 0
M  V30 1434 O 134.653 1.12104 -1.54394 0
M  V30 1435 C 131.793 1.63637 -3.03837 0
M  V30 1436 C 130.906 1.07307 -4.18461 0
M  V30 1437 C 130.041 2.18068 -4.84376 0
M  V30 1438 C 129.08 1.59147 -5.91049 0
M  V30 1439 N 128.217 2.63695 -6.50699 0
M  V30 1440 H 133.057 -0.122075 -2.9775 0
M  V30 1441 H 130.594 -0.0720154 -1.46924 0
M  V30 1442 H 132.552 2.30734 -3.47589 0
M  V30 1443 H 131.182 2.22623 -2.33749 0
M  V30 1444 H 130.234 0.292708 -3.79272 0
M  V30 1445 H 131.546 0.602193 -4.95152 0
M  V30 1446 H 130.7 2.93007 -5.31255 0
M  V30 1447 H 129.439 2.68504 -4.07133 0
M  V30 1448 H 128.444 0.827175 -5.43542 0
M  V30 1449 H 129.669 1.09549 -6.70206 0
M  V30 1450 H 127.615 3.13365 -5.76315 0
M  V30 1451 H 127.532 2.21263 -7.22896 0
M  V30 1452 H 128.8 3.3837 -7.02229 0
M  V30 1453 N 133.029 1.57378 -0.0835403 0
M  V30 1454 C 133.959 2.1641 0.87686 0
M  V30 1455 C 134.94 1.09429 1.30228 0
M  V30 1456 O 136.125 1.37516 1.37124 0
M  V30 1457 C 133.255 2.73517 2.14022 0
M  V30 1458 C 132.209 3.85769 1.85381 0
M  V30 1459 C 131.535 4.29529 3.18448 0
M  V30 1460 C 132.835 5.09486 1.14984 0
M  V30 1461 H 134.529 2.96914 0.385059 0
M  V30 1462 H 132.075 1.42823 0.18377 0
M  V30 1463 H 134.028 3.13463 2.81636 0
M  V30 1464 H 132.752 1.90252 2.65465 0
M  V30 1465 H 131.411 3.46345 1.20169 0
M  V30 1466 H 131.059 3.43169 3.67755 0
M  V30 1467 H 130.759 5.05204 3.00071 0
M  V30 1468 H 132.283 4.72099 3.8724 0
M  V30 1469 H 133.697 5.46674 1.72687 0
M  V30 1470 H 132.094 5.90515 1.06826 0
M  V30 1471 H 133.164 4.84724 0.130749 0
M  V30 1472 N 134.507 -0.190092 1.56449 0
M  V30 1473 C 135.417 -1.25591 1.98152 0
M  V30 1474 C 136.433 -1.49519 0.889944 0
M  V30 1475 O 137.609 -1.62036 1.19609 0
M  V30 1476 C 134.674 -2.57916 2.3169 0
M  V30 1477 C 133.735 -2.42015 3.5458 0
M  V30 1478 C 132.968 -3.6803 3.8651 0
M  V30 1479 O 133.191 -4.72413 3.1966 0
M  V30 1480 O 132.125 -3.6326 4.79923 0
M  V30 1481 H 135.951 -0.931988 2.89046 0
M  V30 1482 H 133.536 -0.395488 1.4407 0
M  V30 1483 H 135.418 -3.36008 2.54316 0
M  V30 1484 H 134.093 -2.89925 1.43963 0
M  V30 1485 H 133 -1.62017 3.37196 0
M  V30 1486 H 134.333 -2.14937 4.4279 0
M  V30 1487 N 135.985 -1.50799 -0.457987 0
M  V30 1488 C 136.932 -1.70617 -1.5543 0
M  V30 1489 C 137.902 -0.547562 -1.56815 0
M  V30 1490 O 139.087 -0.779647 -1.74144 0
M  V30 1491 C 136.227 -1.81831 -2.93311 0
M  V30 1492 C 135.34 -3.09278 -3.01615 0
M  V30 1493 C 134.475 -3.11209 -4.30491 0
M  V30 1494 C 133.514 -4.33055 -4.32585 0
M  V30 1495 N 132.651 -4.32652 -5.52952 0
M  V30 1496 H 137.491 -2.64207 -1.37836 0
M  V30 1497 H 135.028 -1.30959 -0.669937 0
M  V30 1498 H 136.986 -1.86314 -3.73287 0
M  V30 1499 H 135.616 -0.916685 -3.0951 0
M  V30 1500 H 134.668 -3.14203 -2.1443 0
M  V30 1501 H 135.98 -3.99233 -2.99022 0
M  V30 1502 H 135.134 -3.14494 -5.18824 0
M  V30 1503 H 133.873 -2.19106 -4.35711 0
M  V30 1504 H 132.878 -4.29969 -3.42647 0
M  V30 1505 H 134.103 -5.264 -4.29046 0
M  V30 1506 H 132.049 -3.43409 -5.58933 0
M  V30 1507 H 131.966 -5.16392 -5.52155 0
M  V30 1508 H 133.234 -4.40101 -6.43375 0
M  V30 1509 N 137.463 0.71206 -1.40597 0
M  V30 1510 C 138.711 1.46907 -1.38791 0
M  V30 1511 C 139.032 1.94998 0.00780391 0
M  V30 1512 O 138.302 1.70587 0.963174 0
M  V30 1513 H 136.882 0.545043 -0.51082 0
M  V30 1514 H 139.544 0.843882 -1.75683 0
M  V30 1515 H 138.64 2.34021 -2.06496 0
M  V30 1516 N 138.941 1.26152 0.944643 0
M  V30 1517 C 140.357 1.03189 1.21754 0
M  V30 1518 C 140.557 -0.245112 2.00004 0
M  V30 1519 O 139.613 -0.955176 2.33736 0
M  V30 1520 C 140.926 2.26119 1.98219 0
M  V30 1521 C 142.474 2.30984 2.11224 0
M  V30 1522 C 142.949 3.53597 2.91089 0
M  V30 1523 N 144.44 3.54053 2.98664 0
M  V30 1524 C 145.175 4.45593 3.60881 0
M  V30 1525 N 144.671 5.47416 4.24626 0
M  V30 1526 N 146.464 4.33252 3.58119 0
M  V30 1527 H 138.615 2.08177 0.421437 0
M  V30 1528 H 140.878 0.914723 0.248969 0
M  V30 1529 H 140.584 3.18984 1.48128 0
M  V30 1530 H 140.458 2.3009 2.98895 0
M  V30 1531 H 142.845 1.38635 2.60508 0
M  V30 1532 H 142.926 2.31026 1.09821 0
M  V30 1533 H 142.57 4.46273 2.42493 0
M  V30 1534 H 142.5 3.50802 3.92741 0
M  V30 1535 H 144.991 2.80403 2.53343 0
M  V30 1536 H 145.304 6.13459 4.69987 0
M  V30 1537 H 143.649 5.51278 4.23223 0
M  V30 1538 H 146.84 3.52924 3.0751 0
M  V30 1539 H 147.013 5.04786 4.06319 0
M  V30 1540 N 140.419 -1.14872 1.07899 0
M  V30 1541 C 141.352 -2.18794 0.64841 0
M  V30 1542 C 142.33 -1.59065 -0.337189 0
M  V30 1543 O 143.514 -1.86936 -0.242284 0
M  V30 1544 C 140.641 -3.38667 -0.0470417 0
M  V30 1545 C 139.687 -4.16942 0.897884 0
M  V30 1546 S 140.52 -4.78615 2.40183 0
M  V30 1547 C 141.676 -6.0185 1.71834 0
M  V30 1548 H 141.909 -2.5498 1.52881 0
M  V30 1549 H 139.442 -1.25922 0.893484 0
M  V30 1550 H 141.4 -4.08113 -0.442027 0
M  V30 1551 H 140.061 -3.00814 -0.903861 0
M  V30 1552 H 139.254 -5.02726 0.358096 0
M  V30 1553 H 138.856 -3.53073 1.23352 0
M  V30 1554 H 141.148 -6.69574 1.03328 0
M  V30 1555 H 142.091 -6.60408 2.55473 0
M  V30 1556 H 142.499 -5.5173 1.19392 0
M  V30 1557 N 141.898 -0.863906 -1.31812 0
M  V30 1558 C 142.808 -0.318461 -2.32428 0
M  V30 1559 C 143.824 0.568496 -1.64451 0
M  V30 1560 O 145 0.46666 -1.95919 0
M  V30 1561 C 142.065 0.476355 -3.43412 0
M  V30 1562 C 141.126 -0.43784 -4.27061 0
M  V30 1563 C 140.359 0.319138 -5.32745 0
M  V30 1564 O 140.582 1.54799 -5.48993 0
M  V30 1565 O 139.516 -0.319861 -6.01049 0
M  V30 1566 H 143.342 -1.15229 -2.80991 0
M  V30 1567 H 140.927 -0.627103 -1.35602 0
M  V30 1568 H 142.809 0.927156 -4.11074 0
M  V30 1569 H 141.484 1.28683 -2.97022 0
M  V30 1570 H 140.391 -0.937013 -3.62175 0
M  V30 1571 H 141.724 -1.21375 -4.77 0
M  V30 1572 N 143.376 1.44774 -0.622745 0
M  V30 1573 C 144.286 2.34433 0.0886031 0
M  V30 1574 C 145.302 1.52131 0.844529 0
M  V30 1575 O 146.478 1.84886 0.798691 0
M  V30 1576 C 143.543 3.29986 1.0635 0
M  V30 1577 C 142.604 4.28195 0.307873 0
M  V30 1578 C 141.837 5.19183 1.23633 0
M  V30 1579 O 142.06 5.13918 2.47476 0
M  V30 1580 O 140.994 5.97515 0.725189 0
M  V30 1581 H 144.82 2.96693 -0.648599 0
M  V30 1582 H 142.405 1.44408 -0.382957 0
M  V30 1583 H 144.287 3.88825 1.6246 0
M  V30 1584 H 142.962 2.70269 1.78146 0
M  V30 1585 H 141.869 3.72927 -0.296064 0
M  V30 1586 H 143.202 4.90808 -0.3699 0
M  V30 1587 N 144.854 0.36279 1.53368 0
M  V30 1588 C 146.079 -0.231226 2.06107 0
M  V30 1589 C 146.504 -1.419 1.23474 0
M  V30 1590 O 145.862 -1.79524 0.253128 0
M  V30 1591 C 145.91 -0.605523 3.5548 0
M  V30 1592 O 145.014 -1.70312 3.7559 0
M  V30 1593 H 144.355 -0.034327 0.663112 0
M  V30 1594 H 146.885 0.522584 1.97814 0
M  V30 1595 H 146.895 -0.877314 3.98456 0
M  V30 1596 H 145.57 0.263004 4.15068 0
M  V30 1597 H 144.147 -1.4271 3.44512 0
M  V30 1598 N 146.332 -1.57332 0.0918853 0
M  V30 1599 C 147.264 -2.10869 -0.898168 0
M  V30 1600 C 148.277 -1.04521 -1.24817 0
M  V30 1601 O 149.466 -1.31977 -1.20184 0
M  V30 1602 C 146.566 -2.57083 -2.2082 0
M  V30 1603 C 145.739 -3.87229 -2.03402 0
M  V30 1604 C 144.798 -4.19324 -3.17889 0
M  V30 1605 O 143.824 -4.88598 -2.91994 0
M  V30 1606 N 145.026 -3.74471 -4.43567 0
M  V30 1607 H 147.791 -2.96439 -0.440943 0
M  V30 1608 H 145.352 -1.61631 -0.0933064 0
M  V30 1609 H 147.344 -2.75602 -2.96354 0
M  V30 1610 H 145.914 -1.76541 -2.57977 0
M  V30 1611 H 145.134 -3.7789 -1.12218 0
M  V30 1612 H 146.422 -4.72379 -1.89038 0
M  V30 1613 H 145.82 -3.18546 -4.67488 0
M  V30 1614 H 144.377 -3.98151 -5.16061 0
M  V30 1615 N 147.81 0.181792 -1.56548 0
M  V30 1616 C 148.758 1.24461 -1.965 0
M  V30 1617 C 149.752 1.464 -0.852261 0
M  V30 1618 O 150.958 1.47103 -1.03733 0
M  V30 1619 H 147.333 0.418138 -0.625031 0
M  V30 1620 H 149.304 0.880714 -2.85107 0
M  V30 1621 C 148.053 2.57891 -2.33212 0
M  V30 1622 H 147.376 2.41829 -3.18369 0
M  V30 1623 H 148.816 3.3097 -2.65019 0
M  V30 1624 C 147.275 3.15871 -1.17163 0
M  V30 1625 O 147.805 3.9913 -0.453708 0
M  V30 1626 N 146.011 2.74808 -0.944936 0
M  V30 1627 H 145.558 2.07205 -1.53049 0
M  V30 1628 H 145.516 3.13939 -0.170286 0
M  V30 1629 N 149.288 1.51039 0.449983 0
M  V30 1630 C 150.198 1.74261 1.57067 0
M  V30 1631 C 151.214 0.626363 1.62335 0
M  V30 1632 O 152.39 0.907162 1.79812 0
M  V30 1633 C 149.455 1.85114 2.93144 0
M  V30 1634 C 148.516 3.0893 2.98095 0
M  V30 1635 C 147.749 3.19256 4.27681 0
M  V30 1636 O 147.972 2.35835 5.19363 0
M  V30 1637 O 146.906 4.12144 4.38658 0
M  V30 1638 H 150.732 2.69303 1.40391 0
M  V30 1639 H 148.317 1.35389 0.631688 0
M  V30 1640 H 150.199 1.94311 3.73926 0
M  V30 1641 H 148.874 0.932588 3.09975 0
M  V30 1642 H 147.781 3.0522 2.16314 0
M  V30 1643 H 149.114 4.00433 2.86206 0
M  V30 1644 N 150.766 -0.704594 1.40972 0
M  V30 1645 C 151.991 -1.49858 1.43378 0
M  V30 1646 C 152.416 -1.88061 0.038184 0
M  V30 1647 O 151.774 -1.5402 -0.956425 0
M  V30 1648 C 151.822 -2.74333 2.34038 0
M  V30 1649 O 150.926 -3.7147 1.7912 0
M  V30 1650 H 150.267 -0.45139 0.486974 0
M  V30 1651 H 152.797 -0.866832 1.8533 0
M  V30 1652 H 152.807 -3.22741 2.49604 0
M  V30 1653 H 151.482 -2.45863 3.35446 0
M  V30 1654 H 150.059 -3.30363 1.72958 0
M  V30 1655 N 152.244 -1.26651 -0.937939 0
M  V30 1656 C 153.174 -1.10993 -2.05433 0
M  V30 1657 C 154.155 -0.0142161 -1.70094 0
M  V30 1658 O 155.34 -0.186837 -1.93299 0
M  V30 1659 C 152.47 -0.745561 -3.39203 0
M  V30 1660 C 151.424 -1.79337 -3.88616 0
M  V30 1661 C 150.75 -1.28324 -5.19073 0
M  V30 1662 C 152.05 -3.19553 -4.13138 0
M  V30 1663 H 153.744 -2.0438 -2.1879 0
M  V30 1664 H 151.29 -0.984041 -1.05131 0
M  V30 1665 H 153.243 -0.622888 -4.16771 0
M  V30 1666 H 151.967 0.22401 -3.25831 0
M  V30 1667 H 150.626 -1.90477 -3.13231 0
M  V30 1668 H 150.274 -0.303414 -5.02084 0
M  V30 1669 H 149.974 -1.98369 -5.53103 0
M  V30 1670 H 151.498 -1.1733 -5.99221 0
M  V30 1671 H 152.912 -3.11471 -4.81309 0
M  V30 1672 H 151.309 -3.87218 -4.58457 0
M  V30 1673 H 152.379 -3.65368 -3.18801 0
M  V30 1674 N 153.722 1.14298 -1.08507 0
M  V30 1675 C 154.685 2.17607 -0.719711 0
M  V30 1676 C 155.685 1.58907 0.245997 0
M  V30 1677 O 156.875 1.74181 0.0254081 0
M  V30 1678 C 154.007 3.40842 -0.0627695 0
M  V30 1679 H 155.2 2.51443 -1.63452 0
M  V30 1680 H 152.753 1.28963 -0.88307 0
M  V30 1681 H 153.488 3.12587 0.863716 0
M  V30 1682 H 153.273 3.84713 -0.757504 0
M  V30 1683 H 154.763 4.17221 0.177786 0
M  V30 1684 N 155.201 0.870884 1.31352 0
M  V30 1685 C 156.429 0.49677 2.00848 0
M  V30 1686 C 156.844 -0.910998 1.65367 0
M  V30 1687 O 156.201 -1.59696 0.883374 0
M  V30 1688 C 156.252 0.645308 3.55694 0
M  V30 1689 O 155.973 1.99764 3.89905 0
M  V30 1690 C 157.474 0.272326 4.42463 0
M  V30 1691 H 154.694 0.193462 0.642506 0
M  V30 1692 H 157.238 1.1723 1.67563 0
M  V30 1693 H 155.393 0.0173176 3.87396 0
M  V30 1694 H 155.807 2.00607 4.84621 0
M  V30 1695 H 157.281 0.427208 5.50344 0
M  V30 1696 H 157.758 -0.788587 4.32062 0
M  V30 1697 H 158.364 0.876054 4.1618 0
M  V30 1698 N 156.679 -1.44442 0.630414 0
M  V30 1699 C 157.609 -2.33418 -0.0618083 0
M  V30 1700 C 158.59 -1.48165 -0.835541 0
M  V30 1701 O 159.775 -1.76886 -0.801564 0
M  V30 1702 C 156.905 -3.31222 -1.04449 0
M  V30 1703 C 155.859 -4.26288 -0.382436 0
M  V30 1704 C 155.185 -5.13954 -1.47497 0
M  V30 1705 C 156.485 -5.1744 0.710865 0
M  V30 1706 H 158.179 -2.91548 0.681184 0
M  V30 1707 H 155.725 -1.40191 0.329026 0
M  V30 1708 H 157.678 -3.92351 -1.53748 0
M  V30 1709 H 156.402 -2.71299 -1.81836 0
M  V30 1710 H 155.061 -3.6649 0.0899054 0
M  V30 1711 H 154.709 -4.50385 -2.2397 0
M  V30 1712 H 154.409 -5.7837 -1.03737 0
M  V30 1713 H 155.933 -5.77955 -1.96979 0
M  V30 1714 H 157.347 -5.72509 0.300996 0
M  V30 1715 H 155.744 -5.90455 1.07156 0
M  V30 1716 H 156.814 -4.58496 1.57829 0
M  V30 1717 N 158.157 -0.370918 -1.53173 0
M  V30 1718 C 159.385 0.217704 -2.05751 0
M  V30 1719 C 159.8 1.42018 -1.24404 0
M  V30 1720 O 159.157 1.80245 -0.286033 0
M  V30 1721 C 159.208 0.605954 -3.56385 0
M  V30 1722 O 158.929 -0.548734 -4.3465 0
M  V30 1723 C 160.43 1.2524 -4.25241 0
M  V30 1724 H 157.65 0.0371659 -0.66997 0
M  V30 1725 H 160.194 -0.530832 -1.9749 0
M  V30 1726 H 158.349 1.3044 -3.6478 0
M  V30 1727 H 158.763 -0.23376 -5.23979 0
M  V30 1728 H 160.237 1.47458 -5.3194 0
M  V30 1729 H 160.714 2.2143 -3.79296 0
M  V30 1730 H 161.32 0.595233 -4.21114 0
M  V30 1731 N 159.635 1.57281 -0.100228 0
M  V30 1732 C 160.884 1.93713 0.561984 0
M  V30 1733 C 161.197 0.984492 1.69018 0
M  V30 1734 O 162.403 1.24273 2.41389 0
M  V30 1735 C 160.859 3.4421 1.05106 0
M  V30 1736 C 160.467 4.47975 -0.0476628 0
M  V30 1737 C 162.211 3.89595 1.68571 0
M  V30 1738 C 160.118 5.89631 0.457055 0
M  V30 1739 H 159.048 0.723082 0.2137 0
M  V30 1740 H 161.699 1.82644 -0.177057 0
M  V30 1741 H 160.081 3.50449 1.84395 0
M  V30 1742 H 161.255 4.53385 -0.823333 0
M  V30 1743 H 159.57 4.1223 -0.587816 0
M  V30 1744 H 162.167 4.92832 2.07414 0
M  V30 1745 H 162.51 3.28526 2.55688 0
M  V30 1746 H 163.043 3.86078 0.958562 0
M  V30 1747 H 159.782 6.54411 -0.377616 0
M  V30 1748 H 159.302 5.87681 1.19962 0
M  V30 1749 H 160.981 6.40363 0.92437 0
M  V30 1750 N 161.113 -0.173488 1.56642 0
M  V30 1751 C 162.045 -1.23935 1.92802 0
M  V30 1752 C 163.058 -1.40589 0.820889 0
M  V30 1753 O 164.247 -1.40631 1.09933 0
M  V30 1754 C 161.347 -2.60837 2.16373 0
M  V30 1755 C 160.52 -2.6551 3.47596 0
M  V30 1756 C 159.579 -3.8376 3.60021 0
M  V30 1757 O 158.605 -3.69859 4.32658 0
M  V30 1758 N 159.807 -5.00127 2.94709 0
M  V30 1759 H 162.572 -0.932236 2.84832 0
M  V30 1760 H 160.133 -0.363268 1.57772 0
M  V30 1761 H 162.125 -3.38407 2.21952 0
M  V30 1762 H 160.695 -2.83948 1.30738 0
M  V30 1763 H 159.915 -1.74052 3.53694 0
M  V30 1764 H 161.203 -2.65641 4.33949 0
M  V30 1765 H 160.601 -5.14322 2.35563 0
M  V30 1766 H 159.158 -5.75567 3.05886 0
M  V30 1767 N 162.591 -1.51276 -0.441967 0
M  V30 1768 C 163.839 -1.63392 -1.18943 0
M  V30 1769 C 164.16 -0.350159 -1.9183 0
M  V30 1770 O 163.43 0.633784 -1.85364 0
M  V30 1771 H 162.01 -0.602164 -0.442049 0
M  V30 1772 H 164.672 -1.88186 -0.507165 0
M  V30 1773 H 163.768 -2.45934 -1.92154 0
M  V30 1774 N 164.069 0.697108 -1.41344 0
M  V30 1775 C 165.318 1.45279 -1.39918 0
M  V30 1776 C 165.631 1.95597 -0.0109624 0
M  V30 1777 O 166.837 2.71208 0.125919 0
M  V30 1778 C 165.293 2.62695 -2.46007 0
M  V30 1779 C 164.901 2.19169 -3.90729 0
M  V30 1780 C 166.645 3.40336 -2.53715 0
M  V30 1781 C 164.552 3.33535 -4.88373 0
M  V30 1782 H 163.482 0.545692 -0.520323 0
M  V30 1783 H 166.133 0.756929 -1.67161 0
M  V30 1784 H 164.515 3.34541 -2.11892 0
M  V30 1785 H 165.689 1.54623 -4.34083 0
M  V30 1786 H 164.004 1.54525 -3.86666 0
M  V30 1787 H 166.601 4.2547 -3.2385 0
M  V30 1788 H 166.944 3.85418 -1.5735 0
M  V30 1789 H 167.477 2.75546 -2.86913 0
M  V30 1790 H 164.216 2.93468 -5.86137 0
M  V30 1791 H 163.736 3.96936 -4.49668 0
M  V30 1792 H 165.415 3.99335 -5.09059 0
M  V30 1793 N 165.547 1.27147 0.931209 0
M  V30 1794 C 166.963 1.04475 1.20653 0
M  V30 1795 C 167.163 -0.223885 2.00252 0
M  V30 1796 O 166.219 -0.930332 2.34736 0
M  V30 1797 C 167.532 2.28209 1.95809 0
M  V30 1798 C 169.08 2.33211 2.08762 0
M  V30 1799 C 169.555 3.56665 2.87323 0
M  V30 1800 N 171.046 3.57201 2.94892 0
M  V30 1801 C 171.781 4.49395 3.56134 0
M  V30 1802 N 171.277 5.51889 4.18796 0
M  V30 1803 N 173.07 4.37026 3.53504 0
M  V30 1804 H 165.221 2.08612 0.399333 0
M  V30 1805 H 167.484 0.917312 0.239253 0
M  V30 1806 H 167.19 3.20538 1.44736 0
M  V30 1807 H 167.064 2.33247 2.96438 0
M  V30 1808 H 169.451 1.41391 2.59023 0
M  V30 1809 H 169.532 2.32178 1.07364 0
M  V30 1810 H 169.176 4.4882 2.37746 0
M  V30 1811 H 169.106 3.54948 3.88998 0
M  V30 1812 H 171.597 2.83074 2.50354 0
M  V30 1813 H 171.91 6.18409 4.63454 0
M  V30 1814 H 170.255 5.55735 4.17353 0
M  V30 1815 H 173.446 3.56166 3.03749 0
M  V30 1816 H 173.619 5.09067 4.00942 0
M  V30 1817 N 167.025 -1.13721 1.09112 0
M  V30 1818 C 168.272 -1.84924 0.825192 0
M  V30 1819 C 168.6 -1.83347 -0.649151 0
M  V30 1820 O 167.855 -1.26449 -1.49362 0
M  V30 1821 C 168.154 -3.32861 1.30146 0
M  V30 1822 C 167.82 -3.54621 2.78486 0
M  V30 1823 C 166.482 -3.60268 3.18999 0
M  V30 1824 C 168.834 -3.62855 3.74146 0
M  V30 1825 C 166.162 -3.71679 4.53951 0
M  V30 1826 C 168.514 -3.75793 5.08883 0
M  V30 1827 C 167.178 -3.79692 5.4899 0
M  V30 1828 H 166.448 -0.676684 0.301959 0
M  V30 1829 H 169.095 -1.3428 1.36533 0
M  V30 1830 H 167.4 -3.85835 0.681064 0
M  V30 1831 H 169.097 -3.86395 1.07236 0
M  V30 1832 H 165.687 -3.50879 2.46134 0
M  V30 1833 H 169.871 -3.57775 3.43963 0
M  V30 1834 H 165.127 -3.72963 4.84467 0
M  V30 1835 H 169.301 -3.81107 5.82864 0
M  V30 1836 H 166.928 -3.88287 6.53558 0
M  V30 1837 N 168.503 -0.877838 -1.30888 0
M  V30 1838 C 169.413 -0.343096 -2.32078 0
M  V30 1839 C 170.429 0.551022 -1.65045 0
M  V30 1840 O 171.605 0.445854 -1.96403 0
M  V30 1841 C 168.67 0.439905 -3.43898 0
M  V30 1842 C 167.731 -0.483111 -4.26573 0
M  V30 1843 C 166.964 0.262616 -5.33053 0
M  V30 1844 O 167.187 1.48967 -5.50604 0
M  V30 1845 O 166.121 -0.383593 -6.00676 0
M  V30 1846 H 169.947 -1.18203 -2.79753 0
M  V30 1847 H 167.532 -0.64145 -1.34929 0
M  V30 1848 H 169.414 0.883504 -4.12034 0
M  V30 1849 H 168.089 1.25526 -2.98371 0
M  V30 1850 H 166.996 -0.975374 -3.61161 0
M  V30 1851 H 168.329 -1.26427 -4.75686 0
M  V30 1852 N 169.982 1.44106 -0.638065 0
M  V30 1853 C 171.259 1.95453 -0.0759321 0
M  V30 1854 C 171.639 1.57984 1.40015 0
M  V30 1855 O 170.987 0.857361 2.11806 0
M  V30 1856 C 171.197 3.47655 -0.306132 0
M  V30 1857 C 172.545 4.24114 -0.203008 0
M  V30 1858 O 173.569 3.55405 -0.237871 0
M  V30 1859 O 172.428 5.46381 -0.113827 0
M  V30 1860 H 169.522 0.826797 0.0183332 0
M  V30 1861 H 172.068 1.54122 -0.710251 0
M  V30 1862 H 170.84 3.68 -1.3301 0
M  V30 1863 H 170.463 3.95949 0.361991 0
M  V30 1864 N 171.46 0.379036 1.52974 0
M  V30 1865 C 172.408 -0.476033 2.27677 0
M  V30 1866 C 173.402 -1.0719 1.31174 0
M  V30 1867 O 174.608 -1.01355 1.48752 0
M  V30 1868 H 170.983 -0.172255 0.732006 0
M  V30 1869 H 172.954 0.175615 2.97883 0
M  V30 1870 C 171.703 -1.5967 3.0887 0
M  V30 1871 H 171.026 -1.1475 3.82978 0
M  V30 1872 H 172.466 -2.16943 3.64296 0
M  V30 1873 C 170.925 -2.54682 2.20542 0
M  V30 1874 O 171.455 -3.57836 1.82527 0
M  V30 1875 N 169.661 -2.24183 1.84907 0
M  V30 1876 H 169.208 -1.40333 2.1602 0
M  V30 1877 H 169.166 -2.88006 1.26096 0
M  V30 1878 N 172.938 -1.57226 0.108567 0
M  V30 1879 C 174.186 -1.94448 -0.550853 0
M  V30 1880 C 174.507 -0.992074 -1.67878 0
M  V30 1881 O 173.777 -0.0465 -1.95845 0
M  V30 1882 H 172.357 -0.717897 -0.206479 0
M  V30 1883 H 175.019 -1.94112 0.175062 0
M  V30 1884 H 174.115 -2.97218 -0.952259 0
M  V30 1885 N 174.416 0.165178 -1.56732 0
M  V30 1886 C 175.665 0.879143 -1.81532 0
M  V30 1887 C 175.978 1.83144 -0.686842 0
M  V30 1888 O 177.184 2.58823 -0.819944 0
M  V30 1889 C 175.64 1.61388 -3.21686 0
M  V30 1890 C 175.248 0.704904 -4.4242 0
M  V30 1891 C 176.992 2.3157 -3.55774 0
M  V30 1892 C 174.899 1.44022 -5.73595 0
M  V30 1893 H 173.829 0.332033 -0.676957 0
M  V30 1894 H 176.48 0.132008 -1.83025 0
M  V30 1895 H 174.862 2.40599 -3.14529 0
M  V30 1896 H 176.036 -0.0506815 -4.60772 0
M  V30 1897 H 174.351 0.112419 -4.16248 0
M  V30 1898 H 176.948 2.8719 -4.51028 0
M  V30 1899 H 177.291 3.07201 -2.8095 0
M  V30 1900 H 177.824 1.59297 -3.64513 0
M  V30 1901 H 174.563 0.72612 -6.51466 0
M  V30 1902 H 174.083 2.16898 -5.5921 0
M  V30 1903 H 175.762 1.98606 -6.15764 0
M  V30 1904 N 175.894 1.51508 0.433938 0
M  V30 1905 C 177.124 1.67914 1.20369 0
M  V30 1906 C 177.532 0.377461 1.85397 0
M  V30 1907 O 176.875 -0.654255 1.71654 0
M  V30 1908 C 176.937 2.74045 2.32679 0
M  V30 1909 C 176.601 4.16543 1.87991 0
M  V30 1910 C 177.598 5.01211 1.38145 0
M  V30 1911 C 175.283 4.6266 1.95579 0
M  V30 1912 C 177.277 6.30056 0.964774 0
M  V30 1913 C 174.964 5.91501 1.53523 0
M  V30 1914 C 175.962 6.75027 1.04055 0
M  V30 1915 O 175.65 8.01459 0.625964 0
M  V30 1916 H 175.382 0.566578 0.368735 0
M  V30 1917 H 177.936 1.98709 0.51999 0
M  V30 1918 H 176.166 2.38572 3.04336 0
M  V30 1919 H 177.855 2.79295 2.94532 0
M  V30 1920 H 178.621 4.66783 1.31675 0
M  V30 1921 H 174.5 3.97767 2.33029 0
M  V30 1922 H 178.044 6.95202 0.57796 0
M  V30 1923 H 173.941 6.25442 1.59665 0
M  V30 1924 H 174.709 8.15043 0.751509 0
M  V30 1925 N 177.372 -0.689602 1.41712 0
M  V30 1926 C 178.619 -1.44966 1.4139 0
M  V30 1927 C 178.947 -1.94484 0.025105 0
M  V30 1928 O 178.202 -1.70307 -0.964048 0
M  V30 1929 C 178.501 -2.67298 2.37247 0
M  V30 1930 C 178.167 -2.36405 3.83958 0
M  V30 1931 C 176.829 -2.27691 4.23923 0
M  V30 1932 C 179.181 -2.11043 4.76561 0
M  V30 1933 C 176.509 -1.91719 5.54492 0
M  V30 1934 C 178.861 -1.76578 6.07456 0
M  V30 1935 C 177.525 -1.66363 6.46436 0
M  V30 1936 H 176.795 -0.53047 0.517381 0
M  V30 1937 H 179.442 -0.787655 1.74552 0
M  V30 1938 H 177.747 -3.38461 1.9736 0
M  V30 1939 H 179.444 -3.25452 2.34269 0
M  V30 1940 H 176.034 -2.44085 3.52308 0
M  V30 1941 H 180.218 -2.16717 4.46483 0
M  V30 1942 H 175.474 -1.82367 5.83568 0
M  V30 1943 H 179.648 -1.55974 6.78708 0
M  V30 1944 H 177.275 -1.38258 7.47522 0
M  V30 1945 N 178.85 -1.27639 -0.924453 0
M  V30 1946 C 180.09 -1.15407 -1.68703 0
M  V30 1947 C 180.454 0.294581 -1.89727 0
M  V30 1948 O 181.655 0.539385 -2.63333 0
M  V30 1949 C 179.926 -1.9195 -3.0148 0
M  V30 1950 S 181.485 -1.95969 -3.92609 0
M  V30 1951 H 178.303 -0.411937 -0.579507 0
M  V30 1952 H 180.905 -1.61592 -1.10038 0
M  V30 1953 H 179.609 -2.96387 -2.83871 0
M  V30 1954 H 179.14 -1.46272 -3.65196 0
M  V30 1955 H 181.155 -1.05846 -4.84779 0
M  V30 1956 N 180.328 1.1314 -1.09713 0
M  V30 1957 C 181.26 2.18343 -0.697056 0
M  V30 1958 C 182.273 1.60669 0.262551 0
M  V30 1959 O 183.462 1.78435 0.0481527 0
M  V30 1960 C 180.562 3.38899 -0.00684728 0
M  V30 1961 C 179.735 4.26078 -0.988741 0
M  V30 1962 C 178.794 5.25155 -0.331394 0
M  V30 1963 O 177.82 5.60701 -0.979926 0
M  V30 1964 N 179.022 5.73271 0.913261 0
M  V30 1965 H 181.787 2.5328 -1.60216 0
M  V30 1966 H 179.348 1.28491 -0.984971 0
M  V30 1967 H 181.34 4.02255 0.444191 0
M  V30 1968 H 179.91 3.02175 0.800551 0
M  V30 1969 H 179.13 3.59453 -1.61826 0
M  V30 1970 H 180.418 4.81178 -1.65364 0
M  V30 1971 H 179.816 5.46544 1.45966 0
M  V30 1972 H 178.373 6.3855 1.30757 0
M  V30 1973 N 181.806 0.884767 1.30421 0
M  V30 1974 C 182.738 0.308655 2.27112 0
M  V30 1975 C 183.751 -0.536655 1.53701 0
M  V30 1976 O 184.94 -0.35624 1.74909 0
M  V30 1977 C 182.04 -0.579782 3.33904 0
M  V30 1978 C 181.213 0.236417 4.36761 0
M  V30 1979 C 180.272 -0.582482 5.22966 0
M  V30 1980 O 179.298 -0.00525502 5.692 0
M  V30 1981 N 180.5 -1.89163 5.48815 0
M  V30 1982 H 183.265 1.13964 2.77186 0
M  V30 1983 H 180.826 0.747731 1.43599 0
M  V30 1984 H 182.818 -1.13366 3.88497 0
M  V30 1985 H 181.388 -1.31144 2.83761 0
M  V30 1986 H 180.608 0.97174 3.82035 0
M  V30 1987 H 181.896 0.795924 5.02536 0
M  V30 1988 H 181.294 -2.38352 5.13035 0
M  V30 1989 H 179.851 -2.39296 6.06284 0
M  V30 1990 N 183.284 -1.43765 0.645699 0
M  V30 1991 C 184.231 -2.30745 -0.0504648 0
M  V30 1992 C 185.201 -1.4432 -0.822241 0
M  V30 1993 O 186.386 -1.73202 -0.800358 0
M  V30 1994 C 183.526 -3.29802 -1.0161 0
M  V30 1995 C 182.639 -4.31326 -0.241219 0
M  V30 1996 C 181.774 -5.17469 -1.19998 0
M  V30 1997 C 180.813 -6.10691 -0.415094 0
M  V30 1998 N 179.95 -6.89483 -1.32506 0
M  V30 1999 H 184.79 -2.8973 0.697155 0
M  V30 2000 H 182.327 -1.42738 0.355563 0
M  V30 2001 H 184.285 -3.85734 -1.58949 0
M  V30 2002 H 182.915 -2.72483 -1.73069 0
M  V30 2003 H 181.967 -3.77749 0.448334 0
M  V30 2004 H 183.279 -4.9743 0.369437 0
M  V30 2005 H 182.433 -5.7799 -1.84424 0
M  V30 2006 H 181.172 -4.51473 -1.84455 0
M  V30 2007 H 180.177 -5.49265 0.242565 0
M  V30 2008 H 181.402 -6.78727 0.224966 0
M  V30 2009 H 179.348 -6.26142 -1.95657 0
M  V30 2010 H 179.265 -7.52081 -0.768783 0
M  V30 2011 H 180.533 -7.54516 -1.9577 0
M  V30 2012 N 184.763 -0.387143 -1.52771 0
M  V30 2013 C 186.003 0.195537 -2.03463 0
M  V30 2014 C 186.367 1.44222 -1.26744 0
M  V30 2015 O 187.568 2.10192 -1.67549 0
M  V30 2016 C 185.839 0.459097 -3.54439 0
M  V30 2017 S 187.398 1.01237 -4.26962 0
M  V30 2018 H 184.216 0.0552675 -0.708849 0
M  V30 2019 H 186.818 -0.534992 -1.88037 0
M  V30 2020 H 185.522 -0.455382 -4.07866 0
M  V30 2021 H 185.053 1.21811 -3.74066 0
M  V30 2022 H 187.068 2.29492 -4.39941 0
M  V30 2023 N 186.241 1.57166 -0.116904 0
M  V30 2024 C 187.189 2.16457 0.851418 0
M  V30 2025 C 188.183 1.11323 1.27686 0
M  V30 2026 O 189.389 1.2963 1.24884 0
M  V30 2027 H 185.764 0.69271 0.292672 0
M  V30 2028 H 187.735 2.96605 0.32685 0
M  V30 2029 C 186.484 2.77689 2.09246 0
M  V30 2030 H 185.807 3.58285 1.77402 0
M  V30 2031 H 187.247 3.22716 2.7501 0
M  V30 2032 C 185.706 1.74667 2.88085 0
M  V30 2033 O 186.236 1.19877 3.83396 0
M  V30 2034 N 184.442 1.44656 2.52038 0
M  V30 2035 H 183.989 1.89402 1.74599 0
M  V30 2036 H 183.947 0.759675 3.05084 0
M  V30 2037 N 187.719 -0.156864 1.56817 0
M  V30 2038 C 188.667 -1.21319 1.98455 0
M  V30 2039 C 189.661 -1.45025 0.875444 0
M  V30 2040 O 190.867 -1.45435 1.0606 0
M  V30 2041 H 187.242 -0.408142 0.631605 0
M  V30 2042 H 189.213 -0.835244 2.86472 0
M  V30 2043 C 187.962 -2.54148 2.37285 0
M  V30 2044 H 187.285 -2.36733 3.22176 0
M  V30 2045 H 188.725 -3.26712 2.70251 0
M  V30 2046 C 187.184 -3.13967 1.22173 0
M  V30 2047 O 187.714 -3.98357 0.517149 0
M  V30 2048 N 185.92 -2.7327 0.988536 0
M  V30 2049 H 185.467 -2.04744 1.56326 0
M  V30 2050 H 185.425 -3.13628 0.220209 0
M  V30 2051 N 189.197 -1.51736 -0.425897 0
M  V30 2052 C 190.425 -1.68794 -1.1965 0
M  V30 2053 C 190.84 -0.390164 -1.84725 0
M  V30 2054 O 190.197 0.632376 -1.71194 0
M  V30 2055 C 190.248 -2.81174 -2.27208 0
M  V30 2056 O 189.969 -4.05925 -1.64793 0
M  V30 2057 C 191.47 -3.09599 -3.17275 0
M  V30 2058 H 188.69 -0.566128 -0.360194 0
M  V30 2059 H 191.234 -1.98211 -0.503249 0
M  V30 2060 H 189.389 -2.54324 -2.9223 0
M  V30 2061 H 189.803 -4.68423 -2.35967 0
M  V30 2062 H 191.277 -3.91786 -3.88854 0
M  V30 2063 H 191.754 -2.22468 -3.78688 0
M  V30 2064 H 192.36 -3.38151 -2.57941 0
M  V30 2065 N 190.675 0.682077 -1.42076 0
M  V30 2066 C 191.9 1.47558 -1.45744 0
M  V30 2067 C 192.325 1.87977 -0.0680981 0
M  V30 2068 O 191.683 1.55522 0.9318 0
M  V30 2069 C 191.731 2.70575 -2.38373 0
M  V30 2070 O 190.835 3.68573 -1.85007 0
M  V30 2071 H 190.176 0.443585 -0.494093 0
M  V30 2072 H 192.706 0.837238 -1.86686 0
M  V30 2073 H 192.716 3.18729 -2.54707 0
M  V30 2074 H 191.391 2.40495 -3.39315 0
M  V30 2075 H 189.968 3.2757 -1.78192 0
M  V30 2076 N 192.153 1.28127 0.917671 0
M  V30 2077 C 193.063 1.13556 2.05286 0
M  V30 2078 C 194.079 0.0630914 1.73886 0
M  V30 2079 O 195.255 0.271598 1.9956 0
M  V30 2080 C 192.32 0.794676 3.3747 0
M  V30 2081 C 191.381 1.94909 3.82504 0
M  V30 2082 C 190.614 1.62437 5.0838 0
M  V30 2083 O 190.837 0.536905 5.67867 0
M  V30 2084 O 189.771 2.46677 5.4903 0
M  V30 2085 H 193.597 2.08844 2.20495 0
M  V30 2086 H 191.182 1.07409 1.03845 0
M  V30 2087 H 193.064 0.618344 4.16839 0
M  V30 2088 H 191.739 -0.128581 3.23445 0
M  V30 2089 H 190.646 2.18055 3.03978 0
M  V30 2090 H 191.979 2.85291 4.01086 0
M  V30 2091 N 193.631 -1.12557 1.10312 0
M  V30 2092 C 194.877 -1.84311 0.846011 0
M  V30 2093 C 195.21 -1.83805 -0.626859 0
M  V30 2094 O 194.485 -1.28268 -1.46211 0
M  V30 2095 C 194.768 -3.32048 1.39341 0
M  V30 2096 C 194.621 -3.41016 2.93305 0
M  V30 2097 C 195.94 -4.27764 1.03468 0
M  V30 2098 H 193.059 -0.669192 0.30879 0
M  V30 2099 H 195.701 -1.32057 1.36605 0
M  V30 2100 H 193.851 -3.76678 0.951087 0
M  V30 2101 H 195.523 -3.05031 3.46055 0
M  V30 2102 H 193.766 -2.81603 3.29973 0
M  V30 2103 H 194.437 -4.44948 3.26689 0
M  V30 2104 H 196.913 -3.91253 1.41633 0
M  V30 2105 H 195.789 -5.29549 1.44463 0
M  V30 2106 H 196.05 -4.42064 -0.0560404 0
M  V30 2107 N 195.109 -0.891671 -1.2995 0
M  V30 2108 C 196.339 -0.527893 -1.99742 0
M  V30 2109 C 196.747 0.88979 -1.66971 0
M  V30 2110 O 196.09 1.59766 -0.906667 0
M  V30 2111 C 196.152 -0.630804 -3.53922 0
M  V30 2112 C 195.816 -2.01401 -4.10228 0
M  V30 2113 C 196.813 -2.98422 -4.25724 0
M  V30 2114 C 194.498 -2.32121 -4.45449 0
M  V30 2115 C 196.492 -4.24293 -4.75662 0
M  V30 2116 C 194.179 -3.58237 -4.95086 0
M  V30 2117 C 195.177 -4.54137 -5.10146 0
M  V30 2118 O 194.865 -5.78014 -5.58708 0
M  V30 2119 H 194.597 -0.201953 -0.645129 0
M  V30 2120 H 197.151 -1.20076 -1.66646 0
M  V30 2121 H 195.381 0.0990616 -3.86573 0
M  V30 2122 H 197.07 -0.277338 -4.04951 0
M  V30 2123 H 197.836 -2.76001 -3.98809 0
M  V30 2124 H 193.715 -1.5824 -4.32991 0
M  V30 2125 H 197.259 -4.99153 -4.87332 0
M  V30 2126 H 193.156 -3.80491 -5.21437 0
M  V30 2127 H 193.924 -5.8049 -5.77039 0
M  V30 2128 N 196.587 1.43421 -0.653314 0
M  V30 2129 C 197.519 2.29071 0.0769134 0
M  V30 2130 C 198.532 1.42513 0.787017 0
M  V30 2131 O 199.721 1.66449 0.644757 0
M  V30 2132 C 196.821 3.19436 1.13199 0
M  V30 2133 C 195.994 4.34533 0.500006 0
M  V30 2134 C 195.053 5.05771 1.45198 0
M  V30 2135 O 194.079 5.61037 0.960538 0
M  V30 2136 N 195.281 5.0928 2.78594 0
M  V30 2137 H 198.046 2.92382 -0.658235 0
M  V30 2138 H 195.607 1.54112 -0.496104 0
M  V30 2139 H 197.599 3.63958 1.76964 0
M  V30 2140 H 196.169 2.57724 1.7691 0
M  V30 2141 H 195.389 3.92925 -0.316738 0
M  V30 2142 H 196.677 5.08766 0.0588345 0
M  V30 2143 H 196.075 4.65751 3.2108 0
M  V30 2144 H 194.632 5.57519 3.37662 0
M  V30 2145 N 198.065 0.39524 1.52563 0
M  V30 2146 C 199.313 -0.184678 2.01254 0
M  V30 2147 C 199.634 -1.46822 1.28329 0
M  V30 2148 O 198.904 -1.91666 0.405094 0
M  V30 2149 H 197.484 -0.0712355 0.743596 0
M  V30 2150 H 200.146 0.528293 1.87603 0
M  V30 2151 H 199.242 -0.390681 3.09645 0
M  V30 2152 N 199.544 -1.57102 0.125237 0
M  V30 2153 C 200.784 -1.97294 -0.534259 0
M  V30 2154 C 201.148 -1.0074 -1.63449 0
M  V30 2155 O 202.349 -1.29893 -2.35332 0
M  V30 2156 C 200.62 -3.41705 -1.04748 0
M  V30 2157 S 202.179 -4.03913 -1.71463 0
M  V30 2158 H 198.997 -0.689517 -0.173458 0
M  V30 2159 H 201.599 -1.94349 0.211797 0
M  V30 2160 H 200.303 -4.09723 -0.235649 0
M  V30 2161 H 199.834 -3.48315 -1.82867 0
M  V30 2162 H 201.849 -3.95182 -3.00077 0
M  V30 2163 N 201.022 0.148545 -1.56898 0
M  V30 2164 C 202.27 0.859717 -1.82902 0
M  V30 2165 C 202.591 1.81775 -0.70588 0
M  V30 2166 O 201.861 1.93994 0.272586 0
M  V30 2167 H 200.441 0.320469 -0.674766 0
M  V30 2168 H 203.103 0.142918 -1.94375 0
M  V30 2169 H 202.199 1.4229 -2.77777 0
M  V30 2170 N 202.5 1.5196 0.417844 0
M  V30 2171 C 203.728 1.69426 1.18753 0
M  V30 2172 C 204.143 0.399955 1.84515 0
M  V30 2173 O 203.5 -0.623288 1.71527 0
M  V30 2174 C 203.551 2.82375 2.25714 0
M  V30 2175 O 203.272 4.06793 1.62638 0
M  V30 2176 C 204.773 3.11277 3.15628 0
M  V30 2177 H 201.993 0.568031 0.357186 0
M  V30 2178 H 204.537 1.98475 0.49273 0
M  V30 2179 H 202.692 2.5587 2.90877 0
M  V30 2180 H 203.106 4.69667 2.3348 0
M  V30 2181 H 204.58 3.93843 3.86771 0
M  V30 2182 H 205.057 2.24473 3.77503 0
M  V30 2183 H 205.663 3.39515 2.56144 0
M  V30 2184 N 203.978 -0.674533 1.42435 0
M  V30 2185 C 204.888 -1.81751 1.48337 0
M  V30 2186 C 205.904 -1.69975 0.372099 0
M  V30 2187 O 207.08 -1.91521 0.62304 0
M  V30 2188 C 204.145 -3.17895 1.38361 0
M  V30 2189 C 203.206 -3.41625 2.59982 0
M  V30 2190 C 202.439 -4.71274 2.50473 0
M  V30 2191 O 202.662 -5.49197 1.54075 0
M  V30 2192 O 201.596 -4.96254 3.4061 0
M  V30 2193 H 205.422 -1.79728 2.44809 0
M  V30 2194 H 203.007 -0.830312 1.24202 0
M  V30 2195 H 204.889 -3.99136 1.35161 0
M  V30 2196 H 203.564 -3.20555 0.450144 0
M  V30 2197 H 202.471 -2.60231 2.68757 0
M  V30 2198 H 203.804 -3.43796 3.52229 0
M  V30 2199 N 205.456 -1.28612 -0.910864 0
M  V30 2200 C 206.386 -1.15326 -2.03032 0
M  V30 2201 C 207.367 -0.0502924 -1.70026 0
M  V30 2202 O 208.552 -0.227797 -1.92859 0
M  V30 2203 C 205.682 -0.817343 -3.37545 0
M  V30 2204 C 204.636 -1.8754 -3.84724 0
M  V30 2205 C 203.962 -1.39305 -5.16235 0
M  V30 2206 C 205.262 -3.28244 -4.06267 0
M  V30 2207 H 206.956 -2.08975 -2.14406 0
M  V30 2208 H 204.502 -1.00612 -1.03021 0
M  V30 2209 H 206.455 -0.711151 -4.15356 0
M  V30 2210 H 205.179 0.154846 -3.26233 0
M  V30 2211 H 203.838 -1.97079 -3.09121 0
M  V30 2212 H 203.486 -0.409846 -5.01328 0
M  V30 2213 H 203.186 -2.10057 -5.48771 0
M  V30 2214 H 204.71 -1.30014 -5.96598 0
M  V30 2215 H 206.124 -3.21611 -4.74594 0
M  V30 2216 H 204.521 -3.96855 -4.5014 0
M  V30 2217 H 205.591 -3.72048 -3.10979 0
M  V30 2218 N 206.934 1.1197 -1.10907 0
M  V30 2219 C 208.35 1.35591 -0.841852 0
M  V30 2220 C 208.55 1.94233 0.536246 0
M  V30 2221 O 207.606 2.1717 1.28816 0
M  V30 2222 C 208.919 2.29284 -1.94549 0
M  V30 2223 C 210.467 2.42862 -1.97451 0
M  V30 2224 C 210.942 3.39873 -3.07002 0
M  V30 2225 N 212.433 3.47433 -3.06341 0
M  V30 2226 C 213.168 4.22421 -3.87748 0
M  V30 2227 N 212.664 5.00432 -4.79103 0
M  V30 2228 N 214.457 4.17876 -3.75946 0
M  V30 2229 H 206.608 0.722664 -1.99728 0
M  V30 2230 H 208.871 0.380635 -0.868229 0
M  V30 2231 H 208.577 1.93378 -2.93765 0
M  V30 2232 H 208.451 3.29452 -1.83688 0
M  V30 2233 H 210.838 2.78046 -0.988645 0
M  V30 2234 H 210.919 1.42566 -2.12388 0
M  V30 2235 H 210.563 3.05417 -4.05811 0
M  V30 2236 H 210.493 4.40011 -2.89306 0
M  V30 2237 H 212.984 2.91784 -2.40147 0
M  V30 2238 H 213.297 5.55002 -5.37766 0
M  V30 2239 H 211.642 4.99612 -4.83128 0
M  V30 2240 H 214.833 3.56016 -3.03924 0
M  V30 2241 H 215.006 4.76061 -4.39624 0
M  V30 2242 N 208.412 0.89855 1.29475 0
M  V30 2243 C 209.658 0.524658 1.95896 0
M  V30 2244 C 209.991 -0.926468 1.70676 0
M  V30 2245 O 209.266 -1.65665 1.01908 0
M  V30 2246 C 209.549 0.81633 3.50725 0
M  V30 2247 C 209.402 2.31907 3.85408 0
M  V30 2248 C 210.721 0.302038 4.39062 0
M  V30 2249 H 207.84 0.19209 0.711527 0
M  V30 2250 H 210.482 1.12502 1.53112 0
M  V30 2251 H 208.632 0.305369 3.87298 0
M  V30 2252 H 210.304 2.89949 3.58786 0
M  V30 2253 H 208.547 2.78027 3.32992 0
M  V30 2254 H 209.218 2.47373 4.93468 0
M  V30 2255 H 211.694 0.739551 4.09475 0
M  V30 2256 H 210.57 0.535331 5.46283 0
M  V30 2257 H 210.831 -0.797216 4.34853 0
M  V30 2258 N 209.89 -1.43072 0.660911 0
M  V30 2259 C 210.823 -2.28074 -0.0758862 0
M  V30 2260 C 211.801 -1.40271 -0.822362 0
M  V30 2261 O 212.985 -1.69713 -0.820352 0
M  V30 2262 C 210.112 -3.19843 -1.11437 0
M  V30 2263 C 209.158 -4.23957 -0.465069 0
M  V30 2264 S 209.991 -5.29978 0.767078 0
M  V30 2265 C 211.147 -6.25314 -0.270682 0
M  V30 2266 H 211.38 -2.90216 0.645139 0
M  V30 2267 H 208.913 -1.47697 0.449995 0
M  V30 2268 H 210.871 -3.73257 -1.70849 0
M  V30 2269 H 209.532 -2.56863 -1.80776 0
M  V30 2270 H 208.725 -4.88299 -1.24819 0
M  V30 2271 H 208.327 -3.73959 0.0551242 0
M  V30 2272 H 210.619 -6.67932 -1.13459 0
M  V30 2273 H 211.562 -7.07293 0.337916 0
M  V30 2274 H 211.97 -5.61195 -0.609937 0
M  V30 2275 N 211.368 -0.403325 -1.52352 0
M  V30 2276 C 212.616 0.174003 -2.0135 0
M  V30 2277 C 212.937 1.46139 -1.29106 0
M  V30 2278 O 212.207 1.91448 -0.415253 0
M  V30 2279 H 210.787 0.0672911 -0.743963 0
M  V30 2280 H 213.449 -0.538235 -1.87321 0
M  V30 2281 H 212.545 0.374254 -3.09848 0
M  V30 2282 N 212.846 1.57033 -0.133567 0
M  V30 2283 C 214.093 1.95686 0.520877 0
M  V30 2284 C 214.421 1.0177 1.6575 0
M  V30 2285 O 213.676 0.0443195 1.9565 0
M  V30 2286 C 213.975 3.40674 1.08057 0
M  V30 2287 C 213.641 4.50855 0.0637899 0
M  V30 2288 C 212.303 4.80716 -0.215757 0
M  V30 2289 C 214.655 5.17398 -0.62835 0
M  V30 2290 C 211.983 5.74433 -1.19348 0
M  V30 2291 C 214.335 6.12167 -1.5948 0
M  V30 2292 C 212.999 6.40414 -1.88218 0
M  V30 2293 H 212.269 0.716067 0.190602 0
M  V30 2294 H 214.916 1.9026 -0.217556 0
M  V30 2295 H 213.221 3.42865 1.89606 0
M  V30 2296 H 214.918 3.67902 1.59529 0
M  V30 2297 H 211.508 4.27605 0.291855 0
M  V30 2298 H 215.692 4.94472 -0.425562 0
M  V30 2299 H 210.948 5.94616 -1.42272 0
M  V30 2300 H 215.122 6.6281 -2.13671 0
M  V30 2301 H 212.749 7.12838 -2.64133 0
M  V30 2302 N 214.325 -0.140222 1.56975 0
M  V30 2303 C 215.55 -0.870414 1.88251 0
M  V30 2304 C 215.975 -1.73637 0.723312 0
M  V30 2305 O 215.333 -1.78329 -0.32689 0
M  V30 2306 C 215.381 -1.69737 3.18154 0
M  V30 2307 O 214.485 -2.80229 3.02565 0
M  V30 2308 H 213.826 -0.242025 0.61832 0
M  V30 2309 H 216.356 -0.128999 2.04193 0
M  V30 2310 H 216.366 -2.09099 3.50345 0
M  V30 2311 H 215.041 -1.06152 4.02125 0
M  V30 2312 H 213.618 -2.44224 2.81796 0
M  V30 2313 N 215.803 -1.52179 -0.40978 0
M  V30 2314 C 217.031 -1.70054 -1.17853 0
M  V30 2315 C 217.446 -0.409735 -1.843 0
M  V30 2316 O 216.803 0.614183 -1.71855 0
M  V30 2317 C 216.854 -2.83568 -2.24213 0
M  V30 2318 O 216.575 -4.0765 -1.60478 0
M  V30 2319 C 218.076 -3.12947 -3.13973 0
M  V30 2320 H 215.296 -0.569917 -0.354169 0
M  V30 2321 H 217.84 -1.98734 -0.482198 0
M  V30 2322 H 215.995 -2.57409 -2.89516 0
M  V30 2323 H 216.409 -4.70899 -2.30986 0
M  V30 2324 H 217.883 -3.95889 -3.84677 0
M  V30 2325 H 218.36 -2.26472 -3.76307 0
M  V30 2326 H 218.966 -3.40868 -2.5434 0
M  V30 2327 N 217.281 0.66697 -1.42791 0
M  V30 2328 C 218.211 1.79218 -1.49677 0
M  V30 2329 C 219.192 1.66405 -0.352623 0
M  V30 2330 O 220.377 1.85708 -0.567993 0
M  V30 2331 C 217.507 3.17565 -1.40605 0
M  V30 2332 C 216.461 3.45124 -2.53127 0
M  V30 2333 C 215.787 4.83127 -2.29112 0
M  V30 2334 C 217.087 3.41236 -3.95418 0
M  V30 2335 H 218.781 1.73713 -2.43853 0
M  V30 2336 H 216.327 0.83432 -1.17367 0
M  V30 2337 H 218.28 3.96022 -1.44029 0
M  V30 2338 H 217.004 3.23767 -0.429271 0
M  V30 2339 H 215.663 2.69031 -2.49034 0
M  V30 2340 H 215.311 4.85988 -1.29709 0
M  V30 2341 H 215.011 5.02528 -3.04531 0
M  V30 2342 H 216.535 5.63859 -2.34297 0
M  V30 2343 H 217.949 4.09651 -4.01073 0
M  V30 2344 H 216.346 3.72173 -4.70752 0
M  V30 2345 H 217.416 2.39665 -4.21532 0
M  V30 2346 N 218.759 1.29093 0.90403 0
M  V30 2347 C 219.722 1.1386 1.98919 0
M  V30 2348 C 220.722 0.0753457 1.60623 0
M  V30 2349 O 221.912 0.321931 1.71199 0
M  V30 2350 C 219.044 0.740198 3.32767 0
M  V30 2351 H 220.237 2.10246 2.13861 0
M  V30 2352 H 217.79 1.12218 1.08797 0
M  V30 2353 H 218.525 -0.223997 3.23525 0
M  V30 2354 H 218.31 1.50838 3.61926 0
M  V30 2355 H 219.8 0.656546 4.12407 0
M  V30 2356 N 220.237 -1.11381 1.11499 0
M  V30 2357 C 221.169 -2.17207 0.731704 0
M  V30 2358 C 222.182 -1.61066 -0.236957 0
M  V30 2359 O 223.371 -1.78489 -0.0197591 0
M  V30 2360 C 220.471 -3.38846 0.0607624 0
M  V30 2361 C 219.644 -4.24451 1.0564 0
M  V30 2362 C 218.703 -5.24562 0.4149 0
M  V30 2363 O 217.729 -5.59071 1.069 0
M  V30 2364 N 218.931 -5.74651 -0.821943 0
M  V30 2365 H 221.696 -2.50699 1.64225 0
M  V30 2366 H 219.257 -1.26908 1.00529 0
M  V30 2367 H 221.249 -4.02911 -0.380139 0
M  V30 2368 H 219.819 -3.03411 -0.752376 0
M  V30 2369 H 219.039 -3.56833 1.67524 0
M  V30 2370 H 220.327 -4.78486 1.72998 0
M  V30 2371 H 219.725 -5.48797 -1.37252 0
M  V30 2372 H 218.282 -6.40549 -1.20582 0
M  V30 2373 N 221.715 -0.905404 -1.28997 0
M  V30 2374 C 222.645 -0.404212 -2.29975 0
M  V30 2375 C 223.626 0.523784 -1.61835 0
M  V30 2376 O 224.811 0.433298 -1.89304 0
M  V30 2377 C 221.941 0.364042 -3.45387 0
M  V30 2378 C 220.895 -0.474048 -4.25367 0
M  V30 2379 C 220.221 0.422045 -5.33032 0
M  V30 2380 C 221.521 -1.72696 -4.92923 0
M  V30 2381 H 223.215 -1.24807 -2.72146 0
M  V30 2382 H 220.761 -0.601585 -1.30832 0
M  V30 2383 H 222.714 0.725447 -4.15109 0
M  V30 2384 H 221.438 1.24174 -3.02074 0
M  V30 2385 H 220.097 -0.81786 -3.57361 0
M  V30 2386 H 219.745 1.29804 -4.85963 0
M  V30 2387 H 219.445 -0.135057 -5.87445 0
M  V30 2388 H 220.969 0.779517 -6.05604 0
M  V30 2389 H 222.383 -1.43495 -5.55051 0
M  V30 2390 H 220.78 -2.22582 -5.57295 0
M  V30 2391 H 221.85 -2.45964 -4.17887 0
M  V30 2392 N 223.193 1.4272 -0.668489 0
M  V30 2393 C 224.14 2.30796 0.0137489 0
M  V30 2394 C 225.11 1.4561 0.799177 0
M  V30 2395 O 226.295 1.74453 0.772702 0
M  V30 2396 C 223.435 3.31377 0.963507 0
M  V30 2397 C 222.548 4.31655 0.172569 0
M  V30 2398 C 221.683 5.19312 1.1175 0
M  V30 2399 C 220.722 6.11274 0.317886 0
M  V30 2400 N 219.859 6.91504 1.2152 0
M  V30 2401 H 224.699 2.88585 -0.743161 0
M  V30 2402 H 222.236 1.42154 -0.378226 0
M  V30 2403 H 224.194 3.88214 1.52792 0
M  V30 2404 H 222.824 2.75202 1.68712 0
M  V30 2405 H 221.876 3.76988 -0.508374 0
M  V30 2406 H 223.188 4.96779 -0.448527 0
M  V30 2407 H 222.342 5.80851 1.75206 0
M  V30 2408 H 221.081 4.5435 1.77249 0
M  V30 2409 H 220.086 5.48809 -0.329918 0
M  V30 2410 H 221.311 6.78283 -0.332917 0
M  V30 2411 H 219.257 6.29176 1.85671 0
M  V30 2412 H 219.174 7.53209 0.649036 0
M  V30 2413 H 220.442 7.57535 1.83742 0
M  V30 2414 N 224.671 0.411399 1.52136 0
M  V30 2415 C 225.603 -0.448386 2.24771 0
M  V30 2416 C 226.616 -1.00828 1.27818 0
M  V30 2417 O 227.805 -0.906841 1.53749 0
M  V30 2418 C 224.905 -1.63636 2.96777 0
M  V30 2419 C 224.078 -1.19995 4.20618 0
M  V30 2420 C 223.137 -2.25509 4.75428 0
M  V30 2421 O 222.163 -1.86007 5.3795 0
M  V30 2422 N 223.365 -3.577 4.57199 0
M  V30 2423 H 226.13 0.174025 2.99194 0
M  V30 2424 H 223.691 0.238897 1.60128 0
M  V30 2425 H 225.683 -2.33793 3.30338 0
M  V30 2426 H 224.253 -2.16465 2.25526 0
M  V30 2427 H 223.473 -0.326421 3.92846 0
M  V30 2428 H 224.761 -0.885365 5.01038 0
M  V30 2429 H 224.159 -3.92543 4.07341 0
M  V30 2430 H 222.716 -4.23827 4.95191 0
M  V30 2431 N 226.149 -1.5696 0.141893 0
M  V30 2432 C 227.565 -1.58151 -0.21456 0
M  V30 2433 C 227.765 -1.1559 -1.65049 0
M  V30 2434 O 226.821 -0.853832 -2.37626 0
M  V30 2435 C 228.134 -3.00674 0.0395576 0
M  V30 2436 C 229.682 -3.1299 -0.0245529 0
M  V30 2437 C 230.157 -4.57554 0.202167 0
M  V30 2438 N 231.648 -4.62961 0.148919 0
M  V30 2439 C 232.383 -5.7262 0.298924 0
M  V30 2440 N 231.879 -6.90947 0.50637 0
M  V30 2441 N 233.672 -5.61601 0.236886 0
M  V30 2442 H 225.823 -1.8292 1.07953 0
M  V30 2443 H 228.086 -0.846425 0.42693 0
M  V30 2444 H 227.792 -3.36183 1.03315 0
M  V30 2445 H 227.666 -3.70981 -0.682143 0
M  V30 2446 H 230.053 -2.77326 -1.00869 0
M  V30 2447 H 230.134 -2.4518 0.729396 0
M  V30 2448 H 229.778 -4.93922 1.18338 0
M  V30 2449 H 229.708 -5.23484 -0.572044 0
M  V30 2450 H 232.199 -3.77899 -0.00697015 0
M  V30 2451 H 232.512 -7.7038 0.611076 0
M  V30 2452 H 230.857 -6.92878 0.542628 0
M  V30 2453 H 234.048 -4.68039 0.0756209 0
M  V30 2454 H 234.221 -6.47015 0.357227 0
M  V30 2455 N 227.627 0.131896 -1.57047 0
M  V30 2456 C 228.575 1.18146 -2.0036 0
M  V30 2457 C 229.569 1.43614 -0.898406 0
M  V30 2458 O 230.775 1.43729 -1.08361 0
M  V30 2459 H 227.15 0.398042 -0.638018 0
M  V30 2460 H 229.121 0.789564 -2.87765 0
M  V30 2461 C 227.87 2.50341 -2.41298 0
M  V30 2462 H 227.193 2.31578 -3.25902 0
M  V30 2463 H 228.633 3.22371 -2.75414 0
M  V30 2464 C 227.092 3.11984 -1.27153 0
M  V30 2465 O 227.622 3.97484 -0.580459 0
M  V30 2466 N 225.828 2.71662 -1.03189 0
M  V30 2467 H 225.375 2.02231 -1.59564 0
M  V30 2468 H 225.333 3.13238 -0.270077 0
M  V30 2469 N 229.106 1.52395 0.401703 0
M  V30 2470 C 230.334 1.70676 1.16949 0
M  V30 2471 C 230.749 0.419503 1.8408 0
M  V30 2472 O 230.106 -0.605061 1.72178 0
M  V30 2473 C 230.157 2.84753 2.22706 0
M  V30 2474 O 229.878 4.08495 1.58314 0
M  V30 2475 C 231.379 3.14608 3.12309 0
M  V30 2476 H 228.599 0.571787 0.351142 0
M  V30 2477 H 231.143 1.98987 0.471652 0
M  V30 2478 H 229.298 2.58941 2.88147 0
M  V30 2479 H 229.712 4.72117 2.28485 0
M  V30 2480 H 231.186 3.97923 3.82572 0
M  V30 2481 H 231.663 2.28464 3.75101 0
M  V30 2482 H 232.269 3.42212 2.52529 0
M  V30 2483 N 230.584 -0.659388 1.43143 0
M  V30 2484 C 231.514 -1.78422 1.50625 0
M  V30 2485 C 232.495 -1.66216 0.361443 0
M  V30 2486 O 233.68 -1.85404 0.577834 0
M  V30 2487 C 230.81 -3.16815 1.42287 0
M  V30 2488 C 229.764 -3.43777 2.54954 0
M  V30 2489 C 229.09 -4.81905 2.31671 0
M  V30 2490 C 230.39 -3.39134 3.97222 0
M  V30 2491 H 232.084 -1.72417 2.44771 0
M  V30 2492 H 229.63 -0.828084 1.17808 0
M  V30 2493 H 231.583 -3.95253 1.46127 0
M  V30 2494 H 230.307 -3.23534 0.446435 0
M  V30 2495 H 228.966 -2.67707 2.50457 0
M  V30 2496 H 228.614 -4.85294 1.32284 0
M  V30 2497 H 228.314 -5.00906 3.07192 0
M  V30 2498 H 229.838 -5.62609 2.37284 0
M  V30 2499 H 231.252 -4.07518 4.03239 0
M  V30 2500 H 229.649 -3.69671 4.72719 0
M  V30 2501 H 230.719 -2.37426 4.22797 0
M  V30 2502 N 232.062 -1.29571 -0.897171 0
M  V30 2503 C 233.009 -1.14916 -2.00158 0
M  V30 2504 C 233.979 -0.0418149 -1.66047 0
M  V30 2505 O 235.164 -0.209793 -1.89643 0
M  V30 2506 C 232.304 -0.834307 -3.34863 0
M  V30 2507 C 231.417 -2.02234 -3.8174 0
M  V30 2508 C 230.552 -1.64664 -5.05034 0
M  V30 2509 C 229.591 -2.80033 -5.44286 0
M  V30 2510 N 228.728 -2.42843 -6.58765 0
M  V30 2511 H 233.568 -2.09403 -2.12025 0
M  V30 2512 H 231.105 -1.042 -1.0383 0
M  V30 2513 H 233.063 -0.632436 -4.12379 0
M  V30 2514 H 231.693 0.0736656 -3.22716 0
M  V30 2515 H 230.745 -2.33583 -3.00238 0
M  V30 2516 H 232.057 -2.88673 -4.06779 0
M  V30 2517 H 231.211 -1.4078 -5.9014 0
M  V30 2518 H 229.95 -0.753766 -4.8184 0
M  V30 2519 H 228.955 -3.04596 -4.57713 0
M  V30 2520 H 230.18 -3.69989 -5.6946 0
M  V30 2521 H 228.126 -1.56046 -6.3717 0
M  V30 2522 H 228.043 -3.22815 -6.83613 0
M  V30 2523 H 229.311 -2.22285 -7.47134 0
M  V30 2524 N 233.54 1.10788 -1.12088 0
M  V30 2525 C 234.817 1.79136 -0.785476 0
M  V30 2526 C 235.197 1.98246 0.725377 0
M  V30 2527 O 234.545 1.57258 1.65778 0
M  V30 2528 C 234.755 3.12375 -1.55636 0
M  V30 2529 C 236.103 3.8731 -1.74001 0
M  V30 2530 O 237.127 3.22085 -1.52117 0
M  V30 2531 O 235.986 5.04369 -2.10415 0
M  V30 2532 H 233.08 0.776226 -0.285311 0
M  V30 2533 H 235.626 1.1747 -1.2247 0
M  V30 2534 H 234.398 2.93863 -2.5838 0
M  V30 2535 H 234.021 3.81758 -1.11114 0
M  V30 2536 N 235.018 0.912232 1.28515 0
M  V30 2537 C 236.266 0.543523 1.94654 0
M  V30 2538 C 236.587 -0.9155 1.72173 0
M  V30 2539 O 235.857 -1.64708 1.06058 0
M  V30 2540 H 234.437 0.198017 0.720277 0
M  V30 2541 H 237.099 1.16126 1.56527 0
M  V30 2542 H 236.195 0.736684 3.03281 0
M  V30 2543 N 236.496 -1.42363 0.676048 0
M  V30 2544 C 237.745 -2.00745 0.196037 0
M  V30 2545 C 238.058 -1.54083 -1.20489 0
M  V30 2546 O 239.264 -2.04891 -1.78134 0
M  V30 2547 C 237.72 -3.58651 0.299616 0
M  V30 2548 C 237.328 -4.143 1.70468 0
M  V30 2549 C 239.072 -4.24326 -0.121619 0
M  V30 2550 C 236.979 -5.64574 1.76096 0
M  V30 2551 H 235.909 -0.750787 0.0695301 0
M  V30 2552 H 238.56 -1.63072 0.841412 0
M  V30 2553 H 236.942 -3.93833 -0.413673 0
M  V30 2554 H 238.116 -3.90575 2.44515 0
M  V30 2555 H 236.431 -3.61081 2.07387 0
M  V30 2556 H 239.028 -5.34607 -0.0997362 0
M  V30 2557 H 239.371 -3.99897 -1.15708 0
M  V30 2558 H 239.904 -3.94108 0.540706 0
M  V30 2559 H 236.643 -5.93804 2.77628 0
M  V30 2560 H 236.163 -5.90286 1.06406 0
M  V30 2561 H 237.842 -6.29013 1.51496 0
M  V30 2562 N 237.974 -0.419461 -1.51915 0
M  V30 2563 C 239.223 0.154346 -2.01109 0
M  V30 2564 C 239.536 1.45338 -1.30905 0
M  V30 2565 O 240.742 2.10906 -1.7097 0
M  V30 2566 C 239.198 0.325615 -3.58424 0
M  V30 2567 C 238.806 -0.961934 -4.37551 0
M  V30 2568 C 240.55 0.854155 -4.15818 0
M  V30 2569 C 238.457 -0.757287 -5.86531 0
M  V30 2570 H 237.387 0.0614563 -0.751491 0
M  V30 2571 H 240.038 -0.54649 -1.75173 0
M  V30 2572 H 238.42 1.08903 -3.80731 0
M  V30 2573 H 239.594 -1.7323 -4.26999 0
M  V30 2574 H 237.909 -1.41766 -3.91524 0
M  V30 2575 H 240.506 1.02346 -5.24814 0
M  V30 2576 H 240.849 1.83172 -3.73837 0
M  V30 2577 H 241.382 0.149528 -3.97519 0
M  V30 2578 H 238.121 -1.70671 -6.32892 0
M  V30 2579 H 237.641 -0.0264061 -5.99794 0
M  V30 2580 H 239.32 -0.403482 -6.45741 0
M  V30 2581 N 239.452 1.56882 -0.150215 0
M  V30 2582 C 240.385 2.12712 0.826358 0
M  V30 2583 C 241.363 1.05154 1.24022 0
M  V30 2584 O 242.547 1.33004 1.33575 0
M  V30 2585 C 239.674 2.64945 2.11002 0
M  V30 2586 C 238.72 3.8468 1.84183 0
M  V30 2587 S 239.553 5.25502 1.02995 0
M  V30 2588 C 240.709 5.81125 2.32474 0
M  V30 2589 H 240.942 2.95214 0.351598 0
M  V30 2590 H 238.475 1.54267 0.0641211 0
M  V30 2591 H 240.433 2.95689 2.84742 0
M  V30 2592 H 239.094 1.82568 2.55593 0
M  V30 2593 H 238.287 4.19482 2.79375 0
M  V30 2594 H 237.889 3.54714 1.1855 0
M  V30 2595 H 240.181 5.92753 3.281 0
M  V30 2596 H 241.124 6.78625 2.02171 0
M  V30 2597 H 241.532 5.09392 2.43269 0
M  V30 2598 N 240.93 -0.123565 1.57115 0
M  V30 2599 C 242.179 -0.830704 1.83799 0
M  V30 2600 C 242.492 -1.81259 0.735158 0
M  V30 2601 O 243.698 -2.56558 0.888278 0
M  V30 2602 C 242.154 -1.52802 3.25852 0
M  V30 2603 C 241.762 -0.587356 4.44133 0
M  V30 2604 C 243.506 -2.22056 3.61789 0
M  V30 2605 C 241.413 -1.28764 5.77212 0
M  V30 2606 H 240.343 -0.313967 0.685522 0
M  V30 2607 H 242.994 -0.0834359 1.8331 0
M  V30 2608 H 241.376 -2.32175 3.20797 0
M  V30 2609 H 242.55 0.172829 4.60476 0
M  V30 2610 H 240.865 -0.00201892 4.164 0
M  V30 2611 H 243.462 -2.75131 4.58483 0
M  V30 2612 H 243.805 -2.99644 2.88997 0
M  V30 2613 H 244.338 -1.49576 3.68608 0
M  V30 2614 H 241.077 -0.55314 6.53162 0
M  V30 2615 H 240.597 -2.01995 5.64764 0
M  V30 2616 H 242.276 -1.8221 6.20813 0
M  V30 2617 N 242.408 -1.52605 -0.393616 0
M  V30 2618 C 243.34 -1.73303 -1.49995 0
M  V30 2619 C 244.353 -0.613473 -1.50799 0
M  V30 2620 O 245.542 -0.889049 -1.54784 0
M  V30 2621 C 242.642 -1.77245 -2.88855 0
M  V30 2622 C 241.815 -3.06483 -3.12069 0
M  V30 2623 C 240.874 -3.02033 -4.30886 0
M  V30 2624 O 239.9 -3.75907 -4.27414 0
M  V30 2625 N 241.102 -2.20897 -5.36828 0
M  V30 2626 H 243.867 -2.68756 -1.32629 0
M  V30 2627 H 241.428 -1.51036 -0.583083 0
M  V30 2628 H 243.42 -1.7178 -3.66434 0
M  V30 2629 H 241.99 -0.891993 -2.99603 0
M  V30 2630 H 241.21 -3.25474 -2.22396 0
M  V30 2631 H 242.498 -3.91947 -3.2443 0
M  V30 2632 H 241.896 -1.60336 -5.42502 0
M  V30 2633 H 240.453 -2.21275 -6.13091 0
M  V30 2634 N 243.887 0.651787 -1.4349 0
M  V30 2635 C 245.115 1.43937 -1.48626 0
M  V30 2636 C 245.53 1.8851 -0.104587 0
M  V30 2637 O 244.887 1.5958 0.885464 0
M  V30 2638 C 244.938 2.6734 -2.43334 0
M  V30 2639 O 244.659 2.24631 -3.76128 0
M  V30 2640 C 246.16 3.60683 -2.57726 0
M  V30 2641 H 243.38 0.44213 -0.504739 0
M  V30 2642 H 245.924 0.798944 -1.88248 0
M  V30 2643 H 244.079 3.2752 -2.06904 0
M  V30 2644 H 244.493 3.04485 -4.2707 0
M  V30 2645 H 245.967 4.43933 -3.28067 0
M  V30 2646 H 246.444 4.08126 -1.62265 0
M  V30 2647 H 247.05 3.06384 -2.94973 0
M  V30 2648 N 245.365 1.30045 0.890287 0
M  V30 2649 C 246.295 1.18541 2.01172 0
M  V30 2650 C 247.276 0.0773356 1.69924 0
M  V30 2651 O 248.461 0.25845 1.92473 0
M  V30 2652 C 245.591 0.870941 3.36202 0
M  V30 2653 C 244.545 1.93637 3.81692 0
M  V30 2654 C 243.871 1.475 5.13953 0
M  V30 2655 C 245.171 3.34666 4.00994 0
M  V30 2656 H 246.865 2.12359 2.11054 0
M  V30 2657 H 244.411 1.02238 1.01407 0
M  V30 2658 H 246.364 0.777141 4.14172 0
M  V30 2659 H 245.088 -0.102926 3.26438 0
M  V30 2660 H 243.747 2.01972 3.05946 0
M  V30 2661 H 243.395 0.489551 5.00612 0
M  V30 2662 H 243.095 2.1876 5.4536 0
M  V30 2663 H 244.619 1.39489 5.94454 0
M  V30 2664 H 246.033 3.2912 4.69417 0
M  V30 2665 H 244.43 4.03966 4.43769 0
M  V30 2666 H 245.5 3.76949 3.05021 0
M  V30 2667 N 246.843 -1.10192 1.12674 0
M  V30 2668 C 247.773 -2.18652 0.819362 0
M  V30 2669 C 248.754 -1.68698 -0.217915 0
M  V30 2670 O 249.939 -1.94041 -0.0785581 0
M  V30 2671 C 247.069 -3.46202 0.27594 0
M  V30 2672 C 246.023 -4.09444 1.24656 0
M  V30 2673 C 245.349 -5.31725 0.563258 0
M  V30 2674 C 246.649 -4.52863 2.60217 0
M  V30 2675 H 248.343 -2.44622 1.72628 0
M  V30 2676 H 245.889 -1.17571 0.831451 0
M  V30 2677 H 247.842 -4.21372 0.0486149 0
M  V30 2678 H 246.566 -3.1973 -0.666331 0
M  V30 2679 H 245.225 -3.36284 1.45974 0
M  V30 2680 H 244.873 -5.0153 -0.384235 0
M  V30 2681 H 244.573 -5.74991 1.21075 0
M  V30 2682 H 246.097 -6.09624 0.34503 0
M  V30 2683 H 247.511 -5.19294 2.42913 0
M  V30 2684 H 245.908 -5.06986 3.21068 0
M  V30 2685 H 246.978 -3.65656 3.18471 0
M  V30 2686 N 248.321 -0.919034 -1.28029 0
M  V30 2687 C 249.57 -0.550802 -1.94034 0
M  V30 2688 C 249.883 0.910877 -1.73096 0
M  V30 2689 O 251.089 1.3875 -2.33368 0
M  V30 2690 C 249.545 -0.934249 -3.47563 0
M  V30 2691 C 249.153 -2.41602 -3.7727 0
M  V30 2692 C 250.897 -0.636854 -4.19696 0
M  V30 2693 C 248.804 -2.73932 -5.24133 0
M  V30 2694 H 247.734 -0.202273 -0.726362 0
M  V30 2695 H 250.385 -1.11867 -1.45458 0
M  V30 2696 H 248.767 -0.295115 -3.94899 0
M  V30 2697 H 249.941 -3.10233 -3.40723 0
M  V30 2698 H 248.256 -2.68441 -3.18321 0
M  V30 2699 H 250.853 -0.855005 -5.2782 0
M  V30 2700 H 251.196 0.425575 -4.14119 0
M  V30 2701 H 251.729 -1.23469 -3.78154 0
M  V30 2702 H 248.468 -3.79049 -5.34792 0
M  V30 2703 H 247.988 -2.09942 -5.61858 0
M  V30 2704 H 249.667 -2.61215 -5.91925 0
M  V30 2705 N 249.799 1.42003 -0.683588 0
M  V30 2706 C 251.048 2.00638 -0.206681 0
M  V30 2707 C 251.361 1.5472 1.19671 0
M  V30 2708 O 252.567 2.05833 1.77045 0
M  V30 2709 C 251.023 3.58487 -0.318632 0
M  V30 2710 C 250.631 4.1339 -1.72663 0
M  V30 2711 C 252.375 4.24384 0.0991141 0
M  V30 2712 C 250.282 5.63633 -1.79087 0
M  V30 2713 H 249.212 0.750408 -0.0735107 0
M  V30 2714 H 251.863 1.62624 -0.850048 0
M  V30 2715 H 250.245 3.94047 0.392781 0
M  V30 2716 H 251.419 3.89273 -2.46583 0
M  V30 2717 H 249.734 3.59976 -2.09299 0
M  V30 2718 H 252.331 5.34652 0.0713833 0
M  V30 2719 H 252.674 4.00505 1.13586 0
M  V30 2720 H 253.207 3.93816 -0.561599 0
M  V30 2721 H 249.946 5.92323 -2.80774 0
M  V30 2722 H 249.466 5.89714 -1.09535 0
M  V30 2723 H 251.145 6.28201 -1.5483 0
M  V30 2724 N 251.277 0.427512 1.51691 0
M  V30 2725 C 252.207 -0.3796 2.30394 0
M  V30 2726 C 253.188 -1.02982 1.35384 0
M  V30 2727 O 254.373 -1.03534 1.643 0
M  V30 2728 C 251.503 -1.48649 3.1388 0
M  V30 2729 C 250.457 -0.960294 4.17088 0
M  V30 2730 C 249.783 -2.16219 4.89033 0
M  V30 2731 C 251.083 -0.00153679 5.223 0
M  V30 2732 H 252.777 0.277164 2.98114 0
M  V30 2733 H 250.323 0.134739 1.43368 0
M  V30 2734 H 252.276 -2.05826 3.67714 0
M  V30 2735 H 251 -2.1714 2.43962 0
M  V30 2736 H 249.659 -0.410806 3.64291 0
M  V30 2737 H 249.307 -2.83307 4.15628 0
M  V30 2738 H 249.007 -1.81654 5.58816 0
M  V30 2739 H 250.531 -2.73968 5.45687 0
M  V30 2740 H 251.945 -0.482687 5.71264 0
M  V30 2741 H 250.342 0.256199 5.99553 0
M  V30 2742 H 251.412 0.938174 4.75738 0
M  V30 2743 N 252.755 -1.56801 0.158532 0
M  V30 2744 C 254.002 -1.9649 -0.489679 0
M  V30 2745 C 254.33 -1.04394 -1.6411 0
M  V30 2746 O 253.585 -0.0754401 -1.95555 0
M  V30 2747 C 253.884 -3.4235 -1.02623 0
M  V30 2748 C 253.55 -4.50899 0.00794526 0
M  V30 2749 C 252.212 -4.80312 0.292207 0
M  V30 2750 C 254.564 -5.16333 0.710584 0
M  V30 2751 C 251.892 -5.72461 1.28472 0
M  V30 2752 C 254.244 -6.09553 1.69199 0
M  V30 2753 C 252.908 -6.37339 1.98383 0
M  V30 2754 H 252.178 -0.719009 -0.179186 0
M  V30 2755 H 254.825 -1.8989 0.247798 0
M  V30 2756 H 253.13 -3.45838 -1.84128 0
M  V30 2757 H 254.827 -3.70393 -1.53656 0
M  V30 2758 H 251.417 -4.28015 -0.22379 0
M  V30 2759 H 255.601 -4.93732 0.504174 0
M  V30 2760 H 250.857 -5.92278 1.51714 0
M  V30 2761 H 255.031 -6.59327 2.24189 0
M  V30 2762 H 252.658 -7.08546 2.7544 0
M  V30 2763 N 254.233 0.115231 -1.57178 0
M  V30 2764 C 255.482 0.820945 -1.84237 0
M  V30 2765 C 255.795 1.80866 -0.744761 0
M  V30 2766 O 257.001 2.56083 -0.901871 0
M  V30 2767 C 255.457 1.51072 -3.26658 0
M  V30 2768 C 255.065 0.563795 -4.44438 0
M  V30 2769 C 256.809 2.20134 -3.62962 0
M  V30 2770 C 254.716 1.25701 -5.77887 0
M  V30 2771 H 253.646 0.310328 -0.687177 0
M  V30 2772 H 256.297 0.0737134 -1.83352 0
M  V30 2773 H 254.679 2.30471 -3.22024 0
M  V30 2774 H 255.853 -0.197247 -4.60378 0
M  V30 2775 H 254.168 -0.0200638 -4.16395 0
M  V30 2776 H 256.765 2.72696 -4.59936 0
M  V30 2777 H 257.108 2.98107 -2.90582 0
M  V30 2778 H 257.641 1.47619 -3.69396 0
M  V30 2779 H 254.38 0.518493 -6.53446 0
M  V30 2780 H 253.9 1.98997 -5.65827 0
M  V30 2781 H 255.579 1.78915 -6.2177 0
M  V30 2782 N 255.711 1.52812 0.385517 0
M  V30 2783 C 256.96 1.67249 1.12741 0
M  V30 2784 C 257.273 0.4205 1.91027 0
M  V30 2785 O 258.479 0.445064 2.67827 0
M  V30 2786 C 256.935 2.95583 2.05326 0
M  V30 2787 C 256.543 4.27974 1.32447 0
M  V30 2788 C 258.287 3.19386 2.7963 0
M  V30 2789 C 256.194 5.47412 2.23818 0
M  V30 2790 H 255.124 0.6231 0.424573 0
M  V30 2791 H 257.775 1.79309 0.389924 0
M  V30 2792 H 256.157 2.77277 2.82725 0
M  V30 2793 H 257.331 4.56844 0.602495 0
M  V30 2794 H 255.646 4.10459 0.700885 0
M  V30 2795 H 258.243 4.05801 3.48181 0
M  V30 2796 H 258.586 2.34604 3.43899 0
M  V30 2797 H 259.119 3.38274 2.09322 0
M  V30 2798 H 255.858 6.34612 1.64157 0
M  V30 2799 H 255.378 5.22849 2.93921 0
M  V30 2800 H 257.057 5.81423 2.83824 0
M  V30 2801 N 257.189 -0.644168 1.43834 0
M  V30 2802 C 258.435 -1.40603 1.46146 0
M  V30 2803 C 258.768 -1.93997 0.0887717 0
M  V30 2804 O 258.043 -1.72854 -0.891724 0
M  V30 2805 C 258.326 -2.58086 2.51124 0
M  V30 2806 C 258.179 -2.10126 3.97702 0
M  V30 2807 C 259.498 -3.60291 2.52742 0
M  V30 2808 H 256.617 -0.509905 0.532134 0
M  V30 2809 H 259.259 -0.729502 1.75437 0
M  V30 2810 H 257.409 -3.15801 2.26278 0
M  V30 2811 H 259.081 -1.57342 4.33637 0
M  V30 2812 H 257.324 -1.41419 4.10101 0
M  V30 2813 H 257.995 -2.94649 4.66783 0
M  V30 2814 H 260.471 -3.12352 2.7491 0
M  V30 2815 H 259.347 -4.40032 3.28121 0
M  V30 2816 H 259.608 -4.1349 1.56455 0
M  V30 2817 N 258.668 -1.30515 -0.883378 0
M  V30 2818 C 260.079 -1.17509 -1.45081 0
M  V30 2819 C 260.43 0.223605 -1.94922 0
M  V30 2820 O 259.555 1.12041 -1.85137 0
M  V30 2821 C 260.15 -2.12715 -2.63701 0
M  V30 2822 C 258.709 -2.03682 -3.16529 0
M  V30 2823 C 257.856 -2.02706 -1.89224 0
M  V30 2824 H 260.807 -1.42762 -0.693165 0
M  V30 2825 H 260.828 -1.70891 -3.39965 0
M  V30 2826 H 260.34 -3.14505 -2.27395 0
M  V30 2827 H 258.441 -1.05039 -3.57488 0
M  V30 2828 H 258.554 -2.92146 -3.7972 0
M  V30 2829 H 256.918 -1.4753 -2.07622 0
M  V30 2830 H 257.701 -3.06229 -1.55174 0
M  V30 2831 N 260.146 1.09593 -1.13257 0
M  V30 2832 C 261.395 1.81105 -0.887917 0
M  V30 2833 C 261.708 1.86563 0.587672 0
M  V30 2834 O 262.914 2.54367 0.949204 0
M  V30 2835 C 261.37 3.25338 -1.53895 0
M  V30 2836 C 260.978 3.28151 -3.04994 0
M  V30 2837 C 262.722 4.01617 -1.37492 0
M  V30 2838 C 260.629 4.66897 -3.6299 0
M  V30 2839 H 259.559 0.678661 -0.328534 0
M  V30 2840 H 262.21 1.23183 -1.36008 0
M  V30 2841 H 260.592 3.8331 -0.994446 0
M  V30 2842 H 261.766 2.79953 -3.66009 0
M  V30 2843 H 260.081 2.65361 -3.20893 0
M  V30 2844 H 262.678 5.04119 -1.78235 0
M  V30 2845 H 263.021 4.15072 -0.31957 0
M  V30 2846 H 263.554 3.50082 -1.88912 0
M  V30 2847 H 260.293 4.58643 -4.68323 0
M  V30 2848 H 259.813 5.15426 -3.06752 0
M  V30 2849 H 261.492 5.3587 -3.62563 0
M  V30 2850 N 261.624 0.925811 1.2754 0
M  V30 2851 C 262.871 0.565255 1.94451 0
M  V30 2852 C 263.199 -0.89316 1.7278 0
M  V30 2853 O 262.454 -1.65213 1.04895 0
M  V30 2854 C 262.753 0.835296 3.47502 0
M  V30 2855 C 262.419 2.27515 3.89291 0
M  V30 2856 C 261.081 2.66879 4.00411 0
M  V30 2857 C 263.433 3.21158 4.10496 0
M  V30 2858 C 260.761 3.99014 4.30122 0
M  V30 2859 C 263.113 4.52871 4.4169 0
M  V30 2860 C 261.777 4.92072 4.51023 0
M  V30 2861 H 261.047 0.206841 0.711546 0
M  V30 2862 H 263.694 1.16942 1.51647 0
M  V30 2863 H 261.999 0.148442 3.91519 0
M  V30 2864 H 263.696 0.535322 3.97411 0
M  V30 2865 H 260.286 1.95976 3.81171 0
M  V30 2866 H 264.47 2.9195 4.01346 0
M  V30 2867 H 259.726 4.2907 4.35556 0
M  V30 2868 H 263.9 5.25436 4.57045 0
M  V30 2869 H 261.527 5.9449 4.738 0
M  V30 2870 N 263.102 -1.41638 0.69111 0
M  V30 2871 C 264.032 -2.3347 0.037248 0
M  V30 2872 C 265.013 -1.51575 -0.771947 0
M  V30 2873 O 266.198 -1.80126 -0.72582 0
M  V30 2874 C 263.328 -3.35354 -0.903064 0
M  V30 2875 C 262.282 -4.27526 -0.201288 0
M  V30 2876 C 261.608 -5.19747 -1.25565 0
M  V30 2877 C 262.908 -5.13959 0.929689 0
M  V30 2878 H 264.602 -2.88397 0.804227 0
M  V30 2879 H 262.148 -1.38669 0.388189 0
M  V30 2880 H 264.101 -3.98519 -1.36969 0
M  V30 2881 H 262.825 -2.78767 -1.70166 0
M  V30 2882 H 261.484 -3.65779 0.245265 0
M  V30 2883 H 261.132 -4.59479 -2.04666 0
M  V30 2884 H 260.832 -5.8225 -0.791128 0
M  V30 2885 H 262.356 -5.85789 -1.72288 0
M  V30 2886 H 263.77 -5.70718 0.543546 0
M  V30 2887 H 262.167 -5.85379 1.32103 0
M  V30 2888 H 263.237 -4.51389 1.77133 0
M  V30 2889 N 264.58 -0.43555 -1.51462 0
M  V30 2890 C 265.51 0.367376 -2.30592 0
M  V30 2891 C 266.491 1.02263 -1.35928 0
M  V30 2892 O 267.676 1.02661 -1.64847 0
M  V30 2893 C 264.806 1.46983 -3.14664 0
M  V30 2894 C 263.76 0.938161 -4.17591 0
M  V30 2895 C 263.086 2.13622 -4.90173 0
M  V30 2896 C 264.386 -0.0261621 -5.22293 0
M  V30 2897 H 266.08 -0.292969 -2.97963 0
M  V30 2898 H 263.626 -0.14234 -1.43295 0
M  V30 2899 H 265.579 2.03873 -3.688 0
M  V30 2900 H 264.303 2.15843 -2.4511 0
M  V30 2901 H 262.962 0.391481 -3.64504 0
M  V30 2902 H 262.61 2.81098 -4.17124 0
M  V30 2903 H 262.31 1.78688 -5.59772 0
M  V30 2904 H 263.834 2.7107 -5.47132 0
M  V30 2905 H 265.248 0.452384 -5.71512 0
M  V30 2906 H 263.645 -0.287992 -5.99409 0
M  V30 2907 H 264.715 -0.963391 -4.75233 0
M  V30 2908 N 266.058 1.56714 -0.166846 0
M  V30 2909 C 266.988 2.20754 0.760913 0
M  V30 2910 C 267.969 1.16178 1.24244 0
M  V30 2911 O 269.154 1.44592 1.29641 0
M  V30 2912 C 266.284 2.84478 1.99223 0
M  V30 2913 C 265.238 3.95053 1.64672 0
M  V30 2914 C 264.564 4.45805 2.95232 0
M  V30 2915 C 265.864 5.14865 0.878155 0
M  V30 2916 H 267.558 2.98537 0.22713 0
M  V30 2917 H 265.104 1.43596 0.107805 0
M  V30 2918 H 267.057 3.27951 2.64624 0
M  V30 2919 H 265.781 2.04056 2.55007 0
M  V30 2920 H 264.44 3.52228 1.01641 0
M  V30 2921 H 264.088 3.62181 3.49047 0
M  V30 2922 H 263.788 5.204 2.7287 0
M  V30 2923 H 265.312 4.91962 3.6167 0
M  V30 2924 H 266.726 5.55059 1.43466 0
M  V30 2925 H 265.123 5.95348 0.753738 0
M  V30 2926 H 266.193 4.84735 -0.126377 0
M  V30 2927 N 267.536 -0.106894 1.57237 0
M  V30 2928 C 268.813 -0.843526 1.76477 0
M  V30 2929 C 269.193 -1.97499 0.745464 0
M  V30 2930 O 268.541 -2.27357 -0.228306 0
M  V30 2931 C 268.751 -1.34903 3.21873 0
M  V30 2932 C 270.099 -1.79654 3.8472 0
M  V30 2933 O 271.123 -1.44554 3.2555 0
M  V30 2934 O 269.982 -2.44515 4.88748 0
M  V30 2935 H 267.076 -0.401468 0.723016 0
M  V30 2936 H 269.622 -0.0896927 1.69463 0
M  V30 2937 H 268.394 -0.53781 3.87586 0
M  V30 2938 H 268.017 -2.16522 3.33473 0
M  V30 2939 N 269.014 -1.53014 -0.377408 0
M  V30 2940 C 269.961 -1.78616 -1.46168 0
M  V30 2941 C 270.931 -0.629917 -1.53692 0
M  V30 2942 O 272.116 -0.870861 -1.69766 0
M  V30 2943 C 269.256 -1.97123 -2.8326 0
M  V30 2944 C 268.369 -3.24831 -2.84796 0
M  V30 2945 C 267.504 -3.33591 -4.13389 0
M  V30 2946 C 266.543 -4.55377 -4.09021 0
M  V30 2947 N 265.68 -4.61355 -5.29241 0
M  V30 2948 H 270.52 -2.71142 -1.23637 0
M  V30 2949 H 268.057 -1.34326 -0.599577 0
M  V30 2950 H 270.015 -2.05839 -3.62886 0
M  V30 2951 H 268.645 -1.07946 -3.04216 0
M  V30 2952 H 267.697 -3.25128 -1.97474 0
M  V30 2953 H 269.009 -4.14523 -2.77439 0
M  V30 2954 H 268.163 -3.41554 -5.01424 0
M  V30 2955 H 266.902 -2.41894 -4.23484 0
M  V30 2956 H 265.907 -4.47527 -3.19373 0
M  V30 2957 H 267.132 -5.48402 -4.00539 0
M  V30 2958 H 265.078 -3.72554 -5.39944 0
M  V30 2959 H 264.995 -5.44935 -5.24006 0
M  V30 2960 H 266.263 -4.73586 -6.19141 0
M  V30 2961 N 270.492 0.636531 -1.44174 0
M  V30 2962 C 271.769 1.39463 -1.37148 0
M  V30 2963 C 272.149 2.11082 -0.027507 0
M  V30 2964 O 271.497 2.05954 0.989716 0
M  V30 2965 C 271.707 2.36552 -2.56601 0
M  V30 2966 C 273.055 3.00048 -3.00427 0
M  V30 2967 O 274.079 2.46878 -2.56767 0
M  V30 2968 O 272.938 3.96488 -3.76111 0
M  V30 2969 H 270.032 0.623903 -0.542839 0
M  V30 2970 H 272.578 0.662039 -1.56253 0
M  V30 2971 H 271.35 1.82692 -3.46034 0
M  V30 2972 H 270.973 3.17236 -2.39681 0
M  V30 2973 N 271.97 1.30982 0.876444 0
M  V30 2974 C 273.247 1.10942 1.61094 0
M  V30 2975 C 273.627 -0.338223 2.08373 0
M  V30 2976 O 272.975 -1.33122 1.85717 0
M  V30 2977 C 273.185 2.11789 2.77392 0
M  V30 2978 C 274.533 2.43965 3.47514 0
M  V30 2979 O 275.557 2.10166 2.87591 0
M  V30 2980 O 274.416 3.01817 4.55597 0
M  V30 2981 H 271.51 0.42667 0.708436 0
M  V30 2982 H 274.056 1.42438 0.922474 0
M  V30 2983 H 272.828 3.09194 2.39823 0
M  V30 2984 H 272.451 1.81161 3.5393 0
M  V30 2985 N 273.449 -1.08991 1.13837 0
M  V30 2986 C 274.674 -1.85551 0.926585 0
M  V30 2987 C 275.099 -1.80782 -0.519566 0
M  V30 2988 O 274.457 -1.18855 -1.36906 0
M  V30 2989 C 274.505 -3.31266 1.42462 0
M  V30 2990 O 273.609 -4.07822 0.612789 0
M  V30 2991 H 272.95 -0.575192 0.331738 0
M  V30 2992 H 275.48 -1.37604 1.51414 0
M  V30 2993 H 275.49 -3.82112 1.43019 0
M  V30 2994 H 274.165 -3.34052 2.47754 0
M  V30 2995 H 272.742 -3.66731 0.675463 0
M  V30 2996 N 274.927 -0.932562 -1.27047 0
M  V30 2997 C 275.874 -0.434072 -2.26681 0
M  V30 2998 C 276.844 0.501639 -1.58344 0
M  V30 2999 O 278.029 0.419734 -1.86126 0
M  V30 3000 C 275.169 0.30261 -3.43771 0
M  V30 3001 C 274.282 -0.667774 -4.26808 0
M  V30 3002 C 273.417 0.0892393 -5.31125 0
M  V30 3003 C 272.456 -0.873532 -6.05835 0
M  V30 3004 N 271.593 -0.148832 -7.01942 0
M  V30 3005 H 276.433 -1.28868 -2.68695 0
M  V30 3006 H 273.97 -0.646713 -1.32121 0
M  V30 3007 H 275.928 0.746092 -4.10474 0
M  V30 3008 H 274.558 1.12142 -3.02695 0
M  V30 3009 H 273.61 -1.22978 -3.59973 0
M  V30 3010 H 274.922 -1.40337 -4.78651 0
M  V30 3011 H 274.076 0.592409 -6.03801 0
M  V30 3012 H 272.815 0.85777 -4.80097 0
M  V30 3013 H 271.82 -1.38791 -5.31994 0
M  V30 3014 H 273.045 -1.64193 -6.58952 0
M  V30 3015 H 270.991 0.601365 -6.53238 0
M  V30 3016 H 270.908 -0.82391 -7.51497 0
M  V30 3017 H 272.176 0.333527 -7.78786 0
M  V30 3018 N 276.405 1.4127 -0.698611 0
M  V30 3019 C 277.368 2.29158 -0.044132 0
M  V30 3020 C 278.368 1.44529 0.704841 0
M  V30 3021 O 279.558 1.65643 0.539276 0
M  V30 3022 C 276.69 3.27459 0.947809 0
M  V30 3023 H 277.883 2.88529 -0.817994 0
M  V30 3024 H 275.436 1.49307 -0.46228 0
M  V30 3025 H 276.171 2.73073 1.74933 0
M  V30 3026 H 275.956 3.8991 0.41385 0
M  V30 3027 H 277.446 3.93311 1.40344 0
M  V30 3028 N 277.883 0.443576 1.51229 0
M  V30 3029 C 279.131 -0.120557 2.0174 0
M  V30 3030 C 279.452 -1.42665 1.32935 0
M  V30 3031 O 278.722 -1.9028 0.465866 0
M  V30 3032 H 277.302 -0.0475426 0.745486 0
M  V30 3033 H 279.964 0.587711 1.85828 0
M  V30 3034 H 279.06 -0.291972 3.10731 0
M  V30 3035 N 279.361 -1.56624 0.175154 0
M  V30 3036 C 280.294 -2.14 -0.792412 0
M  V30 3037 C 281.272 -1.07114 -1.22333 0
M  V30 3038 O 282.456 -1.35112 -1.31442 0
M  V30 3039 C 279.583 -2.68268 -2.0676 0
M  V30 3040 C 278.629 -3.87562 -1.7804 0
M  V30 3041 S 279.462 -5.27074 -0.946222 0
M  V30 3042 C 280.618 -5.8475 -2.23199 0
M  V30 3043 H 280.851 -2.95736 -0.304588 0
M  V30 3044 H 278.384 -1.54349 -0.0395705 0
M  V30 3045 H 280.342 -3.00182 -2.80002 0
M  V30 3046 H 279.003 -1.86612 -2.52656 0
M  V30 3047 H 278.196 -4.23874 -2.72666 0
M  V30 3048 H 277.798 -3.56555 -1.12891 0
M  V30 3049 H 280.09 -5.97898 -3.18629 0
M  V30 3050 H 281.033 -6.81756 -1.91349 0
M  V30 3051 H 281.441 -5.13198 -2.35134 0
M  V30 3052 N 280.839 0.0985539 -1.57292 0
M  V30 3053 C 281.749 1.13824 -2.05137 0
M  V30 3054 C 282.765 1.44076 -0.975604 0
M  V30 3055 O 283.941 1.54786 -1.28853 0
M  V30 3056 C 281.006 2.43969 -2.46333 0
M  V30 3057 C 280.067 2.2093 -3.68087 0
M  V30 3058 C 279.3 3.44869 -4.0731 0
M  V30 3059 O 279.523 4.52972 -3.46659 0
M  V30 3060 O 278.457 3.34661 -5.00285 0
M  V30 3061 H 282.283 0.761881 -2.93988 0
M  V30 3062 H 279.868 0.310818 -1.46131 0
M  V30 3063 H 281.75 3.20609 -2.73473 0
M  V30 3064 H 280.425 2.81038 -1.60621 0
M  V30 3065 H 279.332 1.42081 -3.46069 0
M  V30 3066 H 280.665 1.88755 -4.54568 0
M  V30 3067 N 282.317 1.53212 0.369288 0
M  V30 3068 C 283.227 1.82342 1.47609 0
M  V30 3069 C 284.243 0.711532 1.58787 0
M  V30 3070 O 285.419 1.0012 1.74751 0
M  V30 3071 C 282.484 2.00393 2.8292 0
M  V30 3072 C 281.545 3.24297 2.81301 0
M  V30 3073 C 280.778 3.41478 4.10157 0
M  V30 3074 O 281.001 2.63033 5.06132 0
M  V30 3075 O 279.935 4.34817 4.16194 0
M  V30 3076 H 283.761 2.76366 1.25918 0
M  V30 3077 H 281.346 1.38547 0.559034 0
M  V30 3078 H 283.228 2.13859 3.63101 0
M  V30 3079 H 281.903 1.09559 3.04596 0
M  V30 3080 H 280.81 3.16257 1.99831 0
M  V30 3081 H 282.143 4.15041 2.64578 0
M  V30 3082 N 283.795 -0.628877 1.44509 0
M  V30 3083 C 285.072 -1.38733 1.37886 0
M  V30 3084 C 285.452 -2.11065 0.0387008 0
M  V30 3085 O 284.8 -2.06476 -0.97878 0
M  V30 3086 C 285.01 -2.35188 2.57852 0
M  V30 3087 C 286.358 -2.9845 3.02014 0
M  V30 3088 O 287.382 -2.45513 2.58073 0
M  V30 3089 O 286.241 -3.94487 3.78209 0
M  V30 3090 H 283.335 -0.621015 0.54614 0
M  V30 3091 H 285.881 -0.653744 1.56602 0
M  V30 3092 H 284.653 -1.80855 3.46998 0
M  V30 3093 H 284.276 -3.1596 2.4136 0
M  V30 3094 N 285.273 -1.31445 -0.869486 0
M  V30 3095 C 286.223 -1.15731 -1.96444 0
M  V30 3096 C 287.207 -0.0681855 -1.60755 0
M  V30 3097 O 288.399 -0.293154 -1.74555 0
M  V30 3098 C 285.528 -0.867255 -3.32165 0
M  V30 3099 C 284.614 -1.99738 -3.74119 0
M  V30 3100 N 285.005 -3.24447 -3.88031 0
M  V30 3101 C 283.303 -1.89723 -4.03635 0
M  V30 3102 C 284.004 -3.98374 -4.23879 0
M  V30 3103 N 282.98 -3.26547 -4.3459 0
M  V30 3104 H 286.782 -2.10296 -2.05312 0
M  V30 3105 H 284.296 -1.23009 -1.06031 0
M  V30 3106 H 286.293 -0.735668 -4.10358 0
M  V30 3107 H 284.953 0.0701614 -3.24624 0
M  V30 3108 H 285.964 -3.59557 -3.72746 0
M  V30 3109 H 282.641 -1.03449 -4.04481 0
M  V30 3110 H 284.031 -5.05844 -4.42235 0
M  V30 3111 N 286.751 1.08385 -1.14413 0
M  V30 3112 C 287.979 1.84517 -0.936001 0
M  V30 3113 C 288.394 1.81626 0.515503 0
M  V30 3114 O 287.751 1.22008 1.35721 0
M  V30 3115 C 287.802 3.32049 -1.42918 0
M  V30 3116 O 287.523 3.34951 -2.82381 0
M  V30 3117 C 289.024 4.24986 -1.26103 0
M  V30 3118 H 286.244 0.582491 -0.333084 0
M  V30 3119 H 288.788 1.36885 -1.5193 0
M  V30 3120 H 286.943 3.7707 -0.888641 0
M  V30 3121 H 287.357 4.27048 -3.04517 0
M  V30 3122 H 288.831 5.26615 -1.6547 0
M  V30 3123 H 289.308 4.38726 -0.20392 0
M  V30 3124 H 289.914 3.85791 -1.79012 0
M  V30 3125 N 288.23 0.939286 1.26551 0
M  V30 3126 C 289.46 0.601663 1.97645 0
M  V30 3127 C 289.868 -0.827206 1.70159 0
M  V30 3128 O 289.211 -1.56291 0.965338 0
M  V30 3129 C 289.273 0.761725 3.51337 0
M  V30 3130 C 288.937 2.16487 4.0247 0
M  V30 3131 C 289.934 3.14016 4.14355 0
M  V30 3132 C 287.619 2.48494 4.36527 0
M  V30 3133 C 289.613 4.41654 4.59587 0
M  V30 3134 C 287.3 3.76364 4.81449 0
M  V30 3135 C 288.298 4.72758 4.92939 0
M  V30 3136 O 287.986 5.98352 5.36871 0
M  V30 3137 H 287.718 0.225758 0.637189 0
M  V30 3138 H 290.272 1.26178 1.62075 0
M  V30 3139 H 288.502 0.0444808 3.86674 0
M  V30 3140 H 290.191 0.427442 4.03643 0
M  V30 3141 H 290.957 2.90613 3.8829 0
M  V30 3142 H 286.836 1.74202 4.26819 0
M  V30 3143 H 290.38 5.16896 4.68471 0
M  V30 3144 H 286.277 3.99582 5.06956 0
M  V30 3145 H 287.045 6.01507 5.55096 0
M  V30 3146 N 289.708 -1.40897 0.706093 0
M  V30 3147 C 290.618 -2.3455 0.0482286 0
M  V30 3148 C 291.634 -1.56796 -0.754396 0
M  V30 3149 O 292.81 -1.89228 -0.689538 0
M  V30 3150 C 289.875 -3.35625 -0.869303 0
M  V30 3151 C 288.936 -4.29261 -0.0576994 0
M  V30 3152 C 288.169 -5.25508 -0.931531 0
M  V30 3153 O 288.392 -5.27472 -2.17092 0
M  V30 3154 O 287.326 -6.00727 -0.375587 0
M  V30 3155 H 291.152 -2.92407 0.820476 0
M  V30 3156 H 288.737 -1.4193 0.4665 0
M  V30 3157 H 290.619 -3.97635 -1.39514 0
M  V30 3158 H 289.294 -2.80196 -1.62086 0
M  V30 3159 H 288.201 -3.70566 0.512988 0
M  V30 3160 H 289.534 -4.87817 0.655426 0
M  V30 3161 N 291.186 -0.45159 -1.50991 0
M  V30 3162 C 292.434 0.109857 -2.01801 0
M  V30 3163 C 292.755 1.41958 -1.3369 0
M  V30 3164 O 292.025 1.9003 -0.475951 0
M  V30 3165 H 290.605 0.0435884 -0.745727 0
M  V30 3166 H 293.267 -0.597557 -1.85514 0
M  V30 3167 H 292.363 0.275489 -3.10882 0
M  V30 3168 N 292.664 1.56529 -0.183458 0
M  V30 3169 C 293.594 2.21549 0.737456 0
M  V30 3170 C 294.575 1.17489 1.23005 0
M  V30 3171 O 295.76 1.45959 1.281 0
M  V30 3172 C 292.89 2.86575 1.96194 0
M  V30 3173 C 291.844 3.96778 1.60473 0
M  V30 3174 C 291.17 4.48911 2.90487 0
M  V30 3175 C 292.47 5.15767 0.823497 0
M  V30 3176 H 294.164 2.98761 0.195453 0
M  V30 3177 H 291.71 1.43702 0.0925686 0
M  V30 3178 H 293.663 3.30739 2.61131 0
M  V30 3179 H 292.387 2.06749 2.52828 0
M  V30 3180 H 291.046 3.53286 0.978997 0
M  V30 3181 H 290.694 3.65862 3.45186 0
M  V30 3182 H 290.394 5.23265 2.67335 0
M  V30 3183 H 291.918 4.95771 3.56432 0
M  V30 3184 H 293.332 5.56549 1.37571 0
M  V30 3185 H 291.729 5.96114 0.690551 0
M  V30 3186 H 292.799 4.84574 -0.177782 0
M  V30 3187 N 294.142 -0.090211 1.57342 0
M  V30 3188 C 295.419 -0.824761 1.77361 0
M  V30 3189 C 295.799 -1.96698 0.76637 0
M  V30 3190 O 295.147 -2.27586 -0.204179 0
M  V30 3191 C 295.357 -1.31481 3.23286 0
M  V30 3192 C 296.705 -1.75563 3.86604 0
M  V30 3193 O 297.729 -1.41093 3.27065 0
M  V30 3194 O 296.588 -2.39317 4.91314 0
M  V30 3195 H 293.682 -0.393776 0.727234 0
M  V30 3196 H 296.228 -0.0717138 1.69548 0
M  V30 3197 H 295 -0.496671 3.88135 0
M  V30 3198 H 294.623 -2.12973 3.35751 0
M  V30 3199 N 295.62 -1.53406 -0.361157 0
M  V30 3200 C 296.869 -1.69022 -1.10066 0
M  V30 3201 C 297.182 -0.450838 -1.90333 0
M  V30 3202 O 298.388 -0.487617 -2.67085 0
M  V30 3203 C 296.844 -2.98812 -2.00598 0
M  V30 3204 C 296.452 -4.30027 -1.25621 0
M  V30 3205 C 298.196 -3.23795 -2.74513 0
M  V30 3206 C 296.103 -5.50903 -2.1508 0
M  V30 3207 H 295.033 -0.629776 -0.414606 0
M  V30 3208 H 297.684 -1.79907 -0.361348 0
M  V30 3209 H 296.066 -2.8174 -2.78278 0
M  V30 3210 H 297.24 -4.57745 -0.529739 0
M  V30 3211 H 295.555 -4.11522 -0.635496 0
M  V30 3212 H 298.152 -4.11289 -3.41681 0
M  V30 3213 H 298.495 -2.40045 -3.40123 0
M  V30 3214 H 299.028 -3.41561 -2.03914 0
M  V30 3215 H 295.767 -6.37143 -1.54041 0
M  V30 3216 H 295.287 -5.27459 -2.85565 0
M  V30 3217 H 296.966 -5.85865 -2.74538 0
M  V30 3218 N 297.098 0.621204 -1.44841 0
M  V30 3219 C 298.375 1.38 -1.38619 0
M  V30 3220 C 298.755 2.11041 -0.0498935 0
M  V30 3221 O 298.103 2.06992 0.967816 0
M  V30 3222 C 298.313 2.33817 -2.59096 0
M  V30 3223 C 299.661 2.96844 -3.03593 0
M  V30 3224 O 300.685 2.44141 -2.59371 0
M  V30 3225 O 299.544 3.92476 -3.80296 0
M  V30 3226 H 296.638 0.61811 -0.549426 0
M  V30 3227 H 299.184 0.645429 -1.56947 0
M  V30 3228 H 297.956 1.79012 -3.47952 0
M  V30 3229 H 297.579 3.14676 -2.43032 0
M  V30 3230 N 298.576 1.31904 0.862503 0
M  V30 3231 C 299.508 1.16005 1.97675 0
M  V30 3232 C 300.521 0.0971234 1.6251 0
M  V30 3233 O 301.71 0.345337 1.75128 0
M  V30 3234 C 298.81 0.751791 3.30456 0
M  V30 3235 C 297.983 1.90133 3.93914 0
M  V30 3236 C 297.042 1.4779 5.05019 0
M  V30 3237 O 296.068 2.18872 5.25437 0
M  V30 3238 N 297.27 0.369491 5.79323 0
M  V30 3239 H 300.035 2.11982 2.11857 0
M  V30 3240 H 297.596 1.24337 1.03691 0
M  V30 3241 H 299.588 0.451084 4.02178 0
M  V30 3242 H 298.158 -0.116593 3.12382 0
M  V30 3243 H 297.378 2.36896 3.15078 0
M  V30 3244 H 298.666 2.67111 4.33047 0
M  V30 3245 H 298.064 -0.222299 5.65263 0
M  V30 3246 H 296.621 0.128354 6.51674 0
M  V30 3247 N 300.054 -1.07777 1.14986 0
M  V30 3248 C 301.282 -1.84018 0.945773 0
M  V30 3249 C 301.697 -1.81897 -0.505863 0
M  V30 3250 O 301.054 -1.22726 -1.35072 0
M  V30 3251 C 301.105 -3.31287 1.44677 0
M  V30 3252 O 300.826 -3.33449 2.84154 0
M  V30 3253 C 302.327 -4.24311 1.28355 0
M  V30 3254 H 299.547 -0.580716 0.336169 0
M  V30 3255 H 302.091 -1.36077 1.52654 0
M  V30 3256 H 300.246 -3.76594 0.908625 0
M  V30 3257 H 300.66 -4.25427 3.06777 0
M  V30 3258 H 302.134 -5.2573 1.68261 0
M  V30 3259 H 302.611 -4.38612 0.227184 0
M  V30 3260 H 303.217 -3.84836 1.81056 0
M  V30 3261 N 301.532 -0.945985 -1.26051 0
M  V30 3262 C 302.495 -0.463897 -2.24456 0
M  V30 3263 C 303.495 0.427655 -1.55009 0
M  V30 3264 O 304.685 0.226157 -1.72726 0
M  V30 3265 C 301.817 0.330812 -3.39291 0
M  V30 3266 H 303.01 -1.33357 -2.68619 0
M  V30 3267 H 300.563 -0.728416 -1.38289 0
M  V30 3268 H 301.298 1.21852 -3.00537 0
M  V30 3269 H 301.083 -0.308679 -3.90883 0
M  V30 3270 H 302.573 0.657865 -4.12386 0
M  V30 3271 N 303.011 1.40521 -0.713556 0
M  V30 3272 C 304.239 2.05237 -0.261775 0
M  V30 3273 C 304.654 1.53755 1.09567 0
M  V30 3274 O 304.011 0.693268 1.6882 0
M  V30 3275 C 304.062 3.60763 -0.230706 0
M  V30 3276 O 303.783 4.10345 -1.53455 0
M  V30 3277 C 305.284 4.42651 0.239874 0
M  V30 3278 H 302.504 0.660533 -0.118057 0
M  V30 3279 H 305.048 1.79967 -0.971192 0
M  V30 3280 H 303.203 3.8501 0.429661 0
M  V30 3281 H 303.617 5.04526 -1.43366 0
M  V30 3282 H 305.091 5.51599 0.210468 0
M  V30 3283 H 305.568 4.20082 1.28171 0
M  V30 3284 H 306.174 4.23507 -0.390142 0
M  V30 3285 N 304.489 0.459591 1.5075 0
M  V30 3286 C 305.719 -0.0972338 2.06371 0
M  V30 3287 C 306.127 -1.35074 1.32483 0
M  V30 3288 O 305.47 -1.79637 0.384226 0
M  V30 3289 C 305.532 -0.462759 3.56509 0
M  V30 3290 C 305.196 0.687084 4.51805 0
M  V30 3291 C 306.193 1.56578 4.95761 0
M  V30 3292 C 303.878 0.874144 4.94635 0
M  V30 3293 C 305.872 2.61604 5.81242 0
M  V30 3294 C 303.559 1.92765 5.79901 0
M  V30 3295 C 304.557 2.79697 6.23104 0
M  V30 3296 O 304.245 3.83235 7.06673 0
M  V30 3297 H 303.977 -0.00140687 0.675999 0
M  V30 3298 H 306.531 0.644011 1.95043 0
M  V30 3299 H 304.761 -1.25703 3.65699 0
M  V30 3300 H 306.45 -0.953323 3.94546 0
M  V30 3301 H 307.216 1.4329 4.6335 0
M  V30 3302 H 303.095 0.207006 4.60535 0
M  V30 3303 H 306.639 3.29489 6.14884 0
M  V30 3304 H 302.536 2.06064 6.11725 0
M  V30 3305 H 303.304 3.80084 7.24899 0
M  V30 3306 N 305.967 -1.56429 0.191757 0
M  V30 3307 C 306.877 -2.22541 -0.742481 0
M  V30 3308 C 307.893 -1.22342 -1.23727 0
M  V30 3309 O 309.069 -1.55069 -1.28513 0
M  V30 3310 C 306.134 -2.8692 -1.94623 0
M  V30 3311 C 305.195 -4.02378 -1.49633 0
M  V30 3312 C 304.428 -4.63678 -2.6427 0
M  V30 3313 O 304.651 -4.23895 -3.81666 0
M  V30 3314 O 303.585 -5.53202 -2.37174 0
M  V30 3315 H 307.411 -3.02977 -0.209462 0
M  V30 3316 H 304.996 -1.49353 -0.0373832 0
M  V30 3317 H 306.878 -3.27663 -2.64982 0
M  V30 3318 H 305.553 -2.09466 -2.46791 0
M  V30 3319 H 304.46 -3.66265 -0.761636 0
M  V30 3320 H 305.793 -4.81487 -1.02134 0
M  V30 3321 N 307.445 0.0818655 -1.57387 0
M  V30 3322 C 308.722 0.815343 -1.77796 0
M  V30 3323 C 309.102 1.96289 -0.77679 0
M  V30 3324 O 308.45 2.27691 0.192106 0
M  V30 3325 C 308.66 1.29765 -3.23978 0
M  V30 3326 C 310.008 1.7351 -3.8753 0
M  V30 3327 O 311.032 1.39356 -3.27808 0
M  V30 3328 O 309.891 2.36708 -4.92576 0
M  V30 3329 H 306.985 0.389914 -0.729312 0
M  V30 3330 H 309.531 0.0627213 -1.69584 0
M  V30 3331 H 308.303 0.47608 -3.88393 0
M  V30 3332 H 307.926 2.11189 -3.36875 0
M  V30 3333 N 308.923 1.53595 0.353017 0
M  V30 3334 C 310.172 1.69603 1.09168 0
M  V30 3335 C 310.485 0.460925 1.90092 0
M  V30 3336 O 311.691 0.501774 2.66823 0
M  V30 3337 C 310.147 2.99872 1.9901 0
M  V30 3338 C 309.755 4.30687 1.23339 0
M  V30 3339 C 311.499 3.25246 2.72792 0
M  V30 3340 C 309.406 5.52036 2.12156 0
M  V30 3341 H 308.336 0.631966 0.411261 0
M  V30 3342 H 310.987 1.80096 0.351802 0
M  V30 3343 H 309.369 2.83212 2.7678 0
M  V30 3344 H 310.543 4.58019 0.505456 0
M  V30 3345 H 308.858 4.11853 0.613663 0
M  V30 3346 H 311.455 4.13095 3.39495 0
M  V30 3347 H 311.798 2.41846 3.38846 0
M  V30 3348 H 312.331 3.42638 2.021 0
M  V30 3349 H 309.07 6.37951 1.50659 0
M  V30 3350 H 308.59 5.28966 2.82764 0
M  V30 3351 H 310.269 5.87313 2.71427 0
M  V30 3352 N 310.401 -0.613514 1.45168 0
M  V30 3353 C 311.647 -1.37471 1.49096 0
M  V30 3354 C 311.98 -1.93765 0.129901 0
M  V30 3355 O 311.255 -1.74707 -0.854858 0
M  V30 3356 C 311.538 -2.52701 2.56542 0
M  V30 3357 C 311.391 -2.01643 4.0207 0
M  V30 3358 C 312.71 -3.54849 2.60327 0
M  V30 3359 H 309.829 -0.498502 0.54283 0
M  V30 3360 H 312.471 -0.692125 1.76945 0
M  V30 3361 H 310.621 -3.10931 2.32926 0
M  V30 3362 H 312.293 -1.48108 4.36877 0
M  V30 3363 H 310.536 -1.32688 4.13009 0
M  V30 3364 H 311.207 -2.84681 4.72928 0
M  V30 3365 H 313.683 -3.0645 2.81474 0
M  V30 3366 H 312.559 -4.32973 3.37381 0
M  V30 3367 H 312.82 -4.10079 1.6519 0
M  V30 3368 N 311.879 -1.3236 -0.855495 0
M  V30 3369 C 313.107 -1.2587 -1.64208 0
M  V30 3370 C 313.522 0.173457 -1.88002 0
M  V30 3371 O 312.879 1.11027 -1.44842 0
M  V30 3372 C 312.93 -2.01424 -3.00184 0
M  V30 3373 O 312.651 -3.39051 -2.77445 0
M  V30 3374 C 314.152 -2.01948 -3.94629 0
M  V30 3375 H 311.372 -0.434318 -0.511477 0
M  V30 3376 H 313.916 -1.74469 -1.0668 0
M  V30 3377 H 312.071 -1.56549 -3.5436 0
M  V30 3378 H 312.485 -3.77711 -3.63916 0
M  V30 3379 H 313.959 -2.59297 -4.87308 0
M  V30 3380 H 314.436 -1.00554 -4.27534 0
M  V30 3381 H 315.042 -2.46767 -3.4639 0
M  V30 3382 N 313.357 1.07166 -1.15556 0
M  V30 3383 C 314.287 2.16403 -0.877046 0
M  V30 3384 C 315.268 1.69217 0.173111 0
M  V30 3385 O 316.453 1.94181 0.027084 0
M  V30 3386 C 313.583 3.45349 -0.367632 0
M  V30 3387 C 312.537 4.05995 -1.35468 0
M  V30 3388 C 311.863 5.30045 -0.704038 0
M  V30 3389 C 313.163 4.45804 -2.72132 0
M  V30 3390 H 314.857 2.39959 -1.79053 0
M  V30 3391 H 312.403 1.15325 -0.862331 0
M  V30 3392 H 314.356 4.21095 -0.160317 0
M  V30 3393 H 313.08 3.21385 0.581326 0
M  V30 3394 H 311.739 3.32296 -1.54839 0
M  V30 3395 H 311.387 5.02373 0.251128 0
M  V30 3396 H 311.087 5.71579 -1.36277 0
M  V30 3397 H 312.611 6.08495 -0.50654 0
M  V30 3398 H 314.025 5.12671 -2.56595 0
M  V30 3399 H 312.422 4.98296 -3.34397 0
M  V30 3400 H 313.492 3.57083 -3.28054 0
M  V30 3401 N 314.835 0.952656 1.25548 0
M  V30 3402 C 316.251 0.656769 1.4546 0
M  V30 3403 C 316.451 -0.78633 1.85524 0
M  V30 3404 O 315.507 -1.56183 1.98402 0
M  V30 3405 C 316.82 1.62801 2.52817 0
M  V30 3406 C 318.368 1.63897 2.66659 0
M  V30 3407 C 318.843 2.5978 3.77198 0
M  V30 3408 N 320.334 2.58133 3.84606 0
M  V30 3409 C 321.069 3.29003 4.69621 0
M  V30 3410 N 320.565 4.09339 5.58939 0
M  V30 3411 N 322.358 3.179 4.63569 0
M  V30 3412 H 314.509 1.88526 0.978344 0
M  V30 3413 H 316.772 0.810815 0.491206 0
M  V30 3414 H 316.478 2.65869 2.30232 0
M  V30 3415 H 316.352 1.38898 3.50695 0
M  V30 3416 H 318.739 0.615481 2.8861 0
M  V30 3417 H 318.82 1.91858 1.69187 0
M  V30 3418 H 318.464 3.62254 3.55997 0
M  V30 3419 H 318.394 2.29105 4.7415 0
M  V30 3420 H 320.885 1.99809 3.20757 0
M  V30 3421 H 321.198 4.6034 6.20731 0
M  V30 3422 H 319.543 4.13438 5.58654 0
M  V30 3423 H 322.734 2.54612 3.92798 0
M  V30 3424 H 322.907 3.73398 5.29602 0
M  V30 3425 N 316.313 -1.40141 0.720998 0
M  V30 3426 C 317.541 -2.05096 0.272656 0
M  V30 3427 C 317.956 -1.54334 -1.0875 0
M  V30 3428 O 317.313 -0.702211 -1.6845 0
M  V30 3429 C 317.364 -3.60636 0.249835 0
M  V30 3430 O 317.085 -4.09526 1.55629 0
M  V30 3431 C 318.586 -4.42772 -0.216396 0
M  V30 3432 H 315.806 -0.659897 0.121558 0
M  V30 3433 H 318.35 -1.79449 0.980723 0
M  V30 3434 H 316.505 -3.85232 -0.409237 0
M  V30 3435 H 316.919 -5.03758 1.4604 0
M  V30 3436 H 318.393 -5.51702 -0.181212 0
M  V30 3437 H 318.87 -4.20756 -1.25941 0
M  V30 3438 H 319.476 -4.23294 0.412596 0
M  V30 3439 N 317.792 -0.46758 -1.50504 0
M  V30 3440 C 319.04 0.0884469 -2.01906 0
M  V30 3441 C 319.361 1.40532 -1.35188 0
M  V30 3442 O 318.631 1.89515 -0.496079 0
M  V30 3443 H 317.211 0.0356765 -0.746148 0
M  V30 3444 H 319.873 -0.6172 -1.84869 0
M  V30 3445 H 318.969 0.2425 -3.11156 0
M  V30 3446 N 319.27 1.56325 -0.20005 0
M  V30 3447 C 320.18 2.22931 0.730668 0
M  V30 3448 C 321.196 1.22997 1.23076 0
M  V30 3449 O 322.372 1.55748 1.27689 0
M  V30 3450 C 319.437 2.87948 1.93098 0
M  V30 3451 C 318.498 4.03166 1.47497 0
M  V30 3452 C 317.731 4.65073 2.61807 0
M  V30 3453 O 317.954 4.25913 3.79413 0
M  V30 3454 O 316.888 5.54452 2.34237 0
M  V30 3455 H 320.714 3.03084 0.193391 0
M  V30 3456 H 318.299 1.49371 0.0294621 0
M  V30 3457 H 320.181 3.29063 2.6324 0
M  V30 3458 H 318.856 2.10771 2.45677 0
M  V30 3459 H 317.763 3.66664 0.742201 0
M  V30 3460 H 319.096 4.82022 0.995796 0
M  V30 3461 N 320.748 -0.0735177 1.57428 0
M  V30 3462 C 321.994 -0.774145 1.87443 0
M  V30 3463 C 322.327 -1.77311 0.792103 0
M  V30 3464 O 321.602 -1.93492 -0.197793 0
M  V30 3465 C 321.885 -1.48367 3.28115 0
M  V30 3466 C 321.738 -0.501227 4.46999 0
M  V30 3467 C 323.057 -2.429 3.66998 0
M  V30 3468 H 320.176 -0.279971 0.681752 0
M  V30 3469 H 322.818 -0.0373616 1.89963 0
M  V30 3470 H 320.968 -2.11171 3.26097 0
M  V30 3471 H 322.64 0.121468 4.6114 0
M  V30 3472 H 320.883 0.183593 4.33411 0
M  V30 3473 H 321.554 -1.03526 5.42205 0
M  V30 3474 H 324.03 -1.90175 3.70098 0
M  V30 3475 H 322.906 -2.89549 4.66318 0
M  V30 3476 H 323.167 -3.27628 2.96837 0
M  V30 3477 N 322.226 -1.5378 -0.344866 0
M  V30 3478 C 323.173 -1.81676 -1.42346 0
M  V30 3479 C 324.143 -0.662376 -1.52321 0
M  V30 3480 O 325.328 -0.906675 -1.67881 0
M  V30 3481 C 322.468 -2.03087 -2.79015 0
M  V30 3482 C 321.581 -3.30799 -2.77842 0
M  V30 3483 C 320.716 -3.42285 -4.0622 0
M  V30 3484 C 319.755 -4.6395 -3.9927 0
M  V30 3485 N 318.892 -4.72477 -5.19336 0
M  V30 3486 H 323.732 -2.73703 -1.17858 0
M  V30 3487 H 321.269 -1.35568 -0.570949 0
M  V30 3488 H 323.227 -2.1349 -3.58438 0
M  V30 3489 H 321.857 -1.14375 -3.01858 0
M  V30 3490 H 320.909 -3.29244 -1.90533 0
M  V30 3491 H 322.221 -4.20314 -2.68584 0
M  V30 3492 H 321.375 -3.52113 -4.94066 0
M  V30 3493 H 320.114 -2.50823 -4.18258 0
M  V30 3494 H 319.119 -4.54201 -3.09809 0
M  V30 3495 H 320.344 -5.56775 -3.88817 0
M  V30 3496 H 318.29 -3.83924 -5.3192 0
M  V30 3497 H 318.207 -5.55927 -5.12329 0
M  V30 3498 H 319.475 -4.86613 -6.08957 0
M  V30 3499 N 323.704 0.605807 -1.45491 0
M  V30 3500 C 324.95 1.36481 -1.50813 0
M  V30 3501 C 325.305 1.91826 -0.148469 0
M  V30 3502 O 324.598 1.72211 0.839869 0
M  V30 3503 C 324.792 2.53012 -2.52428 0
M  V30 3504 C 324.621 2.09078 -3.98141 0
M  V30 3505 C 323.391 1.95167 -4.66088 0
M  V30 3506 C 325.589 1.66438 -4.86624 0
M  V30 3507 N 323.571 1.45062 -5.96515 0
M  V30 3508 C 324.942 1.27761 -6.06694 0
M  V30 3509 C 326.997 1.54046 -4.7347 0
M  V30 3510 C 325.7 0.779286 -7.15066 0
M  V30 3511 C 327.726 1.05618 -5.81892 0
M  V30 3512 C 327.088 0.67906 -7.01119 0
M  V30 3513 H 323.187 0.493267 -0.606805 0
M  V30 3514 H 325.771 0.692347 -1.81974 0
M  V30 3515 H 323.942 3.17851 -2.23215 0
M  V30 3516 H 325.674 3.19897 -2.47887 0
M  V30 3517 H 322.429 2.16407 -4.21266 0
M  V30 3518 H 322.853 1.22237 -6.65873 0
M  V30 3519 H 327.495 1.81827 -3.81705 0
M  V30 3520 H 325.213 0.489026 -8.06619 0
M  V30 3521 H 328.799 0.964529 -5.73749 0
M  V30 3522 H 327.679 0.310091 -7.83587 0
M  V30 3523 N 325.182 1.32811 0.848464 0
M  V30 3524 C 326.407 1.26882 1.6406 0
M  V30 3525 C 326.832 -0.15913 1.87426 0
M  V30 3526 O 326.19 -1.11258 1.43148 0
M  V30 3527 C 326.238 2.03997 2.97351 0
M  V30 3528 O 325.342 1.39201 3.88197 0
M  V30 3529 H 324.683 0.436982 0.499943 0
M  V30 3530 H 327.213 1.75224 1.0563 0
M  V30 3531 H 327.223 2.14403 3.47124 0
M  V30 3532 H 325.898 3.0783 2.79666 0
M  V30 3533 H 324.475 1.37381 3.46671 0
M  V30 3534 N 326.66 -1.06551 1.16123 0
M  V30 3535 C 327.906 -1.79567 0.94252 0
M  V30 3536 C 328.239 -1.86869 -0.528547 0
M  V30 3537 O 327.514 -1.35838 -1.39206 0
M  V30 3538 C 327.797 -3.24195 1.56747 0
M  V30 3539 C 327.65 -3.24989 3.10969 0
M  V30 3540 C 328.969 -4.21678 1.25998 0
M  V30 3541 H 326.088 -0.651883 0.343828 0
M  V30 3542 H 328.73 -1.2463 1.43413 0
M  V30 3543 H 326.88 -3.71107 1.14942 0
M  V30 3544 H 328.552 -2.86258 3.61737 0
M  V30 3545 H 326.795 -2.63716 3.44436 0
M  V30 3546 H 327.466 -4.27005 3.49815 0
M  V30 3547 H 329.942 -3.83196 1.62174 0
M  V30 3548 H 328.818 -5.21146 1.7233 0
M  V30 3549 H 329.079 -4.4174 0.178367 0
M  V30 3550 N 328.138 -0.959301 -1.25041 0
M  V30 3551 C 329.386 -0.615393 -1.92503 0
M  V30 3552 C 329.707 0.850969 -1.75452 0
M  V30 3553 O 328.977 1.60658 -1.12098 0
M  V30 3554 H 327.557 -0.224613 -0.712431 0
M  V30 3555 H 330.219 -1.21855 -1.5211 0
M  V30 3556 H 329.315 -0.848738 -3.00338 0
M  V30 3557 N 329.616 1.39756 -0.72842 0
M  V30 3558 C 330.526 2.34444 -0.0855374 0
M  V30 3559 C 331.542 1.57976 0.729356 0
M  V30 3560 O 332.718 1.90301 0.659346 0
M  V30 3561 C 329.783 3.36965 0.815798 0
M  V30 3562 C 328.844 4.29299 -0.0105996 0
M  V30 3563 C 328.077 5.26923 0.84781 0
M  V30 3564 O 328.3 5.30859 2.08673 0
M  V30 3565 O 327.234 6.01249 0.279969 0
M  V30 3566 H 331.06 2.91065 -0.866892 0
M  V30 3567 H 328.645 1.4117 -0.48902 0
M  V30 3568 H 330.527 3.99804 1.33171 0
M  V30 3569 H 329.202 2.82739 1.57608 0
M  V30 3570 H 328.109 3.69703 -0.571877 0
M  V30 3571 H 329.442 4.86712 -0.73295 0
M  V30 3572 N 331.094 0.475555 1.50254 0
M  V30 3573 C 332.044 -0.335025 2.25525 0
M  V30 3574 C 333.028 -0.957625 1.29299 0
M  V30 3575 O 334.22 -0.869436 1.54175 0
M  V30 3576 C 331.349 -1.41385 3.12834 0
M  V30 3577 C 330.435 -0.798762 4.1651 0
M  V30 3578 N 330.826 0.0835815 5.05731 0
M  V30 3579 C 329.124 -1.06221 4.33166 0
M  V30 3580 C 329.825 0.433113 5.80085 0
M  V30 3581 N 328.801 -0.1928 5.43258 0
M  V30 3582 H 332.603 0.344612 2.91873 0
M  V30 3583 H 330.117 0.289986 1.5979 0
M  V30 3584 H 332.114 -2.00777 3.65368 0
M  V30 3585 H 330.774 -2.09543 2.48036 0
M  V30 3586 H 331.785 0.452715 5.15918 0
M  V30 3587 H 328.462 -1.73844 3.79585 0
M  V30 3588 H 329.852 1.15346 6.61925 0
M  V30 3589 N 332.573 -1.56217 0.208337 0
M  V30 3590 C 333.984 -1.84243 -0.301904 0
M  V30 3591 C 334.335 -1.12939 -1.60434 0
M  V30 3592 O 333.46 -0.39461 -2.12772 0
M  V30 3593 C 334.055 -3.34231 -0.554543 0
M  V30 3594 C 332.614 -3.62621 -1.00912 0
M  V30 3595 C 331.761 -2.77224 -0.064933 0
M  V30 3596 H 334.712 -1.52712 0.431833 0
M  V30 3597 H 334.733 -3.5372 -1.40223 0
M  V30 3598 H 334.245 -3.86099 0.393561 0
M  V30 3599 H 332.346 -3.16197 -1.97104 0
M  V30 3600 H 332.459 -4.7071 -0.892674 0
M  V30 3601 H 330.823 -2.48256 -0.56929 0
M  V30 3602 H 331.606 -3.31887 0.877851 0
M  V30 3603 N 334.051 0.0651679 -1.57465 0
M  V30 3604 C 335.299 0.761555 -1.87202 0
M  V30 3605 C 335.62 1.77778 -0.801243 0
M  V30 3606 O 334.89 1.95166 0.16937 0
M  V30 3607 H 333.47 0.284251 -0.690804 0
M  V30 3608 H 336.132 0.0396827 -1.9486 0
M  V30 3609 H 335.228 1.27365 -2.84929 0
M  V30 3610 N 335.529 1.53961 0.336706 0
M  V30 3611 C 336.461 1.78751 1.4346 0
M  V30 3612 C 337.474 0.669019 1.48418 0
M  V30 3613 O 338.663 0.945884 1.51378 0
M  V30 3614 C 335.763 1.87844 2.82078 0
M  V30 3615 C 334.936 3.17854 3.00479 0
M  V30 3616 C 333.995 3.17816 4.19379 0
M  V30 3617 O 333.021 3.91511 4.13168 0
M  V30 3618 N 334.223 2.40669 5.2826 0
M  V30 3619 H 336.988 2.73493 1.22563 0
M  V30 3620 H 334.549 1.53096 0.526625 0
M  V30 3621 H 336.541 1.85261 3.59806 0
M  V30 3622 H 335.111 1.00257 2.96086 0
M  V30 3623 H 334.331 3.33504 2.10163 0
M  V30 3624 H 335.619 4.03718 3.0966 0
M  V30 3625 H 335.017 1.8036 5.36178 0
M  V30 3626 H 333.574 2.43877 6.04456 0
M  V30 3627 N 337.007 -0.598083 1.45811 0
M  V30 3628 C 337.917 -1.73632 1.57763 0
M  V30 3629 C 338.933 -1.67763 0.461676 0
M  V30 3630 O 340.109 -1.87949 0.723685 0
M  V30 3631 C 337.174 -3.10114 1.55018 0
M  V30 3632 C 336.235 -3.27364 2.77726 0
M  V30 3633 C 335.468 -4.57334 2.75102 0
M  V30 3634 O 335.691 -5.40258 1.8297 0
M  V30 3635 O 334.625 -4.77502 3.66437 0
M  V30 3636 H 338.451 -1.66498 2.53992 0
M  V30 3637 H 336.036 -0.763308 1.28429 0
M  V30 3638 H 337.918 -3.9141 1.56129 0
M  V30 3639 H 336.593 -3.17718 0.619431 0
M  V30 3640 H 335.5 -2.45619 2.82174 0
M  V30 3641 H 336.833 -3.24641 3.69958 0
M  V30 3642 O 338.524 -1.43439 -0.742122 0
M  V30 3643 H 339.215 -1.3475 -1.39148 0
M  V30 END ATOM
M  V30 BEGIN BOND
M  V30 END BOND
M  V30 END CTAB
M  END
$$$$
