drugbank_target|P40394 Alcohol dehydrogenase class 4 mu/sigma chain (DB00157)
 OpenBabel12092119333D

  0  0  0     0  0            999 V3000
M  V30 BEGIN CTAB
M  V30 COUNTS 5874 5926 0 0 0
M  V30 BEGIN ATOM
M  V30 1 H -0.908 1.98254 -0.117106 0
M  V30 2 N 0 1.576 0 0
M  V30 3 C 0.933 2.03868 1.02534 0
M  V30 4 C 1.911 0.928543 1.3348 0
M  V30 5 O 3.095 1.19667 1.45644 0
M  V30 6 C 0.222 2.43627 2.35294 0
M  V30 7 C -0.732 3.65373 2.2001 0
M  V30 8 S 0.101 5.13292 1.52614 0
M  V30 9 C 1.257 5.56322 2.86805 0
M  V30 10 H 1.49 2.90518 0.631377 0
M  V30 11 H -0.977 1.52953 0.210867 0
M  V30 12 H 0.981 2.67203 3.11629 0
M  V30 13 H -0.358 1.57376 2.7183 0
M  V30 14 H -1.165 3.90944 3.18086 0
M  V30 15 H -1.563 3.418 1.51819 0
M  V30 16 H 0.729 5.58782 3.83104 0
M  V30 17 H 1.672 6.56266 2.65933 0
M  V30 18 H 2.08 4.83886 2.90714 0
M  V30 19 N 1.4781 -0.272755 1.55222 0
M  V30 20 C 2.7251 -1.00433 1.7584 0
M  V30 21 C 3.0531 -1.86275 0.559629 0
M  V30 22 O 2.3081 -1.90269 -0.457857 0
M  V30 23 C 2.6071 -1.91642 3.01675 0
M  V30 24 C 2.2731 -1.21548 4.34208 0
M  V30 25 C 0.9351 -1.02166 4.70229 0
M  V30 26 C 3.2871 -0.716684 5.16249 0
M  V30 27 C 0.6151 -0.316334 5.85847 0
M  V30 28 C 2.9671 -0.0249476 6.32595 0
M  V30 29 C 1.6311 0.180579 6.67256 0
M  V30 30 H 0.9011 -0.367509 0.643443 0
M  V30 31 H 3.5481 -0.276596 1.89492 0
M  V30 32 H 1.8531 -2.71037 2.82924 0
M  V30 33 H 3.5501 -2.48369 3.14824 0
M  V30 34 H 0.1401 -1.37645 4.05896 0
M  V30 35 H 4.3241 -0.854047 4.88896 0
M  V30 36 H -0.4199 -0.146378 6.11225 0
M  V30 37 H 3.7541 0.369311 6.9542 0
M  V30 38 H 1.3811 0.729098 7.56696 0
M  V30 39 N 2.9562 -1.48159 -0.537278 0
M  V30 40 C 3.9192 -1.61665 -1.62472 0
M  V30 41 C 4.9192 -0.490395 -1.5314 0
M  V30 42 O 6.1092 -0.755998 -1.5694 0
M  V30 43 C 3.2412 -1.57997 -3.02076 0
M  V30 44 H 4.4342 -2.58621 -1.51839 0
M  V30 45 H 1.9872 -1.36647 -0.758771 0
M  V30 46 H 2.7222 -0.624913 -3.18222 0
M  V30 47 H 2.5072 -2.39755 -3.10258 0
M  V30 48 H 3.9972 -1.70627 -3.81151 0
M  V30 49 N 4.4343 0.785586 -1.36625 0
M  V30 50 C 5.3443 1.92964 -1.33425 0
M  V30 51 C 6.3603 1.72394 -0.235851 0
M  V30 52 O 7.5363 1.95866 -0.468878 0
M  V30 53 C 4.6013 3.27884 -1.12662 0
M  V30 54 C 3.6623 3.61204 -2.32013 0
M  V30 55 C 2.8953 4.89687 -2.12231 0
M  V30 56 O 3.1183 5.59704 -1.09945 0
M  V30 57 O 2.0523 5.21752 -3.00098 0
M  V30 58 H 5.8783 1.98613 -2.29753 0
M  V30 59 H 3.4633 0.926384 -1.17211 0
M  V30 60 H 5.3453 4.08614 -1.03016 0
M  V30 61 H 4.0203 3.23118 -0.193991 0
M  V30 62 H 2.9273 2.80765 -2.47228 0
M  V30 63 H 4.2603 3.70698 -3.23796 0
M  V30 64 N 5.9124 1.20967 1.01018 0
M  V30 65 C 7.1614 1.01796 1.74128 0
M  V30 66 C 7.4744 -0.449691 1.90361 0
M  V30 67 O 8.6804 -0.76068 2.60626 0
M  V30 68 C 7.1364 1.7727 3.13215 0
M  V30 69 C 6.7444 3.28171 3.04972 0
M  V30 70 C 8.4884 1.66489 3.90489 0
M  V30 71 C 6.3954 3.96156 4.39107 0
M  V30 72 H 5.3254 0.377276 0.652824 0
M  V30 73 H 7.9764 1.44651 1.12909 0
M  V30 74 H 6.3584 1.27205 3.75013 0
M  V30 75 H 7.5324 3.85499 2.52443 0
M  V30 76 H 5.8474 3.39437 2.41188 0
M  V30 77 H 8.4444 2.14617 4.89738 0
M  V30 78 H 8.7874 0.6222 4.11624 0
M  V30 79 H 9.3204 2.14003 3.35332 0
M  V30 80 H 6.0594 5.00604 4.23174 0
M  V30 81 H 5.5794 3.43617 4.91617 0
M  V30 82 H 7.2584 4.00774 5.07926 0
M  V30 83 N 7.3905 -1.2043 1.01659 0
M  V30 84 C 8.3225 -2.22626 0.544988 0
M  V30 85 C 9.3355 -1.58479 -0.372609 0
M  V30 86 O 10.5245 -1.77679 -0.170958 0
M  V30 87 C 7.6245 -3.38141 -0.22663 0
M  V30 88 C 6.7975 -4.31877 0.692876 0
M  V30 89 C 5.8565 -5.26191 -0.0311616 0
M  V30 90 O 4.8825 -5.6612 0.591343 0
M  V30 91 N 6.0845 -5.65618 -1.30601 0
M  V30 92 H 8.8495 -2.63716 1.42388 0
M  V30 93 H 6.4105 -1.34971 0.894116 0
M  V30 94 H 8.4025 -3.98239 -0.72024 0
M  V30 95 H 6.9725 -2.95943 -1.00681 0
M  V30 96 H 6.1925 -3.69746 1.36679 0
M  V30 97 H 7.4805 -4.91426 1.31824 0
M  V30 98 H 6.8785 -5.3519 -1.83269 0
M  V30 99 H 5.4355 -6.28025 -1.74435 0
M  V30 100 N 8.8686 -0.792821 -1.36206 0
M  V30 101 C 10.1176 -0.363353 -1.984 0
M  V30 102 C 10.4306 1.07172 -1.63626 0
M  V30 103 O 11.6366 1.60362 -2.19081 0
M  V30 104 C 10.0926 -0.59872 -3.54885 0
M  V30 105 C 9.7006 -2.04543 -3.9858 0
M  V30 106 C 11.4446 -0.233926 -4.23855 0
M  V30 107 C 9.3516 -2.22727 -5.47856 0
M  V30 108 H 8.2816 -0.13212 -0.742334 0
M  V30 109 H 10.9326 -0.974935 -1.55458 0
M  V30 110 H 9.3146 0.0826222 -3.95914 0
M  V30 111 H 10.4886 -2.76345 -3.68741 0
M  V30 112 H 8.8036 -2.36879 -3.42458 0
M  V30 113 H 11.4006 -0.348027 -5.33566 0
M  V30 114 H 11.7436 0.818351 -4.08177 0
M  V30 115 H 12.2766 -0.868639 -3.882 0
M  V30 116 H 9.0156 -3.2635 -5.68486 0
M  V30 117 H 8.5356 -1.55434 -5.7931 0
M  V30 118 H 10.2146 -2.03607 -6.14128 0
M  V30 119 N 10.3467 1.47872 -0.545128 0
M  V30 120 C 11.2787 2.27869 0.246621 0
M  V30 121 C 12.2917 1.36282 0.890561 0
M  V30 122 O 13.4807 1.61207 0.766449 0
M  V30 123 C 10.5807 3.10159 1.36582 0
M  V30 124 C 9.7537 4.29627 0.820954 0
M  V30 125 C 8.8127 4.93607 1.82314 0
M  V30 126 O 7.8387 5.52366 1.37406 0
M  V30 127 N 9.0407 4.87211 3.15603 0
M  V30 128 H 11.8057 2.96459 -0.439539 0
M  V30 129 H 9.3667 1.57367 -0.380421 0
M  V30 130 H 11.3587 3.49829 2.03474 0
M  V30 131 H 9.9287 2.43891 1.9554 0
M  V30 132 H 9.1487 3.94192 -0.0244032 0
M  V30 133 H 10.4367 5.06928 0.436063 0
M  V30 134 H 9.8347 4.40651 3.54744 0
M  V30 135 H 8.3917 5.30937 3.78087 0
M  V30 136 N 11.8248 0.280983 1.55075 0
M  V30 137 C 13.1018 -0.386207 1.91749 0
M  V30 138 C 13.4818 -1.73264 1.20594 0
M  V30 139 O 12.8298 -2.26034 0.334784 0
M  V30 140 C 13.0398 -0.520687 3.45094 0
M  V30 141 C 14.3878 -0.800865 4.16979 0
M  V30 142 O 15.4118 -0.605271 3.5102 0
M  V30 143 O 14.2708 -1.1753 5.33712 0
M  V30 144 H 11.3648 -0.212408 0.799257 0
M  V30 145 H 13.9108 0.327568 1.66509 0
M  V30 146 H 12.6828 0.426633 3.88967 0
M  V30 147 H 12.3058 -1.2837 3.76307 0
M  V30 148 N 13.3029 -1.57598 0.00835791 0
M  V30 149 C 14.2499 -2.08945 -0.980346 0
M  V30 150 C 15.2199 -0.986738 -1.33614 0
M  V30 151 O 16.4049 -1.25968 -1.43306 0
M  V30 152 C 13.5449 -2.60425 -2.26435 0
M  V30 153 C 12.6579 -3.84628 -1.96685 0
M  V30 154 C 11.7929 -4.24579 -3.19228 0
M  V30 155 C 10.8319 -5.41596 -2.85202 0
M  V30 156 N 9.9689 -5.768 -4.00307 0
M  V30 157 H 14.8089 -2.93148 -0.535551 0
M  V30 158 H 12.3459 -1.44912 -0.252776 0
M  V30 159 H 14.3039 -2.88354 -3.01509 0
M  V30 160 H 12.9339 -1.79083 -2.68568 0
M  V30 161 H 11.9859 -3.63556 -1.11942 0
M  V30 162 H 13.2979 -4.69796 -1.67611 0
M  V30 163 H 12.4519 -4.53834 -4.02641 0
M  V30 164 H 11.1909 -3.38137 -3.51447 0
M  V30 165 H 10.1959 -5.12056 -2.00198 0
M  V30 166 H 11.4209 -6.29721 -2.54222 0
M  V30 167 H 9.3669 -4.93316 -4.32407 0
M  V30 168 H 9.2839 -6.5656 -3.74786 0
M  V30 169 H 10.5519 -6.10652 -4.84484 0
M  V30 170 N 14.781 0.264519 -1.55364 0
M  V30 171 C 16.058 1.01677 -1.67096 0
M  V30 172 C 16.438 2.03996 -0.543015 0
M  V30 173 O 15.786 2.23907 0.45585 0
M  V30 174 C 15.996 1.66596 -3.0667 0
M  V30 175 C 17.344 2.17442 -3.64697 0
M  V30 176 O 18.368 1.76568 -3.09358 0
M  V30 177 O 17.227 2.92439 -4.61673 0
M  V30 178 H 14.321 0.472161 -0.678965 0
M  V30 179 H 16.867 0.259703 -1.67701 0
M  V30 180 H 15.639 0.924962 -3.80211 0
M  V30 181 H 15.262 2.48968 -3.10001 0
M  V30 182 N 16.2591 1.48442 0.529413 0
M  V30 183 C 17.6751 1.34575 0.858004 0
M  V30 184 C 17.8751 0.3572 1.98309 0
M  V30 185 O 16.9311 -0.221379 2.51528 0
M  V30 186 C 18.2441 2.74617 1.22499 0
M  V30 187 C 19.7921 2.83109 1.33484 0
M  V30 188 C 20.2671 4.23854 1.73526 0
M  V30 189 N 21.7581 4.2653 1.80628 0
M  V30 190 C 22.4931 5.32372 2.12997 0
M  V30 191 N 21.9891 6.48491 2.43786 0
M  V30 192 N 23.7821 5.19766 2.14008 0
M  V30 193 H 15.9331 2.1133 -0.212925 0
M  V30 194 H 18.1961 0.947439 -0.0326199 0
M  V30 195 H 17.9021 3.4852 0.471905 0
M  V30 196 H 17.7761 3.08177 2.17501 0
M  V30 197 H 20.1631 2.09462 2.0787 0
M  V30 198 H 20.2441 2.53168 0.366027 0
M  V30 199 H 19.8881 4.98018 0.997013 0
M  V30 200 H 19.8181 4.5124 2.71459 0
M  V30 201 H 22.3091 3.42772 1.59108 0
M  V30 202 H 22.6221 7.24993 2.67592 0
M  V30 203 H 20.9671 6.51765 2.41304 0
M  V30 204 H 24.1581 4.28066 1.89412 0
M  V30 205 H 24.3311 6.02354 2.38902 0
M  V30 206 N 17.7372 -0.778329 1.37039 0
M  V30 207 C 18.6702 -1.8984 1.26633 0
M  V30 208 C 19.6482 -1.61923 0.148197 0
M  V30 209 O 20.8322 -1.85742 0.321265 0
M  V30 210 C 17.9592 -3.24916 0.956403 0
M  V30 211 C 17.0052 -3.71752 2.09051 0
M  V30 212 S 17.8382 -3.86201 3.70957 0
M  V30 213 C 18.9942 -5.24135 3.42101 0
M  V30 214 H 19.2272 -1.98377 2.21436 0
M  V30 215 H 16.7602 -0.938738 1.22585 0
M  V30 216 H 18.7182 -4.02936 0.784409 0
M  V30 217 H 17.3792 -3.14089 0.0259713 0
M  V30 218 H 16.5722 -4.69661 1.8285 0
M  V30 219 H 16.1742 -3.00815 2.2223 0
M  V30 220 H 18.4662 -6.09086 2.96682 0
M  V30 221 H 19.4092 -5.55346 4.39314 0
M  V30 222 H 19.8172 -4.91761 2.77185 0
M  V30 223 N 19.2153 -1.21501 -1.00376 0
M  V30 224 C 20.4633 -1.03095 -1.73827 0
M  V30 225 C 20.7843 0.436341 -1.90055 0
M  V30 226 O 20.0543 1.31466 -1.45236 0
M  V30 227 H 18.6343 -0.378487 -0.644016 0
M  V30 228 H 21.2963 -1.52831 -1.20949 0
M  V30 229 H 20.3923 -1.49991 -2.73695 0
M  V30 230 N 20.6934 1.19889 -1.02296 0
M  V30 231 C 21.9214 1.9339 -0.735399 0
M  V30 232 C 22.3364 1.75148 0.704887 0
M  V30 233 O 21.6934 1.06954 1.47875 0
M  V30 234 C 21.7444 3.45313 -1.06962 0
M  V30 235 O 21.4654 3.62964 -2.45334 0
M  V30 236 C 22.9664 4.35948 -0.804021 0
M  V30 237 H 20.1864 0.61448 -0.269546 0
M  V30 238 H 22.7304 1.522 -1.36585 0
M  V30 239 H 20.8854 3.84359 -0.484455 0
M  V30 240 H 21.2994 4.56886 -2.57595 0
M  V30 241 H 22.7734 5.41174 -1.0879 0
M  V30 242 H 23.2504 4.3842 0.261691 0
M  V30 243 H 23.8564 4.02574 -1.37164 0
M  V30 244 N 22.1715 0.800033 1.35784 0
M  V30 245 C 23.1345 0.211565 2.28221 0
M  V30 246 C 24.1345 -0.59728 1.49296 0
M  V30 247 O 25.3245 -0.416721 1.69142 0
M  V30 248 C 22.4565 -0.705846 3.33513 0
M  V30 249 H 23.6495 1.02677 2.81776 0
M  V30 250 H 21.2025 0.570211 1.45528 0
M  V30 251 H 21.9375 -1.54498 2.85133 0
M  V30 252 H 21.7225 -0.127655 3.91892 0
M  V30 253 H 23.2125 -1.11211 4.02519 0
M  V30 254 N 23.6496 -1.47581 0.552962 0
M  V30 255 C 24.8976 -2.02082 0.0272703 0
M  V30 256 C 25.2186 -1.4301 -1.32563 0
M  V30 257 O 24.4886 -0.603745 -1.86365 0
M  V30 258 H 23.0686 -0.746966 0.00709182 0
M  V30 259 H 25.7306 -1.81033 0.722008 0
M  V30 260 H 24.8266 -3.12034 -0.0639951 0
M  V30 261 N 25.1277 -0.289203 -1.54924 0
M  V30 262 C 26.0747 0.592115 -2.23075 0
M  V30 263 C 27.0447 1.13881 -1.20915 0
M  V30 264 O 28.2297 1.18551 -1.495 0
M  V30 265 C 25.3697 1.76376 -2.96623 0
M  V30 266 C 24.4827 1.24959 -4.13533 0
M  V30 267 C 23.6177 2.38416 -4.74691 0
M  V30 268 C 22.6567 1.84072 -5.83767 0
M  V30 269 N 21.7937 2.91057 -6.38929 0
M  V30 270 H 26.6337 0.00432038 -2.98 0
M  V30 271 H 24.1707 -0.00963529 -1.47097 0
M  V30 272 H 26.1287 2.45268 -3.3749 0
M  V30 273 H 24.7587 2.32337 -2.24097 0
M  V30 274 H 23.8107 0.453307 -3.77689 0
M  V30 275 H 25.1227 0.811662 -4.92152 0
M  V30 276 H 24.2767 3.15276 -5.18349 0
M  V30 277 H 23.0157 2.8553 -3.95378 0
M  V30 278 H 22.0207 1.05697 -5.39545 0
M  V30 279 H 23.2457 1.37877 -6.64956 0
M  V30 280 H 21.1917 3.37526 -5.62505 0
M  V30 281 H 21.1087 2.51724 -7.12861 0
M  V30 282 H 22.3767 3.6785 -6.87246 0
M  V30 283 N 26.6058 1.57591 -0.0167156 0
M  V30 284 C 27.8518 1.91567 0.665582 0
M  V30 285 C 28.1848 0.892298 1.72487 0
M  V30 286 O 27.4598 -0.0867127 1.94307 0
M  V30 287 C 27.7428 3.36069 1.29342 0
M  V30 288 C 27.5958 4.49135 0.244541 0
M  V30 289 C 28.9148 3.803 2.21495 0
M  V30 290 H 26.0338 0.69666 0.240488 0
M  V30 291 H 28.6758 1.89866 -0.0714356 0
M  V30 292 H 26.8258 3.3765 1.92158 0
M  V30 293 H 28.4978 4.59689 -0.385228 0
M  V30 294 H 26.7408 4.3165 -0.431379 0
M  V30 295 H 27.4118 5.47242 0.723207 0
M  V30 296 H 29.8878 3.80377 1.68678 0
M  V30 297 H 28.7638 4.82127 2.62382 0
M  V30 298 H 29.0248 3.15104 3.101 0
M  V30 299 N 28.0839 -0.256276 1.55502 0
M  V30 300 C 29.3329 -0.983486 1.76098 0
M  V30 301 C 29.6459 -1.86837 0.578896 0
M  V30 302 O 30.8519 -2.63163 0.667648 0
M  V30 303 C 29.3079 -1.79868 3.1173 0
M  V30 304 C 28.9159 -0.961648 4.37557 0
M  V30 305 C 30.6599 -2.51919 3.41668 0
M  V30 306 C 28.5669 -1.77219 5.64223 0
M  V30 307 H 27.4969 -0.370936 0.656447 0
M  V30 308 H 30.1479 -0.238492 1.81944 0
M  V30 309 H 28.5299 -2.58527 2.99966 0
M  V30 310 H 29.7039 -0.218048 4.60284 0
M  V30 311 H 28.0189 -0.354913 4.14885 0
M  V30 312 H 30.6159 -3.12998 4.33516 0
M  V30 313 H 30.9589 -3.23059 2.62562 0
M  V30 314 H 31.4919 -1.80278 3.54605 0
M  V30 315 H 28.2309 -1.10471 6.46124 0
M  V30 316 H 27.7509 -2.49132 5.45613 0
M  V30 317 H 29.4299 -2.34169 6.03137 0
M  V30 318 N 29.562 -1.4872 -0.521534 0
M  V30 319 C 30.509 -1.63871 -1.62527 0
M  V30 320 C 31.479 -0.480559 -1.58996 0
M  V30 321 O 32.664 -0.705085 -1.77294 0
M  V30 322 C 29.804 -1.69227 -3.00759 0
M  V30 323 C 28.917 -2.96207 -3.14461 0
M  V30 324 C 28.052 -2.92671 -4.43303 0
M  V30 325 C 27.091 -4.14318 -4.50563 0
M  V30 326 N 26.228 -4.0881 -5.70805 0
M  V30 327 H 31.068 -2.58123 -1.48918 0
M  V30 328 H 28.605 -1.28 -0.724878 0
M  V30 329 H 30.563 -1.70314 -3.80853 0
M  V30 330 H 29.193 -0.784586 -3.1312 0
M  V30 331 H 28.245 -3.04826 -2.27564 0
M  V30 332 H 29.557 -3.86192 -3.15686 0
M  V30 333 H 28.711 -2.92206 -5.31696 0
M  V30 334 H 27.45 -2.00429 -4.44612 0
M  V30 335 H 26.455 -4.15049 -3.60575 0
M  V30 336 H 27.68 -5.07729 -4.50986 0
M  V30 337 H 25.626 -3.19394 -5.72995 0
M  V30 338 H 25.543 -4.92509 -5.7356 0
M  V30 339 H 26.811 -4.12418 -6.61462 0
M  V30 340 N 31.0401 0.771051 -1.3745 0
M  V30 341 C 32.2801 1.54264 -1.34096 0
M  V30 342 C 32.6441 1.91858 0.0737639 0
M  V30 343 O 33.8451 2.67797 0.23203 0
M  V30 344 C 32.1161 2.77326 -2.25445 0
M  V30 345 S 33.6751 3.67383 -2.39948 0
M  V30 346 H 30.4931 0.528122 -0.476034 0
M  V30 347 H 33.0951 0.906633 -1.73206 0
M  V30 348 H 31.7991 2.47788 -3.27153 0
M  V30 349 H 31.3301 3.45886 -1.87421 0
M  V30 350 H 33.3451 4.69334 -1.61059 0
M  V30 351 N 32.5182 1.22032 0.997298 0
M  V30 352 C 33.4652 0.986467 2.08656 0
M  V30 353 C 34.4352 -0.0902671 1.65855 0
M  V30 354 O 35.6202 0.0584294 1.90711 0
M  V30 355 C 32.7602 0.565569 3.40434 0
M  V30 356 C 31.8732 1.71259 3.96604 0
M  V30 357 C 31.0082 1.24011 5.16522 0
M  V30 358 C 30.0472 2.35896 5.64818 0
M  V30 359 N 29.1842 1.89726 6.7598 0
M  V30 360 H 34.0242 1.91892 2.27994 0
M  V30 361 H 31.5612 0.956199 1.11782 0
M  V30 362 H 33.5192 0.302738 4.161 0
M  V30 363 H 32.1492 -0.329879 3.2111 0
M  V30 364 H 31.2012 2.08986 3.17851 0
M  V30 365 H 32.5132 2.55436 4.28432 0
M  V30 366 H 31.6672 0.934395 5.99461 0
M  V30 367 H 30.4062 0.368487 4.86306 0
M  V30 368 H 29.4112 2.67261 4.8047 0
M  V30 369 H 30.6362 3.23567 5.97061 0
M  V30 370 H 28.5822 1.0492 6.47555 0
M  V30 371 H 28.4992 2.67471 7.07103 0
M  V30 372 H 29.7672 1.62211 7.62435 0
M  V30 373 N 33.9963 -1.19345 1.0293 0
M  V30 374 C 34.9593 -2.20793 0.615069 0
M  V30 375 C 35.9593 -1.57553 -0.321533 0
M  V30 376 O 37.1493 -1.73862 -0.108483 0
M  V30 377 C 34.2813 -3.40754 -0.0999222 0
M  V30 378 H 35.4743 -2.58955 1.51269 0
M  V30 379 H 33.0273 -1.3303 0.820534 0
M  V30 380 H 33.7623 -3.0811 -1.01187 0
M  V30 381 H 33.5473 -3.87889 0.57309 0
M  V30 382 H 35.0373 -4.15898 -0.376645 0
M  V30 383 N 35.4744 -0.807222 -1.35358 0
M  V30 384 C 36.4374 -0.223665 -2.28106 0
M  V30 385 C 37.4374 0.589354 -1.4961 0
M  V30 386 O 38.6274 0.407745 -1.69361 0
M  V30 387 C 35.7594 0.688149 -3.33882 0
M  V30 388 H 36.9524 -1.04169 -2.81227 0
M  V30 389 H 34.5054 -0.577921 -1.45223 0
M  V30 390 H 35.2404 1.52984 -2.85948 0
M  V30 391 H 35.0254 0.10687 -3.91954 0
M  V30 392 H 36.5154 1.09075 -4.03104 0
M  V30 393 N 36.9525 1.47285 -0.560781 0
M  V30 394 C 38.1985 2.02764 -0.0381184 0
M  V30 395 C 38.5315 1.43384 1.30976 0
M  V30 396 O 37.8065 0.590733 1.85312 0
M  V30 397 C 38.0895 3.60064 0.0511427 0
M  V30 398 C 37.9425 4.2987 -1.32408 0
M  V30 399 C 39.2615 4.33439 0.762795 0
M  V30 400 H 36.3805 0.736841 -0.0153264 0
M  V30 401 H 39.0225 1.75675 -0.723759 0
M  V30 402 H 37.1725 3.83274 0.635065 0
M  V30 403 H 38.8445 4.17989 -1.95148 0
M  V30 404 H 37.0875 3.90085 -1.8978 0
M  V30 405 H 37.7585 5.38478 -1.21431 0
M  V30 406 H 40.2345 4.15243 0.266965 0
M  V30 407 H 39.1105 5.43124 0.794221 0
M  V30 408 H 39.3715 4.02915 1.81966 0
M  V30 409 N 38.4306 0.297415 1.54768 0
M  V30 410 C 39.3606 -0.573494 2.26348 0
M  V30 411 C 40.3416 -1.14085 1.26169 0
M  V30 412 O 41.5266 -1.17086 1.54934 0
M  V30 413 C 38.6566 -1.74716 3.00153 0
M  V30 414 C 37.6106 -1.31032 4.07449 0
M  V30 415 C 36.9366 -2.56887 4.68949 0
M  V30 416 C 38.2366 -0.444183 5.20408 0
M  V30 417 H 39.9306 0.0235131 2.99391 0
M  V30 418 H 37.4766 0.0127488 1.43994 0
M  V30 419 H 39.4296 -2.3625 3.48947 0
M  V30 420 H 38.1536 -2.37035 2.24682 0
M  V30 421 H 36.8126 -0.718066 3.59499 0
M  V30 422 H 36.4606 -3.17512 3.90122 0
M  V30 423 H 36.1606 -2.2836 5.41411 0
M  V30 424 H 37.6846 -3.19229 5.20505 0
M  V30 425 H 39.0986 -0.9651 5.65118 0
M  V30 426 H 37.4956 -0.252846 5.99567 0
M  V30 427 H 38.5656 0.531609 4.81977 0
M  V30 428 N 39.9087 -1.5758 0.0250728 0
M  V30 429 C 41.1547 -1.92746 -0.649648 0
M  V30 430 C 41.5097 -0.901588 -1.69968 0
M  V30 431 O 40.8027 0.0829251 -1.9142 0
M  V30 432 C 40.9967 -3.32421 -1.31268 0
M  V30 433 C 40.8257 -4.48499 -0.328394 0
M  V30 434 C 39.5957 -5.05251 0.070284 0
M  V30 435 C 41.7937 -5.12618 0.415665 0
M  V30 436 N 39.7757 -6.04851 1.05016 0
M  V30 437 C 41.1467 -6.0728 1.24943 0
M  V30 438 C 43.2017 -4.95612 0.476803 0
M  V30 439 C 41.9047 -6.86766 2.1388 0
M  V30 440 C 43.9307 -5.75703 1.3535 0
M  V30 441 C 43.2927 -6.69978 2.17504 0
M  V30 442 H 39.3917 -0.753231 -0.210159 0
M  V30 443 H 41.9757 -1.94486 0.0912999 0
M  V30 444 H 40.1467 -3.31508 -2.02379 0
M  V30 445 H 41.8787 -3.54946 -1.94411 0
M  V30 446 H 38.6337 -4.72628 -0.303323 0
M  V30 447 H 39.0577 -6.5934 1.53622 0
M  V30 448 H 43.6997 -4.22554 -0.144105 0
M  V30 449 H 41.4177 -7.59132 2.77027 0
M  V30 450 H 45.0037 -5.64579 1.40504 0
M  V30 451 H 43.8837 -7.30873 2.84244 0
M  V30 452 N 41.3868 0.248026 -1.55636 0
M  V30 453 C 42.2968 1.32859 -1.93354 0
M  V30 454 C 43.3128 1.52719 -0.833838 0
M  V30 455 O 44.4888 1.66363 -1.13513 0
M  V30 456 C 41.5538 2.66337 -2.21958 0
M  V30 457 C 40.6148 2.55008 -3.45354 0
M  V30 458 C 39.8478 3.82121 -3.72584 0
M  V30 459 O 40.0708 4.83951 -3.01907 0
M  V30 460 O 39.0048 3.80822 -4.6611 0
M  V30 461 H 42.8308 1.03862 -2.85388 0
M  V30 462 H 40.4158 0.448686 -1.42503 0
M  V30 463 H 42.2978 3.45216 -2.4167 0
M  V30 464 H 40.9728 2.95068 -1.33103 0
M  V30 465 H 39.8798 1.7442 -3.30951 0
M  V30 466 H 41.2128 2.31222 -4.34508 0
M  V30 467 N 42.8649 1.48995 0.513639 0
M  V30 468 C 43.7969 1.60836 1.63293 0
M  V30 469 C 44.8099 0.491701 1.55197 0
M  V30 470 O 45.9989 0.763238 1.6136 0
M  V30 471 C 43.0989 1.53731 3.02027 0
M  V30 472 C 42.2719 2.80715 3.35437 0
M  V30 473 C 41.3309 2.66837 4.53525 0
M  V30 474 O 40.3569 3.40753 4.55934 0
M  V30 475 N 41.5589 1.77539 5.52684 0
M  V30 476 H 44.3239 2.57366 1.53566 0
M  V30 477 H 41.8849 1.45925 0.701259 0
M  V30 478 H 43.8769 1.42118 3.78926 0
M  V30 479 H 42.4469 0.651092 3.05744 0
M  V30 480 H 41.6669 3.06772 2.47557 0
M  V30 481 H 42.9549 3.64927 3.54551 0
M  V30 482 H 42.3529 1.16719 5.53528 0
M  V30 483 H 40.9099 1.71856 6.28736 0
M  V30 484 N 44.343 -0.763751 1.37857 0
M  V30 485 C 45.29 -1.87726 1.34267 0
M  V30 486 C 46.26 -1.64807 0.206879 0
M  V30 487 O 47.445 -1.86613 0.397508 0
M  V30 488 C 44.585 -3.24896 1.16346 0
M  V30 489 C 43.698 -3.59716 2.39225 0
M  V30 490 C 42.833 -4.86137 2.14114 0
M  V30 491 C 41.872 -5.13711 3.32817 0
M  V30 492 N 41.009 -6.31323 3.07206 0
M  V30 493 H 45.849 -1.90129 2.29466 0
M  V30 494 H 43.386 -0.929433 1.14017 0
M  V30 495 H 45.344 -4.04036 1.03975 0
M  V30 496 H 43.974 -3.21847 0.247909 0
M  V30 497 H 43.026 -2.75498 2.62307 0
M  V30 498 H 44.338 -3.76027 3.27728 0
M  V30 499 H 43.492 -5.73198 1.9882 0
M  V30 500 H 42.231 -4.71945 1.22961 0
M  V30 501 H 41.236 -4.25123 3.48641 0
M  V30 502 H 42.461 -5.29807 4.24832 0
M  V30 503 H 40.407 -6.18474 2.1869 0
M  V30 504 H 40.324 -6.48087 3.89254 0
M  V30 505 H 41.592 -7.213 2.95546 0
M  V30 506 N 45.8211 -1.22559 -0.990812 0
M  V30 507 C 46.7531 -0.955325 -2.08342 0
M  V30 508 C 47.7661 0.0668408 -1.62663 0
M  V30 509 O 48.9551 -0.167421 -1.77713 0
M  V30 510 C 46.0551 -0.415566 -3.36342 0
M  V30 511 C 45.2281 -1.49544 -4.11042 0
M  V30 512 C 44.2871 -0.962399 -5.17324 0
M  V30 513 O 43.3131 -1.64907 -5.44788 0
M  V30 514 N 44.5151 0.215134 -5.80101 0
M  V30 515 H 47.2801 -1.89596 -2.32106 0
M  V30 516 H 44.8411 -1.13276 -1.15673 0
M  V30 517 H 46.8331 -0.0442386 -4.04676 0
M  V30 518 H 45.4031 0.430232 -3.09625 0
M  V30 519 H 44.6231 -2.04 -3.37309 0
M  V30 520 H 45.9111 -2.22195 -4.57719 0
M  V30 521 H 45.3091 0.789779 -5.6016 0
M  V30 522 H 43.8661 0.527826 -6.49659 0
M  V30 523 N 47.2992 1.18797 -1.03562 0
M  V30 524 C 48.7102 1.70322 -0.764676 0
M  V30 525 C 49.0612 1.82708 0.714996 0
M  V30 526 O 48.1862 1.50299 1.55689 0
M  V30 527 C 48.7812 3.09356 -1.38145 0
M  V30 528 C 47.3402 3.58114 -1.15895 0
M  V30 529 C 46.4872 2.34798 -1.4753 0
M  V30 530 H 49.4382 1.03543 -1.20268 0
M  V30 531 H 49.4592 3.72378 -0.781977 0
M  V30 532 H 48.9712 3.00309 -2.45837 0
M  V30 533 H 47.0722 3.72464 -0.100544 0
M  V30 534 H 47.1852 4.4184 -1.8524 0
M  V30 535 H 45.5492 2.38464 -0.894829 0
M  V30 536 H 46.3322 2.28375 -2.56319 0
M  V30 537 N 48.7773 0.814389 1.34928 0
M  V30 538 C 50.0243 0.398423 1.98542 0
M  V30 539 C 50.3523 -1.03638 1.64589 0
M  V30 540 O 49.6073 -1.73509 0.90516 0
M  V30 541 C 49.9063 0.537781 3.53331 0
M  V30 542 C 49.5723 1.93704 4.07172 0
M  V30 543 C 48.2343 2.31984 4.21589 0
M  V30 544 C 50.5863 2.85213 4.36237 0
M  V30 545 C 47.9143 3.61125 4.62391 0
M  V30 546 C 50.2663 4.13809 4.78482 0
M  V30 547 C 48.9303 4.52077 4.91104 0
M  V30 548 H 48.2003 0.145793 0.726516 0
M  V30 549 H 50.8473 1.03669 1.61012 0
M  V30 550 H 49.1523 -0.183906 3.91368 0
M  V30 551 H 50.8493 0.196588 4.00518 0
M  V30 552 H 47.4393 1.62966 3.96409 0
M  V30 553 H 51.6233 2.56885 4.24645 0
M  V30 554 H 46.8793 3.90612 4.70353 0
M  V30 555 H 51.0533 4.84811 4.99932 0
M  V30 556 H 48.6803 5.52196 5.22478 0
M  V30 557 N 50.2554 -1.46986 0.568584 0
M  V30 558 C 51.4804 -2.07335 0.0520528 0
M  V30 559 C 51.9054 -1.41675 -1.23733 0
M  V30 560 O 51.2634 -0.495623 -1.74394 0
M  V30 561 C 51.3114 -3.60417 -0.11501 0
M  V30 562 O 50.4154 -3.95309 -1.17492 0
M  V30 563 H 49.7564 -0.661597 0.0564385 0
M  V30 564 H 52.2864 -1.88837 0.787507 0
M  V30 565 H 52.2964 -4.06698 -0.325644 0
M  V30 566 H 50.9714 -4.07601 0.826675 0
M  V30 567 H 49.5484 -3.60757 -0.943869 0
M  V30 568 N 51.7335 -0.305618 -1.54608 0
M  V30 569 C 52.9825 0.303098 -1.9941 0
M  V30 570 C 53.2955 1.54648 -1.19764 0
M  V30 571 O 54.5015 2.23007 -1.54855 0
M  V30 572 C 52.9575 0.590588 -3.55021 0
M  V30 573 C 52.5655 -0.634719 -4.43481 0
M  V30 574 C 54.3095 1.16025 -4.08336 0
M  V30 575 C 52.2165 -0.320126 -5.90533 0
M  V30 576 H 51.1465 0.117031 -0.744862 0
M  V30 577 H 53.7975 -0.415045 -1.78745 0
M  V30 578 H 52.1795 1.36845 -3.71604 0
M  V30 579 H 53.3535 -1.41079 -4.38672 0
M  V30 580 H 51.6685 -1.12333 -4.00962 0
M  V30 581 H 54.2655 1.40994 -5.15776 0
M  V30 582 H 54.6085 2.10397 -3.5922 0
M  V30 583 H 55.1415 0.443985 -3.95315 0
M  V30 584 H 51.8805 -1.23254 -6.43808 0
M  V30 585 H 51.4005 0.418579 -5.98338 0
M  V30 586 H 53.0795 0.0766241 -6.46955 0
M  V30 587 N 53.2116 1.57565 -0.0334293 0
M  V30 588 C 54.1216 2.13943 0.962572 0
M  V30 589 C 55.1376 1.09276 1.35406 0
M  V30 590 O 56.3136 1.41355 1.4346 0
M  V30 591 C 53.3786 2.65887 2.22497 0
M  V30 592 C 52.4396 3.85286 1.8935 0
M  V30 593 C 51.6726 4.34743 3.09571 0
M  V30 594 O 51.8956 3.83352 4.22371 0
M  V30 595 O 50.8296 5.26538 2.91618 0
M  V30 596 H 54.6556 2.99333 0.513169 0
M  V30 597 H 52.2406 1.4822 0.18743 0
M  V30 598 H 54.1226 2.99346 2.96598 0
M  V30 599 H 52.7976 1.83578 2.6661 0
M  V30 600 H 51.7046 3.56746 1.1262 0
M  V30 601 H 53.0376 4.68771 1.5005 0
M  V30 602 N 54.6897 -0.239769 1.55765 0
M  V30 603 C 55.5997 -1.31831 1.94056 0
M  V30 604 C 56.6157 -1.52275 0.841925 0
M  V30 605 O 57.7917 -1.65759 1.14394 0
M  V30 606 C 54.8567 -2.65156 2.23368 0
M  V30 607 C 53.9177 -2.53173 3.46701 0
M  V30 608 C 53.1507 -3.8014 3.74606 0
M  V30 609 O 53.3737 -4.82343 3.04469 0
M  V30 610 O 52.3077 -3.78344 4.68123 0
M  V30 611 H 56.1337 -1.02347 2.85935 0
M  V30 612 H 53.7187 -0.441123 1.42739 0
M  V30 613 H 55.6007 -3.43929 2.43497 0
M  V30 614 H 54.2757 -2.94358 1.34666 0
M  V30 615 H 53.1827 -1.72662 3.31871 0
M  V30 616 H 54.5157 -2.28915 4.35728 0
M  V30 617 N 56.1678 -1.49265 -0.50573 0
M  V30 618 C 57.4168 -1.57761 -1.25675 0
M  V30 619 C 57.7298 -0.267371 -1.93764 0
M  V30 620 O 58.9358 -0.230827 -2.70517 0
M  V30 621 C 57.3918 -2.78332 -2.28165 0
M  V30 622 C 56.9998 -4.16096 -1.66037 0
M  V30 623 C 58.7438 -2.96155 -3.04125 0
M  V30 624 C 56.6508 -5.27895 -2.6661 0
M  V30 625 H 55.5808 -0.587391 -0.472745 0
M  V30 626 H 58.2318 -1.75644 -0.53118 0
M  V30 627 H 56.6138 -2.53934 -3.03865 0
M  V30 628 H 57.7878 -4.50612 -0.963622 0
M  V30 629 H 56.1028 -4.03591 -1.02484 0
M  V30 630 H 58.6998 -3.76849 -3.79327 0
M  V30 631 H 59.0428 -2.06534 -3.61455 0
M  V30 632 H 59.5758 -3.2057 -2.35541 0
M  V30 633 H 56.3148 -6.1956 -2.14068 0
M  V30 634 H 55.8348 -4.97839 -3.34539 0
M  V30 635 H 57.5138 -5.57031 -3.29129 0
M  V30 636 N 57.6459 0.756429 -1.3826 0
M  V30 637 C 58.5559 1.9009 -1.37488 0
M  V30 638 C 59.5719 1.71855 -0.272366 0
M  V30 639 O 60.7479 1.94827 -0.510318 0
M  V30 640 C 57.8129 3.25421 -1.19592 0
M  V30 641 C 56.8739 3.56202 -2.39622 0
M  V30 642 C 56.1069 4.85075 -2.2257 0
M  V30 643 O 56.3299 5.57246 -1.21793 0
M  V30 644 O 55.2639 5.15269 -3.11098 0
M  V30 645 H 59.0899 1.93695 -2.33914 0
M  V30 646 H 56.6749 0.901313 -1.1915 0
M  V30 647 H 58.5569 4.06337 -1.11661 0
M  V30 648 H 57.2319 3.22634 -0.262486 0
M  V30 649 H 56.1389 2.75458 -2.53128 0
M  V30 650 H 57.4719 3.63747 -3.31586 0
M  V30 651 N 59.124 1.23083 0.984299 0
M  V30 652 C 60.37 1.06214 1.72761 0
M  V30 653 C 60.703 -0.400584 1.90024 0
M  V30 654 O 59.978 -1.29672 1.44967 0
M  V30 655 C 60.261 1.78375 3.12817 0
M  V30 656 C 60.114 3.32296 3.03149 0
M  V30 657 C 61.433 1.54309 4.12161 0
M  V30 658 H 58.552 0.387251 0.627061 0
M  V30 659 H 61.194 1.51536 1.14616 0
M  V30 660 H 59.344 1.39848 3.62457 0
M  V30 661 H 61.016 3.8032 2.61064 0
M  V30 662 H 59.259 3.6153 2.39747 0
M  V30 663 H 59.93 3.77972 4.02295 0
M  V30 664 H 62.406 1.87791 3.71314 0
M  V30 665 H 61.282 2.07281 5.08258 0
M  V30 666 H 61.543 0.477572 4.39513 0
M  V30 667 N 60.6021 -1.18246 1.0419 0
M  V30 668 C 61.5651 -2.20128 0.638452 0
M  V30 669 C 62.5651 -1.57885 -0.304805 0
M  V30 670 O 63.7551 -1.73967 -0.0900369 0
M  V30 671 C 60.8871 -3.4084 -0.0637751 0
M  V30 672 H 62.0801 -2.57336 1.54007 0
M  V30 673 H 59.6331 -1.32152 0.834598 0
M  V30 674 H 60.3681 -3.09166 -0.979136 0
M  V30 675 H 60.1531 -3.8726 0.614198 0
M  V30 676 H 61.6431 -4.16274 -0.332512 0
M  V30 677 N 62.0802 -0.821533 -1.34494 0
M  V30 678 C 63.4912 -0.467956 -1.8074 0
M  V30 679 C 63.8422 1.01151 -1.68116 0
M  V30 680 O 62.9672 1.78707 -1.22036 0
M  V30 681 C 63.5622 -0.842627 -3.28154 0
M  V30 682 C 62.1212 -0.541439 -3.72485 0
M  V30 683 C 61.2682 -1.06028 -2.56229 0
M  V30 684 H 64.2192 -1.01183 -1.22261 0
M  V30 685 H 64.2402 -0.145876 -3.8022 0
M  V30 686 H 63.7522 -1.91945 -3.37311 0
M  V30 687 H 61.8532 0.526034 -3.68868 0
M  V30 688 H 61.9662 -1.08453 -4.66663 0
M  V30 689 H 60.3302 -0.481892 -2.501 0
M  V30 690 H 61.1132 -2.14352 -2.68157 0
M  V30 691 N 63.5583 1.46682 -0.576371 0
M  V30 692 C 64.9693 1.86112 -0.148091 0
M  V30 693 C 65.3203 1.48073 1.2872 0
M  V30 694 O 64.4453 0.892656 1.97131 0
M  V30 695 C 65.0403 3.37786 -0.261982 0
M  V30 696 C 63.5993 3.76235 0.111384 0
M  V30 697 C 62.7463 2.70713 -0.60083 0
M  V30 698 H 65.6973 1.37927 -0.78497 0
M  V30 699 H 65.7183 3.77007 0.514364 0
M  V30 700 H 65.2303 3.6544 -1.30671 0
M  V30 701 H 63.3313 3.54198 1.15649 0
M  V30 702 H 63.4443 4.78391 -0.26052 0
M  V30 703 H 61.8083 2.54666 -0.0417783 0
M  V30 704 H 62.5913 3.01208 -1.64708 0
M  V30 705 N 65.0364 0.313813 1.54444 0
M  V30 706 C 65.9834 -0.55655 2.23989 0
M  V30 707 C 66.9534 -1.11943 1.22711 0
M  V30 708 O 68.1384 -1.16158 1.51367 0
M  V30 709 C 65.2784 -1.71635 2.99392 0
M  V30 710 C 64.3914 -1.18364 4.15468 0
M  V30 711 C 63.5264 -2.30834 4.78424 0
M  V30 712 C 62.5654 -1.74762 5.86622 0
M  V30 713 N 61.7024 -2.80855 6.43479 0
M  V30 714 H 66.5424 0.0430893 2.97969 0
M  V30 715 H 64.0794 0.0330359 1.47063 0
M  V30 716 H 66.0374 -2.39868 3.41349 0
M  V30 717 H 64.6674 -2.28742 2.27765 0
M  V30 718 H 63.7194 -0.393163 3.78363 0
M  V30 719 H 65.0314 -0.733262 4.93381 0
M  V30 720 H 64.1854 -3.0699 5.23299 0
M  V30 721 H 62.9244 -2.79204 3.99871 0
M  V30 722 H 61.9294 -0.970995 5.41158 0
M  V30 723 H 63.1544 -1.2728 6.67066 0
M  V30 724 H 61.1004 -3.28535 5.67804 0
M  V30 725 H 61.0174 -2.40351 7.16776 0
M  V30 726 H 62.2854 -3.5687 6.93011 0
M  V30 727 N 66.5145 -1.57545 0.0417849 0
M  V30 728 C 67.7425 -1.96624 -0.643928 0
M  V30 729 C 68.1575 -0.918897 -1.64929 0
M  V30 730 O 67.5145 0.0979323 -1.82237 0
M  V30 731 C 67.5655 -3.35781 -1.33914 0
M  V30 732 O 67.2865 -4.365 -0.374048 0
M  V30 733 C 68.7875 -3.89566 -2.1155 0
M  V30 734 H 66.0075 -0.647316 -0.176702 0
M  V30 735 H 68.5515 -2.04229 0.105304 0
M  V30 736 H 66.7065 -3.29357 -2.03968 0
M  V30 737 H 67.1205 -5.17248 -0.869179 0
M  V30 738 H 68.5945 -4.89242 -2.55628 0
M  V30 739 H 69.0715 -3.24488 -2.9598 0
M  V30 740 H 69.6775 -3.99298 -1.46427 0
M  V30 741 N 67.9926 0.231505 -1.5589 0
M  V30 742 C 68.9396 1.28682 -1.91598 0
M  V30 743 C 69.9096 1.47071 -0.771974 0
M  V30 744 O 71.0946 1.60802 -1.027 0
M  V30 745 C 68.2346 2.6342 -2.22944 0
M  V30 746 C 67.3476 2.52912 -3.50228 0
M  V30 747 C 66.4826 3.80106 -3.7107 0
M  V30 748 C 65.5216 3.64279 -4.91902 0
M  V30 749 N 64.6586 4.834 -5.09184 0
M  V30 750 H 69.4986 0.975305 -2.81588 0
M  V30 751 H 67.0356 0.470299 -1.39379 0
M  V30 752 H 68.9936 3.41869 -2.39126 0
M  V30 753 H 67.6236 2.92687 -1.36139 0
M  V30 754 H 66.6756 1.6595 -3.42294 0
M  V30 755 H 67.9876 2.37133 -4.38827 0
M  V30 756 H 67.1416 4.66999 -3.87295 0
M  V30 757 H 65.8806 3.98799 -2.80733 0
M  V30 758 H 64.8856 2.7577 -4.75637 0
M  V30 759 H 66.1106 3.47067 -5.83714 0
M  V30 760 H 64.0566 5.02425 -4.21788 0
M  V30 761 H 63.9736 4.70311 -5.91898 0
M  V30 762 H 65.2416 5.71747 -5.29835 0
M  V30 763 N 69.4707 1.49531 0.497807 0
M  V30 764 C 70.3807 1.69176 1.62532 0
M  V30 765 C 71.3967 0.5744 1.64246 0
M  V30 766 O 72.5727 0.849497 1.82608 0
M  V30 767 C 69.6377 1.75695 2.98885 0
M  V30 768 C 68.6987 2.9929 3.07773 0
M  V30 769 C 67.9317 3.05488 4.37622 0
M  V30 770 O 68.1547 2.19192 5.26603 0
M  V30 771 O 67.0887 3.9798 4.51548 0
M  V30 772 H 70.9147 2.647 1.48887 0
M  V30 773 H 68.4997 1.3331 0.674441 0
M  V30 774 H 70.3817 1.82317 3.79919 0
M  V30 775 H 69.0567 0.8335 3.12785 0
M  V30 776 H 67.9637 2.98183 2.25915 0
M  V30 777 H 69.2967 3.91125 2.98801 0
M  V30 778 N 70.9488 -0.749086 1.3866 0
M  V30 779 C 72.1948 -1.51056 1.35314 0
M  V30 780 C 72.5278 -1.94121 -0.0553751 0
M  V30 781 O 71.8028 -1.65763 -1.01749 0
M  V30 782 C 72.0858 -2.76003 2.31288 0
M  V30 783 C 71.9388 -2.39047 3.8102 0
M  V30 784 C 73.2578 -3.78046 2.2532 0
M  V30 785 H 70.3768 -0.547972 0.492844 0
M  V30 786 H 73.0188 -0.857628 1.69543 0
M  V30 787 H 71.1688 -3.31716 2.02229 0
M  V30 788 H 72.8408 -1.89074 4.20771 0
M  V30 789 H 71.0838 -1.71449 3.98482 0
M  V30 790 H 71.7548 -3.28462 4.4364 0
M  V30 791 H 74.2308 -3.31884 2.50983 0
M  V30 792 H 73.1068 -4.63159 2.94576 0
M  V30 793 H 73.3678 -4.23957 1.25352 0
M  V30 794 N 72.4269 -1.23603 -0.977757 0
M  V30 795 C 73.8429 -0.999251 -1.24447 0
M  V30 796 C 74.0429 0.298053 -1.99283 0
M  V30 797 O 73.0989 1.01681 -2.31122 0
M  V30 798 C 74.4119 -2.20784 -2.04144 0
M  V30 799 C 75.9599 -2.25303 -2.17273 0
M  V30 800 C 76.4349 -3.45755 -3.00362 0
M  V30 801 N 77.9259 -3.4601 -3.07947 0
M  V30 802 C 78.6609 -4.35868 -3.72568 0
M  V30 803 N 78.1569 -5.35966 -4.38991 0
M  V30 804 N 79.9499 -4.23605 -3.6948 0
M  V30 805 H 72.1009 -2.06986 -0.476483 0
M  V30 806 H 74.3639 -0.907801 -0.273134 0
M  V30 807 H 74.0699 -3.14945 -1.56533 0
M  V30 808 H 73.9439 -2.22085 -3.04891 0
M  V30 809 H 76.3309 -1.3168 -2.64092 0
M  V30 810 H 76.4119 -2.28033 -1.15907 0
M  V30 811 H 76.0559 -4.39687 -2.5424 0
M  V30 812 H 75.9859 -3.40266 -4.01904 0
M  V30 813 H 78.4769 -2.73588 -2.60688 0
M  V30 814 H 78.7899 -6.00783 -4.86086 0
M  V30 815 H 77.1349 -5.39863 -4.37691 0
M  V30 816 H 80.3259 -3.44647 -3.16759 0
M  V30 817 H 80.4989 -4.93836 -4.1956 0
M  V30 818 N 73.905 1.17692 -1.04816 0
M  V30 819 C 75.154 1.87192 -0.751132 0
M  V30 820 C 75.467 1.8169 0.724441 0
M  V30 821 O 76.673 2.46625 1.13527 0
M  V30 822 C 75.129 3.35857 -1.29338 0
M  V30 823 C 74.737 3.4987 -2.79812 0
M  V30 824 C 76.481 4.10709 -1.07322 0
M  V30 825 C 74.388 4.92536 -3.27356 0
M  V30 826 H 73.318 0.701162 -0.277288 0
M  V30 827 H 75.969 1.32932 -1.26496 0
M  V30 828 H 74.351 3.89631 -0.707376 0
M  V30 829 H 75.525 3.06332 -3.44235 0
M  V30 830 H 73.84 2.88433 -3.00325 0
M  V30 831 H 76.437 5.15952 -1.4035 0
M  V30 832 H 76.78 4.16299 -0.0108001 0
M  V30 833 H 77.313 3.6313 -1.62423 0
M  V30 834 H 74.052 4.92119 -4.33012 0
M  V30 835 H 73.572 5.3676 -2.67673 0
M  V30 836 H 75.251 5.61288 -3.21815 0
M  V30 837 N 75.3831 0.828654 1.34056 0
M  V30 838 C 76.3301 0.252567 2.29414 0
M  V30 839 C 77.3001 -0.62588 1.53857 0
M  V30 840 O 78.4851 -0.566312 1.82202 0
M  V30 841 C 75.6251 -0.574831 3.40279 0
M  V30 842 C 74.7381 0.326499 4.30764 0
M  V30 843 C 73.8731 -0.511016 5.28736 0
M  V30 844 C 72.9121 0.389342 6.1086 0
M  V30 845 N 72.0491 -0.409439 7.00905 0
M  V30 846 H 76.8891 1.07108 2.78086 0
M  V30 847 H 74.4261 0.539677 1.36843 0
M  V30 848 H 76.3841 -1.06992 4.03248 0
M  V30 849 H 75.0141 -1.35841 2.92826 0
M  V30 850 H 74.0661 0.939837 3.68607 0
M  V30 851 H 75.3781 1.01857 4.88289 0
M  V30 852 H 74.5321 -1.07035 5.97184 0
M  V30 853 H 73.2711 -1.23657 4.71763 0
M  V30 854 H 72.2761 0.960769 5.4134 0
M  V30 855 H 73.5011 1.1131 6.69916 0
M  V30 856 H 71.4471 -1.11856 6.46393 0
M  V30 857 H 71.3641 0.224126 7.55668 0
M  V30 858 H 72.6321 -0.951336 7.73673 0
M  V30 859 N 76.8612 -1.46375 0.584142 0
M  V30 860 C 78.1102 -2.01585 0.0679741 0
M  V30 861 C 78.4232 -1.46109 -1.30045 0
M  V30 862 O 79.6292 -1.93148 -1.90804 0
M  V30 863 C 78.0852 -3.5983 0.0709207 0
M  V30 864 C 77.6932 -4.24303 1.43775 0
M  V30 865 C 79.4372 -4.22693 -0.391228 0
M  V30 866 C 77.3442 -5.74631 1.39834 0
M  V30 867 H 76.2742 -0.753689 0.0216421 0
M  V30 868 H 78.9252 -1.68093 0.736001 0
M  V30 869 H 77.3072 -3.90405 -0.663299 0
M  V30 870 H 78.4812 -4.05335 2.19181 0
M  V30 871 H 76.7962 -3.73539 1.84004 0
M  V30 872 H 79.3932 -5.3289 -0.439524 0
M  V30 873 H 79.7362 -3.91728 -1.40906 0
M  V30 874 H 80.2692 -3.96749 0.288974 0
M  V30 875 H 77.0082 -6.10258 2.39303 0
M  V30 876 H 76.5282 -5.95858 0.686505 0
M  V30 877 H 78.2072 -6.37375 1.11187 0
M  V30 878 N 78.3393 -0.321999 -1.54275 0
M  V30 879 C 79.2693 0.537411 -2.27231 0
M  V30 880 C 80.2503 1.12064 -1.27968 0
M  V30 881 O 81.4353 1.14606 -1.56777 0
M  V30 882 C 78.5653 1.69919 -3.02894 0
M  V30 883 C 77.5193 1.24534 -4.09482 0
M  V30 884 C 76.8453 2.49394 -4.72977 0
M  V30 885 C 78.1453 0.361335 -5.21049 0
M  V30 886 H 79.8393 -0.0711406 -2.99315 0
M  V30 887 H 77.3853 -0.0356555 -1.43956 0
M  V30 888 H 79.3383 2.30668 -3.52662 0
M  V30 889 H 78.0623 2.33431 -2.28424 0
M  V30 890 H 76.7213 0.660782 -3.60596 0
M  V30 891 H 76.3693 3.11265 -3.95124 0
M  V30 892 H 76.0693 2.19718 -5.44975 0
M  V30 893 H 77.5933 3.10908 -5.25517 0
M  V30 894 H 79.0073 0.875072 -5.66582 0
M  V30 895 H 77.4043 0.157428 -5.99893 0
M  V30 896 H 78.4743 -0.60822 -4.8107 0
M  V30 897 N 79.8174 1.5752 -0.0501392 0
M  V30 898 C 80.7804 2.1037 0.909786 0
M  V30 899 C 81.7804 1.02308 1.24056 0
M  V30 900 O 82.9704 1.28385 1.17741 0
M  V30 901 C 80.1024 2.58708 2.21998 0
M  V30 902 H 81.2954 2.96479 0.451665 0
M  V30 903 H 78.8484 1.55038 0.198248 0
M  V30 904 H 79.5834 1.75989 2.72394 0
M  V30 905 H 79.3684 3.37675 1.99295 0
M  V30 906 H 80.8584 2.99747 2.9076 0
M  V30 907 N 81.2955 -0.223234 1.56011 0
M  V30 908 C 82.5235 -0.964812 1.83027 0
M  V30 909 C 82.9385 -1.78013 0.62904 0
M  V30 910 O 82.2955 -1.78008 -0.402414 0
M  V30 911 C 82.3465 -1.88373 3.08542 0
M  V30 912 O 82.0675 -1.10137 4.2403 0
M  V30 913 C 83.5685 -2.73934 3.48533 0
M  V30 914 H 80.7885 -0.282842 0.608475 0
M  V30 915 H 83.3325 -0.238971 2.03099 0
M  V30 916 H 81.4875 -2.56354 2.9045 0
M  V30 917 H 81.9015 -1.72501 4.95322 0
M  V30 918 H 83.3755 -3.34117 4.39397 0
M  V30 919 H 83.8525 -3.46244 2.70207 0
M  V30 920 H 84.4585 -2.11369 3.69057 0
M  V30 921 N 82.7736 -1.49793 -0.48987 0
M  V30 922 C 84.0216 -1.59525 -1.24081 0
M  V30 923 C 84.3426 -0.288953 -1.92847 0
M  V30 924 O 83.6126 0.692436 -1.83254 0
M  V30 925 H 82.1926 -0.587796 -0.460983 0
M  V30 926 H 84.8546 -1.86477 -0.566778 0
M  V30 927 H 83.9506 -2.39696 -1.99881 0
M  V30 928 N 84.2517 0.741722 -1.39055 0
M  V30 929 C 85.5007 1.49656 -1.35225 0
M  V30 930 C 85.8137 1.95533 0.0512708 0
M  V30 931 O 87.0197 2.7067 0.212138 0
M  V30 932 C 85.4757 2.70389 -2.37525 0
M  V30 933 C 85.0837 2.31489 -3.83558 0
M  V30 934 C 86.8277 3.48236 -2.42759 0
M  V30 935 C 84.7347 3.48903 -4.77515 0
M  V30 936 H 83.6647 0.56197 -0.502699 0
M  V30 937 H 86.3157 0.809727 -1.64668 0
M  V30 938 H 84.6977 3.41113 -2.01142 0
M  V30 939 H 85.8717 1.68354 -4.28945 0
M  V30 940 H 84.1867 1.66749 -3.81554 0
M  V30 941 H 86.7837 4.35558 -3.1015 0
M  V30 942 H 87.1267 3.90229 -1.45008 0
M  V30 943 H 87.6597 2.84535 -2.78002 0
M  V30 944 H 84.3987 3.11966 -5.76504 0
M  V30 945 H 83.9187 4.11041 -4.36813 0
M  V30 946 H 85.5977 4.15328 -4.96096 0
M  V30 947 N 85.7298 1.2412 0.971189 0
M  V30 948 C 86.9698 1.09066 1.7287 0
M  V30 949 C 87.3338 -0.364794 1.88503 0
M  V30 950 O 88.5348 -0.636748 2.61149 0
M  V30 951 C 86.8058 1.80629 3.08396 0
M  V30 952 S 88.3648 1.81263 3.99611 0
M  V30 953 H 85.1828 0.390145 0.594397 0
M  V30 954 H 87.7848 1.57397 1.15959 0
M  V30 955 H 86.4888 2.85647 2.94676 0
M  V30 956 H 86.0198 1.32617 3.70373 0
M  V30 957 H 88.0348 0.877804 4.88374 0
M  V30 958 N 87.2079 -1.17134 1.05439 0
M  V30 959 C 88.6239 -1.39454 0.776201 0
M  V30 960 C 88.8239 -1.91454 -0.628307 0
M  V30 961 O 87.8799 -2.10777 -1.39031 0
M  V30 962 C 89.1929 -2.38305 1.83388 0
M  V30 963 C 90.7409 -2.52006 1.85639 0
M  V30 964 C 91.2159 -3.54133 2.90437 0
M  V30 965 N 92.7069 -3.61653 2.89415 0
M  V30 966 C 93.4419 -4.4044 3.67152 0
M  V30 967 N 92.9379 -5.22721 4.54681 0
M  V30 968 N 94.7309 -4.35337 3.55581 0
M  V30 969 H 86.8819 -0.817134 1.96053 0
M  V30 970 H 89.1449 -0.421626 0.849079 0
M  V30 971 H 88.8509 -2.07173 2.84204 0
M  V30 972 H 88.7249 -3.37841 1.67761 0
M  V30 973 H 91.1119 -2.82447 0.85486 0
M  V30 974 H 91.1929 -1.52537 2.05344 0
M  V30 975 H 90.8369 -3.24431 3.90777 0
M  V30 976 H 90.7669 -4.53313 2.67983 0
M  V30 977 H 93.2579 -3.02909 2.25952 0
M  V30 978 H 93.5709 -5.80027 5.10674 0
M  V30 979 H 91.9159 -5.22093 4.58741 0
M  V30 980 H 95.1069 -3.70112 2.86592 0
M  V30 981 H 95.2799 -4.96494 4.1641 0
M  V30 982 N 88.686 -0.835752 -1.33615 0
M  V30 983 C 89.914 -0.443344 -2.02094 0
M  V30 984 C 90.329 0.954522 -1.62894 0
M  V30 985 O 89.686 1.61982 -0.840723 0
M  V30 986 C 89.737 -0.550775 -3.5728 0
M  V30 987 O 89.458 -1.89356 -3.95065 0
M  V30 988 C 90.959 -0.154919 -4.43029 0
M  V30 989 H 88.179 -0.176359 -0.647409 0
M  V30 990 H 90.723 -1.12746 -1.70612 0
M  V30 991 H 88.878 0.0853997 -3.87306 0
M  V30 992 H 89.292 -1.87687 -4.89769 0
M  V30 993 H 90.766 -0.281144 -5.51284 0
M  V30 994 H 91.243 0.902863 -4.2982 0
M  V30 995 H 91.849 -0.765404 -4.18356 0
M  V30 996 N 90.1641 1.46063 -0.591896 0
M  V30 997 C 91.4411 1.95595 -0.0137119 0
M  V30 998 C 91.8211 1.5345 1.4497 0
M  V30 999 O 91.1691 0.789543 2.14426 0
M  V30 1000 C 91.3791 3.48453 -0.195373 0
M  V30 1001 C 92.7271 4.24546 -0.0679765 0
M  V30 1002 O 93.7511 3.55982 -0.124681 0
M  V30 1003 O 92.6101 5.46467 0.0600579 0
M  V30 1004 H 89.7041 0.825795 0.0446279 0
M  V30 1005 H 92.2501 1.56303 -0.660859 0
M  V30 1006 H 91.0221 3.72045 -1.21235 0
M  V30 1007 H 90.6451 3.94597 0.487775 0
M  V30 1008 N 91.6422 0.330177 1.54103 0
M  V30 1009 C 92.9192 -0.325007 1.92881 0
M  V30 1010 C 93.2992 -1.6934 1.26045 0
M  V30 1011 O 92.6472 -2.24855 0.406526 0
M  V30 1012 C 92.8572 -0.410634 3.46576 0
M  V30 1013 C 94.2052 -0.667801 4.19316 0
M  V30 1014 O 95.2292 -0.49329 3.52768 0
M  V30 1015 O 94.0882 -1.00491 5.37181 0
M  V30 1016 H 91.1822 -0.186873 0.80561 0
M  V30 1017 H 93.7282 0.380376 1.65382 0
M  V30 1018 H 92.5002 0.550164 3.87413 0
M  V30 1019 H 92.1232 -1.16333 3.802 0
M  V30 1020 N 93.1203 -1.57491 0.0584922 0
M  V30 1021 C 94.0703 -2.08474 -0.923188 0
M  V30 1022 C 95.0543 -0.991479 -1.26722 0
M  V30 1023 O 96.2463 -1.25473 -1.24842 0
M  V30 1024 C 93.3753 -2.6392 -2.19548 0
M  V30 1025 C 92.4613 -3.80227 -1.87852 0
M  V30 1026 N 92.8523 -4.89714 -1.26546 0
M  V30 1027 C 91.1503 -3.89271 -2.17679 0
M  V30 1028 C 91.8513 -5.70689 -1.12644 0
M  V30 1029 N 90.8273 -5.18531 -1.63176 0
M  V30 1030 H 94.6293 -2.90517 -0.444653 0
M  V30 1031 H 92.1433 -1.61745 -0.145764 0
M  V30 1032 H 94.1403 -2.98752 -2.9078 0
M  V30 1033 H 92.8003 -1.83318 -2.68001 0
M  V30 1034 H 93.8113 -5.09358 -0.936757 0
M  V30 1035 H 90.4883 -3.19623 -2.68602 0
M  V30 1036 H 91.8783 -6.6875 -0.6499 0
M  V30 1037 N 94.5984 0.214957 -1.56127 0
M  V30 1038 C 95.8444 0.939762 -1.79712 0
M  V30 1039 C 96.1774 1.83723 -0.629247 0
M  V30 1040 O 95.4524 1.90925 0.371197 0
M  V30 1041 C 95.7354 1.77306 -3.13424 0
M  V30 1042 C 95.5884 0.90164 -4.40671 0
M  V30 1043 C 96.9074 2.74956 -3.43638 0
M  V30 1044 H 94.0264 0.340214 -0.653776 0
M  V30 1045 H 96.6684 0.20824 -1.88855 0
M  V30 1046 H 94.8184 2.39673 -3.0576 0
M  V30 1047 H 96.4904 0.294206 -4.60361 0
M  V30 1048 H 94.7334 0.207368 -4.33304 0
M  V30 1049 H 95.4044 1.51923 -5.30682 0
M  V30 1050 H 97.8804 2.22724 -3.51473 0
M  V30 1051 H 96.7564 3.30358 -4.38355 0
M  V30 1052 H 97.0174 3.53023 -2.66134 0
M  V30 1053 N 96.0765 1.50051 0.48192 0
M  V30 1054 C 97.3255 1.59741 1.23149 0
M  V30 1055 C 97.6385 0.298163 1.93314 0
M  V30 1056 O 98.8445 0.273835 2.70116 0
M  V30 1057 C 97.3005 2.81926 2.23708 0
M  V30 1058 C 96.9085 4.18685 1.59396 0
M  V30 1059 C 98.6525 3.00956 2.99375 0
M  V30 1060 C 96.5595 5.3207 2.58178 0
M  V30 1061 H 95.4895 0.594838 0.46334 0
M  V30 1062 H 98.1405 1.76467 0.503169 0
M  V30 1063 H 96.5225 2.58736 2.99786 0
M  V30 1064 H 97.6965 4.52088 0.891811 0
M  V30 1065 H 96.0115 4.05171 0.960503 0
M  V30 1066 H 98.6085 3.82836 3.73283 0
M  V30 1067 H 98.9515 2.12258 3.58123 0
M  V30 1068 H 99.4845 3.24277 2.30411 0
M  V30 1069 H 96.2235 6.22888 2.04184 0
M  V30 1070 H 95.7435 5.03098 3.26577 0
M  V30 1071 H 97.4225 5.62196 3.20225 0
M  V30 1072 N 97.5546 -0.734337 1.39446 0
M  V30 1073 C 98.5016 -1.84835 1.38219 0
M  V30 1074 C 99.4716 -1.64331 0.24179 0
M  V30 1075 O 100.657 -1.85728 0.437002 0
M  V30 1076 C 97.7966 -3.22355 1.23212 0
M  V30 1077 C 96.9096 -3.5456 2.46801 0
M  V30 1078 C 96.0446 -4.81485 2.24377 0
M  V30 1079 C 95.0836 -5.06536 3.43639 0
M  V30 1080 N 94.2206 -6.24665 3.20528 0
M  V30 1081 H 99.0606 -1.85219 2.33448 0
M  V30 1082 H 96.5976 -0.905039 1.15963 0
M  V30 1083 H 98.5556 -4.0174 1.12522 0
M  V30 1084 H 97.1856 -3.21248 0.316121 0
M  V30 1085 H 96.2376 -2.69872 2.68092 0
M  V30 1086 H 97.5496 -3.6899 3.3563 0
M  V30 1087 H 96.7036 -5.68852 2.10933 0
M  V30 1088 H 95.4426 -4.6923 1.32944 0
M  V30 1089 H 94.4476 -4.17632 3.5758 0
M  V30 1090 H 95.6726 -5.20676 4.35974 0
M  V30 1091 H 93.6186 -6.13696 2.3176 0
M  V30 1092 H 93.5356 -6.39685 4.02913 0
M  V30 1093 H 94.8036 -7.14868 3.10779 0
M  V30 1094 N 99.0327 -1.24633 -0.964593 0
M  V30 1095 C 100.281 -1.08573 -1.70459 0
M  V30 1096 C 100.602 0.375655 -1.91347 0
M  V30 1097 O 99.8717 1.26779 -1.49345 0
M  V30 1098 H 98.4517 -0.398784 -0.631649 0
M  V30 1099 H 101.114 -1.56601 -1.16026 0
M  V30 1100 H 100.21 -1.58623 -2.68785 0
M  V30 1101 N 100.511 1.16574 -1.06058 0
M  V30 1102 C 101.739 1.90952 -0.796552 0
M  V30 1103 C 102.154 1.77302 0.648808 0
M  V30 1104 O 101.511 1.11605 1.44397 0
M  V30 1105 C 101.562 3.41736 -1.17894 0
M  V30 1106 O 101.283 3.54975 -2.56758 0
M  V30 1107 C 102.784 4.33169 -0.942308 0
M  V30 1108 H 100.004 0.605594 -0.288959 0
M  V30 1109 H 102.548 1.47777 -1.41358 0
M  V30 1110 H 100.703 3.82623 -0.606491 0
M  V30 1111 H 101.117 4.4846 -2.72 0
M  V30 1112 H 102.591 5.37439 -1.25952 0
M  V30 1113 H 103.068 4.3903 0.122078 0
M  V30 1114 H 103.674 3.98007 -1.49902 0
M  V30 1115 N 101.989 0.842826 1.3317 0
M  V30 1116 C 102.922 0.223862 2.27099 0
M  V30 1117 C 103.9 -0.631311 1.49844 0
M  V30 1118 O 105.084 -0.590708 1.79005 0
M  V30 1119 C 102.211 -0.685313 3.31694 0
M  V30 1120 C 101.257 0.094919 4.26394 0
M  V30 1121 S 102.09 1.45546 5.15341 0
M  V30 1122 C 103.246 0.551685 6.23464 0
M  V30 1123 H 103.479 1.02015 2.79249 0
M  V30 1124 H 101.012 0.639797 1.4052 0
M  V30 1125 H 102.97 -1.20426 3.92438 0
M  V30 1126 H 101.631 -1.4553 2.78352 0
M  V30 1127 H 100.824 -0.597059 5.00451 0
M  V30 1128 H 100.426 0.545054 3.70007 0
M  V30 1129 H 102.718 -0.248877 6.77043 0
M  V30 1130 H 103.661 1.26253 6.96754 0
M  V30 1131 H 104.069 0.131275 5.64347 0
M  V30 1132 N 103.467 -1.45747 0.599634 0
M  V30 1133 C 104.713 -2.02592 0.0918643 0
M  V30 1134 C 105.046 -1.46806 -1.27128 0
M  V30 1135 O 104.321 -0.639658 -1.83681 0
M  V30 1136 C 104.604 -3.60073 0.0443398 0
M  V30 1137 C 104.457 -4.26208 1.43759 0
M  V30 1138 C 105.776 -4.35309 -0.647608 0
M  V30 1139 H 102.895 -0.736175 0.034857 0
M  V30 1140 H 105.537 -1.73694 0.770081 0
M  V30 1141 H 103.687 -3.84823 -0.533224 0
M  V30 1142 H 105.359 -4.12668 2.06162 0
M  V30 1143 H 103.602 -3.84916 2.00056 0
M  V30 1144 H 104.273 -5.35069 1.35665 0
M  V30 1145 H 106.749 -4.15805 -0.156776 0
M  V30 1146 H 105.625 -5.45038 -0.649942 0
M  V30 1147 H 105.886 -4.07598 -1.71219 0
M  V30 1148 N 104.945 -0.338344 -1.53925 0
M  V30 1149 C 106.17 0.263987 -2.05713 0
M  V30 1150 C 106.595 1.43847 -1.21201 0
M  V30 1151 O 105.953 1.79904 -0.224535 0
M  V30 1152 C 106.001 0.662 -3.54471 0
M  V30 1153 O 105.105 1.76265 -3.72833 0
M  V30 1154 H 104.446 0.0448722 -0.662482 0
M  V30 1155 H 106.976 -0.491048 -1.9862 0
M  V30 1156 H 106.986 0.940594 -3.9701 0
M  V30 1157 H 105.661 -0.196937 -4.15433 0
M  V30 1158 H 104.238 1.48173 -3.42198 0
M  V30 1159 N 106.423 1.57458 -0.0668435 0
M  V30 1160 C 107.37 2.12439 0.902122 0
M  V30 1161 C 108.34 1.03565 1.2986 0
M  V30 1162 O 109.525 1.312 1.38532 0
M  V30 1163 C 106.665 2.6865 2.16614 0
M  V30 1164 C 105.778 3.91663 1.82274 0
M  V30 1165 C 104.913 4.36134 3.0325 0
M  V30 1166 C 103.952 5.51808 2.64904 0
M  V30 1167 N 103.089 5.9126 3.78624 0
M  V30 1168 H 107.929 2.94934 0.426382 0
M  V30 1169 H 105.466 1.4575 0.198819 0
M  V30 1170 H 107.424 2.99346 2.90599 0
M  V30 1171 H 106.054 1.88928 2.61737 0
M  V30 1172 H 105.106 3.6746 0.983719 0
M  V30 1173 H 106.418 4.75693 1.50059 0
M  V30 1174 H 105.572 4.68465 3.85519 0
M  V30 1175 H 104.311 3.50948 3.38655 0
M  V30 1176 H 103.316 5.19133 1.81055 0
M  V30 1177 H 104.541 6.38722 2.30675 0
M  V30 1178 H 102.487 5.09024 4.138 0
M  V30 1179 H 102.404 6.70018 3.5016 0
M  V30 1180 H 103.672 6.28212 4.61486 0
M  V30 1181 N 107.901 -0.206675 1.56239 0
M  V30 1182 C 109.148 -0.928842 1.79941 0
M  V30 1183 C 109.476 -1.83734 0.638131 0
M  V30 1184 O 108.731 -1.92039 -0.376746 0
M  V30 1185 C 109.03 -1.78675 3.09532 0
M  V30 1186 C 108.696 -1.03022 4.38973 0
M  V30 1187 C 107.358 -0.821302 4.74139 0
M  V30 1188 C 109.71 -0.497081 5.18824 0
M  V30 1189 C 107.038 -0.0675719 5.86661 0
M  V30 1190 C 109.39 0.24338 6.32132 0
M  V30 1191 C 108.054 0.463422 6.65889 0
M  V30 1192 H 107.324 -0.339887 0.658451 0
M  V30 1193 H 109.971 -0.195977 1.90495 0
M  V30 1194 H 108.276 -2.58794 2.94165 0
M  V30 1195 H 109.973 -2.34792 3.25075 0
M  V30 1196 H 106.563 -1.20306 4.11369 0
M  V30 1197 H 110.747 -0.645921 4.92079 0
M  V30 1198 H 106.003 0.112995 6.11296 0
M  V30 1199 H 110.177 0.66393 6.93228 0
M  V30 1200 H 107.804 1.04938 7.52922 0
M  V30 1201 N 109.379 -1.50304 -0.473955 0
M  V30 1202 C 110.79 -1.54042 -1.0549 0
M  V30 1203 C 111.141 -0.342248 -1.93192 0
M  V30 1204 O 110.266 0.545157 -2.09421 0
M  V30 1205 C 110.861 -2.79152 -1.91989 0
M  V30 1206 C 109.42 -2.8558 -2.45196 0
M  V30 1207 C 108.567 -2.48295 -1.2347 0
M  V30 1208 H 111.518 -1.5661 -0.256693 0
M  V30 1209 H 111.539 -2.60845 -2.7702 0
M  V30 1210 H 111.051 -3.66339 -1.28131 0
M  V30 1211 H 109.152 -2.02738 -3.12615 0
M  V30 1212 H 109.265 -3.88403 -2.80499 0
M  V30 1213 H 107.629 -2.00669 -1.56856 0
M  V30 1214 H 108.412 -3.37787 -0.612789 0
M  V30 1215 N 110.857 0.726932 -1.39834 0
M  V30 1216 C 112.103 1.48884 -1.377 0
M  V30 1217 C 112.436 1.94185 0.0244852 0
M  V30 1218 O 111.711 1.67361 0.990986 0
M  V30 1219 C 111.994 2.72288 -2.3565 0
M  V30 1220 C 111.847 2.32956 -3.84775 0
M  V30 1221 C 113.166 3.74414 -2.31306 0
M  V30 1222 H 110.285 0.540062 -0.5015 0
M  V30 1223 H 112.927 0.830547 -1.70886 0
M  V30 1224 H 111.077 3.28457 -2.07481 0
M  V30 1225 H 112.749 1.82356 -4.23726 0
M  V30 1226 H 110.992 1.65088 -4.01159 0
M  V30 1227 H 111.663 3.21362 -4.4881 0
M  V30 1228 H 114.139 3.27849 -2.56231 0
M  V30 1229 H 113.015 4.58414 -3.01907 0
M  V30 1230 H 113.276 4.21909 -1.32081 0
M  V30 1231 N 112.336 1.25143 0.95797 0
M  V30 1232 C 113.585 1.0909 1.69654 0
M  V30 1233 C 113.898 -0.368548 1.92097 0
M  V30 1234 O 115.104 -0.649455 2.63618 0
M  V30 1235 C 113.56 1.90395 3.05414 0
M  V30 1236 C 113.168 3.4081 2.90779 0
M  V30 1237 C 114.912 1.82901 3.83076 0
M  V30 1238 C 112.819 4.14423 4.21909 0
M  V30 1239 H 111.749 0.404625 0.636235 0
M  V30 1240 H 114.4 1.4931 1.06672 0
M  V30 1241 H 112.782 1.42996 3.69281 0
M  V30 1242 H 113.956 3.95859 2.35865 0
M  V30 1243 H 112.271 3.49361 2.26575 0
M  V30 1244 H 114.868 2.35196 4.80195 0
M  V30 1245 H 115.211 0.796224 4.08615 0
M  V30 1246 H 115.744 2.28033 3.25954 0
M  V30 1247 H 112.483 5.18102 4.01561 0
M  V30 1248 H 112.003 3.64159 4.76601 0
M  V30 1249 H 113.682 4.21956 4.90471 0
M  V30 1250 N 113.814 -1.1601 1.06675 0
M  V30 1251 C 115.06 -1.86909 0.786945 0
M  V30 1252 C 115.393 -1.81717 -0.685018 0
M  V30 1253 O 114.668 -1.23551 -1.50218 0
M  V30 1254 C 114.951 -3.36313 1.28707 0
M  V30 1255 C 114.804 -3.50175 2.82308 0
M  V30 1256 C 116.123 -4.3084 0.898071 0
M  V30 1257 H 113.242 -0.678677 0.287343 0
M  V30 1258 H 115.884 -1.36336 1.32334 0
M  V30 1259 H 114.034 -3.79513 0.830768 0
M  V30 1260 H 115.706 -3.15886 3.36175 0
M  V30 1261 H 113.949 -2.91959 3.20847 0
M  V30 1262 H 114.62 -4.55116 3.12368 0
M  V30 1263 H 117.096 -3.95561 1.29114 0
M  V30 1264 H 115.972 -5.33876 1.27543 0
M  V30 1265 H 116.233 -4.41662 -0.196651 0
M  V30 1266 N 115.292 -0.849877 -1.32721 0
M  V30 1267 C 116.54 -0.450032 -1.97026 0
M  V30 1268 C 116.861 0.996604 -1.67609 0
M  V30 1269 O 116.131 1.6958 -0.980786 0
M  V30 1270 H 114.711 -0.163426 -0.728904 0
M  V30 1271 H 117.373 -1.08526 -1.6189 0
M  V30 1272 H 116.469 -0.591146 -3.0645 0
M  V30 1273 N 116.77 1.45427 -0.607355 0
M  V30 1274 C 117.72 2.27612 0.133038 0
M  V30 1275 C 118.704 1.37307 0.838785 0
M  V30 1276 O 119.896 1.61299 0.728813 0
M  V30 1277 C 117.025 3.24173 1.12991 0
M  V30 1278 C 116.111 4.21965 0.425011 0
M  V30 1279 N 116.502 5.02982 -0.533217 0
M  V30 1280 C 114.8 4.40899 0.672593 0
M  V30 1281 C 115.501 5.73931 -0.947518 0
M  V30 1282 N 114.477 5.42819 -0.291321 0
M  V30 1283 H 118.279 2.87649 -0.602935 0
M  V30 1284 H 115.793 1.56576 -0.431006 0
M  V30 1285 H 117.79 3.81783 1.67473 0
M  V30 1286 H 116.45 2.65696 1.86644 0
M  V30 1287 H 117.461 5.09843 -0.90995 0
M  V30 1288 H 114.138 3.93547 1.39382 0
M  V30 1289 H 115.528 6.49037 -1.73782 0
M  V30 1290 N 118.248 0.346503 1.53744 0
M  V30 1291 C 119.158 -0.517293 2.28826 0
M  V30 1292 C 120.174 -1.10935 1.3405 0
M  V30 1293 O 121.35 -1.1244 1.6709 0
M  V30 1294 C 118.415 -1.65098 3.04866 0
M  V30 1295 C 117.476 -1.0884 4.15274 0
M  V30 1296 C 116.709 -2.16806 4.87679 0
M  V30 1297 O 116.932 -3.3758 4.59778 0
M  V30 1298 O 115.866 -1.80934 5.74061 0
M  V30 1299 H 119.692 0.0931396 3.03557 0
M  V30 1300 H 117.277 0.111458 1.48984 0
M  V30 1301 H 119.159 -2.31053 3.5241 0
M  V30 1302 H 117.834 -2.24717 2.32989 0
M  V30 1303 H 116.741 -0.3933 3.72027 0
M  V30 1304 H 118.074 -0.537036 4.89261 0
M  V30 1305 N 119.726 -1.57421 0.075193 0
M  V30 1306 C 120.689 -2.11791 -0.876203 0
M  V30 1307 C 121.689 -1.04268 -1.22412 0
M  V30 1308 O 122.879 -1.30242 -1.15684 0
M  V30 1309 C 120.011 -2.62207 -2.17854 0
M  V30 1310 H 121.204 -2.9716 -0.40444 0
M  V30 1311 H 118.757 -1.55333 -0.173557 0
M  V30 1312 H 119.492 -1.803 -2.6956 0
M  V30 1313 H 119.277 -3.40802 -1.93897 0
M  V30 1314 H 120.767 -3.04335 -2.85955 0
M  V30 1315 N 121.204 0.198386 -1.56346 0
M  V30 1316 C 122.432 0.935572 -1.84539 0
M  V30 1317 C 122.847 1.76989 -0.657281 0
M  V30 1318 O 122.204 1.78626 0.374043 0
M  V30 1319 C 122.255 1.8344 -3.11499 0
M  V30 1320 O 121.976 1.03377 -4.25728 0
M  V30 1321 C 123.477 2.68355 -3.52846 0
M  V30 1322 H 120.697 0.273126 -0.612897 0
M  V30 1323 H 123.241 0.20663 -2.03453 0
M  V30 1324 H 121.396 2.51701 -2.94492 0
M  V30 1325 H 121.81 1.64599 -4.98003 0
M  V30 1326 H 123.284 3.27085 -4.44657 0
M  V30 1327 H 123.761 3.41901 -2.75681 0
M  V30 1328 H 124.367 2.05471 -3.72373 0
M  V30 1329 N 122.682 1.50554 0.465978 0
M  V30 1330 C 123.93 1.61479 1.21528 0
M  V30 1331 C 124.251 0.319596 1.92363 0
M  V30 1332 O 123.521 -0.663194 1.84333 0
M  V30 1333 H 122.101 0.595055 0.451573 0
M  V30 1334 H 124.763 1.87355 0.53704 0
M  V30 1335 H 123.859 2.42846 1.96042 0
M  V30 1336 N 124.16 -0.719506 1.40217 0
M  V30 1337 C 125.409 -1.47486 1.37589 0
M  V30 1338 C 125.722 -1.9559 -0.0201568 0
M  V30 1339 O 126.928 -2.70973 -0.169049 0
M  V30 1340 C 125.384 -2.66575 2.41796 0
M  V30 1341 C 124.992 -2.25358 3.87192 0
M  V30 1342 C 126.736 -3.4433 2.48269 0
M  V30 1343 C 124.643 -3.41262 4.83005 0
M  V30 1344 H 123.573 -0.553901 0.511576 0
M  V30 1345 H 126.224 -0.783427 1.65936 0
M  V30 1346 H 124.606 -3.3787 2.06543 0
M  V30 1347 H 125.78 -1.61509 4.31569 0
M  V30 1348 H 124.095 -1.60657 3.84159 0
M  V30 1349 H 126.692 -4.30569 3.17041 0
M  V30 1350 H 127.035 -3.87872 1.51198 0
M  V30 1351 H 127.568 -2.80076 2.82493 0
M  V30 1352 H 124.307 -3.02755 5.81394 0
M  V30 1353 H 123.827 -4.0404 4.43297 0
M  V30 1354 H 125.506 -4.07383 5.02641 0
M  V30 1355 N 125.638 -1.25649 -0.95132 0
M  V30 1356 C 126.884 -1.10757 -1.69884 0
M  V30 1357 C 127.217 0.350061 -1.91019 0
M  V30 1358 O 126.492 1.25783 -1.48354 0
M  V30 1359 C 126.775 -1.86606 -3.07978 0
M  V30 1360 C 126.628 -3.40217 -2.94232 0
M  V30 1361 C 127.947 -1.65182 -4.07925 0
M  V30 1362 H 125.066 -0.40374 -0.616574 0
M  V30 1363 H 127.708 -1.54521 -1.10558 0
M  V30 1364 H 125.858 -1.49409 -3.58621 0
M  V30 1365 H 127.53 -3.87108 -2.50889 0
M  V30 1366 H 125.773 -3.67759 -2.30078 0
M  V30 1367 H 126.444 -3.88505 -3.92133 0
M  V30 1368 H 128.92 -1.9757 -3.66204 0
M  V30 1369 H 127.796 -2.20683 -5.02583 0
M  V30 1370 H 128.057 -0.593933 -4.38092 0
M  V30 1371 N 127.117 1.15442 -1.07289 0
M  V30 1372 C 128.027 2.23786 -0.704057 0
M  V30 1373 C 129.043 1.7166 0.284413 0
M  V30 1374 O 130.219 2.00972 0.131205 0
M  V30 1375 C 127.284 3.46535 -0.106792 0
M  V30 1376 C 126.345 4.13654 -1.14842 0
M  V30 1377 C 125.578 5.30544 -0.57956 0
M  V30 1378 O 125.801 5.67187 0.604585 0
M  V30 1379 O 124.735 5.87154 -1.32414 0
M  V30 1380 H 128.561 2.57664 -1.60757 0
M  V30 1381 H 126.146 1.23152 -0.845803 0
M  V30 1382 H 128.028 4.20804 0.224048 0
M  V30 1383 H 126.703 3.14407 0.770049 0
M  V30 1384 H 125.61 3.4131 -1.5316 0
M  V30 1385 H 126.943 4.49861 -1.99714 0
M  V30 1386 N 128.595 0.856903 1.32268 0
M  V30 1387 C 129.82 0.474569 2.01897 0
M  V30 1388 C 130.245 -0.921766 1.63967 0
M  V30 1389 O 129.603 -1.60589 0.84148 0
M  V30 1390 C 129.651 0.623799 3.55164 0
M  V30 1391 O 128.755 -0.342459 4.10976 0
M  V30 1392 H 128.096 0.190422 0.63611 0
M  V30 1393 H 130.626 1.15672 1.68764 0
M  V30 1394 H 130.636 0.512169 4.04773 0
M  V30 1395 H 129.311 1.64202 3.82113 0
M  V30 1396 H 127.888 -0.18688 3.72431 0
M  V30 1397 N 130.073 -1.45103 0.615059 0
M  V30 1398 C 131.322 -2.01396 0.110718 0
M  V30 1399 C 131.635 -1.48834 -1.26916 0
M  V30 1400 O 132.841 -1.97152 -1.86664 0
M  V30 1401 C 131.297 -3.59599 0.14723 0
M  V30 1402 C 130.905 -4.21158 1.52743 0
M  V30 1403 C 132.649 -4.23428 -0.30148 0
M  V30 1404 C 130.556 -5.71535 1.51992 0
M  V30 1405 H 129.486 -0.753061 0.0376241 0
M  V30 1406 H 132.137 -1.66494 0.77149 0
M  V30 1407 H 130.519 -3.91724 -0.580339 0
M  V30 1408 H 131.693 -4.00594 2.2773 0
M  V30 1409 H 130.008 -3.69552 1.91886 0
M  V30 1410 H 132.605 -5.33703 -0.326392 0
M  V30 1411 H 132.948 -3.94629 -1.32565 0
M  V30 1412 H 133.481 -3.96047 0.373065 0
M  V30 1413 H 130.22 -6.05044 2.52193 0
M  V30 1414 H 129.74 -5.94268 0.81274 0
M  V30 1415 H 131.419 -6.34873 1.24681 0
M  V30 1416 N 131.551 -0.354651 -1.53558 0
M  V30 1417 C 132.799 0.237972 -2.00694 0
M  V30 1418 C 133.12 1.50173 -1.24391 0
M  V30 1419 O 132.39 1.92673 -0.354135 0
M  V30 1420 H 130.97 0.0909256 -0.741446 0
M  V30 1421 H 133.632 -0.478368 -1.88938 0
M  V30 1422 H 132.728 0.47264 -3.085 0
M  V30 1423 N 133.029 1.57378 -0.0835403 0
M  V30 1424 C 133.939 2.16897 0.894021 0
M  V30 1425 C 134.955 1.13528 1.31861 0
M  V30 1426 O 136.131 1.45848 1.3889 0
M  V30 1427 C 133.196 2.72831 2.13925 0
M  V30 1428 C 132.257 3.91115 1.76997 0
M  V30 1429 C 131.49 4.44371 2.95584 0
M  V30 1430 O 131.713 3.96596 4.09961 0
M  V30 1431 O 130.647 5.35549 2.74719 0
M  V30 1432 H 134.473 3.00814 0.417679 0
M  V30 1433 H 132.058 1.48741 0.140181 0
M  V30 1434 H 133.94 3.0863 2.86924 0
M  V30 1435 H 132.615 1.91967 2.60635 0
M  V30 1436 H 131.522 3.60148 1.01214 0
M  V30 1437 H 132.855 4.73307 1.3506 0
M  V30 1438 N 134.507 -0.190092 1.56449 0
M  V30 1439 C 135.755 -0.907908 1.80559 0
M  V30 1440 C 136.076 -1.83583 0.657438 0
M  V30 1441 O 135.346 -1.93203 -0.323924 0
M  V30 1442 H 133.926 -0.338247 0.666032 0
M  V30 1443 H 136.588 -0.194403 1.93928 0
M  V30 1444 H 135.684 -1.49604 2.73907 0
M  V30 1445 N 135.985 -1.50799 -0.457987 0
M  V30 1446 C 137.231 -1.62683 -1.21088 0
M  V30 1447 C 137.564 -0.332268 -1.91336 0
M  V30 1448 O 136.839 0.667043 -1.82704 0
M  V30 1449 C 137.122 -2.81615 -2.24422 0
M  V30 1450 C 136.975 -4.20989 -1.58392 0
M  V30 1451 C 138.294 -2.96085 -3.2561 0
M  V30 1452 H 135.413 -0.592087 -0.438864 0
M  V30 1453 H 138.055 -1.83225 -0.50286 0
M  V30 1454 H 136.205 -2.64231 -2.84806 0
M  V30 1455 H 137.877 -4.49994 -1.01504 0
M  V30 1456 H 136.12 -4.24641 -0.886704 0
M  V30 1457 H 136.791 -5.0016 -2.33547 0
M  V30 1458 H 139.267 -3.12042 -2.75262 0
M  V30 1459 H 138.143 -3.80902 -3.95228 0
M  V30 1460 H 138.404 -2.0726 -3.90507 0
M  V30 1461 N 137.463 0.71206 -1.40597 0
M  V30 1462 C 138.691 1.50111 -1.42388 0
M  V30 1463 C 139.106 1.88784 -0.0245395 0
M  V30 1464 O 138.463 1.55681 0.952351 0
M  V30 1465 C 138.514 2.7742 -2.31776 0
M  V30 1466 O 138.235 2.40382 -3.66262 0
M  V30 1467 C 139.736 3.7129 -2.42196 0
M  V30 1468 H 136.956 0.46314 -0.485533 0
M  V30 1469 H 139.5 0.878068 -1.8469 0
M  V30 1470 H 137.655 3.36001 -1.92827 0
M  V30 1471 H 138.069 3.22324 -4.13772 0
M  V30 1472 H 139.543 4.57448 -3.08943 0
M  V30 1473 H 140.02 4.14641 -1.44809 0
M  V30 1474 H 140.626 3.18619 -2.81712 0
M  V30 1475 N 138.941 1.26152 0.944643 0
M  V30 1476 C 140.169 1.14259 1.72489 0
M  V30 1477 C 140.584 -0.302555 1.8636 0
M  V30 1478 O 139.941 -1.20741 1.36849 0
M  V30 1479 C 139.992 1.80266 3.13347 0
M  V30 1480 O 139.713 3.19133 3.00143 0
M  V30 1481 C 141.214 1.74283 4.07603 0
M  V30 1482 H 138.434 0.398051 0.540181 0
M  V30 1483 H 140.978 1.66706 1.18446 0
M  V30 1484 H 139.133 1.31766 3.64303 0
M  V30 1485 H 139.547 3.51744 3.89071 0
M  V30 1486 H 141.021 2.25111 5.04013 0
M  V30 1487 H 141.498 0.708631 4.33446 0
M  V30 1488 H 142.104 2.22319 3.62567 0
M  V30 1489 N 140.419 -1.14872 1.07899 0
M  V30 1490 C 141.665 -1.86064 0.806725 0
M  V30 1491 C 141.998 -1.82434 -0.665706 0
M  V30 1492 O 141.273 -1.25138 -1.48899 0
M  V30 1493 C 141.556 -3.34929 1.32267 0
M  V30 1494 C 141.409 -3.47161 2.86006 0
M  V30 1495 C 142.728 -4.29863 0.943717 0
M  V30 1496 H 139.847 -0.675591 0.294526 0
M  V30 1497 H 142.489 -1.34925 1.33773 0
M  V30 1498 H 140.639 -3.78611 0.870974 0
M  V30 1499 H 142.311 -3.12302 3.39507 0
M  V30 1500 H 140.554 -2.88539 3.23925 0
M  V30 1501 H 141.225 -4.51777 3.17177 0
M  V30 1502 H 143.701 -3.9417 1.33302 0
M  V30 1503 H 142.577 -5.32494 1.33198 0
M  V30 1504 H 142.838 -4.41846 -0.149796 0
M  V30 1505 N 141.898 -0.863906 -1.31812 0
M  V30 1506 C 142.845 -0.313303 -2.28664 0
M  V30 1507 C 143.815 0.584868 -1.55462 0
M  V30 1508 O 145 0.517805 -1.83639 0
M  V30 1509 C 142.14 0.48441 -3.41683 0
M  V30 1510 C 141.253 -0.440594 -4.29747 0
M  V30 1511 C 140.388 0.370652 -5.29905 0
M  V30 1512 C 139.427 -0.551164 -6.09613 0
M  V30 1513 N 138.564 0.223462 -7.01744 0
M  V30 1514 H 143.404 -1.14444 -2.75148 0
M  V30 1515 H 140.941 -0.575769 -1.35364 0
M  V30 1516 H 142.899 0.962627 -4.05943 0
M  V30 1517 H 141.529 1.28029 -2.96325 0
M  V30 1518 H 140.581 -1.03724 -3.65986 0
M  V30 1519 H 141.893 -1.14767 -4.85417 0
M  V30 1520 H 141.047 0.911638 -5.99812 0
M  V30 1521 H 139.786 1.11105 -4.74876 0
M  V30 1522 H 138.791 -1.10396 -5.38603 0
M  V30 1523 H 140.016 -1.29032 -6.66729 0
M  V30 1524 H 137.962 0.946787 -6.49132 0
M  V30 1525 H 137.879 -0.424399 -7.54808 0
M  V30 1526 H 139.147 0.745876 -7.75923 0
M  V30 1527 N 143.376 1.44774 -0.622745 0
M  V30 1528 C 144.787 1.85546 -0.207226 0
M  V30 1529 C 145.138 1.52093 1.23944 0
M  V30 1530 O 144.263 0.95492 1.94191 0
M  V30 1531 C 144.858 3.36781 -0.369313 0
M  V30 1532 C 143.417 3.76399 -0.00836847 0
M  V30 1533 C 142.564 2.68664 -0.686651 0
M  V30 1534 H 145.515 1.3536 -0.828454 0
M  V30 1535 H 145.536 3.78453 0.394162 0
M  V30 1536 H 145.048 3.61098 -1.42231 0
M  V30 1537 H 143.149 3.57698 1.04322 0
M  V30 1538 H 143.262 4.7732 -0.412584 0
M  V30 1539 H 141.626 2.54404 -0.122777 0
M  V30 1540 H 142.409 2.95815 -1.74208 0
M  V30 1541 N 144.854 0.36279 1.53368 0
M  V30 1542 C 146.102 -0.227326 2.00817 0
M  V30 1543 C 146.423 -1.49511 1.25186 0
M  V30 1544 O 145.693 -1.92482 0.364348 0
M  V30 1545 H 144.273 -0.0869923 0.741917 0
M  V30 1546 H 146.935 0.488381 1.88682 0
M  V30 1547 H 146.031 -0.456273 3.08747 0
M  V30 1548 N 146.332 -1.57332 0.0918853 0
M  V30 1549 C 147.609 -1.85691 -0.614668 0
M  V30 1550 C 147.989 -0.988146 -1.86545 0
M  V30 1551 O 147.337 -0.0597055 -2.28422 0
M  V30 1552 C 147.547 -3.36294 -0.933126 0
M  V30 1553 C 148.895 -4.04275 -1.29796 0
M  V30 1554 O 149.919 -3.41157 -1.02424 0
M  V30 1555 O 148.778 -5.1564 -1.81047 0
M  V30 1556 H 145.872 -0.767802 -0.307261 0
M  V30 1557 H 148.418 -1.69244 0.12434 0
M  V30 1558 H 147.19 -3.91273 -0.0456404 0
M  V30 1559 H 146.813 -3.58076 -1.72822 0
M  V30 1560 N 147.81 0.181792 -1.56548 0
M  V30 1561 C 148.757 1.22521 -1.95595 0
M  V30 1562 C 149.727 1.4454 -0.818373 0
M  V30 1563 O 150.912 1.57454 -1.07763 0
M  V30 1564 C 148.052 2.56193 -2.31212 0
M  V30 1565 C 147.165 2.41641 -3.58097 0
M  V30 1566 C 146.3 3.68108 -3.82975 0
M  V30 1567 C 145.339 3.48445 -5.03242 0
M  V30 1568 N 144.476 4.66956 -5.24306 0
M  V30 1569 H 149.316 0.885226 -2.84548 0
M  V30 1570 H 146.853 0.425718 -1.40805 0
M  V30 1571 H 148.811 3.34088 -2.49882 0
M  V30 1572 H 147.441 2.88208 -1.45382 0
M  V30 1573 H 146.493 1.54976 -3.474 0
M  V30 1574 H 147.805 2.23052 -4.46149 0
M  V30 1575 H 146.959 4.54441 -4.01956 0
M  V30 1576 H 145.698 3.89666 -2.93278 0
M  V30 1577 H 144.703 2.60499 -4.8417 0
M  V30 1578 H 145.928 3.2832 -5.9446 0
M  V30 1579 H 143.874 4.88752 -4.37559 0
M  V30 1580 H 143.791 4.51242 -6.06561 0
M  V30 1581 H 145.059 5.54602 -5.47756 0
M  V30 1582 N 149.288 1.51039 0.449983 0
M  V30 1583 C 150.534 1.63322 1.20223 0
M  V30 1584 C 150.867 0.34241 1.91158 0
M  V30 1585 O 150.142 -0.657344 1.83055 0
M  V30 1586 C 150.425 2.82801 2.22925 0
M  V30 1587 C 150.278 4.21823 1.56157 0
M  V30 1588 C 151.597 2.97807 3.24035 0
M  V30 1589 H 148.716 0.594407 0.435718 0
M  V30 1590 H 151.358 1.83489 0.493136 0
M  V30 1591 H 149.508 2.65738 2.834 0
M  V30 1592 H 151.18 4.50526 0.991162 0
M  V30 1593 H 149.423 4.25105 0.864172 0
M  V30 1594 H 150.094 5.01391 2.30891 0
M  V30 1595 H 152.57 3.13497 2.73603 0
M  V30 1596 H 151.446 3.82992 3.93202 0
M  V30 1597 H 151.707 2.09328 3.89402 0
M  V30 1598 N 150.766 -0.704594 1.40972 0
M  V30 1599 C 152.015 -1.46018 1.39146 0
M  V30 1600 C 152.328 -1.956 0.000589254 0
M  V30 1601 O 153.534 -2.71137 -0.1403 0
M  V30 1602 C 151.99 -2.63996 2.4461 0
M  V30 1603 C 151.598 -2.21238 3.89561 0
M  V30 1604 C 153.342 -3.41677 2.51907 0
M  V30 1605 C 151.249 -3.3612 4.86598 0
M  V30 1606 H 150.179 -0.548444 0.517422 0
M  V30 1607 H 152.83 -0.765784 1.66757 0
M  V30 1608 H 151.212 -3.3566 2.10115 0
M  V30 1609 H 152.386 -1.56923 4.33257 0
M  V30 1610 H 150.701 -1.56574 3.85841 0
M  V30 1611 H 153.298 -4.27182 3.2159 0
M  V30 1612 H 153.641 -3.86247 1.55303 0
M  V30 1613 H 154.174 -2.77064 2.85448 0
M  V30 1614 H 150.913 -2.96572 5.84573 0
M  V30 1615 H 150.433 -3.99315 4.47557 0
M  V30 1616 H 152.112 -4.02029 5.06934 0
M  V30 1617 N 152.244 -1.26651 -0.937939 0
M  V30 1618 C 153.655 -1.1125 -1.49934 0
M  V30 1619 C 154.006 0.306077 -1.93798 0
M  V30 1620 O 153.131 1.19792 -1.80219 0
M  V30 1621 C 153.726 -2.01339 -2.72485 0
M  V30 1622 C 152.285 -1.90074 -3.24883 0
M  V30 1623 C 151.432 -1.94498 -1.97651 0
M  V30 1624 H 154.383 -1.39693 -0.753091 0
M  V30 1625 H 154.404 -1.56319 -3.46907 0
M  V30 1626 H 153.916 -3.04577 -2.40529 0
M  V30 1627 H 152.017 -0.897827 -3.61621 0
M  V30 1628 H 152.13 -2.75778 -3.9177 0
M  V30 1629 H 150.494 -1.38591 -2.13693 0
M  V30 1630 H 151.277 -2.99372 -1.68022 0
M  V30 1631 N 153.722 1.14298 -1.08507 0
M  V30 1632 C 154.652 2.21542 -0.737646 0
M  V30 1633 C 155.633 1.67773 0.280377 0
M  V30 1634 O 156.818 1.93616 0.150521 0
M  V30 1635 C 153.948 3.46988 -0.147259 0
M  V30 1636 C 152.902 4.13789 -1.09374 0
M  V30 1637 C 152.228 5.33449 -0.365524 0
M  V30 1638 C 153.528 4.62208 -2.4323 0
M  V30 1639 H 155.222 2.5086 -1.6343 0
M  V30 1640 H 152.768 1.20576 -0.787243 0
M  V30 1641 H 154.721 4.21262 0.107808 0
M  V30 1642 H 153.445 3.17037 0.784538 0
M  V30 1643 H 152.104 3.4147 -1.33393 0
M  V30 1644 H 151.752 4.99759 0.57011 0
M  V30 1645 H 151.452 5.79088 -0.996512 0
M  V30 1646 H 152.976 6.10485 -0.118534 0
M  V30 1647 H 154.39 5.27952 -2.23472 0
M  V30 1648 H 152.787 5.18553 -3.02031 0
M  V30 1649 H 153.857 3.77224 -3.04681 0
M  V30 1650 N 155.201 0.870884 1.31352 0
M  V30 1651 C 156.448 0.482273 1.96673 0
M  V30 1652 C 156.776 -0.965638 1.68836 0
M  V30 1653 O 156.031 -1.69514 0.977937 0
M  V30 1654 C 156.33 0.687157 3.50732 0
M  V30 1655 C 155.996 2.108 3.9859 0
M  V30 1656 C 154.658 2.49656 4.1137 0
M  V30 1657 C 157.01 3.03459 4.23748 0
M  V30 1658 C 154.338 3.80412 4.46659 0
M  V30 1659 C 156.69 4.3373 4.60501 0
M  V30 1660 C 155.354 4.725 4.71487 0
M  V30 1661 H 154.624 0.176476 0.719679 0
M  V30 1662 H 157.271 1.10405 1.56471 0
M  V30 1663 H 155.576 -0.0177476 3.91796 0
M  V30 1664 H 157.273 0.366284 3.99324 0
M  V30 1665 H 153.863 1.79633 3.8914 0
M  V30 1666 H 158.047 2.74665 4.13368 0
M  V30 1667 H 153.303 4.1021 4.53362 0
M  V30 1668 H 157.477 5.05578 4.78919 0
M  V30 1669 H 155.104 5.73859 4.98588 0
M  V30 1670 N 156.679 -1.44442 0.630414 0
M  V30 1671 C 157.609 -2.33418 -0.0618083 0
M  V30 1672 C 158.59 -1.48165 -0.835541 0
M  V30 1673 O 159.775 -1.76886 -0.801564 0
M  V30 1674 C 156.905 -3.31222 -1.04449 0
M  V30 1675 C 155.859 -4.26288 -0.382436 0
M  V30 1676 C 155.185 -5.13954 -1.47497 0
M  V30 1677 C 156.485 -5.1744 0.710865 0
M  V30 1678 H 158.179 -2.91548 0.681184 0
M  V30 1679 H 155.725 -1.40191 0.329026 0
M  V30 1680 H 157.678 -3.92351 -1.53748 0
M  V30 1681 H 156.402 -2.71299 -1.81836 0
M  V30 1682 H 155.061 -3.6649 0.0899054 0
M  V30 1683 H 154.709 -4.50385 -2.2397 0
M  V30 1684 H 154.409 -5.7837 -1.03737 0
M  V30 1685 H 155.933 -5.77955 -1.96979 0
M  V30 1686 H 157.347 -5.72509 0.300996 0
M  V30 1687 H 155.744 -5.90455 1.07156 0
M  V30 1688 H 156.814 -4.58496 1.57829 0
M  V30 1689 N 158.157 -0.370918 -1.53173 0
M  V30 1690 C 159.568 0.107139 -1.86392 0
M  V30 1691 C 159.919 1.47714 -1.29132 0
M  V30 1692 O 159.044 2.07464 -0.615439 0
M  V30 1693 C 159.639 0.201187 -3.38202 0
M  V30 1694 C 158.198 0.623507 -3.712 0
M  V30 1695 C 157.345 -0.225978 -2.76378 0
M  V30 1696 H 160.296 -0.58951 -1.47345 0
M  V30 1697 H 160.317 1.02377 -3.66468 0
M  V30 1698 H 159.829 -0.796058 -3.79848 0
M  V30 1699 H 157.93 1.62879 -3.35114 0
M  V30 1700 H 158.043 0.394414 -4.77474 0
M  V30 1701 H 156.407 0.305962 -2.52856 0
M  V30 1702 H 157.19 -1.22086 -3.20858 0
M  V30 1703 N 159.635 1.57281 -0.100228 0
M  V30 1704 C 160.567 2.11342 0.886972 0
M  V30 1705 C 161.58 1.05182 1.24261 0
M  V30 1706 O 162.769 1.32613 1.19483 0
M  V30 1707 C 159.869 2.5825 2.19454 0
M  V30 1708 C 159.042 3.88302 2.01346 0
M  V30 1709 C 158.101 4.21004 3.15661 0
M  V30 1710 O 157.127 4.9014 2.89398 0
M  V30 1711 N 158.329 3.76818 4.41575 0
M  V30 1712 H 161.094 2.96668 0.425216 0
M  V30 1713 H 158.655 1.61678 0.0847334 0
M  V30 1714 H 160.647 2.7717 2.94888 0
M  V30 1715 H 159.217 1.77907 2.57037 0
M  V30 1716 H 158.437 3.7848 1.10212 0
M  V30 1717 H 159.725 4.73375 1.8653 0
M  V30 1718 H 159.123 3.2102 4.65792 0
M  V30 1719 H 157.68 4.00882 5.13942 0
M  V30 1720 N 161.113 -0.173488 1.56642 0
M  V30 1721 C 162.353 -0.896984 1.83667 0
M  V30 1722 C 162.717 -1.79523 0.680842 0
M  V30 1723 O 163.918 -2.55616 0.831488 0
M  V30 1724 C 162.189 -1.67351 3.15798 0
M  V30 1725 S 163.748 -2.44607 3.64298 0
M  V30 1726 H 160.566 -0.300464 0.644393 0
M  V30 1727 H 163.168 -0.158775 1.94854 0
M  V30 1728 H 161.872 -1.00462 3.97914 0
M  V30 1729 H 161.403 -2.45313 3.07546 0
M  V30 1730 H 163.418 -3.69261 3.31452 0
M  V30 1731 N 162.591 -1.51276 -0.441967 0
M  V30 1732 C 164.007 -1.39349 -0.778083 0
M  V30 1733 C 164.207 -0.472212 -1.95889 0
M  V30 1734 O 163.263 0.0743551 -2.5239 0
M  V30 1735 C 164.576 -2.81292 -1.0628 0
M  V30 1736 C 166.124 -2.9041 -1.16751 0
M  V30 1737 C 166.599 -4.33251 -1.48519 0
M  V30 1738 N 168.09 -4.36336 -1.55453 0
M  V30 1739 C 168.825 -5.43885 -1.81596 0
M  V30 1740 N 168.321 -6.61601 -2.05562 0
M  V30 1741 N 170.114 -5.3136 -1.8334 0
M  V30 1742 H 162.265 -2.09729 0.335774 0
M  V30 1743 H 164.528 -0.943925 0.0878028 0
M  V30 1744 H 164.234 -3.50678 -0.267905 0
M  V30 1745 H 164.108 -3.20334 -1.99163 0
M  V30 1746 H 166.495 -2.21225 -1.95304 0
M  V30 1747 H 166.576 -2.54871 -0.217801 0
M  V30 1748 H 166.22 -5.02984 -0.704958 0
M  V30 1749 H 166.15 -4.66299 -2.44689 0
M  V30 1750 H 168.641 -3.51466 -1.38853 0
M  V30 1751 H 168.954 -7.39361 -2.24867 0
M  V30 1752 H 167.299 -6.64725 -2.02894 0
M  V30 1753 H 170.49 -4.38382 -1.64132 0
M  V30 1754 H 170.663 -6.15258 -2.03377 0
M  V30 1755 N 164.069 0.697108 -1.41344 0
M  V30 1756 C 164.979 1.84088 -1.45427 0
M  V30 1757 C 165.995 1.70545 -0.34501 0
M  V30 1758 O 167.171 1.92488 -0.592492 0
M  V30 1759 C 164.236 3.20056 -1.33286 0
M  V30 1760 C 163.297 3.45718 -2.54514 0
M  V30 1761 C 162.53 4.75199 -2.42944 0
M  V30 1762 O 162.753 5.51579 -1.45318 0
M  V30 1763 O 161.687 5.0161 -3.32672 0
M  V30 1764 H 165.513 1.836 -2.41919 0
M  V30 1765 H 163.098 0.849966 -1.22866 0
M  V30 1766 H 164.98 4.01236 -1.28794 0
M  V30 1767 H 163.655 3.2123 -0.39909 0
M  V30 1768 H 162.562 2.64474 -2.64583 0
M  V30 1769 H 163.895 3.49356 -3.46715 0
M  V30 1770 N 165.547 1.27147 0.931209 0
M  V30 1771 C 166.787 1.14511 1.69312 0
M  V30 1772 C 167.151 -0.304638 1.89568 0
M  V30 1773 O 168.352 -0.553343 2.63043 0
M  V30 1774 C 166.623 1.90349 3.02493 0
M  V30 1775 S 168.182 1.93884 3.93642 0
M  V30 1776 H 165 0.408858 0.581684 0
M  V30 1777 H 167.602 1.61006 1.10893 0
M  V30 1778 H 166.306 2.94877 2.85439 0
M  V30 1779 H 165.837 1.44333 3.65966 0
M  V30 1780 H 167.852 1.03273 4.85334 0
M  V30 1781 N 167.025 -1.13721 1.09112 0
M  V30 1782 C 167.973 -2.21103 0.722219 0
M  V30 1783 C 168.967 -1.67147 -0.275374 0
M  V30 1784 O 170.173 -1.79477 -0.137176 0
M  V30 1785 H 166.548 -0.720445 0.215553 0
M  V30 1786 H 168.519 -2.49483 1.63709 0
M  V30 1787 C 167.268 -3.47352 0.15543 0
M  V30 1788 H 166.591 -3.89206 0.914246 0
M  V30 1789 H 168.031 -4.2395 -0.0647967 0
M  V30 1790 C 166.49 -3.1814 -1.10852 0
M  V30 1791 O 167.02 -3.36604 -2.19227 0
M  V30 1792 N 165.226 -2.72045 -1.02176 0
M  V30 1793 H 164.773 -2.57221 -0.139764 0
M  V30 1794 H 164.731 -2.52875 -1.8682 0
M  V30 1795 N 168.503 -0.877838 -1.30888 0
M  V30 1796 C 169.466 -0.344265 -2.266 0
M  V30 1797 C 170.466 0.50922 -1.52524 0
M  V30 1798 O 171.656 0.317398 -1.71284 0
M  V30 1799 C 168.788 0.510198 -3.37061 0
M  V30 1800 H 169.981 -1.1893 -2.7531 0
M  V30 1801 H 167.534 -0.654088 -1.41956 0
M  V30 1802 H 168.269 1.37612 -2.93655 0
M  V30 1803 H 168.054 -0.101047 -3.9197 0
M  V30 1804 H 169.544 0.875537 -4.08319 0
M  V30 1805 N 169.982 1.44106 -0.638065 0
M  V30 1806 C 171.222 2.03858 -0.148733 0
M  V30 1807 C 171.586 1.49153 1.20903 0
M  V30 1808 O 172.787 2.00452 1.79088 0
M  V30 1809 C 171.058 3.57117 -0.142314 0
M  V30 1810 S 172.617 4.37897 0.281385 0
M  V30 1811 H 169.435 0.708069 -0.0644912 0
M  V30 1812 H 172.037 1.7639 -0.843009 0
M  V30 1813 H 170.741 3.94436 -1.13349 0
M  V30 1814 H 170.272 3.89205 0.572988 0
M  V30 1815 H 172.287 4.72218 1.52395 0
M  V30 1816 N 171.46 0.379036 1.52974 0
M  V30 1817 C 172.876 0.0285448 1.59574 0
M  V30 1818 C 173.076 -1.45542 1.39355 0
M  V30 1819 O 172.132 -2.2187 1.20541 0
M  V30 1820 C 173.445 0.496535 2.96572 0
M  V30 1821 C 174.993 0.451909 3.0972 0
M  V30 1822 C 175.468 0.895924 4.49152 0
M  V30 1823 N 176.959 0.851522 4.55306 0
M  V30 1824 C 177.694 1.16661 5.61407 0
M  V30 1825 N 177.19 1.55166 6.752 0
M  V30 1826 N 178.983 1.08853 5.51459 0
M  V30 1827 H 171.134 1.34525 1.64367 0
M  V30 1828 H 173.397 0.550733 0.771619 0
M  V30 1829 H 173.103 1.53258 3.16552 0
M  V30 1830 H 172.977 -0.109802 3.7704 0
M  V30 1831 H 175.364 -0.575029 2.89443 0
M  V30 1832 H 175.445 1.09392 2.3123 0
M  V30 1833 H 175.089 1.92104 4.70168 0
M  V30 1834 H 175.019 0.23103 5.26093 0
M  V30 1835 H 177.51 0.568038 3.73606 0
M  V30 1836 H 177.823 1.776 7.52116 0
M  V30 1837 H 176.168 1.59044 6.76557 0
M  V30 1838 H 179.359 0.786803 4.6144 0
M  V30 1839 H 179.532 1.33742 6.34048 0
M  V30 1840 N 172.938 -1.57226 0.108567 0
M  V30 1841 C 173.886 -2.16002 -0.862885 0
M  V30 1842 C 174.88 -1.10644 -1.28274 0
M  V30 1843 O 176.086 -1.28966 -1.2557 0
M  V30 1844 H 172.461 -0.691148 -0.296342 0
M  V30 1845 H 174.432 -2.96427 -0.342575 0
M  V30 1846 C 173.181 -2.76576 -2.10716 0
M  V30 1847 H 172.504 -3.5734 -1.793 0
M  V30 1848 H 173.944 -3.21253 -2.76717 0
M  V30 1849 C 172.403 -1.73137 -2.89007 0
M  V30 1850 O 172.933 -1.17842 -3.84026 0
M  V30 1851 N 171.139 -1.43317 -2.52801 0
M  V30 1852 H 170.686 -1.88473 -1.75601 0
M  V30 1853 H 170.644 -0.743485 -3.05483 0
M  V30 1854 N 174.416 0.165178 -1.56732 0
M  V30 1855 C 175.827 0.727046 -1.71962 0
M  V30 1856 C 176.178 1.82508 -0.720078 0
M  V30 1857 O 175.303 2.16082 0.117242 0
M  V30 1858 C 175.898 1.32559 -3.11791 0
M  V30 1859 C 174.457 1.83422 -3.28684 0
M  V30 1860 C 173.604 0.715567 -2.67908 0
M  V30 1861 H 176.555 -0.0602896 -1.58585 0
M  V30 1862 H 176.576 2.19533 -3.10782 0
M  V30 1863 H 176.088 0.526195 -3.84516 0
M  V30 1864 H 174.189 2.65986 -2.60926 0
M  V30 1865 H 174.302 1.97543 -4.36478 0
M  V30 1866 H 172.666 1.13758 -2.27884 0
M  V30 1867 H 173.449 -0.0720836 -3.43224 0
M  V30 1868 N 175.894 1.51508 0.433938 0
M  V30 1869 C 177.171 1.54888 1.19453 0
M  V30 1870 C 177.551 0.315154 2.08734 0
M  V30 1871 O 176.899 -0.699558 2.17528 0
M  V30 1872 C 177.109 2.86467 1.99342 0
M  V30 1873 C 178.457 3.38545 2.56267 0
M  V30 1874 O 179.481 2.88041 2.0955 0
M  V30 1875 O 178.34 4.26675 3.41483 0
M  V30 1876 H 175.434 0.622863 0.544032 0
M  V30 1877 H 177.98 1.63823 0.442732 0
M  V30 1878 H 176.752 3.67718 1.33788 0
M  V30 1879 H 176.375 2.8071 2.8158 0
M  V30 1880 N 177.372 -0.689602 1.41712 0
M  V30 1881 C 178.62 -1.4468 1.4111 0
M  V30 1882 C 178.941 -1.94986 0.0232196 0
M  V30 1883 O 178.211 -1.72097 -0.935913 0
M  V30 1884 H 176.791 -0.536847 0.519427 0
M  V30 1885 H 179.453 -0.815825 1.77004 0
M  V30 1886 H 178.549 -2.30706 2.10193 0
M  V30 1887 N 178.85 -1.27639 -0.924453 0
M  V30 1888 C 179.798 -1.10485 -2.04685 0
M  V30 1889 C 180.792 -0.0270421 -1.69378 0
M  V30 1890 O 181.998 -0.185008 -1.79047 0
M  V30 1891 H 178.373 -0.340546 -0.670472 0
M  V30 1892 H 180.344 -2.05566 -2.16298 0
M  V30 1893 C 179.093 -0.772229 -3.39016 0
M  V30 1894 H 178.416 -1.59351 -3.66671 0
M  V30 1895 H 179.856 -0.692097 -4.18313 0
M  V30 1896 C 178.315 0.523554 -3.32807 0
M  V30 1897 O 178.845 1.55702 -3.70297 0
M  V30 1898 N 177.051 0.520363 -2.85903 0
M  V30 1899 H 176.598 -0.32107 -2.55591 0
M  V30 1900 H 176.556 1.38742 -2.82131 0
M  V30 1901 N 180.328 1.1314 -1.09713 0
M  V30 1902 C 181.258 2.20748 -0.761102 0
M  V30 1903 C 182.239 1.68061 0.262566 0
M  V30 1904 O 183.424 1.93765 0.129977 0
M  V30 1905 C 180.554 3.46812 -0.184054 0
M  V30 1906 C 179.508 4.12606 -1.13757 0
M  V30 1907 C 178.834 5.33031 -0.422083 0
M  V30 1908 C 180.134 4.59603 -2.48118 0
M  V30 1909 H 181.828 2.49113 -1.66082 0
M  V30 1910 H 179.374 1.19734 -0.799987 0
M  V30 1911 H 181.327 4.21353 0.0631215 0
M  V30 1912 H 180.051 3.17851 0.750868 0
M  V30 1913 H 178.71 3.40036 -1.37007 0
M  V30 1914 H 178.358 5.00335 0.517072 0
M  V30 1915 H 178.058 5.77999 -1.05788 0
M  V30 1916 H 179.582 6.10325 -0.183277 0
M  V30 1917 H 180.996 5.25552 -2.29059 0
M  V30 1918 H 179.393 5.15321 -3.07514 0
M  V30 1919 H 180.463 3.73971 -3.08665 0
M  V30 1920 N 181.806 0.884767 1.30421 0
M  V30 1921 C 183.046 0.509806 1.9794 0
M  V30 1922 C 183.41 -0.923736 1.68319 0
M  V30 1923 O 184.611 -1.40481 2.29169 0
M  V30 1924 C 182.882 0.776732 3.48858 0
M  V30 1925 S 184.441 0.503843 4.35898 0
M  V30 1926 H 181.259 0.189699 0.685227 0
M  V30 1927 H 183.861 1.14399 1.58535 0
M  V30 1928 H 182.565 1.81857 3.67908 0
M  V30 1929 H 182.096 0.1301 3.93185 0
M  V30 1930 H 184.111 -0.657625 4.91823 0
M  V30 1931 N 183.284 -1.43765 0.645699 0
M  V30 1932 C 184.533 -2.01116 0.153412 0
M  V30 1933 C 184.846 -1.51493 -1.23731 0
M  V30 1934 O 186.052 -2.01067 -1.8244 0
M  V30 1935 C 184.508 -3.59206 0.223473 0
M  V30 1936 C 184.116 -4.17823 1.61642 0
M  V30 1937 C 185.86 -4.23972 -0.211597 0
M  V30 1938 C 183.767 -5.68183 1.64081 0
M  V30 1939 H 182.697 -0.752093 0.0535891 0
M  V30 1940 H 185.348 -1.6482 0.806633 0
M  V30 1941 H 183.73 -3.92867 -0.497118 0
M  V30 1942 H 184.904 -3.95674 2.36176 0
M  V30 1943 H 183.219 -3.65399 1.99681 0
M  V30 1944 H 185.816 -5.34275 -0.213112 0
M  V30 1945 H 186.159 -3.97352 -1.24165 0
M  V30 1946 H 186.692 -3.95166 0.456988 0
M  V30 1947 H 183.431 -5.99559 2.64971 0
M  V30 1948 H 182.951 -5.9241 0.938611 0
M  V30 1949 H 184.63 -6.32085 1.3812 0
M  V30 1950 N 184.763 -0.387143 -1.52771 0
M  V30 1951 C 186.179 -0.037007 -1.59557 0
M  V30 1952 C 186.379 1.44801 -1.40124 0
M  V30 1953 O 185.435 2.21227 -1.21716 0
M  V30 1954 C 186.748 -0.512256 -2.96305 0
M  V30 1955 C 188.296 -0.468328 -3.09476 0
M  V30 1956 C 188.771 -0.919731 -4.4867 0
M  V30 1957 N 190.262 -0.875656 -4.54848 0
M  V30 1958 C 190.997 -1.19637 -5.6078 0
M  V30 1959 N 190.493 -1.58745 -6.74368 0
M  V30 1960 N 192.286 -1.11776 -5.50874 0
M  V30 1961 H 184.437 -1.35395 -1.63652 0
M  V30 1962 H 186.7 -0.554818 -0.768688 0
M  V30 1963 H 186.406 -1.54935 -3.15734 0
M  V30 1964 H 186.28 0.089805 -3.77093 0
M  V30 1965 H 188.667 0.559671 -2.89744 0
M  V30 1966 H 188.748 -1.10616 -2.30646 0
M  V30 1967 H 188.392 -1.94595 -4.69143 0
M  V30 1968 H 188.322 -0.258927 -5.25963 0
M  V30 1969 H 190.813 -0.587843 -3.733 0
M  V30 1970 H 191.126 -1.81586 -7.51163 0
M  V30 1971 H 189.471 -1.6263 -6.75705 0
M  V30 1972 H 192.662 -0.811264 -4.61016 0
M  V30 1973 H 192.835 -1.37103 -6.3333 0
M  V30 1974 N 186.241 1.57166 -0.116904 0
M  V30 1975 C 187.466 1.999 0.55271 0
M  V30 1976 C 187.891 0.996039 1.59564 0
M  V30 1977 O 187.249 -0.032556 1.81271 0
M  V30 1978 C 187.297 3.4152 1.15742 0
M  V30 1979 O 186.401 3.44106 2.27299 0
M  V30 1980 H 185.742 0.649447 0.138258 0
M  V30 1981 H 188.272 2.03573 -0.204759 0
M  V30 1982 H 188.282 3.79684 1.49346 0
M  V30 1983 H 186.957 4.14034 0.393493 0
M  V30 1984 H 185.534 3.17759 1.9515 0
M  V30 1985 N 187.719 -0.156864 1.56817 0
M  V30 1986 C 188.996 -0.899244 1.73704 0
M  V30 1987 C 189.376 -1.99771 0.682254 0
M  V30 1988 O 188.724 -2.26515 -0.300522 0
M  V30 1989 C 188.934 -1.45075 3.17418 0
M  V30 1990 C 190.282 -1.91802 3.7881 0
M  V30 1991 O 191.306 -1.54838 3.20786 0
M  V30 1992 O 190.165 -2.5994 4.80722 0
M  V30 1993 H 187.259 -0.424267 0.709878 0
M  V30 1994 H 189.805 -0.143561 1.69092 0
M  V30 1995 H 188.577 -0.660846 3.85679 0
M  V30 1996 H 188.2 -2.27021 3.26416 0
M  V30 1997 N 189.197 -1.51736 -0.425897 0
M  V30 1998 C 190.446 -1.64201 -1.17136 0
M  V30 1999 C 190.759 -0.369705 -1.92074 0
M  V30 2000 O 191.965 -0.373898 -2.68913 0
M  V30 2001 C 190.421 -2.90035 -2.13091 0
M  V30 2002 C 190.029 -4.24312 -1.43747 0
M  V30 2003 C 191.773 -3.1186 -2.87999 0
M  V30 2004 C 189.68 -5.41285 -2.38253 0
M  V30 2005 H 188.61 -0.611624 -0.440944 0
M  V30 2006 H 191.261 -1.78212 -0.437328 0
M  V30 2007 H 189.643 -2.69684 -2.89977 0
M  V30 2008 H 190.817 -4.55086 -0.723408 0
M  V30 2009 H 189.132 -4.08456 -0.809465 0
M  V30 2010 H 191.729 -3.96427 -3.58817 0
M  V30 2011 H 192.072 -2.25403 -3.49999 0
M  V30 2012 H 192.605 -3.32605 -2.18217 0
M  V30 2013 H 189.344 -6.30037 -1.80925 0
M  V30 2014 H 188.864 -5.14872 -3.0768 0
M  V30 2015 H 190.543 -5.73694 -2.99139 0
M  V30 2016 N 190.675 0.682077 -1.42076 0
M  V30 2017 C 191.903 1.47057 -1.4554 0
M  V30 2018 C 192.318 1.8869 -0.0645779 0
M  V30 2019 O 191.675 1.57666 0.919115 0
M  V30 2020 C 191.726 2.72442 -2.37609 0
M  V30 2021 O 191.447 2.32559 -3.71279 0
M  V30 2022 C 192.948 3.66069 -2.50017 0
M  V30 2023 H 190.168 0.452737 -0.495248 0
M  V30 2024 H 192.712 0.838695 -1.8651 0
M  V30 2025 H 190.867 3.31835 -1.9991 0
M  V30 2026 H 191.281 3.13475 -4.20516 0
M  V30 2027 H 192.755 4.50792 -3.18576 0
M  V30 2028 H 193.232 4.11476 -1.53572 0
M  V30 2029 H 193.838 3.12572 -2.88407 0
M  V30 2030 N 192.153 1.28127 0.917671 0
M  V30 2031 C 193.401 1.14825 1.66312 0
M  V30 2032 C 193.722 -0.304379 1.9261 0
M  V30 2033 O 192.992 -1.21149 1.53947 0
M  V30 2034 H 191.572 0.421953 0.616413 0
M  V30 2035 H 194.234 1.608 1.10134 0
M  V30 2036 H 193.33 1.68489 2.62712 0
M  V30 2037 N 193.631 -1.12557 1.10312 0
M  V30 2038 C 195.047 -1.36036 0.834649 0
M  V30 2039 C 195.247 -1.93946 -0.546539 0
M  V30 2040 O 194.303 -2.16484 -1.29966 0
M  V30 2041 C 195.616 -2.30312 1.9333 0
M  V30 2042 C 197.164 -2.43906 1.9616 0
M  V30 2043 C 197.639 -3.41496 3.05195 0
M  V30 2044 N 199.13 -3.49053 3.04494 0
M  V30 2045 C 199.865 -4.24471 3.85502 0
M  V30 2046 N 199.361 -5.02966 4.76442 0
M  V30 2047 N 201.154 -4.19864 3.73725 0
M  V30 2048 H 193.305 -0.733246 1.99342 0
M  V30 2049 H 195.568 -0.385234 0.866198 0
M  V30 2050 H 195.274 -1.94933 2.92735 0
M  V30 2051 H 195.148 -3.30421 1.81939 0
M  V30 2052 H 197.535 -2.78567 0.973886 0
M  V30 2053 H 197.616 -1.4369 2.11629 0
M  V30 2054 H 197.26 -3.07565 4.04186 0
M  V30 2055 H 197.19 -4.41539 2.86968 0
M  V30 2056 H 199.681 -2.93053 2.38596 0
M  V30 2057 H 199.994 -5.57846 5.34815 0
M  V30 2058 H 198.339 -5.02167 4.80472 0
M  V30 2059 H 201.53 -3.57623 3.02032 0
M  V30 2060 H 201.703 -4.78386 4.37093 0
M  V30 2061 N 195.109 -0.891671 -1.2995 0
M  V30 2062 C 196.357 -0.512486 -1.95494 0
M  V30 2063 C 196.678 0.942776 -1.70695 0
M  V30 2064 O 195.948 1.66374 -1.03424 0
M  V30 2065 H 194.528 -0.186533 -0.723336 0
M  V30 2066 H 197.19 -1.13621 -1.58355 0
M  V30 2067 H 196.286 -0.688342 -3.04415 0
M  V30 2068 N 196.587 1.43421 -0.653314 0
M  V30 2069 C 197.833 2.02111 -0.166992 0
M  V30 2070 C 198.166 1.51423 1.21592 0
M  V30 2071 O 197.441 0.707389 1.8118 0
M  V30 2072 C 197.724 3.5966 -0.177948 0
M  V30 2073 C 197.577 4.20579 -1.59478 0
M  V30 2074 C 198.896 4.37413 0.4856 0
M  V30 2075 H 196.015 0.734374 -0.0621557 0
M  V30 2076 H 198.657 1.70717 -0.834016 0
M  V30 2077 H 196.807 3.86537 0.390032 0
M  V30 2078 H 198.479 4.04732 -2.21336 0
M  V30 2079 H 196.722 3.77226 -2.14204 0
M  V30 2080 H 197.393 5.29665 -1.5543 0
M  V30 2081 H 199.869 4.161 0.00234528 0
M  V30 2082 H 198.745 5.47075 0.447207 0
M  V30 2083 H 199.006 4.13672 1.55974 0
M  V30 2084 N 198.065 0.39524 1.52563 0
M  V30 2085 C 198.995 -0.428384 2.29537 0
M  V30 2086 C 199.976 -1.05831 1.33169 0
M  V30 2087 O 201.161 -1.06995 1.62067 0
M  V30 2088 C 198.291 -1.55274 3.10656 0
M  V30 2089 C 197.245 -1.04855 4.14957 0
M  V30 2090 C 196.571 -2.26543 4.84337 0
M  V30 2091 C 197.871 -0.112324 5.22179 0
M  V30 2092 H 199.565 0.213867 2.98635 0
M  V30 2093 H 197.111 0.104298 1.43622 0
M  V30 2094 H 199.064 -2.1358 3.63265 0
M  V30 2095 H 197.788 -2.22266 2.39302 0
M  V30 2096 H 196.447 -0.487985 3.63338 0
M  V30 2097 H 196.095 -2.92059 4.09525 0
M  V30 2098 H 195.795 -1.93466 5.54837 0
M  V30 2099 H 197.319 -2.85481 5.39753 0
M  V30 2100 H 198.733 -0.603752 5.70112 0
M  V30 2101 H 197.13 0.128968 5.99961 0
M  V30 2102 H 198.2 0.837052 4.77621 0
M  V30 2103 N 199.544 -1.57102 0.125237 0
M  V30 2104 C 200.507 -2.14471 -0.80838 0
M  V30 2105 C 201.507 -1.0811 -1.19033 0
M  V30 2106 O 202.697 -1.33856 -1.11482 0
M  V30 2107 C 199.829 -2.69005 -2.09402 0
M  V30 2108 H 201.022 -2.98297 -0.309696 0
M  V30 2109 H 198.575 -1.55807 -0.124051 0
M  V30 2110 H 199.31 -1.88785 -2.63687 0
M  V30 2111 H 199.095 -3.46799 -1.82957 0
M  V30 2112 H 200.585 -3.13278 -2.76128 0
M  V30 2113 N 201.022 0.148545 -1.56898 0
M  V30 2114 C 202.299 0.890019 -1.74178 0
M  V30 2115 C 202.679 1.99407 -0.692839 0
M  V30 2116 O 202.027 2.26671 0.288505 0
M  V30 2117 C 202.237 1.43389 -3.18183 0
M  V30 2118 C 203.585 1.89791 -3.79822 0
M  V30 2119 O 204.609 1.53134 -3.21603 0
M  V30 2120 O 203.468 2.57387 -4.82093 0
M  V30 2121 H 200.562 0.420496 -0.712118 0
M  V30 2122 H 203.108 0.134591 -1.69165 0
M  V30 2123 H 201.88 0.640383 -3.86024 0
M  V30 2124 H 201.503 2.25287 -3.27615 0
M  V30 2125 N 202.5 1.5196 0.417844 0
M  V30 2126 C 203.748 1.65263 1.16329 0
M  V30 2127 C 204.069 0.380634 1.91249 0
M  V30 2128 O 203.339 -0.604214 1.86349 0
M  V30 2129 H 201.919 0.60912 0.432414 0
M  V30 2130 H 204.581 1.88969 0.477162 0
M  V30 2131 H 203.677 2.4896 1.88217 0
M  V30 2132 N 203.978 -0.674533 1.42435 0
M  V30 2133 C 205.206 -1.46283 1.46317 0
M  V30 2134 C 205.621 -1.88653 0.0745836 0
M  V30 2135 O 204.978 -1.58151 -0.91074 0
M  V30 2136 C 205.029 -2.71178 2.3905 0
M  V30 2137 O 204.75 -2.30586 3.72507 0
M  V30 2138 C 206.251 -3.64738 2.51955 0
M  V30 2139 H 203.471 -0.450104 0.497642 0
M  V30 2140 H 206.015 -0.828792 1.86953 0
M  V30 2141 H 204.17 -3.3077 2.01667 0
M  V30 2142 H 204.584 -3.11241 4.22172 0
M  V30 2143 H 206.058 -4.49096 3.20962 0
M  V30 2144 H 206.535 -4.10656 1.55752 0
M  V30 2145 H 207.141 -3.11038 2.90061 0
M  V30 2146 N 205.456 -1.28612 -0.910864 0
M  V30 2147 C 206.684 -1.18792 -1.69399 0
M  V30 2148 C 207.099 0.253039 -1.87097 0
M  V30 2149 O 206.456 1.17071 -1.40003 0
M  V30 2150 C 206.507 -1.88511 -3.08457 0
M  V30 2151 O 206.228 -3.26979 -2.91576 0
M  V30 2152 C 207.729 -1.85029 -4.02839 0
M  V30 2153 H 204.949 -0.412233 -0.529438 0
M  V30 2154 H 207.493 -1.69788 -1.13984 0
M  V30 2155 H 205.648 -1.41379 -3.60681 0
M  V30 2156 H 206.062 -3.61936 -3.79608 0
M  V30 2157 H 207.536 -2.38395 -4.97867 0
M  V30 2158 H 208.013 -0.823303 -4.31414 0
M  V30 2159 H 208.619 -2.31853 -3.56545 0
M  V30 2160 N 206.934 1.1197 -1.10907 0
M  V30 2161 C 208.35 1.35591 -0.841852 0
M  V30 2162 C 208.55 1.94233 0.536246 0
M  V30 2163 O 207.606 2.1717 1.28816 0
M  V30 2164 C 208.919 2.29284 -1.94549 0
M  V30 2165 C 210.467 2.42862 -1.97451 0
M  V30 2166 C 210.942 3.39873 -3.07002 0
M  V30 2167 N 212.433 3.47433 -3.06341 0
M  V30 2168 C 213.168 4.22421 -3.87748 0
M  V30 2169 N 212.664 5.00432 -4.79103 0
M  V30 2170 N 214.457 4.17876 -3.75946 0
M  V30 2171 H 206.608 0.722664 -1.99728 0
M  V30 2172 H 208.871 0.380635 -0.868229 0
M  V30 2173 H 208.577 1.93378 -2.93765 0
M  V30 2174 H 208.451 3.29452 -1.83688 0
M  V30 2175 H 210.838 2.78046 -0.988645 0
M  V30 2176 H 210.919 1.42566 -2.12388 0
M  V30 2177 H 210.563 3.05417 -4.05811 0
M  V30 2178 H 210.493 4.40011 -2.89306 0
M  V30 2179 H 212.984 2.91784 -2.40147 0
M  V30 2180 H 213.297 5.55002 -5.37766 0
M  V30 2181 H 211.642 4.99612 -4.83128 0
M  V30 2182 H 214.833 3.56016 -3.03924 0
M  V30 2183 H 215.006 4.76061 -4.39624 0
M  V30 2184 N 208.412 0.89855 1.29475 0
M  V30 2185 C 209.659 0.523882 1.95606 0
M  V30 2186 C 209.987 -0.929608 1.70847 0
M  V30 2187 O 209.242 -1.67401 1.01367 0
M  V30 2188 C 209.541 0.761398 3.49195 0
M  V30 2189 C 209.207 2.19207 3.94029 0
M  V30 2190 C 207.869 2.58326 4.05982 0
M  V30 2191 C 210.221 3.12379 4.17216 0
M  V30 2192 C 207.549 3.898 4.38489 0
M  V30 2193 C 209.901 4.43401 4.51197 0
M  V30 2194 C 208.565 4.82394 4.61359 0
M  V30 2195 H 207.835 0.191702 0.715773 0
M  V30 2196 H 210.482 1.13699 1.54094 0
M  V30 2197 H 208.787 0.0653622 3.91745 0
M  V30 2198 H 210.484 0.450904 3.98457 0
M  V30 2199 H 207.074 1.87846 3.85242 0
M  V30 2200 H 211.258 2.83371 4.07449 0
M  V30 2201 H 206.514 4.19734 4.44559 0
M  V30 2202 H 210.688 5.15623 4.68087 0
M  V30 2203 H 208.315 5.84306 4.86303 0
M  V30 2204 N 209.89 -1.43072 0.660911 0
M  V30 2205 C 211.118 -2.06067 0.185422 0
M  V30 2206 C 211.533 -1.49582 -1.15198 0
M  V30 2207 O 210.89 -0.630134 -1.71276 0
M  V30 2208 C 210.941 -3.61371 0.0966523 0
M  V30 2209 O 210.662 -4.15758 1.38119 0
M  V30 2210 C 212.163 -4.41455 -0.403996 0
M  V30 2211 H 209.383 -0.664459 0.0934604 0
M  V30 2212 H 211.927 -1.83447 0.90373 0
M  V30 2213 H 210.082 -3.8315 -0.572259 0
M  V30 2214 H 210.496 -5.09499 1.24542 0
M  V30 2215 H 211.97 -5.50437 -0.415045 0
M  V30 2216 H 212.447 -4.15036 -1.43674 0
M  V30 2217 H 213.053 -4.24663 0.232691 0
M  V30 2218 N 211.368 -0.403325 -1.52352 0
M  V30 2219 C 212.608 0.173946 -2.03659 0
M  V30 2220 C 212.972 1.42869 -1.28267 0
M  V30 2221 O 214.173 2.08403 -1.69769 0
M  V30 2222 C 212.444 0.421478 -3.54906 0
M  V30 2223 S 214.003 0.967027 -4.28012 0
M  V30 2224 H 210.821 0.0477461 -0.709395 0
M  V30 2225 H 213.423 -0.554906 -1.87459 0
M  V30 2226 H 212.127 -0.498616 -4.0736 0
M  V30 2227 H 211.658 1.17837 -3.75337 0
M  V30 2228 H 213.673 2.24812 -4.4235 0
M  V30 2229 N 212.846 1.57033 -0.133567 0
M  V30 2230 C 213.793 2.16074 0.811208 0
M  V30 2231 C 214.763 1.08979 1.2535 0
M  V30 2232 O 215.948 1.36958 1.32843 0
M  V30 2233 C 213.088 2.77595 2.05024 0
M  V30 2234 C 212.201 3.99042 1.65498 0
M  V30 2235 C 211.336 4.48603 2.84479 0
M  V30 2236 C 210.375 5.62547 2.41262 0
M  V30 2237 N 209.512 6.06787 3.53206 0
M  V30 2238 H 214.352 2.96477 0.300906 0
M  V30 2239 H 211.889 1.46462 0.136822 0
M  V30 2240 H 213.847 3.11402 2.77642 0
M  V30 2241 H 212.477 1.99859 2.53488 0
M  V30 2242 H 211.529 3.71302 0.826981 0
M  V30 2243 H 212.841 4.81629 1.29748 0
M  V30 2244 H 211.995 4.84395 3.65303 0
M  V30 2245 H 210.734 3.64995 3.23465 0
M  V30 2246 H 209.739 5.26345 1.58874 0
M  V30 2247 H 210.964 6.47931 2.03377 0
M  V30 2248 H 208.91 5.26117 3.91838 0
M  V30 2249 H 208.827 6.84266 3.21427 0
M  V30 2250 H 210.095 6.4722 4.34427 0
M  V30 2251 N 214.325 -0.140222 1.56975 0
M  V30 2252 C 215.573 -0.850005 1.83356 0
M  V30 2253 C 215.894 -1.81399 0.71551 0
M  V30 2254 O 215.164 -1.94136 -0.262294 0
M  V30 2255 H 213.744 -0.316886 0.676456 0
M  V30 2256 H 216.406 -0.132608 1.94448 0
M  V30 2257 H 215.502 -1.40814 2.78528 0
M  V30 2258 N 215.803 -1.52179 -0.40978 0
M  V30 2259 C 216.75 -1.75475 -1.49924 0
M  V30 2260 C 217.72 -0.597175 -1.54994 0
M  V30 2261 O 218.905 -0.834655 -1.71575 0
M  V30 2262 C 216.045 -1.9107 -2.87378 0
M  V30 2263 C 215.158 -3.18717 -2.91622 0
M  V30 2264 C 214.293 -3.24747 -4.20372 0
M  V30 2265 C 213.332 -4.46598 -4.18588 0
M  V30 2266 N 212.469 -4.50025 -5.38908 0
M  V30 2267 H 217.309 -2.68458 -1.29361 0
M  V30 2268 H 214.846 -1.33024 -0.627934 0
M  V30 2269 H 216.804 -1.98096 -3.6717 0
M  V30 2270 H 215.434 -1.01469 -3.06437 0
M  V30 2271 H 214.486 -3.20866 -2.04326 0
M  V30 2272 H 215.798 -4.08544 -2.86169 0
M  V30 2273 H 214.952 -3.30841 -5.08556 0
M  V30 2274 H 213.691 -2.32857 -4.28519 0
M  V30 2275 H 212.696 -4.40652 -3.28794 0
M  V30 2276 H 213.921 -5.39783 -4.12081 0
M  V30 2277 H 211.867 -3.61017 -5.47725 0
M  V30 2278 H 211.784 -5.33697 -5.35447 0
M  V30 2279 H 213.052 -4.60347 -6.29048 0
M  V30 2280 N 217.281 0.66697 -1.42791 0
M  V30 2281 C 218.692 1.2478 -1.38877 0
M  V30 2282 C 219.043 1.96012 -0.0859426 0
M  V30 2283 O 218.168 2.00463 0.815081 0
M  V30 2284 C 218.763 2.26938 -2.51564 0
M  V30 2285 C 217.322 2.80529 -2.50959 0
M  V30 2286 C 216.469 1.54965 -2.29959 0
M  V30 2287 H 219.42 0.459853 -1.51892 0
M  V30 2288 H 219.441 3.08834 -2.22265 0
M  V30 2289 H 218.953 1.75065 -3.46372 0
M  V30 2290 H 217.054 3.36502 -1.59991 0
M  V30 2291 H 217.167 3.29012 -3.48265 0
M  V30 2292 H 215.531 1.81817 -1.78366 0
M  V30 2293 H 216.314 1.05047 -3.26833 0
M  V30 2294 N 218.759 1.29093 0.90403 0
M  V30 2295 C 220.005 1.16986 1.65656 0
M  V30 2296 C 220.338 -0.278925 1.92186 0
M  V30 2297 O 219.613 -1.2019 1.5292 0
M  V30 2298 C 219.896 1.97908 3.0084 0
M  V30 2299 C 219.749 3.50903 2.81403 0
M  V30 2300 C 221.068 1.80208 4.01513 0
M  V30 2301 H 218.187 0.426346 0.601164 0
M  V30 2302 H 220.829 1.58518 1.04747 0
M  V30 2303 H 218.979 1.62616 3.52829 0
M  V30 2304 H 220.651 3.96153 2.36348 0
M  V30 2305 H 218.894 3.76045 2.1627 0
M  V30 2306 H 219.565 4.02791 3.77443 0
M  V30 2307 H 222.041 2.11025 3.58619 0
M  V30 2308 H 220.917 2.39184 4.94047 0
M  V30 2309 H 221.178 0.756119 4.35586 0
M  V30 2310 N 220.237 -1.11381 1.11499 0
M  V30 2311 C 221.187 -2.15555 0.74298 0
M  V30 2312 C 222.171 -1.58894 -0.253276 0
M  V30 2313 O 223.363 -1.76897 -0.0602918 0
M  V30 2314 C 220.492 -3.42782 0.188481 0
M  V30 2315 C 219.578 -4.064 1.21244 0
M  V30 2316 N 219.969 -4.44864 2.40685 0
M  V30 2317 C 218.267 -4.3333 1.05552 0
M  V30 2318 C 218.968 -4.94715 3.05994 0
M  V30 2319 N 217.944 -4.90909 2.33472 0
M  V30 2320 H 221.746 -2.43074 1.65203 0
M  V30 2321 H 219.26 -1.28401 0.994329 0
M  V30 2322 H 221.257 -4.16789 -0.0961693 0
M  V30 2323 H 219.917 -3.16727 -0.715149 0
M  V30 2324 H 220.928 -4.36876 2.78136 0
M  V30 2325 H 217.605 -4.1698 0.208372 0
M  V30 2326 H 218.995 -5.34103 4.07656 0
M  V30 2327 N 221.715 -0.905404 -1.28997 0
M  V30 2328 C 222.665 -0.358713 -2.25161 0
M  V30 2329 C 223.649 0.524449 -1.52113 0
M  V30 2330 O 224.841 0.365534 -1.73184 0
M  V30 2331 C 221.97 0.407609 -3.40872 0
M  V30 2332 C 221.056 -0.490797 -4.21251 0
M  V30 2333 N 221.447 -1.60061 -4.79806 0
M  V30 2334 C 219.745 -0.289636 -4.45059 0
M  V30 2335 C 220.446 -2.15757 -5.40207 0
M  V30 2336 N 219.422 -1.44988 -5.23908 0
M  V30 2337 H 223.224 -1.20642 -2.67998 0
M  V30 2338 H 220.738 -0.757103 -1.43672 0
M  V30 2339 H 222.735 0.816046 -4.08835 0
M  V30 2340 H 221.395 1.25251 -2.9957 0
M  V30 2341 H 222.406 -1.98329 -4.7842 0
M  V30 2342 H 219.083 0.51643 -4.14294 0
M  V30 2343 H 220.473 -3.09069 -5.96595 0
M  V30 2344 N 223.193 1.4272 -0.668489 0
M  V30 2345 C 224.44 2.01624 -0.18814 0
M  V30 2346 C 224.768 1.5282 1.20317 0
M  V30 2347 O 224.023 0.718323 1.8204 0
M  V30 2348 C 224.322 3.57021 -0.164499 0
M  V30 2349 C 223.988 4.25232 -1.49962 0
M  V30 2350 C 222.65 4.4358 -1.8652 0
M  V30 2351 C 225.002 4.63727 -2.37921 0
M  V30 2352 C 222.33 4.97694 -3.10674 0
M  V30 2353 C 224.682 5.19218 -3.6138 0
M  V30 2354 C 223.346 5.3578 -3.98115 0
M  V30 2355 H 222.616 0.737795 -0.0688454 0
M  V30 2356 H 225.263 1.70991 -0.862225 0
M  V30 2357 H 223.568 3.87285 0.593079 0
M  V30 2358 H 225.265 4.00372 0.224271 0
M  V30 2359 H 221.855 4.11306 -1.20522 0
M  V30 2360 H 226.039 4.4923 -2.10964 0
M  V30 2361 H 221.295 5.08702 -3.39164 0
M  V30 2362 H 225.469 5.4799 -4.29743 0
M  V30 2363 H 223.096 5.77475 -4.94395 0
M  V30 2364 N 224.671 0.411399 1.52136 0
M  V30 2365 C 225.604 -0.457614 2.23565 0
M  V30 2366 C 226.582 -1.04613 1.24478 0
M  V30 2367 O 227.766 -1.09356 1.53536 0
M  V30 2368 C 224.893 -1.6354 2.96602 0
M  V30 2369 C 223.939 -1.17005 4.10137 0
M  V30 2370 S 224.772 -0.13333 5.35334 0
M  V30 2371 C 225.928 -1.31638 6.119 0
M  V30 2372 H 226.161 0.148883 2.96927 0
M  V30 2373 H 223.694 0.195713 1.53155 0
M  V30 2374 H 225.652 -2.31074 3.39286 0
M  V30 2375 H 224.313 -2.21324 2.22878 0
M  V30 2376 H 223.506 -2.05005 4.60422 0
M  V30 2377 H 223.108 -0.573319 3.6958 0
M  V30 2378 H 225.4 -2.23957 6.39413 0
M  V30 2379 H 226.343 -0.854014 7.02931 0
M  V30 2380 H 226.751 -1.54321 5.42997 0
M  V30 2381 N 226.149 -1.5696 0.141893 0
M  V30 2382 C 227.097 -2.17784 -0.816874 0
M  V30 2383 C 228.091 -1.1334 -1.25899 0
M  V30 2384 O 229.297 -1.316 -1.22806 0
M  V30 2385 H 225.672 -0.697278 -0.281615 0
M  V30 2386 H 227.643 -2.97087 -0.279621 0
M  V30 2387 C 226.392 -2.80983 -2.04802 0
M  V30 2388 H 225.715 -3.61062 -1.7168 0
M  V30 2389 H 227.155 -3.2705 -2.69841 0
M  V30 2390 C 225.614 -1.79228 -2.8527 0
M  V30 2391 O 226.144 -1.25962 -3.8144 0
M  V30 2392 N 224.35 -1.48647 -2.49704 0
M  V30 2393 H 223.897 -1.92155 -1.71564 0
M  V30 2394 H 223.855 -0.808115 -3.03837 0
M  V30 2395 N 227.627 0.131896 -1.57047 0
M  V30 2396 C 228.855 0.856461 -1.88341 0
M  V30 2397 C 229.27 1.74042 -0.731757 0
M  V30 2398 O 228.627 1.80051 0.297945 0
M  V30 2399 C 228.678 1.70064 -3.18999 0
M  V30 2400 O 228.399 0.852278 -4.2973 0
M  V30 2401 C 229.9 2.53148 -3.63911 0
M  V30 2402 H 227.12 0.246885 -0.62393 0
M  V30 2403 H 229.664 0.120152 -2.04147 0
M  V30 2404 H 227.819 2.38984 -3.04902 0
M  V30 2405 H 228.233 1.43329 -5.04537 0
M  V30 2406 H 229.707 3.07931 -4.58129 0
M  V30 2407 H 230.184 3.29901 -2.89935 0
M  V30 2408 H 230.79 1.89492 -3.80753 0
M  V30 2409 N 229.106 1.52395 0.401703 0
M  V30 2410 C 230.331 1.70972 1.17403 0
M  V30 2411 C 230.756 0.421615 1.83314 0
M  V30 2412 O 230.114 -0.621564 1.70312 0
M  V30 2413 C 230.162 2.85151 2.20728 0
M  V30 2414 O 229.266 2.51238 3.27037 0
M  V30 2415 H 228.607 0.568927 0.342372 0
M  V30 2416 H 231.137 1.99131 0.469891 0
M  V30 2417 H 231.147 3.10279 2.64936 0
M  V30 2418 H 229.822 3.78603 1.7214 0
M  V30 2419 H 228.399 2.36808 2.88057 0
M  V30 2420 N 230.584 -0.659388 1.43143 0
M  V30 2421 C 231.812 -1.44723 1.47861 0
M  V30 2422 C 232.227 -1.88563 0.0945886 0
M  V30 2423 O 231.584 -1.59108 -0.893915 0
M  V30 2424 C 231.635 -2.68627 2.41913 0
M  V30 2425 O 231.356 -2.26623 3.74932 0
M  V30 2426 C 232.857 -3.62045 2.55809 0
M  V30 2427 H 230.077 -0.444801 0.502387 0
M  V30 2428 H 232.621 -0.808916 1.87821 0
M  V30 2429 H 230.776 -3.28613 2.05164 0
M  V30 2430 H 231.19 -3.06745 4.2545 0
M  V30 2431 H 232.664 -4.45666 3.25708 0
M  V30 2432 H 233.141 -4.08981 1.60099 0
M  V30 2433 H 233.747 -3.07944 2.93344 0
M  V30 2434 N 232.062 -1.29571 -0.897171 0
M  V30 2435 C 233.309 -1.17689 -1.6479 0
M  V30 2436 C 233.637 0.27107 -1.92602 0
M  V30 2437 O 232.892 1.21193 -1.53658 0
M  V30 2438 C 233.191 -1.9382 -3.00281 0
M  V30 2439 C 232.857 -3.43522 -2.92068 0
M  V30 2440 C 231.519 -3.84348 -2.89535 0
M  V30 2441 C 233.871 -4.38906 -2.81089 0
M  V30 2442 C 231.199 -5.18869 -2.73846 0
M  V30 2443 C 233.551 -5.73521 -2.66939 0
M  V30 2444 C 232.215 -6.13601 -2.62774 0
M  V30 2445 H 231.485 -0.430654 -0.603008 0
M  V30 2446 H 234.132 -1.60536 -1.04404 0
M  V30 2447 H 232.437 -1.4357 -3.64547 0
M  V30 2448 H 234.134 -1.82028 -3.57305 0
M  V30 2449 H 230.724 -3.11072 -2.94842 0
M  V30 2450 H 234.908 -4.08315 -2.82121 0
M  V30 2451 H 230.164 -5.4903 -2.69027 0
M  V30 2452 H 234.338 -6.47078 -2.57416 0
M  V30 2453 H 231.965 -7.17786 -2.50375 0
M  V30 2454 N 233.54 1.10788 -1.12088 0
M  V30 2455 C 234.768 1.86461 -0.896651 0
M  V30 2456 C 235.183 1.80492 0.553912 0
M  V30 2457 O 234.54 1.19102 1.38278 0
M  V30 2458 C 234.591 3.35006 -1.35843 0
M  V30 2459 O 234.312 3.40866 -2.75213 0
M  V30 2460 C 235.813 4.27565 -1.1706 0
M  V30 2461 H 233.033 0.589425 -0.320654 0
M  V30 2462 H 235.577 1.40076 -1.48993 0
M  V30 2463 H 233.732 3.7887 -0.808458 0
M  V30 2464 H 234.146 4.33411 -2.9539 0
M  V30 2465 H 235.62 5.30007 -1.54263 0
M  V30 2466 H 236.097 4.3906 -0.110814 0
M  V30 2467 H 236.703 3.89501 -1.70789 0
M  V30 2468 N 235.018 0.912232 1.28515 0
M  V30 2469 C 235.928 0.404506 2.31086 0
M  V30 2470 C 236.944 -0.50707 1.66448 0
M  V30 2471 O 238.12 -0.393624 1.97516 0
M  V30 2472 C 235.185 -0.348572 3.44943 0
M  V30 2473 C 234.246 0.59604 4.25142 0
M  V30 2474 C 233.479 -0.121194 5.33562 0
M  V30 2475 O 233.702 -1.34317 5.5436 0
M  V30 2476 O 232.636 0.542716 5.99448 0
M  V30 2477 H 236.462 1.25579 2.76521 0
M  V30 2478 H 234.047 0.676998 1.33181 0
M  V30 2479 H 235.929 -0.77395 4.14232 0
M  V30 2480 H 234.604 -1.17571 3.01594 0
M  V30 2481 H 233.511 1.07079 3.58448 0
M  V30 2482 H 234.844 1.38995 4.72167 0
M  V30 2483 N 236.496 -1.42363 0.676048 0
M  V30 2484 C 237.726 -2.05561 0.206967 0
M  V30 2485 C 238.134 -1.50887 -1.14148 0
M  V30 2486 O 237.477 -0.643933 -1.72044 0
M  V30 2487 C 237.539 -3.5944 0.0659508 0
M  V30 2488 C 237.203 -4.36812 1.34331 0
M  V30 2489 C 238.2 -4.67383 2.27704 0
M  V30 2490 C 235.885 -4.76429 1.59125 0
M  V30 2491 C 237.879 -5.36509 3.44147 0
M  V30 2492 C 235.566 -5.45294 2.75857 0
M  V30 2493 C 236.564 -5.75259 3.68193 0
M  V30 2494 O 236.252 -6.42712 4.82883 0
M  V30 2495 H 235.984 -0.668872 0.0979084 0
M  V30 2496 H 238.538 -1.83467 0.923531 0
M  V30 2497 H 236.768 -3.80197 -0.706204 0
M  V30 2498 H 238.457 -4.0427 -0.363418 0
M  V30 2499 H 239.223 -4.37275 2.09799 0
M  V30 2500 H 235.102 -4.52498 0.881258 0
M  V30 2501 H 238.646 -5.59814 4.16238 0
M  V30 2502 H 234.543 -5.7482 2.93688 0
M  V30 2503 H 235.311 -6.61204 4.82444 0
M  V30 2504 N 237.974 -0.419461 -1.51915 0
M  V30 2505 C 239.202 0.152136 -2.0634 0
M  V30 2506 C 239.617 1.37988 -1.28859 0
M  V30 2507 O 238.974 1.79243 -0.343232 0
M  V30 2508 C 239.025 0.492266 -3.58133 0
M  V30 2509 O 238.746 -0.686736 -4.32684 0
M  V30 2510 C 240.247 1.11648 -4.2901 0
M  V30 2511 H 237.467 0.0158325 -0.670813 0
M  V30 2512 H 240.011 -0.593394 -1.95702 0
M  V30 2513 H 238.166 1.18769 -3.68745 0
M  V30 2514 H 238.58 -0.400341 -5.2297 0
M  V30 2515 H 240.054 1.3046 -5.36362 0
M  V30 2516 H 240.531 2.09251 -3.86148 0
M  V30 2517 H 241.137 0.460958 -4.22795 0
M  V30 2518 N 239.452 1.56882 -0.150215 0
M  V30 2519 C 240.698 1.96518 0.500834 0
M  V30 2520 C 241.031 1.03527 1.64304 0
M  V30 2521 O 240.306 0.0782751 1.94342 0
M  V30 2522 C 240.589 3.45822 1.00395 0
M  V30 2523 C 240.442 4.49591 -0.136983 0
M  V30 2524 C 241.761 3.97704 1.88467 0
M  V30 2525 H 238.88 0.714535 0.18058 0
M  V30 2526 H 241.522 1.88577 -0.232091 0
M  V30 2527 H 239.672 3.5272 1.62851 0
M  V30 2528 H 241.344 4.5477 -0.77343 0
M  V30 2529 H 239.587 4.26441 -0.795652 0
M  V30 2530 H 240.258 5.51402 0.256815 0
M  V30 2531 H 242.734 3.93304 1.35834 0
M  V30 2532 H 241.61 5.0263 2.20578 0
M  V30 2533 H 241.871 3.40252 2.82279 0
M  V30 2534 N 240.93 -0.123565 1.57115 0
M  V30 2535 C 242.176 -0.833386 1.84885 0
M  V30 2536 C 242.509 -1.79742 0.735292 0
M  V30 2537 O 241.784 -1.92764 -0.25925 0
M  V30 2538 C 242.067 -1.5873 3.23228 0
M  V30 2539 C 241.92 -0.643183 4.45178 0
M  V30 2540 C 243.239 -2.54453 3.59085 0
M  V30 2541 H 240.358 -0.301518 0.6725 0
M  V30 2542 H 243 -0.097778 1.89748 0
M  V30 2543 H 241.15 -2.21438 3.19214 0
M  V30 2544 H 242.822 -0.0253015 4.61293 0
M  V30 2545 H 241.065 0.0456139 4.33776 0
M  V30 2546 H 241.736 -1.20724 5.38637 0
M  V30 2547 H 244.212 -2.01853 3.63861 0
M  V30 2548 H 243.088 -3.04238 4.5687 0
M  V30 2549 H 243.349 -3.36906 2.86264 0
M  V30 2550 N 242.408 -1.52605 -0.393616 0
M  V30 2551 C 243.685 -1.58001 -1.15304 0
M  V30 2552 C 244.065 -0.370385 -2.07825 0
M  V30 2553 O 243.413 0.641638 -2.19306 0
M  V30 2554 C 243.623 -2.91652 -1.91677 0
M  V30 2555 C 244.971 -3.4522 -2.47201 0
M  V30 2556 O 245.995 -2.93495 -2.01839 0
M  V30 2557 O 244.854 -4.35579 -3.3005 0
M  V30 2558 H 241.948 -0.637068 -0.527327 0
M  V30 2559 H 244.494 -1.64939 -0.399141 0
M  V30 2560 H 243.266 -3.71136 -1.23992 0
M  V30 2561 H 242.889 -2.88077 -2.74039 0
M  V30 2562 N 243.887 0.651787 -1.4349 0
M  V30 2563 C 244.797 1.79368 -1.5121 0
M  V30 2564 C 245.813 1.69361 -0.399093 0
M  V30 2565 O 246.989 1.90505 -0.653431 0
M  V30 2566 C 244.054 3.15653 -1.43401 0
M  V30 2567 C 243.115 3.37446 -2.65384 0
M  V30 2568 C 242.348 4.67229 -2.57939 0
M  V30 2569 O 242.571 5.46676 -1.62792 0
M  V30 2570 O 241.505 4.90773 -3.48462 0
M  V30 2571 H 245.331 1.7581 -2.47638 0
M  V30 2572 H 242.916 0.810447 -1.25507 0
M  V30 2573 H 244.798 3.96935 -1.41494 0
M  V30 2574 H 243.473 3.19798 -0.501085 0
M  V30 2575 H 242.38 2.55923 -2.72863 0
M  V30 2576 H 243.713 3.38148 -3.57654 0
M  V30 2577 N 245.365 1.30045 0.890287 0
M  V30 2578 C 246.59 1.21598 1.68014 0
M  V30 2579 C 247.015 -0.218678 1.86825 0
M  V30 2580 O 246.373 -1.15756 1.39536 0
M  V30 2581 C 246.421 1.94434 3.03691 0
M  V30 2582 O 245.525 1.2678 3.92429 0
M  V30 2583 H 244.866 0.420856 0.513592 0
M  V30 2584 H 247.396 1.71775 1.11151 0
M  V30 2585 H 247.406 2.03251 3.5377 0
M  V30 2586 H 246.081 2.98777 2.89318 0
M  V30 2587 H 244.658 1.26282 3.50866 0
M  V30 2588 N 246.843 -1.10192 1.12674 0
M  V30 2589 C 248.068 -1.86523 0.906853 0
M  V30 2590 C 248.493 -1.80221 -0.538711 0
M  V30 2591 O 247.851 -1.17396 -1.38158 0
M  V30 2592 C 247.899 -3.32758 1.3894 0
M  V30 2593 O 247.003 -4.08449 0.5695 0
M  V30 2594 H 246.344 -0.578678 0.325619 0
M  V30 2595 H 248.874 -1.39203 1.49946 0
M  V30 2596 H 248.884 -3.83608 1.38958 0
M  V30 2597 H 247.559 -3.36661 2.44197 0
M  V30 2598 H 246.136 -3.67427 0.636528 0
M  V30 2599 N 248.321 -0.919034 -1.28029 0
M  V30 2600 C 249.567 -0.555757 -1.95036 0
M  V30 2601 C 249.9 0.899198 -1.72128 0
M  V30 2602 O 249.175 1.64023 -1.04531 0
M  V30 2603 C 249.458 -0.872024 -3.49382 0
M  V30 2604 C 249.311 -2.3801 -3.81669 0
M  V30 2605 C 250.63 -0.37185 -4.38526 0
M  V30 2606 H 247.749 -0.203386 -0.708381 0
M  V30 2607 H 250.391 -1.14924 -1.51303 0
M  V30 2608 H 248.541 -0.366946 -3.86763 0
M  V30 2609 H 250.213 -2.9562 -3.54128 0
M  V30 2610 H 248.456 -2.83289 -3.28526 0
M  V30 2611 H 249.127 -2.55192 -4.8947 0
M  V30 2612 H 251.603 -0.804602 -4.08247 0
M  V30 2613 H 250.479 -0.622173 -5.45362 0
M  V30 2614 H 250.74 0.727934 -4.36066 0
M  V30 2615 N 249.799 1.42003 -0.683588 0
M  V30 2616 C 250.762 2.29191 -0.0198243 0
M  V30 2617 C 251.762 1.43773 0.72013 0
M  V30 2618 O 252.952 1.65061 0.556815 0
M  V30 2619 C 250.084 3.26435 0.982487 0
M  V30 2620 H 251.277 2.8938 -0.787345 0
M  V30 2621 H 248.83 1.49789 -0.446418 0
M  V30 2622 H 249.565 2.71203 1.77819 0
M  V30 2623 H 249.35 3.89449 0.455182 0
M  V30 2624 H 250.84 3.918 1.44508 0
M  V30 2625 N 251.277 0.427512 1.51691 0
M  V30 2626 C 252.224 -0.388867 2.275 0
M  V30 2627 C 253.194 -1.02532 1.30677 0
M  V30 2628 O 254.379 -1.0461 1.59566 0
M  V30 2629 C 251.519 -1.48954 3.11298 0
M  V30 2630 C 250.632 -0.872194 4.23104 0
M  V30 2631 C 249.767 -1.94709 4.94228 0
M  V30 2632 C 248.806 -1.30766 5.97969 0
M  V30 2633 N 247.943 -2.32349 6.62539 0
M  V30 2634 H 252.783 0.263997 2.96828 0
M  V30 2635 H 250.32 0.142033 1.46413 0
M  V30 2636 H 252.278 -2.13887 3.58201 0
M  V30 2637 H 250.908 -2.11217 2.44105 0
M  V30 2638 H 249.96 -0.111419 3.80237 0
M  V30 2639 H 251.272 -0.365264 4.97461 0
M  V30 2640 H 250.426 -2.67327 5.44629 0
M  V30 2641 H 249.165 -2.48773 4.1948 0
M  V30 2642 H 248.17 -0.566902 5.4687 0
M  V30 2643 H 249.395 -0.774483 6.74669 0
M  V30 2644 H 247.341 -2.85511 5.90609 0
M  V30 2645 H 247.258 -1.8652 7.3263 0
M  V30 2646 H 248.526 -3.04481 7.17574 0
M  V30 2647 N 252.755 -1.56801 0.158532 0
M  V30 2648 C 254.004 -1.95665 -0.489702 0
M  V30 2649 C 254.317 -1.04654 -1.65248 0
M  V30 2650 O 255.523 -1.33146 -2.3661 0
M  V30 2651 C 253.979 -3.47874 -0.922582 0
M  V30 2652 C 253.587 -4.47489 0.213893 0
M  V30 2653 C 255.331 -3.95583 -1.53996 0
M  V30 2654 C 253.238 -5.90921 -0.237903 0
M  V30 2655 H 252.168 -0.730516 -0.186716 0
M  V30 2656 H 254.819 -1.81861 0.244722 0
M  V30 2657 H 253.201 -3.57051 -1.71261 0
M  V30 2658 H 254.375 -4.50017 0.991036 0
M  V30 2659 H 252.69 -4.09764 0.740407 0
M  V30 2660 H 255.287 -5.0019 -1.8898 0
M  V30 2661 H 255.63 -3.37789 -2.43319 0
M  V30 2662 H 256.163 -3.8937 -0.814611 0
M  V30 2663 H 252.902 -6.52559 0.620236 0
M  V30 2664 H 252.422 -5.91729 -0.980676 0
M  V30 2665 H 254.101 -6.43352 -0.686067 0
M  V30 2666 N 254.233 0.115231 -1.57178 0
M  V30 2667 C 255.51 0.852873 -1.76027 0
M  V30 2668 C 255.89 1.97892 -0.73498 0
M  V30 2669 O 255.238 2.27232 0.24036 0
M  V30 2670 C 255.448 1.36608 -3.21153 0
M  V30 2671 C 256.796 1.81692 -3.83762 0
M  V30 2672 O 257.82 1.46278 -3.24779 0
M  V30 2673 O 256.679 2.47104 -4.87444 0
M  V30 2674 H 253.773 0.405296 -0.720877 0
M  V30 2675 H 256.319 0.0986785 -1.69413 0
M  V30 2676 H 255.091 0.558357 -3.87296 0
M  V30 2677 H 254.714 2.18287 -3.3232 0
M  V30 2678 N 255.711 1.52812 0.385517 0
M  V30 2679 C 256.988 1.5861 1.14465 0
M  V30 2680 C 257.368 0.381402 2.07626 0
M  V30 2681 O 256.716 -0.629999 2.19643 0
M  V30 2682 C 256.926 2.92664 1.90128 0
M  V30 2683 C 258.274 3.46526 2.45367 0
M  V30 2684 O 259.298 2.94562 2.0028 0
M  V30 2685 O 258.157 4.37323 3.27736 0
M  V30 2686 H 255.251 0.639855 0.523941 0
M  V30 2687 H 257.797 1.65149 0.390389 0
M  V30 2688 H 256.569 3.71788 1.22022 0
M  V30 2689 H 256.192 2.89527 2.72507 0
M  V30 2690 N 257.189 -0.644168 1.43834 0
M  V30 2691 C 258.152 -1.73857 1.49353 0
M  V30 2692 C 259.152 -1.56315 0.377112 0
M  V30 2693 O 260.342 -1.62048 0.639226 0
M  V30 2694 C 257.474 -3.12819 1.35488 0
M  V30 2695 H 258.667 -1.70342 2.46827 0
M  V30 2696 H 256.22 -0.856652 1.30733 0
M  V30 2697 H 256.955 -3.2194 0.390569 0
M  V30 2698 H 256.74 -3.26958 2.16428 0
M  V30 2699 H 258.23 -3.92606 1.42302 0
M  V30 2700 N 258.668 -1.30515 -0.883378 0
M  V30 2701 C 259.631 -1.1701 -1.97082 0
M  V30 2702 C 260.631 -0.10089 -1.60483 0
M  V30 2703 O 261.821 -0.349127 -1.70666 0
M  V30 2704 C 258.953 -0.793045 -3.31547 0
M  V30 2705 H 260.146 -2.13622 -2.10489 0
M  V30 2706 H 257.699 -1.13935 -1.06998 0
M  V30 2707 H 258.434 0.172499 -3.23841 0
M  V30 2708 H 258.219 -1.56576 -3.5948 0
M  V30 2709 H 259.709 -0.722073 -4.1131 0
M  V30 2710 N 260.146 1.09593 -1.13257 0
M  V30 2711 C 261.557 1.63229 -0.906274 0
M  V30 2712 C 261.908 1.8811 0.557578 0
M  V30 2713 O 261.033 1.62953 1.42391 0
M  V30 2714 C 261.628 2.96535 -1.63867 0
M  V30 2715 C 260.187 3.47003 -1.45828 0
M  V30 2716 C 259.334 2.2145 -1.66898 0
M  V30 2717 H 262.285 0.92978 -1.28611 0
M  V30 2718 H 262.306 3.64411 -1.09476 0
M  V30 2719 H 261.818 2.78394 -2.70404 0
M  V30 2720 H 259.919 3.70272 -0.415848 0
M  V30 2721 H 260.032 4.24551 -2.2202 0
M  V30 2722 H 258.396 2.30022 -1.09371 0
M  V30 2723 H 259.179 2.0583 -2.74752 0
M  V30 2724 N 261.624 0.925811 1.2754 0
M  V30 2725 C 263.035 0.610102 1.7645 0
M  V30 2726 C 263.386 -0.874723 1.75622 0
M  V30 2727 O 262.511 -1.68444 1.35851 0
M  V30 2728 C 263.106 1.10073 3.20421 0
M  V30 2729 C 261.665 0.835723 3.67005 0
M  V30 2730 C 260.812 1.26054 2.46993 0
M  V30 2731 H 263.763 1.10579 1.13833 0
M  V30 2732 H 263.784 0.447557 3.77859 0
M  V30 2733 H 263.296 2.18143 3.20991 0
M  V30 2734 H 261.397 -0.231249 3.71882 0
M  V30 2735 H 261.51 1.45193 4.56569 0
M  V30 2736 H 259.874 0.679111 2.45479 0
M  V30 2737 H 260.657 2.34984 2.50275 0
M  V30 2738 N 263.102 -1.41638 0.69111 0
M  V30 2739 C 264.012 -2.34588 0.0233487 0
M  V30 2740 C 265.028 -1.55987 -0.770984 0
M  V30 2741 O 266.204 -1.88486 -0.709569 0
M  V30 2742 C 263.269 -3.34684 -0.904851 0
M  V30 2743 C 262.33 -4.29176 -0.103225 0
M  V30 2744 C 261.563 -5.2449 -0.987216 0
M  V30 2745 O 261.786 -5.2514 -2.22674 0
M  V30 2746 O 260.72 -6.00295 -0.439281 0
M  V30 2747 H 264.546 -2.93261 0.789416 0
M  V30 2748 H 262.131 -1.42417 0.45142 0
M  V30 2749 H 264.013 -3.96133 -1.43724 0
M  V30 2750 H 262.688 -2.78461 -1.65049 0
M  V30 2751 H 261.595 -3.71089 0.473655 0
M  V30 2752 H 262.928 -4.88484 0.60365 0
M  V30 2753 N 264.58 -0.43555 -1.51462 0
M  V30 2754 C 265.527 0.376797 -2.27703 0
M  V30 2755 C 266.497 1.01838 -1.31219 0
M  V30 2756 O 267.682 1.03762 -1.60119 0
M  V30 2757 C 264.822 1.47301 -3.12084 0
M  V30 2758 C 263.935 0.849744 -4.2356 0
M  V30 2759 C 263.07 1.92086 -4.95254 0
M  V30 2760 C 262.109 1.27593 -5.98654 0
M  V30 2761 N 261.246 2.28833 -6.63762 0
M  V30 2762 H 266.086 -0.279734 -2.96684 0
M  V30 2763 H 263.623 -0.149795 -1.46335 0
M  V30 2764 H 265.581 2.11984 -3.59331 0
M  V30 2765 H 264.211 2.0992 -2.45221 0
M  V30 2766 H 263.263 0.0912529 -3.80291 0
M  V30 2767 H 264.575 0.338878 -4.97648 0
M  V30 2768 H 263.729 2.64435 -5.46039 0
M  V30 2769 H 262.468 2.46545 -4.20793 0
M  V30 2770 H 261.473 0.537893 -5.47162 0
M  V30 2771 H 262.698 0.738693 -6.7507 0
M  V30 2772 H 260.644 2.82375 -5.92115 0
M  V30 2773 H 260.561 1.82632 -7.33608 0
M  V30 2774 H 261.829 3.00671 -7.19178 0
M  V30 2775 N 266.058 1.56714 -0.166846 0
M  V30 2776 C 267.304 1.97039 0.479962 0
M  V30 2777 C 267.637 1.05264 1.63197 0
M  V30 2778 O 266.912 0.0988833 1.94248 0
M  V30 2779 C 267.195 3.46867 0.967212 0
M  V30 2780 C 267.048 4.49421 -0.18466 0
M  V30 2781 C 268.367 3.9968 1.84238 0
M  V30 2782 H 265.486 0.71641 0.172992 0
M  V30 2783 H 268.128 1.8832 -0.252079 0
M  V30 2784 H 266.278 3.54428 1.59101 0
M  V30 2785 H 267.95 4.53924 -0.821621 0
M  V30 2786 H 266.193 4.25573 -0.840837 0
M  V30 2787 H 266.864 5.51644 0.198317 0
M  V30 2788 H 269.34 3.94723 1.31655 0
M  V30 2789 H 268.216 5.04941 2.15234 0
M  V30 2790 H 268.477 3.43226 2.78654 0
M  V30 2791 N 267.536 -0.106894 1.57237 0
M  V30 2792 C 268.776 -0.818277 1.87306 0
M  V30 2793 C 269.14 -1.76474 0.756371 0
M  V30 2794 O 270.341 -2.5186 0.939155 0
M  V30 2795 C 268.612 -1.53806 3.22612 0
M  V30 2796 S 270.171 -2.28935 3.74345 0
M  V30 2797 H 266.989 -0.272862 0.656557 0
M  V30 2798 H 269.591 -0.075988 1.95352 0
M  V30 2799 H 268.295 -0.834951 4.01817 0
M  V30 2800 H 267.826 -2.32049 3.17674 0
M  V30 2801 H 269.841 -3.54871 3.46815 0
M  V30 2802 N 269.014 -1.53014 -0.377408 0
M  V30 2803 C 269.944 -1.81589 -1.46791 0
M  V30 2804 C 270.925 -0.668622 -1.56408 0
M  V30 2805 O 272.11 -0.917337 -1.71168 0
M  V30 2806 C 269.24 -1.99519 -2.8427 0
M  V30 2807 C 268.194 -3.15249 -2.89486 0
M  V30 2808 C 267.52 -3.18451 -4.29527 0
M  V30 2809 C 268.82 -4.54084 -2.58079 0
M  V30 2810 H 270.514 -2.7291 -1.23127 0
M  V30 2811 H 268.06 -1.31319 -0.590883 0
M  V30 2812 H 270.013 -2.18092 -3.60575 0
M  V30 2813 H 268.737 -1.04897 -3.09296 0
M  V30 2814 H 267.396 -2.96477 -2.15631 0
M  V30 2815 H 267.044 -2.2149 -4.5161 0
M  V30 2816 H 266.744 -3.962 -4.33934 0
M  V30 2817 H 268.268 -3.39193 -5.07721 0
M  V30 2818 H 269.682 -4.72899 -3.24098 0
M  V30 2819 H 268.079 -5.33987 -2.7382 0
M  V30 2820 H 269.149 -4.60006 -1.53372 0
M  V30 2821 N 270.492 0.636531 -1.44174 0
M  V30 2822 C 271.741 1.39213 -1.45954 0
M  V30 2823 C 272.054 1.95374 -0.0939119 0
M  V30 2824 O 273.26 2.71498 0.0107767 0
M  V30 2825 C 271.716 2.52025 -2.56927 0
M  V30 2826 C 271.324 2.024 -3.99673 0
M  V30 2827 C 273.068 3.29269 -2.67922 0
M  V30 2828 C 270.975 3.12521 -5.0208 0
M  V30 2829 H 269.905 0.523132 -0.542999 0
M  V30 2830 H 272.556 0.685349 -1.70221 0
M  V30 2831 H 270.938 3.25253 -2.25891 0
M  V30 2832 H 272.112 1.36073 -4.40251 0
M  V30 2833 H 270.427 1.37987 -3.92872 0
M  V30 2834 H 273.024 4.11352 -3.41605 0
M  V30 2835 H 273.367 3.78397 -1.73555 0
M  V30 2836 H 273.9 2.63129 -2.98342 0
M  V30 2837 H 270.639 2.68343 -5.98057 0
M  V30 2838 H 270.159 3.77507 -4.66099 0
M  V30 2839 H 271.838 3.77385 -5.25538 0
M  V30 2840 N 271.97 1.30982 0.876444 0
M  V30 2841 C 273.218 1.20058 1.62575 0
M  V30 2842 C 273.539 -0.242947 1.93481 0
M  V30 2843 O 272.809 -1.1619 1.57724 0
M  V30 2844 H 271.389 0.44135 0.602677 0
M  V30 2845 H 274.051 1.64222 1.04962 0
M  V30 2846 H 273.147 1.76762 2.57219 0
M  V30 2847 N 273.449 -1.08991 1.13837 0
M  V30 2848 C 274.689 -1.82867 0.913183 0
M  V30 2849 C 275.053 -1.83936 -0.550604 0
M  V30 2850 O 276.254 -2.53515 -0.893515 0
M  V30 2851 C 274.525 -3.24843 1.49036 0
M  V30 2852 S 276.084 -4.15669 1.40588 0
M  V30 2853 H 272.902 -0.630278 0.329046 0
M  V30 2854 H 275.504 -1.31049 1.45073 0
M  V30 2855 H 274.208 -3.21644 2.54899 0
M  V30 2856 H 273.739 -3.81734 0.950947 0
M  V30 2857 H 275.754 -4.94686 0.387353 0
M  V30 2858 N 274.927 -0.932562 -1.27047 0
M  V30 2859 C 276.175 -0.574422 -1.93765 0
M  V30 2860 C 276.496 0.887993 -1.73608 0
M  V30 2861 O 275.766 1.62999 -1.08665 0
M  V30 2862 H 274.346 -0.209451 -0.717035 0
M  V30 2863 H 277.008 -1.18601 -1.5466 0
M  V30 2864 H 276.104 -0.784841 -3.02071 0
M  V30 2865 N 276.405 1.4127 -0.698611 0
M  V30 2866 C 277.652 2.0118 -0.230865 0
M  V30 2867 C 277.98 1.55338 1.17049 0
M  V30 2868 O 277.235 0.756775 1.80475 0
M  V30 2869 C 277.534 3.56592 -0.240192 0
M  V30 2870 C 277.2 4.21955 -1.58948 0
M  V30 2871 C 275.862 4.39524 -1.95887 0
M  V30 2872 C 278.214 4.58576 -2.47704 0
M  V30 2873 C 275.542 4.90992 -3.2116 0
M  V30 2874 C 277.894 5.11435 -3.72313 0
M  V30 2875 C 276.558 5.27215 -4.0939 0
M  V30 2876 H 275.828 0.736169 -0.0844796 0
M  V30 2877 H 278.475 1.69124 -0.8983 0
M  V30 2878 H 276.78 3.88456 0.510797 0
M  V30 2879 H 278.477 4.00758 0.139296 0
M  V30 2880 H 275.067 4.08657 -1.29219 0
M  V30 2881 H 279.251 4.44654 -2.20445 0
M  V30 2882 H 274.507 5.01393 -3.49878 0
M  V30 2883 H 278.681 5.38752 -4.4127 0
M  V30 2884 H 276.308 5.66859 -5.06533 0
M  V30 2885 N 277.883 0.443576 1.51229 0
M  V30 2886 C 279.108 -0.121648 2.07043 0
M  V30 2887 C 279.533 -1.35156 1.30823 0
M  V30 2888 O 278.891 -1.7793 0.347934 0
M  V30 2889 C 278.939 -0.41624 3.5819 0
M  V30 2890 O 278.043 -1.50163 3.8409 0
M  V30 2891 H 277.384 0.000871367 0.663999 0
M  V30 2892 H 279.914 0.626706 1.94765 0
M  V30 2893 H 279.924 -0.664867 4.02546 0
M  V30 2894 H 278.599 0.482653 4.1309 0
M  V30 2895 H 277.176 -1.24248 3.51592 0
M  V30 2896 N 279.361 -1.56624 0.175154 0
M  V30 2897 C 280.589 -2.01374 -0.474971 0
M  V30 2898 C 281.004 -1.05537 -1.56548 0
M  V30 2899 O 280.361 -0.0568668 -1.82411 0
M  V30 2900 C 280.412 -3.45923 -1.04975 0
M  V30 2901 O 280.133 -4.381 -0.00276605 0
M  V30 2902 C 281.634 -4.06093 -1.77773 0
M  V30 2903 H 278.854 -0.659962 -0.121206 0
M  V30 2904 H 281.398 -2.02601 0.27801 0
M  V30 2905 H 279.553 -3.45458 -1.75321 0
M  V30 2906 H 279.967 -5.22753 -0.427681 0
M  V30 2907 H 281.441 -5.09147 -2.13245 0
M  V30 2908 H 281.918 -3.48405 -2.67414 0
M  V30 2909 H 282.524 -4.10272 -1.12059 0
M  V30 2910 N 280.839 0.0985539 -1.57292 0
M  V30 2911 C 282.087 0.801092 -1.85545 0
M  V30 2912 C 282.408 1.79438 -0.763353 0
M  V30 2913 O 281.678 1.94763 0.21073 0
M  V30 2914 H 280.258 0.29884 -0.684619 0
M  V30 2915 H 282.92 0.0810064 -1.94732 0
M  V30 2916 H 282.016 1.3338 -2.82163 0
M  V30 2917 N 282.317 1.53212 0.369288 0
M  V30 2918 C 283.547 1.72868 1.13139 0
M  V30 2919 C 283.955 0.455754 1.83629 0
M  V30 2920 O 283.298 -0.580861 1.74275 0
M  V30 2921 C 283.36 2.83667 2.20847 0
M  V30 2922 C 283.024 4.24142 1.70155 0
M  V30 2923 C 284.021 5.06619 1.16763 0
M  V30 2924 C 281.706 4.70539 1.7578 0
M  V30 2925 C 283.7 6.33581 0.696678 0
M  V30 2926 C 281.387 5.97481 1.28297 0
M  V30 2927 C 282.385 6.78833 0.753307 0
M  V30 2928 O 282.073 8.03393 0.285475 0
M  V30 2929 H 281.805 0.581707 0.344373 0
M  V30 2930 H 284.359 2.00736 0.435243 0
M  V30 2931 H 282.589 2.51265 2.93944 0
M  V30 2932 H 284.278 2.91536 2.82421 0
M  V30 2933 H 285.044 4.71948 1.11758 0
M  V30 2934 H 280.923 4.07293 2.15949 0
M  V30 2935 H 284.467 6.97027 0.282581 0
M  V30 2936 H 280.364 6.31651 1.32994 0
M  V30 2937 H 281.132 8.17497 0.405145 0
M  V30 2938 N 283.795 -0.628877 1.44509 0
M  V30 2939 C 285.043 -1.38565 1.4712 0
M  V30 2940 C 285.364 -1.94712 0.105899 0
M  V30 2941 O 284.634 -1.75912 -0.862079 0
M  V30 2942 H 283.214 -0.514333 0.541729 0
M  V30 2943 H 285.876 -0.740018 1.80305 0
M  V30 2944 H 284.972 -2.21583 2.19789 0
M  V30 2945 N 285.273 -1.31445 -0.869486 0
M  V30 2946 C 286.236 -1.19094 -1.9583 0
M  V30 2947 C 287.236 -0.117906 -1.60367 0
M  V30 2948 O 288.426 -0.367208 -1.70286 0
M  V30 2949 C 285.558 -0.828165 -3.30688 0
M  V30 2950 H 286.751 -2.15842 -2.08212 0
M  V30 2951 H 284.304 -1.15063 -1.05784 0
M  V30 2952 H 285.039 0.138142 -3.24006 0
M  V30 2953 H 284.824 -1.6038 -3.578 0
M  V30 2954 H 286.314 -0.765658 -4.10521 0
M  V30 2955 N 286.751 1.08385 -1.14413 0
M  V30 2956 C 287.714 2.13486 -0.834048 0
M  V30 2957 C 288.714 1.59988 0.161418 0
M  V30 2958 O 289.904 1.74071 -0.0669575 0
M  V30 2959 C 287.036 3.4003 -0.243354 0
M  V30 2960 H 288.229 2.42425 -1.7655 0
M  V30 2961 H 285.782 1.24101 -0.950189 0
M  V30 2962 H 286.517 3.16726 0.696807 0
M  V30 2963 H 286.302 3.80157 -0.960367 0
M  V30 2964 H 287.792 4.17577 -0.0436242 0
M  V30 2965 N 288.23 0.939286 1.26551 0
M  V30 2966 C 289.476 0.586715 1.94128 0
M  V30 2967 C 289.809 -0.8717 1.73537 0
M  V30 2968 O 289.084 -1.62339 1.07127 0
M  V30 2969 C 289.367 0.927497 3.4795 0
M  V30 2970 C 289.22 2.44052 3.77834 0
M  V30 2971 C 290.539 0.441569 4.37879 0
M  V30 2972 H 287.658 0.21463 0.705055 0
M  V30 2973 H 290.3 1.17316 1.49455 0
M  V30 2974 H 288.45 0.428431 3.8613 0
M  V30 2975 H 290.122 3.01216 3.4938 0
M  V30 2976 H 288.365 2.8848 3.23978 0
M  V30 2977 H 289.036 2.62947 4.85348 0
M  V30 2978 H 291.512 0.869448 4.06915 0
M  V30 2979 H 290.388 0.708856 5.44304 0
M  V30 2980 H 290.649 -0.658467 4.37169 0
M  V30 2981 N 289.708 -1.40897 0.706093 0
M  V30 2982 C 290.655 -2.30751 0.0474474 0
M  V30 2983 C 291.625 -1.47678 -0.76029 0
M  V30 2984 O 292.81 -1.76441 -0.726177 0
M  V30 2985 C 289.95 -3.33815 -0.875309 0
M  V30 2986 C 289.063 -4.31961 -0.0580623 0
M  V30 2987 C 288.198 -5.22093 -0.979425 0
M  V30 2988 C 287.237 -6.11902 -0.155706 0
M  V30 2989 N 286.374 -6.94482 -1.03144 0
M  V30 2990 H 291.214 -2.86513 0.819413 0
M  V30 2991 H 288.751 -1.41102 0.415783 0
M  V30 2992 H 290.709 -3.92129 -1.42446 0
M  V30 2993 H 289.339 -2.79579 -1.61356 0
M  V30 2994 H 288.391 -3.75507 0.608147 0
M  V30 2995 H 289.703 -4.95415 0.580082 0
M  V30 2996 H 288.857 -5.85292 -1.59744 0
M  V30 2997 H 287.596 -4.5889 -1.65141 0
M  V30 2998 H 286.601 -5.47742 0.475309 0
M  V30 2999 H 287.826 -6.77162 0.512635 0
M  V30 3000 H 285.772 -6.33877 -1.68924 0
M  V30 3001 H 285.689 -7.54665 -0.449108 0
M  V30 3002 H 286.957 -7.6214 -1.63593 0
M  V30 3003 N 291.186 -0.45159 -1.50991 0
M  V30 3004 C 292.414 0.108334 -2.06616 0
M  V30 3005 C 292.829 1.35224 -1.31757 0
M  V30 3006 O 292.186 1.78475 -0.381174 0
M  V30 3007 C 292.237 0.41619 -3.59096 0
M  V30 3008 O 291.958 -0.778361 -4.3113 0
M  V30 3009 C 293.459 1.02523 -4.31282 0
M  V30 3010 H 290.679 0.00159995 -0.670998 0
M  V30 3011 H 293.223 -0.634771 -1.94399 0
M  V30 3012 H 291.378 1.10921 -3.71181 0
M  V30 3013 H 291.792 -0.511181 -5.22003 0
M  V30 3014 H 293.266 1.19053 -5.39009 0
M  V30 3015 H 293.743 2.01013 -3.905 0
M  V30 3016 H 294.349 0.371173 -4.23677 0
M  V30 3017 N 292.664 1.56529 -0.183458 0
M  V30 3018 C 293.912 1.96855 0.457452 0
M  V30 3019 C 294.233 1.07104 1.62953 0
M  V30 3020 O 293.503 0.139887 1.954 0
M  V30 3021 H 292.083 0.72693 0.171992 0
M  V30 3022 H 294.745 1.93056 -0.267476 0
M  V30 3023 H 293.841 3.01423 0.809368 0
M  V30 3024 N 294.142 -0.090211 1.57342 0
M  V30 3025 C 295.089 -1.10909 2.02405 0
M  V30 3026 C 296.059 -1.39523 0.901252 0
M  V30 3027 O 297.244 -1.50903 1.1676 0
M  V30 3028 C 294.384 -2.42277 2.45755 0
M  V30 3029 C 293.497 -2.20352 3.71576 0
M  V30 3030 C 292.632 -3.45154 4.03785 0
M  V30 3031 C 291.671 -3.18512 5.22701 0
M  V30 3032 N 290.808 -4.35593 5.50639 0
M  V30 3033 H 295.648 -0.71782 2.89225 0
M  V30 3034 H 293.185 -0.342901 1.43048 0
M  V30 3035 H 295.143 -3.18951 2.68935 0
M  V30 3036 H 293.773 -2.79242 1.61938 0
M  V30 3037 H 292.825 -1.34458 3.55844 0
M  V30 3038 H 294.137 -1.96661 4.58395 0
M  V30 3039 H 293.291 -4.30233 4.27767 0
M  V30 3040 H 292.03 -3.71904 3.15498 0
M  V30 3041 H 291.035 -2.31827 4.98534 0
M  V30 3042 H 292.26 -2.93103 6.12591 0
M  V30 3043 H 290.206 -4.6241 4.6531 0
M  V30 3044 H 290.123 -4.1511 6.31838 0
M  V30 3045 H 291.391 -5.21723 5.7916 0
M  V30 3046 N 295.62 -1.53406 -0.361157 0
M  V30 3047 C 296.866 -1.70054 -1.10496 0
M  V30 3048 C 297.199 -0.453278 -1.88836 0
M  V30 3049 O 296.474 0.5495 -1.86576 0
M  V30 3050 C 296.757 -2.95317 -2.06058 0
M  V30 3051 C 296.61 -4.3021 -1.31298 0
M  V30 3052 C 297.929 -3.16193 -3.06121 0
M  V30 3053 H 295.048 -0.618799 -0.400321 0
M  V30 3054 H 297.69 -1.86052 -0.385318 0
M  V30 3055 H 295.84 -2.81809 -2.67425 0
M  V30 3056 H 297.512 -4.55538 -0.726807 0
M  V30 3057 H 295.755 -4.29421 -0.614853 0
M  V30 3058 H 296.426 -5.14 -2.01265 0
M  V30 3059 H 298.902 -3.28916 -2.5486 0
M  V30 3060 H 297.778 -4.05266 -3.70204 0
M  V30 3061 H 298.039 -2.31676 -3.76535 0
M  V30 3062 N 297.098 0.621204 -1.44841 0
M  V30 3063 C 298.045 1.73267 -1.5247 0
M  V30 3064 C 299.015 1.6189 -0.371611 0
M  V30 3065 O 300.2 1.81668 -0.58321 0
M  V30 3066 C 297.34 3.11545 -1.48438 0
M  V30 3067 C 296.453 3.33827 -2.74196 0
M  V30 3068 C 295.588 4.62133 -2.61929 0
M  V30 3069 C 294.627 4.77627 -3.82804 0
M  V30 3070 N 293.764 5.97219 -3.69153 0
M  V30 3071 H 298.604 1.66082 -2.47428 0
M  V30 3072 H 296.141 0.810026 -1.22788 0
M  V30 3073 H 298.099 3.91528 -1.4409 0
M  V30 3074 H 296.729 3.1772 -0.570402 0
M  V30 3075 H 295.781 2.47715 -2.88689 0
M  V30 3076 H 297.093 3.41153 -3.6389 0
M  V30 3077 H 296.247 5.50291 -2.5547 0
M  V30 3078 H 294.986 4.57182 -1.69811 0
M  V30 3079 H 293.991 3.87896 -3.89637 0
M  V30 3080 H 295.216 4.84385 -4.75971 0
M  V30 3081 H 293.162 5.93339 -2.79794 0
M  V30 3082 H 293.079 6.05644 -4.52472 0
M  V30 3083 H 294.347 6.87912 -3.66603 0
M  V30 3084 N 298.576 1.31904 0.862503 0
M  V30 3085 C 299.987 1.19803 1.43193 0
M  V30 3086 C 300.338 -0.192567 1.95253 0
M  V30 3087 O 299.463 -1.09081 1.86896 0
M  V30 3088 C 300.058 2.16883 2.60283 0
M  V30 3089 C 298.617 2.08692 3.13248 0
M  V30 3090 C 297.764 2.05691 1.85975 0
M  V30 3091 H 300.715 1.43846 0.670365 0
M  V30 3092 H 300.736 1.76278 3.37204 0
M  V30 3093 H 300.248 3.18083 2.22363 0
M  V30 3094 H 298.349 1.10713 3.55771 0
M  V30 3095 H 298.462 2.9815 3.75025 0
M  V30 3096 H 296.826 1.50814 2.05249 0
M  V30 3097 H 297.609 3.08659 1.50282 0
M  V30 3098 N 300.054 -1.07777 1.14986 0
M  V30 3099 C 301.302 -1.79934 0.920235 0
M  V30 3100 C 301.623 -1.86955 -0.554336 0
M  V30 3101 O 300.893 -1.36731 -1.40291 0
M  V30 3102 H 299.473 -0.666424 0.337473 0
M  V30 3103 H 302.135 -1.3027 1.44968 0
M  V30 3104 H 301.231 -2.82539 1.32583 0
M  V30 3105 N 301.532 -0.945985 -1.26051 0
M  V30 3106 C 302.757 -0.612525 -1.98149 0
M  V30 3107 C 303.182 0.806623 -1.69927 0
M  V30 3108 O 302.54 1.54411 -0.950108 0
M  V30 3109 C 302.588 -0.866981 -3.50023 0
M  V30 3110 O 301.692 0.0585333 -4.12358 0
M  V30 3111 H 301.033 -0.23379 -0.621481 0
M  V30 3112 H 303.563 -1.27023 -1.60395 0
M  V30 3113 H 303.573 -0.789792 -4.00283 0
M  V30 3114 H 302.248 -1.90135 -3.69894 0
M  V30 3115 H 300.825 -0.0701241 -3.72834 0
M  V30 3116 N 303.011 1.40521 -0.713556 0
M  V30 3117 C 304.239 2.05237 -0.261775 0
M  V30 3118 C 304.654 1.53755 1.09567 0
M  V30 3119 O 304.011 0.693268 1.6882 0
M  V30 3120 C 304.062 3.60763 -0.230706 0
M  V30 3121 O 303.783 4.10345 -1.53455 0
M  V30 3122 C 305.284 4.42651 0.239874 0
M  V30 3123 H 302.504 0.660533 -0.118057 0
M  V30 3124 H 305.048 1.79967 -0.971192 0
M  V30 3125 H 303.203 3.8501 0.429661 0
M  V30 3126 H 303.617 5.04526 -1.43366 0
M  V30 3127 H 305.091 5.51599 0.210468 0
M  V30 3128 H 305.568 4.20082 1.28171 0
M  V30 3129 H 306.174 4.23507 -0.390142 0
M  V30 3130 N 304.489 0.459591 1.5075 0
M  V30 3131 C 305.729 -0.09824 2.04164 0
M  V30 3132 C 306.093 -1.3801 1.33481 0
M  V30 3133 O 307.294 -2.01959 1.77387 0
M  V30 3134 C 305.565 -0.289467 3.56226 0
M  V30 3135 S 307.124 -0.807507 4.31306 0
M  V30 3136 H 303.942 -0.0213845 0.710678 0
M  V30 3137 H 306.544 0.624098 1.85271 0
M  V30 3138 H 305.248 0.649461 4.05229 0
M  V30 3139 H 304.779 -1.03825 3.79452 0
M  V30 3140 H 306.794 -2.0824 4.50389 0
M  V30 3141 N 305.967 -1.56429 0.191757 0
M  V30 3142 C 307.213 -1.97777 -0.448554 0
M  V30 3143 C 307.546 -1.07847 -1.61501 0
M  V30 3144 O 306.821 -0.129774 -1.94067 0
M  V30 3145 C 307.104 -3.48362 -0.911906 0
M  V30 3146 C 306.957 -4.4907 0.256136 0
M  V30 3147 C 308.276 -4.02561 -1.77857 0
M  V30 3148 H 305.395 -0.719071 -0.161572 0
M  V30 3149 H 308.037 -1.87896 0.282007 0
M  V30 3150 H 306.187 -3.56914 -1.53442 0
M  V30 3151 H 307.859 -4.5256 0.893733 0
M  V30 3152 H 306.102 -4.24181 0.908436 0
M  V30 3153 H 306.773 -5.51889 -0.11053 0
M  V30 3154 H 309.249 -3.96767 -1.25359 0
M  V30 3155 H 308.125 -5.08301 -2.07174 0
M  V30 3156 H 308.386 -3.47616 -2.73158 0
M  V30 3157 N 307.445 0.0818655 -1.57387 0
M  V30 3158 C 308.691 0.784074 -1.8703 0
M  V30 3159 C 309.024 1.77729 -0.782689 0
M  V30 3160 O 308.299 1.93384 0.208051 0
M  V30 3161 C 308.582 1.50105 -3.27323 0
M  V30 3162 C 308.435 0.524925 -4.46727 0
M  V30 3163 C 309.754 2.44843 -3.65705 0
M  V30 3164 H 306.873 0.283582 -0.680257 0
M  V30 3165 H 309.515 0.0474352 -1.89941 0
M  V30 3166 H 307.665 2.12897 -3.24972 0
M  V30 3167 H 309.337 -0.0970111 -4.61198 0
M  V30 3168 H 307.58 -0.160606 -4.33503 0
M  V30 3169 H 308.251 1.064 -5.41648 0
M  V30 3170 H 310.727 1.92135 -3.69085 0
M  V30 3171 H 309.603 2.92018 -4.64776 0
M  V30 3172 H 309.864 3.29197 -2.95096 0
M  V30 3173 N 308.923 1.53595 0.353017 0
M  V30 3174 C 310.17 1.70385 1.09431 0
M  V30 3175 C 310.498 0.462113 1.88931 0
M  V30 3176 O 309.753 -0.556074 1.87633 0
M  V30 3177 C 310.052 2.91313 2.07054 0
M  V30 3178 C 309.718 4.27308 1.43939 0
M  V30 3179 C 308.38 4.64287 1.26454 0
M  V30 3180 C 310.732 5.11829 0.983883 0
M  V30 3181 C 308.06 5.83412 0.620226 0
M  V30 3182 C 310.412 6.31611 0.353516 0
M  V30 3183 C 309.076 6.67293 0.166272 0
M  V30 3184 H 308.346 0.623484 0.400436 0
M  V30 3185 H 310.993 1.87799 0.374655 0
M  V30 3186 H 309.298 2.68463 2.85368 0
M  V30 3187 H 310.995 3.01497 2.64387 0
M  V30 3188 H 307.585 3.98198 1.58543 0
M  V30 3189 H 311.769 4.838 1.10685 0
M  V30 3190 H 307.025 6.09639 0.463681 0
M  V30 3191 H 311.199 6.964 -0.00757555 0
M  V30 3192 H 308.826 7.59461 -0.335047 0
M  V30 3193 N 310.401 -0.613514 1.45168 0
M  V30 3194 C 311.649 -1.36997 1.48581 0
M  V30 3195 C 311.97 -1.94589 0.126545 0
M  V30 3196 O 311.24 -1.76816 -0.843372 0
M  V30 3197 H 309.82 -0.508558 0.547154 0
M  V30 3198 H 312.482 -0.720853 1.81079 0
M  V30 3199 H 311.578 -2.1924 2.22127 0
M  V30 3200 N 311.879 -1.3236 -0.855495 0
M  V30 3201 C 312.809 -1.23833 -1.97958 0
M  V30 3202 C 313.79 -0.122361 -1.69659 0
M  V30 3203 O 314.975 -0.30939 -1.9172 0
M  V30 3204 C 312.105 -0.959772 -3.33775 0
M  V30 3205 C 311.059 -2.03689 -3.76424 0
M  V30 3206 C 310.385 -1.61075 -5.09862 0
M  V30 3207 C 311.685 -3.4518 -3.9198 0
M  V30 3208 H 313.379 -2.1788 -2.0535 0
M  V30 3209 H 310.925 -1.04891 -0.986605 0
M  V30 3210 H 312.878 -0.886678 -4.11966 0
M  V30 3211 H 311.602 0.0163404 -3.26596 0
M  V30 3212 H 310.261 -2.10012 -3.00484 0
M  V30 3213 H 309.909 -0.622107 -4.99138 0
M  V30 3214 H 309.609 -2.33143 -5.39368 0
M  V30 3215 H 311.133 -1.55201 -5.90546 0
M  V30 3216 H 312.547 -3.4145 -4.60526 0
M  V30 3217 H 310.944 -4.1559 -4.32903 0
M  V30 3218 H 312.014 -3.84903 -2.94919 0
M  V30 3219 N 313.357 1.07166 -1.15556 0
M  V30 3220 C 314.605 1.79443 -0.929764 0
M  V30 3221 C 314.926 1.87246 0.544414 0
M  V30 3222 O 314.196 1.37473 1.39564 0
M  V30 3223 H 312.776 0.664625 -0.341003 0
M  V30 3224 H 315.438 1.29499 -1.45657 0
M  V30 3225 H 314.534 2.81832 -1.34079 0
M  V30 3226 N 314.835 0.952656 1.25548 0
M  V30 3227 C 316.083 0.605176 1.92826 0
M  V30 3228 C 316.404 -0.860261 1.74999 0
M  V30 3229 O 315.674 -1.6125 1.11244 0
M  V30 3230 H 314.254 0.220832 0.713612 0
M  V30 3231 H 316.916 1.21047 1.52754 0
M  V30 3232 H 316.012 0.832798 3.00784 0
M  V30 3233 N 316.313 -1.40141 0.720998 0
M  V30 3234 C 317.559 -2.01084 0.263231 0
M  V30 3235 C 317.892 -1.57052 -1.14229 0
M  V30 3236 O 317.167 -0.793027 -1.77599 0
M  V30 3237 C 317.45 -3.58401 0.349344 0
M  V30 3238 C 317.303 -4.12491 1.79363 0
M  V30 3239 C 318.622 -4.39231 -0.276351 0
M  V30 3240 H 315.741 -0.730572 0.0971228 0
M  V30 3241 H 318.383 -1.66543 0.914518 0
M  V30 3242 H 316.533 -3.87958 -0.205165 0
M  V30 3243 H 318.205 -3.93711 2.40394 0
M  V30 3244 H 316.448 -3.66576 2.31958 0
M  V30 3245 H 317.119 -5.21646 1.80524 0
M  V30 3246 H 319.595 -4.15637 0.196184 0
M  V30 3247 H 318.471 -5.48586 -0.185681 0
M  V30 3248 H 318.732 -4.20643 -1.36059 0
M  V30 3249 N 317.792 -0.46758 -1.50504 0
M  V30 3250 C 319.04 0.0884469 -2.01906 0
M  V30 3251 C 319.361 1.40532 -1.35188 0
M  V30 3252 O 318.631 1.89515 -0.496079 0
M  V30 3253 H 317.211 0.0356765 -0.746148 0
M  V30 3254 H 319.873 -0.6172 -1.84869 0
M  V30 3255 H 318.969 0.2425 -3.11156 0
M  V30 3256 N 319.27 1.56325 -0.20005 0
M  V30 3257 C 320.2 2.22318 0.713916 0
M  V30 3258 C 321.181 1.18788 1.21752 0
M  V30 3259 O 322.366 1.47309 1.26545 0
M  V30 3260 C 319.496 2.88639 1.93144 0
M  V30 3261 C 318.45 3.98457 1.56255 0
M  V30 3262 C 317.776 4.51967 2.85709 0
M  V30 3263 C 319.076 5.16612 0.768747 0
M  V30 3264 H 320.77 2.98952 0.163755 0
M  V30 3265 H 318.316 1.43792 0.0773219 0
M  V30 3266 H 320.269 3.33491 2.57608 0
M  V30 3267 H 318.993 2.09419 2.50621 0
M  V30 3268 H 317.652 3.54305 0.941471 0
M  V30 3269 H 317.3 3.69503 3.41287 0
M  V30 3270 H 317 5.26071 2.6177 0
M  V30 3271 H 318.524 4.99523 3.51154 0
M  V30 3272 H 319.938 5.57977 1.3166 0
M  V30 3273 H 318.335 5.96812 0.627286 0
M  V30 3274 H 319.405 4.84358 -0.229168 0
M  V30 3275 N 320.748 -0.0735177 1.57428 0
M  V30 3276 C 321.973 -0.789787 1.91774 0
M  V30 3277 C 322.398 -1.70413 0.796306 0
M  V30 3278 O 321.756 -1.79555 -0.250961 0
M  V30 3279 C 321.804 -1.5609 3.25067 0
M  V30 3280 O 320.908 -2.67144 3.14178 0
M  V30 3281 H 320.249 -0.215582 0.628029 0
M  V30 3282 H 322.779 -0.0422781 2.04556 0
M  V30 3283 H 322.789 -1.94052 3.58898 0
M  V30 3284 H 321.464 -0.890015 4.06265 0
M  V30 3285 H 320.041 -2.32052 2.91901 0
M  V30 3286 N 322.226 -1.5378 -0.344866 0
M  V30 3287 C 323.472 -1.71216 -1.08687 0
M  V30 3288 C 323.805 -0.473281 -1.88345 0
M  V30 3289 O 323.08 0.52968 -1.87149 0
M  V30 3290 C 323.363 -2.97486 -2.02914 0
M  V30 3291 C 323.216 -4.31579 -1.26727 0
M  V30 3292 C 324.535 -3.19422 -3.0275 0
M  V30 3293 H 321.654 -0.62301 -0.393735 0
M  V30 3294 H 324.296 -1.8645 -0.365563 0
M  V30 3295 H 322.446 -2.84629 -2.64421 0
M  V30 3296 H 324.118 -4.56284 -0.67845 0
M  V30 3297 H 322.361 -4.30049 -0.569273 0
M  V30 3298 H 323.032 -5.16106 -1.95803 0
M  V30 3299 H 325.508 -3.316 -2.51357 0
M  V30 3300 H 324.384 -4.09169 -3.65885 0
M  V30 3301 H 324.645 -2.35656 -3.74057 0
M  V30 3302 N 323.704 0.605807 -1.45491 0
M  V30 3303 C 324.953 1.36086 -1.48874 0
M  V30 3304 C 325.266 1.95131 -0.135333 0
M  V30 3305 O 326.472 2.7146 -0.0468144 0
M  V30 3306 C 324.928 2.46518 -2.62215 0
M  V30 3307 C 324.536 1.93877 -4.03876 0
M  V30 3308 C 326.28 3.23512 -2.74846 0
M  V30 3309 C 324.187 3.01801 -5.08596 0
M  V30 3310 H 323.117 0.511497 -0.553974 0
M  V30 3311 H 325.768 0.649089 -1.71636 0
M  V30 3312 H 324.15 3.20388 -2.32739 0
M  V30 3313 H 325.324 1.26704 -4.43038 0
M  V30 3314 H 323.639 1.29622 -3.95711 0
M  V30 3315 H 326.236 4.04013 -3.50253 0
M  V30 3316 H 326.579 3.74631 -1.81542 0
M  V30 3317 H 327.112 2.56742 -3.03856 0
M  V30 3318 H 323.851 2.55597 -6.03614 0
M  V30 3319 H 323.371 3.67535 -4.74002 0
M  V30 3320 H 325.05 3.66152 -5.33424 0
M  V30 3321 N 325.182 1.32811 0.848464 0
M  V30 3322 C 326.115 1.16601 1.96162 0
M  V30 3323 C 327.093 0.0638855 1.62474 0
M  V30 3324 O 328.277 0.224348 1.8716 0
M  V30 3325 C 325.404 0.786333 3.29446 0
M  V30 3326 C 324.45 1.89459 3.8211 0
M  V30 3327 S 325.283 3.50395 4.04949 0
M  V30 3328 C 326.439 3.14413 5.41198 0
M  V30 3329 H 326.672 2.10832 2.09612 0
M  V30 3330 H 324.205 1.17543 1.00115 0
M  V30 3331 H 326.163 0.574044 4.06466 0
M  V30 3332 H 324.824 -0.137218 3.138 0
M  V30 3333 H 324.017 1.58207 4.78526 0
M  V30 3334 H 323.619 2.06304 3.11953 0
M  V30 3335 H 325.911 2.64642 6.23675 0
M  V30 3336 H 326.854 4.09874 5.77416 0
M  V30 3337 H 327.262 2.51266 5.05495 0
M  V30 3338 N 326.66 -1.06551 1.16123 0
M  V30 3339 C 327.908 -1.78947 0.939267 0
M  V30 3340 C 328.229 -1.87532 -0.534476 0
M  V30 3341 O 327.499 -1.38211 -1.38833 0
M  V30 3342 H 326.079 -0.662807 0.344523 0
M  V30 3343 H 328.741 -1.28725 1.46342 0
M  V30 3344 H 327.837 -2.81117 1.35572 0
M  V30 3345 N 328.138 -0.959301 -1.25041 0
M  V30 3346 C 329.378 -0.624343 -1.94631 0
M  V30 3347 C 329.742 0.82403 -1.73418 0
M  V30 3348 O 330.943 1.26881 -2.3697 0
M  V30 3349 C 329.214 -0.978805 -3.43736 0
M  V30 3350 S 330.773 -0.757127 -4.32219 0
M  V30 3351 H 327.591 -0.229327 -0.673001 0
M  V30 3352 H 330.193 -1.23447 -1.51595 0
M  V30 3353 H 328.897 -2.02997 -3.56679 0
M  V30 3354 H 328.428 -0.359117 -3.91757 0
M  V30 3355 H 330.443 0.369759 -4.9482 0
M  V30 3356 N 329.616 1.39756 -0.72842 0
M  V30 3357 C 330.563 2.30647 -0.0841519 0
M  V30 3358 C 331.533 1.48869 0.7367 0
M  V30 3359 O 332.718 1.77574 0.698015 0
M  V30 3360 C 329.858 3.35165 0.822091 0
M  V30 3361 C 328.971 4.31999 -0.0106663 0
M  V30 3362 C 328.106 5.23585 0.896241 0
M  V30 3363 C 327.145 6.12072 0.0583381 0
M  V30 3364 N 326.282 6.96035 0.920818 0
M  V30 3365 H 331.122 2.85173 -0.864891 0
M  V30 3366 H 328.659 1.40422 -0.438179 0
M  V30 3367 H 330.617 3.94345 1.36189 0
M  V30 3368 H 329.247 2.8211 1.56888 0
M  V30 3369 H 328.299 3.74492 -0.66781 0
M  V30 3370 H 329.611 4.9443 -0.658825 0
M  V30 3371 H 328.765 5.87759 1.50412 0
M  V30 3372 H 327.504 4.61459 1.57819 0
M  V30 3373 H 326.509 5.46916 -0.562389 0
M  V30 3374 H 327.734 6.76261 -0.6203 0
M  V30 3375 H 325.68 6.36485 1.58818 0
M  V30 3376 H 325.597 7.55284 0.32899 0
M  V30 3377 H 326.865 7.64646 1.51447 0
M  V30 3378 N 331.094 0.475555 1.50254 0
M  V30 3379 C 332.319 -0.0777042 2.07254 0
M  V30 3380 C 332.744 -1.3235 1.3366 0
M  V30 3381 O 332.102 -1.77152 0.385597 0
M  V30 3382 C 332.15 -0.340169 3.58992 0
M  V30 3383 O 331.254 -1.41982 3.87188 0
M  V30 3384 H 330.595 0.0149556 0.663832 0
M  V30 3385 H 333.125 0.667878 1.93392 0
M  V30 3386 H 333.135 -0.579332 4.03866 0
M  V30 3387 H 331.81 0.570167 4.11973 0
M  V30 3388 H 330.387 -1.16762 3.54148 0
M  V30 3389 N 332.573 -1.56217 0.208337 0
M  V30 3390 C 333.536 -2.18455 -0.693557 0
M  V30 3391 C 334.536 -1.14268 -1.13135 0
M  V30 3392 O 335.726 -1.39577 -1.0423 0
M  V30 3393 C 332.858 -2.79727 -1.94848 0
M  V30 3394 H 334.051 -2.99519 -0.15114 0
M  V30 3395 H 331.604 -1.56245 -0.041287 0
M  V30 3396 H 332.339 -2.02497 -2.53309 0
M  V30 3397 H 332.124 -3.56009 -1.64316 0
M  V30 3398 H 333.614 -3.27475 -2.59133 0
M  V30 3399 N 334.051 0.0651679 -1.57465 0
M  V30 3400 C 335.299 0.761555 -1.87202 0
M  V30 3401 C 335.62 1.77778 -0.801243 0
M  V30 3402 O 334.89 1.95166 0.16937 0
M  V30 3403 H 333.47 0.284251 -0.690804 0
M  V30 3404 H 336.132 0.0396827 -1.9486 0
M  V30 3405 H 335.228 1.27365 -2.84929 0
M  V30 3406 N 335.529 1.53961 0.336706 0
M  V30 3407 C 336.492 1.81724 1.39675 0
M  V30 3408 C 337.492 0.688532 1.45313 0
M  V30 3409 O 338.682 0.956829 1.45569 0
M  V30 3410 C 335.814 1.96543 2.78538 0
M  V30 3411 H 337.007 2.76424 1.16318 0
M  V30 3412 H 334.56 1.45478 0.571474 0
M  V30 3413 H 335.295 1.0401 3.07168 0
M  V30 3414 H 335.08 2.78665 2.75841 0
M  V30 3415 H 336.57 2.19516 3.5525 0
M  V30 3416 N 337.007 -0.598083 1.45811 0
M  V30 3417 C 338.232 -1.3881 1.54099 0
M  V30 3418 C 338.657 -1.8726 0.177578 0
M  V30 3419 O 338.015 -1.6069 -0.839541 0
M  V30 3420 C 338.063 -2.56217 2.53743 0
M  V30 3421 O 337.167 -3.5716 2.06182 0
M  V30 3422 H 336.508 -0.414024 0.519115 0
M  V30 3423 H 339.038 -0.726971 1.91249 0
M  V30 3424 H 339.048 -3.03337 2.72856 0
M  V30 3425 H 337.723 -2.20303 3.5276 0
M  V30 3426 H 336.3 -3.16624 1.96987 0
M  V30 3427 N 338.485 -1.33259 -0.841409 0
M  V30 3428 C 339.901 -1.12538 -1.13169 0
M  V30 3429 C 340.101 0.0854037 -2.01319 0
M  V30 3430 O 339.157 0.766417 -2.40587 0
M  V30 3431 C 340.47 -2.41156 -1.79623 0
M  V30 3432 C 342.018 -2.47038 -1.922 0
M  V30 3433 C 342.493 -3.7561 -2.6207 0
M  V30 3434 N 343.984 -3.76667 -2.69585 0
M  V30 3435 C 344.719 -4.72861 -3.2433 0
M  V30 3436 N 344.215 -5.79428 -3.79783 0
M  V30 3437 N 346.008 -4.6034 -3.22558 0
M  V30 3438 H 338.159 -2.10868 -0.254676 0
M  V30 3439 H 340.422 -0.931615 -0.175493 0
M  V30 3440 H 340.128 -3.29747 -1.22311 0
M  V30 3441 H 340.002 -2.53114 -2.79666 0
M  V30 3442 H 342.389 -1.58898 -2.48667 0
M  V30 3443 H 342.47 -2.39022 -0.911148 0
M  V30 3444 H 342.114 -4.64131 -2.06263 0
M  V30 3445 H 342.044 -3.80902 -3.63622 0
M  V30 3446 H 344.535 -2.99648 -2.30259 0
M  V30 3447 H 344.848 -6.48867 -4.19752 0
M  V30 3448 H 343.193 -5.83166 -3.78078 0
M  V30 3449 H 346.384 -3.76244 -2.78492 0
M  V30 3450 H 346.557 -5.35478 -3.64921 0
M  V30 3451 N 339.963 1.05934 -1.16686 0
M  V30 3452 C 341.212 1.78188 -0.945085 0
M  V30 3453 C 341.525 1.88338 0.528021 0
M  V30 3454 O 342.731 2.57258 0.867799 0
M  V30 3455 C 341.187 3.20277 -1.64167 0
M  V30 3456 C 340.795 3.18281 -3.15279 0
M  V30 3457 C 342.539 3.97039 -1.502 0
M  V30 3458 C 340.446 4.55112 -3.7766 0
M  V30 3459 H 339.376 0.667866 -0.349959 0
M  V30 3460 H 342.027 1.18794 -1.39858 0
M  V30 3461 H 340.409 3.79952 -1.11589 0
M  V30 3462 H 341.583 2.68167 -3.74731 0
M  V30 3463 H 339.898 2.55018 -3.29173 0
M  V30 3464 H 342.495 4.98194 -1.94183 0
M  V30 3465 H 342.838 4.13845 -0.451461 0
M  V30 3466 H 343.371 3.43894 -1.99954 0
M  V30 3467 H 340.11 4.43512 -4.82677 0
M  V30 3468 H 339.63 5.05406 -3.22994 0
M  V30 3469 H 341.309 5.24064 -3.79428 0
M  V30 3470 N 341.441 0.965919 1.2453 0
M  V30 3471 C 342.69 0.622437 1.91856 0
M  V30 3472 C 343.003 -0.846006 1.76358 0
M  V30 3473 O 344.209 -1.29993 2.38357 0
M  V30 3474 C 342.665 1.0626 3.43856 0
M  V30 3475 C 342.273 2.55437 3.68043 0
M  V30 3476 C 344.017 0.792183 4.17043 0
M  V30 3477 C 341.924 2.93196 5.13605 0
M  V30 3478 H 340.854 0.229092 0.718354 0
M  V30 3479 H 343.505 1.17189 1.41206 0
M  V30 3480 H 341.887 0.441476 3.93531 0
M  V30 3481 H 343.061 3.22665 3.28974 0
M  V30 3482 H 341.376 2.8007 3.08139 0
M  V30 3483 H 343.973 1.05031 5.24283 0
M  V30 3484 H 344.316 -0.271584 4.15413 0
M  V30 3485 H 344.849 1.37419 3.73311 0
M  V30 3486 H 341.588 3.98636 5.20355 0
M  V30 3487 H 341.108 2.30651 5.53679 0
M  V30 3488 H 342.787 2.83004 5.81823 0
M  V30 3489 N 342.919 -1.39368 0.735821 0
M  V30 3490 C 344.167 -2.00101 0.283562 0
M  V30 3491 C 344.488 -1.5868 -1.13338 0
M  V30 3492 O 343.758 -0.835423 -1.77193 0
M  V30 3493 H 342.338 -0.740024 0.101851 0
M  V30 3494 H 345 -1.70404 0.945962 0
M  V30 3495 H 344.096 -3.10323 0.332604 0
M  V30 3496 N 344.397 -0.483516 -1.5 0
M  V30 3497 C 345.646 0.0689102 -2.01582 0
M  V30 3498 C 345.959 1.39655 -1.36952 0
M  V30 3499 O 347.165 2.03465 -1.79762 0
M  V30 3500 C 345.621 0.173302 -3.59483 0
M  V30 3501 C 345.229 -1.14665 -4.33077 0
M  V30 3502 C 346.973 0.677024 -4.19066 0
M  V30 3503 C 344.88 -1.00537 -5.82792 0
M  V30 3504 H 343.81 0.0295277 -0.753422 0
M  V30 3505 H 346.461 -0.620295 -1.72698 0
M  V30 3506 H 344.843 0.926569 -3.85007 0
M  V30 3507 H 346.017 -1.91184 -4.19268 0
M  V30 3508 H 344.332 -1.58244 -3.85159 0
M  V30 3509 H 346.929 0.799952 -5.28682 0
M  V30 3510 H 347.272 1.67151 -3.81269 0
M  V30 3511 H 347.805 -0.0192083 -3.97795 0
M  V30 3512 H 344.544 -1.9736 -6.25083 0
M  V30 3513 H 344.064 -0.280776 -5.99142 0
M  V30 3514 H 345.743 -0.677 -6.43448 0
M  V30 3515 N 345.875 1.56104 -0.216619 0
M  V30 3516 C 347.152 1.89988 0.465165 0
M  V30 3517 C 347.532 1.13326 1.78102 0
M  V30 3518 O 346.88 0.241033 2.27225 0
M  V30 3519 C 347.09 3.42646 0.662939 0
M  V30 3520 C 348.438 4.13311 0.972602 0
M  V30 3521 O 349.462 3.48217 0.749901 0
M  V30 3522 O 348.321 5.28396 1.39499 0
M  V30 3523 H 345.415 0.78979 0.245276 0
M  V30 3524 H 347.961 1.67721 -0.258436 0
M  V30 3525 H 346.733 3.90399 -0.26543 0
M  V30 3526 H 346.356 3.70677 1.43821 0
M  V30 3527 N 347.353 -0.0568162 1.57498 0
M  V30 3528 C 348.283 -1.06593 2.0775 0
M  V30 3529 C 349.264 -1.39448 0.974082 0
M  V30 3530 O 350.449 -1.48815 1.24771 0
M  V30 3531 C 347.579 -2.37509 2.5339 0
M  V30 3532 C 346.533 -2.1897 3.67745 0
M  V30 3533 C 345.859 -3.55402 3.99492 0
M  V30 3534 C 347.159 -1.59859 4.97235 0
M  V30 3535 H 348.853 -0.647706 2.9231 0
M  V30 3536 H 346.399 -0.310116 1.40621 0
M  V30 3537 H 348.352 -3.08409 2.87162 0
M  V30 3538 H 347.076 -2.8134 1.65878 0
M  V30 3539 H 345.735 -1.50508 3.3428 0
M  V30 3540 H 345.383 -3.9683 3.09088 0
M  V30 3541 H 345.083 -3.43831 4.76502 0
M  V30 3542 H 346.607 -4.27708 4.35773 0
M  V30 3543 H 348.021 -2.20642 5.29141 0
M  V30 3544 H 346.418 -1.58942 5.78669 0
M  V30 3545 H 347.488 -0.561506 4.81638 0
M  V30 3546 N 348.832 -1.54138 -0.328536 0
M  V30 3547 C 349.78 -1.83894 -1.42428 0
M  V30 3548 C 350.774 -0.710478 -1.53781 0
M  V30 3549 O 351.98 -0.894062 -1.56226 0
M  V30 3550 H 348.355 -0.582837 -0.475189 0
M  V30 3551 H 350.326 -2.75537 -1.14552 0
M  V30 3552 C 349.075 -2.07866 -2.78724 0
M  V30 3553 H 348.398 -2.94158 -2.7076 0
M  V30 3554 H 349.838 -2.32644 -3.54476 0
M  V30 3555 C 348.297 -0.868689 -3.25508 0
M  V30 3556 O 348.827 -0.0754908 -4.01629 0
M  V30 3557 N 347.033 -0.681711 -2.82491 0
M  V30 3558 H 346.58 -1.32838 -2.20708 0
M  V30 3559 H 346.538 0.126374 -3.14146 0
M  V30 3560 N 350.31 0.590341 -1.46126 0
M  V30 3561 C 351.257 1.69994 -1.56111 0
M  V30 3562 C 352.227 1.61065 -0.405867 0
M  V30 3563 O 353.412 1.8039 -0.621613 0
M  V30 3564 C 350.552 3.08326 -1.55013 0
M  V30 3565 C 349.665 3.27936 -2.81215 0
M  V30 3566 C 348.8 4.56473 -2.71673 0
M  V30 3567 C 347.839 4.694 -3.92849 0
M  V30 3568 N 346.976 5.89254 -3.81738 0
M  V30 3569 H 351.816 1.60797 -2.50895 0
M  V30 3570 H 349.353 0.783799 -1.24479 0
M  V30 3571 H 351.311 3.88383 -1.52362 0
M  V30 3572 H 349.941 3.16439 -0.637667 0
M  V30 3573 H 348.993 2.41536 -2.93879 0
M  V30 3574 H 350.305 3.33357 -3.71045 0
M  V30 3575 H 349.459 5.44748 -2.67085 0
M  V30 3576 H 348.198 4.53477 -1.7947 0
M  V30 3577 H 347.203 3.79544 -3.97777 0
M  V30 3578 H 348.428 4.7418 -4.86138 0
M  V30 3579 H 346.374 5.87271 -2.92317 0
M  V30 3580 H 346.291 5.95911 -4.65217 0
M  V30 3581 H 347.559 6.79981 -3.81112 0
M  V30 3582 N 351.788 1.33704 0.83433 0
M  V30 3583 C 353.065 1.16011 1.57483 0
M  V30 3584 C 353.445 -0.27176 2.09343 0
M  V30 3585 O 352.793 -1.27146 1.89858 0
M  V30 3586 C 353.003 2.20507 2.70514 0
M  V30 3587 C 354.351 2.54898 3.39577 0
M  V30 3588 O 355.375 2.19209 2.80759 0
M  V30 3589 O 354.234 3.16158 4.45765 0
M  V30 3590 H 351.328 0.448992 0.694503 0
M  V30 3591 H 353.874 1.453 0.876691 0
M  V30 3592 H 352.646 3.16667 2.29865 0
M  V30 3593 H 352.269 1.92329 3.47987 0
M  V30 3594 N 353.266 -1.05314 1.17247 0
M  V30 3595 C 354.213 -2.13031 0.888058 0
M  V30 3596 C 355.183 -1.65253 -0.167537 0
M  V30 3597 O 356.368 -1.90775 -0.0305974 0
M  V30 3598 C 353.508 -3.42702 0.406147 0
M  V30 3599 C 352.621 -4.04161 1.52572 0
M  V30 3600 C 351.756 -5.21744 0.997808 0
M  V30 3601 C 350.795 -5.75207 2.09291 0
M  V30 3602 N 349.932 -6.84094 1.57986 0
M  V30 3603 H 354.772 -2.36698 1.81048 0
M  V30 3604 H 352.309 -1.16121 0.903013 0
M  V30 3605 H 354.267 -4.17059 0.108305 0
M  V30 3606 H 352.897 -3.19222 -0.479313 0
M  V30 3607 H 351.949 -3.27253 1.93931 0
M  V30 3608 H 353.261 -4.39881 2.35172 0
M  V30 3609 H 352.415 -6.03168 0.653739 0
M  V30 3610 H 351.154 -4.87495 0.141232 0
M  V30 3611 H 350.159 -4.92414 2.44557 0
M  V30 3612 H 351.384 -6.11505 2.95362 0
M  V30 3613 H 349.33 -6.51745 0.74598 0
M  V30 3614 H 349.247 -7.18811 2.34195 0
M  V30 3615 H 350.515 -7.69172 1.26468 0
M  V30 3616 N 354.744 -0.972509 -1.24016 0
M  V30 3617 C 355.991 -0.637034 -1.92219 0
M  V30 3618 C 356.319 0.828418 -1.75976 0
M  V30 3619 O 355.574 1.61206 -1.10955 0
M  V30 3620 C 355.873 -0.963694 -3.44162 0
M  V30 3621 C 355.539 -2.41807 -3.80579 0
M  V30 3622 C 354.201 -2.81556 -3.9023 0
M  V30 3623 C 356.553 -3.36172 -3.98293 0
M  V30 3624 C 353.881 -4.14702 -4.15017 0
M  V30 3625 C 356.233 -4.68952 -4.24578 0
M  V30 3626 C 354.897 -5.08472 -4.32449 0
M  V30 3627 H 354.167 -0.233107 -0.703379 0
M  V30 3628 H 356.814 -1.2249 -1.47202 0
M  V30 3629 H 355.119 -0.29365 -3.90698 0
M  V30 3630 H 356.816 -0.682449 -3.9515 0
M  V30 3631 H 353.406 -2.09988 -3.73635 0
M  V30 3632 H 357.59 -3.06644 -3.90234 0
M  V30 3633 H 352.846 -4.4494 -4.19331 0
M  V30 3634 H 357.02 -5.42037 -4.37229 0
M  V30 3635 H 354.647 -6.11665 -4.51409 0
M  V30 3636 N 356.222 1.38976 -0.743202 0
M  V30 3637 C 357.132 2.3434 -0.110399 0
M  V30 3638 C 358.148 1.58741 0.712559 0
M  V30 3639 O 359.324 1.9099 0.639125 0
M  V30 3640 C 356.389 3.37812 0.780012 0
M  V30 3641 C 355.45 4.29263 -0.0561319 0
M  V30 3642 C 354.683 5.27793 0.791875 0
M  V30 3643 O 354.906 5.33043 2.03031 0
M  V30 3644 O 353.84 6.01512 0.216183 0
M  V30 3645 H 357.666 2.90129 -0.897714 0
M  V30 3646 H 355.251 1.40643 -0.503966 0
M  V30 3647 H 357.133 4.01194 1.28923 0
M  V30 3648 H 355.808 2.84395 1.546 0
M  V30 3649 H 354.715 3.69076 -0.611056 0
M  V30 3650 H 356.048 4.85907 -0.784531 0
M  V30 3651 N 357.7 0.491464 1.49741 0
M  V30 3652 C 358.647 -0.292027 2.28945 0
M  V30 3653 C 359.617 -0.968973 1.34908 0
M  V30 3654 O 360.802 -0.97748 1.6386 0
M  V30 3655 C 357.942 -1.35617 3.17336 0
M  V30 3656 C 357.055 -0.691957 4.26422 0
M  V30 3657 C 356.19 -1.73572 5.02042 0
M  V30 3658 C 355.229 -1.05286 6.02977 0
M  V30 3659 N 354.366 -2.0404 6.71798 0
M  V30 3660 H 359.206 0.389654 2.95442 0
M  V30 3661 H 356.743 0.204003 1.45679 0
M  V30 3662 H 358.701 -1.98502 3.66951 0
M  V30 3663 H 357.331 -2.00674 2.52844 0
M  V30 3664 H 356.383 0.0499523 3.80367 0
M  V30 3665 H 357.695 -0.153946 4.98562 0
M  V30 3666 H 356.849 -2.43987 5.55478 0
M  V30 3667 H 355.588 -2.30757 4.29654 0
M  V30 3668 H 354.593 -0.334446 5.48782 0
M  V30 3669 H 355.818 -0.487636 6.77347 0
M  V30 3670 H 353.764 -2.60205 6.02187 0
M  V30 3671 H 353.681 -1.55279 7.39881 0
M  V30 3672 H 354.949 -2.73772 7.29842 0
M  V30 3673 N 359.178 -1.55987 0.224894 0
M  V30 3674 C 360.141 -2.19178 -0.670348 0
M  V30 3675 C 361.141 -1.15461 -1.11917 0
M  V30 3676 O 362.331 -1.40675 -1.02743 0
M  V30 3677 C 359.463 -2.81777 -1.9187 0
M  V30 3678 H 360.656 -2.99662 -0.119364 0
M  V30 3679 H 358.209 -1.5628 -0.0247128 0
M  V30 3680 H 358.944 -2.05172 -2.51147 0
M  V30 3681 H 358.729 -3.57732 -1.60531 0
M  V30 3682 H 360.219 -3.30205 -2.55645 0
M  V30 3683 N 360.656 0.0484629 -1.57525 0
M  V30 3684 C 361.589 1.08755 -2.00618 0
M  V30 3685 C 362.567 1.36272 -0.887058 0
M  V30 3686 O 363.751 1.49255 -1.15131 0
M  V30 3687 C 360.878 2.42675 -2.36277 0
M  V30 3688 C 359.924 2.31142 -3.58435 0
M  V30 3689 S 360.757 1.68326 -5.08357 0
M  V30 3690 C 361.913 3.03776 -5.47239 0
M  V30 3691 H 362.146 0.720415 -2.88439 0
M  V30 3692 H 359.679 0.257801 -1.52233 0
M  V30 3693 H 361.637 3.19699 -2.57494 0
M  V30 3694 H 360.298 2.76541 -1.48942 0
M  V30 3695 H 359.491 3.29957 -3.80978 0
M  V30 3696 H 359.093 1.62258 -3.36969 0
M  V30 3697 H 361.385 4.00106 -5.46737 0
M  V30 3698 H 362.328 2.85988 -6.47778 0
M  V30 3699 H 362.736 3.05456 -4.74718 0
M  V30 3700 N 362.134 1.5431 0.320358 0
M  V30 3701 C 363.097 1.83195 1.3774 0
M  V30 3702 C 364.097 0.703906 1.44575 0
M  V30 3703 O 365.287 0.972214 1.44546 0
M  V30 3704 C 362.419 1.99487 2.76438 0
M  V30 3705 H 363.612 2.77642 1.1338 0
M  V30 3706 H 361.165 1.46076 0.556012 0
M  V30 3707 H 361.9 1.07262 3.06048 0
M  V30 3708 H 361.685 2.81575 2.7287 0
M  V30 3709 H 363.175 2.23271 3.52902 0
M  V30 3710 N 363.613 -0.582584 1.46437 0
M  V30 3711 C 364.859 -1.34278 1.51978 0
M  V30 3712 C 365.192 -1.93446 0.170973 0
M  V30 3713 O 364.467 -1.76481 -0.817608 0
M  V30 3714 C 364.75 -2.47203 2.61845 0
M  V30 3715 C 364.603 -1.93069 4.06257 0
M  V30 3716 C 365.922 -3.49247 2.67795 0
M  V30 3717 H 363.041 -0.486876 0.553282 0
M  V30 3718 H 365.683 -0.654437 1.78374 0
M  V30 3719 H 363.833 -3.0592 2.39469 0
M  V30 3720 H 365.505 -1.38808 4.3992 0
M  V30 3721 H 363.748 -1.23898 4.1573 0
M  V30 3722 H 364.419 -2.74586 4.7886 0
M  V30 3723 H 366.895 -3.00411 2.8791 0
M  V30 3724 H 365.771 -4.25719 3.46489 0
M  V30 3725 H 366.032 -4.06482 1.73852 0
M  V30 3726 N 365.091 -1.34144 -0.827227 0
M  V30 3727 C 366.339 -1.26009 -1.58007 0
M  V30 3728 C 366.66 0.170971 -1.94249 0
M  V30 3729 O 365.93 1.10256 -1.61927 0
M  V30 3730 H 364.51 -0.463414 -0.585881 0
M  V30 3731 H 367.172 -1.68005 -0.987951 0
M  V30 3732 H 366.268 -1.86187 -2.50481 0
M  V30 3733 N 366.569 1.04691 -1.17803 0
M  V30 3734 C 367.532 2.10724 -0.901545 0
M  V30 3735 C 368.532 1.6042 0.110437 0
M  V30 3736 O 369.722 1.7377 -0.122303 0
M  V30 3737 C 366.854 3.39084 -0.351409 0
M  V30 3738 H 368.047 2.36686 -1.84174 0
M  V30 3739 H 365.6 1.21015 -0.98919 0
M  V30 3740 H 366.335 3.18782 0.59569 0
M  V30 3741 H 366.12 3.76909 -1.08083 0
M  V30 3742 H 367.61 4.17227 -0.176451 0
M  V30 3743 N 368.047 0.979072 1.23499 0
M  V30 3744 C 369.275 0.665202 1.95915 0
M  V30 3745 C 369.69 -0.767571 1.72493 0
M  V30 3746 O 369.047 -1.51635 1.01554 0
M  V30 3747 C 369.098 0.944438 3.48945 0
M  V30 3748 O 368.819 2.3209 3.71572 0
M  V30 3749 C 370.32 0.646336 4.38563 0
M  V30 3750 H 367.54 0.247218 0.623798 0
M  V30 3751 H 370.084 1.31009 1.57025 0
M  V30 3752 H 368.239 0.345575 3.85856 0
M  V30 3753 H 368.653 2.40957 4.65876 0
M  V30 3754 H 370.127 0.892091 5.44744 0
M  V30 3755 H 370.604 -0.419575 4.37191 0
M  V30 3756 H 371.21 1.22562 4.07258 0
M  V30 3757 N 369.525 -1.3858 0.750561 0
M  V30 3758 C 370.435 -2.34278 0.122825 0
M  V30 3759 C 371.451 -1.59116 -0.704131 0
M  V30 3760 O 372.627 -1.91326 -0.628987 0
M  V30 3761 C 369.692 -3.38221 -0.762086 0
M  V30 3762 C 368.753 -4.29227 0.078896 0
M  V30 3763 C 367.986 -5.28205 -0.763874 0
M  V30 3764 O 368.209 -5.34112 -2.00201 0
M  V30 3765 O 367.143 -6.01618 -0.18428 0
M  V30 3766 H 370.969 -2.89649 0.913088 0
M  V30 3767 H 368.554 -1.40374 0.511417 0
M  V30 3768 H 370.436 -4.01872 -1.26793 0
M  V30 3769 H 369.111 -2.85211 -1.5309 0
M  V30 3770 H 368.018 -3.68747 0.630621 0
M  V30 3771 H 369.351 -4.85484 0.810289 0
M  V30 3772 N 371.003 -0.499398 -1.49478 0
M  V30 3773 C 372.243 0.0440751 -2.04352 0
M  V30 3774 C 372.607 1.34423 -1.37093 0
M  V30 3775 O 373.808 1.97184 -1.82679 0
M  V30 3776 C 372.079 0.194918 -3.56868 0
M  V30 3777 S 373.638 0.69287 -4.33295 0
M  V30 3778 H 370.456 0.00253458 -0.710995 0
M  V30 3779 H 373.058 -0.673 -1.83551 0
M  V30 3780 H 371.762 -0.756672 -4.03364 0
M  V30 3781 H 371.293 0.93728 -3.82071 0
M  V30 3782 H 373.308 1.96226 -4.55752 0
M  V30 3783 N 372.481 1.55866 -0.233164 0
M  V30 3784 C 373.73 1.97779 0.39579 0
M  V30 3785 C 374.043 1.12419 1.60066 0
M  V30 3786 O 375.249 1.44283 2.29988 0
M  V30 3787 C 373.705 3.5188 0.755556 0
M  V30 3788 C 373.313 4.45959 -0.427152 0
M  V30 3789 C 375.057 4.02479 1.34946 0
M  V30 3790 C 372.964 5.91383 -0.0443043 0
M  V30 3791 H 371.894 0.738592 0.15165 0
M  V30 3792 H 374.545 1.80486 -0.331212 0
M  V30 3793 H 372.927 3.64816 1.5403 0
M  V30 3794 H 374.101 4.44776 -1.20462 0
M  V30 3795 H 372.416 4.05765 -0.935068 0
M  V30 3796 H 375.013 5.08637 1.649 0
M  V30 3797 H 375.356 3.49014 2.26925 0
M  V30 3798 H 375.889 3.92813 0.62791 0
M  V30 3799 H 372.628 6.48857 -0.930874 0
M  V30 3800 H 372.148 5.95734 0.697238 0
M  V30 3801 H 373.827 6.45893 0.378334 0
M  V30 3802 N 373.959 -0.0401083 1.57549 0
M  V30 3803 C 375.184 -0.748931 1.93406 0
M  V30 3804 C 375.609 -1.68686 0.832274 0
M  V30 3805 O 374.967 -1.80047 -0.212818 0
M  V30 3806 C 375.015 -1.4916 3.28304 0
M  V30 3807 O 374.119 -2.6042 3.19774 0
M  V30 3808 H 373.46 -0.202212 0.63246 0
M  V30 3809 H 375.99 0.00112086 2.046 0
M  V30 3810 H 376 -1.86395 3.62934 0
M  V30 3811 H 374.675 -0.80364 4.08062 0
M  V30 3812 H 373.252 -2.25808 2.96758 0
M  V30 3813 N 375.437 -1.54477 -0.31217 0
M  V30 3814 C 376.848 -1.64344 -0.885891 0
M  V30 3815 C 377.199 -0.54485 -1.88483 0
M  V30 3816 O 376.324 0.320387 -2.14015 0
M  V30 3817 C 376.919 -2.97908 -1.61357 0
M  V30 3818 C 375.478 -3.09933 -2.13585 0
M  V30 3819 C 374.625 -2.59971 -0.964897 0
M  V30 3820 H 377.576 -1.58448 -0.0894528 0
M  V30 3821 H 377.597 -2.88706 -2.47848 0
M  V30 3822 H 377.109 -3.77845 -0.886277 0
M  V30 3823 H 375.21 -2.34694 -2.89395 0
M  V30 3824 H 375.323 -4.15916 -2.37804 0
M  V30 3825 H 373.687 -2.16147 -1.34731 0
M  V30 3826 H 374.47 -3.42376 -0.251742 0
M  V30 3827 N 376.915 0.57481 -1.46744 0
M  V30 3828 C 377.862 1.68329 -1.57905 0
M  V30 3829 C 378.832 1.60625 -0.422927 0
M  V30 3830 O 380.017 1.79721 -0.640711 0
M  V30 3831 C 377.157 3.06665 -1.58274 0
M  V30 3832 C 376.27 3.24935 -2.84678 0
M  V30 3833 C 375.405 4.53566 -2.76499 0
M  V30 3834 C 374.444 4.65207 -3.97806 0
M  V30 3835 N 373.581 5.85172 -3.87967 0
M  V30 3836 H 378.421 1.58127 -2.52587 0
M  V30 3837 H 375.958 0.770552 -1.25303 0
M  V30 3838 H 377.916 3.86745 -1.56473 0
M  V30 3839 H 376.546 3.15745 -0.671194 0
M  V30 3840 H 375.598 2.38405 -2.96424 0
M  V30 3841 H 376.91 3.29403 -3.7456 0
M  V30 3842 H 376.064 5.41885 -2.72848 0
M  V30 3843 H 374.803 4.51548 -1.8427 0
M  V30 3844 H 373.808 3.75304 -4.0178 0
M  V30 3845 H 375.033 4.68997 -4.9114 0
M  V30 3846 H 372.979 5.84137 -2.98529 0
M  V30 3847 H 372.896 5.90943 -4.71511 0
M  V30 3848 H 374.164 6.759 -3.88303 0
M  V30 3849 N 378.394 1.34581 0.820102 0
M  V30 3850 C 379.671 1.17675 1.56244 0
M  V30 3851 C 380.051 -0.249541 2.0962 0
M  V30 3852 O 379.399 -1.25125 1.91196 0
M  V30 3853 C 379.609 2.23364 2.6816 0
M  V30 3854 C 380.957 2.58485 3.36854 0
M  V30 3855 O 381.981 2.22175 2.78418 0
M  V30 3856 O 380.84 3.20868 4.42386 0
M  V30 3857 H 377.934 0.456333 0.689702 0
M  V30 3858 H 380.48 1.46222 0.861231 0
M  V30 3859 H 379.252 3.19087 2.26493 0
M  V30 3860 H 378.875 1.96009 3.45928 0
M  V30 3861 N 379.872 -1.04064 1.18357 0
M  V30 3862 C 381.097 -1.81454 1.00445 0
M  V30 3863 C 381.522 -1.82823 -0.442423 0
M  V30 3864 O 380.88 -1.24555 -1.31741 0
M  V30 3865 C 380.928 -3.24925 1.56384 0
M  V30 3866 O 380.032 -4.04856 0.785209 0
M  V30 3867 H 379.373 -0.560604 0.355835 0
M  V30 3868 H 381.903 -1.31059 1.57114 0
M  V30 3869 H 381.913 -3.75702 1.59097 0
M  V30 3870 H 380.588 -3.23244 2.61699 0
M  V30 3871 H 379.165 -3.63537 0.830399 0
M  V30 3872 N 381.35 -0.985608 -1.22978 0
M  V30 3873 C 382.578 -0.675582 -1.95559 0
M  V30 3874 C 382.993 0.758413 -1.72897 0
M  V30 3875 O 382.35 1.51094 -1.02357 0
M  V30 3876 C 382.401 -0.96293 -3.48439 0
M  V30 3877 O 382.122 -2.34057 -3.70336 0
M  V30 3878 C 383.623 -0.669585 -4.38214 0
M  V30 3879 H 380.843 -0.250523 -0.622478 0
M  V30 3880 H 383.387 -1.3184 -1.56328 0
M  V30 3881 H 381.542 -0.366033 -3.85667 0
M  V30 3882 H 381.956 -2.43424 -4.64591 0
M  V30 3883 H 383.43 -0.920967 -5.44263 0
M  V30 3884 H 383.907 0.396383 -4.37408 0
M  V30 3885 H 384.513 -1.2472 -4.06602 0
M  V30 3886 N 382.828 1.3818 -0.7579 0
M  V30 3887 C 383.775 2.30416 -0.133057 0
M  V30 3888 C 384.745 1.50398 0.704957 0
M  V30 3889 O 385.93 1.79014 0.660192 0
M  V30 3890 C 383.07 3.36834 0.750813 0
M  V30 3891 C 382.183 4.31879 -0.102297 0
M  V30 3892 C 381.318 5.25368 0.784979 0
M  V30 3893 C 380.357 6.12058 -0.0715046 0
M  V30 3894 N 379.494 6.97832 0.772972 0
M  V30 3895 H 384.334 2.83274 -0.925186 0
M  V30 3896 H 381.871 1.39461 -0.467866 0
M  V30 3897 H 383.829 3.97145 1.27794 0
M  V30 3898 H 382.459 2.85374 1.50868 0
M  V30 3899 H 381.511 3.72991 -0.747095 0
M  V30 3900 H 382.823 4.92921 -0.763552 0
M  V30 3901 H 381.977 5.90818 1.37911 0
M  V30 3902 H 380.716 4.64703 1.47996 0
M  V30 3903 H 379.721 5.456 -0.678272 0
M  V30 3904 H 380.946 6.74793 -0.763606 0
M  V30 3905 H 378.892 6.3971 1.45282 0
M  V30 3906 H 378.809 7.55812 0.168709 0
M  V30 3907 H 380.077 7.67687 1.35194 0
M  V30 3908 N 384.306 0.507319 1.49211 0
M  V30 3909 C 385.717 0.0611118 1.866 0
M  V30 3910 C 386.068 -1.35488 1.41907 0
M  V30 3911 O 385.193 -2.0108 0.799726 0
M  V30 3912 C 385.788 0.104125 3.3864 0
M  V30 3913 C 384.347 -0.28677 3.75306 0
M  V30 3914 C 383.494 0.473893 2.73221 0
M  V30 3915 H 386.445 0.719775 1.41439 0
M  V30 3916 H 386.466 -0.689672 3.74198 0
M  V30 3917 H 385.978 1.13482 3.71138 0
M  V30 3918 H 384.079 -1.32046 3.48417 0
M  V30 3919 H 384.192 0.0370745 4.79086 0
M  V30 3920 H 382.556 -0.0770644 2.54583 0
M  V30 3921 H 383.339 1.50478 3.08563 0
M  V30 3922 N 385.784 -1.5574 0.241426 0
M  V30 3923 C 387.033 -1.97986 -0.385295 0
M  V30 3924 C 387.346 -1.13267 -1.59468 0
M  V30 3925 O 388.552 -1.45501 -2.2922 0
M  V30 3926 C 387.008 -3.52275 -0.736884 0
M  V30 3927 C 386.616 -4.45726 0.450796 0
M  V30 3928 C 388.36 -4.03189 -1.3281 0
M  V30 3929 C 386.267 -5.91352 0.0756662 0
M  V30 3930 H 385.197 -0.739386 -0.147731 0
M  V30 3931 H 387.848 -1.80308 0.340779 0
M  V30 3932 H 386.23 -3.65628 -1.52094 0
M  V30 3933 H 387.404 -4.44131 1.22819 0
M  V30 3934 H 385.719 -4.05264 0.956573 0
M  V30 3935 H 388.316 -5.09505 -1.62201 0
M  V30 3936 H 388.659 -3.50212 -2.25071 0
M  V30 3937 H 389.192 -3.93141 -0.607069 0
M  V30 3938 H 385.931 -6.48354 0.965272 0
M  V30 3939 H 385.451 -5.96095 -0.665635 0
M  V30 3940 H 387.13 -6.46084 -0.344075 0
M  V30 3941 N 387.262 0.0317525 -1.57568 0
M  V30 3942 C 388.487 0.738664 -1.938 0
M  V30 3943 C 388.912 1.68242 -0.841208 0
M  V30 3944 O 388.27 1.80157 0.203267 0
M  V30 3945 C 388.318 1.47417 -3.29091 0
M  V30 3946 O 387.422 2.5872 -3.2115 0
M  V30 3947 H 386.763 0.198856 -0.633524 0
M  V30 3948 H 389.293 -0.0119713 -2.04596 0
M  V30 3949 H 389.303 1.84468 -3.63917 0
M  V30 3950 H 387.978 0.781988 -4.08482 0
M  V30 3951 H 386.555 2.24231 -2.97951 0
M  V30 3952 N 388.74 1.54641 0.303973 0
M  V30 3953 C 389.65 1.88439 1.39743 0
M  V30 3954 C 390.666 0.778239 1.55626 0
M  V30 3955 O 391.842 1.07442 1.70347 0
M  V30 3956 C 388.907 2.12212 2.74166 0
M  V30 3957 C 387.968 3.35936 2.67293 0
M  V30 3958 C 387.201 3.58566 3.95305 0
M  V30 3959 O 387.424 2.84263 4.9452 0
M  V30 3960 O 386.358 4.52078 3.97378 0
M  V30 3961 H 390.184 2.81458 1.14083 0
M  V30 3962 H 387.769 1.40793 0.499768 0
M  V30 3963 H 389.651 2.29067 3.53704 0
M  V30 3964 H 388.326 1.22379 2.99675 0
M  V30 3965 H 387.233 3.24448 1.86237 0
M  V30 3966 H 388.566 4.2589 2.46736 0
M  V30 3967 N 390.218 -0.567019 1.47046 0
M  V30 3968 C 391.464 -1.32658 1.53394 0
M  V30 3969 C 391.797 -1.93254 0.19148 0
M  V30 3970 O 391.072 -1.77338 -0.798844 0
M  V30 3971 C 391.355 -2.44412 2.64452 0
M  V30 3972 C 391.208 -1.88749 4.08282 0
M  V30 3973 C 392.527 -3.46387 2.71485 0
M  V30 3974 H 389.646 -0.48098 0.558415 0
M  V30 3975 H 392.288 -0.635481 1.79058 0
M  V30 3976 H 390.438 -3.03363 2.427 0
M  V30 3977 H 392.11 -1.34134 4.41368 0
M  V30 3978 H 390.353 -1.19481 4.17021 0
M  V30 3979 H 391.024 -2.69491 4.81745 0
M  V30 3980 H 393.5 -2.9734 2.91081 0
M  V30 3981 H 392.376 -4.2202 3.50985 0
M  V30 3982 H 392.637 -4.04616 1.78153 0
M  V30 3983 N 391.696 -1.35014 -0.812953 0
M  V30 3984 C 392.626 -1.30069 -1.93919 0
M  V30 3985 C 393.607 -0.176275 -1.69184 0
M  V30 3986 O 394.792 -0.370227 -1.90638 0
M  V30 3987 C 391.922 -1.06547 -3.30552 0
M  V30 3988 C 390.876 -2.15561 -3.69753 0
M  V30 3989 C 390.202 -1.77214 -5.04479 0
M  V30 3990 C 391.502 -3.57476 -3.808 0
M  V30 3991 H 393.196 -2.24303 -1.98314 0
M  V30 3992 H 390.742 -1.07977 -0.952736 0
M  V30 3993 H 392.695 -1.01729 -4.08937 0
M  V30 3994 H 391.419 -0.0875719 -3.26483 0
M  V30 3995 H 390.078 -2.19466 -2.9365 0
M  V30 3996 H 389.726 -0.780589 -4.96906 0
M  V30 3997 H 389.426 -2.50184 -5.31678 0
M  V30 3998 H 390.95 -1.7391 -5.8531 0
M  V30 3999 H 392.364 -3.55929 -4.4943 0
M  V30 4000 H 390.761 -4.29152 -4.19462 0
M  V30 4001 H 391.831 -3.94091 -2.82525 0
M  V30 4002 N 393.175 1.03435 -1.18907 0
M  V30 4003 C 394.4 1.80919 -1.01406 0
M  V30 4004 C 394.825 1.83055 0.432721 0
M  V30 4005 O 394.183 1.25252 1.31079 0
M  V30 4006 C 394.231 3.24091 -1.58105 0
M  V30 4007 O 393.335 4.04434 -0.806669 0
M  V30 4008 H 392.676 0.558709 -0.358803 0
M  V30 4009 H 395.206 1.30223 -1.57807 0
M  V30 4010 H 395.216 3.74853 -1.61087 0
M  V30 4011 H 393.891 3.21851 -2.6341 0
M  V30 4012 H 392.468 3.63091 -0.849666 0
M  V30 4013 N 394.653 0.992116 1.22453 0
M  V30 4014 C 395.563 0.55065 2.28046 0
M  V30 4015 C 396.579 -0.400189 1.69335 0
M  V30 4016 O 397.755 -0.267215 1.99619 0
M  V30 4017 C 394.82 -0.128496 3.46462 0
M  V30 4018 C 393.881 0.865208 4.20491 0
M  V30 4019 C 393.114 0.218377 5.33253 0
M  V30 4020 O 393.337 -0.987894 5.6178 0
M  V30 4021 O 392.271 0.922845 5.94783 0
M  V30 4022 H 396.097 1.4291 2.67975 0
M  V30 4023 H 393.682 0.760326 1.28606 0
M  V30 4024 H 395.564 -0.508947 4.18315 0
M  V30 4025 H 394.239 -0.981526 3.0846 0
M  V30 4026 H 393.146 1.29658 3.50913 0
M  V30 4027 H 394.479 1.68741 4.62371 0
M  V30 4028 N 396.131 -1.37776 0.765217 0
M  V30 4029 C 397.064 -2.28008 0.0935025 0
M  V30 4030 C 398.042 -1.45985 -0.716047 0
M  V30 4031 O 399.226 -1.75331 -0.692203 0
M  V30 4032 C 396.353 -3.27228 -0.874052 0
M  V30 4033 C 395.399 -4.26239 -0.149307 0
M  V30 4034 S 396.232 -5.22827 1.15809 0
M  V30 4035 C 397.388 -6.256 0.193906 0
M  V30 4036 H 397.621 -2.84631 0.858637 0
M  V30 4037 H 395.154 -1.43952 0.558313 0
M  V30 4038 H 397.112 -3.84902 -1.42691 0
M  V30 4039 H 395.773 -2.69565 -1.61225 0
M  V30 4040 H 394.966 -4.96213 -0.88254 0
M  V30 4041 H 394.568 -3.7252 0.332366 0
M  V30 4042 H 396.86 -6.74508 -0.636011 0
M  V30 4043 H 397.803 -7.02838 0.861638 0
M  V30 4044 H 398.211 -5.64173 -0.191975 0
M  V30 4045 N 397.609 -0.515225 -1.4894 0
M  V30 4046 C 398.837 0.0206034 -2.0689 0
M  V30 4047 C 399.252 1.29514 -1.37374 0
M  V30 4048 O 398.609 1.76698 -0.456529 0
M  V30 4049 C 398.66 0.26351 -3.60538 0
M  V30 4050 O 398.381 -0.960517 -4.27441 0
M  V30 4051 C 399.882 0.841383 -4.35242 0
M  V30 4052 H 397.102 -0.0268608 -0.670462 0
M  V30 4053 H 399.646 -0.716651 -1.91532 0
M  V30 4054 H 397.801 0.950777 -3.75552 0
M  V30 4055 H 398.215 -0.73212 -5.19365 0
M  V30 4056 H 399.689 0.96085 -5.43573 0
M  V30 4057 H 400.166 1.8427 -3.98674 0
M  V30 4058 H 400.772 0.191143 -4.2487 0
M  V30 4059 N 399.087 1.5561 -0.249682 0
M  V30 4060 C 400.335 1.98618 0.373548 0
M  V30 4061 C 400.656 1.13919 1.58264 0
M  V30 4062 O 399.926 0.222637 1.94631 0
M  V30 4063 H 398.506 0.733571 0.141006 0
M  V30 4064 H 401.168 1.91748 -0.349117 0
M  V30 4065 H 400.264 3.04584 0.680796 0
M  V30 4066 N 400.565 -0.0233959 1.57583 0
M  V30 4067 C 401.513 -1.04063 2.08023 0
M  V30 4068 C 402.507 -1.37084 0.995204 0
M  V30 4069 O 403.713 -1.35923 1.18004 0
M  V30 4070 H 400.088 -0.353144 0.663922 0
M  V30 4071 H 402.059 -0.589453 2.9252 0
M  V30 4072 C 400.808 -2.33123 2.57971 0
M  V30 4073 H 400.131 -2.08577 3.4108 0
M  V30 4074 H 401.571 -3.02632 2.96967 0
M  V30 4075 C 400.03 -3.02483 1.48342 0
M  V30 4076 O 400.56 -3.92541 0.852898 0
M  V30 4077 N 398.766 -2.63909 1.21658 0
M  V30 4078 H 398.313 -1.90758 1.73116 0
M  V30 4079 H 398.271 -3.10633 0.485218 0
M  V30 4080 N 402.043 -1.548 -0.295768 0
M  V30 4081 C 402.991 -1.86874 -1.38495 0
M  V30 4082 C 403.985 -0.742938 -1.52239 0
M  V30 4083 O 405.191 -0.926999 -1.54294 0
M  V30 4084 H 401.566 -0.592786 -0.462719 0
M  V30 4085 H 403.537 -2.77904 -1.08682 0
M  V30 4086 C 402.286 -2.13732 -2.74252 0
M  V30 4087 H 401.609 -2.99835 -2.64459 0
M  V30 4088 H 403.049 -2.4011 -3.49461 0
M  V30 4089 C 401.508 -0.937539 -3.23592 0
M  V30 4090 O 402.038 -0.160665 -4.01379 0
M  V30 4091 N 400.244 -0.741478 -2.80981 0
M  V30 4092 H 399.791 -1.37489 -2.1784 0
M  V30 4093 H 399.749 0.0597103 -3.14343 0
M  V30 4094 N 403.521 0.559213 -1.47345 0
M  V30 4095 C 404.767 1.31843 -1.54095 0
M  V30 4096 C 405.1 1.93149 -0.201726 0
M  V30 4097 O 404.375 1.77759 0.789428 0
M  V30 4098 C 404.658 2.43006 -2.65744 0
M  V30 4099 C 404.511 1.86581 -4.09277 0
M  V30 4100 C 405.83 3.44943 -2.73318 0
M  V30 4101 H 402.949 0.478012 -0.560957 0
M  V30 4102 H 405.591 0.625977 -1.79392 0
M  V30 4103 H 403.741 3.02072 -2.44305 0
M  V30 4104 H 405.413 1.31792 -4.42073 0
M  V30 4105 H 403.656 1.17268 -4.17649 0
M  V30 4106 H 404.327 2.66933 -4.83168 0
M  V30 4107 H 406.803 2.95793 -2.92653 0
M  V30 4108 H 405.679 4.20153 -3.53218 0
M  V30 4109 H 405.94 4.03665 -1.80296 0
M  V30 4110 N 404.999 1.35443 0.805782 0
M  V30 4111 C 406.247 1.28507 1.55982 0
M  V30 4112 C 406.568 -0.140046 1.94496 0
M  V30 4113 O 405.838 -1.07666 1.63661 0
M  V30 4114 H 404.418 0.472676 0.578434 0
M  V30 4115 H 407.08 1.69555 0.961098 0
M  V30 4116 H 406.176 1.90148 2.47488 0
M  V30 4117 N 406.477 -1.02803 1.19454 0
M  V30 4118 C 407.707 -1.79581 1.02149 0
M  V30 4119 C 408.115 -1.84182 -0.432851 0
M  V30 4120 O 407.458 -1.28534 -1.31243 0
M  V30 4121 C 407.52 -3.25993 1.51554 0
M  V30 4122 C 407.184 -3.45025 2.99678 0
M  V30 4123 C 408.181 -3.35175 3.97434 0
M  V30 4124 C 405.866 -3.71212 3.38389 0
M  V30 4125 C 407.86 -3.51238 5.31893 0
M  V30 4126 C 405.547 -3.8692 4.73008 0
M  V30 4127 C 406.545 -3.76936 5.69569 0
M  V30 4128 O 406.233 -3.92179 7.01748 0
M  V30 4129 H 405.965 -0.571962 0.360327 0
M  V30 4130 H 408.519 -1.30367 1.58725 0
M  V30 4131 H 406.749 -3.76235 0.893543 0
M  V30 4132 H 408.438 -3.84368 1.30444 0
M  V30 4133 H 409.204 -3.14895 3.68872 0
M  V30 4134 H 405.083 -3.78075 2.6378 0
M  V30 4135 H 408.627 -3.43362 6.07247 0
M  V30 4136 H 404.524 -4.06699 5.01265 0
M  V30 4137 H 405.292 -4.09265 7.08833 0
M  V30 4138 N 407.956 -0.998596 -1.21925 0
M  V30 4139 C 409.184 -0.696286 -1.94832 0
M  V30 4140 C 409.599 0.740032 -1.73692 0
M  V30 4141 O 408.956 1.5 -1.03953 0
M  V30 4142 C 409.007 -0.999833 -3.47398 0
M  V30 4143 O 408.728 -2.37972 -3.67833 0
M  V30 4144 C 410.229 -0.716025 -4.37479 0
M  V30 4145 H 407.449 -0.257111 -0.619786 0
M  V30 4146 H 409.993 -1.33491 -1.54921 0
M  V30 4147 H 408.148 -0.406918 -3.85257 0
M  V30 4148 H 408.562 -2.48338 -4.61983 0
M  V30 4149 H 410.036 -0.978642 -5.43256 0
M  V30 4150 H 410.513 0.349968 -4.37803 0
M  V30 4151 H 411.119 -1.29025 -4.05256 0
M  V30 4152 N 409.434 1.37368 -0.772513 0
M  V30 4153 C 410.681 1.99673 -0.337182 0
M  V30 4154 C 411.009 1.61324 1.0865 0
M  V30 4155 O 410.264 0.851377 1.7621 0
M  V30 4156 C 410.563 3.54817 -0.428876 0
M  V30 4157 C 410.229 4.12936 -1.81092 0
M  V30 4158 C 408.891 4.28523 -2.1891 0
M  V30 4159 C 411.243 4.44801 -2.71664 0
M  V30 4160 C 408.571 4.73277 -3.46735 0
M  V30 4161 C 410.923 4.90981 -3.98899 0
M  V30 4162 C 409.587 5.04773 -4.36761 0
M  V30 4163 H 408.857 0.730656 -0.123384 0
M  V30 4164 H 411.504 1.64124 -0.986686 0
M  V30 4165 H 409.809 3.90618 0.304167 0
M  V30 4166 H 411.506 4.00933 -0.0733334 0
M  V30 4167 H 408.096 4.01233 -1.50699 0
M  V30 4168 H 412.28 4.32344 -2.43706 0
M  V30 4169 H 407.536 4.82142 -3.75964 0
M  V30 4170 H 411.71 5.14603 -4.69208 0
M  V30 4171 H 409.337 5.39211 -5.35868 0
M  V30 4172 N 410.912 0.523116 1.48665 0
M  V30 4173 C 411.822 -0.247406 2.33292 0
M  V30 4174 C 412.838 -0.945769 1.46052 0
M  V30 4175 O 414.014 -0.922253 1.79043 0
M  V30 4176 C 411.079 -1.28487 3.22012 0
M  V30 4177 C 410.14 -0.597592 4.2512 0
M  V30 4178 C 409.373 -1.58563 5.09601 0
M  V30 4179 O 409.596 -2.81763 4.95949 0
M  V30 4180 O 408.53 -1.12879 5.91221 0
M  V30 4181 H 412.356 0.445869 3.00409 0
M  V30 4182 H 409.941 0.284128 1.46673 0
M  V30 4183 H 411.823 -1.88459 3.7691 0
M  V30 4184 H 410.498 -1.96068 2.57564 0
M  V30 4185 H 409.405 0.0424407 3.74076 0
M  V30 4186 H 410.738 0.0361517 4.92187 0
M  V30 4187 N 412.39 -1.55475 0.257931 0
M  V30 4188 C 413.636 -1.99502 -0.364266 0
M  V30 4189 C 413.969 -1.146 -1.56782 0
M  V30 4190 O 413.244 -0.211968 -1.93342 0
M  V30 4191 C 413.527 -3.51917 -0.763333 0
M  V30 4192 C 413.38 -4.4758 0.446371 0
M  V30 4193 C 414.699 -4.09742 -1.60623 0
M  V30 4194 H 411.818 -0.725277 -0.130929 0
M  V30 4195 H 414.46 -1.8653 0.361446 0
M  V30 4196 H 412.61 -3.63101 -1.38166 0
M  V30 4197 H 414.282 -4.48362 1.08487 0
M  V30 4198 H 412.525 -4.19947 1.08753 0
M  V30 4199 H 413.196 -5.51862 0.123645 0
M  V30 4200 H 415.672 -4.01727 -1.08418 0
M  V30 4201 H 414.548 -5.16631 -1.85429 0
M  V30 4202 H 414.809 -3.58889 -2.58169 0
M  V30 4203 N 413.868 0.0150385 -1.57593 0
M  V30 4204 C 415.117 0.702115 -1.89085 0
M  V30 4205 C 415.43 1.75764 -0.858277 0
M  V30 4206 O 416.636 2.49829 -1.0629 0
M  V30 4207 C 415.092 1.29992 -3.35604 0
M  V30 4208 C 414.7 0.280007 -4.47124 0
M  V30 4209 C 416.444 1.96606 -3.76227 0
M  V30 4210 C 414.351 0.886949 -5.84711 0
M  V30 4211 H 413.281 0.265997 -0.705522 0
M  V30 4212 H 415.932 -0.0430408 -1.8345 0
M  V30 4213 H 414.314 2.09525 -3.36029 0
M  V30 4214 H 415.488 -0.489631 -4.58191 0
M  V30 4215 H 413.803 -0.284835 -4.15425 0
M  V30 4216 H 416.4 2.42893 -4.76347 0
M  V30 4217 H 416.743 2.79024 -3.08952 0
M  V30 4218 H 417.276 1.23828 -3.78036 0
M  V30 4219 H 414.015 0.101876 -6.55421 0
M  V30 4220 H 413.535 1.6261 -5.77337 0
M  V30 4221 H 415.214 1.39011 -6.3189 0
M  V30 4222 N 415.346 1.54954 0.287554 0
M  V30 4223 C 416.594 1.74528 1.01904 0
M  V30 4224 C 416.915 0.541349 1.87335 0
M  V30 4225 O 416.185 -0.444108 1.908 0
M  V30 4226 H 414.765 0.643576 0.379235 0
M  V30 4227 H 417.427 1.92333 0.315294 0
M  V30 4228 H 416.523 2.64015 1.6644 0
M  V30 4229 N 416.824 -0.551391 1.4764 0
M  V30 4230 C 417.774 -1.65362 1.56969 0
M  V30 4231 C 418.758 -1.55098 0.428189 0
M  V30 4232 O 419.95 -1.63481 0.678441 0
M  V30 4233 C 417.079 -3.04129 1.59249 0
M  V30 4234 C 416.165 -3.19576 2.78804 0
M  V30 4235 N 416.556 -3.05067 4.03445 0
M  V30 4236 C 414.854 -3.50588 2.75688 0
M  V30 4237 C 415.555 -3.2336 4.83543 0
M  V30 4238 N 414.531 -3.4996 4.15968 0
M  V30 4239 H 418.333 -1.52722 2.51104 0
M  V30 4240 H 415.847 -0.756303 1.43714 0
M  V30 4241 H 417.844 -3.83278 1.64024 0
M  V30 4242 H 416.504 -3.17877 0.662148 0
M  V30 4243 H 417.515 -2.82273 4.34215 0
M  V30 4244 H 414.192 -3.70827 1.91817 0
M  V30 4245 H 415.582 -3.17061 5.92387 0
M  V30 4246 N 418.302 -1.35869 -0.798587 0
M  V30 4247 C 419.232 -1.32118 -1.92528 0
M  V30 4248 C 420.213 -0.194209 -1.68988 0
M  V30 4249 O 421.398 -0.390426 -1.90235 0
M  V30 4250 C 418.528 -1.10047 -3.29404 0
M  V30 4251 C 417.482 -2.19471 -3.67446 0
M  V30 4252 C 416.808 -1.82555 -5.02571 0
M  V30 4253 C 418.108 -3.61495 -3.76987 0
M  V30 4254 H 419.802 -2.26394 -1.95924 0
M  V30 4255 H 417.348 -1.08981 -0.94123 0
M  V30 4256 H 419.301 -1.06061 -4.07835 0
M  V30 4257 H 418.025 -0.122195 -3.26371 0
M  V30 4258 H 416.684 -2.22568 -2.91306 0
M  V30 4259 H 416.332 -0.833249 -4.9605 0
M  V30 4260 H 416.032 -2.5581 -5.28995 0
M  V30 4261 H 417.556 -1.80108 -5.83432 0
M  V30 4262 H 418.97 -3.60676 -4.4563 0
M  V30 4263 H 417.367 -4.33577 -4.14887 0
M  V30 4264 H 418.437 -3.97065 -2.78329 0
M  V30 4265 N 419.78 1.02168 -1.19998 0
M  V30 4266 C 420.69 2.14069 -0.959774 0
M  V30 4267 C 421.706 1.73804 0.082655 0
M  V30 4268 O 422.882 2.01133 -0.103633 0
M  V30 4269 C 419.947 3.42936 -0.509459 0
M  V30 4270 C 419.008 3.97474 -1.62213 0
M  V30 4271 C 418.241 5.2019 -1.19321 0
M  V30 4272 O 418.464 5.70369 -0.0597726 0
M  V30 4273 O 417.398 5.67749 -1.99863 0
M  V30 4274 H 421.224 2.37199 -1.89658 0
M  V30 4275 H 418.809 1.12469 -0.983411 0
M  V30 4276 H 420.691 4.20551 -0.267322 0
M  V30 4277 H 419.366 3.21234 0.398821 0
M  V30 4278 H 418.273 3.21161 -1.9185 0
M  V30 4279 H 419.606 4.23555 -2.50723 0
M  V30 4280 N 421.258 1.00505 1.21394 0
M  V30 4281 C 422.486 0.706609 1.9446 0
M  V30 4282 C 422.901 -0.73081 1.74082 0
M  V30 4283 O 422.258 -1.49446 1.04747 0
M  V30 4284 C 422.309 1.01824 3.46863 0
M  V30 4285 O 422.03 2.39919 3.66566 0
M  V30 4286 C 423.531 0.739216 4.37093 0
M  V30 4287 H 420.751 0.260394 0.618414 0
M  V30 4288 H 423.295 1.34311 1.54211 0
M  V30 4289 H 421.45 0.427343 3.85036 0
M  V30 4290 H 421.864 2.50784 4.6066 0
M  V30 4291 H 423.338 1.00744 5.42729 0
M  V30 4292 H 423.815 -0.326746 4.37983 0
M  V30 4293 H 424.421 1.31173 4.04566 0
M  V30 4294 N 422.737 -1.36956 0.779787 0
M  V30 4295 C 423.67 -2.27896 0.117681 0
M  V30 4296 C 424.648 -1.46736 -0.700523 0
M  V30 4297 O 425.832 -1.76055 -0.673568 0
M  V30 4298 C 422.959 -3.28136 -0.839296 0
M  V30 4299 C 422.005 -4.26373 -0.10409 0
M  V30 4300 S 422.838 -5.2157 1.21348 0
M  V30 4301 C 423.994 -6.25359 0.260249 0
M  V30 4302 H 424.227 -2.83704 0.888778 0
M  V30 4303 H 421.76 -1.43352 0.57355 0
M  V30 4304 H 423.718 -3.86394 -1.38601 0
M  V30 4305 H 422.379 -2.7126 -1.58356 0
M  V30 4306 H 421.572 -4.97121 -0.82986 0
M  V30 4307 H 421.174 -3.72147 0.371858 0
M  V30 4308 H 423.466 -6.75145 -0.564435 0
M  V30 4309 H 424.409 -7.01885 0.936135 0
M  V30 4310 H 424.817 -5.64345 -0.132127 0
M  V30 4311 N 424.215 -0.530993 -1.48385 0
M  V30 4312 C 425.464 0.00474348 -2.01699 0
M  V30 4313 C 425.777 1.35227 -1.41325 0
M  V30 4314 O 426.983 1.97643 -1.86144 0
M  V30 4315 C 425.439 0.0588473 -3.59852 0
M  V30 4316 C 425.047 -1.28385 -4.2921 0
M  V30 4317 C 426.791 0.543358 -4.21008 0
M  V30 4318 C 424.698 -1.19028 -5.79298 0
M  V30 4319 H 423.628 0.00554317 -0.75398 0
M  V30 4320 H 426.279 -0.674924 -1.70637 0
M  V30 4321 H 424.661 0.803612 -3.8776 0
M  V30 4322 H 425.835 -2.04426 -4.12973 0
M  V30 4323 H 424.15 -1.70418 -3.7993 0
M  V30 4324 H 426.747 0.631351 -5.3096 0
M  V30 4325 H 427.09 1.54937 -3.86394 0
M  V30 4326 H 427.623 -0.145754 -3.97533 0
M  V30 4327 H 424.362 -2.17147 -6.18488 0
M  V30 4328 H 423.882 -0.471246 -5.97946 0
M  V30 4329 H 425.561 -0.881365 -6.40969 0
M  V30 4330 N 425.693 1.55336 -0.266172 0
M  V30 4331 C 426.97 1.91372 0.404486 0
M  V30 4332 C 427.35 1.18935 1.74407 0
M  V30 4333 O 426.698 0.3132 2.26343 0
M  V30 4334 C 426.908 3.44581 0.553593 0
M  V30 4335 C 428.256 4.16196 0.840618 0
M  V30 4336 O 429.28 3.50426 0.638739 0
M  V30 4337 O 428.139 5.32567 1.22618 0
M  V30 4338 H 425.233 0.797194 0.220025 0
M  V30 4339 H 427.779 1.66813 -0.311664 0
M  V30 4340 H 426.551 3.89357 -0.389498 0
M  V30 4341 H 426.174 3.75065 1.31955 0
M  V30 4342 N 427.171 -0.0066808 1.57599 0
M  V30 4343 C 428.134 -0.985035 2.06953 0
M  V30 4344 C 429.134 -1.27663 0.977687 0
M  V30 4345 O 430.324 -1.22293 1.24057 0
M  V30 4346 C 427.456 -2.3118 2.50536 0
M  V30 4347 H 428.649 -0.558255 2.94658 0
M  V30 4348 H 426.202 -0.254011 1.54222 0
M  V30 4349 H 426.937 -2.78561 1.66054 0
M  V30 4350 H 426.722 -2.11338 3.3027 0
M  V30 4351 H 428.212 -3.01377 2.8907 0
M  V30 4352 N 428.649 -1.55105 -0.279332 0
M  V30 4353 C 429.579 -1.90557 -1.34945 0
M  V30 4354 C 430.56 -0.766738 -1.51839 0
M  V30 4355 O 431.745 -1.02434 -1.64988 0
M  V30 4356 C 428.875 -2.17193 -2.71006 0
M  V30 4357 C 427.829 -3.33021 -2.68851 0
M  V30 4358 C 427.155 -3.45123 -4.08405 0
M  V30 4359 C 428.455 -4.69578 -2.28678 0
M  V30 4360 H 430.149 -2.80188 -1.05522 0
M  V30 4361 H 427.695 -1.34811 -0.506173 0
M  V30 4362 H 429.648 -2.40581 -3.45975 0
M  V30 4363 H 428.372 -1.24355 -3.01999 0
M  V30 4364 H 427.031 -3.0959 -1.9634 0
M  V30 4365 H 426.679 -2.49762 -4.3661 0
M  V30 4366 H 426.379 -4.22995 -4.07859 0
M  V30 4367 H 427.903 -3.70796 -4.85121 0
M  V30 4368 H 429.317 -4.92553 -2.93368 0
M  V30 4369 H 427.714 -5.5032 -2.39306 0
M  V30 4370 H 428.784 -4.68828 -1.23807 0
M  V30 4371 N 430.127 0.543554 -1.4793 0
M  V30 4372 C 431.09 1.63156 -1.60975 0
M  V30 4373 C 432.09 1.53346 -0.483899 0
M  V30 4374 O 433.28 1.5726 -0.749339 0
M  V30 4375 C 430.412 3.02743 -1.56716 0
M  V30 4376 H 431.605 1.52934 -2.57975 0
M  V30 4377 H 429.158 0.764557 -1.36324 0
M  V30 4378 H 429.893 3.18484 -0.611418 0
M  V30 4379 H 429.678 3.11272 -2.38438 0
M  V30 4380 H 431.168 3.81871 -1.6901 0
M  V30 4381 N 431.605 1.3629 0.791371 0
M  V30 4382 C 432.83 1.33726 1.58531 0
M  V30 4383 C 433.255 -0.0794933 1.87932 0
M  V30 4384 O 432.613 -1.05087 1.47738 0
M  V30 4385 C 432.661 2.16425 2.88431 0
M  V30 4386 O 431.765 1.5554 3.81944 0
M  V30 4387 H 431.106 0.457793 0.480959 0
M  V30 4388 H 433.636 1.79547 0.981031 0
M  V30 4389 H 433.646 2.28933 3.37718 0
M  V30 4390 H 432.321 3.19415 2.66359 0
M  V30 4391 H 430.898 1.51961 3.40532 0
M  V30 4392 N 433.083 -1.0153 1.20538 0
M  V30 4393 C 434.323 -1.76689 1.02763 0
M  V30 4394 C 434.687 -1.87065 -0.432513 0
M  V30 4395 O 435.888 -2.58684 -0.730481 0
M  V30 4396 C 434.159 -3.14707 1.69393 0
M  V30 4397 S 435.718 -4.05886 1.66738 0
M  V30 4398 H 432.536 -0.608076 0.368463 0
M  V30 4399 H 435.138 -1.21558 1.53114 0
M  V30 4400 H 433.842 -3.04782 2.74838 0
M  V30 4401 H 433.373 -3.74913 1.19179 0
M  V30 4402 H 435.388 -4.91221 0.70117 0
M  V30 4403 N 434.561 -1.01147 -1.20859 0
M  V30 4404 C 435.511 -0.548247 -2.2131 0
M  V30 4405 C 436.495 0.393646 -1.5601 0
M  V30 4406 O 437.687 0.217445 -1.75659 0
M  V30 4407 C 434.816 0.117252 -3.431 0
M  V30 4408 C 433.902 -0.846043 -4.15575 0
M  V30 4409 N 434.293 -2.00149 -4.64515 0
M  V30 4410 C 432.591 -0.665783 -4.41003 0
M  V30 4411 C 433.292 -2.60764 -5.19978 0
M  V30 4412 N 432.268 -1.88868 -5.09735 0
M  V30 4413 H 436.07 -1.42921 -2.56809 0
M  V30 4414 H 433.584 -0.876142 -1.36739 0
M  V30 4415 H 435.581 0.46662 -4.1428 0
M  V30 4416 H 434.241 0.994115 -3.09107 0
M  V30 4417 H 435.252 -2.38162 -4.5989 0
M  V30 4418 H 431.929 0.163456 -4.1718 0
M  V30 4419 H 433.319 -3.58519 -5.68255 0
M  V30 4420 N 436.039 1.36541 -0.78704 0
M  V30 4421 C 436.972 2.27831 -0.129765 0
M  V30 4422 C 437.95 1.47105 0.692732 0
M  V30 4423 O 439.134 1.7641 0.664222 0
M  V30 4424 C 436.261 3.28577 0.821883 0
M  V30 4425 C 435.307 4.26422 0.0814771 0
M  V30 4426 S 436.14 5.20919 -1.24112 0
M  V30 4427 C 437.296 6.25212 -0.293409 0
M  V30 4428 H 437.529 2.83229 -0.903811 0
M  V30 4429 H 435.062 1.43046 -0.581144 0
M  V30 4430 H 437.02 3.87123 1.3655 0
M  V30 4431 H 435.681 2.72096 1.56916 0
M  V30 4432 H 434.874 4.97554 0.803485 0
M  V30 4433 H 434.476 3.71944 -0.391589 0
M  V30 4434 H 436.768 6.75435 0.528622 0
M  V30 4435 H 437.711 7.01378 -0.973344 0
M  V30 4436 H 438.119 5.64407 0.102196 0
M  V30 4437 N 437.518 0.538854 1.48102 0
M  V30 4438 C 438.466 -0.232325 2.31437 0
M  V30 4439 C 439.46 -0.927004 1.41785 0
M  V30 4440 O 440.666 -0.850378 1.58646 0
M  V30 4441 H 437.041 -0.0937916 0.746128 0
M  V30 4442 H 439.012 0.489986 2.9435 0
M  V30 4443 C 437.761 -1.26074 3.24038 0
M  V30 4444 H 437.084 -0.735609 3.92974 0
M  V30 4445 H 438.524 -1.77157 3.85216 0
M  V30 4446 C 436.983 -2.29902 2.46265 0
M  V30 4447 O 437.513 -3.36502 2.19384 0
M  V30 4448 N 435.719 -2.03348 2.07601 0
M  V30 4449 H 435.266 -1.16675 2.29662 0
M  V30 4450 H 435.224 -2.73038 1.55877 0
M  V30 4451 N 438.996 -1.55193 0.274407 0
M  V30 4452 C 440.226 -2.03692 -0.345442 0
M  V30 4453 C 440.634 -1.15224 -1.50067 0
M  V30 4454 O 439.977 -0.164749 -1.8296 0
M  V30 4455 C 440.039 -3.48325 -0.88939 0
M  V30 4456 C 439.703 -4.56794 0.137115 0
M  V30 4457 C 440.7 -5.11028 0.956378 0
M  V30 4458 C 438.385 -5.01568 0.27115 0
M  V30 4459 C 440.379 -6.08552 1.89587 0
M  V30 4460 C 438.066 -5.98918 1.21412 0
M  V30 4461 C 439.064 -6.52291 2.02498 0
M  V30 4462 O 438.752 -7.47738 2.952 0
M  V30 4463 H 438.484 -0.670893 -0.0829332 0
M  V30 4464 H 441.038 -2.01387 0.404056 0
M  V30 4465 H 439.268 -3.47867 -1.68895 0
M  V30 4466 H 440.957 -3.80167 -1.42225 0
M  V30 4467 H 441.723 -4.7725 0.863559 0
M  V30 4468 H 437.602 -4.5967 -0.349987 0
M  V30 4469 H 441.146 -6.50137 2.52918 0
M  V30 4470 H 437.043 -6.32114 1.30776 0
M  V30 4471 H 437.811 -7.65451 2.89874 0
M  V30 4472 N 440.474 -0.00167713 -1.576 0
M  V30 4473 C 441.722 0.681471 -1.90264 0
M  V30 4474 C 442.043 1.7422 -0.875924 0
M  V30 4475 O 441.313 1.95709 0.0864412 0
M  V30 4476 H 439.893 0.254696 -0.702239 0
M  V30 4477 H 442.555 -0.0429996 -1.94853 0
M  V30 4478 H 441.651 1.15166 -2.90075 0
M  V30 4479 N 441.952 1.55251 0.271103 0
M  V30 4480 C 443.18 1.79974 1.02064 0
M  V30 4481 C 443.595 0.574003 1.79863 0
M  V30 4482 O 442.952 -0.456962 1.76686 0
M  V30 4483 C 443.003 3.02603 1.97772 0
M  V30 4484 O 442.724 4.20443 1.23124 0
M  V30 4485 C 444.225 3.39944 2.84522 0
M  V30 4486 H 441.445 0.599489 0.301419 0
M  V30 4487 H 443.989 2.02268 0.301313 0
M  V30 4488 H 442.144 2.8243 2.65165 0
M  V30 4489 H 442.558 4.89783 1.87651 0
M  V30 4490 H 444.032 4.28915 3.47471 0
M  V30 4491 H 444.509 2.59432 3.54389 0
M  V30 4492 H 445.115 3.62383 2.22618 0
M  V30 4493 N 443.43 -0.535701 1.48216 0
M  V30 4494 C 444.655 -1.32149 1.59848 0
M  V30 4495 C 445.08 -1.86338 0.256842 0
M  V30 4496 O 444.438 -1.64107 -0.770632 0
M  V30 4497 C 444.486 -2.45224 2.64381 0
M  V30 4498 O 443.59 -3.48093 2.21144 0
M  V30 4499 H 442.931 -0.391634 0.536208 0
M  V30 4500 H 445.461 -0.645202 1.94161 0
M  V30 4501 H 445.471 -2.91491 2.85476 0
M  V30 4502 H 444.146 -2.05143 3.61786 0
M  V30 4503 H 442.723 -3.07984 2.10239 0
M  V30 4504 N 444.908 -1.36708 -0.784132 0
M  V30 4505 C 446.154 -1.31426 -1.54451 0
M  V30 4506 C 446.487 0.10476 -1.93917 0
M  V30 4507 O 445.762 1.05934 -1.6312 0
M  V30 4508 C 446.045 -2.24189 -2.818 0
M  V30 4509 C 445.898 -3.74813 -2.48667 0
M  V30 4510 C 447.217 -2.15626 -3.83658 0
M  V30 4511 H 444.336 -0.478739 -0.560337 0
M  V30 4512 H 446.978 -1.67305 -0.900498 0
M  V30 4513 H 445.128 -1.93722 -3.36755 0
M  V30 4514 H 446.8 -4.15823 -1.99722 0
M  V30 4515 H 445.043 -3.93989 -1.81535 0
M  V30 4516 H 445.714 -4.35138 -3.39646 0
M  V30 4517 H 448.19 -2.42456 -3.38163 0
M  V30 4518 H 447.066 -2.82694 -4.70506 0
M  V30 4519 H 447.327 -1.14522 -4.27009 0
M  V30 4520 N 446.386 1.0089 -1.21074 0
M  V30 4521 C 447.632 1.74866 -1.02712 0
M  V30 4522 C 447.965 1.89178 0.438787 0
M  V30 4523 O 447.24 1.42325 1.32567 0
M  V30 4524 C 447.523 3.16347 -1.72036 0
M  V30 4525 C 447.376 3.09782 -3.26121 0
M  V30 4526 C 448.695 4.15187 -1.45973 0
M  V30 4527 H 445.814 0.634736 -0.374539 0
M  V30 4528 H 448.456 1.17646 -1.49196 0
M  V30 4529 H 446.606 3.65201 -1.32517 0
M  V30 4530 H 448.278 2.68673 -3.74983 0
M  V30 4531 H 446.521 2.46982 -3.56626 0
M  V30 4532 H 447.192 4.09829 -3.6979 0
M  V30 4533 H 449.668 3.75022 -1.80272 0
M  V30 4534 H 448.544 5.12331 -1.96999 0
M  V30 4535 H 448.805 4.40386 -0.388924 0
M  V30 4536 N 447.864 1.01787 1.20321 0
M  V30 4537 C 449.11 0.708985 1.90003 0
M  V30 4538 C 449.443 -0.759572 1.78729 0
M  V30 4539 O 448.718 -1.55198 1.17234 0
M  V30 4540 C 449.001 1.1469 3.41348 0
M  V30 4541 C 448.854 2.67586 3.61549 0
M  V30 4542 C 450.173 0.71915 4.34185 0
M  V30 4543 H 447.292 0.259034 0.689978 0
M  V30 4544 H 449.934 1.26584 1.41692 0
M  V30 4545 H 448.084 0.673128 3.82624 0
M  V30 4546 H 449.756 3.22826 3.29517 0
M  V30 4547 H 447.999 3.085 3.04976 0
M  V30 4548 H 448.67 2.93281 4.67643 0
M  V30 4549 H 451.146 1.12647 4.00562 0
M  V30 4550 H 450.022 1.05358 5.38694 0
M  V30 4551 H 450.283 -0.379111 4.40472 0
M  V30 4552 N 449.342 -1.36122 0.79427 0
M  V30 4553 C 450.59 -1.98718 0.368177 0
M  V30 4554 C 450.911 -1.63345 -1.06506 0
M  V30 4555 O 450.181 -0.909825 -1.73491 0
M  V30 4556 H 448.761 -0.735038 0.133146 0
M  V30 4557 H 451.423 -1.66239 1.01739 0
M  V30 4558 H 450.519 -3.08633 0.463923 0
M  V30 4559 N 450.82 -0.546701 -1.47814 0
M  V30 4560 C 452.066 -0.0187684 -2.02791 0
M  V30 4561 C 452.399 1.32338 -1.42128 0
M  V30 4562 O 451.674 1.85867 -0.573023 0
M  V30 4563 C 451.957 0.0854985 -3.59998 0
M  V30 4564 C 451.81 -1.283 -4.31114 0
M  V30 4565 C 453.129 0.80412 -4.32691 0
M  V30 4566 H 450.248 -0.0082946 -0.736953 0
M  V30 4567 H 452.89 -0.706962 -1.76358 0
M  V30 4568 H 451.04 0.671609 -3.82651 0
M  V30 4569 H 452.712 -1.91151 -4.19832 0
M  V30 4570 H 450.955 -1.86049 -3.91878 0
M  V30 4571 H 451.626 -1.16287 -5.39612 0
M  V30 4572 H 454.102 0.306576 -4.14969 0
M  V30 4573 H 452.978 0.846011 -5.42341 0
M  V30 4574 H 453.239 1.85802 -4.01161 0
M  V30 4575 N 452.299 1.55045 -0.282633 0
M  V30 4576 C 453.71 1.85473 0.213655 0
M  V30 4577 C 454.061 1.20465 1.54863 0
M  V30 4578 O 453.186 0.495676 2.10647 0
M  V30 4579 C 453.781 3.36496 0.394445 0
M  V30 4580 C 452.34 3.67022 0.834961 0
M  V30 4581 C 451.487 2.77218 -0.0674081 0
M  V30 4582 H 454.438 1.50478 -0.504202 0
M  V30 4583 H 454.459 3.60007 1.23186 0
M  V30 4584 H 453.971 3.83782 -0.577326 0
M  V30 4585 H 452.072 3.25241 1.81794 0
M  V30 4586 H 452.185 4.74433 0.667075 0
M  V30 4587 H 450.549 2.5069 0.450196 0
M  V30 4588 H 451.332 3.2732 -1.0352 0
M  V30 4589 N 453.777 0.010035 1.57597 0
M  V30 4590 C 455.188 -0.531426 1.78977 0
M  V30 4591 C 455.539 -1.73375 0.918454 0
M  V30 4592 O 454.664 -2.16047 0.123635 0
M  V30 4593 C 455.259 -0.97086 3.24592 0
M  V30 4594 C 453.818 -1.45756 3.47033 0
M  V30 4595 C 452.965 -0.413384 2.74201 0
M  V30 4596 H 455.916 0.236166 1.56933 0
M  V30 4597 H 455.937 -1.83633 3.33255 0
M  V30 4598 H 455.449 -0.0955893 3.87982 0
M  V30 4599 H 453.55 -2.35339 2.88871 0
M  V30 4600 H 453.663 -1.4781 4.55729 0
M  V30 4601 H 452.027 -0.877266 2.39115 0
M  V30 4602 H 452.81 0.453092 3.40297 0
M  V30 4603 N 455.255 -1.55392 -0.262866 0
M  V30 4604 C 456.48 -1.80847 -1.01533 0
M  V30 4605 C 456.905 -0.584946 -1.78774 0
M  V30 4606 O 456.263 0.465701 -1.75217 0
M  V30 4607 C 456.311 -3.03866 -1.94159 0
M  V30 4608 O 455.415 -2.79662 -3.03089 0
M  V30 4609 H 454.756 -0.597441 -0.289759 0
M  V30 4610 H 457.286 -2.02553 -0.288698 0
M  V30 4611 H 457.296 -3.32872 -2.35924 0
M  V30 4612 H 455.971 -3.92564 -1.37354 0
M  V30 4613 H 454.548 -2.61781 -2.65566 0
M  V30 4614 N 456.733 0.527833 -1.48498 0
M  V30 4615 C 457.696 1.61439 -1.62696 0
M  V30 4616 C 458.696 1.52824 -0.500136 0
M  V30 4617 O 459.886 1.56456 -0.765976 0
M  V30 4618 C 457.018 3.01063 -1.59918 0
M  V30 4619 H 458.211 1.50189 -2.59583 0
M  V30 4620 H 455.764 0.750055 -1.37127 0
M  V30 4621 H 456.499 3.17818 -0.645163 0
M  V30 4622 H 456.284 3.08725 -2.41726 0
M  V30 4623 H 457.774 3.80057 -1.73051 0
M  V30 4624 N 458.211 1.37122 0.776871 0
M  V30 4625 C 459.158 1.3247 1.88998 0
M  V30 4626 C 460.128 0.191143 1.64997 0
M  V30 4627 O 461.313 0.379683 1.86984 0
M  V30 4628 C 458.453 1.13241 3.25992 0
M  V30 4629 C 457.566 2.35782 3.61982 0
M  V30 4630 C 456.701 2.09465 4.88158 0
M  V30 4631 C 455.74 3.279 5.16864 0
M  V30 4632 N 454.877 3.01167 6.34226 0
M  V30 4633 H 459.717 2.27642 1.9231 0
M  V30 4634 H 457.254 1.13125 0.94027 0
M  V30 4635 H 459.212 1.00115 4.0501 0
M  V30 4636 H 457.842 0.217186 3.22069 0
M  V30 4637 H 456.894 2.59666 2.77989 0
M  V30 4638 H 458.206 3.24125 3.79137 0
M  V30 4639 H 457.36 1.93341 5.75069 0
M  V30 4640 H 456.099 1.18452 4.73097 0
M  V30 4641 H 455.104 3.44569 4.2843 0
M  V30 4642 H 456.329 4.19757 5.33836 0
M  V30 4643 H 454.275 2.12779 6.20533 0
M  V30 4644 H 454.192 3.83052 6.51772 0
M  V30 4645 H 455.46 2.88649 7.24087 0
M  V30 4646 N 459.689 -1.00246 1.21608 0
M  V30 4647 C 460.622 -2.08794 0.920892 0
M  V30 4648 C 461.6 -1.62059 -0.132552 0
M  V30 4649 O 462.784 -1.885 -0.0030366 0
M  V30 4650 C 459.911 -3.36525 0.383226 0
M  V30 4651 C 458.957 -4.02172 1.41987 0
M  V30 4652 S 459.79 -4.44256 2.98994 0
M  V30 4653 C 460.946 -5.7517 2.4684 0
M  V30 4654 H 461.179 -2.33511 1.8401 0
M  V30 4655 H 458.712 -1.13562 1.04609 0
M  V30 4656 H 460.67 -4.10423 0.0795871 0
M  V30 4657 H 459.331 -3.09854 -0.514711 0
M  V30 4658 H 458.524 -4.94114 0.993335 0
M  V30 4659 H 458.126 -3.34559 1.67171 0
M  V30 4660 H 460.418 -6.51042 1.87484 0
M  V30 4661 H 461.361 -6.22638 3.37235 0
M  V30 4662 H 461.769 -5.32112 1.88461 0
M  V30 4663 N 461.167 -1.02423 -1.1978 0
M  V30 4664 C 462.097 -0.62157 -2.25075 0
M  V30 4665 C 463.078 0.367148 -1.6609 0
M  V30 4666 O 464.263 0.250892 -1.92573 0
M  V30 4667 C 461.393 0.0331826 -3.47284 0
M  V30 4668 C 460.347 -0.877323 -4.18912 0
M  V30 4669 C 459.673 -0.0879296 -5.34628 0
M  V30 4670 C 460.973 -2.18892 -4.74219 0
M  V30 4671 H 462.667 -1.50179 -2.59011 0
M  V30 4672 H 460.213 -0.723547 -1.24502 0
M  V30 4673 H 462.166 0.326488 -4.20133 0
M  V30 4674 H 460.89 0.948164 -3.12534 0
M  V30 4675 H 459.549 -1.15475 -3.47938 0
M  V30 4676 H 459.197 0.828941 -4.96123 0
M  V30 4677 H 458.897 -0.694359 -5.83483 0
M  V30 4678 H 460.421 0.198743 -6.10276 0
M  V30 4679 H 461.835 -1.95746 -5.38847 0
M  V30 4680 H 460.232 -2.74686 -5.33542 0
M  V30 4681 H 461.302 -2.84674 -3.92541 0
M  V30 4682 N 462.645 1.35699 -0.801477 0
M  V30 4683 C 463.873 2.03157 -0.391768 0
M  V30 4684 C 464.288 1.60412 0.995668 0
M  V30 4685 O 463.645 0.799228 1.64069 0
M  V30 4686 C 463.696 3.58566 -0.459671 0
M  V30 4687 O 463.417 3.99756 -1.7924 0
M  V30 4688 C 464.918 4.4328 -0.0421205 0
M  V30 4689 H 462.138 0.651688 -0.159825 0
M  V30 4690 H 464.682 1.73426 -1.08368 0
M  V30 4691 H 462.837 3.86963 0.183939 0
M  V30 4692 H 463.251 4.94387 -1.75162 0
M  V30 4693 H 464.725 5.51821 -0.140754 0
M  V30 4694 H 465.202 4.27383 1.01196 0
M  V30 4695 H 465.808 4.20168 -0.658687 0
M  V30 4696 N 464.123 0.554532 1.47522 0
M  V30 4697 C 465.353 0.0342074 2.06572 0
M  V30 4698 C 465.761 -1.26375 1.40805 0
M  V30 4699 O 465.104 -1.7683 0.49769 0
M  V30 4700 C 465.166 -0.235096 3.5873 0
M  V30 4701 C 464.83 0.973024 4.46521 0
M  V30 4702 C 465.827 1.8779 4.848 0
M  V30 4703 C 463.512 1.18694 4.88075 0
M  V30 4704 C 465.506 2.98039 5.63428 0
M  V30 4705 C 463.193 2.29254 5.66468 0
M  V30 4706 C 464.191 3.18757 6.04055 0
M  V30 4707 O 463.879 4.27401 6.8087 0
M  V30 4708 H 463.611 0.041587 0.67472 0
M  V30 4709 H 466.165 0.766748 1.90552 0
M  V30 4710 H 464.395 -1.02191 3.72953 0
M  V30 4711 H 466.084 -0.700477 3.9981 0
M  V30 4712 H 466.85 1.72467 4.53299 0
M  V30 4713 H 462.729 0.49947 4.58286 0
M  V30 4714 H 466.273 3.67926 5.92685 0
M  V30 4715 H 462.17 2.4455 5.97382 0
M  V30 4716 H 462.938 4.25415 6.9926 0
M  V30 4717 N 465.601 -1.54893 0.290851 0
M  V30 4718 C 466.878 -1.91991 -0.373989 0
M  V30 4719 C 467.258 -1.21694 -1.72493 0
M  V30 4720 O 466.606 -0.34917 -2.25816 0
M  V30 4721 C 466.816 -3.45419 -0.498703 0
M  V30 4722 C 468.164 -4.1748 -0.774298 0
M  V30 4723 O 469.188 -3.51398 -0.582908 0
M  V30 4724 O 468.047 -5.3445 -1.14129 0
M  V30 4725 H 465.141 -0.800593 -0.207315 0
M  V30 4726 H 467.687 -1.66297 0.338164 0
M  V30 4727 H 466.459 -3.88688 0.451392 0
M  V30 4728 H 466.082 -3.77117 -1.25972 0
M  V30 4729 N 467.08 -0.0183926 -1.57589 0
M  V30 4730 C 468.491 0.521927 -1.79256 0
M  V30 4731 C 468.842 1.72885 -0.927636 0
M  V30 4732 O 467.967 2.15978 -0.135091 0
M  V30 4733 C 468.562 0.953632 -3.25102 0
M  V30 4734 C 467.121 1.43913 -3.47801 0
M  V30 4735 C 466.268 0.398837 -2.74417 0
M  V30 4736 H 469.219 -0.244485 -1.56805 0
M  V30 4737 H 469.24 1.81863 -3.34224 0
M  V30 4738 H 468.752 0.0750123 -3.88028 0
M  V30 4739 H 466.853 2.33804 -2.90115 0
M  V30 4740 H 466.966 1.45391 -4.56507 0
M  V30 4741 H 465.33 0.864572 -2.39577 0
M  V30 4742 H 466.113 -0.471132 -3.40052 0
M  V30 4743 N 468.558 1.5553 0.254621 0
M  V30 4744 C 469.491 1.84624 1.34124 0
M  V30 4745 C 470.469 0.700693 1.46728 0
M  V30 4746 O 471.653 0.94564 1.63064 0
M  V30 4747 C 468.78 2.02412 2.71564 0
M  V30 4748 C 467.826 3.25028 2.7615 0
M  V30 4749 S 468.659 4.81893 2.33538 0
M  V30 4750 C 469.815 5.02677 3.72917 0
M  V30 4751 H 470.048 2.76501 1.09245 0
M  V30 4752 H 467.581 1.47537 0.455211 0
M  V30 4753 H 469.539 2.13345 3.50705 0
M  V30 4754 H 468.2 1.11391 2.93685 0
M  V30 4755 H 467.393 3.34418 3.77069 0
M  V30 4756 H 466.995 3.12781 2.05046 0
M  V30 4757 H 469.287 4.89546 4.68349 0
M  V30 4758 H 470.23 6.0468 3.68467 0
M  V30 4759 H 470.638 4.30561 3.65072 0
M  V30 4760 N 470.036 -0.519951 1.48776 0
M  V30 4761 C 470.966 -1.63253 1.66945 0
M  V30 4762 C 471.947 -1.62014 0.518224 0
M  V30 4763 O 473.132 -1.79053 0.751919 0
M  V30 4764 C 470.262 -3.0181 1.71836 0
M  V30 4765 C 469.216 -3.17911 2.8656 0
M  V30 4766 C 468.542 -4.5763 2.76548 0
M  V30 4767 C 469.842 -2.99729 4.27738 0
M  V30 4768 H 471.536 -1.48302 2.6009 0
M  V30 4769 H 469.082 -0.712026 1.25165 0
M  V30 4770 H 471.035 -3.79525 1.83135 0
M  V30 4771 H 469.759 -3.17806 0.752775 0
M  V30 4772 H 468.418 -2.42616 2.74833 0
M  V30 4773 H 468.066 -4.70476 1.77937 0
M  V30 4774 H 467.766 -4.69346 3.53536 0
M  V30 4775 H 469.29 -5.37431 2.89828 0
M  V30 4776 H 470.704 -3.67228 4.40246 0
M  V30 4777 H 469.101 -3.22932 5.05801 0
M  V30 4778 H 470.171 -1.96047 4.43502 0
M  V30 4779 N 471.514 -1.37532 -0.769588 0
M  V30 4780 C 472.444 -1.36172 -1.89682 0
M  V30 4781 C 473.425 -0.23001 -1.68538 0
M  V30 4782 O 474.61 -0.43069 -1.89364 0
M  V30 4783 C 471.74 -1.1701 -3.26995 0
M  V30 4784 C 470.694 -2.27216 -3.62708 0
M  V30 4785 C 470.02 -1.93174 -4.98586 0
M  V30 4786 C 471.32 -3.6941 -3.69234 0
M  V30 4787 H 473.014 -2.30499 -1.91078 0
M  V30 4788 H 470.56 -1.10953 -0.917902 0
M  V30 4789 H 472.513 -1.14688 -4.05493 0
M  V30 4790 H 471.237 -0.191395 -3.26039 0
M  V30 4791 H 469.896 -2.28697 -2.86519 0
M  V30 4792 H 469.544 -0.938281 -4.94171 0
M  V30 4793 H 469.244 -2.66973 -5.23449 0
M  V30 4794 H 470.768 -1.92443 -5.79481 0
M  V30 4795 H 472.182 -3.70047 -4.37879 0
M  V30 4796 H 470.579 -4.4228 -4.05597 0
M  V30 4797 H 471.649 -4.0288 -2.69844 0
M  V30 4798 N 472.992 0.995999 -1.22138 0
M  V30 4799 C 474.239 1.7351 -1.04406 0
M  V30 4800 C 474.567 1.89884 0.421244 0
M  V30 4801 O 473.822 1.43683 1.32867 0
M  V30 4802 C 474.121 3.14553 -1.6968 0
M  V30 4803 C 473.787 3.18102 -3.19565 0
M  V30 4804 C 472.449 3.18778 -3.60464 0
M  V30 4805 C 474.801 3.14636 -4.15516 0
M  V30 4806 C 472.129 3.13684 -4.95801 0
M  V30 4807 C 474.481 3.11084 -5.50826 0
M  V30 4808 C 473.145 3.10074 -5.91109 0
M  V30 4809 H 472.415 0.634916 -0.38205 0
M  V30 4810 H 475.062 1.1667 -1.51857 0
M  V30 4811 H 473.367 3.74682 -1.14546 0
M  V30 4812 H 475.064 3.70477 -1.53454 0
M  V30 4813 H 471.654 3.18324 -2.86998 0
M  V30 4814 H 475.838 3.13266 -3.84939 0
M  V30 4815 H 471.094 3.11245 -5.26247 0
M  V30 4816 H 475.268 3.07357 -6.24904 0
M  V30 4817 H 472.895 3.05882 -6.95946 0
M  V30 4818 N 474.47 1.03057 1.19235 0
M  V30 4819 C 475.698 0.747697 1.92917 0
M  V30 4820 C 476.113 -0.69372 1.75593 0
M  V30 4821 O 475.47 -1.47191 1.07894 0
M  V30 4822 C 475.521 1.09159 3.44625 0
M  V30 4823 O 475.242 2.47641 3.61394 0
M  V30 4824 C 476.743 0.831763 4.35427 0
M  V30 4825 H 473.963 0.273453 0.612751 0
M  V30 4826 H 476.507 1.37552 1.51327 0
M  V30 4827 H 474.662 0.508919 3.84043 0
M  V30 4828 H 475.076 2.60499 4.55237 0
M  V30 4829 H 476.55 1.12233 5.4047 0
M  V30 4830 H 477.027 -0.233769 4.38577 0
M  V30 4831 H 477.633 1.39725 4.01693 0
M  V30 4832 N 475.948 -1.35272 0.808662 0
M  V30 4833 C 477.196 -1.98316 0.389233 0
M  V30 4834 C 477.517 -1.64465 -1.04767 0
M  V30 4835 O 476.787 -0.928175 -1.72516 0
M  V30 4836 H 475.367 -0.733585 0.140935 0
M  V30 4837 H 478.029 -1.6515 1.03496 0
M  V30 4838 H 477.125 -3.08123 0.496631 0
M  V30 4839 N 477.426 -0.562348 -1.47226 0
M  V30 4840 C 478.842 -0.222492 -1.58042 0
M  V30 4841 C 479.042 1.27505 -1.56028 0
M  V30 4842 O 478.098 2.05555 -1.46641 0
M  V30 4843 C 479.411 -0.853694 -2.88327 0
M  V30 4844 C 480.959 -0.825397 -3.01921 0
M  V30 4845 C 481.434 -1.43576 -4.34914 0
M  V30 4846 N 482.925 -1.39918 -4.41562 0
M  V30 4847 C 483.66 -1.84103 -5.43041 0
M  V30 4848 N 483.156 -2.36167 -6.51304 0
M  V30 4849 N 484.949 -1.75142 -5.34118 0
M  V30 4850 H 477.1 -1.53525 -1.46778 0
M  V30 4851 H 479.363 -0.640527 -0.698877 0
M  V30 4852 H 479.069 -1.90635 -2.95552 0
M  V30 4853 H 478.943 -0.34977 -3.75575 0
M  V30 4854 H 481.33 0.218583 -2.94289 0
M  V30 4855 H 481.411 -1.36713 -2.16202 0
M  V30 4856 H 481.055 -2.47884 -4.43301 0
M  V30 4857 H 480.985 -0.869427 -5.19373 0
M  V30 4858 H 483.476 -1.0184 -3.63919 0
M  V30 4859 H 483.789 -2.67793 -7.24919 0
M  V30 4860 H 482.134 -2.40181 -6.52179 0
M  V30 4861 H 485.325 -1.34241 -4.48439 0
M  V30 4862 H 485.498 -2.09895 -6.13065 0
M  V30 4863 N 478.904 1.54736 -0.299062 0
M  V30 4864 C 480.132 2.04512 0.313447 0
M  V30 4865 C 480.547 1.17643 1.47667 0
M  V30 4866 O 479.904 0.20164 1.81383 0
M  V30 4867 C 479.955 3.53171 0.771542 0
M  V30 4868 O 479.676 4.36736 -0.345379 0
M  V30 4869 C 481.177 4.18936 1.4494 0
M  V30 4870 H 478.397 0.667507 0.0683784 0
M  V30 4871 H 480.941 1.99752 -0.438129 0
M  V30 4872 H 479.096 3.58298 1.47314 0
M  V30 4873 H 479.51 5.24499 0.0109219 0
M  V30 4874 H 480.984 5.24482 1.72111 0
M  V30 4875 H 481.461 3.68554 2.38883 0
M  V30 4876 H 482.067 4.17879 0.791028 0
M  V30 4877 N 480.382 0.0267497 1.57577 0
M  V30 4878 C 481.628 -0.647596 1.92815 0
M  V30 4879 C 481.983 -1.69872 0.903396 0
M  V30 4880 O 481.276 -1.91429 -0.0808881 0
M  V30 4881 C 481.47 -1.30914 3.3256 0
M  V30 4882 C 481.299 -0.323621 4.48534 0
M  V30 4883 C 480.069 0.0756607 5.05243 0
M  V30 4884 C 482.267 0.42112 5.12573 0
M  V30 4885 N 480.249 1.0566 6.04739 0
M  V30 4886 C 481.62 1.25589 6.07147 0
M  V30 4887 C 483.675 0.482077 4.95561 0
M  V30 4888 C 482.378 2.1461 6.86538 0
M  V30 4889 C 484.404 1.35962 5.75559 0
M  V30 4890 C 483.766 2.18217 6.69747 0
M  V30 4891 H 479.865 -0.209357 0.753454 0
M  V30 4892 H 482.449 0.0933695 1.94476 0
M  V30 4893 H 480.62 -2.02026 3.31723 0
M  V30 4894 H 482.352 -1.94033 3.55153 0
M  V30 4895 H 479.107 -0.298294 4.7266 0
M  V30 4896 H 479.531 1.54324 6.59176 0
M  V30 4897 H 484.173 -0.139609 4.22569 0
M  V30 4898 H 481.891 2.77835 7.58837 0
M  V30 4899 H 485.477 1.41105 5.6443 0
M  V30 4900 H 484.357 2.85022 7.3057 0
M  V30 4901 N 481.861 -1.55662 -0.24637 0
M  V30 4902 C 482.808 -1.90361 -1.30504 0
M  V30 4903 C 483.778 -0.757905 -1.47801 0
M  V30 4904 O 484.963 -1.01161 -1.61775 0
M  V30 4905 C 482.103 -2.2042 -2.65535 0
M  V30 4906 C 481.216 -3.47799 -2.56242 0
M  V30 4907 C 480.351 -3.67426 -3.8363 0
M  V30 4908 C 479.39 -4.88403 -3.68956 0
M  V30 4909 N 478.527 -5.04548 -4.88237 0
M  V30 4910 H 483.367 -2.80645 -1.00213 0
M  V30 4911 H 480.904 -1.38924 -0.483577 0
M  V30 4912 H 482.862 -2.35853 -3.44135 0
M  V30 4913 H 481.492 -1.3334 -2.93973 0
M  V30 4914 H 480.544 -3.40694 -1.69208 0
M  V30 4915 H 481.856 -4.36544 -2.4131 0
M  V30 4916 H 481.01 -3.82821 -4.70673 0
M  V30 4917 H 479.749 -2.76914 -4.01459 0
M  V30 4918 H 478.754 -4.72984 -2.80296 0
M  V30 4919 H 479.979 -5.80375 -3.52621 0
M  V30 4920 H 477.925 -4.16974 -5.06427 0
M  V30 4921 H 477.842 -5.87384 -4.75937 0
M  V30 4922 H 479.11 -5.24355 -5.76777 0
M  V30 4923 N 483.339 0.512053 -1.4905 0
M  V30 4924 C 484.587 1.26436 -1.57665 0
M  V30 4925 C 484.908 1.93255 -0.260293 0
M  V30 4926 O 484.178 1.82206 0.719564 0
M  V30 4927 H 482.758 0.469658 -0.580888 0
M  V30 4928 H 485.42 0.594398 -1.85615 0
M  V30 4929 H 484.516 2.03417 -2.36702 0
M  V30 4930 N 484.817 1.37938 0.762283 0
M  V30 4931 C 486.057 1.35076 1.53407 0
M  V30 4932 C 486.421 -0.061546 1.91901 0
M  V30 4933 O 487.622 -0.214973 2.67939 0
M  V30 4934 C 485.893 2.27206 2.75884 0
M  V30 4935 S 487.452 2.42283 3.65848 0
M  V30 4936 H 484.27 0.479387 0.52508 0
M  V30 4937 H 486.872 1.7378 0.895586 0
M  V30 4938 H 485.576 3.28724 2.457 0
M  V30 4939 H 485.107 1.8962 3.44685 0
M  V30 4940 H 487.122 1.64044 4.68299 0
M  V30 4941 N 486.295 -0.989507 1.22664 0
M  V30 4942 C 487.541 -1.7321 1.05481 0
M  V30 4943 C 487.874 -1.89852 -0.408635 0
M  V30 4944 O 487.149 -1.44416 -1.30285 0
M  V30 4945 C 487.432 -3.1357 1.77047 0
M  V30 4946 C 487.285 -3.04555 3.31008 0
M  V30 4947 C 488.604 -4.12812 1.5256 0
M  V30 4948 H 485.723 -0.628697 0.384589 0
M  V30 4949 H 488.365 -1.15258 1.51049 0
M  V30 4950 H 486.515 -3.63046 1.3831 0
M  V30 4951 H 488.187 -2.62674 3.7921 0
M  V30 4952 H 486.43 -2.41278 3.6051 0
M  V30 4953 H 487.101 -4.03894 3.76263 0
M  V30 4954 H 489.577 -3.72106 1.86215 0
M  V30 4955 H 488.453 -5.09132 2.05124 0
M  V30 4956 H 488.714 -4.39711 0.458936 0
M  V30 4957 N 487.773 -1.03688 -1.18687 0
M  V30 4958 C 489.02 -0.73803 -1.88572 0
M  V30 4959 C 489.348 0.733973 -1.8012 0
M  V30 4960 O 488.603 1.55098 -1.19344 0
M  V30 4961 C 488.902 -1.14477 -3.3857 0
M  V30 4962 C 488.568 -2.61641 -3.67226 0
M  V30 4963 C 487.23 -3.01846 -3.74757 0
M  V30 4964 C 489.582 -3.56812 -3.79914 0
M  V30 4965 C 486.91 -4.36118 -3.92451 0
M  V30 4966 C 489.262 -4.90799 -3.99123 0
M  V30 4967 C 487.926 -5.3068 -4.04888 0
M  V30 4968 H 487.196 -0.270064 -0.690034 0
M  V30 4969 H 489.843 -1.3012 -1.40503 0
M  V30 4970 H 488.148 -0.500337 -3.88592 0
M  V30 4971 H 489.845 -0.89095 -3.90977 0
M  V30 4972 H 486.435 -2.29498 -3.61979 0
M  V30 4973 H 490.619 -3.26899 -3.73431 0
M  V30 4974 H 485.875 -4.66542 -3.95157 0
M  V30 4975 H 490.049 -5.64451 -4.07882 0
M  V30 4976 H 487.676 -6.34733 -4.18351 0
M  V30 4977 N 489.251 1.34841 -0.815825 0
M  V30 4978 C 490.499 1.98107 -0.399744 0
M  V30 4979 C 490.82 1.65019 1.03894 0
M  V30 4980 O 490.09 0.937311 1.72021 0
M  V30 4981 H 488.67 0.732827 -0.144823 0
M  V30 4982 H 491.332 1.64599 -1.0437 0
M  V30 4983 H 490.428 3.07856 -0.512965 0
M  V30 4984 N 490.729 0.570148 1.46925 0
M  V30 4985 C 491.977 0.0508523 2.02036 0
M  V30 4986 C 492.298 -1.30885 1.44548 0
M  V30 4987 O 491.568 -1.85647 0.625453 0
M  V30 4988 H 490.148 0.0158088 0.746833 0
M  V30 4989 H 492.81 0.743086 1.80178 0
M  V30 4990 H 491.906 -0.027575 3.12088 0
M  V30 4991 N 492.207 -1.54576 0.307264 0
M  V30 4992 C 493.137 -2.26708 -0.55907 0
M  V30 4993 C 494.118 -1.26893 -1.1328 0
M  V30 4994 O 495.303 -1.55677 -1.16097 0
M  V30 4995 C 492.433 -3.01259 -1.72801 0
M  V30 4996 C 491.387 -4.08275 -1.28435 0
M  V30 4997 C 490.713 -4.70575 -2.53895 0
M  V30 4998 C 492.013 -5.2068 -0.411038 0
M  V30 4999 H 493.707 -2.9937 0.042576 0
M  V30 5000 H 491.253 -1.43983 0.0219173 0
M  V30 5001 H 493.206 -3.50444 -2.34023 0
M  V30 5002 H 491.93 -2.26187 -2.356 0
M  V30 5003 H 490.589 -3.59949 -0.695161 0
M  V30 5004 H 490.237 -3.92136 -3.15021 0
M  V30 5005 H 489.937 -5.42854 -2.24908 0
M  V30 5006 H 491.461 -5.22527 -3.15908 0
M  V30 5007 H 492.875 -5.65721 -0.929097 0
M  V30 5008 H 491.272 -5.99716 -0.214664 0
M  V30 5009 H 492.342 -4.81629 0.562287 0
M  V30 5010 N 493.685 -0.035106 -1.57561 0
M  V30 5011 C 494.632 0.94474 -2.10578 0
M  V30 5012 C 495.602 1.3192 -1.00927 0
M  V30 5013 O 496.787 1.41147 -1.28382 0
M  V30 5014 C 493.927 2.21982 -2.64231 0
M  V30 5015 C 493.04 1.90128 -3.87911 0
M  V30 5016 C 492.175 3.11975 -4.29936 0
M  V30 5017 C 491.214 2.75968 -5.46359 0
M  V30 5018 N 490.351 3.90459 -5.83512 0
M  V30 5019 H 495.191 0.485717 -2.94015 0
M  V30 5020 H 492.728 0.228143 -1.4532 0
M  V30 5021 H 494.686 2.96572 -2.9343 0
M  V30 5022 H 493.316 2.6549 -1.83616 0
M  V30 5023 H 492.368 1.05755 -3.65404 0
M  V30 5024 H 493.68 1.59613 -4.72573 0
M  V30 5025 H 492.834 3.9488 -4.60603 0
M  V30 5026 H 491.573 3.45657 -3.44053 0
M  V30 5027 H 490.578 1.91478 -5.1538 0
M  V30 5028 H 491.803 2.43497 -6.33945 0
M  V30 5029 H 489.749 4.23971 -5.00584 0
M  V30 5030 H 489.666 3.63588 -6.62827 0
M  V30 5031 H 490.934 4.7405 -6.18787 0
M  V30 5032 N 495.163 1.55791 0.238111 0
M  V30 5033 C 496.388 1.8244 0.986432 0
M  V30 5034 C 496.813 0.613314 1.7782 0
M  V30 5035 O 496.171 -0.437767 1.75935 0
M  V30 5036 C 496.219 3.06917 1.893 0
M  V30 5037 O 495.323 2.84449 2.98601 0
M  V30 5038 H 494.664 0.601975 0.280218 0
M  V30 5039 H 497.194 2.02987 0.256437 0
M  V30 5040 H 497.204 3.36583 2.30598 0
M  V30 5041 H 495.879 3.947 1.31091 0
M  V30 5042 H 494.456 2.65972 2.61368 0
M  V30 5043 N 496.642 -0.504142 1.49319 0
M  V30 5044 C 498.058 -0.835039 1.36012 0
M  V30 5045 C 498.258 -1.97674 0.390808 0
M  V30 5046 O 497.314 -2.51867 -0.178655 0
M  V30 5047 C 498.627 -1.17821 2.76656 0
M  V30 5048 C 500.175 -1.2866 2.85334 0
M  V30 5049 C 500.65 -1.66307 4.26739 0
M  V30 5050 N 502.141 -1.73362 4.29534 0
M  V30 5051 C 502.876 -2.0393 5.35911 0
M  V30 5052 N 502.372 -2.32744 6.52535 0
M  V30 5053 N 504.165 -2.05155 5.23324 0
M  V30 5054 H 496.316 0.248764 2.10938 0
M  V30 5055 H 498.579 0.0486962 0.946748 0
M  V30 5056 H 498.285 -0.412682 3.4927 0
M  V30 5057 H 498.159 -2.12239 3.11825 0
M  V30 5058 H 500.546 -2.04285 2.1296 0
M  V30 5059 H 500.627 -0.323004 2.53752 0
M  V30 5060 H 500.271 -0.91234 4.99639 0
M  V30 5061 H 500.201 -2.63761 4.55782 0
M  V30 5062 H 502.692 -1.53268 3.45424 0
M  V30 5063 H 503.005 -2.55248 7.2943 0
M  V30 5064 H 501.35 -2.30207 6.55767 0
M  V30 5065 H 504.541 -1.82119 4.3122 0
M  V30 5066 H 504.714 -2.28644 6.06322 0
M  V30 5067 N 498.12 -1.38341 -0.754957 0
M  V30 5068 C 499.397 -1.24995 -1.50451 0
M  V30 5069 C 499.777 0.149244 -2.10572 0
M  V30 5070 O 499.125 1.15861 -1.96948 0
M  V30 5071 C 499.335 -2.35904 -2.57197 0
M  V30 5072 C 500.683 -2.74262 -3.24138 0
M  V30 5073 O 501.707 -2.35205 -2.67501 0
M  V30 5074 O 500.566 -3.4161 -4.26574 0
M  V30 5075 H 497.66 -0.48872 -0.667144 0
M  V30 5076 H 500.206 -1.50165 -0.790486 0
M  V30 5077 H 498.978 -3.2953 -2.11011 0
M  V30 5078 H 498.601 -2.12291 -3.36182 0
M  V30 5079 N 499.598 0.982988 -1.23187 0
M  V30 5080 C 500.875 1.69814 -0.970707 0
M  V30 5081 C 501.255 2.04811 0.511424 0
M  V30 5082 O 500.603 1.73924 1.48198 0
M  V30 5083 C 500.813 2.94143 -1.87831 0
M  V30 5084 C 502.161 3.66712 -2.14026 0
M  V30 5085 O 503.185 3.04171 -1.8536 0
M  V30 5086 O 502.044 4.79258 -2.62629 0
M  V30 5087 H 499.138 0.741659 -0.365884 0
M  V30 5088 H 501.684 1.03844 -1.34218 0
M  V30 5089 H 500.456 2.64858 -2.88038 0
M  V30 5090 H 500.079 3.6785 -1.50905 0
M  V30 5091 N 501.076 1.04316 1.18135 0
M  V30 5092 C 502.322 0.749128 1.88457 0
M  V30 5093 C 502.655 -0.72149 1.803 0
M  V30 5094 O 501.93 -1.52676 1.205 0
M  V30 5095 C 502.213 1.21905 3.38838 0
M  V30 5096 C 502.066 2.75195 3.55792 0
M  V30 5097 C 503.385 0.811085 4.32561 0
M  V30 5098 H 500.504 0.273611 0.684329 0
M  V30 5099 H 503.146 1.29561 1.38975 0
M  V30 5100 H 501.296 0.754137 3.8111 0
M  V30 5101 H 502.968 3.29743 3.22595 0
M  V30 5102 H 501.211 3.14899 2.98364 0
M  V30 5103 H 501.882 3.03135 4.61317 0
M  V30 5104 H 504.358 1.21118 3.98082 0
M  V30 5105 H 503.234 1.16761 5.36338 0
M  V30 5106 H 503.495 -0.285596 4.41177 0
M  V30 5107 N 502.554 -1.34406 0.822964 0
M  V30 5108 C 503.965 -1.8069 0.469879 0
M  V30 5109 C 504.316 -1.68223 -1.00972 0
M  V30 5110 O 503.441 -1.22226 -1.78577 0
M  V30 5111 C 504.036 -3.28064 0.846118 0
M  V30 5112 C 502.595 -3.72428 0.545402 0
M  V30 5113 C 501.742 -2.56116 1.06301 0
M  V30 5114 H 504.693 -1.22153 1.01313 0
M  V30 5115 H 504.714 -3.80205 0.149922 0
M  V30 5116 H 504.226 -3.37107 1.92304 0
M  V30 5117 H 502.327 -3.68924 -0.522109 0
M  V30 5118 H 502.44 -4.66548 1.0895 0
M  V30 5119 H 500.804 -2.50048 0.484554 0
M  V30 5120 H 501.587 -2.67928 2.14638 0
M  V30 5121 N 504.032 -0.577932 -1.46621 0
M  V30 5122 C 504.979 0.158048 -2.30258 0
M  V30 5123 C 505.949 0.888669 -1.40328 0
M  V30 5124 O 507.134 0.880283 -1.6928 0
M  V30 5125 C 504.274 1.16884 -3.24703 0
M  V30 5126 C 503.387 0.442163 -4.29731 0
M  V30 5127 C 502.522 1.44007 -5.11308 0
M  V30 5128 C 501.561 0.69952 -6.0809 0
M  V30 5129 N 500.698 1.64525 -6.82551 0
M  V30 5130 H 505.538 -0.561242 -2.92667 0
M  V30 5131 H 503.075 -0.288591 -1.44241 0
M  V30 5132 H 505.033 1.7677 -3.779 0
M  V30 5133 H 503.663 1.85591 -2.64113 0
M  V30 5134 H 502.715 -0.271632 -3.79429 0
M  V30 5135 H 504.027 -0.136992 -4.98612 0
M  V30 5136 H 503.181 2.11186 -5.68758 0
M  V30 5137 H 501.92 2.05315 -4.42377 0
M  V30 5138 H 500.925 0.0139217 -5.49798 0
M  V30 5139 H 502.15 0.091894 -6.79038 0
M  V30 5140 H 500.096 2.24653 -6.16334 0
M  V30 5141 H 500.013 1.11878 -7.47676 0
M  V30 5142 H 501.281 2.30754 -7.44562 0
M  V30 5143 N 505.51 1.54411 -0.315457 0
M  V30 5144 C 506.44 2.27002 0.547039 0
M  V30 5145 C 507.421 1.27492 1.12605 0
M  V30 5146 O 508.606 1.5629 1.15269 0
M  V30 5147 C 505.736 3.02171 1.71201 0
M  V30 5148 C 504.69 4.0895 1.26268 0
M  V30 5149 C 504.016 4.71915 2.51396 0
M  V30 5150 C 505.316 5.20891 0.383419 0
M  V30 5151 H 507.01 2.99343 -0.0584517 0
M  V30 5152 H 504.556 1.4397 -0.0295527 0
M  V30 5153 H 506.509 3.51681 2.32161 0
M  V30 5154 H 505.233 2.27433 2.34397 0
M  V30 5155 H 503.892 3.60312 0.676062 0
M  V30 5156 H 503.54 3.93801 3.12937 0
M  V30 5157 H 503.24 5.44039 2.22026 0
M  V30 5158 H 504.764 5.24195 3.13133 0
M  V30 5159 H 506.178 5.66206 0.899082 0
M  V30 5160 H 504.575 5.99821 0.182857 0
M  V30 5161 H 505.645 4.81324 -0.587821 0
M  V30 5162 N 506.988 0.0434614 1.5754 0
M  V30 5163 C 508.234 -0.632971 1.92669 0
M  V30 5164 C 508.567 -1.70947 0.921446 0
M  V30 5165 O 507.842 -1.94426 -0.0537202 0
M  V30 5166 C 508.125 -1.23619 3.38216 0
M  V30 5167 C 507.978 -0.168274 4.49485 0
M  V30 5168 C 509.297 -2.15008 3.84005 0
M  V30 5169 H 506.416 -0.228629 0.700641 0
M  V30 5170 H 509.058 0.103651 1.89717 0
M  V30 5171 H 507.208 -1.864 3.40863 0
M  V30 5172 H 508.88 0.463196 4.58969 0
M  V30 5173 H 507.123 0.504581 4.30855 0
M  V30 5174 H 507.794 -0.630218 5.48391 0
M  V30 5175 H 510.27 -1.62198 3.83185 0
M  V30 5176 H 509.146 -2.54161 4.86511 0
M  V30 5177 H 509.407 -3.04707 3.20322 0
M  V30 5178 N 508.466 -1.55915 -0.229846 0
M  V30 5179 C 509.694 -1.82617 -0.972562 0
M  V30 5180 C 510.109 -0.621488 -1.78278 0
M  V30 5181 O 509.466 0.409956 -1.77836 0
M  V30 5182 C 509.517 -3.0774 -1.89679 0
M  V30 5183 O 509.238 -4.23559 -1.11934 0
M  V30 5184 C 510.739 -3.47368 -2.75409 0
M  V30 5185 H 507.959 -0.60727 -0.285419 0
M  V30 5186 H 510.503 -2.02996 -0.247579 0
M  V30 5187 H 508.658 -2.89361 -2.57583 0
M  V30 5188 H 509.072 -4.94586 -1.74599 0
M  V30 5189 H 510.546 -4.37977 -3.35977 0
M  V30 5190 H 511.023 -2.68737 -3.47386 0
M  V30 5191 H 511.629 -3.68158 -2.12931 0
M  V30 5192 N 509.944 0.496216 -1.49584 0
M  V30 5193 C 510.854 1.62352 -1.69349 0
M  V30 5194 C 511.87 1.64184 -0.576147 0
M  V30 5195 O 513.046 1.82517 -0.85144 0
M  V30 5196 C 510.111 2.98698 -1.76013 0
M  V30 5197 C 509.172 3.07454 -2.99617 0
M  V30 5198 C 508.405 4.37296 -3.05953 0
M  V30 5199 O 508.628 5.2637 -2.19752 0
M  V30 5200 O 507.562 4.51124 -3.9846 0
M  V30 5201 H 511.388 1.48606 -2.64859 0
M  V30 5202 H 508.973 0.673022 -1.33382 0
M  V30 5203 H 510.855 3.79725 -1.82721 0
M  V30 5204 H 509.53 3.12696 -0.836828 0
M  V30 5205 H 508.437 2.25597 -2.98424 0
M  V30 5206 H 509.77 2.98385 -3.91443 0
M  V30 5207 N 511.423 1.38739 0.74761 0
M  V30 5208 C 512.67 1.35274 1.50689 0
M  V30 5209 C 512.998 -0.0553359 1.94421 0
M  V30 5210 O 512.253 -1.03365 1.66175 0
M  V30 5211 C 512.552 2.25992 2.7688 0
M  V30 5212 C 512.218 3.73854 2.5208 0
M  V30 5213 C 510.88 4.14145 2.45025 0
M  V30 5214 C 513.232 4.67427 2.30568 0
M  V30 5215 C 510.56 5.4609 2.14483 0
M  V30 5216 C 512.912 5.99635 2.01545 0
M  V30 5217 C 511.576 6.39004 1.92951 0
M  V30 5218 H 510.846 0.495003 0.55141 0
M  V30 5219 H 513.493 1.71145 0.859158 0
M  V30 5220 H 511.798 1.83196 3.46333 0
M  V30 5221 H 513.495 2.20611 3.34861 0
M  V30 5222 H 510.085 3.41913 2.58444 0
M  V30 5223 H 514.269 4.3714 2.34994 0
M  V30 5224 H 509.525 5.75528 2.06342 0
M  V30 5225 H 513.699 6.71678 1.83906 0
M  V30 5226 H 511.326 7.41165 1.6905 0
M  V30 5227 N 512.901 -0.976442 1.23707 0
M  V30 5228 C 513.831 -2.08749 1.04624 0
M  V30 5229 C 514.812 -1.70057 -0.0380956 0
M  V30 5230 O 515.997 -1.93782 0.127308 0
M  V30 5231 C 513.127 -3.41335 0.640902 0
M  V30 5232 C 512.081 -3.93947 1.67302 0
M  V30 5233 C 511.407 -5.22774 1.12301 0
M  V30 5234 C 512.707 -4.22769 3.06697 0
M  V30 5235 H 514.401 -2.24972 1.97555 0
M  V30 5236 H 511.947 -1.08108 0.951247 0
M  V30 5237 H 513.9 -4.18489 0.494434 0
M  V30 5238 H 512.624 -3.24988 -0.324099 0
M  V30 5239 H 511.283 -3.18941 1.80755 0
M  V30 5240 H 510.931 -5.0278 0.148877 0
M  V30 5241 H 510.631 -5.58942 1.81267 0
M  V30 5242 H 512.155 -6.02546 0.988479 0
M  V30 5243 H 513.569 -4.90659 2.96524 0
M  V30 5244 H 511.966 -4.70147 3.72937 0
M  V30 5245 H 513.036 -3.29885 3.55392 0
M  V30 5246 N 514.379 -1.04941 -1.1758 0
M  V30 5247 C 515.342 -0.652456 -2.19717 0
M  V30 5248 C 516.342 0.294745 -1.58076 0
M  V30 5249 O 517.532 0.0789579 -1.74021 0
M  V30 5250 C 514.664 0.0420712 -3.40874 0
M  V30 5251 H 515.857 -1.55642 -2.5635 0
M  V30 5252 H 513.41 -0.842995 -1.31618 0
M  V30 5253 H 514.145 0.95943 -3.09783 0
M  V30 5254 H 513.93 -0.638844 -3.86861 0
M  V30 5255 H 515.42 0.306 -4.16477 0
M  V30 5256 N 515.857 1.33968 -0.830081 0
M  V30 5257 C 516.804 2.29387 -0.255008 0
M  V30 5258 C 517.774 1.53923 0.624243 0
M  V30 5259 O 518.959 1.82262 0.564372 0
M  V30 5260 C 516.099 3.4034 0.571209 0
M  V30 5261 C 515.212 4.30729 -0.331083 0
M  V30 5262 C 514.347 5.2879 0.505389 0
M  V30 5263 C 513.386 6.10819 -0.395843 0
M  V30 5264 N 512.523 7.00948 0.401979 0
M  V30 5265 H 517.363 2.77972 -1.07404 0
M  V30 5266 H 514.9 1.36785 -0.541133 0
M  V30 5267 H 516.858 4.03361 1.06562 0
M  V30 5268 H 515.488 2.9297 1.35529 0
M  V30 5269 H 514.54 3.68507 -0.943759 0
M  V30 5270 H 515.852 4.88181 -1.02377 0
M  V30 5271 H 515.006 5.97297 1.06399 0
M  V30 5272 H 513.745 4.71894 1.23155 0
M  V30 5273 H 512.75 5.41238 -0.966529 0
M  V30 5274 H 513.975 6.69797 -1.12023 0
M  V30 5275 H 511.921 6.46512 1.11168 0
M  V30 5276 H 511.838 7.55643 -0.232167 0
M  V30 5277 H 513.106 7.73774 0.943102 0
M  V30 5278 N 517.335 0.585699 1.46312 0
M  V30 5279 C 518.282 -0.145835 2.30339 0
M  V30 5280 C 519.252 -0.881215 1.40797 0
M  V30 5281 O 520.437 -0.871293 1.69744 0
M  V30 5282 C 517.577 -1.15161 3.25318 0
M  V30 5283 C 516.69 -0.419367 4.2996 0
M  V30 5284 C 515.825 -1.41293 5.12064 0
M  V30 5285 C 514.864 -0.667261 6.08452 0
M  V30 5286 N 514.001 -1.60903 6.83414 0
M  V30 5287 H 518.841 0.576755 2.92365 0
M  V30 5288 H 516.378 0.296237 1.44086 0
M  V30 5289 H 518.336 -1.74763 3.78832 0
M  V30 5290 H 516.966 -1.84188 2.65094 0
M  V30 5291 H 516.018 0.291751 3.7928 0
M  V30 5292 H 517.33 0.163433 4.98532 0
M  V30 5293 H 516.484 -2.08167 5.6987 0
M  V30 5294 H 515.223 -2.02966 4.43459 0
M  V30 5295 H 514.228 0.0152356 5.49798 0
M  V30 5296 H 515.453 -0.0558817 6.79077 0
M  V30 5297 H 513.399 -2.21381 6.17516 0
M  V30 5298 H 513.316 -1.07911 7.48259 0
M  V30 5299 H 514.584 -2.26802 7.45775 0
M  V30 5300 N 518.813 -1.54241 0.323641 0
M  V30 5301 C 520.06 -2.0057 -0.27891 0
M  V30 5302 C 520.388 -1.21181 -1.52136 0
M  V30 5303 O 519.643 -0.282043 -1.93657 0
M  V30 5304 C 519.942 -3.5129 -0.658031 0
M  V30 5305 C 519.608 -4.48281 0.485252 0
M  V30 5306 C 518.27 -4.74519 0.799055 0
M  V30 5307 C 520.622 -5.05909 1.25322 0
M  V30 5308 C 517.95 -5.55643 1.88354 0
M  V30 5309 C 520.302 -5.88215 2.32779 0
M  V30 5310 C 518.966 -6.12755 2.64741 0
M  V30 5311 H 518.236 -0.733938 -0.10206 0
M  V30 5312 H 520.883 -1.862 0.447435 0
M  V30 5313 H 519.188 -3.63388 -1.4648 0
M  V30 5314 H 520.885 -3.84578 -1.1358 0
M  V30 5315 H 517.475 -4.27979 0.230593 0
M  V30 5316 H 521.659 -4.8562 1.02404 0
M  V30 5317 H 516.915 -5.72888 2.13564 0
M  V30 5318 H 521.089 -6.31888 2.92729 0
M  V30 5319 H 518.716 -6.75404 3.48904 0
M  V30 5320 N 520.291 -0.0518155 -1.57515 0
M  V30 5321 C 521.568 0.661727 -1.84067 0
M  V30 5322 C 521.948 1.88999 -0.940351 0
M  V30 5323 O 521.296 2.285 -0.00155404 0
M  V30 5324 C 521.506 1.01841 -3.3381 0
M  V30 5325 C 522.854 1.40043 -4.00841 0
M  V30 5326 O 523.878 1.11073 -3.38439 0
M  V30 5327 O 522.737 1.94111 -5.10865 0
M  V30 5328 H 519.831 0.326702 -0.759733 0
M  V30 5329 H 522.377 -0.0812277 -1.69505 0
M  V30 5330 H 521.149 0.145202 -3.91031 0
M  V30 5331 H 520.772 1.81879 -3.53562 0
M  V30 5332 N 521.769 1.56035 0.221574 0
M  V30 5333 C 522.699 1.95434 1.2778 0
M  V30 5334 C 523.68 0.822564 1.48889 0
M  V30 5335 O 524.865 1.08486 1.61072 0
M  V30 5336 C 521.995 2.27102 2.62759 0
M  V30 5337 C 520.949 3.4277 2.56306 0
M  V30 5338 C 520.275 3.60043 3.95314 0
M  V30 5339 C 521.575 4.77742 2.11093 0
M  V30 5340 H 523.269 2.83912 0.950504 0
M  V30 5341 H 520.815 1.36596 0.455791 0
M  V30 5342 H 522.768 2.53256 3.36807 0
M  V30 5343 H 521.492 1.35478 2.97176 0
M  V30 5344 H 520.151 3.16664 1.84715 0
M  V30 5345 H 519.799 2.65794 4.27039 0
M  V30 5346 H 519.499 4.37841 3.91879 0
M  V30 5347 H 521.023 3.88545 4.71025 0
M  V30 5348 H 522.437 5.03102 2.74885 0
M  V30 5349 H 520.834 5.58823 2.18716 0
M  V30 5350 H 521.904 4.731 1.06321 0
M  V30 5351 N 523.247 -0.488276 1.49845 0
M  V30 5352 C 524.524 -1.24959 1.50481 0
M  V30 5353 C 524.904 -2.09735 0.239698 0
M  V30 5354 O 524.252 -2.14865 -0.777524 0
M  V30 5355 C 524.462 -2.0954 2.79095 0
M  V30 5356 C 525.81 -2.68305 3.29086 0
M  V30 5357 O 526.834 -2.19797 2.80299 0
M  V30 5358 O 525.693 -3.56643 4.14087 0
M  V30 5359 H 522.787 -0.566133 0.602845 0
M  V30 5360 H 525.333 -0.501504 1.6212 0
M  V30 5361 H 524.105 -1.46958 3.62656 0
M  V30 5362 H 523.728 -2.91517 2.70377 0
M  V30 5363 N 524.725 -1.39134 -0.740242 0
M  V30 5364 C 525.657 -1.33332 -1.86428 0
M  V30 5365 C 526.67 -0.243042 -1.60976 0
M  V30 5366 O 527.859 -0.501608 -1.71307 0
M  V30 5367 C 524.959 -1.04626 -3.22346 0
M  V30 5368 C 524.132 -2.24826 -3.75196 0
M  V30 5369 C 523.191 -1.92659 -4.89662 0
M  V30 5370 O 522.217 -2.6529 -5.03597 0
M  V30 5371 N 523.419 -0.889575 -5.73643 0
M  V30 5372 H 526.184 -2.30196 -1.91911 0
M  V30 5373 H 523.745 -1.33168 -0.920756 0
M  V30 5374 H 525.737 -0.811347 -3.96484 0
M  V30 5375 H 524.307 -0.165129 -3.12164 0
M  V30 5376 H 523.527 -2.64301 -2.9247 0
M  V30 5377 H 524.815 -3.05015 -4.07239 0
M  V30 5378 H 524.213 -0.287529 -5.64969 0
M  V30 5379 H 522.77 -0.714557 -6.47871 0
M  V30 5380 N 526.204 0.969867 -1.24223 0
M  V30 5381 C 527.134 2.08191 -1.05729 0
M  V30 5382 C 528.115 1.70075 0.0290765 0
M  V30 5383 O 529.3 1.93712 -0.137583 0
M  V30 5384 C 526.43 3.40991 -0.658995 0
M  V30 5385 C 525.384 3.93054 -1.69389 0
M  V30 5386 C 524.71 5.22171 -1.15072 0
M  V30 5387 C 526.01 4.21137 -3.08935 0
M  V30 5388 H 527.704 2.23921 -1.98746 0
M  V30 5389 H 525.25 1.07602 -0.956967 0
M  V30 5390 H 527.203 4.18221 -0.51662 0
M  V30 5391 H 525.927 3.25155 0.30686 0
M  V30 5392 H 524.586 3.17977 -1.82444 0
M  V30 5393 H 524.234 5.02694 -0.175539 0
M  V30 5394 H 523.934 5.57973 -1.84229 0
M  V30 5395 H 525.458 6.02013 -1.02042 0
M  V30 5396 H 526.872 4.8908 -2.99121 0
M  V30 5397 H 525.269 4.68163 -3.75425 0
M  V30 5398 H 526.339 3.27996 -3.57137 0
M  V30 5399 N 527.682 1.05563 1.17022 0
M  V30 5400 C 528.931 0.763036 1.8671 0
M  V30 5401 C 529.244 -0.712857 1.82147 0
M  V30 5402 O 530.45 -1.11955 2.47343 0
M  V30 5403 C 528.906 1.31474 3.35026 0
M  V30 5404 C 528.514 2.82034 3.48081 0
M  V30 5405 C 530.258 1.09935 4.10018 0
M  V30 5406 C 528.165 3.30486 4.90442 0
M  V30 5407 H 527.095 0.281747 0.699382 0
M  V30 5408 H 529.746 1.2734 1.32124 0
M  V30 5409 H 528.128 0.732171 3.89173 0
M  V30 5410 H 529.302 3.46178 3.04133 0
M  V30 5411 H 527.617 3.02156 2.86515 0
M  V30 5412 H 530.214 1.43632 5.15048 0
M  V30 5413 H 530.557 0.0373072 4.16283 0
M  V30 5414 H 531.09 1.64732 3.62089 0
M  V30 5415 H 527.829 4.36137 4.89352 0
M  V30 5416 H 527.349 2.71086 5.35044 0
M  V30 5417 H 529.028 3.25382 5.59227 0
M  V30 5418 N 529.16 -1.33526 0.837174 0
M  V30 5419 C 530.388 -2.02047 0.445494 0
M  V30 5420 C 530.803 -1.62995 -0.952788 0
M  V30 5421 O 530.16 -0.842447 -1.61892 0
M  V30 5422 C 530.211 -3.57221 0.554577 0
M  V30 5423 O 529.932 -3.94863 1.89776 0
M  V30 5424 C 531.433 -4.43012 0.159634 0
M  V30 5425 H 528.653 -0.647221 0.177048 0
M  V30 5426 H 531.197 -1.70492 1.12928 0
M  V30 5427 H 529.352 -3.87315 -0.0812781 0
M  V30 5428 H 529.766 -4.89569 1.88208 0
M  V30 5429 H 531.24 -5.51253 0.28701 0
M  V30 5430 H 531.717 -4.29916 -0.898289 0
M  V30 5431 H 532.323 -4.18274 0.769855 0
M  V30 5432 N 530.638 -0.59345 -1.46 0
M  V30 5433 C 531.588 0.154751 -2.27474 0
M  V30 5434 C 532.572 0.851849 -1.365 0
M  V30 5435 O 533.764 0.744171 -1.60596 0
M  V30 5436 C 530.893 1.16079 -3.2308 0
M  V30 5437 C 529.979 0.465256 -4.2154 0
M  V30 5438 N 530.37 -0.485197 -5.03467 0
M  V30 5439 C 528.668 0.714634 -4.40237 0
M  V30 5440 C 529.369 -0.892709 -5.74809 0
M  V30 5441 N 528.345 -0.239511 -5.43072 0
M  V30 5442 H 532.147 -0.57546 -2.88211 0
M  V30 5443 H 529.661 -0.416046 -1.5698 0
M  V30 5444 H 531.658 1.71108 -3.80168 0
M  V30 5445 H 530.318 1.89171 -2.63903 0
M  V30 5446 H 531.329 -0.861258 -5.10689 0
M  V30 5447 H 528.006 1.43131 -3.92199 0
M  V30 5448 H 529.396 -1.67581 -6.50666 0
M  V30 5449 N 532.116 1.54067 -0.331816 0
M  V30 5450 C 533.362 2.01012 0.268667 0
M  V30 5451 C 533.695 1.2195 1.51136 0
M  V30 5452 O 532.97 0.303972 1.9211 0
M  V30 5453 C 533.253 3.55158 0.59456 0
M  V30 5454 C 533.106 4.4494 -0.659409 0
M  V30 5455 C 534.425 4.16939 1.4089 0
M  V30 5456 H 531.544 0.730698 0.0961756 0
M  V30 5457 H 534.186 1.84593 -0.450031 0
M  V30 5458 H 532.336 3.6928 1.20685 0
M  V30 5459 H 534.008 4.42675 -1.29756 0
M  V30 5460 H 532.251 4.1428 -1.28665 0
M  V30 5461 H 532.922 5.50643 -0.386804 0
M  V30 5462 H 535.398 4.06443 0.891272 0
M  V30 5463 H 534.274 5.24889 1.60569 0
M  V30 5464 H 534.535 3.70798 2.40752 0
M  V30 5465 N 533.594 0.0601682 1.57485 0
M  V30 5466 C 534.524 -0.90889 2.15085 0
M  V30 5467 C 535.505 -1.31838 1.07484 0
M  V30 5468 O 536.69 -1.3915 1.35466 0
M  V30 5469 C 533.82 -2.18059 2.7031 0
M  V30 5470 C 532.774 -1.91088 3.82974 0
M  V30 5471 C 532.1 -3.24789 4.24754 0
M  V30 5472 C 533.4 -1.22535 5.07723 0
M  V30 5473 H 535.094 -0.429093 2.96309 0
M  V30 5474 H 532.64 -0.204952 1.42534 0
M  V30 5475 H 534.593 -2.86258 3.09248 0
M  V30 5476 H 533.317 -2.6826 1.8629 0
M  V30 5477 H 531.976 -1.25297 3.44523 0
M  V30 5478 H 531.624 -3.72809 3.37672 0
M  V30 5479 H 531.324 -3.07538 5.00694 0
M  V30 5480 H 532.848 -3.94205 4.66299 0
M  V30 5481 H 534.262 -1.80783 5.4405 0
M  V30 5482 H 532.659 -1.1558 5.88864 0
M  V30 5483 H 533.729 -0.202692 4.84476 0
M  V30 5484 N 535.072 -1.5615 -0.213296 0
M  V30 5485 C 536.483 -1.69645 -0.779582 0
M  V30 5486 C 536.834 -0.663615 -1.84636 0
M  V30 5487 O 535.959 0.183633 -2.15619 0
M  V30 5488 C 536.554 -3.07567 -1.42084 0
M  V30 5489 C 535.113 -3.22889 -1.93442 0
M  V30 5490 C 534.26 -2.65581 -0.797612 0
M  V30 5491 H 537.211 -1.58696 0.0114951 0
M  V30 5492 H 537.232 -3.03884 -2.28986 0
M  V30 5493 H 536.744 -3.82716 -0.644187 0
M  V30 5494 H 534.845 -2.52623 -2.73884 0
M  V30 5495 H 534.958 -4.30197 -2.10872 0
M  V30 5496 H 533.322 -2.24278 -1.20712 0
M  V30 5497 H 534.105 -3.43284 -0.033494 0
M  V30 5498 N 536.55 0.480323 -1.50102 0
M  V30 5499 C 537.797 1.23307 -1.60629 0
M  V30 5500 C 538.125 1.92135 -0.302375 0
M  V30 5501 O 537.38 1.82321 0.711154 0
M  V30 5502 C 537.679 2.30708 -2.72963 0
M  V30 5503 C 537.345 1.79195 -4.13763 0
M  V30 5504 C 536.007 1.64867 -4.52076 0
M  V30 5505 C 538.359 1.40878 -5.018 0
M  V30 5506 C 535.687 1.10631 -5.76175 0
M  V30 5507 C 538.039 0.880872 -6.26437 0
M  V30 5508 C 536.703 0.724146 -6.6356 0
M  V30 5509 H 535.973 0.451211 -0.587784 0
M  V30 5510 H 538.62 0.53051 -1.84005 0
M  V30 5511 H 536.925 3.06834 -2.43639 0
M  V30 5512 H 538.622 2.88692 -2.78313 0
M  V30 5513 H 535.212 1.91313 -3.83533 0
M  V30 5514 H 539.396 1.50786 -4.7284 0
M  V30 5515 H 534.652 0.972263 -6.0362 0
M  V30 5516 H 538.826 0.575269 -6.9402 0
M  V30 5517 H 536.453 0.301722 -7.59601 0
M  V30 5518 N 538.028 1.39524 0.732853 0
M  V30 5519 C 538.975 1.38416 1.84688 0
M  V30 5520 C 539.945 0.243539 1.64305 0
M  V30 5521 O 541.13 0.438979 1.85681 0
M  V30 5522 C 538.27 1.23555 3.22224 0
M  V30 5523 C 537.383 2.47179 3.54298 0
M  V30 5524 C 536.518 2.2489 4.81246 0
M  V30 5525 C 535.557 3.44178 5.0617 0
M  V30 5526 N 534.694 3.21192 6.24323 0
M  V30 5527 H 539.534 2.33645 1.84971 0
M  V30 5528 H 537.071 1.16059 0.903804 0
M  V30 5529 H 539.029 1.12949 4.0162 0
M  V30 5530 H 537.659 0.31954 3.21215 0
M  V30 5531 H 536.711 2.68379 2.69587 0
M  V30 5532 H 538.023 3.36022 3.68633 0
M  V30 5533 H 537.177 2.11538 5.68627 0
M  V30 5534 H 535.916 1.33443 4.69089 0
M  V30 5535 H 534.921 3.58025 4.17251 0
M  V30 5536 H 536.146 4.36528 5.20212 0
M  V30 5537 H 534.092 2.32413 6.1345 0
M  V30 5538 H 534.009 4.03594 6.39256 0
M  V30 5539 H 535.277 3.1154 7.14537 0
M  V30 5540 N 539.506 -0.963266 1.24736 0
M  V30 5541 C 540.453 -2.05857 1.04363 0
M  V30 5542 C 541.423 -1.6604 -0.0444951 0
M  V30 5543 O 542.608 -1.90477 0.110999 0
M  V30 5544 C 539.748 -3.38745 0.659235 0
M  V30 5545 C 538.861 -3.9173 1.82131 0
M  V30 5546 C 537.996 -5.12906 1.38208 0
M  V30 5547 C 537.035 -5.58098 2.51382 0
M  V30 5548 N 536.172 -6.7049 2.08295 0
M  V30 5549 H 541.012 -2.22616 1.98107 0
M  V30 5550 H 538.549 -1.09103 0.986661 0
M  V30 5551 H 540.507 -4.15107 0.417371 0
M  V30 5552 H 539.137 -3.21898 -0.241201 0
M  V30 5553 H 538.189 -3.11966 2.17672 0
M  V30 5554 H 539.501 -4.21225 2.67153 0
M  V30 5555 H 538.655 -5.96657 1.09935 0
M  V30 5556 H 537.394 -4.85105 0.502456 0
M  V30 5557 H 536.399 -4.72917 2.80409 0
M  V30 5558 H 537.624 -5.87911 3.39909 0
M  V30 5559 H 535.57 -6.44416 1.22737 0
M  V30 5560 H 535.487 -6.99458 2.86869 0
M  V30 5561 H 536.755 -7.57672 1.83175 0
M  V30 5562 N 540.985 -1.06182 -1.16461 0
M  V30 5563 C 542.234 -0.772927 -1.86303 0
M  V30 5564 C 542.547 0.703187 -1.82523 0
M  V30 5565 O 543.753 1.10641 -2.47933 0
M  V30 5566 C 542.209 -1.33249 -3.34324 0
M  V30 5567 C 541.817 -2.83876 -3.46581 0
M  V30 5568 C 543.561 -1.12108 -4.09429 0
M  V30 5569 C 541.468 -3.33082 -4.88682 0
M  V30 5570 H 540.398 -0.285452 -0.697878 0
M  V30 5571 H 543.049 -1.28039 -1.31447 0
M  V30 5572 H 541.431 -0.7528 -3.88779 0
M  V30 5573 H 542.605 -3.47786 -3.02293 0
M  V30 5574 H 540.92 -3.03671 -2.84909 0
M  V30 5575 H 543.517 -1.46361 -5.14279 0
M  V30 5576 H 543.86 -0.0593832 -4.16258 0
M  V30 5577 H 544.393 -1.6665 -3.6121 0
M  V30 5578 H 541.132 -4.38726 -4.87032 0
M  V30 5579 H 540.652 -2.73919 -5.33599 0
M  V30 5580 H 542.331 -3.28344 -5.57494 0
M  V30 5581 N 542.463 1.3308 -0.844243 0
M  V30 5582 C 543.688 2.02341 -0.455282 0
M  V30 5583 C 544.113 1.6308 0.93737 0
M  V30 5584 O 543.471 0.826118 1.61385 0
M  V30 5585 C 543.519 3.55743 -0.58988 0
M  V30 5586 O 542.623 4.1063 0.38166 0
M  V30 5587 H 541.964 0.637898 -0.184343 0
M  V30 5588 H 544.494 1.6986 -1.14056 0
M  V30 5589 H 544.504 4.05243 -0.473522 0
M  V30 5590 H 543.179 3.83662 -1.60549 0
M  V30 5591 H 541.756 3.72236 0.22241 0
M  V30 5592 N 543.941 0.601185 1.45683 0
M  V30 5593 C 544.851 -0.123395 2.34275 0
M  V30 5594 C 545.867 -0.86702 1.5086 0
M  V30 5595 O 547.043 -0.826049 1.8368 0
M  V30 5596 C 544.108 -1.11237 3.2837 0
M  V30 5597 C 543.169 -0.371405 4.2769 0
M  V30 5598 C 542.402 -1.31327 5.1729 0
M  V30 5599 O 542.625 -2.55078 5.10188 0
M  V30 5600 O 541.559 -0.813811 5.96373 0
M  V30 5601 H 545.385 0.604483 2.97623 0
M  V30 5602 H 542.97 0.361477 1.44961 0
M  V30 5603 H 544.852 -1.68214 3.8637 0
M  V30 5604 H 543.527 -1.82139 2.67595 0
M  V30 5605 H 542.434 0.24067 3.73325 0
M  V30 5606 H 543.767 0.296998 4.91303 0
M  V30 5607 N 545.419 -1.53889 0.339982 0
M  V30 5608 C 546.667 -2.00458 -0.257112 0
M  V30 5609 C 546.988 -1.22953 -1.51353 0
M  V30 5610 O 546.258 -0.335734 -1.93002 0
M  V30 5611 H 544.838 -0.740544 -0.0979965 0
M  V30 5612 H 547.5 -1.89386 0.460317 0
M  V30 5613 H 546.596 -3.08035 -0.502057 0
M  V30 5614 N 546.897 -0.0685191 -1.57451 0
M  V30 5615 C 548.144 0.601348 -1.93365 0
M  V30 5616 C 548.472 1.69816 -0.948294 0
M  V30 5617 O 547.727 1.95666 0.0366199 0
M  V30 5618 C 548.026 1.22051 -3.35914 0
M  V30 5619 C 547.692 0.250165 -4.50205 0
M  V30 5620 C 546.354 -0.0167954 -4.81197 0
M  V30 5621 C 548.706 -0.413867 -5.19554 0
M  V30 5622 C 546.034 -0.95493 -5.78876 0
M  V30 5623 C 548.386 -1.3403 -6.18238 0
M  V30 5624 C 547.05 -1.61576 -6.47649 0
M  V30 5625 H 546.32 0.220049 -0.707573 0
M  V30 5626 H 548.967 -0.138697 -1.90997 0
M  V30 5627 H 547.272 2.03622 -3.34732 0
M  V30 5628 H 548.969 1.74605 -3.6099 0
M  V30 5629 H 545.559 0.468421 -4.26033 0
M  V30 5630 H 549.743 -0.220733 -4.95809 0
M  V30 5631 H 544.999 -1.17563 -5.99991 0
M  V30 5632 H 549.173 -1.86081 -6.71079 0
M  V30 5633 H 546.8 -2.34431 -7.2315 0
M  V30 5634 N 548.375 1.56261 0.205012 0
M  V30 5635 C 549.285 1.96944 1.27476 0
M  V30 5636 C 550.301 0.875636 1.50362 0
M  V30 5637 O 551.477 1.18058 1.6317 0
M  V30 5638 C 548.542 2.29219 2.60115 0
M  V30 5639 C 547.603 3.52255 2.45387 0
M  V30 5640 C 546.836 3.8298 3.71701 0
M  V30 5641 O 547.059 3.15138 4.75441 0
M  V30 5642 O 545.993 4.76435 3.67823 0
M  V30 5643 H 549.819 2.88144 0.959527 0
M  V30 5644 H 547.404 1.43686 0.409217 0
M  V30 5645 H 549.286 2.51098 3.3842 0
M  V30 5646 H 547.961 1.4119 2.91285 0
M  V30 5647 H 546.868 3.35635 1.65227 0
M  V30 5648 H 548.201 4.40719 2.19152 0
M  V30 5649 N 549.853 -0.472356 1.50355 0
M  V30 5650 C 550.783 -1.57859 1.72055 0
M  V30 5651 C 551.764 -1.60283 0.569505 0
M  V30 5652 O 552.949 -1.7657 0.808503 0
M  V30 5653 C 550.079 -2.96191 1.81351 0
M  V30 5654 C 549.033 -3.08633 2.96529 0
M  V30 5655 C 548.359 -4.486 2.90968 0
M  V30 5656 C 549.659 -2.85969 4.37057 0
M  V30 5657 H 551.353 -1.39953 2.64676 0
M  V30 5658 H 548.899 -0.671846 1.27367 0
M  V30 5659 H 550.852 -3.73507 1.95117 0
M  V30 5660 H 549.576 -3.15251 0.853502 0
M  V30 5661 H 548.235 -2.33749 2.82413 0
M  V30 5662 H 547.883 -4.64577 1.92815 0
M  V30 5663 H 547.583 -4.57861 3.68289 0
M  V30 5664 H 549.107 -5.27938 3.0678 0
M  V30 5665 H 550.521 -3.53036 4.51706 0
M  V30 5666 H 548.918 -3.06677 5.15819 0
M  V30 5667 H 549.988 -1.81838 4.49514 0
M  V30 5668 N 551.331 -1.39911 -0.725443 0
M  V30 5669 C 552.261 -1.42138 -1.85254 0
M  V30 5670 C 553.242 -0.283513 -1.67721 0
M  V30 5671 O 554.427 -0.490717 -1.87898 0
M  V30 5672 C 551.557 -1.27354 -3.23107 0
M  V30 5673 C 550.511 -2.3864 -3.55296 0
M  V30 5674 C 549.837 -2.08939 -4.92188 0
M  V30 5675 C 551.137 -3.8097 -3.57295 0
M  V30 5676 H 552.831 -2.36461 -1.83648 0
M  V30 5677 H 550.377 -1.13817 -0.882138 0
M  V30 5678 H 552.33 -1.2753 -4.01639 0
M  V30 5679 H 551.054 -0.295025 -3.25265 0
M  V30 5680 H 549.713 -2.37696 -2.79099 0
M  V30 5681 H 549.361 -1.09502 -4.90936 0
M  V30 5682 H 549.061 -2.83491 -5.14691 0
M  V30 5683 H 550.585 -2.10781 -5.73065 0
M  V30 5684 H 551.999 -3.8379 -4.25885 0
M  V30 5685 H 550.396 -4.5496 -3.9132 0
M  V30 5686 H 551.466 -4.11261 -2.5689 0
M  V30 5687 N 552.809 0.956637 -1.25245 0
M  V30 5688 C 553.757 2.0743 -1.0524 0
M  V30 5689 C 554.751 1.69392 0.0160725 0
M  V30 5690 O 555.957 1.7946 -0.139382 0
M  V30 5691 H 552.332 0.678921 -0.323373 0
M  V30 5692 H 554.303 2.2146 -1.99995 0
M  V30 5693 C 553.052 3.40872 -0.685702 0
M  V30 5694 H 552.375 3.70607 -1.49968 0
M  V30 5695 H 553.815 4.19939 -0.585415 0
M  V30 5696 C 552.274 3.31367 0.608082 0
M  V30 5697 O 552.804 3.66214 1.65076 0
M  V30 5698 N 551.01 2.84486 0.592955 0
M  V30 5699 H 550.557 2.56326 -0.25592 0
M  V30 5700 H 550.515 2.78509 1.45877 0
M  V30 5701 N 554.287 1.06798 1.15896 0
M  V30 5702 C 555.512 0.808739 1.90982 0
M  V30 5703 C 555.937 -0.6316 1.77179 0
M  V30 5704 O 555.295 -1.4407 1.10061 0
M  V30 5705 C 555.343 1.21468 3.39526 0
M  V30 5706 O 554.447 0.356562 4.10856 0
M  V30 5707 H 553.788 0.29512 0.594811 0
M  V30 5708 H 556.318 1.42513 1.46804 0
M  V30 5709 H 556.328 1.18844 3.90308 0
M  V30 5710 H 555.003 2.26379 3.48891 0
M  V30 5711 H 553.58 0.444808 3.70238 0
M  V30 5712 N 555.766 -1.3263 0.851289 0
M  V30 5713 C 557.014 -1.96978 0.452128 0
M  V30 5714 C 557.335 -1.67715 -0.99482 0
M  V30 5715 O 556.605 -0.98259 -1.69476 0
M  V30 5716 H 555.185 -0.72873 0.164202 0
M  V30 5717 H 557.847 -1.61774 1.08698 0
M  V30 5718 H 556.943 -3.06387 0.594407 0
M  V30 5719 N 557.244 -0.608902 -1.45362 0
M  V30 5720 C 558.176 0.147318 -2.28726 0
M  V30 5721 C 559.189 0.830468 -1.40025 0
M  V30 5722 O 560.378 0.695636 -1.64387 0
M  V30 5723 C 557.478 1.22968 -3.15804 0
M  V30 5724 C 556.651 0.633391 -4.3279 0
M  V30 5725 C 555.71 1.60682 -5.01067 0
M  V30 5726 O 554.736 1.13261 -5.57818 0
M  V30 5727 N 555.938 2.94123 -5.00472 0
M  V30 5728 H 558.703 -0.568014 -2.94268 0
M  V30 5729 H 556.264 -0.448479 -1.55564 0
M  V30 5730 H 558.256 1.88072 -3.58345 0
M  V30 5731 H 556.826 1.84752 -2.52162 0
M  V30 5732 H 556.046 -0.195762 -3.93714 0
M  V30 5733 H 557.334 0.215255 -5.08344 0
M  V30 5734 H 556.732 3.3525 -4.55657 0
M  V30 5735 H 555.289 3.54646 -5.46872 0
M  V30 5736 N 558.722 1.53707 -0.348139 0
M  V30 5737 C 559.947 2.05877 0.250883 0
M  V30 5738 C 560.372 1.22115 1.43072 0
M  V30 5739 O 559.73 0.235986 1.79758 0
M  V30 5740 C 559.778 3.54886 0.639416 0
M  V30 5741 O 558.882 3.73948 1.73888 0
M  V30 5742 H 558.223 0.662754 0.040653 0
M  V30 5743 H 560.753 1.98303 -0.503685 0
M  V30 5744 H 560.763 3.97601 0.915295 0
M  V30 5745 H 559.438 4.153 -0.223386 0
M  V30 5746 H 558.015 3.43134 1.45991 0
M  V30 5747 N 560.2 0.0768682 1.57412 0
M  V30 5748 C 561.449 -0.590679 1.92857 0
M  V30 5749 C 561.762 -1.70461 0.959293 0
M  V30 5750 O 562.968 -2.43207 1.20675 0
M  V30 5751 C 561.424 -1.10204 3.42612 0
M  V30 5752 C 561.032 -0.0188447 4.47996 0
M  V30 5753 C 562.776 -1.74336 3.87049 0
M  V30 5754 C 560.683 -0.544536 5.88888 0
M  V30 5755 H 559.613 -0.224411 0.71983 0
M  V30 5756 H 562.264 0.149924 1.82887 0
M  V30 5757 H 560.646 -1.89577 3.47673 0
M  V30 5758 H 561.82 0.755936 4.54557 0
M  V30 5759 H 560.135 0.526555 4.13057 0
M  V30 5760 H 562.732 -2.14708 4.89699 0
M  V30 5761 H 563.075 -2.60537 3.24694 0
M  V30 5762 H 563.608 -1.01577 3.84613 0
M  V30 5763 H 560.347 0.280426 6.549 0
M  V30 5764 H 559.867 -1.28673 5.85836 0
M  V30 5765 H 561.546 -1.01933 6.3892 0
M  V30 5766 N 561.678 -1.56367 -0.196722 0
M  V30 5767 C 563.094 -1.49916 -0.54749 0
M  V30 5768 C 563.294 -0.77659 -1.85934 0
M  V30 5769 O 562.35 -0.32644 -2.50381 0
M  V30 5770 C 563.663 -2.94577 -0.603734 0
M  V30 5771 C 565.211 -3.05239 -0.692677 0
M  V30 5772 C 565.686 -4.51308 -0.780046 0
M  V30 5773 N 567.177 -4.55453 -0.843616 0
M  V30 5774 C 567.912 -5.65786 -0.931358 0
M  V30 5775 N 567.408 -6.85812 -0.981503 0
M  V30 5776 N 569.201 -5.53695 -0.968421 0
M  V30 5777 H 561.352 -2.01761 0.663803 0
M  V30 5778 H 563.615 -0.918094 0.236238 0
M  V30 5779 H 563.321 -3.50494 0.29105 0
M  V30 5780 H 563.195 -3.47841 -1.45898 0
M  V30 5781 H 565.582 -2.49372 -1.57789 0
M  V30 5782 H 565.663 -2.55103 0.188736 0
M  V30 5783 H 565.307 -5.078 0.100811 0
M  V30 5784 H 565.237 -4.99176 -1.67724 0
M  V30 5785 H 567.728 -3.69025 -0.814176 0
M  V30 5786 H 568.041 -7.65648 -1.04892 0
M  V30 5787 H 566.386 -6.88474 -0.950208 0
M  V30 5788 H 569.577 -4.58848 -0.926072 0
M  V30 5789 H 569.75 -6.39708 -1.03334 0
M  V30 5790 N 563.156 0.464375 -1.50603 0
M  V30 5791 C 564.384 1.23907 -1.65695 0
M  V30 5792 C 564.799 1.85658 -0.343027 0
M  V30 5793 O 564.156 1.69529 0.675739 0
M  V30 5794 C 564.207 2.3429 -2.75301 0
M  V30 5795 O 563.928 1.7507 -4.01599 0
M  V30 5796 C 565.429 3.25051 -3.01424 0
M  V30 5797 H 562.649 0.374485 -0.556778 0
M  V30 5798 H 565.193 0.55353 -1.96866 0
M  V30 5799 H 563.348 2.98607 -2.46804 0
M  V30 5800 H 563.762 2.47812 -4.62266 0
M  V30 5801 H 565.236 3.98699 -3.81763 0
M  V30 5802 H 565.713 3.84227 -2.12758 0
M  V30 5803 H 566.319 2.66463 -3.31477 0
M  V30 5804 N 564.634 1.40294 0.718013 0
M  V30 5805 C 565.88 1.38645 1.48005 0
M  V30 5806 C 566.213 -0.0121202 1.94196 0
M  V30 5807 O 565.488 -0.980309 1.67989 0
M  V30 5808 C 565.771 2.37379 2.70782 0
M  V30 5809 C 565.624 3.8625 2.30501 0
M  V30 5810 C 566.943 2.33685 3.72933 0
M  V30 5811 H 564.062 0.504928 0.536858 0
M  V30 5812 H 566.704 1.71411 0.819649 0
M  V30 5813 H 564.854 2.09568 3.27129 0
M  V30 5814 H 566.526 4.24879 1.79655 0
M  V30 5815 H 564.769 4.02202 1.6253 0
M  V30 5816 H 565.44 4.50847 3.18498 0
M  V30 5817 H 567.916 2.58314 3.2621 0
M  V30 5818 H 566.792 3.0482 4.56482 0
M  V30 5819 H 567.053 1.34765 4.21059 0
M  V30 5820 N 566.112 -0.949982 1.2575 0
M  V30 5821 C 567.042 -2.06483 1.09028 0
M  V30 5822 C 568.023 -1.701 -0.00201532 0
M  V30 5823 O 569.208 -1.93469 0.168383 0
M  V30 5824 C 566.338 -3.39899 0.71316 0
M  V30 5825 C 565.292 -3.90309 1.75621 0
M  V30 5826 C 564.618 -5.20274 1.23365 0
M  V30 5827 C 565.918 -4.16169 3.15596 0
M  V30 5828 H 567.612 -2.20731 2.02283 0
M  V30 5829 H 565.158 -1.06066 0.973964 0
M  V30 5830 H 567.111 -4.17346 0.58309 0
M  V30 5831 H 565.835 -3.25602 -0.255091 0
M  V30 5832 H 564.494 -3.15035 1.8748 0
M  V30 5833 H 564.142 -5.02351 0.255491 0
M  V30 5834 H 563.842 -5.54971 1.93082 0
M  V30 5835 H 565.366 -6.00314 1.11607 0
M  V30 5836 H 566.78 -4.84259 3.06864 0
M  V30 5837 H 565.177 -4.62131 3.82825 0
M  V30 5838 H 566.247 -3.22273 3.6231 0
M  V30 5839 N 567.59 -1.07411 -1.15328 0
M  V30 5840 C 568.818 -0.818782 -1.90009 0
M  V30 5841 C 569.233 0.628072 -1.78047 0
M  V30 5842 O 568.59 1.43085 -1.13282 0
M  V30 5843 C 568.641 -1.21874 -3.40337 0
M  V30 5844 O 568.362 -2.60883 -3.51954 0
M  V30 5845 C 569.863 -0.992796 -4.3204 0
M  V30 5846 H 567.083 -0.296007 -0.60218 0
M  V30 5847 H 569.627 -1.43073 -1.46117 0
M  V30 5848 H 567.782 -0.651103 -3.81889 0
M  V30 5849 H 568.196 -2.77216 -4.45255 0
M  V30 5850 H 569.67 -1.32215 -5.35932 0
M  V30 5851 H 570.147 0.0708331 -4.39143 0
M  V30 5852 H 570.753 -1.54537 -3.9623 0
M  V30 5853 N 569.068 1.32177 -0.85831 0
M  V30 5854 C 570.315 1.97125 -0.463484 0
M  V30 5855 C 570.643 1.67907 0.981705 0
M  V30 5856 O 569.898 0.961717 1.70439 0
M  V30 5857 C 570.197 3.51372 -0.653658 0
M  V30 5858 C 569.863 4.00584 -2.06987 0
M  V30 5859 C 568.525 4.13733 -2.4572 0
M  V30 5860 C 570.877 4.26624 -2.99402 0
M  V30 5861 C 568.205 4.50268 -3.76132 0
M  V30 5862 C 570.557 4.64618 -4.29316 0
M  V30 5863 C 569.221 4.75975 -4.67979 0
M  V30 5864 H 568.491 0.72133 -0.169601 0
M  V30 5865 H 571.138 1.57517 -1.08907 0
M  V30 5866 H 569.443 3.91761 0.0551328 0
M  V30 5867 H 571.14 3.99655 -0.328163 0
M  V30 5868 H 567.73 3.90837 -1.75911 0
M  V30 5869 H 571.914 4.1597 -2.70708 0
M  V30 5870 H 567.17 4.57256 -4.05865 0
M  V30 5871 H 571.344 4.83722 -5.00985 0
M  V30 5872 H 568.971 5.04041 -5.69076 0
M  V30 5873 O 570.585 0.756816 1.42669 0
M  V30 5874 H 571.276 0.315719 1.9111 0
M  V30 END ATOM
M  V30 BEGIN BOND
M  V30 END BOND
M  V30 END CTAB
M  END
$$$$
