drugbank_target|P40306 Proteasome subunit beta type-10 (DB08889)
 OpenBabel12092120583D

  0  0  0     0  0            999 V3000
M  V30 BEGIN CTAB
M  V30 COUNTS 4103 4136 0 0 0
M  V30 BEGIN ATOM
M  V30 1 H -0.908 1.98254 -0.117106 0
M  V30 2 N 0 1.576 0 0
M  V30 3 C 0.933 2.03868 1.02534 0
M  V30 4 C 1.911 0.928543 1.3348 0
M  V30 5 O 3.095 1.19667 1.45644 0
M  V30 6 C 0.222 2.43627 2.35294 0
M  V30 7 C -0.732 3.65373 2.2001 0
M  V30 8 S 0.101 5.13292 1.52614 0
M  V30 9 C 1.257 5.56322 2.86805 0
M  V30 10 H 1.49 2.90518 0.631377 0
M  V30 11 H -0.977 1.52953 0.210867 0
M  V30 12 H 0.981 2.67203 3.11629 0
M  V30 13 H -0.358 1.57376 2.7183 0
M  V30 14 H -1.165 3.90944 3.18086 0
M  V30 15 H -1.563 3.418 1.51819 0
M  V30 16 H 0.729 5.58782 3.83104 0
M  V30 17 H 1.672 6.56266 2.65933 0
M  V30 18 H 2.08 4.83886 2.90714 0
M  V30 19 N 1.4781 -0.272755 1.55222 0
M  V30 20 C 2.4081 -1.34136 1.91127 0
M  V30 21 C 3.3891 -1.51513 0.773168 0
M  V30 22 O 4.5741 -1.64552 1.03132 0
M  V30 23 C 1.7041 -2.70083 2.1834 0
M  V30 24 C 0.6581 -2.67437 3.34158 0
M  V30 25 C -0.0159 -4.06938 3.46851 0
M  V30 26 C 1.2841 -2.26686 4.70543 0
M  V30 27 H 2.9781 -1.04333 2.80633 0
M  V30 28 H 0.5241 -0.500454 1.35024 0
M  V30 29 H 2.4771 -3.44952 2.42046 0
M  V30 30 H 1.2011 -3.01469 1.25634 0
M  V30 31 H -0.1399 -1.95026 3.1042 0
M  V30 32 H -0.4919 -4.35547 2.51611 0
M  V30 33 H -0.7919 -4.06062 4.2472 0
M  V30 34 H 0.7321 -4.83545 3.72849 0
M  V30 35 H 2.1461 -2.91277 4.93792 0
M  V30 36 H 0.5431 -2.36971 5.5133 0
M  V30 37 H 1.6131 -1.21818 4.69349 0
M  V30 38 N 2.9562 -1.48159 -0.537278 0
M  V30 39 C 3.9032 -1.62138 -1.64256 0
M  V30 40 C 4.8732 -0.463668 -1.59497 0
M  V30 41 O 6.0582 -0.686241 -1.78032 0
M  V30 42 C 3.1982 -1.66028 -3.02537 0
M  V30 43 C 2.3112 -2.92855 -3.17585 0
M  V30 44 C 1.4462 -2.87952 -4.46382 0
M  V30 45 C 0.4852 -4.09516 -4.54932 0
M  V30 46 N -0.3778 -4.02733 -5.75109 0
M  V30 47 H 4.4622 -2.56529 -1.51647 0
M  V30 48 H 1.9992 -1.27224 -0.738414 0
M  V30 49 H 3.9572 -1.66265 -3.82638 0
M  V30 50 H 2.5872 -0.751331 -3.13934 0
M  V30 51 H 1.6392 -3.02395 -2.30784 0
M  V30 52 H 2.9512 -3.82822 -3.19764 0
M  V30 53 H 2.1052 -2.8655 -5.34765 0
M  V30 54 H 0.8442 -1.95702 -4.46712 0
M  V30 55 H -0.1508 -4.11201 -3.64957 0
M  V30 56 H 1.0742 -5.02917 -4.56346 0
M  V30 57 H -0.9798 -3.13299 -5.76351 0
M  V30 58 H -1.0628 -4.86397 -5.78752 0
M  V30 59 H 0.2052 -4.05379 -6.65799 0
M  V30 60 N 4.4343 0.785586 -1.36625 0
M  V30 61 C 5.8453 1.36101 -1.27803 0
M  V30 62 C 6.1963 1.96035 0.0804875 0
M  V30 63 O 5.3213 1.92834 0.982042 0
M  V30 64 C 5.9163 2.47442 -2.31426 0
M  V30 65 C 4.4753 3.00789 -2.26281 0
M  V30 66 C 3.6223 1.73896 -2.15999 0
M  V30 67 H 6.5733 0.586928 -1.47448 0
M  V30 68 H 6.5943 3.2656 -1.95291 0
M  V30 69 H 6.1063 2.03791 -3.30289 0
M  V30 70 H 4.2073 3.48851 -1.30896 0
M  V30 71 H 4.3203 3.57343 -3.19128 0
M  V30 72 H 2.6843 1.9628 -1.62316 0
M  V30 73 H 3.4673 1.32368 -3.16755 0
M  V30 74 N 5.9124 1.20967 1.01018 0
M  V30 75 C 6.8754 0.965918 2.07853 0
M  V30 76 C 7.8754 -0.0610545 1.60684 0
M  V30 77 O 9.0654 0.175681 1.73312 0
M  V30 78 C 6.1974 0.455513 3.37843 0
M  V30 79 H 7.3904 1.91365 2.3091 0
M  V30 80 H 4.9434 1.02594 1.17916 0
M  V30 81 H 5.6784 -0.497381 3.20463 0
M  V30 82 H 5.4634 1.19622 3.73407 0
M  V30 83 H 6.9534 0.304667 4.16487 0
M  V30 84 N 7.3905 -1.2043 1.01659 0
M  V30 85 C 8.3205 -2.25466 0.607226 0
M  V30 86 C 9.3015 -1.65853 -0.377716 0
M  V30 87 O 10.4865 -1.92409 -0.263149 0
M  V30 88 C 7.6165 -3.47256 -0.0552949 0
M  V30 89 C 6.5705 -4.19462 0.850632 0
M  V30 90 C 5.8965 -5.34673 0.0538859 0
M  V30 91 C 7.1965 -4.75603 2.15868 0
M  V30 92 H 8.8905 -2.59962 1.48526 0
M  V30 93 H 6.4365 -1.2496 0.715605 0
M  V30 94 H 8.3895 -4.19917 -0.353233 0
M  V30 95 H 7.1135 -3.11924 -0.968045 0
M  V30 96 H 5.7725 -3.48667 1.13257 0
M  V30 97 H 5.4205 -4.95585 -0.860514 0
M  V30 98 H 5.1205 -5.83913 0.657192 0
M  V30 99 H 6.6445 -6.10138 -0.237598 0
M  V30 100 H 8.0585 -5.40083 1.92311 0
M  V30 101 H 6.4555 -5.3528 2.71284 0
M  V30 102 H 7.5255 -3.94346 2.82169 0
M  V30 103 N 8.8686 -0.792821 -1.36206 0
M  V30 104 C 9.7786 -0.194808 -2.3379 0
M  V30 105 C 10.7946 0.654869 -1.61206 0
M  V30 106 O 11.9706 0.569856 -1.9317 0
M  V30 107 C 9.0356 0.657721 -3.40404 0
M  V30 108 C 8.0966 -0.210849 -4.28782 0
M  V30 109 C 7.3296 0.601086 -5.30304 0
M  V30 110 O 7.5526 1.83682 -5.40016 0
M  V30 111 O 6.4866 -0.000808277 -6.019 0
M  V30 112 H 10.3126 -1.00172 -2.86704 0
M  V30 113 H 7.8976 -0.554341 -1.38735 0
M  V30 114 H 9.7796 1.14375 -4.05581 0
M  V30 115 H 8.4546 1.44247 -2.89784 0
M  V30 116 H 7.3616 -0.743714 -3.66633 0
M  V30 117 H 8.6946 -0.959195 -4.82763 0
M  V30 118 N 10.3467 1.47872 -0.545128 0
M  V30 119 C 11.7577 1.86384 -0.108581 0
M  V30 120 C 12.1087 1.45309 1.31832 0
M  V30 121 O 11.2337 0.850641 1.9898 0
M  V30 122 C 11.8287 3.38265 -0.190274 0
M  V30 123 C 10.3877 3.75914 0.191164 0
M  V30 124 C 9.5347 2.71926 -0.543273 0
M  V30 125 H 12.4857 1.39561 -0.755537 0
M  V30 126 H 12.5067 3.75831 0.594217 0
M  V30 127 H 12.0187 3.6813 -1.2289 0
M  V30 128 H 10.1197 3.51665 1.23136 0
M  V30 129 H 10.2327 4.78836 -0.158987 0
M  V30 130 H 8.5967 2.54697 0.0122495 0
M  V30 131 H 9.3797 3.04634 -1.58282 0
M  V30 132 N 11.8248 0.280983 1.55075 0
M  V30 133 C 13.2408 -0.0729964 1.59433 0
M  V30 134 C 13.4408 -1.5411 1.29817 0
M  V30 135 O 12.4968 -2.29086 1.06187 0
M  V30 136 C 13.8098 0.306921 2.9913 0
M  V30 137 C 15.3578 0.254023 3.11968 0
M  V30 138 C 15.8328 0.608467 4.5394 0
M  V30 139 N 17.3238 0.560241 4.59799 0
M  V30 140 C 18.0588 0.80722 5.6769 0
M  V30 141 N 17.5548 1.11912 6.83701 0
M  V30 142 N 19.3478 0.735623 5.57266 0
M  V30 143 H 11.4988 1.238 1.7259 0
M  V30 144 H 13.7618 0.500547 0.805082 0
M  V30 145 H 13.4678 1.32816 3.25657 0
M  V30 146 H 13.3418 -0.349363 3.75579 0
M  V30 147 H 15.7288 -0.75794 2.852 0
M  V30 148 H 15.8098 0.944649 2.37718 0
M  V30 149 H 15.4538 1.61814 4.81434 0
M  V30 150 H 15.3838 -0.104013 5.26497 0
M  V30 151 H 17.8748 0.329288 3.76463 0
M  V30 152 H 18.1878 1.29409 7.61888 0
M  V30 153 H 16.5328 1.15695 6.85303 0
M  V30 154 H 19.7238 0.491752 4.6551 0
M  V30 155 H 19.8968 0.931482 6.4127 0
M  V30 156 N 13.3029 -1.57598 0.00835791 0
M  V30 157 C 14.5509 -1.90551 -0.6734 0
M  V30 158 C 14.8719 -0.883301 -1.73847 0
M  V30 159 O 14.1419 0.0781442 -1.95744 0
M  V30 160 H 12.7219 -0.703312 -0.251717 0
M  V30 161 H 15.3839 -1.94833 0.0512592 0
M  V30 162 H 14.4799 -2.9056 -1.13935 0
M  V30 163 N 14.781 0.264519 -1.55364 0
M  V30 164 C 16.029 0.993021 -1.76021 0
M  V30 165 C 16.35 1.86511 -0.569099 0
M  V30 166 O 15.62 1.91438 0.415735 0
M  V30 167 H 14.2 0.369639 -0.649135 0
M  V30 168 H 16.862 0.286707 -1.9278 0
M  V30 169 H 15.958 1.62502 -2.66457 0
M  V30 170 N 16.2591 1.48442 0.529413 0
M  V30 171 C 17.5061 1.56488 1.28521 0
M  V30 172 C 17.8341 0.239042 1.93025 0
M  V30 173 O 17.0891 -0.770713 1.79885 0
M  V30 174 C 17.3881 2.6523 2.39558 0
M  V30 175 C 17.0541 4.07648 1.92702 0
M  V30 176 C 15.7161 4.46411 1.79641 0
M  V30 177 C 18.0681 4.96896 1.573 0
M  V30 178 C 15.3961 5.72226 1.29514 0
M  V30 179 C 17.7481 6.23202 1.08636 0
M  V30 180 C 16.4121 6.60821 0.941919 0
M  V30 181 H 15.6821 0.572631 0.470292 0
M  V30 182 H 18.3291 1.82161 0.59072 0
M  V30 183 H 16.6341 2.33419 3.14679 0
M  V30 184 H 18.3311 2.68671 2.97686 0
M  V30 185 H 14.9211 3.77036 2.03819 0
M  V30 186 H 19.1051 4.67626 1.66251 0
M  V30 187 H 14.3611 6.00097 1.17019 0
M  V30 188 H 18.5351 6.91753 0.803136 0
M  V30 189 H 16.1621 7.58198 0.5513 0
M  V30 190 N 17.7372 -0.778329 1.37039 0
M  V30 191 C 18.9622 -1.57248 1.35233 0
M  V30 192 C 19.3872 -1.87999 -0.0615568 0
M  V30 193 O 18.7452 -1.48734 -1.03672 0
M  V30 194 C 18.7932 -2.86353 2.19167 0
M  V30 195 O 17.8972 -3.80442 1.59178 0
M  V30 196 H 17.2382 -0.476569 0.462362 0
M  V30 197 H 19.7682 -0.963853 1.80474 0
M  V30 198 H 19.7782 -3.35519 2.32145 0
M  V30 199 H 18.4532 -2.63299 3.21942 0
M  V30 200 H 17.0302 -3.39067 1.55203 0
M  V30 201 N 19.2153 -1.21501 -1.00376 0
M  V30 202 C 20.4623 -1.03299 -1.74171 0
M  V30 203 C 20.7903 0.433326 -1.89612 0
M  V30 204 O 20.0453 1.33779 -1.42834 0
M  V30 205 C 20.3443 -1.67673 -3.15627 0
M  V30 206 C 20.0103 -3.17533 -3.2013 0
M  V30 207 C 18.6723 -3.58427 -3.21067 0
M  V30 208 C 21.0243 -4.13504 -3.17275 0
M  V30 209 C 18.3523 -4.93794 -3.16835 0
M  V30 210 C 20.7043 -5.48834 -3.14585 0
M  V30 211 C 19.3683 -5.89123 -3.13831 0
M  V30 212 H 18.6383 -0.377999 -0.637336 0
M  V30 213 H 21.2853 -1.51111 -1.17634 0
M  V30 214 H 19.5903 -1.12158 -3.75404 0
M  V30 215 H 21.2873 -1.51091 -3.71446 0
M  V30 216 H 17.8773 -2.84965 -3.20145 0
M  V30 217 H 22.0613 -3.82936 -3.15711 0
M  V30 218 H 17.3173 -5.24255 -3.1459 0
M  V30 219 H 21.4913 -6.22934 -3.1133 0
M  V30 220 H 19.1183 -6.93984 -3.10307 0
M  V30 221 N 20.6934 1.19889 -1.02296 0
M  V30 222 C 21.6034 2.26571 -0.608508 0
M  V30 223 C 22.6194 1.70299 0.356964 0
M  V30 224 O 23.7954 2.00235 0.216326 0
M  V30 225 C 20.8604 3.46677 0.0402814 0
M  V30 226 C 19.9214 4.18153 -0.97194 0
M  V30 227 C 19.1544 5.32525 -0.354016 0
M  V30 228 O 19.3774 5.64112 0.844604 0
M  V30 229 O 18.3114 5.92242 -1.07391 0
M  V30 230 H 22.1374 2.64251 -1.49684 0
M  V30 231 H 19.7224 1.26629 -0.792809 0
M  V30 232 H 21.6044 4.19475 0.402324 0
M  V30 233 H 20.2794 3.10858 0.902707 0
M  V30 234 H 19.1864 3.47499 -1.38546 0
M  V30 235 H 20.5194 4.57927 -1.80454 0
M  V30 236 N 22.1715 0.800033 1.35784 0
M  V30 237 C 23.1195 0.193851 2.31791 0
M  V30 238 C 24.1135 -0.652744 1.56319 0
M  V30 239 O 25.3195 -0.546641 1.71499 0
M  V30 240 H 21.6945 0.04392 0.750716 0
M  V30 241 H 23.6655 1.01883 2.80468 0
M  V30 242 C 22.4145 -0.648338 3.41602 0
M  V30 243 H 21.7375 -0.00624665 3.998 0
M  V30 244 H 23.1775 -1.03898 4.11073 0
M  V30 245 C 21.6365 -1.8111 2.84079 0
M  V30 246 O 22.1665 -2.90825 2.77099 0
M  V30 247 N 20.3725 -1.62056 2.41218 0
M  V30 248 H 19.9195 -0.728123 2.47095 0
M  V30 249 H 19.8775 -2.40013 2.03079 0
M  V30 250 N 23.6496 -1.47581 0.552962 0
M  V30 251 C 24.8896 -2.04379 0.0296245 0
M  V30 252 C 25.2536 -1.4185 -1.29393 0
M  V30 253 O 26.4546 -1.89669 -1.90471 0
M  V30 254 C 24.7256 -3.57339 -0.0661371 0
M  V30 255 S 26.2846 -4.35511 -0.536213 0
M  V30 256 H 23.1026 -0.710625 0.0230991 0
M  V30 257 H 25.7046 -1.81005 0.738734 0
M  V30 258 H 24.4086 -4.00374 0.901596 0
M  V30 259 H 23.9396 -3.85202 -0.798931 0
M  V30 260 H 25.9546 -4.6253 -1.79668 0
M  V30 261 N 25.1277 -0.289203 -1.54924 0
M  V30 262 C 26.0597 0.625583 -2.20497 0
M  V30 263 C 27.0727 1.10667 -1.19402 0
M  V30 264 O 28.2617 1.02615 -1.46056 0
M  V30 265 C 25.3617 1.86702 -2.82835 0
M  V30 266 C 24.5347 1.5304 -4.09753 0
M  V30 267 C 23.5937 2.62576 -4.56005 0
M  V30 268 O 22.6197 2.28167 -5.21468 0
M  V30 269 N 23.8217 3.92901 -4.27328 0
M  V30 270 H 26.5867 0.0642801 -2.99631 0
M  V30 271 H 24.1477 -0.110896 -1.6152 0
M  V30 272 H 26.1397 2.59304 -3.10715 0
M  V30 273 H 24.7097 2.33702 -2.07611 0
M  V30 274 H 23.9297 0.637564 -3.8901 0
M  V30 275 H 25.2177 1.28072 -4.92418 0
M  V30 276 H 24.6157 4.23671 -3.74859 0
M  V30 277 H 23.1727 4.61837 -4.59946 0
M  V30 278 N 26.6058 1.57591 -0.0167156 0
M  V30 279 C 28.0218 1.55946 0.339557 0
M  V30 280 C 28.2218 1.02109 1.73713 0
M  V30 281 O 27.2778 0.662303 2.43659 0
M  V30 282 C 28.5908 3.00037 0.199499 0
M  V30 283 C 30.1388 3.11805 0.273193 0
M  V30 284 C 30.6138 4.57713 0.162068 0
M  V30 285 N 32.1048 4.6268 0.219444 0
M  V30 286 C 32.8398 5.73185 0.157054 0
M  V30 287 N 32.3358 6.92786 0.0442936 0
M  V30 288 N 34.1288 5.61707 0.21014 0
M  V30 289 H 26.2798 1.90921 -0.930758 0
M  V30 290 H 28.5428 0.877674 -0.358319 0
M  V30 291 H 28.2488 3.4333 -0.76273 0
M  V30 292 H 28.1228 3.64387 0.974786 0
M  V30 293 H 30.5098 2.68433 1.22587 0
M  V30 294 H 30.5908 2.50201 -0.532256 0
M  V30 295 H 30.2348 5.01763 -0.78714 0
M  V30 296 H 30.1648 5.17283 0.986222 0
M  V30 297 H 32.6558 3.76649 0.307246 0
M  V30 298 H 32.9688 7.728 0.00304069 0
M  V30 299 H 31.3138 6.94999 0.00968457 0
M  V30 300 H 34.5048 4.6716 0.296546 0
M  V30 301 H 34.6778 6.47807 0.158054 0
M  V30 302 N 28.0839 -0.256276 1.55502 0
M  V30 303 C 29.0319 -1.33694 1.90338 0
M  V30 304 C 30.0259 -1.50299 0.781441 0
M  V30 305 O 31.2319 -1.51885 0.965966 0
M  V30 306 H 27.6069 -0.447483 0.60437 0
M  V30 307 H 29.5779 -1.01574 2.8058 0
M  V30 308 C 28.3269 -2.68724 2.20642 0
M  V30 309 H 27.6499 -2.56743 3.06469 0
M  V30 310 H 29.0899 -3.43237 2.48926 0
M  V30 311 C 27.5489 -3.21101 1.01959 0
M  V30 312 O 28.0789 -4.0084 0.262762 0
M  V30 313 N 26.2849 -2.79003 0.812746 0
M  V30 314 H 25.8319 -2.14271 1.42989 0
M  V30 315 H 25.7899 -3.14393 0.0203076 0
M  V30 316 N 29.562 -1.4872 -0.521534 0
M  V30 317 C 30.525 -1.63379 -1.60748 0
M  V30 318 C 31.525 -0.50661 -1.52611 0
M  V30 319 O 32.715 -0.772601 -1.5613 0
M  V30 320 C 29.847 -1.61192 -3.00383 0
M  V30 321 H 31.04 -2.60217 -1.49087 0
M  V30 322 H 28.593 -1.37444 -0.744235 0
M  V30 323 H 29.328 -0.65863 -3.17541 0
M  V30 324 H 29.113 -2.43032 -3.07698 0
M  V30 325 H 30.603 -1.7466 -3.7932 0
M  V30 326 N 31.0401 0.771051 -1.3745 0
M  V30 327 C 32.2651 1.56529 -1.36065 0
M  V30 328 C 32.6901 1.88029 0.0515859 0
M  V30 329 O 32.0481 1.49282 1.02882 0
M  V30 330 C 32.0961 2.85187 -2.20683 0
M  V30 331 O 31.2001 3.79593 -1.61193 0
M  V30 332 H 30.5411 0.47411 -0.464883 0
M  V30 333 H 33.0711 0.954269 -1.80983 0
M  V30 334 H 33.0811 3.34283 -2.33921 0
M  V30 335 H 31.7561 2.61588 -3.23334 0
M  V30 336 H 30.3331 3.38239 -1.56999 0
M  V30 337 N 32.5182 1.22032 0.997298 0
M  V30 338 C 33.4482 1.01065 2.10495 0
M  V30 339 C 34.4292 -0.0669542 1.69968 0
M  V30 340 O 35.6142 0.0943987 1.9397 0
M  V30 341 C 32.7442 0.582874 3.42374 0
M  V30 342 C 31.6982 1.60592 3.96729 0
M  V30 343 C 31.0242 1.03412 5.24605 0
M  V30 344 C 32.3242 2.99478 4.27914 0
M  V30 345 H 34.0182 1.93708 2.28292 0
M  V30 346 H 31.5642 0.932761 1.09707 0
M  V30 347 H 33.5172 0.423332 4.19268 0
M  V30 348 H 32.2412 -0.379213 3.24391 0
M  V30 349 H 30.9002 1.75316 3.21963 0
M  V30 350 H 30.5482 0.063518 5.0296 0
M  V30 351 H 30.2482 1.71754 5.61938 0
M  V30 352 H 31.7722 0.886066 6.04137 0
M  V30 353 H 33.1862 2.88153 4.95622 0
M  V30 354 H 31.5832 3.64903 4.76409 0
M  V30 355 H 32.6532 3.49742 3.3587 0
M  V30 356 N 33.9963 -1.19345 1.0293 0
M  V30 357 C 34.9063 -2.26245 0.620515 0
M  V30 358 C 35.9223 -1.70486 -0.347928 0
M  V30 359 O 37.0983 -2.00347 -0.205704 0
M  V30 360 C 34.1633 -3.46693 -0.0218957 0
M  V30 361 C 33.2243 -4.17632 0.994102 0
M  V30 362 C 32.4573 -5.32329 0.382253 0
M  V30 363 O 32.6803 -5.64552 -0.814676 0
M  V30 364 O 31.6143 -5.91664 1.10531 0
M  V30 365 H 35.4403 -2.63453 1.51083 0
M  V30 366 H 33.0253 -1.26207 0.799513 0
M  V30 367 H 34.9073 -4.19683 -0.380072 0
M  V30 368 H 33.5823 -3.11333 -0.886209 0
M  V30 369 H 32.4893 -3.4676 1.40387 0
M  V30 370 H 33.8223 -4.56964 1.8288 0
M  V30 371 N 35.4744 -0.807222 -1.35358 0
M  V30 372 C 36.8904 -0.491038 -1.51858 0
M  V30 373 C 37.0904 0.987648 -1.75635 0
M  V30 374 O 36.1464 1.77265 -1.79815 0
M  V30 375 C 37.4594 -1.33695 -2.69344 0
M  V30 376 C 39.0074 -1.33246 -2.83222 0
M  V30 377 C 39.4824 -2.1625 -4.03733 0
M  V30 378 N 40.9734 -2.1379 -4.10911 0
M  V30 379 C 41.7084 -2.74772 -5.03277 0
M  V30 380 N 41.2044 -3.44684 -6.0097 0
M  V30 381 N 42.9974 -2.6441 -4.96028 0
M  V30 382 H 35.1484 -1.76485 -1.18181 0
M  V30 383 H 37.4114 -0.751199 -0.578276 0
M  V30 384 H 37.1174 -2.38634 -2.58354 0
M  V30 385 H 36.9914 -0.990618 -3.6396 0
M  V30 386 H 39.3784 -0.290911 -2.93663 0
M  V30 387 H 39.4594 -1.71866 -1.89461 0
M  V30 388 H 39.1034 -3.20445 -3.94052 0
M  V30 389 H 39.0334 -1.74989 -4.96675 0
M  V30 390 H 41.5244 -1.62923 -3.40976 0
M  V30 391 H 41.8374 -3.88501 -6.68047 0
M  V30 392 H 40.1824 -3.48788 -6.01142 0
M  V30 393 H 43.3734 -2.0938 -4.18662 0
M  V30 394 H 43.5464 -3.12225 -5.6782 0
M  V30 395 N 36.9525 1.47285 -0.560781 0
M  V30 396 C 38.1985 2.02764 -0.0381184 0
M  V30 397 C 38.5315 1.43384 1.30976 0
M  V30 398 O 37.8065 0.590733 1.85312 0
M  V30 399 C 38.0895 3.60064 0.0511427 0
M  V30 400 C 37.9425 4.2987 -1.32408 0
M  V30 401 C 39.2615 4.33439 0.762795 0
M  V30 402 H 36.3805 0.736841 -0.0153264 0
M  V30 403 H 39.0225 1.75675 -0.723759 0
M  V30 404 H 37.1725 3.83274 0.635065 0
M  V30 405 H 38.8445 4.17989 -1.95148 0
M  V30 406 H 37.0875 3.90085 -1.8978 0
M  V30 407 H 37.7585 5.38478 -1.21431 0
M  V30 408 H 40.2345 4.15243 0.266965 0
M  V30 409 H 39.1105 5.43124 0.794221 0
M  V30 410 H 39.3715 4.02915 1.81966 0
M  V30 411 N 38.4306 0.297415 1.54768 0
M  V30 412 C 39.3606 -0.573494 2.26348 0
M  V30 413 C 40.3416 -1.14085 1.26169 0
M  V30 414 O 41.5266 -1.17086 1.54934 0
M  V30 415 C 38.6566 -1.74716 3.00153 0
M  V30 416 C 37.6106 -1.31032 4.07449 0
M  V30 417 C 36.9366 -2.56887 4.68949 0
M  V30 418 C 38.2366 -0.444183 5.20408 0
M  V30 419 H 39.9306 0.0235131 2.99391 0
M  V30 420 H 37.4766 0.0127488 1.43994 0
M  V30 421 H 39.4296 -2.3625 3.48947 0
M  V30 422 H 38.1536 -2.37035 2.24682 0
M  V30 423 H 36.8126 -0.718066 3.59499 0
M  V30 424 H 36.4606 -3.17512 3.90122 0
M  V30 425 H 36.1606 -2.2836 5.41411 0
M  V30 426 H 37.6846 -3.19229 5.20505 0
M  V30 427 H 39.0986 -0.9651 5.65118 0
M  V30 428 H 37.4956 -0.252846 5.99567 0
M  V30 429 H 38.5656 0.531609 4.81977 0
M  V30 430 N 39.9087 -1.5758 0.0250728 0
M  V30 431 C 41.3197 -1.79476 -0.514323 0
M  V30 432 C 41.6707 -0.934956 -1.72491 0
M  V30 433 O 40.7957 -0.144245 -2.15919 0
M  V30 434 C 41.3907 -3.25503 -0.939842 0
M  V30 435 C 39.9497 -3.48408 -1.42438 0
M  V30 436 C 39.0967 -2.74583 -0.387201 0
M  V30 437 H 42.0477 -1.567 0.25113 0
M  V30 438 H 42.0687 -3.34992 -1.80445 0
M  V30 439 H 41.5807 -3.88056 -0.0585628 0
M  V30 440 H 39.6817 -2.91103 -2.32572 0
M  V30 441 H 39.7947 -4.57119 -1.43455 0
M  V30 442 H 38.1587 -2.39942 -0.854409 0
M  V30 443 H 38.9417 -3.39849 0.485543 0
M  V30 444 N 41.3868 0.248026 -1.55636 0
M  V30 445 C 42.6348 0.974295 -1.77065 0
M  V30 446 C 42.9558 1.85897 -0.588849 0
M  V30 447 O 42.2258 1.91868 0.395407 0
M  V30 448 H 40.8058 0.362733 -0.653019 0
M  V30 449 H 43.4678 0.266244 -1.93073 0
M  V30 450 H 42.5638 1.59667 -2.68166 0
M  V30 451 N 42.8649 1.48995 0.513639 0
M  V30 452 C 43.7949 1.67636 1.62544 0
M  V30 453 C 44.7759 0.525087 1.61793 0
M  V30 454 O 45.9609 0.759502 1.78732 0
M  V30 455 C 43.0909 1.73114 3.01079 0
M  V30 456 C 42.0449 2.87905 3.16693 0
M  V30 457 C 41.3709 2.78486 4.56453 0
M  V30 458 C 42.6709 4.29005 2.97913 0
M  V30 459 H 44.3649 2.60716 1.47198 0
M  V30 460 H 41.9109 1.25465 0.706714 0
M  V30 461 H 43.8639 1.84742 3.78746 0
M  V30 462 H 42.5879 0.766241 3.17484 0
M  V30 463 H 41.2469 2.75859 2.41448 0
M  V30 464 H 40.8949 1.7993 4.69717 0
M  V30 465 H 40.5949 3.55523 4.67843 0
M  V30 466 H 42.1189 2.92104 5.36197 0
M  V30 467 H 43.5329 4.41798 3.65359 0
M  V30 468 H 41.9299 5.07166 3.20785 0
M  V30 469 H 42.9999 4.44329 1.94165 0
M  V30 470 N 44.343 -0.763751 1.37857 0
M  V30 471 C 45.29 -1.87726 1.34267 0
M  V30 472 C 46.26 -1.64807 0.206879 0
M  V30 473 O 47.445 -1.86613 0.397508 0
M  V30 474 C 44.585 -3.24896 1.16346 0
M  V30 475 C 43.698 -3.59716 2.39225 0
M  V30 476 C 42.833 -4.86137 2.14114 0
M  V30 477 C 41.872 -5.13711 3.32817 0
M  V30 478 N 41.009 -6.31323 3.07206 0
M  V30 479 H 45.849 -1.90129 2.29466 0
M  V30 480 H 43.386 -0.929433 1.14017 0
M  V30 481 H 45.344 -4.04036 1.03975 0
M  V30 482 H 43.974 -3.21847 0.247909 0
M  V30 483 H 43.026 -2.75498 2.62307 0
M  V30 484 H 44.338 -3.76027 3.27728 0
M  V30 485 H 43.492 -5.73198 1.9882 0
M  V30 486 H 42.231 -4.71945 1.22961 0
M  V30 487 H 41.236 -4.25123 3.48641 0
M  V30 488 H 42.461 -5.29807 4.24832 0
M  V30 489 H 40.407 -6.18474 2.1869 0
M  V30 490 H 40.324 -6.48087 3.89254 0
M  V30 491 H 41.592 -7.213 2.95546 0
M  V30 492 N 45.8211 -1.22559 -0.990812 0
M  V30 493 C 47.0671 -1.05297 -1.73322 0
M  V30 494 C 47.4001 0.410655 -1.89808 0
M  V30 495 O 46.6751 1.30439 -1.44277 0
M  V30 496 C 46.9581 -1.76713 -3.13759 0
M  V30 497 C 46.8111 -3.30684 -3.04907 0
M  V30 498 C 48.1301 -1.52121 -4.12974 0
M  V30 499 H 45.2491 -0.38392 -0.629106 0
M  V30 500 H 47.8911 -1.50926 -1.15418 0
M  V30 501 H 46.0411 -1.37924 -3.63193 0
M  V30 502 H 47.7131 -3.7893 -2.63077 0
M  V30 503 H 45.9561 -3.60253 -2.41661 0
M  V30 504 H 46.6271 -3.75833 -4.04294 0
M  V30 505 H 49.1031 -1.85819 -3.72304 0
M  V30 506 H 47.9791 -2.04582 -5.0935 0
M  V30 507 H 48.2401 -0.454257 -4.3976 0
M  V30 508 N 47.2992 1.18797 -1.03562 0
M  V30 509 C 48.7102 1.70322 -0.764676 0
M  V30 510 C 49.0612 1.82708 0.714996 0
M  V30 511 O 48.1862 1.50299 1.55689 0
M  V30 512 C 48.7812 3.09356 -1.38145 0
M  V30 513 C 47.3402 3.58114 -1.15895 0
M  V30 514 C 46.4872 2.34798 -1.4753 0
M  V30 515 H 49.4382 1.03543 -1.20268 0
M  V30 516 H 49.4592 3.72378 -0.781977 0
M  V30 517 H 48.9712 3.00309 -2.45837 0
M  V30 518 H 47.0722 3.72464 -0.100544 0
M  V30 519 H 47.1852 4.4184 -1.8524 0
M  V30 520 H 45.5492 2.38464 -0.894829 0
M  V30 521 H 46.3322 2.28375 -2.56319 0
M  V30 522 N 48.7773 0.814389 1.34928 0
M  V30 523 C 49.7273 0.202752 2.27097 0
M  V30 524 C 50.7113 -0.62799 1.48139 0
M  V30 525 O 51.9033 -0.483969 1.70255 0
M  V30 526 C 49.0323 -0.64146 3.37254 0
M  V30 527 C 48.1183 0.19944 4.23631 0
M  V30 528 N 48.5093 1.26628 4.89693 0
M  V30 529 C 46.8073 -0.0176433 4.45997 0
M  V30 530 C 47.5083 1.78031 5.53787 0
M  V30 531 N 46.4843 1.08553 5.32651 0
M  V30 532 H 50.2863 1.01893 2.75672 0
M  V30 533 H 47.8003 0.656332 1.48546 0
M  V30 534 H 49.7973 -1.09575 4.02243 0
M  V30 535 H 48.4573 -1.4559 2.9023 0
M  V30 536 H 49.4683 1.64901 4.90946 0
M  V30 537 H 46.1453 -0.800601 4.09752 0
M  V30 538 H 47.5353 2.67236 6.16469 0
M  V30 539 N 50.2554 -1.46986 0.568584 0
M  V30 540 C 51.2184 -2.28624 -0.162366 0
M  V30 541 C 52.2184 -1.37596 -0.832103 0
M  V30 542 O 53.4084 -1.60115 -0.68622 0
M  V30 543 C 50.5404 -3.17596 -1.23878 0
M  V30 544 H 51.7334 -2.94722 0.554899 0
M  V30 545 H 49.2864 -1.52863 0.325976 0
M  V30 546 H 50.0214 -2.56214 -1.98808 0
M  V30 547 H 49.8064 -3.846 -0.763219 0
M  V30 548 H 51.2964 -3.79078 -1.75185 0
M  V30 549 N 51.7335 -0.305618 -1.54608 0
M  V30 550 C 53.1495 0.0476228 -1.59529 0
M  V30 551 C 53.3495 1.52025 -1.32252 0
M  V30 552 O 52.4055 2.27368 -1.09818 0
M  V30 553 C 53.7185 -0.354471 -2.98603 0
M  V30 554 C 55.2665 -0.303622 -3.11524 0
M  V30 555 C 55.7415 -0.680608 -4.52915 0
M  V30 556 N 57.2325 -0.63332 -4.5885 0
M  V30 557 C 57.9675 -0.897432 -5.66334 0
M  V30 558 N 57.4635 -1.22775 -6.81834 0
M  V30 559 N 59.2565 -0.824186 -5.56025 0
M  V30 560 H 51.4075 -1.2653 -1.70599 0
M  V30 561 H 53.6705 -0.513291 -0.797017 0
M  V30 562 H 53.3765 -1.3798 -3.23503 0
M  V30 563 H 53.2505 0.289568 -3.76087 0
M  V30 564 H 55.6375 0.712472 -2.8637 0
M  V30 565 H 55.7185 -0.982348 -2.36185 0
M  V30 566 H 55.3625 -1.69453 -4.78799 0
M  V30 567 H 55.2925 0.0202385 -5.26596 0
M  V30 568 H 57.7835 -0.389138 -3.75891 0
M  V30 569 H 58.0965 -1.41513 -7.59733 0
M  V30 570 H 56.4415 -1.26583 -6.83375 0
M  V30 571 H 59.6325 -0.565748 -4.64669 0
M  V30 572 H 59.8055 -1.03338 -6.39707 0
M  V30 573 N 53.2116 1.57565 -0.0334293 0
M  V30 574 C 54.1586 2.10478 0.946981 0
M  V30 575 C 55.1286 1.00787 1.32027 0
M  V30 576 O 56.3136 1.28232 1.41284 0
M  V30 577 C 53.4536 2.63994 2.22263 0
M  V30 578 C 52.5666 3.87709 1.90541 0
M  V30 579 C 51.7016 4.29604 3.12433 0
M  V30 580 C 50.7406 5.46065 2.76549 0
M  V30 581 N 49.8776 5.83096 3.9108 0
M  V30 582 H 54.7176 2.93963 0.488846 0
M  V30 583 H 52.2546 1.45296 0.22969 0
M  V30 584 H 54.2126 2.93114 2.96884 0
M  V30 585 H 52.8426 1.83333 2.65685 0
M  V30 586 H 51.8946 3.65291 1.06144 0
M  V30 587 H 53.2066 4.72403 1.60116 0
M  V30 588 H 52.3606 4.60182 3.9537 0
M  V30 589 H 51.0996 3.43685 3.46023 0
M  V30 590 H 50.1046 5.15176 1.92026 0
M  V30 591 H 51.3296 6.33685 2.44171 0
M  V30 592 H 49.2756 5.00132 4.24504 0
M  V30 593 H 49.1926 6.6244 3.64293 0
M  V30 594 H 50.4606 6.18282 4.74708 0
M  V30 595 N 54.6897 -0.239769 1.55765 0
M  V30 596 C 55.9177 -0.98417 1.81994 0
M  V30 597 C 56.3327 -1.7867 0.610124 0
M  V30 598 O 55.6897 -1.77571 -0.421271 0
M  V30 599 C 55.7407 -1.91635 3.06526 0
M  V30 600 O 55.4617 -1.14629 4.22838 0
M  V30 601 C 56.9627 -2.77616 3.45607 0
M  V30 602 H 54.1827 -0.28928 0.605441 0
M  V30 603 H 56.7267 -0.260499 2.02834 0
M  V30 604 H 54.8817 -2.5942 2.87715 0
M  V30 605 H 55.2957 -1.77745 4.93464 0
M  V30 606 H 56.7697 -3.38759 4.35828 0
M  V30 607 H 57.2467 -3.4909 2.6652 0
M  V30 608 H 57.8527 -2.15271 3.66795 0
M  V30 609 N 56.1678 -1.49265 -0.50573 0
M  V30 610 C 57.4158 -1.582 -1.25766 0
M  V30 611 C 57.7368 -0.268482 -1.93143 0
M  V30 612 O 57.0068 0.711833 -1.8251 0
M  V30 613 H 55.5868 -0.582873 -0.467191 0
M  V30 614 H 58.2488 -1.85865 -0.586525 0
M  V30 615 H 57.3448 -2.37563 -2.02412 0
M  V30 616 N 57.6459 0.756429 -1.3826 0
M  V30 617 C 58.8739 1.54565 -1.3754 0
M  V30 618 C 59.2889 1.88767 0.0355331 0
M  V30 619 O 58.6459 1.52572 1.0014 0
M  V30 620 C 58.6969 2.84654 -2.22833 0
M  V30 621 O 58.4179 2.51912 -3.5843 0
M  V30 622 C 59.9189 3.78807 -2.30261 0
M  V30 623 H 57.1389 0.478353 -0.470553 0
M  V30 624 H 59.6829 0.936381 -1.81803 0
M  V30 625 H 57.8379 3.41965 -1.8204 0
M  V30 626 H 58.2519 3.35325 -4.03308 0
M  V30 627 H 59.7259 4.67045 -2.94233 0
M  V30 628 H 60.2029 4.19038 -1.31545 0
M  V30 629 H 60.8089 3.2742 -2.71433 0
M  V30 630 N 59.124 1.23083 0.984299 0
M  V30 631 C 60.352 1.08714 1.76037 0
M  V30 632 C 60.767 -0.361691 1.85303 0
M  V30 633 O 60.124 -1.25034 1.32939 0
M  V30 634 C 60.175 1.70206 3.18923 0
M  V30 635 O 59.896 3.09423 3.10144 0
M  V30 636 C 61.397 1.61227 4.12941 0
M  V30 637 H 58.617 0.380664 0.552572 0
M  V30 638 H 61.161 1.62853 1.23689 0
M  V30 639 H 59.316 1.20109 3.6831 0
M  V30 640 H 59.73 3.39188 4.00065 0
M  V30 641 H 61.204 2.08962 5.10919 0
M  V30 642 H 61.681 0.570375 4.35481 0
M  V30 643 H 62.287 2.10671 3.69456 0
M  V30 644 N 60.6021 -1.18246 1.0419 0
M  V30 645 C 61.8511 -1.87588 0.741194 0
M  V30 646 C 62.1641 -1.81303 -0.734066 0
M  V30 647 O 63.3701 -2.46019 -1.14834 0
M  V30 648 C 61.8261 -3.36538 1.27555 0
M  V30 649 C 61.4341 -3.51349 2.77953 0
M  V30 650 C 63.1781 -4.11273 1.05143 0
M  V30 651 C 61.0851 -4.94265 3.2474 0
M  V30 652 H 60.0151 -0.702622 0.273565 0
M  V30 653 H 62.6661 -1.33601 1.25789 0
M  V30 654 H 61.0481 -3.9 0.686703 0
M  V30 655 H 62.2221 -3.08153 3.42605 0
M  V30 656 H 60.5371 -2.90022 2.98791 0
M  V30 657 H 63.1341 -5.16689 1.37611 0
M  V30 658 H 63.4771 -4.16298 -0.0112774 0
M  V30 659 H 64.0101 -3.63987 1.60495 0
M  V30 660 H 60.7491 -4.94408 4.30396 0
M  V30 661 H 60.2691 -5.38172 2.64823 0
M  V30 662 H 61.9481 -5.62987 3.18834 0
M  V30 663 N 62.0802 -0.821533 -1.34494 0
M  V30 664 C 63.0432 -0.247847 -2.27856 0
M  V30 665 C 64.0432 0.573453 -1.50227 0
M  V30 666 O 65.2332 0.389759 -1.69784 0
M  V30 667 C 62.3652 0.652698 -3.34593 0
M  V30 668 H 63.5582 -1.07146 -2.80107 0
M  V30 669 H 61.1112 -0.593291 -1.44602 0
M  V30 670 H 61.8462 1.49943 -2.87555 0
M  V30 671 H 61.6312 0.065292 -3.92046 0
M  V30 672 H 63.1212 1.04793 -4.04238 0
M  V30 673 N 63.5583 1.46682 -0.576371 0
M  V30 674 C 64.8063 2.02013 -0.0594163 0
M  V30 675 C 65.1273 1.45101 1.30271 0
M  V30 676 O 64.3973 0.633317 1.8538 0
M  V30 677 H 62.9773 0.746759 -0.0189745 0
M  V30 678 H 65.6393 1.79862 -0.750717 0
M  V30 679 H 64.7353 3.12097 0.014345 0
M  V30 680 N 65.0364 0.313813 1.54444 0
M  V30 681 C 65.9664 -0.549454 2.26943 0
M  V30 682 C 66.9474 -1.12741 1.27372 0
M  V30 683 O 68.1324 -1.15436 1.56167 0
M  V30 684 C 65.2624 -1.71523 3.01989 0
M  V30 685 C 64.2164 -1.26703 4.08816 0
M  V30 686 C 63.5424 -2.51898 4.71647 0
M  V30 687 C 64.8424 -0.388962 5.2085 0
M  V30 688 H 66.5364 0.0552661 2.99349 0
M  V30 689 H 64.0824 0.0280207 1.43973 0
M  V30 690 H 66.0354 -2.32535 3.51433 0
M  V30 691 H 64.7594 -2.34639 2.27183 0
M  V30 692 H 63.4184 -0.679896 3.6024 0
M  V30 693 H 63.0664 -3.13356 3.93468 0
M  V30 694 H 62.7664 -2.22605 5.43802 0
M  V30 695 H 64.2904 -3.1369 5.23861 0
M  V30 696 H 65.7044 -0.905107 5.6611 0
M  V30 697 H 64.1014 -0.18924 5.99802 0
M  V30 698 H 65.1714 0.582699 4.81386 0
M  V30 699 N 66.5145 -1.57545 0.0417849 0
M  V30 700 C 67.7605 -1.92601 -0.635021 0
M  V30 701 C 68.0935 -0.919627 -1.71045 0
M  V30 702 O 67.3685 0.0557892 -1.9442 0
M  V30 703 C 67.6515 -3.38085 -1.23979 0
M  V30 704 C 67.5045 -4.49467 -0.173057 0
M  V30 705 C 68.8235 -3.83776 -2.15416 0
M  V30 706 H 65.9425 -0.700397 -0.229374 0
M  V30 707 H 68.5845 -1.89728 0.101633 0
M  V30 708 H 66.7345 -3.40664 -1.86762 0
M  V30 709 H 68.4065 -4.59018 0.458312 0
M  V30 710 H 66.6495 -4.30909 0.499996 0
M  V30 711 H 67.3205 -5.48323 -0.636054 0
M  V30 712 H 69.7965 -3.83013 -1.62605 0
M  V30 713 H 68.6725 -4.8624 -2.54679 0
M  V30 714 H 68.9335 -3.19998 -3.05047 0
M  V30 715 N 67.9926 0.231505 -1.5589 0
M  V30 716 C 69.2396 0.957352 -1.78441 0
M  V30 717 C 69.5676 1.84726 -0.60882 0
M  V30 718 O 68.8226 1.91416 0.40725 0
M  V30 719 C 69.1216 1.83577 -3.0665 0
M  V30 720 C 68.7876 1.09993 -4.37278 0
M  V30 721 C 67.4496 0.896629 -4.72773 0
M  V30 722 C 69.8016 0.579558 -5.17968 0
M  V30 723 C 67.1296 0.160896 -5.86479 0
M  V30 724 C 69.4816 -0.142783 -6.32439 0
M  V30 725 C 68.1456 -0.357427 -6.66542 0
M  V30 726 H 67.4156 0.35032 -0.65296 0
M  V30 727 H 70.0626 0.226259 -1.90159 0
M  V30 728 H 68.3676 2.63441 -2.90011 0
M  V30 729 H 70.0646 2.39934 -3.21298 0
M  V30 730 H 66.6546 1.26835 -4.09403 0
M  V30 731 H 70.8386 0.724125 -4.90989 0
M  V30 732 H 66.0946 -0.0157293 -6.11398 0
M  V30 733 H 70.2686 -0.553559 -6.94196 0
M  V30 734 H 67.8956 -0.929466 -7.54497 0
M  V30 735 N 69.4707 1.49531 0.497807 0
M  V30 736 C 70.4027 1.62559 1.61578 0
M  V30 737 C 71.4157 0.508134 1.54667 0
M  V30 738 O 72.6047 0.780309 1.60541 0
M  V30 739 C 69.7047 1.56925 3.00379 0
M  V30 740 C 68.8777 2.84257 3.3244 0
M  V30 741 C 67.9367 2.71632 4.50669 0
M  V30 742 O 66.9627 3.4557 4.52294 0
M  V30 743 N 68.1647 1.83391 5.5077 0
M  V30 744 H 70.9297 2.58981 1.50828 0
M  V30 745 H 68.4907 1.4666 0.685743 0
M  V30 746 H 70.4827 1.46129 3.77397 0
M  V30 747 H 69.0527 0.683483 3.05037 0
M  V30 748 H 68.2727 3.09381 2.44289 0
M  V30 749 H 69.5607 3.68666 3.5066 0
M  V30 750 H 68.9587 1.22583 5.52259 0
M  V30 751 H 67.5157 1.78515 6.26878 0
M  V30 752 N 70.9488 -0.749086 1.3866 0
M  V30 753 C 72.2258 -1.4992 1.25632 0
M  V30 754 C 72.6058 -2.10633 -0.140317 0
M  V30 755 O 71.9538 -1.97437 -1.15025 0
M  V30 756 C 72.1638 -2.56195 2.36992 0
M  V30 757 C 73.5118 -3.22972 2.75634 0
M  V30 758 O 74.5358 -2.66502 2.36337 0
M  V30 759 O 73.3948 -4.25122 3.43415 0
M  V30 760 H 70.4888 -0.665067 0.491544 0
M  V30 761 H 73.0348 -0.784113 1.50498 0
M  V30 762 H 71.8068 -2.09612 3.30422 0
M  V30 763 H 71.4298 -3.35279 2.13714 0
M  V30 764 N 72.4269 -1.23603 -0.977757 0
M  V30 765 C 73.6749 -1.06759 -1.71601 0
M  V30 766 C 73.9959 0.395929 -1.90938 0
M  V30 767 O 73.2659 1.28356 -1.47992 0
M  V30 768 H 71.8459 -0.392062 -0.635843 0
M  V30 769 H 74.5079 -1.55362 -1.1768 0
M  V30 770 H 73.6039 -1.55763 -2.70452 0
M  V30 771 N 73.905 1.17692 -1.04816 0
M  V30 772 C 75.151 1.88137 -0.75711 0
M  V30 773 C 75.484 1.80604 0.713841 0
M  V30 774 O 74.759 1.21146 1.52164 0
M  V30 775 C 75.042 3.38318 -1.2334 0
M  V30 776 C 74.895 3.54622 -2.76701 0
M  V30 777 C 76.214 4.32214 -0.829415 0
M  V30 778 H 73.333 0.683163 -0.27651 0
M  V30 779 H 75.975 1.38424 -1.30149 0
M  V30 780 H 74.125 3.80787 -0.770286 0
M  V30 781 H 75.797 3.21194 -3.31107 0
M  V30 782 H 74.04 2.97026 -3.16161 0
M  V30 783 H 74.711 4.60028 -3.05088 0
M  V30 784 H 77.187 3.97565 -1.22805 0
M  V30 785 H 76.063 5.35838 -1.19033 0
M  V30 786 H 76.324 4.41294 0.266891 0
M  V30 787 N 75.3831 0.828654 1.34056 0
M  V30 788 C 76.6321 0.415828 1.97367 0
M  V30 789 C 76.9451 -1.02796 1.6641 0
M  V30 790 O 78.1511 -1.54497 2.23255 0
M  V30 791 C 76.6071 0.692601 3.53173 0
M  V30 792 C 76.2151 2.15038 3.93017 0
M  V30 793 C 77.9591 0.346222 4.23086 0
M  V30 794 C 75.8661 2.37174 5.41758 0
M  V30 795 H 74.7961 0.151755 0.738571 0
M  V30 796 H 77.4471 1.01581 1.52819 0
M  V30 797 H 75.8291 0.0223764 3.95994 0
M  V30 798 H 77.0031 2.86024 3.61285 0
M  V30 799 H 75.3181 2.45875 3.36057 0
M  V30 800 H 77.9151 0.48937 5.32456 0
M  V30 801 H 78.2581 -0.709842 4.10204 0
M  V30 802 H 78.7911 0.971258 3.85761 0
M  V30 803 H 75.5301 3.41308 5.59633 0
M  V30 804 H 75.0501 1.70738 5.74986 0
M  V30 805 H 76.7291 2.19818 6.08514 0
M  V30 806 N 76.8612 -1.46375 0.584142 0
M  V30 807 C 77.7912 -2.33103 -0.136037 0
M  V30 808 C 78.7722 -1.45431 -0.882255 0
M  V30 809 O 79.9572 -1.74246 -0.857434 0
M  V30 810 C 77.0872 -3.27731 -1.14933 0
M  V30 811 C 76.0412 -4.24855 -0.517862 0
M  V30 812 C 75.3672 -5.09001 -1.63773 0
M  V30 813 C 76.6672 -5.19439 0.545886 0
M  V30 814 H 78.3612 -2.93568 0.588086 0
M  V30 815 H 75.9072 -1.41166 0.284259 0
M  V30 816 H 77.8602 -3.87261 -1.66153 0
M  V30 817 H 76.5842 -2.65377 -1.90375 0
M  V30 818 H 75.2432 -3.6659 -0.0267361 0
M  V30 819 H 74.8912 -4.43031 -2.38185 0
M  V30 820 H 74.5912 -5.74777 -1.22085 0
M  V30 821 H 76.1152 -5.71396 -2.15266 0
M  V30 822 H 77.5292 -5.73177 0.118704 0
M  V30 823 H 75.9262 -5.93566 0.88317 0
M  V30 824 H 76.9962 -4.63285 1.43162 0
M  V30 825 N 78.3393 -0.321999 -1.54275 0
M  V30 826 C 79.5873 0.280489 -2.00144 0
M  V30 827 C 79.9083 1.52777 -1.21178 0
M  V30 828 O 79.1783 1.9338 -0.313187 0
M  V30 829 H 77.7583 0.106632 -0.73935 0
M  V30 830 H 80.4203 -0.438184 -1.8991 0
M  V30 831 H 79.5163 0.537972 -3.07428 0
M  V30 832 N 79.8174 1.5752 -0.0501392 0
M  V30 833 C 80.7804 2.1037 0.909786 0
M  V30 834 C 81.7804 1.02308 1.24056 0
M  V30 835 O 82.9704 1.28385 1.17741 0
M  V30 836 C 80.1024 2.58708 2.21998 0
M  V30 837 H 81.2954 2.96479 0.451665 0
M  V30 838 H 78.8484 1.55038 0.198248 0
M  V30 839 H 79.5834 1.75989 2.72394 0
M  V30 840 H 79.3684 3.37675 1.99295 0
M  V30 841 H 80.8584 2.99747 2.9076 0
M  V30 842 N 81.2955 -0.223234 1.56011 0
M  V30 843 C 82.5725 -0.972108 1.69733 0
M  V30 844 C 82.9525 -2.02485 0.59691 0
M  V30 845 O 82.3005 -2.25037 -0.396324 0
M  V30 846 C 82.5105 -1.58407 3.10979 0
M  V30 847 C 83.8585 -2.07696 3.70334 0
M  V30 848 O 84.8825 -1.68304 3.1393 0
M  V30 849 O 83.7415 -2.80096 4.69264 0
M  V30 850 H 80.8355 -0.453993 0.691245 0
M  V30 851 H 83.3815 -0.215149 1.68331 0
M  V30 852 H 82.1535 -0.823831 3.82529 0
M  V30 853 H 81.7765 -2.40661 3.16493 0
M  V30 854 N 82.7736 -1.49793 -0.48987 0
M  V30 855 C 84.0016 -1.63568 -1.26701 0
M  V30 856 C 84.4166 -0.311465 -1.86213 0
M  V30 857 O 83.7736 0.704416 -1.68357 0
M  V30 858 C 83.8246 -2.71284 -2.38929 0
M  V30 859 O 83.5456 -3.9857 -1.81861 0
M  V30 860 C 85.0466 -2.95864 -3.3012 0
M  V30 861 H 82.2666 -0.550342 -0.383881 0
M  V30 862 H 84.8106 -1.95898 -0.586864 0
M  V30 863 H 82.9656 -2.417 -3.02753 0
M  V30 864 H 83.3796 -4.57993 -2.55622 0
M  V30 865 H 84.8536 -3.74941 -4.05121 0
M  V30 866 H 85.3306 -2.06206 -3.87783 0
M  V30 867 H 85.9366 -3.26907 -2.72051 0
M  V30 868 N 84.2517 0.741722 -1.39055 0
M  V30 869 C 85.6677 1.04638 -1.20512 0
M  V30 870 C 85.8677 2.01405 -0.0620218 0
M  V30 871 O 84.9237 2.45547 0.588457 0
M  V30 872 C 86.2367 1.6151 -2.53643 0
M  V30 873 C 87.7847 1.73623 -2.6043 0
M  V30 874 C 88.2597 2.33906 -3.93767 0
M  V30 875 N 89.7507 2.41323 -3.9537 0
M  V30 876 C 90.4857 2.88888 -4.95309 0
M  V30 877 N 89.9817 3.36401 -6.05645 0
M  V30 878 N 91.7747 2.88037 -4.82692 0
M  V30 879 H 83.9257 0.0998155 -2.12165 0
M  V30 880 H 86.1887 0.106907 -0.941953 0
M  V30 881 H 85.8947 0.978739 -3.37807 0
M  V30 882 H 85.7687 2.60411 -2.72885 0
M  V30 883 H 88.1557 2.36384 -1.76655 0
M  V30 884 H 88.2367 0.733945 -2.45045 0
M  V30 885 H 87.8807 1.71776 -4.7797 0
M  V30 886 H 87.8107 3.34799 -4.06469 0
M  V30 887 H 90.3017 2.07734 -3.15682 0
M  V30 888 H 90.6147 3.71186 -6.77821 0
M  V30 889 H 88.9597 3.34427 -6.09248 0
M  V30 890 H 92.1507 2.50237 -3.95599 0
M  V30 891 H 92.3237 3.24792 -5.60726 0
M  V30 892 N 85.7298 1.2412 0.971189 0
M  V30 893 C 86.6928 1.03156 2.04674 0
M  V30 894 C 87.6928 -0.00990322 1.60797 0
M  V30 895 O 88.8828 0.230729 1.72665 0
M  V30 896 C 86.0148 0.562765 3.36223 0
M  V30 897 H 87.2078 1.98614 2.24705 0
M  V30 898 H 84.7608 1.06293 1.14593 0
M  V30 899 H 85.4958 -0.395176 3.21883 0
M  V30 900 H 85.2808 1.31441 3.69413 0
M  V30 901 H 86.7708 0.437015 4.15307 0
M  V30 902 N 87.2079 -1.17134 1.05439 0
M  V30 903 C 88.4359 -1.91372 0.786414 0
M  V30 904 C 88.8509 -1.76955 -0.658202 0
M  V30 905 O 88.2079 -1.10838 -1.44987 0
M  V30 906 C 88.2589 -3.42356 1.1608 0
M  V30 907 O 87.9799 -3.56332 2.54871 0
M  V30 908 C 89.4809 -4.33663 0.919322 0
M  V30 909 H 86.7009 -0.607118 0.285743 0
M  V30 910 H 89.2449 -1.48525 1.40572 0
M  V30 911 H 87.3999 -3.82939 0.586191 0
M  V30 912 H 87.8139 -4.49896 2.69618 0
M  V30 913 H 89.2879 -5.38099 1.231 0
M  V30 914 H 89.7649 -4.38959 -0.145359 0
M  V30 915 H 90.3709 -3.98796 1.47789 0
M  V30 916 N 88.686 -0.835752 -1.33615 0
M  V30 917 C 89.634 -0.255238 -2.31195 0
M  V30 918 C 90.628 0.61107 -1.57995 0
M  V30 919 O 91.834 0.500979 -1.72888 0
M  V30 920 H 88.209 -0.0638085 -0.749288 0
M  V30 921 H 90.18 -1.09283 -2.77669 0
M  V30 922 C 88.929 0.55754 -3.43201 0
M  V30 923 H 88.252 -0.0997553 -3.99676 0
M  V30 924 H 89.692 0.929622 -4.13683 0
M  V30 925 C 88.151 1.73515 -2.88781 0
M  V30 926 O 88.681 2.83376 -2.84712 0
M  V30 927 N 86.887 1.55603 -2.4543 0
M  V30 928 H 86.434 0.662354 -2.48939 0
M  V30 929 H 86.392 2.34545 -2.09371 0
M  V30 930 N 90.1641 1.46063 -0.591896 0
M  V30 931 C 91.4411 1.95595 -0.0137119 0
M  V30 932 C 91.8211 1.5345 1.4497 0
M  V30 933 O 91.1691 0.789543 2.14426 0
M  V30 934 C 91.3791 3.48453 -0.195373 0
M  V30 935 C 92.7271 4.24546 -0.0679765 0
M  V30 936 O 93.7511 3.55982 -0.124681 0
M  V30 937 O 92.6101 5.46467 0.0600579 0
M  V30 938 H 89.7041 0.825795 0.0446279 0
M  V30 939 H 92.2501 1.56303 -0.660859 0
M  V30 940 H 91.0221 3.72045 -1.21235 0
M  V30 941 H 90.6451 3.94597 0.487775 0
M  V30 942 N 91.6422 0.330177 1.54103 0
M  V30 943 C 92.8672 -0.274893 2.0557 0
M  V30 944 C 93.2922 -1.44487 1.20437 0
M  V30 945 O 92.6502 -1.80021 0.214991 0
M  V30 946 C 92.6982 -0.68079 3.54115 0
M  V30 947 O 91.8022 -1.7824 3.71893 0
M  V30 948 H 91.1432 -0.0483849 0.662235 0
M  V30 949 H 93.6732 0.480508 1.98878 0
M  V30 950 H 93.6832 -0.961635 3.96505 0
M  V30 951 H 92.3582 0.174903 4.15532 0
M  V30 952 H 90.9352 -1.49985 3.41407 0
M  V30 953 N 93.1203 -1.57491 0.0584922 0
M  V30 954 C 94.3663 -1.93264 -0.614558 0
M  V30 955 C 94.6993 -0.937717 -1.7006 0
M  V30 956 O 93.9743 0.0351652 -1.94468 0
M  V30 957 C 94.2573 -3.3938 -1.20386 0
M  V30 958 C 94.1103 -4.49625 -0.125375 0
M  V30 959 C 95.4293 -3.86039 -2.11334 0
M  V30 960 H 92.5483 -0.702791 -0.221933 0
M  V30 961 H 95.1903 -1.8961 0.12175 0
M  V30 962 H 93.3403 -3.42626 -1.83139 0
M  V30 963 H 95.0123 -4.58506 0.506971 0
M  V30 964 H 93.2553 -4.30354 0.545672 0
M  V30 965 H 93.9263 -5.48967 -0.577861 0
M  V30 966 H 96.4023 -3.84716 -1.58534 0
M  V30 967 H 95.2783 -4.88914 -2.49507 0
M  V30 968 H 95.5393 -3.23215 -3.01636 0
M  V30 969 N 94.5984 0.214957 -1.56127 0
M  V30 970 C 95.8444 0.939762 -1.79712 0
M  V30 971 C 96.1774 1.83723 -0.629247 0
M  V30 972 O 95.4524 1.90925 0.371197 0
M  V30 973 C 95.7354 1.77306 -3.13424 0
M  V30 974 C 95.5884 0.90164 -4.40671 0
M  V30 975 C 96.9074 2.74956 -3.43638 0
M  V30 976 H 94.0264 0.340214 -0.653776 0
M  V30 977 H 96.6684 0.20824 -1.88855 0
M  V30 978 H 94.8184 2.39673 -3.0576 0
M  V30 979 H 96.4904 0.294206 -4.60361 0
M  V30 980 H 94.7334 0.207368 -4.33304 0
M  V30 981 H 95.4044 1.51923 -5.30682 0
M  V30 982 H 97.8804 2.22724 -3.51473 0
M  V30 983 H 96.7564 3.30358 -4.38355 0
M  V30 984 H 97.0174 3.53023 -2.66134 0
M  V30 985 N 96.0765 1.50051 0.48192 0
M  V30 986 C 97.0395 1.67584 1.5636 0
M  V30 987 C 98.0395 0.546894 1.51214 0
M  V30 988 O 99.2295 0.813725 1.54026 0
M  V30 989 C 96.3615 1.691 2.96003 0
M  V30 990 H 97.5545 2.64078 1.42136 0
M  V30 991 H 95.1075 1.39369 0.707533 0
M  V30 992 H 95.8425 0.742589 3.15684 0
M  V30 993 H 95.6275 2.51105 3.01146 0
M  V30 994 H 97.1175 1.84656 3.74556 0
M  V30 995 N 97.5546 -0.734337 1.39446 0
M  V30 996 C 98.8316 -1.48579 1.27215 0
M  V30 997 C 99.2116 -2.1077 -0.117968 0
M  V30 998 O 98.5596 -1.98646 -1.12924 0
M  V30 999 C 98.7696 -2.53667 2.39696 0
M  V30 1000 C 100.118 -3.20031 2.79044 0
M  V30 1001 O 101.142 -2.6398 2.39151 0
M  V30 1002 O 100.001 -4.21455 3.47905 0
M  V30 1003 H 97.0946 -0.659816 0.49857 0
M  V30 1004 H 99.6406 -0.768106 1.51322 0
M  V30 1005 H 98.4126 -2.06096 3.32626 0
M  V30 1006 H 98.0356 -3.32994 2.17258 0
M  V30 1007 N 99.0327 -1.24633 -0.964593 0
M  V30 1008 C 99.9797 -1.04144 -2.05968 0
M  V30 1009 C 100.95 0.046262 -1.66036 0
M  V30 1010 O 102.135 -0.108972 -1.90489 0
M  V30 1011 C 99.2747 -0.65563 -3.38815 0
M  V30 1012 C 98.3877 -1.81714 -3.91923 0
M  V30 1013 C 97.5227 -1.37662 -5.13052 0
M  V30 1014 C 96.5617 -2.50788 -5.58365 0
M  V30 1015 N 95.6987 -2.07582 -6.70712 0
M  V30 1016 H 100.539 -1.9787 -2.22827 0
M  V30 1017 H 98.0757 -0.9855 -1.09208 0
M  V30 1018 H 100.034 -0.412954 -4.15151 0
M  V30 1019 H 98.6637 0.244627 -3.21872 0
M  V30 1020 H 97.7157 -2.1734 -3.12198 0
M  V30 1021 H 99.0277 -2.66705 -4.21509 0
M  V30 1022 H 98.1817 -1.093 -5.96773 0
M  V30 1023 H 96.9207 -0.497293 -4.85158 0
M  V30 1024 H 95.9257 -2.79906 -4.73215 0
M  V30 1025 H 97.1507 -3.39283 -5.88272 0
M  V30 1026 H 95.0967 -1.22051 -6.44546 0
M  V30 1027 H 95.0137 -2.86125 -6.99763 0
M  V30 1028 H 96.2817 -1.82369 -7.57867 0
M  V30 1029 N 100.511 1.16574 -1.06058 0
M  V30 1030 C 101.736 1.91493 -0.796562 0
M  V30 1031 C 102.161 1.76773 0.642868 0
M  V30 1032 O 101.519 1.09142 1.44768 0
M  V30 1033 C 101.567 3.40293 -1.19303 0
M  V30 1034 O 100.671 4.11074 -0.330394 0
M  V30 1035 H 100.012 0.596678 -0.291326 0
M  V30 1036 H 102.542 1.47708 -1.41575 0
M  V30 1037 H 102.552 3.91057 -1.16356 0
M  V30 1038 H 101.227 3.50326 -2.24153 0
M  V30 1039 H 99.8038 3.70513 -0.421225 0
M  V30 1040 N 101.989 0.842826 1.3317 0
M  V30 1041 C 103.229 0.446574 1.99462 0
M  V30 1042 C 103.593 -0.976818 1.65295 0
M  V30 1043 O 104.794 -1.477 2.24584 0
M  V30 1044 C 103.065 0.665353 3.51152 0
M  V30 1045 S 104.624 0.364911 4.3728 0
M  V30 1046 H 101.442 0.167803 0.690915 0
M  V30 1047 H 104.044 1.09297 1.62094 0
M  V30 1048 H 102.748 1.7006 3.73507 0
M  V30 1049 H 102.279 0.00494568 3.934 0
M  V30 1050 H 104.294 -0.813761 4.89482 0
M  V30 1051 N 103.467 -1.45747 0.599634 0
M  V30 1052 C 104.377 -2.34262 -0.125888 0
M  V30 1053 C 105.393 -1.50768 -0.868625 0
M  V30 1054 O 106.569 -1.83592 -0.828003 0
M  V30 1055 C 103.634 -3.28252 -1.11587 0
M  V30 1056 C 102.695 -4.27651 -0.375956 0
M  V30 1057 C 101.928 -5.1715 -1.31877 0
M  V30 1058 O 102.151 -5.09916 -2.55621 0
M  V30 1059 O 101.085 -5.96286 -0.820157 0
M  V30 1060 H 104.911 -2.97688 0.601315 0
M  V30 1061 H 102.496 -1.44999 0.359934 0
M  V30 1062 H 104.378 -3.86191 -1.68626 0
M  V30 1063 H 103.053 -2.67401 -1.82424 0
M  V30 1064 H 101.96 -3.7335 0.236698 0
M  V30 1065 H 103.293 -4.91334 0.29177 0
M  V30 1066 N 104.945 -0.338344 -1.53925 0
M  V30 1067 C 105.892 0.520845 -2.24846 0
M  V30 1068 C 106.862 1.09976 -1.24477 0
M  V30 1069 O 108.047 1.13735 -1.53196 0
M  V30 1070 C 105.187 1.6685 -3.02084 0
M  V30 1071 C 104.3 1.11739 -4.17299 0
M  V30 1072 C 103.435 2.23193 -4.82036 0
M  V30 1073 C 102.474 1.65407 -5.89328 0
M  V30 1074 N 101.611 2.70582 -6.47866 0
M  V30 1075 H 106.451 -0.0904881 -2.97863 0
M  V30 1076 H 103.988 -0.0564282 -1.46992 0
M  V30 1077 H 105.946 2.34407 -3.45122 0
M  V30 1078 H 104.576 2.2509 -2.31375 0
M  V30 1079 H 103.628 0.332919 -3.7894 0
M  V30 1080 H 104.94 0.654677 -4.94485 0
M  V30 1081 H 104.094 2.98626 -5.28117 0
M  V30 1082 H 102.833 2.72807 -4.04262 0
M  V30 1083 H 101.838 0.884779 -5.42634 0
M  V30 1084 H 103.063 1.16652 -6.69006 0
M  V30 1085 H 101.009 3.1946 -5.72959 0
M  V30 1086 H 100.926 2.28917 -7.20509 0
M  V30 1087 H 102.194 3.45799 -6.98601 0
M  V30 1088 N 106.423 1.57458 -0.0668435 0
M  V30 1089 C 107.672 1.92477 0.602947 0
M  V30 1090 C 107.985 0.948419 1.71068 0
M  V30 1091 O 109.191 1.19124 2.43971 0
M  V30 1092 C 107.647 3.41903 1.12383 0
M  V30 1093 C 107.255 4.47975 0.04737 0
M  V30 1094 C 108.999 3.85931 1.76797 0
M  V30 1095 C 106.906 5.88529 0.582022 0
M  V30 1096 H 105.836 0.718387 0.22899 0
M  V30 1097 H 108.487 1.82978 -0.138276 0
M  V30 1098 H 106.869 3.46459 1.91787 0
M  V30 1099 H 108.043 4.55029 -0.726978 0
M  V30 1100 H 106.358 4.13384 -0.500243 0
M  V30 1101 H 108.955 4.88322 2.17821 0
M  V30 1102 H 109.298 3.23029 2.62599 0
M  V30 1103 H 109.831 3.83958 1.04024 0
M  V30 1104 H 106.57 6.55065 -0.238721 0
M  V30 1105 H 106.09 5.85004 1.324 0
M  V30 1106 H 107.769 6.38258 1.05999 0
M  V30 1107 N 107.901 -0.206675 1.56239 0
M  V30 1108 C 108.851 -1.26 1.90021 0
M  V30 1109 C 109.835 -1.41566 0.764721 0
M  V30 1110 O 111.027 -1.44131 1.02739 0
M  V30 1111 C 108.156 -2.6073 2.23326 0
M  V30 1112 C 107.242 -2.49005 3.43304 0
M  V30 1113 N 107.633 -2.06946 4.61527 0
M  V30 1114 C 105.931 -2.79927 3.47213 0
M  V30 1115 C 106.632 -2.06832 5.43687 0
M  V30 1116 N 105.608 -2.47892 4.83788 0
M  V30 1117 H 109.41 -0.925955 2.78932 0
M  V30 1118 H 106.924 -0.415172 1.57003 0
M  V30 1119 H 108.921 -3.36798 2.45708 0
M  V30 1120 H 107.581 -2.94968 1.35735 0
M  V30 1121 H 108.592 -1.77839 4.86409 0
M  V30 1122 H 105.269 -3.18438 2.70006 0
M  V30 1123 H 106.659 -1.76312 6.48354 0
M  V30 1124 N 109.379 -1.50304 -0.473955 0
M  V30 1125 C 110.626 -1.6115 -1.22625 0
M  V30 1126 C 110.954 -0.310517 -1.92005 0
M  V30 1127 O 110.209 0.703419 -1.82621 0
M  V30 1128 C 110.508 -2.73938 -2.29549 0
M  V30 1129 C 110.174 -4.14519 -1.7744 0
M  V30 1130 C 108.836 -4.5277 -1.62949 0
M  V30 1131 C 111.188 -5.02392 -1.3875 0
M  V30 1132 C 108.516 -5.76639 -1.08187 0
M  V30 1133 C 110.868 -6.26805 -0.854309 0
M  V30 1134 C 109.532 -6.63861 -0.696011 0
M  V30 1135 H 108.802 -0.589691 -0.448715 0
M  V30 1136 H 111.449 -1.84228 -0.522705 0
M  V30 1137 H 109.754 -2.44937 -3.05799 0
M  V30 1138 H 111.451 -2.79534 -2.87509 0
M  V30 1139 H 108.041 -3.8434 -1.89685 0
M  V30 1140 H 112.225 -4.73474 -1.4878 0
M  V30 1141 H 107.481 -6.04027 -0.946666 0
M  V30 1142 H 111.655 -6.94258 -0.545843 0
M  V30 1143 H 109.282 -7.59722 -0.26952 0
M  V30 1144 N 110.857 0.726932 -1.39834 0
M  V30 1145 C 112.106 1.48214 -1.36805 0
M  V30 1146 C 112.419 1.95576 0.0305291 0
M  V30 1147 O 113.625 2.7088 0.183417 0
M  V30 1148 C 112.081 2.67854 -2.40379 0
M  V30 1149 C 111.689 2.27408 -3.85992 0
M  V30 1150 C 113.433 3.45641 -2.46439 0
M  V30 1151 C 111.34 3.43819 -4.81189 0
M  V30 1152 H 110.27 0.556606 -0.508631 0
M  V30 1153 H 112.921 0.792216 -1.65518 0
M  V30 1154 H 111.303 3.3896 -2.04749 0
M  V30 1155 H 112.477 1.63795 -4.30706 0
M  V30 1156 H 110.792 1.62692 -3.83302 0
M  V30 1157 H 113.389 4.32244 -3.14753 0
M  V30 1158 H 113.732 3.88669 -1.49139 0
M  V30 1159 H 114.265 2.8157 -2.81004 0
M  V30 1160 H 111.004 3.05834 -5.79781 0
M  V30 1161 H 110.524 4.06385 -4.41148 0
M  V30 1162 H 112.203 4.10043 -5.00474 0
M  V30 1163 N 112.336 1.25143 0.95797 0
M  V30 1164 C 113.299 1.05321 2.03569 0
M  V30 1165 C 114.299 0.007152 1.60798 0
M  V30 1166 O 115.489 0.24903 1.72411 0
M  V30 1167 C 112.621 0.598394 3.35607 0
M  V30 1168 H 113.814 2.00986 2.22586 0
M  V30 1169 H 111.367 1.07502 1.13459 0
M  V30 1170 H 112.102 -0.361014 3.22284 0
M  V30 1171 H 111.887 1.35351 3.67998 0
M  V30 1172 H 113.377 0.48104 4.1482 0
M  V30 1173 N 113.814 -1.1601 1.06675 0
M  V30 1174 C 115.225 -1.68235 0.809565 0
M  V30 1175 C 115.576 -1.8454 -0.666303 0
M  V30 1176 O 114.701 -1.54374 -1.5165 0
M  V30 1177 C 115.296 -3.05585 1.46299 0
M  V30 1178 C 113.855 -3.54915 1.25349 0
M  V30 1179 C 113.002 -2.30804 1.53703 0
M  V30 1180 H 115.953 -1.00318 1.22971 0
M  V30 1181 H 115.974 -3.70174 0.880431 0
M  V30 1182 H 115.486 -2.93686 2.53713 0
M  V30 1183 H 113.587 -3.72067 0.199261 0
M  V30 1184 H 113.7 -4.36774 1.9689 0
M  V30 1185 H 112.064 -2.36007 0.957739 0
M  V30 1186 H 112.847 -2.21499 2.62284 0
M  V30 1187 N 115.292 -0.849877 -1.32721 0
M  V30 1188 C 116.239 -0.289033 -2.28983 0
M  V30 1189 C 117.209 0.601324 -1.54833 0
M  V30 1190 O 118.394 0.537253 -1.8308 0
M  V30 1191 C 115.534 0.520623 -3.4115 0
M  V30 1192 C 114.647 -0.394989 -4.3019 0
M  V30 1193 C 113.782 0.426834 -5.29482 0
M  V30 1194 C 112.821 -0.486476 -6.10164 0
M  V30 1195 N 111.958 0.297879 -7.01468 0
M  V30 1196 H 116.798 -1.11519 -2.76347 0
M  V30 1197 H 114.335 -0.56138 -1.35967 0
M  V30 1198 H 116.293 1.00563 -4.04899 0
M  V30 1199 H 114.923 1.31165 -2.9495 0
M  V30 1200 H 113.975 -0.99836 -3.67065 0
M  V30 1201 H 115.287 -1.09612 -4.86607 0
M  V30 1202 H 114.441 0.975205 -5.98811 0
M  V30 1203 H 113.18 1.16136 -4.73671 0
M  V30 1204 H 112.185 -1.04677 -5.39743 0
M  V30 1205 H 113.41 -1.21953 -6.6806 0
M  V30 1206 H 111.356 1.01558 -6.48091 0
M  V30 1207 H 111.273 -0.344318 -7.55216 0
M  V30 1208 H 112.541 0.828131 -7.75089 0
M  V30 1209 N 116.77 1.45427 -0.607355 0
M  V30 1210 C 118.019 2.01452 -0.100036 0
M  V30 1211 C 118.332 1.48159 1.27704 0
M  V30 1212 O 119.538 1.96159 1.87707 0
M  V30 1213 C 117.994 3.59672 -0.128158 0
M  V30 1214 C 117.602 4.21962 -1.50507 0
M  V30 1215 C 119.346 4.23262 0.323932 0
M  V30 1216 C 117.253 5.72333 -1.48959 0
M  V30 1217 H 116.183 0.75325 -0.0336299 0
M  V30 1218 H 118.834 1.66901 -0.76265 0
M  V30 1219 H 117.216 3.91411 0.601105 0
M  V30 1220 H 118.39 4.01796 -2.25602 0
M  V30 1221 H 116.705 3.70565 -1.89923 0
M  V30 1222 H 119.302 5.33522 0.354691 0
M  V30 1223 H 119.645 3.93921 1.34656 0
M  V30 1224 H 120.178 3.96239 -0.352056 0
M  V30 1225 H 116.917 6.06373 -2.48981 0
M  V30 1226 H 116.437 5.94691 -0.781214 0
M  V30 1227 H 118.116 6.35525 -1.21313 0
M  V30 1228 N 118.248 0.346503 1.53744 0
M  V30 1229 C 119.478 -0.250047 2.05081 0
M  V30 1230 C 119.886 -1.44529 1.22098 0
M  V30 1231 O 119.229 -1.81992 0.249917 0
M  V30 1232 C 119.291 -0.725934 3.52094 0
M  V30 1233 C 118.955 0.350053 4.55657 0
M  V30 1234 C 119.952 1.19372 5.0601 0
M  V30 1235 C 117.637 0.504827 4.99757 0
M  V30 1236 C 119.631 2.17768 5.99046 0
M  V30 1237 C 117.318 1.49218 5.92602 0
M  V30 1238 C 118.316 2.32706 6.42135 0
M  V30 1239 O 118.004 3.2976 7.33153 0
M  V30 1240 H 117.736 -0.0515469 0.674032 0
M  V30 1241 H 120.29 0.497559 1.99282 0
M  V30 1242 H 118.52 -1.52483 3.55367 0
M  V30 1243 H 120.209 -1.24336 3.86388 0
M  V30 1244 H 120.975 1.08525 4.72702 0
M  V30 1245 H 116.854 -0.135178 4.60802 0
M  V30 1246 H 120.398 2.82971 6.37631 0
M  V30 1247 H 116.295 1.6012 6.25325 0
M  V30 1248 H 117.063 3.25265 7.51096 0
M  V30 1249 N 119.726 -1.57421 0.075193 0
M  V30 1250 C 120.966 -1.95495 -0.596757 0
M  V30 1251 C 121.33 -0.954886 -1.66571 0
M  V30 1252 O 122.531 -1.22341 -2.39345 0
M  V30 1253 C 120.802 -3.382 -1.15566 0
M  V30 1254 S 122.361 -3.98254 -1.84226 0
M  V30 1255 H 119.179 -0.683649 -0.195307 0
M  V30 1256 H 121.781 -1.94925 0.149859 0
M  V30 1257 H 120.485 -4.08766 -0.36588 0
M  V30 1258 H 120.016 -3.42321 -1.93856 0
M  V30 1259 H 122.031 -3.85435 -3.12497 0
M  V30 1260 N 121.204 0.198386 -1.56346 0
M  V30 1261 C 122.444 0.92609 -1.82217 0
M  V30 1262 C 122.808 1.80584 -0.652195 0
M  V30 1263 O 124.009 2.56907 -0.790716 0
M  V30 1264 C 122.28 1.72354 -3.13096 0
M  V30 1265 S 123.839 2.50371 -3.6036 0
M  V30 1266 H 120.657 0.310677 -0.639532 0
M  V30 1267 H 123.259 0.189755 -1.94577 0
M  V30 1268 H 121.963 1.0678 -3.96265 0
M  V30 1269 H 121.494 2.50175 -3.03605 0
M  V30 1270 H 123.509 3.74488 -3.25535 0
M  V30 1271 N 122.682 1.50554 0.465978 0
M  V30 1272 C 123.93 1.61479 1.21528 0
M  V30 1273 C 124.251 0.319596 1.92363 0
M  V30 1274 O 123.521 -0.663194 1.84333 0
M  V30 1275 H 122.101 0.595055 0.451573 0
M  V30 1276 H 124.763 1.87355 0.53704 0
M  V30 1277 H 123.859 2.42846 1.96042 0
M  V30 1278 N 124.16 -0.719506 1.40217 0
M  V30 1279 C 125.123 -1.8153 1.39927 0
M  V30 1280 C 126.123 -1.58095 0.293723 0
M  V30 1281 O 127.313 -1.65209 0.552429 0
M  V30 1282 C 124.445 -3.19561 1.18716 0
M  V30 1283 H 125.638 -1.83186 2.37451 0
M  V30 1284 H 123.191 -0.924746 1.26008 0
M  V30 1285 H 123.926 -3.23557 0.219366 0
M  V30 1286 H 123.711 -3.3797 1.98793 0
M  V30 1287 H 125.201 -3.99598 1.21291 0
M  V30 1288 N 125.638 -1.25649 -0.95132 0
M  V30 1289 C 126.886 -1.10375 -1.69298 0
M  V30 1290 C 127.207 0.355339 -1.91735 0
M  V30 1291 O 126.477 1.25188 -1.50681 0
M  V30 1292 H 125.057 -0.405461 -0.627384 0
M  V30 1293 H 127.719 -1.57823 -1.14358 0
M  V30 1294 H 126.815 -1.61465 -2.67087 0
M  V30 1295 N 127.117 1.15442 -1.07289 0
M  V30 1296 C 128.363 1.86489 -0.796846 0
M  V30 1297 C 128.696 1.82078 0.675371 0
M  V30 1298 O 127.971 1.24346 1.4956 0
M  V30 1299 C 128.254 3.35626 -1.30489 0
M  V30 1300 C 128.107 3.48673 -2.84161 0
M  V30 1301 C 129.426 4.30357 -0.920907 0
M  V30 1302 H 126.545 0.677144 -0.290939 0
M  V30 1303 H 129.187 1.35633 -1.33056 0
M  V30 1304 H 127.337 3.79068 -0.850883 0
M  V30 1305 H 129.009 3.14099 -3.37846 0
M  V30 1306 H 127.252 2.90253 -3.22391 0
M  V30 1307 H 127.923 4.53453 -3.14777 0
M  V30 1308 H 130.399 3.94871 -1.3121 0
M  V30 1309 H 129.275 5.33193 -1.30372 0
M  V30 1310 H 129.536 4.4176 0.173226 0
M  V30 1311 N 128.595 0.856903 1.32268 0
M  V30 1312 C 129.558 0.308171 2.27119 0
M  V30 1313 C 130.558 -0.533421 1.51695 0
M  V30 1314 O 131.748 -0.344607 1.70757 0
M  V30 1315 C 128.88 -0.563757 3.36206 0
M  V30 1316 H 130.073 1.14535 2.77167 0
M  V30 1317 H 127.626 0.631421 1.42978 0
M  V30 1318 H 128.361 -1.42266 2.91429 0
M  V30 1319 H 128.146 0.0386749 3.92081 0
M  V30 1320 H 129.636 -0.940386 4.06874 0
M  V30 1321 N 130.073 -1.45103 0.615059 0
M  V30 1322 C 131.036 -2.29025 -0.0895485 0
M  V30 1323 C 132.036 -1.40174 -0.787906 0
M  V30 1324 O 133.226 -1.62217 -0.634933 0
M  V30 1325 C 130.358 -3.21376 -1.13711 0
M  V30 1326 H 131.551 -2.92807 0.648382 0
M  V30 1327 H 129.104 -1.51749 0.374444 0
M  V30 1328 H 129.839 -2.6241 -1.90556 0
M  V30 1329 H 129.624 -3.86834 -0.640475 0
M  V30 1330 H 131.114 -3.84459 -1.63036 0
M  V30 1331 N 131.551 -0.354651 -1.53558 0
M  V30 1332 C 132.828 0.294281 -1.93374 0
M  V30 1333 C 133.208 1.67313 -1.28723 0
M  V30 1334 O 132.556 2.24179 -0.442247 0
M  V30 1335 C 132.766 0.355445 -3.47185 0
M  V30 1336 C 134.114 0.601007 -4.20325 0
M  V30 1337 O 135.138 0.437106 -3.53508 0
M  V30 1338 O 133.997 0.919322 -5.38712 0
M  V30 1339 H 131.091 0.174033 -0.808481 0
M  V30 1340 H 133.637 -0.406638 -1.64756 0
M  V30 1341 H 132.409 -0.611729 -3.86489 0
M  V30 1342 H 132.032 1.1027 -3.82003 0
M  V30 1343 N 133.029 1.57378 -0.0835403 0
M  V30 1344 C 133.992 2.12252 0.864959 0
M  V30 1345 C 134.992 1.04916 1.21858 0
M  V30 1346 O 136.182 1.30853 1.14991 0
M  V30 1347 C 133.314 2.63358 2.16461 0
M  V30 1348 H 134.507 2.97371 0.388676 0
M  V30 1349 H 132.06 1.55423 0.165317 0
M  V30 1350 H 132.795 1.81727 2.686 0
M  V30 1351 H 132.58 3.41826 1.92087 0
M  V30 1352 H 134.07 3.05847 2.84337 0
M  V30 1353 N 134.507 -0.190092 1.56449 0
M  V30 1354 C 135.417 -1.25591 1.98152 0
M  V30 1355 C 136.433 -1.49519 0.889944 0
M  V30 1356 O 137.609 -1.62036 1.19609 0
M  V30 1357 C 134.674 -2.57916 2.3169 0
M  V30 1358 C 133.735 -2.42015 3.5458 0
M  V30 1359 C 132.968 -3.6803 3.8651 0
M  V30 1360 O 133.191 -4.72413 3.1966 0
M  V30 1361 O 132.125 -3.6326 4.79923 0
M  V30 1362 H 135.951 -0.931988 2.89046 0
M  V30 1363 H 133.536 -0.395488 1.4407 0
M  V30 1364 H 135.418 -3.36008 2.54316 0
M  V30 1365 H 134.093 -2.89925 1.43963 0
M  V30 1366 H 133 -1.62017 3.37196 0
M  V30 1367 H 134.333 -2.14937 4.4279 0
M  V30 1368 N 135.985 -1.50799 -0.457987 0
M  V30 1369 C 136.918 -1.65273 -1.57353 0
M  V30 1370 C 137.896 -0.500578 -1.54703 0
M  V30 1371 O 139.08 -0.721781 -1.74134 0
M  V30 1372 C 136.207 -1.64737 -2.95938 0
M  V30 1373 C 135.253 -2.8567 -3.16693 0
M  V30 1374 S 136.086 -4.46791 -2.95191 0
M  V30 1375 C 137.242 -4.48968 -4.36095 0
M  V30 1376 H 137.475 -2.59633 -1.44838 0
M  V30 1377 H 135.008 -1.40225 -0.64625 0
M  V30 1378 H 136.966 -1.65112 -3.7583 0
M  V30 1379 H 135.627 -0.715899 -3.05833 0
M  V30 1380 H 134.82 -2.81637 -4.17967 0
M  V30 1381 H 134.422 -2.8293 -2.44594 0
M  V30 1382 H 136.714 -4.23337 -5.28954 0
M  V30 1383 H 137.657 -5.50664 -4.45168 0
M  V30 1384 H 138.065 -3.78522 -4.18786 0
M  V30 1385 N 137.463 0.71206 -1.40597 0
M  V30 1386 C 138.691 1.50111 -1.42388 0
M  V30 1387 C 139.106 1.88784 -0.0245395 0
M  V30 1388 O 138.463 1.55681 0.952351 0
M  V30 1389 C 138.514 2.7742 -2.31776 0
M  V30 1390 O 138.235 2.40382 -3.66262 0
M  V30 1391 C 139.736 3.7129 -2.42196 0
M  V30 1392 H 136.956 0.46314 -0.485533 0
M  V30 1393 H 139.5 0.878068 -1.8469 0
M  V30 1394 H 137.655 3.36001 -1.92827 0
M  V30 1395 H 138.069 3.22324 -4.13772 0
M  V30 1396 H 139.543 4.57448 -3.08943 0
M  V30 1397 H 140.02 4.14641 -1.44809 0
M  V30 1398 H 140.626 3.18619 -2.81712 0
M  V30 1399 N 138.941 1.26152 0.944643 0
M  V30 1400 C 140.169 1.14259 1.72489 0
M  V30 1401 C 140.584 -0.302555 1.8636 0
M  V30 1402 O 139.941 -1.20741 1.36849 0
M  V30 1403 C 139.992 1.80266 3.13347 0
M  V30 1404 O 139.713 3.19133 3.00143 0
M  V30 1405 C 141.214 1.74283 4.07603 0
M  V30 1406 H 138.434 0.398051 0.540181 0
M  V30 1407 H 140.978 1.66706 1.18446 0
M  V30 1408 H 139.133 1.31766 3.64303 0
M  V30 1409 H 139.547 3.51744 3.89071 0
M  V30 1410 H 141.021 2.25111 5.04013 0
M  V30 1411 H 141.498 0.708631 4.33446 0
M  V30 1412 H 142.104 2.22319 3.62567 0
M  V30 1413 N 140.419 -1.14872 1.07899 0
M  V30 1414 C 141.835 -1.37776 0.805606 0
M  V30 1415 C 142.035 -1.92743 -0.587555 0
M  V30 1416 O 141.091 -2.13678 -1.34528 0
M  V30 1417 C 142.404 -2.34361 1.88402 0
M  V30 1418 C 143.952 -2.48012 1.90942 0
M  V30 1419 C 144.427 -3.47893 2.97883 0
M  V30 1420 N 145.918 -3.55433 2.97021 0
M  V30 1421 C 146.653 -4.32553 3.76412 0
M  V30 1422 N 146.149 -5.12959 4.65666 0
M  V30 1423 N 147.942 -4.27697 3.64735 0
M  V30 1424 H 140.093 -0.775365 1.97742 0
M  V30 1425 H 142.356 -0.403521 0.857831 0
M  V30 1426 H 142.062 -2.01098 2.88535 0
M  V30 1427 H 141.936 -3.34206 1.74889 0
M  V30 1428 H 144.323 -2.8057 0.914579 0
M  V30 1429 H 144.404 -1.48147 2.08534 0
M  V30 1430 H 144.048 -3.16069 3.97571 0
M  V30 1431 H 143.978 -4.47527 2.77538 0
M  V30 1432 H 146.469 -2.98048 2.32326 0
M  V30 1433 H 146.782 -5.69065 5.22862 0
M  V30 1434 H 145.127 -5.12245 4.69712 0
M  V30 1435 H 148.318 -3.63949 2.94378 0
M  V30 1436 H 148.491 -4.8755 4.26848 0
M  V30 1437 N 141.898 -0.863906 -1.31812 0
M  V30 1438 C 142.831 -0.259963 -2.26714 0
M  V30 1439 C 143.809 0.607392 -1.50829 0
M  V30 1440 O 144.993 0.562155 -1.79922 0
M  V30 1441 C 142.12 0.632456 -3.32743 0
M  V30 1442 C 141.166 -0.162743 -4.26189 0
M  V30 1443 S 141.999 -1.53726 -5.12961 0
M  V30 1444 C 143.155 -0.650803 -6.22507 0
M  V30 1445 H 143.388 -1.06445 -2.77591 0
M  V30 1446 H 140.921 -0.662071 -1.39485 0
M  V30 1447 H 142.879 1.14167 -3.94305 0
M  V30 1448 H 141.54 1.41083 -2.80632 0
M  V30 1449 H 140.733 0.517366 -5.01338 0
M  V30 1450 H 140.335 -0.60385 -3.69093 0
M  V30 1451 H 142.627 0.141134 -6.77353 0
M  V30 1452 H 143.57 -1.37322 -6.94657 0
M  V30 1453 H 143.978 -0.221041 -5.64067 0
M  V30 1454 N 143.376 1.44774 -0.622745 0
M  V30 1455 C 144.622 2.0242 -0.124083 0
M  V30 1456 C 144.955 1.4881 1.24777 0
M  V30 1457 O 144.23 0.668799 1.8264 0
M  V30 1458 C 144.513 3.59957 -0.101619 0
M  V30 1459 C 144.366 4.23867 -1.50521 0
M  V30 1460 C 145.685 4.36284 0.578272 0
M  V30 1461 H 142.804 0.735528 -0.0465645 0
M  V30 1462 H 145.446 1.72447 -0.797617 0
M  V30 1463 H 143.596 3.85623 0.471934 0
M  V30 1464 H 145.268 4.09336 -2.12701 0
M  V30 1465 H 143.511 3.81684 -2.06154 0
M  V30 1466 H 144.182 5.32843 -1.4416 0
M  V30 1467 H 146.658 4.16001 0.0906057 0
M  V30 1468 H 145.534 5.46004 0.563149 0
M  V30 1469 H 145.795 4.10271 1.64713 0
M  V30 1470 N 144.854 0.36279 1.53368 0
M  V30 1471 C 145.817 -0.472679 2.24273 0
M  V30 1472 C 146.817 -1.012 1.24961 0
M  V30 1473 O 148.007 -0.898194 1.49259 0
M  V30 1474 C 145.139 -1.66039 2.97731 0
M  V30 1475 H 146.332 0.14773 2.99536 0
M  V30 1476 H 143.885 0.114434 1.55881 0
M  V30 1477 H 144.62 -2.31896 2.26704 0
M  V30 1478 H 144.405 -1.28066 3.70596 0
M  V30 1479 H 145.895 -2.25252 3.51641 0
M  V30 1480 N 146.332 -1.57332 0.0918853 0
M  V30 1481 C 147.557 -1.98995 -0.584442 0
M  V30 1482 C 147.982 -0.970528 -1.61128 0
M  V30 1483 O 147.34 0.0613904 -1.81196 0
M  V30 1484 C 147.388 -3.39636 -1.21161 0
M  V30 1485 O 146.492 -3.40447 -2.32744 0
M  V30 1486 H 145.833 -0.647165 -0.148572 0
M  V30 1487 H 148.363 -2.03873 0.172347 0
M  V30 1488 H 148.373 -3.7726 -1.55367 0
M  V30 1489 H 147.048 -4.13356 -0.459313 0
M  V30 1490 H 145.625 -3.14614 -2.0018 0
M  V30 1491 N 147.81 0.181792 -1.56548 0
M  V30 1492 C 148.757 1.22521 -1.95595 0
M  V30 1493 C 149.727 1.4454 -0.818373 0
M  V30 1494 O 150.912 1.57454 -1.07763 0
M  V30 1495 C 148.052 2.56193 -2.31212 0
M  V30 1496 C 147.165 2.41641 -3.58097 0
M  V30 1497 C 146.3 3.68108 -3.82975 0
M  V30 1498 C 145.339 3.48445 -5.03242 0
M  V30 1499 N 144.476 4.66956 -5.24306 0
M  V30 1500 H 149.316 0.885226 -2.84548 0
M  V30 1501 H 146.853 0.425718 -1.40805 0
M  V30 1502 H 148.811 3.34088 -2.49882 0
M  V30 1503 H 147.441 2.88208 -1.45382 0
M  V30 1504 H 146.493 1.54976 -3.474 0
M  V30 1505 H 147.805 2.23052 -4.46149 0
M  V30 1506 H 146.959 4.54441 -4.01956 0
M  V30 1507 H 145.698 3.89666 -2.93278 0
M  V30 1508 H 144.703 2.60499 -4.8417 0
M  V30 1509 H 145.928 3.2832 -5.9446 0
M  V30 1510 H 143.874 4.88752 -4.37559 0
M  V30 1511 H 143.791 4.51242 -6.06561 0
M  V30 1512 H 145.059 5.54602 -5.47756 0
M  V30 1513 N 149.288 1.51039 0.449983 0
M  V30 1514 C 150.221 1.66105 1.56474 0
M  V30 1515 C 151.199 0.508776 1.54435 0
M  V30 1516 O 152.383 0.731005 1.73749 0
M  V30 1517 C 149.51 1.66304 2.9506 0
M  V30 1518 C 148.556 2.87346 3.15174 0
M  V30 1519 S 149.389 4.4835 2.92818 0
M  V30 1520 C 150.545 4.51274 4.33708 0
M  V30 1521 H 150.778 2.60397 1.43459 0
M  V30 1522 H 148.311 1.40565 0.638805 0
M  V30 1523 H 150.269 1.67103 3.74949 0
M  V30 1524 H 148.93 0.732108 3.05449 0
M  V30 1525 H 148.123 2.83849 4.16468 0
M  V30 1526 H 147.725 2.84223 2.43091 0
M  V30 1527 H 150.017 4.26136 5.26701 0
M  V30 1528 H 150.96 5.53017 4.42242 0
M  V30 1529 H 151.368 3.80738 4.16772 0
M  V30 1530 N 150.766 -0.704594 1.40972 0
M  V30 1531 C 151.676 -1.84856 1.44448 0
M  V30 1532 C 152.692 -1.70726 0.335961 0
M  V30 1533 O 153.868 -1.92799 0.582276 0
M  V30 1534 C 150.933 -3.20758 1.31587 0
M  V30 1535 C 149.994 -3.47063 2.52677 0
M  V30 1536 C 149.227 -4.76481 2.4042 0
M  V30 1537 O 149.45 -5.52341 1.42391 0
M  V30 1538 O 148.384 -5.03367 3.30007 0
M  V30 1539 H 152.21 -1.8488 2.40942 0
M  V30 1540 H 149.795 -0.85647 1.22413 0
M  V30 1541 H 151.677 -4.01913 1.26665 0
M  V30 1542 H 150.352 -3.21438 0.382049 0
M  V30 1543 H 149.259 -2.65873 2.63177 0
M  V30 1544 H 150.592 -3.5119 3.44858 0
M  V30 1545 N 152.244 -1.26651 -0.937939 0
M  V30 1546 C 153.174 -1.10993 -2.05433 0
M  V30 1547 C 154.155 -0.0142161 -1.70094 0
M  V30 1548 O 155.34 -0.186837 -1.93299 0
M  V30 1549 C 152.47 -0.745561 -3.39203 0
M  V30 1550 C 151.424 -1.79337 -3.88616 0
M  V30 1551 C 150.75 -1.28324 -5.19073 0
M  V30 1552 C 152.05 -3.19553 -4.13138 0
M  V30 1553 H 153.744 -2.0438 -2.1879 0
M  V30 1554 H 151.29 -0.984041 -1.05131 0
M  V30 1555 H 153.243 -0.622888 -4.16771 0
M  V30 1556 H 151.967 0.22401 -3.25831 0
M  V30 1557 H 150.626 -1.90477 -3.13231 0
M  V30 1558 H 150.274 -0.303414 -5.02084 0
M  V30 1559 H 149.974 -1.98369 -5.53103 0
M  V30 1560 H 151.498 -1.1733 -5.99221 0
M  V30 1561 H 152.912 -3.11471 -4.81309 0
M  V30 1562 H 151.309 -3.87218 -4.58457 0
M  V30 1563 H 152.379 -3.65368 -3.18801 0
M  V30 1564 N 153.722 1.14298 -1.08507 0
M  V30 1565 C 154.672 2.17449 -0.685569 0
M  V30 1566 C 155.656 1.58167 0.295315 0
M  V30 1567 O 156.848 1.76675 0.107172 0
M  V30 1568 C 153.977 3.43161 -0.0975318 0
M  V30 1569 C 153.063 4.09471 -1.10426 0
M  V30 1570 N 153.454 4.51089 -2.28806 0
M  V30 1571 C 151.752 4.35976 -0.940258 0
M  V30 1572 C 152.453 5.02654 -2.9277 0
M  V30 1573 N 151.429 4.96927 -2.20374 0
M  V30 1574 H 155.231 2.47369 -1.587 0
M  V30 1575 H 152.745 1.30992 -0.959936 0
M  V30 1576 H 154.742 4.16388 0.20664 0
M  V30 1577 H 153.402 3.14719 0.798872 0
M  V30 1578 H 154.413 4.44097 -2.66455 0
M  V30 1579 H 151.09 4.17386 -0.0977441 0
M  V30 1580 H 152.48 5.44723 -3.93352 0
M  V30 1581 N 155.201 0.870884 1.31352 0
M  V30 1582 C 156.164 0.332243 2.26779 0
M  V30 1583 C 157.164 -0.517302 1.52252 0
M  V30 1584 O 158.354 -0.326477 1.71113 0
M  V30 1585 C 155.486 -0.528066 3.36785 0
M  V30 1586 H 156.679 1.17469 2.75937 0
M  V30 1587 H 154.232 0.64655 1.423 0
M  V30 1588 H 154.967 -1.39167 2.92922 0
M  V30 1589 H 154.752 0.0802582 3.92018 0
M  V30 1590 H 156.242 -0.897179 4.07849 0
M  V30 1591 N 156.679 -1.44442 0.630414 0
M  V30 1592 C 157.609 -2.33418 -0.0618083 0
M  V30 1593 C 158.59 -1.48165 -0.835541 0
M  V30 1594 O 159.775 -1.76886 -0.801564 0
M  V30 1595 C 156.905 -3.31222 -1.04449 0
M  V30 1596 C 155.859 -4.26288 -0.382436 0
M  V30 1597 C 155.185 -5.13954 -1.47497 0
M  V30 1598 C 156.485 -5.1744 0.710865 0
M  V30 1599 H 158.179 -2.91548 0.681184 0
M  V30 1600 H 155.725 -1.40191 0.329026 0
M  V30 1601 H 157.678 -3.92351 -1.53748 0
M  V30 1602 H 156.402 -2.71299 -1.81836 0
M  V30 1603 H 155.061 -3.6649 0.0899054 0
M  V30 1604 H 154.709 -4.50385 -2.2397 0
M  V30 1605 H 154.409 -5.7837 -1.03737 0
M  V30 1606 H 155.933 -5.77955 -1.96979 0
M  V30 1607 H 157.347 -5.72509 0.300996 0
M  V30 1608 H 155.744 -5.90455 1.07156 0
M  V30 1609 H 156.814 -4.58496 1.57829 0
M  V30 1610 N 158.157 -0.370918 -1.53173 0
M  V30 1611 C 159.382 0.220293 -2.06227 0
M  V30 1612 C 159.807 1.41243 -1.24225 0
M  V30 1613 O 159.165 1.79387 -0.262645 0
M  V30 1614 C 159.213 0.586663 -3.55796 0
M  V30 1615 O 158.317 1.68317 -3.76488 0
M  V30 1616 H 157.658 0.0308099 -0.663285 0
M  V30 1617 H 160.188 -0.533068 -1.97534 0
M  V30 1618 H 160.198 0.85617 -3.98916 0
M  V30 1619 H 158.873 -0.285013 -4.14922 0
M  V30 1620 H 157.45 1.40881 -3.45264 0
M  V30 1621 N 159.635 1.57281 -0.100228 0
M  V30 1622 C 160.863 1.98879 0.570509 0
M  V30 1623 C 161.278 0.979476 1.61405 0
M  V30 1624 O 160.635 -0.0302288 1.82475 0
M  V30 1625 C 160.686 3.4052 1.2136 0
M  V30 1626 O 160.407 4.37588 0.211786 0
M  V30 1627 C 161.908 3.97149 1.96945 0
M  V30 1628 H 159.128 0.653428 0.152555 0
M  V30 1629 H 161.672 2.03697 -0.18103 0
M  V30 1630 H 159.827 3.367 1.91603 0
M  V30 1631 H 160.241 5.20118 0.676607 0
M  V30 1632 H 161.715 4.98393 2.37294 0
M  V30 1633 H 162.192 3.3525 2.83733 0
M  V30 1634 H 162.798 4.04458 1.31506 0
M  V30 1635 N 161.113 -0.173488 1.56642 0
M  V30 1636 C 162.361 -0.888706 1.81512 0
M  V30 1637 C 162.682 -1.82875 0.676872 0
M  V30 1638 O 161.952 -1.93536 -0.303414 0
M  V30 1639 H 160.532 -0.331164 0.669582 0
M  V30 1640 H 163.194 -0.173823 1.94123 0
M  V30 1641 H 162.29 -1.46691 2.75478 0
M  V30 1642 N 162.591 -1.51276 -0.441967 0
M  V30 1643 C 164.007 -1.39349 -0.778083 0
M  V30 1644 C 164.207 -0.472212 -1.95889 0
M  V30 1645 O 163.263 0.0743551 -2.5239 0
M  V30 1646 C 164.576 -2.81292 -1.0628 0
M  V30 1647 C 166.124 -2.9041 -1.16751 0
M  V30 1648 C 166.599 -4.33251 -1.48519 0
M  V30 1649 N 168.09 -4.36336 -1.55453 0
M  V30 1650 C 168.825 -5.43885 -1.81596 0
M  V30 1651 N 168.321 -6.61601 -2.05562 0
M  V30 1652 N 170.114 -5.3136 -1.8334 0
M  V30 1653 H 162.265 -2.09729 0.335774 0
M  V30 1654 H 164.528 -0.943925 0.0878028 0
M  V30 1655 H 164.234 -3.50678 -0.267905 0
M  V30 1656 H 164.108 -3.20334 -1.99163 0
M  V30 1657 H 166.495 -2.21225 -1.95304 0
M  V30 1658 H 166.576 -2.54871 -0.217801 0
M  V30 1659 H 166.22 -5.02984 -0.704958 0
M  V30 1660 H 166.15 -4.66299 -2.44689 0
M  V30 1661 H 168.641 -3.51466 -1.38853 0
M  V30 1662 H 168.954 -7.39361 -2.24867 0
M  V30 1663 H 167.299 -6.64725 -2.02894 0
M  V30 1664 H 170.49 -4.38382 -1.64132 0
M  V30 1665 H 170.663 -6.15258 -2.03377 0
M  V30 1666 N 164.069 0.697108 -1.41344 0
M  V30 1667 C 164.979 1.84088 -1.45427 0
M  V30 1668 C 165.995 1.70545 -0.34501 0
M  V30 1669 O 167.171 1.92488 -0.592492 0
M  V30 1670 C 164.236 3.20056 -1.33286 0
M  V30 1671 C 163.297 3.45718 -2.54514 0
M  V30 1672 C 162.53 4.75199 -2.42944 0
M  V30 1673 O 162.753 5.51579 -1.45318 0
M  V30 1674 O 161.687 5.0161 -3.32672 0
M  V30 1675 H 165.513 1.836 -2.41919 0
M  V30 1676 H 163.098 0.849966 -1.22866 0
M  V30 1677 H 164.98 4.01236 -1.28794 0
M  V30 1678 H 163.655 3.2123 -0.39909 0
M  V30 1679 H 162.562 2.64474 -2.64583 0
M  V30 1680 H 163.895 3.49356 -3.46715 0
M  V30 1681 N 165.547 1.27147 0.931209 0
M  V30 1682 C 166.958 1.12044 1.49342 0
M  V30 1683 C 167.309 -0.295795 1.93957 0
M  V30 1684 O 166.434 -1.18835 1.80852 0
M  V30 1685 C 167.029 2.02781 2.71414 0
M  V30 1686 C 165.588 1.91794 3.2387 0
M  V30 1687 C 164.735 1.95543 1.96617 0
M  V30 1688 H 167.686 1.40091 0.745672 0
M  V30 1689 H 167.707 1.58156 3.46074 0
M  V30 1690 H 167.219 3.05848 2.38911 0
M  V30 1691 H 165.32 0.916992 3.6114 0
M  V30 1692 H 165.433 2.77852 3.90302 0
M  V30 1693 H 163.797 1.39722 2.12955 0
M  V30 1694 H 164.58 3.00259 1.66432 0
M  V30 1695 N 167.025 -1.13721 1.09112 0
M  V30 1696 C 168.441 -1.36914 0.820174 0
M  V30 1697 C 168.641 -1.93356 -0.567079 0
M  V30 1698 O 167.697 -2.15093 -1.32255 0
M  V30 1699 C 169.01 -2.3235 1.90877 0
M  V30 1700 C 170.558 -2.45973 1.93562 0
M  V30 1701 C 171.033 -3.44714 3.01556 0
M  V30 1702 N 172.524 -3.52263 3.00775 0
M  V30 1703 C 173.259 -4.28536 3.80978 0
M  V30 1704 N 172.755 -5.07991 4.71081 0
M  V30 1705 N 174.548 -4.23804 3.69251 0
M  V30 1706 H 166.699 -0.754348 1.98553 0
M  V30 1707 H 168.962 -0.3944 0.862063 0
M  V30 1708 H 168.668 -1.98027 2.90651 0
M  V30 1709 H 168.542 -3.32332 1.78424 0
M  V30 1710 H 170.929 -2.79584 0.944286 0
M  V30 1711 H 171.01 -1.45926 2.10093 0
M  V30 1712 H 170.654 -3.11835 4.00901 0
M  V30 1713 H 170.584 -4.44558 2.82269 0
M  V30 1714 H 173.075 -2.95567 2.35475 0
M  V30 1715 H 173.388 -5.63487 5.28869 0
M  V30 1716 H 171.733 -5.07235 4.75119 0
M  V30 1717 H 174.924 -3.60806 2.98222 0
M  V30 1718 H 175.097 -4.82995 4.31995 0
M  V30 1719 N 168.503 -0.877838 -1.30888 0
M  V30 1720 C 169.749 -0.493426 -1.96706 0
M  V30 1721 C 170.082 0.953504 -1.6918 0
M  V30 1722 O 169.357 1.67266 -0.992594 0
M  V30 1723 C 169.64 -0.760429 -3.51979 0
M  V30 1724 C 169.493 -2.25747 -3.89048 0
M  V30 1725 C 170.812 -0.232148 -4.39487 0
M  V30 1726 H 167.931 -0.180746 -0.714493 0
M  V30 1727 H 170.573 -1.10052 -1.54882 0
M  V30 1728 H 168.723 -0.243715 -3.87735 0
M  V30 1729 H 170.395 -2.84204 -3.63354 0
M  V30 1730 H 168.638 -2.72694 -3.37373 0
M  V30 1731 H 169.309 -2.39491 -4.97341 0
M  V30 1732 H 171.785 -0.674314 -4.106 0
M  V30 1733 H 170.661 -0.448355 -5.47066 0
M  V30 1734 H 170.922 0.866297 -4.33529 0
M  V30 1735 N 169.982 1.44106 -0.638065 0
M  V30 1736 C 170.945 2.29138 0.0531013 0
M  V30 1737 C 171.945 1.41409 0.765506 0
M  V30 1738 O 173.135 1.63206 0.609046 0
M  V30 1739 C 170.267 3.23144 1.08584 0
M  V30 1740 H 171.46 2.91739 -0.694883 0
M  V30 1741 H 169.013 1.51134 -0.398538 0
M  V30 1742 H 169.748 2.65408 1.86357 0
M  V30 1743 H 169.533 3.87804 0.578852 0
M  V30 1744 H 171.023 3.87004 1.56899 0
M  V30 1745 N 171.46 0.379036 1.52974 0
M  V30 1746 C 172.688 -0.20679 2.05864 0
M  V30 1747 C 173.103 -1.41356 1.25155 0
M  V30 1748 O 172.46 -1.8009 0.295588 0
M  V30 1749 C 172.511 -0.587045 3.56702 0
M  V30 1750 O 172.232 0.571776 4.34353 0
M  V30 1751 C 173.733 -1.22983 4.25899 0
M  V30 1752 H 170.953 -0.0336123 0.670158 0
M  V30 1753 H 173.497 0.541298 1.97206 0
M  V30 1754 H 171.652 -1.28504 3.65466 0
M  V30 1755 H 172.066 0.261544 5.23847 0
M  V30 1756 H 173.54 -1.44635 5.32715 0
M  V30 1757 H 174.017 -2.19416 3.80465 0
M  V30 1758 H 174.623 -0.572892 4.21424 0
M  V30 1759 N 172.938 -1.57226 0.108567 0
M  V30 1760 C 174.184 -1.95121 -0.552761 0
M  V30 1761 C 174.517 -0.991345 -1.66991 0
M  V30 1762 O 173.792 -0.0267211 -1.94482 0
M  V30 1763 C 174.075 -3.43039 -1.09528 0
M  V30 1764 C 173.928 -4.49797 0.0177332 0
M  V30 1765 C 175.247 -3.92567 -1.98945 0
M  V30 1766 H 172.366 -0.709496 -0.199461 0
M  V30 1767 H 175.008 -1.89126 0.182011 0
M  V30 1768 H 173.158 -3.48279 -1.72146 0
M  V30 1769 H 174.83 -4.56661 0.652584 0
M  V30 1770 H 173.073 -4.284 0.682309 0
M  V30 1771 H 173.744 -5.50528 -0.402919 0
M  V30 1772 H 176.22 -3.89565 -1.46214 0
M  V30 1773 H 175.096 -4.96605 -2.33827 0
M  V30 1774 H 175.357 -3.32648 -2.91201 0
M  V30 1775 N 174.416 0.165178 -1.56732 0
M  V30 1776 C 175.644 0.896218 -1.86482 0
M  V30 1777 C 176.059 1.75555 -0.694675 0
M  V30 1778 O 175.416 1.79379 0.33607 0
M  V30 1779 C 175.467 1.76792 -3.1532 0
M  V30 1780 O 175.188 0.943239 -4.27825 0
M  V30 1781 C 176.689 2.6081 -3.58459 0
M  V30 1782 H 173.909 0.260064 -0.618553 0
M  V30 1783 H 176.453 0.163428 -2.03846 0
M  V30 1784 H 174.608 2.45398 -2.99764 0
M  V30 1785 H 175.022 1.53998 -5.01383 0
M  V30 1786 H 176.496 3.17579 -4.51495 0
M  V30 1787 H 176.973 3.35977 -2.82872 0
M  V30 1788 H 177.579 1.97526 -3.76648 0
M  V30 1789 N 175.894 1.51508 0.433938 0
M  V30 1790 C 177.31 1.39759 0.770682 0
M  V30 1791 C 177.51 0.482594 1.95636 0
M  V30 1792 O 176.566 -0.0609691 2.52426 0
M  V30 1793 C 177.879 2.81851 1.04787 0
M  V30 1794 C 179.427 2.91025 1.1521 0
M  V30 1795 C 179.902 4.34032 1.46219 0
M  V30 1796 N 181.393 4.37154 1.53136 0
M  V30 1797 C 182.128 5.4484 1.78709 0
M  V30 1798 N 181.624 6.62682 2.02051 0
M  V30 1799 N 183.417 5.32324 1.80519 0
M  V30 1800 H 175.568 2.09548 -0.346892 0
M  V30 1801 H 177.831 0.943446 -0.0928074 0
M  V30 1802 H 177.537 3.50815 0.249304 0
M  V30 1803 H 177.411 3.21386 1.97461 0
M  V30 1804 H 179.798 2.22257 1.94128 0
M  V30 1805 H 179.879 2.54983 0.204281 0
M  V30 1806 H 179.523 5.03351 0.678274 0
M  V30 1807 H 179.453 4.6759 2.42212 0
M  V30 1808 H 181.944 3.52197 1.36987 0
M  V30 1809 H 182.257 7.40543 2.20943 0
M  V30 1810 H 180.602 6.65791 1.99366 0
M  V30 1811 H 183.793 4.39246 1.61805 0
M  V30 1812 H 183.966 6.16328 2.00111 0
M  V30 1813 N 177.372 -0.689602 1.41712 0
M  V30 1814 C 178.621 -1.44534 1.40686 0
M  V30 1815 C 178.934 -1.95588 0.0213352 0
M  V30 1816 O 180.14 -2.71271 -0.111534 0
M  V30 1817 C 178.596 -2.61387 2.47396 0
M  V30 1818 C 178.204 -2.17094 3.91885 0
M  V30 1819 C 179.948 -3.38986 2.55517 0
M  V30 1820 C 177.855 -3.3094 4.90135 0
M  V30 1821 H 176.785 -0.542925 0.52321 0
M  V30 1822 H 179.436 -0.748054 1.6756 0
M  V30 1823 H 177.818 -3.33412 2.13664 0
M  V30 1824 H 178.992 -1.52318 4.34897 0
M  V30 1825 H 177.307 -1.52473 3.8748 0
M  V30 1826 H 179.904 -4.23747 3.26102 0
M  V30 1827 H 180.247 -3.84578 1.59391 0
M  V30 1828 H 180.78 -2.74021 2.8837 0
M  V30 1829 H 177.519 -2.90355 5.87685 0
M  V30 1830 H 177.039 -3.94546 4.51767 0
M  V30 1831 H 178.718 -3.9663 5.11169 0
M  V30 1832 N 178.85 -1.27639 -0.924453 0
M  V30 1833 C 179.78 -1.13166 -2.04244 0
M  V30 1834 C 180.761 -0.032256 -1.70069 0
M  V30 1835 O 181.946 -0.207328 -1.9309 0
M  V30 1836 C 179.076 -0.781496 -3.38393 0
M  V30 1837 C 178.03 -1.83449 -3.86692 0
M  V30 1838 C 177.356 -1.33822 -5.17683 0
M  V30 1839 C 178.656 -3.23917 -4.09726 0
M  V30 1840 H 180.35 -2.06689 -2.1661 0
M  V30 1841 H 177.896 -0.995136 -1.04082 0
M  V30 1842 H 179.849 -0.667057 -4.16087 0
M  V30 1843 H 178.573 0.189439 -3.2605 0
M  V30 1844 H 177.232 -1.93789 -3.11193 0
M  V30 1845 H 176.88 -0.35665 -5.01734 0
M  V30 1846 H 176.58 -2.04224 -5.50968 0
M  V30 1847 H 178.104 -1.23679 -5.97943 0
M  V30 1848 H 179.518 -3.16559 -4.77978 0
M  V30 1849 H 177.915 -3.92059 -4.54324 0
M  V30 1850 H 178.985 -3.68729 -3.14908 0
M  V30 1851 N 180.328 1.1314 -1.09713 0
M  V30 1852 C 181.744 1.36477 -0.827423 0
M  V30 1853 C 181.944 1.93654 0.556817 0
M  V30 1854 O 181 2.15791 1.31112 0
M  V30 1855 C 182.313 2.31334 -1.92106 0
M  V30 1856 C 183.861 2.44943 -1.94864 0
M  V30 1857 C 184.336 3.4311 -3.0338 0
M  V30 1858 N 185.827 3.50662 -3.02639 0
M  V30 1859 C 186.562 4.2651 -3.83246 0
M  V30 1860 N 186.058 5.05485 -4.73768 0
M  V30 1861 N 187.851 4.2184 -3.71493 0
M  V30 1862 H 180.002 0.743807 -1.9895 0
M  V30 1863 H 182.265 0.389823 -0.864143 0
M  V30 1864 H 181.971 1.96483 -2.91698 0
M  V30 1865 H 181.845 3.31381 -1.80184 0
M  V30 1866 H 184.232 2.79079 -0.959099 0
M  V30 1867 H 184.313 1.4481 -2.10864 0
M  V30 1868 H 183.957 3.09704 -4.02549 0
M  V30 1869 H 183.887 4.43055 -2.84622 0
M  V30 1870 H 186.378 2.94315 -2.37039 0
M  V30 1871 H 186.691 5.60675 -5.3185 0
M  V30 1872 H 185.036 5.04708 -4.77802 0
M  V30 1873 H 188.227 3.5922 -3.00131 0
M  V30 1874 H 188.4 4.80697 -4.3455 0
M  V30 1875 N 181.806 0.884767 1.30421 0
M  V30 1876 C 182.738 0.308655 2.27112 0
M  V30 1877 C 183.751 -0.536655 1.53701 0
M  V30 1878 O 184.94 -0.35624 1.74909 0
M  V30 1879 C 182.04 -0.579782 3.33904 0
M  V30 1880 C 181.213 0.236417 4.36761 0
M  V30 1881 C 180.272 -0.582482 5.22966 0
M  V30 1882 O 179.298 -0.00525502 5.692 0
M  V30 1883 N 180.5 -1.89163 5.48815 0
M  V30 1884 H 183.265 1.13964 2.77186 0
M  V30 1885 H 180.826 0.747731 1.43599 0
M  V30 1886 H 182.818 -1.13366 3.88497 0
M  V30 1887 H 181.388 -1.31144 2.83761 0
M  V30 1888 H 180.608 0.97174 3.82035 0
M  V30 1889 H 181.896 0.795924 5.02536 0
M  V30 1890 H 181.294 -2.38352 5.13035 0
M  V30 1891 H 179.851 -2.39296 6.06284 0
M  V30 1892 N 183.284 -1.43765 0.645699 0
M  V30 1893 C 184.512 -2.06253 0.163556 0
M  V30 1894 C 184.927 -1.48352 -1.16778 0
M  V30 1895 O 184.284 -0.611932 -1.71935 0
M  V30 1896 C 184.335 -3.61453 0.0583186 0
M  V30 1897 O 184.056 -4.172 1.33702 0
M  V30 1898 C 185.557 -4.41002 -0.450795 0
M  V30 1899 H 182.777 -0.665413 0.0864077 0
M  V30 1900 H 185.321 -1.84396 0.884222 0
M  V30 1901 H 183.476 -3.82522 -0.612865 0
M  V30 1902 H 183.89 -5.10791 1.19131 0
M  V30 1903 H 185.364 -5.49966 -0.473403 0
M  V30 1904 H 185.841 -4.13488 -1.48068 0
M  V30 1905 H 186.447 -4.24886 0.187637 0
M  V30 1906 N 184.763 -0.387143 -1.52771 0
M  V30 1907 C 185.693 0.440551 -2.29306 0
M  V30 1908 C 186.674 1.06535 -1.32606 0
M  V30 1909 O 187.859 1.07853 -1.61497 0
M  V30 1910 C 184.989 1.56919 -3.09829 0
M  V30 1911 C 183.943 1.07054 -4.14395 0
M  V30 1912 C 183.269 2.29109 -4.83129 0
M  V30 1913 C 184.569 0.140015 -5.22112 0
M  V30 1914 H 186.263 -0.198026 -2.98744 0
M  V30 1915 H 183.809 -0.09668 -1.43675 0
M  V30 1916 H 185.762 2.15503 -3.62128 0
M  V30 1917 H 184.486 2.23532 -2.3812 0
M  V30 1918 H 183.145 0.507247 -3.63074 0
M  V30 1919 H 182.793 2.94227 -4.0797 0
M  V30 1920 H 182.493 1.96406 -5.53804 0
M  V30 1921 H 184.017 2.88339 -5.38231 0
M  V30 1922 H 185.431 0.633978 -5.69784 0
M  V30 1923 H 183.828 -0.0971485 -6.00021 0
M  V30 1924 H 184.898 -0.811711 -4.78058 0
M  V30 1925 N 186.241 1.57166 -0.116904 0
M  V30 1926 C 187.488 1.95123 0.541603 0
M  V30 1927 C 187.816 1.00006 1.6682 0
M  V30 1928 O 187.071 0.0235658 1.95686 0
M  V30 1929 C 187.37 3.39508 1.11664 0
M  V30 1930 C 187.036 4.50762 0.111606 0
M  V30 1931 C 185.698 4.80918 -0.164758 0
M  V30 1932 C 188.05 5.18036 -0.573438 0
M  V30 1933 C 185.378 5.75666 -1.13249 0
M  V30 1934 C 187.73 6.13824 -1.52978 0
M  V30 1935 C 186.394 6.42374 -1.81415 0
M  V30 1936 H 185.664 0.714005 0.198187 0
M  V30 1937 H 188.311 1.9048 -0.197365 0
M  V30 1938 H 186.616 3.40835 1.93232 0
M  V30 1939 H 188.313 3.66189 1.63422 0
M  V30 1940 H 184.903 4.27272 0.337192 0
M  V30 1941 H 189.087 4.94896 -0.373092 0
M  V30 1942 H 184.343 5.96092 -1.35958 0
M  V30 1943 H 188.517 6.65039 -2.06629 0
M  V30 1944 H 186.144 7.15599 -2.56557 0
M  V30 1945 N 187.719 -0.156864 1.56817 0
M  V30 1946 C 189.135 -0.50916 1.5126 0
M  V30 1947 C 189.335 -1.83897 0.823658 0
M  V30 1948 O 188.391 -2.49469 0.390055 0
M  V30 1949 C 189.704 -0.52857 2.96018 0
M  V30 1950 C 191.252 -0.614771 3.06903 0
M  V30 1951 C 191.727 -0.664938 4.53147 0
M  V30 1952 N 193.218 -0.727433 4.57452 0
M  V30 1953 C 193.953 -0.787067 5.67973 0
M  V30 1954 N 193.449 -0.806649 6.88088 0
M  V30 1955 N 195.242 -0.827195 5.5598 0
M  V30 1956 H 187.393 0.714935 2.00006 0
M  V30 1957 H 189.656 0.259526 0.911784 0
M  V30 1958 H 189.362 0.380154 3.49639 0
M  V30 1959 H 189.236 -1.36998 3.51442 0
M  V30 1960 H 191.623 -1.51392 2.53307 0
M  V30 1961 H 191.704 0.253597 2.5454 0
M  V30 1962 H 191.348 0.230011 5.07379 0
M  V30 1963 H 191.278 -1.54966 5.03282 0
M  V30 1964 H 193.769 -0.719998 3.70978 0
M  V30 1965 H 194.082 -0.853727 7.6807 0
M  V30 1966 H 192.427 -0.774687 6.90669 0
M  V30 1967 H 195.618 -0.808998 4.61056 0
M  V30 1968 H 195.791 -0.870206 6.4213 0
M  V30 1969 N 189.197 -1.51736 -0.425897 0
M  V30 1970 C 190.427 -1.68549 -1.19476 0
M  V30 1971 C 190.835 -0.387288 -1.85194 0
M  V30 1972 O 190.178 0.645142 -1.71999 0
M  V30 1973 C 190.24 -2.75275 -2.31223 0
M  V30 1974 C 189.904 -4.17534 -1.8578 0
M  V30 1975 C 190.901 -5.01936 -1.35485 0
M  V30 1976 C 188.586 -4.6369 -1.93123 0
M  V30 1977 C 190.58 -6.30559 -0.931347 0
M  V30 1978 C 188.267 -5.92307 -1.50384 0
M  V30 1979 C 189.265 -6.75569 -1.00473 0
M  V30 1980 O 188.953 -8.0178 -0.583452 0
M  V30 1981 H 188.685 -0.568525 -0.365725 0
M  V30 1982 H 191.239 -1.98982 -0.509444 0
M  V30 1983 H 189.469 -2.40182 -3.03067 0
M  V30 1984 H 191.158 -2.80853 -2.93047 0
M  V30 1985 H 191.924 -4.67475 -1.29197 0
M  V30 1986 H 187.803 -3.98997 -2.30916 0
M  V30 1987 H 191.347 -6.95498 -0.541084 0
M  V30 1988 H 187.244 -6.2628 -1.56346 0
M  V30 1989 H 188.012 -8.1543 -0.708275 0
M  V30 1990 N 190.675 0.682077 -1.42076 0
M  V30 1991 C 191.607 1.80755 -1.40926 0
M  V30 1992 C 192.62 1.59833 -0.309398 0
M  V30 1993 O 193.809 1.69087 -0.572014 0
M  V30 1994 C 190.909 3.17744 -1.17865 0
M  V30 1995 C 190.082 3.65578 -2.40149 0
M  V30 1996 C 189.141 4.81277 -2.12742 0
M  V30 1997 O 188.167 4.92197 -2.85887 0
M  V30 1998 N 189.369 5.69474 -1.12602 0
M  V30 1999 H 192.134 1.82229 -2.37935 0
M  V30 2000 H 189.695 0.864903 -1.36861 0
M  V30 2001 H 191.687 3.9279 -0.9746 0
M  V30 2002 H 190.257 3.11214 -0.294068 0
M  V30 2003 H 189.477 2.81291 -2.76169 0
M  V30 2004 H 190.765 3.94278 -3.21593 0
M  V30 2005 H 190.163 5.63297 -0.520899 0
M  V30 2006 H 188.72 6.44363 -0.981842 0
M  V30 2007 N 192.153 1.28127 0.917671 0
M  V30 2008 C 193.401 1.14825 1.66312 0
M  V30 2009 C 193.722 -0.304379 1.9261 0
M  V30 2010 O 192.992 -1.21149 1.53947 0
M  V30 2011 H 191.572 0.421953 0.616413 0
M  V30 2012 H 194.234 1.608 1.10134 0
M  V30 2013 H 193.33 1.68489 2.62712 0
M  V30 2014 N 193.631 -1.12557 1.10312 0
M  V30 2015 C 194.581 -2.16331 0.720076 0
M  V30 2016 C 195.565 -1.58616 -0.270115 0
M  V30 2017 O 196.757 -1.76823 -0.0790507 0
M  V30 2018 C 193.886 -3.42963 0.152113 0
M  V30 2019 C 192.972 -4.07663 1.16927 0
M  V30 2020 N 193.363 -4.47392 2.35953 0
M  V30 2021 C 191.661 -4.34425 1.0095 0
M  V30 2022 C 192.362 -4.97932 3.0073 0
M  V30 2023 N 191.338 -4.93358 2.28252 0
M  V30 2024 H 195.14 -2.44813 1.62616 0
M  V30 2025 H 192.654 -1.29449 0.980654 0
M  V30 2026 H 194.651 -4.16664 -0.14037 0
M  V30 2027 H 193.311 -3.1595 -0.748701 0
M  V30 2028 H 194.322 -4.39802 2.73486 0
M  V30 2029 H 190.999 -4.17177 0.164134 0
M  V30 2030 H 192.389 -5.38397 4.01969 0
M  V30 2031 N 195.109 -0.891671 -1.2995 0
M  V30 2032 C 196.355 -0.514261 -1.96171 0
M  V30 2033 C 196.688 0.935506 -1.70182 0
M  V30 2034 O 195.963 1.66204 -1.01028 0
M  V30 2035 C 196.246 -0.797719 -3.51153 0
M  V30 2036 C 196.099 -2.2986 -3.86632 0
M  V30 2037 C 197.418 -0.278749 -4.39216 0
M  V30 2038 H 194.537 -0.188314 -0.712535 0
M  V30 2039 H 197.179 -1.11689 -1.53706 0
M  V30 2040 H 195.329 -0.284826 -3.87455 0
M  V30 2041 H 197.001 -2.88042 -3.60319 0
M  V30 2042 H 195.244 -2.76257 -3.34462 0
M  V30 2043 H 195.915 -2.44753 -4.94773 0
M  V30 2044 H 198.391 -0.717825 -4.09862 0
M  V30 2045 H 197.267 -0.506353 -5.46559 0
M  V30 2046 H 197.528 0.820266 -4.34424 0
M  V30 2047 N 196.587 1.43421 -0.653314 0
M  V30 2048 C 197.835 2.01414 -0.166415 0
M  V30 2049 C 198.156 1.51803 1.22397 0
M  V30 2050 O 197.426 0.730693 1.81763 0
M  V30 2051 H 196.006 0.744703 -0.0585319 0
M  V30 2052 H 198.668 1.75629 -0.845003 0
M  V30 2053 H 197.764 3.11734 -0.151111 0
M  V30 2054 N 198.065 0.39524 1.52563 0
M  V30 2055 C 199.028 -0.425001 2.25225 0
M  V30 2056 C 200.028 -0.985266 1.27079 0
M  V30 2057 O 201.218 -0.866332 1.5113 0
M  V30 2058 C 198.35 -1.59686 3.01186 0
M  V30 2059 H 199.543 0.211233 2.99155 0
M  V30 2060 H 197.096 0.147472 1.55603 0
M  V30 2061 H 197.831 -2.27035 2.31572 0
M  V30 2062 H 197.616 -1.20176 3.73229 0
M  V30 2063 H 199.106 -2.17743 3.5634 0
M  V30 2064 N 199.544 -1.57102 0.125237 0
M  V30 2065 C 200.769 -2.0019 -0.542101 0
M  V30 2066 C 201.194 -1.00449 -1.59034 0
M  V30 2067 O 200.552 0.0229423 -1.81285 0
M  V30 2068 C 200.6 -3.42129 -1.13929 0
M  V30 2069 O 199.704 -3.45307 -2.2547 0
M  V30 2070 H 199.045 -0.650171 -0.134812 0
M  V30 2071 H 201.575 -2.03461 0.215553 0
M  V30 2072 H 201.585 -3.80471 -1.4733 0
M  V30 2073 H 200.26 -4.14237 -0.371531 0
M  V30 2074 H 198.837 -3.1879 -1.93462 0
M  V30 2075 N 201.022 0.148545 -1.56898 0
M  V30 2076 C 201.952 1.18524 -2.01182 0
M  V30 2077 C 202.933 1.4489 -0.891123 0
M  V30 2078 O 204.118 1.55836 -1.15882 0
M  V30 2079 C 201.248 2.51879 -2.39112 0
M  V30 2080 C 200.202 2.40038 -3.54353 0
M  V30 2081 C 199.528 3.78089 -3.78091 0
M  V30 2082 C 200.828 1.88577 -4.87069 0
M  V30 2083 H 202.522 0.817029 -2.88036 0
M  V30 2084 H 200.068 0.391575 -1.38574 0
M  V30 2085 H 202.021 3.24627 -2.68692 0
M  V30 2086 H 200.745 2.90532 -1.49193 0
M  V30 2087 H 199.404 1.69742 -3.24936 0
M  V30 2088 H 199.052 4.14175 -2.85426 0
M  V30 2089 H 198.752 3.71028 -4.55645 0
M  V30 2090 H 200.276 4.52387 -4.10095 0
M  V30 2091 H 201.69 2.51117 -5.15377 0
M  V30 2092 H 200.087 1.9241 -5.68417 0
M  V30 2093 H 201.157 0.84136 -4.77545 0
M  V30 2094 N 202.5 1.5196 0.417844 0
M  V30 2095 C 203.749 1.6482 1.16264 0
M  V30 2096 C 204.062 0.379886 1.91876 0
M  V30 2097 O 205.268 0.388154 2.68711 0
M  V30 2098 C 203.724 2.91161 2.1155 0
M  V30 2099 C 203.332 4.25068 1.41495 0
M  V30 2100 C 205.076 3.13383 2.86341 0
M  V30 2101 C 202.983 5.42541 2.35379 0
M  V30 2102 H 201.913 0.613954 0.437694 0
M  V30 2103 H 204.564 1.78442 0.427871 0
M  V30 2104 H 202.946 2.71218 2.88543 0
M  V30 2105 H 204.12 4.55463 0.699263 0
M  V30 2106 H 202.435 4.0888 0.787792 0
M  V30 2107 H 205.032 3.98324 3.5671 0
M  V30 2108 H 205.375 2.27256 3.48798 0
M  V30 2109 H 205.908 3.33757 2.1645 0
M  V30 2110 H 202.647 6.30987 1.77582 0
M  V30 2111 H 202.167 5.16497 3.04945 0
M  V30 2112 H 203.846 5.75272 2.96093 0
M  V30 2113 N 203.978 -0.674533 1.42435 0
M  V30 2114 C 205.224 -1.43671 1.43131 0
M  V30 2115 C 205.557 -1.94142 0.0476021 0
M  V30 2116 O 204.832 -1.70924 -0.928188 0
M  V30 2117 C 205.115 -2.63355 2.45594 0
M  V30 2118 C 204.968 -2.18514 3.93156 0
M  V30 2119 C 206.287 -3.65571 2.45043 0
M  V30 2120 H 203.406 -0.521077 0.521198 0
M  V30 2121 H 206.048 -0.766551 1.7385 0
M  V30 2122 H 204.198 -3.2053 2.19528 0
M  V30 2123 H 205.87 -1.66504 4.30202 0
M  V30 2124 H 204.113 -1.50086 4.07009 0
M  V30 2125 H 204.784 -3.04484 4.60428 0
M  V30 2126 H 207.26 -3.18113 2.68223 0
M  V30 2127 H 206.136 -4.46893 3.18713 0
M  V30 2128 H 206.397 -4.16716 1.47649 0
M  V30 2129 N 205.456 -1.28612 -0.910864 0
M  V30 2130 C 206.704 -1.15705 -1.65701 0
M  V30 2131 C 207.025 0.29416 -1.92769 0
M  V30 2132 O 206.295 1.20331 -1.54588 0
M  V30 2133 H 204.875 -0.425216 -0.614167 0
M  V30 2134 H 207.537 -1.61381 -1.0928 0
M  V30 2135 H 206.633 -1.6988 -2.61815 0
M  V30 2136 N 206.934 1.1197 -1.10907 0
M  V30 2137 C 208.182 1.83225 -0.852819 0
M  V30 2138 C 208.503 1.84769 0.623341 0
M  V30 2139 O 207.773 1.3143 1.45269 0
M  V30 2140 H 206.353 0.67849 -0.312507 0
M  V30 2141 H 209.015 1.3556 -1.40033 0
M  V30 2142 H 208.111 2.87265 -1.22005 0
M  V30 2143 N 208.412 0.89855 1.29475 0
M  V30 2144 C 209.658 0.524658 1.95896 0
M  V30 2145 C 209.991 -0.926468 1.70676 0
M  V30 2146 O 209.266 -1.65665 1.01908 0
M  V30 2147 C 209.549 0.81633 3.50725 0
M  V30 2148 C 209.402 2.31907 3.85408 0
M  V30 2149 C 210.721 0.302038 4.39062 0
M  V30 2150 H 207.84 0.19209 0.711527 0
M  V30 2151 H 210.482 1.12502 1.53112 0
M  V30 2152 H 208.632 0.305369 3.87298 0
M  V30 2153 H 210.304 2.89949 3.58786 0
M  V30 2154 H 208.547 2.78027 3.32992 0
M  V30 2155 H 209.218 2.47373 4.93468 0
M  V30 2156 H 211.694 0.739551 4.09475 0
M  V30 2157 H 210.57 0.535331 5.46283 0
M  V30 2158 H 210.831 -0.797216 4.34853 0
M  V30 2159 N 209.89 -1.43072 0.660911 0
M  V30 2160 C 211.167 -1.95307 0.107017 0
M  V30 2161 C 211.547 -1.60192 -1.37484 0
M  V30 2162 O 210.895 -0.890949 -2.10415 0
M  V30 2163 C 211.105 -3.47124 0.361402 0
M  V30 2164 C 212.453 -4.23738 0.270455 0
M  V30 2165 O 213.477 -3.54981 0.294382 0
M  V30 2166 O 212.336 -5.46131 0.200737 0
M  V30 2167 H 209.43 -0.826984 -0.00517729 0
M  V30 2168 H 211.976 -1.52972 0.734681 0
M  V30 2169 H 210.748 -3.65837 1.38848 0
M  V30 2170 H 210.371 -3.96475 -0.298953 0
M  V30 2171 N 211.368 -0.403325 -1.52352 0
M  V30 2172 C 212.298 0.416205 -2.29761 0
M  V30 2173 C 213.279 1.05123 -1.33728 0
M  V30 2174 O 214.464 1.06134 -1.62632 0
M  V30 2175 C 211.594 1.53624 -3.11475 0
M  V30 2176 C 210.548 1.02653 -4.15507 0
M  V30 2177 C 209.874 2.23971 -4.85532 0
M  V30 2178 C 211.174 0.08463 -5.22231 0
M  V30 2179 H 212.868 -0.229701 -2.98518 0
M  V30 2180 H 210.414 -0.111913 -1.43564 0
M  V30 2181 H 212.367 2.1165 -3.64393 0
M  V30 2182 H 211.091 2.20994 -2.40477 0
M  V30 2183 H 209.75 0.46871 -3.63591 0
M  V30 2184 H 209.398 2.89883 -4.11068 0
M  V30 2185 H 209.098 1.90521 -5.55856 0
M  V30 2186 H 210.622 2.82614 -5.41259 0
M  V30 2187 H 212.036 0.573509 -5.70424 0
M  V30 2188 H 210.433 -0.160783 -5.99885 0
M  V30 2189 H 211.503 -0.86237 -4.7717 0
M  V30 2190 N 212.846 1.57033 -0.133567 0
M  V30 2191 C 214.074 2.00044 0.528195 0
M  V30 2192 C 214.489 1.01349 1.59291 0
M  V30 2193 O 213.846 0.00848369 1.82498 0
M  V30 2194 C 213.897 3.43018 1.1411 0
M  V30 2195 O 213.618 4.37939 0.11892 0
M  V30 2196 C 215.119 4.01237 1.88477 0
M  V30 2197 H 212.339 0.656517 0.138661 0
M  V30 2198 H 214.883 2.03267 -0.224196 0
M  V30 2199 H 213.038 3.40688 1.84418 0
M  V30 2200 H 213.452 5.21436 0.56613 0
M  V30 2201 H 214.926 5.03314 2.26669 0
M  V30 2202 H 215.403 3.41193 2.76558 0
M  V30 2203 H 216.009 4.07156 1.22898 0
M  V30 2204 N 214.325 -0.140222 1.56975 0
M  V30 2205 C 215.573 -0.850005 1.83356 0
M  V30 2206 C 215.894 -1.81399 0.71551 0
M  V30 2207 O 215.164 -1.94136 -0.262294 0
M  V30 2208 H 213.744 -0.316886 0.676456 0
M  V30 2209 H 216.406 -0.132608 1.94448 0
M  V30 2210 H 215.502 -1.40814 2.78528 0
M  V30 2211 N 215.803 -1.52179 -0.40978 0
M  V30 2212 C 217.214 -1.58377 -0.988615 0
M  V30 2213 C 217.565 -0.423879 -1.91566 0
M  V30 2214 O 216.69 0.455844 -2.11544 0
M  V30 2215 C 217.285 -2.87044 -1.79976 0
M  V30 2216 C 215.844 -2.95722 -2.32863 0
M  V30 2217 C 214.991 -2.53309 -1.12828 0
M  V30 2218 H 217.942 -1.57558 -0.190039 0
M  V30 2219 H 217.963 -2.7236 -2.65707 0
M  V30 2220 H 217.475 -3.71444 -1.12478 0
M  V30 2221 H 215.576 -2.15814 -3.03735 0
M  V30 2222 H 215.689 -3.99951 -2.63773 0
M  V30 2223 H 214.053 -2.07142 -1.48204 0
M  V30 2224 H 214.836 -3.40082 -0.46897 0
M  V30 2225 N 217.281 0.66697 -1.42791 0
M  V30 2226 C 218.213 1.7925 -1.42836 0
M  V30 2227 C 219.226 1.59496 -0.326333 0
M  V30 2228 O 220.415 1.6847 -0.589916 0
M  V30 2229 C 217.515 3.16476 -1.21229 0
M  V30 2230 C 216.688 3.63011 -2.44013 0
M  V30 2231 C 215.747 4.78993 -2.17834 0
M  V30 2232 O 214.773 4.89137 -2.91091 0
M  V30 2233 N 215.975 5.68248 -1.18635 0
M  V30 2234 H 218.74 1.79695 -2.39854 0
M  V30 2235 H 216.301 0.850338 -1.37771 0
M  V30 2236 H 218.293 3.91734 -1.01621 0
M  V30 2237 H 216.863 3.10884 -0.32706 0
M  V30 2238 H 216.083 2.78346 -2.79137 0
M  V30 2239 H 217.371 3.90845 -3.25757 0
M  V30 2240 H 216.769 5.62712 -0.580615 0
M  V30 2241 H 215.326 6.43285 -1.05013 0
M  V30 2242 N 218.759 1.29093 0.90403 0
M  V30 2243 C 219.689 1.16401 2.02418 0
M  V30 2244 C 220.67 0.0593085 1.69997 0
M  V30 2245 O 221.855 0.238021 1.92736 0
M  V30 2246 C 218.985 0.835233 3.37107 0
M  V30 2247 C 217.939 1.89578 3.83724 0
M  V30 2248 C 217.265 1.42041 5.15489 0
M  V30 2249 C 218.565 3.30394 4.04521 0
M  V30 2250 H 220.259 2.10109 2.13295 0
M  V30 2251 H 217.805 1.01157 1.02486 0
M  V30 2252 H 219.758 0.733169 4.14973 0
M  V30 2253 H 218.482 -0.137543 3.2631 0
M  V30 2254 H 217.141 1.98715 3.08071 0
M  V30 2255 H 216.789 0.436426 5.01103 0
M  V30 2256 H 216.489 2.12964 5.4765 0
M  V30 2257 H 218.013 1.33176 5.959 0
M  V30 2258 H 219.427 3.24123 4.72882 0
M  V30 2259 H 217.824 3.99237 4.48029 0
M  V30 2260 H 218.894 3.73692 3.09002 0
M  V30 2261 N 220.237 -1.11381 1.11499 0
M  V30 2262 C 221.467 -1.86663 0.885464 0
M  V30 2263 C 221.875 -1.80464 -0.568281 0
M  V30 2264 O 221.218 -1.18445 -1.40415 0
M  V30 2265 C 221.28 -3.36337 1.26956 0
M  V30 2266 C 220.944 -3.66304 2.73259 0
M  V30 2267 C 221.941 -3.63733 3.71476 0
M  V30 2268 C 219.626 -3.9529 3.09921 0
M  V30 2269 C 221.62 -3.89725 5.04374 0
M  V30 2270 C 219.307 -4.20941 4.43004 0
M  V30 2271 C 220.305 -4.18147 5.40039 0
M  V30 2272 O 219.993 -4.43153 6.70724 0
M  V30 2273 H 219.725 -0.597114 0.316908 0
M  V30 2274 H 222.279 -1.41782 1.48617 0
M  V30 2275 H 220.509 -3.81826 0.611999 0
M  V30 2276 H 222.198 -3.92986 1.01573 0
M  V30 2277 H 222.964 -3.41389 3.44498 0
M  V30 2278 H 218.843 -3.966 2.35009 0
M  V30 2279 H 222.387 -3.8746 5.80104 0
M  V30 2280 H 218.284 -4.42761 4.69716 0
M  V30 2281 H 219.052 -4.60717 6.76522 0
M  V30 2282 N 221.715 -0.905404 -1.28997 0
M  V30 2283 C 222.963 -0.533192 -1.9494 0
M  V30 2284 C 223.284 0.924618 -1.71685 0
M  V30 2285 O 222.554 1.65268 -1.05183 0
M  V30 2286 H 221.134 -0.194194 -0.721317 0
M  V30 2287 H 223.796 -1.15294 -1.57141 0
M  V30 2288 H 222.892 -0.72059 -3.03667 0
M  V30 2289 N 223.193 1.4272 -0.668489 0
M  V30 2290 C 224.439 2.01923 -0.188419 0
M  V30 2291 C 224.772 1.52704 1.19979 0
M  V30 2292 O 224.047 0.726566 1.8042 0
M  V30 2293 C 224.33 3.59451 -0.216085 0
M  V30 2294 C 224.183 4.18864 -1.6393 0
M  V30 2295 C 225.502 4.37903 0.439179 0
M  V30 2296 H 222.621 0.733674 -0.0699412 0
M  V30 2297 H 225.263 1.69822 -0.852076 0
M  V30 2298 H 223.413 3.86929 0.349012 0
M  V30 2299 H 225.085 4.02362 -2.25616 0
M  V30 2300 H 223.328 3.74933 -2.18193 0
M  V30 2301 H 223.999 5.27987 -1.61039 0
M  V30 2302 H 226.475 4.16079 -0.0417878 0
M  V30 2303 H 225.351 5.47519 0.389157 0
M  V30 2304 H 225.612 4.15303 1.51577 0
M  V30 2305 N 224.671 0.411399 1.52136 0
M  V30 2306 C 225.621 -0.430376 2.23901 0
M  V30 2307 C 226.605 -1.0116 1.25121 0
M  V30 2308 O 227.797 -0.934044 1.50348 0
M  V30 2309 C 224.926 -1.54527 3.06556 0
M  V30 2310 C 224.012 -0.9747 4.12747 0
M  V30 2311 N 224.403 -0.130991 5.0563 0
M  V30 2312 C 222.701 -1.24497 4.28271 0
M  V30 2313 C 223.402 0.186689 5.814 0
M  V30 2314 N 222.378 -0.42304 5.41951 0
M  V30 2315 H 226.18 0.220509 2.93072 0
M  V30 2316 H 223.694 0.221952 1.60876 0
M  V30 2317 H 225.691 -2.16093 3.56524 0
M  V30 2318 H 224.351 -2.19875 2.38925 0
M  V30 2319 H 225.362 0.23349 5.17373 0
M  V30 2320 H 222.039 -1.89787 3.7187 0
M  V30 2321 H 223.429 0.871673 6.66222 0
M  V30 2322 N 226.149 -1.5696 0.141893 0
M  V30 2323 C 227.56 -1.82797 -0.379776 0
M  V30 2324 C 227.911 -1.06033 -1.6508 0
M  V30 2325 O 227.036 -0.304011 -2.14254 0
M  V30 2326 C 227.631 -3.31578 -0.695802 0
M  V30 2327 C 226.19 -3.58014 -1.16201 0
M  V30 2328 C 225.337 -2.76699 -0.182455 0
M  V30 2329 H 228.288 -1.54406 0.366675 0
M  V30 2330 H 228.309 -3.47454 -1.55099 0
M  V30 2331 H 227.821 -3.87421 0.229449 0
M  V30 2332 H 225.922 -3.07553 -2.10338 0
M  V30 2333 H 226.035 -4.66501 -1.09151 0
M  V30 2334 H 224.399 -2.45618 -0.674072 0
M  V30 2335 H 225.182 -3.35311 0.736297 0
M  V30 2336 N 227.627 0.131896 -1.57047 0
M  V30 2337 C 228.577 1.1679 -1.95816 0
M  V30 2338 C 229.561 1.37756 -0.831393 0
M  V30 2339 O 230.753 1.39065 -1.09499 0
M  V30 2340 C 227.882 2.49778 -2.35512 0
M  V30 2341 C 226.968 2.32342 -3.54793 0
M  V30 2342 N 227.359 1.8469 -4.70875 0
M  V30 2343 C 225.657 2.63043 -3.60173 0
M  V30 2344 C 226.358 1.80656 -5.52936 0
M  V30 2345 N 225.334 2.24528 -4.95064 0
M  V30 2346 H 229.136 0.791818 -2.83033 0
M  V30 2347 H 226.65 0.339791 -1.58805 0
M  V30 2348 H 228.647 3.24692 -2.61498 0
M  V30 2349 H 227.307 2.88156 -1.49654 0
M  V30 2350 H 228.318 1.54429 -4.9434 0
M  V30 2351 H 224.995 3.05193 -2.84892 0
M  V30 2352 H 226.385 1.45178 -6.56028 0
M  V30 2353 N 229.106 1.52395 0.401703 0
M  V30 2354 C 230.354 1.66488 1.14569 0
M  V30 2355 C 230.675 0.400897 1.90835 0
M  V30 2356 O 229.945 -0.584415 1.8698 0
M  V30 2357 H 228.525 0.613672 0.425929 0
M  V30 2358 H 231.187 1.89464 0.457093 0
M  V30 2359 H 230.283 2.50942 1.85566 0
M  V30 2360 N 230.584 -0.659388 1.43143 0
M  V30 2361 C 231.809 -1.45221 1.48073 0
M  V30 2362 C 232.234 -1.87845 0.097995 0
M  V30 2363 O 231.592 -1.56985 -0.90694 0
M  V30 2364 C 231.64 -2.66748 2.42647 0
M  V30 2365 O 230.744 -3.65583 1.90848 0
M  V30 2366 H 230.085 -0.435669 0.501088 0
M  V30 2367 H 232.615 -0.807432 1.87994 0
M  V30 2368 H 232.625 -3.14637 2.59745 0
M  V30 2369 H 231.3 -2.35067 3.43098 0
M  V30 2370 H 229.877 -3.24693 1.83381 0
M  V30 2371 N 232.062 -1.29571 -0.897171 0
M  V30 2372 C 233.292 -1.20408 -1.67886 0
M  V30 2373 C 233.7 0.237429 -1.87704 0
M  V30 2374 O 233.043 1.17048 -1.41582 0
M  V30 2375 C 233.105 -1.84887 -3.08314 0
M  V30 2376 C 232.769 -3.34189 -3.11716 0
M  V30 2377 C 233.766 -4.30374 -2.91675 0
M  V30 2378 C 231.451 -3.75431 -3.33701 0
M  V30 2379 C 233.445 -5.65776 -2.93557 0
M  V30 2380 C 231.132 -5.10955 -3.35214 0
M  V30 2381 C 232.13 -6.05938 -3.15164 0
M  V30 2382 O 231.818 -7.38987 -3.1647 0
M  V30 2383 H 231.55 -0.418289 -0.531046 0
M  V30 2384 H 234.104 -1.71514 -1.13014 0
M  V30 2385 H 232.334 -1.28295 -3.64798 0
M  V30 2386 H 234.023 -1.70011 -3.6858 0
M  V30 2387 H 234.789 -3.99844 -2.74499 0
M  V30 2388 H 230.668 -3.01953 -3.48347 0
M  V30 2389 H 234.212 -6.39889 -2.77826 0
M  V30 2390 H 230.109 -5.4113 -3.51922 0
M  V30 2391 H 230.877 -7.47823 -3.3272 0
M  V30 2392 N 233.54 1.10788 -1.12088 0
M  V30 2393 C 234.765 1.87002 -0.896949 0
M  V30 2394 C 235.19 1.79933 0.548261 0
M  V30 2395 O 234.548 1.16662 1.38779 0
M  V30 2396 C 234.596 3.3349 -1.37174 0
M  V30 2397 O 233.7 4.08745 -0.547831 0
M  V30 2398 H 233.041 0.580397 -0.322545 0
M  V30 2399 H 235.571 1.39996 -1.49206 0
M  V30 2400 H 235.581 3.84339 -1.36922 0
M  V30 2401 H 234.256 3.37951 -2.42408 0
M  V30 2402 H 232.833 3.6776 -0.617034 0
M  V30 2403 N 235.018 0.912232 1.28515 0
M  V30 2404 C 236.434 0.610159 1.47476 0
M  V30 2405 C 236.634 -0.844955 1.82928 0
M  V30 2406 O 235.69 -1.62416 1.93332 0
M  V30 2407 C 237.003 1.54675 2.57868 0
M  V30 2408 C 238.551 1.55331 2.71738 0
M  V30 2409 C 239.026 2.47649 3.85272 0
M  V30 2410 N 240.517 2.45767 3.92623 0
M  V30 2411 C 241.252 3.13896 4.79851 0
M  V30 2412 N 240.748 3.9135 5.71679 0
M  V30 2413 N 242.541 3.02991 4.73448 0
M  V30 2414 H 234.692 1.85318 1.03783 0
M  V30 2415 H 236.955 0.794777 0.516753 0
M  V30 2416 H 236.661 2.5841 2.38574 0
M  V30 2417 H 236.535 1.27671 3.54937 0
M  V30 2418 H 238.922 0.52335 2.90422 0
M  V30 2419 H 239.003 1.86378 1.75205 0
M  V30 2420 H 238.647 3.50745 3.67342 0
M  V30 2421 H 238.577 2.13904 4.81199 0
M  V30 2422 H 241.068 1.89503 3.26951 0
M  V30 2423 H 241.381 4.40359 6.35062 0
M  V30 2424 H 239.726 3.95455 5.71524 0
M  V30 2425 H 242.917 2.41987 4.007 0
M  V30 2426 H 243.09 3.5636 5.41213 0
M  V30 2427 N 236.496 -1.42363 0.676048 0
M  V30 2428 C 237.426 -2.33497 0.0124832 0
M  V30 2429 C 238.407 -1.50748 -0.787981 0
M  V30 2430 O 239.592 -1.79346 -0.744884 0
M  V30 2431 C 236.722 -3.34377 -0.938582 0
M  V30 2432 C 235.676 -4.27289 -0.246622 0
M  V30 2433 C 235.002 -5.18386 -1.31071 0
M  V30 2434 C 236.302 -5.14916 0.875125 0
M  V30 2435 H 237.996 -2.89233 0.773593 0
M  V30 2436 H 235.542 -1.39073 0.37346 0
M  V30 2437 H 237.495 -3.97044 -1.41188 0
M  V30 2438 H 236.219 -2.76947 -1.73113 0
M  V30 2439 H 234.878 -3.66018 0.206456 0
M  V30 2440 H 234.526 -4.57282 -2.09528 0
M  V30 2441 H 234.226 -5.81378 -0.852839 0
M  V30 2442 H 235.75 -5.83929 -1.78492 0
M  V30 2443 H 237.164 -5.71262 0.482983 0
M  V30 2444 H 235.561 -5.86747 1.25887 0
M  V30 2445 H 236.631 -4.53242 1.72335 0
M  V30 2446 N 237.974 -0.419461 -1.51915 0
M  V30 2447 C 239.385 0.0477853 -1.86639 0
M  V30 2448 C 239.736 1.43531 -1.33766 0
M  V30 2449 O 238.861 2.05401 -0.68113 0
M  V30 2450 C 239.456 0.0934885 -3.38671 0
M  V30 2451 C 238.015 0.505097 -3.72996 0
M  V30 2452 C 237.162 -0.313792 -2.75519 0
M  V30 2453 H 240.113 -0.636088 -1.45395 0
M  V30 2454 H 240.134 0.906667 -3.6954 0
M  V30 2455 H 239.646 -0.916501 -3.77123 0
M  V30 2456 H 237.747 1.52135 -3.40126 0
M  V30 2457 H 237.86 0.242309 -4.78487 0
M  V30 2458 H 236.224 0.225363 -2.53701 0
M  V30 2459 H 237.007 -1.32232 -3.16812 0
M  V30 2460 N 239.452 1.56882 -0.150215 0
M  V30 2461 C 240.699 1.96228 0.500093 0
M  V30 2462 C 241.027 1.03522 1.64661 0
M  V30 2463 O 240.282 0.0650683 1.95592 0
M  V30 2464 C 240.581 3.41801 1.04437 0
M  V30 2465 C 240.247 4.50897 0.0159671 0
M  V30 2466 C 238.909 4.8046 -0.266731 0
M  V30 2467 C 241.261 5.16703 -0.683192 0
M  V30 2468 C 238.589 5.73135 -1.25434 0
M  V30 2469 C 240.941 6.10441 -1.65964 0
M  V30 2470 C 239.605 6.38382 -1.95 0
M  V30 2471 H 238.875 0.718048 0.182997 0
M  V30 2472 H 241.522 1.90019 -0.237724 0
M  V30 2473 H 239.827 3.44857 1.85959 0
M  V30 2474 H 241.524 3.69573 1.55618 0
M  V30 2475 H 238.114 4.27891 0.246485 0
M  V30 2476 H 242.298 4.93993 -0.477983 0
M  V30 2477 H 237.554 5.93074 -1.48571 0
M  V30 2478 H 241.728 6.60507 -2.20689 0
M  V30 2479 H 239.355 7.09996 -2.71679 0
M  V30 2480 N 240.93 -0.123565 1.57115 0
M  V30 2481 C 242.158 -0.846461 1.88793 0
M  V30 2482 C 242.573 -1.73652 0.740976 0
M  V30 2483 O 241.93 -1.80207 -0.288393 0
M  V30 2484 C 241.981 -1.6837 3.19897 0
M  V30 2485 O 241.702 -0.829477 4.30176 0
M  V30 2486 C 243.203 -2.51214 3.65248 0
M  V30 2487 H 240.423 -0.243573 0.625231 0
M  V30 2488 H 242.967 -0.109324 2.04208 0
M  V30 2489 H 241.122 -2.37364 3.06165 0
M  V30 2490 H 241.536 -1.40651 5.0529 0
M  V30 2491 H 243.01 -3.05497 4.59756 0
M  V30 2492 H 243.487 -3.28359 2.9168 0
M  V30 2493 H 244.093 -1.8747 3.81752 0
M  V30 2494 N 242.408 -1.52605 -0.393616 0
M  V30 2495 C 243.371 -1.76415 -1.46323 0
M  V30 2496 C 244.371 -0.634126 -1.47768 0
M  V30 2497 O 245.561 -0.902142 -1.4902 0
M  V30 2498 C 242.693 -1.8607 -2.85641 0
M  V30 2499 H 243.886 -2.71916 -1.26498 0
M  V30 2500 H 241.439 -1.43257 -0.625073 0
M  V30 2501 H 242.174 -0.925378 -3.10817 0
M  V30 2502 H 241.959 -2.68235 -2.85993 0
M  V30 2503 H 243.449 -2.06179 -3.63153 0
M  V30 2504 N 243.887 0.651787 -1.4349 0
M  V30 2505 C 244.817 1.77621 -1.51569 0
M  V30 2506 C 245.798 1.66022 -0.370253 0
M  V30 2507 O 246.983 1.85095 -0.587658 0
M  V30 2508 C 244.113 3.16056 -1.43966 0
M  V30 2509 C 243.067 3.4242 -2.56774 0
M  V30 2510 C 242.393 4.8067 -2.34223 0
M  V30 2511 C 243.693 3.37023 -3.99015 0
M  V30 2512 H 245.387 1.71117 -2.45681 0
M  V30 2513 H 242.933 0.821825 -1.18246 0
M  V30 2514 H 244.886 3.94472 -1.48221 0
M  V30 2515 H 243.61 3.23293 -0.463586 0
M  V30 2516 H 242.269 2.66375 -2.51873 0
M  V30 2517 H 241.917 4.84585 -1.34856 0
M  V30 2518 H 241.617 4.9927 -3.09844 0
M  V30 2519 H 243.141 5.61342 -2.40265 0
M  V30 2520 H 244.555 4.05374 -4.05395 0
M  V30 2521 H 242.952 3.67159 -4.74673 0
M  V30 2522 H 244.022 2.3518 -4.2405 0
M  V30 2523 N 245.365 1.30045 0.890287 0
M  V30 2524 C 246.613 1.18327 1.63839 0
M  V30 2525 C 246.934 -0.263455 1.93212 0
M  V30 2526 O 246.204 -1.17856 1.56482 0
M  V30 2527 H 244.784 0.434933 0.607324 0
M  V30 2528 H 247.446 1.631 1.06698 0
M  V30 2529 H 246.542 1.74024 2.59079 0
M  V30 2530 N 246.843 -1.10192 1.12674 0
M  V30 2531 C 248.068 -1.86523 0.906853 0
M  V30 2532 C 248.493 -1.80221 -0.538711 0
M  V30 2533 O 247.851 -1.17396 -1.38158 0
M  V30 2534 C 247.899 -3.32758 1.3894 0
M  V30 2535 O 247.003 -4.08449 0.5695 0
M  V30 2536 H 246.344 -0.578678 0.325619 0
M  V30 2537 H 248.874 -1.39203 1.49946 0
M  V30 2538 H 248.884 -3.83608 1.38958 0
M  V30 2539 H 247.559 -3.36661 2.44197 0
M  V30 2540 H 246.136 -3.67427 0.636528 0
M  V30 2541 N 248.321 -0.919034 -1.28029 0
M  V30 2542 C 249.569 -0.553838 -1.94363 0
M  V30 2543 C 249.89 0.906357 -1.72656 0
M  V30 2544 O 249.16 1.64143 -1.0693 0
M  V30 2545 H 247.74 -0.201834 -0.719216 0
M  V30 2546 H 250.402 -1.16954 -1.55909 0
M  V30 2547 H 249.498 -0.752758 -3.02886 0
M  V30 2548 N 249.799 1.42003 -0.683588 0
M  V30 2549 C 250.731 2.29183 0.0283068 0
M  V30 2550 C 251.744 1.4415 0.756611 0
M  V30 2551 O 252.933 1.67779 0.609306 0
M  V30 2552 C 250.033 3.21765 1.06398 0
M  V30 2553 C 249.206 4.35496 0.407723 0
M  V30 2554 C 248.265 5.08737 1.34437 0
M  V30 2555 O 247.291 5.62948 0.841318 0
M  V30 2556 N 248.493 5.15075 2.67728 0
M  V30 2557 H 251.258 2.9092 -0.720105 0
M  V30 2558 H 248.819 1.53025 -0.528682 0
M  V30 2559 H 250.811 3.6763 1.69204 0
M  V30 2560 H 249.381 2.61418 1.71404 0
M  V30 2561 H 248.601 3.92165 -0.400012 0
M  V30 2562 H 249.889 5.08776 -0.0490956 0
M  V30 2563 H 249.287 4.72457 3.11129 0
M  V30 2564 H 247.844 5.64556 3.2576 0
M  V30 2565 N 251.277 0.427512 1.51691 0
M  V30 2566 C 252.554 -0.201684 1.94557 0
M  V30 2567 C 252.934 -1.60981 1.36559 0
M  V30 2568 O 252.282 -2.21814 0.548702 0
M  V30 2569 C 252.492 -0.189394 3.48486 0
M  V30 2570 C 253.84 -0.39978 4.22714 0
M  V30 2571 O 254.864 -0.267945 3.55191 0
M  V30 2572 O 253.723 -0.661249 5.42485 0
M  V30 2573 H 250.817 -0.135261 0.815864 0
M  V30 2574 H 253.363 0.484782 1.62628 0
M  V30 2575 H 252.135 0.795431 3.8313 0
M  V30 2576 H 251.758 -0.919187 3.86829 0
M  V30 2577 N 252.755 -1.56801 0.158532 0
M  V30 2578 C 253.718 -2.16138 -0.762705 0
M  V30 2579 C 254.718 -1.1061 -1.16713 0
M  V30 2580 O 255.908 -1.36191 -1.08617 0
M  V30 2581 C 253.04 -2.73386 -2.03649 0
M  V30 2582 H 254.233 -2.98886 -0.246354 0
M  V30 2583 H 251.786 -1.56035 -0.0909744 0
M  V30 2584 H 252.521 -1.94335 -2.59623 0
M  V30 2585 H 252.306 -3.50601 -1.75559 0
M  V30 2586 H 253.796 -3.19065 -2.6942 0
M  V30 2587 N 254.233 0.115231 -1.57178 0
M  V30 2588 C 255.196 1.12526 -1.99676 0
M  V30 2589 C 256.196 1.34095 -0.88742 0
M  V30 2590 O 257.386 1.30548 -1.15337 0
M  V30 2591 C 254.518 2.4789 -2.34015 0
M  V30 2592 H 255.711 0.759912 -2.90113 0
M  V30 2593 H 253.264 0.359648 -1.52106 0
M  V30 2594 H 253.999 2.89339 -1.4647 0
M  V30 2595 H 253.784 2.33588 -3.14927 0
M  V30 2596 H 255.274 3.20575 -2.67622 0
M  V30 2597 N 255.711 1.52812 0.385517 0
M  V30 2598 C 256.641 1.80808 1.47752 0
M  V30 2599 C 257.622 0.660318 1.5676 0
M  V30 2600 O 258.807 0.908246 1.71652 0
M  V30 2601 C 255.937 1.98008 2.85324 0
M  V30 2602 C 254.891 3.13709 2.91154 0
M  V30 2603 C 254.217 3.16169 4.31209 0
M  V30 2604 C 255.517 4.52709 2.60483 0
M  V30 2605 H 257.211 2.72253 1.24573 0
M  V30 2606 H 254.757 1.31003 0.597839 0
M  V30 2607 H 256.71 2.16176 3.61726 0
M  V30 2608 H 255.434 1.03255 3.09848 0
M  V30 2609 H 254.093 2.95329 2.17201 0
M  V30 2610 H 253.741 2.19092 4.52778 0
M  V30 2611 H 253.441 3.93894 4.36029 0
M  V30 2612 H 254.965 3.36496 5.09512 0
M  V30 2613 H 256.379 4.71173 3.26602 0
M  V30 2614 H 254.776 5.32528 2.76648 0
M  V30 2615 H 255.846 4.59186 1.55809 0
M  V30 2616 N 257.189 -0.644168 1.43834 0
M  V30 2617 C 258.152 -1.73857 1.49353 0
M  V30 2618 C 259.152 -1.56315 0.377112 0
M  V30 2619 O 260.342 -1.62048 0.639226 0
M  V30 2620 C 257.474 -3.12819 1.35488 0
M  V30 2621 H 258.667 -1.70342 2.46827 0
M  V30 2622 H 256.22 -0.856652 1.30733 0
M  V30 2623 H 256.955 -3.2194 0.390569 0
M  V30 2624 H 256.74 -3.26958 2.16428 0
M  V30 2625 H 258.23 -3.92606 1.42302 0
M  V30 2626 N 258.668 -1.30515 -0.883378 0
M  V30 2627 C 259.914 -1.19607 -1.63774 0
M  V30 2628 C 260.247 0.248314 -1.92606 0
M  V30 2629 O 259.522 1.17742 -1.54813 0
M  V30 2630 C 259.805 -2.02669 -2.97653 0
M  V30 2631 C 259.658 -3.55335 -2.75784 0
M  V30 2632 C 260.977 -1.86573 -3.98596 0
M  V30 2633 H 258.096 -0.435856 -0.594305 0
M  V30 2634 H 260.738 -1.60165 -1.02212 0
M  V30 2635 H 258.888 -1.68208 -3.50197 0
M  V30 2636 H 260.56 -3.99863 -2.30016 0
M  V30 2637 H 258.803 -3.79438 -2.1026 0
M  V30 2638 H 259.474 -4.08745 -3.70988 0
M  V30 2639 H 261.95 -2.16703 -3.55217 0
M  V30 2640 H 260.826 -2.47014 -4.90179 0
M  V30 2641 H 261.087 -0.825321 -4.34328 0
M  V30 2642 N 260.146 1.09593 -1.13257 0
M  V30 2643 C 261.076 2.18214 -0.830946 0
M  V30 2644 C 262.057 1.68812 0.208966 0
M  V30 2645 O 263.242 1.9408 0.0682666 0
M  V30 2646 C 260.372 3.46051 -0.294296 0
M  V30 2647 C 259.326 4.08778 -1.26826 0
M  V30 2648 C 258.652 5.31419 -0.591449 0
M  V30 2649 C 259.952 4.51476 -2.62615 0
M  V30 2650 H 261.646 2.43703 -1.73923 0
M  V30 2651 H 259.192 1.17128 -0.837675 0
M  V30 2652 H 261.145 4.2134 -0.0709606 0
M  V30 2653 H 259.869 3.20079 0.649366 0
M  V30 2654 H 258.528 3.35505 -1.47756 0
M  V30 2655 H 258.176 5.01727 0.357633 0
M  V30 2656 H 257.876 5.74341 -1.24123 0
M  V30 2657 H 259.4 6.09433 -0.377355 0
M  V30 2658 H 260.814 5.17999 -2.45663 0
M  V30 2659 H 259.211 5.05277 -3.23752 0
M  V30 2660 H 260.281 3.63962 -3.20406 0
M  V30 2661 N 261.624 0.925811 1.2754 0
M  V30 2662 C 262.534 0.428993 2.30644 0
M  V30 2663 C 263.55 -0.489387 1.66976 0
M  V30 2664 O 264.726 -0.372653 1.97922 0
M  V30 2665 C 261.791 -0.311967 3.45294 0
M  V30 2666 C 260.852 0.641098 4.24486 0
M  V30 2667 C 260.085 -0.0645955 5.33661 0
M  V30 2668 O 260.308 -1.28429 5.55754 0
M  V30 2669 O 259.242 0.606265 5.98839 0
M  V30 2670 H 263.068 1.28504 2.75173 0
M  V30 2671 H 260.653 0.691086 1.32455 0
M  V30 2672 H 262.535 -0.729972 4.15029 0
M  V30 2673 H 261.21 -1.14365 3.02824 0
M  V30 2674 H 260.117 1.10874 3.57292 0
M  V30 2675 H 261.45 1.43995 4.70666 0
M  V30 2676 N 263.102 -1.41638 0.69111 0
M  V30 2677 C 264.379 -1.95036 0.148421 0
M  V30 2678 C 264.759 -1.63072 -1.34055 0
M  V30 2679 O 264.107 -0.93538 -2.08478 0
M  V30 2680 C 264.317 -3.46279 0.434951 0
M  V30 2681 C 265.665 -4.23069 0.360275 0
M  V30 2682 O 266.689 -3.54277 0.369613 0
M  V30 2683 O 265.548 -5.45583 0.316534 0
M  V30 2684 H 262.642 -0.826908 0.0123654 0
M  V30 2685 H 265.188 -1.5138 0.766963 0
M  V30 2686 H 263.96 -3.6281 1.46576 0
M  V30 2687 H 263.583 -3.97019 -0.214787 0
M  V30 2688 N 264.58 -0.43555 -1.51462 0
M  V30 2689 C 265.996 -0.0877501 -1.59359 0
M  V30 2690 C 266.196 1.4027 -1.4466 0
M  V30 2691 O 265.252 2.17243 -1.28693 0
M  V30 2692 C 266.565 -0.606264 -2.94525 0
M  V30 2693 C 268.113 -0.566548 -3.0783 0
M  V30 2694 C 268.588 -1.06201 -4.45517 0
M  V30 2695 N 270.079 -1.01992 -4.51832 0
M  V30 2696 C 270.814 -1.37417 -5.5669 0
M  V30 2697 N 270.31 -1.80119 -6.68976 0
M  V30 2698 N 272.103 -1.29245 -5.47039 0
M  V30 2699 H 264.254 -1.40533 -1.59261 0
M  V30 2700 H 266.517 -0.578992 -0.750648 0
M  V30 2701 H 266.223 -1.64901 -3.10645 0
M  V30 2702 H 266.097 -0.0302097 -3.77188 0
M  V30 2703 H 268.484 0.467208 -2.91378 0
M  V30 2704 H 268.565 -1.17898 -2.2701 0
M  V30 2705 H 268.209 -2.09422 -4.62715 0
M  V30 2706 H 268.139 -0.426127 -5.24873 0
M  V30 2707 H 270.63 -0.706308 -3.71241 0
M  V30 2708 H 270.943 -2.05392 -7.45006 0
M  V30 2709 H 269.288 -1.84044 -6.70189 0
M  V30 2710 H 272.479 -0.957522 -4.58202 0
M  V30 2711 H 272.652 -1.57182 -6.28648 0
M  V30 2712 N 266.058 1.56714 -0.166846 0
M  V30 2713 C 267.305 1.96747 0.479252 0
M  V30 2714 C 267.633 1.05263 1.63554 0
M  V30 2715 O 266.888 0.0858098 1.95512 0
M  V30 2716 C 267.187 3.42889 1.00806 0
M  V30 2717 C 266.853 4.50889 -0.0318574 0
M  V30 2718 C 265.515 4.8015 -0.317675 0
M  V30 2719 C 267.867 5.15949 -0.737956 0
M  V30 2720 C 265.195 5.71772 -1.31506 0
M  V30 2721 C 267.547 6.08647 -1.72429 0
M  V30 2722 C 266.211 6.36277 -2.0176 0
M  V30 2723 H 265.481 0.719949 0.175371 0
M  V30 2724 H 268.128 1.89756 -0.257864 0
M  V30 2725 H 266.433 3.4681 1.82291 0
M  V30 2726 H 268.13 3.71203 1.51689 0
M  V30 2727 H 264.72 4.28128 0.201088 0
M  V30 2728 H 268.904 4.93458 -0.530351 0
M  V30 2729 H 264.16 5.91465 -1.54853 0
M  V30 2730 H 268.334 6.58129 -2.27682 0
M  V30 2731 H 265.961 7.07075 -2.79194 0
M  V30 2732 N 267.536 -0.106894 1.57237 0
M  V30 2733 C 268.468 -1.15646 1.97885 0
M  V30 2734 C 269.481 -1.36981 0.879779 0
M  V30 2735 O 270.67 -1.35841 1.15799 0
M  V30 2736 C 267.77 -2.51425 2.27241 0
M  V30 2737 C 266.943 -2.50529 3.58545 0
M  V30 2738 C 266.002 -3.68145 3.75973 0
M  V30 2739 O 265.028 -3.51176 4.47956 0
M  V30 2740 N 266.23 -4.87177 3.15656 0
M  V30 2741 H 268.995 -0.81059 2.8853 0
M  V30 2742 H 266.556 -0.296024 1.59171 0
M  V30 2743 H 268.548 -3.28689 2.36105 0
M  V30 2744 H 267.118 -2.78147 1.42663 0
M  V30 2745 H 266.338 -1.58894 3.60758 0
M  V30 2746 H 267.626 -2.46997 4.44826 0
M  V30 2747 H 267.024 -5.03868 2.57165 0
M  V30 2748 H 265.581 -5.62075 3.30023 0
M  V30 2749 N 269.014 -1.53014 -0.377408 0
M  V30 2750 C 270.425 -1.60438 -0.954798 0
M  V30 2751 C 270.776 -0.464418 -1.90624 0
M  V30 2752 O 269.901 0.41087 -2.12464 0
M  V30 2753 C 270.496 -2.90797 -1.73847 0
M  V30 2754 C 269.055 -3.00595 -2.26538 0
M  V30 2755 C 268.202 -2.55645 -1.07429 0
M  V30 2756 H 271.153 -1.57926 -0.156575 0
M  V30 2757 H 271.174 -2.77935 -2.5987 0
M  V30 2758 H 270.686 -3.73746 -1.04574 0
M  V30 2759 H 268.787 -2.22208 -2.99089 0
M  V30 2760 H 268.9 -4.05456 -2.5523 0
M  V30 2761 H 267.264 -2.10239 -1.43777 0
M  V30 2762 H 268.047 -3.41 -0.396728 0
M  V30 2763 N 270.492 0.636531 -1.44174 0
M  V30 2764 C 271.44 1.76995 -1.50915 0
M  V30 2765 C 272.434 1.65053 -0.381295 0
M  V30 2766 O 273.64 1.71197 -0.55601 0
M  V30 2767 H 270.015 0.584247 -0.473455 0
M  V30 2768 H 271.986 1.68432 -2.4632 0
M  V30 2769 C 270.735 3.15314 -1.46534 0
M  V30 2770 H 270.058 3.25149 -2.32633 0
M  V30 2771 H 271.498 3.9453 -1.55312 0
M  V30 2772 C 269.957 3.3639 -0.185305 0
M  V30 2773 O 270.487 3.94699 0.746688 0
M  V30 2774 N 268.693 2.9046 -0.0901606 0
M  V30 2775 H 268.24 2.43193 -0.849416 0
M  V30 2776 H 268.198 3.04937 0.765553 0
M  V30 2777 N 271.97 1.30982 0.876444 0
M  V30 2778 C 272.903 1.12414 1.98591 0
M  V30 2779 C 273.881 0.0294078 1.62573 0
M  V30 2780 O 275.065 0.184598 1.87594 0
M  V30 2781 C 272.192 0.716276 3.3104 0
M  V30 2782 C 271.238 1.81311 3.86042 0
M  V30 2783 S 272.071 3.41727 4.1229 0
M  V30 2784 C 273.227 3.02863 5.47745 0
M  V30 2785 H 273.46 2.06338 2.14037 0
M  V30 2786 H 270.993 1.15393 1.02586 0
M  V30 2787 H 272.951 0.487697 4.07593 0
M  V30 2788 H 271.612 -0.203749 3.13438 0
M  V30 2789 H 270.805 1.48021 4.81774 0
M  V30 2790 H 270.407 1.99641 3.16259 0
M  V30 2791 H 272.699 2.51353 6.29148 0
M  V30 2792 H 273.642 3.97533 5.8598 0
M  V30 2793 H 274.05 2.40487 5.10711 0
M  V30 2794 N 273.449 -1.08991 1.13837 0
M  V30 2795 C 274.677 -1.85011 0.926202 0
M  V30 2796 C 275.092 -1.8135 -0.525127 0
M  V30 2797 O 274.449 -1.21287 -1.36366 0
M  V30 2798 C 274.5 -3.32802 1.41155 0
M  V30 2799 O 274.221 -3.36444 2.80601 0
M  V30 2800 C 275.722 -4.25649 1.23847 0
M  V30 2801 H 272.942 -0.584249 0.32999 0
M  V30 2802 H 275.486 -1.37688 1.51202 0
M  V30 2803 H 273.641 -3.77536 0.868631 0
M  V30 2804 H 274.055 -4.28657 3.02248 0
M  V30 2805 H 275.529 -5.27485 1.62675 0
M  V30 2806 H 276.006 -4.38828 0.18065 0
M  V30 2807 H 276.612 -3.86735 1.76964 0
M  V30 2808 N 274.927 -0.932562 -1.27047 0
M  V30 2809 C 275.857 -0.452902 -2.29066 0
M  V30 2810 C 276.838 0.489338 -1.62909 0
M  V30 2811 O 278.023 0.393046 -1.90181 0
M  V30 2812 C 275.153 0.290698 -3.46081 0
M  V30 2813 C 274.107 -0.564168 -4.24265 0
M  V30 2814 C 273.433 0.308886 -5.33807 0
M  V30 2815 C 274.733 -1.83112 -4.89149 0
M  V30 2816 H 276.427 -1.30552 -2.69437 0
M  V30 2817 H 273.973 -0.629201 -1.29526 0
M  V30 2818 H 275.926 0.637233 -4.16554 0
M  V30 2819 H 274.65 1.17738 -3.0464 0
M  V30 2820 H 273.309 -0.893477 -3.55545 0
M  V30 2821 H 272.957 1.19467 -4.88607 0
M  V30 2822 H 272.657 -0.259633 -5.87026 0
M  V30 2823 H 274.181 0.650884 -6.07121 0
M  V30 2824 H 275.595 -1.55236 -5.51883 0
M  V30 2825 H 273.992 -2.34353 -5.52448 0
M  V30 2826 H 275.062 -2.54772 -4.12576 0
M  V30 2827 N 276.405 1.4127 -0.698611 0
M  V30 2828 C 277.315 2.34573 -0.0357891 0
M  V30 2829 C 278.331 1.56393 0.762701 0
M  V30 2830 O 279.507 1.8886 0.699564 0
M  V30 2831 C 276.572 3.35159 0.887089 0
M  V30 2832 C 275.633 4.29225 0.0804634 0
M  V30 2833 C 274.866 5.25006 0.959387 0
M  V30 2834 O 275.089 5.26314 2.19886 0
M  V30 2835 O 274.023 6.00519 0.407439 0
M  V30 2836 H 277.849 2.92838 -0.804957 0
M  V30 2837 H 275.434 1.42175 -0.458966 0
M  V30 2838 H 277.316 3.9689 1.41621 0
M  V30 2839 H 275.991 2.79333 1.6357 0
M  V30 2840 H 274.898 3.70833 -0.493328 0
M  V30 2841 H 276.231 4.88157 -0.629547 0
M  V30 2842 N 277.883 0.443576 1.51229 0
M  V30 2843 C 278.846 -0.353132 2.26463 0
M  V30 2844 C 279.846 -0.944338 1.3015 0
M  V30 2845 O 281.036 -0.817813 1.5381 0
M  V30 2846 C 278.168 -1.50023 3.06114 0
M  V30 2847 H 279.361 0.3063 2.98332 0
M  V30 2848 H 276.914 0.196902 1.55055 0
M  V30 2849 H 277.649 -2.19553 2.38677 0
M  V30 2850 H 277.434 -1.08241 3.76864 0
M  V30 2851 H 278.924 -2.06296 3.63087 0
M  V30 2852 N 279.361 -1.56624 0.175154 0
M  V30 2853 C 280.324 -2.16934 -0.739738 0
M  V30 2854 C 281.324 -1.11842 -1.15533 0
M  V30 2855 O 282.514 -1.37335 -1.07167 0
M  V30 2856 C 279.646 -2.75531 -2.00738 0
M  V30 2857 H 280.839 -2.99131 -0.214639 0
M  V30 2858 H 278.392 -1.56123 -0.0744197 0
M  V30 2859 H 279.127 -1.97078 -2.57548 0
M  V30 2860 H 278.912 -3.52444 -1.71831 0
M  V30 2861 H 280.402 -3.21904 -2.66021 0
M  V30 2862 N 280.839 0.0985539 -1.57292 0
M  V30 2863 C 281.771 1.14595 -1.98496 0
M  V30 2864 C 282.784 1.36512 -0.887031 0
M  V30 2865 O 283.973 1.35225 -1.16518 0
M  V30 2866 C 281.073 2.50216 -2.28572 0
M  V30 2867 C 280.246 2.48624 -3.59868 0
M  V30 2868 C 279.305 3.66146 -3.7792 0
M  V30 2869 O 278.331 3.48795 -4.49812 0
M  V30 2870 N 279.533 4.85496 -3.18235 0
M  V30 2871 H 282.298 0.795277 -2.88956 0
M  V30 2872 H 279.859 0.287579 -1.59325 0
M  V30 2873 H 281.851 3.27432 -2.37845 0
M  V30 2874 H 280.421 2.77387 -1.44136 0
M  V30 2875 H 279.641 1.56978 -3.61596 0
M  V30 2876 H 280.929 2.44635 -4.46129 0
M  V30 2877 H 280.327 5.02497 -2.59833 0
M  V30 2878 H 278.884 5.60317 -3.32999 0
M  V30 2879 N 282.317 1.53212 0.369288 0
M  V30 2880 C 283.565 1.68881 1.11012 0
M  V30 2881 C 283.886 0.441285 1.89941 0
M  V30 2882 O 283.156 -0.544623 1.88177 0
M  V30 2883 H 281.736 0.622569 0.412816 0
M  V30 2884 H 284.398 1.90391 0.416802 0
M  V30 2885 H 283.494 2.54822 1.80201 0
M  V30 2886 N 283.795 -0.628877 1.44509 0
M  V30 2887 C 284.725 -1.75187 1.54376 0
M  V30 2888 C 285.706 -1.65411 0.396618 0
M  V30 2889 O 286.891 -1.84137 0.617031 0
M  V30 2890 C 284.021 -3.13725 1.48976 0
M  V30 2891 C 282.975 -3.38291 2.62189 0
M  V30 2892 C 282.301 -4.76883 2.41841 0
M  V30 2893 C 283.601 -3.30632 4.04326 0
M  V30 2894 H 285.295 -1.67187 2.48373 0
M  V30 2895 H 282.841 -0.802909 1.19538 0
M  V30 2896 H 284.794 -3.92064 1.54478 0
M  V30 2897 H 283.518 -3.22515 0.514961 0
M  V30 2898 H 282.177 -2.62334 2.56079 0
M  V30 2899 H 281.825 -4.82378 1.42548 0
M  V30 2900 H 281.525 -4.94278 3.17747 0
M  V30 2901 H 283.049 -5.57449 2.49165 0
M  V30 2902 H 284.463 -3.98873 4.11793 0
M  V30 2903 H 282.86 -3.59561 4.80454 0
M  V30 2904 H 283.93 -2.28404 4.27738 0
M  V30 2905 N 285.273 -1.31445 -0.869486 0
M  V30 2906 C 286.203 -1.21727 -1.99261 0
M  V30 2907 C 287.184 -0.104359 -1.6978 0
M  V30 2908 O 288.369 -0.289038 -1.92037 0
M  V30 2909 C 285.499 -0.924317 -3.34774 0
M  V30 2910 C 284.453 -1.99685 -3.78563 0
M  V30 2911 C 283.779 -1.55658 -5.11541 0
M  V30 2912 C 285.079 -3.41003 -3.95619 0
M  V30 2913 H 286.773 -2.1569 -2.07649 0
M  V30 2914 H 284.319 -1.03839 -0.997675 0
M  V30 2915 H 286.272 -0.842934 -4.12883 0
M  V30 2916 H 284.996 0.0509793 -3.2656 0
M  V30 2917 H 283.655 -2.06813 -3.02694 0
M  V30 2918 H 283.303 -0.569132 -4.9977 0
M  V30 2919 H 283.003 -2.27409 -5.41811 0
M  V30 2920 H 284.527 -1.48928 -5.92159 0
M  V30 2921 H 285.941 -3.36547 -4.64122 0
M  V30 2922 H 284.338 -4.10975 -4.37286 0
M  V30 2923 H 285.408 -3.81754 -2.98985 0
M  V30 2924 N 286.751 1.08385 -1.14413 0
M  V30 2925 C 287.997 1.81044 -0.913834 0
M  V30 2926 C 288.33 1.86004 0.558209 0
M  V30 2927 O 287.605 1.33606 1.4135 0
M  V30 2928 C 287.888 3.26648 -1.51569 0
M  V30 2929 C 287.741 3.29895 -3.0576 0
M  V30 2930 C 289.06 4.23629 -1.19273 0
M  V30 2931 H 286.179 0.65727 -0.333414 0
M  V30 2932 H 288.821 1.26896 -1.41412 0
M  V30 2933 H 286.971 3.72889 -1.09023 0
M  V30 2934 H 288.643 2.91977 -3.57137 0
M  V30 2935 H 286.886 2.69163 -3.40197 0
M  V30 2936 H 287.557 4.32516 -3.42977 0
M  V30 2937 H 290.033 3.85727 -1.56057 0
M  V30 2938 H 288.909 5.23822 -1.64017 0
M  V30 2939 H 289.17 4.41968 -0.108068 0
M  V30 2940 N 288.23 0.939286 1.26551 0
M  V30 2941 C 289.14 0.453432 2.30176 0
M  V30 2942 C 290.156 -0.471649 1.67486 0
M  V30 2943 O 291.332 -0.35164 1.98306 0
M  V30 2944 C 288.397 -0.275326 3.45605 0
M  V30 2945 C 287.458 0.686084 4.23782 0
M  V30 2946 C 286.691 -0.00798994 5.33699 0
M  V30 2947 O 286.914 -1.22528 5.57085 0
M  V30 2948 O 285.848 0.669746 5.98162 0
M  V30 2949 H 289.674 1.31416 2.73795 0
M  V30 2950 H 287.259 0.705095 1.31715 0
M  V30 2951 H 289.141 -0.685911 4.1578 0
M  V30 2952 H 287.816 -1.11147 3.0402 0
M  V30 2953 H 286.723 1.14658 3.56096 0
M  V30 2954 H 288.056 1.48979 4.69112 0
M  V30 2955 N 289.708 -1.40897 0.706093 0
M  V30 2956 C 290.671 -2.29131 0.0562841 0
M  V30 2957 C 291.671 -1.44901 -0.697166 0
M  V30 2958 O 292.861 -1.65926 -0.530484 0
M  V30 2959 C 289.993 -3.27957 -0.93043 0
M  V30 2960 H 291.186 -2.88091 0.833284 0
M  V30 2961 H 288.739 -1.4906 0.470192 0
M  V30 2962 H 289.474 -2.73997 -1.73482 0
M  V30 2963 H 289.259 -3.90124 -0.393166 0
M  V30 2964 H 290.749 -3.94049 -1.38256 0
M  V30 2965 N 291.186 -0.45159 -1.50991 0
M  V30 2966 C 292.432 0.110237 -2.025 0
M  V30 2967 C 292.765 1.41109 -1.33424 0
M  V30 2968 O 292.04 1.89135 -0.453659 0
M  V30 2969 C 292.323 0.314271 -3.58726 0
M  V30 2970 C 292.176 -1.00623 -4.38401 0
M  V30 2971 C 293.495 1.07767 -4.26702 0
M  V30 2972 H 290.614 0.0385897 -0.735989 0
M  V30 2973 H 293.256 -0.593374 -1.80497 0
M  V30 2974 H 291.406 0.913601 -3.77605 0
M  V30 2975 H 293.078 -1.64064 -4.31139 0
M  V30 2976 H 291.321 -1.6075 -4.02917 0
M  V30 2977 H 291.992 -0.817341 -5.45915 0
M  V30 2978 H 294.468 0.56986 -4.12179 0
M  V30 2979 H 293.344 1.18921 -5.35863 0
M  V30 2980 H 293.605 2.10939 -3.88532 0
M  V30 2981 N 292.664 1.56529 -0.183458 0
M  V30 2982 C 293.892 2.01623 0.464285 0
M  V30 2983 C 294.307 1.06366 1.55986 0
M  V30 2984 O 293.664 0.0665398 1.82379 0
M  V30 2985 C 293.715 3.46475 1.03139 0
M  V30 2986 O 293.436 4.38095 -0.0204675 0
M  V30 2987 C 294.937 4.0703 1.75617 0
M  V30 2988 H 292.157 0.660596 0.117704 0
M  V30 2989 H 294.701 2.02451 -0.288751 0
M  V30 2990 H 292.856 3.46383 1.73486 0
M  V30 2991 H 293.27 5.22973 0.399952 0
M  V30 2992 H 294.744 5.10271 2.10542 0
M  V30 2993 H 295.221 3.49819 2.65563 0
M  V30 2994 H 295.827 4.1086 1.09882 0
M  V30 2995 N 294.142 -0.090211 1.57342 0
M  V30 2996 C 295.105 -1.09335 2.01441 0
M  V30 2997 C 296.105 -1.32666 0.908641 0
M  V30 2998 O 297.295 -1.28697 1.174 0
M  V30 2999 C 294.427 -2.44136 2.3793 0
M  V30 3000 H 295.62 -0.713662 2.91285 0
M  V30 3001 H 293.173 -0.335404 1.52659 0
M  V30 3002 H 293.908 -2.86972 1.51055 0
M  V30 3003 H 293.693 -2.28548 3.18603 0
M  V30 3004 H 295.183 -3.16277 2.72688 0
M  V30 3005 N 295.62 -1.53406 -0.361157 0
M  V30 3006 C 296.868 -1.69467 -1.10115 0
M  V30 3007 C 297.189 -0.451352 -1.89705 0
M  V30 3008 O 296.459 0.534636 -1.88463 0
M  V30 3009 H 295.039 -0.624749 -0.409508 0
M  V30 3010 H 297.701 -1.90609 -0.406699 0
M  V30 3011 H 296.797 -2.55774 -1.78847 0
M  V30 3012 N 297.098 0.621204 -1.44841 0
M  V30 3013 C 298.347 1.37658 -1.47422 0
M  V30 3014 C 298.66 1.95264 -0.114629 0
M  V30 3015 O 299.866 2.71494 -0.0180199 0
M  V30 3016 C 298.322 2.49285 -2.59586 0
M  V30 3017 C 297.93 1.98149 -4.01797 0
M  V30 3018 C 299.674 3.26409 -2.71399 0
M  V30 3019 C 297.581 3.07178 -5.05367 0
M  V30 3020 H 296.511 0.517344 -0.548517 0
M  V30 3021 H 299.162 0.667257 -1.70938 0
M  V30 3022 H 297.544 3.22839 -2.29328 0
M  V30 3023 H 298.718 1.31395 -4.41669 0
M  V30 3024 H 297.033 1.33812 -3.94314 0
M  V30 3025 H 299.63 4.07706 -3.45948 0
M  V30 3026 H 299.973 3.76535 -1.77559 0
M  V30 3027 H 300.506 2.5995 -3.01116 0
M  V30 3028 H 297.245 2.61985 -6.00869 0
M  V30 3029 H 296.765 3.72542 -4.70077 0
M  V30 3030 H 298.444 3.71789 -5.29511 0
M  V30 3031 N 298.576 1.31904 0.862503 0
M  V30 3032 C 299.506 1.22782 1.98612 0
M  V30 3033 C 300.487 0.113362 1.69722 0
M  V30 3034 O 301.672 0.299218 1.91881 0
M  V30 3035 C 298.802 0.942058 3.34279 0
M  V30 3036 C 297.756 2.0169 3.77499 0
M  V30 3037 C 297.082 1.58369 5.10709 0
M  V30 3038 C 298.382 3.43096 3.93805 0
M  V30 3039 H 300.076 2.16788 2.06502 0
M  V30 3040 H 297.622 1.04366 0.992154 0
M  V30 3041 H 299.575 0.864818 4.1243 0
M  V30 3042 H 298.299 -0.0336603 3.26583 0
M  V30 3043 H 296.958 2.08416 3.01593 0
M  V30 3044 H 296.606 0.595628 4.99461 0
M  V30 3045 H 296.306 2.30279 5.40597 0
M  V30 3046 H 297.83 1.52067 5.91361 0
M  V30 3047 H 299.244 3.39003 4.62331 0
M  V30 3048 H 297.641 4.13288 4.35101 0
M  V30 3049 H 298.711 3.83334 2.96957 0
M  V30 3050 N 300.054 -1.07777 1.14986 0
M  V30 3051 C 301.302 -1.79934 0.920235 0
M  V30 3052 C 301.623 -1.86955 -0.554336 0
M  V30 3053 O 300.893 -1.36731 -1.40291 0
M  V30 3054 H 299.473 -0.666424 0.337473 0
M  V30 3055 H 302.135 -1.3027 1.44968 0
M  V30 3056 H 301.231 -2.82539 1.32583 0
M  V30 3057 N 301.532 -0.945985 -1.26051 0
M  V30 3058 C 302.809 -0.513816 -1.88731 0
M  V30 3059 C 303.189 1.00872 -1.8544 0
M  V30 3060 O 302.537 1.8708 -1.312 0
M  V30 3061 C 302.747 -1.08062 -3.31849 0
M  V30 3062 C 304.095 -1.1522 -4.08668 0
M  V30 3063 O 305.119 -1.03155 -3.40936 0
M  V30 3064 O 303.978 -1.34044 -5.29806 0
M  V30 3065 H 301.072 -0.168193 -0.809716 0
M  V30 3066 H 303.618 -1.03886 -1.34186 0
M  V30 3067 H 302.39 -2.1241 -3.2863 0
M  V30 3068 H 302.013 -0.538307 -3.93939 0
M  V30 3069 N 303.011 1.40521 -0.713556 0
M  V30 3070 C 303.941 2.33381 -0.0743864 0
M  V30 3071 C 304.922 1.52784 0.747735 0
M  V30 3072 O 306.107 1.81258 0.697071 0
M  V30 3073 C 303.237 3.36748 0.849598 0
M  V30 3074 C 302.191 4.27793 0.133247 0
M  V30 3075 C 301.517 5.21679 1.17281 0
M  V30 3076 C 302.817 5.12415 -1.01134 0
M  V30 3077 H 304.511 2.87081 -0.850007 0
M  V30 3078 H 302.057 1.38034 -0.410201 0
M  V30 3079 H 304.01 4.00648 1.30612 0
M  V30 3080 H 302.734 2.81439 1.65709 0
M  V30 3081 H 301.393 3.65342 -0.303426 0
M  V30 3082 H 301.041 4.62677 1.9733 0
M  V30 3083 H 300.741 5.83435 0.698397 0
M  V30 3084 H 302.265 5.88456 1.62947 0
M  V30 3085 H 303.679 5.69781 -0.634274 0
M  V30 3086 H 302.076 5.83203 -1.41399 0
M  V30 3087 H 303.146 4.48514 -1.84292 0
M  V30 3088 N 304.489 0.459591 1.5075 0
M  V30 3089 C 305.737 -0.0991532 2.01857 0
M  V30 3090 C 306.058 -1.41247 1.34441 0
M  V30 3091 O 305.328 -1.89775 0.486022 0
M  V30 3092 H 303.908 -0.039633 0.745948 0
M  V30 3093 H 306.57 0.607387 1.85194 0
M  V30 3094 H 305.666 -0.258998 3.11023 0
M  V30 3095 N 305.967 -1.56429 0.191757 0
M  V30 3096 C 307.192 -2.02309 -0.456706 0
M  V30 3097 C 307.617 -1.07103 -1.5463 0
M  V30 3098 O 306.975 -0.0539677 -1.8122 0
M  V30 3099 C 307.023 -3.46654 -0.993159 0
M  V30 3100 O 306.127 -3.54559 -2.10622 0
M  V30 3101 H 305.468 -0.655303 -0.107114 0
M  V30 3102 H 307.998 -2.02364 0.301653 0
M  V30 3103 H 308.008 -3.86377 -1.31061 0
M  V30 3104 H 306.683 -4.1544 -0.195504 0
M  V30 3105 H 305.26 -3.26708 -1.79767 0
M  V30 3106 N 307.445 0.0818655 -1.57387 0
M  V30 3107 C 308.693 0.781368 -1.86384 0
M  V30 3108 C 309.014 1.78618 -0.782342 0
M  V30 3109 O 308.284 1.94976 0.190061 0
M  V30 3110 H 306.864 0.291562 -0.687751 0
M  V30 3111 H 309.526 0.060348 -1.94807 0
M  V30 3112 H 308.622 1.3038 -2.83562 0
M  V30 3113 N 308.923 1.53595 0.353017 0
M  V30 3114 C 310.171 1.70049 1.09215 0
M  V30 3115 C 310.492 0.461406 1.89463 0
M  V30 3116 O 309.762 -0.524633 1.88744 0
M  V30 3117 H 308.342 0.626912 0.40619 0
M  V30 3118 H 311.004 1.90822 0.396585 0
M  V30 3119 H 310.1 2.56718 1.77488 0
M  V30 3120 N 310.401 -0.613514 1.45168 0
M  V30 3121 C 311.349 -1.74572 1.53712 0
M  V30 3122 C 312.343 -1.64426 0.407505 0
M  V30 3123 O 313.549 -1.70291 0.583176 0
M  V30 3124 H 309.924 -0.576641 0.48269 0
M  V30 3125 H 311.895 -1.64492 2.48968 0
M  V30 3126 C 310.644 -3.12943 1.51532 0
M  V30 3127 H 309.967 -3.21407 2.37776 0
M  V30 3128 H 311.407 -3.9201 1.61569 0
M  V30 3129 C 309.866 -3.36053 0.238798 0
M  V30 3130 O 310.396 -3.95837 -0.6838 0
M  V30 3131 N 308.602 -2.9028 0.136359 0
M  V30 3132 H 308.149 -2.41811 0.887999 0
M  V30 3133 H 308.107 -3.06116 -0.716944 0
M  V30 3134 N 311.879 -1.3236 -0.855495 0
M  V30 3135 C 313.125 -1.23054 -1.612 0
M  V30 3136 C 313.458 0.207404 -1.93089 0
M  V30 3137 O 312.733 1.14432 -1.57275 0
M  V30 3138 C 313.016 -2.08937 -2.93287 0
M  V30 3139 C 312.869 -3.61105 -2.68185 0
M  V30 3140 C 314.188 -1.94986 -3.94549 0
M  V30 3141 H 311.307 -0.448364 -0.584926 0
M  V30 3142 H 313.949 -1.62297 -0.987917 0
M  V30 3143 H 312.099 -1.75599 -3.46551 0
M  V30 3144 H 313.771 -4.04652 -2.21483 0
M  V30 3145 H 312.014 -3.83813 -2.02164 0
M  V30 3146 H 312.685 -4.16522 -3.62234 0
M  V30 3147 H 315.161 -2.24189 -3.5054 0
M  V30 3148 H 314.037 -2.57356 -4.84829 0
M  V30 3149 H 314.298 -0.917263 -4.3248 0
M  V30 3150 N 313.357 1.07166 -1.15556 0
M  V30 3151 C 314.634 1.76546 -0.842069 0
M  V30 3152 C 315.014 2.00453 0.661939 0
M  V30 3153 O 314.362 1.62452 1.60691 0
M  V30 3154 C 314.572 3.07266 -1.65495 0
M  V30 3155 C 315.92 3.81578 -1.86234 0
M  V30 3156 O 316.944 3.17083 -1.62287 0
M  V30 3157 O 315.803 4.97419 -2.26355 0
M  V30 3158 H 312.897 0.766756 -0.309862 0
M  V30 3159 H 315.443 1.13514 -1.26145 0
M  V30 3160 H 314.215 2.85494 -2.67598 0
M  V30 3161 H 313.838 3.7803 -1.23203 0
M  V30 3162 N 314.835 0.952656 1.25548 0
M  V30 3163 C 315.798 0.475794 2.24207 0
M  V30 3164 C 316.798 -0.419428 1.55234 0
M  V30 3165 O 317.988 -0.216994 1.72843 0
M  V30 3166 C 315.12 -0.312814 3.39462 0
M  V30 3167 H 316.313 1.34779 2.67908 0
M  V30 3168 H 313.866 0.735739 1.37901 0
M  V30 3169 H 314.601 -1.20257 3.01179 0
M  V30 3170 H 314.386 0.329404 3.90714 0
M  V30 3171 H 315.876 -0.635986 4.12729 0
M  V30 3172 N 316.313 -1.40141 0.720998 0
M  V30 3173 C 317.553 -2.02644 0.267335 0
M  V30 3174 C 317.917 -1.55948 -1.12001 0
M  V30 3175 O 319.118 -2.10552 -1.67097 0
M  V30 3176 C 317.389 -3.55679 0.350281 0
M  V30 3177 S 318.948 -4.38793 -0.0256004 0
M  V30 3178 H 315.766 -0.703105 0.105664 0
M  V30 3179 H 318.368 -1.71175 0.944416 0
M  V30 3180 H 317.072 -3.87157 1.36153 0
M  V30 3181 H 316.603 -3.91883 -0.345096 0
M  V30 3182 H 318.618 -4.803 -1.24604 0
M  V30 3183 N 317.792 -0.46758 -1.50504 0
M  V30 3184 C 319.038 0.0887532 -2.02606 0
M  V30 3185 C 319.371 1.39686 -1.34913 0
M  V30 3186 O 318.646 1.88644 -0.473694 0
M  V30 3187 C 318.929 0.276206 -3.59039 0
M  V30 3188 C 318.782 -1.05267 -4.37309 0
M  V30 3189 C 320.101 1.03235 -4.27821 0
M  V30 3190 H 317.22 0.0307814 -0.736357 0
M  V30 3191 H 319.862 -0.612485 -1.79857 0
M  V30 3192 H 318.012 0.8735 -3.78553 0
M  V30 3193 H 319.684 -1.68628 -4.29374 0
M  V30 3194 H 317.927 -1.65015 -4.01189 0
M  V30 3195 H 318.598 -0.875197 -5.45018 0
M  V30 3196 H 321.074 0.526111 -4.12761 0
M  V30 3197 H 319.95 1.1323 -5.37094 0
M  V30 3198 H 320.211 2.06806 -3.90748 0
M  V30 3199 N 319.27 1.56325 -0.20005 0
M  V30 3200 C 320.519 1.96895 0.437652 0
M  V30 3201 C 320.832 1.08999 1.62415 0
M  V30 3202 O 322.038 1.39372 2.32997 0
M  V30 3203 C 320.494 3.50198 0.830025 0
M  V30 3204 C 320.102 4.46765 -0.332461 0
M  V30 3205 C 321.846 3.99526 1.43453 0
M  V30 3206 C 319.753 5.91344 0.0811468 0
M  V30 3207 H 318.683 0.735209 0.167282 0
M  V30 3208 H 321.334 1.81148 -0.292853 0
M  V30 3209 H 319.716 3.61467 1.61734 0
M  V30 3210 H 320.89 4.47231 -1.11 0
M  V30 3211 H 319.205 4.07657 -0.848789 0
M  V30 3212 H 321.802 5.05025 1.75652 0
M  V30 3213 H 322.145 3.44122 2.34277 0
M  V30 3214 H 322.678 3.91393 0.71109 0
M  V30 3215 H 319.417 6.50685 -0.793033 0
M  V30 3216 H 318.937 5.94121 0.823445 0
M  V30 3217 H 320.616 6.44945 0.515252 0
M  V30 3218 N 320.748 -0.0735177 1.57428 0
M  V30 3219 C 321.976 -0.785969 1.9139 0
M  V30 3220 C 322.391 -1.71207 0.795847 0
M  V30 3221 O 321.748 -1.81033 -0.230915 0
M  V30 3222 C 321.799 -1.58107 3.25091 0
M  V30 3223 O 321.52 -0.6922 4.32597 0
M  V30 3224 C 323.021 -2.39467 3.73055 0
M  V30 3225 H 320.241 -0.223558 0.632663 0
M  V30 3226 H 322.785 -0.044302 2.04452 0
M  V30 3227 H 320.94 -2.27503 3.13562 0
M  V30 3228 H 321.354 -1.24504 5.09508 0
M  V30 3229 H 322.828 -2.90716 4.69242 0
M  V30 3230 H 323.305 -3.18913 3.01979 0
M  V30 3231 H 323.911 -1.7523 3.87523 0
M  V30 3232 N 322.226 -1.5378 -0.344866 0
M  V30 3233 C 323.173 -1.81676 -1.42346 0
M  V30 3234 C 324.143 -0.662376 -1.52321 0
M  V30 3235 O 325.328 -0.906675 -1.67881 0
M  V30 3236 C 322.468 -2.03087 -2.79015 0
M  V30 3237 C 321.581 -3.30799 -2.77842 0
M  V30 3238 C 320.716 -3.42285 -4.0622 0
M  V30 3239 C 319.755 -4.6395 -3.9927 0
M  V30 3240 N 318.892 -4.72477 -5.19336 0
M  V30 3241 H 323.732 -2.73703 -1.17858 0
M  V30 3242 H 321.269 -1.35568 -0.570949 0
M  V30 3243 H 323.227 -2.1349 -3.58438 0
M  V30 3244 H 321.857 -1.14375 -3.01858 0
M  V30 3245 H 320.909 -3.29244 -1.90533 0
M  V30 3246 H 322.221 -4.20314 -2.68584 0
M  V30 3247 H 321.375 -3.52113 -4.94066 0
M  V30 3248 H 320.114 -2.50823 -4.18258 0
M  V30 3249 H 319.119 -4.54201 -3.09809 0
M  V30 3250 H 320.344 -5.56775 -3.88817 0
M  V30 3251 H 318.29 -3.83924 -5.3192 0
M  V30 3252 H 318.207 -5.55927 -5.12329 0
M  V30 3253 H 319.475 -4.86613 -6.08957 0
M  V30 3254 N 323.704 0.605807 -1.45491 0
M  V30 3255 C 324.932 1.39136 -1.5313 0
M  V30 3256 C 325.347 1.88082 -0.164507 0
M  V30 3257 O 324.704 1.62316 0.834247 0
M  V30 3258 C 324.755 2.59463 -2.51716 0
M  V30 3259 O 324.476 2.12551 -3.83084 0
M  V30 3260 C 325.977 3.52301 -2.6907 0
M  V30 3261 H 323.197 0.425849 -0.51855 0
M  V30 3262 H 325.741 0.73865 -1.90694 0
M  V30 3263 H 323.896 3.20772 -2.17219 0
M  V30 3264 H 324.31 2.90744 -4.36541 0
M  V30 3265 H 325.784 4.33271 -3.42024 0
M  V30 3266 H 326.261 4.02757 -1.75167 0
M  V30 3267 H 326.867 2.96845 -3.04571 0
M  V30 3268 N 325.182 1.32811 0.848464 0
M  V30 3269 C 326.43 1.23479 1.59991 0
M  V30 3270 C 326.751 -0.201853 1.93952 0
M  V30 3271 O 326.021 -1.12818 1.60153 0
M  V30 3272 H 324.601 0.454034 0.593179 0
M  V30 3273 H 327.263 1.66412 1.01455 0
M  V30 3274 H 326.359 1.82178 2.53412 0
M  V30 3275 N 326.66 -1.06551 1.16123 0
M  V30 3276 C 327.623 -2.12132 0.867906 0
M  V30 3277 C 328.623 -1.60224 -0.135944 0
M  V30 3278 O 329.813 -1.73943 0.0946422 0
M  V30 3279 C 326.945 -3.396 0.297419 0
M  V30 3280 H 328.138 -2.39586 1.80385 0
M  V30 3281 H 325.691 -1.22574 0.969812 0
M  V30 3282 H 326.426 -3.17794 -0.64633 0
M  V30 3283 H 326.211 -3.78581 1.02073 0
M  V30 3284 H 327.701 -4.17455 0.110052 0
M  V30 3285 N 328.138 -0.959301 -1.25041 0
M  V30 3286 C 329.085 -0.482057 -2.2571 0
M  V30 3287 C 330.055 0.467939 -1.59372 0
M  V30 3288 O 331.24 0.380159 -1.86974 0
M  V30 3289 C 328.38 0.229623 -3.44335 0
M  V30 3290 C 327.493 -0.758156 -4.25295 0
M  V30 3291 C 326.628 -0.0234403 -5.31195 0
M  V30 3292 C 325.667 -1.00184 -6.03846 0
M  V30 3293 N 324.804 -0.29769 -7.01469 0
M  V30 3294 H 329.644 -1.34538 -2.65901 0
M  V30 3295 H 327.181 -0.674592 -1.3072 0
M  V30 3296 H 329.139 0.658856 -4.11965 0
M  V30 3297 H 327.769 1.05696 -3.05005 0
M  V30 3298 H 326.821 -1.30586 -3.57284 0
M  V30 3299 H 328.133 -1.50458 -4.75567 0
M  V30 3300 H 327.287 0.464201 -6.04922 0
M  V30 3301 H 326.026 0.755741 -4.81809 0
M  V30 3302 H 325.031 -1.50044 -5.2893 0
M  V30 3303 H 326.256 -1.78133 -6.55321 0
M  V30 3304 H 324.202 0.462668 -6.54366 0
M  V30 3305 H 324.119 -0.983128 -7.4958 0
M  V30 3306 H 325.387 0.16826 -7.79318 0
M  V30 3307 N 329.616 1.39756 -0.72842 0
M  V30 3308 C 330.546 2.33289 -0.0991354 0
M  V30 3309 C 331.527 1.53568 0.731489 0
M  V30 3310 O 332.712 1.81987 0.677807 0
M  V30 3311 C 329.842 3.3763 0.813834 0
M  V30 3312 C 328.796 4.2791 0.0878663 0
M  V30 3313 C 328.122 5.22894 1.11741 0
M  V30 3314 C 329.422 5.11314 -1.06563 0
M  V30 3315 H 331.116 2.86163 -0.880408 0
M  V30 3316 H 328.662 1.37591 -0.424819 0
M  V30 3317 H 330.615 4.0201 1.26355 0
M  V30 3318 H 329.339 2.83181 1.62715 0
M  V30 3319 H 327.998 3.65 -0.342159 0
M  V30 3320 H 327.646 4.64744 1.92412 0
M  V30 3321 H 327.346 5.84143 0.636477 0
M  V30 3322 H 328.87 5.90151 1.56697 0
M  V30 3323 H 330.284 5.69076 -0.694671 0
M  V30 3324 H 328.681 5.81671 -1.47577 0
M  V30 3325 H 329.751 4.46534 -1.89038 0
M  V30 3326 N 331.094 0.475555 1.50254 0
M  V30 3327 C 332.024 -0.30611 2.31485 0
M  V30 3328 C 333.005 -0.986228 1.38591 0
M  V30 3329 O 334.19 -0.982541 1.67511 0
M  V30 3330 C 331.32 -1.38588 3.1845 0
M  V30 3331 C 330.274 -0.827115 4.19932 0
M  V30 3332 C 329.6 -2.00551 4.95665 0
M  V30 3333 C 330.9 0.16463 5.2204 0
M  V30 3334 H 332.594 0.371866 2.97082 0
M  V30 3335 H 330.14 0.180282 1.42867 0
M  V30 3336 H 332.093 -1.94023 3.74076 0
M  V30 3337 H 330.817 -2.09269 2.50747 0
M  V30 3338 H 329.476 -0.294702 3.65414 0
M  V30 3339 H 329.124 -2.6994 4.2443 0
M  V30 3340 H 328.824 -1.63784 5.64313 0
M  V30 3341 H 330.348 -2.56468 5.54127 0
M  V30 3342 H 331.762 -0.300699 5.72511 0
M  V30 3343 H 330.159 0.446813 5.98434 0
M  V30 3344 H 331.229 1.08905 4.72512 0
M  V30 3345 N 332.573 -1.56217 0.208337 0
M  V30 3346 C 333.989 -1.58919 -0.14729 0
M  V30 3347 C 334.189 -1.22486 -1.59998 0
M  V30 3348 O 333.245 -0.953849 -2.3379 0
M  V30 3349 C 334.558 -3.00236 0.167048 0
M  V30 3350 C 336.106 -3.12813 0.108219 0
M  V30 3351 C 336.581 -4.56284 0.396049 0
M  V30 3352 N 338.072 -4.61912 0.345142 0
M  V30 3353 C 338.807 -5.70837 0.541523 0
M  V30 3354 N 338.303 -6.88178 0.798968 0
M  V30 3355 N 340.096 -5.60091 0.474867 0
M  V30 3356 H 332.247 -1.78177 1.15614 0
M  V30 3357 H 334.51 -0.827555 0.462446 0
M  V30 3358 H 334.216 -3.31499 1.1748 0
M  V30 3359 H 334.09 -3.7354 -0.524184 0
M  V30 3360 H 336.477 -2.81354 -0.890157 0
M  V30 3361 H 336.558 -2.41866 0.832729 0
M  V30 3362 H 336.202 -4.88458 1.3918 0
M  V30 3363 H 336.132 -5.25439 -0.349502 0
M  V30 3364 H 338.623 -3.77589 0.153316 0
M  V30 3365 H 338.936 -7.67095 0.93727 0
M  V30 3366 H 337.281 -6.89953 0.836013 0
M  V30 3367 H 340.472 -4.67297 0.274064 0
M  V30 3368 H 340.645 -6.44917 0.631326 0
M  V30 3369 N 334.051 0.0651679 -1.57465 0
M  V30 3370 C 335.279 0.775808 -1.91804 0
M  V30 3371 C 335.694 1.70782 -0.804916 0
M  V30 3372 O 335.051 1.81153 0.221311 0
M  V30 3373 C 335.102 1.56381 -3.25925 0
M  V30 3374 O 334.823 0.669248 -4.32958 0
M  V30 3375 C 336.324 2.37485 -3.7432 0
M  V30 3376 H 333.544 0.2202 -0.63384 0
M  V30 3377 H 336.088 0.0334587 -2.04473 0
M  V30 3378 H 334.243 2.25837 -3.14764 0
M  V30 3379 H 334.657 1.21801 -5.10162 0
M  V30 3380 H 336.131 2.88223 -4.70778 0
M  V30 3381 H 336.608 3.17307 -3.03666 0
M  V30 3382 H 337.214 1.73173 -3.88447 0
M  V30 3383 N 335.529 1.53961 0.336706 0
M  V30 3384 C 336.459 1.85417 1.41925 0
M  V30 3385 C 337.44 0.709856 1.5458 0
M  V30 3386 O 338.625 0.962396 1.68676 0
M  V30 3387 C 335.755 2.06985 2.78881 0
M  V30 3388 C 334.709 3.22813 2.81026 0
M  V30 3389 C 334.035 3.29727 4.20932 0
M  V30 3390 C 335.335 4.60767 2.45949 0
M  V30 3391 H 337.029 2.76079 1.15848 0
M  V30 3392 H 334.575 1.32839 0.555859 0
M  V30 3393 H 336.528 2.27575 3.54665 0
M  V30 3394 H 335.252 1.13061 3.06406 0
M  V30 3395 H 333.911 3.0209 2.07695 0
M  V30 3396 H 333.559 2.33385 4.45579 0
M  V30 3397 H 333.259 4.07566 4.23277 0
M  V30 3398 H 334.783 3.52536 4.98549 0
M  V30 3399 H 336.197 4.81325 3.11446 0
M  V30 3400 H 334.594 5.4106 2.59566 0
M  V30 3401 H 335.664 4.6391 1.41122 0
M  V30 3402 N 337.007 -0.598083 1.45811 0
M  V30 3403 C 338.232 -1.3881 1.54099 0
M  V30 3404 C 338.657 -1.8726 0.177578 0
M  V30 3405 O 338.015 -1.6069 -0.839541 0
M  V30 3406 C 338.063 -2.56217 2.53743 0
M  V30 3407 O 337.167 -3.5716 2.06182 0
M  V30 3408 H 336.508 -0.414024 0.519115 0
M  V30 3409 H 339.038 -0.726971 1.91249 0
M  V30 3410 H 339.048 -3.03337 2.72856 0
M  V30 3411 H 337.723 -2.20303 3.5276 0
M  V30 3412 H 336.3 -3.16624 1.96987 0
M  V30 3413 N 338.485 -1.33259 -0.841409 0
M  V30 3414 C 339.71 -1.2775 -1.63385 0
M  V30 3415 C 340.135 0.149188 -1.87507 0
M  V30 3416 O 339.493 1.10498 -1.43736 0
M  V30 3417 C 339.541 -2.05571 -2.96265 0
M  V30 3418 O 338.645 -1.41257 -3.87453 0
M  V30 3419 H 337.986 -0.439627 -0.497618 0
M  V30 3420 H 340.516 -1.75782 -1.04699 0
M  V30 3421 H 340.526 -2.16241 -3.45982 0
M  V30 3422 H 339.201 -3.09309 -2.7803 0
M  V30 3423 H 337.778 -1.39217 -3.45938 0
M  V30 3424 N 339.963 1.05934 -1.16686 0
M  V30 3425 C 341.374 1.60263 -0.957745 0
M  V30 3426 C 341.725 1.89789 0.49745 0
M  V30 3427 O 340.85 1.67401 1.37135 0
M  V30 3428 C 341.445 2.91172 -1.73218 0
M  V30 3429 C 340.004 3.42188 -1.56794 0
M  V30 3430 C 339.151 2.16028 -1.73859 0
M  V30 3431 H 342.102 0.888392 -1.31504 0
M  V30 3432 H 342.123 3.60744 -1.21014 0
M  V30 3433 H 341.635 2.6965 -2.79124 0
M  V30 3434 H 339.736 3.68762 -0.533437 0
M  V30 3435 H 339.849 4.17273 -2.35414 0
M  V30 3436 H 338.213 2.26426 -1.16633 0
M  V30 3437 H 338.996 1.96985 -2.81161 0
M  V30 3438 N 341.441 0.965919 1.2453 0
M  V30 3439 C 342.669 0.644385 1.96609 0
M  V30 3440 C 343.084 -0.785823 1.71669 0
M  V30 3441 O 342.441 -1.52703 0.999399 0
M  V30 3442 C 342.492 0.907375 3.49927 0
M  V30 3443 O 342.213 2.28136 3.74013 0
M  V30 3444 C 343.714 0.599784 4.39224 0
M  V30 3445 H 340.934 0.240588 0.626385 0
M  V30 3446 H 343.478 1.29337 1.58405 0
M  V30 3447 H 341.633 0.304631 3.862 0
M  V30 3448 H 342.047 2.36002 4.68405 0
M  V30 3449 H 343.521 0.834263 5.45659 0
M  V30 3450 H 343.998 -0.465921 4.36722 0
M  V30 3451 H 344.604 1.18235 4.08535 0
M  V30 3452 N 342.919 -1.39368 0.735821 0
M  V30 3453 C 343.829 -2.34395 0.0979693 0
M  V30 3454 C 344.845 -1.58361 -0.720968 0
M  V30 3455 O 346.021 -1.90648 -0.649245 0
M  V30 3456 C 343.086 -3.37393 -0.797916 0
M  V30 3457 C 342.147 -4.29287 0.0333662 0
M  V30 3458 C 341.38 -5.27365 -0.819854 0
M  V30 3459 O 341.603 -5.31959 -2.05855 0
M  V30 3460 O 340.537 -6.01389 -0.248079 0
M  V30 3461 H 344.363 -2.90601 0.882315 0
M  V30 3462 H 341.948 -1.40909 0.4965 0
M  V30 3463 H 343.83 -4.00505 -1.31048 0
M  V30 3464 H 342.505 -2.83571 -1.56106 0
M  V30 3465 H 341.412 -3.69395 0.591475 0
M  V30 3466 H 342.745 -4.86317 0.758752 0
M  V30 3467 N 344.397 -0.483516 -1.5 0
M  V30 3468 C 345.808 -0.0314176 -1.86674 0
M  V30 3469 C 346.159 1.37728 -1.39733 0
M  V30 3470 O 345.284 2.02327 -0.767635 0
M  V30 3471 C 345.879 -0.0502376 -3.38763 0
M  V30 3472 C 344.438 0.346442 -3.74802 0
M  V30 3473 C 343.585 -0.430366 -2.7394 0
M  V30 3474 H 346.536 -0.697182 -1.42566 0
M  V30 3475 H 346.557 0.749116 -3.73053 0
M  V30 3476 H 346.069 -1.07563 -3.72897 0
M  V30 3477 H 344.17 1.37572 -3.46273 0
M  V30 3478 H 344.283 0.0391486 -4.79084 0
M  V30 3479 H 342.647 0.117557 -2.54429 0
M  V30 3480 H 343.43 -1.4555 -3.10918 0
M  V30 3481 N 345.875 1.56104 -0.216619 0
M  V30 3482 C 347.121 1.98466 0.417033 0
M  V30 3483 C 347.454 1.10403 1.59765 0
M  V30 3484 O 346.729 0.160632 1.93836 0
M  V30 3485 C 347.012 3.49769 0.85637 0
M  V30 3486 C 346.865 4.48606 -0.327546 0
M  V30 3487 C 348.184 4.05339 1.7143 0
M  V30 3488 H 345.303 0.721551 0.150112 0
M  V30 3489 H 347.945 1.87423 -0.311864 0
M  V30 3490 H 346.095 3.5931 1.47745 0
M  V30 3491 H 347.767 4.5108 -0.965618 0
M  V30 3492 H 346.01 4.22682 -0.975805 0
M  V30 3493 H 346.681 5.51995 0.0227149 0
M  V30 3494 H 349.157 3.98712 1.19031 0
M  V30 3495 H 348.033 5.11533 1.99061 0
M  V30 3496 H 348.294 3.51918 2.67593 0
M  V30 3497 N 347.353 -0.0568162 1.57498 0
M  V30 3498 C 348.3 -1.06591 2.04712 0
M  V30 3499 C 349.27 -1.3758 0.930644 0
M  V30 3500 O 350.455 -1.48392 1.19935 0
M  V30 3501 C 347.595 -2.3701 2.50839 0
M  V30 3502 C 346.708 -2.12421 3.76167 0
M  V30 3503 C 345.843 -3.36511 4.11015 0
M  V30 3504 C 344.882 -3.07353 5.2934 0
M  V30 3505 N 344.019 -4.23816 5.59754 0
M  V30 3506 H 348.859 -0.65631 2.90683 0
M  V30 3507 H 346.396 -0.312481 1.43743 0
M  V30 3508 H 348.354 -3.13175 2.7564 0
M  V30 3509 H 346.984 -2.75744 1.67825 0
M  V30 3510 H 346.036 -1.2688 3.58616 0
M  V30 3511 H 347.348 -1.86894 4.62463 0
M  V30 3512 H 346.502 -4.21062 4.36797 0
M  V30 3513 H 345.241 -3.65128 3.23315 0
M  V30 3514 H 344.246 -2.212 5.03339 0
M  V30 3515 H 345.471 -2.80043 6.1867 0
M  V30 3516 H 343.417 -4.52436 4.75014 0
M  V30 3517 H 343.334 -4.01614 6.40501 0
M  V30 3518 H 344.602 -5.0932 5.90096 0
M  V30 3519 N 348.832 -1.54138 -0.328536 0
M  V30 3520 C 350.248 -1.44736 -0.672574 0
M  V30 3521 C 350.448 -0.616217 -1.91846 0
M  V30 3522 O 349.504 -0.113067 -2.52247 0
M  V30 3523 C 350.817 -2.884 -0.851217 0
M  V30 3524 C 352.365 -2.98271 -0.948877 0
M  V30 3525 C 352.84 -4.43074 -1.15973 0
M  V30 3526 N 354.331 -4.46665 -1.22658 0
M  V30 3527 C 355.066 -5.55857 -1.40751 0
M  V30 3528 N 354.562 -6.75026 -1.5592 0
M  V30 3529 N 356.355 -5.43495 -1.4342 0
M  V30 3530 H 348.506 -2.06661 0.490421 0
M  V30 3531 H 350.769 -0.934812 0.157579 0
M  V30 3532 H 350.475 -3.51699 -0.00704236 0
M  V30 3533 H 350.349 -3.34225 -1.74853 0
M  V30 3534 H 352.736 -2.35102 -1.78356 0
M  V30 3535 H 352.817 -2.55785 -0.0281435 0
M  V30 3536 H 352.461 -5.06827 -0.329915 0
M  V30 3537 H 352.391 -4.83165 -2.09426 0
M  V30 3538 H 354.882 -3.60797 -1.124 0
M  V30 3539 H 355.195 -7.54004 -1.69404 0
M  V30 3540 H 353.54 -6.77944 -1.53027 0
M  V30 3541 H 356.731 -4.49349 -1.31162 0
M  V30 3542 H 356.904 -6.28649 -1.57178 0
M  V30 3543 N 350.31 0.590341 -1.46126 0
M  V30 3544 C 351.535 1.37991 -1.54833 0
M  V30 3545 C 351.96 1.87163 -0.187506 0
M  V30 3546 O 351.318 1.61133 0.831008 0
M  V30 3547 C 351.366 2.54867 -2.55098 0
M  V30 3548 O 350.47 3.56061 -2.08073 0
M  V30 3549 H 349.811 0.411265 -0.521303 0
M  V30 3550 H 352.341 0.716819 -1.91632 0
M  V30 3551 H 352.351 3.01886 -2.74461 0
M  V30 3552 H 351.026 2.18429 -3.53923 0
M  V30 3553 H 349.603 3.15574 -1.98664 0
M  V30 3554 N 351.788 1.33704 0.83433 0
M  V30 3555 C 353.036 1.25169 1.58673 0
M  V30 3556 C 353.357 -0.18127 1.94156 0
M  V30 3557 O 352.627 -1.11113 1.6134 0
M  V30 3558 H 351.207 0.4603 0.58833 0
M  V30 3559 H 353.869 1.67478 0.996847 0
M  V30 3560 H 352.965 1.84856 2.51465 0
M  V30 3561 N 353.266 -1.05314 1.17247 0
M  V30 3562 C 354.682 -1.30452 0.919473 0
M  V30 3563 C 354.882 -1.9703 -0.42209 0
M  V30 3564 O 353.938 -2.24311 -1.15935 0
M  V30 3565 C 355.251 -2.17551 2.07586 0
M  V30 3566 C 356.799 -2.30937 2.11275 0
M  V30 3567 C 357.274 -3.21396 3.26296 0
M  V30 3568 N 358.765 -3.28981 3.26076 0
M  V30 3569 C 359.5 -3.99095 4.11716 0
M  V30 3570 N 358.996 -4.71648 5.07465 0
M  V30 3571 N 360.789 -3.95247 3.9967 0
M  V30 3572 H 352.94 -0.604988 2.03602 0
M  V30 3573 H 355.203 -0.329368 0.888944 0
M  V30 3574 H 354.909 -1.75921 3.0454 0
M  V30 3575 H 354.783 -3.18182 2.02584 0
M  V30 3576 H 357.17 -2.71809 1.14907 0
M  V30 3577 H 357.251 -1.2994 2.20339 0
M  V30 3578 H 356.895 -2.81238 4.22927 0
M  V30 3579 H 356.825 -4.22395 3.14467 0
M  V30 3580 H 359.316 -2.77286 2.5675 0
M  V30 3581 H 359.629 -5.22705 5.6921 0
M  V30 3582 H 357.974 -4.70594 5.11435 0
M  V30 3583 H 361.165 -3.37691 3.24164 0
M  V30 3584 H 361.338 -4.4962 4.66632 0
M  V30 3585 N 354.744 -0.972509 -1.24016 0
M  V30 3586 C 355.974 -0.653853 -1.9598 0
M  V30 3587 C 356.382 0.781801 -1.72292 0
M  V30 3588 O 355.725 1.53677 -1.00644 0
M  V30 3589 C 355.787 -0.854608 -3.49194 0
M  V30 3590 C 355.451 -2.27082 -3.96589 0
M  V30 3591 C 356.448 -3.24892 -4.05883 0
M  V30 3592 C 354.133 -2.5998 -4.29786 0
M  V30 3593 C 356.127 -4.53684 -4.47716 0
M  V30 3594 C 353.814 -3.88997 -4.71301 0
M  V30 3595 C 354.812 -4.85661 -4.80232 0
M  V30 3596 O 354.5 -6.12376 -5.20818 0
M  V30 3597 H 354.232 -0.242572 -0.630979 0
M  V30 3598 H 356.786 -1.30431 -1.58673 0
M  V30 3599 H 355.016 -0.146985 -3.86421 0
M  V30 3600 H 356.705 -0.534311 -4.02368 0
M  V30 3601 H 357.471 -3.00805 -3.80449 0
M  V30 3602 H 353.35 -1.85457 -4.22051 0
M  V30 3603 H 356.894 -5.29135 -4.54601 0
M  V30 3604 H 352.791 -4.12882 -4.96184 0
M  V30 3605 H 353.559 -6.16013 -5.38953 0
M  V30 3606 N 356.222 1.38976 -0.743202 0
M  V30 3607 C 357.172 2.27843 -0.084513 0
M  V30 3608 C 358.156 1.44677 0.704094 0
M  V30 3609 O 359.348 1.67511 0.571755 0
M  V30 3610 C 356.477 3.33466 0.815781 0
M  V30 3611 C 355.563 4.24095 0.0208844 0
M  V30 3612 N 355.954 4.95609 -1.0102 0
M  V30 3613 C 354.252 4.45303 0.249293 0
M  V30 3614 C 354.953 5.62287 -1.49024 0
M  V30 3615 N 353.929 5.37571 -0.807377 0
M  V30 3616 H 357.731 2.80593 -0.87436 0
M  V30 3617 H 355.245 1.51755 -0.578283 0
M  V30 3618 H 357.242 3.96008 1.30321 0
M  V30 3619 H 355.902 2.82276 1.6047 0
M  V30 3620 H 356.913 4.98849 -1.39176 0
M  V30 3621 H 353.59 4.0504 1.01237 0
M  V30 3622 H 354.98 6.29519 -2.34853 0
M  V30 3623 N 357.7 0.491464 1.49741 0
M  V30 3624 C 358.947 -0.0564256 2.02421 0
M  V30 3625 C 359.275 -1.37872 1.37192 0
M  V30 3626 O 358.53 -1.89375 0.493508 0
M  V30 3627 C 358.829 -0.267329 3.56399 0
M  V30 3628 C 358.495 0.975775 4.40215 0
M  V30 3629 C 357.157 1.31655 4.62839 0
M  V30 3630 C 359.509 1.80251 4.89039 0
M  V30 3631 C 356.837 2.48375 5.31532 0
M  V30 3632 C 359.189 2.96116 5.59015 0
M  V30 3633 C 357.853 3.30585 5.79888 0
M  V30 3634 H 357.123 -0.0206476 0.740712 0
M  V30 3635 H 359.77 0.649686 1.80143 0
M  V30 3636 H 358.075 -1.05588 3.77304 0
M  V30 3637 H 359.772 -0.705549 3.94744 0
M  V30 3638 H 356.362 0.700315 4.2284 0
M  V30 3639 H 360.546 1.55239 4.71396 0
M  V30 3640 H 355.802 2.7533 5.45897 0
M  V30 3641 H 359.976 3.60509 5.95824 0
M  V30 3642 H 357.603 4.21132 6.32892 0
M  V30 3643 N 359.178 -1.55987 0.224894 0
M  V30 3644 C 360.424 -1.98684 -0.406502 0
M  V30 3645 C 360.757 -1.11248 -1.59177 0
M  V30 3646 O 360.032 -0.170909 -1.93748 0
M  V30 3647 C 360.315 -3.50218 -0.837808 0
M  V30 3648 C 360.168 -4.48426 0.351332 0
M  V30 3649 C 361.487 -4.06243 -1.69278 0
M  V30 3650 H 358.606 -0.722337 -0.146283 0
M  V30 3651 H 361.248 -1.87255 0.321799 0
M  V30 3652 H 359.398 -3.60089 -1.45837 0
M  V30 3653 H 361.07 -4.50562 0.989526 0
M  V30 3654 H 359.313 -4.22159 0.998207 0
M  V30 3655 H 359.984 -5.52 0.00655905 0
M  V30 3656 H 362.46 -3.99337 -1.16914 0
M  V30 3657 H 361.336 -5.12581 -1.96346 0
M  V30 3658 H 361.597 -3.53332 -2.65723 0
M  V30 3659 N 360.656 0.0484629 -1.57525 0
M  V30 3660 C 362.067 0.597486 -1.76881 0
M  V30 3661 C 362.418 1.76664 -0.853475 0
M  V30 3662 O 361.543 2.16357 -0.0433656 0
M  V30 3663 C 362.138 1.09066 -3.20765 0
M  V30 3664 C 360.697 1.58535 -3.41385 0
M  V30 3665 C 359.844 0.514868 -2.72478 0
M  V30 3666 H 362.795 -0.177758 -1.57701 0
M  V30 3667 H 362.816 1.95875 -3.2621 0
M  V30 3668 H 362.328 0.239521 -3.8736 0
M  V30 3669 H 360.429 2.45898 -2.79937 0
M  V30 3670 H 360.542 1.64622 -4.49929 0
M  V30 3671 H 358.906 0.965407 -2.35695 0
M  V30 3672 H 359.689 -0.32648 -3.41744 0
M  V30 3673 N 362.134 1.5431 0.320358 0
M  V30 3674 C 363.382 1.72327 1.05583 0
M  V30 3675 C 363.703 0.50149 1.88441 0
M  V30 3676 O 362.973 -0.48448 1.89815 0
M  V30 3677 H 361.553 0.635387 0.3928 0
M  V30 3678 H 364.215 1.91621 0.356019 0
M  V30 3679 H 363.311 2.60426 1.72003 0
M  V30 3680 N 363.613 -0.582584 1.46437 0
M  V30 3681 C 364.841 -1.36682 1.55324 0
M  V30 3682 C 365.256 -1.87796 0.194409 0
M  V30 3683 O 364.613 -1.63623 -0.808318 0
M  V30 3684 C 364.664 -2.55426 2.55812 0
M  V30 3685 O 364.385 -2.0643 3.86417 0
M  V30 3686 C 365.886 -3.47976 2.74641 0
M  V30 3687 H 363.106 -0.417545 0.525259 0
M  V30 3688 H 365.65 -0.708219 1.91845 0
M  V30 3689 H 363.805 -3.17275 2.22295 0
M  V30 3690 H 364.219 -2.83762 4.41111 0
M  V30 3691 H 365.693 -4.27775 3.48874 0
M  V30 3692 H 366.17 -3.99919 1.81553 0
M  V30 3693 H 366.776 -2.91962 3.09255 0
M  V30 3694 N 365.091 -1.34144 -0.827227 0
M  V30 3695 C 366.319 -1.29325 -1.61501 0
M  V30 3696 C 366.734 0.13354 -1.88327 0
M  V30 3697 O 366.091 1.0793 -1.47164 0
M  V30 3698 C 366.142 -2.07746 -2.95844 0
M  V30 3699 O 365.863 -3.4486 -2.70191 0
M  V30 3700 C 367.364 -2.10273 -3.90256 0
M  V30 3701 H 364.584 -0.445069 -0.50215 0
M  V30 3702 H 367.128 -1.76693 -1.02955 0
M  V30 3703 H 365.283 -1.6403 -3.5096 0
M  V30 3704 H 365.697 -3.85345 -3.55822 0
M  V30 3705 H 367.171 -2.69575 -4.81698 0
M  V30 3706 H 367.648 -1.096 -4.25305 0
M  V30 3707 H 368.254 -2.54059 -3.41078 0
M  V30 3708 N 366.569 1.04691 -1.17803 0
M  V30 3709 C 367.532 2.10724 -0.901545 0
M  V30 3710 C 368.532 1.6042 0.110437 0
M  V30 3711 O 369.722 1.7377 -0.122303 0
M  V30 3712 C 366.854 3.39084 -0.351409 0
M  V30 3713 H 368.047 2.36686 -1.84174 0
M  V30 3714 H 365.6 1.21015 -0.98919 0
M  V30 3715 H 366.335 3.18782 0.59569 0
M  V30 3716 H 366.12 3.76909 -1.08083 0
M  V30 3717 H 367.61 4.17227 -0.176451 0
M  V30 3718 N 368.047 0.979072 1.23499 0
M  V30 3719 C 369.293 0.648178 1.92163 0
M  V30 3720 C 369.626 -0.816049 1.76222 0
M  V30 3721 O 368.901 -1.58849 1.12237 0
M  V30 3722 C 369.184 1.03773 3.44824 0
M  V30 3723 C 369.037 2.55948 3.69879 0
M  V30 3724 C 370.356 0.580653 4.36253 0
M  V30 3725 H 367.475 0.236952 0.69787 0
M  V30 3726 H 370.117 1.22012 1.45647 0
M  V30 3727 H 368.267 0.551058 3.84572 0
M  V30 3728 H 369.939 3.12179 3.3962 0
M  V30 3729 H 368.182 2.98641 3.14636 0
M  V30 3730 H 368.853 2.78255 4.76737 0
M  V30 3731 H 371.329 0.998465 4.03943 0
M  V30 3732 H 370.205 0.881663 5.41773 0
M  V30 3733 H 370.466 -0.519052 4.39042 0
M  V30 3734 N 369.525 -1.3858 0.750561 0
M  V30 3735 C 370.455 -2.33102 0.136237 0
M  V30 3736 C 371.436 -1.54713 -0.706965 0
M  V30 3737 O 372.621 -1.83043 -0.648769 0
M  V30 3738 C 369.751 -3.38882 -0.760017 0
M  V30 3739 C 368.705 -4.27995 -0.0197785 0
M  V30 3740 C 368.031 -5.24605 -1.03408 0
M  V30 3741 C 369.331 -5.09554 1.14684 0
M  V30 3742 H 371.025 -2.84726 0.925822 0
M  V30 3743 H 368.571 -1.36898 0.446654 0
M  V30 3744 H 370.524 -4.0397 -1.19943 0
M  V30 3745 H 369.248 -2.85734 -1.58189 0
M  V30 3746 H 367.907 -3.64409 0.400184 0
M  V30 3747 H 367.555 -4.67746 -1.84994 0
M  V30 3748 H 367.255 -5.85081 -0.543464 0
M  V30 3749 H 368.779 -5.9257 -1.47288 0
M  V30 3750 H 370.193 -5.67899 0.785118 0
M  V30 3751 H 368.59 -5.7925 1.56812 0
M  V30 3752 H 369.66 -4.4347 1.96118 0
M  V30 3753 N 371.003 -0.499398 -1.49478 0
M  V30 3754 C 372.231 0.0425456 -2.06856 0
M  V30 3755 C 372.646 1.30964 -1.35992 0
M  V30 3756 O 372.003 1.77172 -0.437762 0
M  V30 3757 C 372.054 0.301735 -3.60239 0
M  V30 3758 O 371.775 -0.915127 -4.28436 0
M  V30 3759 C 373.276 0.887499 -4.34325 0
M  V30 3760 H 370.496 -0.0197482 -0.670709 0
M  V30 3761 H 373.04 -0.696297 -1.92281 0
M  V30 3762 H 371.195 0.990556 -3.74522 0
M  V30 3763 H 371.609 -0.676993 -5.20113 0
M  V30 3764 H 373.083 1.01845 -5.42523 0
M  V30 3765 H 373.56 1.88488 -3.96698 0
M  V30 3766 H 374.166 0.236196 -4.24644 0
M  V30 3767 N 372.481 1.55866 -0.233164 0
M  V30 3768 C 373.413 2.18099 0.704668 0
M  V30 3769 C 374.426 1.15334 1.14899 0
M  V30 3770 O 375.615 1.42262 1.07814 0
M  V30 3771 C 372.715 2.7592 1.96777 0
M  V30 3772 C 371.888 4.03969 1.67713 0
M  V30 3773 C 370.947 4.46242 2.78845 0
M  V30 3774 O 369.973 5.12903 2.46818 0
M  V30 3775 N 371.175 4.12886 4.08051 0
M  V30 3776 H 373.94 2.99205 0.172258 0
M  V30 3777 H 371.501 1.61815 -0.0525945 0
M  V30 3778 H 373.493 3.01165 2.70337 0
M  V30 3779 H 372.063 1.99051 2.41034 0
M  V30 3780 H 371.283 3.86459 0.777391 0
M  V30 3781 H 372.571 4.8748 1.4574 0
M  V30 3782 H 371.969 3.59342 4.3691 0
M  V30 3783 H 370.526 4.42997 4.78118 0
M  V30 3784 N 373.959 -0.0401083 1.57549 0
M  V30 3785 C 375.187 -0.745196 1.93014 0
M  V30 3786 C 375.602 -1.6948 0.831984 0
M  V30 3787 O 374.959 -1.81482 -0.192463 0
M  V30 3788 C 375.01 -1.51176 3.28372 0
M  V30 3789 O 374.731 -0.600284 4.33968 0
M  V30 3790 C 376.232 -2.315 3.78051 0
M  V30 3791 H 373.452 -0.210088 0.637263 0
M  V30 3792 H 375.996 -0.000924689 2.045 0
M  V30 3793 H 374.151 -2.20801 3.18317 0
M  V30 3794 H 374.565 -1.13669 5.12035 0
M  V30 3795 H 376.039 -2.80697 4.75303 0
M  V30 3796 H 376.516 -3.12436 3.08675 0
M  V30 3797 H 377.122 -1.66971 3.91153 0
M  V30 3798 N 375.437 -1.54477 -0.31217 0
M  V30 3799 C 376.683 -1.73483 -1.0503 0
M  V30 3800 C 377.016 -0.513125 -1.87298 0
M  V30 3801 O 376.291 0.489864 -1.8823 0
M  V30 3802 C 376.574 -3.01723 -1.96558 0
M  V30 3803 C 376.427 -4.3417 -1.17545 0
M  V30 3804 C 377.746 -3.25772 -2.95907 0
M  V30 3805 H 374.865 -0.631222 -0.380432 0
M  V30 3806 H 377.507 -1.87184 -0.325932 0
M  V30 3807 H 375.657 -2.90174 -2.58324 0
M  V30 3808 H 377.329 -4.5762 -0.581513 0
M  V30 3809 H 375.572 -4.31159 -0.477925 0
M  V30 3810 H 376.243 -5.20143 -1.84811 0
M  V30 3811 H 378.719 -3.36857 -2.44267 0
M  V30 3812 H 377.595 -4.16838 -3.57123 0
M  V30 3813 H 377.856 -2.43537 -3.68974 0
M  V30 3814 N 376.915 0.57481 -1.46744 0
M  V30 3815 C 377.862 1.68329 -1.57905 0
M  V30 3816 C 378.832 1.60625 -0.422927 0
M  V30 3817 O 380.017 1.79721 -0.640711 0
M  V30 3818 C 377.157 3.06665 -1.58274 0
M  V30 3819 C 376.27 3.24935 -2.84678 0
M  V30 3820 C 375.405 4.53566 -2.76499 0
M  V30 3821 C 374.444 4.65207 -3.97806 0
M  V30 3822 N 373.581 5.85172 -3.87967 0
M  V30 3823 H 378.421 1.58127 -2.52587 0
M  V30 3824 H 375.958 0.770552 -1.25303 0
M  V30 3825 H 377.916 3.86745 -1.56473 0
M  V30 3826 H 376.546 3.15745 -0.671194 0
M  V30 3827 H 375.598 2.38405 -2.96424 0
M  V30 3828 H 376.91 3.29403 -3.7456 0
M  V30 3829 H 376.064 5.41885 -2.72848 0
M  V30 3830 H 374.803 4.51548 -1.8427 0
M  V30 3831 H 373.808 3.75304 -4.0178 0
M  V30 3832 H 375.033 4.68997 -4.9114 0
M  V30 3833 H 372.979 5.84137 -2.98529 0
M  V30 3834 H 372.896 5.90943 -4.71511 0
M  V30 3835 H 374.164 6.759 -3.88303 0
M  V30 3836 N 378.394 1.34581 0.820102 0
M  V30 3837 C 379.805 1.24298 1.39309 0
M  V30 3838 C 380.156 -0.130351 1.95767 0
M  V30 3839 O 379.281 -1.0308 1.90272 0
M  V30 3840 C 379.876 2.25054 2.53251 0
M  V30 3841 C 378.435 2.18552 3.0645 0
M  V30 3842 C 377.582 2.11503 1.79337 0
M  V30 3843 H 380.533 1.45906 0.624262 0
M  V30 3844 H 380.554 1.86917 3.31425 0
M  V30 3845 H 380.066 3.24996 2.1213 0
M  V30 3846 H 378.167 1.21976 3.52069 0
M  V30 3847 H 378.28 3.0993 3.65349 0
M  V30 3848 H 376.644 1.57268 2.00347 0
M  V30 3849 H 377.427 3.13284 1.40386 0
M  V30 3850 N 379.872 -1.04064 1.18357 0
M  V30 3851 C 380.802 -2.14001 0.934113 0
M  V30 3852 C 381.783 -1.69616 -0.128186 0
M  V30 3853 O 382.968 -1.94185 0.0244093 0
M  V30 3854 C 380.098 -3.44253 0.459066 0
M  V30 3855 C 379.052 -4.02261 1.46185 0
M  V30 3856 C 378.378 -5.27992 0.844322 0
M  V30 3857 C 379.678 -4.38432 2.83856 0
M  V30 3858 H 381.372 -2.35127 1.85352 0
M  V30 3859 H 378.918 -1.12998 0.892604 0
M  V30 3860 H 380.871 -4.20522 0.271907 0
M  V30 3861 H 379.595 -3.22813 -0.495912 0
M  V30 3862 H 378.254 -3.28074 1.63595 0
M  V30 3863 H 377.902 -5.02862 -0.117845 0
M  V30 3864 H 377.602 -5.67765 1.51384 0
M  V30 3865 H 379.126 -6.06938 0.667693 0
M  V30 3866 H 380.54 -5.05688 2.70098 0
M  V30 3867 H 378.937 -4.89254 3.47491 0
M  V30 3868 H 380.007 -3.4826 3.37406 0
M  V30 3869 N 381.35 -0.985608 -1.22978 0
M  V30 3870 C 382.578 -0.675582 -1.95559 0
M  V30 3871 C 382.993 0.758413 -1.72897 0
M  V30 3872 O 382.35 1.51094 -1.02357 0
M  V30 3873 C 382.401 -0.96293 -3.48439 0
M  V30 3874 O 382.122 -2.34057 -3.70336 0
M  V30 3875 C 383.623 -0.669585 -4.38214 0
M  V30 3876 H 380.843 -0.250523 -0.622478 0
M  V30 3877 H 383.387 -1.3184 -1.56328 0
M  V30 3878 H 381.542 -0.366033 -3.85667 0
M  V30 3879 H 381.956 -2.43424 -4.64591 0
M  V30 3880 H 383.43 -0.920967 -5.44263 0
M  V30 3881 H 383.907 0.396383 -4.37408 0
M  V30 3882 H 384.513 -1.2472 -4.06602 0
M  V30 3883 N 382.828 1.3818 -0.7579 0
M  V30 3884 C 383.758 2.33027 -0.148597 0
M  V30 3885 C 384.739 1.55085 0.69875 0
M  V30 3886 O 385.924 1.83384 0.639053 0
M  V30 3887 C 383.054 3.3928 0.742034 0
M  V30 3888 C 382.008 4.28 -0.00291946 0
M  V30 3889 C 381.334 5.25146 1.00625 0
M  V30 3890 C 382.634 5.08938 -1.17385 0
M  V30 3891 H 384.328 2.84231 -0.940909 0
M  V30 3892 H 381.874 1.36659 -0.453908 0
M  V30 3893 H 383.827 4.046 1.17799 0
M  V30 3894 H 382.551 2.86569 1.56671 0
M  V30 3895 H 381.21 3.64192 -0.419504 0
M  V30 3896 H 380.858 4.68721 1.8251 0
M  V30 3897 H 380.558 5.85361 0.512428 0
M  V30 3898 H 382.082 5.93342 1.44143 0
M  V30 3899 H 383.496 5.67474 -0.815224 0
M  V30 3900 H 381.893 5.7841 -1.59882 0
M  V30 3901 H 382.963 4.42424 -1.98468 0
M  V30 3902 N 384.306 0.507319 1.49211 0
M  V30 3903 C 385.216 -0.272136 2.33016 0
M  V30 3904 C 386.232 -0.961206 1.45041 0
M  V30 3905 O 387.408 -0.941191 1.78055 0
M  V30 3906 C 384.473 -1.31895 3.20631 0
M  V30 3907 C 383.534 -0.642648 4.24463 0
M  V30 3908 C 382.767 -1.63959 5.07891 0
M  V30 3909 O 382.99 -2.87007 4.92933 0
M  V30 3910 O 381.924 -1.19143 5.8999 0
M  V30 3911 H 385.75 0.413982 3.00865 0
M  V30 3912 H 383.335 0.268556 1.46966 0
M  V30 3913 H 385.217 -1.92446 3.7489 0
M  V30 3914 H 383.892 -1.98788 2.5547 0
M  V30 3915 H 382.799 0.00276252 3.741 0
M  V30 3916 H 384.132 -0.0160534 4.92197 0
M  V30 3917 N 385.784 -1.5574 0.241426 0
M  V30 3918 C 386.714 -2.24133 -0.654722 0
M  V30 3919 C 387.695 -1.21974 -1.1856 0
M  V30 3920 O 388.88 -1.50612 -1.22595 0
M  V30 3921 C 386.01 -2.93659 -1.85423 0
M  V30 3922 C 384.964 -4.0246 -1.45636 0
M  V30 3923 C 384.29 -4.59383 -2.73626 0
M  V30 3924 C 385.59 -5.18468 -0.631506 0
M  V30 3925 H 387.284 -2.99281 -0.0844353 0
M  V30 3926 H 384.83 -1.43947 -0.0391707 0
M  V30 3927 H 386.783 -3.40203 -2.48676 0
M  V30 3928 H 385.507 -2.15991 -2.44981 0
M  V30 3929 H 384.166 -3.56676 -0.847202 0
M  V30 3930 H 383.814 -3.78422 -3.3137 0
M  V30 3931 H 383.514 -5.32826 -2.4773 0
M  V30 3932 H 385.038 -5.08658 -3.37786 0
M  V30 3933 H 386.452 -5.61272 -1.1682 0
M  V30 3934 H 384.849 -5.98266 -0.468831 0
M  V30 3935 H 385.919 -4.8358 0.357506 0
M  V30 3936 N 387.262 0.0317525 -1.57568 0
M  V30 3937 C 388.508 0.724175 -1.8943 0
M  V30 3938 C 388.841 1.75149 -0.838836 0
M  V30 3939 O 388.116 1.93948 0.146422 0
M  V30 3940 C 388.399 1.39615 -3.31933 0
M  V30 3941 C 388.252 0.382537 -4.4817 0
M  V30 3942 C 389.571 2.33084 -3.73309 0
M  V30 3943 H 386.69 0.261797 -0.688935 0
M  V30 3944 H 389.332 -0.013017 -1.89996 0
M  V30 3945 H 387.482 2.02451 -3.31581 0
M  V30 3946 H 389.154 -0.243689 -4.60656 0
M  V30 3947 H 387.397 -0.29844 -4.32772 0
M  V30 3948 H 388.068 0.891145 -5.44759 0
M  V30 3949 H 390.544 1.80295 -3.7501 0
M  V30 3950 H 389.42 2.77084 -4.73831 0
M  V30 3951 H 389.681 3.19643 -3.05419 0
M  V30 3952 N 388.74 1.54641 0.303973 0
M  V30 3953 C 389.65 1.88439 1.39743 0
M  V30 3954 C 390.666 0.778239 1.55626 0
M  V30 3955 O 391.842 1.07442 1.70347 0
M  V30 3956 C 388.907 2.12212 2.74166 0
M  V30 3957 C 387.968 3.35936 2.67293 0
M  V30 3958 C 387.201 3.58566 3.95305 0
M  V30 3959 O 387.424 2.84263 4.9452 0
M  V30 3960 O 386.358 4.52078 3.97378 0
M  V30 3961 H 390.184 2.81458 1.14083 0
M  V30 3962 H 387.769 1.40793 0.499768 0
M  V30 3963 H 389.651 2.29067 3.53704 0
M  V30 3964 H 388.326 1.22379 2.99675 0
M  V30 3965 H 387.233 3.24448 1.86237 0
M  V30 3966 H 388.566 4.2589 2.46736 0
M  V30 3967 N 390.218 -0.567019 1.47046 0
M  V30 3968 C 391.128 -1.70247 1.6141 0
M  V30 3969 C 392.144 -1.66746 0.497157 0
M  V30 3970 O 393.32 -1.86371 0.763389 0
M  V30 3971 C 390.385 -3.06756 1.61561 0
M  V30 3972 C 389.446 -3.21399 2.84607 0
M  V30 3973 C 388.679 -4.51396 2.84741 0
M  V30 3974 O 388.902 -5.36255 1.94388 0
M  V30 3975 O 387.836 -4.69621 3.76483 0
M  V30 3976 H 391.662 -1.61073 2.57467 0
M  V30 3977 H 389.247 -0.735894 1.30019 0
M  V30 3978 H 391.129 -3.8801 1.64396 0
M  V30 3979 H 389.804 -3.16333 0.686684 0
M  V30 3980 H 388.711 -2.39579 2.8732 0
M  V30 3981 H 390.044 -3.16721 3.76761 0
M  V30 3982 N 391.696 -1.35014 -0.812953 0
M  V30 3983 C 392.924 -1.31031 -1.6012 0
M  V30 3984 C 393.339 0.113558 -1.88458 0
M  V30 3985 O 392.696 1.06363 -1.48301 0
M  V30 3986 C 392.747 -2.10872 -2.93624 0
M  V30 3987 O 392.468 -3.47706 -2.66518 0
M  V30 3988 C 393.969 -2.14401 -3.88004 0
M  V30 3989 H 391.189 -0.45037 -0.497401 0
M  V30 3990 H 393.733 -1.77775 -1.01076 0
M  V30 3991 H 391.888 -1.67744 -3.492 0
M  V30 3992 H 392.302 -3.89097 -3.51715 0
M  V30 3993 H 393.776 -2.74669 -4.78812 0
M  V30 3994 H 394.253 -1.14105 -4.24119 0
M  V30 3995 H 394.859 -2.57662 -3.38364 0
M  V30 3996 N 393.175 1.03435 -1.18907 0
M  V30 3997 C 394.421 1.77005 -0.989798 0
M  V30 3998 C 394.754 1.88205 0.478816 0
M  V30 3999 O 394.029 1.39481 1.35556 0
M  V30 4000 C 394.312 3.19925 -1.65287 0
M  V30 4001 C 394.165 3.1663 -3.19477 0
M  V30 4002 C 395.484 4.18189 -1.37134 0
M  V30 4003 H 392.603 0.642538 -0.360991 0
M  V30 4004 H 395.245 1.20784 -1.46667 0
M  V30 4005 H 393.395 3.67929 -1.24741 0
M  V30 4006 H 395.067 2.76567 -3.692 0
M  V30 4007 H 393.31 2.54491 -3.51307 0
M  V30 4008 H 393.981 4.1758 -3.61013 0
M  V30 4009 H 396.457 3.78761 -1.72276 0
M  V30 4010 H 395.333 5.16394 -1.86087 0
M  V30 4011 H 395.594 4.41112 -0.295424 0
M  V30 4012 N 394.653 0.992116 1.22453 0
M  V30 4013 C 395.585 0.500024 2.23679 0
M  V30 4014 C 396.598 -0.404463 1.57696 0
M  V30 4015 O 397.787 -0.206722 1.77299 0
M  V30 4016 C 394.887 -0.294711 3.37616 0
M  V30 4017 C 394.06 0.605723 4.33186 0
M  V30 4018 C 393.119 -0.13717 5.26021 0
M  V30 4019 O 392.145 0.477164 5.67196 0
M  V30 4020 N 393.347 -1.4197 5.62872 0
M  V30 4021 H 396.112 1.37045 2.66531 0
M  V30 4022 H 393.673 0.866741 1.36745 0
M  V30 4023 H 395.665 -0.800329 3.96707 0
M  V30 4024 H 394.235 -1.06623 2.93854 0
M  V30 4025 H 393.455 1.29202 3.72425 0
M  V30 4026 H 394.743 1.21896 4.93983 0
M  V30 4027 H 394.141 -1.94015 5.31389 0
M  V30 4028 H 392.698 -1.87052 6.24383 0
M  V30 4029 N 396.131 -1.37776 0.765217 0
M  V30 4030 C 397.094 -2.28686 0.153416 0
M  V30 4031 C 398.094 -1.47727 -0.635081 0
M  V30 4032 O 399.284 -1.68027 -0.459632 0
M  V30 4033 C 396.416 -3.31608 -0.790495 0
M  V30 4034 H 397.609 -2.84297 0.954723 0
M  V30 4035 H 395.162 -1.46932 0.53299 0
M  V30 4036 H 395.897 -2.81109 -1.61705 0
M  V30 4037 H 395.682 -3.9144 -0.227348 0
M  V30 4038 H 397.172 -3.99559 -1.21419 0
M  V30 4039 N 397.609 -0.515225 -1.4894 0
M  V30 4040 C 398.542 0.302518 -2.26186 0
M  V30 4041 C 399.52 0.957895 -1.31389 0
M  V30 4042 O 400.704 0.985198 -1.60705 0
M  V30 4043 C 397.831 1.42719 -3.07163 0
M  V30 4044 C 396.877 0.884736 -4.17223 0
M  V30 4045 S 397.71 -0.235767 -5.34981 0
M  V30 4046 C 398.866 0.891731 -6.19515 0
M  V30 4047 H 399.099 -0.353076 -2.95196 0
M  V30 4048 H 396.632 -0.300753 -1.51443 0
M  V30 4049 H 398.59 2.07152 -3.54398 0
M  V30 4050 H 397.251 2.05445 -2.37595 0
M  V30 4051 H 396.444 1.72801 -4.73451 0
M  V30 4052 H 396.046 0.317362 -3.72651 0
M  V30 4053 H 398.338 1.79377 -6.53322 0
M  V30 4054 H 399.281 0.367751 -7.07144 0
M  V30 4055 H 399.689 1.16548 -5.52338 0
M  V30 4056 N 399.087 1.5561 -0.249682 0
M  V30 4057 C 399.997 2.25143 0.659375 0
M  V30 4058 C 401.013 1.2685 1.19101 0
M  V30 4059 O 402.189 1.59732 1.22669 0
M  V30 4060 C 399.254 2.93945 1.8384 0
M  V30 4061 C 398.315 4.07655 1.34596 0
M  V30 4062 C 397.548 4.73167 2.46878 0
M  V30 4063 O 397.771 4.37768 3.65671 0
M  V30 4064 O 396.705 5.61623 2.16478 0
M  V30 4065 H 400.531 3.03545 0.0968698 0
M  V30 4066 H 398.116 1.49389 -0.018074 0
M  V30 4067 H 399.998 3.37271 2.52638 0
M  V30 4068 H 398.673 2.18481 2.38847 0
M  V30 4069 H 397.58 3.68839 0.625174 0
M  V30 4070 H 398.913 4.84946 0.841941 0
M  V30 4071 N 400.565 -0.0233959 1.57583 0
M  V30 4072 C 401.811 -0.714119 1.89811 0
M  V30 4073 C 402.144 -1.74702 0.848113 0
M  V30 4074 O 401.419 -1.94023 -0.136135 0
M  V30 4075 C 401.702 -1.37853 3.32669 0
M  V30 4076 C 401.555 -0.358764 4.48367 0
M  V30 4077 C 402.874 -2.31101 3.7454 0
M  V30 4078 H 399.993 -0.25814 0.690314 0
M  V30 4079 H 402.635 0.0230927 1.89986 0
M  V30 4080 H 400.785 -2.00689 3.3265 0
M  V30 4081 H 402.457 0.268115 4.6052 0
M  V30 4082 H 400.7 0.321387 4.32608 0
M  V30 4083 H 401.371 -0.862242 5.45224 0
M  V30 4084 H 403.847 -1.78304 3.75961 0
M  V30 4085 H 402.723 -2.74567 4.75294 0
M  V30 4086 H 402.984 -3.18018 3.0711 0
M  V30 4087 N 402.043 -1.548 -0.295768 0
M  V30 4088 C 402.953 -1.89177 -1.38742 0
M  V30 4089 C 403.969 -0.786481 -1.55211 0
M  V30 4090 O 405.145 -1.08344 -1.69775 0
M  V30 4091 C 402.21 -2.13663 -2.73036 0
M  V30 4092 C 401.271 -3.37349 -2.65508 0
M  V30 4093 C 400.504 -3.60658 -3.93398 0
M  V30 4094 O 400.727 -2.86882 -4.93006 0
M  V30 4095 O 399.661 -4.54179 -3.94975 0
M  V30 4096 H 403.487 -2.82059 -1.12589 0
M  V30 4097 H 401.072 -1.41056 -0.492295 0
M  V30 4098 H 402.954 -2.3094 -3.52484 0
M  V30 4099 H 401.629 -1.23967 -2.99022 0
M  V30 4100 H 400.536 -3.25431 -1.84514 0
M  V30 4101 H 401.869 -4.27192 -2.44474 0
M  V30 4102 O 403.56 0.441645 -1.55344 0
M  V30 4103 H 404.251 1.0953 -1.59759 0
M  V30 END ATOM
M  V30 BEGIN BOND
M  V30 END BOND
M  V30 END CTAB
M  END
$$$$
