drugbank_target|P40406 Beta-hexosaminidase (DB08357)
 OpenBabel12092120503D

  0  0  0     0  0            999 V3000
M  V30 BEGIN CTAB
M  V30 COUNTS 10056 10146 0 0 0
M  V30 BEGIN ATOM
M  V30 1 H -0.908 1.98254 -0.117106 0
M  V30 2 N 0 1.576 0 0
M  V30 3 C 0.933 2.03868 1.02534 0
M  V30 4 C 1.911 0.928543 1.3348 0
M  V30 5 O 3.095 1.19667 1.45644 0
M  V30 6 C 0.222 2.43627 2.35294 0
M  V30 7 C -0.732 3.65373 2.2001 0
M  V30 8 S 0.101 5.13292 1.52614 0
M  V30 9 C 1.257 5.56322 2.86805 0
M  V30 10 H 1.49 2.90518 0.631377 0
M  V30 11 H -0.977 1.52953 0.210867 0
M  V30 12 H 0.981 2.67203 3.11629 0
M  V30 13 H -0.358 1.57376 2.7183 0
M  V30 14 H -1.165 3.90944 3.18086 0
M  V30 15 H -1.563 3.418 1.51819 0
M  V30 16 H 0.729 5.58782 3.83104 0
M  V30 17 H 1.672 6.56266 2.65933 0
M  V30 18 H 2.08 4.83886 2.90714 0
M  V30 19 N 1.4781 -0.272755 1.55222 0
M  V30 20 C 2.8941 -0.619959 1.47067 0
M  V30 21 C 3.0941 -1.895 0.684978 0
M  V30 22 O 2.1501 -2.51675 0.203931 0
M  V30 23 C 3.4631 -0.746693 2.91282 0
M  V30 24 C 5.0111 -0.840731 3.01497 0
M  V30 25 C 5.4861 -0.99924 4.46967 0
M  V30 26 N 6.9771 -1.06476 4.50796 0
M  V30 27 C 7.7121 -1.20621 5.6057 0
M  V30 28 N 7.2081 -1.31483 6.80209 0
M  V30 29 N 9.0011 -1.23733 5.48312 0
M  V30 30 H 1.1521 0.564606 2.04758 0
M  V30 31 H 3.4151 0.191177 0.928523 0
M  V30 32 H 3.1211 0.119753 3.51496 0
M  V30 33 H 2.9951 -1.6269 3.40311 0
M  V30 34 H 5.3821 -1.69764 2.41379 0
M  V30 35 H 5.4631 0.0640874 2.5572 0
M  V30 36 H 5.1071 -0.146984 5.07687 0
M  V30 37 H 5.0371 -1.91871 4.90401 0
M  V30 38 H 7.5281 -0.993196 3.64615 0
M  V30 39 H 7.8411 -1.42111 7.59621 0
M  V30 40 H 6.1861 -1.28487 6.8302 0
M  V30 41 H 9.3771 -1.14877 4.53785 0
M  V30 42 H 9.5501 -1.34412 6.33906 0
M  V30 43 N 2.9562 -1.48159 -0.537278 0
M  V30 44 C 4.3672 -1.49429 -1.11928 0
M  V30 45 C 4.7182 -0.26 -1.9447 0
M  V30 46 O 3.8432 0.633489 -2.0692 0
M  V30 47 C 4.4382 -2.70758 -2.03656 0
M  V30 48 C 2.9972 -2.74923 -2.57088 0
M  V30 49 C 2.1442 -2.42835 -1.3389 0
M  V30 50 H 5.0952 -1.55381 -0.322886 0
M  V30 51 H 5.1162 -2.48861 -2.87834 0
M  V30 52 H 4.6282 -3.60575 -1.43553 0
M  V30 53 H 2.7292 -1.89296 -3.20933 0
M  V30 54 H 2.8422 -3.76157 -2.9672 0
M  V30 55 H 1.2062 -1.93836 -1.65226 0
M  V30 56 H 1.9892 -3.34884 -0.755504 0
M  V30 57 N 4.4343 0.785586 -1.36625 0
M  V30 58 C 5.6803 1.54591 -1.31261 0
M  V30 59 C 6.0133 1.93906 0.106823 0
M  V30 60 O 5.2883 1.63007 1.06108 0
M  V30 61 C 5.5713 2.82038 -2.23889 0
M  V30 62 C 5.4243 2.49066 -3.74548 0
M  V30 63 C 6.7433 3.83887 -2.15217 0
M  V30 64 H 3.8623 0.560846 -0.478143 0
M  V30 65 H 6.5043 0.902278 -1.67209 0
M  V30 66 H 4.6543 3.36961 -1.93363 0
M  V30 67 H 6.3263 2.00164 -4.15611 0
M  V30 68 H 4.5693 1.81954 -3.93796 0
M  V30 69 H 5.2403 3.40109 -4.34776 0
M  V30 70 H 7.7163 3.38421 -2.42096 0
M  V30 71 H 6.5923 4.70806 -2.82193 0
M  V30 72 H 6.8533 4.27131 -1.14068 0
M  V30 73 N 5.9124 1.20967 1.01018 0
M  V30 74 C 7.1594 1.02374 1.74716 0
M  V30 75 C 7.4874 -0.443375 1.89379 0
M  V30 76 O 6.7424 -1.34535 1.42123 0
M  V30 77 C 7.0414 1.65997 3.16512 0
M  V30 78 C 6.7074 3.15831 3.2181 0
M  V30 79 C 5.3694 3.56719 3.22963 0
M  V30 80 C 7.7214 4.11816 3.19464 0
M  V30 81 C 5.0494 4.92107 3.19449 0
M  V30 82 C 7.4014 5.47158 3.17491 0
M  V30 83 C 6.0654 5.87451 3.16951 0
M  V30 84 H 5.3354 0.374614 0.639332 0
M  V30 85 H 7.9824 1.50485 1.18434 0
M  V30 86 H 6.2874 1.10166 3.75993 0
M  V30 87 H 7.9844 1.49119 3.72242 0
M  V30 88 H 4.5744 2.83263 3.21652 0
M  V30 89 H 8.7584 3.81257 3.17737 0
M  V30 90 H 4.0144 5.22579 3.17366 0
M  V30 91 H 8.1884 6.21274 3.14629 0
M  V30 92 H 5.8154 6.92329 3.13983 0
M  V30 93 N 7.3905 -1.2043 1.01659 0
M  V30 94 C 8.8015 -1.71517 0.737482 0
M  V30 95 C 9.1525 -1.81547 -0.743973 0
M  V30 96 O 8.2775 -1.47803 -1.58061 0
M  V30 97 C 8.8725 -3.11515 1.33206 0
M  V30 98 C 7.4315 -3.59912 1.10183 0
M  V30 99 C 6.5785 -2.37116 1.43776 0
M  V30 100 H 9.5295 -1.05444 1.18606 0
M  V30 101 H 9.5505 -3.73575 0.722636 0
M  V30 102 H 9.0625 -3.04182 2.41028 0
M  V30 103 H 7.1635 -3.72577 0.0412756 0
M  V30 104 H 7.2765 -4.44731 1.78188 0
M  V30 105 H 5.6405 -2.39857 0.856778 0
M  V30 106 H 6.4235 -2.32424 2.52654 0
M  V30 107 N 8.8686 -0.792821 -1.36206 0
M  V30 108 C 9.7986 -0.207853 -2.32573 0
M  V30 109 C 10.7796 0.659055 -1.56813 0
M  V30 110 O 11.9646 0.592176 -1.84951 0
M  V30 111 C 9.0946 0.655449 -3.41059 0
M  V30 112 C 8.0486 -0.111842 -4.27854 0
M  V30 113 C 7.3746 0.872274 -5.27537 0
M  V30 114 C 8.6746 -1.30299 -5.05786 0
M  V30 115 H 10.3686 -1.01294 -2.81744 0
M  V30 116 H 7.9146 -0.48854 -1.3546 0
M  V30 117 H 9.8676 1.07464 -4.07467 0
M  V30 118 H 8.5916 1.49328 -2.90463 0
M  V30 119 H 7.2506 -0.512053 -3.63006 0
M  V30 120 H 6.8986 1.70523 -4.73214 0
M  V30 121 H 6.5986 0.363291 -5.86476 0
M  V30 122 H 8.1226 1.28996 -5.96818 0
M  V30 123 H 9.5366 -0.959379 -5.65216 0
M  V30 124 H 7.9336 -1.7455 -5.74154 0
M  V30 125 H 9.0036 -2.09663 -4.37229 0
M  V30 126 N 10.3467 1.47872 -0.545128 0
M  V30 127 C 11.5957 2.01695 -0.0145033 0
M  V30 128 C 11.9087 1.42609 1.33873 0
M  V30 129 O 13.1147 1.88021 1.95858 0
M  V30 130 C 11.5707 3.59892 0.0245068 0
M  V30 131 C 11.1787 4.27966 -1.32475 0
M  V30 132 C 12.9227 4.21507 0.50316 0
M  V30 133 C 10.8297 5.78136 -1.2455 0
M  V30 134 H 9.7597 0.753998 -0.00165172 0
M  V30 135 H 12.4107 1.69985 -0.691175 0
M  V30 136 H 10.7927 3.88509 0.766575 0
M  V30 137 H 11.9667 4.11003 -2.08357 0
M  V30 138 H 10.2817 3.78286 -1.74036 0
M  V30 139 H 12.8787 5.31538 0.580656 0
M  V30 140 H 13.2217 3.87855 1.51243 0
M  V30 141 H 13.7547 3.97376 -0.183681 0
M  V30 142 H 10.4937 6.16388 -2.23039 0
M  V30 143 H 10.0137 5.97469 -0.528282 0
M  V30 144 H 11.6927 6.40099 -0.942488 0
M  V30 145 N 11.8248 0.280983 1.55075 0
M  V30 146 C 12.7548 -0.597469 2.25727 0
M  V30 147 C 13.7358 -1.15417 1.24952 0
M  V30 148 O 14.9208 -1.18722 1.53684 0
M  V30 149 C 12.0508 -1.7789 2.98283 0
M  V30 150 C 11.0048 -1.35347 4.06036 0
M  V30 151 C 10.3308 -2.61846 4.66198 0
M  V30 152 C 11.6308 -0.499354 5.19907 0
M  V30 153 H 13.3248 -0.00824265 2.99399 0
M  V30 154 H 10.8708 -0.0025244 1.44 0
M  V30 155 H 12.8238 -2.39937 3.46422 0
M  V30 156 H 11.5478 -2.39405 2.22155 0
M  V30 157 H 10.2068 -0.756156 3.58717 0
M  V30 158 H 9.8548 -3.21632 3.86732 0
M  V30 159 H 9.5548 -2.3409 5.38958 0
M  V30 160 H 11.0788 -3.24732 5.1709 0
M  V30 161 H 12.4928 -1.02498 5.64063 0
M  V30 162 H 10.8898 -0.316424 5.99265 0
M  V30 163 H 11.9598 0.480459 4.82514 0
M  V30 164 N 13.3029 -1.57598 0.00835791 0
M  V30 165 C 14.5279 -1.95617 -0.689103 0
M  V30 166 C 14.9529 -0.883753 -1.66046 0
M  V30 167 O 14.3109 0.157352 -1.80616 0
M  V30 168 C 14.3589 -3.32736 -1.38994 0
M  V30 169 O 13.4629 -3.27631 -2.50463 0
M  V30 170 H 12.8039 -0.638379 -0.182668 0
M  V30 171 H 15.3339 -2.045 0.064036 0
M  V30 172 H 15.3439 -3.68494 -1.75147 0
M  V30 173 H 14.0189 -4.1034 -0.677778 0
M  V30 174 H 12.5959 -3.03561 -2.16576 0
M  V30 175 N 14.781 0.264519 -1.55364 0
M  V30 176 C 15.744 1.31046 -1.88042 0
M  V30 177 C 16.744 1.41943 -0.755569 0
M  V30 178 O 17.934 1.40947 -1.02369 0
M  V30 179 C 15.066 2.69067 -2.09323 0
M  V30 180 H 16.259 1.03297 -2.81549 0
M  V30 181 H 13.812 0.502989 -1.47986 0
M  V30 182 H 14.547 3.01982 -1.18226 0
M  V30 183 H 14.332 2.62542 -2.91229 0
M  V30 184 H 15.822 3.44623 -2.35848 0
M  V30 185 N 16.2591 1.48442 0.529413 0
M  V30 186 C 17.5051 1.5672 1.28711 0
M  V30 187 C 17.8381 0.2406 1.92704 0
M  V30 188 O 17.1131 -0.753454 1.79313 0
M  V30 189 C 17.3961 2.70587 2.37603 0
M  V30 190 C 17.2491 4.12953 1.78297 0
M  V30 191 C 18.5681 2.80212 3.39366 0
M  V30 192 H 15.6871 0.570474 0.466613 0
M  V30 193 H 18.3291 1.80617 0.589706 0
M  V30 194 H 16.4791 2.50342 2.97088 0
M  V30 195 H 18.1511 4.44639 1.22858 0
M  V30 196 H 16.3941 4.19927 1.0883 0
M  V30 197 H 17.0651 4.88448 2.57144 0
M  V30 198 H 19.5411 2.98553 2.89836 0
M  V30 199 H 18.4171 3.61611 4.12951 0
M  V30 200 H 18.6781 1.88393 3.99951 0
M  V30 201 N 17.7372 -0.778329 1.37039 0
M  V30 202 C 18.6672 -1.90546 1.34962 0
M  V30 203 C 19.6482 -1.68681 0.219274 0
M  V30 204 O 20.8332 -1.89634 0.418624 0
M  V30 205 C 17.9632 -3.27734 1.14925 0
M  V30 206 C 16.9172 -3.64147 2.24902 0
M  V30 207 C 16.2432 -4.99806 1.89996 0
M  V30 208 C 17.5432 -3.71579 3.67051 0
M  V30 209 H 19.2372 -1.92541 2.29277 0
M  V30 210 H 16.7832 -0.924948 1.10366 0
M  V30 211 H 18.7362 -4.06215 1.12104 0
M  V30 212 H 17.4602 -3.26154 0.170631 0
M  V30 213 H 16.1192 -2.8797 2.26868 0
M  V30 214 H 15.7672 -4.94759 0.906796 0
M  V30 215 H 15.4672 -5.25139 2.63634 0
M  V30 216 H 16.9912 -5.80694 1.88749 0
M  V30 217 H 18.4052 -4.40227 3.67251 0
M  V30 218 H 16.8022 -4.08405 4.39688 0
M  V30 219 H 17.8722 -2.72404 4.01154 0
M  V30 220 N 19.2153 -1.21501 -1.00376 0
M  V30 221 C 20.4623 -1.03299 -1.74171 0
M  V30 222 C 20.7903 0.433326 -1.89612 0
M  V30 223 O 20.0453 1.33779 -1.42834 0
M  V30 224 C 20.3443 -1.67673 -3.15627 0
M  V30 225 C 20.0103 -3.17533 -3.2013 0
M  V30 226 C 18.6723 -3.58427 -3.21067 0
M  V30 227 C 21.0243 -4.13504 -3.17275 0
M  V30 228 C 18.3523 -4.93794 -3.16835 0
M  V30 229 C 20.7043 -5.48834 -3.14585 0
M  V30 230 C 19.3683 -5.89123 -3.13831 0
M  V30 231 H 18.6383 -0.377999 -0.637336 0
M  V30 232 H 21.2853 -1.51111 -1.17634 0
M  V30 233 H 19.5903 -1.12158 -3.75404 0
M  V30 234 H 21.2873 -1.51091 -3.71446 0
M  V30 235 H 17.8773 -2.84965 -3.20145 0
M  V30 236 H 22.0613 -3.82936 -3.15711 0
M  V30 237 H 17.3173 -5.24255 -3.1459 0
M  V30 238 H 21.4913 -6.22934 -3.1133 0
M  V30 239 H 19.1183 -6.93984 -3.10307 0
M  V30 240 N 20.6934 1.19889 -1.02296 0
M  V30 241 C 21.6234 2.25141 -0.619174 0
M  V30 242 C 22.6044 1.66051 0.368915 0
M  V30 243 O 23.7894 1.92546 0.252941 0
M  V30 244 C 20.9194 3.4728 0.0368783 0
M  V30 245 C 19.8734 4.19005 -0.872865 0
M  V30 246 C 19.1994 5.34637 -0.0822402 0
M  V30 247 C 20.4994 4.74452 -2.18387 0
M  V30 248 H 22.1934 2.59171 -1.49903 0
M  V30 249 H 19.7394 1.24579 -0.722222 0
M  V30 250 H 21.6924 4.20098 0.330958 0
M  V30 251 H 20.4164 3.12433 0.95149 0
M  V30 252 H 19.0754 3.48061 -1.15105 0
M  V30 253 H 18.7234 4.96034 0.83422 0
M  V30 254 H 18.4234 5.83557 -0.688149 0
M  V30 255 H 19.9474 6.10255 0.205238 0
M  V30 256 H 21.3614 5.39055 -1.95172 0
M  V30 257 H 19.7584 5.33834 -2.74119 0
M  V30 258 H 20.8284 3.92844 -2.84257 0
M  V30 259 N 22.1715 0.800033 1.35784 0
M  V30 260 C 23.3965 0.388511 2.03729 0
M  V30 261 C 23.8215 -0.990481 1.5991 0
M  V30 262 O 23.1795 -1.64013 0.772612 0
M  V30 263 C 23.2275 0.4726 3.5749 0
M  V30 264 O 22.3315 -0.51646 4.09153 0
M  V30 265 H 21.6725 0.163271 0.643614 0
M  V30 266 H 24.2025 1.0841 1.73518 0
M  V30 267 H 24.2125 0.34003 4.06581 0
M  V30 268 H 22.8875 1.47848 3.88734 0
M  V30 269 H 21.4645 -0.344673 3.71304 0
M  V30 270 N 23.6496 -1.47581 0.552962 0
M  V30 271 C 24.8896 -2.04379 0.0296245 0
M  V30 272 C 25.2536 -1.4185 -1.29393 0
M  V30 273 O 26.4546 -1.89669 -1.90471 0
M  V30 274 C 24.7256 -3.57339 -0.0661371 0
M  V30 275 S 26.2846 -4.35511 -0.536213 0
M  V30 276 H 23.1026 -0.710625 0.0230991 0
M  V30 277 H 25.7046 -1.81005 0.738734 0
M  V30 278 H 24.4086 -4.00374 0.901596 0
M  V30 279 H 23.9396 -3.85202 -0.798931 0
M  V30 280 H 25.9546 -4.6253 -1.79668 0
M  V30 281 N 25.1277 -0.289203 -1.54924 0
M  V30 282 C 26.3747 0.323519 -1.99899 0
M  V30 283 C 26.7027 1.54797 -1.17762 0
M  V30 284 O 25.9577 1.94237 -0.238835 0
M  V30 285 C 26.2567 0.736119 -3.49737 0
M  V30 286 C 25.9227 -0.385276 -4.49251 0
M  V30 287 C 24.5847 -0.693156 -4.76181 0
M  V30 288 C 26.9367 -1.14021 -5.08575 0
M  V30 289 C 24.2647 -1.7593 -5.59701 0
M  V30 290 C 26.6167 -2.19619 -5.93254 0
M  V30 291 C 25.2807 -2.51026 -6.185 0
M  V30 292 H 24.5507 0.118384 -0.731482 0
M  V30 293 H 27.1977 -0.405847 -1.8715 0
M  V30 294 H 25.5027 1.54539 -3.60035 0
M  V30 295 H 27.1997 1.22118 -3.81953 0
M  V30 296 H 23.7897 -0.135202 -4.28387 0
M  V30 297 H 27.9737 -0.915611 -4.87781 0
M  V30 298 H 23.2297 -2.0075 -5.77503 0
M  V30 299 H 27.4037 -2.78581 -6.38252 0
M  V30 300 H 25.0307 -3.33772 -6.83008 0
M  V30 301 N 26.6058 1.57591 -0.0167156 0
M  V30 302 C 27.8528 1.91283 0.664597 0
M  V30 303 C 28.1808 0.891949 1.72842 0
M  V30 304 O 27.4358 -0.100931 1.9544 0
M  V30 305 C 27.7348 3.3172 1.33029 0
M  V30 306 C 27.4008 4.4914 0.398047 0
M  V30 307 C 26.0628 4.80992 0.141421 0
M  V30 308 C 28.4148 5.20634 -0.242825 0
M  V30 309 C 25.7428 5.81703 -0.764092 0
M  V30 310 C 28.0948 6.22311 -1.13632 0
M  V30 311 C 26.7588 6.52611 -1.40196 0
M  V30 312 H 26.0288 0.699956 0.243193 0
M  V30 313 H 28.6758 1.9135 -0.0758267 0
M  V30 314 H 26.9808 3.27856 2.14517 0
M  V30 315 H 28.6778 3.55055 1.86379 0
M  V30 316 H 25.2678 4.24262 0.608238 0
M  V30 317 H 29.4518 4.96267 -0.0576019 0
M  V30 318 H 24.7078 6.03532 -0.977732 0
M  V30 319 H 28.8818 6.76834 -1.63917 0
M  V30 320 H 26.5088 7.30467 -2.10529 0
M  V30 321 N 28.0839 -0.256276 1.55502 0
M  V30 322 C 29.3319 -0.983672 1.76545 0
M  V30 323 C 29.6529 -1.86206 0.578982 0
M  V30 324 O 28.9229 -1.91656 -0.405577 0
M  V30 325 H 27.5029 -0.366191 0.651086 0
M  V30 326 H 30.1649 -0.276479 1.92929 0
M  V30 327 H 29.2609 -1.61087 2.67315 0
M  V30 328 N 29.562 -1.4872 -0.521534 0
M  V30 329 C 30.525 -1.63379 -1.60748 0
M  V30 330 C 31.525 -0.50661 -1.52611 0
M  V30 331 O 32.715 -0.772601 -1.5613 0
M  V30 332 C 29.847 -1.61192 -3.00383 0
M  V30 333 H 31.04 -2.60217 -1.49087 0
M  V30 334 H 28.593 -1.37444 -0.744235 0
M  V30 335 H 29.328 -0.65863 -3.17541 0
M  V30 336 H 29.113 -2.43032 -3.07698 0
M  V30 337 H 30.603 -1.7466 -3.7932 0
M  V30 338 N 31.0401 0.771051 -1.3745 0
M  V30 339 C 32.4561 1.07171 -1.18265 0
M  V30 340 C 32.6561 2.01491 -0.019287 0
M  V30 341 O 31.7121 2.44244 0.640408 0
M  V30 342 C 33.0251 1.66854 -2.50161 0
M  V30 343 C 34.5731 1.79109 -2.56689 0
M  V30 344 C 35.0481 2.42205 -3.88717 0
M  V30 345 N 36.5391 2.49655 -3.90162 0
M  V30 346 C 37.2741 2.9933 -4.8907 0
M  V30 347 N 36.7701 3.49172 -5.98374 0
M  V30 348 N 38.5631 2.9821 -4.76474 0
M  V30 349 H 30.7141 0.144796 -2.11906 0
M  V30 350 H 32.9771 0.126863 -0.939473 0
M  V30 351 H 32.6831 1.05017 -3.35655 0
M  V30 352 H 32.5571 2.6614 -2.673 0
M  V30 353 H 34.9441 2.40077 -1.71601 0
M  V30 354 H 35.0251 0.785757 -2.43433 0
M  V30 355 H 34.6691 1.81875 -4.74219 0
M  V30 356 H 34.5991 3.43345 -3.99276 0
M  V30 357 H 37.0901 2.14383 -3.11205 0
M  V30 358 H 37.4031 3.8548 -6.69795 0
M  V30 359 H 35.7481 3.47275 -6.02018 0
M  V30 360 H 38.9391 2.58572 -3.90203 0
M  V30 361 H 39.1121 3.36613 -5.53711 0
M  V30 362 N 32.5182 1.22032 0.997298 0
M  V30 363 C 33.4502 0.944263 2.08845 0
M  V30 364 C 34.4632 -0.0754663 1.62625 0
M  V30 365 O 35.6522 0.157994 1.77799 0
M  V30 366 C 32.7522 0.397723 3.36558 0
M  V30 367 C 31.9252 1.47362 4.11829 0
M  V30 368 C 30.9842 0.934951 5.17827 0
M  V30 369 O 30.0102 1.62016 5.45655 0
M  V30 370 N 31.2122 -0.245895 5.79979 0
M  V30 371 H 33.9772 1.88363 2.33109 0
M  V30 372 H 31.5382 1.12661 1.16272 0
M  V30 373 H 33.5302 0.0227771 4.04694 0
M  V30 374 H 32.1002 -0.446646 3.09393 0
M  V30 375 H 31.3202 2.02208 3.38386 0
M  V30 376 H 32.6082 2.19764 4.58891 0
M  V30 377 H 32.0062 -0.819475 5.59733 0
M  V30 378 H 30.5632 -0.562272 6.4937 0
M  V30 379 N 33.9963 -1.19345 1.0293 0
M  V30 380 C 35.2243 -1.92997 0.745644 0
M  V30 381 C 35.6393 -1.75519 -0.695589 0
M  V30 382 O 34.9963 -1.07737 -1.47306 0
M  V30 383 C 35.0473 -3.44741 1.08792 0
M  V30 384 O 34.7683 -3.61658 2.47256 0
M  V30 385 C 36.2693 -4.35515 0.827129 0
M  V30 386 H 33.4893 -0.613042 0.272801 0
M  V30 387 H 36.0333 -1.51473 1.3739 0
M  V30 388 H 34.1883 -3.84097 0.504832 0
M  V30 389 H 34.6023 -4.55514 2.60015 0
M  V30 390 H 36.0763 -5.40589 1.11658 0
M  V30 391 H 36.5533 -4.38552 -0.238436 0
M  V30 392 H 37.1593 -4.01841 1.39297 0
M  V30 393 N 35.4744 -0.807222 -1.35358 0
M  V30 394 C 36.3844 -0.219594 -2.3357 0
M  V30 395 C 37.4004 0.637734 -1.61892 0
M  V30 396 O 38.5764 0.549336 -1.93763 0
M  V30 397 C 35.6414 0.62158 -3.41083 0
M  V30 398 C 34.7024 -0.256315 -4.28534 0
M  V30 399 C 33.9354 0.544807 -5.30912 0
M  V30 400 O 34.1584 1.77944 -5.41934 0
M  V30 401 O 33.0924 -0.0646478 -6.01865 0
M  V30 402 H 36.9184 -1.03208 -2.85625 0
M  V30 403 H 34.5034 -0.569025 -1.38139 0
M  V30 404 H 36.3854 1.10067 -4.06772 0
M  V30 405 H 35.0604 1.41165 -2.91297 0
M  V30 406 H 33.9674 -0.782559 -3.65823 0
M  V30 407 H 35.3004 -1.01034 -4.81719 0
M  V30 408 N 36.9525 1.47285 -0.560781 0
M  V30 409 C 37.9155 2.28535 0.174488 0
M  V30 410 C 38.9155 1.37153 0.839388 0
M  V30 411 O 40.1055 1.59748 0.694702 0
M  V30 412 C 37.2375 3.16934 1.25561 0
M  V30 413 H 38.4305 2.95012 -0.539262 0
M  V30 414 H 35.9835 1.53034 -0.317865 0
M  V30 415 H 36.7185 2.55157 2.00164 0
M  V30 416 H 36.5035 3.8419 0.783604 0
M  V30 417 H 37.9935 3.78143 1.77193 0
M  V30 418 N 38.4306 0.297415 1.54768 0
M  V30 419 C 39.6556 -0.318435 2.04941 0
M  V30 420 C 40.0806 -1.4701 1.17345 0
M  V30 421 O 39.4386 -1.80436 0.176758 0
M  V30 422 C 39.4866 -0.755749 3.52592 0
M  V30 423 O 38.5906 -1.86088 3.68028 0
M  V30 424 H 37.9316 -0.062421 0.661059 0
M  V30 425 H 40.4616 0.438215 1.99852 0
M  V30 426 H 40.4716 -1.04552 3.94376 0
M  V30 427 H 39.1466 0.0867233 4.1581 0
M  V30 428 H 37.7236 -1.57193 3.38149 0
M  V30 429 N 39.9087 -1.5758 0.0250728 0
M  V30 430 C 40.8717 -2.08896 -0.943139 0
M  V30 431 C 41.8717 -1.00321 -1.25668 0
M  V30 432 O 43.0617 -1.26495 -1.19769 0
M  V30 433 C 40.1937 -2.55143 -2.26086 0
M  V30 434 H 41.3867 -2.95723 -0.498775 0
M  V30 435 H 38.9397 -1.54703 -0.222888 0
M  V30 436 H 39.6747 -1.71633 -2.75159 0
M  V30 437 H 39.4597 -3.34461 -2.04641 0
M  V30 438 H 40.9497 -2.95083 -2.95492 0
M  V30 439 N 41.3868 0.248026 -1.55636 0
M  V30 440 C 42.6118 0.998028 -1.81808 0
M  V30 441 C 43.0368 1.78207 -0.601979 0
M  V30 442 O 42.3948 1.75653 0.448961 0
M  V30 443 C 42.4428 1.9125 -3.05705 0
M  V30 444 O 41.5468 3.00406 -2.82542 0
M  V30 445 H 40.8878 0.284045 -0.600179 0
M  V30 446 H 43.4178 0.269357 -2.02819 0
M  V30 447 H 43.4278 2.32737 -3.35108 0
M  V30 448 H 42.1028 1.33602 -3.93857 0
M  V30 449 H 40.6798 2.63056 -2.64303 0
M  V30 450 N 42.8649 1.48995 0.513639 0
M  V30 451 C 43.8119 1.6473 1.61656 0
M  V30 452 C 44.7819 0.488984 1.58739 0
M  V30 453 O 45.9669 0.714478 1.76918 0
M  V30 454 C 43.1069 1.7082 2.99858 0
M  V30 455 C 42.2199 2.9787 3.12885 0
M  V30 456 C 41.3549 2.95017 4.41744 0
M  V30 457 C 40.3939 4.16702 4.48359 0
M  V30 458 N 39.5309 4.11832 5.68629 0
M  V30 459 H 44.3709 2.58909 1.47547 0
M  V30 460 H 41.9079 1.28382 0.71808 0
M  V30 461 H 43.8659 1.72331 3.79944 0
M  V30 462 H 42.4959 0.801181 3.12699 0
M  V30 463 H 41.5479 3.06029 2.25944 0
M  V30 464 H 42.8599 3.8786 3.13633 0
M  V30 465 H 42.0139 2.95021 5.30139 0
M  V30 466 H 40.7529 2.02784 4.43542 0
M  V30 467 H 39.7579 4.16955 3.58369 0
M  V30 468 H 40.9829 5.10113 4.48287 0
M  V30 469 H 38.9289 3.22428 5.71293 0
M  V30 470 H 38.8459 4.95543 5.7094 0
M  V30 471 H 40.1139 4.1592 6.59266 0
M  V30 472 N 44.343 -0.763751 1.37857 0
M  V30 473 C 45.759 -1.06542 1.18832 0
M  V30 474 C 45.959 -2.01478 0.0299722 0
M  V30 475 O 45.015 -2.4458 -0.627447 0
M  V30 476 C 46.328 -1.65525 2.51042 0
M  V30 477 C 47.876 -1.77745 2.57635 0
M  V30 478 C 48.351 -2.4014 3.89996 0
M  V30 479 N 49.842 -2.47582 3.91481 0
M  V30 480 C 50.577 -2.96732 4.9065 0
M  V30 481 N 50.073 -3.45993 6.00217 0
M  V30 482 N 51.866 -2.95679 4.78048 0
M  V30 483 H 44.017 -0.133556 2.1198 0
M  V30 484 H 46.28 -0.121879 0.940133 0
M  V30 485 H 45.986 -1.03236 3.36207 0
M  V30 486 H 45.86 -2.64719 2.68707 0
M  V30 487 H 48.247 -2.39164 1.72872 0
M  V30 488 H 48.328 -0.772836 2.43846 0
M  V30 489 H 47.972 -1.79358 4.75177 0
M  V30 490 H 47.902 -3.41223 4.01092 0
M  V30 491 H 50.393 -2.1273 3.12337 0
M  V30 492 H 50.706 -3.81922 6.7183 0
M  V30 493 H 49.051 -3.44077 6.03851 0
M  V30 494 H 52.242 -2.56499 3.91568 0
M  V30 495 H 52.415 -3.33672 5.55488 0
M  V30 496 N 45.8211 -1.22559 -0.990812 0
M  V30 497 C 46.7841 -0.998863 -2.0629 0
M  V30 498 C 47.7841 0.0354834 -1.60761 0
M  V30 499 O 48.9741 -0.203231 -1.7301 0
M  V30 500 C 46.1061 -0.509203 -3.37076 0
M  V30 501 H 47.2991 -1.95014 -2.27837 0
M  V30 502 H 44.8521 -1.04456 -1.16269 0
M  V30 503 H 45.5871 0.446335 -3.21214 0
M  V30 504 H 45.3721 -1.25547 -3.71457 0
M  V30 505 H 46.8621 -0.370888 -4.1595 0
M  V30 506 N 47.2992 1.18797 -1.03562 0
M  V30 507 C 48.5482 1.87978 -0.731235 0
M  V30 508 C 48.8612 1.80911 0.743671 0
M  V30 509 O 50.0672 2.45407 1.16137 0
M  V30 510 C 48.5232 3.3721 -1.25768 0
M  V30 511 C 48.1312 3.52818 -2.76085 0
M  V30 512 C 49.8752 4.11825 -1.0296 0
M  V30 513 C 47.7822 4.9598 -3.22114 0
M  V30 514 H 46.7122 0.704063 -0.269835 0
M  V30 515 H 49.3632 1.34266 -1.25079 0
M  V30 516 H 47.7452 3.90359 -0.666011 0
M  V30 517 H 48.9192 3.09965 -3.40966 0
M  V30 518 H 47.2342 2.91602 -2.97249 0
M  V30 519 H 49.8312 5.17411 -1.34869 0
M  V30 520 H 50.1742 4.16287 0.0333546 0
M  V30 521 H 50.7072 3.64833 -1.58562 0
M  V30 522 H 47.4462 4.96684 -4.27768 0
M  V30 523 H 46.9662 5.39569 -2.61965 0
M  V30 524 H 48.6452 5.6467 -3.15844 0
M  V30 525 N 48.7773 0.814389 1.34928 0
M  V30 526 C 50.0543 0.321363 1.92942 0
M  V30 527 C 50.4343 -1.19014 1.74353 0
M  V30 528 O 49.7823 -1.99328 1.11716 0
M  V30 529 C 49.9923 0.741323 3.41036 0
M  V30 530 C 51.3403 0.735266 4.18185 0
M  V30 531 O 52.3643 0.68336 3.49584 0
M  V30 532 O 51.2233 0.800703 5.40602 0
M  V30 533 H 48.3173 0.0858893 0.822528 0
M  V30 534 H 50.8633 0.898609 1.43955 0
M  V30 535 H 49.6353 1.78276 3.4833 0
M  V30 536 H 49.2583 0.139307 3.97356 0
M  V30 537 N 50.2554 -1.46986 0.568584 0
M  V30 538 C 51.2184 -2.28624 -0.162366 0
M  V30 539 C 52.2184 -1.37596 -0.832103 0
M  V30 540 O 53.4084 -1.60115 -0.68622 0
M  V30 541 C 50.5404 -3.17596 -1.23878 0
M  V30 542 H 51.7334 -2.94722 0.554899 0
M  V30 543 H 49.2864 -1.52863 0.325976 0
M  V30 544 H 50.0214 -2.56214 -1.98808 0
M  V30 545 H 49.8064 -3.846 -0.763219 0
M  V30 546 H 51.2964 -3.79078 -1.75185 0
M  V30 547 N 51.7335 -0.305618 -1.54608 0
M  V30 548 C 52.6815 0.584119 -2.25146 0
M  V30 549 C 53.6755 1.13326 -1.25911 0
M  V30 550 O 54.8815 1.08337 -1.43747 0
M  V30 551 H 51.2565 0.206983 -0.722954 0
M  V30 552 H 53.2275 -0.033291 -2.98381 0
M  V30 553 C 51.9765 1.74225 -3.009 0
M  V30 554 H 51.2995 1.32892 -3.77067 0
M  V30 555 H 52.7395 2.34077 -3.53531 0
M  V30 556 C 51.1985 2.64914 -2.0814 0
M  V30 557 O 51.7285 3.66137 -1.65246 0
M  V30 558 N 49.9345 2.3275 -1.74 0
M  V30 559 H 49.4815 1.50479 -2.09078 0
M  V30 560 H 49.4395 2.93694 -1.12211 0
M  V30 561 N 53.2116 1.57565 -0.0334293 0
M  V30 562 C 54.1436 2.0739 0.975811 0
M  V30 563 C 55.1566 0.998166 1.2861 0
M  V30 564 O 56.3456 1.27426 1.25 0
M  V30 565 C 53.4456 2.4871 2.30209 0
M  V30 566 C 52.6186 3.79413 2.17634 0
M  V30 567 C 51.6776 4.07237 3.33233 0
M  V30 568 O 50.7036 4.77425 3.09927 0
M  V30 569 N 51.9056 3.5775 4.5716 0
M  V30 570 H 54.6706 2.94598 0.55066 0
M  V30 571 H 52.2316 1.61173 0.15323 0
M  V30 572 H 54.2236 2.64413 3.06378 0
M  V30 573 H 52.7936 1.66845 2.64351 0
M  V30 574 H 52.0136 3.73465 1.26165 0
M  V30 575 H 53.3016 4.65038 2.0644 0
M  V30 576 H 52.6996 3.00976 4.78989 0
M  V30 577 H 51.2566 3.78724 5.30482 0
M  V30 578 N 54.6897 -0.239769 1.55765 0
M  V30 579 C 55.9387 -0.964754 1.77131 0
M  V30 580 C 56.2517 -1.86213 0.59868 0
M  V30 581 O 57.4577 -2.6244 0.695522 0
M  V30 582 C 55.9137 -1.76552 3.1362 0
M  V30 583 C 55.5217 -0.915185 4.38553 0
M  V30 584 C 57.2657 -2.48281 3.44321 0
M  V30 585 C 55.1727 -1.71225 5.66071 0
M  V30 586 H 54.1027 -0.363953 0.660344 0
M  V30 587 H 56.7537 -0.219181 1.82186 0
M  V30 588 H 55.1357 -2.55331 3.02691 0
M  V30 589 H 56.3097 -0.169217 4.60489 0
M  V30 590 H 54.6247 -0.310889 4.15238 0
M  V30 591 H 57.2217 -3.08382 4.36812 0
M  V30 592 H 57.5647 -3.20256 2.65973 0
M  V30 593 H 58.0977 -1.76507 3.56497 0
M  V30 594 H 54.8367 -1.03612 6.4726 0
M  V30 595 H 54.3567 -2.43331 5.48224 0
M  V30 596 H 56.0357 -2.27758 6.05587 0
M  V30 597 N 56.1678 -1.49265 -0.50573 0
M  V30 598 C 57.4138 -1.58748 -1.26202 0
M  V30 599 C 57.7468 -0.271227 -1.92297 0
M  V30 600 O 57.0218 0.724831 -1.80489 0
M  V30 601 C 57.3048 -2.74332 -2.33268 0
M  V30 602 C 57.1578 -4.15737 -1.71705 0
M  V30 603 C 58.4768 -2.85576 -3.34865 0
M  V30 604 H 55.5958 -0.577826 -0.457478 0
M  V30 605 H 58.2378 -1.81532 -0.560897 0
M  V30 606 H 56.3878 -2.55036 -2.93068 0
M  V30 607 H 58.0598 -4.46537 -1.15769 0
M  V30 608 H 56.3028 -4.21605 -1.02135 0
M  V30 609 H 56.9738 -4.92477 -2.49341 0
M  V30 610 H 59.4498 -3.03127 -2.8505 0
M  V30 611 H 58.3258 -3.68135 -4.07146 0
M  V30 612 H 58.5868 -1.94732 -3.96903 0
M  V30 613 N 57.6459 0.756429 -1.3826 0
M  V30 614 C 58.5939 1.89149 -1.35372 0
M  V30 615 C 59.5879 1.67691 -0.24004 0
M  V30 616 O 60.7939 1.75294 -0.408919 0
M  V30 617 H 57.1689 0.622271 -0.422236 0
M  V30 618 H 59.1399 1.88701 -2.31159 0
M  V30 619 C 57.8889 3.26599 -1.19284 0
M  V30 620 H 57.2119 3.43695 -2.0424 0
M  V30 621 H 58.6519 4.06274 -1.21316 0
M  V30 622 C 57.1109 3.3675 0.100454 0
M  V30 623 O 57.6409 3.86951 1.07851 0
M  V30 624 N 55.8469 2.90179 0.15633 0
M  V30 625 H 55.3939 2.49517 -0.640253 0
M  V30 626 H 55.3519 2.97352 1.02123 0
M  V30 627 N 59.124 1.23083 0.984299 0
M  V30 628 C 60.54 0.992637 1.24975 0
M  V30 629 C 60.74 -0.308618 1.99123 0
M  V30 630 O 59.796 -1.02905 2.30579 0
M  V30 631 C 61.109 2.19698 2.05312 0
M  V30 632 C 62.657 2.24147 2.18465 0
M  V30 633 C 63.132 3.44157 3.02192 0
M  V30 634 N 64.623 3.44372 3.09777 0
M  V30 635 C 65.358 4.33886 3.74874 0
M  V30 636 N 64.854 5.3363 4.41827 0
M  V30 637 N 66.647 4.21639 3.71721 0
M  V30 638 H 58.798 2.06731 0.487453 0
M  V30 639 H 61.061 0.906339 0.277944 0
M  V30 640 H 60.767 3.1411 1.58201 0
M  V30 641 H 60.641 2.20465 3.06064 0
M  V30 642 H 63.028 1.30277 2.64786 0
M  V30 643 H 63.109 2.27415 1.17115 0
M  V30 644 H 62.753 4.38332 2.56568 0
M  V30 645 H 62.683 3.3813 4.03702 0
M  V30 646 H 65.174 2.72201 2.62135 0
M  V30 647 H 65.487 5.98196 4.89266 0
M  V30 648 H 63.832 5.37534 4.40548 0
M  V30 649 H 67.023 3.42962 3.18582 0
M  V30 650 H 67.196 4.91604 4.22173 0
M  V30 651 N 60.6021 -1.18246 1.0419 0
M  V30 652 C 61.5351 -2.20746 0.578474 0
M  V30 653 C 62.5131 -1.57912 -0.387624 0
M  V30 654 O 63.6971 -1.86071 -0.301634 0
M  V30 655 C 60.8241 -3.38346 -0.154762 0
M  V30 656 C 59.8701 -4.19587 0.764782 0
M  V30 657 S 60.7031 -4.86014 2.24835 0
M  V30 658 C 61.8591 -6.07012 1.526 0
M  V30 659 H 62.0921 -2.59715 1.44691 0
M  V30 660 H 59.6251 -1.287 0.85297 0
M  V30 661 H 61.5831 -4.065 -0.571641 0
M  V30 662 H 60.2441 -2.97786 -0.999105 0
M  V30 663 H 59.4371 -5.03611 0.197976 0
M  V30 664 H 59.0391 -3.56818 1.12057 0
M  V30 665 H 61.3311 -6.72523 0.819733 0
M  V30 666 H 62.2741 -6.68202 2.34333 0
M  V30 667 H 62.6821 -5.55249 1.01779 0
M  V30 668 N 62.0802 -0.821533 -1.34494 0
M  V30 669 C 63.3052 -0.420873 -2.03085 0
M  V30 670 C 63.7302 0.964915 -1.61465 0
M  V30 671 O 63.0882 1.62763 -0.798607 0
M  V30 672 C 63.1362 -0.529414 -3.56693 0
M  V30 673 O 62.2402 0.451302 -4.09923 0
M  V30 674 H 61.5812 -0.173489 -0.640935 0
M  V30 675 H 64.1112 -1.11157 -1.71771 0
M  V30 676 H 64.1212 -0.404671 -4.05988 0
M  V30 677 H 62.7962 -1.54014 -3.86332 0
M  V30 678 H 61.3732 0.285558 -3.71805 0
M  V30 679 N 63.5583 1.46682 -0.576371 0
M  V30 680 C 64.4883 2.33028 0.148397 0
M  V30 681 C 65.4693 1.44961 0.889956 0
M  V30 682 O 66.6543 1.73789 0.866662 0
M  V30 683 C 63.7843 3.27117 1.1667 0
M  V30 684 C 62.7383 4.24575 0.540386 0
M  V30 685 C 62.0643 5.08126 1.6647 0
M  V30 686 C 63.3643 5.19722 -0.518331 0
M  V30 687 H 65.0583 2.93875 -0.572509 0
M  V30 688 H 62.6043 1.41315 -0.276768 0
M  V30 689 H 64.5573 3.86374 1.68204 0
M  V30 690 H 63.2813 2.64364 1.9178 0
M  V30 691 H 61.9403 3.66571 0.0461769 0
M  V30 692 H 61.5883 4.41762 2.40531 0
M  V30 693 H 61.2883 5.74122 1.25131 0
M  V30 694 H 62.8123 5.70246 2.18293 0
M  V30 695 H 64.2263 5.73232 -0.0883058 0
M  V30 696 H 62.6233 5.94026 -0.851679 0
M  V30 697 H 63.6933 4.64037 -1.40703 0
M  V30 698 N 65.0364 0.313813 1.54444 0
M  V30 699 C 66.3134 -0.345447 1.92525 0
M  V30 700 C 66.6934 -1.70667 1.24242 0
M  V30 701 O 66.0414 -2.25273 0.382654 0
M  V30 702 C 66.2514 -0.44737 3.46121 0
M  V30 703 C 67.5994 -0.712238 4.18584 0
M  V30 704 O 68.6234 -0.530678 3.52225 0
M  V30 705 O 67.4824 -1.06183 5.36085 0
M  V30 706 H 64.5764 -0.195407 0.803583 0
M  V30 707 H 67.1224 0.362813 1.65776 0
M  V30 708 H 65.8944 0.509043 3.87975 0
M  V30 709 H 65.5174 -1.20359 3.78945 0
M  V30 710 N 66.5145 -1.57545 0.0417849 0
M  V30 711 C 67.4245 -2.14451 -0.951213 0
M  V30 712 C 68.4405 -1.09992 -1.34825 0
M  V30 713 O 69.6165 -1.42114 -1.42708 0
M  V30 714 C 66.6815 -2.67063 -2.21084 0
M  V30 715 C 65.7425 -3.86284 -1.87304 0
M  V30 716 C 64.9755 -4.36378 -3.07261 0
M  V30 717 O 65.1985 -3.85587 -4.20332 0
M  V30 718 O 64.1325 -5.28077 -2.88822 0
M  V30 719 H 67.9585 -2.99601 -0.497287 0
M  V30 720 H 65.5435 -1.48317 -0.179567 0
M  V30 721 H 67.4255 -3.00914 -2.95006 0
M  V30 722 H 66.1005 -1.84989 -2.65633 0
M  V30 723 H 65.0075 -3.57338 -1.10727 0
M  V30 724 H 66.3405 -4.6956 -1.47562 0
M  V30 725 N 67.9926 0.231505 -1.5589 0
M  V30 726 C 68.9396 1.28682 -1.91598 0
M  V30 727 C 69.9096 1.47071 -0.771974 0
M  V30 728 O 71.0946 1.60802 -1.027 0
M  V30 729 C 68.2346 2.6342 -2.22944 0
M  V30 730 C 67.3476 2.52912 -3.50228 0
M  V30 731 C 66.4826 3.80106 -3.7107 0
M  V30 732 C 65.5216 3.64279 -4.91902 0
M  V30 733 N 64.6586 4.834 -5.09184 0
M  V30 734 H 69.4986 0.975305 -2.81588 0
M  V30 735 H 67.0356 0.470299 -1.39379 0
M  V30 736 H 68.9936 3.41869 -2.39126 0
M  V30 737 H 67.6236 2.92687 -1.36139 0
M  V30 738 H 66.6756 1.6595 -3.42294 0
M  V30 739 H 67.9876 2.37133 -4.38827 0
M  V30 740 H 67.1416 4.66999 -3.87295 0
M  V30 741 H 65.8806 3.98799 -2.80733 0
M  V30 742 H 64.8856 2.7577 -4.75637 0
M  V30 743 H 66.1106 3.47067 -5.83714 0
M  V30 744 H 64.0566 5.02425 -4.21788 0
M  V30 745 H 63.9736 4.70311 -5.91898 0
M  V30 746 H 65.2416 5.71747 -5.29835 0
M  V30 747 N 69.4707 1.49531 0.497807 0
M  V30 748 C 70.4007 1.6935 1.60757 0
M  V30 749 C 71.3817 0.542218 1.61227 0
M  V30 750 O 72.5667 0.778417 1.77917 0
M  V30 751 C 69.6967 1.76298 2.99226 0
M  V30 752 C 68.6507 2.91248 3.13622 0
M  V30 753 C 67.9767 2.83312 4.53474 0
M  V30 754 C 69.2767 4.3214 2.93346 0
M  V30 755 H 70.9707 2.62263 1.44425 0
M  V30 756 H 68.5167 1.26208 0.693367 0
M  V30 757 H 70.4697 1.88749 3.76765 0
M  V30 758 H 69.1937 0.799871 3.16654 0
M  V30 759 H 67.8527 2.78404 2.38509 0
M  V30 760 H 67.5007 1.84902 4.67782 0
M  V30 761 H 67.2007 3.60465 4.64046 0
M  V30 762 H 68.7247 2.97775 5.33069 0
M  V30 763 H 70.1387 4.45649 3.60652 0
M  V30 764 H 68.5357 5.1054 3.15387 0
M  V30 765 H 69.6057 4.46363 1.89441 0
M  V30 766 N 70.9488 -0.749086 1.3866 0
M  V30 767 C 72.1968 -1.50535 1.34847 0
M  V30 768 C 72.5178 -1.94909 -0.0595016 0
M  V30 769 O 71.7878 -1.67973 -1.00806 0
M  V30 770 H 70.3678 -0.558395 0.49619 0
M  V30 771 H 73.0298 -0.890165 1.73384 0
M  V30 772 H 72.1258 -2.39413 2.00219 0
M  V30 773 N 72.4269 -1.23603 -0.977757 0
M  V30 774 C 73.3589 -0.977369 -2.07317 0
M  V30 775 C 74.3719 0.0495845 -1.62724 0
M  V30 776 O 75.5609 -0.186261 -1.77526 0
M  V30 777 C 72.6609 -0.451216 -3.35883 0
M  V30 778 C 71.8339 -1.53896 -4.09432 0
M  V30 779 C 70.8929 -1.01721 -5.16274 0
M  V30 780 O 69.9189 -1.70676 -5.43009 0
M  V30 781 N 71.1209 0.153594 -5.80297 0
M  V30 782 H 73.8859 -1.92047 -2.30082 0
M  V30 783 H 71.4469 -1.14497 -1.14465 0
M  V30 784 H 73.4389 -0.0871574 -4.04606 0
M  V30 785 H 72.0089 0.397368 -3.10064 0
M  V30 786 H 71.2289 -2.07566 -3.35127 0
M  V30 787 H 72.5169 -2.27037 -4.55337 0
M  V30 788 H 71.9149 0.730323 -5.60966 0
M  V30 789 H 70.4719 0.458892 -6.50183 0
M  V30 790 N 73.905 1.17692 -1.04816 0
M  V30 791 C 74.838 2.20436 -0.590173 0
M  V30 792 C 75.816 1.58115 0.379244 0
M  V30 793 O 77 1.86228 0.291762 0
M  V30 794 C 74.127 3.38424 0.136817 0
M  V30 795 C 73.173 4.19176 -0.787023 0
M  V30 796 S 74.006 4.84815 -2.27409 0
M  V30 797 C 75.162 6.06195 -1.55817 0
M  V30 798 H 75.395 2.58944 -1.46067 0
M  V30 799 H 72.928 1.28246 -0.859784 0
M  V30 800 H 74.886 4.06798 0.550076 0
M  V30 801 H 73.547 2.98312 0.983299 0
M  V30 802 H 72.74 5.03499 -0.224681 0
M  V30 803 H 72.342 3.56219 -1.13947 0
M  V30 804 H 74.634 6.72078 -0.855387 0
M  V30 805 H 75.577 6.6695 -2.37873 0
M  V30 806 H 75.985 5.54701 -1.04722 0
M  V30 807 N 75.3831 0.828654 1.34056 0
M  V30 808 C 76.3131 0.269443 2.3194 0
M  V30 809 C 77.2941 -0.617247 1.58506 0
M  V30 810 O 78.4791 -0.542931 1.86456 0
M  V30 811 C 75.6091 -0.564793 3.42677 0
M  V30 812 C 74.5631 0.225241 4.27407 0
M  V30 813 C 73.8891 -0.7321 5.29664 0
M  V30 814 C 75.1891 1.43663 5.02154 0
M  V30 815 H 76.8831 1.08728 2.7896 0
M  V30 816 H 74.4291 0.524283 1.34117 0
M  V30 817 H 76.3821 -0.966233 4.10173 0
M  V30 818 H 75.1061 -1.41574 2.9432 0
M  V30 819 H 73.7651 0.608117 3.61521 0
M  V30 820 H 73.4131 -1.57916 4.77568 0
M  V30 821 H 73.1131 -0.20767 5.87233 0
M  V30 822 H 74.6371 -1.13128 6.00029 0
M  V30 823 H 76.0511 1.1089 5.62473 0
M  V30 824 H 74.4481 1.89711 5.69324 0
M  V30 825 H 75.5181 2.21181 4.31517 0
M  V30 826 N 76.8612 -1.46375 0.584142 0
M  V30 827 C 77.7942 -2.27351 -0.196676 0
M  V30 828 C 78.7722 -1.35715 -0.895561 0
M  V30 829 O 79.9562 -1.65126 -0.90916 0
M  V30 830 C 77.0832 -3.13486 -1.28235 0
M  V30 831 C 76.1292 -4.20896 -0.689145 0
M  V30 832 S 76.9622 -5.33299 0.48507 0
M  V30 833 C 78.1182 -6.23 -0.601767 0
M  V30 834 H 78.3512 -2.93228 0.490395 0
M  V30 835 H 75.8842 -1.49875 0.371071 0
M  V30 836 H 77.8422 -3.63676 -1.90395 0
M  V30 837 H 76.5032 -2.4692 -1.94138 0
M  V30 838 H 75.6962 -4.80997 -1.50527 0
M  V30 839 H 75.2982 -3.73726 -0.143181 0
M  V30 840 H 77.5902 -6.60979 -1.48705 0
M  V30 841 H 78.5332 -7.0809 -0.0374799 0
M  V30 842 H 78.9412 -5.57173 -0.906557 0
M  V30 843 N 78.3393 -0.321999 -1.54275 0
M  V30 844 C 79.7503 0.166384 -1.85957 0
M  V30 845 C 80.1013 1.51747 -1.24367 0
M  V30 846 O 79.2263 2.09317 -0.549124 0
M  V30 847 C 79.8213 0.308681 -3.37391 0
M  V30 848 C 78.3803 0.741286 -3.69028 0
M  V30 849 C 77.5273 -0.137937 -2.76957 0
M  V30 850 H 80.4783 -0.542335 -1.49146 0
M  V30 851 H 80.4993 1.13984 -3.63026 0
M  V30 852 H 80.0113 -0.674809 -3.82188 0
M  V30 853 H 78.1123 1.73458 -3.29762 0
M  V30 854 H 78.2253 0.546118 -4.75977 0
M  V30 855 H 76.5893 0.386251 -2.51754 0
M  V30 856 H 77.3723 -1.11816 -3.2458 0
M  V30 857 N 79.8174 1.5752 -0.0501392 0
M  V30 858 C 81.0944 1.83996 0.663685 0
M  V30 859 C 81.4744 0.938339 1.89099 0
M  V30 860 O 80.8224 -0.00087759 2.285 0
M  V30 861 C 81.0324 3.33702 1.02196 0
M  V30 862 C 82.3804 4.00691 1.40469 0
M  V30 863 O 83.4044 3.38321 1.11433 0
M  V30 864 O 82.2634 5.10658 1.94654 0
M  V30 865 H 79.3574 0.759385 0.32751 0
M  V30 866 H 81.9034 1.69514 -0.0794238 0
M  V30 867 H 80.6754 3.91015 0.149364 0
M  V30 868 H 80.2984 3.53368 1.82255 0
M  V30 869 N 81.2955 -0.223234 1.56011 0
M  V30 870 C 82.5425 -0.947875 1.78946 0
M  V30 871 C 82.8705 -1.844 0.618608 0
M  V30 872 O 82.1255 -1.91629 -0.397093 0
M  V30 873 C 82.4245 -1.81948 3.0762 0
M  V30 874 C 82.0905 -1.07672 4.37856 0
M  V30 875 C 80.7525 -0.871544 4.73242 0
M  V30 876 C 83.1045 -0.552081 5.18268 0
M  V30 877 C 80.4325 -0.129791 5.86556 0
M  V30 878 C 82.7845 0.17632 6.32354 0
M  V30 879 C 81.4485 0.39277 6.66343 0
M  V30 880 H 80.7185 -0.346852 0.654809 0
M  V30 881 H 83.3655 -0.216171 1.90276 0
M  V30 882 H 81.6705 -2.61899 2.91404 0
M  V30 883 H 83.3675 -2.38227 3.22566 0
M  V30 884 H 79.9575 -1.24662 4.1007 0
M  V30 885 H 84.1415 -0.698076 4.91366 0
M  V30 886 H 79.3975 0.048153 6.11381 0
M  V30 887 H 83.5715 0.590367 6.93893 0
M  V30 888 H 81.1985 0.969466 7.53993 0
M  V30 889 N 82.7736 -1.49793 -0.48987 0
M  V30 890 C 84.1896 -1.36803 -0.822022 0
M  V30 891 C 84.3896 -0.409652 -1.97292 0
M  V30 892 O 83.4456 0.154614 -2.52026 0
M  V30 893 C 84.7586 -2.77768 -1.15175 0
M  V30 894 C 86.3066 -2.86549 -1.25931 0
M  V30 895 C 86.7816 -4.28306 -1.62228 0
M  V30 896 N 88.2726 -4.31169 -1.69256 0
M  V30 897 C 89.0076 -5.37832 -1.98807 0
M  V30 898 N 88.5036 -6.54726 -2.26507 0
M  V30 899 N 90.2966 -5.25258 -2.00152 0
M  V30 900 H 82.4476 -2.10691 0.268881 0
M  V30 901 H 84.7106 -0.946241 0.057728 0
M  V30 902 H 84.4166 -3.49648 -0.379335 0
M  V30 903 H 84.2906 -3.13836 -2.09253 0
M  V30 904 H 86.6776 -2.14899 -2.02243 0
M  V30 905 H 86.7586 -2.54049 -0.298776 0
M  V30 906 H 86.4026 -5.00486 -0.864622 0
M  V30 907 H 86.3326 -4.58279 -2.594 0
M  V30 908 H 88.8236 -3.4687 -1.49965 0
M  V30 909 H 89.1366 -7.31833 -2.48276 0
M  V30 910 H 87.4816 -6.57933 -2.23939 0
M  V30 911 H 90.6726 -4.32938 -1.77996 0
M  V30 912 H 90.8456 -6.08476 -2.22848 0
M  V30 913 N 84.2517 0.741722 -1.39055 0
M  V30 914 C 85.1997 1.87702 -1.3737 0
M  V30 915 C 86.1937 1.67427 -0.257812 0
M  V30 916 O 87.3997 1.7485 -0.427489 0
M  V30 917 H 83.7747 0.617757 -0.428812 0
M  V30 918 H 85.7457 1.86239 -2.33147 0
M  V30 919 C 84.4947 3.25315 -1.22741 0
M  V30 920 H 83.8177 3.41509 -2.07873 0
M  V30 921 H 85.2577 4.04964 -1.25618 0
M  V30 922 C 83.7167 3.36838 0.0647316 0
M  V30 923 O 84.2467 3.88073 1.03741 0
M  V30 924 N 82.4527 2.90329 0.125544 0
M  V30 925 H 81.9997 2.48823 -0.666682 0
M  V30 926 H 81.9577 2.98418 0.989639 0
M  V30 927 N 85.7298 1.2412 0.971189 0
M  V30 928 C 86.9758 1.09048 1.71698 0
M  V30 929 C 87.3308 -0.367442 1.88859 0
M  V30 930 O 86.6238 -1.26792 1.43646 0
M  V30 931 C 86.8178 1.75983 3.11071 0
M  V30 932 C 86.6468 3.28133 3.07504 0
M  V30 933 C 85.4168 3.97331 3.1218 0
M  V30 934 C 87.6148 4.24773 2.89952 0
M  V30 935 N 85.5968 5.3639 2.98596 0
M  V30 936 C 86.9678 5.50806 2.84627 0
M  V30 937 C 89.0228 4.15392 2.74506 0
M  V30 938 C 87.7258 6.68533 2.65437 0
M  V30 939 C 89.7518 5.32793 2.56682 0
M  V30 940 C 89.1138 6.57756 2.52063 0
M  V30 941 H 85.2128 0.453632 0.636979 0
M  V30 942 H 87.7968 1.56983 1.15171 0
M  V30 943 H 85.9678 1.30566 3.65796 0
M  V30 944 H 87.6998 1.53803 3.74335 0
M  V30 945 H 84.4548 3.48473 3.20724 0
M  V30 946 H 84.8788 6.09321 2.95054 0
M  V30 947 H 89.5208 3.19543 2.76861 0
M  V30 948 H 87.2388 7.64509 2.61825 0
M  V30 949 H 90.8248 5.27383 2.4568 0
M  V30 950 H 89.7048 7.4707 2.38446 0
M  V30 951 N 87.2079 -1.17134 1.05439 0
M  V30 952 C 88.1399 -2.2078 0.615539 0
M  V30 953 C 89.1529 -1.59584 -0.322001 0
M  V30 954 O 90.3419 -1.78133 -0.114344 0
M  V30 955 C 87.4419 -3.38691 -0.118938 0
M  V30 956 C 86.6149 -4.29454 0.829924 0
M  V30 957 C 85.6739 -5.26024 0.136258 0
M  V30 958 O 84.6999 -5.63952 0.77115 0
M  V30 959 N 85.9019 -5.69487 -1.1254 0
M  V30 960 H 88.6669 -2.59052 1.50705 0
M  V30 961 H 86.2279 -1.32058 0.936603 0
M  V30 962 H 88.2199 -4.00329 -0.593179 0
M  V30 963 H 86.7899 -2.98996 -0.91215 0
M  V30 964 H 86.0099 -3.65211 1.48373 0
M  V30 965 H 87.2979 -4.86984 1.47392 0
M  V30 966 H 86.6959 -5.4075 -1.6615 0
M  V30 967 H 85.2529 -6.33257 -1.54366 0
M  V30 968 N 88.686 -0.835752 -1.33615 0
M  V30 969 C 89.633 -0.26473 -2.29277 0
M  V30 970 C 90.603 0.617712 -1.54187 0
M  V30 971 O 91.788 0.556641 -1.825 0
M  V30 972 C 88.928 0.556777 -3.40579 0
M  V30 973 C 88.041 -0.349339 -4.30585 0
M  V30 974 C 87.176 0.482969 -5.29 0
M  V30 975 C 86.215 -0.421732 -6.10645 0
M  V30 976 N 85.352 0.372262 -7.01112 0
M  V30 977 H 90.192 -1.08582 -2.77514 0
M  V30 978 H 87.729 -0.546927 -1.36554 0
M  V30 979 H 89.687 1.04852 -4.03809 0
M  V30 980 H 88.317 1.34286 -2.93542 0
M  V30 981 H 87.369 -0.959372 -3.68104 0
M  V30 982 H 88.681 -1.04445 -4.87742 0
M  V30 983 H 87.835 1.03866 -5.97743 0
M  V30 984 H 86.574 1.21153 -4.72412 0
M  V30 985 H 85.579 -0.989464 -5.40823 0
M  V30 986 H 86.804 -1.14861 -6.69316 0
M  V30 987 H 84.75 1.08426 -6.46977 0
M  V30 988 H 84.667 -0.264198 -7.55538 0
M  V30 989 H 85.935 0.910293 -7.74167 0
M  V30 990 N 90.1641 1.46063 -0.591896 0
M  V30 991 C 91.0741 2.34192 0.13831 0
M  V30 992 C 92.0901 1.50305 0.876608 0
M  V30 993 O 93.2661 1.8315 0.837728 0
M  V30 994 C 90.3311 3.27656 1.13326 0
M  V30 995 C 89.3921 4.27445 0.39863 0
M  V30 996 C 88.6251 5.16443 1.34618 0
M  V30 997 O 88.8481 5.08553 2.58321 0
M  V30 998 O 87.7821 5.95843 0.851768 0
M  V30 999 H 91.6081 2.98002 -0.58552 0
M  V30 1000 H 89.1931 1.45188 -0.352239 0
M  V30 1001 H 91.0751 3.85291 1.70671 0
M  V30 1002 H 89.7501 2.6643 1.83839 0
M  V30 1003 H 88.6571 3.73471 -0.216895 0
M  V30 1004 H 89.9901 4.91482 -0.265709 0
M  V30 1005 N 91.6422 0.330177 1.54103 0
M  V30 1006 C 92.8902 -0.269871 2.0029 0
M  V30 1007 C 93.2112 -1.52133 1.21986 0
M  V30 1008 O 92.4812 -1.93212 0.323438 0
M  V30 1009 H 91.0612 -0.10271 0.739905 0
M  V30 1010 H 93.7232 0.448249 1.89675 0
M  V30 1011 H 92.8192 -0.52166 3.07709 0
M  V30 1012 N 93.1203 -1.57491 0.0584922 0
M  V30 1013 C 94.0303 -2.15448 -0.928414 0
M  V30 1014 C 95.0463 -1.11416 -1.3365 0
M  V30 1015 O 96.2223 -1.4362 -1.41193 0
M  V30 1016 C 93.2873 -2.69393 -2.18239 0
M  V30 1017 C 92.3483 -3.88249 -1.83196 0
M  V30 1018 C 91.5813 -4.39613 -3.02616 0
M  V30 1019 O 91.8043 -3.90023 -4.16219 0
M  V30 1020 O 90.7383 -5.31111 -2.83204 0
M  V30 1021 H 94.5643 -3.00112 -0.465483 0
M  V30 1022 H 92.1493 -1.48499 -0.163826 0
M  V30 1023 H 94.0313 -3.04026 -2.91798 0
M  V30 1024 H 92.7063 -1.87796 -2.63656 0
M  V30 1025 H 91.6133 -3.58492 -1.06931 0
M  V30 1026 H 92.9463 -4.71098 -1.42573 0
M  V30 1027 N 94.5984 0.214957 -1.56127 0
M  V30 1028 C 95.8234 0.95924 -1.83884 0
M  V30 1029 C 96.2484 1.7689 -0.639644 0
M  V30 1030 O 95.6064 1.76566 0.411601 0
M  V30 1031 C 95.6544 1.84723 -3.09693 0
M  V30 1032 O 94.7584 2.94346 -2.8885 0
M  V30 1033 H 94.0994 0.27125 -0.606069 0
M  V30 1034 H 96.6294 0.226276 -2.03345 0
M  V30 1035 H 96.6394 2.25576 -3.39969 0
M  V30 1036 H 95.3144 1.25218 -3.96602 0
M  V30 1037 H 93.8914 2.57391 -2.69823 0
M  V30 1038 N 96.0765 1.50051 0.48192 0
M  V30 1039 C 97.3015 1.64508 1.26301 0
M  V30 1040 C 97.7265 0.323851 1.85291 0
M  V30 1041 O 97.0845 -0.710969 1.66778 0
M  V30 1042 C 97.1325 2.7305 2.35533 0
M  V30 1043 O 96.2365 2.3355 3.39895 0
M  V30 1044 H 95.5775 0.549978 0.372048 0
M  V30 1045 H 98.1075 1.9636 0.574786 0
M  V30 1046 H 98.1175 2.95799 2.8101 0
M  V30 1047 H 96.7925 3.68946 1.91967 0
M  V30 1048 H 95.3695 2.21205 3.00204 0
M  V30 1049 N 97.5546 -0.734337 1.39446 0
M  V30 1050 C 98.9656 -1.31264 1.32766 0
M  V30 1051 C 99.3166 -1.96198 -0.00767497 0
M  V30 1052 O 98.4416 -1.96346 -0.909796 0
M  V30 1053 C 99.0366 -2.38682 2.4045 0
M  V30 1054 C 97.5956 -2.92184 2.37288 0
M  V30 1055 C 96.7426 -1.6576 2.22304 0
M  V30 1056 H 99.6936 -0.531799 1.49525 0
M  V30 1057 H 99.7146 -3.19087 2.07276 0
M  V30 1058 H 99.2266 -1.91392 3.37625 0
M  V30 1059 H 97.3276 -3.43752 1.43754 0
M  V30 1060 H 97.4406 -3.45253 3.3217 0
M  V30 1061 H 95.8046 -1.9012 1.69489 0
M  V30 1062 H 96.5876 -1.20521 3.21449 0
M  V30 1063 N 99.0327 -1.24633 -0.964593 0
M  V30 1064 C 99.9647 -0.999302 -2.06268 0
M  V30 1065 C 100.978 0.0323226 -1.62768 0
M  V30 1066 O 102.167 -0.205079 -1.77318 0
M  V30 1067 C 99.2667 -0.486816 -3.35385 0
M  V30 1068 C 98.4397 -1.5823 -4.07777 0
M  V30 1069 C 97.4987 -1.07191 -5.15166 0
M  V30 1070 O 96.5247 -1.76426 -5.41168 0
M  V30 1071 N 97.7267 0.0920373 -5.80427 0
M  V30 1072 H 100.492 -1.94477 -2.28033 0
M  V30 1073 H 98.0527 -1.15704 -1.13244 0
M  V30 1074 H 100.045 -0.130066 -4.04491 0
M  V30 1075 H 98.6147 0.364459 -3.10468 0
M  V30 1076 H 97.8347 -2.11109 -3.32906 0
M  V30 1077 H 99.1227 -2.31854 -4.52903 0
M  V30 1078 H 98.5207 0.670784 -5.61709 0
M  V30 1079 H 97.0777 0.389905 -6.50633 0
M  V30 1080 N 100.511 1.16574 -1.06058 0
M  V30 1081 C 101.474 2.19085 -0.673392 0
M  V30 1082 C 102.474 1.5835 0.279648 0
M  V30 1083 O 103.664 1.74088 0.0623488 0
M  V30 1084 C 100.796 3.40899 0.00954234 0
M  V30 1085 H 101.989 2.54853 -1.58081 0
M  V30 1086 H 99.5418 1.30808 -0.855516 0
M  V30 1087 H 100.277 3.10684 0.929826 0
M  V30 1088 H 100.062 3.86233 -0.67573 0
M  V30 1089 H 101.552 4.1675 0.266245 0
M  V30 1090 N 101.989 0.842826 1.3317 0
M  V30 1091 C 102.919 0.294028 2.31641 0
M  V30 1092 C 103.9 -0.600401 1.59151 0
M  V30 1093 O 105.085 -0.523124 1.87022 0
M  V30 1094 C 102.215 -0.528416 3.43257 0
M  V30 1095 C 101.169 0.27056 4.27144 0
M  V30 1096 C 100.495 -0.675881 5.30411 0
M  V30 1097 C 101.795 1.48981 5.00602 0
M  V30 1098 H 103.489 1.11681 2.77791 0
M  V30 1099 H 101.035 0.538478 1.33553 0
M  V30 1100 H 102.988 -0.922674 4.11175 0
M  V30 1101 H 101.712 -1.38445 2.95805 0
M  V30 1102 H 100.371 0.646427 3.60856 0
M  V30 1103 H 100.019 -1.52842 4.79216 0
M  V30 1104 H 99.7189 -0.145374 5.8742 0
M  V30 1105 H 101.243 -1.06757 6.01195 0
M  V30 1106 H 102.657 1.16849 5.61266 0
M  V30 1107 H 101.054 1.95739 5.6728 0
M  V30 1108 H 102.124 2.25746 4.29147 0
M  V30 1109 N 103.467 -1.45747 0.599634 0
M  V30 1110 C 104.695 -2.06668 0.0978551 0
M  V30 1111 C 105.11 -1.44562 -1.21439 0
M  V30 1112 O 104.467 -0.556923 -1.73795 0
M  V30 1113 C 104.518 -3.61456 -0.0567044 0
M  V30 1114 O 104.239 -4.21242 1.20361 0
M  V30 1115 C 105.74 -4.39345 -0.590869 0
M  V30 1116 H 102.96 -0.667825 0.0651943 0
M  V30 1117 H 105.504 -1.87115 0.82511 0
M  V30 1118 H 103.659 -3.80378 -0.734251 0
M  V30 1119 H 104.073 -5.14323 1.02821 0
M  V30 1120 H 105.547 -5.48182 -0.648131 0
M  V30 1121 H 106.024 -4.08568 -1.61147 0
M  V30 1122 H 106.63 -4.25268 0.0523679 0
M  V30 1123 N 104.945 -0.338344 -1.53925 0
M  V30 1124 C 105.892 0.520845 -2.24846 0
M  V30 1125 C 106.862 1.09976 -1.24477 0
M  V30 1126 O 108.047 1.13735 -1.53196 0
M  V30 1127 C 105.187 1.6685 -3.02084 0
M  V30 1128 C 104.3 1.11739 -4.17299 0
M  V30 1129 C 103.435 2.23193 -4.82036 0
M  V30 1130 C 102.474 1.65407 -5.89328 0
M  V30 1131 N 101.611 2.70582 -6.47866 0
M  V30 1132 H 106.451 -0.0904881 -2.97863 0
M  V30 1133 H 103.988 -0.0564282 -1.46992 0
M  V30 1134 H 105.946 2.34407 -3.45122 0
M  V30 1135 H 104.576 2.2509 -2.31375 0
M  V30 1136 H 103.628 0.332919 -3.7894 0
M  V30 1137 H 104.94 0.654677 -4.94485 0
M  V30 1138 H 104.094 2.98626 -5.28117 0
M  V30 1139 H 102.833 2.72807 -4.04262 0
M  V30 1140 H 101.838 0.884779 -5.42634 0
M  V30 1141 H 103.063 1.16652 -6.69006 0
M  V30 1142 H 101.009 3.1946 -5.72959 0
M  V30 1143 H 100.926 2.28917 -7.20509 0
M  V30 1144 H 102.194 3.45799 -6.98601 0
M  V30 1145 N 106.423 1.57458 -0.0668435 0
M  V30 1146 C 107.356 2.08033 0.93795 0
M  V30 1147 C 108.334 0.984321 1.29421 0
M  V30 1148 O 109.518 1.25736 1.40437 0
M  V30 1149 C 106.645 2.53388 2.24749 0
M  V30 1150 C 105.691 3.74376 2.04315 0
M  V30 1151 S 106.524 5.19303 1.30706 0
M  V30 1152 C 107.68 5.67986 2.62951 0
M  V30 1153 H 107.913 2.92935 0.50759 0
M  V30 1154 H 105.446 1.5371 0.145804 0
M  V30 1155 H 107.404 2.8018 3.00016 0
M  V30 1156 H 106.065 1.68763 2.64911 0
M  V30 1157 H 105.258 4.04083 3.01218 0
M  V30 1158 H 104.86 3.47931 1.37186 0
M  V30 1159 H 107.152 5.74528 3.5906 0
M  V30 1160 H 108.095 6.66955 2.3786 0
M  V30 1161 H 108.503 4.95781 2.69929 0
M  V30 1162 N 107.901 -0.206675 1.56239 0
M  V30 1163 C 108.849 -1.27571 1.94495 0
M  V30 1164 C 109.843 -1.47737 0.828862 0
M  V30 1165 O 111.049 -1.48735 1.0138 0
M  V30 1166 H 107.424 -0.428029 0.6183 0
M  V30 1167 H 109.395 -0.925961 2.8367 0
M  V30 1168 C 108.144 -2.61568 2.29079 0
M  V30 1169 H 107.467 -2.46863 3.14482 0
M  V30 1170 H 108.907 -3.35144 2.5972 0
M  V30 1171 C 107.366 -3.17695 1.12123 0
M  V30 1172 O 107.896 -3.99801 0.390153 0
M  V30 1173 N 106.102 -2.76276 0.901097 0
M  V30 1174 H 105.649 -2.09613 1.49733 0
M  V30 1175 H 105.607 -3.1417 0.120319 0
M  V30 1176 N 109.379 -1.50304 -0.473955 0
M  V30 1177 C 110.656 -1.51667 -1.23518 0
M  V30 1178 C 111.036 -0.259701 -2.09496 0
M  V30 1179 O 110.384 0.756986 -2.15597 0
M  V30 1180 C 110.594 -2.81082 -2.06868 0
M  V30 1181 C 111.942 -3.31631 -2.65153 0
M  V30 1182 O 112.966 -2.82384 -2.17113 0
M  V30 1183 O 111.825 -4.17471 -3.52675 0
M  V30 1184 H 108.919 -0.60822 -0.560355 0
M  V30 1185 H 111.465 -1.62592 -0.486011 0
M  V30 1186 H 110.237 -3.64041 -1.4349 0
M  V30 1187 H 109.86 -2.73146 -2.88924 0
M  V30 1188 N 110.857 0.726932 -1.39834 0
M  V30 1189 C 111.767 1.87131 -1.41489 0
M  V30 1190 C 112.783 1.71239 -0.308757 0
M  V30 1191 O 113.959 1.93701 -0.551529 0
M  V30 1192 C 111.024 3.22811 -1.26468 0
M  V30 1193 C 110.085 3.51039 -2.47124 0
M  V30 1194 C 109.318 4.80245 -2.3281 0
M  V30 1195 O 109.541 5.54537 -1.33585 0
M  V30 1196 O 108.475 5.08554 -3.21957 0
M  V30 1197 H 112.301 1.8869 -2.3797 0
M  V30 1198 H 109.886 0.875837 -1.21035 0
M  V30 1199 H 111.768 4.03877 -1.20255 0
M  V30 1200 H 110.443 3.22005 -0.330862 0
M  V30 1201 H 109.35 2.70027 -2.58914 0
M  V30 1202 H 110.683 3.56632 -3.39227 0
M  V30 1203 N 112.336 1.25143 0.95797 0
M  V30 1204 C 113.582 1.09855 1.70469 0
M  V30 1205 C 113.915 -0.360187 1.90831 0
M  V30 1206 O 113.19 -1.26568 1.47685 0
M  V30 1207 C 113.473 1.8497 3.08963 0
M  V30 1208 C 113.326 3.38652 2.96032 0
M  V30 1209 C 114.645 1.63016 4.08795 0
M  V30 1210 H 111.764 0.400465 0.618706 0
M  V30 1211 H 114.406 1.53933 1.11376 0
M  V30 1212 H 112.556 1.47505 3.59409 0
M  V30 1213 H 114.228 3.85772 2.52938 0
M  V30 1214 H 112.471 3.66534 2.32025 0
M  V30 1215 H 113.142 3.8642 3.94187 0
M  V30 1216 H 115.618 1.95625 3.67247 0
M  V30 1217 H 114.494 2.18015 5.03747 0
M  V30 1218 H 114.755 0.570692 4.38401 0
M  V30 1219 N 113.814 -1.1601 1.06675 0
M  V30 1220 C 114.777 -2.18724 0.685001 0
M  V30 1221 C 115.777 -1.58496 -0.271246 0
M  V30 1222 O 116.967 -1.74119 -0.0531156 0
M  V30 1223 C 114.099 -3.40899 0.00853648 0
M  V30 1224 H 115.292 -2.54011 1.59431 0
M  V30 1225 H 112.845 -1.30352 0.862441 0
M  V30 1226 H 113.58 -3.11173 -0.913337 0
M  V30 1227 H 113.365 -3.8587 0.696204 0
M  V30 1228 H 114.855 -4.16886 -0.24414 0
M  V30 1229 N 115.292 -0.849877 -1.32721 0
M  V30 1230 C 116.517 -0.463856 -2.02146 0
M  V30 1231 C 116.942 0.930449 -1.63476 0
M  V30 1232 O 116.3 1.61033 -0.832952 0
M  V30 1233 C 116.348 -0.604955 -3.55489 0
M  V30 1234 O 115.452 0.36425 -4.10788 0
M  V30 1235 H 114.793 -0.187046 -0.637111 0
M  V30 1236 H 117.323 -1.14775 -1.69375 0
M  V30 1237 H 117.333 -0.490696 -4.05038 0
M  V30 1238 H 116.008 -1.62174 -3.82978 0
M  V30 1239 H 114.585 0.206628 -3.72327 0
M  V30 1240 N 116.77 1.45427 -0.607355 0
M  V30 1241 C 117.7 2.3329 0.0989352 0
M  V30 1242 C 118.681 1.46816 0.859007 0
M  V30 1243 O 119.866 1.75588 0.829604 0
M  V30 1244 C 116.996 3.29518 1.09705 0
M  V30 1245 C 115.95 4.25626 0.450206 0
M  V30 1246 C 115.276 5.11542 1.55655 0
M  V30 1247 C 116.576 5.18505 -0.628455 0
M  V30 1248 H 118.27 2.92595 -0.634716 0
M  V30 1249 H 115.816 1.40696 -0.306681 0
M  V30 1250 H 117.769 3.89855 1.59971 0
M  V30 1251 H 116.493 2.68372 1.86129 0
M  V30 1252 H 115.152 3.66586 -0.0315886 0
M  V30 1253 H 114.8 4.46765 2.31107 0
M  V30 1254 H 114.5 5.76647 1.12925 0
M  V30 1255 H 116.024 5.74748 2.06148 0
M  V30 1256 H 117.438 5.72916 -0.209877 0
M  V30 1257 H 115.835 5.92085 -0.977489 0
M  V30 1258 H 116.905 4.60948 -1.50514 0
M  V30 1259 N 118.248 0.346503 1.53744 0
M  V30 1260 C 119.494 -0.249473 2.0126 0
M  V30 1261 C 119.827 -1.49965 1.23386 0
M  V30 1262 O 119.102 -1.91811 0.32229 0
M  V30 1263 C 119.385 -0.560643 3.55709 0
M  V30 1264 C 119.238 0.701836 4.44291 0
M  V30 1265 C 120.557 -1.36905 4.18264 0
M  V30 1266 H 117.676 -0.0891987 0.731582 0
M  V30 1267 H 120.318 0.467624 1.84156 0
M  V30 1268 H 118.468 -1.17156 3.70414 0
M  V30 1269 H 120.14 1.33974 4.41417 0
M  V30 1270 H 118.383 1.32612 4.13033 0
M  V30 1271 H 119.054 0.43933 5.50249 0
M  V30 1272 H 121.53 -0.852448 4.07275 0
M  V30 1273 H 120.406 -1.55553 5.26398 0
M  V30 1274 H 120.667 -2.37203 3.73078 0
M  V30 1275 N 119.726 -1.57421 0.075193 0
M  V30 1276 C 120.673 -2.12915 -0.890843 0
M  V30 1277 C 121.643 -1.04252 -1.29309 0
M  V30 1278 O 122.828 -1.31933 -1.37834 0
M  V30 1279 C 119.968 -2.69795 -2.15186 0
M  V30 1280 C 119.081 -3.92624 -1.80194 0
M  V30 1281 C 118.216 -4.37736 -3.00933 0
M  V30 1282 C 117.255 -5.53205 -2.61974 0
M  V30 1283 N 116.392 -5.9326 -3.75483 0
M  V30 1284 H 121.232 -2.95156 -0.410735 0
M  V30 1285 H 118.769 -1.45854 -0.191086 0
M  V30 1286 H 120.727 -3.00883 -2.89008 0
M  V30 1287 H 119.357 -1.90313 -2.60731 0
M  V30 1288 H 118.409 -3.67977 -0.964218 0
M  V30 1289 H 119.721 -4.76482 -1.47534 0
M  V30 1290 H 118.875 -4.70503 -3.8303 0
M  V30 1291 H 117.614 -3.52739 -3.36789 0
M  V30 1292 H 116.619 -5.20086 -1.783 0
M  V30 1293 H 117.844 -6.39936 -2.27284 0
M  V30 1294 H 115.79 -5.11212 -4.11094 0
M  V30 1295 H 115.707 -6.71865 -3.46602 0
M  V30 1296 H 116.975 -6.30651 -4.58148 0
M  V30 1297 N 121.204 0.198386 -1.56346 0
M  V30 1298 C 122.151 1.24589 -1.94284 0
M  V30 1299 C 123.121 1.454 -0.802997 0
M  V30 1300 O 124.306 1.58588 -1.06087 0
M  V30 1301 C 121.446 2.58631 -2.28482 0
M  V30 1302 C 120.559 2.45426 -3.55514 0
M  V30 1303 C 119.694 3.7215 -3.79049 0
M  V30 1304 C 118.733 3.53763 -4.99518 0
M  V30 1305 N 117.87 4.72491 -5.19323 0
M  V30 1306 H 122.71 0.915356 -2.83593 0
M  V30 1307 H 120.247 0.440629 -1.40346 0
M  V30 1308 H 122.205 3.3672 -2.46324 0
M  V30 1309 H 120.835 2.89734 -1.42317 0
M  V30 1310 H 119.887 1.58652 -3.45737 0
M  V30 1311 H 121.199 2.27772 -4.43758 0
M  V30 1312 H 120.353 4.58679 -3.97113 0
M  V30 1313 H 119.092 3.92754 -2.89129 0
M  V30 1314 H 118.097 2.65619 -4.8138 0
M  V30 1315 H 119.322 3.34607 -5.90944 0
M  V30 1316 H 117.268 4.93365 -4.3235 0
M  V30 1317 H 117.185 4.5765 -6.01741 0
M  V30 1318 H 118.453 5.6038 -5.41843 0
M  V30 1319 N 122.682 1.50554 0.465978 0
M  V30 1320 C 123.912 1.65323 1.23903 0
M  V30 1321 C 124.32 0.338051 1.86155 0
M  V30 1322 O 123.663 -0.690518 1.70228 0
M  V30 1323 C 123.725 2.69048 2.3844 0
M  V30 1324 C 123.389 4.12462 1.96784 0
M  V30 1325 C 124.386 4.98168 1.48745 0
M  V30 1326 C 122.071 4.58407 2.05349 0
M  V30 1327 C 124.065 6.27868 1.0982 0
M  V30 1328 C 121.752 5.88112 1.66035 0
M  V30 1329 C 122.75 6.72668 1.18349 0
M  V30 1330 O 122.438 7.99951 0.795825 0
M  V30 1331 H 122.17 0.558629 0.38067 0
M  V30 1332 H 124.724 1.97561 0.562022 0
M  V30 1333 H 122.954 2.32062 3.09328 0
M  V30 1334 H 124.643 2.72985 3.0039 0
M  V30 1335 H 125.409 4.63885 1.41546 0
M  V30 1336 H 121.288 3.92735 2.41414 0
M  V30 1337 H 124.832 6.93819 0.725293 0
M  V30 1338 H 120.729 6.21914 1.72895 0
M  V30 1339 H 121.497 8.13265 0.924222 0
M  V30 1340 N 124.16 -0.719506 1.40217 0
M  V30 1341 C 125.092 -1.84428 1.36084 0
M  V30 1342 C 126.105 -1.60597 0.266913 0
M  V30 1343 O 127.294 -1.70544 0.526983 0
M  V30 1344 C 124.394 -3.20757 1.094 0
M  V30 1345 C 123.567 -3.71817 2.30372 0
M  V30 1346 C 122.626 -4.86748 1.99907 0
M  V30 1347 O 121.652 -4.99603 2.72737 0
M  V30 1348 N 122.854 -5.7226 0.974635 0
M  V30 1349 H 125.619 -1.88473 2.33019 0
M  V30 1350 H 123.18 -0.900885 1.3452 0
M  V30 1351 H 125.172 -3.95235 0.870116 0
M  V30 1352 H 123.742 -3.11884 0.211452 0
M  V30 1353 H 122.962 -2.88514 2.68614 0
M  V30 1354 H 124.25 -4.02666 3.11026 0
M  V30 1355 H 123.648 -5.6448 0.371368 0
M  V30 1356 H 122.205 -6.46739 0.810656 0
M  V30 1357 N 125.638 -1.25649 -0.95132 0
M  V30 1358 C 126.885 -1.10594 -1.69633 0
M  V30 1359 C 127.213 0.352515 -1.91279 0
M  V30 1360 O 126.468 1.27601 -1.4838 0
M  V30 1361 C 126.767 -1.80909 -3.08231 0
M  V30 1362 C 126.433 -3.30825 -3.06375 0
M  V30 1363 C 125.095 -3.71722 -3.05576 0
M  V30 1364 C 127.447 -4.26589 -2.99452 0
M  V30 1365 C 124.775 -5.06788 -2.95606 0
M  V30 1366 C 127.127 -5.61683 -2.91024 0
M  V30 1367 C 125.791 -6.01904 -2.88562 0
M  V30 1368 H 125.061 -0.404691 -0.620731 0
M  V30 1369 H 127.708 -1.55964 -1.11119 0
M  V30 1370 H 126.013 -1.27979 -3.70309 0
M  V30 1371 H 127.71 -1.6671 -3.64704 0
M  V30 1372 H 124.3 -2.98287 -3.07771 0
M  V30 1373 H 128.484 -3.95982 -2.99185 0
M  V30 1374 H 123.74 -5.37126 -2.92071 0
M  V30 1375 H 127.914 -6.35578 -2.84629 0
M  V30 1376 H 125.541 -7.06521 -2.80593 0
M  V30 1377 N 127.117 1.15442 -1.07289 0
M  V30 1378 C 128.365 1.85845 -0.794096 0
M  V30 1379 C 128.686 1.82692 0.681809 0
M  V30 1380 O 127.956 1.26741 1.49377 0
M  V30 1381 H 126.536 0.688089 -0.290763 0
M  V30 1382 H 129.198 1.39947 -1.3565 0
M  V30 1383 H 128.294 2.91001 -1.12804 0
M  V30 1384 N 128.595 0.856903 1.32268 0
M  V30 1385 C 129.843 0.460474 1.96784 0
M  V30 1386 C 130.164 -0.987701 1.68135 0
M  V30 1387 O 129.434 -1.69058 0.989765 0
M  V30 1388 H 128.014 0.167289 0.728027 0
M  V30 1389 H 130.676 1.09383 1.61312 0
M  V30 1390 H 129.772 0.60739 3.06133 0
M  V30 1391 N 130.073 -1.45103 0.615059 0
M  V30 1392 C 131.322 -2.01396 0.110718 0
M  V30 1393 C 131.635 -1.48834 -1.26916 0
M  V30 1394 O 132.841 -1.97152 -1.86664 0
M  V30 1395 C 131.297 -3.59599 0.14723 0
M  V30 1396 C 130.905 -4.21158 1.52743 0
M  V30 1397 C 132.649 -4.23428 -0.30148 0
M  V30 1398 C 130.556 -5.71535 1.51992 0
M  V30 1399 H 129.486 -0.753061 0.0376241 0
M  V30 1400 H 132.137 -1.66494 0.77149 0
M  V30 1401 H 130.519 -3.91724 -0.580339 0
M  V30 1402 H 131.693 -4.00594 2.2773 0
M  V30 1403 H 130.008 -3.69552 1.91886 0
M  V30 1404 H 132.605 -5.33703 -0.326392 0
M  V30 1405 H 132.948 -3.94629 -1.32565 0
M  V30 1406 H 133.481 -3.96047 0.373065 0
M  V30 1407 H 130.22 -6.05044 2.52193 0
M  V30 1408 H 129.74 -5.94268 0.81274 0
M  V30 1409 H 131.419 -6.34873 1.24681 0
M  V30 1410 N 131.551 -0.354651 -1.53558 0
M  V30 1411 C 132.8 0.239504 -2.00273 0
M  V30 1412 C 133.113 1.50759 -1.24623 0
M  V30 1413 O 134.319 2.17968 -1.61871 0
M  V30 1414 C 132.775 0.477341 -3.5672 0
M  V30 1415 C 132.383 -0.775488 -4.41237 0
M  V30 1416 C 134.127 1.02975 -4.11821 0
M  V30 1417 C 132.034 -0.507838 -5.89216 0
M  V30 1418 H 130.964 0.0932743 -0.748208 0
M  V30 1419 H 133.615 -0.471701 -1.77334 0
M  V30 1420 H 131.997 1.24953 -3.7577 0
M  V30 1421 H 133.171 -1.54963 -4.33962 0
M  V30 1422 H 131.486 -1.25033 -3.97185 0
M  V30 1423 H 134.083 1.24513 -5.2 0
M  V30 1424 H 134.426 1.98862 -3.65731 0
M  V30 1425 H 134.959 0.317994 -3.96527 0
M  V30 1426 H 131.698 -1.43674 -6.39561 0
M  V30 1427 H 131.218 0.228011 -5.99366 0
M  V30 1428 H 132.897 -0.129238 -6.46871 0
M  V30 1429 N 133.029 1.57378 -0.0835403 0
M  V30 1430 C 133.959 2.1641 0.87686 0
M  V30 1431 C 134.94 1.09429 1.30228 0
M  V30 1432 O 136.125 1.37516 1.37124 0
M  V30 1433 C 133.255 2.73517 2.14022 0
M  V30 1434 C 132.209 3.85769 1.85381 0
M  V30 1435 C 131.535 4.29529 3.18448 0
M  V30 1436 C 132.835 5.09486 1.14984 0
M  V30 1437 H 134.529 2.96914 0.385059 0
M  V30 1438 H 132.075 1.42823 0.18377 0
M  V30 1439 H 134.028 3.13463 2.81636 0
M  V30 1440 H 132.752 1.90252 2.65465 0
M  V30 1441 H 131.411 3.46345 1.20169 0
M  V30 1442 H 131.059 3.43169 3.67755 0
M  V30 1443 H 130.759 5.05204 3.00071 0
M  V30 1444 H 132.283 4.72099 3.8724 0
M  V30 1445 H 133.697 5.46674 1.72687 0
M  V30 1446 H 132.094 5.90515 1.06826 0
M  V30 1447 H 133.164 4.84724 0.130749 0
M  V30 1448 N 134.507 -0.190092 1.56449 0
M  V30 1449 C 135.754 -0.909705 1.80916 0
M  V30 1450 C 136.082 -1.83047 0.657583 0
M  V30 1451 O 135.337 -1.92428 -0.356356 0
M  V30 1452 C 135.636 -1.75382 3.1141 0
M  V30 1453 C 135.302 -0.983606 4.40041 0
M  V30 1454 C 133.964 -0.770967 4.74984 0
M  V30 1455 C 136.316 -0.442024 5.19322 0
M  V30 1456 C 133.644 -0.0053448 5.867 0
M  V30 1457 C 135.996 0.310412 6.31838 0
M  V30 1458 C 134.66 0.534023 6.6536 0
M  V30 1459 H 133.93 -0.332885 0.662019 0
M  V30 1460 H 136.577 -0.175762 1.90692 0
M  V30 1461 H 134.882 -2.55659 2.96893 0
M  V30 1462 H 136.579 -2.31331 3.27547 0
M  V30 1463 H 133.169 -1.15936 4.12622 0
M  V30 1464 H 137.353 -0.593693 4.92736 0
M  V30 1465 H 132.609 0.177825 6.11141 0
M  V30 1466 H 136.783 0.737419 6.92485 0
M  V30 1467 H 134.41 1.12918 7.51767 0
M  V30 1468 N 135.985 -1.50799 -0.457987 0
M  V30 1469 C 136.948 -1.7005 -1.53674 0
M  V30 1470 C 137.948 -0.570881 -1.50325 0
M  V30 1471 O 139.138 -0.838126 -1.52712 0
M  V30 1472 C 136.27 -1.73788 -2.93276 0
M  V30 1473 H 137.463 -2.66306 -1.37917 0
M  V30 1474 H 135.016 -1.40477 -0.685271 0
M  V30 1475 H 135.751 -0.792717 -3.14462 0
M  V30 1476 H 135.536 -2.55864 -2.97113 0
M  V30 1477 H 137.026 -1.90591 -3.71571 0
M  V30 1478 N 137.463 0.71206 -1.40597 0
M  V30 1479 C 138.373 1.8562 -1.43466 0
M  V30 1480 C 139.389 1.70902 -0.326902 0
M  V30 1481 O 140.565 1.93105 -0.572043 0
M  V30 1482 C 137.63 3.21451 -1.29884 0
M  V30 1483 C 136.691 3.48398 -2.50833 0
M  V30 1484 C 135.924 4.77749 -2.3789 0
M  V30 1485 O 136.147 5.53089 -1.39459 0
M  V30 1486 O 135.081 5.05111 -3.27333 0
M  V30 1487 H 138.907 1.86155 -2.39958 0
M  V30 1488 H 136.492 0.86295 -1.21957 0
M  V30 1489 H 138.374 4.02579 -1.24531 0
M  V30 1490 H 137.049 3.21636 -0.364997 0
M  V30 1491 H 135.956 2.67265 -2.61763 0
M  V30 1492 H 137.289 3.53014 -3.4299 0
M  V30 1493 N 138.941 1.26152 0.944643 0
M  V30 1494 C 139.889 1.07215 2.06417 0
M  V30 1495 C 140.883 9.2007e-05 1.694 0
M  V30 1496 O 142.089 0.1565 1.79318 0
M  V30 1497 H 138.464 0.329837 0.675805 0
M  V30 1498 H 140.435 2.02099 2.19541 0
M  V30 1499 C 139.184 0.718197 3.40202 0
M  V30 1500 H 138.507 1.53497 3.69159 0
M  V30 1501 H 139.947 0.625459 4.19361 0
M  V30 1502 C 138.406 -0.576435 3.31932 0
M  V30 1503 O 138.936 -1.61574 3.67773 0
M  V30 1504 N 137.142 -0.565781 2.85039 0
M  V30 1505 H 136.689 0.280367 2.5607 0
M  V30 1506 H 136.647 -1.43213 2.79888 0
M  V30 1507 N 140.419 -1.14872 1.07899 0
M  V30 1508 C 141.665 -1.86064 0.806725 0
M  V30 1509 C 141.998 -1.82434 -0.665706 0
M  V30 1510 O 141.273 -1.25138 -1.48899 0
M  V30 1511 C 141.556 -3.34929 1.32267 0
M  V30 1512 C 141.409 -3.47161 2.86006 0
M  V30 1513 C 142.728 -4.29863 0.943717 0
M  V30 1514 H 139.847 -0.675591 0.294526 0
M  V30 1515 H 142.489 -1.34925 1.33773 0
M  V30 1516 H 140.639 -3.78611 0.870974 0
M  V30 1517 H 142.311 -3.12302 3.39507 0
M  V30 1518 H 140.554 -2.88539 3.23925 0
M  V30 1519 H 141.225 -4.51777 3.17177 0
M  V30 1520 H 143.701 -3.9417 1.33302 0
M  V30 1521 H 142.577 -5.32494 1.33198 0
M  V30 1522 H 142.838 -4.41846 -0.149796 0
M  V30 1523 N 141.898 -0.863906 -1.31812 0
M  V30 1524 C 142.845 -0.313303 -2.28664 0
M  V30 1525 C 143.815 0.584868 -1.55462 0
M  V30 1526 O 145 0.517805 -1.83639 0
M  V30 1527 C 142.14 0.48441 -3.41683 0
M  V30 1528 C 141.253 -0.440594 -4.29747 0
M  V30 1529 C 140.388 0.370652 -5.29905 0
M  V30 1530 C 139.427 -0.551164 -6.09613 0
M  V30 1531 N 138.564 0.223462 -7.01744 0
M  V30 1532 H 143.404 -1.14444 -2.75148 0
M  V30 1533 H 140.941 -0.575769 -1.35364 0
M  V30 1534 H 142.899 0.962627 -4.05943 0
M  V30 1535 H 141.529 1.28029 -2.96325 0
M  V30 1536 H 140.581 -1.03724 -3.65986 0
M  V30 1537 H 141.893 -1.14767 -4.85417 0
M  V30 1538 H 141.047 0.911638 -5.99812 0
M  V30 1539 H 139.786 1.11105 -4.74876 0
M  V30 1540 H 138.791 -1.10396 -5.38603 0
M  V30 1541 H 140.016 -1.29032 -6.66729 0
M  V30 1542 H 137.962 0.946787 -6.49132 0
M  V30 1543 H 137.879 -0.424399 -7.54808 0
M  V30 1544 H 139.147 0.745876 -7.75923 0
M  V30 1545 N 143.376 1.44774 -0.622745 0
M  V30 1546 C 144.604 2.06487 -0.130722 0
M  V30 1547 C 145.019 1.46476 1.19123 0
M  V30 1548 O 144.376 0.584502 1.72887 0
M  V30 1549 C 144.427 3.615 -0.000807207 0
M  V30 1550 O 144.148 4.19274 -1.27048 0
M  V30 1551 C 145.649 4.40229 0.520898 0
M  V30 1552 H 142.869 0.666704 -0.0758106 0
M  V30 1553 H 145.413 1.85779 -0.854774 0
M  V30 1554 H 143.568 3.81498 0.673643 0
M  V30 1555 H 143.982 5.12622 -1.1099 0
M  V30 1556 H 145.456 5.49144 0.560838 0
M  V30 1557 H 145.933 4.1108 1.54627 0
M  V30 1558 H 146.539 4.25131 -0.120018 0
M  V30 1559 N 144.854 0.36279 1.53368 0
M  V30 1560 C 146.082 -0.228613 2.05633 0
M  V30 1561 C 146.497 -1.42676 1.23649 0
M  V30 1562 O 145.854 -1.80394 0.27647 0
M  V30 1563 C 145.905 -0.624845 3.56059 0
M  V30 1564 O 145.626 0.525675 4.34935 0
M  V30 1565 C 147.127 -1.27493 4.24571 0
M  V30 1566 H 144.347 -0.0407183 0.669763 0
M  V30 1567 H 146.891 0.520352 1.97769 0
M  V30 1568 H 145.046 -1.32373 3.64083 0
M  V30 1569 H 145.46 0.205969 5.24095 0
M  V30 1570 H 146.934 -1.50277 5.31151 0
M  V30 1571 H 147.411 -2.23439 3.78116 0
M  V30 1572 H 148.017 -0.617558 4.20792 0
M  V30 1573 N 146.332 -1.57332 0.0918853 0
M  V30 1574 C 147.279 -2.13847 -0.868211 0
M  V30 1575 C 148.249 -1.05618 -1.28196 0
M  V30 1576 O 149.434 -1.33387 -1.36427 0
M  V30 1577 C 146.574 -2.72062 -2.12312 0
M  V30 1578 C 145.687 -3.94514 -1.7602 0
M  V30 1579 C 144.822 -4.40903 -2.96273 0
M  V30 1580 C 143.861 -5.55953 -2.56092 0
M  V30 1581 N 142.998 -5.97209 -3.69169 0
M  V30 1582 H 147.838 -2.95575 -0.379406 0
M  V30 1583 H 145.375 -1.46048 -0.175606 0
M  V30 1584 H 147.333 -3.03931 -2.858 0
M  V30 1585 H 145.963 -1.93068 -2.58698 0
M  V30 1586 H 145.015 -3.68979 -0.925135 0
M  V30 1587 H 146.327 -4.7802 -1.42472 0
M  V30 1588 H 145.481 -4.74539 -3.78018 0
M  V30 1589 H 144.22 -3.56291 -3.33029 0
M  V30 1590 H 143.225 -5.21948 -1.72773 0
M  V30 1591 H 144.45 -6.42311 -2.20484 0
M  V30 1592 H 142.396 -5.15543 -4.05649 0
M  V30 1593 H 142.313 -6.75504 -3.39456 0
M  V30 1594 H 143.581 -6.35475 -4.51434 0
M  V30 1595 N 147.81 0.181792 -1.56548 0
M  V30 1596 C 148.742 1.24956 -1.92142 0
M  V30 1597 C 149.755 1.41022 -0.813422 0
M  V30 1598 O 150.944 1.41212 -1.09186 0
M  V30 1599 C 148.044 2.61981 -2.14987 0
M  V30 1600 C 147.217 2.6735 -3.46183 0
M  V30 1601 C 146.276 3.85664 -3.5798 0
M  V30 1602 O 145.302 3.72148 -4.30691 0
M  V30 1603 N 146.504 5.01683 -2.92053 0
M  V30 1604 H 149.269 0.947329 -2.84334 0
M  V30 1605 H 146.83 0.371629 -1.57577 0
M  V30 1606 H 148.822 3.3958 -2.20154 0
M  V30 1607 H 147.392 2.84637 -1.2923 0
M  V30 1608 H 146.612 1.75925 -3.52766 0
M  V30 1609 H 147.9 2.67939 -4.32534 0
M  V30 1610 H 147.298 5.15564 -2.32832 0
M  V30 1611 H 145.855 5.77181 -3.0283 0
M  V30 1612 N 149.288 1.51039 0.449983 0
M  V30 1613 C 150.516 1.66869 1.2232 0
M  V30 1614 C 150.931 0.360727 1.85322 0
M  V30 1615 O 150.288 -0.659531 1.70166 0
M  V30 1616 C 150.339 2.77524 2.31652 0
M  V30 1617 O 150.06 4.03252 1.7123 0
M  V30 1618 C 151.561 3.04512 3.2216 0
M  V30 1619 H 148.781 0.560326 0.369155 0
M  V30 1620 H 151.325 1.97385 0.534719 0
M  V30 1621 H 149.48 2.49642 2.96239 0
M  V30 1622 H 149.894 4.64609 2.43389 0
M  V30 1623 H 151.368 3.85551 3.95038 0
M  V30 1624 H 151.845 2.16415 3.8218 0
M  V30 1625 H 152.451 3.34005 2.63288 0
M  V30 1626 N 150.766 -0.704594 1.40972 0
M  V30 1627 C 152.012 -1.46675 1.40051 0
M  V30 1628 C 152.345 -1.94199 0.00641102 0
M  V30 1629 O 151.62 -1.68916 -0.964235 0
M  V30 1630 C 151.903 -2.68505 2.39952 0
M  V30 1631 C 151.756 -2.26805 3.88432 0
M  V30 1632 C 153.075 -3.70686 2.37233 0
M  V30 1633 H 150.194 -0.532015 0.510028 0
M  V30 1634 H 152.836 -0.803255 1.72185 0
M  V30 1635 H 150.986 -3.25114 2.1268 0
M  V30 1636 H 152.658 -1.75592 4.26574 0
M  V30 1637 H 150.901 -1.58685 4.03734 0
M  V30 1638 H 151.572 -3.14181 4.53866 0
M  V30 1639 H 154.048 -3.23731 2.61415 0
M  V30 1640 H 152.924 -4.53553 3.09162 0
M  V30 1641 H 153.185 -4.19754 1.38777 0
M  V30 1642 N 152.244 -1.26651 -0.937939 0
M  V30 1643 C 153.176 -1.04283 -2.04102 0
M  V30 1644 C 154.189 -0.00221014 -1.628 0
M  V30 1645 O 155.378 -0.242645 -1.76843 0
M  V30 1646 C 152.478 -0.557846 -3.34277 0
M  V30 1647 C 151.651 -1.66843 -4.04329 0
M  V30 1648 C 150.71 -1.18095 -5.12777 0
M  V30 1649 O 149.736 -1.87865 -5.37304 0
M  V30 1650 N 150.938 -0.0311006 -5.80492 0
M  V30 1651 H 153.703 -1.9927 -2.23856 0
M  V30 1652 H 151.264 -1.1808 -1.10764 0
M  V30 1653 H 153.256 -0.215836 -4.04124 0
M  V30 1654 H 151.826 0.298523 -3.11171 0
M  V30 1655 H 151.046 -2.18123 -3.28353 0
M  V30 1656 H 152.334 -2.41408 -4.47883 0
M  V30 1657 H 151.732 0.551486 -5.63005 0
M  V30 1658 H 150.289 0.251809 -6.51313 0
M  V30 1659 N 153.722 1.14298 -1.08507 0
M  V30 1660 C 154.652 2.21542 -0.737646 0
M  V30 1661 C 155.633 1.67773 0.280377 0
M  V30 1662 O 156.818 1.93616 0.150521 0
M  V30 1663 C 153.948 3.46988 -0.147259 0
M  V30 1664 C 152.902 4.13789 -1.09374 0
M  V30 1665 C 152.228 5.33449 -0.365524 0
M  V30 1666 C 153.528 4.62208 -2.4323 0
M  V30 1667 H 155.222 2.5086 -1.6343 0
M  V30 1668 H 152.768 1.20576 -0.787243 0
M  V30 1669 H 154.721 4.21262 0.107808 0
M  V30 1670 H 153.445 3.17037 0.784538 0
M  V30 1671 H 152.104 3.4147 -1.33393 0
M  V30 1672 H 151.752 4.99759 0.57011 0
M  V30 1673 H 151.452 5.79088 -0.996512 0
M  V30 1674 H 152.976 6.10485 -0.118534 0
M  V30 1675 H 154.39 5.27952 -2.23472 0
M  V30 1676 H 152.787 5.18553 -3.02031 0
M  V30 1677 H 153.857 3.77224 -3.04681 0
M  V30 1678 N 155.201 0.870884 1.31352 0
M  V30 1679 C 156.429 0.49677 2.00848 0
M  V30 1680 C 156.844 -0.910998 1.65367 0
M  V30 1681 O 156.201 -1.59696 0.883374 0
M  V30 1682 C 156.252 0.645308 3.55694 0
M  V30 1683 O 155.973 1.99764 3.89905 0
M  V30 1684 C 157.474 0.272326 4.42463 0
M  V30 1685 H 154.694 0.193462 0.642506 0
M  V30 1686 H 157.238 1.1723 1.67563 0
M  V30 1687 H 155.393 0.0173176 3.87396 0
M  V30 1688 H 155.807 2.00607 4.84621 0
M  V30 1689 H 157.281 0.427208 5.50344 0
M  V30 1690 H 157.758 -0.788587 4.32062 0
M  V30 1691 H 158.364 0.876054 4.1618 0
M  V30 1692 N 156.679 -1.44442 0.630414 0
M  V30 1693 C 157.956 -1.9549 0.0655657 0
M  V30 1694 C 158.336 -1.5724 -1.40851 0
M  V30 1695 O 157.684 -0.846116 -2.12257 0
M  V30 1696 C 157.894 -3.47812 0.287691 0
M  V30 1697 C 159.242 -4.24216 0.180513 0
M  V30 1698 O 160.266 -3.55526 0.219019 0
M  V30 1699 O 159.125 -5.46434 0.0848493 0
M  V30 1700 H 156.219 -0.826688 -0.0227177 0
M  V30 1701 H 158.765 -1.54496 0.702068 0
M  V30 1702 H 157.537 -3.687 1.31056 0
M  V30 1703 H 157.16 -3.95751 -0.382984 0
M  V30 1704 N 158.157 -0.370918 -1.53173 0
M  V30 1705 C 159.434 0.273754 -1.93675 0
M  V30 1706 C 159.814 1.65938 -1.3049 0
M  V30 1707 O 159.162 2.23698 -0.465999 0
M  V30 1708 C 159.372 0.318602 -3.47543 0
M  V30 1709 C 160.72 0.556392 -4.20939 0
M  V30 1710 O 161.744 0.399587 -3.53952 0
M  V30 1711 O 160.603 0.862133 -5.39657 0
M  V30 1712 H 157.697 0.165448 -0.810281 0
M  V30 1713 H 160.243 -0.42409 -1.64315 0
M  V30 1714 H 159.015 -0.652687 -3.85818 0
M  V30 1715 H 158.638 1.06212 -3.83151 0
M  V30 1716 N 159.635 1.57281 -0.100228 0
M  V30 1717 C 160.865 1.98591 0.569681 0
M  V30 1718 C 161.273 0.978315 1.61943 0
M  V30 1719 O 160.616 -0.0396108 1.83657 0
M  V30 1720 C 160.678 3.36282 1.271 0
M  V30 1721 C 160.342 4.55488 0.371409 0
M  V30 1722 C 161.339 5.18491 -0.382504 0
M  V30 1723 C 159.024 5.01474 0.287965 0
M  V30 1724 C 161.018 6.25852 -1.20779 0
M  V30 1725 C 158.705 6.08701 -0.540965 0
M  V30 1726 C 159.703 6.70755 -1.28749 0
M  V30 1727 O 159.391 7.75914 -2.10269 0
M  V30 1728 H 159.123 0.65752 0.156982 0
M  V30 1729 H 161.677 2.0463 -0.177734 0
M  V30 1730 H 159.907 3.26941 2.0651 0
M  V30 1731 H 161.596 3.62005 1.83595 0
M  V30 1732 H 162.362 4.83891 -0.3278 0
M  V30 1733 H 158.241 4.52932 0.858689 0
M  V30 1734 H 161.785 6.74218 -1.79096 0
M  V30 1735 H 157.682 6.42732 -0.597131 0
M  V30 1736 H 158.45 7.92925 -2.03007 0
M  V30 1737 N 161.113 -0.173488 1.56642 0
M  V30 1738 C 162.045 -1.23935 1.92802 0
M  V30 1739 C 163.058 -1.40589 0.820889 0
M  V30 1740 O 164.247 -1.40631 1.09933 0
M  V30 1741 C 161.347 -2.60837 2.16373 0
M  V30 1742 C 160.52 -2.6551 3.47596 0
M  V30 1743 C 159.579 -3.8376 3.60021 0
M  V30 1744 O 158.605 -3.69859 4.32658 0
M  V30 1745 N 159.807 -5.00127 2.94709 0
M  V30 1746 H 162.572 -0.932236 2.84832 0
M  V30 1747 H 160.133 -0.363268 1.57772 0
M  V30 1748 H 162.125 -3.38407 2.21952 0
M  V30 1749 H 160.695 -2.83948 1.30738 0
M  V30 1750 H 159.915 -1.74052 3.53694 0
M  V30 1751 H 161.203 -2.65641 4.33949 0
M  V30 1752 H 160.601 -5.14322 2.35563 0
M  V30 1753 H 159.158 -5.75567 3.05886 0
M  V30 1754 N 162.591 -1.51276 -0.441967 0
M  V30 1755 C 163.538 -1.72256 -1.53612 0
M  V30 1756 C 164.508 -0.564164 -1.56225 0
M  V30 1757 O 165.693 -0.798074 -1.73307 0
M  V30 1758 C 162.833 -1.84932 -2.91366 0
M  V30 1759 C 161.946 -3.12459 -2.98317 0
M  V30 1760 C 161.081 -3.15758 -4.27166 0
M  V30 1761 C 160.12 -4.37619 -4.27967 0
M  V30 1762 N 159.257 -4.38493 -5.48333 0
M  V30 1763 H 164.097 -2.65654 -1.35026 0
M  V30 1764 H 161.634 -1.31662 -0.656009 0
M  V30 1765 H 163.592 -1.90263 -3.7129 0
M  V30 1766 H 162.222 -0.949461 -3.08521 0
M  V30 1767 H 161.274 -3.1646 -2.11086 0
M  V30 1768 H 162.586 -4.02382 -2.94771 0
M  V30 1769 H 161.74 -3.19979 -5.15459 0
M  V30 1770 H 160.479 -2.23715 -4.33362 0
M  V30 1771 H 159.484 -4.33579 -3.38067 0
M  V30 1772 H 160.709 -5.30921 -4.23438 0
M  V30 1773 H 158.655 -3.49318 -5.55259 0
M  V30 1774 H 158.572 -5.22219 -5.46647 0
M  V30 1775 H 159.84 -4.469 -6.38671 0
M  V30 1776 N 164.069 0.697108 -1.41344 0
M  V30 1777 C 165.032 1.79281 -1.42797 0
M  V30 1778 C 166.032 1.57607 -0.318837 0
M  V30 1779 O 167.222 1.64309 -0.578642 0
M  V30 1780 C 164.354 3.17632 -1.23785 0
M  V30 1781 H 165.547 1.79385 -2.40335 0
M  V30 1782 H 163.1 0.904582 -1.27464 0
M  V30 1783 H 163.835 3.23167 -0.270814 0
M  V30 1784 H 163.62 3.34765 -2.04144 0
M  V30 1785 H 165.11 3.97617 -1.27633 0
M  V30 1786 N 165.547 1.27147 0.931209 0
M  V30 1787 C 166.772 1.16191 1.71797 0
M  V30 1788 C 167.197 -0.278004 1.86034 0
M  V30 1789 O 166.555 -1.20137 1.35782 0
M  V30 1790 C 166.603 1.84673 3.09723 0
M  V30 1791 O 165.707 1.14231 3.96264 0
M  V30 1792 H 165.048 0.404303 0.526721 0
M  V30 1793 H 167.578 1.68152 1.1656 0
M  V30 1794 H 167.588 1.91893 3.60057 0
M  V30 1795 H 166.263 2.89421 2.98677 0
M  V30 1796 H 164.84 1.15056 3.54706 0
M  V30 1797 N 167.025 -1.13721 1.09112 0
M  V30 1798 C 168.436 -1.6648 0.845068 0
M  V30 1799 C 168.787 -1.85911 -0.62701 0
M  V30 1800 O 167.912 -1.57556 -1.48341 0
M  V30 1801 C 168.507 -3.02413 1.52748 0
M  V30 1802 C 167.066 -3.52176 1.32849 0
M  V30 1803 C 166.213 -2.27492 1.58564 0
M  V30 1804 H 169.164 -0.976872 1.25072 0
M  V30 1805 H 169.185 -3.68223 0.958752 0
M  V30 1806 H 168.697 -2.88238 2.59885 0
M  V30 1807 H 166.798 -3.7156 0.278137 0
M  V30 1808 H 166.911 -4.32499 2.0611 0
M  V30 1809 H 165.275 -2.33923 1.00758 0
M  V30 1810 H 166.058 -2.15886 2.66924 0
M  V30 1811 N 168.503 -0.877838 -1.30888 0
M  V30 1812 C 169.45 -0.337538 -2.28318 0
M  V30 1813 C 170.42 0.568346 -1.56074 0
M  V30 1814 O 171.605 0.498298 -1.84178 0
M  V30 1815 C 168.745 0.448142 -3.42178 0
M  V30 1816 C 167.858 -0.48615 -4.29256 0
M  V30 1817 C 166.993 0.314427 -5.30269 0
M  V30 1818 C 166.032 -0.615791 -6.08995 0
M  V30 1819 N 165.169 0.14902 -7.01942 0
M  V30 1820 H 170.009 -1.17356 -2.73919 0
M  V30 1821 H 167.546 -0.590094 -1.34745 0
M  V30 1822 H 169.504 0.919517 -4.06941 0
M  V30 1823 H 168.134 1.24879 -2.97666 0
M  V30 1824 H 167.186 -1.076 -3.64865 0
M  V30 1825 H 168.498 -1.19909 -4.84173 0
M  V30 1826 H 167.652 0.847969 -6.00745 0
M  V30 1827 H 166.391 1.06062 -4.76027 0
M  V30 1828 H 165.396 -1.16102 -5.37401 0
M  V30 1829 H 166.621 -1.36097 -6.65323 0
M  V30 1830 H 164.567 0.877884 -6.50099 0
M  V30 1831 H 164.484 -0.504433 -7.54315 0
M  V30 1832 H 165.752 0.663537 -7.76671 0
M  V30 1833 N 169.982 1.44106 -0.638065 0
M  V30 1834 C 171.231 2.01194 -0.142744 0
M  V30 1835 C 171.544 1.50835 1.24532 0
M  V30 1836 O 172.75 2.00096 1.83504 0
M  V30 1837 C 171.206 3.59319 -0.20442 0
M  V30 1838 C 170.814 4.18674 -1.59423 0
M  V30 1839 C 172.558 4.23854 0.234079 0
M  V30 1840 C 170.465 5.69045 -1.61065 0
M  V30 1841 H 169.395 0.752367 -0.0495998 0
M  V30 1842 H 172.046 1.65246 -0.797881 0
M  V30 1843 H 170.428 3.92598 0.517946 0
M  V30 1844 H 171.602 3.96921 -2.34074 0
M  V30 1845 H 169.917 3.66453 -1.97741 0
M  V30 1846 H 172.514 5.34155 0.241443 0
M  V30 1847 H 172.857 3.96688 1.2627 0
M  V30 1848 H 173.39 3.95403 -0.436025 0
M  V30 1849 H 170.129 6.00956 -2.61787 0
M  V30 1850 H 169.649 5.929 -0.90718 0
M  V30 1851 H 171.328 6.32809 -1.34766 0
M  V30 1852 N 171.46 0.379036 1.52974 0
M  V30 1853 C 172.871 -0.0972525 1.86447 0
M  V30 1854 C 173.222 -1.47027 1.29914 0
M  V30 1855 O 172.347 -2.07135 0.626433 0
M  V30 1856 C 172.942 -0.183248 3.38304 0
M  V30 1857 C 171.501 -0.603812 3.71525 0
M  V30 1858 C 170.648 0.240632 2.76254 0
M  V30 1859 H 173.599 0.597316 1.4703 0
M  V30 1860 H 173.62 -1.00432 3.67006 0
M  V30 1861 H 173.132 0.816191 3.79421 0
M  V30 1862 H 171.233 -1.61099 3.35973 0
M  V30 1863 H 171.346 -0.369086 4.77676 0
M  V30 1864 H 169.71 -0.292548 2.53014 0
M  V30 1865 H 170.493 1.23786 3.20206 0
M  V30 1866 N 172.938 -1.57226 0.108567 0
M  V30 1867 C 173.868 -2.17778 -0.84232 0
M  V30 1868 C 174.849 -1.11487 -1.2847 0
M  V30 1869 O 176.034 -1.39681 -1.34918 0
M  V30 1870 C 173.164 -2.76888 -2.09644 0
M  V30 1871 C 172.118 -3.88669 -1.79221 0
M  V30 1872 C 171.444 -4.34541 -3.11574 0
M  V30 1873 C 172.744 -5.11251 -1.06864 0
M  V30 1874 H 174.438 -2.97489 -0.337774 0
M  V30 1875 H 171.984 -1.43097 -0.161025 0
M  V30 1876 H 173.937 -3.17904 -2.76614 0
M  V30 1877 H 172.661 -1.94451 -2.62405 0
M  V30 1878 H 171.32 -3.48213 -1.14644 0
M  V30 1879 H 170.968 -3.48977 -3.62249 0
M  V30 1880 H 170.668 -5.09914 -2.91996 0
M  V30 1881 H 172.192 -4.782 -3.7968 0
M  V30 1882 H 173.606 -5.49352 -1.63968 0
M  V30 1883 H 172.003 -5.9214 -0.974178 0
M  V30 1884 H 173.073 -4.8487 -0.0536168 0
M  V30 1885 N 174.416 0.165178 -1.56732 0
M  V30 1886 C 175.349 1.23336 -1.91998 0
M  V30 1887 C 176.327 1.42476 -0.783531 0
M  V30 1888 O 177.511 1.57384 -1.03743 0
M  V30 1889 C 174.638 2.59533 -2.17625 0
M  V30 1890 C 173.684 2.57093 -3.40302 0
M  V30 1891 S 174.517 2.05571 -4.9447 0
M  V30 1892 C 175.673 3.43532 -5.23198 0
M  V30 1893 H 175.906 0.932387 -2.82301 0
M  V30 1894 H 173.439 0.370013 -1.49901 0
M  V30 1895 H 175.397 3.37918 -2.3307 0
M  V30 1896 H 174.058 2.86827 -1.28019 0
M  V30 1897 H 173.251 3.57308 -3.55453 0
M  V30 1898 H 172.853 1.86806 -3.24005 0
M  V30 1899 H 175.145 4.39559 -5.15552 0
M  V30 1900 H 176.088 3.33251 -6.2478 0
M  V30 1901 H 176.496 3.39828 -4.50752 0
M  V30 1902 N 175.894 1.51508 0.433938 0
M  V30 1903 C 176.824 1.76016 1.53429 0
M  V30 1904 C 177.805 0.610112 1.58782 0
M  V30 1905 O 178.99 0.853177 1.74455 0
M  V30 1906 C 176.12 1.88831 2.9148 0
M  V30 1907 C 175.074 3.04288 3.00987 0
M  V30 1908 C 174.4 3.0229 4.4105 0
M  V30 1909 C 175.7 4.44193 2.74754 0
M  V30 1910 H 177.394 2.68152 1.33171 0
M  V30 1911 H 174.94 1.29035 0.639214 0
M  V30 1912 H 176.893 2.04559 3.6842 0
M  V30 1913 H 175.617 0.933455 3.12976 0
M  V30 1914 H 174.276 2.8827 2.26486 0
M  V30 1915 H 173.924 2.04576 4.59519 0
M  V30 1916 H 173.624 3.79822 4.4834 0
M  V30 1917 H 175.148 3.20116 5.1996 0
M  V30 1918 H 176.562 4.60544 3.41426 0
M  V30 1919 H 174.959 5.23457 2.9345 0
M  V30 1920 H 176.029 4.53996 1.70339 0
M  V30 1921 N 177.372 -0.689602 1.41712 0
M  V30 1922 C 178.597 -1.48329 1.44959 0
M  V30 1923 C 179.022 -1.8801 0.0581283 0
M  V30 1924 O 178.38 -1.55026 -0.940035 0
M  V30 1925 C 178.428 -2.71835 2.36935 0
M  V30 1926 O 177.532 -3.69549 1.8305 0
M  V30 1927 H 176.873 -0.446199 0.491734 0
M  V30 1928 H 179.403 -0.847127 1.86239 0
M  V30 1929 H 179.413 -3.20076 2.53013 0
M  V30 1930 H 178.088 -2.42291 3.38035 0
M  V30 1931 H 176.665 -3.2851 1.76452 0
M  V30 1932 N 178.85 -1.27639 -0.924453 0
M  V30 1933 C 180.099 -1.13549 -1.66702 0
M  V30 1934 C 180.412 0.317487 -1.93006 0
M  V30 1935 O 181.618 0.579333 -2.65247 0
M  V30 1936 C 180.074 -1.98426 -3.00259 0
M  V30 1937 C 179.682 -3.484 -2.81641 0
M  V30 1938 C 181.426 -1.92993 -3.78092 0
M  V30 1939 C 179.333 -4.25464 -4.10773 0
M  V30 1940 H 178.263 -0.421351 -0.625283 0
M  V30 1941 H 180.914 -1.52085 -1.02676 0
M  V30 1942 H 179.296 -1.52736 -3.6536 0
M  V30 1943 H 180.47 -4.01973 -2.25287 0
M  V30 1944 H 178.785 -3.55245 -2.17232 0
M  V30 1945 H 181.382 -2.47844 -4.7379 0
M  V30 1946 H 181.725 -0.904281 -4.0636 0
M  V30 1947 H 182.258 -2.36595 -3.19793 0
M  V30 1948 H 178.997 -5.28566 -3.87683 0
M  V30 1949 H 178.517 -3.76667 -4.66779 0
M  V30 1950 H 180.196 -4.34812 -4.79111 0
M  V30 1951 N 180.328 1.1314 -1.09713 0
M  V30 1952 C 181.605 1.80762 -0.747302 0
M  V30 1953 C 181.985 1.96663 0.767265 0
M  V30 1954 O 181.333 1.53706 1.69076 0
M  V30 1955 C 181.543 3.15606 -1.48975 0
M  V30 1956 C 182.891 3.90914 -1.65746 0
M  V30 1957 O 183.915 3.25239 -1.45251 0
M  V30 1958 O 182.774 5.08718 -1.9967 0
M  V30 1959 H 179.868 0.782103 -0.268782 0
M  V30 1960 H 182.414 1.20041 -1.19951 0
M  V30 1961 H 181.186 2.99278 -2.52088 0
M  V30 1962 H 180.809 3.84029 -1.02991 0
M  V30 1963 N 181.806 0.884767 1.30421 0
M  V30 1964 C 182.738 0.308655 2.27112 0
M  V30 1965 C 183.751 -0.536655 1.53701 0
M  V30 1966 O 184.94 -0.35624 1.74909 0
M  V30 1967 C 182.04 -0.579782 3.33904 0
M  V30 1968 C 181.213 0.236417 4.36761 0
M  V30 1969 C 180.272 -0.582482 5.22966 0
M  V30 1970 O 179.298 -0.00525502 5.692 0
M  V30 1971 N 180.5 -1.89163 5.48815 0
M  V30 1972 H 183.265 1.13964 2.77186 0
M  V30 1973 H 180.826 0.747731 1.43599 0
M  V30 1974 H 182.818 -1.13366 3.88497 0
M  V30 1975 H 181.388 -1.31144 2.83761 0
M  V30 1976 H 180.608 0.97174 3.82035 0
M  V30 1977 H 181.896 0.795924 5.02536 0
M  V30 1978 H 181.294 -2.38352 5.13035 0
M  V30 1979 H 179.851 -2.39296 6.06284 0
M  V30 1980 N 183.284 -1.43765 0.645699 0
M  V30 1981 C 184.194 -2.34544 -0.0512957 0
M  V30 1982 C 185.21 -1.53455 -0.82022 0
M  V30 1983 O 186.386 -1.86133 -0.769176 0
M  V30 1984 C 183.451 -3.31636 -1.01087 0
M  V30 1985 C 182.512 -4.2863 -0.239712 0
M  V30 1986 C 181.745 -5.21084 -1.15358 0
M  V30 1987 O 181.968 -5.1779 -2.39269 0
M  V30 1988 O 180.902 -5.98593 -0.630038 0
M  V30 1989 H 184.728 -2.95624 0.695718 0
M  V30 1990 H 182.313 -1.43781 0.405882 0
M  V30 1991 H 184.195 -3.9136 -1.56254 0
M  V30 1992 H 182.87 -2.73069 -1.73824 0
M  V30 1993 H 181.777 -3.72408 0.355356 0
M  V30 1994 H 183.11 -4.90157 0.447936 0
M  V30 1995 N 184.763 -0.387143 -1.52771 0
M  V30 1996 C 186.011 0.195349 -2.01154 0
M  V30 1997 C 186.332 1.475 -1.27549 0
M  V30 1998 O 185.602 1.91878 -0.394924 0
M  V30 1999 H 184.182 0.075178 -0.743207 0
M  V30 2000 H 186.844 -0.518337 -1.87881 0
M  V30 2001 H 185.94 0.407096 -3.09434 0
M  V30 2002 N 186.241 1.57166 -0.116904 0
M  V30 2003 C 187.489 1.94737 0.540533 0
M  V30 2004 C 187.81 1.00096 1.67349 0
M  V30 2005 O 187.08 0.0568854 1.95817 0
M  V30 2006 H 185.66 0.718981 0.202669 0
M  V30 2007 H 188.322 1.94017 -0.185353 0
M  V30 2008 H 187.418 2.97719 0.936483 0
M  V30 2009 N 187.719 -0.156864 1.56817 0
M  V30 2010 C 188.968 -0.869504 1.81996 0
M  V30 2011 C 189.281 -1.82777 0.696545 0
M  V30 2012 O 190.487 -2.58384 0.833658 0
M  V30 2013 C 188.943 -1.59679 3.22538 0
M  V30 2014 C 188.551 -0.681431 4.42787 0
M  V30 2015 C 190.295 -2.2968 3.56997 0
M  V30 2016 C 188.202 -1.40978 5.74351 0
M  V30 2017 H 187.132 -0.328438 0.678708 0
M  V30 2018 H 189.783 -0.1223 1.83092 0
M  V30 2019 H 188.165 -2.38927 3.158 0
M  V30 2020 H 189.339 0.0751166 4.60739 0
M  V30 2021 H 187.654 -0.0903431 4.16302 0
M  V30 2022 H 190.251 -2.84794 4.52544 0
M  V30 2023 H 190.594 -3.05707 2.82576 0
M  V30 2024 H 191.127 -1.57361 3.65352 0
M  V30 2025 H 187.866 -0.691561 6.51842 0
M  V30 2026 H 187.386 -2.13929 5.60352 0
M  V30 2027 H 189.065 -1.95337 6.16808 0
M  V30 2028 N 189.197 -1.51736 -0.425897 0
M  V30 2029 C 190.443 -1.65214 -1.1761 0
M  V30 2030 C 190.776 -0.372778 -1.90589 0
M  V30 2031 O 190.051 0.628139 -1.84078 0
M  V30 2032 C 190.334 -2.86312 -2.18398 0
M  V30 2033 C 190.187 -4.24254 -1.49426 0
M  V30 2034 C 191.506 -3.02925 -3.19256 0
M  V30 2035 H 188.625 -0.601263 -0.426206 0
M  V30 2036 H 191.267 -1.8425 -0.463882 0
M  V30 2037 H 189.417 -2.70213 -2.79137 0
M  V30 2038 H 191.089 -4.52046 -0.919362 0
M  V30 2039 H 189.332 -4.26426 -0.796432 0
M  V30 2040 H 190.003 -5.05001 -2.22885 0
M  V30 2041 H 192.479 -3.1781 -2.68581 0
M  V30 2042 H 191.355 -3.89199 -3.8706 0
M  V30 2043 H 191.616 -2.15497 -3.86023 0
M  V30 2044 N 190.675 0.682077 -1.42076 0
M  V30 2045 C 191.903 1.47057 -1.4554 0
M  V30 2046 C 192.318 1.8869 -0.0645779 0
M  V30 2047 O 191.675 1.57666 0.919115 0
M  V30 2048 C 191.726 2.72442 -2.37609 0
M  V30 2049 O 191.447 2.32559 -3.71279 0
M  V30 2050 C 192.948 3.66069 -2.50017 0
M  V30 2051 H 190.168 0.452737 -0.495248 0
M  V30 2052 H 192.712 0.838695 -1.8651 0
M  V30 2053 H 190.867 3.31835 -1.9991 0
M  V30 2054 H 191.281 3.13475 -4.20516 0
M  V30 2055 H 192.755 4.50792 -3.18576 0
M  V30 2056 H 193.232 4.11476 -1.53572 0
M  V30 2057 H 193.838 3.12572 -2.88407 0
M  V30 2058 N 192.153 1.28127 0.917671 0
M  V30 2059 C 193.569 1.05749 1.19538 0
M  V30 2060 C 193.769 -0.202633 2.00479 0
M  V30 2061 O 192.825 -0.905382 2.3571 0
M  V30 2062 C 194.138 2.30273 1.93378 0
M  V30 2063 C 195.686 2.35412 2.06277 0
M  V30 2064 C 196.161 3.59692 2.83524 0
M  V30 2065 N 197.652 3.60309 2.91087 0
M  V30 2066 C 198.387 4.53147 3.51348 0
M  V30 2067 N 197.883 5.563 4.12919 0
M  V30 2068 N 199.676 4.40751 3.48849 0
M  V30 2069 H 191.827 2.09024 0.377184 0
M  V30 2070 H 194.09 0.919798 0.22951 0
M  V30 2071 H 193.796 3.22055 1.41328 0
M  V30 2072 H 193.67 2.36378 2.93947 0
M  V30 2073 H 196.057 1.4413 2.57508 0
M  V30 2074 H 196.138 2.33304 1.04895 0
M  V30 2075 H 195.782 4.51316 2.32973 0
M  V30 2076 H 195.712 3.59054 3.85211 0
M  V30 2077 H 198.203 2.85714 2.47338 0
M  V30 2078 H 198.516 6.2329 4.56869 0
M  V30 2079 H 196.861 5.60131 4.11435 0
M  V30 2080 H 200.052 3.59367 2.99955 0
M  V30 2081 H 200.225 5.13291 3.9552 0
M  V30 2082 N 193.631 -1.12557 1.10312 0
M  V30 2083 C 194.561 -2.20341 0.772798 0
M  V30 2084 C 195.542 -1.68198 -0.25365 0
M  V30 2085 O 196.727 -1.93831 -0.119699 0
M  V30 2086 C 193.857 -3.46709 0.202443 0
M  V30 2087 C 192.811 -4.11996 1.15943 0
M  V30 2088 C 192.137 -5.328 0.450345 0
M  V30 2089 C 193.437 -4.5828 2.50552 0
M  V30 2090 H 195.131 -2.48229 1.674 0
M  V30 2091 H 192.677 -1.19308 0.806326 0
M  V30 2092 H 194.63 -4.2138 -0.0407752 0
M  V30 2093 H 193.354 -3.18245 -0.734001 0
M  V30 2094 H 192.013 -3.39305 1.38808 0
M  V30 2095 H 191.661 -5.00602 -0.490531 0
M  V30 2096 H 191.361 -5.7743 1.08851 0
M  V30 2097 H 192.885 -6.10219 0.215642 0
M  V30 2098 H 194.299 -5.2433 2.31843 0
M  V30 2099 H 192.696 -5.13683 3.10242 0
M  V30 2100 H 193.766 -3.72329 3.10643 0
M  V30 2101 N 195.109 -0.891671 -1.2995 0
M  V30 2102 C 196.357 -0.512486 -1.95494 0
M  V30 2103 C 196.678 0.942776 -1.70695 0
M  V30 2104 O 195.948 1.66374 -1.03424 0
M  V30 2105 H 194.528 -0.186533 -0.723336 0
M  V30 2106 H 197.19 -1.13621 -1.58355 0
M  V30 2107 H 196.286 -0.688342 -3.04415 0
M  V30 2108 N 196.587 1.43421 -0.653314 0
M  V30 2109 C 197.497 2.34568 0.0388565 0
M  V30 2110 C 198.513 1.53888 0.81207 0
M  V30 2111 O 199.689 1.86539 0.759294 0
M  V30 2112 C 196.754 3.32167 0.993269 0
M  V30 2113 C 195.815 4.28751 0.216977 0
M  V30 2114 C 195.048 5.21688 1.12593 0
M  V30 2115 O 195.271 5.19052 2.36519 0
M  V30 2116 O 194.205 5.98919 0.598284 0
M  V30 2117 H 198.031 2.95251 -0.711386 0
M  V30 2118 H 195.616 1.43564 -0.413502 0
M  V30 2119 H 197.498 3.92183 1.54176 0
M  V30 2120 H 196.173 2.73987 1.72374 0
M  V30 2121 H 195.08 3.72215 -0.375101 0
M  V30 2122 H 196.413 4.89913 -0.473924 0
M  V30 2123 N 198.065 0.39524 1.52563 0
M  V30 2124 C 199.313 -0.184678 2.01254 0
M  V30 2125 C 199.634 -1.46822 1.28329 0
M  V30 2126 O 198.904 -1.91666 0.405094 0
M  V30 2127 H 197.484 -0.0712355 0.743596 0
M  V30 2128 H 200.146 0.528293 1.87603 0
M  V30 2129 H 199.242 -0.390681 3.09645 0
M  V30 2130 N 199.544 -1.57102 0.125237 0
M  V30 2131 C 200.772 -1.99761 -0.538797 0
M  V30 2132 C 201.187 -1.00503 -1.59827 0
M  V30 2133 O 200.544 0.00119474 -1.825 0
M  V30 2134 C 200.595 -3.42408 -1.15927 0
M  V30 2135 O 200.316 -4.37869 -0.142143 0
M  V30 2136 C 201.817 -4.00232 -1.90602 0
M  V30 2137 H 199.037 -0.655772 -0.14214 0
M  V30 2138 H 201.581 -2.03383 0.213413 0
M  V30 2139 H 199.736 -3.39706 -1.86223 0
M  V30 2140 H 200.15 -5.21128 -0.593775 0
M  V30 2141 H 201.624 -5.02105 -2.29335 0
M  V30 2142 H 202.101 -3.39721 -2.78363 0
M  V30 2143 H 202.707 -4.06499 -1.25055 0
M  V30 2144 N 201.022 0.148545 -1.56898 0
M  V30 2145 C 201.97 1.20265 -1.99096 0
M  V30 2146 C 202.964 1.44559 -0.883123 0
M  V30 2147 O 204.17 1.4487 -1.0683 0
M  V30 2148 H 200.545 0.404786 -0.63376 0
M  V30 2149 H 202.516 0.82004 -2.86911 0
M  V30 2150 C 201.265 2.52886 -2.3863 0
M  V30 2151 H 200.588 2.35021 -3.23427 0
M  V30 2152 H 202.028 3.25274 -2.7198 0
M  V30 2153 C 200.487 3.13315 -1.23837 0
M  V30 2154 O 201.017 3.98077 -0.538268 0
M  V30 2155 N 199.223 2.72742 -1.00301 0
M  V30 2156 H 198.77 2.03912 -1.5741 0
M  V30 2157 H 198.728 3.13507 -0.236838 0
M  V30 2158 N 202.5 1.5196 0.417844 0
M  V30 2159 C 203.747 1.65591 1.16559 0
M  V30 2160 C 204.075 0.381565 1.90721 0
M  V30 2161 O 203.33 -0.635156 1.85106 0
M  V30 2162 C 203.629 2.82269 2.19223 0
M  V30 2163 C 203.295 4.20819 1.61933 0
M  V30 2164 C 201.957 4.58506 1.46033 0
M  V30 2165 C 204.309 5.07196 1.20008 0
M  V30 2166 C 201.637 5.80257 0.867113 0
M  V30 2167 C 203.989 6.29544 0.621086 0
M  V30 2168 C 202.653 6.65987 0.449144 0
M  V30 2169 H 201.923 0.605939 0.42652 0
M  V30 2170 H 204.57 1.86041 0.45397 0
M  V30 2171 H 202.875 2.56118 2.96498 0
M  V30 2172 H 204.572 2.90012 2.76936 0
M  V30 2173 H 201.162 3.91116 1.7529 0
M  V30 2174 H 205.346 4.7867 1.31105 0
M  V30 2175 H 200.602 6.07124 0.721833 0
M  V30 2176 H 204.776 6.95805 0.287798 0
M  V30 2177 H 202.403 7.60199 -0.012632 0
M  V30 2178 N 203.978 -0.674533 1.42435 0
M  V30 2179 C 205.389 -1.25514 1.38214 0
M  V30 2180 C 205.74 -1.96055 0.0755464 0
M  V30 2181 O 204.865 -2.00028 -0.8257 0
M  V30 2182 C 205.46 -2.28269 2.50357 0
M  V30 2183 C 204.019 -2.81856 2.49467 0
M  V30 2184 C 203.166 -1.56182 2.29134 0
M  V30 2185 H 206.117 -0.467902 1.51646 0
M  V30 2186 H 206.138 -3.10009 2.20624 0
M  V30 2187 H 205.65 -1.769 3.45439 0
M  V30 2188 H 203.751 -3.37346 1.58204 0
M  V30 2189 H 203.864 -3.30854 3.46515 0
M  V30 2190 H 202.228 -1.82761 1.774 0
M  V30 2191 H 203.011 -1.06778 3.26272 0
M  V30 2192 N 205.456 -1.28612 -0.910864 0
M  V30 2193 C 206.704 -1.15705 -1.65701 0
M  V30 2194 C 207.025 0.29416 -1.92769 0
M  V30 2195 O 206.295 1.20331 -1.54588 0
M  V30 2196 H 204.875 -0.425216 -0.614167 0
M  V30 2197 H 207.537 -1.61381 -1.0928 0
M  V30 2198 H 206.633 -1.6988 -2.61815 0
M  V30 2199 N 206.934 1.1197 -1.10907 0
M  V30 2200 C 207.882 2.19927 -0.757303 0
M  V30 2201 C 208.876 1.67564 0.248747 0
M  V30 2202 O 210.082 1.79672 0.108605 0
M  V30 2203 H 206.457 0.716925 -0.226987 0
M  V30 2204 H 208.428 2.46847 -1.67658 0
M  V30 2205 C 207.177 3.47061 -0.210671 0
M  V30 2206 H 206.5 3.87703 -0.976049 0
M  V30 2207 H 207.94 4.24 -0.0026584 0
M  V30 2208 C 206.399 3.19864 1.05777 0
M  V30 2209 O 206.929 3.40049 2.13845 0
M  V30 2210 N 205.135 2.73636 0.978349 0
M  V30 2211 H 204.682 2.5741 0.0988246 0
M  V30 2212 H 204.64 2.55815 1.82773 0
M  V30 2213 N 208.412 0.89855 1.29475 0
M  V30 2214 C 209.345 0.319981 2.25945 0
M  V30 2215 C 210.323 -0.567189 1.52387 0
M  V30 2216 O 211.507 -0.514254 1.8135 0
M  V30 2217 C 208.634 -0.544013 3.34303 0
M  V30 2218 C 207.68 0.275682 4.25608 0
M  V30 2219 S 208.513 1.67272 5.08704 0
M  V30 2220 C 209.669 0.815621 6.20563 0
M  V30 2221 H 209.902 1.13767 2.74671 0
M  V30 2222 H 207.435 0.69882 1.3768 0
M  V30 2223 H 209.393 -1.03673 3.97193 0
M  V30 2224 H 208.054 -1.33593 2.84274 0
M  V30 2225 H 207.247 -0.384263 5.02533 0
M  V30 2226 H 206.849 0.701496 3.67362 0
M  V30 2227 H 209.141 0.0385042 6.77489 0
M  V30 2228 H 210.084 1.55691 6.90772 0
M  V30 2229 H 210.492 0.370516 5.63283 0
M  V30 2230 N 209.89 -1.43072 0.660911 0
M  V30 2231 C 210.853 -2.29194 -0.0166406 0
M  V30 2232 C 211.853 -1.42609 -0.742912 0
M  V30 2233 O 213.043 -1.64155 -0.583004 0
M  V30 2234 C 210.175 -3.24831 -1.0343 0
M  V30 2235 H 211.368 -2.90596 0.741208 0
M  V30 2236 H 208.921 -1.5048 0.422532 0
M  V30 2237 H 209.656 -2.68339 -1.82111 0
M  V30 2238 H 209.441 -3.88676 -0.517082 0
M  V30 2239 H 210.931 -3.89451 -1.50723 0
M  V30 2240 N 211.368 -0.403325 -1.52352 0
M  V30 2241 C 212.298 0.416205 -2.29761 0
M  V30 2242 C 213.279 1.05123 -1.33728 0
M  V30 2243 O 214.464 1.06134 -1.62632 0
M  V30 2244 C 211.594 1.53624 -3.11475 0
M  V30 2245 C 210.548 1.02653 -4.15507 0
M  V30 2246 C 209.874 2.23971 -4.85532 0
M  V30 2247 C 211.174 0.08463 -5.22231 0
M  V30 2248 H 212.868 -0.229701 -2.98518 0
M  V30 2249 H 210.414 -0.111913 -1.43564 0
M  V30 2250 H 212.367 2.1165 -3.64393 0
M  V30 2251 H 211.091 2.20994 -2.40477 0
M  V30 2252 H 209.75 0.46871 -3.63591 0
M  V30 2253 H 209.398 2.89883 -4.11068 0
M  V30 2254 H 209.098 1.90521 -5.55856 0
M  V30 2255 H 210.622 2.82614 -5.41259 0
M  V30 2256 H 212.036 0.573509 -5.70424 0
M  V30 2257 H 210.433 -0.160783 -5.99885 0
M  V30 2258 H 211.503 -0.86237 -4.7717 0
M  V30 2259 N 212.846 1.57033 -0.133567 0
M  V30 2260 C 214.094 1.953 0.519848 0
M  V30 2261 C 214.415 1.01866 1.66278 0
M  V30 2262 O 213.685 0.0776513 1.95746 0
M  V30 2263 H 212.265 0.721091 0.195032 0
M  V30 2264 H 214.927 1.93809 -0.205921 0
M  V30 2265 H 214.023 2.98695 0.904854 0
M  V30 2266 N 214.325 -0.140222 1.56975 0
M  V30 2267 C 215.288 -1.15689 1.97861 0
M  V30 2268 C 216.288 -1.3549 0.865974 0
M  V30 2269 O 217.478 -1.32367 1.13246 0
M  V30 2270 C 214.61 -2.51582 2.30042 0
M  V30 2271 H 215.803 -0.805971 2.88867 0
M  V30 2272 H 213.356 -0.383801 1.51515 0
M  V30 2273 H 214.091 -2.91632 1.41849 0
M  V30 2274 H 213.876 -2.38569 3.11171 0
M  V30 2275 H 215.366 -3.24792 2.62488 0
M  V30 2276 N 215.803 -1.52179 -0.40978 0
M  V30 2277 C 216.766 -1.74853 -1.48186 0
M  V30 2278 C 217.766 -0.618417 -1.48433 0
M  V30 2279 O 218.956 -0.886286 -1.49969 0
M  V30 2280 C 216.088 -1.8303 -2.87598 0
M  V30 2281 H 217.281 -2.70559 -1.29374 0
M  V30 2282 H 214.834 -1.42586 -0.640233 0
M  V30 2283 H 215.569 -0.89236 -3.11781 0
M  V30 2284 H 215.354 -2.65187 -2.88822 0
M  V30 2285 H 216.844 -2.02316 -3.65319 0
M  V30 2286 N 217.281 0.66697 -1.42791 0
M  V30 2287 C 218.697 0.981027 -1.25889 0
M  V30 2288 C 218.897 2.00793 -0.168695 0
M  V30 2289 O 217.953 2.48321 0.45747 0
M  V30 2290 C 219.266 1.47838 -2.61848 0
M  V30 2291 C 220.814 1.59575 -2.69267 0
M  V30 2292 C 221.289 2.12704 -4.05612 0
M  V30 2293 N 222.78 2.20026 -4.07606 0
M  V30 2294 C 223.515 2.62227 -5.09926 0
M  V30 2295 N 223.011 3.03824 -6.22626 0
M  V30 2296 N 224.804 2.62045 -4.97281 0
M  V30 2297 H 216.955 -0.0127891 -2.12396 0
M  V30 2298 H 219.218 0.0568258 -0.946295 0
M  V30 2299 H 218.924 0.798299 -3.4252 0
M  V30 2300 H 218.798 2.45579 -2.86305 0
M  V30 2301 H 221.185 2.26687 -1.88936 0
M  V30 2302 H 221.266 0.60302 -2.48591 0
M  V30 2303 H 220.91 1.46198 -4.86404 0
M  V30 2304 H 220.84 3.12782 -4.23645 0
M  V30 2305 H 223.331 1.90708 -3.2625 0
M  V30 2306 H 223.644 3.34734 -6.96544 0
M  V30 2307 H 221.989 3.01662 -6.26119 0
M  V30 2308 H 225.18 2.28916 -4.08308 0
M  V30 2309 H 225.353 2.94613 -5.77154 0
M  V30 2310 N 218.759 1.29093 0.90403 0
M  V30 2311 C 219.984 1.19809 1.69294 0
M  V30 2312 C 220.409 -0.238481 1.86582 0
M  V30 2313 O 219.767 -1.1723 1.383 0
M  V30 2314 C 219.815 1.91202 3.05736 0
M  V30 2315 O 218.919 1.22611 3.93752 0
M  V30 2316 H 218.26 0.415385 0.518027 0
M  V30 2317 H 220.79 1.70586 1.12967 0
M  V30 2318 H 220.8 1.99487 3.55906 0
M  V30 2319 H 219.475 2.95692 2.92471 0
M  V30 2320 H 218.052 1.22554 3.52186 0
M  V30 2321 N 220.237 -1.11381 1.11499 0
M  V30 2322 C 221.653 -1.35143 0.849031 0
M  V30 2323 C 221.853 -1.94515 -0.525938 0
M  V30 2324 O 220.909 -2.1785 -1.27662 0
M  V30 2325 C 222.222 -2.28249 1.95762 0
M  V30 2326 C 223.77 -2.41812 1.98736 0
M  V30 2327 C 224.245 -3.3824 3.088 0
M  V30 2328 N 225.736 -3.45803 3.08179 0
M  V30 2329 C 226.471 -4.20358 3.89982 0
M  V30 2330 N 225.967 -4.97884 4.8175 0
M  V30 2331 N 227.76 -4.15877 3.78157 0
M  V30 2332 H 219.911 -0.712062 2.00109 0
M  V30 2333 H 222.174 -0.376025 0.870235 0
M  V30 2334 H 221.88 -1.91817 2.94787 0
M  V30 2335 H 221.754 -3.28473 1.85433 0
M  V30 2336 H 224.141 -2.77518 1.00338 0
M  V30 2337 H 224.222 -1.41437 2.13141 0
M  V30 2338 H 223.866 -3.03261 4.07425 0
M  V30 2339 H 223.796 -4.38471 2.91635 0
M  V30 2340 H 226.287 -2.90506 2.41691 0
M  V30 2341 H 226.6 -5.52142 5.40702 0
M  V30 2342 H 224.945 -4.97043 4.85771 0
M  V30 2343 H 228.136 -3.544 3.05808 0
M  V30 2344 H 228.309 -4.73723 4.42143 0
M  V30 2345 N 221.715 -0.905404 -1.28997 0
M  V30 2346 C 222.964 -0.530191 -1.94607 0
M  V30 2347 C 223.277 0.929185 -1.72121 0
M  V30 2348 O 224.483 1.41218 -2.31883 0
M  V30 2349 C 222.939 -0.897333 -3.48534 0
M  V30 2350 C 222.547 -2.37587 -3.79811 0
M  V30 2351 C 224.291 -0.592304 -4.20347 0
M  V30 2352 C 222.198 -2.68357 -5.27009 0
M  V30 2353 H 221.128 -0.194558 -0.728466 0
M  V30 2354 H 223.779 -1.10318 -1.46636 0
M  V30 2355 H 222.161 -0.253214 -3.9519 0
M  V30 2356 H 223.335 -3.06602 -3.43994 0
M  V30 2357 H 221.65 -2.6505 -3.2115 0
M  V30 2358 H 224.247 -0.798975 -5.28697 0
M  V30 2359 H 224.59 0.469474 -4.13644 0
M  V30 2360 H 225.123 -1.19452 -3.79442 0
M  V30 2361 H 221.862 -3.73355 -5.38782 0
M  V30 2362 H 221.382 -2.03971 -5.64053 0
M  V30 2363 H 223.061 -2.54922 -5.94663 0
M  V30 2364 N 223.193 1.4272 -0.668489 0
M  V30 2365 C 224.141 2.32586 0.0254857 0
M  V30 2366 C 225.135 1.49471 0.797176 0
M  V30 2367 O 226.341 1.65583 0.705853 0
M  V30 2368 H 222.716 0.751514 0.0270339 0
M  V30 2369 H 224.687 2.88823 -0.749936 0
M  V30 2370 C 223.436 3.3397 0.967427 0
M  V30 2371 H 222.759 3.97961 0.383048 0
M  V30 2372 H 224.199 3.9945 1.42181 0
M  V30 2373 C 222.658 2.65744 2.0708 0
M  V30 2374 O 223.188 2.48454 3.15648 0
M  V30 2375 N 221.394 2.2487 1.8407 0
M  V30 2376 H 220.941 2.39132 0.95778 0
M  V30 2377 H 220.899 1.79552 2.58086 0
M  V30 2378 N 224.671 0.411399 1.52136 0
M  V30 2379 C 225.634 -0.401089 2.25663 0
M  V30 2380 C 226.634 -0.971732 1.28117 0
M  V30 2381 O 227.824 -0.850254 1.52041 0
M  V30 2382 C 224.956 -1.56483 3.02863 0
M  V30 2383 H 226.149 0.24295 2.98914 0
M  V30 2384 H 223.702 0.163968 1.55438 0
M  V30 2385 H 224.437 -2.24567 2.33967 0
M  V30 2386 H 224.222 -1.16211 3.74483 0
M  V30 2387 H 225.712 -2.13951 3.58629 0
M  V30 2388 N 226.149 -1.5696 0.141893 0
M  V30 2389 C 227.379 -2.00031 -0.516828 0
M  V30 2390 C 227.787 -1.02091 -1.59293 0
M  V30 2391 O 227.13 -0.00909657 -1.83698 0
M  V30 2392 C 227.192 -3.39534 -1.1814 0
M  V30 2393 C 226.856 -4.56313 -0.250513 0
M  V30 2394 C 227.853 -5.17295 0.519839 0
M  V30 2395 C 225.538 -5.02061 -0.154907 0
M  V30 2396 C 227.532 -6.2243 1.3733 0
M  V30 2397 C 225.219 -6.07053 0.702161 0
M  V30 2398 C 226.217 -6.67106 1.46487 0
M  V30 2399 O 225.905 -7.70066 2.30767 0
M  V30 2400 H 225.637 -0.661451 -0.139493 0
M  V30 2401 H 228.191 -2.04086 0.231926 0
M  V30 2402 H 226.421 -3.32302 -1.97769 0
M  V30 2403 H 228.11 -3.66745 -1.73933 0
M  V30 2404 H 228.876 -4.82852 0.45598 0
M  V30 2405 H 224.755 -4.5505 -0.7383 0
M  V30 2406 H 228.299 -6.69233 1.96909 0
M  V30 2407 H 224.196 -6.40923 0.76733 0
M  V30 2408 H 224.964 -7.87264 2.23959 0
M  V30 2409 N 227.627 0.131896 -1.57047 0
M  V30 2410 C 228.559 1.1878 -1.9602 0
M  V30 2411 C 229.572 1.38363 -0.857875 0
M  V30 2412 O 230.761 1.37666 -1.13623 0
M  V30 2413 C 227.861 2.55008 -2.23213 0
M  V30 2414 C 227.034 2.56201 -3.54513 0
M  V30 2415 C 226.093 3.7408 -3.70069 0
M  V30 2416 O 225.119 3.58258 -4.42312 0
M  V30 2417 N 226.321 4.92137 -3.07866 0
M  V30 2418 H 229.086 0.85639 -2.87204 0
M  V30 2419 H 226.647 0.321309 -1.5868 0
M  V30 2420 H 228.639 3.32404 -2.30846 0
M  V30 2421 H 227.209 2.80382 -1.3822 0
M  V30 2422 H 226.429 1.64613 -3.58185 0
M  V30 2423 H 227.717 2.54043 -4.4084 0
M  V30 2424 H 227.115 5.07895 -2.49116 0
M  V30 2425 H 225.672 5.67254 -3.21039 0
M  V30 2426 N 229.106 1.52395 0.401703 0
M  V30 2427 C 230.334 1.70676 1.16949 0
M  V30 2428 C 230.749 0.419503 1.8408 0
M  V30 2429 O 230.106 -0.605061 1.72178 0
M  V30 2430 C 230.157 2.84753 2.22706 0
M  V30 2431 O 229.878 4.08495 1.58314 0
M  V30 2432 C 231.379 3.14608 3.12309 0
M  V30 2433 H 228.599 0.571787 0.351142 0
M  V30 2434 H 231.143 1.98987 0.471652 0
M  V30 2435 H 229.298 2.58941 2.88147 0
M  V30 2436 H 229.712 4.72117 2.28485 0
M  V30 2437 H 231.186 3.97923 3.82572 0
M  V30 2438 H 231.663 2.28464 3.75101 0
M  V30 2439 H 232.269 3.42212 2.52529 0
M  V30 2440 N 230.584 -0.659388 1.43143 0
M  V30 2441 C 231.832 -1.41654 1.44147 0
M  V30 2442 C 232.153 -1.94893 0.0645739 0
M  V30 2443 O 231.423 -1.74044 -0.899198 0
M  V30 2444 H 230.003 -0.525708 0.530697 0
M  V30 2445 H 232.665 -0.778097 1.78694 0
M  V30 2446 H 231.761 -2.26195 2.1504 0
M  V30 2447 N 232.062 -1.29571 -0.897171 0
M  V30 2448 C 233.287 -1.20705 -1.68656 0
M  V30 2449 C 233.712 0.228582 -1.86706 0
M  V30 2450 O 233.07 1.16494 -1.3892 0
M  V30 2451 C 233.118 -1.9282 -3.04717 0
M  V30 2452 O 232.222 -1.24697 -3.93096 0
M  V30 2453 H 231.563 -0.418126 -0.515816 0
M  V30 2454 H 234.093 -1.71183 -1.12061 0
M  V30 2455 H 234.103 -2.01372 -3.54843 0
M  V30 2456 H 232.778 -2.97239 -2.90899 0
M  V30 2457 H 231.355 -1.2442 -3.51531 0
M  V30 2458 N 233.54 1.10788 -1.12088 0
M  V30 2459 C 234.789 1.82036 -0.868659 0
M  V30 2460 C 235.102 1.85929 0.607426 0
M  V30 2461 O 236.308 2.53346 0.97613 0
M  V30 2462 C 234.764 3.26951 -1.50435 0
M  V30 2463 C 234.372 3.31367 -3.01496 0
M  V30 2464 C 236.116 4.03053 -1.33225 0
M  V30 2465 C 234.023 4.7072 -3.58017 0
M  V30 2466 H 232.953 0.682108 -0.321318 0
M  V30 2467 H 235.604 1.24618 -1.34694 0
M  V30 2468 H 233.986 3.84343 -0.953735 0
M  V30 2469 H 235.16 2.83819 -3.6302 0
M  V30 2470 H 233.475 2.6875 -3.18061 0
M  V30 2471 H 236.072 5.05981 -1.72878 0
M  V30 2472 H 236.415 4.15387 -0.275529 0
M  V30 2473 H 236.948 3.52066 -1.85188 0
M  V30 2474 H 233.687 4.63585 -4.63432 0
M  V30 2475 H 233.207 5.1865 -3.01268 0
M  V30 2476 H 234.886 5.39685 -3.56859 0
M  V30 2477 N 235.018 0.912232 1.28515 0
M  V30 2478 C 236.267 0.540504 1.94323 0
M  V30 2479 C 236.58 -0.920044 1.72611 0
M  V30 2480 O 237.786 -1.39986 2.32629 0
M  V30 2481 C 236.242 0.915803 3.48053 0
M  V30 2482 C 235.85 2.39598 3.78546 0
M  V30 2483 C 237.594 0.614588 4.20027 0
M  V30 2484 C 235.501 2.71148 5.25578 0
M  V30 2485 H 234.431 0.198418 0.727424 0
M  V30 2486 H 237.082 1.11094 1.46049 0
M  V30 2487 H 235.464 0.274168 3.9505 0
M  V30 2488 H 236.638 3.08422 3.42364 0
M  V30 2489 H 234.953 2.66749 3.1974 0
M  V30 2490 H 237.55 0.827002 5.28266 0
M  V30 2491 H 237.893 -0.447531 4.13887 0
M  V30 2492 H 238.426 1.21462 3.78803 0
M  V30 2493 H 235.165 3.76207 5.36794 0
M  V30 2494 H 234.685 2.0696 5.62963 0
M  V30 2495 H 236.364 2.58072 5.93302 0
M  V30 2496 N 236.496 -1.42363 0.676048 0
M  V30 2497 C 237.744 -2.01123 0.198437 0
M  V30 2498 C 238.065 -1.53731 -1.19966 0
M  V30 2499 O 237.335 -0.759518 -1.80577 0
M  V30 2500 H 235.915 -0.743678 0.0703721 0
M  V30 2501 H 238.577 -1.74263 0.872837 0
M  V30 2502 H 237.673 -3.11454 0.200686 0
M  V30 2503 N 237.974 -0.419461 -1.51915 0
M  V30 2504 C 238.921 0.400927 -2.27291 0
M  V30 2505 C 239.891 1.03224 -1.30131 0
M  V30 2506 O 241.076 1.05455 -1.59009 0
M  V30 2507 C 238.216 1.50603 -3.10504 0
M  V30 2508 C 237.329 0.89462 -4.22635 0
M  V30 2509 C 236.464 1.97328 -4.93189 0
M  V30 2510 C 235.503 1.33935 -5.97267 0
M  V30 2511 N 234.64 2.3586 -6.61298 0
M  V30 2512 H 239.48 -0.248251 -2.96964 0
M  V30 2513 H 237.017 -0.134266 -1.46486 0
M  V30 2514 H 238.975 2.15783 -3.57062 0
M  V30 2515 H 237.605 2.12509 -2.42981 0
M  V30 2516 H 236.657 0.131583 -3.80172 0
M  V30 2517 H 237.969 0.391641 -4.9726 0
M  V30 2518 H 237.123 2.70211 -5.43204 0
M  V30 2519 H 235.862 2.50994 -4.18155 0
M  V30 2520 H 234.867 0.595896 -5.46561 0
M  V30 2521 H 236.092 0.810252 -6.74249 0
M  V30 2522 H 234.038 2.88639 -5.89087 0
M  V30 2523 H 233.955 1.90403 -7.3163 0
M  V30 2524 H 235.223 3.08282 -7.15949 0
M  V30 2525 N 239.452 1.56882 -0.150215 0
M  V30 2526 C 240.362 2.20494 0.801222 0
M  V30 2527 C 241.378 1.19019 1.26927 0
M  V30 2528 O 242.554 1.51607 1.32579 0
M  V30 2529 C 239.619 2.81659 2.02161 0
M  V30 2530 C 238.68 3.9827 1.60249 0
M  V30 2531 C 237.913 4.56508 2.7647 0
M  V30 2532 O 238.136 4.13627 3.92771 0
M  V30 2533 O 237.07 5.46719 2.51757 0
M  V30 2534 H 240.896 3.02315 0.289717 0
M  V30 2535 H 238.481 1.49202 0.0769684 0
M  V30 2536 H 240.363 3.20522 2.73576 0
M  V30 2537 H 239.038 2.02849 2.52258 0
M  V30 2538 H 237.945 3.64117 0.858477 0
M  V30 2539 H 239.278 4.78609 1.14864 0
M  V30 2540 N 240.93 -0.123565 1.57115 0
M  V30 2541 C 241.86 -1.15309 2.03042 0
M  V30 2542 C 242.841 -1.43454 0.914061 0
M  V30 2543 O 244.026 -1.53973 1.18347 0
M  V30 2544 C 241.156 -2.48043 2.43089 0
M  V30 2545 C 240.11 -2.3437 3.58127 0
M  V30 2546 C 239.436 -3.72026 3.84059 0
M  V30 2547 C 240.736 -1.80804 4.90007 0
M  V30 2548 H 242.43 -0.771102 2.893 0
M  V30 2549 H 239.976 -0.369479 1.39179 0
M  V30 2550 H 241.929 -3.20311 2.73823 0
M  V30 2551 H 240.653 -2.88122 1.53796 0
M  V30 2552 H 239.312 -1.64551 3.27595 0
M  V30 2553 H 238.96 -4.09582 2.91979 0
M  V30 2554 H 238.66 -3.63732 4.6149 0
M  V30 2555 H 240.184 -4.45806 4.1724 0
M  V30 2556 H 241.598 -2.42886 5.19307 0
M  V30 2557 H 239.995 -1.83343 5.71407 0
M  V30 2558 H 241.065 -0.76528 4.78823 0
M  V30 2559 N 242.408 -1.52605 -0.393616 0
M  V30 2560 C 243.633 -1.71592 -1.16495 0
M  V30 2561 C 244.058 -0.43133 -1.83088 0
M  V30 2562 O 243.416 0.612523 -1.7064 0
M  V30 2563 C 243.464 -2.86318 -2.19213 0
M  V30 2564 O 242.568 -2.52969 -3.257 0
M  V30 2565 H 241.909 -0.570734 -0.33935 0
M  V30 2566 H 244.439 -1.99377 -0.459324 0
M  V30 2567 H 244.449 -3.1168 -2.63286 0
M  V30 2568 H 243.124 -3.79511 -1.7013 0
M  V30 2569 H 241.701 -2.38332 -2.86797 0
M  V30 2570 N 243.887 0.651787 -1.4349 0
M  V30 2571 C 244.85 1.74647 -1.48429 0
M  V30 2572 C 245.85 1.56513 -0.368817 0
M  V30 2573 O 247.04 1.62385 -0.630623 0
M  V30 2574 C 244.172 3.13533 -1.33827 0
M  V30 2575 H 245.365 1.71649 -2.4592 0
M  V30 2576 H 242.918 0.863573 -1.30277 0
M  V30 2577 H 243.653 3.22142 -0.37349 0
M  V30 2578 H 243.438 3.28101 -2.14691 0
M  V30 2579 H 244.928 3.93356 -1.40218 0
M  V30 2580 N 245.365 1.30045 0.890287 0
M  V30 2581 C 246.295 1.18541 2.01172 0
M  V30 2582 C 247.276 0.0773356 1.69924 0
M  V30 2583 O 248.461 0.25845 1.92473 0
M  V30 2584 C 245.591 0.870941 3.36202 0
M  V30 2585 C 244.545 1.93637 3.81692 0
M  V30 2586 C 243.871 1.475 5.13953 0
M  V30 2587 C 245.171 3.34666 4.00994 0
M  V30 2588 H 246.865 2.12359 2.11054 0
M  V30 2589 H 244.411 1.02238 1.01407 0
M  V30 2590 H 246.364 0.777141 4.14172 0
M  V30 2591 H 245.088 -0.102926 3.26438 0
M  V30 2592 H 243.747 2.01972 3.05946 0
M  V30 2593 H 243.395 0.489551 5.00612 0
M  V30 2594 H 243.095 2.1876 5.4536 0
M  V30 2595 H 244.619 1.39489 5.94454 0
M  V30 2596 H 246.033 3.2912 4.69417 0
M  V30 2597 H 244.43 4.03966 4.43769 0
M  V30 2598 H 245.5 3.76949 3.05021 0
M  V30 2599 N 246.843 -1.10192 1.12674 0
M  V30 2600 C 248.091 -1.81845 0.881861 0
M  V30 2601 C 248.412 -1.85737 -0.593867 0
M  V30 2602 O 247.682 -1.33724 -1.4316 0
M  V30 2603 H 246.262 -0.673432 0.323261 0
M  V30 2604 H 248.924 -1.33316 1.42172 0
M  V30 2605 H 248.02 -2.85288 1.2656 0
M  V30 2606 N 248.321 -0.919034 -1.28029 0
M  V30 2607 C 249.57 -0.550802 -1.94034 0
M  V30 2608 C 249.883 0.910877 -1.73096 0
M  V30 2609 O 251.089 1.3875 -2.33368 0
M  V30 2610 C 249.545 -0.934249 -3.47563 0
M  V30 2611 C 249.153 -2.41602 -3.7727 0
M  V30 2612 C 250.897 -0.636854 -4.19696 0
M  V30 2613 C 248.804 -2.73932 -5.24133 0
M  V30 2614 H 247.734 -0.202273 -0.726362 0
M  V30 2615 H 250.385 -1.11867 -1.45458 0
M  V30 2616 H 248.767 -0.295115 -3.94899 0
M  V30 2617 H 249.941 -3.10233 -3.40723 0
M  V30 2618 H 248.256 -2.68441 -3.18321 0
M  V30 2619 H 250.853 -0.855005 -5.2782 0
M  V30 2620 H 251.196 0.425575 -4.14119 0
M  V30 2621 H 251.729 -1.23469 -3.78154 0
M  V30 2622 H 248.468 -3.79049 -5.34792 0
M  V30 2623 H 247.988 -2.09942 -5.61858 0
M  V30 2624 H 249.667 -2.61215 -5.91925 0
M  V30 2625 N 249.799 1.42003 -0.683588 0
M  V30 2626 C 250.747 2.326 0.000815408 0
M  V30 2627 C 251.741 1.50308 0.781278 0
M  V30 2628 O 252.947 1.66322 0.688251 0
M  V30 2629 H 249.322 0.751758 0.0190616 0
M  V30 2630 H 251.293 2.88011 -0.780528 0
M  V30 2631 C 250.042 3.34978 0.93195 0
M  V30 2632 H 249.365 3.98345 0.340817 0
M  V30 2633 H 250.805 4.00936 1.37936 0
M  V30 2634 C 249.264 2.67925 2.04249 0
M  V30 2635 O 249.794 2.51788 3.12995 0
M  V30 2636 N 248 2.2681 1.81675 0
M  V30 2637 H 247.547 2.40135 0.932363 0
M  V30 2638 H 247.505 1.8228 2.56167 0
M  V30 2639 N 251.277 0.427512 1.51691 0
M  V30 2640 C 252.505 -0.141191 2.06418 0
M  V30 2641 C 252.92 -1.37303 1.29589 0
M  V30 2642 O 252.277 -1.79059 0.352732 0
M  V30 2643 C 252.328 -0.473266 3.58389 0
M  V30 2644 O 252.049 0.709673 4.32314 0
M  V30 2645 C 253.55 -1.09371 4.29596 0
M  V30 2646 H 250.77 -0.0122747 0.670888 0
M  V30 2647 H 253.314 0.603764 1.95384 0
M  V30 2648 H 251.469 -1.16812 3.69369 0
M  V30 2649 H 251.883 0.42807 5.2275 0
M  V30 2650 H 253.357 -1.27613 5.37046 0
M  V30 2651 H 253.834 -2.072 3.87253 0
M  V30 2652 H 254.44 -0.43853 4.23033 0
M  V30 2653 N 252.755 -1.56801 0.158532 0
M  V30 2654 C 254.032 -1.88131 -0.535357 0
M  V30 2655 C 254.412 -1.06638 -1.82186 0
M  V30 2656 O 253.76 -0.156533 -2.27963 0
M  V30 2657 C 253.97 -3.39949 -0.789653 0
M  V30 2658 C 255.318 -4.09416 -1.12533 0
M  V30 2659 O 256.342 -3.45194 -0.878622 0
M  V30 2660 O 255.201 -5.22855 -1.59014 0
M  V30 2661 H 252.295 -0.780143 -0.27442 0
M  V30 2662 H 254.841 -1.68564 0.19601 0
M  V30 2663 H 253.613 -3.91115 0.120353 0
M  V30 2664 H 253.236 -3.65084 -1.57479 0
M  V30 2665 N 254.233 0.115231 -1.57178 0
M  V30 2666 C 255.48 0.822351 -1.8505 0
M  V30 2667 C 255.808 1.79701 -0.744168 0
M  V30 2668 O 255.063 1.93909 0.26414 0
M  V30 2669 C 255.362 1.60324 -3.19423 0
M  V30 2670 C 255.028 0.772536 -4.44233 0
M  V30 2671 C 253.69 0.543468 -4.78121 0
M  V30 2672 C 256.042 0.193746 -5.2084 0
M  V30 2673 C 253.37 -0.274583 -5.86057 0
M  V30 2674 C 255.722 -0.611517 -6.29637 0
M  V30 2675 C 254.386 -0.850867 -6.62055 0
M  V30 2676 H 253.656 0.30092 -0.677147 0
M  V30 2677 H 256.303 0.0845802 -1.91313 0
M  V30 2678 H 254.608 2.41203 -3.08753 0
M  V30 2679 H 256.305 2.1544 -3.38211 0
M  V30 2680 H 252.895 0.96117 -4.17683 0
M  V30 2681 H 257.079 0.357926 -4.95008 0
M  V30 2682 H 252.335 -0.469206 -6.09597 0
M  V30 2683 H 256.509 -1.06697 -6.88178 0
M  V30 2684 H 254.136 -1.48657 -7.45523 0
M  V30 2685 N 255.711 1.52812 0.385517 0
M  V30 2686 C 256.936 1.72207 1.15583 0
M  V30 2687 C 257.361 0.441034 1.82857 0
M  V30 2688 O 256.719 -0.603465 1.70962 0
M  V30 2689 C 256.767 2.87476 2.17692 0
M  V30 2690 O 255.871 2.54693 3.24354 0
M  V30 2691 H 255.212 0.572526 0.336319 0
M  V30 2692 H 257.742 1.99618 0.448744 0
M  V30 2693 H 257.752 3.13072 2.6163 0
M  V30 2694 H 256.427 3.80408 1.68115 0
M  V30 2695 H 255.004 2.3985 2.85529 0
M  V30 2696 N 257.189 -0.644168 1.43834 0
M  V30 2697 C 258.6 -1.22554 1.40845 0
M  V30 2698 C 258.951 -1.9585 0.117115 0
M  V30 2699 O 258.076 -2.01734 -0.783086 0
M  V30 2700 C 258.671 -2.22907 2.55143 0
M  V30 2701 C 257.23 -2.76501 2.5539 0
M  V30 2702 C 256.377 -1.51287 2.32396 0
M  V30 2703 H 259.328 -0.43563 1.52604 0
M  V30 2704 H 259.349 -3.05259 2.2715 0
M  V30 2705 H 258.861 -1.69533 3.49114 0
M  V30 2706 H 256.962 -3.33914 1.65324 0
M  V30 2707 H 257.075 -3.23429 3.53455 0
M  V30 2708 H 255.439 -1.78957 1.81236 0
M  V30 2709 H 256.222 -0.998336 3.28463 0
M  V30 2710 N 258.668 -1.30515 -0.883378 0
M  V30 2711 C 259.914 -1.19607 -1.63774 0
M  V30 2712 C 260.247 0.248314 -1.92606 0
M  V30 2713 O 259.522 1.17742 -1.54813 0
M  V30 2714 C 259.805 -2.02669 -2.97653 0
M  V30 2715 C 259.658 -3.55335 -2.75784 0
M  V30 2716 C 260.977 -1.86573 -3.98596 0
M  V30 2717 H 258.096 -0.435856 -0.594305 0
M  V30 2718 H 260.738 -1.60165 -1.02212 0
M  V30 2719 H 258.888 -1.68208 -3.50197 0
M  V30 2720 H 260.56 -3.99863 -2.30016 0
M  V30 2721 H 258.803 -3.79438 -2.1026 0
M  V30 2722 H 259.474 -4.08745 -3.70988 0
M  V30 2723 H 261.95 -2.16703 -3.55217 0
M  V30 2724 H 260.826 -2.47014 -4.90179 0
M  V30 2725 H 261.087 -0.825321 -4.34328 0
M  V30 2726 N 260.146 1.09593 -1.13257 0
M  V30 2727 C 261.392 1.82003 -0.89458 0
M  V30 2728 C 261.725 1.85402 0.577906 0
M  V30 2729 O 261 1.32099 1.42759 0
M  V30 2730 C 261.283 3.28237 -1.48096 0
M  V30 2731 C 261.136 3.3312 -3.02244 0
M  V30 2732 C 262.455 4.24871 -1.14774 0
M  V30 2733 H 259.574 0.66077 -0.326424 0
M  V30 2734 H 262.216 1.28389 -1.40058 0
M  V30 2735 H 260.366 3.74024 -1.05062 0
M  V30 2736 H 262.038 2.95748 -3.54021 0
M  V30 2737 H 260.281 2.72756 -3.37323 0
M  V30 2738 H 260.952 4.3613 -3.38371 0
M  V30 2739 H 263.428 3.87361 -1.51957 0
M  V30 2740 H 262.304 5.25532 -1.58452 0
M  V30 2741 H 262.565 4.42058 -0.0611849 0
M  V30 2742 N 261.624 0.925811 1.2754 0
M  V30 2743 C 262.901 0.483726 1.89524 0
M  V30 2744 C 263.281 -1.03809 1.83812 0
M  V30 2745 O 262.629 -1.89143 1.28207 0
M  V30 2746 C 262.839 1.02769 3.33526 0
M  V30 2747 C 264.187 1.08703 4.10449 0
M  V30 2748 O 265.211 0.977175 3.42534 0
M  V30 2749 O 264.07 1.25599 5.31871 0
M  V30 2750 H 261.164 0.15529 0.812289 0
M  V30 2751 H 263.71 1.01738 1.35822 0
M  V30 2752 H 262.482 2.07155 3.31967 0
M  V30 2753 H 262.105 0.475567 3.94746 0
M  V30 2754 N 263.102 -1.41638 0.69111 0
M  V30 2755 C 264.351 -2.00526 0.217318 0
M  V30 2756 C 264.664 -1.55353 -1.18848 0
M  V30 2757 O 265.87 -2.06769 -1.75951 0
M  V30 2758 C 264.326 -3.58313 0.337639 0
M  V30 2759 C 263.934 -4.12469 1.74852 0
M  V30 2760 C 265.678 -4.24431 -0.0766066 0
M  V30 2761 C 263.585 -5.62675 1.82074 0
M  V30 2762 H 262.515 -0.750008 0.0774893 0
M  V30 2763 H 265.166 -1.6217 0.858661 0
M  V30 2764 H 263.548 -3.9425 -0.371879 0
M  V30 2765 H 264.722 -3.8796 2.48644 0
M  V30 2766 H 263.037 -3.58861 2.11205 0
M  V30 2767 H 265.634 -5.34683 -0.0430284 0
M  V30 2768 H 265.977 -4.01101 -1.1146 0
M  V30 2769 H 266.51 -3.93512 0.582476 0
M  V30 2770 H 263.249 -5.90826 2.83911 0
M  V30 2771 H 262.769 -5.89124 1.12661 0
M  V30 2772 H 264.448 -6.27371 1.58159 0
M  V30 2773 N 264.58 -0.43555 -1.51462 0
M  V30 2774 C 265.528 0.391205 -2.29287 0
M  V30 2775 C 266.522 1.02247 -1.35062 0
M  V30 2776 O 267.728 0.957646 -1.52411 0
M  V30 2777 H 264.103 0.144968 -0.737895 0
M  V30 2778 H 266.074 -0.286051 -2.97026 0
M  V30 2779 C 264.823 1.48096 -3.14583 0
M  V30 2780 H 264.146 1.00457 -3.86973 0
M  V30 2781 H 265.586 2.03273 -3.72097 0
M  V30 2782 C 264.045 2.46321 -2.29843 0
M  V30 2783 O 264.575 3.50815 -1.95682 0
M  V30 2784 N 262.781 2.17166 -1.931 0
M  V30 2785 H 262.328 1.32218 -2.21079 0
M  V30 2786 H 262.286 2.83127 -1.36698 0
M  V30 2787 N 266.058 1.56714 -0.166846 0
M  V30 2788 C 267.006 2.19056 0.782123 0
M  V30 2789 C 268 1.15328 1.24079 0
M  V30 2790 O 269.206 1.33537 1.20697 0
M  V30 2791 H 265.581 0.70167 0.270486 0
M  V30 2792 H 267.552 2.97494 0.232322 0
M  V30 2793 C 266.301 2.84206 2.00306 0
M  V30 2794 H 265.624 3.63748 1.65914 0
M  V30 2795 H 267.064 3.31302 2.64604 0
M  V30 2796 C 265.523 1.83744 2.82382 0
M  V30 2797 O 266.053 1.32014 3.79388 0
M  V30 2798 N 264.259 1.52601 2.47308 0
M  V30 2799 H 263.806 1.9486 1.68485 0
M  V30 2800 H 263.764 0.856351 3.02513 0
M  V30 2801 N 267.536 -0.106894 1.57237 0
M  V30 2802 C 268.484 -1.14944 2.02215 0
M  V30 2803 C 269.478 -1.42167 0.92114 0
M  V30 2804 O 270.684 -1.41987 1.10634 0
M  V30 2805 H 267.059 -0.387841 0.64427 0
M  V30 2806 H 269.03 -0.743683 2.88984 0
M  V30 2807 C 267.779 -2.4647 2.4525 0
M  V30 2808 H 267.102 -2.26363 3.29545 0
M  V30 2809 H 268.542 -3.17948 2.80508 0
M  V30 2810 C 267.001 -3.09921 1.321 0
M  V30 2811 O 267.531 -3.9651 0.643622 0
M  V30 2812 N 265.737 -2.69986 1.07497 0
M  V30 2813 H 265.284 -1.99667 1.62761 0
M  V30 2814 H 265.242 -3.12769 0.319876 0
M  V30 2815 N 269.014 -1.53014 -0.377408 0
M  V30 2816 C 270.425 -1.60438 -0.954798 0
M  V30 2817 C 270.776 -0.464418 -1.90624 0
M  V30 2818 O 269.901 0.41087 -2.12464 0
M  V30 2819 C 270.496 -2.90797 -1.73847 0
M  V30 2820 C 269.055 -3.00595 -2.26538 0
M  V30 2821 C 268.202 -2.55645 -1.07429 0
M  V30 2822 H 271.153 -1.57926 -0.156575 0
M  V30 2823 H 271.174 -2.77935 -2.5987 0
M  V30 2824 H 270.686 -3.73746 -1.04574 0
M  V30 2825 H 268.787 -2.22208 -2.99089 0
M  V30 2826 H 268.9 -4.05456 -2.5523 0
M  V30 2827 H 267.264 -2.10239 -1.43777 0
M  V30 2828 H 268.047 -3.41 -0.396728 0
M  V30 2829 N 270.492 0.636531 -1.44174 0
M  V30 2830 C 271.769 1.39463 -1.37148 0
M  V30 2831 C 272.149 2.11082 -0.027507 0
M  V30 2832 O 271.497 2.05954 0.989716 0
M  V30 2833 C 271.707 2.36552 -2.56601 0
M  V30 2834 C 273.055 3.00048 -3.00427 0
M  V30 2835 O 274.079 2.46878 -2.56767 0
M  V30 2836 O 272.938 3.96488 -3.76111 0
M  V30 2837 H 270.032 0.623903 -0.542839 0
M  V30 2838 H 272.578 0.662039 -1.56253 0
M  V30 2839 H 271.35 1.82692 -3.46034 0
M  V30 2840 H 270.973 3.17236 -2.39681 0
M  V30 2841 N 271.97 1.30982 0.876444 0
M  V30 2842 C 272.918 1.18006 2.00443 0
M  V30 2843 C 273.912 0.0898871 1.69161 0
M  V30 2844 O 275.118 0.251333 1.78237 0
M  V30 2845 H 271.493 0.365196 0.65737 0
M  V30 2846 H 273.464 2.13453 2.0852 0
M  V30 2847 C 272.213 0.897521 3.35916 0
M  V30 2848 H 271.536 1.7285 3.60504 0
M  V30 2849 H 272.976 0.846874 4.15456 0
M  V30 2850 C 271.435 -0.399674 3.34521 0
M  V30 2851 O 271.965 -1.41852 3.7582 0
M  V30 2852 N 270.171 -0.413893 2.87637 0
M  V30 2853 H 269.718 0.41571 2.54224 0
M  V30 2854 H 269.676 -1.28175 2.87086 0
M  V30 2855 N 273.449 -1.08991 1.13837 0
M  V30 2856 C 274.86 -1.62746 0.914917 0
M  V30 2857 C 275.211 -1.88403 -0.547594 0
M  V30 2858 O 274.336 -1.63706 -1.41525 0
M  V30 2859 C 274.931 -2.95662 1.65437 0
M  V30 2860 C 273.49 -3.46225 1.47666 0
M  V30 2861 C 272.637 -2.20562 1.6807 0
M  V30 2862 H 275.588 -0.922946 1.29102 0
M  V30 2863 H 275.609 -3.63825 1.11407 0
M  V30 2864 H 275.121 -2.76956 2.71877 0
M  V30 2865 H 273.222 -3.70046 0.435478 0
M  V30 2866 H 273.335 -4.23368 2.24268 0
M  V30 2867 H 271.699 -2.29439 1.10589 0
M  V30 2868 H 272.482 -2.0437 2.7584 0
M  V30 2869 N 274.927 -0.932562 -1.27047 0
M  V30 2870 C 276.173 -0.576412 -1.94436 0
M  V30 2871 C 276.506 0.880891 -1.73072 0
M  V30 2872 O 275.781 1.62905 -1.06264 0
M  V30 2873 C 276.064 -0.909031 -3.48437 0
M  V30 2874 C 275.917 -2.42044 -3.79123 0
M  V30 2875 C 277.236 -0.418341 -4.38107 0
M  V30 2876 H 274.355 -0.210888 -0.706184 0
M  V30 2877 H 276.997 -1.16522 -1.50075 0
M  V30 2878 H 275.147 -0.407947 -3.86352 0
M  V30 2879 H 276.819 -2.99359 -3.50973 0
M  V30 2880 H 275.062 -2.86758 -3.25503 0
M  V30 2881 H 275.733 -2.6037 -4.86736 0
M  V30 2882 H 278.209 -0.847856 -4.0737 0
M  V30 2883 H 277.085 -0.679981 -5.44672 0
M  V30 2884 H 277.346 0.681642 -4.36814 0
M  V30 2885 N 276.405 1.4127 -0.698611 0
M  V30 2886 C 277.654 2.00408 -0.227949 0
M  V30 2887 C 277.967 1.55981 1.18023 0
M  V30 2888 O 279.173 2.07699 1.74852 0
M  V30 2889 C 277.629 3.58129 -0.356636 0
M  V30 2890 C 277.237 4.11536 -1.77037 0
M  V30 2891 C 278.981 4.24466 0.0540969 0
M  V30 2892 C 276.888 5.61701 -1.85055 0
M  V30 2893 H 275.818 0.749586 -0.0814657 0
M  V30 2894 H 278.469 1.61713 -0.867249 0
M  V30 2895 H 276.851 3.94442 0.350965 0
M  V30 2896 H 278.025 3.86636 -2.50698 0
M  V30 2897 H 276.34 3.57736 -2.13105 0
M  V30 2898 H 278.937 5.34698 0.0146723 0
M  V30 2899 H 279.28 4.01687 1.09332 0
M  V30 2900 H 279.813 3.93198 -0.603337 0
M  V30 2901 H 276.552 5.89312 -2.8704 0
M  V30 2902 H 276.072 5.88519 -1.15783 0
M  V30 2903 H 277.751 6.26524 -1.61484 0
M  V30 2904 N 277.883 0.443576 1.51229 0
M  V30 2905 C 279.131 -0.120557 2.0174 0
M  V30 2906 C 279.452 -1.42665 1.32935 0
M  V30 2907 O 278.722 -1.9028 0.465866 0
M  V30 2908 H 277.302 -0.0475426 0.745486 0
M  V30 2909 H 279.964 0.587711 1.85828 0
M  V30 2910 H 279.06 -0.291972 3.10731 0
M  V30 2911 N 279.361 -1.56624 0.175154 0
M  V30 2912 C 280.607 -1.9729 -0.469506 0
M  V30 2913 C 280.94 -1.06128 -1.62636 0
M  V30 2914 O 280.215 -0.109183 -1.94193 0
M  V30 2915 C 280.498 -3.47375 -0.948804 0
M  V30 2916 C 280.351 -4.49317 0.208491 0
M  V30 2917 C 281.67 -4.00652 -1.82116 0
M  V30 2918 H 278.789 -0.717317 -0.16919 0
M  V30 2919 H 281.431 -1.88184 0.262062 0
M  V30 2920 H 279.581 -3.55267 -1.57219 0
M  V30 2921 H 281.253 -4.53482 0.845682 0
M  V30 2922 H 279.496 -4.25121 0.863395 0
M  V30 2923 H 280.167 -5.51741 -0.169059 0
M  V30 2924 H 282.643 -3.95416 -1.2956 0
M  V30 2925 H 281.519 -5.06075 -2.12554 0
M  V30 2926 H 281.78 -3.44699 -2.7683 0
M  V30 2927 N 280.839 0.0985539 -1.57292 0
M  V30 2928 C 282.255 0.45267 -1.53046 0
M  V30 2929 C 282.455 1.80713 -0.891342 0
M  V30 2930 O 281.511 2.4785 -0.482375 0
M  V30 2931 C 282.824 0.418341 -2.97776 0
M  V30 2932 C 284.372 0.500443 -3.08973 0
M  V30 2933 C 284.847 0.496297 -4.55303 0
M  V30 2934 N 286.338 0.557151 -4.59837 0
M  V30 2935 C 287.073 0.575726 -5.70502 0
M  V30 2936 N 286.569 0.550714 -6.90608 0
M  V30 2937 N 288.362 0.620277 -5.58667 0
M  V30 2938 H 280.513 -0.788673 -1.97215 0
M  V30 2939 H 282.776 -0.293188 -0.901524 0
M  V30 2940 H 282.482 -0.509659 -3.47988 0
M  V30 2941 H 282.356 1.2386 -3.56284 0
M  V30 2942 H 284.743 1.41886 -2.58751 0
M  V30 2943 H 284.824 -0.347894 -2.53423 0
M  V30 2944 H 284.468 -0.418162 -5.06176 0
M  V30 2945 H 284.398 1.3618 -5.08687 0
M  V30 2946 H 286.889 0.581816 -3.73394 0
M  V30 2947 H 287.202 0.568075 -7.70709 0
M  V30 2948 H 285.547 0.517816 -6.93068 0
M  V30 2949 H 288.738 0.637322 -4.63741 0
M  V30 2950 H 288.911 0.631283 -6.44918 0
M  V30 2951 N 282.317 1.53212 0.369288 0
M  V30 2952 C 283.542 1.73423 1.1375 0
M  V30 2953 C 283.967 0.460404 1.82378 0
M  V30 2954 O 283.325 -0.585298 1.71592 0
M  V30 2955 C 283.373 2.89769 2.1463 0
M  V30 2956 O 282.477 2.58119 3.21634 0
M  V30 2957 H 281.818 0.576061 0.330227 0
M  V30 2958 H 284.348 2.00083 0.427547 0
M  V30 2959 H 284.358 3.15829 2.58294 0
M  V30 2960 H 283.033 3.8217 1.64071 0
M  V30 2961 H 281.61 2.42864 2.82969 0
M  V30 2962 N 283.795 -0.628877 1.44509 0
M  V30 2963 C 285.042 -1.38839 1.47411 0
M  V30 2964 C 285.37 -1.94202 0.10757 0
M  V30 2965 O 284.625 -1.74243 -0.890947 0
M  V30 2966 C 284.924 -2.56995 2.48371 0
M  V30 2967 C 284.59 -2.19908 3.93639 0
M  V30 2968 C 283.252 -2.09506 4.33198 0
M  V30 2969 C 285.604 -1.9064 4.85083 0
M  V30 2970 C 282.932 -1.68028 5.62124 0
M  V30 2971 C 285.284 -1.50655 6.14399 0
M  V30 2972 C 283.948 -1.38796 6.5291 0
M  V30 2973 H 283.218 -0.508048 0.539414 0
M  V30 2974 H 285.865 -0.712913 1.77735 0
M  V30 2975 H 284.17 -3.29786 2.11538 0
M  V30 2976 H 285.867 -3.15223 2.47861 0
M  V30 2977 H 282.457 -2.28922 3.62343 0
M  V30 2978 H 286.641 -1.97585 4.55273 0
M  V30 2979 H 281.897 -1.57452 5.90778 0
M  V30 2980 H 286.071 -1.27048 6.84713 0
M  V30 2981 H 283.698 -1.06429 7.52713 0
M  V30 2982 N 285.273 -1.31445 -0.869486 0
M  V30 2983 C 286.498 -1.24256 -1.66058 0
M  V30 2984 C 286.923 0.188928 -1.87149 0
M  V30 2985 O 286.281 1.13522 -1.4136 0
M  V30 2986 C 286.329 -1.9924 -3.00559 0
M  V30 2987 O 285.433 -1.33007 -3.90362 0
M  V30 2988 H 284.774 -0.428973 -0.506831 0
M  V30 2989 H 287.304 -1.73521 -1.08404 0
M  V30 2990 H 287.314 -2.08854 -3.50491 0
M  V30 2991 H 285.989 -3.03342 -2.84528 0
M  V30 2992 H 284.566 -1.31848 -3.48813 0
M  V30 2993 N 286.751 1.08385 -1.14413 0
M  V30 2994 C 287.976 1.85057 -0.936413 0
M  V30 2995 C 288.401 1.81055 0.509971 0
M  V30 2996 O 287.759 1.1958 1.36273 0
M  V30 2997 C 287.807 3.30505 -1.44217 0
M  V30 2998 O 286.911 4.07491 -0.634409 0
M  V30 2999 H 286.252 0.573425 -0.334784 0
M  V30 3000 H 288.782 1.36799 -1.52142 0
M  V30 3001 H 288.792 3.81348 -1.45043 0
M  V30 3002 H 287.467 3.32734 -2.49522 0
M  V30 3003 H 286.044 3.66368 -0.694902 0
M  V30 3004 N 288.23 0.939286 1.26551 0
M  V30 3005 C 289.178 0.43815 2.28436 0
M  V30 3006 C 290.172 -0.483587 1.62351 0
M  V30 3007 O 291.378 -0.362009 1.76322 0
M  V30 3008 H 287.753 0.123149 0.741848 0
M  V30 3009 H 289.724 1.31002 2.68106 0
M  V30 3010 C 288.473 -0.283052 3.46546 0
M  V30 3011 H 287.796 0.417043 3.97619 0
M  V30 3012 H 289.236 -0.597948 4.19763 0
M  V30 3013 C 287.695 -1.50018 3.01656 0
M  V30 3014 O 288.225 -2.59855 3.0633 0
M  V30 3015 N 286.431 -1.35608 2.57019 0
M  V30 3016 H 285.978 -0.46244 2.53415 0
M  V30 3017 H 285.936 -2.17165 2.27347 0
M  V30 3018 N 289.708 -1.40897 0.706093 0
M  V30 3019 C 291.124 -1.55042 0.37869 0
M  V30 3020 C 291.324 -1.67944 -1.11342 0
M  V30 3021 O 290.38 -1.66372 -1.89938 0
M  V30 3022 C 291.693 -2.78398 1.13643 0
M  V30 3023 C 293.241 -2.92206 1.12181 0
M  V30 3024 C 293.716 -4.18463 1.86152 0
M  V30 3025 N 295.207 -4.25443 1.83173 0
M  V30 3026 C 295.942 -5.2202 2.37239 0
M  V30 3027 N 295.438 -6.24563 2.99821 0
M  V30 3028 N 297.231 -5.14033 2.27435 0
M  V30 3029 H 289.382 -1.30769 1.67372 0
M  V30 3030 H 291.645 -0.631653 0.706907 0
M  V30 3031 H 291.351 -2.7511 2.19106 0
M  V30 3032 H 291.225 -3.70228 0.721853 0
M  V30 3033 H 293.612 -2.95004 0.0754171 0
M  V30 3034 H 293.693 -2.01521 1.57554 0
M  V30 3035 H 293.337 -4.16427 2.90776 0
M  V30 3036 H 293.267 -5.08141 1.38206 0
M  V30 3037 H 295.758 -3.51976 1.37556 0
M  V30 3038 H 296.071 -6.94665 3.38616 0
M  V30 3039 H 294.416 -6.25035 3.03902 0
M  V30 3040 H 297.607 -4.3285 1.78208 0
M  V30 3041 H 297.78 -5.89129 2.69873 0
M  V30 3042 N 291.186 -0.45159 -1.50991 0
M  V30 3043 C 292.096 0.358431 -2.31846 0
M  V30 3044 C 293.112 1.01438 -1.41373 0
M  V30 3045 O 294.288 1.00663 -1.74439 0
M  V30 3046 C 291.353 1.43704 -3.15515 0
M  V30 3047 C 290.414 0.799742 -4.21785 0
M  V30 3048 C 289.647 1.82696 -5.01456 0
M  V30 3049 O 289.87 3.05105 -4.81941 0
M  V30 3050 O 288.804 1.40958 -5.85162 0
M  V30 3051 H 292.63 -0.302032 -3.02194 0
M  V30 3052 H 290.215 -0.213825 -1.47862 0
M  V30 3053 H 292.097 2.06227 -3.67489 0
M  V30 3054 H 290.772 2.08133 -2.47916 0
M  V30 3055 H 289.679 0.136084 -3.73852 0
M  V30 3056 H 291.012 0.198718 -4.91799 0
M  V30 3057 N 292.664 1.56529 -0.183458 0
M  V30 3058 C 293.594 2.21549 0.737456 0
M  V30 3059 C 294.575 1.17489 1.23005 0
M  V30 3060 O 295.76 1.45959 1.281 0
M  V30 3061 C 292.89 2.86575 1.96194 0
M  V30 3062 C 291.844 3.96778 1.60473 0
M  V30 3063 C 291.17 4.48911 2.90487 0
M  V30 3064 C 292.47 5.15767 0.823497 0
M  V30 3065 H 294.164 2.98761 0.195453 0
M  V30 3066 H 291.71 1.43702 0.0925686 0
M  V30 3067 H 293.663 3.30739 2.61131 0
M  V30 3068 H 292.387 2.06749 2.52828 0
M  V30 3069 H 291.046 3.53286 0.978997 0
M  V30 3070 H 290.694 3.65862 3.45186 0
M  V30 3071 H 290.394 5.23265 2.67335 0
M  V30 3072 H 291.918 4.95771 3.56432 0
M  V30 3073 H 293.332 5.56549 1.37571 0
M  V30 3074 H 291.729 5.96114 0.690551 0
M  V30 3075 H 292.799 4.84574 -0.177782 0
M  V30 3076 N 294.142 -0.090211 1.57342 0
M  V30 3077 C 295.37 -0.806224 1.90546 0
M  V30 3078 C 295.785 -1.72041 0.777644 0
M  V30 3079 O 295.142 -1.80778 -0.250103 0
M  V30 3080 C 295.193 -1.61546 3.23396 0
M  V30 3081 O 294.914 -0.738043 4.31839 0
M  V30 3082 C 296.415 -2.4341 3.70495 0
M  V30 3083 H 293.635 -0.230256 0.630257 0
M  V30 3084 H 296.179 -0.0659843 2.04394 0
M  V30 3085 H 294.334 -2.30816 3.11131 0
M  V30 3086 H 294.748 -1.29901 5.08159 0
M  V30 3087 H 296.222 -2.95676 4.66133 0
M  V30 3088 H 296.699 -3.22098 2.98579 0
M  V30 3089 H 297.305 -1.79331 3.85643 0
M  V30 3090 N 295.62 -1.53406 -0.361157 0
M  V30 3091 C 296.845 -1.74024 -1.12829 0
M  V30 3092 C 297.27 -0.470069 -1.82132 0
M  V30 3093 O 296.628 0.57619 -1.719 0
M  V30 3094 C 296.676 -2.90903 -2.13091 0
M  V30 3095 O 295.78 -2.59821 -3.20261 0
M  V30 3096 H 295.121 -0.577804 -0.327168 0
M  V30 3097 H 297.651 -2.00307 -0.41693 0
M  V30 3098 H 297.661 -3.17194 -2.56616 0
M  V30 3099 H 296.336 -3.83034 -1.62042 0
M  V30 3100 H 294.913 -2.44362 -2.81677 0
M  V30 3101 N 297.098 0.621204 -1.44841 0
M  V30 3102 C 298.514 0.94048 -1.28946 0
M  V30 3103 C 298.714 2.00154 -0.23249 0
M  V30 3104 O 297.77 2.49651 0.378237 0
M  V30 3105 C 299.083 1.39433 -2.66419 0
M  V30 3106 C 300.631 1.50927 -2.74208 0
M  V30 3107 C 301.106 1.99692 -4.12174 0
M  V30 3108 N 302.597 2.06947 -4.144 0
M  V30 3109 C 303.332 2.45871 -5.1801 0
M  V30 3110 N 302.828 2.83862 -6.31977 0
M  V30 3111 N 304.621 2.46092 -5.05366 0
M  V30 3112 H 296.772 -0.0803548 -2.12248 0
M  V30 3113 H 299.035 0.0266913 -0.947624 0
M  V30 3114 H 298.741 0.688925 -3.44887 0
M  V30 3115 H 298.615 2.36347 -2.93973 0
M  V30 3116 H 301.002 2.20561 -1.96053 0
M  V30 3117 H 301.083 0.523627 -2.50383 0
M  V30 3118 H 300.727 1.30649 -4.90809 0
M  V30 3119 H 300.657 2.99146 -4.33381 0
M  V30 3120 H 303.148 1.80232 -3.32152 0
M  V30 3121 H 303.461 3.12405 -7.0684 0
M  V30 3122 H 301.806 2.8159 -6.35399 0
M  V30 3123 H 304.997 2.1581 -4.15384 0
M  V30 3124 H 305.17 2.76102 -5.86235 0
M  V30 3125 N 298.576 1.31904 0.862503 0
M  V30 3126 C 299.506 1.22782 1.98612 0
M  V30 3127 C 300.487 0.113362 1.69722 0
M  V30 3128 O 301.672 0.299218 1.91881 0
M  V30 3129 C 298.802 0.942058 3.34279 0
M  V30 3130 C 297.756 2.0169 3.77499 0
M  V30 3131 C 297.082 1.58369 5.10709 0
M  V30 3132 C 298.382 3.43096 3.93805 0
M  V30 3133 H 300.076 2.16788 2.06502 0
M  V30 3134 H 297.622 1.04366 0.992154 0
M  V30 3135 H 299.575 0.864818 4.1243 0
M  V30 3136 H 298.299 -0.0336603 3.26583 0
M  V30 3137 H 296.958 2.08416 3.01593 0
M  V30 3138 H 296.606 0.595628 4.99461 0
M  V30 3139 H 296.306 2.30279 5.40597 0
M  V30 3140 H 297.83 1.52067 5.91361 0
M  V30 3141 H 299.244 3.39003 4.62331 0
M  V30 3142 H 297.641 4.13288 4.35101 0
M  V30 3143 H 298.711 3.83334 2.96957 0
M  V30 3144 N 300.054 -1.07777 1.14986 0
M  V30 3145 C 301.302 -1.79934 0.920235 0
M  V30 3146 C 301.623 -1.86955 -0.554336 0
M  V30 3147 O 300.893 -1.36731 -1.40291 0
M  V30 3148 H 299.473 -0.666424 0.337473 0
M  V30 3149 H 302.135 -1.3027 1.44968 0
M  V30 3150 H 301.231 -2.82539 1.32583 0
M  V30 3151 N 301.532 -0.945985 -1.26051 0
M  V30 3152 C 302.462 -0.477172 -2.28572 0
M  V30 3153 C 303.443 0.472032 -1.63419 0
M  V30 3154 O 304.628 0.372853 -1.90587 0
M  V30 3155 C 301.758 0.253975 -3.4637 0
M  V30 3156 C 300.712 -0.609135 -4.23643 0
M  V30 3157 C 300.038 0.252252 -5.34105 0
M  V30 3158 C 301.338 -1.8829 -4.8718 0
M  V30 3159 H 303.032 -1.33402 -2.68038 0
M  V30 3160 H 300.578 -0.642904 -1.28852 0
M  V30 3161 H 302.531 0.593016 -4.17207 0
M  V30 3162 H 301.255 1.145 -3.05871 0
M  V30 3163 H 299.914 -0.931138 -3.54578 0
M  V30 3164 H 299.562 1.14278 -4.89846 0
M  V30 3165 H 299.262 -0.32188 -5.86718 0
M  V30 3166 H 300.786 0.586454 -6.07777 0
M  V30 3167 H 302.2 -1.61081 -5.50205 0
M  V30 3168 H 300.597 -2.40199 -5.49931 0
M  V30 3169 H 301.667 -2.59134 -4.09851 0
M  V30 3170 N 303.011 1.40521 -0.713556 0
M  V30 3171 C 304.241 2.0494 -0.261395 0
M  V30 3172 C 304.649 1.53861 1.10107 0
M  V30 3173 O 303.992 0.689321 1.70276 0
M  V30 3174 C 304.054 3.59138 -0.161227 0
M  V30 3175 C 303.718 4.33096 -1.45865 0
M  V30 3176 C 304.715 4.61182 -2.40016 0
M  V30 3177 C 302.4 4.72043 -1.71701 0
M  V30 3178 C 304.394 5.27196 -3.58251 0
M  V30 3179 C 302.081 5.37789 -2.90218 0
M  V30 3180 C 303.079 5.65295 -3.83315 0
M  V30 3181 O 302.767 6.29683 -4.99754 0
M  V30 3182 H 302.499 0.666041 -0.115608 0
M  V30 3183 H 305.053 1.80954 -0.971849 0
M  V30 3184 H 303.283 3.81936 0.605153 0
M  V30 3185 H 304.972 4.05091 0.256105 0
M  V30 3186 H 305.738 4.31559 -2.21318 0
M  V30 3187 H 301.617 4.50003 -1.00092 0
M  V30 3188 H 305.161 5.48582 -4.30934 0
M  V30 3189 H 301.058 5.66831 -3.08825 0
M  V30 3190 H 301.826 6.4818 -4.99805 0
M  V30 3191 N 304.489 0.459591 1.5075 0
M  V30 3192 C 305.717 -0.0973749 2.06671 0
M  V30 3193 C 306.132 -1.34524 1.32472 0
M  V30 3194 O 305.489 -1.7827 0.390634 0
M  V30 3195 C 305.54 -0.39714 3.59312 0
M  V30 3196 O 305.261 0.801214 4.30711 0
M  V30 3197 C 306.762 -1.00234 4.31819 0
M  V30 3198 H 303.982 0.00195854 0.670997 0
M  V30 3199 H 306.526 0.645072 1.94059 0
M  V30 3200 H 304.681 -1.08951 3.71764 0
M  V30 3201 H 305.095 0.538857 5.21725 0
M  V30 3202 H 306.569 -1.16193 5.39632 0
M  V30 3203 H 307.046 -1.98939 3.91561 0
M  V30 3204 H 307.652 -0.348699 4.23868 0
M  V30 3205 N 305.967 -1.56429 0.191757 0
M  V30 3206 C 306.9 -2.14829 -0.76967 0
M  V30 3207 C 307.878 -1.08405 -1.2119 0
M  V30 3208 O 309.062 -1.36498 -1.30002 0
M  V30 3209 C 306.189 -2.70446 -2.03903 0
M  V30 3210 C 305.235 -3.89428 -1.7392 0
M  V30 3211 S 306.068 -5.28048 -0.890265 0
M  V30 3212 C 307.224 -5.87085 -2.16984 0
M  V30 3213 H 307.457 -2.96042 -0.273204 0
M  V30 3214 H 304.99 -1.54383 -0.0231975 0
M  V30 3215 H 306.948 -3.03134 -2.76803 0
M  V30 3216 H 305.609 -1.89281 -2.50662 0
M  V30 3217 H 304.802 -4.26742 -2.68155 0
M  V30 3218 H 304.404 -3.57732 -1.09103 0
M  V30 3219 H 306.696 -6.01244 -3.12269 0
M  V30 3220 H 307.639 -6.83747 -1.84108 0
M  V30 3221 H 308.047 -5.15663 -2.29678 0
M  V30 3222 N 307.445 0.0818655 -1.57387 0
M  V30 3223 C 308.392 1.09834 -2.0299 0
M  V30 3224 C 309.362 1.39043 -0.908639 0
M  V30 3225 O 310.547 1.50282 -1.17559 0
M  V30 3226 C 307.687 2.40971 -2.47037 0
M  V30 3227 C 306.8 2.18379 -3.7274 0
M  V30 3228 C 305.935 3.43008 -4.0561 0
M  V30 3229 C 304.974 3.15736 -5.24383 0
M  V30 3230 N 304.111 4.32667 -5.52941 0
M  V30 3231 H 308.951 0.702472 -2.89602 0
M  V30 3232 H 306.488 0.33531 -1.43227 0
M  V30 3233 H 308.446 3.1752 -2.70623 0
M  V30 3234 H 307.076 2.78379 -1.63417 0
M  V30 3235 H 306.128 1.32569 -3.56552 0
M  V30 3236 H 307.44 1.94227 -4.59431 0
M  V30 3237 H 306.594 4.27958 -4.30043 0
M  V30 3238 H 305.333 3.70225 -3.17466 0
M  V30 3239 H 304.338 2.2918 -4.99757 0
M  V30 3240 H 305.563 2.8985 -6.14136 0
M  V30 3241 H 303.509 4.59935 -4.67756 0
M  V30 3242 H 303.426 4.11753 -6.34031 0
M  V30 3243 H 304.694 5.18644 -5.81918 0
M  V30 3244 N 308.923 1.53595 0.353017 0
M  V30 3245 C 310.171 1.70049 1.09215 0
M  V30 3246 C 310.492 0.461406 1.89463 0
M  V30 3247 O 309.762 -0.524633 1.88744 0
M  V30 3248 H 308.342 0.626912 0.40619 0
M  V30 3249 H 311.004 1.90822 0.396585 0
M  V30 3250 H 310.1 2.56718 1.77488 0
M  V30 3251 N 310.401 -0.613514 1.45168 0
M  V30 3252 C 311.331 -1.7354 1.56225 0
M  V30 3253 C 312.312 -1.64981 0.41414 0
M  V30 3254 O 313.497 -1.83472 0.636526 0
M  V30 3255 C 310.627 -3.12128 1.52295 0
M  V30 3256 C 309.581 -3.35491 2.65762 0
M  V30 3257 C 308.907 -4.74291 2.46885 0
M  V30 3258 C 310.207 -3.26325 4.0781 0
M  V30 3259 H 311.901 -1.64543 2.50132 0
M  V30 3260 H 309.447 -0.790185 1.20383 0
M  V30 3261 H 311.4 -3.90404 1.58628 0
M  V30 3262 H 310.124 -3.2195 0.549139 0
M  V30 3263 H 308.783 -2.59603 2.58847 0
M  V30 3264 H 308.431 -4.80839 1.47657 0
M  V30 3265 H 308.131 -4.9088 3.22972 0
M  V30 3266 H 309.655 -5.54775 2.55063 0
M  V30 3267 H 311.069 -3.94483 4.16 0
M  V30 3268 H 309.466 -3.54445 4.8424 0
M  V30 3269 H 310.536 -2.23855 4.30136 0
M  V30 3270 N 311.879 -1.3236 -0.855495 0
M  V30 3271 C 312.811 -1.17052 -1.97057 0
M  V30 3272 C 313.824 -0.10574 -1.62456 0
M  V30 3273 O 315.013 -0.354619 -1.74942 0
M  V30 3274 C 312.113 -0.769305 -3.30053 0
M  V30 3275 C 311.286 -1.9222 -3.929 0
M  V30 3276 C 310.345 -1.50466 -5.04228 0
M  V30 3277 O 309.371 -2.21655 -5.24269 0
M  V30 3278 N 310.573 -0.400209 -5.79119 0
M  V30 3279 H 313.338 -2.13103 -2.1073 0
M  V30 3280 H 310.899 -1.24885 -1.0303 0
M  V30 3281 H 312.891 -0.472407 -4.01933 0
M  V30 3282 H 311.461 0.100025 -3.1244 0
M  V30 3283 H 310.681 -2.38563 -3.13817 0
M  V30 3284 H 311.969 -2.69403 -4.31624 0
M  V30 3285 H 311.367 0.192319 -5.65373 0
M  V30 3286 H 309.924 -0.162912 -6.51596 0
M  V30 3287 N 313.357 1.07166 -1.15556 0
M  V30 3288 C 314.773 1.31899 -0.898603 0
M  V30 3289 C 314.973 1.96333 0.453383 0
M  V30 3290 O 314.029 2.22438 1.19489 0
M  V30 3291 C 315.342 2.20826 -2.04099 0
M  V30 3292 C 316.89 2.34269 -2.07574 0
M  V30 3293 C 317.365 3.26546 -3.21141 0
M  V30 3294 N 318.856 3.34127 -3.20801 0
M  V30 3295 C 319.591 4.05595 -4.05315 0
M  V30 3296 N 319.087 4.79661 -4.99897 0
M  V30 3297 N 320.88 4.01555 -3.93332 0
M  V30 3298 H 313.031 0.637302 -2.02613 0
M  V30 3299 H 315.294 0.343468 -0.883591 0
M  V30 3300 H 315 1.80744 -3.01703 0
M  V30 3301 H 314.874 3.21364 -1.97496 0
M  V30 3302 H 317.261 2.73603 -1.10568 0
M  V30 3303 H 317.342 1.33429 -2.18244 0
M  V30 3304 H 316.986 2.87931 -4.184 0
M  V30 3305 H 316.916 4.27345 -3.07708 0
M  V30 3306 H 319.407 2.81336 -2.52306 0
M  V30 3307 H 319.72 5.31694 -5.60822 0
M  V30 3308 H 318.065 4.78671 -5.03884 0
M  V30 3309 H 321.256 3.42806 -3.18751 0
M  V30 3310 H 321.429 4.56987 -4.5942 0
M  V30 3311 N 314.835 0.952656 1.25548 0
M  V30 3312 C 315.767 0.428609 2.25157 0
M  V30 3313 C 316.78 -0.454428 1.56329 0
M  V30 3314 O 317.969 -0.263023 1.76552 0
M  V30 3315 C 315.069 -0.401972 3.36508 0
M  V30 3316 C 314.242 0.467601 4.34893 0
M  V30 3317 C 313.301 -0.30445 5.25319 0
M  V30 3318 O 312.327 0.296473 5.68427 0
M  V30 3319 N 313.529 -1.59805 5.5807 0
M  V30 3320 H 316.294 1.28497 2.70756 0
M  V30 3321 H 313.855 0.822798 1.39433 0
M  V30 3322 H 315.847 -0.926134 3.9396 0
M  V30 3323 H 314.417 -1.15918 2.90313 0
M  V30 3324 H 313.637 1.17288 3.76347 0
M  V30 3325 H 314.925 1.06119 4.97611 0
M  V30 3326 H 314.323 -2.10823 5.24948 0
M  V30 3327 H 312.88 -2.06822 6.18116 0
M  V30 3328 N 316.313 -1.40141 0.720998 0
M  V30 3329 C 317.59 -1.94677 0.189757 0
M  V30 3330 C 317.97 -1.65879 -1.30566 0
M  V30 3331 O 317.318 -0.979391 -2.06447 0
M  V30 3332 C 317.528 -3.45279 0.508304 0
M  V30 3333 C 318.876 -4.22209 0.449934 0
M  V30 3334 O 319.9 -3.53413 0.444677 0
M  V30 3335 O 318.759 -5.44788 0.432189 0
M  V30 3336 H 315.853 -0.826459 0.0299026 0
M  V30 3337 H 318.399 -1.49719 0.7989 0
M  V30 3338 H 317.171 -3.59619 1.54239 0
M  V30 3339 H 316.794 -3.97386 -0.130525 0
M  V30 3340 N 317.792 -0.46758 -1.50504 0
M  V30 3341 C 319.041 0.0902868 -2.01498 0
M  V30 3342 C 319.354 1.411 -1.35463 0
M  V30 3343 O 320.56 2.0536 -1.77594 0
M  V30 3344 C 319.016 0.21142 -3.59278 0
M  V30 3345 C 318.624 -1.10065 -4.34269 0
M  V30 3346 C 320.368 0.721433 -4.18325 0
M  V30 3347 C 318.275 -0.943505 -5.83825 0
M  V30 3348 H 317.205 0.037517 -0.753066 0
M  V30 3349 H 319.856 -0.601943 -1.73346 0
M  V30 3350 H 318.238 0.967352 -3.84003 0
M  V30 3351 H 319.412 -1.86726 -4.21272 0
M  V30 3352 H 317.727 -1.5415 -3.86816 0
M  V30 3353 H 320.324 0.85598 -5.27804 0
M  V30 3354 H 320.667 1.71186 -3.79475 0
M  V30 3355 H 321.2 0.0229843 -3.97793 0
M  V30 3356 H 317.939 -1.90719 -6.27141 0
M  V30 3357 H 317.459 -0.217213 -5.99407 0
M  V30 3358 H 319.138 -0.608715 -6.4413 0
M  V30 3359 N 319.27 1.56325 -0.20005 0
M  V30 3360 C 320.233 2.18084 0.705132 0
M  V30 3361 C 321.233 1.13666 1.1374 0
M  V30 3362 O 322.423 1.39023 1.04968 0
M  V30 3363 C 319.555 2.78689 1.96329 0
M  V30 3364 H 320.748 2.99435 0.167023 0
M  V30 3365 H 318.301 1.56221 0.0495725 0
M  V30 3366 H 319.036 2.0115 2.5438 0
M  V30 3367 H 318.821 3.55133 1.66202 0
M  V30 3368 H 320.311 3.26096 2.60866 0
M  V30 3369 N 320.748 -0.0735177 1.57428 0
M  V30 3370 C 321.973 -0.789787 1.91774 0
M  V30 3371 C 322.398 -1.70413 0.796306 0
M  V30 3372 O 321.756 -1.79555 -0.250961 0
M  V30 3373 C 321.804 -1.5609 3.25067 0
M  V30 3374 O 320.908 -2.67144 3.14178 0
M  V30 3375 H 320.249 -0.215582 0.628029 0
M  V30 3376 H 322.779 -0.0422781 2.04556 0
M  V30 3377 H 322.789 -1.94052 3.58898 0
M  V30 3378 H 321.464 -0.890015 4.06265 0
M  V30 3379 H 320.041 -2.32052 2.91901 0
M  V30 3380 N 322.226 -1.5378 -0.344866 0
M  V30 3381 C 323.189 -1.80981 -1.40637 0
M  V30 3382 C 324.189 -0.680816 -1.45676 0
M  V30 3383 O 325.379 -0.949095 -1.46075 0
M  V30 3384 C 322.511 -1.95063 -2.79577 0
M  V30 3385 H 323.704 -2.75803 -1.17783 0
M  V30 3386 H 321.257 -1.45173 -0.579181 0
M  V30 3387 H 321.992 -1.02379 -3.07716 0
M  V30 3388 H 321.777 -2.77198 -2.77315 0
M  V30 3389 H 323.267 -2.17629 -3.56409 0
M  V30 3390 N 323.704 0.605807 -1.45491 0
M  V30 3391 C 324.634 1.72709 -1.57143 0
M  V30 3392 C 325.615 1.6476 -0.422884 0
M  V30 3393 O 326.8 1.83132 -0.646247 0
M  V30 3394 C 323.93 3.11316 -1.53948 0
M  V30 3395 C 322.884 3.34077 -2.67537 0
M  V30 3396 C 322.21 4.72975 -2.49397 0
M  V30 3397 C 323.51 3.24158 -4.09535 0
M  V30 3398 H 325.204 1.63214 -2.51001 0
M  V30 3399 H 322.75 0.78379 -1.208 0
M  V30 3400 H 324.703 3.89557 -1.60696 0
M  V30 3401 H 323.427 3.21655 -0.566205 0
M  V30 3402 H 322.086 2.58227 -2.6022 0
M  V30 3403 H 321.734 4.8005 -1.50205 0
M  V30 3404 H 321.434 4.8916 -3.25571 0
M  V30 3405 H 322.958 5.53414 -2.58002 0
M  V30 3406 H 324.372 3.92271 -4.18086 0
M  V30 3407 H 322.769 3.51872 -4.86113 0
M  V30 3408 H 323.839 2.2157 -4.31317 0
M  V30 3409 N 325.182 1.32811 0.848464 0
M  V30 3410 C 326.129 1.22265 1.95755 0
M  V30 3411 C 327.099 0.103413 1.65778 0
M  V30 3412 O 328.284 0.280033 1.88734 0
M  V30 3413 C 325.424 0.958014 3.31536 0
M  V30 3414 C 324.537 2.16262 3.73971 0
M  V30 3415 C 323.672 1.83295 4.98575 0
M  V30 3416 C 322.711 3.00041 5.33518 0
M  V30 3417 N 321.848 2.67125 6.49299 0
M  V30 3418 H 326.688 2.17128 2.04107 0
M  V30 3419 H 324.225 1.07982 0.998913 0
M  V30 3420 H 326.183 0.785052 4.09747 0
M  V30 3421 H 324.813 0.046159 3.22767 0
M  V30 3422 H 323.865 2.44565 2.91362 0
M  V30 3423 H 325.177 3.03572 3.95785 0
M  V30 3424 H 324.331 1.62586 5.84509 0
M  V30 3425 H 323.07 0.932078 4.7871 0
M  V30 3426 H 322.075 3.21374 4.46093 0
M  V30 3427 H 323.3 3.90869 5.55336 0
M  V30 3428 H 321.246 1.79586 6.3094 0
M  V30 3429 H 321.163 3.47965 6.71161 0
M  V30 3430 H 322.431 2.49861 7.3837 0
M  V30 3431 N 326.66 -1.06551 1.16123 0
M  V30 3432 C 327.61 -2.12209 0.833736 0
M  V30 3433 C 328.594 -1.59825 -0.185656 0
M  V30 3434 O 329.786 -1.76994 0.0147906 0
M  V30 3435 C 326.915 -3.41674 0.333697 0
M  V30 3436 C 326.001 -4.00892 1.38372 0
M  V30 3437 N 326.392 -4.34256 2.59337 0
M  V30 3438 C 324.69 -4.28463 1.23836 0
M  V30 3439 C 325.391 -4.81291 3.26701 0
M  V30 3440 N 324.367 -4.80565 2.54083 0
M  V30 3441 H 328.169 -2.35849 1.75364 0
M  V30 3442 H 325.683 -1.24068 1.04789 0
M  V30 3443 H 327.68 -4.16822 0.0806918 0
M  V30 3444 H 326.34 -3.19475 -0.58017 0
M  V30 3445 H 327.351 -4.24687 2.96415 0
M  V30 3446 H 324.028 -4.15721 0.38504 0
M  V30 3447 H 325.418 -5.16332 4.29943 0
M  V30 3448 N 328.138 -0.959301 -1.25041 0
M  V30 3449 C 329.385 -0.616611 -1.92884 0
M  V30 3450 C 329.713 0.847036 -1.75087 0
M  V30 3451 O 328.968 1.62374 -1.09239 0
M  V30 3452 C 329.267 -0.927136 -3.45165 0
M  V30 3453 C 328.933 -2.37757 -3.83122 0
M  V30 3454 C 327.595 -2.77402 -3.93194 0
M  V30 3455 C 329.947 -3.31929 -4.01836 0
M  V30 3456 C 327.275 -4.10277 -4.19392 0
M  V30 3457 C 329.627 -4.64423 -4.29528 0
M  V30 3458 C 328.291 -5.03857 -4.37818 0
M  V30 3459 H 327.561 -0.225634 -0.705812 0
M  V30 3460 H 330.208 -1.20921 -1.48493 0
M  V30 3461 H 328.513 -0.252195 -3.90987 0
M  V30 3462 H 330.21 -0.6405 -3.95852 0
M  V30 3463 H 326.8 -2.06013 -3.75841 0
M  V30 3464 H 330.984 -3.02488 -3.93465 0
M  V30 3465 H 326.24 -4.40467 -4.24027 0
M  V30 3466 H 330.414 -5.37369 -4.42953 0
M  V30 3467 H 328.041 -6.06843 -4.57871 0
M  V30 3468 N 329.616 1.39756 -0.72842 0
M  V30 3469 C 331.027 1.83498 -0.344289 0
M  V30 3470 C 331.378 1.60868 1.12321 0
M  V30 3471 O 330.503 1.09634 1.86573 0
M  V30 3472 C 331.098 3.33114 -0.618112 0
M  V30 3473 C 329.657 3.753 -0.287549 0
M  V30 3474 C 328.804 2.62831 -0.884048 0
M  V30 3475 H 331.755 1.28842 -0.926578 0
M  V30 3476 H 331.776 3.80334 0.112349 0
M  V30 3477 H 331.288 3.49553 -1.68625 0
M  V30 3478 H 329.389 3.64451 0.775012 0
M  V30 3479 H 329.502 4.72945 -0.765512 0
M  V30 3480 H 327.866 2.52792 -0.311149 0
M  V30 3481 H 328.649 2.82078 -1.95671 0
M  V30 3482 N 331.094 0.475555 1.50254 0
M  V30 3483 C 332.342 -0.077738 2.0195 0
M  V30 3484 C 332.663 -1.39813 1.35931 0
M  V30 3485 O 331.933 -1.89249 0.506123 0
M  V30 3486 H 330.513 -0.031719 0.746326 0
M  V30 3487 H 333.175 0.626995 1.84539 0
M  V30 3488 H 332.271 -0.225995 3.11281 0
M  V30 3489 N 332.573 -1.56217 0.208337 0
M  V30 3490 C 333.523 -2.16324 -0.720281 0
M  V30 3491 C 334.507 -1.10775 -1.16695 0
M  V30 3492 O 335.699 -1.36801 -1.12314 0
M  V30 3493 C 332.828 -2.83644 -1.93393 0
M  V30 3494 C 331.914 -3.96401 -1.50755 0
M  V30 3495 N 332.305 -4.99546 -0.792937 0
M  V30 3496 C 330.603 -4.08246 -1.79585 0
M  V30 3497 C 331.304 -5.78828 -0.577364 0
M  V30 3498 N 330.28 -5.31723 -1.1301 0
M  V30 3499 H 334.082 -2.93432 -0.165725 0
M  V30 3500 H 331.596 -1.62397 0.00906463 0
M  V30 3501 H 333.593 -3.25107 -2.60981 0
M  V30 3502 H 332.253 -2.08027 -2.49308 0
M  V30 3503 H 333.264 -5.15967 -0.447004 0
M  V30 3504 H 329.941 -3.4377 -2.36915 0
M  V30 3505 H 331.331 -6.71899 -0.00952956 0
M  V30 3506 N 334.051 0.0651679 -1.57465 0
M  V30 3507 C 335.299 0.761555 -1.87202 0
M  V30 3508 C 335.62 1.77778 -0.801243 0
M  V30 3509 O 334.89 1.95166 0.16937 0
M  V30 3510 H 333.47 0.284251 -0.690804 0
M  V30 3511 H 336.132 0.0396827 -1.9486 0
M  V30 3512 H 335.228 1.27365 -2.84929 0
M  V30 3513 N 335.529 1.53961 0.336706 0
M  V30 3514 C 336.806 1.62171 1.09361 0
M  V30 3515 C 337.186 0.447263 2.06307 0
M  V30 3516 O 336.534 -0.559802 2.21537 0
M  V30 3517 C 336.744 2.98565 1.80721 0
M  V30 3518 C 338.092 3.54157 2.34218 0
M  V30 3519 O 339.116 3.00784 1.90807 0
M  V30 3520 O 337.975 4.47528 3.13657 0
M  V30 3521 H 335.069 0.6562 0.503319 0
M  V30 3522 H 337.615 1.66307 0.33765 0
M  V30 3523 H 336.387 3.75482 1.10132 0
M  V30 3524 H 336.01 2.9805 2.63158 0
M  V30 3525 N 337.007 -0.598083 1.45811 0
M  V30 3526 C 338.235 -1.38322 1.53866 0
M  V30 3527 C 338.65 -1.87992 0.174479 0
M  V30 3528 O 338.007 -1.62756 -0.825627 0
M  V30 3529 C 338.058 -2.58125 2.53089 0
M  V30 3530 O 337.779 -2.10516 3.84206 0
M  V30 3531 C 339.28 -3.50869 2.70935 0
M  V30 3532 H 336.5 -0.423093 0.520801 0
M  V30 3533 H 339.044 -0.728527 1.91083 0
M  V30 3534 H 337.199 -3.19615 2.18917 0
M  V30 3535 H 337.613 -2.88425 4.38077 0
M  V30 3536 H 339.087 -4.31451 3.44317 0
M  V30 3537 H 339.564 -4.01822 1.77301 0
M  V30 3538 H 340.17 -2.95225 3.06141 0
M  V30 3539 N 338.485 -1.33259 -0.841409 0
M  V30 3540 C 339.762 -1.15174 -1.58096 0
M  V30 3541 C 340.142 0.282858 -2.09196 0
M  V30 3542 O 339.49 1.28151 -1.89181 0
M  V30 3543 C 339.7 -2.1907 -2.71679 0
M  V30 3544 C 341.048 -2.53093 -3.40924 0
M  V30 3545 O 342.072 -2.17717 -2.81918 0
M  V30 3546 O 340.931 -3.1379 -4.47435 0
M  V30 3547 H 338.025 -0.445303 -0.696875 0
M  V30 3548 H 340.571 -1.44833 -0.884385 0
M  V30 3549 H 339.343 -3.15443 -2.31541 0
M  V30 3550 H 338.966 -1.90481 -3.49002 0
M  V30 3551 N 339.963 1.05934 -1.16686 0
M  V30 3552 C 341.209 1.79065 -0.95203 0
M  V30 3553 C 341.542 1.87147 0.518629 0
M  V30 3554 O 340.817 1.36574 1.38484 0
M  V30 3555 C 341.1 3.23359 -1.58464 0
M  V30 3556 C 340.953 3.23336 -3.12689 0
M  V30 3557 C 342.272 4.21004 -1.28232 0
M  V30 3558 H 339.391 0.65005 -0.34728 0
M  V30 3559 H 342.033 1.23868 -1.44072 0
M  V30 3560 H 340.183 3.70493 -1.16908 0
M  V30 3561 H 341.855 2.84336 -3.6325 0
M  V30 3562 H 340.098 2.61886 -3.4583 0
M  V30 3563 H 340.769 4.25144 -3.52075 0
M  V30 3564 H 343.245 3.8233 -1.64203 0
M  V30 3565 H 342.121 5.20225 -1.75092 0
M  V30 3566 H 342.382 4.41639 -0.201791 0
M  V30 3567 N 341.441 0.965919 1.2453 0
M  V30 3568 C 342.718 0.543777 1.87889 0
M  V30 3569 C 343.098 -0.97909 1.87021 0
M  V30 3570 O 342.446 -1.84969 1.3416 0
M  V30 3571 C 342.656 1.13327 3.30088 0
M  V30 3572 C 344.004 1.21707 4.06783 0
M  V30 3573 O 345.028 1.08566 3.39252 0
M  V30 3574 O 343.887 1.42456 5.27606 0
M  V30 3575 H 340.981 0.181054 0.806938 0
M  V30 3576 H 343.527 1.06007 1.32516 0
M  V30 3577 H 342.299 2.17612 3.25209 0
M  V30 3578 H 341.922 0.600911 3.93033 0
M  V30 3579 N 342.919 -1.39368 0.735821 0
M  V30 3580 C 344.144 -2.05319 0.293052 0
M  V30 3581 C 344.569 -1.55115 -1.064 0
M  V30 3582 O 343.927 -0.695261 -1.67439 0
M  V30 3583 C 343.975 -3.59305 0.305323 0
M  V30 3584 O 343.079 -4.06299 -0.706761 0
M  V30 3585 H 342.42 -0.650529 0.13307 0
M  V30 3586 H 344.95 -1.78386 1.00197 0
M  V30 3587 H 344.96 -4.07724 0.149997 0
M  V30 3588 H 343.635 -3.95207 1.29553 0
M  V30 3589 H 342.212 -3.69292 -0.517504 0
M  V30 3590 N 344.397 -0.483516 -1.5 0
M  V30 3591 C 345.347 0.32306 -2.257 0
M  V30 3592 C 346.331 0.950755 -1.29805 0
M  V30 3593 O 347.523 0.861247 -1.54634 0
M  V30 3594 C 344.652 1.39724 -3.13579 0
M  V30 3595 C 343.738 0.776663 -4.16928 0
M  V30 3596 N 344.129 -0.1104 -5.0568 0
M  V30 3597 C 342.427 1.03922 -4.33724 0
M  V30 3598 C 343.128 -0.46387 -5.79848 0
M  V30 3599 N 342.104 0.163987 -5.43353 0
M  V30 3600 H 345.906 -0.360086 -2.91686 0
M  V30 3601 H 343.42 -0.298456 -1.59634 0
M  V30 3602 H 345.417 1.98837 -3.66428 0
M  V30 3603 H 344.077 2.08225 -2.49143 0
M  V30 3604 H 345.088 -0.480069 -5.1567 0
M  V30 3605 H 341.765 1.71829 -3.80501 0
M  V30 3606 H 343.155 -1.18854 -6.61304 0
M  V30 3607 N 345.875 1.56104 -0.216619 0
M  V30 3608 C 347.105 2.02269 0.420802 0
M  V30 3609 C 347.513 1.09575 1.5424 0
M  V30 3610 O 346.856 0.0967308 1.83445 0
M  V30 3611 C 346.918 3.44784 1.01806 0
M  V30 3612 C 346.582 4.56988 0.0325154 0
M  V30 3613 C 347.579 5.14225 -0.766055 0
M  V30 3614 C 345.264 5.02228 -0.0848092 0
M  V30 3615 C 347.258 6.15169 -1.6687 0
M  V30 3616 C 344.945 6.03011 -0.990994 0
M  V30 3617 C 345.943 6.59357 -1.78149 0
M  V30 3618 O 345.631 7.58179 -2.67245 0
M  V30 3619 H 345.363 0.667353 0.107776 0
M  V30 3620 H 347.917 2.02747 -0.329034 0
M  V30 3621 H 346.147 3.41359 1.81689 0
M  V30 3622 H 347.836 3.74626 1.56237 0
M  V30 3623 H 348.602 4.80126 -0.685836 0
M  V30 3624 H 344.481 4.58054 0.520349 0
M  V30 3625 H 348.025 6.59076 -2.28615 0
M  V30 3626 H 343.922 6.36532 -1.07225 0
M  V30 3627 H 344.69 7.75682 -2.61265 0
M  V30 3628 N 347.353 -0.0568162 1.57498 0
M  V30 3629 C 348.601 -0.751617 1.87604 0
M  V30 3630 C 348.922 -1.77351 0.81066 0
M  V30 3631 O 348.192 -1.95254 -0.159018 0
M  V30 3632 H 346.772 -0.280583 0.692302 0
M  V30 3633 H 349.434 -0.0293483 1.94878 0
M  V30 3634 H 348.53 -1.25852 2.856 0
M  V30 3635 N 348.832 -1.54138 -0.328536 0
M  V30 3636 C 349.762 -1.86167 -1.40939 0
M  V30 3637 C 350.743 -0.718044 -1.54202 0
M  V30 3638 O 351.928 -0.971328 -1.68163 0
M  V30 3639 C 349.058 -2.08461 -2.77779 0
M  V30 3640 C 348.012 -3.24299 -2.7931 0
M  V30 3641 C 347.338 -3.31955 -4.19178 0
M  V30 3642 C 348.638 -4.62065 -2.43502 0
M  V30 3643 H 350.332 -2.76689 -1.14383 0
M  V30 3644 H 347.878 -1.33132 -0.548806 0
M  V30 3645 H 349.831 -2.29453 -3.53454 0
M  V30 3646 H 348.555 -1.14684 -3.05802 0
M  V30 3647 H 347.214 -3.03187 -2.0609 0
M  V30 3648 H 346.862 -2.35745 -4.44335 0
M  V30 3649 H 346.562 -4.09805 -4.2111 0
M  V30 3650 H 348.086 -3.55175 -4.96672 0
M  V30 3651 H 349.5 -4.8297 -3.08889 0
M  V30 3652 H 347.897 -5.42429 -2.56693 0
M  V30 3653 H 348.967 -4.64652 -1.38659 0
M  V30 3654 N 350.31 0.590341 -1.46126 0
M  V30 3655 C 351.721 1.17243 -1.45296 0
M  V30 3656 C 352.072 1.95281 -0.189723 0
M  V30 3657 O 351.197 2.04502 0.707674 0
M  V30 3658 C 351.792 2.13284 -2.6324 0
M  V30 3659 C 350.351 2.66832 -2.65476 0
M  V30 3660 C 349.498 1.42557 -2.3785 0
M  V30 3661 H 352.449 0.378692 -1.54116 0
M  V30 3662 H 352.47 2.96619 -2.38323 0
M  V30 3663 H 351.982 1.56459 -3.55165 0
M  V30 3664 H 350.083 3.27548 -1.77603 0
M  V30 3665 H 350.196 3.10088 -3.65215 0
M  V30 3666 H 348.56 1.72107 -1.87753 0
M  V30 3667 H 349.343 0.875741 -3.31942 0
M  V30 3668 N 351.788 1.33704 0.83433 0
M  V30 3669 C 352.718 1.26967 1.95963 0
M  V30 3670 C 353.699 0.149337 1.69443 0
M  V30 3671 O 354.884 0.339852 1.91203 0
M  V30 3672 C 352.014 1.01275 3.32206 0
M  V30 3673 C 350.968 2.09652 3.73136 0
M  V30 3674 C 350.294 1.69166 5.07235 0
M  V30 3675 C 351.594 3.51372 3.86439 0
M  V30 3676 H 353.288 2.2112 2.01857 0
M  V30 3677 H 350.834 1.06447 0.969793 0
M  V30 3678 H 352.787 0.952106 4.10503 0
M  V30 3679 H 351.511 0.0356203 3.26581 0
M  V30 3680 H 350.17 2.14766 2.97104 0
M  V30 3681 H 349.818 0.701437 4.98085 0
M  V30 3682 H 349.518 2.41694 5.35591 0
M  V30 3683 H 351.042 1.64576 5.88003 0
M  V30 3684 H 352.456 3.48734 4.55036 0
M  V30 3685 H 350.853 4.22425 4.26236 0
M  V30 3686 H 351.923 3.89546 2.88759 0
M  V30 3687 N 353.266 -1.05314 1.17247 0
M  V30 3688 C 354.512 -1.78557 0.961513 0
M  V30 3689 C 354.845 -1.87419 -0.508697 0
M  V30 3690 O 354.12 -1.37307 -1.37757 0
M  V30 3691 C 354.403 -3.22514 1.60176 0
M  V30 3692 C 354.256 -3.21673 3.14399 0
M  V30 3693 C 355.575 -4.20318 1.30463 0
M  V30 3694 H 352.694 -0.6482 0.350723 0
M  V30 3695 H 355.336 -1.23102 1.44727 0
M  V30 3696 H 353.486 -3.69867 1.18871 0
M  V30 3697 H 355.158 -2.82405 3.64753 0
M  V30 3698 H 353.401 -2.60048 3.47214 0
M  V30 3699 H 354.072 -4.23271 3.54324 0
M  V30 3700 H 356.548 -3.81454 1.66229 0
M  V30 3701 H 355.424 -5.19289 1.77848 0
M  V30 3702 H 355.685 -4.41526 0.22521 0
M  V30 3703 N 354.744 -0.972509 -1.24016 0
M  V30 3704 C 355.969 -0.654417 -1.96805 0
M  V30 3705 C 356.394 0.770398 -1.716 0
M  V30 3706 O 355.752 1.52361 -0.982647 0
M  V30 3707 C 355.8 -0.941031 -3.48105 0
M  V30 3708 O 354.904 -0.0289472 -4.1239 0
M  V30 3709 H 354.245 -0.24692 -0.616382 0
M  V30 3710 H 356.775 -1.30396 -1.57664 0
M  V30 3711 H 356.785 -0.87452 -3.98517 0
M  V30 3712 H 355.46 -1.97939 -3.65777 0
M  V30 3713 H 354.037 -0.149192 -3.72601 0
M  V30 3714 N 356.222 1.38976 -0.743202 0
M  V30 3715 C 357.172 2.27843 -0.084513 0
M  V30 3716 C 358.156 1.44677 0.704094 0
M  V30 3717 O 359.348 1.67511 0.571755 0
M  V30 3718 C 356.477 3.33466 0.815781 0
M  V30 3719 C 355.563 4.24095 0.0208844 0
M  V30 3720 N 355.954 4.95609 -1.0102 0
M  V30 3721 C 354.252 4.45303 0.249293 0
M  V30 3722 C 354.953 5.62287 -1.49024 0
M  V30 3723 N 353.929 5.37571 -0.807377 0
M  V30 3724 H 357.731 2.80593 -0.87436 0
M  V30 3725 H 355.245 1.51755 -0.578283 0
M  V30 3726 H 357.242 3.96008 1.30321 0
M  V30 3727 H 355.902 2.82276 1.6047 0
M  V30 3728 H 356.913 4.98849 -1.39176 0
M  V30 3729 H 353.59 4.0504 1.01237 0
M  V30 3730 H 354.98 6.29519 -2.34853 0
M  V30 3731 N 357.7 0.491464 1.49741 0
M  V30 3732 C 358.948 -0.0563141 2.02022 0
M  V30 3733 C 359.269 -1.38363 1.37407 0
M  V30 3734 O 358.539 -1.88702 0.526166 0
M  V30 3735 H 357.119 -0.0238014 0.746621 0
M  V30 3736 H 359.781 0.646533 1.83864 0
M  V30 3737 H 358.877 -0.192967 3.11503 0
M  V30 3738 N 359.178 -1.55987 0.224894 0
M  V30 3739 C 360.11 -2.17722 -0.716224 0
M  V30 3740 C 361.123 -1.14723 -1.15509 0
M  V30 3741 O 362.312 -1.41688 -1.08567 0
M  V30 3742 C 359.412 -2.74873 -1.98238 0
M  V30 3743 C 358.585 -4.03074 -1.69853 0
M  V30 3744 C 357.644 -4.44757 -2.81208 0
M  V30 3745 O 356.67 -5.11587 -2.49534 0
M  V30 3746 N 357.872 -4.10716 -4.10235 0
M  V30 3747 H 360.637 -2.99109 -0.188123 0
M  V30 3748 H 358.198 -1.6184 0.0440123 0
M  V30 3749 H 360.19 -2.99727 -2.7193 0
M  V30 3750 H 358.76 -1.9777 -2.42086 0
M  V30 3751 H 357.98 -3.86041 -0.797875 0
M  V30 3752 H 359.268 -4.86701 -1.48324 0
M  V30 3753 H 358.666 -3.57019 -4.38809 0
M  V30 3754 H 357.223 -4.40455 -4.80461 0
M  V30 3755 N 360.656 0.0484629 -1.57525 0
M  V30 3756 C 361.566 1.07241 -2.08654 0
M  V30 3757 C 362.582 1.409 -1.02095 0
M  V30 3758 O 363.758 1.50609 -1.33712 0
M  V30 3759 C 360.823 2.36008 -2.5397 0
M  V30 3760 C 359.884 2.09108 -3.7493 0
M  V30 3761 C 359.117 3.31736 -4.18075 0
M  V30 3762 O 359.34 4.41714 -3.60895 0
M  V30 3763 O 358.274 3.18576 -5.10679 0
M  V30 3764 H 362.1 0.667965 -2.96263 0
M  V30 3765 H 359.685 0.26417 -1.47046 0
M  V30 3766 H 361.567 3.11747 -2.83535 0
M  V30 3767 H 360.242 2.75786 -1.69481 0
M  V30 3768 H 359.149 1.31 -3.50414 0
M  V30 3769 H 360.482 1.74198 -4.60343 0
M  V30 3770 N 362.134 1.5431 0.320358 0
M  V30 3771 C 363.55 1.45091 0.664889 0
M  V30 3772 C 363.75 0.626382 1.91517 0
M  V30 3773 O 362.806 0.126443 2.52183 0
M  V30 3774 C 364.119 2.88848 0.83591 0
M  V30 3775 C 365.667 2.9877 0.933046 0
M  V30 3776 C 366.142 4.43683 1.13621 0
M  V30 3777 N 367.633 4.47309 1.20287 0
M  V30 3778 C 368.368 5.56595 1.37801 0
M  V30 3779 N 367.864 6.75844 1.52338 0
M  V30 3780 N 369.657 5.44248 1.40535 0
M  V30 3781 H 361.808 2.06398 -0.501374 0
M  V30 3782 H 364.071 0.933963 -0.162534 0
M  V30 3783 H 363.777 3.51698 -0.0116092 0
M  V30 3784 H 363.651 3.35148 1.73078 0
M  V30 3785 H 366.038 2.36045 1.77107 0
M  V30 3786 H 366.119 2.55796 0.0145782 0
M  V30 3787 H 365.763 5.06995 0.303032 0
M  V30 3788 H 365.693 4.84269 2.0686 0
M  V30 3789 H 368.184 3.61388 1.10485 0
M  V30 3790 H 368.497 7.54892 1.65403 0
M  V30 3791 H 366.842 6.78746 1.4943 0
M  V30 3792 H 370.033 4.50038 1.28777 0
M  V30 3793 H 370.206 6.29473 1.53842 0
M  V30 3794 N 363.613 -0.582584 1.46437 0
M  V30 3795 C 364.543 -1.70187 1.59871 0
M  V30 3796 C 365.524 -1.64066 0.449042 0
M  V30 3797 O 366.709 -1.82081 0.6753 0
M  V30 3798 C 363.839 -3.08827 1.58881 0
M  V30 3799 C 362.793 -3.29779 2.72819 0
M  V30 3800 C 362.119 -4.68947 2.5689 0
M  V30 3801 C 363.419 -3.17601 4.1464 0
M  V30 3802 H 365.113 -1.592 2.53566 0
M  V30 3803 H 362.659 -0.764472 1.22032 0
M  V30 3804 H 364.612 -3.86951 1.66873 0
M  V30 3805 H 363.336 -3.20713 0.617306 0
M  V30 3806 H 361.995 -2.54054 2.64296 0
M  V30 3807 H 361.643 -4.77599 1.57823 0
M  V30 3808 H 361.343 -4.83919 3.33312 0
M  V30 3809 H 362.867 -5.4924 2.66773 0
M  V30 3810 H 364.281 -3.8557 4.24274 0
M  V30 3811 H 362.678 -3.44094 4.9165 0
M  V30 3812 H 363.748 -2.14681 4.34788 0
M  V30 3813 N 365.091 -1.34144 -0.827227 0
M  V30 3814 C 366.507 -1.13732 -1.11969 0
M  V30 3815 C 366.707 0.0640463 -2.01398 0
M  V30 3816 O 365.763 0.740856 -2.41387 0
M  V30 3817 C 367.076 -2.43047 -1.77055 0
M  V30 3818 C 368.624 -2.49063 -1.89569 0
M  V30 3819 C 369.099 -3.78369 -2.58072 0
M  V30 3820 N 370.59 -3.79505 -2.65575 0
M  V30 3821 C 371.325 -4.76274 -3.19297 0
M  V30 3822 N 370.821 -5.83424 -3.73616 0
M  V30 3823 N 372.614 -4.63735 -3.17658 0
M  V30 3824 H 364.765 -2.11126 -0.232296 0
M  V30 3825 H 367.028 -0.933424 -0.165602 0
M  V30 3826 H 366.734 -3.31025 -1.18807 0
M  V30 3827 H 366.608 -2.56066 -2.76966 0
M  V30 3828 H 368.995 -1.61527 -2.46968 0
M  V30 3829 H 369.076 -2.39975 -0.885745 0
M  V30 3830 H 368.72 -4.66293 -2.01329 0
M  V30 3831 H 368.65 -3.84737 -3.59562 0
M  V30 3832 H 371.141 -3.02074 -2.27068 0
M  V30 3833 H 371.454 -6.53282 -4.12846 0
M  V30 3834 H 369.799 -5.87143 -3.71871 0
M  V30 3835 H 372.99 -3.79177 -2.74486 0
M  V30 3836 H 373.163 -5.39318 -3.59221 0
M  V30 3837 N 366.569 1.04691 -1.17803 0
M  V30 3838 C 367.479 2.16057 -0.914151 0
M  V30 3839 C 368.495 1.73589 0.119503 0
M  V30 3840 O 369.671 2.01308 -0.0609468 0
M  V30 3841 C 366.736 3.4394 -0.436603 0
M  V30 3842 C 365.797 4.00825 -1.53746 0
M  V30 3843 C 365.03 5.22604 -1.0826 0
M  V30 3844 O 365.253 5.70367 0.0612244 0
M  V30 3845 O 364.187 5.7186 -1.87775 0
M  V30 3846 H 368.013 2.41169 -1.84584 0
M  V30 3847 H 365.598 1.1453 -0.959334 0
M  V30 3848 H 367.48 4.21024 -0.178057 0
M  V30 3849 H 366.155 3.20316 0.466869 0
M  V30 3850 H 365.062 3.25158 -1.84995 0
M  V30 3851 H 366.395 4.28778 -2.41683 0
M  V30 3852 N 368.047 0.979072 1.23499 0
M  V30 3853 C 369.293 0.648178 1.92163 0
M  V30 3854 C 369.626 -0.816049 1.76222 0
M  V30 3855 O 368.901 -1.58849 1.12237 0
M  V30 3856 C 369.184 1.03773 3.44824 0
M  V30 3857 C 369.037 2.55948 3.69879 0
M  V30 3858 C 370.356 0.580653 4.36253 0
M  V30 3859 H 367.475 0.236952 0.69787 0
M  V30 3860 H 370.117 1.22012 1.45647 0
M  V30 3861 H 368.267 0.551058 3.84572 0
M  V30 3862 H 369.939 3.12179 3.3962 0
M  V30 3863 H 368.182 2.98641 3.14636 0
M  V30 3864 H 368.853 2.78255 4.76737 0
M  V30 3865 H 371.329 0.998465 4.03943 0
M  V30 3866 H 370.205 0.881663 5.41773 0
M  V30 3867 H 370.466 -0.519052 4.39042 0
M  V30 3868 N 369.525 -1.3858 0.750561 0
M  V30 3869 C 370.435 -2.34278 0.122825 0
M  V30 3870 C 371.451 -1.59116 -0.704131 0
M  V30 3871 O 372.627 -1.91326 -0.628987 0
M  V30 3872 C 369.692 -3.38221 -0.762086 0
M  V30 3873 C 368.753 -4.29227 0.078896 0
M  V30 3874 C 367.986 -5.28205 -0.763874 0
M  V30 3875 O 368.209 -5.34112 -2.00201 0
M  V30 3876 O 367.143 -6.01618 -0.18428 0
M  V30 3877 H 370.969 -2.89649 0.913088 0
M  V30 3878 H 368.554 -1.40374 0.511417 0
M  V30 3879 H 370.436 -4.01872 -1.26793 0
M  V30 3880 H 369.111 -2.85211 -1.5309 0
M  V30 3881 H 368.018 -3.68747 0.630621 0
M  V30 3882 H 369.351 -4.85484 0.810289 0
M  V30 3883 N 371.003 -0.499398 -1.49478 0
M  V30 3884 C 371.933 0.269244 -2.31943 0
M  V30 3885 C 372.914 0.964054 -1.40143 0
M  V30 3886 O 374.099 0.955767 -1.69052 0
M  V30 3887 C 371.229 1.33504 -3.20615 0
M  V30 3888 C 370.183 0.760202 -4.21195 0
M  V30 3889 C 369.509 1.9264 -4.98792 0
M  V30 3890 C 370.809 -0.247661 -5.21712 0
M  V30 3891 H 372.503 -0.419082 -2.96452 0
M  V30 3892 H 370.049 -0.202988 -1.42562 0
M  V30 3893 H 372.002 1.88048 -3.77115 0
M  V30 3894 H 370.726 2.05253 -2.54045 0
M  V30 3895 H 369.385 0.23653 -3.65836 0
M  V30 3896 H 369.033 2.63154 -4.28671 0
M  V30 3897 H 368.733 1.54785 -5.66847 0
M  V30 3898 H 370.257 2.4762 -5.58137 0
M  V30 3899 H 371.671 0.209579 -5.72917 0
M  V30 3900 H 370.068 -0.541962 -5.97648 0
M  V30 3901 H 371.138 -1.16409 -4.7072 0
M  V30 3902 N 372.481 1.55866 -0.233164 0
M  V30 3903 C 373.711 2.02704 0.399325 0
M  V30 3904 C 374.119 1.11204 1.53069 0
M  V30 3905 O 373.462 0.116182 1.83332 0
M  V30 3906 C 373.524 3.45844 0.981429 0
M  V30 3907 C 373.188 4.56997 -0.0159561 0
M  V30 3908 C 374.185 5.13384 -0.820552 0
M  V30 3909 C 371.87 5.0211 -0.138072 0
M  V30 3910 C 373.864 6.13365 -1.73386 0
M  V30 3911 C 371.551 6.01926 -1.0549 0
M  V30 3912 C 372.549 6.57431 -1.85132 0
M  V30 3913 O 372.237 7.55302 -2.75272 0
M  V30 3914 H 371.969 0.668459 0.100692 0
M  V30 3915 H 374.523 2.02387 -0.35052 0
M  V30 3916 H 372.753 3.43267 1.78058 0
M  V30 3917 H 374.442 3.76262 1.52255 0
M  V30 3918 H 375.208 4.79372 -0.736721 0
M  V30 3919 H 371.087 4.5858 0.471737 0
M  V30 3920 H 374.631 6.56614 -2.35592 0
M  V30 3921 H 370.528 6.35359 -1.1397 0
M  V30 3922 H 371.296 7.72867 -2.69477 0
M  V30 3923 N 373.959 -0.0401083 1.57549 0
M  V30 3924 C 375.37 -0.588097 1.77196 0
M  V30 3925 C 375.721 -1.76209 0.862832 0
M  V30 3926 O 374.846 -2.16331 0.0548389 0
M  V30 3927 C 375.441 -1.07363 3.21339 0
M  V30 3928 C 374 -1.56723 3.42221 0
M  V30 3929 C 373.147 -0.50041 2.72747 0
M  V30 3930 H 376.098 0.186119 1.57605 0
M  V30 3931 H 376.119 -1.94143 3.27244 0
M  V30 3932 H 375.631 -0.218975 3.87482 0
M  V30 3933 H 373.732 -2.4441 2.81237 0
M  V30 3934 H 373.845 -1.62234 4.50796 0
M  V30 3935 H 372.209 -0.952894 2.36203 0
M  V30 3936 H 372.992 0.344599 3.41566 0
M  V30 3937 N 375.437 -1.54477 -0.31217 0
M  V30 3938 C 376.684 -1.73227 -1.04875 0
M  V30 3939 C 377.012 -0.512042 -1.87639 0
M  V30 3940 O 376.267 0.506131 -1.89042 0
M  V30 3941 C 376.566 -2.967 -1.99258 0
M  V30 3942 C 376.232 -4.30974 -1.32559 0
M  V30 3943 C 374.894 -4.67477 -1.141 0
M  V30 3944 C 377.246 -5.14258 -0.847835 0
M  V30 3945 C 374.574 -5.84852 -0.465326 0
M  V30 3946 C 376.926 -6.32327 -0.185931 0
M  V30 3947 C 375.59 -6.67499 0.0107077 0
M  V30 3948 H 374.86 -0.633881 -0.383765 0
M  V30 3949 H 377.507 -1.88727 -0.324731 0
M  V30 3950 H 375.812 -2.75935 -2.7815 0
M  V30 3951 H 377.509 -3.08401 -2.563 0
M  V30 3952 H 374.099 -4.02262 -1.4793 0
M  V30 3953 H 378.283 -4.86565 -0.978192 0
M  V30 3954 H 373.539 -6.10654 -0.301883 0
M  V30 3955 H 377.713 -6.96135 0.192211 0
M  V30 3956 H 375.34 -7.58306 0.536287 0
M  V30 3957 N 376.915 0.57481 -1.46744 0
M  V30 3958 C 377.847 1.69804 -1.53946 0
M  V30 3959 C 378.86 1.57098 -0.427106 0
M  V30 3960 O 380.049 1.64378 -0.695863 0
M  V30 3961 C 377.149 3.08125 -1.4111 0
M  V30 3962 C 376.322 3.46757 -2.66605 0
M  V30 3963 C 375.381 4.6417 -2.47855 0
M  V30 3964 O 374.407 4.69634 -3.21609 0
M  V30 3965 N 375.609 5.59553 -1.54534 0
M  V30 3966 H 378.374 1.64077 -2.50796 0
M  V30 3967 H 375.935 0.761 -1.429 0
M  V30 3968 H 377.927 3.84478 -1.26328 0
M  V30 3969 H 376.497 3.08175 -0.524109 0
M  V30 3970 H 375.717 2.6003 -2.96274 0
M  V30 3971 H 377.005 3.69337 -3.49954 0
M  V30 3972 H 376.403 5.57881 -0.937304 0
M  V30 3973 H 374.96 6.35304 -1.45711 0
M  V30 3974 N 378.394 1.34581 0.820102 0
M  V30 3975 C 379.341 1.2639 1.93117 0
M  V30 3976 C 380.311 0.138554 1.65521 0
M  V30 3977 O 381.496 0.320004 1.88097 0
M  V30 3978 C 378.636 1.02812 3.29429 0
M  V30 3979 C 377.749 2.24146 3.693 0
M  V30 3980 C 376.884 1.93829 4.94574 0
M  V30 3981 C 375.923 3.1129 5.27034 0
M  V30 3982 N 375.06 2.80838 6.43486 0
M  V30 3983 H 379.9 2.21408 1.99455 0
M  V30 3984 H 377.437 1.10077 0.975784 0
M  V30 3985 H 379.395 0.871788 4.0799 0
M  V30 3986 H 378.025 0.114612 3.22596 0
M  V30 3987 H 377.077 2.50691 2.86109 0
M  V30 3988 H 378.389 3.11899 3.89257 0
M  V30 3989 H 377.543 1.74948 5.80929 0
M  V30 3990 H 376.282 1.03341 4.76626 0
M  V30 3991 H 375.287 3.30764 4.39175 0
M  V30 3992 H 376.512 4.02561 5.4692 0
M  V30 3993 H 374.458 1.92929 6.26988 0
M  V30 3994 H 374.375 3.62123 6.63629 0
M  V30 3995 H 375.643 2.65467 7.32903 0
M  V30 3996 N 379.872 -1.04064 1.18357 0
M  V30 3997 C 380.835 -2.10243 0.912707 0
M  V30 3998 C 381.835 -1.60477 -0.101928 0
M  V30 3999 O 383.025 -1.73703 0.131517 0
M  V30 4000 C 380.157 -3.38893 0.369387 0
M  V30 4001 H 381.35 -2.35706 1.85426 0
M  V30 4002 H 378.903 -1.20489 0.995594 0
M  V30 4003 H 379.638 -3.19094 -0.578776 0
M  V30 4004 H 379.423 -3.76331 1.1008 0
M  V30 4005 H 380.913 -4.17128 0.198575 0
M  V30 4006 N 381.35 -0.985608 -1.22978 0
M  V30 4007 C 382.599 -0.652881 -1.90841 0
M  V30 4008 C 382.912 0.817842 -1.77681 0
M  V30 4009 O 384.118 1.26185 -2.40395 0
M  V30 4010 C 382.574 -1.11717 -3.42122 0
M  V30 4011 C 382.182 -2.6126 -3.63933 0
M  V30 4012 C 383.926 -0.85843 -4.1573 0
M  V30 4013 C 381.833 -3.0133 -5.08876 0
M  V30 4014 H 380.763 -0.240491 -0.714619 0
M  V30 4015 H 383.414 -1.1942 -1.39324 0
M  V30 4016 H 381.796 -0.504027 -3.92779 0
M  V30 4017 H 382.97 -3.27858 -3.23799 0
M  V30 4018 H 381.285 -2.84937 -3.03644 0
M  V30 4019 H 383.882 -1.13359 -5.22546 0
M  V30 4020 H 384.225 0.205461 -4.15793 0
M  V30 4021 H 384.758 -1.43341 -3.71077 0
M  V30 4022 H 381.497 -4.06864 -5.13947 0
M  V30 4023 H 381.017 -2.3943 -5.49939 0
M  V30 4024 H 382.696 -2.92224 -5.77247 0
M  V30 4025 N 382.828 1.3818 -0.7579 0
M  V30 4026 C 384.105 1.94106 -0.241306 0
M  V30 4027 C 384.485 1.69282 1.26122 0
M  V30 4028 O 383.833 1.03378 2.03777 0
M  V30 4029 C 384.043 3.43809 -0.59967 0
M  V30 4030 C 385.391 4.20868 -0.561717 0
M  V30 4031 O 386.415 3.5211 -0.538222 0
M  V30 4032 O 385.274 5.43451 -0.576478 0
M  V30 4033 H 382.368 0.825376 -0.0518042 0
M  V30 4034 H 384.914 1.47548 -0.838315 0
M  V30 4035 H 383.686 3.55403 -1.6372 0
M  V30 4036 H 383.309 3.97592 0.0251197 0
M  V30 4037 N 384.306 0.507319 1.49211 0
M  V30 4038 C 385.269 -0.256763 2.27757 0
M  V30 4039 C 386.269 -0.888287 1.34038 0
M  V30 4040 O 387.459 -0.751841 1.5714 0
M  V30 4041 C 384.591 -1.36905 3.12202 0
M  V30 4042 H 385.784 0.432557 2.96764 0
M  V30 4043 H 383.337 0.262488 1.5408 0
M  V30 4044 H 384.072 -2.09233 2.47775 0
M  V30 4045 H 383.857 -0.921599 3.81115 0
M  V30 4046 H 385.347 -1.9071 3.7151 0
M  V30 4047 N 385.784 -1.5574 0.241426 0
M  V30 4048 C 387.032 -1.98417 -0.384075 0
M  V30 4049 C 387.353 -1.13078 -1.58866 0
M  V30 4050 O 386.623 -0.212312 -1.94746 0
M  V30 4051 H 385.203 -0.732813 -0.144894 0
M  V30 4052 H 387.865 -1.9193 0.338943 0
M  V30 4053 H 386.961 -3.04219 -0.696939 0
M  V30 4054 N 387.262 0.0317525 -1.57568 0
M  V30 4055 C 388.225 1.01783 -2.0536 0
M  V30 4056 C 389.225 1.29203 -0.957253 0
M  V30 4057 O 390.415 1.24251 -1.22095 0
M  V30 4058 C 387.547 2.35137 -2.46827 0
M  V30 4059 H 388.74 0.605062 -2.93733 0
M  V30 4060 H 386.293 0.278514 -1.53799 0
M  V30 4061 H 387.028 2.81168 -1.61602 0
M  V30 4062 H 386.813 2.16566 -3.26866 0
M  V30 4063 H 388.303 3.05938 -2.84239 0
M  V30 4064 N 388.74 1.54641 0.303973 0
M  V30 4065 C 390.017 1.64455 1.05896 0
M  V30 4066 C 390.397 0.490923 2.05312 0
M  V30 4067 O 389.745 -0.512685 2.22674 0
M  V30 4068 C 389.955 3.02331 1.74347 0
M  V30 4069 C 391.303 3.59045 2.26653 0
M  V30 4070 O 392.327 3.04764 1.84384 0
M  V30 4071 O 391.186 4.54081 3.04093 0
M  V30 4072 H 388.28 0.666729 0.489287 0
M  V30 4073 H 390.826 1.66986 0.302298 0
M  V30 4074 H 389.598 3.77734 1.02142 0
M  V30 4075 H 389.221 3.03565 2.56777 0
M  V30 4076 N 390.218 -0.567019 1.47046 0
M  V30 4077 C 391.151 -1.69016 1.53326 0
M  V30 4078 C 392.129 -1.57949 0.386126 0
M  V30 4079 O 393.313 -1.78945 0.592529 0
M  V30 4080 C 390.44 -3.07191 1.42658 0
M  V30 4081 C 389.486 -3.36733 2.6175 0
M  V30 4082 S 390.319 -3.27069 4.24012 0
M  V30 4083 C 391.475 -4.67755 4.1588 0
M  V30 4084 H 391.708 -1.63434 2.48348 0
M  V30 4085 H 389.241 -0.747048 1.35124 0
M  V30 4086 H 391.199 -3.86897 1.37191 0
M  V30 4087 H 389.86 -3.10249 0.490369 0
M  V30 4088 H 389.053 -4.37441 2.50323 0
M  V30 4089 H 388.655 -2.64627 2.64289 0
M  V30 4090 H 390.947 -5.58491 3.83529 0
M  V30 4091 H 391.89 -4.84239 5.16641 0
M  V30 4092 H 392.298 -4.45341 3.46889 0
M  V30 4093 N 391.696 -1.35014 -0.812953 0
M  V30 4094 C 392.942 -1.2812 -1.57204 0
M  V30 4095 C 393.275 0.145869 -1.93651 0
M  V30 4096 O 392.55 1.0937 -1.60836 0
M  V30 4097 C 392.833 -2.18162 -2.86492 0
M  V30 4098 C 392.686 -3.69454 -2.56561 0
M  V30 4099 C 394.005 -2.07439 -3.88145 0
M  V30 4100 H 391.124 -0.466746 -0.570366 0
M  V30 4101 H 393.766 -1.65357 -0.935783 0
M  V30 4102 H 391.916 -1.86535 -3.40789 0
M  V30 4103 H 393.588 -4.11493 -2.08497 0
M  V30 4104 H 391.831 -3.9005 -1.89851 0
M  V30 4105 H 392.502 -4.27835 -3.48799 0
M  V30 4106 H 394.978 -2.35228 -3.4323 0
M  V30 4107 H 393.854 -2.7265 -4.76396 0
M  V30 4108 H 394.115 -1.05439 -4.29343 0
M  V30 4109 N 393.175 1.03435 -1.18907 0
M  V30 4110 C 394.108 2.11162 -0.86521 0
M  V30 4111 C 395.086 1.6165 0.175473 0
M  V30 4112 O 396.27 1.88425 0.0530129 0
M  V30 4113 C 393.397 3.37423 -0.293868 0
M  V30 4114 C 392.443 4.05795 -1.31274 0
M  V30 4115 S 393.276 4.52027 -2.8711 0
M  V30 4116 C 394.432 5.81513 -2.31504 0
M  V30 4117 H 394.665 2.38308 -1.77754 0
M  V30 4118 H 392.198 1.16295 -1.01562 0
M  V30 4119 H 394.156 4.1049 0.0292572 0
M  V30 4120 H 392.817 3.0838 0.596682 0
M  V30 4121 H 392.01 4.96574 -0.86198 0
M  V30 4122 H 391.612 3.38874 -1.58242 0
M  V30 4123 H 393.904 6.55784 -1.70157 0
M  V30 4124 H 394.847 6.3136 -3.20608 0
M  V30 4125 H 395.255 5.36921 -1.74286 0
M  V30 4126 N 394.653 0.992116 1.22453 0
M  V30 4127 C 395.881 0.685944 1.95198 0
M  V30 4128 C 396.296 -0.749233 1.73297 0
M  V30 4129 O 395.653 -1.50549 1.03156 0
M  V30 4130 C 395.704 0.981395 3.47924 0
M  V30 4131 O 395.425 2.36018 3.6909 0
M  V30 4132 C 396.926 0.692815 4.37853 0
M  V30 4133 H 394.146 0.253821 0.621141 0
M  V30 4134 H 396.69 1.32668 1.55626 0
M  V30 4135 H 394.845 0.386481 3.85467 0
M  V30 4136 H 395.259 2.45884 4.63294 0
M  V30 4137 H 396.733 0.949818 5.43767 0
M  V30 4138 H 397.21 -0.373181 4.37612 0
M  V30 4139 H 397.816 1.26874 4.05935 0
M  V30 4140 N 396.131 -1.37776 0.765217 0
M  V30 4141 C 397.094 -2.28686 0.153416 0
M  V30 4142 C 398.094 -1.47727 -0.635081 0
M  V30 4143 O 399.284 -1.68027 -0.459632 0
M  V30 4144 C 396.416 -3.31608 -0.790495 0
M  V30 4145 H 397.609 -2.84297 0.954723 0
M  V30 4146 H 395.162 -1.46932 0.53299 0
M  V30 4147 H 395.897 -2.81109 -1.61705 0
M  V30 4148 H 395.682 -3.9144 -0.227348 0
M  V30 4149 H 397.172 -3.99559 -1.21419 0
M  V30 4150 N 397.609 -0.515225 -1.4894 0
M  V30 4151 C 398.559 0.275113 -2.26334 0
M  V30 4152 C 399.543 0.923007 -1.31793 0
M  V30 4153 O 400.735 0.828254 -1.56426 0
M  V30 4154 C 397.864 1.33041 -3.16473 0
M  V30 4155 C 396.95 0.688051 -4.18481 0
M  V30 4156 N 397.341 -0.217638 -5.05332 0
M  V30 4157 C 395.639 0.94699 -4.3583 0
M  V30 4158 C 396.34 -0.58676 -5.78733 0
M  V30 4159 N 395.316 0.0486966 -5.43578 0
M  V30 4160 H 399.118 -0.421876 -2.90856 0
M  V30 4161 H 396.632 -0.332249 -1.58965 0
M  V30 4162 H 398.629 1.9102 -3.70563 0
M  V30 4163 H 397.289 2.02894 -2.53504 0
M  V30 4164 H 398.3 -0.589343 -5.14536 0
M  V30 4165 H 394.977 1.63719 -3.8406 0
M  V30 4166 H 396.367 -1.32855 -6.58634 0
M  V30 4167 N 399.087 1.5561 -0.249682 0
M  V30 4168 C 400.333 1.99306 0.374841 0
M  V30 4169 C 400.666 1.13767 1.57387 0
M  V30 4170 O 399.941 0.201711 1.93451 0
M  V30 4171 C 400.224 3.51507 0.781986 0
M  V30 4172 C 400.077 4.4781 -0.422629 0
M  V30 4173 C 401.396 4.08884 1.62793 0
M  V30 4174 H 398.515 0.724572 0.134773 0
M  V30 4175 H 401.157 1.86719 -0.351549 0
M  V30 4176 H 399.307 3.62363 1.4009 0
M  V30 4177 H 400.979 4.48931 -1.06108 0
M  V30 4178 H 399.222 4.20518 -1.06524 0
M  V30 4179 H 399.893 5.51919 -0.0943766 0
M  V30 4180 H 402.369 4.01147 1.10547 0
M  V30 4181 H 401.245 5.1564 1.88166 0
M  V30 4182 H 401.506 3.57515 2.60068 0
M  V30 4183 N 400.565 -0.0233959 1.57583 0
M  V30 4184 C 401.497 -1.04994 2.03737 0
M  V30 4185 C 402.51 -1.32125 0.951152 0
M  V30 4186 O 403.699 -1.29512 1.22837 0
M  V30 4187 C 400.799 -2.39026 2.40249 0
M  V30 4188 C 399.972 -2.31171 3.7132 0
M  V30 4189 C 399.031 -3.47698 3.94959 0
M  V30 4190 O 398.057 -3.26937 4.65941 0
M  V30 4191 N 399.259 -4.6976 3.41037 0
M  V30 4192 H 402.024 -0.656507 2.92421 0
M  V30 4193 H 399.585 -0.211235 1.60516 0
M  V30 4194 H 401.577 -3.15712 2.53196 0
M  V30 4195 H 400.147 -2.70194 1.57207 0
M  V30 4196 H 399.367 -1.39547 3.68674 0
M  V30 4197 H 400.655 -2.23071 4.57293 0
M  V30 4198 H 400.053 -4.89528 2.83512 0
M  V30 4199 H 398.61 -5.43791 3.59353 0
M  V30 4200 N 402.043 -1.548 -0.295768 0
M  V30 4201 C 403.29 -1.74329 -1.03032 0
M  V30 4202 C 403.618 -0.531915 -1.87085 0
M  V30 4203 O 402.873 0.486052 -1.89568 0
M  V30 4204 C 403.172 -2.98797 -1.961 0
M  V30 4205 C 402.838 -4.32356 -1.2798 0
M  V30 4206 C 401.5 -4.68661 -1.09135 0
M  V30 4207 C 403.852 -5.15128 -0.793243 0
M  V30 4208 C 401.18 -5.85312 -0.403269 0
M  V30 4209 C 403.532 -6.32488 -0.118854 0
M  V30 4210 C 402.196 -6.6745 0.0815043 0
M  V30 4211 H 401.466 -0.637916 -0.37702 0
M  V30 4212 H 404.113 -1.8906 -0.304696 0
M  V30 4213 H 402.418 -2.78869 -2.75207 0
M  V30 4214 H 404.115 -3.11102 -2.53015 0
M  V30 4215 H 400.705 -4.03808 -1.43655 0
M  V30 4216 H 404.889 -4.87575 -0.92653 0
M  V30 4217 H 400.145 -6.1094 -0.237098 0
M  V30 4218 H 404.319 -6.95892 0.266035 0
M  V30 4219 H 401.946 -7.57695 0.616685 0
M  V30 4220 N 403.521 0.559213 -1.47345 0
M  V30 4221 C 404.932 1.14134 -1.47751 0
M  V30 4222 C 405.283 1.94834 -0.231103 0
M  V30 4223 O 404.408 2.05957 0.664137 0
M  V30 4224 C 405.003 2.07653 -2.67705 0
M  V30 4225 C 403.562 2.61141 -2.71076 0
M  V30 4226 C 402.709 1.3748 -2.40821 0
M  V30 4227 H 405.66 0.345917 -1.54884 0
M  V30 4228 H 405.681 2.91497 -2.44561 0
M  V30 4229 H 405.193 1.4889 -3.58404 0
M  V30 4230 H 403.294 3.23707 -1.84511 0
M  V30 4231 H 403.407 3.02272 -3.7171 0
M  V30 4232 H 401.771 1.68086 -1.91362 0
M  V30 4233 H 402.554 0.805135 -3.33725 0
M  V30 4234 N 404.999 1.35443 0.805782 0
M  V30 4235 C 405.962 1.28301 1.89925 0
M  V30 4236 C 406.962 0.194285 1.59622 0
M  V30 4237 O 408.152 0.448036 1.6834 0
M  V30 4238 C 405.284 0.984997 3.2636 0
M  V30 4239 H 406.477 2.2553 1.97677 0
M  V30 4240 H 404.03 1.19979 1.00173 0
M  V30 4241 H 404.765 0.016603 3.24296 0
M  V30 4242 H 404.55 1.77269 3.4974 0
M  V30 4243 H 406.04 0.960651 4.064 0
M  V30 4244 N 406.477 -1.02803 1.19454 0
M  V30 4245 C 407.724 -1.76217 0.997693 0
M  V30 4246 C 408.052 -1.887 -0.47144 0
M  V30 4247 O 407.307 -1.4011 -1.3663 0
M  V30 4248 C 407.606 -3.18941 1.6128 0
M  V30 4249 C 407.272 -3.26463 3.11019 0
M  V30 4250 C 405.934 -3.28223 3.51885 0
M  V30 4251 C 408.286 -3.25542 4.07028 0
M  V30 4252 C 405.614 -3.26719 4.8731 0
M  V30 4253 C 407.966 -3.25579 5.42385 0
M  V30 4254 C 406.63 -3.25637 5.82681 0
M  V30 4255 H 405.9 -0.644823 0.365082 0
M  V30 4256 H 408.547 -1.20655 1.4871 0
M  V30 4257 H 406.852 -3.77587 1.04572 0
M  V30 4258 H 408.549 -3.74415 1.43577 0
M  V30 4259 H 405.139 -3.25822 2.78457 0
M  V30 4260 H 409.323 -3.23362 3.76498 0
M  V30 4261 H 404.579 -3.25089 5.1781 0
M  V30 4262 H 408.753 -3.23817 6.16535 0
M  V30 4263 H 406.38 -3.24226 6.87591 0
M  V30 4264 N 407.956 -0.998596 -1.21925 0
M  V30 4265 C 409.233 -0.593401 -1.86382 0
M  V30 4266 C 409.613 0.92916 -1.89552 0
M  V30 4267 O 408.961 1.81347 -1.39017 0
M  V30 4268 C 409.171 -1.22039 -3.26967 0
M  V30 4269 C 410.519 -1.32449 -4.03413 0
M  V30 4270 O 411.543 -1.17522 -3.36254 0
M  V30 4271 O 410.402 -1.56395 -5.23644 0
M  V30 4272 H 407.496 -0.202385 -0.801854 0
M  V30 4273 H 410.042 -1.09484 -1.29659 0
M  V30 4274 H 408.814 -2.26158 -3.19325 0
M  V30 4275 H 408.437 -0.704906 -3.91301 0
M  V30 4276 N 409.434 1.37368 -0.772513 0
M  V30 4277 C 410.711 1.93839 -0.26188 0
M  V30 4278 C 411.091 1.7061 1.24319 0
M  V30 4279 O 410.439 1.05534 2.02669 0
M  V30 4280 C 410.649 3.43154 -0.636102 0
M  V30 4281 C 411.997 4.20249 -0.606324 0
M  V30 4282 O 413.021 3.5152 -0.575538 0
M  V30 4283 O 411.88 5.42809 -0.634086 0
M  V30 4284 H 408.974 0.82478 -0.0605555 0
M  V30 4285 H 411.52 1.4665 -0.853917 0
M  V30 4286 H 410.292 3.53647 -1.6748 0
M  V30 4287 H 409.915 3.97596 -0.0170516 0
M  V30 4288 N 410.912 0.523116 1.48665 0
M  V30 4289 C 412.14 -0.0096312 2.06898 0
M  V30 4290 C 412.555 -1.28784 1.38059 0
M  V30 4291 O 411.912 -1.76453 0.465893 0
M  V30 4292 C 411.963 -0.244386 3.60673 0
M  V30 4293 O 411.684 0.983172 4.26925 0
M  V30 4294 C 413.185 -0.818289 4.35682 0
M  V30 4295 H 410.405 0.0304161 0.67031 0
M  V30 4296 H 412.949 0.726799 1.91149 0
M  V30 4297 H 411.104 -0.930847 3.76051 0
M  V30 4298 H 411.518 0.759653 5.1897 0
M  V30 4299 H 412.992 -0.93201 5.44075 0
M  V30 4300 H 413.469 -1.82153 3.99646 0
M  V30 4301 H 414.075 -0.168609 4.24966 0
M  V30 4302 N 412.39 -1.55475 0.257931 0
M  V30 4303 C 413.618 -2.03609 -0.367559 0
M  V30 4304 C 414.033 -1.13687 -1.50734 0
M  V30 4305 O 413.39 -0.153479 -1.81853 0
M  V30 4306 C 413.441 -3.51001 -0.864908 0
M  V30 4307 O 413.162 -4.37499 0.229465 0
M  V30 4308 C 414.663 -4.14946 -1.55997 0
M  V30 4309 H 411.883 -0.665459 -0.0860521 0
M  V30 4310 H 414.427 -2.00843 0.385014 0
M  V30 4311 H 412.582 -3.54266 -1.56762 0
M  V30 4312 H 412.996 -5.24286 -0.14998 0
M  V30 4313 H 414.47 -5.19735 -1.85956 0
M  V30 4314 H 414.947 -3.6209 -2.4857 0
M  V30 4315 H 415.553 -4.15635 -0.901543 0
M  V30 4316 N 413.868 0.0150385 -1.57593 0
M  V30 4317 C 415.098 0.713359 -1.93894 0
M  V30 4318 C 415.506 1.68663 -0.857289 0
M  V30 4319 O 414.849 1.82876 0.173788 0
M  V30 4320 C 414.911 1.51348 -3.26089 0
M  V30 4321 C 414.575 0.703451 -4.51554 0
M  V30 4322 C 415.572 -0.00237924 -5.199 0
M  V30 4323 C 413.257 0.653854 -4.98026 0
M  V30 4324 C 415.251 -0.746955 -6.33008 0
M  V30 4325 C 412.938 -0.0944578 -6.11027 0
M  V30 4326 C 413.936 -0.793609 -6.78374 0
M  V30 4327 O 413.624 -1.52974 -7.89211 0
M  V30 4328 H 413.356 0.204637 -0.644282 0
M  V30 4329 H 415.91 -0.0276411 -2.05381 0
M  V30 4330 H 414.14 2.29862 -3.10967 0
M  V30 4331 H 415.829 2.09572 -3.47612 0
M  V30 4332 H 416.595 0.0268803 -4.84993 0
M  V30 4333 H 412.474 1.18756 -4.45441 0
M  V30 4334 H 416.018 -1.2932 -6.85509 0
M  V30 4335 H 411.915 -0.125591 -6.45378 0
M  V30 4336 H 412.683 -1.44488 -8.05646 0
M  V30 4337 N 415.346 1.54954 0.287554 0
M  V30 4338 C 416.293 1.86834 1.35505 0
M  V30 4339 C 417.263 0.718452 1.49758 0
M  V30 4340 O 418.448 0.968358 1.644 0
M  V30 4341 C 415.588 2.13303 2.71286 0
M  V30 4342 C 414.701 3.40883 2.65373 0
M  V30 4343 C 413.836 3.57125 3.93236 0
M  V30 4344 C 412.875 4.78449 3.81776 0
M  V30 4345 N 412.012 4.91426 5.01443 0
M  V30 4346 H 416.852 2.77889 1.07619 0
M  V30 4347 H 414.389 1.37593 0.520241 0
M  V30 4348 H 416.347 2.26646 3.50267 0
M  V30 4349 H 414.977 1.25499 2.97405 0
M  V30 4350 H 414.029 3.36088 1.78182 0
M  V30 4351 H 415.341 4.29993 2.52799 0
M  V30 4352 H 414.495 3.70207 4.80658 0
M  V30 4353 H 413.234 2.66173 4.0866 0
M  V30 4354 H 412.239 4.65386 2.92738 0
M  V30 4355 H 413.464 5.70822 3.67884 0
M  V30 4356 H 411.41 4.03401 5.17304 0
M  V30 4357 H 411.327 5.74559 4.91343 0
M  V30 4358 H 412.595 5.08879 5.90477 0
M  V30 4359 N 416.824 -0.551391 1.4764 0
M  V30 4360 C 418.049 -1.33837 1.58437 0
M  V30 4361 C 418.474 -1.866 0.237063 0
M  V30 4362 O 417.832 -1.6328 -0.787994 0
M  V30 4363 C 417.88 -2.48014 2.61766 0
M  V30 4364 O 416.984 -3.50419 2.1744 0
M  V30 4365 H 416.325 -0.397299 0.532024 0
M  V30 4366 H 418.855 -0.665759 1.93465 0
M  V30 4367 H 418.865 -2.94503 2.82369 0
M  V30 4368 H 417.54 -2.08969 3.5959 0
M  V30 4369 H 416.117 -3.10196 2.06961 0
M  V30 4370 N 418.302 -1.35869 -0.798587 0
M  V30 4371 C 419.249 -1.29446 -1.91082 0
M  V30 4372 C 420.219 -0.16487 -1.6528 0
M  V30 4373 O 421.404 -0.349888 -1.87564 0
M  V30 4374 C 418.544 -1.0804 -3.27752 0
M  V30 4375 C 417.657 -2.29993 -3.65687 0
M  V30 4376 C 416.792 -2.01673 -4.91428 0
M  V30 4377 C 415.831 -3.19636 -5.22015 0
M  V30 4378 N 414.968 -2.91039 -6.38937 0
M  V30 4379 H 419.808 -2.24553 -1.95907 0
M  V30 4380 H 417.345 -1.11615 -0.958148 0
M  V30 4381 H 419.303 -0.936586 -4.06551 0
M  V30 4382 H 417.933 -0.16592 -3.22373 0
M  V30 4383 H 416.985 -2.55211 -2.82085 0
M  V30 4384 H 418.297 -3.18052 -3.84245 0
M  V30 4385 H 417.451 -1.84168 -5.78072 0
M  V30 4386 H 416.19 -1.10911 -4.74921 0
M  V30 4387 H 415.195 -3.37709 -4.33858 0
M  V30 4388 H 416.42 -4.11211 -5.40447 0
M  V30 4389 H 414.366 -2.0288 -6.2384 0
M  V30 4390 H 414.283 -3.72635 -6.57784 0
M  V30 4391 H 415.551 -2.77093 -7.28587 0
M  V30 4392 N 419.78 1.02168 -1.19998 0
M  V30 4393 C 420.71 2.12488 -0.96804 0
M  V30 4394 C 421.691 1.69799 0.101185 0
M  V30 4395 O 422.876 1.94121 -0.0552993 0
M  V30 4396 C 420.006 3.43479 -0.513776 0
M  V30 4397 C 418.96 3.99884 -1.52566 0
M  V30 4398 C 418.286 5.26582 -0.928214 0
M  V30 4399 C 419.586 4.33861 -2.90795 0
M  V30 4400 H 421.28 2.32149 -1.89069 0
M  V30 4401 H 418.826 1.11564 -0.910468 0
M  V30 4402 H 420.779 4.20036 -0.338774 0
M  V30 4403 H 419.503 3.23561 0.444493 0
M  V30 4404 H 418.162 3.25429 -1.68794 0
M  V30 4405 H 417.81 5.02986 0.0378289 0
M  V30 4406 H 417.51 5.65284 -1.60397 0
M  V30 4407 H 419.034 6.05799 -0.764167 0
M  V30 4408 H 420.448 5.01327 -2.78109 0
M  V30 4409 H 418.845 4.83664 -3.55231 0
M  V30 4410 H 419.915 3.42848 -3.42904 0
M  V30 4411 N 421.258 1.00505 1.21394 0
M  V30 4412 C 422.535 0.603277 1.86064 0
M  V30 4413 C 422.915 -0.919095 1.90042 0
M  V30 4414 O 422.263 -1.80607 1.39977 0
M  V30 4415 C 422.473 1.23772 3.26315 0
M  V30 4416 C 423.821 1.34586 4.02705 0
M  V30 4417 O 424.845 1.19304 3.35626 0
M  V30 4418 O 423.704 1.59169 5.22807 0
M  V30 4419 H 420.798 0.206634 0.800769 0
M  V30 4420 H 423.344 1.1017 1.29076 0
M  V30 4421 H 422.116 2.27848 3.18121 0
M  V30 4422 H 421.739 0.725648 3.90922 0
M  V30 4423 N 422.737 -1.36956 0.779787 0
M  V30 4424 C 423.985 -1.99097 0.347079 0
M  V30 4425 C 424.306 -1.62206 -1.08232 0
M  V30 4426 O 423.576 -0.891373 -1.74446 0
M  V30 4427 H 422.156 -0.736409 0.125342 0
M  V30 4428 H 424.818 -1.67308 0.999696 0
M  V30 4429 H 423.914 -3.09107 0.431162 0
M  V30 4430 N 424.215 -0.530993 -1.48385 0
M  V30 4431 C 425.44 0.000729535 -2.074 0
M  V30 4432 C 425.865 1.27298 -1.3848 0
M  V30 4433 O 425.223 1.75599 -0.451081 0
M  V30 4434 C 425.271 0.206697 -3.60007 0
M  V30 4435 O 424.375 1.27514 -3.92191 0
M  V30 4436 H 423.716 -0.039583 -0.662819 0
M  V30 4437 H 426.246 -0.739194 -1.9078 0
M  V30 4438 H 426.256 0.42904 -4.05738 0
M  V30 4439 H 424.931 -0.722675 -4.09573 0
M  V30 4440 H 423.508 1.03537 -3.58238 0
M  V30 4441 N 425.693 1.55336 -0.266172 0
M  V30 4442 C 426.97 1.91372 0.404486 0
M  V30 4443 C 427.35 1.18935 1.74407 0
M  V30 4444 O 426.698 0.3132 2.26343 0
M  V30 4445 C 426.908 3.44581 0.553593 0
M  V30 4446 C 428.256 4.16196 0.840618 0
M  V30 4447 O 429.28 3.50426 0.638739 0
M  V30 4448 O 428.139 5.32567 1.22618 0
M  V30 4449 H 425.233 0.797194 0.220025 0
M  V30 4450 H 427.779 1.66813 -0.311664 0
M  V30 4451 H 426.551 3.89357 -0.389498 0
M  V30 4452 H 426.174 3.75065 1.31955 0
M  V30 4453 N 427.171 -0.0066808 1.57599 0
M  V30 4454 C 428.42 -0.692078 1.89455 0
M  V30 4455 C 428.733 -1.75306 0.867586 0
M  V30 4456 O 429.939 -2.49262 1.07614 0
M  V30 4457 C 428.395 -1.2821 3.36289 0
M  V30 4458 C 428.003 -0.256291 4.47266 0
M  V30 4459 C 429.747 -1.94608 3.77264 0
M  V30 4460 C 427.654 -0.855927 5.85173 0
M  V30 4461 H 426.584 -0.262252 0.706923 0
M  V30 4462 H 429.235 0.052769 1.83424 0
M  V30 4463 H 427.617 -2.0774 3.37135 0
M  V30 4464 H 428.791 0.513923 4.57925 0
M  V30 4465 H 427.106 0.306862 4.15268 0
M  V30 4466 H 429.703 -2.40364 4.77629 0
M  V30 4467 H 430.046 -2.77382 3.10427 0
M  V30 4468 H 430.579 -1.21822 3.78688 0
M  V30 4469 H 427.318 -0.0671161 6.55466 0
M  V30 4470 H 426.838 -1.59546 5.78191 0
M  V30 4471 H 428.517 -1.35658 6.32618 0
M  V30 4472 N 428.649 -1.55105 -0.279332 0
M  V30 4473 C 429.579 -1.90557 -1.34945 0
M  V30 4474 C 430.56 -0.766738 -1.51839 0
M  V30 4475 O 431.745 -1.02434 -1.64988 0
M  V30 4476 C 428.875 -2.17193 -2.71006 0
M  V30 4477 C 427.829 -3.33021 -2.68851 0
M  V30 4478 C 427.155 -3.45123 -4.08405 0
M  V30 4479 C 428.455 -4.69578 -2.28678 0
M  V30 4480 H 430.149 -2.80188 -1.05522 0
M  V30 4481 H 427.695 -1.34811 -0.506173 0
M  V30 4482 H 429.648 -2.40581 -3.45975 0
M  V30 4483 H 428.372 -1.24355 -3.01999 0
M  V30 4484 H 427.031 -3.0959 -1.9634 0
M  V30 4485 H 426.679 -2.49762 -4.3661 0
M  V30 4486 H 426.379 -4.22995 -4.07859 0
M  V30 4487 H 427.903 -3.70796 -4.85121 0
M  V30 4488 H 429.317 -4.92553 -2.93368 0
M  V30 4489 H 427.714 -5.5032 -2.39306 0
M  V30 4490 H 428.784 -4.68828 -1.23807 0
M  V30 4491 N 430.127 0.543554 -1.4793 0
M  V30 4492 C 431.373 1.30201 -1.55485 0
M  V30 4493 C 431.706 1.92925 -0.222201 0
M  V30 4494 O 430.981 1.78586 0.77053 0
M  V30 4495 C 431.264 2.40174 -2.68307 0
M  V30 4496 C 431.117 1.8223 -4.11233 0
M  V30 4497 C 432.436 3.42024 -2.76961 0
M  V30 4498 H 429.555 0.472036 -0.565996 0
M  V30 4499 H 432.197 0.606914 -1.80046 0
M  V30 4500 H 430.347 2.99463 -2.47495 0
M  V30 4501 H 432.019 1.27096 -4.43446 0
M  V30 4502 H 430.262 1.12832 -4.18869 0
M  V30 4503 H 430.933 2.61793 -4.85972 0
M  V30 4504 H 433.409 2.92672 -2.95774 0
M  V30 4505 H 432.285 4.16383 -3.57654 0
M  V30 4506 H 432.546 4.0173 -1.84568 0
M  V30 4507 N 431.605 1.3629 0.791371 0
M  V30 4508 C 433.016 1.27225 1.36641 0
M  V30 4509 C 433.367 -0.0887968 1.95999 0
M  V30 4510 O 432.492 -0.990207 1.92416 0
M  V30 4511 C 433.087 2.30375 2.48421 0
M  V30 4512 C 431.646 2.25004 3.01746 0
M  V30 4513 C 430.793 2.15259 1.7481 0
M  V30 4514 H 433.744 1.47198 0.593173 0
M  V30 4515 H 433.765 1.93905 3.27385 0
M  V30 4516 H 433.277 3.29422 2.05189 0
M  V30 4517 H 431.378 1.29417 3.49403 0
M  V30 4518 H 431.491 3.1761 3.58693 0
M  V30 4519 H 429.855 1.61482 1.96966 0
M  V30 4520 H 430.638 3.16191 1.33709 0
M  V30 4521 N 433.083 -1.0153 1.20538 0
M  V30 4522 C 434.046 -2.0826 0.957098 0
M  V30 4523 C 435.046 -1.60657 -0.0678655 0
M  V30 4524 O 436.236 -1.73385 0.168332 0
M  V30 4525 C 433.368 -3.38033 0.441188 0
M  V30 4526 H 434.561 -2.31719 1.90384 0
M  V30 4527 H 432.114 -1.1835 1.02093 0
M  V30 4528 H 432.849 -3.20249 -0.510961 0
M  V30 4529 H 432.634 -3.73911 1.18038 0
M  V30 4530 H 434.124 -4.16613 0.287009 0
M  V30 4531 N 434.561 -1.01147 -1.20859 0
M  V30 4532 C 435.789 -0.716911 -1.94082 0
M  V30 4533 C 436.204 0.721568 -1.74467 0
M  V30 4534 O 435.561 1.48889 -1.05539 0
M  V30 4535 C 435.612 -1.03662 -3.46318 0
M  V30 4536 O 435.333 -2.4186 -3.65288 0
M  V30 4537 C 436.834 -0.762386 -4.36695 0
M  V30 4538 H 434.054 -0.26367 -0.617024 0
M  V30 4539 H 436.598 -1.35127 -1.53496 0
M  V30 4540 H 434.753 -0.447757 -3.84804 0
M  V30 4541 H 435.167 -2.53224 -4.59323 0
M  V30 4542 H 436.641 -1.03621 -5.42187 0
M  V30 4543 H 437.118 0.303514 -4.3815 0
M  V30 4544 H 437.724 -1.33316 -4.03865 0
M  V30 4545 N 436.039 1.36541 -0.78704 0
M  V30 4546 C 436.969 2.32659 -0.197992 0
M  V30 4547 C 437.95 1.56533 0.665697 0
M  V30 4548 O 439.135 1.84698 0.60001 0
M  V30 4549 C 436.265 3.40778 0.669901 0
M  V30 4550 C 435.219 4.27897 -0.0937039 0
M  V30 4551 C 434.545 5.27163 0.894629 0
M  V30 4552 C 435.845 5.06334 -1.28154 0
M  V30 4553 H 437.539 2.82171 -1.00099 0
M  V30 4554 H 435.085 1.35665 -0.482793 0
M  V30 4555 H 437.038 4.07008 1.09191 0
M  V30 4556 H 435.762 2.89827 1.50558 0
M  V30 4557 H 434.421 3.6322 -0.49666 0
M  V30 4558 H 434.069 4.72486 1.72527 0
M  V30 4559 H 433.769 5.86317 0.388149 0
M  V30 4560 H 435.293 5.96266 1.31525 0
M  V30 4561 H 436.707 5.65617 -0.93541 0
M  V30 4562 H 435.104 5.74888 -1.72115 0
M  V30 4563 H 436.174 4.38114 -2.07807 0
M  V30 4564 N 437.518 0.538854 1.48102 0
M  V30 4565 C 438.743 0.0102694 2.07397 0
M  V30 4566 C 439.168 -1.26562 1.39153 0
M  V30 4567 O 438.526 -1.75357 0.460387 0
M  V30 4568 C 438.574 -0.187602 3.60112 0
M  V30 4569 O 437.678 -1.25432 3.92862 0
M  V30 4570 H 437.019 0.0430975 0.6626 0
M  V30 4571 H 439.549 0.749301 1.90385 0
M  V30 4572 H 439.559 -0.407517 4.0596 0
M  V30 4573 H 438.234 0.744386 4.09184 0
M  V30 4574 H 436.811 -1.01636 3.58782 0
M  V30 4575 N 438.996 -1.55193 0.274407 0
M  V30 4576 C 439.943 -2.225 -0.613374 0
M  V30 4577 C 440.913 -1.19823 -1.15029 0
M  V30 4578 O 442.098 -1.48362 -1.19973 0
M  V30 4579 C 439.238 -2.94927 -1.79199 0
M  V30 4580 C 438.351 -4.12322 -1.28899 0
M  V30 4581 C 437.486 -4.72394 -2.42934 0
M  V30 4582 C 436.525 -5.81984 -1.89634 0
M  V30 4583 N 435.662 -6.36123 -2.9714 0
M  V30 4584 H 440.502 -2.97982 -0.032756 0
M  V30 4585 H 438.039 -1.47099 -0.00440146 0
M  V30 4586 H 439.997 -3.35134 -2.48478 0
M  V30 4587 H 438.627 -2.2187 -2.34465 0
M  V30 4588 H 437.679 -3.7724 -0.489327 0
M  V30 4589 H 438.991 -4.91355 -0.858587 0
M  V30 4590 H 438.145 -5.15317 -3.20208 0
M  V30 4591 H 436.884 -3.92636 -2.8929 0
M  V30 4592 H 435.889 -5.38511 -1.1084 0
M  V30 4593 H 437.114 -6.6361 -1.44215 0
M  V30 4594 H 435.06 -5.59259 -3.42878 0
M  V30 4595 H 434.977 -7.10427 -2.58515 0
M  V30 4596 H 436.245 -6.83704 -3.74391 0
M  V30 4597 N 440.474 -0.00167713 -1.576 0
M  V30 4598 C 441.421 0.989195 -2.08527 0
M  V30 4599 C 442.391 1.34031 -0.981065 0
M  V30 4600 O 443.576 1.43839 -1.2536 0
M  V30 4601 C 440.716 2.27537 -2.59463 0
M  V30 4602 C 439.829 1.98314 -3.83791 0
M  V30 4603 C 438.964 3.21025 -4.23222 0
M  V30 4604 C 438.003 2.87495 -5.40382 0
M  V30 4605 N 437.14 4.02749 -5.75098 0
M  V30 4606 H 441.98 0.547973 -2.92919 0
M  V30 4607 H 439.517 0.258917 -1.44803 0
M  V30 4608 H 441.475 3.02729 -2.87073 0
M  V30 4609 H 440.105 2.69325 -1.77943 0
M  V30 4610 H 439.157 1.13482 -3.63078 0
M  V30 4611 H 440.469 1.69601 -4.69081 0
M  V30 4612 H 439.623 4.04561 -4.52123 0
M  V30 4613 H 438.362 3.52877 -3.36644 0
M  V30 4614 H 437.367 2.02367 -5.11202 0
M  V30 4615 H 438.592 2.56889 -6.28637 0
M  V30 4616 H 436.538 4.34494 -4.91478 0
M  V30 4617 H 436.455 3.77566 -6.54966 0
M  V30 4618 H 437.723 4.87068 -6.08592 0
M  V30 4619 N 441.952 1.55251 0.271103 0
M  V30 4620 C 443.198 1.76207 1.00394 0
M  V30 4621 C 443.531 0.562604 1.85872 0
M  V30 4622 O 442.806 -0.439785 1.89463 0
M  V30 4623 C 443.089 3.06828 1.8849 0
M  V30 4624 C 442.942 4.37134 1.05992 0
M  V30 4625 C 444.261 3.33503 2.87165 0
M  V30 4626 H 441.38 0.641086 0.363562 0
M  V30 4627 H 444.022 1.87982 0.276189 0
M  V30 4628 H 442.172 2.96921 2.5054 0
M  V30 4629 H 443.844 4.59001 0.459978 0
M  V30 4630 H 442.087 4.32275 0.363443 0
M  V30 4631 H 442.758 5.2486 1.70955 0
M  V30 4632 H 445.234 3.43215 2.3525 0
M  V30 4633 H 444.11 4.2616 3.45946 0
M  V30 4634 H 444.371 2.53235 3.62387 0
M  V30 4635 N 443.43 -0.535701 1.48216 0
M  V30 4636 C 444.363 -1.65726 1.56876 0
M  V30 4637 C 445.341 -1.57094 0.419542 0
M  V30 4638 O 446.525 -1.77648 0.630352 0
M  V30 4639 C 443.652 -3.04096 1.49142 0
M  V30 4640 C 442.698 -3.31105 2.68834 0
M  V30 4641 S 443.531 -3.18001 4.30854 0
M  V30 4642 C 444.687 -4.58828 4.25709 0
M  V30 4643 H 444.92 -1.58129 2.51759 0
M  V30 4644 H 442.453 -0.718218 1.36678 0
M  V30 4645 H 444.411 -3.839 1.45366 0
M  V30 4646 H 443.072 -3.09139 0.556067 0
M  V30 4647 H 442.265 -4.32033 2.59545 0
M  V30 4648 H 441.867 -2.58961 2.69843 0
M  V30 4649 H 444.159 -5.5023 3.95289 0
M  V30 4650 H 445.102 -4.73172 5.26796 0
M  V30 4651 H 445.51 -4.37883 3.56257 0
M  V30 4652 N 444.908 -1.36708 -0.784132 0
M  V30 4653 C 446.136 -1.34398 -1.57305 0
M  V30 4654 C 446.551 0.0735577 -1.88657 0
M  V30 4655 O 445.908 1.03193 -1.50524 0
M  V30 4656 C 445.959 -2.17053 -2.89085 0
M  V30 4657 O 445.68 -3.53281 -2.59083 0
M  V30 4658 C 447.181 -2.22583 -3.83369 0
M  V30 4659 H 444.401 -0.460819 -0.487736 0
M  V30 4660 H 446.945 -1.79879 -0.972819 0
M  V30 4661 H 445.1 -1.75113 -3.45564 0
M  V30 4662 H 445.514 -3.9647 -3.43383 0
M  V30 4663 H 446.988 -2.84763 -4.72878 0
M  V30 4664 H 447.465 -1.23075 -4.21603 0
M  V30 4665 H 448.071 -2.64781 -3.32823 0
M  V30 4666 N 446.386 1.0089 -1.21074 0
M  V30 4667 C 447.634 1.74262 -1.02358 0
M  V30 4668 C 447.955 1.89869 0.444393 0
M  V30 4669 O 447.225 1.44677 1.32081 0
M  V30 4670 H 445.805 0.645615 -0.375754 0
M  V30 4671 H 448.467 1.21596 -1.52317 0
M  V30 4672 H 447.563 2.74328 -1.4883 0
M  V30 4673 N 447.864 1.01787 1.20321 0
M  V30 4674 C 448.794 0.609625 2.25401 0
M  V30 4675 C 449.775 -0.375951 1.65893 0
M  V30 4676 O 450.96 -0.261101 1.92437 0
M  V30 4677 C 448.09 -0.0515995 3.47262 0
M  V30 4678 C 447.044 0.855095 4.19371 0
M  V30 4679 C 446.37 0.0595757 5.34667 0
M  V30 4680 C 447.67 2.16374 4.75373 0
M  V30 4681 H 449.364 1.48803 2.59804 0
M  V30 4682 H 446.91 0.716934 1.24884 0
M  V30 4683 H 448.863 -0.348764 4.19954 0
M  V30 4684 H 447.587 -0.964726 3.12027 0
M  V30 4685 H 446.246 1.13628 3.48546 0
M  V30 4686 H 445.894 -0.85524 4.95676 0
M  V30 4687 H 445.594 0.663406 5.83843 0
M  V30 4688 H 447.118 -0.231105 6.10162 0
M  V30 4689 H 448.532 1.92885 5.39878 0
M  V30 4690 H 446.929 2.71853 5.34991 0
M  V30 4691 H 447.999 2.82589 3.94045 0
M  V30 4692 N 449.342 -1.36122 0.79427 0
M  V30 4693 C 450.272 -2.32551 0.210328 0
M  V30 4694 C 451.253 -1.56884 -0.657386 0
M  V30 4695 O 452.438 -1.85014 -0.590207 0
M  V30 4696 C 449.568 -3.41128 -0.651819 0
M  V30 4697 C 448.522 -4.27842 0.116395 0
M  V30 4698 C 447.848 -5.2763 -0.86666 0
M  V30 4699 C 449.148 -5.05647 1.30837 0
M  V30 4700 H 450.842 -2.81636 1.01594 0
M  V30 4701 H 448.388 -1.35407 0.489981 0
M  V30 4702 H 450.341 -4.07581 -1.07031 0
M  V30 4703 H 449.065 -2.90622 -1.49019 0
M  V30 4704 H 447.724 -3.62952 0.515915 0
M  V30 4705 H 447.372 -4.73395 -1.70019 0
M  V30 4706 H 447.072 -5.86514 -0.35705 0
M  V30 4707 H 448.596 -5.96955 -1.28361 0
M  V30 4708 H 450.01 -5.65113 0.965393 0
M  V30 4709 H 448.407 -5.73967 1.75161 0
M  V30 4710 H 449.477 -4.37006 2.10128 0
M  V30 4711 N 450.82 -0.546701 -1.47814 0
M  V30 4712 C 452.236 -0.205717 -1.58269 0
M  V30 4713 C 452.436 1.29153 -1.54667 0
M  V30 4714 O 451.492 2.07098 -1.44453 0
M  V30 4715 C 452.805 -0.823065 -2.89216 0
M  V30 4716 C 454.353 -0.793328 -3.02779 0
M  V30 4717 C 454.828 -1.38955 -4.36412 0
M  V30 4718 N 456.319 -1.35227 -4.43021 0
M  V30 4719 C 457.054 -1.78333 -5.44963 0
M  V30 4720 N 456.55 -2.29246 -6.53772 0
M  V30 4721 N 458.343 -1.69467 -5.35945 0
M  V30 4722 H 450.494 -1.5196 -1.48398 0
M  V30 4723 H 452.757 -0.633078 -0.705632 0
M  V30 4724 H 452.463 -1.8749 -2.97558 0
M  V30 4725 H 452.337 -0.309915 -3.75925 0
M  V30 4726 H 454.724 0.249784 -2.94041 0
M  V30 4727 H 454.805 -1.34412 -2.17639 0
M  V30 4728 H 454.449 -2.43168 -4.45906 0
M  V30 4729 H 454.379 -0.814291 -5.20266 0
M  V30 4730 H 456.87 -0.979739 -3.64979 0
M  V30 4731 H 457.183 -2.60089 -7.27718 0
M  V30 4732 H 455.528 -2.3325 -6.5469 0
M  V30 4733 H 458.719 -1.29477 -4.49837 0
M  V30 4734 H 458.892 -2.03381 -6.15256 0
M  V30 4735 N 452.299 1.55045 -0.282633 0
M  V30 4736 C 453.231 2.2023 0.634924 0
M  V30 4737 C 454.244 1.18931 1.11172 0
M  V30 4738 O 455.433 1.4562 1.03233 0
M  V30 4739 C 452.533 2.82041 1.87899 0
M  V30 4740 C 451.706 4.091 1.54776 0
M  V30 4741 C 450.765 4.54887 2.64507 0
M  V30 4742 O 449.791 5.20496 2.30375 0
M  V30 4743 N 450.993 4.25659 3.94709 0
M  V30 4744 H 453.758 2.99601 0.0769811 0
M  V30 4745 H 451.319 1.61565 -0.104048 0
M  V30 4746 H 453.311 3.09613 2.60619 0
M  V30 4747 H 451.881 2.06618 2.3458 0
M  V30 4748 H 451.101 3.88736 0.654049 0
M  V30 4749 H 452.389 4.9187 1.30158 0
M  V30 4750 H 451.787 3.7306 4.25256 0
M  V30 4751 H 450.344 4.57984 4.63782 0
M  V30 4752 N 453.777 0.010035 1.57597 0
M  V30 4753 C 454.687 -0.994226 2.12491 0
M  V30 4754 C 455.703 -1.37013 1.07254 0
M  V30 4755 O 456.879 -1.45542 1.3921 0
M  V30 4756 C 453.944 -2.2642 2.62555 0
M  V30 4757 C 453.005 -1.95049 3.82432 0
M  V30 4758 C 452.238 -3.15991 4.30099 0
M  V30 4759 O 452.461 -4.28015 3.7704 0
M  V30 4760 O 451.395 -2.99403 5.22151 0
M  V30 4761 H 455.221 -0.557549 2.98538 0
M  V30 4762 H 452.806 -0.209413 1.47925 0
M  V30 4763 H 454.688 -3.01009 2.9491 0
M  V30 4764 H 453.363 -2.69306 1.796 0
M  V30 4765 H 452.27 -1.17904 3.55034 0
M  V30 4766 H 453.603 -1.56992 4.66491 0
M  V30 4767 N 455.255 -1.55392 -0.262866 0
M  V30 4768 C 456.188 -1.8391 -1.35101 0
M  V30 4769 C 457.166 -0.692901 -1.47097 0
M  V30 4770 O 458.35 -0.936979 -1.63563 0
M  V30 4771 C 455.477 -2.00969 -2.72634 0
M  V30 4772 C 454.523 -3.23559 -2.7787 0
M  V30 4773 S 455.356 -4.80647 -2.3609 0
M  V30 4774 C 456.512 -5.00692 -3.75578 0
M  V30 4775 H 456.745 -2.75918 -1.1071 0
M  V30 4776 H 454.278 -1.47294 -0.463029 0
M  V30 4777 H 456.236 -2.11482 -3.51832 0
M  V30 4778 H 454.897 -1.09832 -2.94272 0
M  V30 4779 H 454.09 -3.32413 -3.78837 0
M  V30 4780 H 453.692 -3.11689 -2.06702 0
M  V30 4781 H 455.984 -4.87055 -4.70939 0
M  V30 4782 H 456.927 -6.02717 -3.71669 0
M  V30 4783 H 457.335 -4.28619 -3.6735 0
M  V30 4784 N 456.733 0.527833 -1.48498 0
M  V30 4785 C 457.981 1.28101 -1.56316 0
M  V30 4786 C 458.302 1.9352 -0.239781 0
M  V30 4787 O 457.572 1.81433 0.738849 0
M  V30 4788 H 456.152 0.475793 -0.575873 0
M  V30 4789 H 458.814 0.614052 -1.84974 0
M  V30 4790 H 457.91 2.05916 -2.34532 0
M  V30 4791 N 458.211 1.37122 0.776871 0
M  V30 4792 C 459.458 1.32047 1.53524 0
M  V30 4793 C 459.786 -0.0965631 1.9426 0
M  V30 4794 O 459.041 -1.06866 1.63945 0
M  V30 4795 C 459.34 2.20068 2.81611 0
M  V30 4796 C 459.006 3.68423 2.59953 0
M  V30 4797 C 457.668 4.08854 2.53755 0
M  V30 4798 C 460.02 4.62431 2.40431 0
M  V30 4799 C 457.348 5.41417 2.26018 0
M  V30 4800 C 459.7 5.95225 2.14219 0
M  V30 4801 C 458.364 6.34767 2.06462 0
M  V30 4802 H 457.634 0.483196 0.561785 0
M  V30 4803 H 460.281 1.69284 0.895268 0
M  V30 4804 H 458.586 1.75809 3.50141 0
M  V30 4805 H 460.283 2.13458 3.39465 0
M  V30 4806 H 456.873 3.36354 2.65638 0
M  V30 4807 H 461.057 4.32057 2.44213 0
M  V30 4808 H 456.313 5.71022 2.18504 0
M  V30 4809 H 460.487 6.67626 1.98112 0
M  V30 4810 H 458.114 7.37413 1.84733 0
M  V30 4811 N 459.689 -1.00246 1.21608 0
M  V30 4812 C 460.637 -2.11193 0.97469 0
M  V30 4813 C 461.631 -1.69216 -0.0789303 0
M  V30 4814 O 462.837 -1.79853 0.0726806 0
M  V30 4815 H 459.212 -0.690455 0.297953 0
M  V30 4816 H 461.183 -2.2873 1.91638 0
M  V30 4817 C 459.932 -3.43182 0.558717 0
M  V30 4818 H 459.255 -3.75918 1.3611 0
M  V30 4819 H 460.695 -4.21823 0.429154 0
M  V30 4820 C 459.154 -3.28882 -0.730648 0
M  V30 4821 O 459.684 -3.59835 -1.78554 0
M  V30 4822 N 457.89 -2.8209 -0.698131 0
M  V30 4823 H 457.437 -2.57099 0.16061 0
M  V30 4824 H 457.395 -2.72903 -1.56113 0
M  V30 4825 N 461.167 -1.02423 -1.1978 0
M  V30 4826 C 462.415 -0.716569 -1.8897 0
M  V30 4827 C 462.736 0.756769 -1.79716 0
M  V30 4828 O 462.006 1.5449 -1.20456 0
M  V30 4829 H 460.586 -0.262062 -0.699523 0
M  V30 4830 H 463.248 -1.29747 -1.45436 0
M  V30 4831 H 462.344 -1.00675 -2.95417 0
M  V30 4832 N 462.645 1.35699 -0.801477 0
M  V30 4833 C 463.891 1.99208 -0.380022 0
M  V30 4834 C 464.224 1.63445 1.04878 0
M  V30 4835 O 463.499 0.895223 1.72673 0
M  V30 4836 C 463.782 3.55755 -0.557708 0
M  V30 4837 C 463.635 4.01332 -2.03107 0
M  V30 4838 C 464.954 4.40096 0.0197968 0
M  V30 4839 H 462.073 0.723667 -0.139552 0
M  V30 4840 H 464.715 1.60928 -1.01006 0
M  V30 4841 H 462.865 3.88494 -0.0213741 0
M  V30 4842 H 464.537 3.79026 -2.62939 0
M  V30 4843 H 462.78 3.52429 -2.52936 0
M  V30 4844 H 463.451 5.10234 -2.1063 0
M  V30 4845 H 465.927 4.13786 -0.438179 0
M  V30 4846 H 464.803 5.48735 -0.134477 0
M  V30 4847 H 465.064 4.2786 1.11303 0
M  V30 4848 N 464.123 0.554532 1.47522 0
M  V30 4849 C 465.372 0.0273458 2.01681 0
M  V30 4850 C 465.685 -1.32962 1.43459 0
M  V30 4851 O 466.891 -1.94657 1.89265 0
M  V30 4852 C 465.347 -0.00159057 3.599 0
M  V30 4853 C 464.955 1.35197 4.27113 0
M  V30 4854 C 466.699 -0.476311 4.21819 0
M  V30 4855 C 464.606 1.28229 5.77331 0
M  V30 4856 H 463.536 0.00645269 0.753972 0
M  V30 4857 H 466.187 0.701985 1.69542 0
M  V30 4858 H 464.569 -0.741821 3.8899 0
M  V30 4859 H 465.743 2.1097 4.09668 0
M  V30 4860 H 464.058 1.76441 3.77171 0
M  V30 4861 H 466.655 -0.5468 5.31897 0
M  V30 4862 H 466.998 -1.4877 3.8881 0
M  V30 4863 H 467.531 0.20898 3.97251 0
M  V30 4864 H 464.27 2.26959 6.14955 0
M  V30 4865 H 463.79 0.566314 5.97121 0
M  V30 4866 H 465.469 0.983226 6.39485 0
M  V30 4867 N 465.601 -1.54893 0.290851 0
M  V30 4868 C 466.847 -2.0023 -0.321867 0
M  V30 4869 C 467.18 -1.179 -1.54316 0
M  V30 4870 O 466.455 -0.25293 -1.92848 0
M  V30 4871 C 466.738 -3.53456 -0.688515 0
M  V30 4872 C 466.591 -4.46532 0.541209 0
M  V30 4873 C 467.91 -4.13057 -1.51895 0
M  V30 4874 H 465.029 -0.727891 -0.115515 0
M  V30 4875 H 467.671 -1.85722 0.400931 0
M  V30 4876 H 465.821 -3.6595 -1.30433 0
M  V30 4877 H 467.493 -4.4596 1.17973 0
M  V30 4878 H 465.736 -4.17545 1.17636 0
M  V30 4879 H 466.407 -5.51475 0.240675 0
M  V30 4880 H 468.883 -4.03937 -0.99872 0
M  V30 4881 H 467.759 -5.20448 -1.74429 0
M  V30 4882 H 468.02 -3.64284 -2.50498 0
M  V30 4883 N 467.08 -0.0183926 -1.57589 0
M  V30 4884 C 468.308 0.673046 -1.95647 0
M  V30 4885 C 468.723 1.66275 -0.894312 0
M  V30 4886 O 468.08 1.82072 0.124975 0
M  V30 4887 C 468.131 1.38884 -3.33756 0
M  V30 4888 O 467.852 0.438806 -4.35897 0
M  V30 4889 C 469.353 2.1731 -3.86383 0
M  V30 4890 H 466.573 0.186292 -0.644621 0
M  V30 4891 H 469.117 -0.0749748 -2.04363 0
M  V30 4892 H 467.272 2.08835 -3.26293 0
M  V30 4893 H 467.686 0.945869 -5.15901 0
M  V30 4894 H 469.16 2.62863 -4.85394 0
M  V30 4895 H 469.637 3.00764 -3.20059 0
M  V30 4896 H 470.243 1.52339 -3.97081 0
M  V30 4897 N 468.558 1.5553 0.254621 0
M  V30 4898 C 469.835 1.6774 1.00611 0
M  V30 4899 C 470.215 0.555993 2.03647 0
M  V30 4900 O 469.563 -0.441583 2.24193 0
M  V30 4901 C 469.773 3.07725 1.6464 0
M  V30 4902 C 471.121 3.66074 2.15116 0
M  V30 4903 O 472.145 3.10476 1.74595 0
M  V30 4904 O 471.004 4.63526 2.89493 0
M  V30 4905 H 468.098 0.681958 0.467828 0
M  V30 4906 H 470.644 1.67863 0.24902 0
M  V30 4907 H 469.416 3.80792 0.900734 0
M  V30 4908 H 469.039 3.1158 2.46989 0
M  V30 4909 N 470.036 -0.519951 1.48776 0
M  V30 4910 C 470.999 -1.60574 1.6355 0
M  V30 4911 C 471.999 -1.52557 0.508234 0
M  V30 4912 O 473.189 -1.56047 0.774262 0
M  V30 4913 C 470.321 -3.00211 1.61512 0
M  V30 4914 H 471.514 -1.4881 2.60376 0
M  V30 4915 H 469.067 -0.742772 1.37523 0
M  V30 4916 H 469.802 -3.17471 0.662009 0
M  V30 4917 H 469.587 -3.07439 2.43359 0
M  V30 4918 H 471.077 -3.79134 1.75064 0
M  V30 4919 N 471.514 -1.37532 -0.769588 0
M  V30 4920 C 472.444 -1.36172 -1.89682 0
M  V30 4921 C 473.425 -0.23001 -1.68538 0
M  V30 4922 O 474.61 -0.43069 -1.89364 0
M  V30 4923 C 471.74 -1.1701 -3.26995 0
M  V30 4924 C 470.694 -2.27216 -3.62708 0
M  V30 4925 C 470.02 -1.93174 -4.98586 0
M  V30 4926 C 471.32 -3.6941 -3.69234 0
M  V30 4927 H 473.014 -2.30499 -1.91078 0
M  V30 4928 H 470.56 -1.10953 -0.917902 0
M  V30 4929 H 472.513 -1.14688 -4.05493 0
M  V30 4930 H 471.237 -0.191395 -3.26039 0
M  V30 4931 H 469.896 -2.28697 -2.86519 0
M  V30 4932 H 469.544 -0.938281 -4.94171 0
M  V30 4933 H 469.244 -2.66973 -5.23449 0
M  V30 4934 H 470.768 -1.92443 -5.79481 0
M  V30 4935 H 472.182 -3.70047 -4.37879 0
M  V30 4936 H 470.579 -4.4228 -4.05597 0
M  V30 4937 H 471.649 -4.0288 -2.69844 0
M  V30 4938 N 472.992 0.995999 -1.22138 0
M  V30 4939 C 473.94 2.10673 -0.985876 0
M  V30 4940 C 474.934 1.69255 0.0699553 0
M  V30 4941 O 476.14 1.79812 -0.0822176 0
M  V30 4942 H 472.515 0.688865 -0.30161 0
M  V30 4943 H 474.486 2.27711 -1.92848 0
M  V30 4944 C 473.235 3.42881 -0.576909 0
M  V30 4945 H 472.558 3.75191 -1.38101 0
M  V30 4946 H 473.998 4.21589 -0.451518 0
M  V30 4947 C 472.457 3.29265 0.713196 0
M  V30 4948 O 472.987 3.60777 1.76643 0
M  V30 4949 N 471.193 2.82456 0.683162 0
M  V30 4950 H 470.74 2.5701 -0.174242 0
M  V30 4951 H 470.698 2.73727 1.54663 0
M  V30 4952 N 474.47 1.03057 1.19235 0
M  V30 4953 C 475.403 0.557384 2.21288 0
M  V30 4954 C 476.381 -0.402675 1.57535 0
M  V30 4955 O 477.565 -0.319376 1.85775 0
M  V30 4956 C 474.692 -0.187041 3.38183 0
M  V30 4957 C 473.738 0.72471 4.20298 0
M  V30 4958 S 474.571 2.20187 4.88137 0
M  V30 4959 C 475.727 1.46801 6.08441 0
M  V30 4960 H 475.96 1.42207 2.61083 0
M  V30 4961 H 473.493 0.840651 1.29508 0
M  V30 4962 H 475.451 -0.610405 4.05936 0
M  V30 4963 H 474.112 -1.02748 2.96819 0
M  V30 4964 H 473.305 0.149911 5.03777 0
M  V30 4965 H 472.907 1.08647 3.57871 0
M  V30 4966 H 475.199 0.755522 6.73274 0
M  V30 4967 H 476.142 2.27946 6.70407 0
M  V30 4968 H 476.55 0.964762 5.56195 0
M  V30 4969 N 475.948 -1.35272 0.808662 0
M  V30 4970 C 476.895 -2.29764 0.218482 0
M  V30 4971 C 477.865 -1.52911 -0.648652 0
M  V30 4972 O 479.05 -1.81341 -0.593297 0
M  V30 4973 C 476.19 -3.39388 -0.625282 0
M  V30 4974 C 475.303 -4.31202 0.262516 0
M  V30 4975 C 474.438 -5.27919 -0.589451 0
M  V30 4976 C 473.477 -6.11371 0.298617 0
M  V30 4977 N 472.614 -7.0022 -0.513443 0
M  V30 4978 H 477.454 -2.79645 1.02968 0
M  V30 4979 H 474.991 -1.37629 0.519303 0
M  V30 4980 H 476.949 -4.01615 -1.12966 0
M  V30 4981 H 475.579 -2.90777 -1.40173 0
M  V30 4982 H 474.631 -3.69962 0.885013 0
M  V30 4983 H 475.943 -4.89748 0.945971 0
M  V30 4984 H 475.097 -5.95529 -1.15888 0
M  V30 4985 H 473.836 -4.69875 -1.30647 0
M  V30 4986 H 472.841 -5.42707 0.880301 0
M  V30 4987 H 474.066 -6.71494 1.01352 0
M  V30 4988 H 472.012 -6.44662 -1.21439 0
M  V30 4989 H 471.929 -7.55917 0.111922 0
M  V30 4990 H 473.197 -7.72175 -1.06608 0
M  V30 4991 N 477.426 -0.562348 -1.47226 0
M  V30 4992 C 478.389 0.172056 -2.28553 0
M  V30 4993 C 479.389 0.837928 -1.37242 0
M  V30 4994 O 480.579 0.693001 -1.59822 0
M  V30 4995 C 477.711 1.25223 -3.17068 0
M  V30 4996 H 478.904 -0.542401 -2.94954 0
M  V30 4997 H 476.457 -0.319493 -1.53 0
M  V30 4998 H 477.192 1.99892 -2.55369 0
M  V30 4999 H 476.977 0.779515 -3.84273 0
M  V30 5000 H 478.467 1.76791 -3.78332 0
M  V30 5001 N 478.904 1.54736 -0.299062 0
M  V30 5002 C 480.153 1.99279 0.311549 0
M  V30 5003 C 480.466 1.19107 1.55154 0
M  V30 5004 O 481.672 1.53908 2.23662 0
M  V30 5005 C 480.128 3.54768 0.605632 0
M  V30 5006 C 479.736 4.43746 -0.615914 0
M  V30 5007 C 481.48 4.07841 1.17754 0
M  V30 5008 C 479.387 5.90663 -0.29509 0
M  V30 5009 H 478.317 0.744359 0.120187 0
M  V30 5010 H 480.968 1.78919 -0.407464 0
M  V30 5011 H 479.35 3.71021 1.38419 0
M  V30 5012 H 480.524 4.39267 -1.39218 0
M  V30 5013 H 478.839 4.01434 -1.10633 0
M  V30 5014 H 481.436 5.15174 1.43179 0
M  V30 5015 H 481.779 3.58324 2.11918 0
M  V30 5016 H 482.312 3.95123 0.460739 0
M  V30 5017 H 479.051 6.44325 -1.20524 0
M  V30 5018 H 478.571 5.98155 0.44394 0
M  V30 5019 H 480.25 6.46916 0.104048 0
M  V30 5020 N 480.382 0.0267497 1.57577 0
M  V30 5021 C 481.345 -0.940916 2.08996 0
M  V30 5022 C 482.345 -1.25561 1.00455 0
M  V30 5023 O 483.535 -1.19634 1.26623 0
M  V30 5024 C 480.667 -2.25814 2.55384 0
M  V30 5025 H 481.86 -0.495628 2.95776 0
M  V30 5026 H 479.413 -0.221241 1.54726 0
M  V30 5027 H 480.148 -2.74976 1.71926 0
M  V30 5028 H 479.933 -2.04285 3.34679 0
M  V30 5029 H 481.423 -2.95178 2.95398 0
M  V30 5030 N 481.861 -1.55662 -0.24637 0
M  V30 5031 C 483.138 -1.68272 -0.997198 0
M  V30 5032 C 483.518 -0.566785 -2.03349 0
M  V30 5033 O 482.866 0.429688 -2.24424 0
M  V30 5034 C 483.076 -3.08594 -1.63006 0
M  V30 5035 C 484.424 -3.6721 -2.13171 0
M  V30 5036 O 485.448 -3.11397 -1.72946 0
M  V30 5037 O 484.307 -4.65054 -2.87031 0
M  V30 5038 H 481.401 -0.684429 -0.464205 0
M  V30 5039 H 483.947 -1.67993 -0.240114 0
M  V30 5040 H 482.719 -3.81264 -0.880527 0
M  V30 5041 H 482.342 -3.12886 -2.45333 0
M  V30 5042 N 483.339 0.512053 -1.4905 0
M  V30 5043 C 484.289 1.61142 -1.61298 0
M  V30 5044 C 485.273 1.53908 -0.46916 0
M  V30 5045 O 486.465 1.61625 -0.721547 0
M  V30 5046 C 483.594 2.998 -1.67256 0
M  V30 5047 C 482.68 3.12072 -2.87179 0
M  V30 5048 N 483.071 2.94263 -4.11391 0
M  V30 5049 C 481.369 3.43156 -2.84886 0
M  V30 5050 C 482.07 3.10426 -4.91946 0
M  V30 5051 N 481.046 3.38808 -4.251 0
M  V30 5052 H 484.848 1.46011 -2.55065 0
M  V30 5053 H 482.362 0.717934 -1.45669 0
M  V30 5054 H 484.359 3.78794 -1.74128 0
M  V30 5055 H 483.019 3.1601 -0.746195 0
M  V30 5056 H 484.03 2.70661 -4.41546 0
M  V30 5057 H 480.707 3.65611 -2.01581 0
M  V30 5058 H 482.097 3.01243 -6.00585 0
M  V30 5059 N 484.817 1.37938 0.762283 0
M  V30 5060 C 486.064 1.33668 1.52115 0
M  V30 5061 C 486.392 -0.0759538 1.94352 0
M  V30 5062 O 485.647 -1.05121 1.6507 0
M  V30 5063 C 485.946 2.23042 2.79261 0
M  V30 5064 C 485.612 3.71159 2.56031 0
M  V30 5065 C 484.274 4.11523 2.49404 0
M  V30 5066 C 486.626 4.64955 2.35513 0
M  V30 5067 C 483.954 5.43784 2.20263 0
M  V30 5068 C 486.306 5.97464 2.07894 0
M  V30 5069 C 484.97 6.36922 1.99718 0
M  V30 5070 H 484.24 0.489127 0.556629 0
M  V30 5071 H 486.887 1.70224 0.877262 0
M  V30 5072 H 485.192 1.79512 3.48256 0
M  V30 5073 H 486.889 2.17047 3.37182 0
M  V30 5074 H 483.479 3.39153 2.62056 0
M  V30 5075 H 487.663 4.34623 2.39617 0
M  V30 5076 H 482.919 5.73307 2.12435 0
M  V30 5077 H 487.093 6.6969 1.91019 0
M  V30 5078 H 484.72 7.39331 1.76902 0
M  V30 5079 N 486.295 -0.989507 1.22664 0
M  V30 5080 C 487.543 -1.72612 1.05117 0
M  V30 5081 C 487.864 -1.90552 -0.414131 0
M  V30 5082 O 487.134 -1.4676 -1.29762 0
M  V30 5083 H 485.714 -0.639555 0.385977 0
M  V30 5084 H 488.376 -1.19158 1.54232 0
M  V30 5085 H 487.472 -2.71926 1.53175 0
M  V30 5086 N 487.773 -1.03688 -1.18687 0
M  V30 5087 C 488.705 -0.582696 -2.21669 0
M  V30 5088 C 489.718 0.345656 -1.59088 0
M  V30 5089 O 490.907 0.140776 -1.77944 0
M  V30 5090 C 488.007 0.169204 -3.38477 0
M  V30 5091 C 487.18 -0.766079 -4.30639 0
M  V30 5092 C 486.239 -0.0581541 -5.26168 0
M  V30 5093 O 485.265 -0.687346 -5.65035 0
M  V30 5094 N 486.467 1.20981 -5.67753 0
M  V30 5095 H 489.232 -1.46843 -2.61261 0
M  V30 5096 H 486.793 -0.916896 -1.33434 0
M  V30 5097 H 488.785 0.652543 -3.99405 0
M  V30 5098 H 487.355 0.956435 -2.97609 0
M  V30 5099 H 486.575 -1.42935 -3.67373 0
M  V30 5100 H 487.863 -1.40146 -4.89118 0
M  V30 5101 H 487.261 1.74159 -5.38224 0
M  V30 5102 H 485.818 1.6375 -6.30896 0
M  V30 5103 N 489.251 1.34841 -0.815825 0
M  V30 5104 C 490.161 2.33425 -0.234462 0
M  V30 5105 C 491.177 1.62295 0.627413 0
M  V30 5106 O 492.353 1.94109 0.536987 0
M  V30 5107 C 489.418 3.41471 0.599849 0
M  V30 5108 C 488.479 4.28362 -0.283596 0
M  V30 5109 C 487.712 5.31248 0.51099 0
M  V30 5110 O 487.935 5.43056 1.7449 0
M  V30 5111 O 486.869 6.01812 -0.10297 0
M  V30 5112 H 490.695 2.84962 -1.05024 0
M  V30 5113 H 488.28 1.37774 -0.577809 0
M  V30 5114 H 490.162 4.07464 1.07475 0
M  V30 5115 H 488.837 2.9219 1.39308 0
M  V30 5116 H 487.744 3.65318 -0.805836 0
M  V30 5117 H 489.077 4.81066 -1.041 0
M  V30 5118 N 490.729 0.570148 1.46925 0
M  V30 5119 C 491.639 -0.173061 2.33961 0
M  V30 5120 C 492.655 -0.898825 1.48987 0
M  V30 5121 O 493.831 -0.864825 1.81887 0
M  V30 5122 C 490.896 -1.18177 3.25937 0
M  V30 5123 C 489.957 -0.462041 4.26806 0
M  V30 5124 C 489.19 -1.4227 5.14388 0
M  V30 5125 O 489.413 -2.65842 5.04662 0
M  V30 5126 O 488.347 -0.940127 5.94513 0
M  V30 5127 H 492.173 0.541216 2.98839 0
M  V30 5128 H 489.758 0.330647 1.45695 0
M  V30 5129 H 491.64 -1.76372 3.82715 0
M  V30 5130 H 490.315 -1.87774 2.63671 0
M  V30 5131 H 489.222 0.161429 3.73752 0
M  V30 5132 H 490.555 0.192719 4.91823 0
M  V30 5133 N 492.207 -1.54576 0.307264 0
M  V30 5134 C 493.17 -2.22423 -0.553224 0
M  V30 5135 C 494.17 -1.21231 -1.05639 0
M  V30 5136 O 495.36 -1.45923 -0.951419 0
M  V30 5137 C 492.492 -2.91552 -1.76664 0
M  V30 5138 H 493.685 -2.99874 0.0396484 0
M  V30 5139 H 491.238 -1.56192 0.0581629 0
M  V30 5140 H 491.973 -2.18196 -2.39918 0
M  V30 5141 H 491.758 -3.65738 -1.41343 0
M  V30 5142 H 493.248 -3.43292 -2.37783 0
M  V30 5143 N 493.685 -0.035106 -1.57561 0
M  V30 5144 C 494.931 0.64318 -1.92331 0
M  V30 5145 C 495.264 1.71434 -0.912368 0
M  V30 5146 O 494.539 1.94395 0.0640303 0
M  V30 5147 C 494.822 1.25411 -3.37556 0
M  V30 5148 C 494.675 0.192109 -4.4939 0
M  V30 5149 C 495.994 2.17041 -3.82859 0
M  V30 5150 H 493.113 0.232341 -0.699419 0
M  V30 5151 H 495.755 -0.0935889 -1.89769 0
M  V30 5152 H 493.905 1.88205 -3.39869 0
M  V30 5153 H 495.577 -0.438849 -4.59208 0
M  V30 5154 H 493.82 -0.481725 -4.31117 0
M  V30 5155 H 494.491 0.659292 -5.48049 0
M  V30 5156 H 496.967 1.64228 -3.8232 0
M  V30 5157 H 495.843 2.56738 -4.85157 0
M  V30 5158 H 496.104 3.06401 -3.18702 0
M  V30 5159 N 495.163 1.55791 0.238111 0
M  V30 5160 C 496.409 1.78297 0.966337 0
M  V30 5161 C 496.742 0.601903 1.84637 0
M  V30 5162 O 496.017 -0.399499 1.90353 0
M  V30 5163 C 496.3 3.10758 1.81939 0
M  V30 5164 C 496.153 4.39283 0.966958 0
M  V30 5165 C 497.472 3.39519 2.80027 0
M  V30 5166 H 494.591 0.648654 0.349882 0
M  V30 5167 H 497.233 1.88525 0.236253 0
M  V30 5168 H 495.383 3.02168 2.44185 0
M  V30 5169 H 497.055 4.59873 0.362514 0
M  V30 5170 H 495.298 4.32948 0.271669 0
M  V30 5171 H 495.969 5.28368 1.59784 0
M  V30 5172 H 498.445 3.48128 2.27917 0
M  V30 5173 H 497.321 4.33402 3.36829 0
M  V30 5174 H 497.582 2.60864 3.56934 0
M  V30 5175 N 496.642 -0.504142 1.49319 0
M  V30 5176 C 497.575 -1.62361 1.60356 0
M  V30 5177 C 498.553 -1.56169 0.45277 0
M  V30 5178 O 499.737 -1.76271 0.667892 0
M  V30 5179 C 496.864 -3.00864 1.55559 0
M  V30 5180 C 495.91 -3.25328 2.75797 0
M  V30 5181 S 496.743 -3.08791 4.37503 0
M  V30 5182 C 497.899 -4.49695 4.35345 0
M  V30 5183 H 498.132 -1.52753 2.55056 0
M  V30 5184 H 495.665 -0.689065 1.38171 0
M  V30 5185 H 497.623 -3.8073 1.53477 0
M  V30 5186 H 496.284 -3.0789 0.621515 0
M  V30 5187 H 495.477 -4.2643 2.68651 0
M  V30 5188 H 495.079 -2.53179 2.75275 0
M  V30 5189 H 497.371 -5.41721 4.06871 0
M  V30 5190 H 498.314 -4.61891 5.36714 0
M  V30 5191 H 498.722 -4.30227 3.65465 0
M  V30 5192 N 498.12 -1.38341 -0.754957 0
M  V30 5193 C 499.083 -1.35262 -1.85032 0
M  V30 5194 C 500.083 -0.253393 -1.58791 0
M  V30 5195 O 501.273 -0.510205 -1.66561 0
M  V30 5196 C 498.405 -1.10544 -3.22479 0
M  V30 5197 H 499.598 -2.32712 -1.8917 0
M  V30 5198 H 497.151 -1.23614 -0.956515 0
M  V30 5199 H 497.886 -0.136952 -3.24011 0
M  V30 5200 H 497.671 -1.90127 -3.4292 0
M  V30 5201 H 499.161 -1.11082 -4.02555 0
M  V30 5202 N 499.598 0.982988 -1.23187 0
M  V30 5203 C 500.844 1.72648 -1.06398 0
M  V30 5204 C 501.177 1.90066 0.398561 0
M  V30 5205 O 500.452 1.45105 1.29518 0
M  V30 5206 C 500.735 3.12627 -1.78707 0
M  V30 5207 C 500.588 3.02795 -3.32618 0
M  V30 5208 C 501.907 4.11997 -1.54747 0
M  V30 5209 H 499.026 0.626649 -0.387918 0
M  V30 5210 H 501.668 1.14455 -1.51658 0
M  V30 5211 H 499.818 3.62308 -1.40234 0
M  V30 5212 H 501.49 2.60659 -3.80598 0
M  V30 5213 H 499.733 2.39362 -3.61785 0
M  V30 5214 H 500.404 4.01893 -3.78399 0
M  V30 5215 H 502.88 3.71114 -1.88186 0
M  V30 5216 H 501.756 5.08037 -2.07821 0
M  V30 5217 H 502.017 4.39462 -0.482249 0
M  V30 5218 N 501.076 1.04316 1.18135 0
M  V30 5219 C 502.023 0.636398 2.21853 0
M  V30 5220 C 502.993 -0.357039 1.62217 0
M  V30 5221 O 504.178 -0.250453 1.89149 0
M  V30 5222 C 501.318 0.00812779 3.45099 0
M  V30 5223 C 500.431 1.04933 4.19062 0
M  V30 5224 C 499.566 0.389313 5.29771 0
M  V30 5225 C 498.605 1.41544 5.9551 0
M  V30 5226 N 497.742 0.78021 6.97751 0
M  V30 5227 H 502.582 1.52536 2.56002 0
M  V30 5228 H 500.119 0.76304 1.25762 0
M  V30 5229 H 502.077 -0.373497 4.15525 0
M  V30 5230 H 500.707 -0.844336 3.11562 0
M  V30 5231 H 499.759 1.54888 3.47439 0
M  V30 5232 H 501.071 1.82862 4.64072 0
M  V30 5233 H 500.225 -0.0463805 6.06682 0
M  V30 5234 H 498.964 -0.422038 4.8587 0
M  V30 5235 H 497.969 1.86124 5.17337 0
M  V30 5236 H 499.194 2.22854 6.41493 0
M  V30 5237 H 497.14 -0.0107899 6.55999 0
M  V30 5238 H 497.057 1.49716 7.41027 0
M  V30 5239 H 498.325 0.368996 7.78626 0
M  V30 5240 N 502.554 -1.34406 0.822964 0
M  V30 5241 C 503.517 -2.2783 0.250271 0
M  V30 5242 C 504.517 -1.50288 -0.571854 0
M  V30 5243 O 505.707 -1.69825 -0.387952 0
M  V30 5244 C 502.839 -3.34663 -0.649137 0
M  V30 5245 H 504.032 -2.79992 1.07444 0
M  V30 5246 H 501.585 -1.44539 0.594829 0
M  V30 5247 H 502.32 -2.87714 -1.49637 0
M  V30 5248 H 502.105 -3.92052 -0.0611199 0
M  V30 5249 H 503.595 -4.04349 -1.04363 0
M  V30 5250 N 504.032 -0.577932 -1.46621 0
M  V30 5251 C 505.28 -0.061566 -2.02006 0
M  V30 5252 C 505.601 1.30117 -1.4524 0
M  V30 5253 O 504.871 1.85313 -0.63529 0
M  V30 5254 H 503.451 -0.0197692 -0.746738 0
M  V30 5255 H 506.113 -0.752631 -1.79782 0
M  V30 5256 H 505.209 0.0110238 -3.12098 0
M  V30 5257 N 505.51 1.54411 -0.315457 0
M  V30 5258 C 506.756 2.00716 0.289972 0
M  V30 5259 C 507.089 1.2034 1.5242 0
M  V30 5260 O 506.364 0.283579 1.92422 0
M  V30 5261 C 506.647 3.54507 0.632196 0
M  V30 5262 C 506.5 4.45615 -0.61218 0
M  V30 5263 C 507.819 4.15421 1.45305 0
M  V30 5264 H 504.938 0.729637 0.10392 0
M  V30 5265 H 507.58 1.8506 -0.430427 0
M  V30 5266 H 505.73 3.67979 1.24595 0
M  V30 5267 H 507.402 4.44026 -1.25053 0
M  V30 5268 H 505.645 4.15621 -1.24264 0
M  V30 5269 H 506.316 5.51022 -0.328379 0
M  V30 5270 H 508.792 4.05474 0.934331 0
M  V30 5271 H 507.668 5.23157 1.66127 0
M  V30 5272 H 507.929 3.68223 2.44671 0
M  V30 5273 N 506.988 0.0434614 1.5754 0
M  V30 5274 C 508.265 -0.671479 1.83713 0
M  V30 5275 C 508.645 -1.89495 0.930315 0
M  V30 5276 O 507.993 -2.28498 -0.0105639 0
M  V30 5277 C 508.203 -1.0361 3.33266 0
M  V30 5278 C 509.551 -1.42167 4.00092 0
M  V30 5279 O 510.575 -1.12866 3.37846 0
M  V30 5280 O 509.434 -1.96817 5.09829 0
M  V30 5281 H 506.528 -0.330726 0.75799 0
M  V30 5282 H 509.074 0.0722373 1.69546 0
M  V30 5283 H 507.846 -0.165938 3.90948 0
M  V30 5284 H 507.469 -1.83751 3.52592 0
M  V30 5285 N 508.466 -1.55915 -0.229846 0
M  V30 5286 C 509.715 -1.77742 -0.953455 0
M  V30 5287 C 510.028 -0.610524 -1.85828 0
M  V30 5288 O 511.234 -0.712219 -2.61992 0
M  V30 5289 C 509.69 -3.14738 -1.74551 0
M  V30 5290 C 509.298 -4.39126 -0.887242 0
M  V30 5291 C 511.042 -3.45895 -2.46084 0
M  V30 5292 C 508.949 -5.67149 -1.67617 0
M  V30 5293 H 507.879 -0.662648 -0.359741 0
M  V30 5294 H 510.53 -1.82322 -0.207576 0
M  V30 5295 H 508.912 -3.04311 -2.53399 0
M  V30 5296 H 510.086 -4.60588 -0.139892 0
M  V30 5297 H 508.401 -4.15427 -0.284443 0
M  V30 5298 H 510.998 -4.38767 -3.05594 0
M  V30 5299 H 511.341 -2.68007 -3.18556 0
M  V30 5300 H 511.874 -3.57614 -1.74233 0
M  V30 5301 H 508.613 -6.47906 -0.994881 0
M  V30 5302 H 508.133 -5.49763 -2.39836 0
M  V30 5303 H 509.812 -6.07025 -2.23898 0
M  V30 5304 N 509.944 0.496216 -1.49584 0
M  V30 5305 C 510.907 1.57952 -1.66084 0
M  V30 5306 C 511.907 1.51729 -0.53244 0
M  V30 5307 O 513.097 1.54796 -0.79899 0
M  V30 5308 C 510.229 2.97604 -1.66268 0
M  V30 5309 H 511.422 1.44649 -2.6271 0
M  V30 5310 H 508.975 0.7208 -1.38687 0
M  V30 5311 H 509.71 3.16378 -0.712432 0
M  V30 5312 H 509.495 3.03528 -2.4822 0
M  V30 5313 H 510.985 3.76301 -1.81073 0
M  V30 5314 N 511.423 1.38739 0.74761 0
M  V30 5315 C 512.353 1.39173 1.87492 0
M  V30 5316 C 513.334 0.256794 1.6815 0
M  V30 5317 O 514.519 0.460762 1.88655 0
M  V30 5318 C 511.649 1.22197 3.25093 0
M  V30 5319 C 510.603 2.32957 3.59047 0
M  V30 5320 C 509.929 2.01082 4.95449 0
M  V30 5321 C 511.229 3.75237 3.6331 0
M  V30 5322 H 512.923 2.3351 1.87386 0
M  V30 5323 H 510.469 1.12399 0.900134 0
M  V30 5324 H 512.422 1.21124 4.03617 0
M  V30 5325 H 511.146 0.243241 3.25693 0
M  V30 5326 H 509.805 2.33226 2.82845 0
M  V30 5327 H 509.453 1.01678 4.92616 0
M  V30 5328 H 509.153 2.75267 5.19136 0
M  V30 5329 H 510.677 2.01638 5.76346 0
M  V30 5330 H 512.091 3.76966 4.31937 0
M  V30 5331 H 510.488 4.48677 3.98509 0
M  V30 5332 H 511.558 4.07122 2.634 0
M  V30 5333 N 512.901 -0.976442 1.23707 0
M  V30 5334 C 513.834 -2.06793 0.964973 0
M  V30 5335 C 514.812 -1.62304 -0.0981472 0
M  V30 5336 O 515.996 -1.88464 0.0369477 0
M  V30 5337 C 513.123 -3.35636 0.454522 0
M  V30 5338 C 512.169 -3.99069 1.50485 0
M  V30 5339 S 513.002 -4.37814 3.0835 0
M  V30 5340 C 514.158 -5.69805 2.58985 0
M  V30 5341 H 514.391 -2.29556 1.88922 0
M  V30 5342 H 511.924 -1.11317 1.06995 0
M  V30 5343 H 513.882 -4.10162 0.166626 0
M  V30 5344 H 512.543 -3.10876 -0.448871 0
M  V30 5345 H 511.736 -4.91896 1.09792 0
M  V30 5346 H 511.338 -3.30938 1.7423 0
M  V30 5347 H 513.63 -6.46919 2.01252 0
M  V30 5348 H 514.573 -6.15345 3.50366 0
M  V30 5349 H 514.981 -5.27994 1.99705 0
M  V30 5350 N 514.379 -1.04941 -1.1758 0
M  V30 5351 C 515.79 -0.784501 -1.69418 0
M  V30 5352 C 516.141 0.693625 -1.8353 0
M  V30 5353 O 515.266 1.53925 -1.52106 0
M  V30 5354 C 515.861 -1.41746 -3.07723 0
M  V30 5355 C 514.42 -1.20066 -3.56737 0
M  V30 5356 C 513.567 -1.5026 -2.33061 0
M  V30 5357 H 516.518 -1.21469 -1.02133 0
M  V30 5358 H 516.539 -0.825381 -3.7144 0
M  V30 5359 H 516.051 -2.49325 -2.9742 0
M  V30 5360 H 514.152 -0.144006 -3.72322 0
M  V30 5361 H 514.265 -1.90384 -4.39648 0
M  V30 5362 H 512.629 -0.922598 -2.37403 0
M  V30 5363 H 513.412 -2.58967 -2.25368 0
M  V30 5364 N 515.857 1.33968 -0.830081 0
M  V30 5365 C 516.82 2.27694 -0.26235 0
M  V30 5366 C 517.82 1.50589 0.563876 0
M  V30 5367 O 519.01 1.70028 0.378941 0
M  V30 5368 C 516.142 3.35002 0.63138 0
M  V30 5369 H 517.335 2.79419 -1.08928 0
M  V30 5370 H 514.888 1.44221 -0.602486 0
M  V30 5371 H 515.623 2.88504 1.48109 0
M  V30 5372 H 515.408 3.92079 0.0403276 0
M  V30 5373 H 516.898 4.04897 1.02217 0
M  V30 5374 N 517.335 0.585699 1.46312 0
M  V30 5375 C 518.56 0.0762461 2.0726 0
M  V30 5376 C 518.985 -1.22071 1.43109 0
M  V30 5377 O 518.343 -1.73804 0.515942 0
M  V30 5378 C 518.391 -0.0729404 3.60526 0
M  V30 5379 O 517.495 -1.1287 3.96654 0
M  V30 5380 H 516.836 0.0641558 0.660893 0
M  V30 5381 H 519.366 0.809492 1.87905 0
M  V30 5382 H 519.376 -0.278158 4.07051 0
M  V30 5383 H 518.051 0.874188 4.06609 0
M  V30 5384 H 516.628 -0.901703 3.61834 0
M  V30 5385 N 518.813 -1.54241 0.323641 0
M  V30 5386 C 520.059 -2.00867 -0.279323 0
M  V30 5387 C 520.392 -1.21146 -1.5178 0
M  V30 5388 O 519.667 -0.29378 -1.92269 0
M  V30 5389 C 519.95 -3.54837 -0.613387 0
M  V30 5390 C 519.803 -4.45284 0.635803 0
M  V30 5391 C 521.122 -4.16186 -1.43099 0
M  V30 5392 H 518.241 -0.730177 -0.100049 0
M  V30 5393 H 520.883 -1.84829 0.440235 0
M  V30 5394 H 519.033 -3.68634 -1.22641 0
M  V30 5395 H 520.705 -4.43357 1.27406 0
M  V30 5396 H 518.948 -4.14956 1.26466 0
M  V30 5397 H 519.619 -5.5084 0.357597 0
M  V30 5398 H 522.095 -4.05964 -0.912814 0
M  V30 5399 H 520.971 -5.24031 -1.6335 0
M  V30 5400 H 521.232 -3.69516 -2.42715 0
M  V30 5401 N 520.291 -0.0518155 -1.57515 0
M  V30 5402 C 521.519 0.631395 -1.9703 0
M  V30 5403 C 521.934 1.64341 -0.92938 0
M  V30 5404 O 521.291 1.82296 0.0863266 0
M  V30 5405 C 521.342 1.31774 -3.36627 0
M  V30 5406 O 521.063 0.346247 -4.3673 0
M  V30 5407 C 522.564 2.09065 -3.90905 0
M  V30 5408 H 519.784 0.172576 -0.648428 0
M  V30 5409 H 522.328 -0.118306 -2.04158 0
M  V30 5410 H 520.483 2.01867 -3.30649 0
M  V30 5411 H 520.897 0.836226 -5.17791 0
M  V30 5412 H 522.371 2.52508 -4.9086 0
M  V30 5413 H 522.848 2.93908 -3.26366 0
M  V30 5414 H 523.454 1.43882 -4.00223 0
M  V30 5415 N 521.769 1.56035 0.221574 0
M  V30 5416 C 522.994 1.83476 0.967026 0
M  V30 5417 C 523.419 0.632139 1.7716 0
M  V30 5418 O 522.777 -0.419082 1.7639 0
M  V30 5419 C 522.825 3.08907 1.86034 0
M  V30 5420 O 521.929 2.876 2.95567 0
M  V30 5421 H 521.27 0.604913 0.273817 0
M  V30 5422 H 523.8 2.03247 0.234893 0
M  V30 5423 H 523.81 3.3901 2.27016 0
M  V30 5424 H 522.485 3.96068 1.26898 0
M  V30 5425 H 521.062 2.6873 2.58532 0
M  V30 5426 N 523.247 -0.488276 1.49845 0
M  V30 5427 C 524.177 -1.59675 1.70371 0
M  V30 5428 C 525.158 -1.60878 0.552473 0
M  V30 5429 O 526.343 -1.77417 0.78973 0
M  V30 5430 C 523.473 -2.98098 1.782 0
M  V30 5431 C 522.427 -3.11761 2.93239 0
M  V30 5432 C 521.753 -4.51661 2.86193 0
M  V30 5433 C 523.053 -2.90589 4.33999 0
M  V30 5434 H 524.747 -1.42752 2.63177 0
M  V30 5435 H 522.293 -0.685317 1.26647 0
M  V30 5436 H 524.246 -3.75555 1.91144 0
M  V30 5437 H 522.97 -3.16138 0.820018 0
M  V30 5438 H 521.629 -2.36732 2.79917 0
M  V30 5439 H 521.277 -4.66595 1.87877 0
M  V30 5440 H 520.977 -4.61742 3.63412 0
M  V30 5441 H 522.501 -5.31162 3.01163 0
M  V30 5442 H 523.915 -3.57807 4.47936 0
M  V30 5443 H 522.312 -3.1213 5.12538 0
M  V30 5444 H 523.382 -1.86595 4.4756 0
M  V30 5445 N 524.725 -1.39134 -0.740242 0
M  V30 5446 C 525.672 -1.37434 -1.8542 0
M  V30 5447 C 526.642 -0.234822 -1.64432 0
M  V30 5448 O 527.827 -0.429125 -1.85912 0
M  V30 5449 C 524.967 -1.21844 -3.22875 0
M  V30 5450 C 524.08 -2.45296 -3.55603 0
M  V30 5451 C 523.215 -2.22334 -4.82432 0
M  V30 5452 C 522.254 -3.41488 -5.07988 0
M  V30 5453 N 521.391 -3.17877 -6.26018 0
M  V30 5454 H 526.231 -2.3266 -1.86207 0
M  V30 5455 H 523.768 -1.15578 -0.909946 0
M  V30 5456 H 525.726 -1.10818 -4.02213 0
M  V30 5457 H 524.356 -0.3025 -3.21379 0
M  V30 5458 H 523.408 -2.66945 -2.71006 0
M  V30 5459 H 524.72 -3.34063 -3.7041 0
M  V30 5460 H 523.874 -2.0852 -5.69741 0
M  V30 5461 H 522.613 -1.30954 -4.6979 0
M  V30 5462 H 521.618 -3.55807 -4.19144 0
M  V30 5463 H 522.843 -4.33763 -5.22519 0
M  V30 5464 H 520.789 -2.29156 -6.14673 0
M  V30 5465 H 520.706 -4.00198 -6.41387 0
M  V30 5466 H 521.974 -3.07746 -7.16179 0
M  V30 5467 N 526.204 0.969867 -1.24223 0
M  V30 5468 C 527.114 2.09806 -1.0497 0
M  V30 5469 C 528.13 1.73998 0.00886455 0
M  V30 5470 O 529.306 2.00513 -0.188848 0
M  V30 5471 C 526.371 3.40467 -0.654452 0
M  V30 5472 C 525.432 3.90236 -1.78926 0
M  V30 5473 C 524.665 5.14662 -1.41277 0
M  V30 5474 O 524.888 5.69602 -0.301632 0
M  V30 5475 O 523.822 5.58761 -2.23763 0
M  V30 5476 H 527.648 2.28942 -1.99548 0
M  V30 5477 H 525.233 1.08197 -1.03023 0
M  V30 5478 H 527.115 4.19039 -0.445452 0
M  V30 5479 H 525.79 3.22636 0.262216 0
M  V30 5480 H 524.697 3.12735 -2.05299 0
M  V30 5481 H 526.03 4.1254 -2.68462 0
M  V30 5482 N 527.682 1.05563 1.17022 0
M  V30 5483 C 528.592 0.670758 2.24807 0
M  V30 5484 C 529.608 -0.309865 1.71219 0
M  V30 5485 O 530.784 -0.161025 2.00755 0
M  V30 5486 C 527.849 0.055337 3.46656 0
M  V30 5487 C 526.91 1.08688 4.15314 0
M  V30 5488 C 526.143 0.500736 5.31346 0
M  V30 5489 O 526.366 -0.688718 5.66227 0
M  V30 5490 O 525.3 1.23683 5.89055 0
M  V30 5491 H 529.126 1.56914 2.60023 0
M  V30 5492 H 526.711 0.827428 1.24395 0
M  V30 5493 H 528.593 -0.286492 4.20425 0
M  V30 5494 H 527.268 -0.816638 3.13229 0
M  V30 5495 H 526.175 1.48077 3.43546 0
M  V30 5496 H 527.508 1.93014 4.52777 0
M  V30 5497 N 529.16 -1.33526 0.837174 0
M  V30 5498 C 530.092 -2.28077 0.226579 0
M  V30 5499 C 531.105 -1.51666 -0.591717 0
M  V30 5500 O 532.294 -1.73511 -0.419064 0
M  V30 5501 C 529.394 -3.31597 -0.69978 0
M  V30 5502 C 528.567 -4.37329 0.0788067 0
M  V30 5503 C 527.626 -5.20526 -0.770637 0
M  V30 5504 O 526.652 -5.68811 -0.210453 0
M  V30 5505 N 527.854 -5.41639 -2.08825 0
M  V30 5506 H 530.619 -2.81115 1.03897 0
M  V30 5507 H 528.18 -1.46201 0.695476 0
M  V30 5508 H 530.172 -3.84158 -1.27298 0
M  V30 5509 H 528.742 -2.78848 -1.41288 0
M  V30 5510 H 527.962 -3.8529 0.833381 0
M  V30 5511 H 529.25 -5.05079 0.614238 0
M  V30 5512 H 528.648 -5.04108 -2.56693 0
M  V30 5513 H 527.205 -5.97263 -2.60998 0
M  V30 5514 N 530.638 -0.59345 -1.46 0
M  V30 5515 C 531.585 0.133618 -2.30413 0
M  V30 5516 C 532.555 0.873736 -1.41262 0
M  V30 5517 O 533.74 0.862279 -1.70204 0
M  V30 5518 C 530.88 1.13434 -3.25924 0
M  V30 5519 C 529.993 0.39656 -4.30176 0
M  V30 5520 C 529.128 1.38575 -5.12806 0
M  V30 5521 C 528.167 0.634984 -6.08797 0
M  V30 5522 N 527.304 1.57276 -6.84258 0
M  V30 5523 H 532.144 -0.592252 -2.92055 0
M  V30 5524 H 529.681 -0.303874 -1.43927 0
M  V30 5525 H 531.639 1.72752 -3.79753 0
M  V30 5526 H 530.269 1.82779 -2.66067 0
M  V30 5527 H 529.321 -0.311861 -3.79119 0
M  V30 5528 H 530.633 -0.189869 -4.98438 0
M  V30 5529 H 529.787 2.05141 -5.70966 0
M  V30 5530 H 528.526 2.00611 -4.44529 0
M  V30 5531 H 527.531 -0.0443925 -5.49782 0
M  V30 5532 H 528.756 0.0198678 -6.79097 0
M  V30 5533 H 526.702 2.18103 -6.18682 0
M  V30 5534 H 526.619 1.03941 -7.48821 0
M  V30 5535 H 527.887 2.22844 -7.46968 0
M  V30 5536 N 532.116 1.54067 -0.331816 0
M  V30 5537 C 533.363 2.00715 0.268269 0
M  V30 5538 C 533.691 1.21986 1.51491 0
M  V30 5539 O 532.946 0.292309 1.93505 0
M  V30 5540 C 533.245 3.51634 0.639392 0
M  V30 5541 C 532.911 4.48018 -0.509019 0
M  V30 5542 C 531.573 4.74089 -0.824209 0
M  V30 5543 C 533.925 5.05237 -1.28003 0
M  V30 5544 C 531.253 5.54637 -1.91298 0
M  V30 5545 C 533.605 5.86972 -2.35895 0
M  V30 5546 C 532.269 6.11342 -2.67987 0
M  V30 5547 H 531.539 0.734469 0.0981667 0
M  V30 5548 H 534.186 1.8596 -0.457304 0
M  V30 5549 H 532.491 3.6416 1.44551 0
M  V30 5550 H 534.188 3.85175 1.11539 0
M  V30 5551 H 530.778 4.27851 -0.253287 0
M  V30 5552 H 534.962 4.8507 -1.04978 0
M  V30 5553 H 530.218 5.71747 -2.16599 0
M  V30 5554 H 534.392 6.30327 -2.96076 0
M  V30 5555 H 532.019 6.73544 -3.5248 0
M  V30 5556 N 533.594 0.0601682 1.57485 0
M  V30 5557 C 534.557 -0.896373 2.10945 0
M  V30 5558 C 535.557 -1.23402 1.03095 0
M  V30 5559 O 536.747 -1.16921 1.29132 0
M  V30 5560 C 533.879 -2.20346 2.60116 0
M  V30 5561 H 535.072 -0.432778 2.96761 0
M  V30 5562 H 532.625 -0.188372 1.55161 0
M  V30 5563 H 533.36 -2.71268 1.7772 0
M  V30 5564 H 533.145 -1.9714 3.38937 0
M  V30 5565 H 534.635 -2.88846 3.01592 0
M  V30 5566 N 535.072 -1.5615 -0.213296 0
M  V30 5567 C 536.488 -1.49327 -0.56336 0
M  V30 5568 C 536.688 -0.756826 -1.86747 0
M  V30 5569 O 535.744 -0.299866 -2.50713 0
M  V30 5570 C 537.057 -2.9392 -0.634944 0
M  V30 5571 C 538.605 -3.04487 -0.725013 0
M  V30 5572 C 539.08 -4.50456 -0.82787 0
M  V30 5573 N 540.571 -4.54533 -0.891876 0
M  V30 5574 C 541.306 -5.64766 -0.991315 0
M  V30 5575 N 540.802 -6.84733 -1.05419 0
M  V30 5576 N 542.595 -5.52637 -1.02709 0
M  V30 5577 H 534.746 -2.02453 0.642366 0
M  V30 5578 H 537.009 -0.920548 0.226487 0
M  V30 5579 H 536.715 -3.50783 0.253859 0
M  V30 5580 H 536.589 -3.46274 -1.49579 0
M  V30 5581 H 538.976 -2.47685 -1.60425 0
M  V30 5582 H 539.057 -2.55289 0.161669 0
M  V30 5583 H 538.701 -5.07878 0.0469464 0
M  V30 5584 H 538.631 -4.97369 -1.73009 0
M  V30 5585 H 541.122 -3.68141 -0.85327 0
M  V30 5586 H 541.435 -7.64493 -1.13007 0
M  V30 5587 H 539.78 -6.87427 -1.02318 0
M  V30 5588 H 542.971 -4.5784 -0.974687 0
M  V30 5589 H 543.144 -6.38576 -1.10113 0
M  V30 5590 N 536.55 0.480323 -1.50102 0
M  V30 5591 C 537.796 1.23489 -1.60867 0
M  V30 5592 C 538.129 1.91809 -0.303827 0
M  V30 5593 O 537.404 1.81694 0.694092 0
M  V30 5594 C 537.687 2.28578 -2.78252 0
M  V30 5595 C 537.54 1.64624 -4.18592 0
M  V30 5596 C 538.859 3.2997 -2.91218 0
M  V30 5597 H 535.978 0.447605 -0.585507 0
M  V30 5598 H 538.62 0.530005 -1.82458 0
M  V30 5599 H 536.77 2.88697 -2.59974 0
M  V30 5600 H 538.442 1.08173 -4.48438 0
M  V30 5601 H 536.685 0.949645 -4.23278 0
M  V30 5602 H 537.356 2.40946 -4.96638 0
M  V30 5603 H 539.832 2.79864 -3.07921 0
M  V30 5604 H 538.708 4.00839 -3.74993 0
M  V30 5605 H 538.969 3.93541 -2.0144 0
M  V30 5606 N 538.028 1.39524 0.732853 0
M  V30 5607 C 539.277 1.36175 1.48792 0
M  V30 5608 C 539.59 -0.0388195 1.95561 0
M  V30 5609 O 540.796 -0.194899 2.708 0
M  V30 5610 C 539.252 2.39242 2.68871 0
M  V30 5611 C 538.86 3.85024 2.29042 0
M  V30 5612 C 540.604 2.44972 3.46683 0
M  V30 5613 C 538.511 4.79727 3.45856 0
M  V30 5614 H 537.441 0.506267 0.558757 0
M  V30 5615 H 540.092 1.65181 0.799226 0
M  V30 5616 H 538.474 2.0331 3.39825 0
M  V30 5617 H 539.648 4.30008 1.6562 0
M  V30 5618 H 537.963 3.82609 1.64316 0
M  V30 5619 H 540.56 3.12918 4.33574 0
M  V30 5620 H 540.903 1.4749 3.89297 0
M  V30 5621 H 541.436 2.79808 2.82759 0
M  V30 5622 H 538.175 5.78479 3.08289 0
M  V30 5623 H 537.695 4.39421 4.08251 0
M  V30 5624 H 539.374 4.98731 4.12161 0
M  V30 5625 N 539.506 -0.963266 1.24736 0
M  V30 5626 C 540.438 -2.06162 1.0015 0
M  V30 5627 C 541.451 -1.62771 -0.0305905 0
M  V30 5628 O 542.64 -1.77296 0.206966 0
M  V30 5629 C 539.74 -3.35333 0.490385 0
M  V30 5630 C 538.913 -4.07609 1.58663 0
M  V30 5631 C 537.972 -5.15052 1.0774 0
M  V30 5632 O 536.998 -5.4098 1.77002 0
M  V30 5633 N 538.2 -5.80436 -0.0858605 0
M  V30 5634 H 540.965 -2.27825 1.94719 0
M  V30 5635 H 538.526 -1.13121 1.15825 0
M  V30 5636 H 540.518 -4.04477 0.134371 0
M  V30 5637 H 539.088 -3.10507 -0.361155 0
M  V30 5638 H 538.308 -3.32681 2.11463 0
M  V30 5639 H 539.596 -4.52656 2.32336 0
M  V30 5640 H 538.994 -5.6178 -0.664806 0
M  V30 5641 H 537.551 -6.50674 -0.382981 0
M  V30 5642 N 540.985 -1.06182 -1.16461 0
M  V30 5643 C 541.948 -0.675723 -2.19013 0
M  V30 5644 C 542.948 0.277963 -1.58379 0
M  V30 5645 O 544.138 0.0604962 -1.74095 0
M  V30 5646 C 541.27 0.00591459 -3.40899 0
M  V30 5647 H 542.463 -1.58353 -2.54685 0
M  V30 5648 H 540.016 -0.856908 -1.30716 0
M  V30 5649 H 540.751 0.92652 -3.10783 0
M  V30 5650 H 540.536 -0.67984 -3.86161 0
M  V30 5651 H 542.026 0.26181 -4.16778 0
M  V30 5652 N 542.463 1.3308 -0.844243 0
M  V30 5653 C 543.393 2.3161 -0.296493 0
M  V30 5654 C 544.374 1.59215 0.598707 0
M  V30 5655 O 545.559 1.87077 0.521134 0
M  V30 5656 C 542.689 3.43313 0.524762 0
M  V30 5657 C 541.643 4.27115 -0.275106 0
M  V30 5658 C 540.969 5.30483 0.670236 0
M  V30 5659 C 542.269 5.00443 -1.49514 0
M  V30 5660 H 543.963 2.77672 -1.11976 0
M  V30 5661 H 541.509 1.33496 -0.539899 0
M  V30 5662 H 543.462 4.11273 0.918298 0
M  V30 5663 H 542.186 2.95952 1.3813 0
M  V30 5664 H 540.845 3.60787 -0.650267 0
M  V30 5665 H 540.493 4.79379 1.52332 0
M  V30 5666 H 540.193 5.87435 0.139123 0
M  V30 5667 H 541.717 6.01308 1.06117 0
M  V30 5668 H 543.131 5.61141 -1.17447 0
M  V30 5669 H 541.528 5.67071 -1.96343 0
M  V30 5670 H 542.598 4.28906 -2.26202 0
M  V30 5671 N 543.941 0.601185 1.45683 0
M  V30 5672 C 544.888 -0.121396 2.30481 0
M  V30 5673 C 545.858 -0.866232 1.41724 0
M  V30 5674 O 547.043 -0.85324 1.70659 0
M  V30 5675 C 544.183 -1.11704 3.26521 0
M  V30 5676 C 543.296 -0.373741 4.3038 0
M  V30 5677 C 542.431 -1.35854 5.13534 0
M  V30 5678 C 541.47 -0.602689 6.09126 0
M  V30 5679 N 540.607 -1.53645 6.85082 0
M  V30 5680 H 545.447 0.607732 2.91737 0
M  V30 5681 H 542.984 0.311502 1.43764 0
M  V30 5682 H 544.942 -1.70735 3.80664 0
M  V30 5683 H 543.572 -1.81366 2.67032 0
M  V30 5684 H 542.624 0.331962 3.78949 0
M  V30 5685 H 543.936 0.2163 4.98331 0
M  V30 5686 H 543.09 -2.02111 5.72046 0
M  V30 5687 H 541.829 -1.98251 4.45587 0
M  V30 5688 H 540.834 0.0735482 5.49751 0
M  V30 5689 H 542.059 0.0161467 6.79098 0
M  V30 5690 H 540.005 -2.14819 6.1983 0
M  V30 5691 H 539.922 -0.999688 7.49361 0
M  V30 5692 H 541.19 -2.1888 7.48139 0
M  V30 5693 N 545.419 -1.53889 0.339982 0
M  V30 5694 C 546.329 -2.28604 -0.526988 0
M  V30 5695 C 547.345 -1.33578 -1.11503 0
M  V30 5696 O 548.521 -1.66612 -1.13148 0
M  V30 5697 C 545.586 -3.04164 -1.66389 0
M  V30 5698 C 544.647 -4.14809 -1.10599 0
M  V30 5699 C 543.88 -4.86756 -2.18871 0
M  V30 5700 O 544.103 -4.58343 -3.39526 0
M  V30 5701 O 543.037 -5.73289 -1.83366 0
M  V30 5702 H 546.863 -3.03594 0.0802707 0
M  V30 5703 H 544.448 -1.4903 0.105141 0
M  V30 5704 H 546.33 -3.51427 -2.32544 0
M  V30 5705 H 545.005 -2.32035 -2.25703 0
M  V30 5706 H 543.912 -3.71857 -0.409067 0
M  V30 5707 H 545.245 -4.89029 -0.557771 0
M  V30 5708 N 546.897 -0.0685191 -1.57451 0
M  V30 5709 C 547.86 0.885173 -2.11417 0
M  V30 5710 C 548.86 1.22853 -1.03748 0
M  V30 5711 O 550.05 1.16235 -1.2975 0
M  V30 5712 C 547.182 2.18964 -2.61281 0
M  V30 5713 H 548.375 0.417034 -2.96986 0
M  V30 5714 H 545.928 0.18014 -1.55258 0
M  V30 5715 H 546.663 2.70321 -1.79156 0
M  V30 5716 H 546.448 1.9534 -3.39977 0
M  V30 5717 H 547.938 2.87242 -3.0312 0
M  V30 5718 N 548.375 1.56261 0.205012 0
M  V30 5719 C 549.621 1.80306 0.9283 0
M  V30 5720 C 549.954 0.640932 1.83319 0
M  V30 5721 O 549.229 -0.359032 1.91158 0
M  V30 5722 C 549.512 3.14547 1.75306 0
M  V30 5723 C 549.365 4.41236 0.873562 0
M  V30 5724 C 550.684 3.45382 2.72762 0
M  V30 5725 H 547.803 0.655929 0.336044 0
M  V30 5726 H 550.445 1.88984 0.196211 0
M  V30 5727 H 548.595 3.0728 2.37721 0
M  V30 5728 H 550.267 4.60539 0.264887 0
M  V30 5729 H 548.51 4.33427 0.179773 0
M  V30 5730 H 549.181 5.31639 1.48541 0
M  V30 5731 H 551.657 3.52884 2.20481 0
M  V30 5732 H 550.533 4.40449 3.2756 0
M  V30 5733 H 550.794 2.68377 3.51321 0
M  V30 5734 N 549.853 -0.472356 1.50355 0
M  V30 5735 C 550.8 -1.57051 1.69126 0
M  V30 5736 C 551.77 -1.5733 0.532574 0
M  V30 5737 O 552.955 -1.7488 0.762994 0
M  V30 5738 C 550.095 -2.95033 1.79024 0
M  V30 5739 C 549.208 -3.04552 3.06386 0
M  V30 5740 C 548.343 -4.33441 3.07087 0
M  V30 5741 C 547.382 -4.36697 4.28908 0
M  V30 5742 N 546.519 -5.57056 4.27356 0
M  V30 5743 H 551.359 -1.40351 2.62879 0
M  V30 5744 H 548.896 -0.682403 1.30314 0
M  V30 5745 H 550.854 -3.75048 1.82744 0
M  V30 5746 H 549.484 -3.10371 0.887109 0
M  V30 5747 H 548.536 -2.17419 3.12143 0
M  V30 5748 H 549.848 -3.02818 3.96362 0
M  V30 5749 H 549.002 -5.21801 3.09529 0
M  V30 5750 H 547.741 -4.37782 2.14939 0
M  V30 5751 H 546.746 -3.46734 4.2668 0
M  V30 5752 H 547.971 -4.34049 5.22282 0
M  V30 5753 H 545.917 -5.62184 3.3806 0
M  V30 5754 H 545.834 -5.57058 5.111 0
M  V30 5755 H 547.102 -6.47545 4.33942 0
M  V30 5756 N 551.331 -1.39911 -0.725443 0
M  V30 5757 C 552.279 -1.39552 -1.86086 0
M  V30 5758 C 553.273 -0.277334 -1.67114 0
M  V30 5759 O 554.479 -0.447865 -1.74339 0
M  V30 5760 H 550.854 -0.435993 -0.612711 0
M  V30 5761 H 552.825 -2.35305 -1.83505 0
M  V30 5762 C 551.574 -1.26529 -3.2386 0
M  V30 5763 H 550.897 -2.11845 -3.3906 0
M  V30 5764 H 552.337 -1.30336 -4.03471 0
M  V30 5765 C 550.796 0.0254168 -3.3689 0
M  V30 5766 O 551.326 0.992048 -3.89257 0
M  V30 5767 N 549.532 0.0916528 -2.90455 0
M  V30 5768 H 549.079 -0.695675 -2.48028 0
M  V30 5769 H 549.037 0.954745 -2.99553 0
M  V30 5770 N 552.809 0.956637 -1.25245 0
M  V30 5771 C 554.057 1.69764 -1.09657 0
M  V30 5772 C 554.378 1.91583 0.363464 0
M  V30 5773 O 553.648 1.50149 1.25825 0
M  V30 5774 H 552.228 0.629097 -0.402798 0
M  V30 5775 H 554.89 1.15026 -1.57337 0
M  V30 5776 H 553.986 2.67769 -1.60331 0
M  V30 5777 N 554.287 1.06798 1.15896 0
M  V30 5778 C 555.564 0.701057 1.82605 0
M  V30 5779 C 555.944 -0.817066 1.94646 0
M  V30 5780 O 555.292 -1.72933 1.49353 0
M  V30 5781 C 555.502 1.40895 3.19296 0
M  V30 5782 C 556.85 1.55744 3.95005 0
M  V30 5783 O 557.874 1.36927 3.28831 0
M  V30 5784 O 556.733 1.86658 5.13635 0
M  V30 5785 H 553.827 0.248791 0.78869 0
M  V30 5786 H 556.373 1.16857 1.23055 0
M  V30 5787 H 555.145 2.4439 3.05596 0
M  V30 5788 H 554.768 0.931847 3.86526 0
M  V30 5789 N 555.766 -1.3263 0.851289 0
M  V30 5790 C 557.015 -1.96633 0.449267 0
M  V30 5791 C 557.328 -1.68131 -0.999562 0
M  V30 5792 O 558.534 -2.25845 -1.50685 0
M  V30 5793 C 556.99 -3.51946 0.752446 0
M  V30 5794 C 556.598 -3.89311 2.21678 0
M  V30 5795 C 558.342 -4.22437 0.417983 0
M  V30 5796 C 556.249 -5.37655 2.46336 0
M  V30 5797 H 555.179 -0.735888 0.164269 0
M  V30 5798 H 557.83 -1.51073 1.0416 0
M  V30 5799 H 556.212 -3.95899 0.0895858 0
M  V30 5800 H 557.386 -3.56378 2.92115 0
M  V30 5801 H 555.701 -3.31836 2.51543 0
M  V30 5802 H 558.298 -5.31549 0.579674 0
M  V30 5803 H 558.641 -4.11349 -0.640115 0
M  V30 5804 H 559.174 -3.84057 1.03659 0
M  V30 5805 H 555.913 -5.5376 3.50757 0
M  V30 5806 H 555.433 -5.72005 1.80473 0
M  V30 5807 H 557.112 -6.04695 2.30115 0
M  V30 5808 N 557.244 -0.608902 -1.45362 0
M  V30 5809 C 558.655 -0.189511 -1.85736 0
M  V30 5810 C 559.006 1.2539 -1.50903 0
M  V30 5811 O 558.131 1.95094 -0.936347 0
M  V30 5812 C 558.726 -0.33716 -3.37118 0
M  V30 5813 C 557.285 0.0275487 -3.7639 0
M  V30 5814 C 556.432 -0.660983 -2.69307 0
M  V30 5815 H 559.383 -0.815499 -1.36144 0
M  V30 5816 H 559.404 0.430257 -3.7806 0
M  V30 5817 H 558.916 -1.38779 -3.62439 0
M  V30 5818 H 557.017 1.0773 -3.56686 0
M  V30 5819 H 557.13 -0.367018 -4.77692 0
M  V30 5820 H 555.494 -0.0984958 -2.54509 0
M  V30 5821 H 556.277 -1.71377 -2.97464 0
M  V30 5822 N 558.722 1.53707 -0.348139 0
M  V30 5823 C 559.632 2.28881 0.514857 0
M  V30 5824 C 560.648 1.34168 1.10793 0
M  V30 5825 O 561.824 1.6721 1.12262 0
M  V30 5826 C 558.889 3.05042 1.64774 0
M  V30 5827 C 557.95 4.15389 1.08398 0
M  V30 5828 C 557.183 4.87909 2.16287 0
M  V30 5829 O 557.406 4.60137 3.3709 0
M  V30 5830 O 556.34 5.74254 1.80323 0
M  V30 5831 H 560.166 3.03547 -0.0963699 0
M  V30 5832 H 557.751 1.48972 -0.113043 0
M  V30 5833 H 559.633 3.52656 2.30677 0
M  V30 5834 H 558.308 2.33228 2.24469 0
M  V30 5835 H 557.215 3.72068 0.389341 0
M  V30 5836 H 558.548 4.89318 0.531829 0
M  V30 5837 N 560.2 0.0768682 1.57412 0
M  V30 5838 C 561.132 -0.918248 2.10002 0
M  V30 5839 C 562.145 -1.25808 1.03325 0
M  V30 5840 O 563.334 -1.21438 1.30824 0
M  V30 5841 C 560.434 -2.23263 2.54964 0
M  V30 5842 C 559.607 -2.07088 3.8527 0
M  V30 5843 C 558.666 -3.21876 4.16272 0
M  V30 5844 O 557.692 -2.96643 4.8579 0
M  V30 5845 N 558.894 -4.4712 3.70221 0
M  V30 5846 H 561.659 -0.469209 2.96004 0
M  V30 5847 H 559.22 -0.108725 1.61535 0
M  V30 5848 H 561.212 -2.9897 2.72762 0
M  V30 5849 H 559.782 -2.59649 1.74072 0
M  V30 5850 H 559.002 -1.15818 3.76802 0
M  V30 5851 H 560.29 -1.93537 4.70554 0
M  V30 5852 H 559.688 -4.70506 3.1407 0
M  V30 5853 H 558.245 -5.19837 3.93209 0
M  V30 5854 N 561.678 -1.56367 -0.196722 0
M  V30 5855 C 562.61 -1.90941 -1.26784 0
M  V30 5856 C 563.623 -0.799928 -1.41792 0
M  V30 5857 O 564.812 -1.07833 -1.42247 0
M  V30 5858 C 561.912 -2.12477 -2.6402 0
M  V30 5859 C 561.085 -3.43616 -2.70641 0
M  V30 5860 C 560.144 -3.54284 -3.89062 0
M  V30 5861 O 559.17 -4.2712 -3.76241 0
M  V30 5862 N 560.372 -2.87252 -5.04447 0
M  V30 5863 H 563.137 -2.83417 -0.974417 0
M  V30 5864 H 560.698 -1.57215 -0.386649 0
M  V30 5865 H 562.69 -2.16904 -3.41665 0
M  V30 5866 H 561.26 -1.26508 -2.85857 0
M  V30 5867 H 560.48 -3.51072 -1.79283 0
M  V30 5868 H 561.768 -4.29958 -2.72054 0
M  V30 5869 H 561.166 -2.27901 -5.17762 0
M  V30 5870 H 559.723 -2.97308 -5.80044 0
M  V30 5871 N 563.156 0.464375 -1.50603 0
M  V30 5872 C 564.405 1.21277 -1.61167 0
M  V30 5873 C 564.718 1.92953 -0.320704 0
M  V30 5874 O 565.924 2.69778 -0.30534 0
M  V30 5875 C 564.38 2.20403 -2.84518 0
M  V30 5876 C 563.988 1.54499 -4.20516 0
M  V30 5877 C 565.732 2.95843 -3.0443 0
M  V30 5878 C 563.639 2.51951 -5.35047 0
M  V30 5879 H 562.569 0.456367 -0.600204 0
M  V30 5880 H 565.22 0.48254 -1.77042 0
M  V30 5881 H 563.602 2.96746 -2.62217 0
M  V30 5882 H 564.776 0.83899 -4.53098 0
M  V30 5883 H 563.091 0.913152 -4.06264 0
M  V30 5884 H 565.688 3.6879 -3.87167 0
M  V30 5885 H 566.031 3.55622 -2.16423 0
M  V30 5886 H 566.564 2.26611 -3.26944 0
M  V30 5887 H 563.303 1.96901 -6.25228 0
M  V30 5888 H 562.823 3.20683 -5.06875 0
M  V30 5889 H 564.502 3.13643 -5.65895 0
M  V30 5890 N 564.634 1.40294 0.718013 0
M  V30 5891 C 565.582 1.40536 1.85344 0
M  V30 5892 C 566.576 0.286192 1.66965 0
M  V30 5893 O 567.782 0.457105 1.74099 0
M  V30 5894 H 564.157 0.439236 0.61039 0
M  V30 5895 H 566.128 2.36275 1.82255 0
M  V30 5896 C 564.877 1.28245 3.23185 0
M  V30 5897 H 564.2 2.1364 3.37932 0
M  V30 5898 H 565.64 1.32474 4.02774 0
M  V30 5899 C 564.099 -0.0075503 3.36899 0
M  V30 5900 O 564.629 -0.971391 3.89778 0
M  V30 5901 N 562.835 -0.0762479 2.905 0
M  V30 5902 H 562.382 0.708819 2.47656 0
M  V30 5903 H 562.34 -0.938846 3.00055 0
M  V30 5904 N 566.112 -0.949982 1.2575 0
M  V30 5905 C 567.06 -2.06869 1.06339 0
M  V30 5906 C 568.054 -1.69399 -0.00708901 0
M  V30 5907 O 569.26 -1.79383 0.148897 0
M  V30 5908 H 565.635 -0.677197 0.326969 0
M  V30 5909 H 567.606 -2.20396 2.01167 0
M  V30 5910 C 566.355 -3.40503 0.703769 0
M  V30 5911 H 565.678 -3.69807 1.51931 0
M  V30 5912 H 567.118 -4.19623 0.607677 0
M  V30 5913 C 565.577 -3.31685 -0.5905 0
M  V30 5914 O 566.107 -3.67085 -1.63131 0
M  V30 5915 N 564.313 -2.84797 -0.577859 0
M  V30 5916 H 563.86 -2.56186 0.26951 0
M  V30 5917 H 563.818 -2.79279 -1.44398 0
M  V30 5918 N 567.59 -1.07411 -1.15328 0
M  V30 5919 C 568.815 -0.818856 -1.90551 0
M  V30 5920 C 569.24 0.622194 -1.77512 0
M  V30 5921 O 568.598 1.43484 -1.10824 0
M  V30 5922 C 568.646 -1.23267 -3.38877 0
M  V30 5923 O 567.75 -0.378345 -4.10661 0
M  V30 5924 H 567.091 -0.29827 -0.593238 0
M  V30 5925 H 569.621 -1.43289 -1.46046 0
M  V30 5926 H 569.631 -1.20912 -3.89672 0
M  V30 5927 H 568.306 -2.28226 -3.47686 0
M  V30 5928 H 566.883 -0.464437 -3.69996 0
M  V30 5929 N 569.068 1.32177 -0.85831 0
M  V30 5930 C 570.314 1.97417 -0.46417 0
M  V30 5931 C 570.647 1.67746 0.978514 0
M  V30 5932 O 569.922 0.967654 1.68721 0
M  V30 5933 C 570.205 3.53069 -0.708094 0
M  V30 5934 C 570.058 3.92357 -2.19946 0
M  V30 5935 C 571.377 4.39783 -0.166881 0
M  V30 5936 H 568.496 0.717097 -0.17012 0
M  V30 5937 H 571.138 1.56499 -1.07741 0
M  V30 5938 H 569.288 3.88054 -0.186128 0
M  V30 5939 H 570.96 3.67533 -2.78779 0
M  V30 5940 H 569.203 3.41384 -2.67656 0
M  V30 5941 H 569.874 5.00841 -2.32082 0
M  V30 5942 H 572.35 4.11556 -0.613285 0
M  V30 5943 H 571.226 5.47671 -0.367093 0
M  V30 5944 H 571.487 4.32196 0.930559 0
M  V30 5945 N 570.547 0.616602 1.45037 0
M  V30 5946 C 571.457 -0.0985401 2.34393 0
M  V30 5947 C 572.473 -0.850971 1.51771 0
M  V30 5948 O 573.649 -0.806521 1.84546 0
M  V30 5949 C 570.714 -1.07748 3.29532 0
M  V30 5950 C 569.775 -0.326022 4.2806 0
M  V30 5951 C 569.008 -1.25833 5.18654 0
M  V30 5952 O 569.231 -2.49652 5.12864 0
M  V30 5953 O 568.165 -0.750512 5.97203 0
M  V30 5954 H 571.991 0.636016 2.96966 0
M  V30 5955 H 569.576 0.376832 1.44569 0
M  V30 5956 H 571.458 -1.64107 3.88133 0
M  V30 5957 H 570.133 -1.79291 2.69512 0
M  V30 5958 H 569.04 0.280253 3.73049 0
M  V30 5959 H 570.373 0.349091 4.9096 0
M  V30 5960 N 572.025 -1.5352 0.356285 0
M  V30 5961 C 573.441 -1.59599 0.00485267 0
M  V30 5962 C 573.641 -1.37179 -1.47595 0
M  V30 5963 O 572.697 -1.17234 -2.23635 0
M  V30 5964 C 574.01 -2.97277 0.452454 0
M  V30 5965 C 575.558 -3.10357 0.405881 0
M  V30 5966 C 576.033 -4.50432 0.829148 0
M  V30 5967 N 577.524 -4.5652 0.783838 0
M  V30 5968 C 578.259 -5.63077 1.08315 0
M  V30 5969 N 577.755 -6.77429 1.45126 0
M  V30 5970 N 579.548 -5.53014 1.00655 0
M  V30 5971 H 571.699 -1.66346 1.32071 0
M  V30 5972 H 573.962 -0.77971 0.539218 0
M  V30 5973 H 573.668 -3.18792 1.48542 0
M  V30 5974 H 573.542 -3.76836 -0.165762 0
M  V30 5975 H 575.929 -2.88558 -0.617934 0
M  V30 5976 H 576.01 -2.32828 1.05947 0
M  V30 5977 H 575.654 -4.72968 1.85103 0
M  V30 5978 H 575.584 -5.26378 0.152906 0
M  V30 5979 H 578.075 -3.74408 0.512513 0
M  V30 5980 H 578.388 -7.54669 1.66415 0
M  V30 5981 H 576.733 -6.78844 1.48983 0
M  V30 5982 H 579.924 -4.62557 0.718215 0
M  V30 5983 H 580.097 -6.35964 1.24315 0
M  V30 5984 N 573.503 -0.0852151 -1.57369 0
M  V30 5985 C 574.752 0.580443 -1.93168 0
M  V30 5986 C 575.065 1.6995 -0.968319 0
M  V30 5987 O 576.271 2.42564 -1.21963 0
M  V30 5988 C 574.727 1.08386 -3.43192 0
M  V30 5989 C 574.335 -0.00491388 -4.48 0
M  V30 5990 C 576.079 1.72281 -3.87968 0
M  V30 5991 C 573.986 0.513299 -5.89168 0
M  V30 5992 H 572.916 0.22059 -0.72101 0
M  V30 5993 H 575.567 -0.159621 -1.82804 0
M  V30 5994 H 573.949 1.8773 -3.48674 0
M  V30 5995 H 575.123 -0.780032 -4.5415 0
M  V30 5996 H 573.438 -0.548453 -4.12772 0
M  V30 5997 H 576.035 2.12108 -4.9083 0
M  V30 5998 H 576.378 2.58811 -3.26071 0
M  V30 5999 H 576.911 0.995359 -3.85146 0
M  V30 6000 H 573.65 -0.315153 -6.54742 0
M  V30 6001 H 573.17 1.25564 -5.8651 0
M  V30 6002 H 574.849 0.985433 -6.39451 0
M  V30 6003 N 574.981 1.5647 0.188427 0
M  V30 6004 C 576.23 1.80207 0.905995 0
M  V30 6005 C 576.543 0.659579 1.84144 0
M  V30 6006 O 577.749 0.781431 2.60011 0
M  V30 6007 C 576.205 3.19255 1.66145 0
M  V30 6008 C 575.813 4.41324 0.770504 0
M  V30 6009 C 577.557 3.52298 2.36826 0
M  V30 6010 C 575.464 5.71394 1.52521 0
M  V30 6011 H 574.394 0.671953 0.342045 0
M  V30 6012 H 577.045 1.82808 0.159164 0
M  V30 6013 H 575.427 3.10922 2.45242 0
M  V30 6014 H 576.601 4.60797 0.0177261 0
M  V30 6015 H 574.916 4.16035 0.174199 0
M  V30 6016 H 577.513 4.46715 2.93854 0
M  V30 6017 H 577.856 2.76359 3.11338 0
M  V30 6018 H 578.389 3.62108 1.6469 0
M  V30 6019 H 575.128 6.50316 0.82275 0
M  V30 6020 H 574.648 5.55928 2.25175 0
M  V30 6021 H 576.327 6.12747 2.07725 0
M  V30 6022 N 576.459 -0.456382 1.50847 0
M  V30 6023 C 577.684 -1.2349 1.66628 0
M  V30 6024 C 578.109 -1.84715 0.355254 0
M  V30 6025 O 577.467 -1.67961 -0.682559 0
M  V30 6026 C 577.515 -2.30865 2.77009 0
M  V30 6027 O 576.619 -3.35882 2.39285 0
M  V30 6028 H 575.96 -0.36266 0.556214 0
M  V30 6029 H 578.49 -0.541374 1.97308 0
M  V30 6030 H 578.5 -2.75949 3.00526 0
M  V30 6031 H 577.175 -1.85677 3.72152 0
M  V30 6032 H 575.752 -2.96406 2.26269 0
M  V30 6033 N 577.937 -1.40673 -0.710563 0
M  V30 6034 C 578.867 -1.44095 -1.83736 0
M  V30 6035 C 579.848 -0.301286 -1.67411 0
M  V30 6036 O 581.033 -0.510618 -1.87367 0
M  V30 6037 C 578.163 -1.30773 -3.21738 0
M  V30 6038 C 577.117 -2.42395 -3.52745 0
M  V30 6039 C 576.443 -2.14147 -4.89944 0
M  V30 6040 C 577.743 -3.84738 -3.53234 0
M  V30 6041 H 579.437 -2.38396 -1.81129 0
M  V30 6042 H 576.983 -1.14746 -0.870017 0
M  V30 6043 H 578.936 -1.31783 -4.00264 0
M  V30 6044 H 577.66 -0.329507 -3.24934 0
M  V30 6045 H 576.319 -2.40643 -2.76562 0
M  V30 6046 H 575.967 -1.14703 -4.89747 0
M  V30 6047 H 575.667 -2.88934 -5.11655 0
M  V30 6048 H 577.191 -2.16848 -5.70797 0
M  V30 6049 H 578.605 -3.88286 -4.2179 0
M  V30 6050 H 577.002 -4.59085 -3.86473 0
M  V30 6051 H 578.072 -4.13962 -2.52514 0
M  V30 6052 N 579.415 0.9433 -1.26252 0
M  V30 6053 C 580.362 2.0417 -1.07625 0
M  V30 6054 C 581.332 1.6609 0.0180738 0
M  V30 6055 O 582.517 1.90276 -0.141289 0
M  V30 6056 C 579.657 3.37653 -0.713043 0
M  V30 6057 C 578.77 3.88783 -1.8834 0
M  V30 6058 C 577.905 5.10642 -1.4635 0
M  V30 6059 C 576.944 5.54028 -2.60229 0
M  V30 6060 N 576.081 6.67092 -2.18936 0
M  V30 6061 H 580.921 2.19436 -2.01623 0
M  V30 6062 H 578.458 1.07519 -1.00389 0
M  V30 6063 H 580.416 4.14391 -0.483358 0
M  V30 6064 H 579.046 3.22241 0.18996 0
M  V30 6065 H 578.098 3.08464 -2.22608 0
M  V30 6066 H 579.41 4.16922 -2.73821 0
M  V30 6067 H 578.564 5.94832 -1.19414 0
M  V30 6068 H 577.303 4.84244 -0.579568 0
M  V30 6069 H 576.308 4.68396 -2.87898 0
M  V30 6070 H 577.533 5.82429 -3.49219 0
M  V30 6071 H 575.479 6.42381 -1.32974 0
M  V30 6072 H 575.396 6.94806 -2.97961 0
M  V30 6073 H 576.664 7.54662 -1.95206 0
M  V30 6074 N 580.893 1.08022 1.14757 0
M  V30 6075 C 582.142 0.802468 1.8505 0
M  V30 6076 C 582.455 -0.674061 1.83619 0
M  V30 6077 O 583.661 -1.06683 2.49662 0
M  V30 6078 C 582.117 1.38551 3.32162 0
M  V30 6079 C 581.725 2.89354 3.42021 0
M  V30 6080 C 583.469 1.18608 4.07594 0
M  V30 6081 C 581.376 3.40815 4.83321 0
M  V30 6082 H 580.306 0.296518 0.693248 0
M  V30 6083 H 582.957 1.30114 1.29393 0
M  V30 6084 H 581.339 0.814556 3.87532 0
M  V30 6085 H 582.513 3.52552 2.96722 0
M  V30 6086 H 580.828 3.08165 2.80041 0
M  V30 6087 H 583.425 1.54525 5.11885 0
M  V30 6088 H 583.768 0.125599 4.1611 0
M  V30 6089 H 584.301 1.72375 3.58513 0
M  V30 6090 H 581.04 4.46418 4.79991 0
M  V30 6091 H 580.56 2.82374 5.29174 0
M  V30 6092 H 582.239 3.37171 5.522 0
M  V30 6093 N 582.371 -1.3172 0.865308 0
M  V30 6094 C 583.318 -2.2863 0.315736 0
M  V30 6095 C 584.288 -1.55524 -0.583213 0
M  V30 6096 O 585.473 -1.83694 -0.51585 0
M  V30 6097 C 582.613 -3.41735 -0.480773 0
M  V30 6098 C 581.726 -4.297 0.445167 0
M  V30 6099 C 580.861 -5.29944 -0.365012 0
M  V30 6100 C 579.9 -6.09554 0.557651 0
M  V30 6101 N 579.037 -7.01768 -0.215994 0
M  V30 6102 H 583.877 -2.75026 1.14736 0
M  V30 6103 H 581.414 -1.35302 0.577209 0
M  V30 6104 H 583.372 -4.06045 -0.958306 0
M  V30 6105 H 582.002 -2.96461 -1.27714 0
M  V30 6106 H 581.054 -3.65875 1.04113 0
M  V30 6107 H 582.366 -4.85295 1.15284 0
M  V30 6108 H 581.52 -5.99908 -0.905255 0
M  V30 6109 H 580.259 -4.74994 -1.106 0
M  V30 6110 H 579.264 -5.38485 1.10969 0
M  V30 6111 H 580.489 -6.66591 1.29742 0
M  V30 6112 H 578.435 -6.49232 -0.939878 0
M  V30 6113 H 578.352 -7.54762 0.432431 0
M  V30 6114 H 579.62 -7.76002 -0.737618 0
M  V30 6115 N 583.85 -0.624285 -1.44708 0
M  V30 6116 C 585.266 -0.289322 -1.56956 0
M  V30 6117 C 585.466 1.20773 -1.61295 0
M  V30 6118 O 584.522 1.9915 -1.55227 0
M  V30 6119 C 585.835 -0.975215 -2.84447 0
M  V30 6120 C 587.383 -0.952709 -2.98148 0
M  V30 6121 C 587.858 -1.61893 -4.28433 0
M  V30 6122 N 589.349 -1.5852 -4.35231 0
M  V30 6123 C 590.084 -2.06969 -5.34744 0
M  V30 6124 N 589.58 -2.63579 -6.40701 0
M  V30 6125 N 591.373 -1.97638 -5.26209 0
M  V30 6126 H 583.524 -1.59612 -1.40135 0
M  V30 6127 H 585.787 -0.669592 -0.671081 0
M  V30 6128 H 585.493 -2.02999 -2.87201 0
M  V30 6129 H 585.367 -0.508749 -3.73753 0
M  V30 6130 H 587.754 0.093568 -2.94952 0
M  V30 6131 H 587.835 -1.4576 -2.10209 0
M  V30 6132 H 587.479 -2.66463 -4.32389 0
M  V30 6133 H 587.409 -1.08893 -5.15218 0
M  V30 6134 H 589.899 -1.17183 -3.59272 0
M  V30 6135 H 590.213 -2.98298 -7.12908 0
M  V30 6136 H 588.558 -2.67626 -6.41406 0
M  V30 6137 H 591.749 -1.5314 -4.42341 0
M  V30 6138 H 591.922 -2.35708 -6.03611 0
M  V30 6139 N 585.328 1.53329 -0.364422 0
M  V30 6140 C 586.576 2.00842 0.225189 0
M  V30 6141 C 586.897 1.25345 1.49378 0
M  V30 6142 O 586.167 0.366396 1.92443 0
M  V30 6143 H 584.747 0.742009 0.0862027 0
M  V30 6144 H 587.409 1.8863 -0.490389 0
M  V30 6145 H 586.505 3.08795 0.452987 0
M  V30 6146 N 586.806 0.0935595 1.57322 0
M  V30 6147 C 587.739 -0.902505 2.09595 0
M  V30 6148 C 588.717 -1.27732 1.00615 0
M  V30 6149 O 589.901 -1.38283 1.28102 0
M  V30 6150 C 587.028 -2.20416 2.57166 0
M  V30 6151 C 586.074 -1.97932 3.7779 0
M  V30 6152 S 586.907 -1.21873 5.21447 0
M  V30 6153 C 588.063 -2.53273 5.72367 0
M  V30 6154 H 588.296 -0.457797 2.93754 0
M  V30 6155 H 585.829 -0.119694 1.53935 0
M  V30 6156 H 587.787 -2.95217 2.85232 0
M  V30 6157 H 586.448 -2.62008 1.73235 0
M  V30 6158 H 585.641 -2.94316 4.09138 0
M  V30 6159 H 585.243 -1.3126 3.5021 0
M  V30 6160 H 587.535 -3.49256 5.8054 0
M  V30 6161 H 588.478 -2.26505 6.70896 0
M  V30 6162 H 588.886 -2.61475 5.00291 0
M  V30 6163 N 588.284 -1.56567 -0.180126 0
M  V30 6164 C 589.514 -1.85349 -0.912647 0
M  V30 6165 C 589.922 -0.675795 -1.76719 0
M  V30 6166 O 589.265 0.3645 -1.80047 0
M  V30 6167 C 589.327 -3.08431 -1.84691 0
M  V30 6168 C 588.991 -4.41694 -1.17284 0
M  V30 6169 C 589.988 -5.17062 -0.542532 0
M  V30 6170 C 587.673 -4.8843 -1.17223 0
M  V30 6171 C 589.667 -6.37351 0.0793953 0
M  V30 6172 C 587.354 -6.08652 -0.54647 0
M  V30 6173 C 588.352 -6.82955 0.0782458 0
M  V30 6174 O 588.04 -8.00897 0.694158 0
M  V30 6175 H 587.772 -0.619286 -0.271036 0
M  V30 6176 H 590.326 -2.0454 -0.187768 0
M  V30 6177 H 588.556 -2.85163 -2.61188 0
M  V30 6178 H 590.245 -3.23733 -2.44851 0
M  V30 6179 H 591.011 -4.8204 -0.535045 0
M  V30 6180 H 586.89 -4.30542 -1.64788 0
M  V30 6181 H 590.434 -6.95287 0.567612 0
M  V30 6182 H 586.331 -6.4314 -0.55151 0
M  V30 6183 H 587.099 -8.16352 0.592537 0
M  V30 6184 N 589.762 0.448376 -1.51087 0
M  V30 6185 C 591.173 1.0286 -1.5581 0
M  V30 6186 C 591.524 1.92583 -0.374989 0
M  V30 6187 O 590.649 2.10316 0.509533 0
M  V30 6188 C 591.244 1.87223 -2.8237 0
M  V30 6189 C 589.803 2.40314 -2.897 0
M  V30 6190 C 588.95 1.19238 -2.50355 0
M  V30 6191 H 591.901 0.230075 -1.57023 0
M  V30 6192 H 591.922 2.72553 -2.6551 0
M  V30 6193 H 591.434 1.21894 -3.68461 0
M  V30 6194 H 589.535 3.09129 -2.08014 0
M  V30 6195 H 589.648 2.73866 -3.93108 0
M  V30 6196 H 588.012 1.53428 -2.03303 0
M  V30 6197 H 588.795 0.555367 -3.38778 0
M  V30 6198 N 591.24 1.41047 0.703093 0
M  V30 6199 C 592.203 1.42036 1.79884 0
M  V30 6200 C 593.203 0.312153 1.57741 0
M  V30 6201 O 594.393 0.571672 1.64553 0
M  V30 6202 C 591.525 1.22437 3.18154 0
M  V30 6203 H 592.718 2.39572 1.80403 0
M  V30 6204 H 590.271 1.27079 0.909977 0
M  V30 6205 H 591.006 0.257112 3.23279 0
M  V30 6206 H 590.791 2.02723 3.35627 0
M  V30 6207 H 592.281 1.25946 3.98155 0
M  V30 6208 N 592.718 -0.936591 1.26751 0
M  V30 6209 C 594.134 -1.21095 1.03963 0
M  V30 6210 C 594.334 -2.00156 -0.232372 0
M  V30 6211 O 593.39 -2.3434 -0.940274 0
M  V30 6212 C 594.703 -1.96775 2.27377 0
M  V30 6213 C 596.251 -2.09749 2.32324 0
M  V30 6214 C 596.726 -2.88832 3.55443 0
M  V30 6215 N 598.217 -2.96404 3.55948 0
M  V30 6216 C 598.952 -3.58036 4.47881 0
M  V30 6217 N 598.448 -4.21132 5.50109 0
M  V30 6218 N 600.241 -3.55353 4.35523 0
M  V30 6219 H 592.392 -0.408173 2.08441 0
M  V30 6220 H 594.655 -0.243139 0.91629 0
M  V30 6221 H 594.361 -1.46094 3.19921 0
M  V30 6222 H 594.235 -2.97424 2.31989 0
M  V30 6223 H 596.622 -2.5962 1.40291 0
M  V30 6224 H 596.703 -1.08347 2.31721 0
M  V30 6225 H 596.347 -2.39647 4.47808 0
M  V30 6226 H 596.277 -3.90499 3.53296 0
M  V30 6227 H 598.768 -2.51552 2.82011 0
M  V30 6228 H 599.081 -4.66071 6.16439 0
M  V30 6229 H 597.426 -4.19705 5.53961 0
M  V30 6230 H 600.617 -3.05256 3.54875 0
M  V30 6231 H 600.79 -4.03097 5.07363 0
M  V30 6232 N 594.196 -1.08629 -1.14182 0
M  V30 6233 C 595.144 -0.71284 -2.21408 0
M  V30 6234 C 596.138 0.282457 -1.67029 0
M  V30 6235 O 597.344 0.144783 -1.79417 0
M  V30 6236 H 593.719 -0.212497 -0.721352 0
M  V30 6237 H 595.69 -1.6265 -2.50175 0
M  V30 6238 C 594.439 -0.140704 -3.47415 0
M  V30 6239 H 593.762 -0.897739 -3.8959 0
M  V30 6240 H 595.202 0.0827677 -4.23919 0
M  V30 6241 C 593.661 1.122 -3.17668 0
M  V30 6242 O 594.191 2.20652 -3.35672 0
M  V30 6243 N 592.397 1.03328 -2.71609 0
M  V30 6244 H 591.944 0.150666 -2.57159 0
M  V30 6245 H 591.902 1.8789 -2.52081 0
M  V30 6246 N 595.674 1.31259 -0.872281 0
M  V30 6247 C 596.899 2.0133 -0.498099 0
M  V30 6248 C 597.324 1.65031 0.902568 0
M  V30 6249 O 596.682 0.860164 1.59596 0
M  V30 6250 C 596.73 3.54411 -0.665205 0
M  V30 6251 O 595.834 4.11347 0.294473 0
M  V30 6252 H 595.175 0.633844 -0.197832 0
M  V30 6253 H 597.705 1.67402 -1.17633 0
M  V30 6254 H 597.715 4.04147 -0.559373 0
M  V30 6255 H 596.39 3.80171 -1.68651 0
M  V30 6256 H 594.967 3.72624 0.143403 0
M  V30 6257 N 597.152 0.631951 1.44375 0
M  V30 6258 C 598.429 0.067646 1.95483 0
M  V30 6259 C 598.809 -1.40683 1.57389 0
M  V30 6260 O 598.157 -2.12167 0.848375 0
M  V30 6261 C 598.367 0.291392 3.47781 0
M  V30 6262 C 599.715 0.185028 4.24197 0
M  V30 6263 O 600.739 0.222803 3.55503 0
M  V30 6264 O 599.598 0.0906642 5.46425 0
M  V30 6265 H 596.692 -0.0218379 0.826712 0
M  V30 6266 H 599.238 0.703711 1.54421 0
M  V30 6267 H 598.01 1.31449 3.68561 0
M  V30 6268 H 597.633 -0.378772 3.95792 0
M  V30 6269 N 598.631 -1.53133 0.372548 0
M  V30 6270 C 599.856 -2.0625 -0.218098 0
M  V30 6271 C 600.281 -1.24375 -1.41111 0
M  V30 6272 O 599.639 -0.264554 -1.79359 0
M  V30 6273 C 599.687 -3.55858 -0.582876 0
M  V30 6274 O 598.791 -3.76667 -1.67917 0
M  V30 6275 H 598.132 -0.663317 -0.030104 0
M  V30 6276 H 600.662 -1.97477 0.535169 0
M  V30 6277 H 600.672 -3.99007 -0.851925 0
M  V30 6278 H 599.347 -4.14892 0.289428 0
M  V30 6279 H 597.924 -3.45413 -1.40513 0
M  V30 6280 N 600.109 -0.101901 -1.5727 0
M  V30 6281 C 601.337 0.568392 -1.98939 0
M  V30 6282 C 601.752 1.61301 -0.981194 0
M  V30 6283 O 601.109 1.82478 0.0282869 0
M  V30 6284 C 601.16 1.20997 -3.40649 0
M  V30 6285 O 600.881 0.207129 -4.3761 0
M  V30 6286 C 602.382 1.96523 -3.97358 0
M  V30 6287 H 599.602 0.15186 -0.65359 0
M  V30 6288 H 602.146 -0.183198 -2.03678 0
M  V30 6289 H 600.301 1.91245 -3.36904 0
M  V30 6290 H 600.715 0.671071 -5.20189 0
M  V30 6291 H 602.189 2.36764 -4.98645 0
M  V30 6292 H 602.666 2.83376 -3.35552 0
M  V30 6293 H 603.272 1.31076 -4.04598 0
M  V30 6294 N 601.587 1.56661 0.17182 0
M  V30 6295 C 602.534 1.96371 1.21273 0
M  V30 6296 C 603.504 0.82756 1.44016 0
M  V30 6297 O 604.689 1.08764 1.56764 0
M  V30 6298 C 601.829 2.32838 2.54716 0
M  V30 6299 C 600.942 3.59628 2.39356 0
M  V30 6300 C 600.077 3.85311 3.65662 0
M  V30 6301 C 599.116 5.0545 3.45234 0
M  V30 6302 N 598.253 5.27268 4.63608 0
M  V30 6303 H 603.093 2.85106 0.86709 0
M  V30 6304 H 600.63 1.41073 0.416744 0
M  V30 6305 H 602.588 2.52004 3.3249 0
M  V30 6306 H 601.218 1.47214 2.87277 0
M  V30 6307 H 600.27 3.4838 1.52761 0
M  V30 6308 H 601.582 4.4756 2.20207 0
M  V30 6309 H 600.736 4.04841 4.51872 0
M  V30 6310 H 599.475 2.95753 3.8779 0
M  V30 6311 H 598.48 4.85819 2.5741 0
M  V30 6312 H 599.705 5.96538 3.24529 0
M  V30 6313 H 597.651 4.40662 4.85956 0
M  V30 6314 H 597.568 6.09422 4.4737 0
M  V30 6315 H 598.836 5.51277 5.51103 0
M  V30 6316 N 603.065 -0.440357 1.51323 0
M  V30 6317 C 603.975 -1.55955 1.75258 0
M  V30 6318 C 604.991 -1.61933 0.636687 0
M  V30 6319 O 606.167 -1.79231 0.918593 0
M  V30 6320 C 603.232 -2.9196 1.86977 0
M  V30 6321 C 602.293 -2.96122 3.10822 0
M  V30 6322 C 601.526 -4.2564 3.21973 0
M  V30 6323 O 601.749 -5.17851 2.39137 0
M  V30 6324 O 600.683 -4.36025 4.14929 0
M  V30 6325 H 604.509 -1.38673 2.70191 0
M  V30 6326 H 602.094 -0.623055 1.35788 0
M  V30 6327 H 603.976 -3.72682 1.96688 0
M  V30 6328 H 602.651 -3.09375 0.952307 0
M  V30 6329 H 601.558 -2.14366 3.06591 0
M  V30 6330 H 602.891 -2.83651 4.02247 0
M  V30 6331 N 604.543 -1.41418 -0.695603 0
M  V30 6332 C 605.49 -1.43264 -1.80954 0
M  V30 6333 C 606.46 -0.287016 -1.63601 0
M  V30 6334 O 607.645 -0.488054 -1.84452 0
M  V30 6335 C 604.785 -1.32054 -3.18835 0
M  V30 6336 C 603.898 -2.56485 -3.4762 0
M  V30 6337 C 603.033 -2.3757 -4.75115 0
M  V30 6338 C 602.072 -3.57477 -4.96867 0
M  V30 6339 N 601.209 -3.37632 -6.15588 0
M  V30 6340 H 606.049 -2.38467 -1.78711 0
M  V30 6341 H 603.586 -1.18415 -0.872715 0
M  V30 6342 H 605.544 -1.23558 -3.98484 0
M  V30 6343 H 604.174 -0.404592 -3.20254 0
M  V30 6344 H 603.226 -2.75432 -2.62376 0
M  V30 6345 H 604.538 -3.45678 -3.59594 0
M  V30 6346 H 603.692 -2.2654 -5.62818 0
M  V30 6347 H 602.431 -1.45834 -4.65386 0
M  V30 6348 H 601.436 -3.68961 -4.07612 0
M  V30 6349 H 602.661 -4.50167 -5.08455 0
M  V30 6350 H 600.607 -2.48596 -6.07072 0
M  V30 6351 H 600.524 -4.20401 -6.2833 0
M  V30 6352 H 601.792 -3.30375 -7.06026 0
M  V30 6353 N 606.021 0.929856 -1.27246 0
M  V30 6354 C 607.27 1.67182 -1.12842 0
M  V30 6355 C 607.583 1.9287 0.325666 0
M  V30 6356 O 608.789 2.64999 0.590572 0
M  V30 6357 C 607.245 3.01097 -1.97151 0
M  V30 6358 C 606.853 2.83115 -3.47203 0
M  V30 6359 C 608.597 3.78907 -1.91389 0
M  V30 6360 C 606.504 4.12573 -4.23719 0
M  V30 6361 H 605.434 0.627064 -0.418697 0
M  V30 6362 H 608.085 1.0332 -1.51649 0
M  V30 6363 H 606.467 3.66004 -1.51186 0
M  V30 6364 H 607.641 2.26989 -4.01015 0
M  V30 6365 H 605.956 2.18736 -3.54321 0
M  V30 6366 H 608.553 4.74837 -2.45834 0
M  V30 6367 H 608.896 4.0674 -0.887047 0
M  V30 6368 H 609.429 3.20794 -2.35237 0
M  V30 6369 H 606.168 3.8992 -5.26918 0
M  V30 6370 H 605.688 4.68371 -3.74685 0
M  V30 6371 H 607.367 4.8095 -4.32777 0
M  V30 6372 N 607.499 1.09233 1.13605 0
M  V30 6373 C 608.462 0.733553 2.17144 0
M  V30 6374 C 609.462 -0.235873 1.59061 0
M  V30 6375 O 610.652 -0.0143167 1.74194 0
M  V30 6376 C 607.784 0.084471 3.40795 0
M  V30 6377 H 608.977 1.65049 2.50397 0
M  V30 6378 H 606.53 0.891264 1.28399 0
M  V30 6379 H 607.265 -0.843795 3.1313 0
M  V30 6380 H 607.05 0.781985 3.84223 0
M  V30 6381 H 608.54 -0.151216 4.17326 0
M  V30 6382 N 608.977 -1.30795 0.87923 0
M  V30 6383 C 609.924 -2.28282 0.339968 0
M  V30 6384 C 610.894 -1.56134 -0.566685 0
M  V30 6385 O 612.079 -1.84231 -0.496338 0
M  V30 6386 C 609.219 -3.42225 -0.444501 0
M  V30 6387 C 608.332 -4.29204 0.490717 0
M  V30 6388 C 607.467 -5.30302 -0.308784 0
M  V30 6389 C 606.506 -6.08929 0.622272 0
M  V30 6390 N 605.643 -7.01957 -0.14155 0
M  V30 6391 H 610.483 -2.73794 1.17647 0
M  V30 6392 H 608.02 -1.34682 0.591527 0
M  V30 6393 H 609.978 -4.07038 -0.915186 0
M  V30 6394 H 608.608 -2.97799 -1.24562 0
M  V30 6395 H 607.66 -3.6475 1.07988 0
M  V30 6396 H 608.972 -4.84045 1.20425 0
M  V30 6397 H 608.126 -6.00835 -0.841575 0
M  V30 6398 H 606.865 -4.7614 -1.05556 0
M  V30 6399 H 605.87 -5.37278 1.16674 0
M  V30 6400 H 607.095 -6.65178 1.36804 0
M  V30 6401 H 605.041 -6.50192 -0.870966 0
M  V30 6402 H 604.958 -7.54261 0.51246 0
M  V30 6403 H 606.226 -7.76741 -0.655271 0
M  V30 6404 N 610.455 -0.639598 -1.44038 0
M  V30 6405 C 611.418 0.0506628 -2.29144 0
M  V30 6406 C 612.418 0.764001 -1.41491 0
M  V30 6407 O 613.608 0.607309 -1.63271 0
M  V30 6408 C 610.74 1.0824 -3.2326 0
M  V30 6409 H 611.933 -0.697987 -2.91664 0
M  V30 6410 H 609.486 -0.400146 -1.51091 0
M  V30 6411 H 610.221 1.86075 -2.65606 0
M  V30 6412 H 610.006 0.574725 -3.87865 0
M  V30 6413 H 611.496 1.56487 -3.87171 0
M  V30 6414 N 611.933 1.52934 -0.380664 0
M  V30 6415 C 612.88 2.26197 0.458641 0
M  V30 6416 C 613.85 1.27462 1.06502 0
M  V30 6417 O 615.035 1.56274 1.09467 0
M  V30 6418 C 612.175 3.06571 1.58456 0
M  V30 6419 C 611.288 4.20222 1.00189 0
M  V30 6420 C 610.423 4.88007 2.09815 0
M  V30 6421 C 609.462 5.93665 1.49092 0
M  V30 6422 N 608.599 6.55081 2.52613 0
M  V30 6423 H 613.439 2.975 -0.172595 0
M  V30 6424 H 610.976 1.4678 -0.0969426 0
M  V30 6425 H 612.934 3.51455 2.24801 0
M  V30 6426 H 611.564 2.37494 2.18624 0
M  V30 6427 H 610.616 3.79714 0.228292 0
M  V30 6428 H 611.928 4.96102 0.518064 0
M  V30 6429 H 611.082 5.36151 2.83948 0
M  V30 6430 H 609.821 4.11632 2.61555 0
M  V30 6431 H 608.826 5.44868 0.7348 0
M  V30 6432 H 610.051 6.71969 0.981582 0
M  V30 6433 H 607.997 5.8155 3.03538 0
M  V30 6434 H 607.914 7.26548 2.08961 0
M  V30 6435 H 609.182 7.07871 3.26402 0
M  V30 6436 N 613.412 0.11024 1.57214 0
M  V30 6437 C 614.359 -0.843195 2.14846 0
M  V30 6438 C 615.329 -1.26954 1.07107 0
M  V30 6439 O 616.514 -1.34861 1.34971 0
M  V30 6440 C 613.654 -2.09123 2.74521 0
M  V30 6441 C 612.767 -1.71404 3.96541 0
M  V30 6442 C 611.902 -2.91107 4.44331 0
M  V30 6443 C 610.941 -2.49586 5.58903 0
M  V30 6444 N 610.078 -3.62175 6.01477 0
M  V30 6445 H 614.918 -0.344886 2.95998 0
M  V30 6446 H 612.455 -0.15855 1.46243 0
M  V30 6447 H 614.413 -2.82234 3.07246 0
M  V30 6448 H 613.043 -2.56427 1.96074 0
M  V30 6449 H 612.095 -0.88201 3.70033 0
M  V30 6450 H 613.407 -1.36884 4.7965 0
M  V30 6451 H 612.561 -3.72454 4.78919 0
M  V30 6452 H 611.3 -3.28848 3.60153 0
M  V30 6453 H 610.305 -1.6667 5.23929 0
M  V30 6454 H 611.53 -2.12973 6.4484 0
M  V30 6455 H 609.476 -3.99605 5.20242 0
M  V30 6456 H 609.393 -3.3155 6.79419 0
M  V30 6457 H 610.661 -4.43987 6.407 0
M  V30 6458 N 614.89 -1.56749 -0.16351 0
M  V30 6459 C 616.139 -1.81626 -0.877211 0
M  V30 6460 C 616.452 -0.688791 -1.83071 0
M  V30 6461 O 617.658 -0.822697 -2.58735 0
M  V30 6462 C 616.114 -3.21858 -1.61045 0
M  V30 6463 C 615.722 -4.42494 -0.700195 0
M  V30 6464 C 617.466 -3.56021 -2.31192 0
M  V30 6465 C 615.373 -5.73748 -1.43412 0
M  V30 6466 H 614.303 -0.67731 -0.331312 0
M  V30 6467 H 616.954 -1.83039 -0.13006 0
M  V30 6468 H 615.336 -3.14784 -2.40264 0
M  V30 6469 H 616.51 -4.60766 0.0555849 0
M  V30 6470 H 614.825 -4.1626 -0.10799 0
M  V30 6471 H 617.422 -4.51333 -2.8671 0
M  V30 6472 H 617.765 -2.81277 -3.06902 0
M  V30 6473 H 618.298 -3.64682 -1.58909 0
M  V30 6474 H 615.037 -6.51543 -0.719186 0
M  V30 6475 H 614.557 -5.5944 -2.16302 0
M  V30 6476 H 616.236 -6.15975 -1.9795 0
M  V30 6477 N 616.368 0.432326 -1.51554 0
M  V30 6478 C 617.614 1.18309 -1.64714 0
M  V30 6479 C 617.947 1.90745 -0.364696 0
M  V30 6480 O 617.222 1.8381 0.635936 0
M  V30 6481 C 617.505 2.1961 -2.85383 0
M  V30 6482 C 617.358 1.51223 -4.23617 0
M  V30 6483 C 618.677 3.20538 -3.01569 0
M  V30 6484 H 615.796 0.428751 -0.599451 0
M  V30 6485 H 618.438 0.471689 -1.84052 0
M  V30 6486 H 616.588 2.8028 -2.69027 0
M  V30 6487 H 618.26 0.938516 -4.51652 0
M  V30 6488 H 616.503 0.814501 -4.26085 0
M  V30 6489 H 617.174 2.25024 -5.04052 0
M  V30 6490 H 619.65 2.69926 -3.16669 0
M  V30 6491 H 618.526 3.88706 -3.87555 0
M  V30 6492 H 618.787 3.86933 -2.13859 0
M  V30 6493 N 617.846 1.41785 0.688094 0
M  V30 6494 C 619.094 1.41264 1.4453 0
M  V30 6495 C 619.415 0.0252946 1.94984 0
M  V30 6496 O 618.685 -0.934081 1.72197 0
M  V30 6497 H 617.265 0.519998 0.536294 0
M  V30 6498 H 619.927 1.7709 0.813941 0
M  V30 6499 H 619.023 2.10439 2.30482 0
M  V30 6500 N 619.324 -0.923095 1.27737 0
M  V30 6501 C 620.549 -1.71054 1.17283 0
M  V30 6502 C 620.974 -1.86208 -0.266153 0
M  V30 6503 O 620.332 -1.36545 -1.1927 0
M  V30 6504 C 620.38 -3.0854 1.86642 0
M  V30 6505 O 619.484 -3.95528 1.16752 0
M  V30 6506 H 618.825 -0.524136 0.407649 0
M  V30 6507 H 621.355 -1.15487 1.6889 0
M  V30 6508 H 621.365 -3.58828 1.94182 0
M  V30 6509 H 620.04 -2.96828 2.91317 0
M  V30 6510 H 618.617 -3.53967 1.17312 0
M  V30 6511 N 620.802 -1.09834 -1.13024 0
M  V30 6512 C 621.749 -0.741522 -2.18564 0
M  V30 6513 C 622.719 0.279236 -1.63736 0
M  V30 6514 O 623.904 0.159923 -1.90129 0
M  V30 6515 C 621.044 -0.17277 -3.44667 0
M  V30 6516 C 620.157 -1.24808 -4.13578 0
M  V30 6517 C 619.292 -0.641631 -5.27311 0
M  V30 6518 C 618.331 -1.69795 -5.88078 0
M  V30 6519 N 617.468 -1.11223 -6.93234 0
M  V30 6520 H 622.308 -1.64576 -2.48432 0
M  V30 6521 H 619.845 -0.822174 -1.21978 0
M  V30 6522 H 621.803 0.17482 -4.16834 0
M  V30 6523 H 620.433 0.694725 -3.15235 0
M  V30 6524 H 619.485 -1.71288 -3.39653 0
M  V30 6525 H 620.797 -2.04795 -4.54819 0
M  V30 6526 H 619.951 -0.243128 -6.06213 0
M  V30 6527 H 618.69 0.189742 -4.87331 0
M  V30 6528 H 617.695 -2.10595 -5.07868 0
M  V30 6529 H 618.92 -2.53206 -6.3013 0
M  V30 6530 H 616.866 -0.302208 -6.55304 0
M  V30 6531 H 616.783 -1.84901 -7.3304 0
M  V30 6532 H 618.051 -0.740068 -7.75979 0
M  V30 6533 N 622.28 1.30327 -0.886154 0
M  V30 6534 C 623.212 2.27079 -0.311072 0
M  V30 6535 C 624.225 1.53758 0.53502 0
M  V30 6536 O 625.414 1.74947 0.354378 0
M  V30 6537 C 622.514 3.33965 0.576228 0
M  V30 6538 C 621.687 4.36735 -0.241064 0
M  V30 6539 C 620.746 5.23028 0.576916 0
M  V30 6540 O 619.772 5.692 -0.000802231 0
M  V30 6541 N 620.974 5.49016 1.88579 0
M  V30 6542 H 623.739 2.77065 -1.14259 0
M  V30 6543 H 621.3 1.43519 -0.749258 0
M  V30 6544 H 623.292 3.88618 1.12953 0
M  V30 6545 H 621.862 2.839 1.30842 0
M  V30 6546 H 621.082 3.81932 -0.975805 0
M  V30 6547 H 622.37 5.02451 -0.801272 0
M  V30 6548 H 621.768 5.13288 2.37806 0
M  V30 6549 H 620.325 6.06539 2.38651 0
M  V30 6550 N 623.758 0.647228 1.43697 0
M  V30 6551 C 624.708 -0.0702191 2.27892 0
M  V30 6552 C 625.692 -0.800601 1.39568 0
M  V30 6553 O 626.884 -0.684055 1.63247 0
M  V30 6554 C 624.013 -1.04008 3.27165 0
M  V30 6555 C 623.099 -0.308484 4.22977 0
M  V30 6556 N 623.49 0.671721 5.0132 0
M  V30 6557 C 621.788 -0.550751 4.42586 0
M  V30 6558 C 622.489 1.10543 5.711 0
M  V30 6559 N 621.465 0.440903 5.41809 0
M  V30 6560 H 625.267 0.682031 2.85877 0
M  V30 6561 H 622.781 0.474022 1.55328 0
M  V30 6562 H 624.778 -1.56881 3.86256 0
M  V30 6563 H 623.438 -1.79246 2.70742 0
M  V30 6564 H 624.449 1.0502 5.0714 0
M  V30 6565 H 621.126 -1.28476 3.97241 0
M  V30 6566 H 622.516 1.91614 6.43998 0
M  V30 6567 N 625.236 -1.5273 0.388769 0
M  V30 6568 C 626.166 -2.29353 -0.438111 0
M  V30 6569 C 627.147 -1.32719 -1.06394 0
M  V30 6570 O 628.332 -1.61612 -1.07681 0
M  V30 6571 C 625.462 -3.09995 -1.56589 0
M  V30 6572 C 624.416 -4.14509 -1.06613 0
M  V30 6573 C 623.742 -4.83372 -2.28594 0
M  V30 6574 C 625.042 -5.22127 -0.134459 0
M  V30 6575 H 626.736 -2.98723 0.201206 0
M  V30 6576 H 624.282 -1.43665 0.0982089 0
M  V30 6577 H 626.235 -3.62357 -2.15118 0
M  V30 6578 H 624.959 -2.38357 -2.23279 0
M  V30 6579 H 623.618 -3.63128 -0.503383 0
M  V30 6580 H 623.266 -4.08283 -2.93792 0
M  V30 6581 H 622.966 -5.54012 -1.95817 0
M  V30 6582 H 624.49 -5.38538 -2.87766 0
M  V30 6583 H 625.904 -5.69851 -0.627914 0
M  V30 6584 H 624.301 -6.00011 0.103534 0
M  V30 6585 H 625.371 -4.77971 0.816798 0
M  V30 6586 N 626.714 -0.118576 -1.57153 0
M  V30 6587 C 627.661 0.831789 -2.1529 0
M  V30 6588 C 628.631 1.26385 -1.07778 0
M  V30 6589 O 629.816 1.34144 -1.35684 0
M  V30 6590 C 626.956 2.07664 -2.75626 0
M  V30 6591 C 626.069 1.69298 -3.97444 0
M  V30 6592 C 625.204 2.88747 -4.45868 0
M  V30 6593 C 624.243 2.46619 -5.60219 0
M  V30 6594 N 623.38 3.5898 -6.03389 0
M  V30 6595 H 628.22 0.329183 -2.96176 0
M  V30 6596 H 625.757 0.150792 -1.46325 0
M  V30 6597 H 627.715 2.80601 -3.08738 0
M  V30 6598 H 626.345 2.55384 -1.97431 0
M  V30 6599 H 625.397 0.862374 -3.70496 0
M  V30 6600 H 626.709 1.34338 -4.80369 0
M  V30 6601 H 625.863 3.69909 -4.80887 0
M  V30 6602 H 624.602 3.26933 -3.61892 0
M  V30 6603 H 623.607 1.63889 -5.24805 0
M  V30 6604 H 624.832 2.0955 -6.45961 0
M  V30 6605 H 622.778 3.9684 -5.22354 0
M  V30 6606 H 622.695 3.27942 -6.81168 0
M  V30 6607 H 623.963 4.40583 -6.43045 0
M  V30 6608 N 628.193 1.56834 0.155195 0
M  V30 6609 C 629.156 1.96748 1.17571 0
M  V30 6610 C 630.156 0.853006 1.3631 0
M  V30 6611 O 631.346 1.11978 1.33441 0
M  V30 6612 C 628.478 2.27631 2.53765 0
M  V30 6613 H 629.671 2.88085 0.833498 0
M  V30 6614 H 627.224 1.51141 0.398242 0
M  V30 6615 H 627.959 1.39059 2.92973 0
M  V30 6616 H 627.744 3.0888 2.41527 0
M  V30 6617 H 629.234 2.59377 3.27282 0
M  V30 6618 N 629.671 -0.424282 1.51781 0
M  V30 6619 C 630.581 -1.54087 1.76902 0
M  V30 6620 C 631.597 -1.61249 0.653826 0
M  V30 6621 O 632.773 -1.78247 0.937552 0
M  V30 6622 C 629.838 -2.8996 1.90063 0
M  V30 6623 C 628.899 -2.92809 3.13945 0
M  V30 6624 C 628.132 -4.22201 3.26469 0
M  V30 6625 O 628.355 -5.15286 2.44616 0
M  V30 6626 O 627.289 -4.31599 4.1953 0
M  V30 6627 H 631.115 -1.358 2.71647 0
M  V30 6628 H 628.7 -0.608618 1.36441 0
M  V30 6629 H 630.582 -3.70575 2.0063 0
M  V30 6630 H 629.257 -3.08347 0.985067 0
M  V30 6631 H 628.164 -2.11102 3.08847 0
M  V30 6632 H 629.497 -2.79369 4.05233 0
M  V30 6633 N 631.149 -1.42148 -0.680565 0
M  V30 6634 C 632.096 -1.45175 -1.79424 0
M  V30 6635 C 633.066 -0.304352 -1.63288 0
M  V30 6636 O 634.251 -0.507591 -1.83924 0
M  V30 6637 C 631.391 -1.35429 -3.17416 0
M  V30 6638 C 630.504 -2.60158 -3.4488 0
M  V30 6639 C 629.639 -2.42596 -4.72568 0
M  V30 6640 C 628.678 -3.62727 -4.93047 0
M  V30 6641 N 627.815 -3.44143 -6.11973 0
M  V30 6642 H 632.655 -2.40349 -1.76172 0
M  V30 6643 H 630.192 -1.19334 -0.860107 0
M  V30 6644 H 632.15 -1.27777 -3.97151 0
M  V30 6645 H 630.78 -0.438536 -3.19807 0
M  V30 6646 H 629.832 -2.78199 -2.5944 0
M  V30 6647 H 631.144 -3.49473 -3.55908 0
M  V30 6648 H 630.298 -2.32497 -5.60384 0
M  V30 6649 H 629.037 -1.50761 -4.63813 0
M  V30 6650 H 628.042 -3.73264 -4.03676 0
M  V30 6651 H 629.267 -4.55534 -5.03652 0
M  V30 6652 H 627.213 -2.5502 -6.04401 0
M  V30 6653 H 627.13 -4.27041 -6.23836 0
M  V30 6654 H 628.398 -3.37845 -7.02482 0
M  V30 6655 N 632.627 0.916307 -1.28225 0
M  V30 6656 C 633.574 2.01841 -1.11932 0
M  V30 6657 C 634.544 1.66091 -0.0171604 0
M  V30 6658 O 635.729 1.89934 -0.181617 0
M  V30 6659 C 632.869 3.36065 -0.784504 0
M  V30 6660 C 631.982 3.847 -1.96544 0
M  V30 6661 C 631.117 5.07423 -1.57149 0
M  V30 6662 C 630.156 5.48384 -2.71922 0
M  V30 6663 N 629.293 6.62298 -2.33037 0
M  V30 6664 H 634.133 2.1511 -2.06232 0
M  V30 6665 H 631.67 1.05366 -1.02647 0
M  V30 6666 H 633.628 4.13272 -0.571148 0
M  V30 6667 H 632.258 3.22571 0.121565 0
M  V30 6668 H 631.31 3.03673 -2.291 0
M  V30 6669 H 632.622 4.1102 -2.82603 0
M  V30 6670 H 631.776 5.92165 -1.32004 0
M  V30 6671 H 630.515 4.82906 -0.682153 0
M  V30 6672 H 629.52 4.62184 -2.97768 0
M  V30 6673 H 630.745 5.7489 -3.61494 0
M  V30 6674 H 628.691 6.39416 -1.4657 0
M  V30 6675 H 628.608 6.8833 -3.12631 0
M  V30 6676 H 629.876 7.50352 -2.11169 0
M  V30 6677 N 634.105 1.10431 1.1244 0
M  V30 6678 C 635.035 0.775143 2.20258 0
M  V30 6679 C 636.016 -0.25186 1.68225 0
M  V30 6680 O 637.201 -0.117637 1.93843 0
M  V30 6681 C 634.331 0.206133 3.46688 0
M  V30 6682 C 633.285 1.16382 4.11873 0
M  V30 6683 C 632.611 0.456014 5.32752 0
M  V30 6684 C 633.911 2.5104 4.58013 0
M  V30 6685 H 635.605 1.67665 2.4805 0
M  V30 6686 H 633.151 0.807595 1.19222 0
M  V30 6687 H 635.104 -0.036291 4.21384 0
M  V30 6688 H 633.828 -0.730614 3.18323 0
M  V30 6689 H 632.487 1.39169 3.39157 0
M  V30 6690 H 632.135 -0.485203 5.00654 0
M  V30 6691 H 631.835 1.09466 5.77314 0
M  V30 6692 H 633.359 0.222135 6.10196 0
M  V30 6693 H 634.773 2.32401 5.24083 0
M  V30 6694 H 633.17 3.10789 5.13352 0
M  V30 6695 H 634.24 3.11039 3.71998 0
M  V30 6696 N 635.583 -1.29855 0.893053 0
M  V30 6697 C 636.546 -2.26183 0.370687 0
M  V30 6698 C 637.546 -1.53108 -0.491385 0
M  V30 6699 O 638.736 -1.71643 -0.297386 0
M  V30 6700 C 635.868 -3.37633 -0.470827 0
M  V30 6701 H 637.061 -2.73903 1.22135 0
M  V30 6702 H 634.614 -1.41183 0.67061 0
M  V30 6703 H 635.349 -2.95241 -1.34175 0
M  V30 6704 H 635.134 -3.91825 0.146784 0
M  V30 6705 H 636.624 -4.09313 -0.827825 0
M  V30 6706 N 637.061 -0.65484 -1.43351 0
M  V30 6707 C 637.971 0.0363603 -2.34572 0
M  V30 6708 C 638.987 0.810432 -1.53974 0
M  V30 6709 O 640.163 0.757308 -1.86619 0
M  V30 6710 C 637.228 0.989733 -3.32273 0
M  V30 6711 C 636.289 0.212414 -4.28774 0
M  V30 6712 C 635.522 1.12038 -5.21808 0
M  V30 6713 O 635.745 2.35967 -5.19303 0
M  V30 6714 O 634.679 0.59191 -5.98982 0
M  V30 6715 H 638.505 -0.714527 -2.95175 0
M  V30 6716 H 636.09 -0.415029 -1.4352 0
M  V30 6717 H 637.972 1.53759 -3.92347 0
M  V30 6718 H 636.647 1.72082 -2.74171 0
M  V30 6719 H 635.554 -0.379062 -3.72175 0
M  V30 6720 H 636.887 -0.479138 -4.89862 0
M  V30 6721 N 638.539 1.52521 -0.396863 0
M  V30 6722 C 639.486 2.26671 0.434624 0
M  V30 6723 C 640.456 1.28584 1.05144 0
M  V30 6724 O 641.641 1.57426 1.07804 0
M  V30 6725 C 638.781 3.08234 1.55196 0
M  V30 6726 C 637.894 4.21261 0.957262 0
M  V30 6727 C 637.029 4.90205 2.04627 0
M  V30 6728 C 636.068 5.95213 1.42787 0
M  V30 6729 N 635.205 6.57723 2.45651 0
M  V30 6730 H 640.045 2.973 -0.204139 0
M  V30 6731 H 637.582 1.46669 -0.112505 0
M  V30 6732 H 639.54 3.53819 2.2106 0
M  V30 6733 H 638.17 2.398 2.16092 0
M  V30 6734 H 637.222 3.79935 0.188005 0
M  V30 6735 H 638.534 4.96624 0.465416 0
M  V30 6736 H 637.688 5.39133 2.78246 0
M  V30 6737 H 636.427 4.14383 2.57174 0
M  V30 6738 H 635.432 5.45616 0.676968 0
M  V30 6739 H 636.657 6.72972 0.910255 0
M  V30 6740 H 634.603 5.84737 2.97353 0
M  V30 6741 H 634.52 7.28723 2.01243 0
M  V30 6742 H 635.788 7.11293 3.18876 0
M  V30 6743 N 640.017 0.126909 1.57088 0
M  V30 6744 C 640.98 -0.806097 2.14557 0
M  V30 6745 C 641.98 -1.18918 1.08236 0
M  V30 6746 O 643.17 -1.11339 1.33975 0
M  V30 6747 C 640.302 -2.09116 2.69227 0
M  V30 6748 H 641.495 -0.306522 2.98329 0
M  V30 6749 H 639.048 -0.122393 1.5582 0
M  V30 6750 H 639.783 -2.63486 1.89065 0
M  V30 6751 H 639.568 -1.82588 3.46993 0
M  V30 6752 H 641.058 -2.75794 3.13572 0
M  V30 6753 N 641.495 -1.56914 -0.146875 0
M  V30 6754 C 642.741 -1.83628 -0.860741 0
M  V30 6755 C 643.074 -0.708528 -1.80813 0
M  V30 6756 O 642.349 0.287838 -1.92358 0
M  V30 6757 C 642.632 -3.20836 -1.63511 0
M  V30 6758 C 642.485 -4.44174 -0.709199 0
M  V30 6759 C 643.804 -3.55268 -2.59756 0
M  V30 6760 H 640.923 -0.667949 -0.311468 0
M  V30 6761 H 643.565 -1.89582 -0.125936 0
M  V30 6762 H 641.715 -3.15891 -2.26153 0
M  V30 6763 H 643.387 -4.61205 -0.0937781 0
M  V30 6764 H 641.63 -4.33796 -0.0187856 0
M  V30 6765 H 642.301 -5.36785 -1.28707 0
M  V30 6766 H 644.777 -3.60824 -2.07232 0
M  V30 6767 H 643.653 -4.52303 -3.10987 0
M  V30 6768 H 643.914 -2.81231 -3.41118 0
M  V30 6769 N 642.974 0.416227 -1.52004 0
M  V30 6770 C 644.202 1.18573 -1.69553 0
M  V30 6771 C 644.617 1.84472 -0.401919 0
M  V30 6772 O 643.974 1.71593 0.621463 0
M  V30 6773 C 644.025 2.25413 -2.82615 0
M  V30 6774 O 643.746 1.62205 -4.06966 0
M  V30 6775 C 645.247 3.15297 -3.11613 0
M  V30 6776 H 642.467 0.356582 -0.56841 0
M  V30 6777 H 645.011 0.490618 -1.98528 0
M  V30 6778 H 643.166 2.90604 -2.56179 0
M  V30 6779 H 643.58 2.3298 -4.69916 0
M  V30 6780 H 645.054 3.86351 -3.94255 0
M  V30 6781 H 645.531 3.77264 -2.24874 0
M  V30 6782 H 646.137 2.55783 -3.39787 0
M  V30 6783 N 644.452 1.42507 0.673017 0
M  V30 6784 C 645.698 1.43284 1.43519 0
M  V30 6785 C 646.031 0.049668 1.94136 0
M  V30 6786 O 645.306 -0.926369 1.71022 0
M  V30 6787 C 645.589 2.45874 2.63093 0
M  V30 6788 C 645.442 3.93388 2.18096 0
M  V30 6789 C 646.761 2.45431 3.6531 0
M  V30 6790 H 643.88 0.521752 0.520522 0
M  V30 6791 H 646.522 1.73932 0.764701 0
M  V30 6792 H 644.672 2.19869 3.20296 0
M  V30 6793 H 646.344 4.30379 1.66046 0
M  V30 6794 H 644.587 4.07169 1.49652 0
M  V30 6795 H 645.258 4.60752 3.03993 0
M  V30 6796 H 647.734 2.68561 3.17827 0
M  V30 6797 H 646.61 3.19189 4.46553 0
M  V30 6798 H 646.871 1.48092 4.16559 0
M  V30 6799 N 645.93 -0.909495 1.28709 0
M  V30 6800 C 646.86 -2.0291 1.15542 0
M  V30 6801 C 647.841 -1.7002 0.0521017 0
M  V30 6802 O 649.026 -1.92835 0.229849 0
M  V30 6803 C 646.156 -3.37458 0.820935 0
M  V30 6804 C 645.11 -3.84524 1.87949 0
M  V30 6805 C 644.436 -5.16086 1.39854 0
M  V30 6806 C 645.736 -4.05918 3.28676 0
M  V30 6807 H 647.43 -2.14183 2.09203 0
M  V30 6808 H 644.976 -1.02913 1.00722 0
M  V30 6809 H 646.929 -4.1528 0.715571 0
M  V30 6810 H 645.653 -3.26249 -0.151374 0
M  V30 6811 H 644.312 -3.08911 1.97408 0
M  V30 6812 H 643.96 -5.01284 0.41518 0
M  V30 6813 H 643.66 -5.48547 2.1064 0
M  V30 6814 H 645.184 -5.96459 1.30649 0
M  V30 6815 H 646.598 -4.74252 3.22115 0
M  V30 6816 H 644.995 -4.49717 3.97334 0
M  V30 6817 H 646.065 -3.10583 3.72379 0
M  V30 6818 N 647.408 -1.11026 -1.11852 0
M  V30 6819 C 648.355 -0.764662 -2.17765 0
M  V30 6820 C 649.325 0.261854 -1.64023 0
M  V30 6821 O 650.51 0.139748 -1.90288 0
M  V30 6822 C 647.65 -0.209317 -3.44465 0
M  V30 6823 C 646.763 -1.29187 -4.12231 0
M  V30 6824 C 645.898 -0.697523 -5.266 0
M  V30 6825 C 644.937 -1.76023 -5.86244 0
M  V30 6826 N 644.074 -1.18569 -6.92016 0
M  V30 6827 H 648.914 -1.67202 -2.46673 0
M  V30 6828 H 646.451 -0.835065 -1.21099 0
M  V30 6829 H 648.409 0.130599 -4.16996 0
M  V30 6830 H 647.039 0.661251 -3.15955 0
M  V30 6831 H 646.091 -1.74881 -3.37818 0
M  V30 6832 H 647.403 -2.09607 -4.52622 0
M  V30 6833 H 646.557 -0.307412 -6.05921 0
M  V30 6834 H 645.296 0.138044 -4.87505 0
M  V30 6835 H 644.301 -2.1597 -5.05606 0
M  V30 6836 H 645.526 -2.59875 -6.27409 0
M  V30 6837 H 643.472 -0.371695 -6.54946 0
M  V30 6838 H 643.389 -1.92666 -7.31038 0
M  V30 6839 H 644.657 -0.82233 -7.7515 0
M  V30 6840 N 648.886 1.2938 -0.899927 0
M  V30 6841 C 649.834 2.29675 -0.367698 0
M  V30 6842 C 650.828 1.60787 0.533282 0
M  V30 6843 O 652.034 1.75126 0.416058 0
M  V30 6844 H 648.409 0.745284 -0.100279 0
M  V30 6845 H 650.38 2.72008 -1.22696 0
M  V30 6846 C 649.129 3.45512 0.389483 0
M  V30 6847 H 648.452 3.98713 -0.294575 0
M  V30 6848 H 649.892 4.17725 0.726744 0
M  V30 6849 C 648.351 2.969 1.59223 0
M  V30 6850 O 648.881 2.98195 2.69152 0
M  V30 6851 N 647.087 2.52728 1.43447 0
M  V30 6852 H 646.634 2.51873 0.540148 0
M  V30 6853 H 646.592 2.20561 2.24054 0
M  V30 6854 N 650.364 0.662433 1.43002 0
M  V30 6855 C 651.274 -0.0239199 2.34588 0
M  V30 6856 C 652.29 -0.802255 1.54402 0
M  V30 6857 O 653.466 -0.747401 1.87018 0
M  V30 6858 C 650.531 -0.972098 3.32793 0
M  V30 6859 C 649.592 -0.189673 4.28881 0
M  V30 6860 C 648.825 -1.09269 5.22395 0
M  V30 6861 O 649.048 -2.33209 5.20547 0
M  V30 6862 O 647.982 -0.560136 5.99288 0
M  V30 6863 H 651.808 0.730171 2.94792 0
M  V30 6864 H 649.393 0.422635 1.43297 0
M  V30 6865 H 651.275 -1.51676 3.93157 0
M  V30 6866 H 649.95 -1.70626 2.75079 0
M  V30 6867 H 648.857 0.398794 3.71968 0
M  V30 6868 H 650.19 0.50511 4.89601 0
M  V30 6869 N 651.842 -1.52309 0.404946 0
M  V30 6870 C 652.774 -2.24579 -0.45791 0
M  V30 6871 C 653.787 -1.2739 -1.01369 0
M  V30 6872 O 654.976 -1.53363 -0.91335 0
M  V30 6873 C 652.076 -2.9608 -1.64893 0
M  V30 6874 C 651.249 -4.20106 -1.21777 0
M  V30 6875 C 650.308 -4.74468 -2.27523 0
M  V30 6876 O 649.334 -5.37157 -1.88285 0
M  V30 6877 N 650.536 -4.55678 -3.59635 0
M  V30 6878 H 653.301 -2.99265 0.161341 0
M  V30 6879 H 650.862 -1.60228 0.232107 0
M  V30 6880 H 652.854 -3.29344 -2.35191 0
M  V30 6881 H 651.424 -2.24606 -2.17419 0
M  V30 6882 H 650.644 -3.92704 -0.343071 0
M  V30 6883 H 651.932 -5.00658 -0.906596 0
M  V30 6884 H 651.33 -4.05673 -3.94266 0
M  V30 6885 H 649.887 -4.9339 -4.25922 0
M  V30 6886 N 653.32 -0.135238 -1.57019 0
M  V30 6887 C 654.27 0.820408 -2.12728 0
M  V30 6888 C 655.254 1.21735 -1.05211 0
M  V30 6889 O 656.446 1.18574 -1.31413 0
M  V30 6890 C 653.575 2.06414 -2.74314 0
M  V30 6891 C 652.661 1.69083 -3.88937 0
M  V30 6892 N 653.052 1.0251 -4.95303 0
M  V30 6893 C 651.35 1.98434 -3.99425 0
M  V30 6894 C 652.051 0.846749 -5.75504 0
M  V30 6895 N 651.027 1.3769 -5.25873 0
M  V30 6896 H 654.829 0.302426 -2.9234 0
M  V30 6897 H 652.343 0.0667009 -1.62263 0
M  V30 6898 H 654.34 2.75863 -3.12579 0
M  V30 6899 H 653 2.58741 -1.96171 0
M  V30 6900 H 654.011 0.687207 -5.1332 0
M  V30 6901 H 650.688 2.52693 -3.32344 0
M  V30 6902 H 652.078 0.322949 -6.71123 0
M  V30 6903 N 654.798 1.5699 0.138552 0
M  V30 6904 C 656.026 1.87976 0.864437 0
M  V30 6905 C 656.441 0.724372 1.74351 0
M  V30 6906 O 655.798 -0.305575 1.79924 0
M  V30 6907 C 655.849 3.18276 1.71414 0
M  V30 6908 O 655.57 4.29365 0.870487 0
M  V30 6909 C 657.071 3.62834 2.54688 0
M  V30 6910 H 654.291 0.622878 0.249528 0
M  V30 6911 H 656.835 2.04094 0.128805 0
M  V30 6912 H 654.99 3.03886 2.40274 0
M  V30 6913 H 655.404 5.03924 1.45466 0
M  V30 6914 H 656.878 4.5682 3.0987 0
M  V30 6915 H 657.355 2.88533 3.31127 0
M  V30 6916 H 657.961 3.79946 1.91105 0
M  V30 6917 N 656.276 -0.40816 1.52223 0
M  V30 6918 C 657.206 -1.5042 1.78595 0
M  V30 6919 C 658.187 -1.57723 0.636974 0
M  V30 6920 O 659.372 -1.72982 0.882664 0
M  V30 6921 C 656.502 -2.88232 1.93751 0
M  V30 6922 C 655.456 -2.95779 3.09352 0
M  V30 6923 C 654.782 -4.35855 3.09732 0
M  V30 6924 C 656.082 -2.67175 4.48793 0
M  V30 6925 H 657.776 -1.28601 2.70374 0
M  V30 6926 H 655.322 -0.617221 1.30101 0
M  V30 6927 H 657.275 -3.64895 2.10783 0
M  V30 6928 H 655.999 -3.11347 0.986443 0
M  V30 6929 H 654.658 -2.21561 2.92072 0
M  V30 6930 H 654.306 -4.55981 2.12346 0
M  V30 6931 H 654.006 -4.41829 3.87377 0
M  V30 6932 H 655.53 -5.14451 3.28895 0
M  V30 6933 H 656.944 -3.3356 4.66273 0
M  V30 6934 H 655.341 -2.84523 5.28362 0
M  V30 6935 H 656.411 -1.62609 4.56822 0
M  V30 6936 N 657.755 -1.42862 -0.66545 0
M  V30 6937 C 659.166 -1.3901 -1.24632 0
M  V30 6938 C 659.517 -0.0880285 -1.96002 0
M  V30 6939 O 658.642 0.812947 -2.0055 0
M  V30 6940 C 659.237 -2.51806 -2.2667 0
M  V30 6941 C 657.796 -2.51257 -2.80262 0
M  V30 6942 C 656.943 -2.30124 -1.5472 0
M  V30 6943 H 659.894 -1.5194 -0.458237 0
M  V30 6944 H 659.915 -2.22593 -3.08598 0
M  V30 6945 H 659.427 -3.46558 -1.74697 0
M  V30 6946 H 657.528 -1.60349 -3.36332 0
M  V30 6947 H 657.641 -3.48614 -3.28641 0
M  V30 6948 H 656.005 -1.7856 -1.81627 0
M  V30 6949 H 656.788 -3.26945 -1.04699 0
M  V30 6950 N 659.233 0.902656 -1.29189 0
M  V30 6951 C 660.48 1.65287 -1.16989 0
M  V30 6952 C 660.808 1.92485 0.279232 0
M  V30 6953 O 660.063 1.53143 1.21843 0
M  V30 6954 C 660.362 3.011 -1.92545 0
M  V30 6955 C 660.028 2.93521 -3.42281 0
M  V30 6956 C 658.69 2.91161 -3.83117 0
M  V30 6957 C 661.042 2.82947 -4.3771 0
M  V30 6958 C 658.37 2.76043 -5.17704 0
M  V30 6959 C 660.722 2.69368 -5.72384 0
M  V30 6960 C 659.386 2.65373 -6.12482 0
M  V30 6961 H 658.656 0.604828 -0.428094 0
M  V30 6962 H 661.303 1.05084 -1.60092 0
M  V30 6963 H 659.608 3.65153 -1.42024 0
M  V30 6964 H 661.305 3.58073 -1.80512 0
M  V30 6965 H 657.895 2.96158 -3.09819 0
M  V30 6966 H 662.079 2.83849 -4.07116 0
M  V30 6967 H 657.335 2.71352 -5.47885 0
M  V30 6968 H 661.509 2.60156 -6.45981 0
M  V30 6969 H 659.136 2.53415 -7.16718 0
M  V30 6970 N 660.711 1.11618 1.11262 0
M  V30 6971 C 661.658 0.7762 2.17356 0
M  V30 6972 C 662.628 -0.253152 1.6416 0
M  V30 6973 O 663.813 -0.129655 1.90359 0
M  V30 6974 C 660.953 0.227581 3.44349 0
M  V30 6975 C 660.066 1.31372 4.1154 0
M  V30 6976 C 659.201 0.72544 5.26223 0
M  V30 6977 C 658.24 1.7913 5.85302 0
M  V30 6978 N 657.377 1.22237 6.91377 0
M  V30 6979 H 662.217 1.68508 2.45783 0
M  V30 6980 H 659.754 0.841475 1.20655 0
M  V30 6981 H 661.712 -0.108483 4.17059 0
M  V30 6982 H 660.342 -0.644486 3.16301 0
M  V30 6983 H 659.394 1.7667 3.36885 0
M  V30 6984 H 660.706 2.12005 4.51504 0
M  V30 6985 H 659.86 0.339541 6.05749 0
M  V30 6986 H 658.599 -0.112188 4.87571 0
M  V30 6987 H 657.604 2.18648 5.04453 0
M  V30 6988 H 658.829 2.63199 6.26022 0
M  V30 6989 H 656.775 0.406423 6.5474 0
M  V30 6990 H 656.692 1.9654 7.30006 0
M  V30 6991 H 657.96 0.863426 7.74703 0
M  V30 6992 N 662.189 -1.289 0.906776 0
M  V30 6993 C 663.6 -1.77336 0.58384 0
M  V30 6994 C 663.951 -1.74304 -0.900697 0
M  V30 6995 O 663.076 -1.33335 -1.70443 0
M  V30 6996 C 663.671 -3.22019 1.05304 0
M  V30 6997 C 662.23 -3.68205 0.781148 0
M  V30 6998 C 661.377 -2.48837 1.22373 0
M  V30 6999 H 664.328 -1.15462 1.08877 0
M  V30 7000 H 664.349 -3.78481 0.391414 0
M  V30 7001 H 663.861 -3.24194 2.13353 0
M  V30 7002 H 661.962 -3.71497 -0.28643 0
M  V30 7003 H 662.075 -4.58675 1.384 0
M  V30 7004 H 660.439 -2.46461 0.642594 0
M  V30 7005 H 661.222 -2.53736 2.31242 0
M  V30 7006 N 663.667 -0.670007 -1.42649 0
M  V30 7007 C 664.614 0.0112928 -2.30797 0
M  V30 7008 C 665.584 0.797627 -1.45695 0
M  V30 7009 O 666.769 0.770845 -1.74535 0
M  V30 7010 C 663.909 0.95998 -3.31479 0
M  V30 7011 C 663.022 0.167975 -4.31673 0
M  V30 7012 C 662.157 1.11198 -5.19431 0
M  V30 7013 C 661.196 0.311381 -6.11307 0
M  V30 7014 N 660.333 1.20784 -6.91633 0
M  V30 7015 H 665.173 -0.746231 -2.88505 0
M  V30 7016 H 662.71 -0.379739 -1.42114 0
M  V30 7017 H 664.668 1.52379 -3.88377 0
M  V30 7018 H 663.298 1.68419 -2.75382 0
M  V30 7019 H 662.35 -0.512385 -3.76933 0
M  V30 7020 H 663.662 -0.453814 -4.96731 0
M  V30 7021 H 662.816 1.74587 -5.81037 0
M  V30 7022 H 661.555 1.76766 -4.54538 0
M  V30 7023 H 660.56 -0.335758 -5.48774 0
M  V30 7024 H 661.785 -0.340135 -6.78248 0
M  V30 7025 H 659.731 1.85001 -6.29373 0
M  V30 7026 H 659.648 0.64102 -7.53277 0
M  V30 7027 H 660.916 1.82936 -7.5773 0
M  V30 7028 N 665.145 1.52092 -0.413018 0
M  V30 7029 C 666.092 2.27119 0.410558 0
M  V30 7030 C 667.062 1.29692 1.03774 0
M  V30 7031 O 668.247 1.58561 1.06128 0
M  V30 7032 C 665.387 3.09863 1.51918 0
M  V30 7033 C 664.5 4.22252 0.912528 0
M  V30 7034 C 663.635 4.92348 1.99417 0
M  V30 7035 C 662.674 5.96694 1.36466 0
M  V30 7036 N 661.811 6.60292 2.38661 0
M  V30 7037 H 666.651 2.97067 -0.235661 0
M  V30 7038 H 664.188 1.46542 -0.128055 0
M  V30 7039 H 666.146 3.56144 2.17295 0
M  V30 7040 H 664.776 2.42078 2.13537 0
M  V30 7041 H 663.828 3.80113 0.147697 0
M  V30 7042 H 665.14 4.9709 0.412717 0
M  V30 7043 H 664.294 5.42054 2.72512 0
M  V30 7044 H 663.033 4.17087 2.52764 0
M  V30 7045 H 662.038 5.46304 0.61906 0
M  V30 7046 H 663.263 6.73899 0.838827 0
M  V30 7047 H 661.209 5.87858 2.91134 0
M  V30 7048 H 661.126 7.30816 1.93503 0
M  V30 7049 H 662.394 7.14635 3.11314 0
M  V30 7050 N 666.623 0.143563 1.56945 0
M  V30 7051 C 667.871 -0.507402 1.95627 0
M  V30 7052 C 668.192 -1.65626 1.02922 0
M  V30 7053 O 667.462 -1.95693 0.0901136 0
M  V30 7054 H 666.042 -0.190436 0.722318 0
M  V30 7055 H 668.704 0.218257 1.93674 0
M  V30 7056 H 667.8 -0.885816 2.99265 0
M  V30 7057 N 668.101 -1.57061 -0.130224 0
M  V30 7058 C 669.326 -1.88802 -0.858409 0
M  V30 7059 C 669.751 -0.734353 -1.73173 0
M  V30 7060 O 669.109 0.315529 -1.78533 0
M  V30 7061 C 669.157 -3.19228 -1.67708 0
M  V30 7062 O 668.261 -3.04343 -2.78297 0
M  V30 7063 H 667.602 -0.619849 -0.238083 0
M  V30 7064 H 670.132 -2.04271 -0.115995 0
M  V30 7065 H 670.142 -3.51669 -2.06864 0
M  V30 7066 H 668.817 -4.02793 -1.0359 0
M  V30 7067 H 667.394 -2.83346 -2.42425 0
M  V30 7068 N 669.579 0.400081 -1.52437 0
M  V30 7069 C 670.995 0.739359 -1.41441 0
M  V30 7070 C 671.195 1.94512 -0.526053 0
M  V30 7071 O 670.251 2.525 0.00472502 0
M  V30 7072 C 671.564 0.984824 -2.84116 0
M  V30 7073 C 673.112 1.08698 -2.93519 0
M  V30 7074 C 673.587 1.36515 -4.37181 0
M  V30 7075 N 675.078 1.43361 -4.40457 0
M  V30 7076 C 675.813 1.66528 -5.48686 0
M  V30 7077 N 675.309 1.87239 -6.67018 0
M  V30 7078 N 677.102 1.68617 -5.36213 0
M  V30 7079 H 669.253 -0.393484 -2.08723 0
M  V30 7080 H 671.516 -0.1138 -0.941145 0
M  V30 7081 H 671.222 0.171096 -3.51284 0
M  V30 7082 H 671.096 1.90253 -3.25705 0
M  V30 7083 H 673.483 1.89129 -2.26526 0
M  V30 7084 H 673.564 0.147432 -2.55375 0
M  V30 7085 H 673.208 0.565982 -5.04737 0
M  V30 7086 H 673.138 2.31737 -4.7287 0
M  V30 7087 H 675.629 1.29108 -3.55161 0
M  V30 7088 H 675.942 2.04392 -7.45281 0
M  V30 7089 H 674.287 1.84486 -6.70067 0
M  V30 7090 H 677.478 1.5198 -4.42741 0
M  V30 7091 H 677.651 1.86332 -6.20632 0
M  V30 7092 N 671.057 1.43213 0.657864 0
M  V30 7093 C 672.306 1.43871 1.41365 0
M  V30 7094 C 672.619 0.064898 1.95492 0
M  V30 7095 O 673.825 -0.0510796 2.71452 0
M  V30 7096 C 672.281 2.53158 2.55811 0
M  V30 7097 C 671.889 3.96624 2.08311 0
M  V30 7098 C 673.633 2.63004 3.3321 0
M  V30 7099 C 671.54 4.97385 3.1994 0
M  V30 7100 H 670.47 0.535174 0.531136 0
M  V30 7101 H 673.121 1.69185 0.710543 0
M  V30 7102 H 671.503 2.21037 3.2857 0
M  V30 7103 H 672.677 4.38182 1.42593 0
M  V30 7104 H 670.992 3.90781 1.43804 0
M  V30 7105 H 673.589 3.3546 4.16378 0
M  V30 7106 H 673.932 1.67918 3.80932 0
M  V30 7107 H 674.465 2.94403 2.67529 0
M  V30 7108 H 671.204 5.94007 2.77192 0
M  V30 7109 H 670.724 4.60444 3.84385 0
M  V30 7110 H 672.403 5.19877 3.85145 0
M  V30 7111 N 672.536 -0.895792 1.29666 0
M  V30 7112 C 673.466 -2.01673 1.17688 0
M  V30 7113 C 674.447 -1.69955 0.0701317 0
M  V30 7114 O 675.632 -1.9258 0.250289 0
M  V30 7115 C 672.762 -3.36568 0.856681 0
M  V30 7116 C 671.716 -3.82509 1.92017 0
M  V30 7117 C 671.042 -5.14574 1.4532 0
M  V30 7118 C 672.342 -4.02409 3.32963 0
M  V30 7119 H 674.036 -2.11953 2.11463 0
M  V30 7120 H 671.582 -1.01839 1.01807 0
M  V30 7121 H 673.535 -4.14498 0.759577 0
M  V30 7122 H 672.259 -3.26391 -0.116763 0
M  V30 7123 H 670.918 -3.068 2.00673 0
M  V30 7124 H 670.566 -5.00815 0.468325 0
M  V30 7125 H 670.266 -5.46283 2.16447 0
M  V30 7126 H 671.79 -5.9504 1.36968 0
M  V30 7127 H 673.204 -4.70808 3.27127 0
M  V30 7128 H 671.601 -4.45478 4.02082 0
M  V30 7129 H 672.671 -3.06616 3.75652 0
M  V30 7130 N 674.014 -1.12206 -1.10668 0
M  V30 7131 C 675.263 -0.870595 -1.81944 0
M  V30 7132 C 675.576 0.605447 -1.85994 0
M  V30 7133 O 676.782 0.973433 -2.53449 0
M  V30 7134 C 675.238 -1.50783 -3.26791 0
M  V30 7135 C 674.846 -3.01849 -3.31046 0
M  V30 7136 C 676.59 -1.33653 -4.02911 0
M  V30 7137 C 674.497 -3.58518 -4.70339 0
M  V30 7138 H 673.427 -0.322043 -0.681765 0
M  V30 7139 H 676.078 -1.34827 -1.24475 0
M  V30 7140 H 674.46 -0.957825 -3.84242 0
M  V30 7141 H 675.634 -3.63321 -2.83433 0
M  V30 7142 H 673.949 -3.18346 -2.68411 0
M  V30 7143 H 676.546 -1.73416 -5.05797 0
M  V30 7144 H 676.889 -0.279949 -4.15358 0
M  V30 7145 H 677.422 -1.85562 -3.51868 0
M  V30 7146 H 674.161 -4.63925 -4.63091 0
M  V30 7147 H 673.681 -3.01819 -5.18329 0
M  V30 7148 H 675.36 -3.57434 -5.39305 0
M  V30 7149 N 675.492 1.28418 -0.913599 0
M  V30 7150 C 676.738 1.9527 -0.547484 0
M  V30 7151 C 677.071 1.71745 0.906486 0
M  V30 7152 O 676.346 1.03834 1.64465 0
M  V30 7153 C 676.629 3.49748 -0.857205 0
M  V30 7154 C 676.482 3.82675 -2.3639 0
M  V30 7155 C 677.801 4.3868 -0.353258 0
M  V30 7156 H 674.92 0.709236 -0.200381 0
M  V30 7157 H 677.562 1.51789 -1.14281 0
M  V30 7158 H 675.712 3.86915 -0.350548 0
M  V30 7159 H 677.384 3.55378 -2.94116 0
M  V30 7160 H 675.627 3.29724 -2.81894 0
M  V30 7161 H 676.298 4.90547 -2.53115 0
M  V30 7162 H 678.774 4.08584 -0.787288 0
M  V30 7163 H 677.65 5.45621 -0.599049 0
M  V30 7164 H 677.911 4.35753 0.746413 0
M  V30 7165 N 676.97 0.677563 1.42291 0
M  V30 7166 C 677.933 0.0101085 2.29198 0
M  V30 7167 C 678.933 -0.726219 1.43467 0
M  V30 7168 O 680.123 -0.563807 1.64824 0
M  V30 7169 C 677.255 -0.996316 3.26016 0
M  V30 7170 H 678.448 0.775071 2.89711 0
M  V30 7171 H 676.001 0.440065 1.49977 0
M  V30 7172 H 676.736 -1.78967 2.70446 0
M  V30 7173 H 676.521 -0.471687 3.89253 0
M  V30 7174 H 678.011 -1.46167 3.91184 0
M  V30 7175 N 678.448 -1.51871 0.421078 0
M  V30 7176 C 679.859 -1.86644 -0.0457991 0
M  V30 7177 C 680.21 -1.33919 -1.43388 0
M  V30 7178 O 679.335 -0.683316 -2.05328 0
M  V30 7179 C 679.93 -3.38681 -0.0898844 0
M  V30 7180 C 678.489 -3.73049 -0.501127 0
M  V30 7181 C 677.636 -2.75485 0.316723 0
M  V30 7182 H 680.587 -1.45327 0.637635 0
M  V30 7183 H 680.608 -3.69636 -0.902734 0
M  V30 7184 H 680.12 -3.77025 0.920513 0
M  V30 7185 H 678.221 -3.40288 -1.51773 0
M  V30 7186 H 678.334 -4.78512 -0.237217 0
M  V30 7187 H 676.698 -2.53725 -0.222663 0
M  V30 7188 H 677.481 -3.16671 1.32569 0
M  V30 7189 N 679.926 -0.151884 -1.56866 0
M  V30 7190 C 681.156 0.504081 -2.00356 0
M  V30 7191 C 681.564 1.58639 -1.03103 0
M  V30 7192 O 680.907 1.83688 -0.0207931 0
M  V30 7193 C 680.969 1.15975 -3.40279 0
M  V30 7194 C 680.633 0.221453 -4.56463 0
M  V30 7195 C 681.63 -0.552766 -5.16953 0
M  V30 7196 C 679.315 0.122936 -5.0215 0
M  V30 7197 C 681.309 -1.4129 -6.21543 0
M  V30 7198 C 678.996 -0.740801 -6.06593 0
M  V30 7199 C 679.994 -1.50732 -6.6616 0
M  V30 7200 O 679.682 -2.35666 -7.68581 0
M  V30 7201 H 679.414 0.135279 -0.662326 0
M  V30 7202 H 681.968 -0.244916 -2.03935 0
M  V30 7203 H 680.198 1.95649 -3.33554 0
M  V30 7204 H 681.887 1.71594 -3.67846 0
M  V30 7205 H 682.653 -0.486716 -4.82552 0
M  V30 7206 H 678.532 0.70931 -4.5551 0
M  V30 7207 H 682.076 -2.01166 -6.67966 0
M  V30 7208 H 677.973 -0.808125 -6.40421 0
M  V30 7209 H 678.741 -2.28967 -7.85822 0
M  V30 7210 N 681.404 1.57128 0.121893 0
M  V30 7211 C 682.314 2.03425 1.16857 0
M  V30 7212 C 683.33 0.954108 1.45509 0
M  V30 7213 O 684.506 1.26541 1.56682 0
M  V30 7214 C 681.571 2.42685 2.47599 0
M  V30 7215 C 680.632 3.64767 2.2637 0
M  V30 7216 C 679.865 4.02145 3.50878 0
M  V30 7217 O 680.088 3.39897 4.58068 0
M  V30 7218 O 679.022 4.95262 3.42051 0
M  V30 7219 H 682.848 2.92825 0.80544 0
M  V30 7220 H 680.433 1.45654 0.332477 0
M  V30 7221 H 682.315 2.68684 3.24634 0
M  V30 7222 H 680.99 1.56432 2.83392 0
M  V30 7223 H 679.897 3.43922 1.47203 0
M  V30 7224 H 681.23 4.51716 1.95482 0
M  V30 7225 N 682.882 -0.391992 1.52647 0
M  V30 7226 C 683.792 -1.503 1.80131 0
M  V30 7227 C 684.808 -1.59825 0.687882 0
M  V30 7228 O 685.984 -1.76218 0.975149 0
M  V30 7229 C 683.049 -2.85863 1.96171 0
M  V30 7230 C 682.11 -2.86084 3.20085 0
M  V30 7231 C 681.343 -4.15181 3.35351 0
M  V30 7232 O 681.566 -5.09981 2.55491 0
M  V30 7233 O 680.5 -4.22603 4.28591 0
M  V30 7234 H 684.326 -1.30007 2.74466 0
M  V30 7235 H 681.911 -0.579539 1.37701 0
M  V30 7236 H 683.793 -3.66236 2.08445 0
M  V30 7237 H 682.468 -3.06189 1.05025 0
M  V30 7238 H 681.375 -2.04504 3.13256 0
M  V30 7239 H 682.708 -2.7071 4.11068 0
M  V30 7240 N 684.36 -1.4356 -0.65026 0
M  V30 7241 C 685.292 -1.44918 -1.77571 0
M  V30 7242 C 686.305 -0.344925 -1.59104 0
M  V30 7243 O 687.494 -0.609537 -1.6777 0
M  V30 7244 C 684.594 -1.24914 -3.15039 0
M  V30 7245 C 683.767 -2.48232 -3.60138 0
M  V30 7246 C 682.826 -2.23409 -4.76419 0
M  V30 7247 O 681.852 -2.9678 -4.85706 0
M  V30 7248 N 683.054 -1.25259 -5.66825 0
M  V30 7249 H 685.819 -2.41935 -1.76883 0
M  V30 7250 H 683.38 -1.38754 -0.834202 0
M  V30 7251 H 685.372 -1.06185 -3.90521 0
M  V30 7252 H 683.942 -0.363319 -3.10481 0
M  V30 7253 H 683.162 -2.82366 -2.75069 0
M  V30 7254 H 684.45 -3.30296 -3.87017 0
M  V30 7255 H 683.848 -0.646246 -5.61997 0
M  V30 7256 H 682.405 -1.12513 -6.42016 0
M  V30 7257 N 685.838 0.888903 -1.30139 0
M  V30 7258 C 687.066 1.67358 -1.21651 0
M  V30 7259 C 687.481 1.87499 0.221246 0
M  V30 7260 O 686.838 1.41969 1.14677 0
M  V30 7261 C 686.889 3.05213 -1.93719 0
M  V30 7262 O 686.61 2.85984 -3.31881 0
M  V30 7263 C 688.111 3.9964 -1.9184 0
M  V30 7264 H 685.331 0.522365 -0.42116 0
M  V30 7265 H 687.875 1.11086 -1.71698 0
M  V30 7266 H 686.03 3.5823 -1.4748 0
M  V30 7267 H 686.444 3.73411 -3.68327 0
M  V30 7268 H 687.918 4.93749 -2.46811 0
M  V30 7269 H 688.395 4.29955 -0.896409 0
M  V30 7270 H 689.001 3.52558 -2.37872 0
M  V30 7271 N 687.317 1.12792 1.10072 0
M  V30 7272 C 688.28 0.802264 2.14701 0
M  V30 7273 C 689.28 -0.18515 1.59731 0
M  V30 7274 O 690.47 0.041109 1.74151 0
M  V30 7275 C 687.602 0.19285 3.40354 0
M  V30 7276 H 688.795 1.72932 2.45019 0
M  V30 7277 H 686.348 0.931662 1.25498 0
M  V30 7278 H 687.083 -0.743748 3.15656 0
M  V30 7279 H 686.868 0.903827 3.81541 0
M  V30 7280 H 688.358 -0.0183704 4.17596 0
M  V30 7281 N 688.795 -1.27931 0.920396 0
M  V30 7282 C 690.02 -1.99343 0.572478 0
M  V30 7283 C 690.445 -1.68267 -0.840696 0
M  V30 7284 O 689.803 -0.918805 -1.56294 0
M  V30 7285 C 689.851 -3.51698 0.796284 0
M  V30 7286 O 688.955 -4.12157 -0.141602 0
M  V30 7287 H 688.296 -0.626065 0.221221 0
M  V30 7288 H 690.826 -1.62921 1.23765 0
M  V30 7289 H 690.836 -4.01793 0.708984 0
M  V30 7290 H 689.511 -3.73649 1.82644 0
M  V30 7291 H 688.088 -3.729 -0.005007 0
M  V30 7292 N 690.273 -0.685099 -1.4193 0
M  V30 7293 C 691.522 -0.208816 -2.00616 0
M  V30 7294 C 691.835 1.19506 -1.54847 0
M  V30 7295 O 693.041 1.76826 -2.06021 0
M  V30 7296 C 691.497 -0.322446 -3.58453 0
M  V30 7297 C 691.105 -1.73102 -4.13206 0
M  V30 7298 C 692.849 0.0945979 -4.24395 0
M  V30 7299 C 690.756 -1.79687 -5.63442 0
M  V30 7300 H 689.686 -0.0743092 -0.750329 0
M  V30 7301 H 692.337 -0.851778 -1.62533 0
M  V30 7302 H 690.719 0.388588 -3.94089 0
M  V30 7303 H 691.893 -2.46997 -3.8901 0
M  V30 7304 H 690.208 -2.09682 -3.59753 0
M  V30 7305 H 692.805 0.0656937 -5.3466 0
M  V30 7306 H 693.148 1.1316 -4.00625 0
M  V30 7307 H 693.681 -0.56579 -3.93756 0
M  V30 7308 H 690.42 -2.81404 -5.92024 0
M  V30 7309 H 689.94 -1.10162 -5.89597 0
M  V30 7310 H 691.619 -1.55498 -6.28036 0
M  V30 7311 N 691.751 1.51645 -0.429126 0
M  V30 7312 C 692.661 2.31288 0.392809 0
M  V30 7313 C 693.677 1.39852 1.03525 0
M  V30 7314 O 694.853 1.72926 1.03241 0
M  V30 7315 C 691.918 3.13347 1.48372 0
M  V30 7316 C 690.979 4.20551 0.862268 0
M  V30 7317 C 690.212 4.98688 1.9012 0
M  V30 7318 O 690.435 4.77359 3.12225 0
M  V30 7319 O 689.369 5.83005 1.4963 0
M  V30 7320 H 693.195 3.02609 -0.257138 0
M  V30 7321 H 690.78 1.48163 -0.191851 0
M  V30 7322 H 692.662 3.64387 2.1166 0
M  V30 7323 H 691.337 2.44799 2.1179 0
M  V30 7324 H 690.244 3.73609 0.191568 0
M  V30 7325 H 691.577 4.91449 0.271704 0
M  V30 7326 N 693.229 0.160201 1.56784 0
M  V30 7327 C 694.161 -0.80564 2.14574 0
M  V30 7328 C 695.174 -1.20154 1.09849 0
M  V30 7329 O 696.363 -1.14333 1.37078 0
M  V30 7330 C 693.463 -2.09434 2.6644 0
M  V30 7331 C 692.636 -1.86375 3.95706 0
M  V30 7332 C 691.695 -2.99358 4.32749 0
M  V30 7333 O 690.721 -2.70475 5.00831 0
M  V30 7334 N 691.923 -4.26867 3.93402 0
M  V30 7335 H 694.688 -0.311644 2.98075 0
M  V30 7336 H 692.249 -0.0229465 1.61884 0
M  V30 7337 H 694.241 -2.84091 2.88226 0
M  V30 7338 H 692.811 -2.50057 1.8759 0
M  V30 7339 H 692.031 -0.956821 3.82412 0
M  V30 7340 H 693.319 -1.68322 4.80151 0
M  V30 7341 H 692.717 -4.53197 3.38569 0
M  V30 7342 H 691.274 -4.98263 4.20211 0
M  V30 7343 N 694.707 -1.5719 -0.113559 0
M  V30 7344 C 695.935 -1.89328 -0.834422 0
M  V30 7345 C 696.35 -0.752018 -1.73177 0
M  V30 7346 O 695.707 0.276912 -1.80387 0
M  V30 7347 C 695.758 -3.20962 -1.66329 0
M  V30 7348 O 695.479 -4.30695 -0.802069 0
M  V30 7349 C 696.98 -3.6684 -2.48884 0
M  V30 7350 H 694.2 -0.626769 -0.239587 0
M  V30 7351 H 696.744 -2.04273 -0.0963195 0
M  V30 7352 H 694.899 -3.0767 -2.35409 0
M  V30 7353 H 695.313 -5.06175 -1.37431 0
M  V30 7354 H 696.787 -4.61692 -3.02563 0
M  V30 7355 H 697.264 -2.93765 -3.26495 0
M  V30 7356 H 697.87 -3.82938 -1.85036 0
M  V30 7357 N 696.185 0.383891 -1.52853 0
M  V30 7358 C 697.434 1.12563 -1.67369 0
M  V30 7359 C 697.747 1.90982 -0.422533 0
M  V30 7360 O 698.953 2.6778 -0.447914 0
M  V30 7361 C 697.409 2.05011 -2.95801 0
M  V30 7362 C 697.017 1.31991 -4.28115 0
M  V30 7363 C 698.761 2.79289 -3.19684 0
M  V30 7364 C 696.668 2.23235 -5.4765 0
M  V30 7365 H 695.598 0.42391 -0.623552 0
M  V30 7366 H 698.249 0.388016 -1.79351 0
M  V30 7367 H 696.631 2.82429 -2.77578 0
M  V30 7368 H 697.805 0.597633 -4.56908 0
M  V30 7369 H 696.12 0.696517 -4.10533 0
M  V30 7370 H 698.717 3.47749 -4.06171 0
M  V30 7371 H 699.06 3.43649 -2.3497 0
M  V30 7372 H 699.593 2.08962 -3.38496 0
M  V30 7373 H 696.332 1.63482 -6.34786 0
M  V30 7374 H 695.852 2.93364 -5.23161 0
M  V30 7375 H 697.531 2.83205 -5.81725 0
M  V30 7376 N 697.663 1.43903 0.642637 0
M  V30 7377 C 698.613 1.46321 1.74854 0
M  V30 7378 C 699.597 0.330361 1.57472 0
M  V30 7379 O 700.789 0.574881 1.67404 0
M  V30 7380 C 697.918 1.39919 3.13493 0
M  V30 7381 C 697.004 2.58274 3.36385 0
M  V30 7382 N 697.395 3.83578 3.29699 0
M  V30 7383 C 695.693 2.53224 3.67142 0
M  V30 7384 C 696.394 4.62375 3.52965 0
M  V30 7385 N 695.37 3.93269 3.75287 0
M  V30 7386 H 699.172 2.41062 1.68126 0
M  V30 7387 H 696.686 1.38704 0.844693 0
M  V30 7388 H 698.683 1.39735 3.92785 0
M  V30 7389 H 697.343 0.46207 3.21395 0
M  V30 7390 H 698.354 4.15713 3.08874 0
M  V30 7391 H 695.031 1.68252 3.82096 0
M  V30 7392 H 696.421 5.714 3.53485 0
M  V30 7393 N 699.141 -0.881989 1.30609 0
M  V30 7394 C 700.418 -1.61563 1.10258 0
M  V30 7395 C 700.798 -2.08228 -0.347053 0
M  V30 7396 O 700.146 -1.85151 -1.33908 0
M  V30 7397 C 700.356 -2.78287 2.10612 0
M  V30 7398 C 701.704 -3.48545 2.4249 0
M  V30 7399 O 702.728 -2.88479 2.08945 0
M  V30 7400 O 701.587 -4.56873 2.99883 0
M  V30 7401 H 698.681 -0.710238 0.423663 0
M  V30 7402 H 701.227 -0.928503 1.42045 0
M  V30 7403 H 699.999 -2.41131 3.08174 0
M  V30 7404 H 699.622 -3.54695 1.79659 0
M  V30 7405 N 700.619 -1.13374 -1.09472 0
M  V30 7406 C 701.549 -0.833268 -2.18126 0
M  V30 7407 C 702.53 0.207169 -1.68834 0
M  V30 7408 O 703.715 0.0662012 -1.94087 0
M  V30 7409 C 700.845 -0.297979 -3.46019 0
M  V30 7410 C 699.799 -1.27261 -4.08642 0
M  V30 7411 C 699.125 -0.597104 -5.31356 0
M  V30 7412 C 700.425 -2.63095 -4.51197 0
M  V30 7413 H 702.119 -1.74182 -2.43518 0
M  V30 7414 H 699.665 -0.838921 -1.17039 0
M  V30 7415 H 701.618 -0.0754444 -4.21332 0
M  V30 7416 H 700.342 0.645959 -3.20148 0
M  V30 7417 H 699.001 -1.48113 -3.35348 0
M  V30 7418 H 698.649 0.352293 -5.01765 0
M  V30 7419 H 698.349 -1.24734 -5.74208 0
M  V30 7420 H 699.873 -0.38384 -6.09392 0
M  V30 7421 H 701.287 -2.46214 -5.17737 0
M  V30 7422 H 699.684 -3.2429 -5.04932 0
M  V30 7423 H 700.754 -3.20793 -3.6362 0
M  V30 7424 N 702.098 1.27442 -0.927168 0
M  V30 7425 C 703.347 1.93679 -0.563146 0
M  V30 7426 C 703.66 1.73673 0.899837 0
M  V30 7427 O 704.866 2.34247 1.37262 0
M  V30 7428 C 703.322 3.46961 -0.95636 0
M  V30 7429 C 702.93 3.75724 -2.43999 0
M  V30 7430 C 704.674 4.19282 -0.663565 0
M  V30 7431 C 702.581 5.22378 -2.77263 0
M  V30 7432 H 701.511 0.725059 -0.206894 0
M  V30 7433 H 704.162 1.44743 -1.12791 0
M  V30 7434 H 702.544 3.94703 -0.320254 0
M  V30 7435 H 703.718 3.38741 -3.12396 0
M  V30 7436 H 702.033 3.16605 -2.70463 0
M  V30 7437 H 704.63 5.27265 -0.888596 0
M  V30 7438 H 704.973 4.14382 0.399198 0
M  V30 7439 H 705.506 3.7736 -1.25875 0
M  V30 7440 H 702.245 5.32367 -3.82446 0
M  V30 7441 H 701.765 5.6051 -2.13516 0
M  V30 7442 H 703.444 5.9025 -2.64979 0
M  V30 7443 N 703.576 0.692616 1.41565 0
M  V30 7444 C 704.523 0.0254264 2.30786 0
M  V30 7445 C 705.493 -0.774347 1.46946 0
M  V30 7446 O 706.678 -0.742981 1.7574 0
M  V30 7447 C 703.818 -0.907123 3.32964 0
M  V30 7448 C 702.931 -0.0992784 4.31886 0
M  V30 7449 C 702.066 -1.0292 5.21134 0
M  V30 7450 C 701.105 -0.214088 6.11725 0
M  V30 7451 N 700.242 -1.09766 6.93467 0
M  V30 7452 H 705.082 0.792036 2.87282 0
M  V30 7453 H 702.619 0.4023 1.41492 0
M  V30 7454 H 704.577 -1.46181 3.90752 0
M  V30 7455 H 703.207 -1.64016 2.78026 0
M  V30 7456 H 702.259 0.572287 3.76071 0
M  V30 7457 H 703.571 0.532782 4.95946 0
M  V30 7458 H 702.725 -1.65321 5.83741 0
M  V30 7459 H 701.464 -1.69512 4.57293 0
M  V30 7460 H 700.469 0.42302 5.4817 0
M  V30 7461 H 701.694 0.447995 6.77621 0
M  V30 7462 H 699.64 -1.74965 6.32237 0
M  V30 7463 H 699.557 -0.521099 7.54202 0
M  V30 7464 H 700.825 -1.70858 7.60544 0
M  V30 7465 N 705.054 -1.51416 0.437162 0
M  V30 7466 C 706.47 -1.59349 0.0894459 0
M  V30 7467 C 706.67 -1.44809 -1.40116 0
M  V30 7468 O 705.726 -1.28924 -2.17106 0
M  V30 7469 C 707.039 -2.9446 0.609398 0
M  V30 7470 C 708.587 -3.07769 0.569824 0
M  V30 7471 C 709.062 -4.45404 1.06675 0
M  V30 7472 N 710.553 -4.51723 1.02473 0
M  V30 7473 C 711.288 -5.56544 1.3801 0
M  V30 7474 N 710.784 -6.68784 1.80831 0
M  V30 7475 N 712.577 -5.46901 1.29828 0
M  V30 7476 H 704.728 -1.59112 1.40703 0
M  V30 7477 H 706.991 -0.750031 0.579791 0
M  V30 7478 H 706.697 -3.1047 1.65231 0
M  V30 7479 H 706.571 -3.77184 0.0342236 0
M  V30 7480 H 708.958 -2.91428 -0.464107 0
M  V30 7481 H 709.039 -2.26885 1.1814 0
M  V30 7482 H 708.683 -4.62492 2.09914 0
M  V30 7483 H 708.613 -5.24827 0.431712 0
M  V30 7484 H 711.104 -3.71165 0.710258 0
M  V30 7485 H 711.417 -7.44787 2.06185 0
M  V30 7486 H 709.762 -6.69992 1.84757 0
M  V30 7487 H 712.953 -4.581 0.962397 0
M  V30 7488 H 713.126 -6.2848 1.57851 0
M  V30 7489 N 706.532 -0.168513 -1.56696 0
M  V30 7490 C 707.479 0.762875 -2.17828 0
M  V30 7491 C 708.449 1.22892 -1.11745 0
M  V30 7492 O 709.634 1.29759 -1.39883 0
M  V30 7493 C 706.774 1.9879 -2.82093 0
M  V30 7494 C 705.887 1.56568 -4.02629 0
M  V30 7495 C 705.022 2.74416 -4.54829 0
M  V30 7496 C 704.061 2.28671 -5.67782 0
M  V30 7497 N 703.198 3.39602 -6.14504 0
M  V30 7498 H 708.038 0.23479 -2.97074 0
M  V30 7499 H 705.575 0.104163 -1.46731 0
M  V30 7500 H 707.533 2.70636 -3.17509 0
M  V30 7501 H 706.163 2.48973 -2.05456 0
M  V30 7502 H 705.215 0.744067 -3.73052 0
M  V30 7503 H 706.527 1.18988 -4.844 0
M  V30 7504 H 705.681 3.54423 -4.92412 0
M  V30 7505 H 704.42 3.15254 -3.7211 0
M  V30 7506 H 703.425 1.4711 -5.29753 0
M  V30 7507 H 704.65 1.88894 -6.52301 0
M  V30 7508 H 702.596 3.80021 -5.34715 0
M  V30 7509 H 702.513 3.06105 -6.91257 0
M  V30 7510 H 703.781 4.19902 -6.56737 0
M  V30 7511 N 708.01 1.57248 0.105221 0
M  V30 7512 C 708.957 2.01338 1.12835 0
M  V30 7513 C 709.927 0.887897 1.40377 0
M  V30 7514 O 711.112 1.15315 1.5201 0
M  V30 7515 C 708.252 2.43432 2.44611 0
M  V30 7516 C 707.365 3.69457 2.23888 0
M  V30 7517 C 706.5 4.00473 3.48991 0
M  V30 7518 C 705.539 5.19638 3.23485 0
M  V30 7519 N 704.676 5.46457 4.40828 0
M  V30 7520 H 709.516 2.88527 0.745386 0
M  V30 7521 H 707.053 1.42714 0.356535 0
M  V30 7522 H 709.011 2.65879 3.21503 0
M  V30 7523 H 707.641 1.59266 2.80774 0
M  V30 7524 H 706.693 3.54545 1.37847 0
M  V30 7525 H 708.005 4.56497 2.01026 0
M  V30 7526 H 707.159 4.23642 4.34295 0
M  V30 7527 H 705.898 3.11935 3.74897 0
M  V30 7528 H 704.903 4.96299 2.36574 0
M  V30 7529 H 706.128 6.09766 2.98935 0
M  V30 7530 H 704.074 4.60876 4.66829 0
M  V30 7531 H 703.991 6.27849 4.2112 0
M  V30 7532 H 705.259 5.74155 5.27225 0
M  V30 7533 N 709.488 -0.375779 1.53054 0
M  V30 7534 C 710.737 -1.11674 1.67964 0
M  V30 7535 C 711.05 -1.90755 0.432655 0
M  V30 7536 O 712.256 -2.67538 0.462109 0
M  V30 7537 C 710.712 -2.0344 2.96884 0
M  V30 7538 C 710.32 -1.29719 4.28809 0
M  V30 7539 C 712.064 -2.7759 3.2116 0
M  V30 7540 C 709.971 -2.20327 5.48826 0
M  V30 7541 H 708.901 -0.420597 0.625791 0
M  V30 7542 H 711.552 -0.378499 1.79554 0
M  V30 7543 H 709.934 -2.80953 2.79072 0
M  V30 7544 H 711.108 -0.573394 4.57219 0
M  V30 7545 H 709.423 -0.674735 4.10897 0
M  V30 7546 H 712.02 -3.4559 4.0801 0
M  V30 7547 H 712.363 -3.42399 2.36789 0
M  V30 7548 H 712.896 -2.07164 3.396 0
M  V30 7549 H 709.635 -1.60113 6.35645 0
M  V30 7550 H 709.155 -2.90585 5.2471 0
M  V30 7551 H 710.834 -2.80116 5.83219 0
M  V30 7552 N 710.966 -1.44241 -0.634997 0
M  V30 7553 C 711.913 -1.5081 -1.74714 0
M  V30 7554 C 712.883 -0.356147 -1.62237 0
M  V30 7555 O 714.068 -0.565848 -1.82216 0
M  V30 7556 C 711.208 -1.45458 -3.12947 0
M  V30 7557 C 710.321 -2.70998 -3.36428 0
M  V30 7558 C 709.456 -2.57507 -4.64611 0
M  V30 7559 C 708.495 -3.78229 -4.81258 0
M  V30 7560 N 707.632 -3.63438 -6.00714 0
M  V30 7561 H 712.472 -2.45832 -1.68436 0
M  V30 7562 H 710.009 -1.2201 -0.821706 0
M  V30 7563 H 711.967 -1.40347 -3.92885 0
M  V30 7564 H 710.597 -0.540058 -3.1825 0
M  V30 7565 H 709.649 -2.86312 -2.50458 0
M  V30 7566 H 710.961 -3.60619 -3.44609 0
M  V30 7567 H 710.115 -2.50207 -5.52703 0
M  V30 7568 H 708.854 -1.65441 -4.58782 0
M  V30 7569 H 707.859 -3.85918 -3.91596 0
M  V30 7570 H 709.084 -4.71327 -4.88904 0
M  V30 7571 H 707.03 -2.7412 -5.95982 0
M  V30 7572 H 706.947 -4.46672 -6.09934 0
M  V30 7573 H 708.215 -3.60022 -6.91378 0
M  V30 7574 N 712.444 0.87505 -1.31075 0
M  V30 7575 C 713.855 1.4433 -1.18431 0
M  V30 7576 C 714.206 1.9506 0.211189 0
M  V30 7577 O 713.331 1.85847 1.10859 0
M  V30 7578 C 713.926 2.62341 -2.14389 0
M  V30 7579 C 712.485 3.15225 -2.05694 0
M  V30 7580 C 711.632 1.87929 -2.03907 0
M  V30 7581 H 714.583 0.684061 -1.432 0
M  V30 7582 H 714.604 3.3887 -1.73053 0
M  V30 7583 H 714.116 2.25388 -3.15946 0
M  V30 7584 H 712.217 3.56812 -1.07314 0
M  V30 7585 H 712.33 3.77853 -2.94558 0
M  V30 7586 H 710.694 2.06679 -1.48849 0
M  V30 7587 H 711.477 1.53221 -3.07211 0
M  V30 7588 N 713.922 1.13953 1.08869 0
M  V30 7589 C 715.168 0.906151 1.8143 0
M  V30 7590 C 715.501 -0.566089 1.85766 0
M  V30 7591 O 714.776 -1.41915 1.33006 0
M  V30 7592 C 715.059 1.50183 3.27287 0
M  V30 7593 C 714.912 3.04359 3.31189 0
M  V30 7594 C 716.231 1.17477 4.24131 0
M  V30 7595 H 713.35 0.330624 0.658678 0
M  V30 7596 H 715.992 1.40873 1.27495 0
M  V30 7597 H 714.142 1.07442 3.73348 0
M  V30 7598 H 715.814 3.55896 2.93488 0
M  V30 7599 H 714.057 3.39053 2.70602 0
M  V30 7600 H 714.728 3.41141 4.33966 0
M  V30 7601 H 717.204 1.5442 3.86385 0
M  V30 7602 H 716.08 1.61795 5.24513 0
M  V30 7603 H 716.341 0.0893312 4.4201 0
M  V30 7604 N 715.4 -1.26948 0.933913 0
M  V30 7605 C 716.625 -1.98724 0.593589 0
M  V30 7606 C 717.05 -1.6915 -0.822801 0
M  V30 7607 O 716.408 -0.93533 -1.5531 0
M  V30 7608 C 716.456 -3.50834 0.833542 0
M  V30 7609 O 715.56 -4.12284 -0.0978788 0
M  V30 7610 H 714.901 -0.623683 0.227849 0
M  V30 7611 H 717.431 -1.61599 1.25486 0
M  V30 7612 H 717.441 -4.01018 0.75156 0
M  V30 7613 H 716.116 -3.71691 1.86597 0
M  V30 7614 H 714.693 -3.72884 0.0345443 0
M  V30 7615 N 716.879 -0.700114 -1.41195 0
M  V30 7616 C 717.809 -0.0521132 -2.33442 0
M  V30 7617 C 718.79 0.76228 -1.52063 0
M  V30 7618 O 719.975 0.714336 -1.80585 0
M  V30 7619 C 717.105 0.881693 -3.35922 0
M  V30 7620 C 716.059 0.174062 -4.27646 0
M  V30 7621 C 715.385 1.22254 -5.20536 0
M  V30 7622 C 716.685 -0.962396 -5.13357 0
M  V30 7623 H 718.379 -0.822574 -2.87879 0
M  V30 7624 H 715.925 -0.397011 -1.38419 0
M  V30 7625 H 717.878 1.34429 -3.99383 0
M  V30 7626 H 716.602 1.68387 -2.79845 0
M  V30 7627 H 715.261 -0.268551 -3.65615 0
M  V30 7628 H 714.909 2.01736 -4.60773 0
M  V30 7629 H 714.609 0.754038 -5.82742 0
M  V30 7630 H 716.133 1.68555 -5.86874 0
M  V30 7631 H 717.547 -0.579875 -5.7036 0
M  V30 7632 H 715.944 -1.35828 -5.84526 0
M  V30 7633 H 717.014 -1.80003 -4.50252 0
M  V30 7634 N 718.357 1.51182 -0.445186 0
M  V30 7635 C 719.582 2.07056 0.119445 0
M  V30 7636 C 720.007 1.30966 1.35016 0
M  V30 7637 O 719.365 0.349827 1.77893 0
M  V30 7638 C 719.413 3.58234 0.412428 0
M  V30 7639 O 718.517 3.84249 1.49754 0
M  V30 7640 H 717.858 0.663998 -0.00157797 0
M  V30 7641 H 720.388 1.94699 -0.628779 0
M  V30 7642 H 720.398 4.02617 0.660583 0
M  V30 7643 H 719.073 4.13038 -0.487049 0
M  V30 7644 H 717.65 3.51724 1.23873 0
M  V30 7645 N 719.835 0.176821 1.56605 0
M  V30 7646 C 720.782 -0.751312 2.18229 0
M  V30 7647 C 721.752 -1.22297 1.12395 0
M  V30 7648 O 722.937 -1.29015 1.40569 0
M  V30 7649 C 720.077 -1.97291 2.83143 0
M  V30 7650 C 719.19 -1.54431 4.03454 0
M  V30 7651 C 718.325 -2.72 4.56278 0
M  V30 7652 C 717.364 -2.25657 5.68986 0
M  V30 7653 N 716.501 -3.36338 6.16296 0
M  V30 7654 H 721.341 -0.219033 2.97194 0
M  V30 7655 H 718.878 -0.0963803 1.46784 0
M  V30 7656 H 720.836 -2.68949 3.1894 0
M  V30 7657 H 719.466 -2.4788 2.06773 0
M  V30 7658 H 718.518 -0.724273 3.73441 0
M  V30 7659 H 719.83 -1.16417 4.85024 0
M  V30 7660 H 718.984 -3.51806 4.94285 0
M  V30 7661 H 717.723 -3.13277 3.73777 0
M  V30 7662 H 716.728 -1.44299 5.30526 0
M  V30 7663 H 717.953 -1.85432 6.53293 0
M  V30 7664 H 715.899 -3.7718 5.36723 0
M  V30 7665 H 715.816 -3.02435 6.9287 0
M  V30 7666 H 717.084 -4.16413 6.58954 0
M  V30 7667 N 721.313 -1.57302 -0.09688 0
M  V30 7668 C 722.246 -1.97179 -1.14872 0
M  V30 7669 C 723.224 -0.844734 -1.38935 0
M  V30 7670 O 724.408 -1.10487 -1.52725 0
M  V30 7671 C 721.535 -2.28703 -2.49826 0
M  V30 7672 C 720.581 -3.51158 -2.42054 0
M  V30 7673 S 721.414 -5.0294 -1.83879 0
M  V30 7674 C 722.57 -5.37639 -3.2046 0
M  V30 7675 H 722.803 -2.86088 -0.808771 0
M  V30 7676 H 720.336 -1.51368 -0.304492 0
M  V30 7677 H 722.294 -2.47541 -3.27466 0
M  V30 7678 H 720.955 -1.40368 -2.8099 0
M  V30 7679 H 720.148 -3.70651 -3.41517 0
M  V30 7680 H 719.75 -3.31821 -1.72543 0
M  V30 7681 H 722.042 -5.34175 -4.16729 0
M  V30 7682 H 722.985 -6.38677 -3.05773 0
M  V30 7683 H 723.393 -4.651 -3.19909 0
M  V30 7684 N 722.791 0.367657 -1.53252 0
M  V30 7685 C 723.739 1.47061 -1.8021 0
M  V30 7686 C 724.733 1.55539 -0.671112 0
M  V30 7687 O 725.939 1.58451 -0.854014 0
M  V30 7688 H 722.314 0.489868 -0.570555 0
M  V30 7689 H 724.285 1.21527 -2.72532 0
M  V30 7690 C 723.034 2.83924 -2.00706 0
M  V30 7691 H 722.357 2.78158 -2.87172 0
M  V30 7692 H 723.797 3.60281 -2.23547 0
M  V30 7693 C 722.256 3.27613 -0.785568 0
M  V30 7694 O 722.786 4.01691 0.0267459 0
M  V30 7695 N 720.992 2.84134 -0.609597 0
M  V30 7696 H 720.539 2.24017 -1.27178 0
M  V30 7697 H 720.497 3.13723 0.206281 0
M  V30 7698 N 724.269 1.44576 0.627338 0
M  V30 7699 C 725.516 1.47558 1.38682 0
M  V30 7700 C 725.844 0.109636 1.94191 0
M  V30 7701 O 725.099 -0.889092 1.74338 0
M  V30 7702 C 725.398 2.48644 2.56731 0
M  V30 7703 C 725.064 3.93873 2.19489 0
M  V30 7704 C 723.726 4.33421 2.09045 0
M  V30 7705 C 726.078 4.85286 1.90124 0
M  V30 7706 C 723.406 5.62303 1.6743 0
M  V30 7707 C 725.758 6.14559 1.50001 0
M  V30 7708 C 724.422 6.53058 1.38101 0
M  V30 7709 H 723.692 0.539955 0.507474 0
M  V30 7710 H 726.339 1.77811 0.711021 0
M  V30 7711 H 724.644 2.11889 3.29561 0
M  V30 7712 H 726.341 2.48197 3.14959 0
M  V30 7713 H 722.931 3.62587 2.28537 0
M  V30 7714 H 727.115 4.55483 1.971 0
M  V30 7715 H 722.371 5.90945 1.56823 0
M  V30 7716 H 726.545 6.84848 1.26319 0
M  V30 7717 H 724.172 7.52826 1.05628 0
M  V30 7718 N 725.747 -0.868086 1.31537 0
M  V30 7719 C 726.71 -1.95703 1.19302 0
M  V30 7720 C 727.71 -1.60355 0.119612 0
M  V30 7721 O 728.9 -1.70247 0.36902 0
M  V30 7722 C 726.032 -3.30599 0.831684 0
M  V30 7723 H 727.225 -2.07982 2.16064 0
M  V30 7724 H 724.778 -1.05661 1.15176 0
M  V30 7725 H 725.513 -3.2402 -0.134694 0
M  V30 7726 H 725.298 -3.57629 1.60761 0
M  V30 7727 H 726.788 -4.10439 0.770026 0
M  V30 7728 N 727.225 -1.14528 -1.08264 0
M  V30 7729 C 728.45 -0.938381 -1.84957 0
M  V30 7730 C 728.875 0.508044 -1.81109 0
M  V30 7731 O 728.233 1.36146 -1.19724 0
M  V30 7732 C 728.281 -1.44568 -3.30352 0
M  V30 7733 O 727.385 -0.638745 -4.07423 0
M  V30 7734 H 726.726 -0.335394 -0.573068 0
M  V30 7735 H 729.256 -1.52287 -1.36637 0
M  V30 7736 H 729.266 -1.45449 -3.81194 0
M  V30 7737 H 727.941 -2.49876 -3.32468 0
M  V30 7738 H 726.518 -0.698801 -3.66294 0
M  V30 7739 N 728.703 1.26451 -0.940633 0
M  V30 7740 C 729.635 2.25556 -0.407104 0
M  V30 7741 C 730.648 1.55888 0.469324 0
M  V30 7742 O 731.837 1.76292 0.279858 0
M  V30 7743 C 728.937 3.36109 0.434064 0
M  V30 7744 C 728.11 4.3532 -0.426082 0
M  V30 7745 C 727.169 5.25004 0.354563 0
M  V30 7746 O 726.195 5.68684 -0.242219 0
M  V30 7747 N 727.397 5.5652 1.65123 0
M  V30 7748 H 730.162 2.7197 -1.25907 0
M  V30 7749 H 727.723 1.40212 -0.809456 0
M  V30 7750 H 729.715 3.93059 0.963684 0
M  V30 7751 H 728.285 2.89194 1.18683 0
M  V30 7752 H 727.505 3.77449 -1.13692 0
M  V30 7753 H 728.793 4.986 -1.01366 0
M  V30 7754 H 728.191 5.22912 2.15822 0
M  V30 7755 H 726.748 6.16115 2.12711 0
M  V30 7756 N 730.181 0.707592 1.40822 0
M  V30 7757 C 731.427 0.244031 2.01326 0
M  V30 7758 C 731.76 -1.15722 1.55955 0
M  V30 7759 O 731.035 -1.78347 0.776044 0
M  V30 7760 C 731.318 0.315128 3.58718 0
M  V30 7761 C 731.171 1.75419 4.14184 0
M  V30 7762 C 732.49 -0.318251 4.38948 0
M  V30 7763 H 729.609 0.0901471 0.731466 0
M  V30 7764 H 732.251 0.898584 1.67408 0
M  V30 7765 H 730.401 -0.242176 3.87744 0
M  V30 7766 H 732.073 2.36626 3.95987 0
M  V30 7767 H 730.316 2.28449 3.68773 0
M  V30 7768 H 730.987 1.75538 5.23345 0
M  V30 7769 H 733.463 0.156514 4.15806 0
M  V30 7770 H 732.339 -0.238019 5.48384 0
M  V30 7771 H 732.6 -1.40067 4.19325 0
M  V30 7772 N 731.66 -1.50943 0.453197 0
M  V30 7773 C 732.907 -2.02212 -0.107922 0
M  V30 7774 C 733.235 -1.33639 -1.41318 0
M  V30 7775 O 732.49 -0.445154 -1.9057 0
M  V30 7776 C 732.789 -3.55603 -0.357944 0
M  V30 7777 C 732.455 -4.42556 0.863427 0
M  V30 7778 C 731.117 -4.6604 1.19834 0
M  V30 7779 C 733.469 -4.93468 1.67747 0
M  V30 7780 C 730.797 -5.37681 2.34768 0
M  V30 7781 C 733.149 -5.6637 2.81793 0
M  V30 7782 C 731.813 -5.88113 3.1572 0
M  V30 7783 H 731.083 -0.739947 -0.0394916 0
M  V30 7784 H 733.73 -1.81738 0.60363 0
M  V30 7785 H 732.035 -3.74495 -1.15156 0
M  V30 7786 H 733.732 -3.92821 -0.805781 0
M  V30 7787 H 730.322 -4.24485 0.592478 0
M  V30 7788 H 734.506 -4.75194 1.43192 0
M  V30 7789 H 729.762 -5.52727 2.61348 0
M  V30 7790 H 733.936 -6.04806 3.45229 0
M  V30 7791 H 731.563 -6.43404 4.04889 0
M  V30 7792 N 733.138 -0.185124 -1.56509 0
M  V30 7793 C 734.085 0.739729 -2.18624 0
M  V30 7794 C 735.055 1.217 -1.13042 0
M  V30 7795 O 736.24 1.28268 -1.41251 0
M  V30 7796 C 733.38 1.95787 -2.84186 0
M  V30 7797 C 732.493 1.52289 -4.04267 0
M  V30 7798 C 731.628 2.69576 -4.57714 0
M  V30 7799 C 730.667 2.22636 -5.70175 0
M  V30 7800 N 729.804 3.33065 -6.18071 0
M  V30 7801 H 734.644 0.203269 -2.97306 0
M  V30 7802 H 732.181 0.0885946 -1.46833 0
M  V30 7803 H 734.139 2.67253 -3.20361 0
M  V30 7804 H 732.769 2.4678 -2.08085 0
M  V30 7805 H 731.821 0.704458 -3.7382 0
M  V30 7806 H 733.133 1.13843 -4.85635 0
M  V30 7807 H 732.287 3.4918 -4.96143 0
M  V30 7808 H 731.026 3.1129 -3.75433 0
M  V30 7809 H 730.031 1.41483 -5.31284 0
M  V30 7810 H 731.256 1.81964 -6.54267 0
M  V30 7811 H 729.202 3.74328 -5.38715 0
M  V30 7812 H 729.119 2.98756 -6.94464 0
M  V30 7813 H 730.387 4.12912 -6.61153 0
M  V30 7814 N 734.616 1.57351 0.0885366 0
M  V30 7815 C 735.844 1.90631 0.804196 0
M  V30 7816 C 736.259 0.779474 1.71958 0
M  V30 7817 O 735.616 -0.248179 1.80805 0
M  V30 7818 C 735.667 3.23568 1.61202 0
M  V30 7819 O 735.388 4.31917 0.733447 0
M  V30 7820 C 736.889 3.70753 2.43016 0
M  V30 7821 H 734.109 0.630501 0.229585 0
M  V30 7822 H 736.653 2.044 0.0638092 0
M  V30 7823 H 734.808 3.11377 2.30485 0
M  V30 7824 H 735.222 5.08297 1.29361 0
M  V30 7825 H 736.696 4.66447 2.9518 0
M  V30 7826 H 737.173 2.98922 3.2178 0
M  V30 7827 H 737.779 3.85834 1.7892 0
M  V30 7828 N 736.094 -0.359525 1.53444 0
M  V30 7829 C 737.004 -1.46445 1.83278 0
M  V30 7830 C 738.02 -1.5833 0.721629 0
M  V30 7831 O 739.196 -1.7411 1.01231 0
M  V30 7832 C 736.261 -2.81638 2.02191 0
M  V30 7833 C 735.322 -2.7923 3.26082 0
M  V30 7834 C 734.555 -4.07974 3.44082 0
M  V30 7835 O 734.778 -5.04447 2.66251 0
M  V30 7836 O 733.712 -4.13417 4.37458 0
M  V30 7837 H 737.538 -1.24156 2.77162 0
M  V30 7838 H 735.123 -0.550201 1.389 0
M  V30 7839 H 737.005 -3.61732 2.16167 0
M  V30 7840 H 735.68 -3.03892 1.11496 0
M  V30 7841 H 734.587 -1.97813 3.17523 0
M  V30 7842 H 735.92 -2.6193 4.16718 0
M  V30 7843 N 737.572 -1.44907 -0.619662 0
M  V30 7844 C 738.522 -1.49085 -1.72504 0
M  V30 7845 C 739.506 -0.355372 -1.56926 0
M  V30 7846 O 740.698 -0.601441 -1.66468 0
M  V30 7847 C 737.827 -1.44889 -3.11227 0
M  V30 7848 C 736.913 -2.63593 -3.32234 0
M  V30 7849 N 737.304 -3.88775 -3.23555 0
M  V30 7850 C 735.602 -2.59033 -3.63067 0
M  V30 7851 C 736.303 -4.67932 -3.45564 0
M  V30 7852 N 735.279 -3.9919 -3.68983 0
M  V30 7853 H 739.081 -2.43706 -1.6427 0
M  V30 7854 H 736.595 -1.4003 -0.82252 0
M  V30 7855 H 738.592 -1.45966 -3.90512 0
M  V30 7856 H 737.252 -0.513143 -3.2062 0
M  V30 7857 H 738.263 -4.20574 -3.02221 0
M  V30 7858 H 734.94 -1.7431 -3.79371 0
M  V30 7859 H 736.33 -5.76952 -3.44349 0
M  V30 7860 N 739.05 0.861098 -1.31996 0
M  V30 7861 C 739.96 2.00154 -1.22374 0
M  V30 7862 C 740.976 1.73447 -0.138631 0
M  V30 7863 O 742.152 1.98191 -0.358104 0
M  V30 7864 C 739.217 3.33696 -0.940645 0
M  V30 7865 C 738.278 3.73668 -2.11355 0
M  V30 7866 C 737.511 5.00837 -1.84386 0
M  V30 7867 O 737.734 5.64996 -0.783287 0
M  V30 7868 O 736.668 5.37787 -2.70313 0
M  V30 7869 H 740.494 2.11207 -2.18233 0
M  V30 7870 H 738.079 0.990768 -1.11822 0
M  V30 7871 H 739.961 4.13756 -0.798987 0
M  V30 7872 H 738.636 3.23698 -0.0121636 0
M  V30 7873 H 737.543 2.94211 -2.31065 0
M  V30 7874 H 738.876 3.88303 -3.02459 0
M  V30 7875 N 740.528 1.15101 1.07655 0
M  V30 7876 C 741.475 0.844958 2.14777 0
M  V30 7877 C 742.445 -0.200798 1.64882 0
M  V30 7878 O 743.63 -0.0690278 1.90675 0
M  V30 7879 C 740.77 0.337018 3.4345 0
M  V30 7880 C 739.883 1.44398 4.07153 0
M  V30 7881 C 739.018 0.892487 5.23649 0
M  V30 7882 C 738.057 1.9766 5.79307 0
M  V30 7883 N 737.194 1.44171 6.87138 0
M  V30 7884 H 742.034 1.76242 2.40297 0
M  V30 7885 H 739.571 0.879435 1.17917 0
M  V30 7886 H 741.529 0.024256 4.17193 0
M  V30 7887 H 740.159 -0.543531 3.18191 0
M  V30 7888 H 739.211 1.87299 3.31094 0
M  V30 7889 H 740.523 2.26262 4.4453 0
M  V30 7890 H 739.677 0.532083 6.04362 0
M  V30 7891 H 738.416 0.0429854 4.87681 0
M  V30 7892 H 737.421 2.34586 4.97242 0
M  V30 7893 H 738.646 2.82982 6.17331 0
M  V30 7894 H 736.592 0.614518 6.53115 0
M  V30 7895 H 736.509 2.19665 7.23383 0
M  V30 7896 H 737.777 1.10945 7.71564 0
M  V30 7897 N 742.006 -1.2595 0.947325 0
M  V30 7898 C 742.938 -2.25336 0.41906 0
M  V30 7899 C 743.951 -1.56135 -0.461051 0
M  V30 7900 O 745.14 -1.76438 -0.270505 0
M  V30 7901 C 742.24 -3.36334 -0.416233 0
M  V30 7902 C 741.413 -4.35088 0.449162 0
M  V30 7903 C 740.472 -5.25185 -0.326716 0
M  V30 7904 O 739.498 -5.68548 0.272374 0
M  V30 7905 N 740.7 -5.57388 -1.6217 0
M  V30 7906 H 743.465 -2.71298 1.27348 0
M  V30 7907 H 741.026 -1.39781 0.81688 0
M  V30 7908 H 743.018 -3.93564 -0.942826 0
M  V30 7909 H 741.588 -2.89819 -1.17148 0
M  V30 7910 H 740.808 -3.76841 1.15692 0
M  V30 7911 H 742.096 -4.98056 1.04008 0
M  V30 7912 H 741.494 -5.2405 -2.13046 0
M  V30 7913 H 740.051 -6.17234 -2.0944 0
M  V30 7914 N 743.484 -0.715051 -1.40445 0
M  V30 7915 C 744.73 -0.254705 -2.01194 0
M  V30 7916 C 745.063 1.14894 -1.56567 0
M  V30 7917 O 744.338 1.77933 -0.785491 0
M  V30 7918 C 744.621 -0.334148 -3.58546 0
M  V30 7919 C 744.474 -1.77613 -4.13248 0
M  V30 7920 C 745.793 0.294968 -4.3911 0
M  V30 7921 H 742.912 -0.094025 -0.730978 0
M  V30 7922 H 745.554 -0.907449 -1.66929 0
M  V30 7923 H 743.704 0.221609 -3.87867 0
M  V30 7924 H 745.376 -2.38723 -3.94727 0
M  V30 7925 H 743.619 -2.30402 -3.67556 0
M  V30 7926 H 744.29 -1.78311 -5.22407 0
M  V30 7927 H 746.766 -0.178563 -4.15717 0
M  V30 7928 H 745.642 0.208934 -5.48502 0
M  V30 7929 H 745.903 1.37841 -4.20062 0
M  V30 7930 N 744.962 1.50701 -0.461195 0
M  V30 7931 C 745.909 2.2831 0.338094 0
M  V30 7932 C 746.879 1.32928 0.995957 0
M  V30 7933 O 748.064 1.61857 1.0103 0
M  V30 7934 C 745.204 3.14539 1.41983 0
M  V30 7935 C 744.317 4.24942 0.77773 0
M  V30 7936 C 743.452 4.98443 1.83652 0
M  V30 7937 C 742.491 6.00733 1.17413 0
M  V30 7938 N 741.628 6.6755 2.17533 0
M  V30 7939 H 746.468 2.96167 -0.330051 0
M  V30 7940 H 744.005 1.4606 -0.174611 0
M  V30 7941 H 745.963 3.62877 2.05855 0
M  V30 7942 H 744.593 2.48749 2.05727 0
M  V30 7943 H 743.645 3.80391 0.0266924 0
M  V30 7944 H 744.957 4.98151 0.254362 0
M  V30 7945 H 744.111 5.50449 2.55129 0
M  V30 7946 H 742.85 4.24917 2.39367 0
M  V30 7947 H 741.855 5.47997 0.444944 0
M  V30 7948 H 743.08 6.76227 0.624006 0
M  V30 7949 H 741.026 5.96823 2.72284 0
M  V30 7950 H 740.943 7.36603 1.70154 0
M  V30 7951 H 742.211 7.24178 2.88421 0
M  V30 7952 N 746.441 0.193421 1.56409 0
M  V30 7953 C 747.351 -0.740112 2.2262 0
M  V30 7954 C 748.367 -1.23597 1.22474 0
M  V30 7955 O 749.543 -1.28348 1.55206 0
M  V30 7956 C 746.608 -1.94317 2.87127 0
M  V30 7957 C 745.669 -1.49205 4.02538 0
M  V30 7958 C 744.902 -2.63776 4.63959 0
M  V30 7959 O 745.125 -3.81215 4.24301 0
M  V30 7960 O 744.059 -2.36585 5.53454 0
M  V30 7961 H 747.885 -0.206238 3.02999 0
M  V30 7962 H 745.47 -0.0357938 1.49357 0
M  V30 7963 H 747.352 -2.64633 3.27944 0
M  V30 7964 H 746.027 -2.46568 2.09728 0
M  V30 7965 H 744.934 -0.757738 3.66346 0
M  V30 7966 H 746.267 -1.01622 4.81595 0
M  V30 7967 N 747.919 -1.57396 -0.0801906 0
M  V30 7968 C 748.882 -2.02133 -1.0805 0
M  V30 7969 C 749.882 -0.91707 -1.32085 0
M  V30 7970 O 751.072 -1.18217 -1.27947 0
M  V30 7971 C 748.204 -2.39479 -2.42616 0
M  V30 7972 H 749.397 -2.91733 -0.6951 0
M  V30 7973 H 746.95 -1.52869 -0.325677 0
M  V30 7974 H 747.685 -1.52879 -2.86004 0
M  V30 7975 H 747.47 -3.20052 -2.26515 0
M  V30 7976 H 748.96 -2.74697 -3.14534 0
M  V30 7977 N 749.397 0.351382 -1.53633 0
M  V30 7978 C 750.674 1.10903 -1.6112 0
M  V30 7979 C 751.054 2.06725 -0.427556 0
M  V30 7980 O 750.402 2.20992 0.580916 0
M  V30 7981 C 750.612 1.83561 -2.96827 0
M  V30 7982 C 751.96 2.37587 -3.51906 0
M  V30 7983 O 752.984 1.93669 -2.9895 0
M  V30 7984 O 751.843 3.17913 -4.44515 0
M  V30 7985 H 748.937 0.509558 -0.651368 0
M  V30 7986 H 751.483 0.353504 -1.65977 0
M  V30 7987 H 750.255 1.1371 -3.74414 0
M  V30 7988 H 749.878 2.6599 -2.95525 0
M  V30 7989 N 750.875 1.45233 0.611969 0
M  V30 7990 C 752.105 1.52318 1.39581 0
M  V30 7991 C 752.513 0.153093 1.8858 0
M  V30 7992 O 751.856 -0.854792 1.62601 0
M  V30 7993 C 751.918 2.4426 2.63775 0
M  V30 7994 C 751.582 3.91079 2.36445 0
M  V30 7995 C 752.579 4.81099 1.97079 0
M  V30 7996 C 750.264 4.35958 2.49492 0
M  V30 7997 C 752.258 6.14002 1.71115 0
M  V30 7998 C 749.945 5.68903 2.23142 0
M  V30 7999 C 750.943 6.57744 1.84015 0
M  V30 8000 O 750.631 7.88226 1.5797 0
M  V30 8001 H 750.363 0.518428 0.43383 0
M  V30 8002 H 752.917 1.91067 0.753837 0
M  V30 8003 H 751.147 2.00474 3.30677 0
M  V30 8004 H 752.836 2.42077 3.25812 0
M  V30 8005 H 753.602 4.47692 1.86539 0
M  V30 8006 H 749.481 3.67053 2.78914 0
M  V30 8007 H 753.025 6.83305 1.405 0
M  V30 8008 H 748.922 6.01866 2.33297 0
M  V30 8009 H 749.69 8.00211 1.72058 0
M  V30 8010 N 752.353 -0.854086 1.3245 0
M  V30 8011 C 753.602 -1.60318 1.22397 0
M  V30 8012 C 753.915 -1.9444 -0.212664 0
M  V30 8013 O 755.121 -2.67991 -0.435066 0
M  V30 8014 C 753.577 -2.8909 2.1437 0
M  V30 8015 C 753.185 -2.62391 3.63119 0
M  V30 8016 C 754.929 -3.67104 2.13155 0
M  V30 8017 C 752.836 -3.87167 4.47052 0
M  V30 8018 H 751.766 -0.601586 0.454544 0
M  V30 8019 H 754.417 -0.943023 1.57415 0
M  V30 8020 H 752.799 -3.56567 1.72268 0
M  V30 8021 H 753.973 -2.03222 4.13567 0
M  V30 8022 H 752.288 -1.97706 3.66471 0
M  V30 8023 H 754.885 -4.59696 2.731 0
M  V30 8024 H 755.228 -4.00876 1.12268 0
M  V30 8025 H 755.761 -3.06533 2.5354 0
M  V30 8026 H 752.5 -3.58536 5.48755 0
M  V30 8027 H 752.02 -4.45729 4.01355 0
M  V30 8028 H 753.699 -4.549 4.60081 0
M  V30 8029 N 753.831 -1.1567 -1.07043 0
M  V30 8030 C 755.08 -0.928039 -1.79082 0
M  V30 8031 C 755.393 0.545968 -1.87826 0
M  V30 8032 O 756.599 0.892308 -2.56418 0
M  V30 8033 C 755.055 -1.61103 -3.21829 0
M  V30 8034 C 754.663 -3.12228 -3.21275 0
M  V30 8035 C 756.407 -1.46404 -3.98455 0
M  V30 8036 C 754.314 -3.733 -4.58695 0
M  V30 8037 H 753.244 -0.34357 -0.671175 0
M  V30 8038 H 755.895 -1.38718 -1.20123 0
M  V30 8039 H 754.277 -1.07958 -3.81 0
M  V30 8040 H 755.451 -3.72155 -2.71731 0
M  V30 8041 H 753.766 -3.26725 -2.58147 0
M  V30 8042 H 756.363 -1.8942 -5.00024 0
M  V30 8043 H 756.706 -0.41195 -4.14257 0
M  V30 8044 H 757.239 -1.96663 -3.45787 0
M  V30 8045 H 753.978 -4.78423 -4.48098 0
M  V30 8046 H 753.498 -3.18157 -5.08465 0
M  V30 8047 H 755.177 -3.7441 -5.27661 0
M  V30 8048 N 755.309 1.25446 -0.953992 0
M  V30 8049 C 756.537 1.97215 -0.625595 0
M  V30 8050 C 756.952 1.70911 0.802168 0
M  V30 8051 O 756.309 0.984782 1.5365 0
M  V30 8052 C 756.36 3.50777 -0.873943 0
M  V30 8053 O 756.081 3.76173 -2.24556 0
M  V30 8054 C 757.582 4.39776 -0.557845 0
M  V30 8055 H 754.802 0.628652 -0.2346 0
M  V30 8056 H 757.346 1.59632 -1.27819 0
M  V30 8057 H 755.501 3.86474 -0.267765 0
M  V30 8058 H 755.915 4.70636 -2.31522 0
M  V30 8059 H 757.389 5.46431 -0.782157 0
M  V30 8060 H 757.866 4.36257 0.507573 0
M  V30 8061 H 758.472 4.09644 -1.14332 0
M  V30 8062 N 756.787 0.722489 1.40064 0
M  V30 8063 C 758.035 0.264455 2.00362 0
M  V30 8064 C 758.356 -1.14847 1.57592 0
M  V30 8065 O 757.626 -1.77982 0.818477 0
M  V30 8066 H 756.206 0.0947846 0.740962 0
M  V30 8067 H 758.868 0.929659 1.71299 0
M  V30 8068 H 757.964 0.302977 3.10626 0
M  V30 8069 N 758.265 -1.50454 0.469181 0
M  V30 8070 C 759.49 -2.0722 -0.0864892 0
M  V30 8071 C 759.915 -1.33098 -1.32916 0
M  V30 8072 O 759.273 -0.378084 -1.77314 0
M  V30 8073 C 759.321 -3.58845 -0.355384 0
M  V30 8074 O 758.425 -3.86583 -1.43622 0
M  V30 8075 H 757.766 -0.663889 0.0121414 0
M  V30 8076 H 760.296 -1.93674 0.659674 0
M  V30 8077 H 760.306 -4.03617 -0.596447 0
M  V30 8078 H 758.981 -4.12211 0.552698 0
M  V30 8079 H 757.558 -3.5365 -1.18262 0
M  V30 8080 N 759.743 -0.201713 -1.56304 0
M  V30 8081 C 760.973 0.440084 -2.01858 0
M  V30 8082 C 761.381 1.55279 -1.08098 0
M  V30 8083 O 760.724 1.83529 -0.0792216 0
M  V30 8084 C 760.786 1.05091 -3.43797 0
M  V30 8085 C 760.45 0.0761208 -4.56937 0
M  V30 8086 C 761.447 -0.716951 -5.14933 0
M  V30 8087 C 759.132 -0.0368815 -5.02286 0
M  V30 8088 C 761.126 -1.60993 -6.16733 0
M  V30 8089 C 758.813 -0.933409 -6.03929 0
M  V30 8090 C 759.811 -1.71849 -6.61027 0
M  V30 8091 O 759.499 -2.59998 -7.60695 0
M  V30 8092 H 759.231 0.114139 -0.666294 0
M  V30 8093 H 761.785 -0.309672 -2.03052 0
M  V30 8094 H 760.015 1.84938 -3.3961 0
M  V30 8095 H 761.704 1.59804 -3.73118 0
M  V30 8096 H 762.47 -0.63999 -4.80759 0
M  V30 8097 H 758.349 0.564034 -4.57537 0
M  V30 8098 H 761.893 -2.22315 -6.61227 0
M  V30 8099 H 757.79 -1.01146 -6.37526 0
M  V30 8100 H 758.558 -2.53851 -7.7814 0
M  V30 8101 N 761.222 1.57436 0.0718424 0
M  V30 8102 C 762.468 1.87525 0.772149 0
M  V30 8103 C 762.801 0.79399 1.77227 0
M  V30 8104 O 762.076 -0.195733 1.93513 0
M  V30 8105 C 762.359 3.28272 1.48018 0
M  V30 8106 C 762.212 4.47052 0.49647 0
M  V30 8107 C 763.531 3.67256 2.42509 0
M  V30 8108 H 760.65 0.682049 0.279245 0
M  V30 8109 H 763.292 1.89967 0.03534 0
M  V30 8110 H 761.442 3.26321 2.10824 0
M  V30 8111 H 763.114 4.61127 -0.126375 0
M  V30 8112 H 761.357 4.33392 -0.188205 0
M  V30 8113 H 762.028 5.42315 1.02949 0
M  V30 8114 H 764.504 3.70301 1.89781 0
M  V30 8115 H 763.38 4.66626 2.89053 0
M  V30 8116 H 763.641 2.97186 3.27312 0
M  V30 8117 N 762.7 -0.34323 1.53817 0
M  V30 8118 C 763.946 -1.08504 1.71332 0
M  V30 8119 C 764.279 -1.88294 0.475285 0
M  V30 8120 O 763.554 -1.87205 -0.527688 0
M  V30 8121 C 763.837 -2.02597 2.97702 0
M  V30 8122 C 763.69 -1.26268 4.31713 0
M  V30 8123 C 765.009 -3.0241 3.19744 0
M  V30 8124 H 762.128 -0.393072 0.623429 0
M  V30 8125 H 764.77 -0.363579 1.86489 0
M  V30 8126 H 762.92 -2.64118 2.8491 0
M  V30 8127 H 764.592 -0.673594 4.56356 0
M  V30 8128 H 762.835 -0.564696 4.30109 0
M  V30 8129 H 763.506 -1.95253 5.16314 0
M  V30 8130 H 765.982 -2.51004 3.31868 0
M  V30 8131 H 764.858 -3.65449 4.09558 0
M  V30 8132 H 765.119 -3.73806 2.36054 0
M  V30 8133 N 764.178 -1.45556 -0.604258 0
M  V30 8134 C 765.125 -1.54482 -1.71476 0
M  V30 8135 C 766.095 -0.390479 -1.61445 0
M  V30 8136 O 767.28 -0.604371 -1.80975 0
M  V30 8137 C 764.42 -1.52064 -3.09791 0
M  V30 8138 C 763.533 -2.78073 -3.30604 0
M  V30 8139 C 762.668 -2.67304 -4.59044 0
M  V30 8140 C 761.707 -3.88352 -4.73127 0
M  V30 8141 N 760.844 -3.76098 -5.9287 0
M  V30 8142 H 765.684 -2.49349 -1.63184 0
M  V30 8143 H 763.221 -1.23725 -0.795641 0
M  V30 8144 H 765.179 -1.48649 -3.89819 0
M  V30 8145 H 763.809 -0.607442 -3.17033 0
M  V30 8146 H 762.861 -2.91561 -2.44329 0
M  V30 8147 H 764.173 -3.67847 -3.36883 0
M  V30 8148 H 763.327 -2.61875 -5.47272 0
M  V30 8149 H 762.066 -1.75135 -4.55169 0
M  V30 8150 H 761.071 -3.94137 -3.83322 0
M  V30 8151 H 762.296 -4.81591 -4.78797 0
M  V30 8152 H 760.242 -2.867 -5.90033 0
M  V30 8153 H 760.159 -4.59509 -6.00323 0
M  V30 8154 H 761.427 -3.74607 -6.83586 0
M  V30 8155 N 765.656 0.84705 -1.32902 0
M  V30 8156 C 766.604 1.97765 -1.22441 0
M  V30 8157 C 767.598 1.68919 -0.127546 0
M  V30 8158 O 768.804 1.77633 -0.290973 0
M  V30 8159 H 765.179 0.649072 -0.379748 0
M  V30 8160 H 767.15 2.03713 -2.18044 0
M  V30 8161 C 765.899 3.33834 -0.972125 0
M  V30 8162 H 765.222 3.56564 -1.80837 0
M  V30 8163 H 766.662 4.13467 -0.939209 0
M  V30 8164 C 765.121 3.35328 0.325059 0
M  V30 8165 O 765.651 3.78887 1.33445 0
M  V30 8166 N 763.857 2.88488 0.349718 0
M  V30 8167 H 763.404 2.53234 -0.472236 0
M  V30 8168 H 763.362 2.8987 1.21748 0
M  V30 8169 N 767.134 1.16236 1.06428 0
M  V30 8170 C 768.411 0.853294 1.76006 0
M  V30 8171 C 768.791 -0.649162 2.00871 0
M  V30 8172 O 768.139 -1.59653 1.63472 0
M  V30 8173 C 768.349 1.67448 3.06206 0
M  V30 8174 C 769.697 1.8866 3.80385 0
M  V30 8175 O 770.721 1.64303 3.16043 0
M  V30 8176 O 769.58 2.29518 4.95968 0
M  V30 8177 H 766.674 0.314737 0.764767 0
M  V30 8178 H 769.22 1.26865 1.12709 0
M  V30 8179 H 767.992 2.69411 2.83784 0
M  V30 8180 H 767.615 1.25608 3.77238 0
M  V30 8181 N 768.612 -1.24939 0.960631 0
M  V30 8182 C 770.023 -1.74701 0.658529 0
M  V30 8183 C 770.374 -1.77967 -0.825959 0
M  V30 8184 O 769.499 -1.40444 -1.64634 0
M  V30 8185 C 770.094 -3.17263 1.18867 0
M  V30 8186 C 768.653 -3.64561 0.936614 0
M  V30 8187 C 767.8 -2.43423 1.32817 0
M  V30 8188 H 770.751 -1.10741 1.13676 0
M  V30 8189 H 770.772 -3.76481 0.551589 0
M  V30 8190 H 770.284 -3.14854 2.26912 0
M  V30 8191 H 768.385 -3.72378 -0.128608 0
M  V30 8192 H 768.498 -4.52392 1.57729 0
M  V30 8193 H 766.862 -2.43513 0.746548 0
M  V30 8194 H 767.645 -2.437 2.41796 0
M  V30 8195 N 770.09 -0.729906 -1.39679 0
M  V30 8196 C 771.336 -0.27603 -2.00913 0
M  V30 8197 C 771.669 1.13227 -1.57776 0
M  V30 8198 O 770.944 1.7709 -0.804319 0
M  V30 8199 C 771.227 -0.372157 -3.58172 0
M  V30 8200 C 771.08 -1.81986 -4.11341 0
M  V30 8201 C 772.399 0.248378 -4.39399 0
M  V30 8202 H 769.518 -0.101773 -0.729939 0
M  V30 8203 H 772.16 -0.925104 -1.65957 0
M  V30 8204 H 770.31 0.180459 -3.88081 0
M  V30 8205 H 771.982 -2.42896 -3.92172 0
M  V30 8206 H 770.225 -2.34287 -3.65092 0
M  V30 8207 H 770.896 -1.83842 -5.20486 0
M  V30 8208 H 773.372 -0.222645 -4.15504 0
M  V30 8209 H 772.248 0.150746 -5.48693 0
M  V30 8210 H 772.509 1.33378 -4.21501 0
M  V30 8211 N 771.568 1.50203 -0.477153 0
M  V30 8212 C 772.814 2.02658 0.0758507 0
M  V30 8213 C 773.147 1.358 1.38824 0
M  V30 8214 O 772.422 0.485696 1.88338 0
M  V30 8215 C 772.705 3.59208 0.253339 0
M  V30 8216 C 772.558 4.36629 -1.0805 0
M  V30 8217 C 773.877 4.28469 1.00509 0
M  V30 8218 H 770.996 0.736538 0.0260921 0
M  V30 8219 H 773.638 1.79464 -0.623925 0
M  V30 8220 H 771.788 3.79101 0.849378 0
M  V30 8221 H 773.46 4.28292 -1.71358 0
M  V30 8222 H 771.703 4.0013 -1.67566 0
M  V30 8223 H 772.374 5.44449 -0.909883 0
M  V30 8224 H 774.85 4.13087 0.499818 0
M  V30 8225 H 773.726 5.37804 1.09808 0
M  V30 8226 H 773.987 3.92057 2.04314 0
M  V30 8227 N 773.046 0.209999 1.56195 0
M  V30 8228 C 773.994 -0.721416 2.2113 0
M  V30 8229 C 774.988 -1.20852 1.18706 0
M  V30 8230 O 776.194 -1.16968 1.36815 0
M  V30 8231 H 772.569 -0.251033 0.708863 0
M  V30 8232 H 774.54 -0.150193 2.98022 0
M  V30 8233 C 773.289 -1.92392 2.89621 0
M  V30 8234 H 772.612 -1.5582 3.68185 0
M  V30 8235 H 774.052 -2.55367 3.38473 0
M  V30 8236 C 772.511 -2.77208 1.91461 0
M  V30 8237 O 773.041 -3.75603 1.42426 0
M  V30 8238 N 771.247 -2.43006 1.59363 0
M  V30 8239 H 770.794 -1.63047 1.99433 0
M  V30 8240 H 770.752 -3.00036 0.939449 0
M  V30 8241 N 774.524 -1.57472 -0.0634922 0
M  V30 8242 C 775.801 -1.78736 -0.794538 0
M  V30 8243 C 776.181 -0.799645 -1.95369 0
M  V30 8244 O 775.529 0.165521 -2.279 0
M  V30 8245 C 775.739 -3.25471 -1.25975 0
M  V30 8246 C 777.087 -3.89528 -1.68976 0
M  V30 8247 O 778.111 -3.29412 -1.35521 0
M  V30 8248 O 776.97 -4.95305 -2.30944 0
M  V30 8249 H 774.064 -0.733813 -0.381376 0
M  V30 8250 H 776.61 -1.69646 -0.0429258 0
M  V30 8251 H 775.382 -3.88922 -0.430721 0
M  V30 8252 H 775.005 -3.39317 -2.07243 0
M  V30 8253 N 776.003 0.335068 -1.53997 0
M  V30 8254 C 777.251 1.07223 -1.71312 0
M  V30 8255 C 777.572 1.88911 -0.483486 0
M  V30 8256 O 776.842 1.89344 0.50257 0
M  V30 8257 H 775.422 0.398846 -0.63161 0
M  V30 8258 H 778.084 0.374288 -1.91272 0
M  V30 8259 H 777.18 1.7448 -2.58772 0
M  V30 8260 N 777.481 1.45874 0.596531 0
M  V30 8261 C 778.727 1.5069 1.35722 0
M  V30 8262 C 779.06 0.152506 1.936 0
M  V30 8263 O 778.335 -0.834411 1.75692 0
M  V30 8264 C 778.618 2.59474 2.4969 0
M  V30 8265 C 778.471 4.04396 1.96937 0
M  V30 8266 C 779.79 2.64451 3.51787 0
M  V30 8267 H 776.909 0.548611 0.492133 0
M  V30 8268 H 779.551 1.77741 0.671428 0
M  V30 8269 H 777.701 2.36539 3.08191 0
M  V30 8270 H 779.373 4.38576 1.43 0
M  V30 8271 H 777.616 4.14529 1.27859 0
M  V30 8272 H 778.287 4.76218 2.79143 0
M  V30 8273 H 780.763 2.85031 3.03145 0
M  V30 8274 H 779.639 3.42411 4.29006 0
M  V30 8275 H 779.9 1.69965 4.08123 0
M  V30 8276 N 778.959 -0.83999 1.33349 0
M  V30 8277 C 780.208 -1.59011 1.2409 0
M  V30 8278 C 780.521 -1.94655 -0.192029 0
M  V30 8279 O 781.727 -2.68438 -0.406617 0
M  V30 8280 C 780.183 -2.86801 2.17425 0
M  V30 8281 C 779.791 -2.58525 3.65881 0
M  V30 8282 C 781.535 -3.64823 2.17036 0
M  V30 8283 C 779.442 -3.82404 4.51133 0
M  V30 8284 H 778.372 -0.596731 0.460899 0
M  V30 8285 H 781.023 -0.926274 1.58406 0
M  V30 8286 H 779.405 -3.54719 1.7604 0
M  V30 8287 H 780.579 -1.98824 4.15699 0
M  V30 8288 H 778.894 -1.93808 3.68548 0
M  V30 8289 H 781.491 -4.56774 2.7796 0
M  V30 8290 H 781.834 -3.99663 1.16513 0
M  V30 8291 H 782.367 -3.03826 2.56777 0
M  V30 8292 H 779.106 -3.52696 5.52527 0
M  V30 8293 H 778.626 -4.41447 4.0606 0
M  V30 8294 H 780.305 -4.49995 4.6488 0
M  V30 8295 N 780.437 -1.16799 -1.0581 0
M  V30 8296 C 781.714 -0.862616 -1.75551 0
M  V30 8297 C 782.094 0.6385 -2.01212 0
M  V30 8298 O 781.442 1.58784 -1.64317 0
M  V30 8299 C 781.652 -1.6907 -3.05314 0
M  V30 8300 C 783 -1.90675 -3.79379 0
M  V30 8301 O 784.024 -1.65976 -3.15167 0
M  V30 8302 O 782.883 -2.32145 -4.94743 0
M  V30 8303 H 779.977 -0.318789 -0.763088 0
M  V30 8304 H 782.523 -1.27461 -1.12034 0
M  V30 8305 H 781.295 -2.70912 -2.82352 0
M  V30 8306 H 780.918 -1.27606 -3.76567 0
M  V30 8307 N 781.915 1.24427 -0.967243 0
M  V30 8308 C 783.192 1.87831 -0.545776 0
M  V30 8309 C 783.572 1.87126 0.977099 0
M  V30 8310 O 782.92 1.34357 1.84826 0
M  V30 8311 C 783.13 3.29967 -1.13679 0
M  V30 8312 C 784.478 4.06654 -1.22139 0
M  V30 8313 O 785.502 3.39136 -1.08926 0
M  V30 8314 O 784.361 5.27455 -1.43017 0
M  V30 8315 H 781.455 0.806745 -0.181912 0
M  V30 8316 H 784.001 1.32403 -1.06148 0
M  V30 8317 H 782.773 3.24977 -2.17958 0
M  V30 8318 H 782.396 3.92969 -0.605093 0
M  V30 8319 N 783.393 0.737304 1.3929 0
M  V30 8320 C 784.621 0.296573 2.04763 0
M  V30 8321 C 785.036 -1.06941 1.55592 0
M  V30 8322 O 784.393 -1.67619 0.721822 0
M  V30 8323 C 784.444 0.291906 3.6032 0
M  V30 8324 O 784.165 1.60397 4.07682 0
M  V30 8325 C 785.666 -0.164708 4.42994 0
M  V30 8326 H 782.886 0.129251 0.658434 0
M  V30 8327 H 785.43 1.0016 1.78293 0
M  V30 8328 H 783.585 -0.364251 3.85684 0
M  V30 8329 H 783.999 1.51909 5.0202 0
M  V30 8330 H 785.473 -0.116814 5.51876 0
M  V30 8331 H 785.95 -1.21022 4.22197 0
M  V30 8332 H 786.556 0.461968 4.22784 0
M  V30 8333 N 784.871 -1.49948 0.485112 0
M  V30 8334 C 786.12 -2.01589 -0.066765 0
M  V30 8335 C 786.433 -1.371 -1.39509 0
M  V30 8336 O 787.639 -1.79978 -2.03274 0
M  V30 8337 C 786.095 -3.59501 -0.169476 0
M  V30 8338 C 785.703 -4.32955 1.15126 0
M  V30 8339 C 787.447 -4.19138 -0.672564 0
M  V30 8340 C 785.354 -5.82684 1.01158 0
M  V30 8341 H 784.284 -0.753453 -0.0287259 0
M  V30 8342 H 786.935 -1.72632 0.622132 0
M  V30 8343 H 785.317 -3.85106 -0.922471 0
M  V30 8344 H 786.491 -4.19064 1.9163 0
M  V30 8345 H 784.806 -3.84991 1.58654 0
M  V30 8346 H 787.403 -5.28767 -0.794325 0
M  V30 8347 H 787.746 -3.81447 -1.66745 0
M  V30 8348 H 788.279 -3.97793 0.0234415 0
M  V30 8349 H 785.018 -6.24873 1.98025 0
M  V30 8350 H 784.538 -5.99112 0.287151 0
M  V30 8351 H 786.217 -6.43376 0.683847 0
M  V30 8352 N 786.349 -0.21828 -1.56081 0
M  V30 8353 C 787.574 0.422302 -2.03055 0
M  V30 8354 C 787.999 1.5279 -1.09713 0
M  V30 8355 O 787.357 1.81102 -0.0847187 0
M  V30 8356 C 787.405 0.934177 -3.48289 0
M  V30 8357 O 786.509 2.04574 -3.58083 0
M  V30 8358 H 785.85 0.0959764 -0.657027 0
M  V30 8359 H 788.38 -0.335958 -2.01823 0
M  V30 8360 H 788.39 1.24484 -3.88546 0
M  V30 8361 H 787.065 0.124963 -4.15712 0
M  V30 8362 H 785.642 1.74196 -3.29712 0
M  V30 8363 N 787.827 1.57504 0.0551401 0
M  V30 8364 C 789.104 1.79155 0.785048 0
M  V30 8365 C 789.484 0.809995 1.94942 0
M  V30 8366 O 788.832 -0.153432 2.27984 0
M  V30 8367 C 789.042 3.26134 1.24247 0
M  V30 8368 C 790.39 3.90419 1.66908 0
M  V30 8369 O 791.414 3.30126 1.33772 0
M  V30 8370 O 790.273 4.96523 2.28314 0
M  V30 8371 H 787.367 0.735825 0.377479 0
M  V30 8372 H 789.913 1.69666 0.0339285 0
M  V30 8373 H 788.685 3.89145 0.410089 0
M  V30 8374 H 788.308 3.40411 2.05441 0
M  V30 8375 N 789.305 -0.326896 1.54172 0
M  V30 8376 C 790.53 -1.08924 1.76494 0
M  V30 8377 C 790.955 -1.81039 0.510523 0
M  V30 8378 O 790.313 -1.73141 -0.537756 0
M  V30 8379 C 790.361 -2.06558 2.95578 0
M  V30 8380 O 789.465 -3.14394 2.6689 0
M  V30 8381 H 788.806 -0.314216 0.584948 0
M  V30 8382 H 791.336 -0.372207 2.01186 0
M  V30 8383 H 791.346 -2.49487 3.22832 0
M  V30 8384 H 790.021 -1.53469 3.86549 0
M  V30 8385 H 788.598 -2.76164 2.50576 0
M  V30 8386 N 790.784 -1.46188 -0.588786 0
M  V30 8387 C 792.009 -1.5498 -1.37826 0
M  V30 8388 C 792.434 -0.189498 -1.87143 0
M  V30 8389 O 791.792 0.829293 -1.61222 0
M  V30 8390 C 791.84 -2.55369 -2.54596 0
M  V30 8391 O 790.944 -2.08452 -3.55839 0
M  V30 8392 H 790.285 -0.521741 -0.41071 0
M  V30 8393 H 792.815 -1.91708 -0.714779 0
M  V30 8394 H 792.825 -2.74782 -3.01594 0
M  V30 8395 H 791.5 -3.54155 -2.18052 0
M  V30 8396 H 790.077 -1.98999 -3.15363 0
M  V30 8397 N 792.262 0.832906 -1.33792 0
M  V30 8398 C 793.209 1.94314 -1.24541 0
M  V30 8399 C 794.179 1.65646 -0.122753 0
M  V30 8400 O 795.364 1.88394 -0.30204 0
M  V30 8401 C 792.504 3.30395 -0.996641 0
M  V30 8402 C 791.617 3.71422 -2.20612 0
M  V30 8403 C 790.752 4.96401 -1.89101 0
M  V30 8404 C 789.791 5.2998 -3.06247 0
M  V30 8405 N 788.928 6.46137 -2.74685 0
M  V30 8406 H 793.768 2.01559 -2.19495 0
M  V30 8407 H 791.305 0.986243 -1.09141 0
M  V30 8408 H 793.263 4.08803 -0.832817 0
M  V30 8409 H 791.893 3.22691 -0.0838242 0
M  V30 8410 H 790.945 2.88488 -2.47949 0
M  V30 8411 H 792.257 3.92215 -3.0817 0
M  V30 8412 H 791.411 5.82572 -1.69396 0
M  V30 8413 H 790.15 4.7759 -0.987882 0
M  V30 8414 H 789.155 4.42312 -3.26559 0
M  V30 8415 H 790.38 5.50737 -3.97323 0
M  V30 8416 H 788.326 6.28801 -1.86938 0
M  V30 8417 H 788.243 6.67054 -3.55774 0
M  V30 8418 H 789.511 7.35403 -2.58461 0
M  V30 8419 N 793.74 1.17359 1.05189 0
M  V30 8420 C 794.986 0.973414 1.78595 0
M  V30 8421 C 795.341 -0.492713 1.85984 0
M  V30 8422 O 794.634 -1.361 1.3486 0
M  V30 8423 C 794.828 1.54821 3.22126 0
M  V30 8424 C 794.657 3.06871 3.28725 0
M  V30 8425 C 793.427 3.75602 3.38011 0
M  V30 8426 C 795.625 4.04467 3.17665 0
M  V30 8427 N 793.607 5.15257 3.33741 0
M  V30 8428 C 794.978 5.30574 3.20766 0
M  V30 8429 C 797.033 3.96138 3.01627 0
M  V30 8430 C 795.736 6.49319 3.09479 0
M  V30 8431 C 797.762 5.14467 2.91681 0
M  V30 8432 C 797.124 6.3946 2.95416 0
M  V30 8433 H 793.223 0.410092 0.665844 0
M  V30 8434 H 795.807 1.48944 1.25395 0
M  V30 8435 H 793.978 1.05853 3.73697 0
M  V30 8436 H 795.71 1.28467 3.83768 0
M  V30 8437 H 792.465 3.26282 3.43273 0
M  V30 8438 H 792.889 5.88263 3.35076 0
M  V30 8439 H 797.531 3.00345 2.97578 0
M  V30 8440 H 795.249 7.45322 3.12283 0
M  V30 8441 H 798.835 5.09803 2.80343 0
M  V30 8442 H 797.715 7.29483 2.87792 0
M  V30 8443 N 795.218 -1.23913 0.973828 0
M  V30 8444 C 796.181 -2.23367 0.51378 0
M  V30 8445 C 797.181 -1.55923 -0.39302 0
M  V30 8446 O 798.371 -1.73187 -0.187626 0
M  V30 8447 C 795.503 -3.39944 -0.255152 0
M  V30 8448 H 796.696 -2.65581 1.39307 0
M  V30 8449 H 794.249 -1.36632 0.759039 0
M  V30 8450 H 794.984 -3.03177 -1.15127 0
M  V30 8451 H 794.769 -3.90098 0.395673 0
M  V30 8452 H 796.259 -4.13749 -0.565842 0
M  V30 8453 N 796.696 -0.74468 -1.38897 0
M  V30 8454 C 797.924 -0.307428 -2.04603 0
M  V30 8455 C 798.339 1.06115 -1.56157 0
M  V30 8456 O 797.696 1.67233 -0.730701 0
M  V30 8457 C 797.747 -0.31101 -3.6016 0
M  V30 8458 O 797.468 -1.62557 -4.06825 0
M  V30 8459 C 798.969 0.141213 -4.43075 0
M  V30 8460 H 796.189 -0.132741 -0.657739 0
M  V30 8461 H 798.733 -1.01104 -1.77759 0
M  V30 8462 H 796.888 0.343792 -3.85872 0
M  V30 8463 H 797.302 -1.54569 -5.01207 0
M  V30 8464 H 798.776 0.0875449 -5.51931 0
M  V30 8465 H 799.253 1.18782 -4.22833 0
M  V30 8466 H 799.859 -0.484383 -4.22533 0
M  V30 8467 N 798.174 1.49689 -0.493057 0
M  V30 8468 C 799.42 2.02727 0.0543518 0
M  V30 8469 C 799.753 1.37264 1.37376 0
M  V30 8470 O 799.028 0.505644 1.87812 0
M  V30 8471 C 799.311 3.59456 0.215226 0
M  V30 8472 C 799.164 4.35459 -1.12675 0
M  V30 8473 C 800.483 4.29511 0.959586 0
M  V30 8474 H 797.602 0.736773 0.0182786 0
M  V30 8475 H 800.244 1.78792 -0.642924 0
M  V30 8476 H 798.394 3.79981 0.809122 0
M  V30 8477 H 800.066 4.2645 -1.75891 0
M  V30 8478 H 798.309 3.9833 -1.71801 0
M  V30 8479 H 798.98 5.43454 -0.967578 0
M  V30 8480 H 801.456 4.13594 0.455977 0
M  V30 8481 H 800.332 5.38939 1.04098 0
M  V30 8482 H 800.593 3.94202 2.00144 0
M  V30 8483 N 799.652 0.226554 1.55963 0
M  V30 8484 C 800.899 -0.403789 1.98433 0
M  V30 8485 C 801.227 -1.59416 1.1143 0
M  V30 8486 O 800.482 -1.95042 0.160389 0
M  V30 8487 C 800.781 -0.87642 3.46488 0
M  V30 8488 C 800.447 0.203973 4.50438 0
M  V30 8489 C 799.109 0.500754 4.78587 0
M  V30 8490 C 801.461 0.934396 5.12756 0
M  V30 8491 C 798.789 1.53239 5.66334 0
M  V30 8492 C 801.141 1.9554 6.0162 0
M  V30 8493 C 799.805 2.25905 6.28111 0
M  V30 8494 H 799.075 -0.147757 0.726119 0
M  V30 8495 H 801.722 0.330121 1.88633 0
M  V30 8496 H 800.027 -1.68918 3.53517 0
M  V30 8497 H 801.724 -1.37407 3.76723 0
M  V30 8498 H 798.314 -0.0374917 4.28584 0
M  V30 8499 H 802.498 0.718355 4.91074 0
M  V30 8500 H 797.754 1.77321 5.85122 0
M  V30 8501 H 801.928 2.52642 6.48957 0
M  V30 8502 H 799.555 3.05985 6.959 0
M  V30 8503 N 801.13 -1.57531 -0.0467866 0
M  V30 8504 C 802.541 -1.76945 -0.595603 0
M  V30 8505 C 802.892 -0.855354 -1.76573 0
M  V30 8506 O 802.017 -0.045668 -2.16352 0
M  V30 8507 C 802.612 -3.20881 -1.08725 0
M  V30 8508 C 801.171 -3.41553 -1.58172 0
M  V30 8509 C 800.318 -2.72533 -0.511968 0
M  V30 8510 H 803.269 -1.57682 0.179436 0
M  V30 8511 H 803.29 -3.26419 -1.95528 0
M  V30 8512 H 802.802 -3.87385 -0.235398 0
M  V30 8513 H 800.903 -2.80199 -2.456 0
M  V30 8514 H 801.016 -4.50104 -1.64143 0
M  V30 8515 H 799.38 -2.35797 -0.962899 0
M  V30 8516 H 800.163 -3.41709 0.330117 0
M  V30 8517 N 802.608 0.318715 -1.54344 0
M  V30 8518 C 804.024 0.663345 -1.45162 0
M  V30 8519 C 804.224 1.9145 -0.62842 0
M  V30 8520 O 803.28 2.5217 -0.129126 0
M  V30 8521 C 804.593 0.832836 -2.88937 0
M  V30 8522 C 806.141 0.929866 -2.98869 0
M  V30 8523 C 806.616 1.13149 -4.43803 0
M  V30 8524 N 808.107 1.19811 -4.47437 0
M  V30 8525 C 808.842 1.37209 -5.56742 0
M  V30 8526 N 808.338 1.51619 -6.76006 0
M  V30 8527 N 810.131 1.39956 -5.44398 0
M  V30 8528 H 802.282 -0.50357 -2.06344 0
M  V30 8529 H 804.545 -0.163528 -0.933789 0
M  V30 8530 H 804.251 -0.0153519 -3.51697 0
M  V30 8531 H 804.125 1.72721 -3.35332 0
M  V30 8532 H 806.512 1.76855 -2.36233 0
M  V30 8533 H 806.593 0.0118561 -2.55797 0
M  V30 8534 H 806.237 0.297636 -5.07027 0
M  V30 8535 H 806.167 2.06345 -4.84489 0
M  V30 8536 H 808.658 1.101 -3.61506 0
M  V30 8537 H 808.971 1.64599 -7.55067 0
M  V30 8538 H 807.316 1.48708 -6.78904 0
M  V30 8539 H 810.507 1.28298 -4.50175 0
M  V30 8540 H 810.68 1.53172 -6.29637 0
M  V30 8541 N 804.086 1.46499 0.581025 0
M  V30 8542 C 805.049 1.5677 1.672 0
M  V30 8543 C 806.049 0.444716 1.54528 0
M  V30 8544 O 807.239 0.709074 1.59116 0
M  V30 8545 C 804.371 1.4896 3.06633 0
M  V30 8546 H 805.564 2.54 1.5945 0
M  V30 8547 H 803.117 1.34334 0.799003 0
M  V30 8548 H 803.852 0.530168 3.19937 0
M  V30 8549 H 803.637 2.30439 3.17239 0
M  V30 8550 H 805.127 1.59237 3.86048 0
M  V30 8551 N 805.565 -0.825799 1.34232 0
M  V30 8552 C 806.811 -1.58419 1.26614 0
M  V30 8553 C 807.144 -1.93503 -0.164341 0
M  V30 8554 O 806.419 -1.59785 -1.109 0
M  V30 8555 C 806.702 -2.8856 2.15418 0
M  V30 8556 C 806.555 -2.60075 3.66989 0
M  V30 8557 C 807.874 -3.90107 2.03726 0
M  V30 8558 H 804.993 -0.574794 0.461282 0
M  V30 8559 H 807.635 -0.951519 1.64457 0
M  V30 8560 H 805.785 -3.42553 1.83275 0
M  V30 8561 H 807.457 -2.12414 4.09485 0
M  V30 8562 H 805.7 -1.93565 3.88221 0
M  V30 8563 H 806.371 -3.52866 4.24488 0
M  V30 8564 H 808.847 -3.45459 2.31942 0
M  V30 8565 H 807.723 -4.78976 2.68092 0
M  V30 8566 H 807.984 -4.30329 1.01337 0
M  V30 8567 N 807.043 -1.17915 -1.04565 0
M  V30 8568 C 807.976 -0.845021 -2.11978 0
M  V30 8569 C 808.954 0.19089 -1.61476 0
M  V30 8570 O 810.138 0.0709905 -1.88366 0
M  V30 8571 C 807.265 -0.261657 -3.37688 0
M  V30 8572 C 806.311 -1.27396 -4.07029 0
M  V30 8573 S 807.144 -2.82783 -4.54746 0
M  V30 8574 C 808.3 -2.25944 -5.83695 0
M  V30 8575 H 808.533 -1.75472 -2.39993 0
M  V30 8576 H 806.066 -1.00447 -1.17259 0
M  V30 8577 H 808.024 0.0684257 -4.10443 0
M  V30 8578 H 806.685 0.626082 -3.07797 0
M  V30 8579 H 805.878 -0.814557 -4.97374 0
M  V30 8580 H 805.48 -1.55002 -3.40368 0
M  V30 8581 H 807.772 -1.63892 -6.57378 0
M  V30 8582 H 808.715 -3.14569 -6.34391 0
M  V30 8583 H 809.123 -1.69155 -5.3856 0
M  V30 8584 N 808.521 1.23394 -0.980386 0
M  V30 8585 C 809.468 2.24859 -0.520298 0
M  V30 8586 C 810.438 1.60144 0.440821 0
M  V30 8587 O 811.623 1.87593 0.348369 0
M  V30 8588 C 808.763 3.44675 0.171145 0
M  V30 8589 C 807.876 4.23947 -0.830233 0
M  V30 8590 C 807.011 5.31079 -0.113597 0
M  V30 8591 C 806.05 6.02058 -1.10419 0
M  V30 8592 N 805.187 7.00862 -0.416709 0
M  V30 8593 H 810.027 2.63579 -1.39032 0
M  V30 8594 H 807.564 1.29556 -0.696682 0
M  V30 8595 H 809.522 4.13024 0.588838 0
M  V30 8596 H 808.152 3.06755 1.00504 0
M  V30 8597 H 807.204 3.55016 -1.36631 0
M  V30 8598 H 808.516 4.72945 -1.58508 0
M  V30 8599 H 807.67 6.05622 0.36146 0
M  V30 8600 H 806.409 4.83022 0.673854 0
M  V30 8601 H 805.414 5.26307 -1.59 0
M  V30 8602 H 806.639 6.52203 -1.8923 0
M  V30 8603 H 804.585 6.55057 0.351535 0
M  V30 8604 H 804.502 7.47804 -1.11021 0
M  V30 8605 H 805.77 7.79492 0.0359606 0
M  V30 8606 N 809.999 0.752036 1.385 0
M  V30 8607 C 810.962 0.131587 2.28822 0
M  V30 8608 C 811.962 -0.649149 1.47115 0
M  V30 8609 O 813.152 -0.475645 1.67581 0
M  V30 8610 C 810.284 -0.822101 3.30839 0
M  V30 8611 H 811.477 0.927551 2.85196 0
M  V30 8612 H 809.03 0.518945 1.47434 0
M  V30 8613 H 809.765 -1.6438 2.79553 0
M  V30 8614 H 809.55 -0.264689 3.91206 0
M  V30 8615 H 811.04 -1.25226 3.98382 0
M  V30 8616 N 811.477 -1.49425 0.500989 0
M  V30 8617 C 812.44 -2.27646 -0.266416 0
M  V30 8618 C 813.44 -1.3366 -0.893961 0
M  V30 8619 O 814.63 -1.5682 -0.758495 0
M  V30 8620 C 811.762 -3.11618 -1.38227 0
M  V30 8621 H 812.955 -2.96945 0.419973 0
M  V30 8622 H 810.508 -1.5419 0.255954 0
M  V30 8623 H 811.243 -2.46885 -2.10281 0
M  V30 8624 H 811.028 -3.80721 -0.937746 0
M  V30 8625 H 812.518 -3.70698 -1.92283 0
M  V30 8626 N 812.955 -0.234822 -1.55841 0
M  V30 8627 C 813.885 0.664217 -2.23854 0
M  V30 8628 C 814.866 1.19076 -1.2147 0
M  V30 8629 O 816.051 1.23232 -1.50091 0
M  V30 8630 C 813.181 1.86666 -2.9287 0
M  V30 8631 C 812.135 1.47341 -4.01839 0
M  V30 8632 C 811.461 2.75571 -4.58219 0
M  V30 8633 C 812.761 0.653479 -5.18196 0
M  V30 8634 H 814.455 0.0971213 -2.99242 0
M  V30 8635 H 812.001 0.0452724 -1.43929 0
M  V30 8636 H 813.954 2.50116 -3.39146 0
M  V30 8637 H 812.678 2.45894 -2.1495 0
M  V30 8638 H 811.337 0.862314 -3.56314 0
M  V30 8639 H 810.985 3.32971 -3.77014 0
M  V30 8640 H 810.685 2.49987 -5.31771 0
M  V30 8641 H 812.209 3.39939 -5.07221 0
M  V30 8642 H 813.623 1.19198 -5.60771 0
M  V30 8643 H 812.02 0.494188 -5.98062 0
M  V30 8644 H 813.09 -0.337004 -4.83728 0
M  V30 8645 N 814.433 1.57553 0.0384317 0
M  V30 8646 C 815.365 2.02726 1.06934 0
M  V30 8647 C 816.378 0.938502 1.33026 0
M  V30 8648 O 817.567 1.21595 1.30678 0
M  V30 8649 C 814.667 2.37958 2.41308 0
M  V30 8650 C 813.84 3.69098 2.34703 0
M  V30 8651 C 812.899 3.91623 3.51451 0
M  V30 8652 O 811.925 4.628 3.31368 0
M  V30 8653 N 813.127 3.36538 4.72993 0
M  V30 8654 H 815.892 2.91781 0.684381 0
M  V30 8655 H 813.453 1.60307 0.226542 0
M  V30 8656 H 815.445 2.50172 3.18113 0
M  V30 8657 H 814.015 1.54621 2.71682 0
M  V30 8658 H 813.235 3.67325 1.43059 0
M  V30 8659 H 814.523 4.55144 2.27424 0
M  V30 8660 H 813.921 2.78828 4.92211 0
M  V30 8661 H 812.478 3.54148 5.47195 0
M  V30 8662 N 815.911 -0.310526 1.54511 0
M  V30 8663 C 816.861 -1.38405 1.81185 0
M  V30 8664 C 817.845 -1.46355 0.668499 0
M  V30 8665 O 819.037 -1.50668 0.928873 0
M  V30 8666 C 816.166 -2.75059 2.0542 0
M  V30 8667 C 815.252 -2.7137 3.25913 0
M  V30 8668 N 815.643 -2.37298 4.4668 0
M  V30 8669 C 813.941 -3.02484 3.27749 0
M  V30 8670 C 814.642 -2.42669 5.28665 0
M  V30 8671 N 813.618 -2.79639 4.66158 0
M  V30 8672 H 817.42 -1.11012 2.72128 0
M  V30 8673 H 814.934 -0.519068 1.53881 0
M  V30 8674 H 816.931 -3.52451 2.22674 0
M  V30 8675 H 815.591 -3.03372 1.15739 0
M  V30 8676 H 816.602 -2.09917 4.73451 0
M  V30 8677 H 813.279 -3.35754 2.48144 0
M  V30 8678 H 814.669 -2.19206 6.35136 0
M  V30 8679 N 817.389 -1.46805 -0.573248 0
M  V30 8680 C 818.337 -1.58468 -1.70267 0
M  V30 8681 C 819.331 -0.452694 -1.63239 0
M  V30 8682 O 820.537 -0.629915 -1.68618 0
M  V30 8683 H 816.912 -0.498408 -0.56311 0
M  V30 8684 H 818.883 -2.5341 -1.57563 0
M  V30 8685 C 817.632 -1.60104 -3.08645 0
M  V30 8686 H 816.955 -2.4655 -3.14727 0
M  V30 8687 H 818.395 -1.72318 -3.87405 0
M  V30 8688 C 816.854 -0.33138 -3.35266 0
M  V30 8689 O 817.384 0.57438 -3.97572 0
M  V30 8690 N 815.59 -0.216358 -2.89793 0
M  V30 8691 H 815.137 -0.954345 -2.3927 0
M  V30 8692 H 815.095 0.632253 -3.07977 0
M  V30 8693 N 818.867 0.818669 -1.34668 0
M  V30 8694 C 819.814 1.92983 -1.26595 0
M  V30 8695 C 820.784 1.65506 -0.140315 0
M  V30 8696 O 821.969 1.88063 -0.322005 0
M  V30 8697 C 819.109 3.2932 -1.03163 0
M  V30 8698 C 818.222 3.69061 -2.24539 0
M  V30 8699 C 817.357 4.94368 -1.94355 0
M  V30 8700 C 816.396 5.26702 -3.11851 0
M  V30 8701 N 815.533 6.43187 -2.81522 0
M  V30 8702 H 820.373 1.99219 -2.2162 0
M  V30 8703 H 817.91 0.974612 -1.1018 0
M  V30 8704 H 819.868 4.07897 -0.87613 0
M  V30 8705 H 818.498 3.22584 -0.118045 0
M  V30 8706 H 817.55 2.85842 -2.50995 0
M  V30 8707 H 818.862 3.88924 -3.12313 0
M  V30 8708 H 818.016 5.80742 -1.75566 0
M  V30 8709 H 816.755 4.76515 -1.03848 0
M  V30 8710 H 815.76 4.38823 -3.31231 0
M  V30 8711 H 816.985 5.46492 -4.03142 0
M  V30 8712 H 814.931 6.26783 -1.93596 0
M  V30 8713 H 814.848 6.63243 -3.62829 0
M  V30 8714 H 816.116 7.32621 -2.66247 0
M  V30 8715 N 820.346 1.18468 1.03938 0
M  V30 8716 C 821.757 0.984808 1.58614 0
M  V30 8717 C 822.108 -0.465165 1.90606 0
M  V30 8718 O 821.233 -1.34274 1.69704 0
M  V30 8719 C 821.828 1.78135 2.8819 0
M  V30 8720 C 820.387 1.62579 3.39478 0
M  V30 8721 C 819.534 1.77501 2.13046 0
M  V30 8722 H 822.485 1.32993 0.865944 0
M  V30 8723 H 822.506 1.27119 3.58638 0
M  V30 8724 H 822.018 2.83661 2.64874 0
M  V30 8725 H 820.119 0.59595 3.67803 0
M  V30 8726 H 820.232 2.42463 4.13217 0
M  V30 8727 H 818.596 1.2046 2.24414 0
M  V30 8728 H 819.379 2.84464 1.92185 0
M  V30 8729 N 821.824 -1.22873 0.986916 0
M  V30 8730 C 823.071 -1.91462 0.659424 0
M  V30 8731 C 823.399 -1.76931 -0.807825 0
M  V30 8732 O 822.654 -1.12829 -1.59901 0
M  V30 8733 C 822.953 -3.43014 1.00379 0
M  V30 8734 C 822.619 -3.77731 2.46232 0
M  V30 8735 C 821.281 -3.86918 2.86091 0
M  V30 8736 C 823.633 -3.94343 3.40798 0
M  V30 8737 C 820.961 -4.10149 4.19518 0
M  V30 8738 C 823.313 -4.19076 4.73875 0
M  V30 8739 C 821.977 -4.26486 5.13484 0
M  V30 8740 H 821.247 -0.700611 0.2413 0
M  V30 8741 H 823.894 -1.45763 1.24199 0
M  V30 8742 H 822.199 -3.90329 0.339226 0
M  V30 8743 H 823.896 -3.94327 0.728518 0
M  V30 8744 H 820.486 -3.71159 2.14334 0
M  V30 8745 H 824.67 -3.86629 3.11178 0
M  V30 8746 H 819.926 -4.1411 4.49803 0
M  V30 8747 H 824.1 -4.30873 5.47102 0
M  V30 8748 H 821.727 -4.4424 6.16891 0
M  V30 8749 N 823.302 -0.75937 -1.38099 0
M  V30 8750 C 824.548 -0.318584 -2.00282 0
M  V30 8751 C 824.881 1.09854 -1.60143 0
M  V30 8752 O 824.156 1.75344 -0.841702 0
M  V30 8753 C 824.439 -0.448047 -3.57302 0
M  V30 8754 C 824.292 -1.9067 -4.07388 0
M  V30 8755 C 825.611 0.155119 -4.39827 0
M  V30 8756 H 822.73 -0.117233 -0.727616 0
M  V30 8757 H 825.372 -0.960097 -1.63958 0
M  V30 8758 H 823.522 0.0981003 -3.88376 0
M  V30 8759 H 825.194 -2.5116 -3.86932 0
M  V30 8760 H 823.437 -2.41979 -3.6004 0
M  V30 8761 H 824.108 -1.94841 -5.1647 0
M  V30 8762 H 826.584 -0.31073 -4.14938 0
M  V30 8763 H 825.46 0.0343264 -5.48889 0
M  V30 8764 H 825.721 1.24407 -4.24235 0
M  V30 8765 N 824.78 1.49157 -0.508906 0
M  V30 8766 C 825.71 2.32109 0.254469 0
M  V30 8767 C 826.691 1.40754 0.955111 0
M  V30 8768 O 827.876 1.69658 0.944983 0
M  V30 8769 C 825.006 3.21458 1.3146 0
M  V30 8770 C 823.96 4.2167 0.733368 0
M  V30 8771 C 823.286 5.00009 1.8946 0
M  V30 8772 C 824.586 5.21544 -0.280875 0
M  V30 8773 H 826.28 2.9618 -0.43795 0
M  V30 8774 H 823.826 1.4243 -0.212062 0
M  V30 8775 H 825.779 3.78305 1.85643 0
M  V30 8776 H 824.503 2.55346 2.03632 0
M  V30 8777 H 823.162 3.65979 0.213231 0
M  V30 8778 H 822.81 4.30338 2.60419 0
M  V30 8779 H 822.51 5.67821 1.51173 0
M  V30 8780 H 824.034 5.59702 2.44061 0
M  V30 8781 H 825.448 5.73039 0.173095 0
M  V30 8782 H 823.845 5.97291 -0.580006 0
M  V30 8783 H 824.915 4.69969 -1.19404 0
M  V30 8784 N 826.258 0.243083 1.55714 0
M  V30 8785 C 827.191 -0.698623 2.17243 0
M  V30 8786 C 828.169 -1.1756 1.12331 0
M  V30 8787 O 829.353 -1.25444 1.40699 0
M  V30 8788 C 826.48 -1.94901 2.77004 0
M  V30 8789 C 825.526 -1.61022 3.94936 0
M  V30 8790 S 826.359 -0.716173 5.30689 0
M  V30 8791 C 827.515 -1.97565 5.93901 0
M  V30 8792 H 827.748 -0.175724 2.9678 0
M  V30 8793 H 825.281 0.0275727 1.54375 0
M  V30 8794 H 827.239 -2.66687 3.12071 0
M  V30 8795 H 825.9 -2.44304 1.9742 0
M  V30 8796 H 825.093 -2.5398 4.35328 0
M  V30 8797 H 824.695 -0.972829 3.61126 0
M  V30 8798 H 826.987 -2.92333 6.11186 0
M  V30 8799 H 827.93 -1.61528 6.8943 0
M  V30 8800 H 828.338 -2.126 5.22935 0
M  V30 8801 N 827.736 -1.57571 -0.0300757 0
M  V30 8802 C 828.961 -1.93879 -0.736601 0
M  V30 8803 C 829.386 -0.842998 -1.68152 0
M  V30 8804 O 828.744 0.20135 -1.80178 0
M  V30 8805 C 828.792 -3.29247 -1.47066 0
M  V30 8806 O 827.896 -3.21426 -2.58378 0
M  V30 8807 H 827.237 -0.633735 -0.198181 0
M  V30 8808 H 829.767 -2.04595 0.0141485 0
M  V30 8809 H 829.777 -3.64113 -1.84081 0
M  V30 8810 H 828.452 -4.08565 -0.77764 0
M  V30 8811 H 827.029 -2.98189 -2.23914 0
M  V30 8812 N 829.214 0.302327 -1.54673 0
M  V30 8813 C 830.144 1.37759 -1.88533 0
M  V30 8814 C 831.125 1.52961 -0.744113 0
M  V30 8815 O 832.31 1.6649 -0.999731 0
M  V30 8816 C 829.44 2.74201 -2.13146 0
M  V30 8817 C 828.394 2.73765 -3.28993 0
M  V30 8818 C 827.72 4.13483 -3.39022 0
M  V30 8819 C 829.02 2.35624 -4.66132 0
M  V30 8820 H 830.714 1.0967 -2.78591 0
M  V30 8821 H 828.26 0.52613 -1.34044 0
M  V30 8822 H 830.213 3.49508 -2.35419 0
M  V30 8823 H 828.937 3.03812 -1.19858 0
M  V30 8824 H 827.596 2.00914 -3.06642 0
M  V30 8825 H 827.244 4.40269 -2.43253 0
M  V30 8826 H 826.944 4.14093 -4.16894 0
M  V30 8827 H 828.468 4.90572 -3.63553 0
M  V30 8828 H 829.882 3.00647 -4.88143 0
M  V30 8829 H 828.279 2.47449 -5.46707 0
M  V30 8830 H 829.349 1.30753 -4.66939 0
M  V30 8831 N 830.692 1.47107 0.565454 0
M  V30 8832 C 832.108 1.32443 0.890566 0
M  V30 8833 C 832.308 0.308735 1.99121 0
M  V30 8834 O 831.364 -0.28265 2.50913 0
M  V30 8835 C 832.677 2.71548 1.2916 0
M  V30 8836 C 834.225 2.7977 1.40349 0
M  V30 8837 C 834.7 4.19497 1.83811 0
M  V30 8838 N 836.191 4.21998 1.90975 0
M  V30 8839 C 836.926 5.2702 2.25916 0
M  V30 8840 N 836.422 6.42353 2.59527 0
M  V30 8841 N 838.215 5.14393 2.26619 0
M  V30 8842 H 830.366 2.11786 -0.161328 0
M  V30 8843 H 832.629 0.947952 -0.00950631 0
M  V30 8844 H 832.335 3.47265 0.556753 0
M  V30 8845 H 832.209 3.02782 2.24951 0
M  V30 8846 H 834.596 2.0433 2.12916 0
M  V30 8847 H 834.677 2.522 0.427655 0
M  V30 8848 H 834.321 4.95439 1.11816 0
M  V30 8849 H 834.251 4.44486 2.82382 0
M  V30 8850 H 836.742 3.38791 1.6742 0
M  V30 8851 H 837.055 7.18252 2.85191 0
M  V30 8852 H 835.4 6.45687 2.57126 0
M  V30 8853 H 838.591 4.2332 1.99794 0
M  V30 8854 H 838.764 5.96349 2.5352 0
M  V30 8855 N 832.17 -0.811516 1.35101 0
M  V30 8856 C 833.118 -1.94449 1.27642 0
M  V30 8857 C 834.112 -1.68522 0.172287 0
M  V30 8858 O 835.318 -1.76799 0.337967 0
M  V30 8859 H 831.693 -0.638776 0.396824 0
M  V30 8860 H 833.664 -1.97861 2.23369 0
M  V30 8861 C 832.413 -3.31139 1.06029 0
M  V30 8862 H 831.736 -3.51644 1.90227 0
M  V30 8863 H 833.176 -4.10831 1.0485 0
M  V30 8864 C 831.635 -3.36072 -0.236039 0
M  V30 8865 O 832.165 -3.82292 -1.23353 0
M  V30 8866 N 830.371 -2.89314 -0.273107 0
M  V30 8867 H 829.918 -2.51893 0.539211 0
M  V30 8868 H 829.876 -2.92996 -1.1402 0
M  V30 8869 N 833.648 -1.19017 -1.03309 0
M  V30 8870 C 835.059 -0.993206 -1.5809 0
M  V30 8871 C 835.41 0.45505 -1.9085 0
M  V30 8872 O 834.535 1.33372 -1.70414 0
M  V30 8873 C 835.13 -1.79661 -2.87241 0
M  V30 8874 C 833.689 -1.64377 -3.38611 0
M  V30 8875 C 832.836 -1.78628 -2.12102 0
M  V30 8876 H 835.787 -1.3345 -0.858879 0
M  V30 8877 H 835.808 -1.29019 -3.57958 0
M  V30 8878 H 835.32 -2.85061 -2.63366 0
M  V30 8879 H 833.421 -0.615447 -3.67482 0
M  V30 8880 H 833.534 -2.44651 -4.11926 0
M  V30 8881 H 831.898 -1.21648 -2.23772 0
M  V30 8882 H 832.681 -2.8548 -1.90673 0
M  V30 8883 N 835.127 1.22348 -0.993418 0
M  V30 8884 C 836.357 1.94842 -0.687023 0
M  V30 8885 C 836.765 1.73594 0.752445 0
M  V30 8886 O 836.108 1.03238 1.51946 0
M  V30 8887 C 836.17 3.47694 -0.913754 0
M  V30 8888 C 835.834 3.92678 -2.33781 0
M  V30 8889 C 836.831 4.0031 -3.31734 0
M  V30 8890 C 834.516 4.25311 -2.67237 0
M  V30 8891 C 836.51 4.39951 -4.61218 0
M  V30 8892 C 834.197 4.64631 -3.9694 0
M  V30 8893 C 835.195 4.71919 -4.93742 0
M  V30 8894 O 834.883 5.10349 -6.21127 0
M  V30 8895 H 834.615 0.626771 -0.253247 0
M  V30 8896 H 837.169 1.56436 -1.33105 0
M  V30 8897 H 835.399 3.86115 -0.212552 0
M  V30 8898 H 837.088 4.01403 -0.602528 0
M  V30 8899 H 837.854 3.75288 -3.07219 0
M  V30 8900 H 833.733 4.18842 -1.92594 0
M  V30 8901 H 837.277 4.45555 -5.36774 0
M  V30 8902 H 833.174 4.89104 -4.21245 0
M  V30 8903 H 833.942 5.2842 -6.25072 0
M  V30 8904 N 836.605 0.766683 1.37694 0
M  V30 8905 C 837.882 0.25366 1.93948 0
M  V30 8906 C 838.262 -1.25041 1.70082 0
M  V30 8907 O 837.61 -2.03115 1.04674 0
M  V30 8908 C 837.82 0.621549 3.43421 0
M  V30 8909 C 839.168 0.588504 4.20502 0
M  V30 8910 O 840.192 0.560632 3.5176 0
M  V30 8911 O 839.051 0.61107 5.43073 0
M  V30 8912 H 836.145 0.0570586 0.825029 0
M  V30 8913 H 838.691 0.847693 1.47011 0
M  V30 8914 H 837.463 1.65979 3.54354 0
M  V30 8915 H 837.086 0.000197027 3.976 0
M  V30 8916 N 838.083 -1.48885 0.516809 0
M  V30 8917 C 839.046 -2.27916 -0.242256 0
M  V30 8918 C 840.046 -1.34601 -0.879735 0
M  V30 8919 O 841.236 -1.57616 -0.74182 0
M  V30 8920 C 838.368 -3.13067 -1.34914 0
M  V30 8921 H 839.561 -2.96483 0.451444 0
M  V30 8922 H 837.114 -1.5391 0.272294 0
M  V30 8923 H 837.849 -2.49102 -2.07651 0
M  V30 8924 H 837.634 -3.81695 -0.897313 0
M  V30 8925 H 839.124 -3.72716 -1.88341 0
M  V30 8926 N 839.561 -0.251338 -1.55583 0
M  V30 8927 C 840.524 0.63305 -2.20284 0
M  V30 8928 C 841.524 1.09941 -1.17344 0
M  V30 8929 O 842.714 1.00341 -1.42399 0
M  V30 8930 C 839.846 1.8706 -2.84993 0
M  V30 8931 H 841.039 0.0684846 -2.99822 0
M  V30 8932 H 838.592 -0.00181653 -1.563 0
M  V30 8933 H 839.327 2.47629 -2.09405 0
M  V30 8934 H 839.112 1.54436 -3.60405 0
M  V30 8935 H 840.602 2.50004 -3.34496 0
M  V30 8936 N 841.039 1.57585 0.0217189 0
M  V30 8937 C 841.987 2.08134 1.03842 0
M  V30 8938 C 842.981 0.996662 1.36978 0
M  V30 8939 O 844.187 1.18149 1.35797 0
M  V30 8940 H 840.562 0.664298 0.352438 0
M  V30 8941 H 842.533 2.92583 0.58634 0
M  V30 8942 C 841.282 2.58218 2.32849 0
M  V30 8943 H 840.605 3.41302 2.08214 0
M  V30 8944 H 842.045 2.97289 3.02316 0
M  V30 8945 C 840.504 1.48664 3.02325 0
M  V30 8946 O 841.034 0.857075 3.9245 0
M  V30 8947 N 839.24 1.21938 2.63779 0
M  V30 8948 H 838.787 1.73319 1.90574 0
M  V30 8949 H 838.745 0.488523 3.10581 0
M  V30 8950 N 842.517 -0.29412 1.54831 0
M  V30 8951 C 843.764 -1.02846 1.74439 0
M  V30 8952 C 844.092 -1.87029 0.533905 0
M  V30 8953 O 843.347 -1.8962 -0.484035 0
M  V30 8954 C 843.646 -1.95782 2.99006 0
M  V30 8955 C 843.312 -1.2752 4.32492 0
M  V30 8956 C 841.974 -1.08637 4.68777 0
M  V30 8957 C 844.326 -0.787761 5.15212 0
M  V30 8958 C 841.654 -0.39704 5.85355 0
M  V30 8959 C 844.006 -0.112123 6.32501 0
M  V30 8960 C 842.67 0.0886071 6.67441 0
M  V30 8961 H 841.94 -0.376341 0.638317 0
M  V30 8962 H 844.587 -0.302684 1.89093 0
M  V30 8963 H 842.892 -2.74911 2.79162 0
M  V30 8964 H 844.589 -2.52684 3.11371 0
M  V30 8965 H 841.179 -1.43226 4.03961 0
M  V30 8966 H 845.363 -0.921341 4.87673 0
M  V30 8967 H 840.619 -0.230597 6.10965 0
M  V30 8968 H 844.793 0.27344 6.95863 0
M  V30 8969 H 842.42 0.624748 7.57628 0
M  V30 8970 N 843.995 -1.47404 -0.557645 0
M  V30 8971 C 844.905 -1.62491 -1.69216 0
M  V30 8972 C 845.921 -0.507764 -1.66426 0
M  V30 8973 O 847.097 -0.775241 -1.85882 0
M  V30 8974 C 844.162 -1.63511 -3.05721 0
M  V30 8975 C 843.223 -2.86648 -3.1958 0
M  V30 8976 C 842.456 -2.87609 -4.49574 0
M  V30 8977 O 842.679 -1.97799 -5.35006 0
M  V30 8978 O 841.613 -3.79465 -4.67215 0
M  V30 8979 H 845.439 -2.58487 -1.59431 0
M  V30 8980 H 843.024 -1.30485 -0.7276 0
M  V30 8981 H 844.906 -1.66863 -3.86956 0
M  V30 8982 H 843.581 -0.706812 -3.15889 0
M  V30 8983 H 842.488 -2.8884 -2.37744 0
M  V30 8984 H 843.821 -3.7877 -3.14316 0
M  V30 8985 N 845.473 0.80434 -1.35529 0
M  V30 8986 C 846.383 1.94784 -1.30753 0
M  V30 8987 C 847.399 1.72703 -0.212071 0
M  V30 8988 O 848.575 1.96494 -0.441841 0
M  V30 8989 C 845.64 3.29406 -1.08133 0
M  V30 8990 C 844.701 3.64367 -2.27013 0
M  V30 8991 C 843.934 4.92566 -2.05463 0
M  V30 8992 O 844.157 5.61166 -1.02222 0
M  V30 8993 O 843.091 5.25838 -2.92879 0
M  V30 8994 H 846.917 2.01761 -2.26994 0
M  V30 8995 H 844.502 0.942448 -1.15924 0
M  V30 8996 H 846.384 4.09995 -0.973756 0
M  V30 8997 H 845.059 3.23355 -0.149444 0
M  V30 8998 H 843.966 2.84146 -2.43335 0
M  V30 8999 H 845.299 3.75125 -3.18656 0
M  V30 9000 N 846.951 1.19563 1.02676 0
M  V30 9001 C 847.914 0.937182 2.09164 0
M  V30 9002 C 848.914 -0.0831927 1.60585 0
M  V30 9003 O 850.104 0.15178 1.73538 0
M  V30 9004 C 847.236 0.408912 3.38439 0
M  V30 9005 H 848.429 1.88164 2.33526 0
M  V30 9006 H 845.982 1.00959 1.19319 0
M  V30 9007 H 846.717 -0.541497 3.19747 0
M  V30 9008 H 846.502 1.14464 3.7502 0
M  V30 9009 H 847.992 0.247242 4.16867 0
M  V30 9010 N 848.429 -1.21819 0.999893 0
M  V30 9011 C 849.376 -2.24003 0.556005 0
M  V30 9012 C 850.346 -1.60825 -0.415287 0
M  V30 9013 O 851.531 -1.88123 -0.318481 0
M  V30 9014 C 848.671 -3.44904 -0.116289 0
M  V30 9015 C 847.784 -4.22573 0.897574 0
M  V30 9016 C 846.919 -5.30831 0.198073 0
M  V30 9017 C 845.958 -6.00225 1.19983 0
M  V30 9018 N 845.095 -7.00111 0.528157 0
M  V30 9019 H 849.935 -2.61334 1.43208 0
M  V30 9020 H 847.472 -1.28431 0.717205 0
M  V30 9021 H 849.43 -4.13908 -0.523055 0
M  V30 9022 H 848.06 -3.08315 -0.956108 0
M  V30 9023 H 847.112 -3.52797 1.42262 0
M  V30 9024 H 848.424 -4.70363 1.66013 0
M  V30 9025 H 847.578 -6.06121 -0.265065 0
M  V30 9026 H 846.317 -4.84033 -0.596924 0
M  V30 9027 H 845.322 -5.23711 1.67353 0
M  V30 9028 H 846.547 -6.4911 1.99582 0
M  V30 9029 H 844.493 -6.55534 -0.247276 0
M  V30 9030 H 844.41 -7.45943 1.22904 0
M  V30 9031 H 845.678 -7.7945 0.0880543 0
M  V30 9032 N 849.908 -0.773975 -1.37286 0
M  V30 9033 C 850.871 -0.167974 -2.28584 0
M  V30 9034 C 851.871 0.625662 -1.48129 0
M  V30 9035 O 853.061 0.448924 -1.68316 0
M  V30 9036 C 850.193 0.769364 -3.32105 0
M  V30 9037 H 851.386 -0.972806 -2.83684 0
M  V30 9038 H 848.939 -0.542335 -1.46589 0
M  V30 9039 H 849.674 1.59912 -2.82132 0
M  V30 9040 H 849.459 0.202419 -3.91577 0
M  V30 9041 H 850.949 1.18872 -4.00324 0
M  V30 9042 N 851.386 1.48609 -0.524698 0
M  V30 9043 C 852.316 2.32366 0.229837 0
M  V30 9044 C 853.297 1.41759 0.940129 0
M  V30 9045 O 854.482 1.7065 0.926936 0
M  V30 9046 C 851.612 3.22835 1.28043 0
M  V30 9047 C 850.566 4.22424 0.688603 0
M  V30 9048 C 849.892 5.0199 1.84146 0
M  V30 9049 C 851.192 5.21217 -0.336176 0
M  V30 9050 H 852.886 2.95698 -0.469339 0
M  V30 9051 H 850.432 1.42197 -0.227156 0
M  V30 9052 H 852.385 3.80253 1.8162 0
M  V30 9053 H 851.109 2.57492 2.00912 0
M  V30 9054 H 849.768 3.66185 0.174402 0
M  V30 9055 H 849.416 4.33076 2.5584 0
M  V30 9056 H 849.116 5.69392 1.45142 0
M  V30 9057 H 850.64 5.62259 2.38111 0
M  V30 9058 H 852.054 5.7319 0.112307 0
M  V30 9059 H 850.451 5.96642 -0.643324 0
M  V30 9060 H 851.521 4.68676 -1.24381 0
M  V30 9061 N 852.864 0.259585 1.55447 0
M  V30 9062 C 854.113 -0.362163 1.98422 0
M  V30 9063 C 854.426 -1.58135 1.1512 0
M  V30 9064 O 855.632 -2.27506 1.48166 0
M  V30 9065 C 854.088 -0.695722 3.53111 0
M  V30 9066 C 853.696 0.502784 4.4517 0
M  V30 9067 C 855.44 -1.28096 4.04712 0
M  V30 9068 C 853.347 0.144674 5.91223 0
M  V30 9069 H 852.277 -0.139092 0.74106 0
M  V30 9070 H 854.928 0.361798 1.79898 0
M  V30 9071 H 853.31 -1.47816 3.67378 0
M  V30 9072 H 854.484 1.27994 4.42667 0
M  V30 9073 H 852.799 1.0038 4.0412 0
M  V30 9074 H 855.396 -1.56243 5.11363 0
M  V30 9075 H 855.739 -2.20969 3.52815 0
M  V30 9076 H 856.272 -0.561146 3.93822 0
M  V30 9077 H 853.011 1.04087 6.47183 0
M  V30 9078 H 852.531 -0.596023 5.96831 0
M  V30 9079 H 854.21 -0.268651 6.46442 0
M  V30 9080 N 854.342 -1.57594 -0.0133615 0
M  V30 9081 C 855.305 -2.06534 -0.993799 0
M  V30 9082 C 856.305 -0.972267 -1.28077 0
M  V30 9083 O 857.495 -1.23537 -1.22818 0
M  V30 9084 C 854.627 -2.49554 -2.3224 0
M  V30 9085 H 855.82 -2.94419 -0.570741 0
M  V30 9086 H 853.373 -1.54113 -0.260546 0
M  V30 9087 H 854.108 -1.64872 -2.79263 0
M  V30 9088 H 853.893 -3.29371 -2.12737 0
M  V30 9089 H 855.383 -2.8779 -3.026 0
M  V30 9090 N 855.82 0.285905 -1.54985 0
M  V30 9091 C 857.066 1.02071 -1.75241 0
M  V30 9092 C 857.399 1.864 -0.544842 0
M  V30 9093 O 856.674 1.89034 0.457844 0
M  V30 9094 C 856.957 1.91409 -3.05016 0
M  V30 9095 C 856.81 1.10158 -4.36102 0
M  V30 9096 C 858.129 2.90335 -3.30747 0
M  V30 9097 H 855.248 0.369663 -0.637588 0
M  V30 9098 H 857.89 0.294114 -1.8771 0
M  V30 9099 H 856.04 2.53362 -2.94517 0
M  V30 9100 H 857.712 0.503756 -4.58541 0
M  V30 9101 H 855.955 0.404675 -4.31908 0
M  V30 9102 H 856.626 1.75956 -5.23205 0
M  V30 9103 H 859.102 2.38514 -3.40955 0
M  V30 9104 H 857.978 3.49997 -4.2284 0
M  V30 9105 H 858.239 3.64787 -2.49765 0
M  V30 9106 N 857.298 1.47698 0.54982 0
M  V30 9107 C 858.528 1.58101 1.32995 0
M  V30 9108 C 858.936 0.232939 1.87761 0
M  V30 9109 O 858.279 -0.785058 1.6608 0
M  V30 9110 C 858.341 2.55228 2.53178 0
M  V30 9111 C 858.005 4.00756 2.19645 0
M  V30 9112 C 859.002 4.89025 1.76496 0
M  V30 9113 C 856.687 4.46147 2.30777 0
M  V30 9114 C 858.681 6.20707 1.44919 0
M  V30 9115 C 856.368 5.77856 1.98812 0
M  V30 9116 C 857.366 6.64957 1.55952 0
M  V30 9117 O 857.054 7.94217 1.24396 0
M  V30 9118 H 856.786 0.536362 0.411451 0
M  V30 9119 H 859.34 1.94092 0.67212 0
M  V30 9120 H 857.57 2.14319 3.21876 0
M  V30 9121 H 859.259 2.55678 3.15251 0
M  V30 9122 H 860.025 4.55201 1.67383 0
M  V30 9123 H 855.904 3.78552 2.63096 0
M  V30 9124 H 859.448 6.88649 1.11392 0
M  V30 9125 H 855.345 6.11219 2.0756 0
M  V30 9126 H 856.113 8.06789 1.37964 0
M  V30 9127 N 858.776 -0.797141 1.35954 0
M  V30 9128 C 860.024 -1.55161 1.29497 0
M  V30 9129 C 860.345 -1.94582 -0.127659 0
M  V30 9130 O 859.615 -1.64343 -1.06622 0
M  V30 9131 H 858.195 -0.575413 0.47635 0
M  V30 9132 H 860.857 -0.950282 1.70164 0
M  V30 9133 H 859.953 -2.46272 1.9172 0
M  V30 9134 N 860.254 -1.20106 -1.0204 0
M  V30 9135 C 861.501 -1.00889 -1.75578 0
M  V30 9136 C 861.829 0.459415 -1.88996 0
M  V30 9137 O 861.084 1.35735 -1.40977 0
M  V30 9138 C 861.383 -1.63308 -3.17908 0
M  V30 9139 C 861.049 -3.13091 -3.24476 0
M  V30 9140 C 859.711 -3.53968 -3.25976 0
M  V30 9141 C 862.063 -4.09093 -3.22944 0
M  V30 9142 C 859.391 -4.89381 -3.2361 0
M  V30 9143 C 861.743 -5.44447 -3.22119 0
M  V30 9144 C 860.407 -5.84742 -3.2192 0
M  V30 9145 H 859.677 -0.36918 -0.642485 0
M  V30 9146 H 862.324 -1.49475 -1.19706 0
M  V30 9147 H 860.629 -1.06974 -3.76914 0
M  V30 9148 H 862.326 -1.45958 -3.73493 0
M  V30 9149 H 858.916 -2.80526 -3.24042 0
M  V30 9150 H 863.1 -3.78549 -3.20958 0
M  V30 9151 H 858.356 -5.1987 -3.21785 0
M  V30 9152 H 862.53 -6.18584 -3.19885 0
M  V30 9153 H 860.157 -6.89642 -3.19841 0
M  V30 9154 N 861.732 1.21287 -1.00634 0
M  V30 9155 C 862.679 2.23705 -0.567876 0
M  V30 9156 C 863.649 1.61043 0.406753 0
M  V30 9157 O 864.834 1.88289 0.308499 0
M  V30 9158 C 861.974 3.44961 0.097996 0
M  V30 9159 C 861.087 4.22091 -0.919972 0
M  V30 9160 C 860.222 5.30718 -0.226222 0
M  V30 9161 C 859.261 5.99581 -1.23165 0
M  V30 9162 N 858.398 6.99821 -0.565278 0
M  V30 9163 H 863.238 2.60571 -1.44592 0
M  V30 9164 H 860.775 1.28049 -0.724006 0
M  V30 9165 H 862.733 4.1418 0.501097 0
M  V30 9166 H 861.363 3.08818 0.939744 0
M  V30 9167 H 860.415 3.52038 -1.44131 0
M  V30 9168 H 861.727 4.69476 -1.68505 0
M  V30 9169 H 860.881 6.06253 0.232917 0
M  V30 9170 H 859.62 4.84343 0.571247 0
M  V30 9171 H 858.625 5.22816 -1.70128 0
M  V30 9172 H 859.85 6.48042 -2.03022 0
M  V30 9173 H 857.796 6.55656 0.212508 0
M  V30 9174 H 857.713 7.4528 -1.26858 0
M  V30 9175 H 858.981 7.79393 -0.129389 0
M  V30 9176 N 863.21 0.781244 1.36873 0
M  V30 9177 C 864.458 0.349198 1.9906 0
M  V30 9178 C 864.779 -1.0806 1.62321 0
M  V30 9179 O 864.049 -1.74351 0.893229 0
M  V30 9180 H 862.629 0.126126 0.736275 0
M  V30 9181 H 865.291 1.00148 1.67202 0
M  V30 9182 H 864.387 0.434451 3.09061 0
M  V30 9183 N 864.689 -1.48329 0.532571 0
M  V30 9184 C 865.919 -2.066 0.00353785 0
M  V30 9185 C 866.327 -1.38913 -1.28451 0
M  V30 9186 O 865.67 -0.471385 -1.77549 0
M  V30 9187 C 865.732 -3.58342 -0.288324 0
M  V30 9188 C 865.396 -4.47917 0.906631 0
M  V30 9189 C 866.393 -4.87534 1.80572 0
M  V30 9190 C 864.078 -4.89783 1.11436 0
M  V30 9191 C 866.072 -5.6779 2.89642 0
M  V30 9192 C 863.759 -5.69809 2.20819 0
M  V30 9193 C 864.757 -6.08721 3.09755 0
M  V30 9194 O 864.445 -6.8714 4.17246 0
M  V30 9195 H 864.177 -0.675263 0.0315661 0
M  V30 9196 H 866.731 -1.91669 0.738375 0
M  V30 9197 H 864.961 -3.71395 -1.07717 0
M  V30 9198 H 866.65 -3.98726 -0.759752 0
M  V30 9199 H 867.416 -4.5581 1.65719 0
M  V30 9200 H 863.295 -4.58977 0.431382 0
M  V30 9201 H 866.839 -5.98082 3.59087 0
M  V30 9202 H 862.736 -6.00947 2.35655 0
M  V30 9203 H 863.504 -7.05498 4.14988 0
M  V30 9204 N 866.167 -0.267825 -1.55308 0
M  V30 9205 C 867.13 0.60965 -2.20943 0
M  V30 9206 C 868.13 1.0869 -1.18504 0
M  V30 9207 O 869.32 0.988248 -1.43455 0
M  V30 9208 C 866.452 1.84027 -2.86961 0
M  V30 9209 H 867.645 0.0366806 -2.99878 0
M  V30 9210 H 865.198 -0.0183941 -1.56289 0
M  V30 9211 H 865.933 2.45394 -2.1202 0
M  V30 9212 H 865.718 1.50605 -3.62023 0
M  V30 9213 H 867.208 2.46442 -3.37129 0
M  V30 9214 N 867.645 1.57599 0.00500368 0
M  V30 9215 C 868.593 2.09223 1.01628 0
M  V30 9216 C 869.587 1.01113 1.35913 0
M  V30 9217 O 870.793 1.19583 1.34536 0
M  V30 9218 H 867.168 0.667999 0.345372 0
M  V30 9219 H 869.139 2.93188 0.555274 0
M  V30 9220 C 867.888 2.60674 2.30097 0
M  V30 9221 H 867.211 3.43491 2.04582 0
M  V30 9222 H 868.651 3.00479 2.99146 0
M  V30 9223 C 867.11 1.51862 3.00731 0
M  V30 9224 O 867.64 0.898651 3.91519 0
M  V30 9225 N 865.846 1.24729 2.62471 0
M  V30 9226 H 865.393 1.7533 1.88725 0
M  V30 9227 H 865.351 0.521437 3.10046 0
M  V30 9228 N 869.123 -0.277682 1.55134 0
M  V30 9229 C 870.371 -1.00791 1.75173 0
M  V30 9230 C 870.692 -1.86987 0.553266 0
M  V30 9231 O 869.962 -1.91079 -0.43195 0
M  V30 9232 H 868.542 -0.375129 0.645978 0
M  V30 9233 H 871.204 -0.303041 1.9253 0
M  V30 9234 H 870.3 -1.64756 2.6507 0
M  V30 9235 N 870.601 -1.47988 -0.541979 0
M  V30 9236 C 872.017 -1.33843 -0.869383 0
M  V30 9237 C 872.217 -0.340374 -1.98604 0
M  V30 9238 O 871.273 0.242696 -2.51331 0
M  V30 9239 C 872.586 -2.73568 -1.24823 0
M  V30 9240 C 874.134 -2.81967 -1.3588 0
M  V30 9241 C 874.609 -4.22368 -1.77114 0
M  V30 9242 N 876.1 -4.24983 -1.84237 0
M  V30 9243 C 876.835 -5.30547 -2.17503 0
M  V30 9244 N 876.331 -6.46401 -2.49275 0
M  V30 9245 N 878.124 -5.17933 -2.18406 0
M  V30 9246 H 870.275 -2.11503 0.195001 0
M  V30 9247 H 872.538 -0.947681 0.0245862 0
M  V30 9248 H 872.244 -3.48107 -0.501435 0
M  V30 9249 H 872.118 -3.06322 -2.20106 0
M  V30 9250 H 874.505 -2.07692 -2.09638 0
M  V30 9251 H 874.586 -2.52848 -0.387478 0
M  V30 9252 H 874.23 -4.97155 -1.0392 0
M  V30 9253 H 874.16 -4.48922 -2.75275 0
M  V30 9254 H 876.651 -3.41411 -1.62009 0
M  V30 9255 H 876.964 -7.22698 -2.73729 0
M  V30 9256 H 875.309 -6.49696 -2.46821 0
M  V30 9257 H 878.5 -4.26445 -1.93034 0
M  V30 9258 H 878.673 -6.00307 -2.44 0
M  V30 9259 N 872.079 0.78992 -1.36375 0
M  V30 9260 C 873.309 1.57644 -1.33536 0
M  V30 9261 C 873.717 1.89007 0.0855075 0
M  V30 9262 O 873.06 1.50547 1.05267 0
M  V30 9263 C 873.122 2.92424 -2.09113 0
M  V30 9264 C 872.786 2.83793 -3.58205 0
M  V30 9265 C 873.783 2.56072 -4.52464 0
M  V30 9266 C 871.468 3.02386 -4.01084 0
M  V30 9267 C 873.462 2.47044 -5.87578 0
M  V30 9268 C 871.149 2.9298 -5.36289 0
M  V30 9269 C 872.147 2.65347 -6.29349 0
M  V30 9270 O 871.835 2.55935 -7.62071 0
M  V30 9271 H 871.567 0.495639 -0.459694 0
M  V30 9272 H 874.121 0.988354 -1.80058 0
M  V30 9273 H 872.351 3.53282 -1.57254 0
M  V30 9274 H 874.04 3.53693 -1.99139 0
M  V30 9275 H 874.806 2.4141 -4.2065 0
M  V30 9276 H 870.685 3.229 -3.29023 0
M  V30 9277 H 874.229 2.25396 -6.60184 0
M  V30 9278 H 870.126 3.07204 -5.67711 0
M  V30 9279 H 870.894 2.7142 -7.72187 0
M  V30 9280 N 873.557 1.20646 1.01402 0
M  V30 9281 C 874.487 0.98155 2.11867 0
M  V30 9282 C 875.468 -0.0903712 1.6986 0
M  V30 9283 O 876.653 0.0676586 1.94082 0
M  V30 9284 C 873.783 0.535636 3.43145 0
M  V30 9285 C 872.737 1.55109 3.98905 0
M  V30 9286 C 872.063 0.961725 5.2598 0
M  V30 9287 C 873.363 2.93552 4.32001 0
M  V30 9288 H 875.057 1.90544 2.3094 0
M  V30 9289 H 872.603 0.917554 1.10982 0
M  V30 9290 H 874.556 0.365512 4.19812 0
M  V30 9291 H 873.28 -0.423882 3.23838 0
M  V30 9292 H 871.939 1.70862 3.24348 0
M  V30 9293 H 871.587 -0.00580108 5.03 0
M  V30 9294 H 871.287 1.63993 5.64252 0
M  V30 9295 H 872.811 0.802726 6.053 0
M  V30 9296 H 874.225 2.81295 4.99546 0
M  V30 9297 H 872.622 3.58303 4.81393 0
M  V30 9298 H 873.692 3.4508 3.40658 0
M  V30 9299 N 875.035 -1.20752 1.01276 0
M  V30 9300 C 875.967 -2.22798 0.537917 0
M  V30 9301 C 876.98 -1.5836 -0.377638 0
M  V30 9302 O 878.169 -1.77624 -0.176599 0
M  V30 9303 C 875.269 -3.38068 -0.237364 0
M  V30 9304 C 874.442 -4.32095 0.679161 0
M  V30 9305 C 873.501 -5.26178 -0.0478676 0
M  V30 9306 O 872.527 -5.66305 0.573366 0
M  V30 9307 N 873.729 -5.65201 -1.32396 0
M  V30 9308 H 876.494 -2.64166 1.4155 0
M  V30 9309 H 874.055 -1.35254 0.889826 0
M  V30 9310 H 876.047 -3.98009 -0.73288 0
M  V30 9311 H 874.617 -2.95622 -1.0162 0
M  V30 9312 H 873.837 -3.70179 1.35505 0
M  V30 9313 H 875.125 -4.91842 1.30263 0
M  V30 9314 H 874.523 -5.34606 -1.84968 0
M  V30 9315 H 873.08 -6.27468 -1.76428 0
M  V30 9316 N 876.513 -0.788492 -1.36457 0
M  V30 9317 C 877.924 -0.423742 -1.81828 0
M  V30 9318 C 878.275 1.05221 -1.65599 0
M  V30 9319 O 877.4 1.8163 -1.17641 0
M  V30 9320 C 877.995 -0.762354 -3.30112 0
M  V30 9321 C 876.554 -0.450445 -3.73695 0
M  V30 9322 C 875.701 -0.997482 -2.58738 0
M  V30 9323 H 878.652 -0.981718 -1.24692 0
M  V30 9324 H 878.673 -0.0531136 -3.80463 0
M  V30 9325 H 878.185 -1.83662 -3.41891 0
M  V30 9326 H 876.286 0.615829 -3.67476 0
M  V30 9327 H 876.399 -0.970408 -4.69169 0
M  V30 9328 H 874.763 -0.420761 -2.51201 0
M  V30 9329 H 875.546 -2.07749 -2.73304 0
M  V30 9330 N 877.991 1.48044 -0.54043 0
M  V30 9331 C 878.939 2.31461 0.229862 0
M  V30 9332 C 879.933 1.41884 0.925495 0
M  V30 9333 O 881.139 1.58736 0.848689 0
M  V30 9334 H 877.514 0.746227 0.0929975 0
M  V30 9335 H 879.485 2.94297 -0.493118 0
M  V30 9336 C 878.234 3.24172 1.25729 0
M  V30 9337 H 877.557 3.93052 0.731426 0
M  V30 9338 H 878.997 3.85404 1.76747 0
M  V30 9339 C 877.456 2.4651 2.2964 0
M  V30 9340 O 877.986 2.19742 3.36268 0
M  V30 9341 N 876.192 2.07817 2.03127 0
M  V30 9342 H 875.739 2.29786 1.1643 0
M  V30 9343 H 875.697 1.56168 2.72872 0
M  V30 9344 N 879.47 0.276058 1.55163 0
M  V30 9345 C 880.719 -0.341098 1.98795 0
M  V30 9346 C 881.032 -1.56905 1.16791 0
M  V30 9347 O 882.238 -2.25922 1.50571 0
M  V30 9348 C 880.694 -0.658231 3.5383 0
M  V30 9349 C 880.302 0.549972 4.44611 0
M  V30 9350 C 882.046 -1.23796 4.06048 0
M  V30 9351 C 879.953 0.207373 5.91036 0
M  V30 9352 H 878.883 -0.131224 0.742493 0
M  V30 9353 H 881.534 0.380858 1.79504 0
M  V30 9354 H 879.916 -1.43911 3.68925 0
M  V30 9355 H 881.09 1.32681 4.41285 0
M  V30 9356 H 879.405 1.04661 4.03032 0
M  V30 9357 H 882.002 -1.50811 5.12991 0
M  V30 9358 H 882.345 -2.17214 3.55139 0
M  V30 9359 H 882.878 -0.519345 3.94395 0
M  V30 9360 H 879.617 1.10946 6.46043 0
M  V30 9361 H 879.137 -0.532687 5.9743 0
M  V30 9362 H 880.816 -0.200072 6.46691 0
M  V30 9363 N 880.948 -1.576 0.00335426 0
M  V30 9364 C 882.359 -1.7875 -0.539008 0
M  V30 9365 C 882.71 -0.911097 -1.73763 0
M  V30 9366 O 881.835 -0.114476 -2.16097 0
M  V30 9367 C 882.43 -3.24177 -0.984611 0
M  V30 9368 C 880.989 -3.46412 -1.47226 0
M  V30 9369 C 880.136 -2.74024 -0.425004 0
M  V30 9370 H 883.087 -1.57032 0.229511 0
M  V30 9371 H 883.108 -3.32474 -1.85044 0
M  V30 9372 H 882.62 -3.87938 -0.112035 0
M  V30 9373 H 880.721 -2.8787 -2.36562 0
M  V30 9374 H 880.834 -4.55098 -1.49741 0
M  V30 9375 H 879.198 -2.38741 -0.887394 0
M  V30 9376 H 879.981 -3.40486 0.438662 0
M  V30 9377 N 882.426 0.269451 -1.5528 0
M  V30 9378 C 883.389 1.31642 -1.87625 0
M  V30 9379 C 884.389 1.42182 -0.751058 0
M  V30 9380 O 885.579 1.41272 -1.01921 0
M  V30 9381 C 882.711 2.6973 -2.08467 0
M  V30 9382 H 883.904 1.0419 -2.81219 0
M  V30 9383 H 881.457 0.507685 -1.47825 0
M  V30 9384 H 882.192 3.02356 -1.17266 0
M  V30 9385 H 881.977 2.63465 -2.90394 0
M  V30 9386 H 883.467 3.4537 -2.34753 0
M  V30 9387 N 883.904 1.48273 0.534124 0
M  V30 9388 C 885.152 1.55771 1.28762 0
M  V30 9389 C 885.473 0.231575 1.9362 0
M  V30 9390 O 884.743 -0.746533 1.81118 0
M  V30 9391 H 883.323 0.573851 0.47823 0
M  V30 9392 H 885.985 1.84712 0.621888 0
M  V30 9393 H 885.081 2.33657 2.06908 0
M  V30 9394 N 885.382 -0.782676 1.36792 0
M  V30 9395 C 886.628 -1.54311 1.3159 0
M  V30 9396 C 886.961 -1.93928 -0.102696 0
M  V30 9397 O 886.236 -1.63233 -1.05761 0
M  V30 9398 C 886.519 -2.81561 2.24489 0
M  V30 9399 C 886.372 -2.48268 3.75078 0
M  V30 9400 C 887.691 -3.83428 2.16034 0
M  V30 9401 H 884.81 -0.559828 0.479335 0
M  V30 9402 H 887.452 -0.898717 1.67401 0
M  V30 9403 H 885.602 -3.36549 1.9408 0
M  V30 9404 H 887.274 -1.99279 4.16036 0
M  V30 9405 H 885.517 -1.81116 3.94182 0
M  V30 9406 H 886.188 -3.39183 4.35499 0
M  V30 9407 H 888.664 -3.37905 2.42815 0
M  V30 9408 H 887.54 -4.70204 2.83194 0
M  V30 9409 H 887.801 -4.26887 1.14976 0
M  V30 9410 N 886.86 -1.21182 -1.00761 0
M  V30 9411 C 887.793 -0.912033 -2.09182 0
M  V30 9412 C 888.771 0.139421 -1.62001 0
M  V30 9413 O 889.955 0.0110272 -1.88497 0
M  V30 9414 C 887.082 -0.368957 -3.36684 0
M  V30 9415 C 886.128 -1.4028 -4.0277 0
M  V30 9416 S 886.961 -2.97108 -4.45519 0
M  V30 9417 C 888.117 -2.444 -5.76211 0
M  V30 9418 H 888.35 -1.83019 -2.34289 0
M  V30 9419 H 885.883 -1.04127 -1.14004 0
M  V30 9420 H 887.841 -0.0621883 -4.10453 0
M  V30 9421 H 886.502 0.527841 -3.09633 0
M  V30 9422 H 885.695 -0.97238 -4.94531 0
M  V30 9423 H 885.297 -1.65752 -3.35265 0
M  V30 9424 H 887.589 -1.84723 -6.51831 0
M  V30 9425 H 888.532 -3.34593 -6.24062 0
M  V30 9426 H 888.94 -1.86203 -5.32906 0
M  V30 9427 N 888.338 1.20213 -1.01915 0
M  V30 9428 C 889.301 2.21307 -0.596327 0
M  V30 9429 C 890.301 1.57274 0.334879 0
M  V30 9430 O 891.491 1.73764 0.12322 0
M  V30 9431 C 888.623 3.40657 0.128808 0
M  V30 9432 H 889.816 2.60228 -1.49068 0
M  V30 9433 H 887.369 1.33721 -0.809226 0
M  V30 9434 H 888.104 3.07241 1.03796 0
M  V30 9435 H 887.889 3.88361 -0.540183 0
M  V30 9436 H 889.379 4.15564 0.411892 0
M  V30 9437 N 889.816 0.795718 1.36037 0
M  V30 9438 C 891.065 0.367575 1.98322 0
M  V30 9439 C 891.378 -1.06823 1.63854 0
M  V30 9440 O 892.584 -1.59895 2.19421 0
M  V30 9441 C 891.04 0.606272 3.54757 0
M  V30 9442 C 890.648 2.0539 3.98144 0
M  V30 9443 C 892.392 0.242947 4.23804 0
M  V30 9444 C 890.299 2.23893 5.47381 0
M  V30 9445 H 889.229 0.133699 0.742052 0
M  V30 9446 H 891.88 0.978242 1.5525 0
M  V30 9447 H 890.262 -0.0741957 3.9593 0
M  V30 9448 H 891.436 2.77129 3.68152 0
M  V30 9449 H 889.751 2.37607 3.41953 0
M  V30 9450 H 892.348 0.359382 5.33491 0
M  V30 9451 H 892.691 -0.809661 4.08351 0
M  V30 9452 H 893.224 0.876899 3.88015 0
M  V30 9453 H 889.963 3.27559 5.6779 0
M  V30 9454 H 889.483 1.56666 5.78978 0
M  V30 9455 H 891.162 2.04914 6.13693 0
M  V30 9456 N 891.294 -1.47756 0.548274 0
M  V30 9457 C 892.541 -2.02489 0.0208955 0
M  V30 9458 C 892.869 -1.42356 -1.32533 0
M  V30 9459 O 892.124 -0.565448 -1.87353 0
M  V30 9460 C 892.423 -3.5716 -0.131069 0
M  V30 9461 C 892.089 -4.36169 1.14313 0
M  V30 9462 C 890.751 -4.57476 1.4923 0
M  V30 9463 C 893.103 -4.81801 1.9879 0
M  V30 9464 C 890.431 -5.21662 2.68487 0
M  V30 9465 C 892.783 -5.47303 3.17242 0
M  V30 9466 C 891.447 -5.66844 3.52483 0
M  V30 9467 H 890.717 -0.740961 0.00764621 0
M  V30 9468 H 893.364 -1.77531 0.717987 0
M  V30 9469 H 891.669 -3.8106 -0.911063 0
M  V30 9470 H 893.366 -3.9715 -0.55433 0
M  V30 9471 H 889.956 -4.19858 0.861235 0
M  V30 9472 H 894.14 -4.65126 1.73123 0
M  V30 9473 H 889.396 -5.34987 2.95971 0
M  V30 9474 H 893.57 -5.81626 3.82994 0
M  V30 9475 H 891.197 -6.16352 4.44988 0
M  V30 9476 N 892.772 -0.284283 -1.55015 0
M  V30 9477 C 894.02 0.329212 -1.99401 0
M  V30 9478 C 894.341 1.55687 -1.17416 0
M  V30 9479 O 893.611 1.94087 -0.265937 0
M  V30 9480 H 892.191 0.12463 -0.73653 0
M  V30 9481 H 894.853 -0.391743 -1.90922 0
M  V30 9482 H 893.949 0.61278 -3.06025 0
M  V30 9483 N 894.251 1.57596 -0.0117121 0
M  V30 9484 C 895.183 2.06025 1.0043 0
M  V30 9485 C 896.196 0.980348 1.29973 0
M  V30 9486 O 897.385 1.25691 1.26744 0
M  V30 9487 C 894.485 2.45514 2.33615 0
M  V30 9488 C 893.658 3.76378 2.22842 0
M  V30 9489 C 892.717 4.02606 3.38814 0
M  V30 9490 O 891.743 4.73108 3.16477 0
M  V30 9491 N 892.945 3.51416 4.62047 0
M  V30 9492 H 895.71 2.93811 0.591206 0
M  V30 9493 H 893.271 1.60947 0.175427 0
M  V30 9494 H 895.263 2.60166 3.09993 0
M  V30 9495 H 893.833 1.63186 2.66625 0
M  V30 9496 H 893.053 3.71691 1.313 0
M  V30 9497 H 894.341 4.62149 2.12829 0
M  V30 9498 H 893.739 2.94346 4.83091 0
M  V30 9499 H 892.296 3.71377 5.35651 0
M  V30 9500 N 895.729 -0.261212 1.5542 0
M  V30 9501 C 896.692 -1.30645 1.8832 0
M  V30 9502 C 897.692 -1.41782 0.758588 0
M  V30 9503 O 898.882 -1.40729 1.02669 0
M  V30 9504 C 896.014 -2.6862 2.09895 0
M  V30 9505 H 897.207 -1.02698 2.81768 0
M  V30 9506 H 894.76 -0.499838 1.48092 0
M  V30 9507 H 895.495 -3.0173 1.18868 0
M  V30 9508 H 895.28 -2.61921 2.91787 0
M  V30 9509 H 896.77 -3.44121 2.36581 0
M  V30 9510 N 897.207 -1.48554 -0.526253 0
M  V30 9511 C 898.154 -1.63354 -1.63046 0
M  V30 9512 C 899.124 -0.475509 -1.59148 0
M  V30 9513 O 900.309 -0.699453 -1.77517 0
M  V30 9514 C 897.449 -1.68271 -3.01295 0
M  V30 9515 C 896.562 -2.95207 -3.15399 0
M  V30 9516 C 895.697 -2.91262 -4.4423 0
M  V30 9517 C 894.736 -4.12886 -4.51876 0
M  V30 9518 N 893.873 -4.06996 -5.721 0
M  V30 9519 H 898.713 -2.57649 -1.49737 0
M  V30 9520 H 896.25 -1.27769 -0.728938 0
M  V30 9521 H 898.208 -1.69104 -3.81392 0
M  V30 9522 H 896.838 -0.774641 -3.13367 0
M  V30 9523 H 895.89 -3.04102 -2.2853 0
M  V30 9524 H 897.202 -3.85187 -3.1691 0
M  V30 9525 H 896.356 -2.90516 -5.32621 0
M  V30 9526 H 895.095 -1.99016 -4.45246 0
M  V30 9527 H 894.1 -4.13902 -3.61891 0
M  V30 9528 H 895.325 -5.06294 -4.52596 0
M  V30 9529 H 893.271 -3.17573 -5.74006 0
M  V30 9530 H 893.188 -4.90685 -5.75121 0
M  V30 9531 H 894.456 -4.10315 -6.62768 0
M  V30 9532 N 898.685 0.775411 -1.37205 0
M  V30 9533 C 900.096 1.35147 -1.28811 0
M  V30 9534 C 900.447 1.96089 0.0659168 0
M  V30 9535 O 899.572 1.93558 0.967684 0
M  V30 9536 C 900.167 2.45715 -2.33258 0
M  V30 9537 C 898.726 2.99099 -2.2851 0
M  V30 9538 C 897.873 1.72286 -2.17285 0
M  V30 9539 H 900.824 0.575954 -1.4788 0
M  V30 9540 H 900.845 3.251 -1.97712 0
M  V30 9541 H 900.357 2.01331 -3.31795 0
M  V30 9542 H 898.458 3.47868 -1.33485 0
M  V30 9543 H 898.571 3.54962 -3.21774 0
M  V30 9544 H 896.935 1.95068 -1.6377 0
M  V30 9545 H 897.718 1.3001 -3.1773 0
M  V30 9546 N 900.163 1.21714 1.00117 0
M  V30 9547 C 901.11 0.979837 2.08968 0
M  V30 9548 C 902.08 -0.0955324 1.65825 0
M  V30 9549 O 903.265 0.0523742 1.90728 0
M  V30 9550 C 900.405 0.554758 3.40612 0
M  V30 9551 C 899.518 1.69999 3.97145 0
M  V30 9552 C 898.653 1.2237 5.16913 0
M  V30 9553 C 897.692 2.34101 5.65564 0
M  V30 9554 N 896.829 1.87579 6.76579 0
M  V30 9555 H 901.669 1.91167 2.28602 0
M  V30 9556 H 899.206 0.952645 1.12085 0
M  V30 9557 H 901.164 0.289526 4.16194 0
M  V30 9558 H 899.794 -0.340073 3.21004 0
M  V30 9559 H 898.846 2.07976 3.18512 0
M  V30 9560 H 900.158 2.54074 4.29241 0
M  V30 9561 H 899.312 0.915358 5.99755 0
M  V30 9562 H 898.051 0.353045 4.8642 0
M  V30 9563 H 897.056 2.65734 4.81316 0
M  V30 9564 H 898.281 3.21669 5.98085 0
M  V30 9565 H 896.227 1.02863 6.47885 0
M  V30 9566 H 896.144 2.65225 7.07949 0
M  V30 9567 H 897.412 1.5979 7.62947 0
M  V30 9568 N 901.641 -1.19671 1.02551 0
M  V30 9569 C 902.889 -1.88894 0.71858 0
M  V30 9570 C 903.21 -1.79797 -0.754856 0
M  V30 9571 O 902.48 -1.20621 -1.54362 0
M  V30 9572 H 901.06 -0.699244 0.262806 0
M  V30 9573 H 903.722 -1.45298 1.29902 0
M  V30 9574 H 902.818 -2.95309 1.00989 0
M  V30 9575 N 903.119 -0.802921 -1.35613 0
M  V30 9576 C 904.347 -0.39393 -2.03115 0
M  V30 9577 C 904.762 0.993961 -1.60517 0
M  V30 9578 O 904.119 1.63984 -0.800973 0
M  V30 9579 C 904.17 -0.463486 -3.58516 0
M  V30 9580 O 903.891 -1.79666 -3.99565 0
M  V30 9581 C 905.392 -0.0468377 -4.43275 0
M  V30 9582 H 902.612 -0.160519 -0.651517 0
M  V30 9583 H 905.156 -1.08552 -1.73311 0
M  V30 9584 H 903.311 0.179821 -3.86982 0
M  V30 9585 H 903.725 -1.75688 -4.942 0
M  V30 9586 H 905.199 -0.146626 -5.51805 0
M  V30 9587 H 905.676 1.00741 -4.2749 0
M  V30 9588 H 906.282 -0.663158 -4.20098 0
M  V30 9589 N 904.597 1.47463 -0.556102 0
M  V30 9590 C 905.527 2.32801 0.180497 0
M  V30 9591 C 906.508 1.43721 0.909848 0
M  V30 9592 O 907.693 1.72578 0.89053 0
M  V30 9593 C 904.823 3.25478 1.21167 0
M  V30 9594 C 903.777 4.2379 0.598846 0
M  V30 9595 C 903.103 5.05783 1.73457 0
M  V30 9596 C 904.403 5.20387 -0.446659 0
M  V30 9597 H 906.097 2.94636 -0.531956 0
M  V30 9598 H 903.643 1.41683 -0.257267 0
M  V30 9599 H 905.596 3.8402 1.73513 0
M  V30 9600 H 904.32 2.61695 1.95405 0
M  V30 9601 H 902.979 3.66472 0.0966897 0
M  V30 9602 H 902.627 4.38405 2.46596 0
M  V30 9603 H 902.327 5.72343 1.33031 0
M  V30 9604 H 903.851 5.67183 2.26131 0
M  V30 9605 H 905.265 5.73299 -0.00930019 0
M  V30 9606 H 903.662 5.95143 -0.769735 0
M  V30 9607 H 904.732 4.65932 -1.34295 0
M  V30 9608 N 906.075 0.2925 1.54862 0
M  V30 9609 C 907.486 -0.201841 1.85606 0
M  V30 9610 C 907.837 -1.54093 1.21449 0
M  V30 9611 O 906.962 -2.10327 0.509079 0
M  V30 9612 C 907.557 -0.373011 3.3674 0
M  V30 9613 C 906.116 -0.811574 3.67547 0
M  V30 9614 C 905.263 0.0850583 2.7717 0
M  V30 9615 H 908.214 0.513774 1.50153 0
M  V30 9616 H 908.235 -1.20892 3.60785 0
M  V30 9617 H 907.747 0.601751 3.83407 0
M  V30 9618 H 905.848 -1.79719 3.26392 0
M  V30 9619 H 905.961 -0.636853 4.74848 0
M  V30 9620 H 904.325 -0.434224 2.50971 0
M  V30 9621 H 905.108 1.05602 3.26654 0
M  V30 9622 N 907.553 -1.57587 0.0200696 0
M  V30 9623 C 908.799 -1.91708 -0.661503 0
M  V30 9624 C 909.132 -0.895968 -1.72296 0
M  V30 9625 O 908.407 0.082577 -1.94325 0
M  V30 9626 C 908.69 -3.36344 -1.28627 0
M  V30 9627 C 908.543 -4.49186 -0.234982 0
M  V30 9628 C 909.862 -3.80771 -2.20685 0
M  V30 9629 H 906.981 -0.69717 -0.239005 0
M  V30 9630 H 909.623 -1.8985 0.0754764 0
M  V30 9631 H 907.773 -3.38058 -1.91439 0
M  V30 9632 H 909.445 -4.59606 0.395011 0
M  V30 9633 H 907.688 -4.31557 0.440565 0
M  V30 9634 H 908.359 -5.47395 -0.711558 0
M  V30 9635 H 910.835 -3.80735 -1.67868 0
M  V30 9636 H 909.711 -4.82685 -2.61356 0
M  V30 9637 H 909.972 -3.15764 -3.09428 0
M  V30 9638 N 909.032 0.252966 -1.55557 0
M  V30 9639 C 910.309 1.00432 -1.67847 0
M  V30 9640 C 910.689 2.03587 -0.55816 0
M  V30 9641 O 910.037 2.24239 0.439197 0
M  V30 9642 C 910.247 1.64313 -3.079 0
M  V30 9643 C 911.595 2.14726 -3.66303 0
M  V30 9644 O 912.619 1.74264 -3.10661 0
M  V30 9645 O 911.478 2.89 -4.63833 0
M  V30 9646 H 908.572 0.467102 -0.682455 0
M  V30 9647 H 911.118 0.247233 -1.67889 0
M  V30 9648 H 909.89 0.896681 -3.80888 0
M  V30 9649 H 909.513 2.46657 -3.11843 0
M  V30 9650 N 910.51 1.48831 0.518367 0
M  V30 9651 C 911.759 1.5669 1.27008 0
M  V30 9652 C 912.072 0.250934 1.93984 0
M  V30 9653 O 913.278 0.207884 2.70703 0
M  V30 9654 C 911.734 2.76387 2.30517 0
M  V30 9655 C 911.342 4.14673 1.69559 0
M  V30 9656 C 913.086 2.93566 3.06625 0
M  V30 9657 C 910.993 5.25616 2.71076 0
M  V30 9658 H 909.923 0.583362 0.477708 0
M  V30 9659 H 912.574 1.75187 0.546052 0
M  V30 9660 H 910.956 2.51348 3.06006 0
M  V30 9661 H 912.13 4.49779 1.00179 0
M  V30 9662 H 910.445 4.02708 1.05902 0
M  V30 9663 H 913.042 3.7362 3.82508 0
M  V30 9664 H 913.385 2.03462 3.63193 0
M  V30 9665 H 913.918 3.18562 2.38251 0
M  V30 9666 H 910.657 6.17723 2.19313 0
M  V30 9667 H 910.177 4.94985 3.38748 0
M  V30 9668 H 911.856 5.5422 3.3384 0
M  V30 9669 N 911.988 -0.768124 1.37614 0
M  V30 9670 C 913.399 -1.34462 1.29525 0
M  V30 9671 C 913.75 -1.96121 -0.0555168 0
M  V30 9672 O 912.875 -1.94069 -0.957406 0
M  V30 9673 C 913.47 -2.44475 2.34558 0
M  V30 9674 C 912.029 -2.97883 2.30093 0
M  V30 9675 C 911.176 -1.71131 2.18196 0
M  V30 9676 H 914.127 -0.568103 1.48183 0
M  V30 9677 H 914.148 -3.24047 1.99434 0
M  V30 9678 H 913.66 -1.99568 3.32858 0
M  V30 9679 H 911.761 -3.47156 1.35328 0
M  V30 9680 H 911.874 -3.53251 3.23652 0
M  V30 9681 H 910.238 -1.94197 1.64802 0
M  V30 9682 H 911.021 -1.28323 3.18415 0
M  V30 9683 N 913.466 -1.22244 -0.994698 0
M  V30 9684 C 914.691 -1.07299 -1.77487 0
M  V30 9685 C 915.116 0.372302 -1.84379 0
M  V30 9686 O 914.474 1.2689 -1.29494 0
M  V30 9687 C 914.522 -1.68675 -3.18718 0
M  V30 9688 O 913.626 -0.939202 -4.01563 0
M  V30 9689 H 912.967 -0.376979 -0.546611 0
M  V30 9690 H 915.497 -1.62003 -1.24965 0
M  V30 9691 H 915.507 -1.73324 -3.69354 0
M  V30 9692 H 914.182 -2.73849 -3.13017 0
M  V30 9693 H 912.759 -0.968583 -3.60101 0
M  V30 9694 N 914.944 1.19125 -1.03184 0
M  V30 9695 C 916.19 1.89163 -0.731111 0
M  V30 9696 C 916.523 1.79604 0.738662 0
M  V30 9697 O 915.798 1.19037 1.53819 0
M  V30 9698 C 916.081 3.39986 -1.18666 0
M  V30 9699 C 915.934 3.58401 -2.71788 0
M  V30 9700 C 917.253 4.33316 -0.769772 0
M  V30 9701 H 914.372 0.686908 -0.267069 0
M  V30 9702 H 917.014 1.40205 -1.28229 0
M  V30 9703 H 915.164 3.81813 -0.717736 0
M  V30 9704 H 916.836 3.25727 -3.26649 0
M  V30 9705 H 915.079 3.01355 -3.12038 0
M  V30 9706 H 915.75 4.64189 -2.98719 0
M  V30 9707 H 918.226 3.9922 -1.17314 0
M  V30 9708 H 917.102 5.37427 -1.11637 0
M  V30 9709 H 917.363 4.40884 0.327681 0
M  V30 9710 N 916.422 0.810101 1.35185 0
M  V30 9711 C 917.65 0.404696 2.02903 0
M  V30 9712 C 918.065 -0.985434 1.61042 0
M  V30 9713 O 917.422 -1.63557 0.809658 0
M  V30 9714 C 917.473 0.482493 3.58266 0
M  V30 9715 O 917.194 1.81782 3.98606 0
M  V30 9716 C 918.695 0.070345 4.43244 0
M  V30 9717 H 915.915 0.163972 0.650657 0
M  V30 9718 H 918.459 1.0947 1.72733 0
M  V30 9719 H 916.614 -0.159296 3.87072 0
M  V30 9720 H 917.028 1.78306 4.93262 0
M  V30 9721 H 918.502 0.175888 5.5172 0
M  V30 9722 H 918.979 -0.984724 4.28018 0
M  V30 9723 H 919.585 0.685427 4.1974 0
M  V30 9724 N 917.9 -1.47166 0.563914 0
M  V30 9725 C 918.847 -2.30097 -0.180013 0
M  V30 9726 C 919.817 -1.39473 -0.902019 0
M  V30 9727 O 921.002 -1.68432 -0.896396 0
M  V30 9728 C 918.142 -3.23573 -1.19978 0
M  V30 9729 C 917.255 -4.2929 -0.483149 0
M  V30 9730 C 916.39 -5.0991 -1.48879 0
M  V30 9731 C 915.429 -6.07395 -0.757513 0
M  V30 9732 N 914.566 -6.8095 -1.71031 0
M  V30 9733 H 919.406 -2.93189 0.53329 0
M  V30 9734 H 916.943 -1.4451 0.274814 0
M  V30 9735 H 918.901 -3.76196 -1.80368 0
M  V30 9736 H 917.531 -2.6233 -1.88103 0
M  V30 9737 H 916.583 -3.79671 0.235414 0
M  V30 9738 H 917.895 -4.9872 0.0894075 0
M  V30 9739 H 917.049 -5.66717 -2.16603 0
M  V30 9740 H 915.788 -4.40397 -2.09527 0
M  V30 9741 H 914.793 -5.4976 -0.0663841 0
M  V30 9742 H 916.018 -6.78919 -0.156685 0
M  V30 9743 H 913.964 -6.14162 -2.30524 0
M  V30 9744 H 913.881 -7.46574 -1.19007 0
M  V30 9745 H 915.149 -7.42326 -2.37849 0
M  V30 9746 N 919.378 -0.300708 -1.54705 0
M  V30 9747 C 920.789 0.191995 -1.8571 0
M  V30 9748 C 921.14 1.53447 -1.22264 0
M  V30 9749 O 920.265 2.10054 -0.520226 0
M  V30 9750 C 920.86 0.355148 -3.36933 0
M  V30 9751 C 919.419 0.792071 -3.67972 0
M  V30 9752 C 918.566 -0.099756 -2.77121 0
M  V30 9753 H 921.517 -0.521729 -1.49879 0
M  V30 9754 H 921.538 1.18977 -3.61421 0
M  V30 9755 H 921.05 -0.622075 -3.83082 0
M  V30 9756 H 919.151 1.77986 -3.27341 0
M  V30 9757 H 919.264 0.611661 -4.75179 0
M  V30 9758 H 917.628 0.420909 -2.51198 0
M  V30 9759 H 918.411 -1.07333 -3.2609 0
M  V30 9760 N 920.856 1.57574 -0.0284266 0
M  V30 9761 C 922.104 1.91393 0.649079 0
M  V30 9762 C 922.425 0.905368 1.72708 0
M  V30 9763 O 921.695 -0.0532107 1.95828 0
M  V30 9764 H 920.275 0.70646 0.24274 0
M  V30 9765 H 922.937 1.94752 -0.076066 0
M  V30 9766 H 922.033 2.91988 1.10226 0
M  V30 9767 N 922.334 -0.244713 1.55689 0
M  V30 9768 C 923.282 -1.32276 1.91326 0
M  V30 9769 C 924.276 -1.49714 0.792589 0
M  V30 9770 O 925.482 -1.51163 0.977227 0
M  V30 9771 H 921.857 -0.442979 0.607679 0
M  V30 9772 H 923.828 -0.99486 2.81327 0
M  V30 9773 C 922.577 -2.67077 2.22633 0
M  V30 9774 H 921.9 -2.54458 3.08368 0
M  V30 9775 H 923.34 -3.41378 2.5147 0
M  V30 9776 C 921.799 -3.20335 1.04342 0
M  V30 9777 O 922.329 -4.00633 0.292543 0
M  V30 9778 N 920.535 -2.78392 0.833457 0
M  V30 9779 H 920.082 -2.13202 1.44577 0
M  V30 9780 H 920.04 -3.1437 0.0436713 0
M  V30 9781 N 923.813 -1.49104 -0.510467 0
M  V30 9782 C 925.041 -1.61806 -1.28944 0
M  V30 9783 C 925.456 -0.285774 -1.86625 0
M  V30 9784 O 924.813 0.727551 -1.67371 0
M  V30 9785 C 924.864 -2.67966 -2.42645 0
M  V30 9786 O 924.585 -3.96026 -1.87337 0
M  V30 9787 C 926.086 -2.91286 -3.34166 0
M  V30 9788 H 923.306 -0.544999 -0.391429 0
M  V30 9789 H 925.85 -1.95071 -0.613805 0
M  V30 9790 H 924.005 -2.37505 -3.06056 0
M  V30 9791 H 924.419 -4.54427 -2.61909 0
M  V30 9792 H 925.893 -3.69323 -4.1025 0
M  V30 9793 H 926.37 -2.00842 -3.90588 0
M  V30 9794 H 926.976 -3.23127 -2.76531 0
M  V30 9795 N 925.291 0.760815 -1.38019 0
M  V30 9796 C 926.221 1.88811 -1.37377 0
M  V30 9797 C 927.202 1.68388 -0.240737 0
M  V30 9798 O 928.387 1.89086 -0.442739 0
M  V30 9799 C 925.517 3.26244 -1.1909 0
M  V30 9800 C 924.471 3.61254 -2.29521 0
M  V30 9801 C 923.797 4.97346 -1.96345 0
M  V30 9802 C 925.097 3.66874 -3.71753 0
M  V30 9803 H 926.791 1.89606 -2.31711 0
M  V30 9804 H 924.337 0.910818 -1.11535 0
M  V30 9805 H 926.29 4.04755 -1.17267 0
M  V30 9806 H 925.014 3.2591 -0.212152 0
M  V30 9807 H 923.673 2.85057 -2.30517 0
M  V30 9808 H 923.321 4.93564 -0.969728 0
M  V30 9809 H 923.021 5.21739 -2.703 0
M  V30 9810 H 924.545 5.78244 -1.96129 0
M  V30 9811 H 925.959 4.35514 -3.72828 0
M  V30 9812 H 924.356 4.02772 -4.44853 0
M  V30 9813 H 925.426 2.67273 -4.0459 0
M  V30 9814 N 926.769 1.22769 0.988202 0
M  V30 9815 C 927.999 1.07998 1.76125 0
M  V30 9816 C 928.407 -0.372062 1.85506 0
M  V30 9817 O 927.75 -1.26946 1.3278 0
M  V30 9818 C 927.812 1.6219 3.20834 0
M  V30 9819 C 927.476 3.1086 3.34986 0
M  V30 9820 C 928.473 4.08239 3.21927 0
M  V30 9821 C 926.158 3.50411 3.59886 0
M  V30 9822 C 928.152 5.43154 3.33561 0
M  V30 9823 C 925.839 4.85473 3.71159 0
M  V30 9824 C 926.837 5.81653 3.58006 0
M  V30 9825 O 926.525 7.14263 3.68895 0
M  V30 9826 H 926.257 0.378937 0.559806 0
M  V30 9827 H 928.811 1.62925 1.25078 0
M  V30 9828 H 927.041 1.01676 3.73094 0
M  V30 9829 H 928.73 1.43011 3.79872 0
M  V30 9830 H 929.496 3.79025 3.02597 0
M  V30 9831 H 925.375 2.76068 3.69198 0
M  V30 9832 H 928.919 6.18207 3.23211 0
M  V30 9833 H 924.816 5.14365 3.89998 0
M  V30 9834 H 925.584 7.21906 3.85739 0
M  V30 9835 N 928.247 -1.18576 1.03814 0
M  V30 9836 C 929.658 -1.70159 0.768299 0
M  V30 9837 C 930.009 -1.8286 -0.711106 0
M  V30 9838 O 929.134 -1.5063 -1.55369 0
M  V30 9839 C 929.729 -3.09062 1.38804 0
M  V30 9840 C 928.288 -3.57866 1.16656 0
M  V30 9841 C 927.435 -2.34484 1.48029 0
M  V30 9842 H 930.386 -1.03287 1.20488 0
M  V30 9843 H 930.407 -3.72211 0.7899 0
M  V30 9844 H 929.919 -2.99785 2.46476 0
M  V30 9845 H 928.02 -3.72442 0.108471 0
M  V30 9846 H 928.133 -4.41445 1.8618 0
M  V30 9847 H 926.497 -2.38273 0.899902 0
M  V30 9848 H 927.28 -2.27829 2.56805 0
M  V30 9849 N 929.725 -0.817259 -1.34754 0
M  V30 9850 C 930.655 -0.249769 -2.3216 0
M  V30 9851 C 931.636 0.630663 -1.57977 0
M  V30 9852 O 932.821 0.558719 -1.85989 0
M  V30 9853 C 929.951 0.593825 -3.42186 0
M  V30 9854 C 928.905 -0.188997 -4.27583 0
M  V30 9855 C 928.231 0.776979 -5.29025 0
M  V30 9856 C 929.531 -1.39401 -5.03354 0
M  V30 9857 H 931.225 -1.06359 -2.79872 0
M  V30 9858 H 928.771 -0.512894 -1.34556 0
M  V30 9859 H 930.724 1.00097 -4.09339 0
M  V30 9860 H 929.448 1.44064 -2.93109 0
M  V30 9861 H 928.107 -0.577445 -3.62024 0
M  V30 9862 H 927.755 1.61959 -4.76212 0
M  V30 9863 H 927.455 0.257448 -5.87036 0
M  V30 9864 H 928.979 1.18211 -5.99048 0
M  V30 9865 H 930.393 -1.06117 -5.63393 0
M  V30 9866 H 928.79 -1.84878 -5.70912 0
M  V30 9867 H 929.86 -2.17515 -4.33377 0
M  V30 9868 N 931.203 1.46865 -0.571711 0
M  V30 9869 C 932.451 2.0203 -0.0530022 0
M  V30 9870 C 932.772 1.44687 1.30731 0
M  V30 9871 O 932.042 0.627429 1.85581 0
M  V30 9872 H 930.622 0.746815 -0.0166035 0
M  V30 9873 H 933.284 1.80099 -0.745003 0
M  V30 9874 H 932.38 3.12091 0.0242538 0
M  V30 9875 N 932.681 0.308908 1.54543 0
M  V30 9876 C 933.911 -0.299983 2.04411 0
M  V30 9877 C 934.319 -1.47463 1.18538 0
M  V30 9878 O 933.662 -1.82547 0.205463 0
M  V30 9879 C 933.724 -0.811579 3.50219 0
M  V30 9880 C 933.388 0.238834 4.56375 0
M  V30 9881 C 934.385 1.06997 5.08771 0
M  V30 9882 C 932.07 0.382808 5.00839 0
M  V30 9883 C 934.064 2.03096 6.04178 0
M  V30 9884 C 931.751 1.34723 5.96065 0
M  V30 9885 C 932.749 2.16978 6.47618 0
M  V30 9886 O 932.437 3.11783 7.40977 0
M  V30 9887 H 932.169 -0.0679682 0.672574 0
M  V30 9888 H 934.723 0.448815 2.00437 0
M  V30 9889 H 932.953 -1.61104 3.51543 0
M  V30 9890 H 934.642 -1.33721 3.83241 0
M  V30 9891 H 935.408 0.969654 4.75208 0
M  V30 9892 H 931.287 -0.247507 4.60335 0
M  V30 9893 H 934.831 2.67338 6.44342 0
M  V30 9894 H 930.728 1.44824 6.29044 0
M  V30 9895 H 931.496 3.06853 7.58804 0
M  V30 9896 N 934.159 -1.57557 0.0367827 0
M  V30 9897 C 935.407 -1.91735 -0.63892 0
M  V30 9898 C 935.728 -0.914515 -1.72226 0
M  V30 9899 O 934.998 0.0428248 -1.95853 0
M  V30 9900 H 933.578 -0.707738 -0.23899 0
M  V30 9901 H 936.24 -1.94708 0.0863931 0
M  V30 9902 H 935.336 -2.92568 -1.08676 0
M  V30 9903 N 935.637 0.236453 -1.55816 0
M  V30 9904 C 936.567 1.29639 -1.94206 0
M  V30 9905 C 937.548 1.49667 -0.808319 0
M  V30 9906 O 938.733 1.621 -1.06945 0
M  V30 9907 C 935.863 2.64914 -2.24584 0
M  V30 9908 C 934.817 2.59565 -3.40308 0
M  V30 9909 C 934.143 3.98732 -3.56254 0
M  V30 9910 C 935.443 2.15642 -4.75706 0
M  V30 9911 H 937.137 0.977552 -2.82992 0
M  V30 9912 H 934.683 0.468804 -1.36155 0
M  V30 9913 H 936.636 3.39209 -2.50031 0
M  V30 9914 H 935.36 2.98455 -1.32636 0
M  V30 9915 H 934.019 1.87728 -3.14887 0
M  V30 9916 H 933.667 4.29556 -2.61707 0
M  V30 9917 H 933.367 3.96039 -4.34082 0
M  V30 9918 H 934.891 4.74711 -3.84033 0
M  V30 9919 H 936.305 2.79673 -5.00456 0
M  V30 9920 H 934.702 2.24039 -5.56711 0
M  V30 9921 H 935.772 1.10831 -4.72064 0
M  V30 9922 N 937.115 1.49373 0.502552 0
M  V30 9923 C 938.063 1.66411 1.62512 0
M  V30 9924 C 939.057 0.530062 1.60893 0
M  V30 9925 O 940.263 0.709648 1.65421 0
M  V30 9926 H 936.638 0.524707 0.538689 0
M  V30 9927 H 938.609 2.60639 1.45293 0
M  V30 9928 C 937.358 1.74648 3.00655 0
M  V30 9929 H 936.681 2.61285 3.02606 0
M  V30 9930 H 938.121 1.90605 3.78742 0
M  V30 9931 C 936.58 0.490963 3.33303 0
M  V30 9932 O 937.11 -0.384039 3.9986 0
M  V30 9933 N 935.316 0.354375 2.88431 0
M  V30 9934 H 934.863 1.06742 2.34444 0
M  V30 9935 H 934.821 -0.484593 3.10643 0
M  V30 9936 N 938.594 -0.753485 1.38421 0
M  V30 9937 C 939.843 -1.50797 1.33952 0
M  V30 9938 C 940.156 -1.95482 -0.0678464 0
M  V30 9939 O 941.362 -2.7048 -0.235078 0
M  V30 9940 C 939.818 -2.72393 2.35224 0
M  V30 9941 C 939.426 -2.34733 3.81582 0
M  V30 9942 C 941.17 -3.50281 2.39798 0
M  V30 9943 C 939.077 -3.52939 4.7454 0
M  V30 9944 H 938.007 -0.566211 0.497916 0
M  V30 9945 H 940.658 -0.823659 1.63976 0
M  V30 9946 H 939.04 -3.42806 1.98243 0
M  V30 9947 H 940.214 -1.71985 4.27502 0
M  V30 9948 H 938.529 -1.69978 3.80127 0
M  V30 9949 H 941.126 -4.38172 3.06447 0
M  V30 9950 H 941.469 -3.91444 1.41695 0
M  V30 9951 H 942.002 -2.86881 2.75579 0
M  V30 9952 H 938.741 -3.16843 5.73839 0
M  V30 9953 H 938.261 -4.1473 4.33312 0
M  V30 9954 H 939.94 -4.19519 4.92557 0
M  V30 9955 N 940.072 -1.23292 -0.981677 0
M  V30 9956 C 941.019 -1.01296 -2.07383 0
M  V30 9957 C 941.989 0.069139 -1.65956 0
M  V30 9958 O 943.174 -0.0827108 -1.90621 0
M  V30 9959 C 940.314 -0.608876 -3.39686 0
M  V30 9960 C 939.427 -1.76296 -3.9439 0
M  V30 9961 C 938.562 -1.30578 -5.14901 0
M  V30 9962 C 937.601 -2.4307 -5.61768 0
M  V30 9963 N 936.738 -1.98319 -6.73509 0
M  V30 9964 H 941.578 -1.9478 -2.25532 0
M  V30 9965 H 939.115 -0.970356 -1.10555 0
M  V30 9966 H 941.073 -0.355702 -4.15681 0
M  V30 9967 H 939.703 0.288961 -3.21504 0
M  V30 9968 H 938.755 -2.13017 -3.15163 0
M  V30 9969 H 940.067 -2.60871 -4.25145 0
M  V30 9970 H 939.221 -1.01066 -5.98223 0
M  V30 9971 H 937.96 -0.430386 -4.85797 0
M  V30 9972 H 936.965 -2.73358 -4.77028 0
M  V30 9973 H 938.19 -3.31144 -5.92892 0
M  V30 9974 H 936.136 -1.13157 -6.46167 0
M  V30 9975 H 936.053 -2.76454 -7.0364 0
M  V30 9976 H 937.321 -1.71907 -7.60308 0
M  V30 9977 N 941.55 1.18024 -1.04442 0
M  V30 9978 C 942.778 1.92032 -0.770161 0
M  V30 9979 C 943.193 1.76391 0.673181 0
M  V30 9980 O 942.55 1.09604 1.45922 0
M  V30 9981 C 942.601 3.43328 -1.13173 0
M  V30 9982 O 942.322 3.5848 -2.51841 0
M  V30 9983 C 943.823 4.34427 -0.882523 0
M  V30 9984 H 941.043 0.609518 -0.280586 0
M  V30 9985 H 943.587 1.49711 -1.39308 0
M  V30 9986 H 941.742 3.83423 -0.553704 0
M  V30 9987 H 942.156 4.52166 -2.65794 0
M  V30 9988 H 943.63 5.39123 -1.18533 0
M  V30 9989 H 944.107 4.3882 0.18257 0
M  V30 9990 H 944.713 4.00035 -1.44403 0
M  V30 9991 N 943.028 0.824394 1.34319 0
M  V30 9992 C 944.276 0.41235 1.97849 0
M  V30 9993 C 944.597 -1.02841 1.65677 0
M  V30 9994 O 943.867 -1.71421 0.948245 0
M  V30 9995 H 942.447 0.149486 0.73189 0
M  V30 9996 H 945.109 1.05416 1.63931 0
M  V30 9997 H 944.205 0.532557 3.07523 0
M  V30 9998 N 944.506 -1.46559 0.579492 0
M  V30 9999 C 945.922 -1.57771 0.240921 0
M  V30 10000 C 946.122 -1.57505 -1.25676 0
M  V30 10001 O 945.178 -1.4903 -2.03829 0
M  V30 10002 C 946.491 -2.87311 0.887285 0
M  V30 10003 C 948.039 -3.00937 0.860576 0
M  V30 10004 C 948.514 -4.33208 1.48642 0
M  V30 10005 N 950.005 -4.39899 1.45062 0
M  V30 10006 C 950.74 -5.40856 1.90428 0
M  V30 10007 N 950.236 -6.48503 2.43752 0
M  V30 10008 N 952.029 -5.32037 1.81364 0
M  V30 10009 H 944.18 -1.44976 1.55228 0
M  V30 10010 H 946.443 -0.691354 0.648639 0
M  V30 10011 H 946.149 -2.93307 1.94071 0
M  V30 10012 H 946.023 -3.75141 0.393577 0
M  V30 10013 H 948.41 -2.94524 -0.184223 0
M  V30 10014 H 948.491 -2.14591 1.39227 0
M  V30 10015 H 948.135 -4.40378 2.5304 0
M  V30 10016 H 948.065 -5.18323 0.92998 0
M  V30 10017 H 950.556 -3.62706 1.0608 0
M  V30 10018 H 950.869 -7.21744 2.76234 0
M  V30 10019 H 949.214 -6.49332 2.47776 0
M  V30 10020 H 952.405 -4.46841 1.39465 0
M  V30 10021 H 952.578 -6.10573 2.17035 0
M  V30 10022 N 945.984 -0.3171 -1.54377 0
M  V30 10023 C 947.395 0.172287 -1.85903 0
M  V30 10024 C 947.746 1.52141 -1.23885 0
M  V30 10025 O 946.871 2.0949 -0.542476 0
M  V30 10026 C 947.466 0.319392 -3.37291 0
M  V30 10027 C 946.025 0.752998 -3.68791 0
M  V30 10028 C 945.172 -0.129143 -2.76999 0
M  V30 10029 H 948.123 -0.537597 -1.49317 0
M  V30 10030 H 948.144 1.15137 -3.62662 0
M  V30 10031 H 947.656 -0.662671 -3.82401 0
M  V30 10032 H 945.757 1.74504 -3.2921 0
M  V30 10033 H 945.87 0.561228 -4.75801 0
M  V30 10034 H 944.234 0.394242 -2.5163 0
M  V30 10035 H 945.017 -1.10785 -3.24933 0
M  V30 10036 N 947.462 1.57535 -0.0451378 0
M  V30 10037 C 948.392 2.14208 0.929372 0
M  V30 10038 C 949.373 1.06221 1.32858 0
M  V30 10039 O 950.558 1.34132 1.40436 0
M  V30 10040 C 947.688 2.68217 2.20629 0
M  V30 10041 C 946.642 3.81134 1.94734 0
M  V30 10042 C 945.968 4.21636 3.28828 0
M  V30 10043 C 947.268 5.06531 1.27374 0
M  V30 10044 H 948.962 2.95886 0.457348 0
M  V30 10045 H 946.508 1.42332 0.218544 0
M  V30 10046 H 948.461 3.06502 2.89196 0
M  V30 10047 H 947.185 1.83722 2.70026 0
M  V30 10048 H 945.844 3.43312 1.28579 0
M  V30 10049 H 945.492 3.34099 3.76014 0
M  V30 10050 H 945.192 4.97736 3.12302 0
M  V30 10051 H 946.716 4.62516 3.98637 0
M  V30 10052 H 948.13 5.423 1.85967 0
M  V30 10053 H 946.527 5.87735 1.21194 0
M  V30 10054 H 947.597 4.84261 0.248913 0
M  V30 10055 O 948.979 -0.0961309 1.61214 0
M  V30 10056 H 949.67 -0.72487 1.79625 0
M  V30 END ATOM
M  V30 BEGIN BOND
M  V30 END BOND
M  V30 END CTAB
M  END
$$$$
