drugbank_target|P40616 ADP-ribosylation factor-like protein 1 (DB04315)
 OpenBabel12092120553D

  0  0  0     0  0            999 V3000
M  V30 BEGIN CTAB
M  V30 COUNTS 2882 2906 0 0 0
M  V30 BEGIN ATOM
M  V30 1 H -0.908 1.98254 -0.117106 0
M  V30 2 N 0 1.576 0 0
M  V30 3 C 0.933 2.03868 1.02534 0
M  V30 4 C 1.911 0.928543 1.3348 0
M  V30 5 O 3.095 1.19667 1.45644 0
M  V30 6 C 0.222 2.43627 2.35294 0
M  V30 7 C -0.732 3.65373 2.2001 0
M  V30 8 S 0.101 5.13292 1.52614 0
M  V30 9 C 1.257 5.56322 2.86805 0
M  V30 10 H 1.49 2.90518 0.631377 0
M  V30 11 H -0.977 1.52953 0.210867 0
M  V30 12 H 0.981 2.67203 3.11629 0
M  V30 13 H -0.358 1.57376 2.7183 0
M  V30 14 H -1.165 3.90944 3.18086 0
M  V30 15 H -1.563 3.418 1.51819 0
M  V30 16 H 0.729 5.58782 3.83104 0
M  V30 17 H 1.672 6.56266 2.65933 0
M  V30 18 H 2.08 4.83886 2.90714 0
M  V30 19 N 1.4781 -0.272755 1.55222 0
M  V30 20 C 2.7261 -1.00234 1.75492 0
M  V30 21 C 3.0471 -1.8681 0.5592 0
M  V30 22 O 2.3171 -1.91215 -0.425882 0
M  V30 23 H 0.8971 -0.373076 0.647166 0
M  V30 24 H 3.5591 -0.296926 1.92625 0
M  V30 25 H 2.6551 -1.63913 2.65592 0
M  V30 26 N 2.9562 -1.48159 -0.537278 0
M  V30 27 C 4.2042 -1.55497 -1.29094 0
M  V30 28 C 4.5252 -0.227454 -1.93669 0
M  V30 29 O 3.7952 0.750386 -1.80959 0
M  V30 30 H 2.3752 -0.572832 -0.47945 0
M  V30 31 H 5.0372 -1.84579 -0.625818 0
M  V30 32 H 4.1332 -2.33216 -2.07405 0
M  V30 33 N 4.4343 0.785586 -1.36625 0
M  V30 34 C 5.6813 1.54362 -1.31067 0
M  V30 35 C 6.0093 1.94195 0.10893 0
M  V30 36 O 5.2643 1.63262 1.07908 0
M  V30 37 C 5.5633 2.83007 -2.1827 0
M  V30 38 C 5.2293 2.62294 -3.6676 0
M  V30 39 C 3.8913 2.56353 -4.0723 0
M  V30 40 C 6.2433 2.43371 -4.6089 0
M  V30 41 C 3.5713 2.29461 -5.39967 0
M  V30 42 C 5.9233 2.18005 -5.93849 0
M  V30 43 C 4.5873 2.105 -6.3344 0
M  V30 44 H 3.8573 0.564851 -0.479609 0
M  V30 45 H 6.5043 0.906028 -1.68711 0
M  V30 46 H 4.8093 3.51253 -1.73576 0
M  V30 47 H 6.5063 3.40817 -2.11292 0
M  V30 48 H 3.0963 2.67774 -3.34656 0
M  V30 49 H 7.2803 2.46959 -4.30494 0
M  V30 50 H 2.5363 2.22135 -5.69619 0
M  V30 51 H 6.7103 2.02359 -6.66351 0
M  V30 52 H 4.3373 1.89425 -7.36222 0
M  V30 53 N 5.9124 1.20967 1.01018 0
M  V30 54 C 7.1594 1.02374 1.74716 0
M  V30 55 C 7.4874 -0.443375 1.89379 0
M  V30 56 O 6.7424 -1.34535 1.42123 0
M  V30 57 C 7.0414 1.65997 3.16512 0
M  V30 58 C 6.7074 3.15831 3.2181 0
M  V30 59 C 5.3694 3.56719 3.22963 0
M  V30 60 C 7.7214 4.11816 3.19464 0
M  V30 61 C 5.0494 4.92107 3.19449 0
M  V30 62 C 7.4014 5.47158 3.17491 0
M  V30 63 C 6.0654 5.87451 3.16951 0
M  V30 64 H 5.3354 0.374614 0.639332 0
M  V30 65 H 7.9824 1.50485 1.18434 0
M  V30 66 H 6.2874 1.10166 3.75993 0
M  V30 67 H 7.9844 1.49119 3.72242 0
M  V30 68 H 4.5744 2.83263 3.21652 0
M  V30 69 H 8.7584 3.81257 3.17737 0
M  V30 70 H 4.0144 5.22579 3.17366 0
M  V30 71 H 8.1884 6.21274 3.14629 0
M  V30 72 H 5.8154 6.92329 3.13983 0
M  V30 73 N 7.3905 -1.2043 1.01659 0
M  V30 74 C 8.6155 -1.94318 0.724942 0
M  V30 75 C 9.0405 -1.74266 -0.708034 0
M  V30 76 O 8.3985 -1.03694 -1.48719 0
M  V30 77 C 8.4465 -3.44486 1.06591 0
M  V30 78 O 7.5505 -4.12017 0.177599 0
M  V30 79 H 6.8915 -0.60708 0.26898 0
M  V30 80 H 9.4215 -1.52861 1.35995 0
M  V30 81 H 9.4315 -3.95106 1.01762 0
M  V30 82 H 8.1065 -3.58404 2.10997 0
M  V30 83 H 6.6835 -3.71821 0.283421 0
M  V30 84 N 8.8686 -0.792821 -1.36206 0
M  V30 85 C 10.0936 -0.377701 -2.03932 0
M  V30 86 C 10.5186 0.998947 -1.59382 0
M  V30 87 O 9.8766 1.64421 -0.763903 0
M  V30 88 C 9.9246 -0.453635 -3.57735 0
M  V30 89 O 9.0286 0.538151 -4.08874 0
M  V30 90 H 8.3696 -0.159855 -0.644471 0
M  V30 91 H 10.8996 -1.07488 -1.7409 0
M  V30 92 H 10.9096 -0.318464 -4.06755 0
M  V30 93 H 9.5846 -1.45784 -3.89512 0
M  V30 94 H 8.1616 0.364359 -3.71116 0
M  V30 95 N 10.3467 1.47872 -0.545128 0
M  V30 96 C 11.5957 2.01695 -0.0145033 0
M  V30 97 C 11.9087 1.42609 1.33873 0
M  V30 98 O 13.1147 1.88021 1.95858 0
M  V30 99 C 11.5707 3.59892 0.0245068 0
M  V30 100 C 11.1787 4.27966 -1.32475 0
M  V30 101 C 12.9227 4.21507 0.50316 0
M  V30 102 C 10.8297 5.78136 -1.2455 0
M  V30 103 H 9.7597 0.753998 -0.00165172 0
M  V30 104 H 12.4107 1.69985 -0.691175 0
M  V30 105 H 10.7927 3.88509 0.766575 0
M  V30 106 H 11.9667 4.11003 -2.08357 0
M  V30 107 H 10.2817 3.78286 -1.74036 0
M  V30 108 H 12.8787 5.31538 0.580656 0
M  V30 109 H 13.2217 3.87855 1.51243 0
M  V30 110 H 13.7547 3.97376 -0.183681 0
M  V30 111 H 10.4937 6.16388 -2.23039 0
M  V30 112 H 10.0137 5.97469 -0.528282 0
M  V30 113 H 11.6927 6.40099 -0.942488 0
M  V30 114 N 11.8248 0.280983 1.55075 0
M  V30 115 C 13.0718 -0.334115 1.99725 0
M  V30 116 C 13.3998 -1.5542 1.1694 0
M  V30 117 O 12.6548 -1.94361 0.228531 0
M  V30 118 C 12.9538 -0.754656 3.49342 0
M  V30 119 C 12.6198 0.361445 4.49449 0
M  V30 120 C 11.2818 0.667893 4.76542 0
M  V30 121 C 13.6338 1.11322 5.09173 0
M  V30 122 C 10.9618 1.7296 5.60626 0
M  V30 123 C 13.3138 2.1647 5.9441 0
M  V30 124 C 11.9778 2.47742 6.19822 0
M  V30 125 H 11.2478 -0.122261 0.730844 0
M  V30 126 H 13.8948 0.395917 1.87363 0
M  V30 127 H 12.1998 -1.56446 3.5921 0
M  V30 128 H 13.8968 -1.24142 3.813 0
M  V30 129 H 10.4868 0.112481 4.28452 0
M  V30 130 H 14.6708 0.88973 4.8826 0
M  V30 131 H 9.9268 1.97684 5.78559 0
M  V30 132 H 14.1008 2.75193 6.3972 0
M  V30 133 H 11.7278 3.30145 6.84769 0
M  V30 134 N 13.3029 -1.57598 0.00835791 0
M  V30 135 C 14.5279 -1.95617 -0.689103 0
M  V30 136 C 14.9529 -0.883753 -1.66046 0
M  V30 137 O 14.3109 0.157352 -1.80616 0
M  V30 138 C 14.3589 -3.32736 -1.38994 0
M  V30 139 O 13.4629 -3.27631 -2.50463 0
M  V30 140 H 12.8039 -0.638379 -0.182668 0
M  V30 141 H 15.3339 -2.045 0.064036 0
M  V30 142 H 15.3439 -3.68494 -1.75147 0
M  V30 143 H 14.0189 -4.1034 -0.677778 0
M  V30 144 H 12.5959 -3.03561 -2.16576 0
M  V30 145 N 14.781 0.264519 -1.55364 0
M  V30 146 C 16.006 1.01726 -1.80739 0
M  V30 147 C 16.431 1.78836 -0.583044 0
M  V30 148 O 15.789 1.75167 0.467566 0
M  V30 149 C 15.837 1.94482 -3.03659 0
M  V30 150 O 14.941 3.03386 -2.7934 0
M  V30 151 H 14.282 0.290395 -0.597132 0
M  V30 152 H 16.812 0.290854 -2.02522 0
M  V30 153 H 16.822 2.36278 -3.32621 0
M  V30 154 H 15.497 1.37772 -3.92418 0
M  V30 155 H 14.074 2.65844 -2.61498 0
M  V30 156 N 16.2591 1.48442 0.529413 0
M  V30 157 C 17.1891 1.65902 1.64313 0
M  V30 158 C 18.1701 0.507897 1.6234 0
M  V30 159 O 19.3551 0.740503 1.79528 0
M  V30 160 C 16.4851 1.69911 3.02898 0
M  V30 161 C 15.4391 2.8453 3.19729 0
M  V30 162 C 14.7651 2.73629 4.59381 0
M  V30 163 C 16.0651 4.25821 3.02447 0
M  V30 164 H 17.7591 2.5914 1.49955 0
M  V30 165 H 15.3051 1.24709 0.719982 0
M  V30 166 H 17.2581 1.80715 3.80684 0
M  V30 167 H 15.9821 0.732524 3.18279 0
M  V30 168 H 14.6411 2.73283 2.44361 0
M  V30 169 H 14.2891 1.74938 4.71599 0
M  V30 170 H 13.9891 3.50541 4.71588 0
M  V30 171 H 15.5131 2.86401 5.39265 0
M  V30 172 H 16.9271 4.37898 3.70024 0
M  V30 173 H 15.3241 5.03735 3.26146 0
M  V30 174 H 16.3941 4.42244 1.98867 0
M  V30 175 N 17.7372 -0.778329 1.37039 0
M  V30 176 C 18.9842 -1.53665 1.31884 0
M  V30 177 C 19.3122 -1.9425 -0.0986303 0
M  V30 178 O 18.5672 -1.63832 -1.07041 0
M  V30 179 C 18.8662 -2.81845 2.19768 0
M  V30 180 C 18.5322 -2.60345 3.68146 0
M  V30 181 C 17.1942 -2.5419 4.08584 0
M  V30 182 C 19.5462 -2.40923 4.62175 0
M  V30 183 C 16.8742 -2.26594 5.41177 0
M  V30 184 C 19.2262 -2.14852 5.94997 0
M  V30 185 C 17.8902 -2.07137 6.34547 0
M  V30 186 H 17.1602 -0.562299 0.482598 0
M  V30 187 H 19.8072 -0.897069 1.69189 0
M  V30 188 H 18.1122 -3.50328 1.75436 0
M  V30 189 H 19.8092 -3.39692 2.13097 0
M  V30 190 H 16.3992 -2.65996 3.36072 0
M  V30 191 H 20.5832 -2.44673 4.31797 0
M  V30 192 H 15.8392 -2.19111 5.70789 0
M  V30 193 H 20.0132 -1.98822 6.67415 0
M  V30 194 H 17.6402 -1.85518 7.37216 0
M  V30 195 N 19.2153 -1.21501 -1.00376 0
M  V30 196 C 20.4633 -1.03095 -1.73827 0
M  V30 197 C 20.7843 0.436341 -1.90055 0
M  V30 198 O 20.0543 1.31466 -1.45236 0
M  V30 199 H 18.6343 -0.378487 -0.644016 0
M  V30 200 H 21.2963 -1.52831 -1.20949 0
M  V30 201 H 20.3923 -1.49991 -2.73695 0
M  V30 202 N 20.6934 1.19889 -1.02296 0
M  V30 203 C 21.9214 1.9339 -0.735399 0
M  V30 204 C 22.3364 1.75148 0.704887 0
M  V30 205 O 21.6934 1.06954 1.47875 0
M  V30 206 C 21.7444 3.45313 -1.06962 0
M  V30 207 O 21.4654 3.62964 -2.45334 0
M  V30 208 C 22.9664 4.35948 -0.804021 0
M  V30 209 H 20.1864 0.61448 -0.269546 0
M  V30 210 H 22.7304 1.522 -1.36585 0
M  V30 211 H 20.8854 3.84359 -0.484455 0
M  V30 212 H 21.2994 4.56886 -2.57595 0
M  V30 213 H 22.7734 5.41174 -1.0879 0
M  V30 214 H 23.2504 4.3842 0.261691 0
M  V30 215 H 23.8564 4.02574 -1.37164 0
M  V30 216 N 22.1715 0.800033 1.35784 0
M  V30 217 C 23.5875 0.482977 1.52117 0
M  V30 218 C 23.7875 -0.996948 1.75109 0
M  V30 219 O 22.8435 -1.78216 1.78872 0
M  V30 220 C 24.1565 1.32264 2.70049 0
M  V30 221 C 25.7045 1.31742 2.83924 0
M  V30 222 C 26.1795 2.14106 4.04874 0
M  V30 223 N 27.6705 2.11607 4.12039 0
M  V30 224 C 28.4055 2.72099 5.04727 0
M  V30 225 N 27.9015 3.41492 6.02789 0
M  V30 226 N 29.6945 2.61776 4.97423 0
M  V30 227 H 21.8455 1.75856 1.19115 0
M  V30 228 H 24.1085 0.748122 0.582252 0
M  V30 229 H 23.8145 2.37261 2.59616 0
M  V30 230 H 23.6885 0.971303 3.6448 0
M  V30 231 H 26.0755 0.275333 2.93813 0
M  V30 232 H 26.1565 1.70859 1.9037 0
M  V30 233 H 25.8005 3.18351 3.95746 0
M  V30 234 H 25.7305 1.72353 4.97596 0
M  V30 235 H 28.2215 1.61112 3.41835 0
M  V30 236 H 28.5345 3.84953 6.70098 0
M  V30 237 H 26.8795 3.45596 6.02983 0
M  V30 238 H 30.0705 2.07157 4.19766 0
M  V30 239 H 30.2435 3.0921 5.69468 0
M  V30 240 N 23.6496 -1.47581 0.552962 0
M  V30 241 C 24.5596 -2.33743 -0.200353 0
M  V30 242 C 25.5756 -1.47928 -0.916151 0
M  V30 243 O 26.7516 -1.80865 -0.885993 0
M  V30 244 C 23.8166 -3.24536 -1.21973 0
M  V30 245 C 22.8776 -4.26238 -0.511819 0
M  V30 246 C 22.1106 -5.12693 -1.48263 0
M  V30 247 O 22.3336 -5.01525 -2.71714 0
M  V30 248 O 21.2676 -5.93375 -1.00945 0
M  V30 249 H 25.0936 -2.9945 0.506304 0
M  V30 250 H 22.6786 -1.46071 0.313622 0
M  V30 251 H 24.5606 -3.80631 -1.80827 0
M  V30 252 H 23.2356 -2.61462 -1.90839 0
M  V30 253 H 22.1426 -3.73914 0.117799 0
M  V30 254 H 23.4756 -4.92014 0.135308 0
M  V30 255 N 25.1277 -0.289203 -1.54924 0
M  V30 256 C 26.0607 0.633823 -2.19221 0
M  V30 257 C 27.0387 1.14174 -1.15772 0
M  V30 258 O 28.2227 1.21211 -1.44361 0
M  V30 259 C 25.3497 1.86592 -2.82668 0
M  V30 260 C 24.3957 1.49227 -3.99542 0
M  V30 261 S 25.2287 0.558312 -5.32582 0
M  V30 262 C 26.3847 1.79847 -5.99505 0
M  V30 263 H 26.6177 0.0875416 -2.97171 0
M  V30 264 H 24.1507 -0.0733899 -1.54225 0
M  V30 265 H 26.1087 2.57305 -3.19851 0
M  V30 266 H 24.7697 2.38335 -2.04585 0
M  V30 267 H 23.9627 2.40945 -4.42676 0
M  V30 268 H 23.5647 0.865193 -3.63855 0
M  V30 269 H 25.8567 2.7406 -6.19595 0
M  V30 270 H 26.7997 1.4099 -6.93922 0
M  V30 271 H 27.2077 1.96982 -5.29016 0
M  V30 272 N 26.6058 1.57591 -0.0167156 0
M  V30 273 C 28.0218 1.55946 0.339557 0
M  V30 274 C 28.2218 1.02109 1.73713 0
M  V30 275 O 27.2778 0.662303 2.43659 0
M  V30 276 C 28.5908 3.00037 0.199499 0
M  V30 277 C 30.1388 3.11805 0.273193 0
M  V30 278 C 30.6138 4.57713 0.162068 0
M  V30 279 N 32.1048 4.6268 0.219444 0
M  V30 280 C 32.8398 5.73185 0.157054 0
M  V30 281 N 32.3358 6.92786 0.0442936 0
M  V30 282 N 34.1288 5.61707 0.21014 0
M  V30 283 H 26.2798 1.90921 -0.930758 0
M  V30 284 H 28.5428 0.877674 -0.358319 0
M  V30 285 H 28.2488 3.4333 -0.76273 0
M  V30 286 H 28.1228 3.64387 0.974786 0
M  V30 287 H 30.5098 2.68433 1.22587 0
M  V30 288 H 30.5908 2.50201 -0.532256 0
M  V30 289 H 30.2348 5.01763 -0.78714 0
M  V30 290 H 30.1648 5.17283 0.986222 0
M  V30 291 H 32.6558 3.76649 0.307246 0
M  V30 292 H 32.9688 7.728 0.00304069 0
M  V30 293 H 31.3138 6.94999 0.00968457 0
M  V30 294 H 34.5048 4.6716 0.296546 0
M  V30 295 H 34.6778 6.47807 0.158054 0
M  V30 296 N 28.0839 -0.256276 1.55502 0
M  V30 297 C 29.3329 -0.983486 1.76098 0
M  V30 298 C 29.6459 -1.86837 0.578896 0
M  V30 299 O 30.8519 -2.63163 0.667648 0
M  V30 300 C 29.3079 -1.79868 3.1173 0
M  V30 301 C 28.9159 -0.961648 4.37557 0
M  V30 302 C 30.6599 -2.51919 3.41668 0
M  V30 303 C 28.5669 -1.77219 5.64223 0
M  V30 304 H 27.4969 -0.370936 0.656447 0
M  V30 305 H 30.1479 -0.238492 1.81944 0
M  V30 306 H 28.5299 -2.58527 2.99966 0
M  V30 307 H 29.7039 -0.218048 4.60284 0
M  V30 308 H 28.0189 -0.354913 4.14885 0
M  V30 309 H 30.6159 -3.12998 4.33516 0
M  V30 310 H 30.9589 -3.23059 2.62562 0
M  V30 311 H 31.4919 -1.80278 3.54605 0
M  V30 312 H 28.2309 -1.10471 6.46124 0
M  V30 313 H 27.7509 -2.49132 5.45613 0
M  V30 314 H 29.4299 -2.34169 6.03137 0
M  V30 315 N 29.562 -1.4872 -0.521534 0
M  V30 316 C 30.492 -1.66771 -1.63431 0
M  V30 317 C 31.473 -0.516499 -1.62069 0
M  V30 318 O 32.658 -0.750013 -1.79132 0
M  V30 319 C 29.788 -1.71515 -3.01993 0
M  V30 320 C 28.742 -2.86222 -3.18216 0
M  V30 321 C 28.068 -2.76061 -4.57924 0
M  V30 322 C 29.368 -4.27419 -3.00184 0
M  V30 323 H 31.062 -2.59932 -1.48579 0
M  V30 324 H 28.608 -1.25089 -0.713358 0
M  V30 325 H 30.561 -1.82731 -3.7972 0
M  V30 326 H 29.285 -0.749393 -3.17886 0
M  V30 327 H 27.944 -2.74575 -2.42908 0
M  V30 328 H 27.592 -1.77437 -4.70665 0
M  V30 329 H 27.292 -3.53037 -4.69722 0
M  V30 330 H 28.816 -2.89256 -5.37739 0
M  V30 331 H 30.23 -4.39855 -3.67697 0
M  V30 332 H 28.627 -5.05458 -3.2347 0
M  V30 333 H 29.697 -4.43293 -1.96518 0
M  V30 334 N 31.0401 0.771051 -1.3745 0
M  V30 335 C 32.2891 1.52491 -1.3202 0
M  V30 336 C 32.6021 1.9538 0.0927347 0
M  V30 337 O 33.8081 2.70159 0.269503 0
M  V30 338 C 32.2641 2.75366 -2.31736 0
M  V30 339 C 31.8721 2.39573 -3.78562 0
M  V30 340 C 33.6161 3.53307 -2.35318 0
M  V30 341 C 31.5231 3.58954 -4.70007 0
M  V30 342 H 30.4531 0.572506 -0.490666 0
M  V30 343 H 33.1041 0.844474 -1.62914 0
M  V30 344 H 31.4861 3.45303 -1.93861 0
M  V30 345 H 32.6601 1.77415 -4.25277 0
M  V30 346 H 30.9751 1.74805 -3.77932 0
M  V30 347 H 33.5721 4.42039 -3.00842 0
M  V30 348 H 33.9151 3.93217 -1.36698 0
M  V30 349 H 34.4481 2.90367 -2.71904 0
M  V30 350 H 31.1871 3.24125 -5.69757 0
M  V30 351 H 30.7071 4.20214 -4.27996 0
M  V30 352 H 32.3861 4.25758 -4.87175 0
M  V30 353 N 32.5182 1.22032 0.997298 0
M  V30 354 C 33.4482 1.01065 2.10495 0
M  V30 355 C 34.4292 -0.0669542 1.69968 0
M  V30 356 O 35.6142 0.0943987 1.9397 0
M  V30 357 C 32.7442 0.582874 3.42374 0
M  V30 358 C 31.6982 1.60592 3.96729 0
M  V30 359 C 31.0242 1.03412 5.24605 0
M  V30 360 C 32.3242 2.99478 4.27914 0
M  V30 361 H 34.0182 1.93708 2.28292 0
M  V30 362 H 31.5642 0.932761 1.09707 0
M  V30 363 H 33.5172 0.423332 4.19268 0
M  V30 364 H 32.2412 -0.379213 3.24391 0
M  V30 365 H 30.9002 1.75316 3.21963 0
M  V30 366 H 30.5482 0.063518 5.0296 0
M  V30 367 H 30.2482 1.71754 5.61938 0
M  V30 368 H 31.7722 0.886066 6.04137 0
M  V30 369 H 33.1862 2.88153 4.95622 0
M  V30 370 H 31.5832 3.64903 4.76409 0
M  V30 371 H 32.6532 3.49742 3.3587 0
M  V30 372 N 33.9963 -1.19345 1.0293 0
M  V30 373 C 35.2443 -1.88665 0.724574 0
M  V30 374 C 35.5653 -1.80036 -0.749144 0
M  V30 375 O 34.8353 -1.2111 -1.53978 0
M  V30 376 H 33.4153 -0.698406 0.265025 0
M  V30 377 H 36.0773 -1.44885 1.30362 0
M  V30 378 H 35.1733 -2.94987 1.01926 0
M  V30 379 N 35.4744 -0.807222 -1.35358 0
M  V30 380 C 36.4044 -0.232509 -2.3234 0
M  V30 381 C 37.3854 0.642386 -1.57504 0
M  V30 382 O 38.5704 0.572526 -1.85569 0
M  V30 383 C 35.7004 0.619238 -3.41735 0
M  V30 384 C 34.6544 -0.157215 -4.27711 0
M  V30 385 C 33.9804 0.816273 -5.28433 0
M  V30 386 C 35.2804 -1.35656 -5.04376 0
M  V30 387 H 36.9744 -1.04276 -2.80654 0
M  V30 388 H 34.5204 -0.50288 -1.34934 0
M  V30 389 H 36.4734 1.03137 -4.08584 0
M  V30 390 H 35.1974 1.46239 -2.92031 0
M  V30 391 H 33.8564 -0.550525 -3.62443 0
M  V30 392 H 33.5044 1.65494 -4.74996 0
M  V30 393 H 33.2044 0.301067 -5.86828 0
M  V30 394 H 34.7284 1.22659 -5.98153 0
M  V30 395 H 36.1424 -1.01927 -5.64166 0
M  V30 396 H 34.5394 -1.8063 -5.7227 0
M  V30 397 H 35.6094 -2.14288 -4.34981 0
M  V30 398 N 36.9525 1.47285 -0.560781 0
M  V30 399 C 38.2295 1.9558 0.0277798 0
M  V30 400 C 38.6095 1.5034 1.48192 0
M  V30 401 O 37.9575 0.743882 2.16052 0
M  V30 402 C 38.1675 3.48789 -0.121418 0
M  V30 403 C 39.5155 4.24594 0.0220912 0
M  V30 404 O 40.5395 3.56166 -0.0491439 0
M  V30 405 O 39.3985 5.46217 0.175958 0
M  V30 406 H 36.4925 0.824663 0.0621342 0
M  V30 407 H 39.0385 1.5767 -0.627556 0
M  V30 408 H 37.8105 3.74533 -1.13316 0
M  V30 409 H 37.4335 3.93473 0.571366 0
M  V30 410 N 38.4306 0.297415 1.54768 0
M  V30 411 C 39.6786 -0.312295 1.99673 0
M  V30 412 C 39.9996 -1.54686 1.18732 0
M  V30 413 O 39.2696 -1.93854 0.282382 0
M  V30 414 H 37.8496 -0.118381 0.73756 0
M  V30 415 H 40.5116 0.407915 1.90583 0
M  V30 416 H 39.6076 -0.586813 3.06534 0
M  V30 417 N 39.9087 -1.5758 0.0250728 0
M  V30 418 C 40.8717 -2.08896 -0.943139 0
M  V30 419 C 41.8717 -1.00321 -1.25668 0
M  V30 420 O 43.0617 -1.26495 -1.19769 0
M  V30 421 C 40.1937 -2.55143 -2.26086 0
M  V30 422 H 41.3867 -2.95723 -0.498775 0
M  V30 423 H 38.9397 -1.54703 -0.222888 0
M  V30 424 H 39.6747 -1.71633 -2.75159 0
M  V30 425 H 39.4597 -3.34461 -2.04641 0
M  V30 426 H 40.9497 -2.95083 -2.95492 0
M  V30 427 N 41.3868 0.248026 -1.55636 0
M  V30 428 C 42.6348 0.974295 -1.77065 0
M  V30 429 C 42.9558 1.85897 -0.588849 0
M  V30 430 O 42.2258 1.91868 0.395407 0
M  V30 431 H 40.8058 0.362733 -0.653019 0
M  V30 432 H 43.4678 0.266244 -1.93073 0
M  V30 433 H 42.5638 1.59667 -2.68166 0
M  V30 434 N 42.8649 1.48995 0.513639 0
M  V30 435 C 43.8119 1.6473 1.61656 0
M  V30 436 C 44.7819 0.488984 1.58739 0
M  V30 437 O 45.9669 0.714478 1.76918 0
M  V30 438 C 43.1069 1.7082 2.99858 0
M  V30 439 C 42.2199 2.9787 3.12885 0
M  V30 440 C 41.3549 2.95017 4.41744 0
M  V30 441 C 40.3939 4.16702 4.48359 0
M  V30 442 N 39.5309 4.11832 5.68629 0
M  V30 443 H 44.3709 2.58909 1.47547 0
M  V30 444 H 41.9079 1.28382 0.71808 0
M  V30 445 H 43.8659 1.72331 3.79944 0
M  V30 446 H 42.4959 0.801181 3.12699 0
M  V30 447 H 41.5479 3.06029 2.25944 0
M  V30 448 H 42.8599 3.8786 3.13633 0
M  V30 449 H 42.0139 2.95021 5.30139 0
M  V30 450 H 40.7529 2.02784 4.43542 0
M  V30 451 H 39.7579 4.16955 3.58369 0
M  V30 452 H 40.9829 5.10113 4.48287 0
M  V30 453 H 38.9289 3.22428 5.71293 0
M  V30 454 H 38.8459 4.95543 5.7094 0
M  V30 455 H 40.1139 4.1592 6.59266 0
M  V30 456 N 44.343 -0.763751 1.37857 0
M  V30 457 C 45.571 -1.55293 1.36718 0
M  V30 458 C 45.986 -1.88745 -0.0455434 0
M  V30 459 O 45.343 -1.52039 -1.00947 0
M  V30 460 C 45.394 -2.85831 2.2132 0
M  V30 461 O 45.115 -2.5381 3.57089 0
M  V30 462 C 46.616 -3.80023 2.28249 0
M  V30 463 H 43.836 -0.480841 0.468009 0
M  V30 464 H 46.38 -0.946009 1.81303 0
M  V30 465 H 44.535 -3.42926 1.80223 0
M  V30 466 H 44.949 -3.37459 4.01524 0
M  V30 467 H 46.423 -4.68599 2.91752 0
M  V30 468 H 46.9 -4.1973 1.2932 0
M  V30 469 H 47.506 -3.28855 2.69693 0
M  V30 470 N 45.8211 -1.22559 -0.990812 0
M  V30 471 C 47.0491 -1.07779 -1.76611 0
M  V30 472 C 47.4641 0.371513 -1.85109 0
M  V30 473 O 46.8211 1.25737 -1.32274 0
M  V30 474 C 46.8721 -1.68512 -3.19822 0
M  V30 475 O 46.5931 -3.07774 -3.1178 0
M  V30 476 C 48.0941 -1.59035 -4.13791 0
M  V30 477 H 45.3141 -0.377729 -0.554583 0
M  V30 478 H 47.8581 -1.62195 -1.24551 0
M  V30 479 H 46.0131 -1.18154 -3.68942 0
M  V30 480 H 46.4271 -3.37062 -4.01858 0
M  V30 481 H 47.9011 -2.0625 -5.1202 0
M  V30 482 H 48.3781 -0.547273 -4.35777 0
M  V30 483 H 48.9841 -2.08709 -3.70568 0
M  V30 484 N 47.2992 1.18797 -1.03562 0
M  V30 485 C 48.5482 1.87978 -0.731235 0
M  V30 486 C 48.8612 1.80911 0.743671 0
M  V30 487 O 50.0672 2.45407 1.16137 0
M  V30 488 C 48.5232 3.3721 -1.25768 0
M  V30 489 C 48.1312 3.52818 -2.76085 0
M  V30 490 C 49.8752 4.11825 -1.0296 0
M  V30 491 C 47.7822 4.9598 -3.22114 0
M  V30 492 H 46.7122 0.704063 -0.269835 0
M  V30 493 H 49.3632 1.34266 -1.25079 0
M  V30 494 H 47.7452 3.90359 -0.666011 0
M  V30 495 H 48.9192 3.09965 -3.40966 0
M  V30 496 H 47.2342 2.91602 -2.97249 0
M  V30 497 H 49.8312 5.17411 -1.34869 0
M  V30 498 H 50.1742 4.16287 0.0333546 0
M  V30 499 H 50.7072 3.64833 -1.58562 0
M  V30 500 H 47.4462 4.96684 -4.27768 0
M  V30 501 H 46.9662 5.39569 -2.61965 0
M  V30 502 H 48.6452 5.6467 -3.15844 0
M  V30 503 N 48.7773 0.814389 1.34928 0
M  V30 504 C 49.7073 0.244827 2.32213 0
M  V30 505 C 50.6883 -0.634024 1.57842 0
M  V30 506 O 51.8733 -0.562676 1.8587 0
M  V30 507 C 49.0033 -0.601106 3.42058 0
M  V30 508 C 47.9573 0.179896 4.27622 0
M  V30 509 C 47.2833 -0.788237 5.28858 0
M  V30 510 C 48.5833 1.38329 5.03649 0
M  V30 511 H 50.2773 1.05763 2.80097 0
M  V30 512 H 47.8233 0.510029 1.34665 0
M  V30 513 H 49.7763 -1.00968 4.09125 0
M  V30 514 H 48.5003 -1.44688 2.92802 0
M  V30 515 H 47.1593 0.569739 3.62146 0
M  V30 516 H 46.8073 -1.62973 4.75866 0
M  V30 517 H 46.5073 -0.269942 5.8698 0
M  V30 518 H 48.0313 -1.19485 5.98795 0
M  V30 519 H 49.4453 1.04918 5.63618 0
M  V30 520 H 47.8423 1.83662 5.71304 0
M  V30 521 H 48.9123 2.16592 4.33839 0
M  V30 522 N 50.2554 -1.46986 0.568584 0
M  V30 523 C 51.4854 -2.0653 0.0539173 0
M  V30 524 C 51.8934 -1.42004 -1.25026 0
M  V30 525 O 51.2364 -0.514541 -1.76347 0
M  V30 526 C 51.2984 -3.58938 -0.200854 0
M  V30 527 C 50.9624 -4.45572 1.01559 0
M  V30 528 C 51.9594 -4.82986 1.92407 0
M  V30 529 C 49.6444 -4.8692 1.23346 0
M  V30 530 C 51.6384 -5.60559 3.03402 0
M  V30 531 C 49.3254 -5.64255 2.34649 0
M  V30 532 C 50.3234 -6.00986 3.24507 0
M  V30 533 O 50.0114 -6.76761 4.33878 0
M  V30 534 H 49.7434 -0.674292 0.0480234 0
M  V30 535 H 52.2974 -1.89812 0.784896 0
M  V30 536 H 50.5274 -3.73911 -0.986279 0
M  V30 537 H 52.2164 -4.0046 -0.662294 0
M  V30 538 H 52.9824 -4.51633 1.76785 0
M  V30 539 H 48.8614 -4.57789 0.543178 0
M  V30 540 H 52.4054 -5.89147 3.73565 0
M  V30 541 H 48.3024 -5.95021 2.5024 0
M  V30 542 H 49.0704 -6.95168 4.32068 0
M  V30 543 N 51.7335 -0.305618 -1.54608 0
M  V30 544 C 53.1495 0.0476228 -1.59529 0
M  V30 545 C 53.3495 1.52025 -1.32252 0
M  V30 546 O 52.4055 2.27368 -1.09818 0
M  V30 547 C 53.7185 -0.354471 -2.98603 0
M  V30 548 C 55.2665 -0.303622 -3.11524 0
M  V30 549 C 55.7415 -0.680608 -4.52915 0
M  V30 550 N 57.2325 -0.63332 -4.5885 0
M  V30 551 C 57.9675 -0.897432 -5.66334 0
M  V30 552 N 57.4635 -1.22775 -6.81834 0
M  V30 553 N 59.2565 -0.824186 -5.56025 0
M  V30 554 H 51.4075 -1.2653 -1.70599 0
M  V30 555 H 53.6705 -0.513291 -0.797017 0
M  V30 556 H 53.3765 -1.3798 -3.23503 0
M  V30 557 H 53.2505 0.289568 -3.76087 0
M  V30 558 H 55.6375 0.712472 -2.8637 0
M  V30 559 H 55.7185 -0.982348 -2.36185 0
M  V30 560 H 55.3625 -1.69453 -4.78799 0
M  V30 561 H 55.2925 0.0202385 -5.26596 0
M  V30 562 H 57.7835 -0.389138 -3.75891 0
M  V30 563 H 58.0965 -1.41513 -7.59733 0
M  V30 564 H 56.4415 -1.26583 -6.83375 0
M  V30 565 H 59.6325 -0.565748 -4.64669 0
M  V30 566 H 59.8055 -1.03338 -6.39707 0
M  V30 567 N 53.2116 1.57565 -0.0334293 0
M  V30 568 C 54.1416 2.13511 0.945265 0
M  V30 569 C 55.1226 1.05231 1.33643 0
M  V30 570 O 56.3076 1.33084 1.41429 0
M  V30 571 C 53.4376 2.6657 2.22616 0
M  V30 572 C 52.3916 3.79676 1.97561 0
M  V30 573 C 51.7176 4.1918 3.31952 0
M  V30 574 C 53.0176 5.0557 1.31135 0
M  V30 575 H 54.7116 2.95538 0.479325 0
M  V30 576 H 52.2576 1.42166 0.229115 0
M  V30 577 H 54.2106 3.04344 2.91466 0
M  V30 578 H 52.9346 1.8171 2.71384 0
M  V30 579 H 51.5936 3.42347 1.31127 0
M  V30 580 H 51.2416 3.31296 3.78487 0
M  V30 581 H 50.9416 4.95402 3.15992 0
M  V30 582 H 52.4656 4.59541 4.02063 0
M  V30 583 H 53.8796 5.40903 1.89992 0
M  V30 584 H 52.2766 5.86818 1.25559 0
M  V30 585 H 53.3466 4.84062 0.284894 0
M  V30 586 N 54.6897 -0.239769 1.55765 0
M  V30 587 C 55.6217 -1.32001 1.87372 0
M  V30 588 C 56.6347 -1.43944 0.760522 0
M  V30 589 O 57.8237 -1.45167 1.0387 0
M  V30 590 C 54.9237 -2.69779 2.05115 0
M  V30 591 C 54.0967 -2.80014 3.36022 0
M  V30 592 C 53.1557 -3.98684 3.4342 0
M  V30 593 O 52.1817 -3.87877 4.16582 0
M  V30 594 N 53.3837 -5.12176 2.73232 0
M  V30 595 H 56.1487 -1.0522 2.80622 0
M  V30 596 H 53.7097 -0.429857 1.56089 0
M  V30 597 H 55.7017 -3.47517 2.07399 0
M  V30 598 H 54.2717 -2.89237 1.18577 0
M  V30 599 H 53.4917 -1.88896 3.45994 0
M  V30 600 H 54.7797 -2.83808 4.22292 0
M  V30 601 H 54.1777 -5.2385 2.13536 0
M  V30 602 H 52.7347 -5.88022 2.81199 0
M  V30 603 N 56.1678 -1.49265 -0.50573 0
M  V30 604 C 57.4138 -1.58748 -1.26202 0
M  V30 605 C 57.7468 -0.271227 -1.92297 0
M  V30 606 O 57.0218 0.724831 -1.80489 0
M  V30 607 C 57.3048 -2.74332 -2.33268 0
M  V30 608 C 57.1578 -4.15737 -1.71705 0
M  V30 609 C 58.4768 -2.85576 -3.34865 0
M  V30 610 H 55.5958 -0.577826 -0.457478 0
M  V30 611 H 58.2378 -1.81532 -0.560897 0
M  V30 612 H 56.3878 -2.55036 -2.93068 0
M  V30 613 H 58.0598 -4.46537 -1.15769 0
M  V30 614 H 56.3028 -4.21605 -1.02135 0
M  V30 615 H 56.9738 -4.92477 -2.49341 0
M  V30 616 H 59.4498 -3.03127 -2.8505 0
M  V30 617 H 58.3258 -3.68135 -4.07146 0
M  V30 618 H 58.5868 -1.94732 -3.96903 0
M  V30 619 N 57.6459 0.756429 -1.3826 0
M  V30 620 C 58.8939 1.51248 -1.34047 0
M  V30 621 C 59.2149 1.94875 0.0698372 0
M  V30 622 O 58.4849 1.67436 1.01696 0
M  V30 623 H 57.0649 0.561018 -0.493222 0
M  V30 624 H 59.7269 0.899347 -1.7291 0
M  V30 625 H 58.8229 2.40472 -1.98947 0
M  V30 626 N 59.124 1.23083 0.984299 0
M  V30 627 C 60.034 1.02515 2.11016 0
M  V30 628 C 61.05 -0.0291702 1.73976 0
M  V30 629 O 62.226 0.165434 2.00719 0
M  V30 630 C 59.291 0.614673 3.41208 0
M  V30 631 C 58.352 1.74359 3.92297 0
M  V30 632 C 57.585 1.35261 5.16275 0
M  V30 633 O 57.808 0.235136 5.69915 0
M  V30 634 O 56.742 2.17227 5.61334 0
M  V30 635 H 60.568 1.96862 2.31255 0
M  V30 636 H 58.153 1.01753 1.09392 0
M  V30 637 H 60.035 0.396518 4.1953 0
M  V30 638 H 58.71 -0.299851 3.22308 0
M  V30 639 H 57.617 2.01635 3.1511 0
M  V30 640 H 58.95 2.63629 4.15645 0
M  V30 641 N 60.6021 -1.18246 1.0419 0
M  V30 642 C 61.8481 -1.88536 0.747122 0
M  V30 643 C 62.1811 -1.80223 -0.723409 0
M  V30 644 O 61.4561 -1.20337 -1.52804 0
M  V30 645 C 61.7391 -3.38968 1.21544 0
M  V30 646 C 61.5921 -3.56084 2.74816 0
M  V30 647 C 62.9111 -4.32648 0.806482 0
M  V30 648 H 60.0301 -0.684619 0.272883 0
M  V30 649 H 62.6721 -1.39113 1.29413 0
M  V30 650 H 60.8221 -3.8119 0.750081 0
M  V30 651 H 62.4941 -3.22946 3.29399 0
M  V30 652 H 60.7371 -2.98699 3.14582 0
M  V30 653 H 61.4081 -4.61639 3.02644 0
M  V30 654 H 63.8841 -3.98211 1.20695 0
M  V30 655 H 62.7601 -5.36462 1.1619 0
M  V30 656 H 63.0211 -4.41146 -0.29029 0
M  V30 657 N 62.0802 -0.821533 -1.34494 0
M  V30 658 C 63.3262 -0.409552 -1.98622 0
M  V30 659 C 63.6592 1.0244 -1.64984 0
M  V30 660 O 62.9342 1.71325 -0.920758 0
M  V30 661 C 63.2172 -0.610458 -3.54888 0
M  V30 662 C 63.0702 -2.09043 -3.98273 0
M  V30 663 C 64.3892 -0.0455379 -4.40076 0
M  V30 664 H 61.5082 -0.15028 -0.721516 0
M  V30 665 H 64.1502 -1.03384 -1.59411 0
M  V30 666 H 62.3002 -0.079044 -3.8842 0
M  V30 667 H 63.9722 -2.68537 -3.75081 0
M  V30 668 H 62.2152 -2.58139 -3.48635 0
M  V30 669 H 62.8862 -2.18182 -5.07051 0
M  V30 670 H 65.3622 -0.499557 -4.1309 0
M  V30 671 H 64.2382 -0.215922 -5.48475 0
M  V30 672 H 64.4992 1.04939 -4.29465 0
M  V30 673 N 63.5583 1.46682 -0.576371 0
M  V30 674 C 64.7863 2.06798 -0.0649635 0
M  V30 675 C 65.2013 1.42612 1.23723 0
M  V30 676 O 64.5583 0.529203 1.74659 0
M  V30 677 C 64.6093 3.6132 0.114202 0
M  V30 678 O 64.3303 4.23104 -1.13644 0
M  V30 679 C 65.8313 4.38349 0.66069 0
M  V30 680 H 63.0513 0.668778 -0.0545616 0
M  V30 681 H 65.5953 1.88404 -0.795237 0
M  V30 682 H 63.7503 3.79162 0.794673 0
M  V30 683 H 64.1643 5.15894 -0.946253 0
M  V30 684 H 65.6383 5.47081 0.73526 0
M  V30 685 H 66.1153 4.05953 1.67627 0
M  V30 686 H 66.7213 4.25297 0.0152951 0
M  V30 687 N 65.0364 0.313813 1.54444 0
M  V30 688 C 66.2644 -0.293918 2.04802 0
M  V30 689 C 66.6794 -1.46537 1.19047 0
M  V30 690 O 66.0364 -1.81182 0.218939 0
M  V30 691 C 66.0874 -0.737806 3.53891 0
M  V30 692 O 65.8084 0.387038 4.36387 0
M  V30 693 C 67.3094 -1.40936 4.203 0
M  V30 694 H 64.5294 -0.0620057 0.668129 0
M  V30 695 H 67.0734 0.457169 1.99324 0
M  V30 696 H 65.2284 -1.43889 3.59687 0
M  V30 697 H 65.6424 0.0391274 5.24485 0
M  V30 698 H 67.1164 -1.67099 5.26101 0
M  V30 699 H 67.5934 -2.35355 3.70816 0
M  V30 700 H 68.1994 -0.751117 4.18615 0
M  V30 701 N 66.5145 -1.57545 0.0417849 0
M  V30 702 C 67.7635 -1.91494 -0.633492 0
M  V30 703 C 68.0765 -0.921084 -1.72556 0
M  V30 704 O 69.2825 -1.15228 -2.45835 0
M  V30 705 C 67.7385 -3.40072 -1.17808 0
M  V30 706 C 67.3465 -4.47843 -0.118633 0
M  V30 707 C 69.0905 -3.8307 -1.82915 0
M  V30 708 C 66.9975 -5.87529 -0.675578 0
M  V30 709 H 65.9275 -0.714653 -0.24039 0
M  V30 710 H 68.5785 -1.83175 0.109148 0
M  V30 711 H 66.9605 -3.43364 -1.97274 0
M  V30 712 H 68.1345 -4.56128 0.654494 0
M  V30 713 H 66.4495 -4.14128 0.434414 0
M  V30 714 H 69.0465 -4.84794 -2.25563 0
M  V30 715 H 69.3895 -3.1881 -2.67705 0
M  V30 716 H 69.9225 -3.82255 -1.10119 0
M  V30 717 H 66.6615 -6.55362 0.134475 0
M  V30 718 H 66.1815 -5.82824 -1.4169 0
M  V30 719 H 67.8605 -6.36491 -1.1614 0
M  V30 720 N 67.9926 0.231505 -1.5589 0
M  V30 721 C 69.4036 0.799327 -1.68724 0
M  V30 722 C 69.7546 1.85398 -0.642022 0
M  V30 723 O 68.8796 2.1539 0.208784 0
M  V30 724 C 69.4746 1.45664 -3.05888 0
M  V30 725 C 68.0336 1.97197 -3.20609 0
M  V30 726 C 67.1806 0.828552 -2.64632 0
M  V30 727 H 70.1316 0.00702616 -1.58698 0
M  V30 728 H 70.1526 2.32517 -3.01191 0
M  V30 729 H 69.6646 0.688808 -3.81939 0
M  V30 730 H 67.7656 2.76813 -2.4941 0
M  V30 731 H 67.8786 2.15878 -4.27707 0
M  V30 732 H 66.2426 1.23321 -2.22854 0
M  V30 733 H 67.0256 0.0735544 -3.43221 0
M  V30 734 N 69.4707 1.49531 0.497807 0
M  V30 735 C 70.6987 1.62893 1.27567 0
M  V30 736 C 71.1137 0.301585 1.86376 0
M  V30 737 O 70.4707 -0.713335 1.67982 0
M  V30 738 C 70.5217 2.70013 2.40364 0
M  V30 739 O 70.2427 3.976 1.83972 0
M  V30 740 C 71.7437 2.94109 3.31685 0
M  V30 741 H 68.9637 0.548298 0.386794 0
M  V30 742 H 71.5077 1.95584 0.597245 0
M  V30 743 H 69.6627 2.40092 3.04031 0
M  V30 744 H 70.0767 4.56631 2.58047 0
M  V30 745 H 71.5507 3.72788 4.07104 0
M  V30 746 H 72.0277 2.04147 3.88871 0
M  V30 747 H 72.6337 3.2546 2.73781 0
M  V30 748 N 70.9488 -0.749086 1.3866 0
M  V30 749 C 72.1978 -1.50371 1.3443 0
M  V30 750 C 72.5108 -1.95503 -0.0616397 0
M  V30 751 O 73.7168 -2.70554 -0.226489 0
M  V30 752 C 72.1728 -2.71644 2.36088 0
M  V30 753 C 71.7808 -2.3352 3.82325 0
M  V30 754 C 73.5248 -3.49518 2.40909 0
M  V30 755 C 71.4318 -3.51431 4.75658 0
M  V30 756 H 70.3618 -0.564628 0.499712 0
M  V30 757 H 73.0128 -0.818449 1.64237 0
M  V30 758 H 71.3948 -3.42175 1.9933 0
M  V30 759 H 72.5688 -1.70627 4.28046 0
M  V30 760 H 70.8838 -1.6877 3.80665 0
M  V30 761 H 73.4808 -4.37197 3.07836 0
M  V30 762 H 73.8238 -3.90992 1.42937 0
M  V30 763 H 74.3568 -2.86005 2.76489 0
M  V30 764 H 71.0958 -3.15019 5.74842 0
M  V30 765 H 70.6158 -4.13352 4.34627 0
M  V30 766 H 72.2948 -4.17953 4.93887 0
M  V30 767 N 72.4269 -1.23603 -0.977757 0
M  V30 768 C 73.6749 -1.06759 -1.71601 0
M  V30 769 C 73.9959 0.395929 -1.90938 0
M  V30 770 O 73.2659 1.28356 -1.47992 0
M  V30 771 H 71.8459 -0.392062 -0.635843 0
M  V30 772 H 74.5079 -1.55362 -1.1768 0
M  V30 773 H 73.6039 -1.55763 -2.70452 0
M  V30 774 N 73.905 1.17692 -1.04816 0
M  V30 775 C 75.152 1.87859 -0.75599 0
M  V30 776 C 75.48 1.80812 0.716752 0
M  V30 777 O 74.735 1.20819 1.53952 0
M  V30 778 C 75.034 3.37462 -1.17703 0
M  V30 779 C 74.7 3.64713 -2.65133 0
M  V30 780 C 73.362 3.71859 -3.05408 0
M  V30 781 C 75.714 3.76492 -3.60421 0
M  V30 782 C 73.042 3.88271 -4.39843 0
M  V30 783 C 75.394 3.94421 -4.94585 0
M  V30 784 C 74.058 3.99806 -5.3452 0
M  V30 785 H 73.328 0.687425 -0.276636 0
M  V30 786 H 75.975 1.39255 -1.31455 0
M  V30 787 H 74.28 3.88097 -0.537395 0
M  V30 788 H 75.977 3.90109 -0.928218 0
M  V30 789 H 72.567 3.59772 -2.32942 0
M  V30 790 H 76.751 3.70295 -3.30447 0
M  V30 791 H 72.007 3.90687 -4.70291 0
M  V30 792 H 76.181 4.02477 -5.68318 0
M  V30 793 H 73.808 4.12276 -6.38696 0
M  V30 794 N 75.3831 0.828654 1.34056 0
M  V30 795 C 76.3311 0.242973 2.31327 0
M  V30 796 C 77.3251 -0.61944 1.57668 0
M  V30 797 O 78.5311 -0.51014 1.7262 0
M  V30 798 H 74.9061 0.059834 0.749616 0
M  V30 799 H 76.8771 1.07809 2.78244 0
M  V30 800 C 75.6261 -0.575733 3.429 0
M  V30 801 H 74.9491 0.0785582 3.99723 0
M  V30 802 H 76.3891 -0.951547 4.13185 0
M  V30 803 C 74.8481 -1.75044 2.87856 0
M  V30 804 O 75.3781 -2.84882 2.83205 0
M  V30 805 N 73.5841 -1.56903 2.44602 0
M  V30 806 H 73.1311 -0.675547 2.48584 0
M  V30 807 H 73.0891 -2.35652 2.08124 0
M  V30 808 N 76.8612 -1.46375 0.584142 0
M  V30 809 C 78.1072 -2.02678 0.0703716 0
M  V30 810 C 78.4402 -1.4545 -1.28678 0
M  V30 811 O 77.7152 -0.62014 -1.84349 0
M  V30 812 C 77.9982 -3.60099 0.00614674 0
M  V30 813 C 77.8512 -4.27709 1.3923 0
M  V30 814 C 79.1702 -4.34598 -0.693742 0
M  V30 815 H 76.2892 -0.736504 0.027047 0
M  V30 816 H 78.9312 -1.74501 0.751615 0
M  V30 817 H 77.0812 -3.84236 -0.574009 0
M  V30 818 H 78.7532 -4.14832 2.01773 0
M  V30 819 H 76.9962 -3.87016 1.95962 0
M  V30 820 H 77.6672 -5.36478 1.29982 0
M  V30 821 H 80.1432 -4.15615 -0.200869 0
M  V30 822 H 79.0192 -5.44318 -0.707714 0
M  V30 823 H 79.2802 -4.05759 -1.75533 0
M  V30 824 N 78.3393 -0.321999 -1.54275 0
M  V30 825 C 79.2493 0.553631 -2.27974 0
M  V30 826 C 80.2653 1.13054 -1.32268 0
M  V30 827 O 81.4413 1.15084 -1.6528 0
M  V30 828 C 78.5063 1.69927 -3.02201 0
M  V30 829 C 77.5673 1.15433 -4.1349 0
M  V30 830 C 76.8003 2.24537 -4.84168 0
M  V30 831 O 77.0233 3.44852 -4.5435 0
M  V30 832 O 75.9573 1.90044 -5.7111 0
M  V30 833 H 79.7833 -0.0448345 -3.03667 0
M  V30 834 H 77.3683 -0.0877418 -1.49142 0
M  V30 835 H 79.2503 2.3663 -3.48689 0
M  V30 836 H 77.9253 2.28395 -2.29385 0
M  V30 837 H 76.8323 0.452436 -3.71354 0
M  V30 838 H 78.1653 0.614805 -4.88345 0
M  V30 839 N 79.8174 1.5752 -0.0501392 0
M  V30 840 C 81.0454 1.96963 0.633492 0
M  V30 841 C 81.4604 0.927631 1.6444 0
M  V30 842 O 80.8174 -0.0882665 1.82286 0
M  V30 843 C 80.8684 3.36487 1.32132 0
M  V30 844 O 80.5894 4.36693 0.350894 0
M  V30 845 C 82.0904 3.90682 2.09481 0
M  V30 846 H 79.3104 0.648244 0.173266 0
M  V30 847 H 81.8544 2.0417 -0.116134 0
M  V30 848 H 80.0094 3.30434 2.02218 0
M  V30 849 H 80.4234 5.17702 0.841735 0
M  V30 850 H 81.8974 4.90591 2.5303 0
M  V30 851 H 82.3744 3.26053 2.94255 0
M  V30 852 H 82.9804 4.00069 1.44307 0
M  V30 853 N 81.2955 -0.223234 1.56011 0
M  V30 854 C 82.5415 -0.949279 1.79211 0
M  V30 855 C 82.8745 -1.84054 0.619494 0
M  V30 856 O 82.1495 -1.90726 -0.381317 0
M  V30 857 C 82.4325 -1.78965 3.12479 0
M  V30 858 C 82.2855 -0.924997 4.40186 0
M  V30 859 C 83.6045 -2.76774 3.42175 0
M  V30 860 H 80.7235 -0.343676 0.651963 0
M  V30 861 H 83.3655 -0.218253 1.88742 0
M  V30 862 H 81.5155 -2.41291 3.04485 0
M  V30 863 H 83.1875 -0.318615 4.60198 0
M  V30 864 H 81.4305 -0.230344 4.33188 0
M  V30 865 H 82.1015 -1.54735 5.29869 0
M  V30 866 H 84.5775 -2.24584 3.50287 0
M  V30 867 H 83.4535 -3.32678 4.36597 0
M  V30 868 H 83.7145 -3.54429 2.64258 0
M  V30 869 N 82.7736 -1.49793 -0.48987 0
M  V30 870 C 84.0016 -1.63568 -1.26701 0
M  V30 871 C 84.4166 -0.311465 -1.86213 0
M  V30 872 O 83.7736 0.704416 -1.68357 0
M  V30 873 C 83.8246 -2.71284 -2.38929 0
M  V30 874 O 83.5456 -3.9857 -1.81861 0
M  V30 875 C 85.0466 -2.95864 -3.3012 0
M  V30 876 H 82.2666 -0.550342 -0.383881 0
M  V30 877 H 84.8106 -1.95898 -0.586864 0
M  V30 878 H 82.9656 -2.417 -3.02753 0
M  V30 879 H 83.3796 -4.57993 -2.55622 0
M  V30 880 H 84.8536 -3.74941 -4.05121 0
M  V30 881 H 85.3306 -2.06206 -3.87783 0
M  V30 882 H 85.9366 -3.26907 -2.72051 0
M  V30 883 N 84.2517 0.741722 -1.39055 0
M  V30 884 C 85.4817 1.52876 -1.3897 0
M  V30 885 C 85.8897 1.8919 0.0193266 0
M  V30 886 O 85.2327 1.54138 0.999356 0
M  V30 887 C 85.2947 2.84929 -2.19216 0
M  V30 888 C 84.9587 2.71086 -3.67915 0
M  V30 889 C 85.9557 2.40084 -4.61146 0
M  V30 890 C 83.6407 2.88168 -4.11418 0
M  V30 891 C 85.6347 2.26335 -5.95862 0
M  V30 892 C 83.3217 2.74037 -5.46211 0
M  V30 893 C 84.3197 2.43166 -6.38247 0
M  V30 894 O 84.0077 2.29115 -7.70559 0
M  V30 895 H 83.7397 0.479252 -0.476753 0
M  V30 896 H 86.2937 0.924751 -1.83405 0
M  V30 897 H 84.5237 3.47564 -1.69518 0
M  V30 898 H 86.2127 3.46509 -2.11392 0
M  V30 899 H 86.9787 2.26545 -4.28838 0
M  V30 900 H 82.8577 3.11191 -3.40119 0
M  V30 901 H 86.4017 2.0216 -6.67665 0
M  V30 902 H 82.2987 2.87153 -5.78112 0
M  V30 903 H 83.0667 2.44237 -7.81211 0
M  V30 904 N 85.7298 1.2412 0.971189 0
M  V30 905 C 86.6768 1.0305 2.06517 0
M  V30 906 C 87.6468 -0.0550666 1.66009 0
M  V30 907 O 88.8318 0.0988688 1.90544 0
M  V30 908 C 85.9718 0.637653 3.39158 0
M  V30 909 C 85.0848 1.79633 3.92882 0
M  V30 910 C 84.2198 1.34939 5.13775 0
M  V30 911 C 83.2588 2.47823 5.59687 0
M  V30 912 N 82.3958 2.04022 6.71803 0
M  V30 913 H 87.2358 1.96685 2.23873 0
M  V30 914 H 84.7728 0.979694 1.09729 0
M  V30 915 H 86.7308 0.390931 4.15364 0
M  V30 916 H 85.3608 -0.261693 3.21737 0
M  V30 917 H 84.4128 2.15681 3.13346 0
M  V30 918 H 85.7248 2.64466 4.22918 0
M  V30 919 H 84.8788 1.06134 5.97345 0
M  V30 920 H 83.6178 0.471557 4.85415 0
M  V30 921 H 82.6228 2.77392 4.74693 0
M  V30 922 H 83.8478 3.36158 5.90063 0
M  V30 923 H 81.7938 1.18632 6.45184 0
M  V30 924 H 81.7108 2.82409 7.01271 0
M  V30 925 H 82.9788 1.78347 7.58823 0
M  V30 926 N 87.2079 -1.17134 1.05439 0
M  V30 927 C 88.1559 -2.23289 0.651511 0
M  V30 928 C 89.1499 -1.66186 -0.328411 0
M  V30 929 O 90.3559 -1.78949 -0.194206 0
M  V30 930 H 86.7309 -0.726938 0.192523 0
M  V30 931 H 88.7019 -2.54565 1.55689 0
M  V30 932 C 87.4509 -3.47671 0.0448436 0
M  V30 933 H 86.7739 -3.91918 0.78996 0
M  V30 934 H 88.2139 -4.2353 -0.19964 0
M  V30 935 C 86.6729 -3.14453 -1.20918 0
M  V30 936 O 87.2029 -3.29459 -2.29825 0
M  V30 937 N 85.4089 -2.68657 -1.10779 0
M  V30 938 H 84.9559 -2.56646 -0.221526 0
M  V30 939 H 84.9139 -2.46804 -1.9477 0
M  V30 940 N 88.686 -0.835752 -1.33615 0
M  V30 941 C 89.616 -0.281739 -2.31794 0
M  V30 942 C 90.597 0.608833 -1.58831 0
M  V30 943 O 91.782 0.533035 -1.86741 0
M  V30 944 C 88.912 0.546612 -3.42971 0
M  V30 945 C 87.866 -0.247904 -4.27281 0
M  V30 946 C 87.192 0.704001 -5.30045 0
M  V30 947 C 88.492 -1.46324 -5.01385 0
M  V30 948 H 90.186 -1.10206 -2.78379 0
M  V30 949 H 87.732 -0.531388 -1.33837 0
M  V30 950 H 89.685 0.944467 -4.1068 0
M  V30 951 H 88.409 1.40011 -2.95067 0
M  V30 952 H 87.068 -0.627281 -3.61194 0
M  V30 953 H 86.716 1.55381 -4.78399 0
M  V30 954 H 86.416 0.176524 -5.87335 0
M  V30 955 H 87.94 1.09944 -6.0062 0
M  V30 956 H 89.354 -1.13871 -5.61877 0
M  V30 957 H 87.751 -1.92728 -5.6831 0
M  V30 958 H 88.821 -2.23467 -4.30338 0
M  V30 959 N 90.1641 1.46063 -0.591896 0
M  V30 960 C 91.1111 2.30399 0.136069 0
M  V30 961 C 92.0811 1.41169 0.875238 0
M  V30 962 O 93.2661 1.70112 0.86409 0
M  V30 963 C 90.4061 3.25804 1.13781 0
M  V30 964 C 89.5191 4.30134 0.401137 0
M  V30 965 C 88.6541 5.12659 1.39121 0
M  V30 966 C 87.6931 6.0873 0.641462 0
M  V30 967 N 86.8301 6.8409 1.58004 0
M  V30 968 H 91.6701 2.92118 -0.589144 0
M  V30 969 H 89.2071 1.43959 -0.302342 0
M  V30 970 H 91.1651 3.79569 1.73156 0
M  V30 971 H 89.7951 2.65872 1.83062 0
M  V30 972 H 88.8471 3.79152 -0.307826 0
M  V30 973 H 90.1591 4.98458 -0.184565 0
M  V30 974 H 89.3131 5.70747 2.05749 0
M  V30 975 H 88.0521 4.44316 2.01084 0
M  V30 976 H 87.0571 5.49786 -0.0385419 0
M  V30 977 H 88.2821 6.79095 0.0270945 0
M  V30 978 H 86.2281 6.18449 2.18761 0
M  V30 979 H 86.1451 7.48709 1.04738 0
M  V30 980 H 87.4131 7.4673 2.23639 0
M  V30 981 N 91.6422 0.330177 1.54103 0
M  V30 982 C 92.8892 -0.270405 2.00686 0
M  V30 983 C 93.2172 -1.51621 1.21825 0
M  V30 984 O 92.4722 -1.93536 0.29025 0
M  V30 985 C 92.7712 -0.643134 3.51566 0
M  V30 986 C 92.4372 0.504251 4.48072 0
M  V30 987 C 91.0992 0.819163 4.74176 0
M  V30 988 C 93.4512 1.27465 5.05373 0
M  V30 989 C 90.7792 1.90708 5.5484 0
M  V30 990 C 93.1312 2.35271 5.87223 0
M  V30 991 C 91.7952 2.67336 6.11627 0
M  V30 992 H 91.0652 -0.0989482 0.734364 0
M  V30 993 H 93.7122 0.455324 1.86008 0
M  V30 994 H 92.0172 -1.44938 3.64006 0
M  V30 995 H 93.7142 -1.11949 3.85056 0
M  V30 996 H 90.3042 0.248733 4.27878 0
M  V30 997 H 94.4882 1.04462 4.85182 0
M  V30 998 H 89.7442 2.15991 5.71977 0
M  V30 999 H 93.9182 2.95405 6.30641 0
M  V30 1000 H 91.5452 3.51763 6.73919 0
M  V30 1001 N 93.1203 -1.57491 0.0584922 0
M  V30 1002 C 94.0523 -2.08916 -0.942694 0
M  V30 1003 C 95.0653 -1.0185 -1.27006 0
M  V30 1004 O 96.2543 -1.29398 -1.22957 0
M  V30 1005 C 93.3543 -2.52341 -2.26224 0
M  V30 1006 C 92.5273 -3.82827 -2.1157 0
M  V30 1007 C 91.5863 -4.12487 -3.26712 0
M  V30 1008 O 90.6123 -4.82295 -3.02292 0
M  V30 1009 N 91.8143 -3.64978 -4.5141 0
M  V30 1010 H 94.5793 -2.95437 -0.503722 0
M  V30 1011 H 92.1403 -1.61397 -0.12757 0
M  V30 1012 H 94.1323 -2.69254 -3.02133 0
M  V30 1013 H 92.7023 -1.7103 -2.61663 0
M  V30 1014 H 91.9223 -3.75425 -1.20208 0
M  V30 1015 H 93.2103 -4.68263 -1.99015 0
M  V30 1016 H 92.6083 -3.08558 -4.7414 0
M  V30 1017 H 91.1653 -3.87115 -5.2439 0
M  V30 1018 N 94.5984 0.214957 -1.56127 0
M  V30 1019 C 95.8444 0.939762 -1.79712 0
M  V30 1020 C 96.1774 1.83723 -0.629247 0
M  V30 1021 O 95.4524 1.90925 0.371197 0
M  V30 1022 C 95.7354 1.77306 -3.13424 0
M  V30 1023 C 95.5884 0.90164 -4.40671 0
M  V30 1024 C 96.9074 2.74956 -3.43638 0
M  V30 1025 H 94.0264 0.340214 -0.653776 0
M  V30 1026 H 96.6684 0.20824 -1.88855 0
M  V30 1027 H 94.8184 2.39673 -3.0576 0
M  V30 1028 H 96.4904 0.294206 -4.60361 0
M  V30 1029 H 94.7334 0.207368 -4.33304 0
M  V30 1030 H 95.4044 1.51923 -5.30682 0
M  V30 1031 H 97.8804 2.22724 -3.51473 0
M  V30 1032 H 96.7564 3.30358 -4.38355 0
M  V30 1033 H 97.0174 3.53023 -2.66134 0
M  V30 1034 N 96.0765 1.50051 0.48192 0
M  V30 1035 C 97.3225 1.61706 1.2338 0
M  V30 1036 C 97.6775 0.308488 1.89911 0
M  V30 1037 O 96.9705 -0.692798 1.78636 0
M  V30 1038 C 97.1645 2.72717 2.30998 0
M  V30 1039 C 96.9935 4.14242 1.75024 0
M  V30 1040 C 95.7635 4.80786 1.55476 0
M  V30 1041 C 97.9615 4.98846 1.25128 0
M  V30 1042 N 95.9435 6.06563 0.946311 0
M  V30 1043 C 97.3145 6.15258 0.765382 0
M  V30 1044 C 99.3695 4.84702 1.13881 0
M  V30 1045 C 98.0725 7.19079 0.178113 0
M  V30 1046 C 100.098 5.8869 0.565486 0
M  V30 1047 C 99.4605 7.04343 0.0899105 0
M  V30 1048 H 95.5595 0.645958 0.440753 0
M  V30 1049 H 98.1435 1.8713 0.537624 0
M  V30 1050 H 96.3145 2.49033 2.98055 0
M  V30 1051 H 98.0465 2.73789 2.9803 0
M  V30 1052 H 94.8015 4.37899 1.80392 0
M  V30 1053 H 95.2255 6.73767 0.660812 0
M  V30 1054 H 99.8675 3.95583 1.49244 0
M  V30 1055 H 97.5855 8.07882 -0.187749 0
M  V30 1056 H 101.171 5.79808 0.480974 0
M  V30 1057 H 100.051 7.83433 -0.346782 0
M  V30 1058 N 97.5546 -0.734337 1.39446 0
M  V30 1059 C 98.8316 -1.48579 1.27215 0
M  V30 1060 C 99.2116 -2.1077 -0.117968 0
M  V30 1061 O 98.5596 -1.98646 -1.12924 0
M  V30 1062 C 98.7696 -2.53667 2.39696 0
M  V30 1063 C 100.118 -3.20031 2.79044 0
M  V30 1064 O 101.142 -2.6398 2.39151 0
M  V30 1065 O 100.001 -4.21455 3.47905 0
M  V30 1066 H 97.0946 -0.659816 0.49857 0
M  V30 1067 H 99.6406 -0.768106 1.51322 0
M  V30 1068 H 98.4126 -2.06096 3.32626 0
M  V30 1069 H 98.0356 -3.32994 2.17258 0
M  V30 1070 N 99.0327 -1.24633 -0.964593 0
M  V30 1071 C 99.9627 -1.06611 -2.07741 0
M  V30 1072 C 100.944 0.0218666 -1.70086 0
M  V30 1073 O 102.129 -0.145793 -1.93652 0
M  V30 1074 C 99.2587 -0.673444 -3.40708 0
M  V30 1075 C 98.2127 -1.71054 -3.92332 0
M  V30 1076 C 97.5387 -1.17285 -5.21678 0
M  V30 1077 C 98.8387 -3.10718 -4.19824 0
M  V30 1078 H 100.533 -1.99693 -2.23076 0
M  V30 1079 H 98.0787 -0.96152 -1.07195 0
M  V30 1080 H 100.032 -0.534345 -4.17998 0
M  V30 1081 H 98.7557 0.293073 -3.25282 0
M  V30 1082 H 97.4147 -1.83791 -3.17201 0
M  V30 1083 H 97.0627 -0.196847 -5.02615 0
M  V30 1084 H 96.7627 -1.86592 -5.57187 0
M  V30 1085 H 98.2867 -1.04593 -6.01575 0
M  V30 1086 H 99.7007 -3.01192 -4.87808 0
M  V30 1087 H 98.0977 -3.77406 -4.66567 0
M  V30 1088 H 99.1677 -3.58524 -3.26479 0
M  V30 1089 N 100.511 1.16574 -1.06058 0
M  V30 1090 C 101.759 1.86677 -0.77434 0
M  V30 1091 C 102.08 1.81959 0.701147 0
M  V30 1092 O 101.35 1.2515 1.50713 0
M  V30 1093 H 99.9298 0.691134 -0.283449 0
M  V30 1094 H 102.592 1.41378 -1.34158 0
M  V30 1095 H 101.688 2.92181 -1.09711 0
M  V30 1096 N 101.989 0.842826 1.3317 0
M  V30 1097 C 103.237 0.439577 1.97262 0
M  V30 1098 C 103.558 -1.00548 1.67078 0
M  V30 1099 O 102.828 -1.70098 0.971779 0
M  V30 1100 H 101.408 0.159558 0.72976 0
M  V30 1101 H 104.07 1.07665 1.62463 0
M  V30 1102 H 103.166 0.574886 3.0676 0
M  V30 1103 N 103.467 -1.45747 0.599634 0
M  V30 1104 C 104.399 -2.28628 -0.161879 0
M  V30 1105 C 105.412 -1.39494 -0.839367 0
M  V30 1106 O 106.601 -1.63941 -0.706089 0
M  V30 1107 C 103.701 -3.15014 -1.24976 0
M  V30 1108 C 102.874 -4.32378 -0.660935 0
M  V30 1109 C 101.933 -5.00033 -1.63869 0
M  V30 1110 O 100.959 -5.57085 -1.1681 0
M  V30 1111 N 102.161 -4.98589 -2.97303 0
M  V30 1112 H 104.926 -2.94624 0.549265 0
M  V30 1113 H 102.487 -1.55847 0.438565 0
M  V30 1114 H 104.479 -3.5714 -1.9035 0
M  V30 1115 H 103.049 -2.5098 -1.86354 0
M  V30 1116 H 102.269 -3.9383 0.170688 0
M  V30 1117 H 103.557 -5.08197 -0.247619 0
M  V30 1118 H 102.955 -4.53514 -3.38145 0
M  V30 1119 H 101.512 -5.44603 -3.58121 0
M  V30 1120 N 104.945 -0.338344 -1.53925 0
M  V30 1121 C 106.173 0.261298 -2.05243 0
M  V30 1122 C 106.588 1.44625 -1.21363 0
M  V30 1123 O 105.945 1.80811 -0.247736 0
M  V30 1124 C 105.996 0.681412 -3.5502 0
M  V30 1125 O 105.717 -0.456414 -4.35716 0
M  V30 1126 C 107.218 1.34232 -4.22489 0
M  V30 1127 H 104.438 0.0513685 -0.669031 0
M  V30 1128 H 106.982 -0.488822 -1.98572 0
M  V30 1129 H 105.137 1.38148 -3.61931 0
M  V30 1130 H 105.551 -0.122564 -5.24357 0
M  V30 1131 H 107.025 1.58708 -5.28693 0
M  V30 1132 H 107.502 2.29426 -3.74514 0
M  V30 1133 H 108.108 0.684424 -4.19757 0
M  V30 1134 N 106.423 1.57458 -0.0668435 0
M  V30 1135 C 107.648 1.9804 0.616027 0
M  V30 1136 C 108.073 0.944771 1.62652 0
M  V30 1137 O 107.431 -0.0902094 1.81075 0
M  V30 1138 C 107.479 3.37665 1.26549 0
M  V30 1139 O 106.583 3.36701 2.38131 0
M  V30 1140 H 105.924 0.644719 0.158849 0
M  V30 1141 H 108.454 2.04121 -0.139891 0
M  V30 1142 H 108.464 3.7474 1.6135 0
M  V30 1143 H 107.139 4.12573 0.525016 0
M  V30 1144 H 105.716 3.1139 2.0516 0
M  V30 1145 N 107.901 -0.206675 1.56239 0
M  V30 1146 C 109.15 -0.926964 1.79138 0
M  V30 1147 C 109.463 -1.84901 0.638043 0
M  V30 1148 O 110.669 -2.60906 0.751033 0
M  V30 1149 C 109.125 -1.6986 3.17294 0
M  V30 1150 C 108.733 -0.821956 4.40395 0
M  V30 1151 C 110.477 -2.40922 3.4951 0
M  V30 1152 C 108.384 -1.59179 5.69575 0
M  V30 1153 H 107.314 -0.349864 0.667915 0
M  V30 1154 H 109.965 -0.180487 1.8261 0
M  V30 1155 H 108.347 -2.48853 3.08039 0
M  V30 1156 H 109.521 -0.0715019 4.60745 0
M  V30 1157 H 107.836 -0.222741 4.15804 0
M  V30 1158 H 110.433 -2.99047 4.43255 0
M  V30 1159 H 110.776 -3.14542 2.72707 0
M  V30 1160 H 111.309 -1.68905 3.60161 0
M  V30 1161 H 108.048 -0.898589 6.49312 0
M  V30 1162 H 107.568 -2.31648 5.53262 0
M  V30 1163 H 109.247 -2.14862 6.10281 0
M  V30 1164 N 109.379 -1.50304 -0.473955 0
M  V30 1165 C 110.795 -1.37667 -0.807466 0
M  V30 1166 C 110.995 -0.430555 -1.96846 0
M  V30 1167 O 110.051 0.127874 -2.52176 0
M  V30 1168 C 111.364 -2.78974 -1.12223 0
M  V30 1169 C 112.912 -2.87868 -1.22885 0
M  V30 1170 C 113.387 -4.30003 -1.57676 0
M  V30 1171 N 114.878 -4.3294 -1.64673 0
M  V30 1172 C 115.613 -5.3991 -1.93091 0
M  V30 1173 N 115.109 -6.57092 -2.1955 0
M  V30 1174 N 116.902 -5.27351 -1.94569 0
M  V30 1175 H 109.053 -2.10394 0.291212 0
M  V30 1176 H 111.316 -0.945575 0.0677609 0
M  V30 1177 H 111.022 -3.50031 -0.342229 0
M  V30 1178 H 110.896 -3.16038 -2.05913 0
M  V30 1179 H 113.283 -2.17032 -1.99953 0
M  V30 1180 H 113.364 -2.54352 -0.271814 0
M  V30 1181 H 113.008 -5.01375 -0.81149 0
M  V30 1182 H 112.938 -4.61004 -2.54525 0
M  V30 1183 H 115.429 -3.48441 -1.46277 0
M  V30 1184 H 115.742 -7.34425 -2.405 0
M  V30 1185 H 114.087 -6.60272 -2.16948 0
M  V30 1186 H 117.278 -4.34801 -1.73394 0
M  V30 1187 H 117.451 -6.10805 -2.16381 0
M  V30 1188 N 110.857 0.726932 -1.39834 0
M  V30 1189 C 112.268 1.30558 -1.3346 0
M  V30 1190 C 112.619 1.962 -0.00273003 0
M  V30 1191 O 111.744 1.96826 0.899371 0
M  V30 1192 C 112.339 2.37404 -2.41713 0
M  V30 1193 C 110.898 2.90921 -2.38835 0
M  V30 1194 C 110.045 1.64578 -2.2318 0
M  V30 1195 H 112.996 0.523862 -1.49804 0
M  V30 1196 H 113.017 3.17984 -2.08966 0
M  V30 1197 H 112.529 1.89599 -3.38635 0
M  V30 1198 H 110.63 3.42985 -1.45575 0
M  V30 1199 H 110.743 3.43487 -3.33997 0
M  V30 1200 H 109.107 1.89219 -1.70494 0
M  V30 1201 H 109.89 1.18814 -3.22084 0
M  V30 1202 N 112.336 1.25143 0.95797 0
M  V30 1203 C 113.566 1.12261 1.73439 0
M  V30 1204 C 113.974 -0.326715 1.86358 0
M  V30 1205 O 113.317 -1.2367 1.35836 0
M  V30 1206 C 113.379 1.69966 3.16784 0
M  V30 1207 C 113.043 3.18936 3.27305 0
M  V30 1208 C 114.04 4.15968 3.11877 0
M  V30 1209 C 111.725 3.59083 3.51234 0
M  V30 1210 C 113.719 5.51126 3.20217 0
M  V30 1211 C 111.406 4.9438 3.5921 0
M  V30 1212 C 112.404 5.90211 3.43716 0
M  V30 1213 O 112.092 7.23046 3.51368 0
M  V30 1214 H 111.824 0.392476 0.550399 0
M  V30 1215 H 114.378 1.65927 1.21068 0
M  V30 1216 H 112.608 1.10744 3.70503 0
M  V30 1217 H 114.297 1.52232 3.76272 0
M  V30 1218 H 115.063 3.86292 2.93264 0
M  V30 1219 H 110.942 2.84989 3.62356 0
M  V30 1220 H 114.486 6.25905 3.0804 0
M  V30 1221 H 110.383 5.23723 3.77339 0
M  V30 1222 H 111.151 7.31097 3.6802 0
M  V30 1223 N 113.814 -1.1601 1.06675 0
M  V30 1224 C 115.06 -1.87145 0.796766 0
M  V30 1225 C 115.415 -1.8037 -0.669658 0
M  V30 1226 O 114.708 -1.21116 -1.48463 0
M  V30 1227 C 114.902 -3.35547 1.23057 0
M  V30 1228 C 114.731 -3.56769 2.73762 0
M  V30 1229 C 113.501 -3.72635 3.41279 0
M  V30 1230 C 115.699 -3.55166 3.7197 0
M  V30 1231 N 113.681 -3.81845 4.80695 0
M  V30 1232 C 115.052 -3.70406 4.97191 0
M  V30 1233 C 117.107 -3.384 3.65226 0
M  V30 1234 C 115.81 -3.70615 6.16471 0
M  V30 1235 C 117.836 -3.39904 4.83962 0
M  V30 1236 C 117.198 -3.55667 6.08013 0
M  V30 1237 H 113.297 -0.702267 0.344014 0
M  V30 1238 H 115.881 -1.39165 1.36166 0
M  V30 1239 H 114.052 -3.82159 0.693456 0
M  V30 1240 H 115.784 -3.94363 0.908844 0
M  V30 1241 H 112.539 -3.73121 2.91681 0
M  V30 1242 H 112.963 -3.90209 5.53232 0
M  V30 1243 H 117.605 -3.25138 2.70269 0
M  V30 1244 H 115.323 -3.82658 7.11757 0
M  V30 1245 H 118.909 -3.28169 4.80413 0
M  V30 1246 H 117.789 -3.56755 6.98352 0
M  V30 1247 N 115.292 -0.849877 -1.32721 0
M  V30 1248 C 116.708 -0.539102 -1.50219 0
M  V30 1249 C 116.908 0.931271 -1.78689 0
M  V30 1250 O 115.964 1.71455 -1.85363 0
M  V30 1251 C 117.277 -1.42196 -2.64954 0
M  V30 1252 C 118.825 -1.42189 -2.78839 0
M  V30 1253 C 119.3 -2.28985 -3.96648 0
M  V30 1254 N 120.791 -2.26754 -4.03902 0
M  V30 1255 C 121.526 -2.90644 -4.94281 0
M  V30 1256 N 121.022 -3.63629 -5.897 0
M  V30 1257 N 122.815 -2.80057 -4.87365 0
M  V30 1258 H 114.966 -1.80156 -1.12506 0
M  V30 1259 H 117.229 -0.769217 -0.554085 0
M  V30 1260 H 116.935 -2.46733 -2.50631 0
M  V30 1261 H 116.809 -1.10591 -3.60624 0
M  V30 1262 H 119.196 -0.38419 -2.92588 0
M  V30 1263 H 119.277 -1.77807 -1.83898 0
M  V30 1264 H 118.921 -3.32819 -3.83658 0
M  V30 1265 H 118.851 -1.90702 -4.90857 0
M  V30 1266 H 121.342 -1.73688 -3.3562 0
M  V30 1267 H 121.655 -4.09558 -6.55349 0
M  V30 1268 H 120 -3.67737 -5.89741 0
M  V30 1269 H 123.191 -2.22593 -4.11789 0
M  V30 1270 H 123.364 -3.30132 -5.57599 0
M  V30 1271 N 116.77 1.45427 -0.607355 0
M  V30 1272 C 118.01 2.04128 -0.105458 0
M  V30 1273 C 118.374 1.46555 1.24039 0
M  V30 1274 O 119.575 1.96608 1.833 0
M  V30 1275 C 117.846 3.57338 -0.0665324 0
M  V30 1276 S 119.405 4.37201 0.374207 0
M  V30 1277 H 116.223 0.709278 -0.0494575 0
M  V30 1278 H 118.825 1.78139 -0.805404 0
M  V30 1279 H 117.529 3.96752 -1.04957 0
M  V30 1280 H 117.06 3.87902 0.655415 0
M  V30 1281 H 119.075 4.6888 1.62377 0
M  V30 1282 N 118.248 0.346503 1.53744 0
M  V30 1283 C 119.478 -0.250047 2.05081 0
M  V30 1284 C 119.886 -1.44529 1.22098 0
M  V30 1285 O 119.229 -1.81992 0.249917 0
M  V30 1286 C 119.291 -0.725934 3.52094 0
M  V30 1287 C 118.955 0.350053 4.55657 0
M  V30 1288 C 119.952 1.19372 5.0601 0
M  V30 1289 C 117.637 0.504827 4.99757 0
M  V30 1290 C 119.631 2.17768 5.99046 0
M  V30 1291 C 117.318 1.49218 5.92602 0
M  V30 1292 C 118.316 2.32706 6.42135 0
M  V30 1293 O 118.004 3.2976 7.33153 0
M  V30 1294 H 117.736 -0.0515469 0.674032 0
M  V30 1295 H 120.29 0.497559 1.99282 0
M  V30 1296 H 118.52 -1.52483 3.55367 0
M  V30 1297 H 120.209 -1.24336 3.86388 0
M  V30 1298 H 120.975 1.08525 4.72702 0
M  V30 1299 H 116.854 -0.135178 4.60802 0
M  V30 1300 H 120.398 2.82971 6.37631 0
M  V30 1301 H 116.295 1.6012 6.25325 0
M  V30 1302 H 117.063 3.25265 7.51096 0
M  V30 1303 N 119.726 -1.57421 0.075193 0
M  V30 1304 C 120.956 -1.97659 -0.601203 0
M  V30 1305 C 121.364 -0.952427 -1.63479 0
M  V30 1306 O 120.707 0.0688241 -1.83571 0
M  V30 1307 C 120.769 -3.34218 -1.32434 0
M  V30 1308 C 120.433 -4.5484 -0.443826 0
M  V30 1309 C 121.43 -5.19034 0.299969 0
M  V30 1310 C 119.115 -5.00952 -0.367709 0
M  V30 1311 C 121.109 -6.27695 1.10807 0
M  V30 1312 C 118.796 -6.09484 0.444058 0
M  V30 1313 C 119.794 -6.72719 1.18061 0
M  V30 1314 O 119.482 -7.79161 1.97898 0
M  V30 1315 H 119.214 -0.65494 -0.167422 0
M  V30 1316 H 121.768 -2.04886 0.145157 0
M  V30 1317 H 119.998 -3.23615 -2.11685 0
M  V30 1318 H 121.687 -3.59038 -1.89331 0
M  V30 1319 H 122.453 -4.84351 0.250776 0
M  V30 1320 H 118.332 -4.51509 -0.930638 0
M  V30 1321 H 121.876 -6.76982 1.68347 0
M  V30 1322 H 117.773 -6.43601 0.494803 0
M  V30 1323 H 118.541 -7.96055 1.90367 0
M  V30 1324 N 121.204 0.198386 -1.56346 0
M  V30 1325 C 122.429 0.939682 -1.84891 0
M  V30 1326 C 122.854 1.76202 -0.658369 0
M  V30 1327 O 122.212 1.76993 0.392851 0
M  V30 1328 C 122.26 1.81428 -3.11635 0
M  V30 1329 O 121.364 2.91265 -2.91956 0
M  V30 1330 H 120.705 0.264807 -0.608912 0
M  V30 1331 H 123.235 0.204695 -2.03573 0
M  V30 1332 H 123.245 2.21958 -3.42343 0
M  V30 1333 H 121.92 1.21004 -3.97908 0
M  V30 1334 H 120.497 2.54514 -2.72538 0
M  V30 1335 N 122.682 1.50554 0.465978 0
M  V30 1336 C 123.63 1.70324 1.58406 0
M  V30 1337 C 124.624 0.569139 1.59553 0
M  V30 1338 O 125.83 0.749776 1.63641 0
M  V30 1339 H 122.205 0.537688 0.525734 0
M  V30 1340 H 124.176 2.64104 1.38894 0
M  V30 1341 C 122.925 1.81928 2.96307 0
M  V30 1342 H 122.248 2.68586 2.96144 0
M  V30 1343 H 123.688 1.99784 3.73982 0
M  V30 1344 C 122.147 0.572095 3.32007 0
M  V30 1345 O 122.677 -0.286416 4.00678 0
M  V30 1346 N 120.883 0.424606 2.87481 0
M  V30 1347 H 120.43 1.12427 2.31771 0
M  V30 1348 H 120.388 -0.408697 3.11732 0
M  V30 1349 N 124.16 -0.719506 1.40217 0
M  V30 1350 C 125.388 -1.50864 1.41589 0
M  V30 1351 C 125.803 -1.88794 0.0145275 0
M  V30 1352 O 125.16 -1.55174 -0.960594 0
M  V30 1353 C 125.211 -2.78646 2.30302 0
M  V30 1354 O 124.932 -2.42321 3.64983 0
M  V30 1355 C 126.433 -3.72569 2.40224 0
M  V30 1356 H 123.653 -0.465709 0.48307 0
M  V30 1357 H 126.197 -0.88785 1.84221 0
M  V30 1358 H 124.352 -3.37019 1.91042 0
M  V30 1359 H 124.766 -3.24514 4.12057 0
M  V30 1360 H 126.24 -4.5908 3.06512 0
M  V30 1361 H 126.717 -4.15403 1.42608 0
M  V30 1362 H 127.323 -3.20109 2.80019 0
M  V30 1363 N 125.638 -1.25649 -0.95132 0
M  V30 1364 C 126.915 -1.01361 -1.67288 0
M  V30 1365 C 127.295 0.459135 -2.06046 0
M  V30 1366 O 126.643 1.43723 -1.7764 0
M  V30 1367 C 126.853 -1.95256 -2.89268 0
M  V30 1368 C 128.201 -2.23289 -3.61147 0
M  V30 1369 O 129.225 -1.93041 -2.99355 0
M  V30 1370 O 128.084 -2.74741 -4.72419 0
M  V30 1371 H 125.178 -0.38464 -0.732107 0
M  V30 1372 H 127.724 -1.36817 -1.00395 0
M  V30 1373 H 126.496 -2.94685 -2.57442 0
M  V30 1374 H 126.119 -1.60218 -3.6389 0
M  V30 1375 N 127.117 1.15442 -1.07289 0
M  V30 1376 C 128.08 2.18358 -0.696591 0
M  V30 1377 C 129.08 1.58637 0.262837 0
M  V30 1378 O 130.27 1.74145 0.0438809 0
M  V30 1379 C 127.402 3.4089 -0.0266151 0
M  V30 1380 H 128.595 2.53162 -1.60776 0
M  V30 1381 H 126.148 1.29893 -0.869342 0
M  V30 1382 H 126.883 3.11653 0.896822 0
M  V30 1383 H 126.668 3.85495 -0.716657 0
M  V30 1384 H 128.158 4.17009 0.222028 0
M  V30 1385 N 128.595 0.856903 1.32268 0
M  V30 1386 C 129.841 0.462069 1.97466 0
M  V30 1387 C 130.174 -0.980298 1.67642 0
M  V30 1388 O 129.449 -1.68824 0.965858 0
M  V30 1389 C 129.732 0.704336 3.53145 0
M  V30 1390 C 129.585 2.19529 3.9259 0
M  V30 1391 C 130.904 0.1622 4.39801 0
M  V30 1392 H 128.023 0.169357 0.717278 0
M  V30 1393 H 130.665 1.07574 1.56614 0
M  V30 1394 H 128.815 0.181999 3.88073 0
M  V30 1395 H 130.487 2.78387 3.67829 0
M  V30 1396 H 128.73 2.67292 3.41668 0
M  V30 1397 H 129.401 2.31549 5.01088 0
M  V30 1398 H 131.877 0.608905 4.11621 0
M  V30 1399 H 130.753 0.361265 5.4771 0
M  V30 1400 H 131.014 -0.935158 4.32096 0
M  V30 1401 N 130.073 -1.45103 0.615059 0
M  V30 1402 C 131.322 -2.01396 0.110718 0
M  V30 1403 C 131.635 -1.48834 -1.26916 0
M  V30 1404 O 132.841 -1.97152 -1.86664 0
M  V30 1405 C 131.297 -3.59599 0.14723 0
M  V30 1406 C 130.905 -4.21158 1.52743 0
M  V30 1407 C 132.649 -4.23428 -0.30148 0
M  V30 1408 C 130.556 -5.71535 1.51992 0
M  V30 1409 H 129.486 -0.753061 0.0376241 0
M  V30 1410 H 132.137 -1.66494 0.77149 0
M  V30 1411 H 130.519 -3.91724 -0.580339 0
M  V30 1412 H 131.693 -4.00594 2.2773 0
M  V30 1413 H 130.008 -3.69552 1.91886 0
M  V30 1414 H 132.605 -5.33703 -0.326392 0
M  V30 1415 H 132.948 -3.94629 -1.32565 0
M  V30 1416 H 133.481 -3.96047 0.373065 0
M  V30 1417 H 130.22 -6.05044 2.52193 0
M  V30 1418 H 129.74 -5.94268 0.81274 0
M  V30 1419 H 131.419 -6.34873 1.24681 0
M  V30 1420 N 131.551 -0.354651 -1.53558 0
M  V30 1421 C 132.781 0.239167 -2.05211 0
M  V30 1422 C 133.189 1.43879 -1.22863 0
M  V30 1423 O 132.532 1.81857 -0.259565 0
M  V30 1424 C 132.594 0.707251 -3.52474 0
M  V30 1425 C 132.258 -0.374212 -4.55465 0
M  V30 1426 C 133.255 -1.22054 -5.0537 0
M  V30 1427 C 130.94 -0.531323 -4.99482 0
M  V30 1428 C 132.934 -2.20942 -5.97882 0
M  V30 1429 C 130.621 -1.52358 -5.91802 0
M  V30 1430 C 131.619 -2.36108 -6.40892 0
M  V30 1431 O 131.307 -3.33643 -7.31394 0
M  V30 1432 H 131.039 0.0479716 -0.674296 0
M  V30 1433 H 133.593 -0.508121 -1.99016 0
M  V30 1434 H 131.823 1.50596 -3.56171 0
M  V30 1435 H 133.512 1.22285 -3.87042 0
M  V30 1436 H 134.278 -1.1103 -4.7212 0
M  V30 1437 H 130.157 0.110738 -4.60867 0
M  V30 1438 H 133.701 -2.86348 -6.36121 0
M  V30 1439 H 129.598 -1.63434 -6.24467 0
M  V30 1440 H 130.366 -3.29244 -7.4936 0
M  V30 1441 N 133.029 1.57378 -0.0835403 0
M  V30 1442 C 134.275 1.94217 0.583733 0
M  V30 1443 C 134.608 0.964653 1.68547 0
M  V30 1444 O 133.883 -0.00422258 1.945 0
M  V30 1445 C 134.166 3.41253 1.14972 0
M  V30 1446 C 134.019 4.49768 0.0538277 0
M  V30 1447 C 135.338 3.89352 2.05166 0
M  V30 1448 H 132.457 0.706233 0.210724 0
M  V30 1449 H 135.099 1.89392 -0.1519 0
M  V30 1450 H 133.249 3.45496 1.77665 0
M  V30 1451 H 134.921 4.57641 -0.579851 0
M  V30 1452 H 133.164 4.29432 -0.614068 0
M  V30 1453 H 133.835 5.49817 0.490452 0
M  V30 1454 H 136.311 3.87189 1.52393 0
M  V30 1455 H 135.187 4.92822 2.41698 0
M  V30 1456 H 135.448 3.27973 2.96456 0
M  V30 1457 N 134.507 -0.190092 1.56449 0
M  V30 1458 C 135.753 -0.911052 1.81184 0
M  V30 1459 C 136.086 -1.82699 0.658396 0
M  V30 1460 O 135.361 -1.91491 -0.340775 0
M  V30 1461 C 135.644 -1.72297 3.16205 0
M  V30 1462 C 135.497 -0.831419 4.42049 0
M  V30 1463 C 136.816 -2.69454 3.47969 0
M  V30 1464 H 133.935 -0.32977 0.659106 0
M  V30 1465 H 136.577 -0.178169 1.89163 0
M  V30 1466 H 134.727 -2.34778 3.09534 0
M  V30 1467 H 136.399 -0.220929 4.60771 0
M  V30 1468 H 134.642 -0.138406 4.33579 0
M  V30 1469 H 135.313 -1.43461 5.33032 0
M  V30 1470 H 137.789 -2.17104 3.54972 0
M  V30 1471 H 136.665 -3.23342 4.43555 0
M  V30 1472 H 136.926 -3.48744 2.71717 0
M  V30 1473 N 135.985 -1.50799 -0.457987 0
M  V30 1474 C 137.262 -1.52968 -1.21902 0
M  V30 1475 C 137.642 -0.281906 -2.09209 0
M  V30 1476 O 136.99 0.734076 -2.16388 0
M  V30 1477 C 137.2 -2.8326 -2.03875 0
M  V30 1478 C 138.548 -3.34425 -2.6162 0
M  V30 1479 O 139.572 -2.8467 -2.14106 0
M  V30 1480 O 138.431 -4.21188 -3.48228 0
M  V30 1481 H 135.525 -0.614129 -0.553873 0
M  V30 1482 H 138.071 -1.63098 -0.468739 0
M  V30 1483 H 136.843 -3.65543 -1.39621 0
M  V30 1484 H 136.466 -2.76195 -2.8601 0
M  V30 1485 N 137.463 0.71206 -1.40597 0
M  V30 1486 C 138.688 1.50617 -1.42581 0
M  V30 1487 C 139.113 1.88079 -0.0282102 0
M  V30 1488 O 138.471 1.53511 0.964579 0
M  V30 1489 C 138.519 2.7557 -2.3258 0
M  V30 1490 O 137.623 3.72414 -1.77148 0
M  V30 1491 H 136.964 0.453966 -0.484573 0
M  V30 1492 H 139.494 0.876649 -1.84868 0
M  V30 1493 H 139.504 3.2406 -2.47889 0
M  V30 1494 H 138.179 2.47639 -3.34138 0
M  V30 1495 H 136.756 3.31276 -1.71204 0
M  V30 1496 N 138.941 1.26152 0.944643 0
M  V30 1497 C 140.181 1.12708 1.70517 0
M  V30 1498 C 140.545 -0.324727 1.89234 0
M  V30 1499 O 141.746 -0.581211 2.62441 0
M  V30 1500 C 140.017 1.8713 3.04495 0
M  V30 1501 S 141.576 1.89698 3.95677 0
M  V30 1502 H 138.394 0.402665 0.585988 0
M  V30 1503 H 140.996 1.59821 1.12594 0
M  V30 1504 H 139.7 2.91833 2.88551 0
M  V30 1505 H 139.231 1.40444 3.67477 0
M  V30 1506 H 141.246 0.981198 4.86402 0
M  V30 1507 N 140.419 -1.14872 1.07899 0
M  V30 1508 C 141.696 -1.81928 0.71845 0
M  V30 1509 C 142.076 -1.95417 -0.798455 0
M  V30 1510 O 141.424 -1.50997 -1.715 0
M  V30 1511 C 141.634 -3.17937 1.43935 0
M  V30 1512 C 142.982 -3.93501 1.59506 0
M  V30 1513 O 144.006 -3.27509 1.40058 0
M  V30 1514 O 142.865 -5.1183 1.91551 0
M  V30 1515 H 139.959 -0.78628 0.256305 0
M  V30 1516 H 142.505 -1.21934 1.18026 0
M  V30 1517 H 141.277 -3.0325 2.47295 0
M  V30 1518 H 140.9 -3.85619 0.968687 0
M  V30 1519 N 141.898 -0.863906 -1.31812 0
M  V30 1520 C 143.314 -0.555004 -1.49639 0
M  V30 1521 C 143.514 0.912266 -1.79666 0
M  V30 1522 O 142.57 1.69479 -1.87171 0
M  V30 1523 C 143.883 -1.44998 -2.63431 0
M  V30 1524 C 145.431 -1.45138 -2.77316 0
M  V30 1525 C 145.906 -2.33179 -3.94197 0
M  V30 1526 N 147.397 -2.31025 -4.01474 0
M  V30 1527 C 148.132 -2.95871 -4.9117 0
M  V30 1528 N 147.628 -3.69863 -5.8581 0
M  V30 1529 N 149.421 -2.85211 -4.84367 0
M  V30 1530 H 141.572 -1.81339 -1.10589 0
M  V30 1531 H 143.835 -0.77505 -0.545895 0
M  V30 1532 H 143.541 -2.49377 -2.48 0
M  V30 1533 H 143.415 -1.14409 -3.59431 0
M  V30 1534 H 145.802 -0.415201 -2.92164 0
M  V30 1535 H 145.883 -1.79747 -1.82001 0
M  V30 1536 H 145.527 -3.3687 -3.80107 0
M  V30 1537 H 145.457 -1.95897 -4.88807 0
M  V30 1538 H 147.948 -1.77238 -3.33759 0
M  V30 1539 H 148.261 -4.16486 -6.50968 0
M  V30 1540 H 146.606 -3.73971 -5.85808 0
M  V30 1541 H 149.797 -2.26948 -4.09405 0
M  V30 1542 H 149.97 -3.36027 -5.54066 0
M  V30 1543 N 143.376 1.44774 -0.622745 0
M  V30 1544 C 144.653 1.95522 -0.0551974 0
M  V30 1545 C 145.033 1.5649 1.41683 0
M  V30 1546 O 144.381 0.834848 2.12703 0
M  V30 1547 C 144.591 3.4796 -0.269242 0
M  V30 1548 C 145.939 4.24306 -0.158014 0
M  V30 1549 O 146.963 3.55637 -0.200162 0
M  V30 1550 O 145.822 5.46471 -0.0558693 0
M  V30 1551 H 142.916 0.826556 0.0271015 0
M  V30 1552 H 145.462 1.54866 -0.693864 0
M  V30 1553 H 144.234 3.6939 -1.29099 0
M  V30 1554 H 143.857 3.95543 0.403966 0
M  V30 1555 N 144.854 0.36279 1.53368 0
M  V30 1556 C 146.27 0.0116182 1.59596 0
M  V30 1557 C 146.47 -1.47012 1.37803 0
M  V30 1558 O 145.526 -2.23136 1.18181 0
M  V30 1559 C 146.839 0.465052 2.97082 0
M  V30 1560 C 148.387 0.419033 3.10182 0
M  V30 1561 C 148.862 0.848235 4.50077 0
M  V30 1562 N 150.353 0.803183 4.56183 0
M  V30 1563 C 151.088 1.107 5.62613 0
M  V30 1564 N 150.584 1.47996 6.76808 0
M  V30 1565 N 152.377 1.02998 5.52583 0
M  V30 1566 H 144.528 1.32775 1.65785 0
M  V30 1567 H 146.791 0.542518 0.777417 0
M  V30 1568 H 146.497 1.49892 3.18159 0
M  V30 1569 H 146.371 -0.149786 3.76902 0
M  V30 1570 H 148.758 -0.605696 2.88817 0
M  V30 1571 H 148.839 1.06933 2.32377 0
M  V30 1572 H 148.483 1.87107 4.7218 0
M  V30 1573 H 148.413 0.175218 5.26308 0
M  V30 1574 H 150.904 0.52838 3.74188 0
M  V30 1575 H 151.217 1.69613 7.53957 0
M  V30 1576 H 149.562 1.51859 6.78206 0
M  V30 1577 H 152.753 0.737817 4.62249 0
M  V30 1578 H 152.926 1.2701 6.35431 0
M  V30 1579 N 146.332 -1.57332 0.0918853 0
M  V30 1580 C 147.581 -1.93412 -0.572249 0
M  V30 1581 C 147.894 -0.975515 -1.69538 0
M  V30 1582 O 149.1 -1.22991 -2.42045 0
M  V30 1583 C 147.556 -3.43648 -1.0693 0
M  V30 1584 C 147.164 -4.47994 0.0239049 0
M  V30 1585 C 148.908 -3.88695 -1.70635 0
M  V30 1586 C 146.815 -5.89381 -0.488319 0
M  V30 1587 H 145.745 -0.721939 -0.217532 0
M  V30 1588 H 148.396 -1.82735 0.167369 0
M  V30 1589 H 146.778 -3.49466 -1.8625 0
M  V30 1590 H 147.952 -4.53815 0.799277 0
M  V30 1591 H 146.267 -4.12536 0.565946 0
M  V30 1592 H 148.864 -4.91725 -2.10025 0
M  V30 1593 H 149.207 -3.27166 -2.57426 0
M  V30 1594 H 149.74 -3.85564 -0.979023 0
M  V30 1595 H 146.479 -6.54602 0.342906 0
M  V30 1596 H 145.999 -5.87037 -1.23077 0
M  V30 1597 H 147.678 -6.39863 -0.958317 0
M  V30 1598 N 147.81 0.181792 -1.56548 0
M  V30 1599 C 149.058 0.89832 -1.81038 0
M  V30 1600 C 149.379 1.83232 -0.667164 0
M  V30 1601 O 148.649 1.93372 0.313673 0
M  V30 1602 H 147.229 0.33471 -0.667816 0
M  V30 1603 H 149.891 0.184116 -1.94028 0
M  V30 1604 H 148.987 1.4815 -2.74696 0
M  V30 1605 N 149.288 1.51039 0.449983 0
M  V30 1606 C 150.537 1.62317 1.19733 0
M  V30 1607 C 150.85 0.339101 1.92638 0
M  V30 1608 O 152.056 0.331069 2.69474 0
M  V30 1609 C 150.512 2.86608 2.17678 0
M  V30 1610 C 150.12 4.21972 1.50479 0
M  V30 1611 C 151.864 3.07239 2.92924 0
M  V30 1612 C 149.771 5.37426 2.46834 0
M  V30 1613 H 148.701 0.604532 0.450619 0
M  V30 1614 H 151.352 1.77494 0.465625 0
M  V30 1615 H 149.734 2.65037 2.94231 0
M  V30 1616 H 150.908 4.53878 0.795716 0
M  V30 1617 H 149.223 4.07117 0.874344 0
M  V30 1618 H 151.82 3.90668 3.65079 0
M  V30 1619 H 152.163 2.19807 3.5354 0
M  V30 1620 H 152.696 3.29091 2.23481 0
M  V30 1621 H 149.435 6.27079 1.90926 0
M  V30 1622 H 148.955 5.09912 3.15832 0
M  V30 1623 H 150.634 5.68862 3.08228 0
M  V30 1624 N 150.766 -0.704594 1.40972 0
M  V30 1625 C 151.991 -1.49858 1.43378 0
M  V30 1626 C 152.416 -1.88061 0.038184 0
M  V30 1627 O 151.774 -1.5402 -0.956425 0
M  V30 1628 C 151.822 -2.74333 2.34038 0
M  V30 1629 O 150.926 -3.7147 1.7912 0
M  V30 1630 H 150.267 -0.45139 0.486974 0
M  V30 1631 H 152.797 -0.866832 1.8533 0
M  V30 1632 H 152.807 -3.22741 2.49604 0
M  V30 1633 H 151.482 -2.45863 3.35446 0
M  V30 1634 H 150.059 -3.30363 1.72958 0
M  V30 1635 N 152.244 -1.26651 -0.937939 0
M  V30 1636 C 153.191 -1.0849 -2.03712 0
M  V30 1637 C 154.161 0.011033 -1.66096 0
M  V30 1638 O 155.346 -0.149353 -1.90215 0
M  V30 1639 C 152.486 -0.72735 -3.37348 0
M  V30 1640 C 151.599 -1.89986 -3.87981 0
M  V30 1641 C 150.734 -1.48513 -5.10017 0
M  V30 1642 C 149.773 -2.62575 -5.5292 0
M  V30 1643 N 148.91 -2.21762 -6.66158 0
M  V30 1644 H 153.75 -2.02551 -2.18579 0
M  V30 1645 H 151.287 -1.00844 -1.07093 0
M  V30 1646 H 153.245 -0.50092 -4.14182 0
M  V30 1647 H 151.875 0.176298 -3.22318 0
M  V30 1648 H 150.927 -2.23913 -3.07518 0
M  V30 1649 H 152.239 -2.75586 -4.15757 0
M  V30 1650 H 151.393 -1.21934 -5.94321 0
M  V30 1651 H 150.132 -0.60009 -4.83994 0
M  V30 1652 H 149.137 -2.8988 -4.67172 0
M  V30 1653 H 150.362 -3.51685 -5.80943 0
M  V30 1654 H 148.308 -1.35696 -6.41812 0
M  V30 1655 H 148.225 -3.00903 -6.93537 0
M  V30 1656 H 149.493 -1.98403 -7.53828 0
M  V30 1657 N 153.722 1.14298 -1.08507 0
M  V30 1658 C 154.947 1.8976 -0.837001 0
M  V30 1659 C 155.372 1.78097 0.605228 0
M  V30 1660 O 154.73 1.12188 1.4242 0
M  V30 1661 C 154.778 3.37685 -1.26495 0
M  V30 1662 O 153.882 4.10281 -0.417514 0
M  V30 1663 H 153.223 0.590365 -0.303917 0
M  V30 1664 H 155.753 1.44672 -1.44676 0
M  V30 1665 H 155.763 3.88501 -1.24625 0
M  V30 1666 H 154.438 3.45492 -2.31534 0
M  V30 1667 H 153.015 3.69536 -0.499722 0
M  V30 1668 N 155.201 0.870884 1.31352 0
M  V30 1669 C 156.111 0.330783 2.32256 0
M  V30 1670 C 157.127 -0.559767 1.6475 0
M  V30 1671 O 158.303 -0.456263 1.96164 0
M  V30 1672 C 155.368 -0.458137 3.4366 0
M  V30 1673 C 154.429 0.460482 4.26823 0
M  V30 1674 C 153.662 -0.290881 5.32907 0
M  V30 1675 O 153.885 -1.51885 5.49806 0
M  V30 1676 O 152.819 0.351732 6.00871 0
M  V30 1677 H 156.645 1.16718 2.80376 0
M  V30 1678 H 154.23 0.634285 1.35267 0
M  V30 1679 H 156.112 -0.905343 4.1156 0
M  V30 1680 H 154.787 -1.27106 2.97701 0
M  V30 1681 H 153.694 0.956207 3.61673 0
M  V30 1682 H 155.027 1.23903 4.7635 0
M  V30 1683 N 156.679 -1.44442 0.630414 0
M  V30 1684 C 157.609 -2.33418 -0.0618083 0
M  V30 1685 C 158.59 -1.48165 -0.835541 0
M  V30 1686 O 159.775 -1.76886 -0.801564 0
M  V30 1687 C 156.905 -3.31222 -1.04449 0
M  V30 1688 C 155.859 -4.26288 -0.382436 0
M  V30 1689 C 155.185 -5.13954 -1.47497 0
M  V30 1690 C 156.485 -5.1744 0.710865 0
M  V30 1691 H 158.179 -2.91548 0.681184 0
M  V30 1692 H 155.725 -1.40191 0.329026 0
M  V30 1693 H 157.678 -3.92351 -1.53748 0
M  V30 1694 H 156.402 -2.71299 -1.81836 0
M  V30 1695 H 155.061 -3.6649 0.0899054 0
M  V30 1696 H 154.709 -4.50385 -2.2397 0
M  V30 1697 H 154.409 -5.7837 -1.03737 0
M  V30 1698 H 155.933 -5.77955 -1.96979 0
M  V30 1699 H 157.347 -5.72509 0.300996 0
M  V30 1700 H 155.744 -5.90455 1.07156 0
M  V30 1701 H 156.814 -4.58496 1.57829 0
M  V30 1702 N 158.157 -0.370918 -1.53173 0
M  V30 1703 C 159.403 0.217423 -2.01631 0
M  V30 1704 C 159.736 1.47983 -1.25756 0
M  V30 1705 O 159.011 1.91274 -0.352764 0
M  V30 1706 C 159.294 0.503982 -3.56556 0
M  V30 1707 C 159.147 -0.77243 -4.43118 0
M  V30 1708 C 160.466 1.30234 -4.20389 0
M  V30 1709 H 157.585 0.0775486 -0.732909 0
M  V30 1710 H 160.227 -0.496863 -1.83388 0
M  V30 1711 H 158.377 1.11248 -3.72231 0
M  V30 1712 H 160.049 -1.4098 -4.39229 0
M  V30 1713 H 158.292 -1.39167 -4.10871 0
M  V30 1714 H 158.963 -0.526815 -5.4948 0
M  V30 1715 H 161.439 0.787546 -4.08579 0
M  V30 1716 H 160.315 1.47158 -5.28806 0
M  V30 1717 H 160.576 2.31237 -3.76805 0
M  V30 1718 N 159.635 1.57281 -0.100228 0
M  V30 1719 C 160.598 2.13158 0.842398 0
M  V30 1720 C 161.598 1.06202 1.20738 0
M  V30 1721 O 162.788 1.32066 1.13597 0
M  V30 1722 C 159.92 2.65639 2.13655 0
M  V30 1723 H 161.113 2.97766 0.357114 0
M  V30 1724 H 158.666 1.5559 0.148823 0
M  V30 1725 H 159.401 1.84566 2.66657 0
M  V30 1726 H 159.186 3.43844 1.88451 0
M  V30 1727 H 160.676 3.08846 2.81077 0
M  V30 1728 N 161.113 -0.173488 1.56642 0
M  V30 1729 C 162.046 -1.24353 1.91342 0
M  V30 1730 C 163.024 -1.4289 0.775965 0
M  V30 1731 O 164.208 -1.57932 1.02907 0
M  V30 1732 C 161.335 -2.60683 2.16245 0
M  V30 1733 C 160.381 -2.58894 3.38934 0
M  V30 1734 S 161.214 -2.0819 4.93373 0
M  V30 1735 C 162.37 -3.46302 5.21369 0
M  V30 1736 H 162.603 -0.947345 2.81803 0
M  V30 1737 H 160.136 -0.377958 1.49703 0
M  V30 1738 H 162.094 -3.39149 2.31275 0
M  V30 1739 H 160.755 -2.87502 1.26496 0
M  V30 1740 H 159.948 -3.59188 3.53553 0
M  V30 1741 H 159.55 -1.88522 3.2301 0
M  V30 1742 H 161.842 -4.42287 5.13214 0
M  V30 1743 H 162.785 -3.3656 6.23003 0
M  V30 1744 H 163.193 -3.42214 4.48943 0
M  V30 1745 N 162.591 -1.51276 -0.441967 0
M  V30 1746 C 163.521 -1.752 -1.54361 0
M  V30 1747 C 164.502 -0.601682 -1.59103 0
M  V30 1748 O 165.687 -0.843913 -1.74905 0
M  V30 1749 C 162.817 -1.87282 -2.92477 0
M  V30 1750 C 161.771 -3.02687 -3.02596 0
M  V30 1751 C 161.097 -2.99947 -4.42647 0
M  V30 1752 C 162.397 -4.4273 -2.77106 0
M  V30 1753 H 164.091 -2.67442 -1.34592 0
M  V30 1754 H 161.637 -1.28694 -0.646048 0
M  V30 1755 H 163.59 -2.02602 -3.695 0
M  V30 1756 H 162.314 -0.916844 -3.13467 0
M  V30 1757 H 160.973 -2.87065 -2.28012 0
M  V30 1758 H 160.621 -2.02136 -4.60597 0
M  V30 1759 H 160.321 -3.77439 -4.50348 0
M  V30 1760 H 161.845 -3.17354 -5.2165 0
M  V30 1761 H 163.259 -4.58727 -3.43864 0
M  V30 1762 H 161.656 -5.21893 -2.96222 0
M  V30 1763 H 162.726 -4.53087 -1.72744 0
M  V30 1764 N 164.069 0.697108 -1.41344 0
M  V30 1765 C 164.979 1.84088 -1.45427 0
M  V30 1766 C 165.995 1.70545 -0.34501 0
M  V30 1767 O 167.171 1.92488 -0.592492 0
M  V30 1768 C 164.236 3.20056 -1.33286 0
M  V30 1769 C 163.297 3.45718 -2.54514 0
M  V30 1770 C 162.53 4.75199 -2.42944 0
M  V30 1771 O 162.753 5.51579 -1.45318 0
M  V30 1772 O 161.687 5.0161 -3.32672 0
M  V30 1773 H 165.513 1.836 -2.41919 0
M  V30 1774 H 163.098 0.849966 -1.22866 0
M  V30 1775 H 164.98 4.01236 -1.28794 0
M  V30 1776 H 163.655 3.2123 -0.39909 0
M  V30 1777 H 162.562 2.64474 -2.64583 0
M  V30 1778 H 163.895 3.49356 -3.46715 0
M  V30 1779 N 165.547 1.27147 0.931209 0
M  V30 1780 C 166.457 1.11372 2.06478 0
M  V30 1781 C 167.473 0.044645 1.73943 0
M  V30 1782 O 168.649 0.250417 1.99837 0
M  V30 1783 C 165.714 0.758838 3.38294 0
M  V30 1784 C 164.775 1.90841 3.84549 0
M  V30 1785 C 164.008 1.57036 5.10074 0
M  V30 1786 O 164.231 0.476645 5.68405 0
M  V30 1787 O 163.165 2.40839 5.51616 0
M  V30 1788 H 166.991 2.06493 2.22698 0
M  V30 1789 H 164.576 1.06301 1.04978 0
M  V30 1790 H 166.458 0.574098 4.17471 0
M  V30 1791 H 165.133 -0.162879 3.2329 0
M  V30 1792 H 164.04 2.14819 3.06274 0
M  V30 1793 H 165.373 2.81021 4.04089 0
M  V30 1794 N 167.025 -1.13721 1.09112 0
M  V30 1795 C 167.935 -2.22638 0.73957 0
M  V30 1796 C 168.951 -1.72091 -0.257068 0
M  V30 1797 O 170.127 -2.01155 -0.0992154 0
M  V30 1798 C 167.192 -3.46322 0.16191 0
M  V30 1799 C 166.253 -4.11775 1.21408 0
M  V30 1800 C 165.486 -5.29555 0.663891 0
M  V30 1801 O 165.709 -5.68077 -0.514274 0
M  V30 1802 O 164.643 -5.84973 1.41738 0
M  V30 1803 H 168.469 -2.55074 1.64836 0
M  V30 1804 H 166.054 -1.21791 0.865289 0
M  V30 1805 H 167.936 -4.21107 -0.157073 0
M  V30 1806 H 166.611 -3.15593 -0.719932 0
M  V30 1807 H 165.518 -3.3883 1.58571 0
M  V30 1808 H 166.851 -4.46627 2.06845 0
M  V30 1809 N 168.503 -0.877838 -1.30888 0
M  V30 1810 C 169.413 -0.343096 -2.32078 0
M  V30 1811 C 170.429 0.551022 -1.65045 0
M  V30 1812 O 171.605 0.445854 -1.96403 0
M  V30 1813 C 168.67 0.439905 -3.43898 0
M  V30 1814 C 167.731 -0.483111 -4.26573 0
M  V30 1815 C 166.964 0.262616 -5.33053 0
M  V30 1816 O 167.187 1.48967 -5.50604 0
M  V30 1817 O 166.121 -0.383593 -6.00676 0
M  V30 1818 H 169.947 -1.18203 -2.79753 0
M  V30 1819 H 167.532 -0.64145 -1.34929 0
M  V30 1820 H 169.414 0.883504 -4.12034 0
M  V30 1821 H 168.089 1.25526 -2.98371 0
M  V30 1822 H 166.996 -0.975374 -3.61161 0
M  V30 1823 H 168.329 -1.26427 -4.75686 0
M  V30 1824 N 169.982 1.44106 -0.638065 0
M  V30 1825 C 170.912 2.33448 0.0494287 0
M  V30 1826 C 171.893 1.48606 0.827672 0
M  V30 1827 O 173.078 1.77308 0.792173 0
M  V30 1828 C 170.208 3.31771 1.02691 0
M  V30 1829 C 169.162 4.26485 0.359823 0
M  V30 1830 C 168.488 5.14729 1.44769 0
M  V30 1831 C 169.788 5.17056 -0.738296 0
M  V30 1832 H 171.482 2.91183 -0.696636 0
M  V30 1833 H 169.028 1.40014 -0.336456 0
M  V30 1834 H 170.981 3.93161 1.51666 0
M  V30 1835 H 169.705 2.7226 1.80395 0
M  V30 1836 H 168.364 3.66437 -0.10934 0
M  V30 1837 H 168.012 4.51566 2.21578 0
M  V30 1838 H 167.712 5.78913 1.00668 0
M  V30 1839 H 169.236 5.78991 1.93911 0
M  V30 1840 H 170.65 5.72342 -0.331354 0
M  V30 1841 H 169.047 5.89879 -1.10286 0
M  V30 1842 H 170.117 4.57652 -1.60258 0
M  V30 1843 N 171.46 0.379036 1.52974 0
M  V30 1844 C 172.876 0.0285448 1.59574 0
M  V30 1845 C 173.076 -1.45542 1.39355 0
M  V30 1846 O 172.132 -2.2187 1.20541 0
M  V30 1847 C 173.445 0.496535 2.96572 0
M  V30 1848 C 174.993 0.451909 3.0972 0
M  V30 1849 C 175.468 0.895924 4.49152 0
M  V30 1850 N 176.959 0.851522 4.55306 0
M  V30 1851 C 177.694 1.16661 5.61407 0
M  V30 1852 N 177.19 1.55166 6.752 0
M  V30 1853 N 178.983 1.08853 5.51459 0
M  V30 1854 H 171.134 1.34525 1.64367 0
M  V30 1855 H 173.397 0.550733 0.771619 0
M  V30 1856 H 173.103 1.53258 3.16552 0
M  V30 1857 H 172.977 -0.109802 3.7704 0
M  V30 1858 H 175.364 -0.575029 2.89443 0
M  V30 1859 H 175.445 1.09392 2.3123 0
M  V30 1860 H 175.089 1.92104 4.70168 0
M  V30 1861 H 175.019 0.23103 5.26093 0
M  V30 1862 H 177.51 0.568038 3.73606 0
M  V30 1863 H 177.823 1.776 7.52116 0
M  V30 1864 H 176.168 1.59044 6.76557 0
M  V30 1865 H 179.359 0.786803 4.6144 0
M  V30 1866 H 179.532 1.33742 6.34048 0
M  V30 1867 N 172.938 -1.57226 0.108567 0
M  V30 1868 C 173.885 -2.14756 -0.845481 0
M  V30 1869 C 174.855 -1.06971 -1.27068 0
M  V30 1870 O 176.04 -1.34827 -1.35005 0
M  V30 1871 C 173.18 -2.74298 -2.09415 0
M  V30 1872 C 172.293 -3.96358 -1.71826 0
M  V30 1873 C 171.428 -4.44021 -2.9158 0
M  V30 1874 C 170.467 -5.58637 -2.50181 0
M  V30 1875 N 169.604 -6.01091 -3.62814 0
M  V30 1876 H 174.444 -2.95961 -0.348035 0
M  V30 1877 H 171.981 -1.46226 -0.160106 0
M  V30 1878 H 173.939 -3.06945 -2.82561 0
M  V30 1879 H 172.569 -1.95801 -2.56636 0
M  V30 1880 H 171.621 -3.69939 -0.885947 0
M  V30 1881 H 172.933 -4.79504 -1.37394 0
M  V30 1882 H 172.087 -4.78522 -3.72963 0
M  V30 1883 H 170.826 -3.59803 -3.29231 0
M  V30 1884 H 169.831 -5.23751 -1.67228 0
M  V30 1885 H 171.056 -6.44613 -2.13659 0
M  V30 1886 H 169.002 -5.19817 -4.00158 0
M  V30 1887 H 168.919 -6.79066 -3.32273 0
M  V30 1888 H 170.187 -6.40227 -4.44668 0
M  V30 1889 N 174.416 0.165178 -1.56732 0
M  V30 1890 C 175.379 1.18822 -1.95995 0
M  V30 1891 C 176.379 1.3685 -0.84431 0
M  V30 1892 O 177.569 1.34152 -1.11126 0
M  V30 1893 C 174.701 2.5521 -2.26011 0
M  V30 1894 H 175.894 0.851825 -2.87548 0
M  V30 1895 H 173.447 0.407857 -1.50885 0
M  V30 1896 H 174.182 2.93852 -1.37191 0
M  V30 1897 H 173.967 2.43489 -3.07336 0
M  V30 1898 H 175.457 3.28927 -2.57288 0
M  V30 1899 N 175.894 1.51508 0.433938 0
M  V30 1900 C 177.143 1.63578 1.18005 0
M  V30 1901 C 177.456 0.359514 1.92268 0
M  V30 1902 O 178.662 0.359632 2.69108 0
M  V30 1903 C 177.118 2.88901 2.14626 0
M  V30 1904 C 176.726 4.23544 1.45995 0
M  V30 1905 C 178.47 3.10328 2.89649 0
M  V30 1906 C 176.377 5.40014 2.4112 0
M  V30 1907 H 175.307 0.609277 0.444182 0
M  V30 1908 H 177.958 1.77978 0.446773 0
M  V30 1909 H 176.34 2.68142 2.91403 0
M  V30 1910 H 177.514 4.54696 0.747532 0
M  V30 1911 H 175.829 4.08021 0.831115 0
M  V30 1912 H 178.426 3.94518 3.60915 0
M  V30 1913 H 178.769 2.23544 3.51189 0
M  V30 1914 H 179.302 3.31443 2.19978 0
M  V30 1915 H 176.041 6.29068 1.84264 0
M  V30 1916 H 175.561 5.13233 3.10406 0
M  V30 1917 H 177.24 5.72099 3.02177 0
M  V30 1918 N 177.372 -0.689602 1.41712 0
M  V30 1919 C 178.302 -1.81577 1.46806 0
M  V30 1920 C 179.283 -1.66945 0.326105 0
M  V30 1921 O 180.468 -1.86588 0.538377 0
M  V30 1922 C 177.598 -3.19762 1.35535 0
M  V30 1923 C 176.552 -3.49107 2.47605 0
M  V30 1924 C 175.878 -4.86711 2.21397 0
M  V30 1925 C 177.178 -3.47483 3.89939 0
M  V30 1926 H 178.872 -1.7757 2.41058 0
M  V30 1927 H 176.418 -0.852887 1.16025 0
M  V30 1928 H 178.371 -3.98263 1.3771 0
M  V30 1929 H 177.095 -3.24409 0.377708 0
M  V30 1930 H 175.754 -2.72959 2.44722 0
M  V30 1931 H 175.402 -4.8799 1.21961 0
M  V30 1932 H 175.102 -5.0731 2.96497 0
M  V30 1933 H 176.626 -5.67515 2.25297 0
M  V30 1934 H 178.04 -4.1598 3.94505 0
M  V30 1935 H 176.437 -3.79615 4.64771 0
M  V30 1936 H 177.507 -2.46341 4.17665 0
M  V30 1937 N 178.85 -1.27639 -0.924453 0
M  V30 1938 C 180.096 -1.14336 -1.67497 0
M  V30 1939 C 180.429 0.309465 -1.91718 0
M  V30 1940 O 179.704 1.22608 -1.50989 0
M  V30 1941 C 179.987 -1.93096 -3.0395 0
M  V30 1942 C 179.84 -3.46381 -2.8695 0
M  V30 1943 C 181.159 -1.73798 -4.0433 0
M  V30 1944 H 178.278 -0.416728 -0.607871 0
M  V30 1945 H 180.92 -1.56832 -1.07256 0
M  V30 1946 H 179.07 -1.56982 -3.55372 0
M  V30 1947 H 180.742 -3.92343 -2.42621 0
M  V30 1948 H 178.985 -3.72557 -2.22225 0
M  V30 1949 H 179.656 -3.96735 -3.83804 0
M  V30 1950 H 182.132 -2.05293 -3.61931 0
M  V30 1951 H 181.008 -2.31294 -4.97789 0
M  V30 1952 H 181.269 -0.686725 -4.36734 0
M  V30 1953 N 180.328 1.1314 -1.09713 0
M  V30 1954 C 181.574 1.84757 -0.836224 0
M  V30 1955 C 181.907 1.8347 0.636598 0
M  V30 1956 O 181.182 1.27491 1.46889 0
M  V30 1957 C 181.465 3.32782 -1.37578 0
M  V30 1958 C 181.318 3.42567 -2.91493 0
M  V30 1959 C 182.637 4.28307 -1.01198 0
M  V30 1960 H 179.756 0.67082 -0.305236 0
M  V30 1961 H 182.398 1.3278 -1.35903 0
M  V30 1962 H 180.548 3.77177 -0.931097 0
M  V30 1963 H 182.22 3.06862 -3.44432 0
M  V30 1964 H 180.463 2.83349 -3.28475 0
M  V30 1965 H 181.134 4.46674 -3.24324 0
M  V30 1966 H 183.61 3.91999 -1.39556 0
M  V30 1967 H 182.486 5.30307 -1.41653 0
M  V30 1968 H 182.747 4.42029 0.0794833 0
M  V30 1969 N 181.806 0.884767 1.30421 0
M  V30 1970 C 183.053 0.503105 1.96151 0
M  V30 1971 C 183.381 -0.947676 1.69851 0
M  V30 1972 O 182.636 -1.68467 0.995861 0
M  V30 1973 C 182.935 0.724318 3.49983 0
M  V30 1974 C 182.601 2.15015 3.96332 0
M  V30 1975 C 181.263 2.54005 4.08699 0
M  V30 1976 C 183.615 3.07936 4.20505 0
M  V30 1977 C 180.943 3.85128 4.42599 0
M  V30 1978 C 183.295 4.3859 4.55874 0
M  V30 1979 C 181.959 4.77474 4.66449 0
M  V30 1980 H 181.229 0.184099 0.717766 0
M  V30 1981 H 183.876 1.12058 1.55291 0
M  V30 1982 H 182.181 0.0238086 3.91793 0
M  V30 1983 H 183.878 0.408617 3.98913 0
M  V30 1984 H 180.468 1.8375 3.87213 0
M  V30 1985 H 184.652 2.79033 4.10431 0
M  V30 1986 H 179.908 4.14996 4.48986 0
M  V30 1987 H 184.082 5.10629 4.7353 0
M  V30 1988 H 181.709 5.79115 4.92473 0
M  V30 1989 N 183.284 -1.43765 0.645699 0
M  V30 1990 C 184.247 -2.29163 -0.0409488 0
M  V30 1991 C 185.247 -1.41813 -0.757996 0
M  V30 1992 O 186.437 -1.63527 -0.600382 0
M  V30 1993 C 183.569 -3.23716 -1.06869 0
M  V30 1994 H 184.762 -2.91366 0.710345 0
M  V30 1995 H 182.315 -1.5092 0.406547 0
M  V30 1996 H 183.05 -2.66393 -1.84947 0
M  V30 1997 H 182.835 -3.88105 -0.558277 0
M  V30 1998 H 184.325 -3.87831 -1.54845 0
M  V30 1999 N 184.763 -0.387143 -1.52771 0
M  V30 2000 C 185.711 0.463953 -2.27926 0
M  V30 2001 C 186.705 1.06493 -1.31741 0
M  V30 2002 O 187.911 1.00565 -1.49287 0
M  V30 2003 H 184.286 0.16837 -0.732909 0
M  V30 2004 H 186.257 -0.19141 -2.97785 0
M  V30 2005 C 185.006 1.5803 -3.09713 0
M  V30 2006 H 184.329 1.12718 -3.83581 0
M  V30 2007 H 185.769 2.15008 -3.65442 0
M  V30 2008 C 184.228 2.53509 -2.2189 0
M  V30 2009 O 184.758 3.56863 -1.84422 0
M  V30 2010 N 182.964 2.23199 -1.86093 0
M  V30 2011 H 182.511 1.39185 -2.16761 0
M  V30 2012 H 182.469 2.87333 -1.27621 0
M  V30 2013 N 186.241 1.57166 -0.116904 0
M  V30 2014 C 187.188 2.15202 0.83408 0
M  V30 2015 C 188.158 1.07644 1.26499 0
M  V30 2016 O 189.343 1.35541 1.34288 0
M  V30 2017 C 186.483 2.75405 2.07957 0
M  V30 2018 C 185.596 3.97264 1.69721 0
M  V30 2019 C 184.731 4.45561 2.89221 0
M  V30 2020 C 183.77 5.59956 2.47215 0
M  V30 2021 N 182.907 6.03006 3.59622 0
M  V30 2022 H 187.747 2.96141 0.332335 0
M  V30 2023 H 185.284 1.46309 0.152349 0
M  V30 2024 H 187.242 3.08439 2.80929 0
M  V30 2025 H 185.872 1.97159 2.55594 0
M  V30 2026 H 184.924 3.70404 0.866316 0
M  V30 2027 H 186.236 4.80226 1.34849 0
M  V30 2028 H 185.39 4.80493 3.7042 0
M  V30 2029 H 184.129 3.61544 3.27318 0
M  V30 2030 H 183.134 5.2463 1.64448 0
M  V30 2031 H 184.359 6.45738 2.10238 0
M  V30 2032 H 182.305 5.21931 3.97396 0
M  V30 2033 H 182.222 6.80819 3.28667 0
M  V30 2034 H 183.49 6.42576 4.41267 0
M  V30 2035 N 187.719 -0.156864 1.56817 0
M  V30 2036 C 188.651 -1.21883 1.94106 0
M  V30 2037 C 189.664 -1.3971 0.835754 0
M  V30 2038 O 190.853 -1.39457 1.11418 0
M  V30 2039 C 187.953 -2.58527 2.19127 0
M  V30 2040 C 187.126 -2.61809 3.50393 0
M  V30 2041 C 186.185 -3.7992 3.64071 0
M  V30 2042 O 185.211 -3.65249 4.36557 0
M  V30 2043 N 186.413 -4.96973 2.99997 0
M  V30 2044 H 189.178 -0.901974 2.85805 0
M  V30 2045 H 186.739 -0.346513 1.58148 0
M  V30 2046 H 188.731 -3.36034 2.25529 0
M  V30 2047 H 187.301 -2.82545 1.33742 0
M  V30 2048 H 186.521 -1.7029 3.5552 0
M  V30 2049 H 187.809 -2.61024 4.36742 0
M  V30 2050 H 187.207 -5.11794 2.41004 0
M  V30 2051 H 185.764 -5.7229 3.11974 0
M  V30 2052 N 189.197 -1.51736 -0.425897 0
M  V30 2053 C 190.474 -1.55519 -1.1863 0
M  V30 2054 C 190.854 -0.326219 -2.08564 0
M  V30 2055 O 190.202 0.688012 -2.17896 0
M  V30 2056 C 190.412 -2.87521 -1.9782 0
M  V30 2057 C 191.76 -3.39899 -2.54468 0
M  V30 2058 O 192.784 -2.89148 -2.08019 0
M  V30 2059 O 191.643 -4.2848 -3.39215 0
M  V30 2060 H 188.737 -0.625739 -0.540721 0
M  V30 2061 H 191.283 -1.64055 -0.434038 0
M  V30 2062 H 190.055 -3.68422 -1.31836 0
M  V30 2063 H 189.678 -2.822 -2.80088 0
M  V30 2064 N 190.675 0.682077 -1.42076 0
M  V30 2065 C 191.608 1.80666 -1.3941 0
M  V30 2066 C 192.586 1.60518 -0.25939 0
M  V30 2067 O 193.77 1.83088 -0.448456 0
M  V30 2068 C 190.897 3.17556 -1.17796 0
M  V30 2069 C 189.943 3.56468 -2.34164 0
M  V30 2070 S 190.776 3.59729 -3.96681 0
M  V30 2071 C 191.932 4.99323 -3.77395 0
M  V30 2072 H 192.165 1.82652 -2.34575 0
M  V30 2073 H 189.698 0.852062 -1.2876 0
M  V30 2074 H 191.656 3.96575 -1.06012 0
M  V30 2075 H 190.317 3.13164 -0.242279 0
M  V30 2076 H 189.51 4.5595 -2.1477 0
M  V30 2077 H 189.112 2.84792 -2.42425 0
M  V30 2078 H 191.404 5.87202 -3.37935 0
M  V30 2079 H 192.347 5.23763 -4.76527 0
M  V30 2080 H 192.755 4.71498 -3.10403 0
M  V30 2081 N 192.153 1.28127 0.917671 0
M  V30 2082 C 193.063 1.13556 2.05286 0
M  V30 2083 C 194.079 0.0630914 1.73886 0
M  V30 2084 O 195.255 0.271598 1.9956 0
M  V30 2085 C 192.32 0.794676 3.3747 0
M  V30 2086 C 191.381 1.94909 3.82504 0
M  V30 2087 C 190.614 1.62437 5.0838 0
M  V30 2088 O 190.837 0.536905 5.67867 0
M  V30 2089 O 189.771 2.46677 5.4903 0
M  V30 2090 H 193.597 2.08844 2.20495 0
M  V30 2091 H 191.182 1.07409 1.03845 0
M  V30 2092 H 193.064 0.618344 4.16839 0
M  V30 2093 H 191.739 -0.128581 3.23445 0
M  V30 2094 H 190.646 2.18055 3.03978 0
M  V30 2095 H 191.979 2.85291 4.01086 0
M  V30 2096 N 193.631 -1.12557 1.10312 0
M  V30 2097 C 194.563 -2.17971 0.708625 0
M  V30 2098 C 195.576 -1.60806 -0.254027 0
M  V30 2099 O 196.765 -1.78458 -0.0386891 0
M  V30 2100 C 193.865 -3.38891 0.0248198 0
M  V30 2101 C 193.038 -4.25548 1.01132 0
M  V30 2102 C 192.097 -5.24972 0.35924 0
M  V30 2103 O 191.123 -5.60174 1.00965 0
M  V30 2104 N 192.325 -5.73747 -0.882847 0
M  V30 2105 H 195.09 -2.52427 1.61557 0
M  V30 2106 H 192.651 -1.27967 0.991771 0
M  V30 2107 H 194.643 -4.02485 -0.422852 0
M  V30 2108 H 193.213 -3.02596 -0.784514 0
M  V30 2109 H 192.433 -3.58589 1.6373 0
M  V30 2110 H 193.721 -4.80294 1.67914 0
M  V30 2111 H 193.119 -5.4731 -1.43065 0
M  V30 2112 H 191.676 -6.39234 -1.27369 0
M  V30 2113 N 195.109 -0.891671 -1.2995 0
M  V30 2114 C 196.072 -0.36828 -2.26222 0
M  V30 2115 C 197.072 0.493014 -1.53056 0
M  V30 2116 O 198.262 0.299213 -1.71611 0
M  V30 2117 C 195.394 0.47442 -3.37583 0
M  V30 2118 H 196.587 -1.21844 -2.74033 0
M  V30 2119 H 194.14 -0.669107 -1.41254 0
M  V30 2120 H 194.875 1.34489 -2.95099 0
M  V30 2121 H 194.66 -0.142615 -3.91841 0
M  V30 2122 H 196.15 0.83218 -4.09224 0
M  V30 2123 N 196.587 1.43421 -0.653314 0
M  V30 2124 C 197.52 2.2803 0.0879804 0
M  V30 2125 C 198.498 1.39833 0.82979 0
M  V30 2126 O 199.682 1.69275 0.829341 0
M  V30 2127 C 196.809 3.19247 1.13132 0
M  V30 2128 C 195.855 4.23704 0.487546 0
M  V30 2129 S 196.688 5.30377 -0.738961 0
M  V30 2130 C 197.844 6.25162 0.30384 0
M  V30 2131 H 198.077 2.90554 -0.629739 0
M  V30 2132 H 195.61 1.47934 -0.442156 0
M  V30 2133 H 197.568 3.72346 1.72827 0
M  V30 2134 H 196.229 2.55901 1.82136 0
M  V30 2135 H 195.422 4.87631 1.27407 0
M  V30 2136 H 195.024 3.73983 -0.0352915 0
M  V30 2137 H 197.316 6.67321 1.17 0
M  V30 2138 H 198.259 7.07463 -0.300402 0
M  V30 2139 H 198.667 5.60864 0.63969 0
M  V30 2140 N 198.065 0.39524 1.52563 0
M  V30 2141 C 199.293 -0.184943 2.06072 0
M  V30 2142 C 199.708 -1.40021 1.26647 0
M  V30 2143 O 199.065 -1.79767 0.314672 0
M  V30 2144 C 199.116 -0.549179 3.57304 0
M  V30 2145 O 198.837 0.617813 4.33722 0
M  V30 2146 C 200.338 -1.18459 4.2718 0
M  V30 2147 H 197.558 -0.0265025 0.670476 0
M  V30 2148 H 200.102 0.562184 1.96621 0
M  V30 2149 H 198.257 -1.2462 3.66809 0
M  V30 2150 H 198.671 0.317091 5.23541 0
M  V30 2151 H 200.145 -1.38976 5.34219 0
M  V30 2152 H 200.622 -2.15368 3.82771 0
M  V30 2153 H 201.228 -0.528163 4.22008 0
M  V30 2154 N 199.544 -1.57102 0.125237 0
M  V30 2155 C 200.769 -2.0019 -0.542101 0
M  V30 2156 C 201.194 -1.00449 -1.59034 0
M  V30 2157 O 200.552 0.0229423 -1.81285 0
M  V30 2158 C 200.6 -3.42129 -1.13929 0
M  V30 2159 O 199.704 -3.45307 -2.2547 0
M  V30 2160 H 199.045 -0.650171 -0.134812 0
M  V30 2161 H 201.575 -2.03461 0.215553 0
M  V30 2162 H 201.585 -3.80471 -1.4733 0
M  V30 2163 H 200.26 -4.14237 -0.371531 0
M  V30 2164 H 198.837 -3.1879 -1.93462 0
M  V30 2165 N 201.022 0.148545 -1.56898 0
M  V30 2166 C 202.247 0.880385 -1.87787 0
M  V30 2167 C 202.672 1.74018 -0.714093 0
M  V30 2168 O 202.03 1.78153 0.336343 0
M  V30 2169 C 202.078 1.71422 -3.17249 0
M  V30 2170 O 201.182 2.8183 -3.01074 0
M  V30 2171 H 200.523 0.245301 -0.617028 0
M  V30 2172 H 203.053 0.139826 -2.04122 0
M  V30 2173 H 203.063 2.10954 -3.49231 0
M  V30 2174 H 201.738 1.08284 -4.01556 0
M  V30 2175 H 200.315 2.45715 -2.80497 0
M  V30 2176 N 202.5 1.5196 0.417844 0
M  V30 2177 C 203.41 1.77554 1.53336 0
M  V30 2178 C 204.426 0.660655 1.6097 0
M  V30 2179 O 205.602 0.945099 1.77848 0
M  V30 2180 C 202.667 1.91291 2.89152 0
M  V30 2181 C 201.728 3.15183 2.91475 0
M  V30 2182 C 200.961 3.28256 4.20813 0
M  V30 2183 O 201.184 2.46798 5.14244 0
M  V30 2184 O 200.118 4.21356 4.29817 0
M  V30 2185 H 203.944 2.7222 1.34647 0
M  V30 2186 H 201.529 1.36698 0.602828 0
M  V30 2187 H 203.411 2.02199 3.69721 0
M  V30 2188 H 202.086 0.998129 3.07927 0
M  V30 2189 H 200.993 3.09739 2.09791 0
M  V30 2190 H 202.326 4.06414 2.77648 0
M  V30 2191 N 203.978 -0.674533 1.42435 0
M  V30 2192 C 204.911 -1.79924 1.40366 0
M  V30 2193 C 205.889 -1.60378 0.267899 0
M  V30 2194 O 207.073 -1.82847 0.458159 0
M  V30 2195 C 204.2 -3.16927 1.19478 0
M  V30 2196 C 203.246 -3.55221 2.36051 0
M  V30 2197 S 204.079 -3.5762 3.98583 0
M  V30 2198 C 205.235 -4.97315 3.80038 0
M  V30 2199 H 205.468 -1.81405 2.35541 0
M  V30 2200 H 203.001 -0.845221 1.29211 0
M  V30 2201 H 204.959 -3.96007 1.08114 0
M  V30 2202 H 203.62 -3.13031 0.258883 0
M  V30 2203 H 202.813 -4.54804 2.17185 0
M  V30 2204 H 202.415 -2.83502 2.43932 0
M  V30 2205 H 204.707 -5.85401 3.41045 0
M  V30 2206 H 205.65 -5.21228 4.79298 0
M  V30 2207 H 206.058 -4.69845 3.12899 0
M  V30 2208 N 205.456 -1.28612 -0.910864 0
M  V30 2209 C 206.419 -1.12803 -1.9952 0
M  V30 2210 C 207.419 -0.0668264 -1.60661 0
M  V30 2211 O 208.609 -0.312847 -1.71368 0
M  V30 2212 C 205.741 -0.72254 -3.33155 0
M  V30 2213 H 206.934 -2.09109 -2.14973 0
M  V30 2214 H 204.487 -1.11639 -1.09391 0
M  V30 2215 H 205.222 0.241152 -3.23402 0
M  V30 2216 H 205.007 -1.48916 -3.62721 0
M  V30 2217 H 206.497 -0.634666 -4.12749 0
M  V30 2218 N 206.934 1.1197 -1.10907 0
M  V30 2219 C 207.882 2.19927 -0.757303 0
M  V30 2220 C 208.876 1.67564 0.248747 0
M  V30 2221 O 210.082 1.79672 0.108605 0
M  V30 2222 H 206.457 0.716925 -0.226987 0
M  V30 2223 H 208.428 2.46847 -1.67658 0
M  V30 2224 C 207.177 3.47061 -0.210671 0
M  V30 2225 H 206.5 3.87703 -0.976049 0
M  V30 2226 H 207.94 4.24 -0.0026584 0
M  V30 2227 C 206.399 3.19864 1.05777 0
M  V30 2228 O 206.929 3.40049 2.13845 0
M  V30 2229 N 205.135 2.73636 0.978349 0
M  V30 2230 H 204.682 2.5741 0.0988246 0
M  V30 2231 H 204.64 2.55815 1.82773 0
M  V30 2232 N 208.412 0.89855 1.29475 0
M  V30 2233 C 209.637 0.538561 2.00285 0
M  V30 2234 C 210.062 -0.869135 1.66816 0
M  V30 2235 O 209.42 -1.57831 0.892145 0
M  V30 2236 C 209.468 0.736475 3.52999 0
M  V30 2237 O 208.572 -0.211537 4.11857 0
M  V30 2238 H 207.913 0.210563 0.62973 0
M  V30 2239 H 210.443 1.20982 1.64998 0
M  V30 2240 H 210.453 0.640685 4.02938 0
M  V30 2241 H 209.128 1.76276 3.76696 0
M  V30 2242 H 207.705 -0.0682991 3.72837 0
M  V30 2243 N 209.89 -1.43072 0.660911 0
M  V30 2244 C 210.82 -2.33497 -0.0122829 0
M  V30 2245 C 211.801 -1.49903 -0.803925 0
M  V30 2246 O 212.986 -1.78546 -0.763864 0
M  V30 2247 C 210.116 -3.33363 -0.973994 0
M  V30 2248 C 209.07 -4.27003 -0.291928 0
M  V30 2249 C 208.396 -5.16967 -1.36562 0
M  V30 2250 C 209.696 -5.15816 0.820462 0
M  V30 2251 H 211.39 -2.90038 0.742873 0
M  V30 2252 H 208.936 -1.39461 0.358688 0
M  V30 2253 H 210.889 -3.95524 -1.45392 0
M  V30 2254 H 209.613 -2.75095 -1.7604 0
M  V30 2255 H 208.272 -3.66217 0.167623 0
M  V30 2256 H 207.92 -4.55034 -2.14366 0
M  V30 2257 H 207.62 -5.80441 -0.914454 0
M  V30 2258 H 209.144 -5.82003 -1.84675 0
M  V30 2259 H 210.558 -5.71742 0.422366 0
M  V30 2260 H 208.955 -5.8805 1.19656 0
M  V30 2261 H 210.025 -4.55045 1.67518 0
M  V30 2262 N 211.368 -0.403325 -1.52352 0
M  V30 2263 C 212.616 0.174003 -2.0135 0
M  V30 2264 C 212.937 1.46139 -1.29106 0
M  V30 2265 O 212.207 1.91448 -0.415253 0
M  V30 2266 H 210.787 0.0672911 -0.743963 0
M  V30 2267 H 213.449 -0.538235 -1.87321 0
M  V30 2268 H 212.545 0.374254 -3.09848 0
M  V30 2269 N 212.846 1.57033 -0.133567 0
M  V30 2270 C 213.776 2.1909 0.807567 0
M  V30 2271 C 214.757 1.13517 1.26681 0
M  V30 2272 O 215.942 1.41809 1.32679 0
M  V30 2273 C 213.072 2.80188 2.05212 0
M  V30 2274 C 212.026 3.91471 1.73015 0
M  V30 2275 C 211.352 4.39443 3.04622 0
M  V30 2276 C 212.652 5.12886 0.987168 0
M  V30 2277 H 214.346 2.97988 0.290403 0
M  V30 2278 H 211.892 1.43335 0.138239 0
M  V30 2279 H 213.845 3.22264 2.71521 0
M  V30 2280 H 212.569 1.98601 2.59278 0
M  V30 2281 H 211.228 3.49993 1.0909 0
M  V30 2282 H 210.876 3.54695 3.56651 0
M  V30 2283 H 210.576 5.14495 2.83847 0
M  V30 2284 H 212.1 4.8418 3.72024 0
M  V30 2285 H 213.514 5.51891 1.55208 0
M  V30 2286 H 211.911 5.93615 0.87985 0
M  V30 2287 H 212.981 4.84894 -0.0235286 0
M  V30 2288 N 214.325 -0.140222 1.56975 0
M  V30 2289 C 215.736 -0.699596 1.73097 0
M  V30 2290 C 216.087 -1.8134 0.749022 0
M  V30 2291 O 215.212 -2.16241 -0.0828503 0
M  V30 2292 C 215.807 -1.27582 3.1386 0
M  V30 2293 C 214.366 -1.78169 3.31561 0
M  V30 2294 C 213.513 -0.672855 2.69013 0
M  V30 2295 H 216.464 0.0855115 1.58469 0
M  V30 2296 H 216.485 -2.14561 3.14235 0
M  V30 2297 H 215.997 -0.464955 3.85305 0
M  V30 2298 H 214.098 -2.61801 2.65124 0
M  V30 2299 H 214.211 -1.90574 4.39566 0
M  V30 2300 H 212.575 -1.10118 2.29665 0
M  V30 2301 H 213.358 0.126679 3.43066 0
M  V30 2302 N 215.803 -1.52179 -0.40978 0
M  V30 2303 C 216.766 -1.74853 -1.48186 0
M  V30 2304 C 217.766 -0.618417 -1.48433 0
M  V30 2305 O 218.956 -0.886286 -1.49969 0
M  V30 2306 C 216.088 -1.8303 -2.87598 0
M  V30 2307 H 217.281 -2.70559 -1.29374 0
M  V30 2308 H 214.834 -1.42586 -0.640233 0
M  V30 2309 H 215.569 -0.89236 -3.11781 0
M  V30 2310 H 215.354 -2.65187 -2.88822 0
M  V30 2311 H 216.844 -2.02316 -3.65319 0
M  V30 2312 N 217.281 0.66697 -1.42791 0
M  V30 2313 C 218.211 1.79218 -1.49677 0
M  V30 2314 C 219.192 1.66405 -0.352623 0
M  V30 2315 O 220.377 1.85708 -0.567993 0
M  V30 2316 C 217.507 3.17565 -1.40605 0
M  V30 2317 C 216.461 3.45124 -2.53127 0
M  V30 2318 C 215.787 4.83127 -2.29112 0
M  V30 2319 C 217.087 3.41236 -3.95418 0
M  V30 2320 H 218.781 1.73713 -2.43853 0
M  V30 2321 H 216.327 0.83432 -1.17367 0
M  V30 2322 H 218.28 3.96022 -1.44029 0
M  V30 2323 H 217.004 3.23767 -0.429271 0
M  V30 2324 H 215.663 2.69031 -2.49034 0
M  V30 2325 H 215.311 4.85988 -1.29709 0
M  V30 2326 H 215.011 5.02528 -3.04531 0
M  V30 2327 H 216.535 5.63859 -2.34297 0
M  V30 2328 H 217.949 4.09651 -4.01073 0
M  V30 2329 H 216.346 3.72173 -4.70752 0
M  V30 2330 H 217.416 2.39665 -4.21532 0
M  V30 2331 N 218.759 1.29093 0.90403 0
M  V30 2332 C 219.706 1.13853 2.00764 0
M  V30 2333 C 220.676 0.0330084 1.66067 0
M  V30 2334 O 221.861 0.199733 1.89752 0
M  V30 2335 C 219.001 0.816537 3.35301 0
M  V30 2336 C 218.114 2.00206 3.82807 0
M  V30 2337 C 217.249 1.61983 5.059 0
M  V30 2338 C 216.288 2.77143 5.45764 0
M  V30 2339 N 215.425 2.39346 6.60044 0
M  V30 2340 H 220.265 2.08276 2.13132 0
M  V30 2341 H 217.802 1.03648 1.04381 0
M  V30 2342 H 219.76 0.610557 4.12708 0
M  V30 2343 H 218.39 -0.090779 3.22672 0
M  V30 2344 H 217.442 2.31988 3.01473 0
M  V30 2345 H 218.754 2.86512 4.08304 0
M  V30 2346 H 217.908 1.37649 5.90879 0
M  V30 2347 H 216.647 0.728202 4.82233 0
M  V30 2348 H 215.652 3.02165 4.59322 0
M  V30 2349 H 216.877 3.66964 5.71414 0
M  V30 2350 H 214.823 1.52665 6.37989 0
M  V30 2351 H 214.74 3.19185 6.85315 0
M  V30 2352 H 216.008 2.1832 7.48303 0
M  V30 2353 N 220.237 -1.11381 1.11499 0
M  V30 2354 C 221.514 -1.7955 0.775965 0
M  V30 2355 C 221.894 -1.97859 -0.73588 0
M  V30 2356 O 221.242 -1.56376 -1.66609 0
M  V30 2357 C 221.452 -3.13196 1.53977 0
M  V30 2358 C 222.8 -3.88227 1.71944 0
M  V30 2359 O 223.824 -3.22887 1.50407 0
M  V30 2360 O 222.683 -5.05477 2.07738 0
M  V30 2361 H 219.777 -0.777728 0.28119 0
M  V30 2362 H 222.323 -1.18118 1.21845 0
M  V30 2363 H 221.095 -2.95229 2.56818 0
M  V30 2364 H 220.718 -3.82342 1.09088 0
M  V30 2365 N 221.715 -0.905404 -1.28997 0
M  V30 2366 C 223.131 -0.60233 -1.47798 0
M  V30 2367 C 223.331 0.854645 -1.82478 0
M  V30 2368 O 222.387 1.63439 -1.92468 0
M  V30 2369 C 223.7 -1.53306 -2.58685 0
M  V30 2370 C 225.248 -1.53887 -2.72558 0
M  V30 2371 C 225.723 -2.45602 -3.86579 0
M  V30 2372 N 227.214 -2.43681 -3.93921 0
M  V30 2373 C 227.949 -3.11347 -4.81509 0
M  V30 2374 N 227.445 -3.88313 -5.73746 0
M  V30 2375 N 229.238 -3.00476 -4.75048 0
M  V30 2376 H 221.389 -1.84765 -1.04764 0
M  V30 2377 H 223.652 -0.792025 -0.520961 0
M  V30 2378 H 223.358 -2.57141 -2.39941 0
M  V30 2379 H 223.232 -1.25787 -3.55609 0
M  V30 2380 H 225.619 -0.507941 -2.90696 0
M  V30 2381 H 225.7 -1.85447 -1.76191 0
M  V30 2382 H 225.344 -3.48792 -3.69197 0
M  V30 2383 H 225.274 -2.11349 -4.82327 0
M  V30 2384 H 227.765 -1.87767 -3.27951 0
M  V30 2385 H 228.078 -4.36985 -6.37389 0
M  V30 2386 H 226.423 -3.92419 -5.73614 0
M  V30 2387 H 229.614 -2.39858 -4.01977 0
M  V30 2388 H 229.787 -3.53485 -5.43095 0
M  V30 2389 N 223.193 1.4272 -0.668489 0
M  V30 2390 C 224.14 2.30796 0.0137489 0
M  V30 2391 C 225.11 1.4561 0.799177 0
M  V30 2392 O 226.295 1.74453 0.772702 0
M  V30 2393 C 223.435 3.31377 0.963507 0
M  V30 2394 C 222.548 4.31655 0.172569 0
M  V30 2395 C 221.683 5.19312 1.1175 0
M  V30 2396 C 220.722 6.11274 0.317886 0
M  V30 2397 N 219.859 6.91504 1.2152 0
M  V30 2398 H 224.699 2.88585 -0.743161 0
M  V30 2399 H 222.236 1.42154 -0.378226 0
M  V30 2400 H 224.194 3.88214 1.52792 0
M  V30 2401 H 222.824 2.75202 1.68712 0
M  V30 2402 H 221.876 3.76988 -0.508374 0
M  V30 2403 H 223.188 4.96779 -0.448527 0
M  V30 2404 H 222.342 5.80851 1.75206 0
M  V30 2405 H 221.081 4.5435 1.77249 0
M  V30 2406 H 220.086 5.48809 -0.329918 0
M  V30 2407 H 221.311 6.78283 -0.332917 0
M  V30 2408 H 219.257 6.29176 1.85671 0
M  V30 2409 H 219.174 7.53209 0.649036 0
M  V30 2410 H 220.442 7.57535 1.83742 0
M  V30 2411 N 224.671 0.411399 1.52136 0
M  V30 2412 C 225.917 -0.156262 2.02799 0
M  V30 2413 C 226.272 -1.42613 1.29149 0
M  V30 2414 O 225.565 -1.87592 0.389839 0
M  V30 2415 C 225.759 -0.455872 3.54481 0
M  V30 2416 C 225.588 0.783404 4.42824 0
M  V30 2417 C 224.358 1.30928 4.88043 0
M  V30 2418 C 226.556 1.66217 4.86699 0
M  V30 2419 N 224.538 2.5038 5.6052 0
M  V30 2420 C 225.909 2.70292 5.5798 0
M  V30 2421 C 227.964 1.67966 4.68713 0
M  V30 2422 C 226.667 3.7603 6.13184 0
M  V30 2423 C 228.693 2.72624 5.24815 0
M  V30 2424 C 228.055 3.7542 5.9602 0
M  V30 2425 H 224.154 -0.0186886 0.781777 0
M  V30 2426 H 226.738 0.566255 1.86284 0
M  V30 2427 H 224.909 -1.14743 3.71064 0
M  V30 2428 H 226.641 -1.01261 3.91827 0
M  V30 2429 H 223.396 0.866977 4.65597 0
M  V30 2430 H 223.82 3.10881 6.014 0
M  V30 2431 H 228.462 0.898312 4.13147 0
M  V30 2432 H 226.18 4.55019 6.6782 0
M  V30 2433 H 229.766 2.74887 5.12765 0
M  V30 2434 H 228.646 4.55073 6.38654 0
M  V30 2435 N 226.149 -1.5696 0.141893 0
M  V30 2436 C 227.081 -2.13619 -0.830627 0
M  V30 2437 C 228.094 -1.08439 -1.21428 0
M  V30 2438 O 229.283 -1.35734 -1.15925 0
M  V30 2439 C 226.383 -2.63978 -2.12529 0
M  V30 2440 C 225.556 -3.93504 -1.9098 0
M  V30 2441 C 224.615 -4.29225 -3.04388 0
M  V30 2442 O 223.641 -4.97641 -2.76302 0
M  V30 2443 N 224.843 -3.88393 -4.31429 0
M  V30 2444 H 227.608 -2.97691 -0.34641 0
M  V30 2445 H 225.169 -1.61846 -0.0418375 0
M  V30 2446 H 227.161 -2.84891 -2.87436 0
M  V30 2447 H 225.731 -1.84659 -2.52229 0
M  V30 2448 H 224.951 -3.81269 -1.00139 0
M  V30 2449 H 226.239 -4.78154 -1.73914 0
M  V30 2450 H 225.637 -3.33257 -4.57117 0
M  V30 2451 H 224.194 -4.14368 -5.03133 0
M  V30 2452 N 227.627 0.131896 -1.57047 0
M  V30 2453 C 228.876 0.84044 -1.83356 0
M  V30 2454 C 229.189 1.81646 -0.725535 0
M  V30 2455 O 230.395 2.57025 -0.874659 0
M  V30 2456 C 228.851 1.54528 -3.25037 0
M  V30 2457 C 228.459 0.610902 -4.43815 0
M  V30 2458 C 230.203 2.23972 -3.60606 0
M  V30 2459 C 228.11 1.31823 -5.76521 0
M  V30 2460 H 227.04 0.317599 -0.683847 0
M  V30 2461 H 229.691 0.0931561 -1.83263 0
M  V30 2462 H 228.073 2.33873 -3.19561 0
M  V30 2463 H 229.247 -0.148407 -4.60561 0
M  V30 2464 H 227.562 0.0241016 -4.16393 0
M  V30 2465 H 230.159 2.77558 -4.57018 0
M  V30 2466 H 230.502 3.01173 -2.87403 0
M  V30 2467 H 231.035 1.51529 -3.6781 0
M  V30 2468 H 227.774 0.587771 -6.52859 0
M  V30 2469 H 227.294 2.04987 -5.63685 0
M  V30 2470 H 228.973 1.855 -6.19838 0
M  V30 2471 N 229.106 1.52395 0.401703 0
M  V30 2472 C 230.353 1.66817 1.14796 0
M  V30 2473 C 230.681 0.401772 1.90305 0
M  V30 2474 O 229.936 -0.615487 1.85769 0
M  V30 2475 C 230.235 2.84578 2.16217 0
M  V30 2476 C 229.901 4.22513 1.5746 0
M  V30 2477 C 228.563 4.60029 1.41161 0
M  V30 2478 C 230.915 5.0844 1.14622 0
M  V30 2479 C 228.243 5.81144 0.80552 0
M  V30 2480 C 230.595 6.30167 0.55428 0
M  V30 2481 C 229.259 6.66426 0.378482 0
M  V30 2482 H 228.529 0.610428 0.420069 0
M  V30 2483 H 231.176 1.86512 0.434212 0
M  V30 2484 H 229.481 2.59248 2.93764 0
M  V30 2485 H 231.178 2.92933 2.73845 0
M  V30 2486 H 227.768 3.92953 1.71132 0
M  V30 2487 H 231.952 4.80034 1.26021 0
M  V30 2488 H 227.208 6.07855 0.657399 0
M  V30 2489 H 231.382 6.96071 0.213983 0
M  V30 2490 H 229.009 7.60143 -0.0932606 0
M  V30 2491 N 230.584 -0.659388 1.43143 0
M  V30 2492 C 231.531 -1.77249 1.47822 0
M  V30 2493 C 232.501 -1.62818 0.328558 0
M  V30 2494 O 233.686 -1.83151 0.534838 0
M  V30 2495 C 230.826 -3.15371 1.40126 0
M  V30 2496 C 229.939 -3.4098 2.65249 0
M  V30 2497 C 229.074 -4.68915 2.49584 0
M  V30 2498 C 228.113 -4.87608 3.70006 0
M  V30 2499 N 227.25 -6.06796 3.53189 0
M  V30 2500 H 232.09 -1.72584 2.42938 0
M  V30 2501 H 229.627 -0.842297 1.20598 0
M  V30 2502 H 231.585 -3.9521 1.33659 0
M  V30 2503 H 230.215 -3.19121 0.485964 0
M  V30 2504 H 229.267 -2.55282 2.8202 0
M  V30 2505 H 230.579 -3.50681 3.54717 0
M  V30 2506 H 229.733 -5.56871 2.4079 0
M  V30 2507 H 228.472 -4.61524 1.5763 0
M  V30 2508 H 227.477 -3.9809 3.79215 0
M  V30 2509 H 228.702 -4.96834 4.62961 0
M  V30 2510 H 226.648 -6.00549 2.63965 0
M  V30 2511 H 226.565 -6.17428 4.36255 0
M  V30 2512 H 227.833 -6.9739 3.48236 0
M  V30 2513 N 232.062 -1.29571 -0.897171 0
M  V30 2514 C 233.29 -1.20583 -1.68129 0
M  V30 2515 C 233.705 0.233181 -1.87354 0
M  V30 2516 O 233.062 1.15579 -1.41236 0
M  V30 2517 C 233.113 -1.91772 -3.06441 0
M  V30 2518 O 232.834 -3.30053 -2.88091 0
M  V30 2519 C 234.335 -1.89291 -4.00854 0
M  V30 2520 H 231.555 -0.417826 -0.525036 0
M  V30 2521 H 234.099 -1.70987 -1.12177 0
M  V30 2522 H 232.254 -1.45196 -3.59161 0
M  V30 2523 H 232.668 -3.65942 -3.75748 0
M  V30 2524 H 234.142 -2.43662 -4.95311 0
M  V30 2525 H 234.619 -0.869014 -4.30517 0
M  V30 2526 H 235.225 -2.35622 -3.54066 0
M  V30 2527 N 233.54 1.10788 -1.12088 0
M  V30 2528 C 234.765 1.87002 -0.896949 0
M  V30 2529 C 235.19 1.79933 0.548261 0
M  V30 2530 O 234.548 1.16662 1.38779 0
M  V30 2531 C 234.596 3.3349 -1.37174 0
M  V30 2532 O 233.7 4.08745 -0.547831 0
M  V30 2533 H 233.041 0.580397 -0.322545 0
M  V30 2534 H 235.571 1.39996 -1.49206 0
M  V30 2535 H 235.581 3.84339 -1.36922 0
M  V30 2536 H 234.256 3.37951 -2.42408 0
M  V30 2537 H 232.833 3.6776 -0.617034 0
M  V30 2538 N 235.018 0.912232 1.28515 0
M  V30 2539 C 235.981 0.404223 2.25607 0
M  V30 2540 C 236.981 -0.468602 1.53821 0
M  V30 2541 O 238.171 -0.271873 1.72065 0
M  V30 2542 C 235.303 -0.420653 3.38295 0
M  V30 2543 H 236.496 1.26188 2.7206 0
M  V30 2544 H 234.049 0.691495 1.40171 0
M  V30 2545 H 234.784 -1.29777 2.97201 0
M  V30 2546 H 234.569 0.204935 3.91564 0
M  V30 2547 H 236.059 -0.766971 4.10496 0
M  V30 2548 N 236.496 -1.42363 0.676048 0
M  V30 2549 C 237.724 -2.05859 0.207268 0
M  V30 2550 C 238.139 -1.50796 -1.13605 0
M  V30 2551 O 237.496 -0.648265 -1.70598 0
M  V30 2552 C 237.547 -3.61248 0.134975 0
M  V30 2553 O 237.268 -4.1427 1.42521 0
M  V30 2554 C 238.769 -4.41859 -0.357151 0
M  V30 2555 H 235.989 -0.663431 0.100503 0
M  V30 2556 H 238.533 -1.82479 0.923136 0
M  V30 2557 H 236.688 -3.83735 -0.531588 0
M  V30 2558 H 237.102 -5.0815 1.29939 0
M  V30 2559 H 238.576 -5.50847 -0.356641 0
M  V30 2560 H 239.053 -4.16536 -1.39264 0
M  V30 2561 H 239.659 -4.24392 0.27772 0
M  V30 2562 N 237.974 -0.419461 -1.51915 0
M  V30 2563 C 238.921 0.400927 -2.27291 0
M  V30 2564 C 239.891 1.03224 -1.30131 0
M  V30 2565 O 241.076 1.05455 -1.59009 0
M  V30 2566 C 238.216 1.50603 -3.10504 0
M  V30 2567 C 237.329 0.89462 -4.22635 0
M  V30 2568 C 236.464 1.97328 -4.93189 0
M  V30 2569 C 235.503 1.33935 -5.97267 0
M  V30 2570 N 234.64 2.3586 -6.61298 0
M  V30 2571 H 239.48 -0.248251 -2.96964 0
M  V30 2572 H 237.017 -0.134266 -1.46486 0
M  V30 2573 H 238.975 2.15783 -3.57062 0
M  V30 2574 H 237.605 2.12509 -2.42981 0
M  V30 2575 H 236.657 0.131583 -3.80172 0
M  V30 2576 H 237.969 0.391641 -4.9726 0
M  V30 2577 H 237.123 2.70211 -5.43204 0
M  V30 2578 H 235.862 2.50994 -4.18155 0
M  V30 2579 H 234.867 0.595896 -5.46561 0
M  V30 2580 H 236.092 0.810252 -6.74249 0
M  V30 2581 H 234.038 2.88639 -5.89087 0
M  V30 2582 H 233.955 1.90403 -7.3163 0
M  V30 2583 H 235.223 3.08282 -7.15949 0
M  V30 2584 N 239.452 1.56882 -0.150215 0
M  V30 2585 C 240.7 1.9584 0.499105 0
M  V30 2586 C 241.021 1.03623 1.65188 0
M  V30 2587 O 240.291 0.0984084 1.95653 0
M  V30 2588 H 238.871 0.723119 0.187373 0
M  V30 2589 H 241.533 1.9358 -0.226466 0
M  V30 2590 H 240.629 2.99638 0.873122 0
M  V30 2591 N 240.93 -0.123565 1.57115 0
M  V30 2592 C 242.158 -0.846461 1.88793 0
M  V30 2593 C 242.573 -1.73652 0.740976 0
M  V30 2594 O 241.93 -1.80207 -0.288393 0
M  V30 2595 C 241.981 -1.6837 3.19897 0
M  V30 2596 O 241.702 -0.829477 4.30176 0
M  V30 2597 C 243.203 -2.51214 3.65248 0
M  V30 2598 H 240.423 -0.243573 0.625231 0
M  V30 2599 H 242.967 -0.109324 2.04208 0
M  V30 2600 H 241.122 -2.37364 3.06165 0
M  V30 2601 H 241.536 -1.40651 5.0529 0
M  V30 2602 H 243.01 -3.05497 4.59756 0
M  V30 2603 H 243.487 -3.28359 2.9168 0
M  V30 2604 H 244.093 -1.8747 3.81752 0
M  V30 2605 N 242.408 -1.52605 -0.393616 0
M  V30 2606 C 243.656 -1.67093 -1.13685 0
M  V30 2607 C 243.977 -0.411011 -1.90619 0
M  V30 2608 O 243.247 0.574491 -1.87287 0
M  V30 2609 H 241.827 -0.615923 -0.422668 0
M  V30 2610 H 244.489 -1.89704 -0.447039 0
M  V30 2611 H 243.585 -2.51922 -1.84232 0
M  V30 2612 N 243.887 0.651787 -1.4349 0
M  V30 2613 C 244.817 1.77621 -1.51569 0
M  V30 2614 C 245.798 1.66022 -0.370253 0
M  V30 2615 O 246.983 1.85095 -0.587658 0
M  V30 2616 C 244.113 3.16056 -1.43966 0
M  V30 2617 C 243.067 3.4242 -2.56774 0
M  V30 2618 C 242.393 4.8067 -2.34223 0
M  V30 2619 C 243.693 3.37023 -3.99015 0
M  V30 2620 H 245.387 1.71117 -2.45681 0
M  V30 2621 H 242.933 0.821825 -1.18246 0
M  V30 2622 H 244.886 3.94472 -1.48221 0
M  V30 2623 H 243.61 3.23293 -0.463586 0
M  V30 2624 H 242.269 2.66375 -2.51873 0
M  V30 2625 H 241.917 4.84585 -1.34856 0
M  V30 2626 H 241.617 4.9927 -3.09844 0
M  V30 2627 H 243.141 5.61342 -2.40265 0
M  V30 2628 H 244.555 4.05374 -4.05395 0
M  V30 2629 H 242.952 3.67159 -4.74673 0
M  V30 2630 H 244.022 2.3518 -4.2405 0
M  V30 2631 N 245.365 1.30045 0.890287 0
M  V30 2632 C 246.642 1.09227 1.62262 0
M  V30 2633 C 247.022 -0.360305 2.08002 0
M  V30 2634 O 246.37 -1.35084 1.84295 0
M  V30 2635 C 246.58 2.08835 2.79623 0
M  V30 2636 C 247.928 2.40266 3.50082 0
M  V30 2637 O 248.952 2.07104 2.89804 0
M  V30 2638 O 247.811 2.96967 4.58773 0
M  V30 2639 H 244.905 0.419132 0.712922 0
M  V30 2640 H 247.451 1.41451 0.937529 0
M  V30 2641 H 246.223 3.06633 2.43089 0
M  V30 2642 H 245.846 1.77397 3.55832 0
M  V30 2643 N 246.843 -1.10192 1.12674 0
M  V30 2644 C 247.753 -2.20172 0.810026 0
M  V30 2645 C 248.769 -1.72821 -0.202188 0
M  V30 2646 O 249.945 -2.01369 -0.0351691 0
M  V30 2647 C 247.01 -3.45631 0.272007 0
M  V30 2648 C 246.071 -4.07704 1.34447 0
M  V30 2649 C 245.304 -5.27175 0.832029 0
M  V30 2650 O 245.527 -5.69425 -0.333284 0
M  V30 2651 O 244.461 -5.80168 1.60277 0
M  V30 2652 H 248.287 -2.49701 1.72867 0
M  V30 2653 H 245.872 -1.18977 0.903597 0
M  V30 2654 H 247.754 -4.21394 -0.0230219 0
M  V30 2655 H 246.429 -3.17723 -0.619164 0
M  V30 2656 H 245.336 -3.33614 1.6927 0
M  V30 2657 H 246.669 -4.3982 2.2095 0
M  V30 2658 N 248.321 -0.919034 -1.28029 0
M  V30 2659 C 249.284 -0.416182 -2.2539 0
M  V30 2660 C 250.284 0.460438 -1.54067 0
M  V30 2661 O 251.474 0.262744 -1.72207 0
M  V30 2662 C 248.606 0.402707 -3.38513 0
M  V30 2663 H 249.799 -1.27629 -2.71387 0
M  V30 2664 H 247.352 -0.698919 -1.39803 0
M  V30 2665 H 248.087 1.282 -2.97885 0
M  V30 2666 H 247.872 -0.225698 -3.9145 0
M  V30 2667 H 249.362 0.745191 -4.10897 0
M  V30 2668 N 249.799 1.42003 -0.683588 0
M  V30 2669 C 250.732 2.28166 0.039592 0
M  V30 2670 C 251.71 1.41562 0.799942 0
M  V30 2671 O 252.894 1.70997 0.793248 0
M  V30 2672 C 250.021 3.21575 1.06335 0
M  V30 2673 C 249.067 4.24643 0.397562 0
M  V30 2674 S 249.9 5.2869 -0.851296 0
M  V30 2675 C 251.056 6.25666 0.171166 0
M  V30 2676 H 251.289 2.89153 -0.691229 0
M  V30 2677 H 248.822 1.46962 -0.473435 0
M  V30 2678 H 250.78 3.75928 1.6489 0
M  V30 2679 H 249.441 2.59707 1.76667 0
M  V30 2680 H 248.634 4.90223 1.17035 0
M  V30 2681 H 248.236 3.73824 -0.114611 0
M  V30 2682 H 250.528 6.69653 1.02819 0
M  V30 2683 H 251.471 7.06666 -0.450397 0
M  V30 2684 H 251.879 5.62095 0.520578 0
M  V30 2685 N 251.277 0.427512 1.51691 0
M  V30 2686 C 252.187 -0.39527 2.31246 0
M  V30 2687 C 253.203 -1.03674 1.39742 0
M  V30 2688 O 254.379 -1.03425 1.72816 0
M  V30 2689 C 251.444 -1.48706 3.13189 0
M  V30 2690 C 250.505 -0.866743 4.20459 0
M  V30 2691 C 249.738 -1.90651 4.98486 0
M  V30 2692 O 249.961 -3.12733 4.77026 0
M  V30 2693 O 248.895 -1.5025 5.82845 0
M  V30 2694 H 252.721 0.253918 3.02637 0
M  V30 2695 H 250.306 0.190274 1.48183 0
M  V30 2696 H 252.188 -2.12047 3.64162 0
M  V30 2697 H 250.863 -2.12051 2.44573 0
M  V30 2698 H 249.77 -0.195544 3.73589 0
M  V30 2699 H 251.103 -0.276934 4.9142 0
M  V30 2700 N 252.755 -1.56801 0.158532 0
M  V30 2701 C 254.001 -1.97559 -0.483957 0
M  V30 2702 C 254.356 -1.04239 -1.61716 0
M  V30 2703 O 253.649 -0.079603 -1.91435 0
M  V30 2704 C 253.843 -3.4235 -1.02623 0
M  V30 2705 C 253.672 -4.49669 0.0528929 0
M  V30 2706 C 252.442 -5.02838 0.498234 0
M  V30 2707 C 254.64 -5.0725 0.848616 0
M  V30 2708 N 252.622 -5.93775 1.559 0
M  V30 2709 C 253.993 -5.94506 1.7596 0
M  V30 2710 C 256.048 -4.89788 0.895121 0
M  V30 2711 C 254.751 -6.66169 2.71314 0
M  V30 2712 C 256.777 -5.62161 1.83654 0
M  V30 2713 C 256.139 -6.49134 2.73503 0
M  V30 2714 H 252.238 -0.768332 -0.145566 0
M  V30 2715 H 254.822 -1.93012 0.255799 0
M  V30 2716 H 252.993 -3.47467 -1.73555 0
M  V30 2717 H 254.725 -3.70145 -1.63629 0
M  V30 2718 H 251.48 -4.73498 0.0983222 0
M  V30 2719 H 251.904 -6.43948 2.08949 0
M  V30 2720 H 256.546 -4.22255 0.21453 0
M  V30 2721 H 254.264 -7.32923 3.40367 0
M  V30 2722 H 257.85 -5.5064 1.87847 0
M  V30 2723 H 256.73 -7.04153 3.45163 0
M  V30 2724 N 254.233 0.115231 -1.57178 0
M  V30 2725 C 255.163 1.1423 -2.03651 0
M  V30 2726 C 256.144 1.42967 -0.921655 0
M  V30 2727 O 257.329 1.53343 -1.19162 0
M  V30 2728 C 254.459 2.4675 -2.44401 0
M  V30 2729 C 253.413 2.32467 -3.59365 0
M  V30 2730 C 252.739 3.69984 -3.86026 0
M  V30 2731 C 254.039 1.78203 -4.90959 0
M  V30 2732 H 255.733 0.755749 -2.89705 0
M  V30 2733 H 253.279 0.362093 -1.39373 0
M  V30 2734 H 255.232 3.18854 -2.75517 0
M  V30 2735 H 253.956 2.87302 -1.55322 0
M  V30 2736 H 252.615 1.62811 -3.28463 0
M  V30 2737 H 252.263 4.08028 -2.94147 0
M  V30 2738 H 251.963 3.61279 -4.63412 0
M  V30 2739 H 253.487 4.43587 -4.19599 0
M  V30 2740 H 254.901 2.40128 -5.20587 0
M  V30 2741 H 253.298 1.8031 -5.72371 0
M  V30 2742 H 254.368 0.739876 -4.79222 0
M  V30 2743 N 255.711 1.52812 0.385517 0
M  V30 2744 C 256.957 1.68275 1.13188 0
M  V30 2745 C 257.29 0.423179 1.89533 0
M  V30 2746 O 256.565 -0.579113 1.85679 0
M  V30 2747 C 256.848 2.92001 2.1073 0
M  V30 2748 C 256.701 4.28067 1.38125 0
M  V30 2749 C 258.02 3.11283 3.11113 0
M  V30 2750 H 255.139 0.612352 0.410115 0
M  V30 2751 H 257.781 1.85415 0.414869 0
M  V30 2752 H 255.931 2.77519 2.71874 0
M  V30 2753 H 257.603 4.54324 0.799187 0
M  V30 2754 H 255.846 4.28388 0.683092 0
M  V30 2755 H 256.517 5.10733 2.09417 0
M  V30 2756 H 258.993 3.2482 2.6006 0
M  V30 2757 H 257.869 3.99325 3.76605 0
M  V30 2758 H 258.13 2.25656 3.80173 0
M  V30 2759 N 257.189 -0.644168 1.43834 0
M  V30 2760 C 258.099 -1.78563 1.52159 0
M  V30 2761 C 259.115 -1.69147 0.408069 0
M  V30 2762 O 260.291 -1.90156 0.663524 0
M  V30 2763 C 257.356 -3.14888 1.45073 0
M  V30 2764 C 256.417 -3.36034 2.6717 0
M  V30 2765 C 255.65 -4.65855 2.60413 0
M  V30 2766 O 255.873 -5.45805 1.65689 0
M  V30 2767 O 254.807 -4.88918 3.5106 0
M  V30 2768 H 258.633 -1.74494 2.48567 0
M  V30 2769 H 256.218 -0.80378 1.25935 0
M  V30 2770 H 258.1 -3.96179 1.43597 0
M  V30 2771 H 256.775 -3.19528 0.518037 0
M  V30 2772 H 255.682 -2.54472 2.74217 0
M  V30 2773 H 257.015 -3.36247 3.59442 0
M  V30 2774 N 258.668 -1.30515 -0.883378 0
M  V30 2775 C 259.896 -1.22359 -1.66841 0
M  V30 2776 C 260.311 0.213296 -1.87591 0
M  V30 2777 O 259.668 1.14075 -1.42454 0
M  V30 2778 C 259.719 -1.95011 -3.04389 0
M  V30 2779 O 259.44 -3.3309 -2.84575 0
M  V30 2780 C 260.941 -1.93532 -3.98824 0
M  V30 2781 H 258.161 -0.423371 -0.520575 0
M  V30 2782 H 260.705 -1.72167 -1.10357 0
M  V30 2783 H 258.86 -1.48997 -3.57601 0
M  V30 2784 H 259.274 -3.69907 -3.71846 0
M  V30 2785 H 260.748 -2.48902 -4.92699 0
M  V30 2786 H 261.225 -0.914627 -4.29571 0
M  V30 2787 H 261.831 -2.39364 -3.51547 0
M  V30 2788 N 260.146 1.09593 -1.13257 0
M  V30 2789 C 261.076 2.18214 -0.830946 0
M  V30 2790 C 262.057 1.68812 0.208966 0
M  V30 2791 O 263.242 1.9408 0.0682666 0
M  V30 2792 C 260.372 3.46051 -0.294296 0
M  V30 2793 C 259.326 4.08778 -1.26826 0
M  V30 2794 C 258.652 5.31419 -0.591449 0
M  V30 2795 C 259.952 4.51476 -2.62615 0
M  V30 2796 H 261.646 2.43703 -1.73923 0
M  V30 2797 H 259.192 1.17128 -0.837675 0
M  V30 2798 H 261.145 4.2134 -0.0709606 0
M  V30 2799 H 259.869 3.20079 0.649366 0
M  V30 2800 H 258.528 3.35505 -1.47756 0
M  V30 2801 H 258.176 5.01727 0.357633 0
M  V30 2802 H 257.876 5.74341 -1.24123 0
M  V30 2803 H 259.4 6.09433 -0.377355 0
M  V30 2804 H 260.814 5.17999 -2.45663 0
M  V30 2805 H 259.211 5.05277 -3.23752 0
M  V30 2806 H 260.281 3.63962 -3.20406 0
M  V30 2807 N 261.624 0.925811 1.2754 0
M  V30 2808 C 262.571 0.422045 2.26908 0
M  V30 2809 C 263.541 -0.510029 1.58076 0
M  V30 2810 O 264.726 -0.429599 1.85901 0
M  V30 2811 C 261.866 -0.320837 3.43605 0
M  V30 2812 C 260.979 0.64513 4.27156 0
M  V30 2813 C 260.114 -0.117405 5.3107 0
M  V30 2814 C 259.153 0.841391 6.0629 0
M  V30 2815 N 258.29 0.111604 7.02011 0
M  V30 2816 H 263.13 1.27441 2.69375 0
M  V30 2817 H 260.667 0.639697 1.32462 0
M  V30 2818 H 262.625 -0.76785 4.10073 0
M  V30 2819 H 261.255 -1.13745 3.02096 0
M  V30 2820 H 260.307 1.21067 3.6062 0
M  V30 2821 H 261.619 1.37797 4.79389 0
M  V30 2822 H 260.773 -0.624422 6.03478 0
M  V30 2823 H 259.512 -0.883219 4.79636 0
M  V30 2824 H 258.517 1.35967 5.32722 0
M  V30 2825 H 259.742 1.60696 6.59813 0
M  V30 2826 H 257.688 -0.635999 6.5291 0
M  V30 2827 H 257.605 0.784044 7.51923 0
M  V30 2828 H 258.873 -0.374823 7.78598 0
M  V30 2829 N 263.102 -1.41638 0.69111 0
M  V30 2830 C 264.327 -2.06148 0.227583 0
M  V30 2831 C 264.752 -1.51652 -1.11281 0
M  V30 2832 O 264.11 -0.64164 -1.69566 0
M  V30 2833 C 264.158 -3.60095 0.190858 0
M  V30 2834 O 263.262 -4.03845 -0.835664 0
M  V30 2835 H 262.603 -0.654434 0.112306 0
M  V30 2836 H 265.133 -1.81484 0.944714 0
M  V30 2837 H 265.143 -4.07995 0.020207 0
M  V30 2838 H 263.818 -3.99129 1.16915 0
M  V30 2839 H 262.395 -3.67458 -0.63473 0
M  V30 2840 N 264.58 -0.43555 -1.51462 0
M  V30 2841 C 265.996 -0.0877501 -1.59359 0
M  V30 2842 C 266.196 1.4027 -1.4466 0
M  V30 2843 O 265.252 2.17243 -1.28693 0
M  V30 2844 C 266.565 -0.606264 -2.94525 0
M  V30 2845 C 268.113 -0.566548 -3.0783 0
M  V30 2846 C 268.588 -1.06201 -4.45517 0
M  V30 2847 N 270.079 -1.01992 -4.51832 0
M  V30 2848 C 270.814 -1.37417 -5.5669 0
M  V30 2849 N 270.31 -1.80119 -6.68976 0
M  V30 2850 N 272.103 -1.29245 -5.47039 0
M  V30 2851 H 264.254 -1.40533 -1.59261 0
M  V30 2852 H 266.517 -0.578992 -0.750648 0
M  V30 2853 H 266.223 -1.64901 -3.10645 0
M  V30 2854 H 266.097 -0.0302097 -3.77188 0
M  V30 2855 H 268.484 0.467208 -2.91378 0
M  V30 2856 H 268.565 -1.17898 -2.2701 0
M  V30 2857 H 268.209 -2.09422 -4.62715 0
M  V30 2858 H 268.139 -0.426127 -5.24873 0
M  V30 2859 H 270.63 -0.706308 -3.71241 0
M  V30 2860 H 270.943 -2.05392 -7.45006 0
M  V30 2861 H 269.288 -1.84044 -6.70189 0
M  V30 2862 H 272.479 -0.957522 -4.58202 0
M  V30 2863 H 272.652 -1.57182 -6.28648 0
M  V30 2864 N 266.058 1.56714 -0.166846 0
M  V30 2865 C 266.99 2.14914 0.796537 0
M  V30 2866 C 268.003 1.10357 1.19688 0
M  V30 2867 O 269.192 1.37561 1.13751 0
M  V30 2868 C 266.292 2.67326 2.08303 0
M  V30 2869 C 265.465 3.96493 1.84696 0
M  V30 2870 C 264.524 4.34014 2.97521 0
M  V30 2871 O 263.55 5.01973 2.6835 0
M  V30 2872 N 264.752 3.95208 4.25196 0
M  V30 2873 H 267.517 2.98205 0.299006 0
M  V30 2874 H 265.078 1.61892 0.0160839 0
M  V30 2875 H 267.07 2.89428 2.82867 0
M  V30 2876 H 265.64 1.88649 2.4926 0
M  V30 2877 H 264.86 3.82814 0.940602 0
M  V30 2878 H 266.148 4.8086 1.66285 0
M  V30 2879 H 265.546 3.40487 4.51758 0
M  V30 2880 H 264.103 4.2232 4.96477 0
M  V30 2881 O 267.575 0.0288451 1.61474 0
M  V30 2882 H 268.266 -0.583771 1.84694 0
M  V30 END ATOM
M  V30 BEGIN BOND
M  V30 END BOND
M  V30 END CTAB
M  END
$$$$
