drugbank_target|P40763 Signal transducer and activator of transcription 3 (DB05959)
 OpenBabel12092120323D

  0  0  0     0  0            999 V3000
M  V30 BEGIN CTAB
M  V30 COUNTS 12334 12461 0 0 0
M  V30 BEGIN ATOM
M  V30 1 H -0.908 1.98254 -0.117106 0
M  V30 2 N 0 1.576 0 0
M  V30 3 C 0.933 2.03868 1.02534 0
M  V30 4 C 1.911 0.928543 1.3348 0
M  V30 5 O 3.095 1.19667 1.45644 0
M  V30 6 C 0.222 2.43627 2.35294 0
M  V30 7 C -0.732 3.65373 2.2001 0
M  V30 8 S 0.101 5.13292 1.52614 0
M  V30 9 C 1.257 5.56322 2.86805 0
M  V30 10 H 1.49 2.90518 0.631377 0
M  V30 11 H -0.977 1.52953 0.210867 0
M  V30 12 H 0.981 2.67203 3.11629 0
M  V30 13 H -0.358 1.57376 2.7183 0
M  V30 14 H -1.165 3.90944 3.18086 0
M  V30 15 H -1.563 3.418 1.51819 0
M  V30 16 H 0.729 5.58782 3.83104 0
M  V30 17 H 1.672 6.56266 2.65933 0
M  V30 18 H 2.08 4.83886 2.90714 0
M  V30 19 N 1.4781 -0.272755 1.55222 0
M  V30 20 C 2.4411 -1.32041 1.87344 0
M  V30 21 C 3.4411 -1.42342 0.74803 0
M  V30 22 O 4.6311 -1.41488 1.0162 0
M  V30 23 C 1.7631 -2.70173 2.07893 0
M  V30 24 H 2.9561 -1.04789 2.80997 0
M  V30 25 H 0.5091 -0.51083 1.47717 0
M  V30 26 H 1.2441 -3.02605 1.16622 0
M  V30 27 H 1.0291 -2.64082 2.89833 0
M  V30 28 H 2.5191 -3.45869 2.34017 0
M  V30 29 N 2.9562 -1.48159 -0.537278 0
M  V30 30 C 3.8882 -1.58218 -1.65831 0
M  V30 31 C 4.9012 -0.466948 -1.5596 0
M  V30 32 O 6.0902 -0.73747 -1.62553 0
M  V30 33 C 3.1902 -1.48906 -3.04434 0
M  V30 34 C 2.3632 -2.75343 -3.3986 0
M  V30 35 C 1.4222 -2.59588 -4.57712 0
M  V30 36 O 0.4482 -3.33457 -4.61297 0
M  V30 37 N 1.6502 -1.68724 -5.55439 0
M  V30 38 H 4.4152 -2.54891 -1.57641 0
M  V30 39 H 1.9762 -1.4479 -0.724386 0
M  V30 40 H 3.9682 -1.36072 -3.81139 0
M  V30 41 H 2.5382 -0.602368 -3.06741 0
M  V30 42 H 1.7582 -3.02795 -2.52406 0
M  V30 43 H 3.0462 -3.5924 -3.60311 0
M  V30 44 H 2.4442 -1.07898 -5.55315 0
M  V30 45 H 1.0012 -1.61832 -6.3139 0
M  V30 46 N 4.4343 0.785586 -1.36625 0
M  V30 47 C 5.6803 1.5452 -1.32269 0
M  V30 48 C 6.0353 1.92159 0.0962266 0
M  V30 49 O 5.3283 1.60158 1.05167 0
M  V30 50 C 5.5223 2.83007 -2.1827 0
M  V30 51 C 5.3513 2.57925 -3.68382 0
M  V30 52 C 4.1213 2.52752 -4.37544 0
M  V30 53 C 6.3193 2.26861 -4.61561 0
M  V30 54 N 4.3013 2.19608 -5.73276 0
M  V30 55 C 5.6723 2.03738 -5.85569 0
M  V30 56 C 7.7273 2.129 -4.50087 0
M  V30 57 C 6.4303 1.68065 -6.9939 0
M  V30 58 C 8.4563 1.78626 -5.63779 0
M  V30 59 C 7.8183 1.56353 -6.86828 0
M  V30 60 H 3.9173 0.566301 -0.539283 0
M  V30 61 H 6.5013 0.917736 -1.71714 0
M  V30 62 H 4.6723 3.43614 -1.81063 0
M  V30 63 H 6.4043 3.48775 -2.05275 0
M  V30 64 H 3.1593 2.6813 -3.90389 0
M  V30 65 H 3.5833 2.05771 -6.44971 0
M  V30 66 H 8.2253 2.28808 -3.55537 0
M  V30 67 H 5.9433 1.50895 -7.93887 0
M  V30 68 H 9.5293 1.68502 -5.56865 0
M  V30 69 H 8.4093 1.30223 -7.73312 0
M  V30 70 N 5.9124 1.20967 1.01018 0
M  V30 71 C 6.8604 0.961223 2.1181 0
M  V30 72 C 7.8544 -0.0897034 1.69162 0
M  V30 73 O 9.0604 0.0612271 1.79896 0
M  V30 74 H 5.4354 0.29355 0.692338 0
M  V30 75 H 7.4064 1.90178 2.29946 0
M  V30 76 C 6.1554 0.536854 3.4353 0
M  V30 77 H 5.4784 1.33713 3.76777 0
M  V30 78 H 6.9184 0.402286 4.22087 0
M  V30 79 C 5.3774 -0.751574 3.2841 0
M  V30 80 O 5.9074 -1.80841 3.58691 0
M  V30 81 N 4.1134 -0.716079 2.81639 0
M  V30 82 H 3.6604 0.144236 2.57196 0
M  V30 83 H 3.6184 -1.57847 2.71904 0
M  V30 84 N 7.3905 -1.2043 1.01659 0
M  V30 85 C 8.3225 -2.22626 0.544988 0
M  V30 86 C 9.3355 -1.58479 -0.372609 0
M  V30 87 O 10.5245 -1.77679 -0.170958 0
M  V30 88 C 7.6245 -3.38141 -0.22663 0
M  V30 89 C 6.7975 -4.31877 0.692876 0
M  V30 90 C 5.8565 -5.26191 -0.0311616 0
M  V30 91 O 4.8825 -5.6612 0.591343 0
M  V30 92 N 6.0845 -5.65618 -1.30601 0
M  V30 93 H 8.8495 -2.63716 1.42388 0
M  V30 94 H 6.4105 -1.34971 0.894116 0
M  V30 95 H 8.4025 -3.98239 -0.72024 0
M  V30 96 H 6.9725 -2.95943 -1.00681 0
M  V30 97 H 6.1925 -3.69746 1.36679 0
M  V30 98 H 7.4805 -4.91426 1.31824 0
M  V30 99 H 6.8785 -5.3519 -1.83269 0
M  V30 100 H 5.4355 -6.28025 -1.74435 0
M  V30 101 N 8.8686 -0.792821 -1.36206 0
M  V30 102 C 9.7986 -0.207853 -2.32573 0
M  V30 103 C 10.7796 0.659055 -1.56813 0
M  V30 104 O 11.9646 0.592176 -1.84951 0
M  V30 105 C 9.0946 0.655449 -3.41059 0
M  V30 106 C 8.0486 -0.111842 -4.27854 0
M  V30 107 C 7.3746 0.872274 -5.27537 0
M  V30 108 C 8.6746 -1.30299 -5.05786 0
M  V30 109 H 10.3686 -1.01294 -2.81744 0
M  V30 110 H 7.9146 -0.48854 -1.3546 0
M  V30 111 H 9.8676 1.07464 -4.07467 0
M  V30 112 H 8.5916 1.49328 -2.90463 0
M  V30 113 H 7.2506 -0.512053 -3.63006 0
M  V30 114 H 6.8986 1.70523 -4.73214 0
M  V30 115 H 6.5986 0.363291 -5.86476 0
M  V30 116 H 8.1226 1.28996 -5.96818 0
M  V30 117 H 9.5366 -0.959379 -5.65216 0
M  V30 118 H 7.9336 -1.7455 -5.74154 0
M  V30 119 H 9.0036 -2.09663 -4.37229 0
M  V30 120 N 10.3467 1.47872 -0.545128 0
M  V30 121 C 11.2787 2.27869 0.246621 0
M  V30 122 C 12.2917 1.36282 0.890561 0
M  V30 123 O 13.4807 1.61207 0.766449 0
M  V30 124 C 10.5807 3.10159 1.36582 0
M  V30 125 C 9.7537 4.29627 0.820954 0
M  V30 126 C 8.8127 4.93607 1.82314 0
M  V30 127 O 7.8387 5.52366 1.37406 0
M  V30 128 N 9.0407 4.87211 3.15603 0
M  V30 129 H 11.8057 2.96459 -0.439539 0
M  V30 130 H 9.3667 1.57367 -0.380421 0
M  V30 131 H 11.3587 3.49829 2.03474 0
M  V30 132 H 9.9287 2.43891 1.9554 0
M  V30 133 H 9.1487 3.94192 -0.0244032 0
M  V30 134 H 10.4367 5.06928 0.436063 0
M  V30 135 H 9.8347 4.40651 3.54744 0
M  V30 136 H 8.3917 5.30937 3.78087 0
M  V30 137 N 11.8248 0.280983 1.55075 0
M  V30 138 C 12.7568 -0.637268 2.20163 0
M  V30 139 C 13.7698 -1.11298 1.18813 0
M  V30 140 O 14.9588 -1.03388 1.4551 0
M  V30 141 C 12.0588 -1.88199 2.81841 0
M  V30 142 C 11.2318 -1.55211 4.08936 0
M  V30 143 C 10.2908 -2.64991 4.54606 0
M  V30 144 O 9.3168 -2.30929 5.2025 0
M  V30 145 N 10.5188 -3.95161 4.25238 0
M  V30 146 H 13.2838 -0.0801694 2.99593 0
M  V30 147 H 10.8448 0.102329 1.61576 0
M  V30 148 H 12.8368 -2.60948 3.09335 0
M  V30 149 H 11.4068 -2.34799 2.06369 0
M  V30 150 H 10.6268 -0.658185 3.88666 0
M  V30 151 H 11.9148 -1.30681 4.91732 0
M  V30 152 H 11.3128 -4.25653 3.72607 0
M  V30 153 H 9.8698 -4.6427 4.5749 0
M  V30 154 N 13.3029 -1.57598 0.00835791 0
M  V30 155 C 14.2329 -2.1198 -0.979113 0
M  V30 156 C 15.2139 -1.03091 -1.35301 0
M  V30 157 O 16.3989 -1.30818 -1.43528 0
M  V30 158 C 13.5289 -2.62995 -2.26828 0
M  V30 159 C 12.4829 -3.76485 -2.03576 0
M  V30 160 C 11.8089 -4.13846 -3.38579 0
M  V30 161 C 13.1089 -5.0342 -1.39161 0
M  V30 162 H 14.8029 -2.94738 -0.526281 0
M  V30 163 H 12.3489 -1.41783 -0.251704 0
M  V30 164 H 14.3019 -2.99669 -2.96271 0
M  V30 165 H 13.0259 -1.7737 -2.7424 0
M  V30 166 H 11.6849 -3.40217 -1.36557 0
M  V30 167 H 11.3329 -3.25232 -3.83709 0
M  V30 168 H 11.0329 -4.90312 -3.23834 0
M  V30 169 H 12.5569 -4.53086 -4.09323 0
M  V30 170 H 13.9709 -5.37812 -1.98573 0
M  V30 171 H 12.3679 -5.84746 -1.34878 0
M  V30 172 H 13.4379 -4.83548 -0.361868 0
M  V30 173 N 14.781 0.264519 -1.55364 0
M  V30 174 C 16.058 1.01677 -1.67096 0
M  V30 175 C 16.438 2.03996 -0.543015 0
M  V30 176 O 15.786 2.23907 0.45585 0
M  V30 177 C 15.996 1.66596 -3.0667 0
M  V30 178 C 17.344 2.17442 -3.64697 0
M  V30 179 O 18.368 1.76568 -3.09358 0
M  V30 180 O 17.227 2.92439 -4.61673 0
M  V30 181 H 14.321 0.472161 -0.678965 0
M  V30 182 H 16.867 0.259703 -1.67701 0
M  V30 183 H 15.639 0.924962 -3.80211 0
M  V30 184 H 15.262 2.48968 -3.10001 0
M  V30 185 N 16.2591 1.48442 0.529413 0
M  V30 186 C 17.4871 1.60151 1.30994 0
M  V30 187 C 17.9021 0.261985 1.86973 0
M  V30 188 O 17.2591 -0.748805 1.66431 0
M  V30 189 C 17.3101 2.64854 2.46038 0
M  V30 190 O 17.0311 3.93608 1.92365 0
M  V30 191 C 18.5321 2.87007 3.37849 0
M  V30 192 H 15.7521 0.539971 0.398338 0
M  V30 193 H 18.2961 1.94273 0.638597 0
M  V30 194 H 16.4511 2.33589 3.09055 0
M  V30 195 H 16.8651 4.51055 2.67675 0
M  V30 196 H 18.3391 3.64068 4.14919 0
M  V30 197 H 18.8161 1.95852 3.93114 0
M  V30 198 H 19.4221 3.19579 2.80623 0
M  V30 199 N 17.7372 -0.778329 1.37039 0
M  V30 200 C 19.1532 -1.07796 1.17695 0
M  V30 201 C 19.3532 -2.01498 0.00860115 0
M  V30 202 O 18.4092 -2.43901 -0.653352 0
M  V30 203 C 19.7222 -1.68178 2.49272 0
M  V30 204 C 21.2702 -1.80467 2.55735 0
M  V30 205 C 21.7452 -2.44263 3.87427 0
M  V30 206 N 23.2362 -2.51721 3.88833 0
M  V30 207 C 23.9712 -3.01919 4.87476 0
M  V30 208 N 23.4672 -3.5234 5.96513 0
M  V30 209 N 25.2602 -3.00733 4.74885 0
M  V30 210 H 17.4112 -0.156032 2.11826 0
M  V30 211 H 19.6742 -0.131844 0.938787 0
M  V30 212 H 19.3802 -1.06796 3.35093 0
M  V30 213 H 19.2542 -2.67554 2.65885 0
M  V30 214 H 21.6412 -2.40984 1.70325 0
M  V30 215 H 21.7222 -0.798656 2.43013 0
M  V30 216 H 21.3662 -1.84388 4.73248 0
M  V30 217 H 21.2962 -3.45458 3.9745 0
M  V30 218 H 23.7872 -2.1603 3.10063 0
M  V30 219 H 24.1002 -3.89027 6.67741 0
M  V30 220 H 22.4452 -3.50462 6.00168 0
M  V30 221 H 25.6362 -2.60638 3.88826 0
M  V30 222 H 25.8092 -3.39545 5.51918 0
M  V30 223 N 19.2153 -1.21501 -1.00376 0
M  V30 224 C 20.4453 -1.05746 -1.77486 0
M  V30 225 C 20.8533 0.395655 -1.85017 0
M  V30 226 O 20.1963 1.28626 -1.31152 0
M  V30 227 C 20.2583 -1.58092 -3.22873 0
M  V30 228 C 19.9223 -3.06568 -3.38917 0
M  V30 229 C 20.9193 -4.04106 -3.271 0
M  V30 230 C 18.6043 -3.45799 -3.64319 0
M  V30 231 C 20.5983 -5.38862 -3.40451 0
M  V30 232 C 18.2853 -4.80707 -3.77311 0
M  V30 233 C 19.2833 -5.77047 -3.65384 0
M  V30 234 O 18.9713 -7.09507 -3.77961 0
M  V30 235 H 18.7033 -0.371778 -0.564586 0
M  V30 236 H 21.2573 -1.61319 -1.27143 0
M  V30 237 H 19.4873 -0.969163 -3.74358 0
M  V30 238 H 21.1763 -1.38162 -3.81662 0
M  V30 239 H 21.9423 -3.75141 -3.07399 0
M  V30 240 H 17.8213 -2.71344 -3.72684 0
M  V30 241 H 21.3653 -6.14041 -3.31058 0
M  V30 242 H 17.2623 -5.09357 -3.96517 0
M  V30 243 H 18.0303 -7.16935 -3.94901 0
M  V30 244 N 20.6934 1.19889 -1.02296 0
M  V30 245 C 21.6234 2.25141 -0.619174 0
M  V30 246 C 22.6044 1.66051 0.368915 0
M  V30 247 O 23.7894 1.92546 0.252941 0
M  V30 248 C 20.9194 3.4728 0.0368783 0
M  V30 249 C 19.8734 4.19005 -0.872865 0
M  V30 250 C 19.1994 5.34637 -0.0822402 0
M  V30 251 C 20.4994 4.74452 -2.18387 0
M  V30 252 H 22.1934 2.59171 -1.49903 0
M  V30 253 H 19.7394 1.24579 -0.722222 0
M  V30 254 H 21.6924 4.20098 0.330958 0
M  V30 255 H 20.4164 3.12433 0.95149 0
M  V30 256 H 19.0754 3.48061 -1.15105 0
M  V30 257 H 18.7234 4.96034 0.83422 0
M  V30 258 H 18.4234 5.83557 -0.688149 0
M  V30 259 H 19.9474 6.10255 0.205238 0
M  V30 260 H 21.3614 5.39055 -1.95172 0
M  V30 261 H 19.7584 5.33834 -2.74119 0
M  V30 262 H 20.8284 3.92844 -2.84257 0
M  V30 263 N 22.1715 0.800033 1.35784 0
M  V30 264 C 23.0815 0.207204 2.33683 0
M  V30 265 C 24.0975 -0.64631 1.61551 0
M  V30 266 O 25.2735 -0.559604 1.93469 0
M  V30 267 C 22.3385 -0.639659 3.40748 0
M  V30 268 C 21.3995 0.233585 4.28664 0
M  V30 269 C 20.6325 -0.572954 5.30616 0
M  V30 270 O 20.8555 -1.80816 5.40982 0
M  V30 271 O 19.7895 0.0327285 6.01891 0
M  V30 272 H 23.6155 1.01692 2.86169 0
M  V30 273 H 21.2005 0.561691 1.38439 0
M  V30 274 H 23.0825 -1.12223 4.06182 0
M  V30 275 H 21.7575 -1.42708 2.90544 0
M  V30 276 H 20.6645 0.763147 3.66233 0
M  V30 277 H 21.9975 0.984784 4.82248 0
M  V30 278 N 23.6496 -1.47581 0.552962 0
M  V30 279 C 24.5816 -2.27997 -0.234533 0
M  V30 280 C 25.5946 -1.36753 -0.883321 0
M  V30 281 O 26.7836 -1.61612 -0.757889 0
M  V30 282 C 23.8836 -3.10879 -1.34935 0
M  V30 283 C 23.0566 -4.30056 -0.798158 0
M  V30 284 C 22.1156 -4.94567 -1.79694 0
M  V30 285 O 21.1416 -5.53087 -1.34474 0
M  V30 286 N 22.3436 -4.88878 -3.13015 0
M  V30 287 H 25.1086 -2.96222 0.455255 0
M  V30 288 H 22.6696 -1.57163 0.388761 0
M  V30 289 H 24.6616 -3.50903 -2.01616 0
M  V30 290 H 23.2316 -2.44924 -1.94244 0
M  V30 291 H 22.4516 -3.94174 0.0453079 0
M  V30 292 H 23.7396 -5.07152 -0.409173 0
M  V30 293 H 23.1376 -4.42526 -3.52402 0
M  V30 294 H 21.6946 -5.32934 -3.75266 0
M  V30 295 N 25.1277 -0.289203 -1.54924 0
M  V30 296 C 26.0577 0.58549 -2.2604 0
M  V30 297 C 27.0387 1.14753 -1.25562 0
M  V30 298 O 28.2237 1.17906 -1.54311 0
M  V30 299 C 25.3537 1.76305 -2.99222 0
M  V30 300 C 24.3077 1.33191 -4.06748 0
M  V30 301 C 23.6337 2.5937 -4.6758 0
M  V30 302 C 24.9337 0.471775 -5.20165 0
M  V30 303 H 26.6277 -0.00763532 -2.99399 0
M  V30 304 H 24.1737 -0.00511229 -1.43999 0
M  V30 305 H 26.1267 2.38097 -3.47689 0
M  V30 306 H 24.8507 2.38223 -2.23422 0
M  V30 307 H 23.5097 0.737121 -3.59113 0
M  V30 308 H 23.1577 3.19576 -3.88433 0
M  V30 309 H 22.8577 2.31228 -5.40192 0
M  V30 310 H 24.3817 3.21985 -5.18804 0
M  V30 311 H 25.7957 0.995056 -5.64599 0
M  V30 312 H 24.1927 0.284639 -5.99425 0
M  V30 313 H 25.2627 -0.506041 -4.82252 0
M  V30 314 N 26.6058 1.57591 -0.0167156 0
M  V30 315 C 27.5558 2.05953 0.978137 0
M  V30 316 C 28.5398 0.957532 1.29306 0
M  V30 317 O 29.7318 1.22119 1.28125 0
M  V30 318 C 26.8608 2.58006 2.26468 0
M  V30 319 C 25.9468 3.75113 1.97867 0
M  V30 320 N 26.3378 4.86187 1.39486 0
M  V30 321 C 24.6358 3.83363 2.27924 0
M  V30 322 C 25.3368 5.67502 1.27735 0
M  V30 323 N 24.3128 5.14023 1.76866 0
M  V30 324 H 28.1148 2.89236 0.521522 0
M  V30 325 H 25.6288 1.61301 0.188596 0
M  V30 326 H 27.6258 2.90937 2.98599 0
M  V30 327 H 26.2858 1.76148 2.72767 0
M  V30 328 H 27.2968 5.06695 1.07147 0
M  V30 329 H 23.9738 3.1239 2.76982 0
M  V30 330 H 25.3638 6.66791 0.826978 0
M  V30 331 N 28.0839 -0.256276 1.55502 0
M  V30 332 C 29.0159 -1.33981 1.85962 0
M  V30 333 C 30.0289 -1.44743 0.745212 0
M  V30 334 O 31.2179 -1.4626 1.02324 0
M  V30 335 C 28.3179 -2.7194 2.02242 0
M  V30 336 C 27.4909 -2.83562 3.33033 0
M  V30 337 C 26.5499 -4.02304 3.39172 0
M  V30 338 O 25.5759 -3.92273 4.12444 0
M  V30 339 N 26.7779 -5.15045 2.67784 0
M  V30 340 H 29.5429 -1.08191 2.7949 0
M  V30 341 H 27.1039 -0.446388 1.55624 0
M  V30 342 H 29.0959 -3.49697 2.03701 0
M  V30 343 H 27.6659 -2.90479 1.15502 0
M  V30 344 H 26.8859 -1.92555 3.43971 0
M  V30 345 H 28.1739 -2.88271 4.19258 0
M  V30 346 H 27.5719 -5.26085 2.07968 0
M  V30 347 H 26.1289 -5.90972 2.74947 0
M  V30 348 N 29.562 -1.4872 -0.521534 0
M  V30 349 C 30.492 -1.66771 -1.63431 0
M  V30 350 C 31.473 -0.516499 -1.62069 0
M  V30 351 O 32.658 -0.750013 -1.79132 0
M  V30 352 C 29.788 -1.71515 -3.01993 0
M  V30 353 C 28.742 -2.86222 -3.18216 0
M  V30 354 C 28.068 -2.76061 -4.57924 0
M  V30 355 C 29.368 -4.27419 -3.00184 0
M  V30 356 H 31.062 -2.59932 -1.48579 0
M  V30 357 H 28.608 -1.25089 -0.713358 0
M  V30 358 H 30.561 -1.82731 -3.7972 0
M  V30 359 H 29.285 -0.749393 -3.17886 0
M  V30 360 H 27.944 -2.74575 -2.42908 0
M  V30 361 H 27.592 -1.77437 -4.70665 0
M  V30 362 H 27.292 -3.53037 -4.69722 0
M  V30 363 H 28.816 -2.89256 -5.37739 0
M  V30 364 H 30.23 -4.39855 -3.67697 0
M  V30 365 H 28.627 -5.05458 -3.2347 0
M  V30 366 H 29.697 -4.43293 -1.96518 0
M  V30 367 N 31.0401 0.771051 -1.3745 0
M  V30 368 C 32.2701 1.55789 -1.35696 0
M  V30 369 C 32.6781 1.89107 0.0594523 0
M  V30 370 O 32.0211 1.51984 1.03183 0
M  V30 371 C 32.0831 2.89515 -2.13123 0
M  V30 372 C 31.7471 2.78829 -3.62082 0
M  V30 373 C 32.7441 2.49812 -4.5595 0
M  V30 374 C 30.4291 2.9683 -4.05213 0
M  V30 375 C 32.4231 2.38923 -5.90927 0
M  V30 376 C 30.1101 2.85562 -5.40276 0
M  V30 377 C 31.1081 2.56649 -6.32946 0
M  V30 378 O 30.7961 2.45408 -7.65526 0
M  V30 379 H 30.5281 0.489257 -0.466481 0
M  V30 380 H 33.0821 0.963446 -1.81403 0
M  V30 381 H 31.3121 3.51081 -1.62107 0
M  V30 382 H 33.0011 3.50915 -2.03994 0
M  V30 383 H 33.7671 2.3559 -4.23937 0
M  V30 384 H 29.6461 3.18335 -3.33442 0
M  V30 385 H 33.1901 2.16277 -6.63227 0
M  V30 386 H 29.0871 2.99351 -5.71891 0
M  V30 387 H 29.8551 2.60753 -7.75855 0
M  V30 388 N 32.5182 1.22032 0.997298 0
M  V30 389 C 33.7432 1.06921 1.77715 0
M  V30 390 C 34.1682 -0.376226 1.84299 0
M  V30 391 O 33.5262 -1.27165 1.29223 0
M  V30 392 C 33.5742 1.67996 3.19076 0
M  V30 393 O 32.6782 0.930653 4.01762 0
M  V30 394 H 32.0192 0.375814 0.547412 0
M  V30 395 H 34.5492 1.61737 1.25309 0
M  V30 396 H 34.5592 1.72538 3.69723 0
M  V30 397 H 33.2342 2.73182 3.13599 0
M  V30 398 H 31.8112 0.960917 3.60307 0
M  V30 399 N 33.9963 -1.19345 1.0293 0
M  V30 400 C 35.2733 -1.84811 0.640642 0
M  V30 401 C 35.6533 -1.91855 -0.88062 0
M  V30 402 O 35.0013 -1.43587 -1.7775 0
M  V30 403 C 35.2113 -3.23755 1.30321 0
M  V30 404 C 36.5593 -3.99912 1.42673 0
M  V30 405 O 37.5833 -3.33155 1.26041 0
M  V30 406 O 36.4423 -5.19494 1.6967 0
M  V30 407 H 33.5363 -0.796443 0.222726 0
M  V30 408 H 36.0823 -1.26831 1.12748 0
M  V30 409 H 34.8543 -3.13466 2.34211 0
M  V30 410 H 34.4773 -3.89381 0.804261 0
M  V30 411 N 35.4744 -0.807222 -1.35358 0
M  V30 412 C 36.6994 -0.399309 -2.0352 0
M  V30 413 C 37.1244 0.981986 -1.60433 0
M  V30 414 O 36.4824 1.63601 -0.781299 0
M  V30 415 C 36.5304 -0.491552 -3.57234 0
M  V30 416 O 35.6344 0.494754 -4.09421 0
M  V30 417 H 34.9754 -0.166682 -0.642739 0
M  V30 418 H 37.5054 -1.09328 -1.72941 0
M  V30 419 H 37.5154 -0.361588 -4.06395 0
M  V30 420 H 36.1904 -1.49907 -3.87944 0
M  V30 421 H 34.7674 0.324977 -3.71481 0
M  V30 422 N 36.9525 1.47285 -0.560781 0
M  V30 423 C 38.1995 2.02464 -0.038062 0
M  V30 424 C 38.5275 1.43474 1.31322 0
M  V30 425 O 37.7825 0.581311 1.86867 0
M  V30 426 C 38.0815 3.57258 0.100784 0
M  V30 427 C 37.7475 4.35184 -1.18007 0
M  V30 428 C 36.4095 4.56194 -1.53103 0
M  V30 429 C 38.7615 4.80098 -2.02867 0
M  V30 430 C 36.0895 5.19367 -2.729 0
M  V30 431 C 38.4415 5.44593 -3.21871 0
M  V30 432 C 37.1055 5.63835 -3.57276 0
M  V30 433 H 36.3755 0.740869 -0.0139279 0
M  V30 434 H 39.0225 1.76916 -0.733012 0
M  V30 435 H 37.3275 3.81819 0.878724 0
M  V30 436 H 39.0245 3.97606 0.520639 0
M  V30 437 H 35.6145 4.19113 -0.8968 0
M  V30 438 H 39.7985 4.63642 -1.7706 0
M  V30 439 H 35.0545 5.32459 -3.00496 0
M  V30 440 H 39.2285 5.78358 -3.87911 0
M  V30 441 H 36.8555 6.12557 -4.50197 0
M  V30 442 N 38.4306 0.297415 1.54768 0
M  V30 443 C 39.8416 -0.195947 1.85669 0
M  V30 444 C 40.1926 -1.53707 1.21937 0
M  V30 445 O 39.3176 -2.10164 0.515754 0
M  V30 446 C 39.9126 -0.362318 3.36857 0
M  V30 447 C 38.4716 -0.799901 3.67802 0
M  V30 448 C 37.6186 0.0938578 2.77141 0
M  V30 449 H 40.5696 0.518538 1.4999 0
M  V30 450 H 40.5906 -1.19745 3.61167 0
M  V30 451 H 40.1026 0.613921 3.83214 0
M  V30 452 H 38.2036 -1.78682 3.26961 0
M  V30 453 H 38.3166 -0.621773 4.75048 0
M  V30 454 H 36.6806 -0.426254 2.51108 0
M  V30 455 H 37.4636 1.06639 3.26318 0
M  V30 456 N 39.9087 -1.5758 0.0250728 0
M  V30 457 C 40.8417 -2.05473 -0.992777 0
M  V30 458 C 41.8197 -0.949661 -1.31986 0
M  V30 459 O 43.0037 -1.21969 -1.43722 0
M  V30 460 C 40.1307 -2.4734 -2.31389 0
M  V30 461 C 39.1767 -3.68827 -2.1417 0
M  V30 462 S 40.0097 -5.15655 -1.44429 0
M  V30 463 C 41.1657 -5.60814 -2.77918 0
M  V30 464 H 41.3987 -2.91486 -0.585078 0
M  V30 465 H 38.9317 -1.53269 -0.186507 0
M  V30 466 H 40.8897 -2.72127 -3.07339 0
M  V30 467 H 39.5507 -1.6168 -2.69292 0
M  V30 468 H 38.7437 -3.95955 -3.11826 0
M  V30 469 H 38.3457 -3.44172 -1.46362 0
M  V30 470 H 40.6377 -5.64806 -3.74166 0
M  V30 471 H 41.5807 -6.60414 -2.55459 0
M  V30 472 H 41.9887 -4.8845 -2.82979 0
M  V30 473 N 41.3868 0.248026 -1.55636 0
M  V30 474 C 42.2968 1.32859 -1.93354 0
M  V30 475 C 43.3128 1.52719 -0.833838 0
M  V30 476 O 44.4888 1.66363 -1.13513 0
M  V30 477 C 41.5538 2.66337 -2.21958 0
M  V30 478 C 40.6148 2.55008 -3.45354 0
M  V30 479 C 39.8478 3.82121 -3.72584 0
M  V30 480 O 40.0708 4.83951 -3.01907 0
M  V30 481 O 39.0048 3.80822 -4.6611 0
M  V30 482 H 42.8308 1.03862 -2.85388 0
M  V30 483 H 40.4158 0.448686 -1.42503 0
M  V30 484 H 42.2978 3.45216 -2.4167 0
M  V30 485 H 40.9728 2.95068 -1.33103 0
M  V30 486 H 39.8798 1.7442 -3.30951 0
M  V30 487 H 41.2128 2.31222 -4.34508 0
M  V30 488 N 42.8649 1.48995 0.513639 0
M  V30 489 C 43.7949 1.67636 1.62544 0
M  V30 490 C 44.7759 0.525087 1.61793 0
M  V30 491 O 45.9609 0.759502 1.78732 0
M  V30 492 C 43.0909 1.73114 3.01079 0
M  V30 493 C 42.0449 2.87905 3.16693 0
M  V30 494 C 41.3709 2.78486 4.56453 0
M  V30 495 C 42.6709 4.29005 2.97913 0
M  V30 496 H 44.3649 2.60716 1.47198 0
M  V30 497 H 41.9109 1.25465 0.706714 0
M  V30 498 H 43.8639 1.84742 3.78746 0
M  V30 499 H 42.5879 0.766241 3.17484 0
M  V30 500 H 41.2469 2.75859 2.41448 0
M  V30 501 H 40.8949 1.7993 4.69717 0
M  V30 502 H 40.5949 3.55523 4.67843 0
M  V30 503 H 42.1189 2.92104 5.36197 0
M  V30 504 H 43.5329 4.41798 3.65359 0
M  V30 505 H 41.9299 5.07166 3.20785 0
M  V30 506 H 42.9999 4.44329 1.94165 0
M  V30 507 N 44.343 -0.763751 1.37857 0
M  V30 508 C 45.759 -1.06542 1.18832 0
M  V30 509 C 45.959 -2.01478 0.0299722 0
M  V30 510 O 45.015 -2.4458 -0.627447 0
M  V30 511 C 46.328 -1.65525 2.51042 0
M  V30 512 C 47.876 -1.77745 2.57635 0
M  V30 513 C 48.351 -2.4014 3.89996 0
M  V30 514 N 49.842 -2.47582 3.91481 0
M  V30 515 C 50.577 -2.96732 4.9065 0
M  V30 516 N 50.073 -3.45993 6.00217 0
M  V30 517 N 51.866 -2.95679 4.78048 0
M  V30 518 H 44.017 -0.133556 2.1198 0
M  V30 519 H 46.28 -0.121879 0.940133 0
M  V30 520 H 45.986 -1.03236 3.36207 0
M  V30 521 H 45.86 -2.64719 2.68707 0
M  V30 522 H 48.247 -2.39164 1.72872 0
M  V30 523 H 48.328 -0.772836 2.43846 0
M  V30 524 H 47.972 -1.79358 4.75177 0
M  V30 525 H 47.902 -3.41223 4.01092 0
M  V30 526 H 50.393 -2.1273 3.12337 0
M  V30 527 H 50.706 -3.81922 6.7183 0
M  V30 528 H 49.051 -3.44077 6.03851 0
M  V30 529 H 52.242 -2.56499 3.91568 0
M  V30 530 H 52.415 -3.33672 5.55488 0
M  V30 531 N 45.8211 -1.22559 -0.990812 0
M  V30 532 C 46.7531 -0.955325 -2.08342 0
M  V30 533 C 47.7661 0.0668408 -1.62663 0
M  V30 534 O 48.9551 -0.167421 -1.77713 0
M  V30 535 C 46.0551 -0.415566 -3.36342 0
M  V30 536 C 45.2281 -1.49544 -4.11042 0
M  V30 537 C 44.2871 -0.962399 -5.17324 0
M  V30 538 O 43.3131 -1.64907 -5.44788 0
M  V30 539 N 44.5151 0.215134 -5.80101 0
M  V30 540 H 47.2801 -1.89596 -2.32106 0
M  V30 541 H 44.8411 -1.13276 -1.15673 0
M  V30 542 H 46.8331 -0.0442386 -4.04676 0
M  V30 543 H 45.4031 0.430232 -3.09625 0
M  V30 544 H 44.6231 -2.04 -3.37309 0
M  V30 545 H 45.9111 -2.22195 -4.57719 0
M  V30 546 H 45.3091 0.789779 -5.6016 0
M  V30 547 H 43.8661 0.527826 -6.49659 0
M  V30 548 N 47.2992 1.18797 -1.03562 0
M  V30 549 C 48.5462 1.8865 -0.736023 0
M  V30 550 C 48.8742 1.80041 0.735889 0
M  V30 551 O 48.1292 1.19179 1.55225 0
M  V30 552 C 48.4282 3.38692 -1.14117 0
M  V30 553 C 48.0942 3.67504 -2.6125 0
M  V30 554 C 46.7562 3.75078 -3.01447 0
M  V30 555 C 49.1082 3.80293 -3.56408 0
M  V30 556 C 46.4362 3.92915 -4.35701 0
M  V30 557 C 48.7882 3.99645 -4.90374 0
M  V30 558 C 47.4522 4.05453 -5.30249 0
M  V30 559 H 46.7222 0.690321 -0.26933 0
M  V30 560 H 49.3692 1.40641 -1.29971 0
M  V30 561 H 47.6742 3.88645 -0.496202 0
M  V30 562 H 49.3712 3.91072 -0.886789 0
M  V30 563 H 45.9612 3.62223 -2.29113 0
M  V30 564 H 50.1452 3.73779 -3.26501 0
M  V30 565 H 45.4012 3.95653 -4.66121 0
M  V30 566 H 49.5752 4.08482 -5.64017 0
M  V30 567 H 47.2022 4.19027 -6.34288 0
M  V30 568 N 48.7773 0.814389 1.34928 0
M  V30 569 C 49.7073 0.244827 2.32213 0
M  V30 570 C 50.6883 -0.634024 1.57842 0
M  V30 571 O 51.8733 -0.562676 1.8587 0
M  V30 572 C 49.0033 -0.601106 3.42058 0
M  V30 573 C 47.9573 0.179896 4.27622 0
M  V30 574 C 47.2833 -0.788237 5.28858 0
M  V30 575 C 48.5833 1.38329 5.03649 0
M  V30 576 H 50.2773 1.05763 2.80097 0
M  V30 577 H 47.8233 0.510029 1.34665 0
M  V30 578 H 49.7763 -1.00968 4.09125 0
M  V30 579 H 48.5003 -1.44688 2.92802 0
M  V30 580 H 47.1593 0.569739 3.62146 0
M  V30 581 H 46.8073 -1.62973 4.75866 0
M  V30 582 H 46.5073 -0.269942 5.8698 0
M  V30 583 H 48.0313 -1.19485 5.98795 0
M  V30 584 H 49.4453 1.04918 5.63618 0
M  V30 585 H 47.8423 1.83662 5.71304 0
M  V30 586 H 48.9123 2.16592 4.33839 0
M  V30 587 N 50.2554 -1.46986 0.568584 0
M  V30 588 C 51.2184 -2.28624 -0.162366 0
M  V30 589 C 52.2184 -1.37596 -0.832103 0
M  V30 590 O 53.4084 -1.60115 -0.68622 0
M  V30 591 C 50.5404 -3.17596 -1.23878 0
M  V30 592 H 51.7334 -2.94722 0.554899 0
M  V30 593 H 49.2864 -1.52863 0.325976 0
M  V30 594 H 50.0214 -2.56214 -1.98808 0
M  V30 595 H 49.8064 -3.846 -0.763219 0
M  V30 596 H 51.2964 -3.79078 -1.75185 0
M  V30 597 N 51.7335 -0.305618 -1.54608 0
M  V30 598 C 53.1445 0.186098 -1.8577 0
M  V30 599 C 53.4955 1.53058 -1.22751 0
M  V30 600 O 52.6205 2.09888 -0.526893 0
M  V30 601 C 53.2155 0.344449 -3.37044 0
M  V30 602 C 51.7745 0.780384 -3.68221 0
M  V30 603 C 50.9215 -0.108554 -2.77087 0
M  V30 604 H 53.8725 -0.526485 -1.49712 0
M  V30 605 H 53.8935 1.17828 -3.61796 0
M  V30 606 H 53.4055 -0.634235 -3.82883 0
M  V30 607 H 51.5065 1.76945 -3.27904 0
M  V30 608 H 51.6195 0.596572 -4.75371 0
M  V30 609 H 49.9835 0.412931 -2.5133 0
M  V30 610 H 50.7665 -1.08368 -3.25747 0
M  V30 611 N 53.2116 1.57565 -0.0334293 0
M  V30 612 C 54.4576 1.93088 0.639417 0
M  V30 613 C 54.8126 0.910589 1.69488 0
M  V30 614 O 54.1056 -0.0727725 1.91462 0
M  V30 615 C 54.2996 3.33112 1.29504 0
M  V30 616 C 54.1286 4.48667 0.304604 0
M  V30 617 C 52.8986 5.05207 -0.0970777 0
M  V30 618 C 55.0966 5.1239 -0.442845 0
M  V30 619 N 53.0786 6.04286 -1.08223 0
M  V30 620 C 54.4496 6.06609 -1.28161 0
M  V30 621 C 56.5046 4.95352 -0.50308 0
M  V30 622 C 55.2076 6.85622 -2.17519 0
M  V30 623 C 57.2336 5.74978 -1.38401 0
M  V30 624 C 56.5956 6.68816 -2.21054 0
M  V30 625 H 52.6946 0.754335 0.206161 0
M  V30 626 H 55.2786 1.94435 -0.101613 0
M  V30 627 H 53.4496 3.32576 2.00618 0
M  V30 628 H 55.1816 3.55972 1.92525 0
M  V30 629 H 51.9366 4.72782 0.278255 0
M  V30 630 H 52.3606 6.58516 -1.57117 0
M  V30 631 H 57.0026 4.22625 0.121694 0
M  V30 632 H 54.7206 7.57652 -2.81049 0
M  V30 633 H 58.3066 5.63826 -1.43496 0
M  V30 634 H 57.1866 7.29355 -2.88116 0
M  V30 635 N 54.6897 -0.239769 1.55765 0
M  V30 636 C 55.9387 -0.964754 1.77131 0
M  V30 637 C 56.2517 -1.86213 0.59868 0
M  V30 638 O 57.4577 -2.6244 0.695522 0
M  V30 639 C 55.9137 -1.76552 3.1362 0
M  V30 640 C 55.5217 -0.915185 4.38553 0
M  V30 641 C 57.2657 -2.48281 3.44321 0
M  V30 642 C 55.1727 -1.71225 5.66071 0
M  V30 643 H 54.1027 -0.363953 0.660344 0
M  V30 644 H 56.7537 -0.219181 1.82186 0
M  V30 645 H 55.1357 -2.55331 3.02691 0
M  V30 646 H 56.3097 -0.169217 4.60489 0
M  V30 647 H 54.6247 -0.310889 4.15238 0
M  V30 648 H 57.2217 -3.08382 4.36812 0
M  V30 649 H 57.5647 -3.20256 2.65973 0
M  V30 650 H 58.0977 -1.76507 3.56497 0
M  V30 651 H 54.8367 -1.03612 6.4726 0
M  V30 652 H 54.3567 -2.43331 5.48224 0
M  V30 653 H 56.0357 -2.27758 6.05587 0
M  V30 654 N 56.1678 -1.49265 -0.50573 0
M  V30 655 C 57.0778 -1.68312 -1.63427 0
M  V30 656 C 58.0938 -0.565682 -1.64548 0
M  V30 657 O 59.2698 -0.839801 -1.83055 0
M  V30 658 C 56.3348 -1.74107 -2.99813 0
M  V30 659 C 55.3958 -2.97653 -3.09356 0
M  V30 660 C 54.6288 -3.03163 -4.39236 0
M  V30 661 O 54.8518 -2.16396 -5.27758 0
M  V30 662 O 53.7858 -3.9558 -4.53652 0
M  V30 663 H 57.6118 -2.63907 -1.50289 0
M  V30 664 H 55.1968 -1.32951 -0.681502 0
M  V30 665 H 57.0788 -1.803 -3.80881 0
M  V30 666 H 55.7538 -0.816901 -3.13223 0
M  V30 667 H 54.6608 -2.96981 -2.27493 0
M  V30 668 H 55.9938 -3.89535 -3.00871 0
M  V30 669 N 57.6459 0.756429 -1.3826 0
M  V30 670 C 58.8709 1.55077 -1.37717 0
M  V30 671 C 59.2959 1.88073 0.03164 0
M  V30 672 O 58.6539 1.50364 1.01293 0
M  V30 673 C 58.7019 2.8283 -2.23695 0
M  V30 674 O 57.8059 3.77862 -1.6521 0
M  V30 675 H 57.1469 0.469152 -0.469885 0
M  V30 676 H 59.6769 0.935019 -1.81985 0
M  V30 677 H 59.6869 3.31783 -2.37453 0
M  V30 678 H 58.3619 2.58144 -3.2609 0
M  V30 679 H 56.9389 3.36555 -1.60578 0
M  V30 680 N 59.124 1.23083 0.984299 0
M  V30 681 C 60.056 0.96636 2.07832 0
M  V30 682 C 61.069 -0.0582135 1.62696 0
M  V30 683 O 62.258 0.176843 1.77622 0
M  V30 684 C 59.358 0.433397 3.36117 0
M  V30 685 C 58.531 1.51722 4.10243 0
M  V30 686 C 57.59 0.989821 5.16807 0
M  V30 687 O 56.616 1.67794 5.43906 0
M  V30 688 N 57.818 -0.184367 5.80207 0
M  V30 689 H 60.583 1.90824 2.31098 0
M  V30 690 H 58.144 1.13888 1.1507 0
M  V30 691 H 60.136 0.065699 4.04647 0
M  V30 692 H 58.706 -0.413806 3.09849 0
M  V30 693 H 57.926 2.05786 3.36223 0
M  V30 694 H 59.214 2.24619 4.56534 0
M  V30 695 H 58.612 -0.760062 5.60571 0
M  V30 696 H 57.169 -0.493366 6.4993 0
M  V30 697 N 60.6021 -1.18246 1.0419 0
M  V30 698 C 61.8791 -1.84121 0.660208 0
M  V30 699 C 62.2591 -1.92778 -0.860221 0
M  V30 700 O 61.6071 -1.45464 -1.76217 0
M  V30 701 C 61.8171 -3.22355 1.33747 0
M  V30 702 C 63.1651 -3.98376 1.46906 0
M  V30 703 O 64.1891 -3.31799 1.29568 0
M  V30 704 O 63.0481 -5.17665 1.75171 0
M  V30 705 H 60.1421 -0.794036 0.231161 0
M  V30 706 H 62.6881 -1.25628 1.14087 0
M  V30 707 H 61.4601 -3.10964 2.37522 0
M  V30 708 H 61.0831 -3.88506 0.845515 0
M  V30 709 N 62.0802 -0.821533 -1.34494 0
M  V30 710 C 63.3262 -0.418729 -1.99043 0
M  V30 711 C 63.6812 1.00672 -1.6396 0
M  V30 712 O 62.9742 1.69132 -0.900271 0
M  V30 713 C 63.1682 -0.556512 -3.53041 0
M  V30 714 C 62.9972 -1.9938 -4.03085 0
M  V30 715 C 61.7672 -2.62539 -4.31742 0
M  V30 716 C 63.9652 -2.96035 -4.20556 0
M  V30 717 N 61.9472 -3.97523 -4.67813 0
M  V30 718 C 63.3182 -4.15924 -4.59791 0
M  V30 719 C 65.3732 -2.9267 -4.02801 0
M  V30 720 C 64.0762 -5.32899 -4.83126 0
M  V30 721 C 66.1022 -4.08861 -4.27302 0
M  V30 722 C 65.4642 -5.275 -4.66822 0
M  V30 723 H 61.5632 -0.201299 -0.755647 0
M  V30 724 H 64.1472 -1.06594 -1.62929 0
M  V30 725 H 62.3182 0.0607924 -3.88352 0
M  V30 726 H 64.0502 -0.126842 -4.04501 0
M  V30 727 H 60.8052 -2.13789 -4.22601 0
M  V30 728 H 61.2292 -4.67061 -4.90085 0
M  V30 729 H 65.8712 -2.02088 -3.71376 0
M  V30 730 H 63.5892 -6.24041 -5.13418 0
M  V30 731 H 67.1752 -4.07654 -4.15101 0
M  V30 732 H 66.0552 -6.15913 -4.85408 0
M  V30 733 N 63.5583 1.46682 -0.576371 0
M  V30 734 C 64.5213 2.28707 0.150239 0
M  V30 735 C 65.5213 1.38035 0.824794 0
M  V30 736 O 66.7113 1.60476 0.677719 0
M  V30 737 C 63.8433 3.18248 1.22192 0
M  V30 738 H 65.0363 2.94423 -0.570521 0
M  V30 739 H 62.5893 1.52688 -0.334078 0
M  V30 740 H 63.3243 2.57265 1.97447 0
M  V30 741 H 63.1093 3.85 0.742812 0
M  V30 742 H 64.5993 3.80001 1.73172 0
M  V30 743 N 65.0364 0.313813 1.54444 0
M  V30 744 C 66.2664 -0.293491 2.04505 0
M  V30 745 C 66.6744 -1.47086 1.19005 0
M  V30 746 O 66.0174 -1.82481 0.211257 0
M  V30 747 C 66.0794 -0.800455 3.50475 0
M  V30 748 C 65.7434 0.253322 4.56297 0
M  V30 749 C 66.7404 1.08612 5.08428 0
M  V30 750 C 64.4254 0.398708 5.00715 0
M  V30 751 C 66.4194 2.05013 6.0353 0
M  V30 752 C 64.1064 1.36614 5.95634 0
M  V30 753 C 65.1044 2.19033 6.46926 0
M  V30 754 O 64.7924 3.14134 7.39983 0
M  V30 755 H 64.5244 -0.0658325 0.672787 0
M  V30 756 H 67.0784 0.455177 2.00293 0
M  V30 757 H 65.3084 -1.59987 3.52053 0
M  V30 758 H 66.9974 -1.32504 3.83663 0
M  V30 759 H 67.7634 0.984736 4.74898 0
M  V30 760 H 63.6424 -0.23289 4.60411 0
M  V30 761 H 67.1864 2.69382 6.4349 0
M  V30 762 H 63.0834 1.4682 6.28581 0
M  V30 763 H 63.8514 3.0926 7.57826 0
M  V30 764 N 66.5145 -1.57545 0.0417849 0
M  V30 765 C 67.4775 -2.09885 -0.92093 0
M  V30 766 C 68.4775 -1.01648 -1.24596 0
M  V30 767 O 69.6675 -1.27759 -1.1842 0
M  V30 768 C 66.7995 -2.57527 -2.23367 0
M  V30 769 H 67.9925 -2.96236 -0.467382 0
M  V30 770 H 65.5455 -1.5493 -0.206467 0
M  V30 771 H 66.2805 -1.74542 -2.73323 0
M  V30 772 H 66.0655 -3.36613 -2.01083 0
M  V30 773 H 67.5555 -2.98201 -2.92346 0
M  V30 774 N 67.9926 0.231505 -1.5589 0
M  V30 775 C 68.9556 1.27028 -1.90779 0
M  V30 776 C 69.9556 1.40308 -0.785507 0
M  V30 777 O 71.1456 1.38744 -1.05336 0
M  V30 778 C 68.2776 2.64566 -2.14983 0
M  V30 779 H 69.4706 0.973017 -2.83677 0
M  V30 780 H 67.0236 0.471486 -1.49019 0
M  V30 781 H 67.7586 2.99406 -1.24604 0
M  V30 782 H 67.5436 2.56305 -2.96732 0
M  V30 783 H 69.0336 3.39543 -2.43105 0
M  V30 784 N 69.4707 1.49531 0.497807 0
M  V30 785 C 70.6957 1.63159 1.28039 0
M  V30 786 C 71.1207 0.30418 1.85624 0
M  V30 787 O 70.4787 -0.728618 1.66015 0
M  V30 788 C 70.5267 2.70537 2.38416 0
M  V30 789 O 69.6307 2.29931 3.42353 0
M  V30 790 H 68.9717 0.546001 0.377861 0
M  V30 791 H 71.5017 1.9574 0.59558 0
M  V30 792 H 71.5117 2.92802 2.84132 0
M  V30 793 H 70.1867 3.6689 1.95869 0
M  V30 794 H 68.7637 2.18009 3.02533 0
M  V30 795 N 70.9488 -0.749086 1.3866 0
M  V30 796 C 71.8958 -1.86291 1.36251 0
M  V30 797 C 72.8658 -1.64578 0.224347 0
M  V30 798 O 74.0508 -1.86181 0.417279 0
M  V30 799 C 71.1908 -3.23644 1.19786 0
M  V30 800 C 70.3038 -3.57158 2.43027 0
M  V30 801 C 69.4388 -4.83838 2.19258 0
M  V30 802 C 68.4778 -5.10152 3.38247 0
M  V30 803 N 67.6148 -6.28029 3.13884 0
M  V30 804 H 72.4548 -1.87685 2.3147 0
M  V30 805 H 69.9918 -0.917287 1.14997 0
M  V30 806 H 71.9498 -4.0291 1.08254 0
M  V30 807 H 70.5798 -3.21566 0.282031 0
M  V30 808 H 69.6318 -2.72701 2.65214 0
M  V30 809 H 70.9438 -3.7253 3.31697 0
M  V30 810 H 70.0978 -5.71057 2.04888 0
M  V30 811 H 68.8368 -4.70614 1.2796 0
M  V30 812 H 67.8418 -4.21401 3.53131 0
M  V30 813 H 69.0668 -5.25271 4.30427 0
M  V30 814 H 67.0128 -6.1612 2.25238 0
M  V30 815 H 66.9298 -6.43922 3.96106 0
M  V30 816 H 68.1978 -7.18124 3.03179 0
M  V30 817 N 72.4269 -1.23603 -0.977757 0
M  V30 818 C 73.3369 -1.03632 -2.1047 0
M  V30 819 C 74.3529 0.0199435 -1.73989 0
M  V30 820 O 75.5289 -0.176076 -2.00629 0
M  V30 821 C 72.5939 -0.63276 -3.40877 0
M  V30 822 C 71.6549 -1.76437 -3.91367 0
M  V30 823 C 70.8879 -1.37997 -5.15551 0
M  V30 824 O 71.1109 -0.265357 -5.69782 0
M  V30 825 O 70.0449 -2.20201 -5.60174 0
M  V30 826 H 73.8709 -1.98086 -2.30208 0
M  V30 827 H 71.4559 -1.02332 -1.08851 0
M  V30 828 H 73.3379 -0.418761 -4.19314 0
M  V30 829 H 72.0129 0.282754 -3.22463 0
M  V30 830 H 70.9199 -2.03304 -3.14036 0
M  V30 831 H 72.2529 -2.6583 -4.14241 0
M  V30 832 N 73.905 1.17692 -1.04816 0
M  V30 833 C 75.13 1.92327 -0.776207 0
M  V30 834 C 75.555 1.76082 0.661581 0
M  V30 835 O 74.913 1.076 1.45917 0
M  V30 836 C 74.961 3.41539 -1.15687 0
M  V30 837 O 74.065 4.11402 -0.286775 0
M  V30 838 H 73.406 0.599735 -0.284981 0
M  V30 839 H 75.936 1.49201 -1.4 0
M  V30 840 H 75.946 3.92269 -1.12202 0
M  V30 841 H 74.621 3.52684 -2.20425 0
M  V30 842 H 73.198 3.70939 -0.381903 0
M  V30 843 N 75.3831 0.828654 1.34056 0
M  V30 844 C 76.3331 0.226828 2.26869 0
M  V30 845 C 77.3171 -0.612243 1.48796 0
M  V30 846 O 78.5091 -0.465884 1.70759 0
M  V30 847 C 75.6381 -0.605654 3.37915 0
M  V30 848 C 74.7241 0.244361 4.23395 0
M  V30 849 N 75.1151 1.31815 4.88322 0
M  V30 850 C 73.4131 0.0296616 4.4599 0
M  V30 851 C 74.1141 1.83895 5.51867 0
M  V30 852 N 73.0901 1.14196 5.3147 0
M  V30 853 H 76.8921 1.04811 2.74576 0
M  V30 854 H 74.4061 0.67205 1.47842 0
M  V30 855 H 76.4031 -1.05302 4.03382 0
M  V30 856 H 75.0631 -1.42504 2.91758 0
M  V30 857 H 76.0741 1.70099 4.8917 0
M  V30 858 H 72.7511 -0.757097 4.10578 0
M  V30 859 H 74.1411 2.7376 6.136 0
M  V30 860 N 76.8612 -1.46375 0.584142 0
M  V30 861 C 77.8242 -2.28784 -0.138108 0
M  V30 862 C 78.8242 -1.38471 -0.817462 0
M  V30 863 O 80.0142 -1.60833 -0.669199 0
M  V30 864 C 77.1462 -3.18892 -1.20503 0
M  V30 865 H 78.3392 -2.94117 0.586127 0
M  V30 866 H 75.8922 -1.52509 0.342171 0
M  V30 867 H 76.6272 -2.58309 -1.96079 0
M  V30 868 H 76.4122 -3.85388 -0.722384 0
M  V30 869 H 77.9022 -3.80914 -1.71155 0
M  V30 870 N 78.3393 -0.321999 -1.54275 0
M  V30 871 C 79.5673 0.283052 -2.04955 0
M  V30 872 C 79.9823 1.45904 -1.19823 0
M  V30 873 O 79.3393 1.81063 -0.228545 0
M  V30 874 C 79.3903 0.719028 -3.54277 0
M  V30 875 O 79.1113 -0.410175 -4.36176 0
M  V30 876 C 80.6123 1.38705 -4.21041 0
M  V30 877 H 77.8323 0.0584616 -0.668448 0
M  V30 878 H 80.3763 -0.467734 -1.99079 0
M  V30 879 H 78.5313 1.41979 -3.60445 0
M  V30 880 H 78.9453 -0.0669416 -5.24457 0
M  V30 881 H 80.4193 1.64306 -5.2698 0
M  V30 882 H 80.8963 2.33385 -3.72059 0
M  V30 883 H 81.5023 0.728906 -4.19007 0
M  V30 884 N 79.8174 1.5752 -0.0501392 0
M  V30 885 C 80.7474 2.14502 0.922566 0
M  V30 886 C 81.7284 1.06642 1.3252 0
M  V30 887 O 82.9134 1.34577 1.4001 0
M  V30 888 C 80.0434 2.68916 2.19776 0
M  V30 889 C 78.9974 3.8175 1.93523 0
M  V30 890 C 78.3234 4.22677 3.27487 0
M  V30 891 C 79.6234 5.06932 1.25765 0
M  V30 892 H 81.3174 2.9603 0.447952 0
M  V30 893 H 78.8634 1.42401 0.214024 0
M  V30 894 H 80.8164 3.07419 2.88222 0
M  V30 895 H 79.5404 1.84578 2.69441 0
M  V30 896 H 78.1994 3.43718 1.27489 0
M  V30 897 H 77.8474 3.35291 3.74952 0
M  V30 898 H 77.5474 4.98725 3.1072 0
M  V30 899 H 79.0714 4.63779 3.97166 0
M  V30 900 H 80.4854 5.42888 1.84244 0
M  V30 901 H 78.8824 5.88116 1.19328 0
M  V30 902 H 79.9524 4.84337 0.233536 0
M  V30 903 N 81.2955 -0.223234 1.56011 0
M  V30 904 C 82.5415 -0.949279 1.79211 0
M  V30 905 C 82.8745 -1.84054 0.619494 0
M  V30 906 O 82.1495 -1.90726 -0.381317 0
M  V30 907 C 82.4325 -1.78965 3.12479 0
M  V30 908 C 82.2855 -0.924997 4.40186 0
M  V30 909 C 83.6045 -2.76774 3.42175 0
M  V30 910 H 80.7235 -0.343676 0.651963 0
M  V30 911 H 83.3655 -0.218253 1.88742 0
M  V30 912 H 81.5155 -2.41291 3.04485 0
M  V30 913 H 83.1875 -0.318615 4.60198 0
M  V30 914 H 81.4305 -0.230344 4.33188 0
M  V30 915 H 82.1015 -1.54735 5.29869 0
M  V30 916 H 84.5775 -2.24584 3.50287 0
M  V30 917 H 83.4535 -3.32678 4.36597 0
M  V30 918 H 83.7145 -3.54429 2.64258 0
M  V30 919 N 82.7736 -1.49793 -0.48987 0
M  V30 920 C 84.0206 -1.59841 -1.24327 0
M  V30 921 C 84.3486 -0.290135 -1.92324 0
M  V30 922 O 83.6036 0.722749 -1.81865 0
M  V30 923 C 83.9026 -2.71488 -2.32441 0
M  V30 924 C 83.5686 -4.12614 -1.81826 0
M  V30 925 C 82.2306 -4.51017 -1.67742 0
M  V30 926 C 84.5826 -5.00892 -1.4407 0
M  V30 927 C 81.9106 -5.75459 -1.14297 0
M  V30 928 C 84.2626 -6.25863 -0.920742 0
M  V30 929 C 82.9266 -6.63086 -0.766383 0
M  V30 930 H 82.1966 -0.584899 -0.454944 0
M  V30 931 H 84.8436 -1.83663 -0.542215 0
M  V30 932 H 83.1486 -2.4168 -3.0838 0
M  V30 933 H 84.8456 -2.76469 -2.90458 0
M  V30 934 H 81.4356 -3.82307 -1.93751 0
M  V30 935 H 85.6196 -4.7187 -1.53794 0
M  V30 936 H 80.8756 -6.02989 -1.01068 0
M  V30 937 H 85.0496 -6.9364 -0.619448 0
M  V30 938 H 82.6766 -7.59393 -0.350083 0
M  V30 939 N 84.2517 0.741722 -1.39055 0
M  V30 940 C 85.2017 1.84661 -1.33732 0
M  V30 941 C 86.1857 1.59397 -0.219401 0
M  V30 942 O 87.3777 1.71015 -0.456375 0
M  V30 943 C 84.5067 3.22512 -1.17647 0
M  V30 944 C 83.5927 3.53628 -2.34112 0
M  V30 945 N 83.9837 3.55723 -3.59576 0
M  V30 946 C 82.2817 3.83956 -2.26923 0
M  V30 947 C 82.9827 3.84443 -4.36553 0
M  V30 948 N 81.9587 4.01877 -3.66055 0
M  V30 949 H 85.7607 1.84576 -2.28711 0
M  V30 950 H 83.2747 0.939647 -1.32455 0
M  V30 951 H 85.2717 4.01597 -1.11917 0
M  V30 952 H 83.9317 3.2384 -0.236124 0
M  V30 953 H 84.9427 3.37196 -3.93089 0
M  V30 954 H 81.6197 3.92929 -1.41113 0
M  V30 955 H 83.0097 3.92588 -5.45274 0
M  V30 956 N 85.7298 1.2412 0.971189 0
M  V30 957 C 86.6778 1.02812 2.08644 0
M  V30 958 C 87.6718 -0.0358403 1.69362 0
M  V30 959 O 88.8778 0.118429 1.7961 0
M  V30 960 H 85.2528 0.315428 0.682649 0
M  V30 961 H 87.2238 1.97397 2.23779 0
M  V30 962 C 85.9728 0.645874 3.41649 0
M  V30 963 H 85.2958 1.45632 3.72332 0
M  V30 964 H 86.7358 0.536366 4.20594 0
M  V30 965 C 85.1948 -0.646713 3.30635 0
M  V30 966 O 85.7248 -1.69338 3.64263 0
M  V30 967 N 83.9308 -0.626115 2.83775 0
M  V30 968 H 83.4778 0.225988 2.56607 0
M  V30 969 H 83.4358 -1.49117 2.76788 0
M  V30 970 N 87.2079 -1.17134 1.05439 0
M  V30 971 C 88.1379 -2.2342 0.678649 0
M  V30 972 C 89.1189 -1.66971 -0.32476 0
M  V30 973 O 90.3039 -1.93149 -0.201802 0
M  V30 974 C 87.4339 -3.47256 0.0552099 0
M  V30 975 C 86.3879 -4.16543 0.98365 0
M  V30 976 C 85.7139 -5.34231 0.223961 0
M  V30 977 C 87.0139 -4.68495 2.3089 0
M  V30 978 H 88.7079 -2.55105 1.56722 0
M  V30 979 H 86.2539 -1.2262 0.754998 0
M  V30 980 H 88.2069 -4.20828 -0.21946 0
M  V30 981 H 86.9309 -3.14846 -0.868319 0
M  V30 982 H 85.5899 -3.44887 1.24293 0
M  V30 983 H 85.2379 -4.98071 -0.702412 0
M  V30 984 H 84.9379 -5.81527 0.842627 0
M  V30 985 H 86.4619 -6.10585 -0.0433671 0
M  V30 986 H 87.8759 -5.33691 2.09396 0
M  V30 987 H 86.2729 -5.26379 2.88176 0
M  V30 988 H 87.3429 -3.85169 2.94572 0
M  V30 989 N 88.686 -0.835752 -1.33615 0
M  V30 990 C 89.616 -0.281739 -2.31794 0
M  V30 991 C 90.597 0.608833 -1.58831 0
M  V30 992 O 91.782 0.533035 -1.86741 0
M  V30 993 C 88.912 0.546612 -3.42971 0
M  V30 994 C 87.866 -0.247904 -4.27281 0
M  V30 995 C 87.192 0.704001 -5.30045 0
M  V30 996 C 88.492 -1.46324 -5.01385 0
M  V30 997 H 90.186 -1.10206 -2.78379 0
M  V30 998 H 87.732 -0.531388 -1.33837 0
M  V30 999 H 89.685 0.944467 -4.1068 0
M  V30 1000 H 88.409 1.40011 -2.95067 0
M  V30 1001 H 87.068 -0.627281 -3.61194 0
M  V30 1002 H 86.716 1.55381 -4.78399 0
M  V30 1003 H 86.416 0.176524 -5.87335 0
M  V30 1004 H 87.94 1.09944 -6.0062 0
M  V30 1005 H 89.354 -1.13871 -5.61877 0
M  V30 1006 H 87.751 -1.92728 -5.6831 0
M  V30 1007 H 88.821 -2.23467 -4.30338 0
M  V30 1008 N 90.1641 1.46063 -0.591896 0
M  V30 1009 C 91.4121 2.01938 -0.0808391 0
M  V30 1010 C 91.7331 1.46475 1.28725 0
M  V30 1011 O 91.0031 0.652944 1.84698 0
M  V30 1012 H 89.5831 0.746516 -0.0268938 0
M  V30 1013 H 92.2451 1.79055 -0.769752 0
M  V30 1014 H 91.3411 3.12094 -0.0187578 0
M  V30 1015 N 91.6422 0.330177 1.54103 0
M  V30 1016 C 92.5522 -0.541534 2.28264 0
M  V30 1017 C 93.5682 -1.12351 1.32866 0
M  V30 1018 O 94.7442 -1.14206 1.65888 0
M  V30 1019 C 91.8092 -1.68322 3.03098 0
M  V30 1020 C 90.8702 -1.13238 4.14096 0
M  V30 1021 C 90.1032 -2.21966 4.85352 0
M  V30 1022 O 90.3262 -3.42437 4.56172 0
M  V30 1023 O 89.2602 -1.87013 5.7211 0
M  V30 1024 H 93.0862 0.060938 3.03639 0
M  V30 1025 H 90.6712 0.09565 1.49093 0
M  V30 1026 H 92.5532 -2.34777 3.49939 0
M  V30 1027 H 91.2282 -2.27176 2.30593 0
M  V30 1028 H 90.1352 -0.432736 3.71589 0
M  V30 1029 H 91.4682 -0.588898 4.88664 0
M  V30 1030 N 93.1203 -1.57491 0.0584922 0
M  V30 1031 C 94.3693 -1.92155 -0.613146 0
M  V30 1032 C 94.6823 -0.939334 -1.71569 0
M  V30 1033 O 95.8883 -1.17829 -2.44599 0
M  V30 1034 C 94.3443 -3.41303 -1.14195 0
M  V30 1035 C 93.9523 -4.47944 -0.0711265 0
M  V30 1036 C 95.6963 -3.84988 -1.78841 0
M  V30 1037 C 93.6033 -5.88212 -0.613225 0
M  V30 1038 H 92.5333 -0.717162 -0.232796 0
M  V30 1039 H 95.1843 -1.83049 0.12857 0
M  V30 1040 H 93.5663 -3.45437 -1.93621 0
M  V30 1041 H 94.7403 -4.55408 0.702836 0
M  V30 1042 H 93.0553 -4.13644 0.478313 0
M  V30 1043 H 95.6523 -4.87159 -2.20408 0
M  V30 1044 H 95.9953 -3.21632 -2.64308 0
M  V30 1045 H 96.5283 -3.83401 -1.06059 0
M  V30 1046 H 93.2673 -6.55183 0.203978 0
M  V30 1047 H 92.7873 -5.84294 -1.35501 0
M  V30 1048 H 94.4663 -6.37687 -1.09383 0
M  V30 1049 N 94.5984 0.214957 -1.56127 0
M  V30 1050 C 95.8754 0.963093 -1.70247 0
M  V30 1051 C 96.2554 2.02166 -0.60764 0
M  V30 1052 O 95.6034 2.25244 0.384385 0
M  V30 1053 C 95.8134 1.56756 -3.11815 0
M  V30 1054 C 97.1614 2.0573 -3.7143 0
M  V30 1055 O 98.1854 1.66637 -3.14818 0
M  V30 1056 O 97.0444 2.77603 -4.70743 0
M  V30 1057 H 94.1384 0.450321 -0.693643 0
M  V30 1058 H 96.6844 0.206219 -1.68442 0
M  V30 1059 H 95.4564 0.803533 -3.82961 0
M  V30 1060 H 95.0794 2.3898 -3.17765 0
M  V30 1061 N 96.0765 1.50051 0.48192 0
M  V30 1062 C 97.0085 1.64263 1.59844 0
M  V30 1063 C 98.0215 0.52451 1.54119 0
M  V30 1064 O 99.2105 0.797293 1.59704 0
M  V30 1065 C 96.3105 1.60102 2.98698 0
M  V30 1066 C 95.4835 2.87767 3.29407 0
M  V30 1067 C 94.5425 2.76397 4.47762 0
M  V30 1068 O 93.5685 3.50348 4.48603 0
M  V30 1069 N 94.7705 1.89222 5.48794 0
M  V30 1070 H 97.5355 2.60566 1.48073 0
M  V30 1071 H 95.0965 1.47379 0.670149 0
M  V30 1072 H 97.0885 1.50123 3.75826 0
M  V30 1073 H 95.6585 0.715798 3.04294 0
M  V30 1074 H 94.8785 3.11954 2.40994 0
M  V30 1075 H 96.1665 3.72365 3.4673 0
M  V30 1076 H 95.5645 1.28434 5.50928 0
M  V30 1077 H 94.1215 1.85154 6.24949 0
M  V30 1078 N 97.5546 -0.734337 1.39446 0
M  V30 1079 C 98.4866 -1.85861 1.34121 0
M  V30 1080 C 99.4996 -1.60871 0.249864 0
M  V30 1081 O 100.689 -1.71093 0.508865 0
M  V30 1082 C 97.7886 -3.21899 1.05991 0
M  V30 1083 C 96.9616 -3.74239 2.26415 0
M  V30 1084 C 96.0206 -4.88841 1.94733 0
M  V30 1085 O 95.0466 -5.02468 2.67422 0
M  V30 1086 N 96.2486 -5.73261 0.913884 0
M  V30 1087 H 99.0136 -1.90934 2.31007 0
M  V30 1088 H 96.5746 -0.915102 1.33557 0
M  V30 1089 H 98.5666 -3.96136 0.828147 0
M  V30 1090 H 97.1366 -3.12091 0.178361 0
M  V30 1091 H 96.3566 -2.91347 2.65539 0
M  V30 1092 H 97.6446 -4.05942 3.06738 0
M  V30 1093 H 97.0426 -5.64842 0.311476 0
M  V30 1094 H 95.5996 -6.47563 0.742015 0
M  V30 1095 N 99.0327 -1.24633 -0.964593 0
M  V30 1096 C 100.263 -1.11339 -1.74032 0
M  V30 1097 C 100.671 0.336593 -1.86182 0
M  V30 1098 O 100.014 1.24389 -1.35178 0
M  V30 1099 C 100.076 -1.68284 -3.1768 0
M  V30 1100 C 99.7397 -3.17196 -3.28992 0
M  V30 1101 C 100.737 -4.14308 -3.14078 0
M  V30 1102 C 98.4217 -3.57215 -3.53133 0
M  V30 1103 C 100.416 -5.4942 -3.23135 0
M  V30 1104 C 98.1027 -4.92468 -3.61827 0
M  V30 1105 C 99.1007 -5.8838 -3.46841 0
M  V30 1106 O 98.7887 -7.21173 -3.55197 0
M  V30 1107 H 98.5207 -0.389551 -0.552472 0
M  V30 1108 H 101.075 -1.65282 -1.21946 0
M  V30 1109 H 99.3047 -1.08777 -3.71085 0
M  V30 1110 H 100.994 -1.50234 -3.77074 0
M  V30 1111 H 101.76 -3.84731 -2.95308 0
M  V30 1112 H 97.6387 -2.83063 -3.63863 0
M  V30 1113 H 101.183 -6.24263 -3.11355 0
M  V30 1114 H 97.0797 -5.21714 -3.80111 0
M  V30 1115 H 97.8477 -7.29135 -3.71892 0
M  V30 1116 N 100.511 1.16574 -1.06058 0
M  V30 1117 C 101.736 1.91493 -0.796562 0
M  V30 1118 C 102.161 1.76773 0.642868 0
M  V30 1119 O 101.519 1.09142 1.44768 0
M  V30 1120 C 101.567 3.40293 -1.19303 0
M  V30 1121 O 100.671 4.11074 -0.330394 0
M  V30 1122 H 100.012 0.596678 -0.291326 0
M  V30 1123 H 102.542 1.47708 -1.41575 0
M  V30 1124 H 102.552 3.91057 -1.16356 0
M  V30 1125 H 101.227 3.50326 -2.24153 0
M  V30 1126 H 99.8038 3.70513 -0.421225 0
M  V30 1127 N 101.989 0.842826 1.3317 0
M  V30 1128 C 103.405 0.531128 1.50503 0
M  V30 1129 C 103.605 -0.940734 1.78192 0
M  V30 1130 O 102.661 -1.72436 1.84451 0
M  V30 1131 C 103.974 1.40789 2.65705 0
M  V30 1132 C 105.522 1.40708 2.79589 0
M  V30 1133 C 105.997 2.26878 3.97857 0
M  V30 1134 N 107.488 2.24609 4.05099 0
M  V30 1135 C 108.223 2.88019 4.95815 0
M  V30 1136 N 107.719 3.60496 5.9162 0
M  V30 1137 N 109.512 2.77469 4.88843 0
M  V30 1138 H 101.663 1.79557 1.1346 0
M  V30 1139 H 103.926 0.766267 0.558156 0
M  V30 1140 H 103.632 2.454 2.51936 0
M  V30 1141 H 103.506 1.08677 3.61205 0
M  V30 1142 H 105.893 0.368668 2.92788 0
M  V30 1143 H 105.974 1.76829 1.84838 0
M  V30 1144 H 105.618 3.3078 3.85418 0
M  V30 1145 H 105.548 1.88096 4.91861 0
M  V30 1146 H 108.039 1.71906 3.36536 0
M  V30 1147 H 108.352 4.06076 6.57512 0
M  V30 1148 H 106.697 3.64604 5.91683 0
M  V30 1149 H 109.888 2.20406 4.12963 0
M  V30 1150 H 110.061 3.2717 5.59342 0
M  V30 1151 N 103.467 -1.45747 0.599634 0
M  V30 1152 C 104.714 -2.02292 0.0917284 0
M  V30 1153 C 105.042 -1.46906 -1.27472 0
M  V30 1154 O 104.297 -0.630652 -1.8526 0
M  V30 1155 C 104.596 -3.57399 -0.00602758 0
M  V30 1156 C 104.262 -4.31902 1.29503 0
M  V30 1157 C 102.924 -4.51974 1.65144 0
M  V30 1158 C 105.276 -4.74551 2.15525 0
M  V30 1159 C 102.604 -5.11949 2.86574 0
M  V30 1160 C 104.956 -5.35868 3.36196 0
M  V30 1161 C 103.62 -5.54165 3.72099 0
M  V30 1162 H 102.89 -0.740239 0.0335658 0
M  V30 1163 H 105.537 -1.7491 0.779661 0
M  V30 1164 H 103.842 -3.84014 -0.777183 0
M  V30 1165 H 105.539 -3.98846 -0.415038 0
M  V30 1166 H 102.129 -4.16588 1.00761 0
M  V30 1167 H 106.313 -4.58784 1.8929 0
M  V30 1168 H 101.569 -5.24305 3.14507 0
M  V30 1169 H 105.743 -5.6787 4.03109 0
M  V30 1170 H 103.37 -6.00406 4.6628 0
M  V30 1171 N 104.945 -0.338344 -1.53925 0
M  V30 1172 C 105.875 0.51328 -2.27789 0
M  V30 1173 C 106.856 1.107 -1.29149 0
M  V30 1174 O 108.041 1.12937 -1.57984 0
M  V30 1175 C 105.171 1.66697 -3.04679 0
M  V30 1176 C 104.125 1.20183 -4.1078 0
M  V30 1177 C 103.451 2.44363 -4.75595 0
M  V30 1178 C 104.751 0.30605 -5.21403 0
M  V30 1179 H 106.445 -0.102883 -2.99223 0
M  V30 1180 H 103.991 -0.0509219 -1.4391 0
M  V30 1181 H 105.944 2.26915 -3.55088 0
M  V30 1182 H 104.668 2.30995 -2.30887 0
M  V30 1183 H 103.327 0.622499 -3.61276 0
M  V30 1184 H 102.975 3.07057 -3.98403 0
M  V30 1185 H 102.675 2.13925 -5.47275 0
M  V30 1186 H 104.199 3.05317 -5.28786 0
M  V30 1187 H 105.613 0.814929 -5.67478 0
M  V30 1188 H 104.01 0.0937929 -6.00027 0
M  V30 1189 H 105.08 -0.65921 -4.80398 0
M  V30 1190 N 106.423 1.57458 -0.0668435 0
M  V30 1191 C 107.355 2.09413 0.931601 0
M  V30 1192 C 108.368 1.02522 1.26464 0
M  V30 1193 O 109.557 1.30049 1.22269 0
M  V30 1194 C 106.657 2.53537 2.24882 0
M  V30 1195 C 105.83 3.83944 2.09537 0
M  V30 1196 C 104.889 4.14214 3.2452 0
M  V30 1197 O 103.915 4.83891 2.9973 0
M  V30 1198 N 105.117 3.67367 4.49469 0
M  V30 1199 H 107.882 2.95699 0.488048 0
M  V30 1200 H 105.443 1.61462 0.119009 0
M  V30 1201 H 107.435 2.70853 3.00701 0
M  V30 1202 H 106.005 1.72415 2.60753 0
M  V30 1203 H 105.225 3.76057 1.18215 0
M  V30 1204 H 106.513 4.69312 1.96529 0
M  V30 1205 H 105.911 3.11068 4.72497 0
M  V30 1206 H 104.468 3.89891 5.2233 0
M  V30 1207 N 107.901 -0.206675 1.56239 0
M  V30 1208 C 108.811 -1.27686 1.96808 0
M  V30 1209 C 109.827 -1.50455 0.874035 0
M  V30 1210 O 111.003 -1.63295 1.17884 0
M  V30 1211 C 108.068 -2.60358 2.28942 0
M  V30 1212 C 107.129 -2.45762 3.51994 0
M  V30 1213 C 106.362 -3.72108 3.82585 0
M  V30 1214 O 106.585 -4.75776 3.14631 0
M  V30 1215 O 105.519 -3.6833 4.76043 0
M  V30 1216 H 109.345 -0.962593 2.88041 0
M  V30 1217 H 106.93 -0.410746 1.43643 0
M  V30 1218 H 108.812 -3.38687 2.50737 0
M  V30 1219 H 107.487 -2.91435 1.4088 0
M  V30 1220 H 106.394 -1.65584 3.35459 0
M  V30 1221 H 107.727 -2.19621 4.40486 0
M  V30 1222 N 109.379 -1.50304 -0.473955 0
M  V30 1223 C 110.604 -1.65175 -1.25427 0
M  V30 1224 C 111.029 -0.333673 -1.85117 0
M  V30 1225 O 110.387 0.702114 -1.67153 0
M  V30 1226 C 110.435 -2.74295 -2.34082 0
M  V30 1227 O 109.539 -2.35349 -3.38651 0
M  V30 1228 H 108.88 -0.551944 -0.369126 0
M  V30 1229 H 111.41 -1.96662 -0.564364 0
M  V30 1230 H 111.42 -2.97285 -2.79438 0
M  V30 1231 H 110.095 -3.69959 -1.90008 0
M  V30 1232 H 108.672 -2.22794 -2.99027 0
M  V30 1233 N 110.857 0.726932 -1.39834 0
M  V30 1234 C 111.805 1.86235 -1.39353 0
M  V30 1235 C 112.799 1.67144 -0.275555 0
M  V30 1236 O 114.005 1.74387 -0.44601 0
M  V30 1237 H 110.38 0.613174 -0.43534 0
M  V30 1238 H 112.351 1.83756 -2.35109 0
M  V30 1239 C 111.1 3.23995 -1.26185 0
M  V30 1240 H 110.423 3.39285 -2.11484 0
M  V30 1241 H 111.863 4.03609 -1.29907 0
M  V30 1242 C 110.322 3.36888 0.0290018 0
M  V30 1243 O 110.852 3.89152 0.99619 0
M  V30 1244 N 109.058 2.90446 0.0947437 0
M  V30 1245 H 108.605 2.48102 -0.693035 0
M  V30 1246 H 108.563 2.99451 0.957932 0
M  V30 1247 N 112.336 1.25143 0.95797 0
M  V30 1248 C 113.582 1.09855 1.70469 0
M  V30 1249 C 113.915 -0.360187 1.90831 0
M  V30 1250 O 113.19 -1.26568 1.47685 0
M  V30 1251 C 113.473 1.8497 3.08963 0
M  V30 1252 C 113.326 3.38652 2.96032 0
M  V30 1253 C 114.645 1.63016 4.08795 0
M  V30 1254 H 111.764 0.400465 0.618706 0
M  V30 1255 H 114.406 1.53933 1.11376 0
M  V30 1256 H 112.556 1.47505 3.59409 0
M  V30 1257 H 114.228 3.85772 2.52938 0
M  V30 1258 H 112.471 3.66534 2.32025 0
M  V30 1259 H 113.142 3.8642 3.94187 0
M  V30 1260 H 115.618 1.95625 3.67247 0
M  V30 1261 H 114.494 2.18015 5.03747 0
M  V30 1262 H 114.755 0.570692 4.38401 0
M  V30 1263 N 113.814 -1.1601 1.06675 0
M  V30 1264 C 114.744 -2.22688 0.702307 0
M  V30 1265 C 115.725 -1.67306 -0.307032 0
M  V30 1266 O 116.91 -1.93352 -0.181305 0
M  V30 1267 C 114.04 -3.47178 0.092038 0
M  V30 1268 C 112.994 -4.15477 1.02777 0
M  V30 1269 C 112.32 -5.33963 0.28061 0
M  V30 1270 C 113.62 -4.66019 2.35846 0
M  V30 1271 H 115.314 -2.53429 1.59419 0
M  V30 1272 H 112.86 -1.21813 0.767961 0
M  V30 1273 H 114.813 -4.21037 -0.174814 0
M  V30 1274 H 113.537 -3.15749 -0.834877 0
M  V30 1275 H 112.196 -3.43549 1.27944 0
M  V30 1276 H 111.844 -4.98788 -0.649545 0
M  V30 1277 H 111.544 -5.806 0.904258 0
M  V30 1278 H 113.068 -6.10596 0.021396 0
M  V30 1279 H 114.482 -5.3144 2.15045 0
M  V30 1280 H 112.879 -5.23293 2.93743 0
M  V30 1281 H 113.949 -3.82023 2.98641 0
M  V30 1282 N 115.292 -0.849877 -1.32721 0
M  V30 1283 C 116.522 -0.46408 -2.0132 0
M  V30 1284 C 116.93 0.94246 -1.64056 0
M  V30 1285 O 116.273 1.6257 -0.855379 0
M  V30 1286 C 116.335 -0.517887 -3.5575 0
M  V30 1287 C 115.999 -1.88248 -4.16427 0
M  V30 1288 C 116.996 -2.84726 -4.35002 0
M  V30 1289 C 114.681 -2.17832 -4.52609 0
M  V30 1290 C 116.675 -4.08945 -4.8892 0
M  V30 1291 C 114.362 -3.42304 -5.06232 0
M  V30 1292 C 115.36 -4.37677 -5.24335 0
M  V30 1293 O 115.048 -5.59946 -5.76815 0
M  V30 1294 H 114.78 -0.181327 -0.651227 0
M  V30 1295 H 117.334 -1.14713 -1.70382 0
M  V30 1296 H 115.564 0.221997 -3.86062 0
M  V30 1297 H 117.253 -0.148366 -4.05629 0
M  V30 1298 H 118.019 -2.63174 -4.07388 0
M  V30 1299 H 113.898 -1.44385 -4.37806 0
M  V30 1300 H 117.442 -4.83396 -5.02966 0
M  V30 1301 H 113.339 -3.63709 -5.33278 0
M  V30 1302 H 114.107 -5.61838 -5.95214 0
M  V30 1303 N 116.77 1.45427 -0.607355 0
M  V30 1304 C 117.702 2.2871 0.149752 0
M  V30 1305 C 118.715 1.39937 0.831958 0
M  V30 1306 O 119.904 1.64313 0.697385 0
M  V30 1307 C 117.004 3.15673 1.23304 0
M  V30 1308 C 116.177 4.32722 0.637996 0
M  V30 1309 C 115.236 5.00895 1.61215 0
M  V30 1310 O 114.262 5.57697 1.13854 0
M  V30 1311 N 115.464 5.00159 2.94655 0
M  V30 1312 H 118.229 2.94328 -0.564882 0
M  V30 1313 H 115.79 1.55612 -0.446823 0
M  V30 1314 H 117.782 3.58144 1.88454 0
M  V30 1315 H 116.352 2.51965 1.8502 0
M  V30 1316 H 115.572 3.93734 -0.191572 0
M  V30 1317 H 116.86 5.08321 0.220665 0
M  V30 1318 H 116.258 4.553 3.35735 0
M  V30 1319 H 114.815 5.46495 3.55228 0
M  V30 1320 N 118.248 0.346503 1.53744 0
M  V30 1321 C 119.198 -0.524953 2.21874 0
M  V30 1322 C 120.182 -1.06376 1.20718 0
M  V30 1323 O 121.374 -0.996972 1.46251 0
M  V30 1324 C 118.503 -1.6739 2.99726 0
M  V30 1325 C 117.589 -1.14888 4.08242 0
M  V30 1326 N 117.98 -0.345329 5.0462 0
M  V30 1327 C 116.278 -1.4255 4.22606 0
M  V30 1328 C 116.979 -0.0600706 5.81669 0
M  V30 1329 N 115.955 -0.65252 5.39669 0
M  V30 1330 H 119.757 0.0960091 2.93743 0
M  V30 1331 H 117.271 0.15352 1.61673 0
M  V30 1332 H 119.268 -2.3102 3.47038 0
M  V30 1333 H 117.928 -2.29811 2.29384 0
M  V30 1334 H 118.939 0.0138439 5.17898 0
M  V30 1335 H 115.616 -2.05389 3.63486 0
M  V30 1336 H 117.006 0.588321 6.69319 0
M  V30 1337 N 119.726 -1.57421 0.075193 0
M  V30 1338 C 120.674 -2.14124 -0.908508 0
M  V30 1339 C 121.668 -1.07898 -1.30592 0
M  V30 1340 O 122.874 -1.26273 -1.28277 0
M  V30 1341 H 119.249 -0.684707 -0.310935 0
M  V30 1342 H 121.22 -2.95634 -0.405374 0
M  V30 1343 C 119.969 -2.72044 -2.16535 0
M  V30 1344 H 119.292 -3.53456 -1.86839 0
M  V30 1345 H 120.732 -3.15311 -2.83469 0
M  V30 1346 C 119.191 -1.66968 -2.92615 0
M  V30 1347 O 119.721 -1.0967 -3.86439 0
M  V30 1348 N 117.927 -1.37923 -2.55784 0
M  V30 1349 H 117.474 -1.84706 -1.79559 0
M  V30 1350 H 117.432 -0.67852 -3.06991 0
M  V30 1351 N 121.204 0.198386 -1.56346 0
M  V30 1352 C 122.134 1.24865 -1.9731 0
M  V30 1353 C 123.115 1.47651 -0.844576 0
M  V30 1354 O 124.3 1.59444 -1.10866 0
M  V30 1355 C 121.43 2.59358 -2.30977 0
M  V30 1356 C 120.384 2.5119 -3.46537 0
M  V30 1357 C 119.71 3.89926 -3.65871 0
M  V30 1358 C 121.01 2.03977 -4.80823 0
M  V30 1359 H 122.704 0.908252 -2.85291 0
M  V30 1360 H 120.25 0.435462 -1.37258 0
M  V30 1361 H 122.203 3.33011 -2.58228 0
M  V30 1362 H 120.927 2.95132 -1.39874 0
M  V30 1363 H 119.586 1.79993 -3.19371 0
M  V30 1364 H 119.234 4.23046 -2.72105 0
M  V30 1365 H 118.934 3.85336 -4.4361 0
M  V30 1366 H 120.458 4.65205 -3.95495 0
M  V30 1367 H 121.872 2.67386 -5.07127 0
M  V30 1368 H 120.269 2.10397 -5.62008 0
M  V30 1369 H 121.339 0.992861 -4.74626 0
M  V30 1370 N 122.682 1.50554 0.465978 0
M  V30 1371 C 124.098 1.38093 0.800154 0
M  V30 1372 C 124.298 0.440988 1.96615 0
M  V30 1373 O 123.354 -0.114499 2.5224 0
M  V30 1374 C 124.667 2.79565 1.10742 0
M  V30 1375 C 126.215 2.88516 1.21357 0
M  V30 1376 C 126.69 4.30833 1.55393 0
M  V30 1377 N 128.181 4.33807 1.62375 0
M  V30 1378 C 128.916 5.40927 1.90225 0
M  V30 1379 N 128.412 6.58247 2.16062 0
M  V30 1380 N 130.205 5.28376 1.9177 0
M  V30 1381 H 122.356 2.10237 -0.302366 0
M  V30 1382 H 124.619 0.945203 -0.0727746 0
M  V30 1383 H 124.325 3.50208 0.323661 0
M  V30 1384 H 124.199 3.17125 2.04234 0
M  V30 1385 H 126.586 2.1809 1.98799 0
M  V30 1386 H 126.667 2.54492 0.258321 0
M  V30 1387 H 126.311 5.01799 0.784889 0
M  V30 1388 H 126.241 4.62347 2.52076 0
M  V30 1389 H 128.732 3.49212 1.44427 0
M  V30 1390 H 129.045 7.3569 2.36601 0
M  V30 1391 H 127.39 6.61413 2.13444 0
M  V30 1392 H 130.581 4.35715 1.71085 0
M  V30 1393 H 130.754 6.11944 2.13139 0
M  V30 1394 N 124.16 -0.719506 1.40217 0
M  V30 1395 C 125.576 -1.02707 1.22161 0
M  V30 1396 C 125.776 -2.0128 0.0940557 0
M  V30 1397 O 124.832 -2.46452 -0.549318 0
M  V30 1398 C 126.145 -1.57454 2.56181 0
M  V30 1399 C 127.693 -1.69458 2.63159 0
M  V30 1400 C 128.168 -2.27611 3.97438 0
M  V30 1401 N 129.659 -2.35002 3.99159 0
M  V30 1402 C 130.394 -2.80972 4.99842 0
M  V30 1403 N 129.89 -3.26723 6.10921 0
M  V30 1404 N 131.683 -2.80321 4.87213 0
M  V30 1405 H 123.834 -0.0660492 2.12297 0
M  V30 1406 H 126.097 -0.0919077 0.943534 0
M  V30 1407 H 125.803 -0.924873 3.39321 0
M  V30 1408 H 125.677 -2.56036 2.76993 0
M  V30 1409 H 128.064 -2.33543 1.80393 0
M  V30 1410 H 128.145 -0.694867 2.46181 0
M  V30 1411 H 127.789 -1.6415 4.80643 0
M  V30 1412 H 127.719 -3.2829 4.11744 0
M  V30 1413 H 130.21 -2.02685 3.18947 0
M  V30 1414 H 130.523 -3.60355 6.8364 0
M  V30 1415 H 128.868 -3.24692 6.14492 0
M  V30 1416 H 132.059 -2.43912 3.9953 0
M  V30 1417 H 132.232 -3.15831 5.65822 0
M  V30 1418 N 125.638 -1.25649 -0.95132 0
M  V30 1419 C 126.887 -1.09988 -1.69073 0
M  V30 1420 C 127.2 0.358355 -1.92289 0
M  V30 1421 O 128.406 0.635466 -2.63958 0
M  V30 1422 C 126.862 -1.92012 -3.044 0
M  V30 1423 C 126.47 -3.42347 -2.88968 0
M  V30 1424 C 128.214 -1.8493 -3.82101 0
M  V30 1425 C 126.121 -4.16655 -4.19705 0
M  V30 1426 H 125.051 -0.407993 -0.63408 0
M  V30 1427 H 127.702 -1.49873 -1.05879 0
M  V30 1428 H 126.084 -1.44952 -3.68517 0
M  V30 1429 H 127.258 -3.97104 -2.33762 0
M  V30 1430 H 125.573 -3.50557 -2.24719 0
M  V30 1431 H 128.17 -2.37739 -4.78941 0
M  V30 1432 H 128.513 -0.817883 -4.08187 0
M  V30 1433 H 129.046 -2.29758 -3.2474 0
M  V30 1434 H 125.785 -5.20224 -3.98807 0
M  V30 1435 H 125.305 -3.66681 -4.74663 0
M  V30 1436 H 126.984 -4.24551 -4.88227 0
M  V30 1437 N 127.117 1.15442 -1.07289 0
M  V30 1438 C 128.064 2.20161 -0.692653 0
M  V30 1439 C 129.034 1.63073 0.31564 0
M  V30 1440 O 130.219 1.89725 0.202235 0
M  V30 1441 C 127.359 3.44967 -0.0959509 0
M  V30 1442 C 126.472 4.16256 -1.15564 0
M  V30 1443 C 125.607 5.28609 -0.524011 0
M  V30 1444 C 124.646 5.91715 -1.56653 0
M  V30 1445 N 123.783 6.9554 -0.957531 0
M  V30 1446 H 128.623 2.52037 -1.59002 0
M  V30 1447 H 126.16 1.2378 -0.794798 0
M  V30 1448 H 128.118 4.16341 0.267628 0
M  V30 1449 H 126.748 3.1361 0.764772 0
M  V30 1450 H 125.8 3.43385 -1.6368 0
M  V30 1451 H 127.112 4.59268 -1.94613 0
M  V30 1452 H 126.266 6.06604 -0.108032 0
M  V30 1453 H 125.005 4.86787 0.29825 0
M  V30 1454 H 124.01 5.12433 -1.9923 0
M  V30 1455 H 125.235 6.35614 -2.39107 0
M  V30 1456 H 123.181 6.55814 -0.156162 0
M  V30 1457 H 123.098 7.36977 -1.68526 0
M  V30 1458 H 124.366 7.77435 -0.567032 0
M  V30 1459 N 128.595 0.856903 1.32268 0
M  V30 1460 C 129.527 0.260412 2.27716 0
M  V30 1461 C 130.54 -0.569137 1.52528 0
M  V30 1462 O 131.729 -0.39326 1.74114 0
M  V30 1463 C 128.829 -0.650477 3.32599 0
M  V30 1464 C 128.002 0.14372 4.37164 0
M  V30 1465 C 127.061 -0.69328 5.21613 0
M  V30 1466 O 126.087 -0.12599 5.69061 0
M  V30 1467 N 127.289 -2.00761 5.44679 0
M  V30 1468 H 130.054 1.08059 2.79541 0
M  V30 1469 H 127.615 0.717103 1.45152 0
M  V30 1470 H 129.607 -1.21581 3.86005 0
M  V30 1471 H 128.177 -1.37133 2.80915 0
M  V30 1472 H 127.397 0.890486 3.8401 0
M  V30 1473 H 128.685 0.68915 5.04111 0
M  V30 1474 H 128.083 -2.49181 5.07863 0
M  V30 1475 H 126.64 -2.52103 6.01072 0
M  V30 1476 N 130.073 -1.45103 0.615059 0
M  V30 1477 C 131.32 -2.02183 0.113179 0
M  V30 1478 C 131.648 -1.48249 -1.25906 0
M  V30 1479 O 130.903 -0.650265 -1.84581 0
M  V30 1480 C 131.202 -3.57386 0.0318797 0
M  V30 1481 C 130.868 -4.30505 1.34077 0
M  V30 1482 C 129.53 -4.50197 1.69929 0
M  V30 1483 C 131.882 -4.72238 2.20546 0
M  V30 1484 C 129.21 -5.08881 2.91988 0
M  V30 1485 C 131.562 -5.32272 3.41861 0
M  V30 1486 C 130.226 -5.50187 3.77956 0
M  V30 1487 H 129.496 -0.739842 0.0414151 0
M  V30 1488 H 132.143 -1.74073 0.798168 0
M  V30 1489 H 130.448 -3.84817 -0.736409 0
M  V30 1490 H 132.145 -3.99264 -0.372712 0
M  V30 1491 H 128.735 -4.15496 1.05173 0
M  V30 1492 H 132.919 -4.56751 1.94146 0
M  V30 1493 H 128.175 -5.20939 3.2005 0
M  V30 1494 H 132.349 -5.63563 4.09109 0
M  V30 1495 H 129.976 -5.95427 4.72622 0
M  V30 1496 N 131.551 -0.354651 -1.53558 0
M  V30 1497 C 132.481 0.489091 -2.2832 0
M  V30 1498 C 133.462 1.09324 -1.30316 0
M  V30 1499 O 134.647 1.11255 -1.59173 0
M  V30 1500 C 131.777 1.63456 -3.0643 0
M  V30 1501 C 130.731 1.1582 -4.12031 0
M  V30 1502 C 130.057 2.39305 -4.7816 0
M  V30 1503 C 131.357 0.250731 -5.21698 0
M  V30 1504 H 133.051 -0.134614 -2.99097 0
M  V30 1505 H 130.597 -0.0661826 -1.43848 0
M  V30 1506 H 132.55 2.23136 -3.57475 0
M  V30 1507 H 131.274 2.28533 -2.33325 0
M  V30 1508 H 129.933 0.584146 -3.61916 0
M  V30 1509 H 129.581 3.02814 -4.01637 0
M  V30 1510 H 129.281 2.08109 -5.49513 0
M  V30 1511 H 130.805 2.99691 -5.31994 0
M  V30 1512 H 132.219 0.754695 -5.68311 0
M  V30 1513 H 130.616 0.0301468 -6.00092 0
M  V30 1514 H 131.686 -0.710125 -4.79672 0
M  V30 1515 N 133.029 1.57378 -0.0835403 0
M  V30 1516 C 133.961 2.10389 0.909338 0
M  V30 1517 C 134.974 1.03858 1.25369 0
M  V30 1518 O 136.163 1.31338 1.20882 0
M  V30 1519 C 133.263 2.55908 2.2218 0
M  V30 1520 C 132.436 3.86145 2.05453 0
M  V30 1521 C 131.495 4.17633 3.20108 0
M  V30 1522 O 130.521 4.87043 2.94581 0
M  V30 1523 N 131.723 3.72113 4.45547 0
M  V30 1524 H 134.488 2.962 0.456657 0
M  V30 1525 H 132.049 1.61579 0.101877 0
M  V30 1526 H 134.041 2.74027 2.97811 0
M  V30 1527 H 132.611 1.75171 2.58909 0
M  V30 1528 H 131.831 3.7729 1.1422 0
M  V30 1529 H 133.119 4.7137 1.91541 0
M  V30 1530 H 132.517 3.16062 4.69171 0
M  V30 1531 H 131.074 3.95409 5.18165 0
M  V30 1532 N 134.507 -0.190092 1.56449 0
M  V30 1533 C 135.732 -0.929864 1.85387 0
M  V30 1534 C 136.157 -1.7585 0.667704 0
M  V30 1535 O 135.515 -1.77198 -0.383459 0
M  V30 1536 C 135.563 -1.79773 3.12593 0
M  V30 1537 O 134.667 -2.89713 2.93496 0
M  V30 1538 H 134.008 -0.261574 0.610307 0
M  V30 1539 H 136.538 -0.193896 2.03679 0
M  V30 1540 H 136.548 -2.20139 3.43515 0
M  V30 1541 H 135.223 -1.18892 3.98544 0
M  V30 1542 H 133.8 -2.53065 2.73884 0
M  V30 1543 N 135.985 -1.50799 -0.457987 0
M  V30 1544 C 137.401 -1.38515 -0.792819 0
M  V30 1545 C 137.601 -0.451409 -1.96379 0
M  V30 1546 O 136.657 0.10112 -2.52297 0
M  V30 1547 C 137.97 -2.80149 -1.09258 0
M  V30 1548 C 139.518 -2.89156 -1.19825 0
M  V30 1549 C 139.993 -4.31651 -1.53106 0
M  V30 1550 N 141.484 -4.34662 -1.60072 0
M  V30 1551 C 142.219 -5.41928 -1.87354 0
M  V30 1552 N 141.715 -6.59384 -2.12568 0
M  V30 1553 N 143.508 -5.29385 -1.88965 0
M  V30 1554 H 135.659 -2.10073 0.313511 0
M  V30 1555 H 137.922 -0.944803 0.0777862 0
M  V30 1556 H 137.628 -3.50374 -0.305084 0
M  V30 1557 H 137.502 -3.18204 -2.02549 0
M  V30 1558 H 139.889 -2.19141 -1.97639 0
M  V30 1559 H 139.97 -2.54626 -0.244821 0
M  V30 1560 H 139.614 -5.02208 -0.758266 0
M  V30 1561 H 139.544 -4.63678 -2.49621 0
M  V30 1562 H 142.035 -3.49973 -1.42573 0
M  V30 1563 H 142.348 -7.36934 -2.32696 0
M  V30 1564 H 140.693 -6.62535 -2.09933 0
M  V30 1565 H 143.884 -4.36616 -1.68772 0
M  V30 1566 H 144.057 -6.13066 -2.09891 0
M  V30 1567 N 137.463 0.71206 -1.40597 0
M  V30 1568 C 138.693 1.49894 -1.42181 0
M  V30 1569 C 139.101 1.89189 -0.0208078 0
M  V30 1570 O 138.444 1.56223 0.966436 0
M  V30 1571 C 138.506 2.80215 -2.25211 0
M  V30 1572 C 138.17 2.63221 -3.73582 0
M  V30 1573 C 139.167 2.30249 -4.66135 0
M  V30 1574 C 136.852 2.79376 -4.17438 0
M  V30 1575 C 138.846 2.13645 -6.00529 0
M  V30 1576 C 136.533 2.6239 -5.51901 0
M  V30 1577 C 137.531 2.29573 -6.43262 0
M  V30 1578 O 137.219 2.12719 -7.75246 0
M  V30 1579 H 136.951 0.469031 -0.486812 0
M  V30 1580 H 139.505 0.88564 -1.85326 0
M  V30 1581 H 137.735 3.4389 -1.76852 0
M  V30 1582 H 139.424 3.41947 -2.18694 0
M  V30 1583 H 140.19 2.17398 -4.33547 0
M  V30 1584 H 136.069 3.03906 -3.46644 0
M  V30 1585 H 139.613 1.87953 -6.71803 0
M  V30 1586 H 135.51 2.74826 -5.84073 0
M  V30 1587 H 136.278 2.27611 -7.86216 0
M  V30 1588 N 138.941 1.26152 0.944643 0
M  V30 1589 C 139.871 1.09902 2.06019 0
M  V30 1590 C 140.852 0.00519538 1.70099 0
M  V30 1591 O 142.037 0.176583 1.93396 0
M  V30 1592 C 139.167 0.727562 3.39594 0
M  V30 1593 C 138.121 1.77274 3.89561 0
M  V30 1594 C 137.447 1.25569 5.19747 0
M  V30 1595 C 138.747 3.17357 4.14827 0
M  V30 1596 H 140.441 2.03217 2.19871 0
M  V30 1597 H 137.987 0.978452 1.05652 0
M  V30 1598 H 139.94 0.600777 4.17095 0
M  V30 1599 H 138.664 -0.241287 3.25707 0
M  V30 1600 H 137.323 1.88814 3.14237 0
M  V30 1601 H 136.971 0.276783 5.02238 0
M  V30 1602 H 136.671 1.95433 5.54148 0
M  V30 1603 H 138.195 1.1415 5.99835 0
M  V30 1604 H 139.609 3.08914 4.82954 0
M  V30 1605 H 138.006 3.84781 4.60504 0
M  V30 1606 H 139.076 3.63673 3.20734 0
M  V30 1607 N 140.419 -1.14872 1.07899 0
M  V30 1608 C 141.329 -2.2341 0.715915 0
M  V30 1609 C 142.345 -1.71808 -0.275306 0
M  V30 1610 O 143.521 -2.01039 -0.120545 0
M  V30 1611 C 140.586 -3.46474 0.125168 0
M  V30 1612 C 139.647 -4.13039 1.17034 0
M  V30 1613 C 138.88 -5.30229 0.607688 0
M  V30 1614 O 139.103 -5.675 -0.574497 0
M  V30 1615 O 138.037 -5.86444 1.35526 0
M  V30 1616 H 141.863 -2.56808 1.62121 0
M  V30 1617 H 139.448 -1.22702 0.852322 0
M  V30 1618 H 141.33 -4.20917 -0.201729 0
M  V30 1619 H 140.005 -3.14811 -0.753364 0
M  V30 1620 H 138.912 -3.40493 1.54968 0
M  V30 1621 H 140.245 -4.48796 2.02097 0
M  V30 1622 N 141.898 -0.863906 -1.31812 0
M  V30 1623 C 142.845 -0.313303 -2.28664 0
M  V30 1624 C 143.815 0.584868 -1.55462 0
M  V30 1625 O 145 0.517805 -1.83639 0
M  V30 1626 C 142.14 0.48441 -3.41683 0
M  V30 1627 C 141.253 -0.440594 -4.29747 0
M  V30 1628 C 140.388 0.370652 -5.29905 0
M  V30 1629 C 139.427 -0.551164 -6.09613 0
M  V30 1630 N 138.564 0.223462 -7.01744 0
M  V30 1631 H 143.404 -1.14444 -2.75148 0
M  V30 1632 H 140.941 -0.575769 -1.35364 0
M  V30 1633 H 142.899 0.962627 -4.05943 0
M  V30 1634 H 141.529 1.28029 -2.96325 0
M  V30 1635 H 140.581 -1.03724 -3.65986 0
M  V30 1636 H 141.893 -1.14767 -4.85417 0
M  V30 1637 H 141.047 0.911638 -5.99812 0
M  V30 1638 H 139.786 1.11105 -4.74876 0
M  V30 1639 H 138.791 -1.10396 -5.38603 0
M  V30 1640 H 140.016 -1.29032 -6.66729 0
M  V30 1641 H 137.962 0.946787 -6.49132 0
M  V30 1642 H 137.879 -0.424399 -7.54808 0
M  V30 1643 H 139.147 0.745876 -7.75923 0
M  V30 1644 N 143.376 1.44774 -0.622745 0
M  V30 1645 C 144.787 1.85546 -0.207226 0
M  V30 1646 C 145.138 1.52093 1.23944 0
M  V30 1647 O 144.263 0.95492 1.94191 0
M  V30 1648 C 144.858 3.36781 -0.369313 0
M  V30 1649 C 143.417 3.76399 -0.00836847 0
M  V30 1650 C 142.564 2.68664 -0.686651 0
M  V30 1651 H 145.515 1.3536 -0.828454 0
M  V30 1652 H 145.536 3.78453 0.394162 0
M  V30 1653 H 145.048 3.61098 -1.42231 0
M  V30 1654 H 143.149 3.57698 1.04322 0
M  V30 1655 H 143.262 4.7732 -0.412584 0
M  V30 1656 H 141.626 2.54404 -0.122777 0
M  V30 1657 H 142.409 2.95815 -1.74208 0
M  V30 1658 N 144.854 0.36279 1.53368 0
M  V30 1659 C 145.787 -0.528507 2.21996 0
M  V30 1660 C 146.765 -1.0852 1.21087 0
M  V30 1661 O 147.949 -1.14186 1.4998 0
M  V30 1662 C 145.076 -1.72893 2.91249 0
M  V30 1663 C 144.122 -1.29994 4.06207 0
M  V30 1664 S 144.955 -0.303575 5.34639 0
M  V30 1665 C 146.111 -1.51039 6.07403 0
M  V30 1666 H 146.344 0.0543423 2.9725 0
M  V30 1667 H 143.877 0.146889 1.537 0
M  V30 1668 H 145.835 -2.41751 3.31763 0
M  V30 1669 H 144.496 -2.28303 2.15724 0
M  V30 1670 H 143.689 -2.19549 4.53667 0
M  V30 1671 H 143.291 -0.690608 3.67569 0
M  V30 1672 H 145.583 -2.44186 6.31965 0
M  V30 1673 H 146.526 -1.07721 6.99858 0
M  V30 1674 H 146.934 -1.71518 5.37812 0
M  V30 1675 N 146.332 -1.57332 0.0918853 0
M  V30 1676 C 147.242 -2.17368 -0.882505 0
M  V30 1677 C 148.258 -1.14226 -1.31257 0
M  V30 1678 O 149.434 -1.46582 -1.38115 0
M  V30 1679 C 146.499 -2.73962 -2.12476 0
M  V30 1680 C 145.56 -3.92048 -1.7492 0
M  V30 1681 C 144.793 -4.45933 -2.93223 0
M  V30 1682 O 145.016 -3.98764 -4.07852 0
M  V30 1683 O 143.95 -5.36999 -2.71875 0
M  V30 1684 H 147.776 -3.01031 -0.40172 0
M  V30 1685 H 145.361 -1.48813 -0.132291 0
M  V30 1686 H 147.243 -3.10147 -2.85283 0
M  V30 1687 H 145.918 -1.93347 -2.59613 0
M  V30 1688 H 144.825 -3.6068 -0.993025 0
M  V30 1689 H 146.158 -4.74017 -1.32548 0
M  V30 1690 N 147.81 0.181792 -1.56548 0
M  V30 1691 C 149.059 0.898348 -1.8059 0
M  V30 1692 C 149.372 1.83862 -0.667379 0
M  V30 1693 O 150.578 2.59678 -0.792446 0
M  V30 1694 C 149.034 1.64791 -3.19956 0
M  V30 1695 C 148.642 0.751789 -4.41647 0
M  V30 1696 C 150.386 2.35331 -3.53298 0
M  V30 1697 C 148.293 1.50098 -5.72035 0
M  V30 1698 H 147.223 0.339194 -0.673397 0
M  V30 1699 H 149.874 0.151413 -1.82874 0
M  V30 1700 H 148.256 2.43921 -3.11959 0
M  V30 1701 H 149.43 -0.0018076 -4.608 0
M  V30 1702 H 147.745 0.156562 -4.16106 0
M  V30 1703 H 150.342 2.91958 -4.47956 0
M  V30 1704 H 150.685 3.10164 -2.77676 0
M  V30 1705 H 151.218 1.63154 -3.62803 0
M  V30 1706 H 147.957 0.795175 -6.50659 0
M  V30 1707 H 147.477 2.22817 -5.56878 0
M  V30 1708 H 149.156 2.05125 -6.13622 0
M  V30 1709 N 149.288 1.51039 0.449983 0
M  V30 1710 C 150.251 1.70863 1.5277 0
M  V30 1711 C 151.251 0.578846 1.5002 0
M  V30 1712 O 152.441 0.846213 1.52266 0
M  V30 1713 C 149.573 1.75341 2.9235 0
M  V30 1714 H 150.766 2.67034 1.36502 0
M  V30 1715 H 148.319 1.40838 0.677812 0
M  V30 1716 H 149.054 0.809383 3.14037 0
M  V30 1717 H 148.839 2.57436 2.95752 0
M  V30 1718 H 150.329 1.92559 3.70555 0
M  V30 1719 N 150.766 -0.704594 1.40972 0
M  V30 1720 C 152.182 -1.01406 1.23244 0
M  V30 1721 C 152.382 -2.01169 0.115399 0
M  V30 1722 O 151.438 -2.47021 -0.523147 0
M  V30 1723 C 152.751 -1.54728 2.57836 0
M  V30 1724 C 154.299 -1.66658 2.64942 0
M  V30 1725 C 154.774 -2.23383 3.9983 0
M  V30 1726 N 156.265 -2.30756 4.01629 0
M  V30 1727 C 157 -2.75655 5.02794 0
M  V30 1728 N 156.496 -3.20225 6.14352 0
M  V30 1729 N 158.289 -2.75138 4.90159 0
M  V30 1730 H 150.44 -0.0435285 2.12355 0
M  V30 1731 H 152.703 -0.0818951 0.944456 0
M  V30 1732 H 152.409 -0.888832 3.40283 0
M  V30 1733 H 152.283 -2.53084 2.79693 0
M  V30 1734 H 154.67 -2.31617 1.8286 0
M  V30 1735 H 154.751 -0.668717 2.46904 0
M  V30 1736 H 154.395 -1.59043 4.82357 0
M  V30 1737 H 154.325 -3.23904 4.15203 0
M  V30 1738 H 156.816 -1.99291 3.21079 0
M  V30 1739 H 157.129 -3.53084 6.87424 0
M  V30 1740 H 155.474 -3.18156 6.17901 0
M  V30 1741 H 158.665 -2.39661 4.02095 0
M  V30 1742 H 158.838 -3.09812 5.6914 0
M  V30 1743 N 152.244 -1.26651 -0.937939 0
M  V30 1744 C 153.493 -1.11775 -1.67897 0
M  V30 1745 C 153.806 0.33794 -1.92659 0
M  V30 1746 O 155.012 0.607434 -2.64618 0
M  V30 1747 C 153.468 -1.9523 -3.02346 0
M  V30 1748 C 153.076 -3.45393 -2.8532 0
M  V30 1749 C 154.82 -1.88972 -3.80118 0
M  V30 1750 C 152.727 -4.21083 -4.15263 0
M  V30 1751 H 151.657 -0.414696 -0.629717 0
M  V30 1752 H 154.308 -1.50988 -1.04283 0
M  V30 1753 H 152.69 -1.48853 -3.66959 0
M  V30 1754 H 153.864 -3.99561 -2.29537 0
M  V30 1755 H 152.179 -3.52921 -2.20988 0
M  V30 1756 H 154.776 -2.42805 -4.76392 0
M  V30 1757 H 155.119 -0.86113 -4.07296 0
M  V30 1758 H 155.652 -2.33189 -3.22285 0
M  V30 1759 H 152.391 -5.24425 -3.93267 0
M  V30 1760 H 151.911 -3.71695 -4.70747 0
M  V30 1761 H 153.59 -4.29706 -4.83696 0
M  V30 1762 N 153.722 1.14298 -1.08507 0
M  V30 1763 C 154.968 1.85633 -0.816581 0
M  V30 1764 C 155.301 1.82784 0.656021 0
M  V30 1765 O 154.576 1.25926 1.48233 0
M  V30 1766 C 154.859 3.34223 -1.34041 0
M  V30 1767 C 154.712 3.45639 -2.87843 0
M  V30 1768 C 156.031 4.29356 -0.9665 0
M  V30 1769 H 153.15 0.67402 -0.298104 0
M  V30 1770 H 155.792 1.34214 -1.34487 0
M  V30 1771 H 153.942 3.78144 -0.89104 0
M  V30 1772 H 155.614 3.10498 -3.41158 0
M  V30 1773 H 153.857 2.86817 -3.25451 0
M  V30 1774 H 154.528 4.50089 -3.19569 0
M  V30 1775 H 157.004 3.93457 -1.35391 0
M  V30 1776 H 155.88 5.3178 -1.3602 0
M  V30 1777 H 156.141 4.41919 0.126362 0
M  V30 1778 N 155.201 0.870884 1.31352 0
M  V30 1779 C 156.164 0.332243 2.26779 0
M  V30 1780 C 157.164 -0.517302 1.52252 0
M  V30 1781 O 158.354 -0.326477 1.71113 0
M  V30 1782 C 155.486 -0.528066 3.36785 0
M  V30 1783 H 156.679 1.17469 2.75937 0
M  V30 1784 H 154.232 0.64655 1.423 0
M  V30 1785 H 154.967 -1.39167 2.92922 0
M  V30 1786 H 154.752 0.0802582 3.92018 0
M  V30 1787 H 156.242 -0.897179 4.07849 0
M  V30 1788 N 156.679 -1.44442 0.630414 0
M  V30 1789 C 158.095 -1.56832 0.295973 0
M  V30 1790 C 158.295 -1.61806 -1.20088 0
M  V30 1791 O 157.351 -1.5607 -1.9849 0
M  V30 1792 C 158.664 -2.84031 0.987264 0
M  V30 1793 C 160.212 -2.97742 0.96534 0
M  V30 1794 C 160.687 -4.27743 1.63708 0
M  V30 1795 N 162.178 -4.34555 1.60364 0
M  V30 1796 C 162.913 -5.33862 2.09234 0
M  V30 1797 N 162.409 -6.39578 2.66292 0
M  V30 1798 N 164.202 -5.25366 1.99867 0
M  V30 1799 H 156.353 -1.39457 1.60205 0
M  V30 1800 H 158.616 -0.668237 0.672431 0
M  V30 1801 H 158.322 -2.86338 2.04215 0
M  V30 1802 H 158.196 -3.73534 0.524588 0
M  V30 1803 H 160.583 -2.94989 -0.0810639 0
M  V30 1804 H 160.664 -2.09589 1.4665 0
M  V30 1805 H 160.308 -4.31255 2.68293 0
M  V30 1806 H 160.238 -5.14752 1.11076 0
M  V30 1807 H 162.729 -3.58772 1.18705 0
M  V30 1808 H 163.042 -7.11637 3.01317 0
M  V30 1809 H 161.387 -6.40265 2.70343 0
M  V30 1810 H 164.578 -4.41688 1.55013 0
M  V30 1811 H 164.751 -6.02606 2.38265 0
M  V30 1812 N 158.157 -0.370918 -1.53173 0
M  V30 1813 C 159.397 0.217106 -2.03244 0
M  V30 1814 C 159.761 1.45558 -1.25207 0
M  V30 1815 O 160.962 2.11957 -1.65311 0
M  V30 1816 C 159.233 0.496664 -3.53932 0
M  V30 1817 S 160.792 1.0576 -4.25864 0
M  V30 1818 H 157.61 0.0627827 -0.708223 0
M  V30 1819 H 160.212 -0.515019 -1.88594 0
M  V30 1820 H 158.916 -0.412096 -4.08326 0
M  V30 1821 H 158.447 1.25772 -3.72753 0
M  V30 1822 H 160.462 2.34145 -4.37482 0
M  V30 1823 N 159.635 1.57281 -0.100228 0
M  V30 1824 C 160.565 2.17328 0.853857 0
M  V30 1825 C 161.546 1.10804 1.2906 0
M  V30 1826 O 162.731 1.38963 1.35657 0
M  V30 1827 C 159.861 2.75772 2.11109 0
M  V30 1828 C 158.815 3.87713 1.81279 0
M  V30 1829 C 158.141 4.32882 3.13874 0
M  V30 1830 C 159.441 5.10677 1.09574 0
M  V30 1831 H 161.135 2.97305 0.353545 0
M  V30 1832 H 158.681 1.43009 0.168612 0
M  V30 1833 H 160.634 3.16433 2.78296 0
M  V30 1834 H 159.358 1.93057 2.63432 0
M  V30 1835 H 158.017 3.476 1.16489 0
M  V30 1836 H 157.665 3.47051 3.64095 0
M  V30 1837 H 157.365 5.08358 2.94696 0
M  V30 1838 H 158.889 4.7618 3.82211 0
M  V30 1839 H 160.303 5.48474 1.66879 0
M  V30 1840 H 158.7 5.91615 1.00557 0
M  V30 1841 H 159.77 4.84835 0.0793299 0
M  V30 1842 N 161.113 -0.173488 1.56642 0
M  V30 1843 C 162.359 -0.887108 1.83035 0
M  V30 1844 C 162.714 -1.79965 0.680461 0
M  V30 1845 O 162.007 -1.88854 -0.323225 0
M  V30 1846 C 162.201 -1.72069 3.13252 0
M  V30 1847 C 162.03 -0.89035 4.40798 0
M  V30 1848 C 160.8 -0.566282 5.02117 0
M  V30 1849 C 162.998 -0.232921 5.13772 0
M  V30 1850 N 160.98 0.280427 6.13259 0
M  V30 1851 C 162.351 0.475046 6.18177 0
M  V30 1852 C 164.406 -0.150863 4.97671 0
M  V30 1853 C 163.109 1.25729 7.08227 0
M  V30 1854 C 165.135 0.618039 5.88162 0
M  V30 1855 C 164.497 1.31438 6.92029 0
M  V30 1856 H 160.596 -0.303303 0.720785 0
M  V30 1857 H 163.18 -0.154244 1.94088 0
M  V30 1858 H 161.351 -2.42499 3.03395 0
M  V30 1859 H 163.083 -2.37545 3.2765 0
M  V30 1860 H 159.838 -0.895852 4.6505 0
M  V30 1861 H 160.262 0.694027 6.73433 0
M  V30 1862 H 164.904 -0.674868 4.17379 0
M  V30 1863 H 162.622 1.79265 7.87966 0
M  V30 1864 H 166.208 0.683173 5.77775 0
M  V30 1865 H 165.088 1.89981 7.6084 0
M  V30 1866 N 162.591 -1.51276 -0.441967 0
M  V30 1867 C 163.501 -1.75092 -1.56141 0
M  V30 1868 C 164.517 -0.634963 -1.62001 0
M  V30 1869 O 165.693 -0.916686 -1.79329 0
M  V30 1870 C 162.758 -1.86666 -2.92158 0
M  V30 1871 C 161.819 -3.10506 -2.96453 0
M  V30 1872 C 161.052 -3.21519 -4.25982 0
M  V30 1873 O 161.275 -2.38586 -5.18105 0
M  V30 1874 O 160.209 -4.14465 -4.36466 0
M  V30 1875 H 164.035 -2.70044 -1.38961 0
M  V30 1876 H 161.62 -1.35722 -0.624499 0
M  V30 1877 H 163.502 -1.96292 -3.72891 0
M  V30 1878 H 162.177 -0.949014 -3.09476 0
M  V30 1879 H 161.084 -3.06363 -2.14692 0
M  V30 1880 H 162.417 -4.01945 -2.84079 0
M  V30 1881 N 164.069 0.697108 -1.41344 0
M  V30 1882 C 164.979 1.84088 -1.45427 0
M  V30 1883 C 165.995 1.70545 -0.34501 0
M  V30 1884 O 167.171 1.92488 -0.592492 0
M  V30 1885 C 164.236 3.20056 -1.33286 0
M  V30 1886 C 163.297 3.45718 -2.54514 0
M  V30 1887 C 162.53 4.75199 -2.42944 0
M  V30 1888 O 162.753 5.51579 -1.45318 0
M  V30 1889 O 161.687 5.0161 -3.32672 0
M  V30 1890 H 165.513 1.836 -2.41919 0
M  V30 1891 H 163.098 0.849966 -1.22866 0
M  V30 1892 H 164.98 4.01236 -1.28794 0
M  V30 1893 H 163.655 3.2123 -0.39909 0
M  V30 1894 H 162.562 2.64474 -2.64583 0
M  V30 1895 H 163.895 3.49356 -3.46715 0
M  V30 1896 N 165.547 1.27147 0.931209 0
M  V30 1897 C 166.772 1.16191 1.71797 0
M  V30 1898 C 167.197 -0.278004 1.86034 0
M  V30 1899 O 166.555 -1.20137 1.35782 0
M  V30 1900 C 166.603 1.84673 3.09723 0
M  V30 1901 O 165.707 1.14231 3.96264 0
M  V30 1902 H 165.048 0.404303 0.526721 0
M  V30 1903 H 167.578 1.68152 1.1656 0
M  V30 1904 H 167.588 1.91893 3.60057 0
M  V30 1905 H 166.263 2.89421 2.98677 0
M  V30 1906 H 164.84 1.15056 3.54706 0
M  V30 1907 N 167.025 -1.13721 1.09112 0
M  V30 1908 C 168.441 -1.36914 0.820174 0
M  V30 1909 C 168.641 -1.93356 -0.567079 0
M  V30 1910 O 167.697 -2.15093 -1.32255 0
M  V30 1911 C 169.01 -2.3235 1.90877 0
M  V30 1912 C 170.558 -2.45973 1.93562 0
M  V30 1913 C 171.033 -3.44714 3.01556 0
M  V30 1914 N 172.524 -3.52263 3.00775 0
M  V30 1915 C 173.259 -4.28536 3.80978 0
M  V30 1916 N 172.755 -5.07991 4.71081 0
M  V30 1917 N 174.548 -4.23804 3.69251 0
M  V30 1918 H 166.699 -0.754348 1.98553 0
M  V30 1919 H 168.962 -0.3944 0.862063 0
M  V30 1920 H 168.668 -1.98027 2.90651 0
M  V30 1921 H 168.542 -3.32332 1.78424 0
M  V30 1922 H 170.929 -2.79584 0.944286 0
M  V30 1923 H 171.01 -1.45926 2.10093 0
M  V30 1924 H 170.654 -3.11835 4.00901 0
M  V30 1925 H 170.584 -4.44558 2.82269 0
M  V30 1926 H 173.075 -2.95567 2.35475 0
M  V30 1927 H 173.388 -5.63487 5.28869 0
M  V30 1928 H 171.733 -5.07235 4.75119 0
M  V30 1929 H 174.924 -3.60806 2.98222 0
M  V30 1930 H 175.097 -4.82995 4.31995 0
M  V30 1931 N 168.503 -0.877838 -1.30888 0
M  V30 1932 C 169.433 -0.35534 -2.3078 0
M  V30 1933 C 170.414 0.557994 -1.60687 0
M  V30 1934 O 171.599 0.473355 -1.88343 0
M  V30 1935 C 168.729 0.437221 -3.44537 0
M  V30 1936 C 167.683 -0.383715 -4.26276 0
M  V30 1937 C 167.009 0.535014 -5.32017 0
M  V30 1938 C 168.309 -1.62201 -4.96476 0
M  V30 1939 H 170.003 -1.19007 -2.74732 0
M  V30 1940 H 167.549 -0.573698 -1.32078 0
M  V30 1941 H 169.502 0.813334 -4.13477 0
M  V30 1942 H 168.226 1.30553 -2.99372 0
M  V30 1943 H 166.885 -0.741874 -3.59015 0
M  V30 1944 H 166.533 1.40083 -4.831 0
M  V30 1945 H 166.233 -0.0104211 -5.87599 0
M  V30 1946 H 167.757 0.907799 -6.03814 0
M  V30 1947 H 169.171 -1.31689 -5.5797 0
M  V30 1948 H 167.568 -2.10711 -5.61891 0
M  V30 1949 H 168.638 -2.37044 -4.23011 0
M  V30 1950 N 169.982 1.44106 -0.638065 0
M  V30 1951 C 170.912 2.33448 0.0494287 0
M  V30 1952 C 171.893 1.48606 0.827672 0
M  V30 1953 O 173.078 1.77308 0.792173 0
M  V30 1954 C 170.208 3.31771 1.02691 0
M  V30 1955 C 169.162 4.26485 0.359823 0
M  V30 1956 C 168.488 5.14729 1.44769 0
M  V30 1957 C 169.788 5.17056 -0.738296 0
M  V30 1958 H 171.482 2.91183 -0.696636 0
M  V30 1959 H 169.028 1.40014 -0.336456 0
M  V30 1960 H 170.981 3.93161 1.51666 0
M  V30 1961 H 169.705 2.7226 1.80395 0
M  V30 1962 H 168.364 3.66437 -0.10934 0
M  V30 1963 H 168.012 4.51566 2.21578 0
M  V30 1964 H 167.712 5.78913 1.00668 0
M  V30 1965 H 169.236 5.78991 1.93911 0
M  V30 1966 H 170.65 5.72342 -0.331354 0
M  V30 1967 H 169.047 5.89879 -1.10286 0
M  V30 1968 H 170.117 4.57652 -1.60258 0
M  V30 1969 N 171.46 0.379036 1.52974 0
M  V30 1970 C 172.392 -0.495963 2.2377 0
M  V30 1971 C 173.405 -1.03517 1.25651 0
M  V30 1972 O 174.594 -0.939249 1.51791 0
M  V30 1973 C 171.694 -1.69894 2.93239 0
M  V30 1974 C 170.867 -1.2889 4.17979 0
M  V30 1975 C 169.926 -2.35543 4.70538 0
M  V30 1976 O 168.952 -1.97375 5.33883 0
M  V30 1977 N 170.154 -3.67318 4.49508 0
M  V30 1978 H 172.919 0.110523 2.99496 0
M  V30 1979 H 170.48 0.204878 1.60598 0
M  V30 1980 H 172.472 -2.40747 3.25304 0
M  V30 1981 H 171.042 -2.212 2.20883 0
M  V30 1982 H 170.262 -0.409676 3.92065 0
M  V30 1983 H 171.55 -0.991443 4.99047 0
M  V30 1984 H 170.948 -4.01095 3.98923 0
M  V30 1985 H 169.505 -4.34235 4.8609 0
M  V30 1986 N 172.938 -1.57226 0.108567 0
M  V30 1987 C 174.166 -1.99179 -0.559954 0
M  V30 1988 C 174.581 -0.988022 -1.60884 0
M  V30 1989 O 173.938 0.0205512 -1.82488 0
M  V30 1990 C 173.989 -3.41159 -1.19552 0
M  V30 1991 O 173.71 -4.37694 -0.188577 0
M  V30 1992 C 175.211 -3.98188 -1.94837 0
M  V30 1993 H 172.431 -0.654228 -0.149088 0
M  V30 1994 H 174.975 -2.03598 0.19183 0
M  V30 1995 H 173.13 -3.37711 -1.89815 0
M  V30 1996 H 173.544 -5.20469 -0.649014 0
M  V30 1997 H 175.018 -4.99644 -2.34648 0
M  V30 1998 H 175.495 -3.3675 -2.81951 0
M  V30 1999 H 176.101 -4.0515 -1.2936 0
M  V30 2000 N 174.416 0.165178 -1.56732 0
M  V30 2001 C 175.379 1.18822 -1.95995 0
M  V30 2002 C 176.379 1.3685 -0.84431 0
M  V30 2003 O 177.569 1.34152 -1.11126 0
M  V30 2004 C 174.701 2.5521 -2.26011 0
M  V30 2005 H 175.894 0.851825 -2.87548 0
M  V30 2006 H 173.447 0.407857 -1.50885 0
M  V30 2007 H 174.182 2.93852 -1.37191 0
M  V30 2008 H 173.967 2.43489 -3.07336 0
M  V30 2009 H 175.457 3.28927 -2.57288 0
M  V30 2010 N 175.894 1.51508 0.433938 0
M  V30 2011 C 176.857 1.72473 1.50949 0
M  V30 2012 C 177.857 0.594725 1.49398 0
M  V30 2013 O 179.047 0.862315 1.5136 0
M  V30 2014 C 176.179 1.78431 2.90474 0
M  V30 2015 H 177.372 2.68467 1.33662 0
M  V30 2016 H 174.925 1.41549 0.662836 0
M  V30 2017 H 175.66 0.842645 3.13161 0
M  V30 2018 H 175.445 2.60558 2.93005 0
M  V30 2019 H 176.935 1.96479 3.68491 0
M  V30 2020 N 177.372 -0.689602 1.41712 0
M  V30 2021 C 178.6 -1.47827 1.44758 0
M  V30 2022 C 179.015 -1.88721 0.0545703 0
M  V30 2023 O 178.372 -1.57176 -0.927463 0
M  V30 2024 C 178.423 -2.73698 2.3616 0
M  V30 2025 O 178.144 -2.34524 3.7004 0
M  V30 2026 C 179.645 -3.67389 2.48072 0
M  V30 2027 H 176.865 -0.455357 0.49284 0
M  V30 2028 H 179.409 -0.848574 1.86063 0
M  V30 2029 H 177.564 -3.32891 1.98148 0
M  V30 2030 H 177.978 -3.15701 4.18847 0
M  V30 2031 H 179.452 -4.52475 3.16181 0
M  V30 2032 H 179.929 -4.12284 1.51388 0
M  V30 2033 H 180.535 -3.14097 2.86746 0
M  V30 2034 N 178.85 -1.27639 -0.924453 0
M  V30 2035 C 179.813 -1.10681 -2.00705 0
M  V30 2036 C 180.813 -0.0497823 -1.60723 0
M  V30 2037 O 182.003 -0.294654 -1.7169 0
M  V30 2038 C 179.135 -0.687164 -3.33902 0
M  V30 2039 H 180.328 -2.06817 -2.17179 0
M  V30 2040 H 177.881 -1.10473 -1.10569 0
M  V30 2041 H 178.616 0.275439 -3.23128 0
M  V30 2042 H 178.401 -1.45061 -3.6428 0
M  V30 2043 H 179.891 -0.590853 -4.13399 0
M  V30 2044 N 180.328 1.1314 -1.09713 0
M  V30 2045 C 181.291 2.16831 -0.742751 0
M  V30 2046 C 182.291 1.59159 0.229129 0
M  V30 2047 O 183.481 1.74199 0.00693237 0
M  V30 2048 C 180.613 3.40756 -0.0989168 0
M  V30 2049 H 181.806 2.49695 -1.66109 0
M  V30 2050 H 179.359 1.2802 -0.896699 0
M  V30 2051 H 180.094 3.13485 0.830514 0
M  V30 2052 H 179.879 3.83888 -0.798265 0
M  V30 2053 H 181.369 4.17386 0.133524 0
M  V30 2054 N 181.806 0.884767 1.30421 0
M  V30 2055 C 182.738 0.308655 2.27112 0
M  V30 2056 C 183.751 -0.536655 1.53701 0
M  V30 2057 O 184.94 -0.35624 1.74909 0
M  V30 2058 C 182.04 -0.579782 3.33904 0
M  V30 2059 C 181.213 0.236417 4.36761 0
M  V30 2060 C 180.272 -0.582482 5.22966 0
M  V30 2061 O 179.298 -0.00525502 5.692 0
M  V30 2062 N 180.5 -1.89163 5.48815 0
M  V30 2063 H 183.265 1.13964 2.77186 0
M  V30 2064 H 180.826 0.747731 1.43599 0
M  V30 2065 H 182.818 -1.13366 3.88497 0
M  V30 2066 H 181.388 -1.31144 2.83761 0
M  V30 2067 H 180.608 0.97174 3.82035 0
M  V30 2068 H 181.896 0.795924 5.02536 0
M  V30 2069 H 181.294 -2.38352 5.13035 0
M  V30 2070 H 179.851 -2.39296 6.06284 0
M  V30 2071 N 183.284 -1.43765 0.645699 0
M  V30 2072 C 184.216 -2.29027 -0.0890605 0
M  V30 2073 C 185.229 -1.42093 -0.794563 0
M  V30 2074 O 186.418 -1.66104 -0.653575 0
M  V30 2075 C 183.518 -3.18831 -1.14891 0
M  V30 2076 C 182.691 -4.34261 -0.523043 0
M  V30 2077 C 181.75 -5.04994 -1.47878 0
M  V30 2078 O 180.776 -5.6052 -0.990277 0
M  V30 2079 N 181.978 -5.07795 -2.81291 0
M  V30 2080 H 184.743 -2.92727 0.64272 0
M  V30 2081 H 182.304 -1.54373 0.487924 0
M  V30 2082 H 184.296 -3.63015 -1.78892 0
M  V30 2083 H 182.866 -2.56782 -1.78275 0
M  V30 2084 H 182.086 -3.93088 0.295896 0
M  V30 2085 H 183.374 -5.08728 -0.0858147 0
M  V30 2086 H 182.772 -4.64042 -3.23546 0
M  V30 2087 H 181.329 -5.55721 -3.40614 0
M  V30 2088 N 184.763 -0.387143 -1.52771 0
M  V30 2089 C 186.011 0.195349 -2.01154 0
M  V30 2090 C 186.332 1.475 -1.27549 0
M  V30 2091 O 185.602 1.91878 -0.394924 0
M  V30 2092 H 184.182 0.075178 -0.743207 0
M  V30 2093 H 186.844 -0.518337 -1.87881 0
M  V30 2094 H 185.94 0.407096 -3.09434 0
M  V30 2095 N 186.241 1.57166 -0.116904 0
M  V30 2096 C 187.489 1.94737 0.540533 0
M  V30 2097 C 187.81 1.00096 1.67349 0
M  V30 2098 O 187.08 0.0568854 1.95817 0
M  V30 2099 H 185.66 0.718981 0.202669 0
M  V30 2100 H 188.322 1.94017 -0.185353 0
M  V30 2101 H 187.418 2.97719 0.936483 0
M  V30 2102 N 187.719 -0.156864 1.56817 0
M  V30 2103 C 188.651 -1.21883 1.94106 0
M  V30 2104 C 189.664 -1.3971 0.835754 0
M  V30 2105 O 190.853 -1.39457 1.11418 0
M  V30 2106 C 187.953 -2.58527 2.19127 0
M  V30 2107 C 187.126 -2.61809 3.50393 0
M  V30 2108 C 186.185 -3.7992 3.64071 0
M  V30 2109 O 185.211 -3.65249 4.36557 0
M  V30 2110 N 186.413 -4.96973 2.99997 0
M  V30 2111 H 189.178 -0.901974 2.85805 0
M  V30 2112 H 186.739 -0.346513 1.58148 0
M  V30 2113 H 188.731 -3.36034 2.25529 0
M  V30 2114 H 187.301 -2.82545 1.33742 0
M  V30 2115 H 186.521 -1.7029 3.5552 0
M  V30 2116 H 187.809 -2.61024 4.36742 0
M  V30 2117 H 187.207 -5.11794 2.41004 0
M  V30 2118 H 185.764 -5.7229 3.11974 0
M  V30 2119 N 189.197 -1.51736 -0.425897 0
M  V30 2120 C 190.16 -1.73271 -1.50032 0
M  V30 2121 C 191.16 -0.602639 -1.4908 0
M  V30 2122 O 192.35 -0.87033 -1.509 0
M  V30 2123 C 189.482 -1.79969 -2.89523 0
M  V30 2124 H 190.675 -2.69172 -1.32237 0
M  V30 2125 H 188.228 -1.41899 -0.65532 0
M  V30 2126 H 188.963 -0.859241 -3.1271 0
M  V30 2127 H 188.748 -2.62109 -2.91619 0
M  V30 2128 H 190.238 -1.9843 -3.67444 0
M  V30 2129 N 190.675 0.682077 -1.42076 0
M  V30 2130 C 191.623 1.81707 -1.45208 0
M  V30 2131 C 192.617 1.66183 -0.328591 0
M  V30 2132 O 193.823 1.7288 -0.501264 0
M  V30 2133 H 190.198 0.599014 -0.454628 0
M  V30 2134 H 192.169 1.76183 -2.40836 0
M  V30 2135 C 190.918 3.19816 -1.36428 0
M  V30 2136 H 190.241 3.32385 -2.22171 0
M  V30 2137 H 191.681 3.99272 -1.42681 0
M  V30 2138 C 190.14 3.36809 -0.078191 0
M  V30 2139 O 190.67 3.92124 0.87188 0
M  V30 2140 N 188.876 2.906 0.00229266 0
M  V30 2141 H 188.423 2.45772 -0.771616 0
M  V30 2142 H 188.381 3.02347 0.862179 0
M  V30 2143 N 192.153 1.28127 0.917671 0
M  V30 2144 C 193.103 1.08361 2.00604 0
M  V30 2145 C 194.087 0.00847518 1.60898 0
M  V30 2146 O 195.279 0.228167 1.75523 0
M  V30 2147 C 192.408 0.743376 3.35155 0
M  V30 2148 C 191.494 1.85716 3.81275 0
M  V30 2149 N 191.885 3.09822 3.99805 0
M  V30 2150 C 190.183 1.74612 4.10398 0
M  V30 2151 C 190.884 3.82368 4.38372 0
M  V30 2152 N 189.86 3.10192 4.4641 0
M  V30 2153 H 193.662 2.02531 2.12975 0
M  V30 2154 H 191.176 1.18989 1.10523 0
M  V30 2155 H 193.173 0.582859 4.12805 0
M  V30 2156 H 191.833 -0.190595 3.2414 0
M  V30 2157 H 192.844 3.45475 3.85833 0
M  V30 2158 H 189.521 0.883657 4.08041 0
M  V30 2159 H 190.911 4.89082 4.60704 0
M  V30 2160 N 193.631 -1.12557 1.10312 0
M  V30 2161 C 195.042 -1.65574 0.862678 0
M  V30 2162 C 195.393 -1.86566 -0.607256 0
M  V30 2163 O 194.518 -1.59121 -1.46662 0
M  V30 2164 C 195.113 -3.00776 1.55947 0
M  V30 2165 C 193.672 -3.50748 1.36576 0
M  V30 2166 C 192.819 -2.25797 1.60968 0
M  V30 2167 H 195.77 -0.963552 1.26101 0
M  V30 2168 H 195.791 -3.67185 0.997753 0
M  V30 2169 H 195.303 -2.85465 2.62928 0
M  V30 2170 H 193.404 -3.71245 0.317531 0
M  V30 2171 H 193.517 -4.30289 2.10686 0
M  V30 2172 H 191.881 -2.32841 1.03234 0
M  V30 2173 H 192.664 -2.13043 2.69198 0
M  V30 2174 N 195.109 -0.891671 -1.2995 0
M  V30 2175 C 196.337 -0.52866 -2.00032 0
M  V30 2176 C 196.752 0.884574 -1.66795 0
M  V30 2177 O 196.109 1.5827 -0.908669 0
M  V30 2178 C 196.16 -0.701814 -3.54622 0
M  V30 2179 O 195.881 -2.05942 -3.86678 0
M  V30 2180 C 197.382 -0.342683 -4.41973 0
M  V30 2181 H 194.602 -0.203659 -0.639347 0
M  V30 2182 H 197.146 -1.19881 -1.65677 0
M  V30 2183 H 195.301 -0.0789468 -3.8732 0
M  V30 2184 H 195.715 -2.08291 -4.81368 0
M  V30 2185 H 197.189 -0.514709 -5.49595 0
M  V30 2186 H 197.666 0.71975 -4.33262 0
M  V30 2187 H 198.272 -0.942154 -4.14733 0
M  V30 2188 N 196.587 1.43421 -0.653314 0
M  V30 2189 C 197.55 2.29182 0.0287951 0
M  V30 2190 C 198.55 1.42213 0.750465 0
M  V30 2191 O 199.74 1.63843 0.591701 0
M  V30 2192 C 196.872 3.24278 1.05151 0
M  V30 2193 H 198.065 2.90985 -0.725786 0
M  V30 2194 H 195.618 1.50702 -0.414545 0
M  V30 2195 H 196.353 2.6737 1.83532 0
M  V30 2196 H 196.138 3.88396 0.537687 0
M  V30 2197 H 197.628 3.88647 1.52786 0
M  V30 2198 N 198.065 0.39524 1.52563 0
M  V30 2199 C 199.028 -0.425001 2.25225 0
M  V30 2200 C 200.028 -0.985266 1.27079 0
M  V30 2201 O 201.218 -0.866332 1.5113 0
M  V30 2202 C 198.35 -1.59686 3.01186 0
M  V30 2203 H 199.543 0.211233 2.99155 0
M  V30 2204 H 197.096 0.147472 1.55603 0
M  V30 2205 H 197.831 -2.27035 2.31572 0
M  V30 2206 H 197.616 -1.20176 3.73229 0
M  V30 2207 H 199.106 -2.17743 3.5634 0
M  V30 2208 N 199.544 -1.57102 0.125237 0
M  V30 2209 C 200.79 -1.95697 -0.532035 0
M  V30 2210 C 201.123 -1.009 -1.6593 0
M  V30 2211 O 200.398 -0.047347 -1.94442 0
M  V30 2212 C 200.681 -3.44181 -1.05884 0
M  V30 2213 C 200.534 -4.49752 0.0654392 0
M  V30 2214 C 201.853 -3.94655 -1.9477 0
M  V30 2215 H 198.972 -0.711571 -0.191925 0
M  V30 2216 H 201.614 -1.88923 0.20206 0
M  V30 2217 H 199.764 -3.50085 -1.68442 0
M  V30 2218 H 201.436 -4.55943 0.700982 0
M  V30 2219 H 199.679 -4.27653 0.727709 0
M  V30 2220 H 200.35 -5.50924 -0.344505 0
M  V30 2221 H 202.826 -3.91094 -1.42074 0
M  V30 2222 H 201.702 -4.99057 -2.28546 0
M  V30 2223 H 201.963 -3.35718 -2.87656 0
M  V30 2224 N 201.022 0.148545 -1.56898 0
M  V30 2225 C 202.268 0.862694 -1.83536 0
M  V30 2226 C 202.601 1.80889 -0.706604 0
M  V30 2227 O 201.876 1.92328 0.289885 0
M  V30 2228 C 202.159 1.63853 -3.20662 0
M  V30 2229 C 202.012 0.713925 -4.44098 0
M  V30 2230 C 203.331 2.60133 -3.54991 0
M  V30 2231 H 200.45 0.312179 -0.667618 0
M  V30 2232 H 203.092 0.127953 -1.89569 0
M  V30 2233 H 201.242 2.26489 -3.1565 0
M  V30 2234 H 202.914 0.098686 -4.61194 0
M  V30 2235 H 201.157 0.0234019 -4.33794 0
M  V30 2236 H 201.828 1.29278 -5.36648 0
M  V30 2237 H 204.304 2.07616 -3.60603 0
M  V30 2238 H 203.18 3.11468 -4.51972 0
M  V30 2239 H 203.441 3.41417 -2.80868 0
M  V30 2240 N 202.5 1.5196 0.417844 0
M  V30 2241 C 203.728 1.69426 1.18753 0
M  V30 2242 C 204.143 0.399955 1.84515 0
M  V30 2243 O 203.5 -0.623288 1.71527 0
M  V30 2244 C 203.551 2.82375 2.25714 0
M  V30 2245 O 203.272 4.06793 1.62638 0
M  V30 2246 C 204.773 3.11277 3.15628 0
M  V30 2247 H 201.993 0.568031 0.357186 0
M  V30 2248 H 204.537 1.98475 0.49273 0
M  V30 2249 H 202.692 2.5587 2.90877 0
M  V30 2250 H 203.106 4.69667 2.3348 0
M  V30 2251 H 204.58 3.93843 3.86771 0
M  V30 2252 H 205.057 2.24473 3.77503 0
M  V30 2253 H 205.663 3.39515 2.56144 0
M  V30 2254 N 203.978 -0.674533 1.42435 0
M  V30 2255 C 204.888 -1.81751 1.48337 0
M  V30 2256 C 205.904 -1.69975 0.372099 0
M  V30 2257 O 207.08 -1.91521 0.62304 0
M  V30 2258 C 204.145 -3.17895 1.38361 0
M  V30 2259 C 203.206 -3.41625 2.59982 0
M  V30 2260 C 202.439 -4.71274 2.50473 0
M  V30 2261 O 202.662 -5.49197 1.54075 0
M  V30 2262 O 201.596 -4.96254 3.4061 0
M  V30 2263 H 205.422 -1.79728 2.44809 0
M  V30 2264 H 203.007 -0.830312 1.24202 0
M  V30 2265 H 204.889 -3.99136 1.35161 0
M  V30 2266 H 203.564 -3.20555 0.450144 0
M  V30 2267 H 202.471 -2.60231 2.68757 0
M  V30 2268 H 203.804 -3.43796 3.52229 0
M  V30 2269 N 205.456 -1.28612 -0.910864 0
M  V30 2270 C 206.403 -1.12786 -2.01365 0
M  V30 2271 C 207.373 -0.024201 -1.66082 0
M  V30 2272 O 208.558 -0.189667 -1.89855 0
M  V30 2273 C 205.698 -0.798743 -3.35729 0
M  V30 2274 C 204.811 -1.98173 -3.83864 0
M  V30 2275 C 203.946 -1.59298 -5.06752 0
M  V30 2276 C 202.985 -2.74245 -5.47226 0
M  V30 2277 N 202.122 -2.35842 -6.61304 0
M  V30 2278 H 206.962 -2.07142 -2.14234 0
M  V30 2279 H 204.499 -1.03093 -1.0493 0
M  V30 2280 H 206.457 -0.588662 -4.13026 0
M  V30 2281 H 205.087 0.10789 -3.2262 0
M  V30 2282 H 204.139 -2.30386 -3.02699 0
M  V30 2283 H 205.451 -2.84343 -4.09818 0
M  V30 2284 H 204.605 -1.34513 -5.916 0
M  V30 2285 H 203.344 -0.702618 -4.82612 0
M  V30 2286 H 202.349 -2.99725 -4.60918 0
M  V30 2287 H 203.574 -3.63928 -5.73353 0
M  V30 2288 H 201.52 -1.49279 -6.38789 0
M  V30 2289 H 201.437 -3.15546 -6.86998 0
M  V30 2290 H 202.705 -2.14348 -7.4945 0
M  V30 2291 N 206.934 1.1197 -1.10907 0
M  V30 2292 C 207.866 2.17592 -0.720175 0
M  V30 2293 C 208.879 1.60938 0.245495 0
M  V30 2294 O 210.068 1.78476 0.0292245 0
M  V30 2295 C 207.168 3.38873 -0.0427917 0
M  V30 2296 C 206.341 4.25006 -1.03388 0
M  V30 2297 C 205.4 5.24774 -0.387075 0
M  V30 2298 O 204.426 5.59631 -1.03934 0
M  V30 2299 N 205.628 5.74208 0.852407 0
M  V30 2300 H 208.393 2.51567 -1.62893 0
M  V30 2301 H 205.954 1.27439 -0.998543 0
M  V30 2302 H 207.946 4.02703 0.401501 0
M  V30 2303 H 206.516 3.03007 0.768456 0
M  V30 2304 H 205.736 3.57716 -1.65629 0
M  V30 2305 H 207.024 4.79397 -1.70458 0
M  V30 2306 H 206.422 5.48062 1.40161 0
M  V30 2307 H 204.979 6.39901 1.23977 0
M  V30 2308 N 208.412 0.89855 1.29475 0
M  V30 2309 C 209.344 0.332726 2.26772 0
M  V30 2310 C 210.357 -0.520323 1.54261 0
M  V30 2311 O 211.546 -0.337668 1.75277 0
M  V30 2312 C 208.646 -0.544334 3.345 0
M  V30 2313 C 207.819 0.282728 4.36485 0
M  V30 2314 C 206.878 -0.526982 5.23555 0
M  V30 2315 O 205.904 0.0551165 5.69173 0
M  V30 2316 N 207.106 -1.83331 5.5079 0
M  V30 2317 H 209.871 1.16897 2.75962 0
M  V30 2318 H 207.432 0.762919 1.42798 0
M  V30 2319 H 209.424 -1.09239 3.89678 0
M  V30 2320 H 207.994 -1.28127 2.85136 0
M  V30 2321 H 207.214 1.01221 3.80983 0
M  V30 2322 H 208.502 0.84918 5.01664 0
M  V30 2323 H 207.9 -2.32898 5.15534 0
M  V30 2324 H 206.457 -2.32852 6.08788 0
M  V30 2325 N 209.89 -1.43072 0.660911 0
M  V30 2326 C 210.823 -2.28074 -0.0758862 0
M  V30 2327 C 211.801 -1.40271 -0.822362 0
M  V30 2328 O 212.985 -1.69713 -0.820352 0
M  V30 2329 C 210.112 -3.19843 -1.11437 0
M  V30 2330 C 209.158 -4.23957 -0.465069 0
M  V30 2331 S 209.991 -5.29978 0.767078 0
M  V30 2332 C 211.147 -6.25314 -0.270682 0
M  V30 2333 H 211.38 -2.90216 0.645139 0
M  V30 2334 H 208.913 -1.47697 0.449995 0
M  V30 2335 H 210.871 -3.73257 -1.70849 0
M  V30 2336 H 209.532 -2.56863 -1.80776 0
M  V30 2337 H 208.725 -4.88299 -1.24819 0
M  V30 2338 H 208.327 -3.73959 0.0551242 0
M  V30 2339 H 210.619 -6.67932 -1.13459 0
M  V30 2340 H 211.562 -7.07293 0.337916 0
M  V30 2341 H 211.97 -5.61195 -0.609937 0
M  V30 2342 N 211.368 -0.403325 -1.52352 0
M  V30 2343 C 212.298 0.416205 -2.29761 0
M  V30 2344 C 213.279 1.05123 -1.33728 0
M  V30 2345 O 214.464 1.06134 -1.62632 0
M  V30 2346 C 211.594 1.53624 -3.11475 0
M  V30 2347 C 210.548 1.02653 -4.15507 0
M  V30 2348 C 209.874 2.23971 -4.85532 0
M  V30 2349 C 211.174 0.08463 -5.22231 0
M  V30 2350 H 212.868 -0.229701 -2.98518 0
M  V30 2351 H 210.414 -0.111913 -1.43564 0
M  V30 2352 H 212.367 2.1165 -3.64393 0
M  V30 2353 H 211.091 2.20994 -2.40477 0
M  V30 2354 H 209.75 0.46871 -3.63591 0
M  V30 2355 H 209.398 2.89883 -4.11068 0
M  V30 2356 H 209.098 1.90521 -5.55856 0
M  V30 2357 H 210.622 2.82614 -5.41259 0
M  V30 2358 H 212.036 0.573509 -5.70424 0
M  V30 2359 H 210.433 -0.160783 -5.99885 0
M  V30 2360 H 211.503 -0.86237 -4.7717 0
M  V30 2361 N 212.846 1.57033 -0.133567 0
M  V30 2362 C 213.756 2.19632 0.824564 0
M  V30 2363 C 214.772 1.17666 1.28182 0
M  V30 2364 O 215.948 1.50193 1.3418 0
M  V30 2365 C 213.013 2.79499 2.05137 0
M  V30 2366 C 212.074 3.96548 1.64464 0
M  V30 2367 C 211.307 4.5355 2.81297 0
M  V30 2368 O 211.53 4.09438 3.97136 0
M  V30 2369 O 210.464 5.44018 2.57542 0
M  V30 2370 H 214.29 3.01991 0.321766 0
M  V30 2371 H 211.875 1.49112 0.0927889 0
M  V30 2372 H 213.757 3.17602 2.7696 0
M  V30 2373 H 212.432 2.00162 2.54395 0
M  V30 2374 H 211.339 3.63186 0.897048 0
M  V30 2375 H 212.672 4.77364 1.19934 0
M  V30 2376 N 214.325 -0.140222 1.56975 0
M  V30 2377 C 215.257 -1.19818 1.95388 0
M  V30 2378 C 216.27 -1.38816 0.850525 0
M  V30 2379 O 217.459 -1.38267 1.12891 0
M  V30 2380 C 214.559 -2.56189 2.21857 0
M  V30 2381 C 213.732 -2.58077 3.5315 0
M  V30 2382 C 212.791 -3.76037 3.6808 0
M  V30 2383 O 211.817 -3.60598 4.40406 0
M  V30 2384 N 213.019 -4.93763 3.05251 0
M  V30 2385 H 215.784 -0.871609 2.86746 0
M  V30 2386 H 213.345 -0.32972 1.58507 0
M  V30 2387 H 215.337 -3.33623 2.2908 0
M  V30 2388 H 213.907 -2.81111 1.36731 0
M  V30 2389 H 213.127 -1.6651 3.57307 0
M  V30 2390 H 214.415 -2.56377 4.39486 0
M  V30 2391 H 213.813 -5.09209 2.46419 0
M  V30 2392 H 212.37 -5.68949 3.18026 0
M  V30 2393 N 215.803 -1.52179 -0.40978 0
M  V30 2394 C 216.753 -1.71857 -1.49831 0
M  V30 2395 C 217.737 -0.572469 -1.50372 0
M  V30 2396 O 218.929 -0.829509 -1.56359 0
M  V30 2397 C 216.058 -1.87206 -2.87765 0
M  V30 2398 C 215.144 -3.07685 -2.91875 0
M  V30 2399 N 215.535 -4.30403 -2.65683 0
M  V30 2400 C 213.833 -3.07505 -3.23043 0
M  V30 2401 C 214.534 -5.11868 -2.76344 0
M  V30 2402 N 213.51 -4.47101 -3.09195 0
M  V30 2403 H 217.312 -2.64381 -1.28375 0
M  V30 2404 H 214.826 -1.50203 -0.617479 0
M  V30 2405 H 216.823 -1.99419 -3.66111 0
M  V30 2406 H 215.483 -0.958814 -3.10221 0
M  V30 2407 H 216.494 -4.58887 -2.4009 0
M  V30 2408 H 213.171 -2.25915 -3.51096 0
M  V30 2409 H 214.561 -6.19634 -2.59814 0
M  V30 2410 N 217.281 0.66697 -1.42791 0
M  V30 2411 C 218.211 1.79218 -1.49677 0
M  V30 2412 C 219.192 1.66405 -0.352623 0
M  V30 2413 O 220.377 1.85708 -0.567993 0
M  V30 2414 C 217.507 3.17565 -1.40605 0
M  V30 2415 C 216.461 3.45124 -2.53127 0
M  V30 2416 C 215.787 4.83127 -2.29112 0
M  V30 2417 C 217.087 3.41236 -3.95418 0
M  V30 2418 H 218.781 1.73713 -2.43853 0
M  V30 2419 H 216.327 0.83432 -1.17367 0
M  V30 2420 H 218.28 3.96022 -1.44029 0
M  V30 2421 H 217.004 3.23767 -0.429271 0
M  V30 2422 H 215.663 2.69031 -2.49034 0
M  V30 2423 H 215.311 4.85988 -1.29709 0
M  V30 2424 H 215.011 5.02528 -3.04531 0
M  V30 2425 H 216.535 5.63859 -2.34297 0
M  V30 2426 H 217.949 4.09651 -4.01073 0
M  V30 2427 H 216.346 3.72173 -4.70752 0
M  V30 2428 H 217.416 2.39665 -4.21532 0
M  V30 2429 N 218.759 1.29093 0.90403 0
M  V30 2430 C 219.691 1.09658 2.01266 0
M  V30 2431 C 220.704 0.0453729 1.62737 0
M  V30 2432 O 221.893 0.289446 1.76138 0
M  V30 2433 C 218.993 0.646278 3.32681 0
M  V30 2434 C 218.166 1.77505 3.99763 0
M  V30 2435 C 217.225 1.31649 5.09465 0
M  V30 2436 O 216.251 2.02045 5.32134 0
M  V30 2437 N 217.453 0.184997 5.80205 0
M  V30 2438 H 220.218 2.05135 2.18494 0
M  V30 2439 H 217.779 1.20975 1.07594 0
M  V30 2440 H 219.771 0.322906 4.0341 0
M  V30 2441 H 218.341 -0.215916 3.11853 0
M  V30 2442 H 217.561 2.26752 3.22455 0
M  V30 2443 H 218.849 2.53198 4.41325 0
M  V30 2444 H 218.247 -0.402021 5.6427 0
M  V30 2445 H 216.804 -0.0790358 6.51752 0
M  V30 2446 N 220.237 -1.11381 1.11499 0
M  V30 2447 C 221.514 -1.7955 0.775965 0
M  V30 2448 C 221.894 -1.97859 -0.73588 0
M  V30 2449 O 221.242 -1.56376 -1.66609 0
M  V30 2450 C 221.452 -3.13196 1.53977 0
M  V30 2451 C 222.8 -3.88227 1.71944 0
M  V30 2452 O 223.824 -3.22887 1.50407 0
M  V30 2453 O 222.683 -5.05477 2.07738 0
M  V30 2454 H 219.777 -0.777728 0.28119 0
M  V30 2455 H 222.323 -1.18118 1.21845 0
M  V30 2456 H 221.095 -2.95229 2.56818 0
M  V30 2457 H 220.718 -3.82342 1.09088 0
M  V30 2458 N 221.715 -0.905404 -1.28997 0
M  V30 2459 C 222.961 -0.535039 -1.95615 0
M  V30 2460 C 223.294 0.917404 -1.71165 0
M  V30 2461 O 222.569 1.65123 -1.02785 0
M  V30 2462 C 222.852 -0.834918 -3.50287 0
M  V30 2463 C 222.705 -2.33948 -3.84172 0
M  V30 2464 C 224.024 -0.325318 -4.38896 0
M  V30 2465 H 221.143 -0.195861 -0.710498 0
M  V30 2466 H 223.785 -1.13313 -1.52513 0
M  V30 2467 H 221.935 -0.325904 -3.87131 0
M  V30 2468 H 223.607 -2.91847 -3.57243 0
M  V30 2469 H 221.85 -2.79789 -3.31513 0
M  V30 2470 H 222.521 -2.49987 -4.92149 0
M  V30 2471 H 224.997 -0.761256 -4.09077 0
M  V30 2472 H 223.873 -0.564295 -5.45992 0
M  V30 2473 H 224.134 0.774144 -4.35269 0
M  V30 2474 N 223.193 1.4272 -0.668489 0
M  V30 2475 C 224.609 1.55992 -0.33745 0
M  V30 2476 C 224.809 1.64933 1.15756 0
M  V30 2477 O 223.865 1.61278 1.94282 0
M  V30 2478 C 225.178 2.81314 -1.06222 0
M  V30 2479 C 226.726 2.95078 -1.04394 0
M  V30 2480 C 227.201 4.23252 -1.74991 0
M  V30 2481 N 228.692 4.3015 -1.71829 0
M  V30 2482 C 229.427 5.28127 -2.23315 0
M  V30 2483 N 228.923 6.32293 -2.83156 0
M  V30 2484 N 230.716 5.19882 -2.13726 0
M  V30 2485 H 222.867 1.3516 -1.63846 0
M  V30 2486 H 225.13 0.650174 -0.689912 0
M  V30 2487 H 224.836 2.80823 -2.11734 0
M  V30 2488 H 224.71 3.72012 -0.62344 0
M  V30 2489 H 227.097 2.951 0.0028244 0
M  V30 2490 H 227.178 2.05627 -1.52155 0
M  V30 2491 H 226.822 4.2399 -2.79633 0
M  V30 2492 H 226.752 5.11626 -1.24685 0
M  V30 2493 H 229.243 3.55499 -1.28175 0
M  V30 2494 H 229.556 7.03398 -3.20079 0
M  V30 2495 H 227.901 6.32873 -2.87223 0
M  V30 2496 H 231.092 4.37423 -1.66669 0
M  V30 2497 H 231.265 5.96077 -2.54158 0
M  V30 2498 N 224.671 0.411399 1.52136 0
M  V30 2499 C 225.618 -0.412975 2.27075 0
M  V30 2500 C 226.588 -1.03912 1.29582 0
M  V30 2501 O 227.773 -1.06296 1.58448 0
M  V30 2502 C 224.913 -1.52247 3.09701 0
M  V30 2503 C 224.026 -0.917021 4.22155 0
M  V30 2504 C 223.161 -1.9994 4.92135 0
M  V30 2505 C 222.2 -1.37101 5.96548 0
M  V30 2506 N 221.337 -2.39364 6.60038 0
M  V30 2507 H 226.177 0.232499 2.97092 0
M  V30 2508 H 223.714 0.126496 1.46555 0
M  V30 2509 H 225.672 -2.17674 3.55913 0
M  V30 2510 H 224.302 -2.13794 2.41851 0
M  V30 2511 H 223.354 -0.151742 3.80097 0
M  V30 2512 H 224.666 -0.418006 4.97045 0
M  V30 2513 H 223.82 -2.73088 5.41763 0
M  V30 2514 H 222.559 -2.53208 4.16818 0
M  V30 2515 H 221.564 -0.624873 5.46237 0
M  V30 2516 H 222.789 -0.845998 6.7381 0
M  V30 2517 H 220.735 -2.91759 5.87548 0
M  V30 2518 H 220.652 -1.9428 7.3061 0
M  V30 2519 H 221.92 -3.12074 7.14304 0
M  V30 2520 N 226.149 -1.5696 0.141893 0
M  V30 2521 C 227.565 -1.58151 -0.21456 0
M  V30 2522 C 227.765 -1.1559 -1.65049 0
M  V30 2523 O 226.821 -0.853832 -2.37626 0
M  V30 2524 C 228.134 -3.00674 0.0395576 0
M  V30 2525 C 229.682 -3.1299 -0.0245529 0
M  V30 2526 C 230.157 -4.57554 0.202167 0
M  V30 2527 N 231.648 -4.62961 0.148919 0
M  V30 2528 C 232.383 -5.7262 0.298924 0
M  V30 2529 N 231.879 -6.90947 0.50637 0
M  V30 2530 N 233.672 -5.61601 0.236886 0
M  V30 2531 H 225.823 -1.8292 1.07953 0
M  V30 2532 H 228.086 -0.846425 0.42693 0
M  V30 2533 H 227.792 -3.36183 1.03315 0
M  V30 2534 H 227.666 -3.70981 -0.682143 0
M  V30 2535 H 230.053 -2.77326 -1.00869 0
M  V30 2536 H 230.134 -2.4518 0.729396 0
M  V30 2537 H 229.778 -4.93922 1.18338 0
M  V30 2538 H 229.708 -5.23484 -0.572044 0
M  V30 2539 H 232.199 -3.77899 -0.00697015 0
M  V30 2540 H 232.512 -7.7038 0.611076 0
M  V30 2541 H 230.857 -6.92878 0.542628 0
M  V30 2542 H 234.048 -4.68039 0.0756209 0
M  V30 2543 H 234.221 -6.47015 0.357227 0
M  V30 2544 N 227.627 0.131896 -1.57047 0
M  V30 2545 C 228.873 0.843179 -1.84441 0
M  V30 2546 C 229.206 1.80129 -0.725749 0
M  V30 2547 O 228.481 1.92624 0.269469 0
M  V30 2548 C 228.764 1.60442 -3.22382 0
M  V30 2549 C 228.617 0.666782 -4.4483 0
M  V30 2550 C 229.936 2.56354 -3.5773 0
M  V30 2551 H 227.055 0.305081 -0.670891 0
M  V30 2552 H 229.697 0.107839 -1.89694 0
M  V30 2553 H 227.847 2.23128 -3.18035 0
M  V30 2554 H 229.519 0.0497646 -4.61273 0
M  V30 2555 H 227.762 -0.022609 -4.33794 0
M  V30 2556 H 228.433 1.23579 -5.37989 0
M  V30 2557 H 230.909 2.0378 -3.62785 0
M  V30 2558 H 229.785 3.06657 -4.5525 0
M  V30 2559 H 230.046 3.38419 -2.84473 0
M  V30 2560 N 229.106 1.52395 0.401703 0
M  V30 2561 C 230.038 1.72505 1.50912 0
M  V30 2562 C 231.051 0.605468 1.51122 0
M  V30 2563 O 232.24 0.880828 1.55254 0
M  V30 2564 C 229.34 1.75711 2.89791 0
M  V30 2565 C 228.513 3.04824 3.1369 0
M  V30 2566 C 227.572 2.99743 4.32482 0
M  V30 2567 O 226.598 3.73635 4.29402 0
M  V30 2568 N 227.8 2.18047 5.37992 0
M  V30 2569 H 230.565 2.68049 1.34052 0
M  V30 2570 H 228.126 1.50724 0.591084 0
M  V30 2571 H 230.118 1.69834 3.6734 0
M  V30 2572 H 228.688 0.876092 3.00072 0
M  V30 2573 H 227.908 3.2429 2.24119 0
M  V30 2574 H 229.196 3.90221 3.26504 0
M  V30 2575 H 228.594 1.57456 5.43345 0
M  V30 2576 H 227.151 2.18021 6.14256 0
M  V30 2577 N 230.584 -0.659388 1.43143 0
M  V30 2578 C 231.861 -1.41627 1.34912 0
M  V30 2579 C 232.241 -2.11099 -0.00607785 0
M  V30 2580 O 231.589 -2.04353 -1.02236 0
M  V30 2581 C 231.799 -2.40604 2.52805 0
M  V30 2582 C 233.147 -3.04789 2.95616 0
M  V30 2583 O 234.171 -2.50932 2.52807 0
M  V30 2584 O 233.03 -4.02421 3.69756 0
M  V30 2585 H 230.124 -0.63246 0.532844 0
M  V30 2586 H 232.67 -0.686814 1.5518 0
M  V30 2587 H 231.442 -1.88174 3.43083 0
M  V30 2588 H 231.065 -3.21009 2.34604 0
M  V30 2589 N 232.062 -1.29571 -0.897171 0
M  V30 2590 C 232.992 -1.17473 -2.01798 0
M  V30 2591 C 233.973 -0.068323 -1.69963 0
M  V30 2592 O 235.158 -0.248239 -1.92607 0
M  V30 2593 C 232.288 -0.853099 -3.36659 0
M  V30 2594 C 231.242 -1.9161 -3.82713 0
M  V30 2595 C 230.568 -1.44773 -5.14728 0
M  V30 2596 C 231.868 -3.32535 -4.02763 0
M  V30 2597 H 233.562 -2.11237 -2.12177 0
M  V30 2598 H 231.108 -1.01699 -1.01948 0
M  V30 2599 H 233.061 -0.755165 -4.14578 0
M  V30 2600 H 231.785 0.120236 -3.26379 0
M  V30 2601 H 230.444 -2.00346 -3.07013 0
M  V30 2602 H 230.092 -0.462995 -5.00865 0
M  V30 2603 H 229.792 -2.15865 -5.46513 0
M  V30 2604 H 231.316 -1.36334 -5.95185 0
M  V30 2605 H 232.73 -3.26626 -4.71156 0
M  V30 2606 H 231.127 -4.01607 -4.45905 0
M  V30 2607 H 232.197 -3.75326 -3.07016 0
M  V30 2608 N 233.54 1.10788 -1.12088 0
M  V30 2609 C 234.45 2.20599 -0.798338 0
M  V30 2610 C 235.466 1.72712 0.21135 0
M  V30 2611 O 236.642 2.01348 0.0458477 0
M  V30 2612 C 233.707 3.45771 -0.253674 0
M  V30 2613 C 232.768 4.08411 -1.32283 0
M  V30 2614 C 232.001 5.27608 -0.80406 0
M  V30 2615 O 232.224 5.69241 0.363478 0
M  V30 2616 O 231.158 5.8101 -1.57198 0
M  V30 2617 H 234.984 2.50614 -1.7154 0
M  V30 2618 H 232.569 1.19454 -0.897275 0
M  V30 2619 H 234.451 4.21376 0.0453691 0
M  V30 2620 H 233.126 3.1739 0.636005 0
M  V30 2621 H 232.033 3.34507 -1.67499 0
M  V30 2622 H 233.366 4.40986 -2.18614 0
M  V30 2623 N 235.018 0.912232 1.28515 0
M  V30 2624 C 235.95 0.35676 2.26406 0
M  V30 2625 C 236.963 -0.503933 1.54804 0
M  V30 2626 O 238.152 -0.319059 1.75625 0
M  V30 2627 C 235.252 -0.508825 3.35058 0
M  V30 2628 C 234.425 0.329007 4.36161 0
M  V30 2629 C 233.484 -0.471422 5.24084 0
M  V30 2630 O 232.51 0.115482 5.69083 0
M  V30 2631 N 233.712 -1.77479 5.52704 0
M  V30 2632 H 236.477 1.19818 2.74707 0
M  V30 2633 H 234.038 0.778022 1.4198 0
M  V30 2634 H 236.03 -1.051 3.90815 0
M  V30 2635 H 234.6 -1.25095 2.86478 0
M  V30 2636 H 233.82 1.05256 3.79888 0
M  V30 2637 H 235.108 0.90234 5.00735 0
M  V30 2638 H 234.506 -2.27417 5.17975 0
M  V30 2639 H 233.063 -2.26382 6.11224 0
M  V30 2640 N 236.496 -1.42363 0.676048 0
M  V30 2641 C 237.443 -2.308 -0.00150904 0
M  V30 2642 C 238.413 -1.46032 -0.791444 0
M  V30 2643 O 239.598 -1.74861 -0.76344 0
M  V30 2644 C 236.738 -3.31883 -0.945919 0
M  V30 2645 C 235.851 -4.31741 -0.149675 0
M  V30 2646 C 234.986 -5.19898 -1.08995 0
M  V30 2647 C 234.025 -6.11434 -0.285465 0
M  V30 2648 N 233.162 -6.92138 -1.17851 0
M  V30 2649 H 238.002 -2.88187 0.758455 0
M  V30 2650 H 235.539 -1.41952 0.38576 0
M  V30 2651 H 237.497 -3.89019 -1.50731 0
M  V30 2652 H 236.127 -2.76093 -1.6725 0
M  V30 2653 H 235.179 -3.76713 0.528359 0
M  V30 2654 H 236.491 -4.96534 0.474866 0
M  V30 2655 H 235.645 -5.81772 -1.72123 0
M  V30 2656 H 234.384 -4.55284 -1.74837 0
M  V30 2657 H 233.389 -5.48627 0.359018 0
M  V30 2658 H 234.614 -6.78097 0.368883 0
M  V30 2659 H 232.56 -6.30152 -1.82332 0
M  V30 2660 H 232.477 -7.53542 -0.609082 0
M  V30 2661 H 233.745 -7.58499 -1.79722 0
M  V30 2662 N 237.974 -0.419461 -1.51915 0
M  V30 2663 C 238.907 0.445751 -2.23804 0
M  V30 2664 C 239.885 1.03951 -1.25031 0
M  V30 2665 O 241.069 1.08541 -1.54114 0
M  V30 2666 C 238.196 1.61964 -2.97465 0
M  V30 2667 C 237.242 1.14828 -4.10751 0
M  V30 2668 S 238.075 0.104938 -5.35397 0
M  V30 2669 C 239.231 1.28391 -6.1259 0
M  V30 2670 H 239.464 -0.164627 -2.96844 0
M  V30 2671 H 236.997 -0.203833 -1.53049 0
M  V30 2672 H 238.955 2.29271 -3.40507 0
M  V30 2673 H 237.616 2.20139 -2.24048 0
M  V30 2674 H 236.809 2.02561 -4.61503 0
M  V30 2675 H 236.411 0.553712 -3.69878 0
M  V30 2676 H 238.703 2.20563 -6.40592 0
M  V30 2677 H 239.646 0.816724 -7.03374 0
M  V30 2678 H 240.054 1.51439 -5.43807 0
M  V30 2679 N 239.452 1.56882 -0.150215 0
M  V30 2680 C 240.399 2.16922 0.788244 0
M  V30 2681 C 241.369 1.10303 1.24187 0
M  V30 2682 O 242.554 1.38359 1.31383 0
M  V30 2683 C 239.694 2.79754 2.02068 0
M  V30 2684 C 238.807 4.00775 1.61257 0
M  V30 2685 C 237.942 4.51595 2.79705 0
M  V30 2686 C 236.981 5.65074 2.35282 0
M  V30 2687 N 236.118 6.10499 3.4675 0
M  V30 2688 H 240.958 2.96779 0.269444 0
M  V30 2689 H 238.495 1.46599 0.12128 0
M  V30 2690 H 240.453 3.14329 2.74323 0
M  V30 2691 H 239.083 2.02536 2.51354 0
M  V30 2692 H 238.135 3.72158 0.787553 0
M  V30 2693 H 239.447 4.82978 1.24633 0
M  V30 2694 H 238.601 4.88242 3.60145 0
M  V30 2695 H 237.34 3.68406 3.19576 0
M  V30 2696 H 236.345 5.28 1.53283 0
M  V30 2697 H 237.57 6.50052 1.96493 0
M  V30 2698 H 235.516 5.30243 3.86236 0
M  V30 2699 H 235.433 6.87637 3.14152 0
M  V30 2700 H 236.701 6.51791 4.27537 0
M  V30 2701 N 240.93 -0.123565 1.57115 0
M  V30 2702 C 242.176 -0.833386 1.84885 0
M  V30 2703 C 242.509 -1.79742 0.735292 0
M  V30 2704 O 241.784 -1.92764 -0.25925 0
M  V30 2705 C 242.067 -1.5873 3.23228 0
M  V30 2706 C 241.92 -0.643183 4.45178 0
M  V30 2707 C 243.239 -2.54453 3.59085 0
M  V30 2708 H 240.358 -0.301518 0.6725 0
M  V30 2709 H 243 -0.097778 1.89748 0
M  V30 2710 H 241.15 -2.21438 3.19214 0
M  V30 2711 H 242.822 -0.0253015 4.61293 0
M  V30 2712 H 241.065 0.0456139 4.33776 0
M  V30 2713 H 241.736 -1.20724 5.38637 0
M  V30 2714 H 244.212 -2.01853 3.63861 0
M  V30 2715 H 243.088 -3.04238 4.5687 0
M  V30 2716 H 243.349 -3.36906 2.86264 0
M  V30 2717 N 242.408 -1.52605 -0.393616 0
M  V30 2718 C 243.654 -1.67672 -1.14079 0
M  V30 2719 C 243.987 -0.413121 -1.89755 0
M  V30 2720 O 243.262 0.588952 -1.85369 0
M  V30 2721 C 243.545 -2.9088 -2.12276 0
M  V30 2722 C 243.398 -4.27329 -1.40394 0
M  V30 2723 C 244.717 -3.09628 -3.12759 0
M  V30 2724 H 241.836 -0.610168 -0.413356 0
M  V30 2725 H 244.478 -1.85193 -0.424696 0
M  V30 2726 H 242.628 -2.76073 -2.73342 0
M  V30 2727 H 244.3 -4.53894 -0.82327 0
M  V30 2728 H 242.543 -4.2802 -0.705801 0
M  V30 2729 H 243.214 -5.09615 -2.12123 0
M  V30 2730 H 245.69 -3.23436 -2.61779 0
M  V30 2731 H 244.566 -3.97322 -3.78717 0
M  V30 2732 H 244.827 -2.23637 -3.81365 0
M  V30 2733 N 243.887 0.651787 -1.4349 0
M  V30 2734 C 244.797 1.79368 -1.5121 0
M  V30 2735 C 245.813 1.69361 -0.399093 0
M  V30 2736 O 246.989 1.90505 -0.653431 0
M  V30 2737 C 244.054 3.15653 -1.43401 0
M  V30 2738 C 243.115 3.37446 -2.65384 0
M  V30 2739 C 242.348 4.67229 -2.57939 0
M  V30 2740 O 242.571 5.46676 -1.62792 0
M  V30 2741 O 241.505 4.90773 -3.48462 0
M  V30 2742 H 245.331 1.7581 -2.47638 0
M  V30 2743 H 242.916 0.810447 -1.25507 0
M  V30 2744 H 244.798 3.96935 -1.41494 0
M  V30 2745 H 243.473 3.19798 -0.501085 0
M  V30 2746 H 242.38 2.55923 -2.72863 0
M  V30 2747 H 243.713 3.38148 -3.57654 0
M  V30 2748 N 245.365 1.30045 0.890287 0
M  V30 2749 C 246.313 1.15873 2.01683 0
M  V30 2750 C 247.307 0.0719403 1.69247 0
M  V30 2751 O 248.513 0.232414 1.78493 0
M  V30 2752 H 244.888 0.358203 0.661207 0
M  V30 2753 H 246.859 2.11229 2.10772 0
M  V30 2754 C 245.608 0.861842 3.36849 0
M  V30 2755 H 244.931 1.69016 3.62317 0
M  V30 2756 H 246.371 0.802762 4.16331 0
M  V30 2757 C 244.83 -0.435132 3.34078 0
M  V30 2758 O 245.36 -1.4583 3.74295 0
M  V30 2759 N 243.566 -0.444377 2.87182 0
M  V30 2760 H 243.113 0.388723 2.5465 0
M  V30 2761 H 243.071 -1.31213 2.85711 0
M  V30 2762 N 246.843 -1.10192 1.12674 0
M  V30 2763 C 247.773 -2.18652 0.819362 0
M  V30 2764 C 248.754 -1.68698 -0.217915 0
M  V30 2765 O 249.939 -1.94041 -0.0785581 0
M  V30 2766 C 247.069 -3.46202 0.27594 0
M  V30 2767 C 246.023 -4.09444 1.24656 0
M  V30 2768 C 245.349 -5.31725 0.563258 0
M  V30 2769 C 246.649 -4.52863 2.60217 0
M  V30 2770 H 248.343 -2.44622 1.72628 0
M  V30 2771 H 245.889 -1.17571 0.831451 0
M  V30 2772 H 247.842 -4.21372 0.0486149 0
M  V30 2773 H 246.566 -3.1973 -0.666331 0
M  V30 2774 H 245.225 -3.36284 1.45974 0
M  V30 2775 H 244.873 -5.0153 -0.384235 0
M  V30 2776 H 244.573 -5.74991 1.21075 0
M  V30 2777 H 246.097 -6.09624 0.34503 0
M  V30 2778 H 247.511 -5.19294 2.42913 0
M  V30 2779 H 245.908 -5.06986 3.21068 0
M  V30 2780 H 246.978 -3.65656 3.18471 0
M  V30 2781 N 248.321 -0.919034 -1.28029 0
M  V30 2782 C 249.253 -0.368762 -2.26214 0
M  V30 2783 C 250.266 0.495716 -1.55069 0
M  V30 2784 O 251.455 0.30974 -1.75792 0
M  V30 2785 C 248.555 0.491049 -3.35324 0
M  V30 2786 C 247.728 -0.352133 -4.3598 0
M  V30 2787 C 246.787 0.443622 -5.24327 0
M  V30 2788 O 245.813 -0.14566 -5.69014 0
M  V30 2789 N 247.015 1.74545 -5.53637 0
M  V30 2790 H 249.78 -1.21273 -2.74068 0
M  V30 2791 H 247.341 -0.785541 -1.41566 0
M  V30 2792 H 249.333 1.03026 -3.91366 0
M  V30 2793 H 247.903 1.23574 -2.87138 0
M  V30 2794 H 247.123 -1.07269 -3.79324 0
M  V30 2795 H 248.411 -0.928883 -5.00249 0
M  V30 2796 H 247.809 2.24666 -5.19174 0
M  V30 2797 H 246.366 2.23138 -6.12416 0
M  V30 2798 N 249.799 1.42003 -0.683588 0
M  V30 2799 C 251.076 1.95112 -0.138075 0
M  V30 2800 C 251.456 1.62359 1.34918 0
M  V30 2801 O 250.804 0.924311 2.08971 0
M  V30 2802 C 251.014 3.46505 -0.416581 0
M  V30 2803 C 252.362 4.23254 -0.337834 0
M  V30 2804 O 253.386 3.54468 -0.35082 0
M  V30 2805 O 252.245 5.45743 -0.287596 0
M  V30 2806 H 249.339 0.826961 -0.00797996 0
M  V30 2807 H 251.885 1.51784 -0.758924 0
M  V30 2808 H 250.657 3.63582 -1.4465 0
M  V30 2809 H 250.28 3.969 0.235839 0
M  V30 2810 N 251.277 0.427512 1.51691 0
M  V30 2811 C 252.554 -0.201684 1.94557 0
M  V30 2812 C 252.934 -1.60981 1.36559 0
M  V30 2813 O 252.282 -2.21814 0.548702 0
M  V30 2814 C 252.492 -0.189394 3.48486 0
M  V30 2815 C 253.84 -0.39978 4.22714 0
M  V30 2816 O 254.864 -0.267945 3.55191 0
M  V30 2817 O 253.723 -0.661249 5.42485 0
M  V30 2818 H 250.817 -0.135261 0.815864 0
M  V30 2819 H 253.363 0.484782 1.62628 0
M  V30 2820 H 252.135 0.795431 3.8313 0
M  V30 2821 H 251.758 -0.919187 3.86829 0
M  V30 2822 N 252.755 -1.56801 0.158532 0
M  V30 2823 C 254.002 -1.9649 -0.489679 0
M  V30 2824 C 254.33 -1.04394 -1.6411 0
M  V30 2825 O 253.585 -0.0754401 -1.95555 0
M  V30 2826 C 253.884 -3.4235 -1.02623 0
M  V30 2827 C 253.55 -4.50899 0.00794526 0
M  V30 2828 C 252.212 -4.80312 0.292207 0
M  V30 2829 C 254.564 -5.16333 0.710584 0
M  V30 2830 C 251.892 -5.72461 1.28472 0
M  V30 2831 C 254.244 -6.09553 1.69199 0
M  V30 2832 C 252.908 -6.37339 1.98383 0
M  V30 2833 H 252.178 -0.719009 -0.179186 0
M  V30 2834 H 254.825 -1.8989 0.247798 0
M  V30 2835 H 253.13 -3.45838 -1.84128 0
M  V30 2836 H 254.827 -3.70393 -1.53656 0
M  V30 2837 H 251.417 -4.28015 -0.22379 0
M  V30 2838 H 255.601 -4.93732 0.504174 0
M  V30 2839 H 250.857 -5.92278 1.51714 0
M  V30 2840 H 255.031 -6.59327 2.24189 0
M  V30 2841 H 252.658 -7.08546 2.7544 0
M  V30 2842 N 254.233 0.115231 -1.57178 0
M  V30 2843 C 255.51 0.852873 -1.76027 0
M  V30 2844 C 255.89 1.97892 -0.73498 0
M  V30 2845 O 255.238 2.27232 0.24036 0
M  V30 2846 C 255.448 1.36608 -3.21153 0
M  V30 2847 C 256.796 1.81692 -3.83762 0
M  V30 2848 O 257.82 1.46278 -3.24779 0
M  V30 2849 O 256.679 2.47104 -4.87444 0
M  V30 2850 H 253.773 0.405296 -0.720877 0
M  V30 2851 H 256.319 0.0986785 -1.69413 0
M  V30 2852 H 255.091 0.558357 -3.87296 0
M  V30 2853 H 254.714 2.18287 -3.3232 0
M  V30 2854 N 255.711 1.52812 0.385517 0
M  V30 2855 C 256.958 1.68026 1.1302 0
M  V30 2856 C 257.286 0.421934 1.89868 0
M  V30 2857 O 256.541 -0.595749 1.86412 0
M  V30 2858 C 256.84 2.86856 2.13187 0
M  V30 2859 C 256.506 4.24159 1.5297 0
M  V30 2860 C 255.168 4.61501 1.36274 0
M  V30 2861 C 257.52 5.09627 1.09223 0
M  V30 2862 C 254.848 5.81966 0.743837 0
M  V30 2863 C 257.2 6.30719 0.487411 0
M  V30 2864 C 255.864 6.6679 0.307777 0
M  V30 2865 H 255.134 0.614849 0.413571 0
M  V30 2866 H 257.781 1.86962 0.414405 0
M  V30 2867 H 256.086 2.6235 2.90998 0
M  V30 2868 H 257.783 2.95821 2.70722 0
M  V30 2869 H 254.373 3.94746 1.66954 0
M  V30 2870 H 258.557 4.81343 1.20922 0
M  V30 2871 H 253.813 6.08519 0.592891 0
M  V30 2872 H 257.987 6.96259 0.140143 0
M  V30 2873 H 255.614 7.60001 -0.173879 0
M  V30 2874 N 257.189 -0.644168 1.43834 0
M  V30 2875 C 258.137 -1.77793 1.49974 0
M  V30 2876 C 259.131 -1.65253 0.372536 0
M  V30 2877 O 260.337 -1.7149 0.546924 0
M  V30 2878 H 256.712 -0.58675 0.47035 0
M  V30 2879 H 258.683 -1.69736 2.45423 0
M  V30 2880 C 257.432 -3.16087 1.4486 0
M  V30 2881 H 256.755 -3.26378 2.30905 0
M  V30 2882 H 258.195 -3.95349 1.53217 0
M  V30 2883 C 256.654 -3.36484 0.167463 0
M  V30 2884 O 257.184 -3.94298 -0.767609 0
M  V30 2885 N 255.39 -2.90504 0.0747556 0
M  V30 2886 H 254.937 -2.4364 0.836507 0
M  V30 2887 H 254.895 -3.04527 -0.781714 0
M  V30 2888 N 258.668 -1.30515 -0.883378 0
M  V30 2889 C 259.898 -1.22182 -1.66599 0
M  V30 2890 C 260.306 0.217507 -1.87946 0
M  V30 2891 O 259.649 1.1554 -1.42815 0
M  V30 2892 C 259.711 -1.88146 -3.06335 0
M  V30 2893 C 259.375 -3.37476 -3.08154 0
M  V30 2894 C 260.372 -4.33443 -2.87094 0
M  V30 2895 C 258.057 -3.7895 -3.29701 0
M  V30 2896 C 260.051 -5.68858 -2.8754 0
M  V30 2897 C 257.738 -5.14482 -3.29776 0
M  V30 2898 C 258.736 -6.09246 -3.0872 0
M  V30 2899 O 258.424 -7.42302 -3.08615 0
M  V30 2900 H 258.156 -0.423898 -0.52658 0
M  V30 2901 H 260.71 -1.72703 -1.11188 0
M  V30 2902 H 258.94 -1.32157 -3.63416 0
M  V30 2903 H 260.629 -1.7391 -3.66756 0
M  V30 2904 H 261.395 -4.02733 -2.70243 0
M  V30 2905 H 257.274 -3.05631 -3.45124 0
M  V30 2906 H 260.818 -6.428 -2.71024 0
M  V30 2907 H 256.715 -5.44832 -3.46163 0
M  V30 2908 H 257.483 -7.5131 -3.24769 0
M  V30 2909 N 260.146 1.09593 -1.13257 0
M  V30 2910 C 261.093 2.1618 -0.808381 0
M  V30 2911 C 262.063 1.64517 0.228754 0
M  V30 2912 O 263.248 1.9053 0.101381 0
M  V30 2913 C 260.388 3.43973 -0.278675 0
M  V30 2914 C 259.501 4.09545 -1.37466 0
M  V30 2915 C 258.636 5.25088 -0.803479 0
M  V30 2916 C 257.675 5.82579 -1.87799 0
M  V30 2917 N 256.812 6.89486 -1.32488 0
M  V30 2918 H 261.652 2.43254 -1.72138 0
M  V30 2919 H 259.189 1.19392 -0.859294 0
M  V30 2920 H 261.147 4.17174 0.0465583 0
M  V30 2921 H 259.777 3.17223 0.597459 0
M  V30 2922 H 258.829 3.34226 -1.81652 0
M  V30 2923 H 260.141 4.48307 -2.18684 0
M  V30 2924 H 259.295 6.05178 -0.429427 0
M  V30 2925 H 258.034 4.87684 0.0397956 0
M  V30 2926 H 257.039 5.01152 -2.26113 0
M  V30 2927 H 258.264 6.22045 -2.72463 0
M  V30 2928 H 256.21 6.54064 -0.503575 0
M  V30 2929 H 256.127 7.27007 -2.07355 0
M  V30 2930 H 257.395 7.73336 -0.978336 0
M  V30 2931 N 261.624 0.925811 1.2754 0
M  V30 2932 C 262.852 0.581509 1.9856 0
M  V30 2933 C 263.267 -0.840041 1.69082 0
M  V30 2934 O 262.624 -1.55805 0.950312 0
M  V30 2935 C 262.675 0.795589 3.52637 0
M  V30 2936 O 262.396 2.16121 3.81082 0
M  V30 2937 C 263.897 0.459744 4.4091 0
M  V30 2938 H 261.117 0.220538 0.633722 0
M  V30 2939 H 263.661 1.24232 1.6244 0
M  V30 2940 H 261.816 0.18161 3.86974 0
M  V30 2941 H 262.23 2.2098 4.75676 0
M  V30 2942 H 263.704 0.660244 5.48037 0
M  V30 2943 H 264.181 -0.604625 4.35018 0
M  V30 2944 H 264.787 1.05178 4.12089 0
M  V30 2945 N 263.102 -1.41638 0.69111 0
M  V30 2946 C 264.032 -2.3347 0.037248 0
M  V30 2947 C 265.013 -1.51575 -0.771947 0
M  V30 2948 O 266.198 -1.80126 -0.72582 0
M  V30 2949 C 263.328 -3.35354 -0.903064 0
M  V30 2950 C 262.282 -4.27526 -0.201288 0
M  V30 2951 C 261.608 -5.19747 -1.25565 0
M  V30 2952 C 262.908 -5.13959 0.929689 0
M  V30 2953 H 264.602 -2.88397 0.804227 0
M  V30 2954 H 262.148 -1.38669 0.388189 0
M  V30 2955 H 264.101 -3.98519 -1.36969 0
M  V30 2956 H 262.825 -2.78767 -1.70166 0
M  V30 2957 H 261.484 -3.65779 0.245265 0
M  V30 2958 H 261.132 -4.59479 -2.04666 0
M  V30 2959 H 260.832 -5.8225 -0.791128 0
M  V30 2960 H 262.356 -5.85789 -1.72288 0
M  V30 2961 H 263.77 -5.70718 0.543546 0
M  V30 2962 H 262.167 -5.85379 1.32103 0
M  V30 2963 H 263.237 -4.51389 1.77133 0
M  V30 2964 N 264.58 -0.43555 -1.51462 0
M  V30 2965 C 265.527 0.376797 -2.27703 0
M  V30 2966 C 266.497 1.01838 -1.31219 0
M  V30 2967 O 267.682 1.03762 -1.60119 0
M  V30 2968 C 264.822 1.47301 -3.12084 0
M  V30 2969 C 263.935 0.849744 -4.2356 0
M  V30 2970 C 263.07 1.92086 -4.95254 0
M  V30 2971 C 262.109 1.27593 -5.98654 0
M  V30 2972 N 261.246 2.28833 -6.63762 0
M  V30 2973 H 266.086 -0.279734 -2.96684 0
M  V30 2974 H 263.623 -0.149795 -1.46335 0
M  V30 2975 H 265.581 2.11984 -3.59331 0
M  V30 2976 H 264.211 2.0992 -2.45221 0
M  V30 2977 H 263.263 0.0912529 -3.80291 0
M  V30 2978 H 264.575 0.338878 -4.97648 0
M  V30 2979 H 263.729 2.64435 -5.46039 0
M  V30 2980 H 262.468 2.46545 -4.20793 0
M  V30 2981 H 261.473 0.537893 -5.47162 0
M  V30 2982 H 262.698 0.738693 -6.7507 0
M  V30 2983 H 260.644 2.82375 -5.92115 0
M  V30 2984 H 260.561 1.82632 -7.33608 0
M  V30 2985 H 261.829 3.00671 -7.19178 0
M  V30 2986 N 266.058 1.56714 -0.166846 0
M  V30 2987 C 267.283 2.01557 0.488833 0
M  V30 2988 C 267.708 1.0463 1.56314 0
M  V30 2989 O 267.066 0.0251304 1.81283 0
M  V30 2990 C 267.114 3.4503 1.04818 0
M  V30 2991 O 266.218 3.51163 2.16236 0
M  V30 2992 H 265.559 0.653516 0.117526 0
M  V30 2993 H 268.089 2.02818 -0.269421 0
M  V30 2994 H 268.099 3.84243 1.37191 0
M  V30 2995 H 266.774 4.15077 0.261572 0
M  V30 2996 H 265.351 3.23807 1.84942 0
M  V30 2997 N 267.536 -0.106894 1.57237 0
M  V30 2998 C 268.468 -1.15646 1.97885 0
M  V30 2999 C 269.481 -1.36981 0.879779 0
M  V30 3000 O 270.67 -1.35841 1.15799 0
M  V30 3001 C 267.77 -2.51425 2.27241 0
M  V30 3002 C 266.943 -2.50529 3.58545 0
M  V30 3003 C 266.002 -3.68145 3.75973 0
M  V30 3004 O 265.028 -3.51176 4.47956 0
M  V30 3005 N 266.23 -4.87177 3.15656 0
M  V30 3006 H 268.995 -0.81059 2.8853 0
M  V30 3007 H 266.556 -0.296024 1.59171 0
M  V30 3008 H 268.548 -3.28689 2.36105 0
M  V30 3009 H 267.118 -2.78147 1.42663 0
M  V30 3010 H 266.338 -1.58894 3.60758 0
M  V30 3011 H 267.626 -2.46997 4.44826 0
M  V30 3012 H 267.024 -5.03868 2.57165 0
M  V30 3013 H 265.581 -5.62075 3.30023 0
M  V30 3014 N 269.014 -1.53014 -0.377408 0
M  V30 3015 C 270.262 -1.6829 -1.11906 0
M  V30 3016 C 270.583 -0.431206 -1.90173 0
M  V30 3017 O 269.853 0.554595 -1.87886 0
M  V30 3018 H 268.433 -0.620371 -0.416112 0
M  V30 3019 H 271.095 -1.90167 -0.426893 0
M  V30 3020 H 270.191 -2.53862 -1.8155 0
M  V30 3021 N 270.492 0.636531 -1.44174 0
M  V30 3022 C 271.769 1.39463 -1.37148 0
M  V30 3023 C 272.149 2.11082 -0.027507 0
M  V30 3024 O 271.497 2.05954 0.989716 0
M  V30 3025 C 271.707 2.36552 -2.56601 0
M  V30 3026 C 273.055 3.00048 -3.00427 0
M  V30 3027 O 274.079 2.46878 -2.56767 0
M  V30 3028 O 272.938 3.96488 -3.76111 0
M  V30 3029 H 270.032 0.623903 -0.542839 0
M  V30 3030 H 272.578 0.662039 -1.56253 0
M  V30 3031 H 271.35 1.82692 -3.46034 0
M  V30 3032 H 270.973 3.17236 -2.39681 0
M  V30 3033 N 271.97 1.30982 0.876444 0
M  V30 3034 C 272.903 1.12414 1.98591 0
M  V30 3035 C 273.881 0.0294078 1.62573 0
M  V30 3036 O 275.065 0.184598 1.87594 0
M  V30 3037 C 272.192 0.716276 3.3104 0
M  V30 3038 C 271.238 1.81311 3.86042 0
M  V30 3039 S 272.071 3.41727 4.1229 0
M  V30 3040 C 273.227 3.02863 5.47745 0
M  V30 3041 H 273.46 2.06338 2.14037 0
M  V30 3042 H 270.993 1.15393 1.02586 0
M  V30 3043 H 272.951 0.487697 4.07593 0
M  V30 3044 H 271.612 -0.203749 3.13438 0
M  V30 3045 H 270.805 1.48021 4.81774 0
M  V30 3046 H 270.407 1.99641 3.16259 0
M  V30 3047 H 272.699 2.51353 6.29148 0
M  V30 3048 H 273.642 3.97533 5.8598 0
M  V30 3049 H 274.05 2.40487 5.10711 0
M  V30 3050 N 273.449 -1.08991 1.13837 0
M  V30 3051 C 274.381 -2.15606 0.777612 0
M  V30 3052 C 275.394 -1.61533 -0.202739 0
M  V30 3053 O 276.583 -1.78491 0.0181055 0
M  V30 3054 C 273.683 -3.3864 0.132623 0
M  V30 3055 C 272.856 -4.22115 1.1462 0
M  V30 3056 C 271.915 -5.23564 0.526074 0
M  V30 3057 O 270.941 -5.56678 1.18735 0
M  V30 3058 N 272.143 -5.76266 -0.699866 0
M  V30 3059 H 274.908 -2.47159 1.69506 0
M  V30 3060 H 272.469 -1.24747 1.03198 0
M  V30 3061 H 274.461 -4.03626 -0.29459 0
M  V30 3062 H 273.031 -3.04938 -0.687849 0
M  V30 3063 H 272.251 -3.53199 1.75055 0
M  V30 3064 H 273.539 -4.74709 1.83109 0
M  V30 3065 H 272.937 -5.51585 -1.25581 0
M  V30 3066 H 271.494 -6.42963 -1.06968 0
M  V30 3067 N 274.927 -0.932562 -1.27047 0
M  V30 3068 C 276.204 -0.49377 -1.89265 0
M  V30 3069 C 276.584 1.02833 -1.8436 0
M  V30 3070 O 275.932 1.88461 -1.29209 0
M  V30 3071 C 276.142 -1.04536 -3.32976 0
M  V30 3072 C 277.49 -1.10879 -4.09867 0
M  V30 3073 O 278.514 -0.995327 -3.42011 0
M  V30 3074 O 277.373 -1.28417 -5.31198 0
M  V30 3075 H 274.467 -0.159596 -0.811454 0
M  V30 3076 H 277.013 -1.02457 -1.3528 0
M  V30 3077 H 275.785 -2.08913 -3.30864 0
M  V30 3078 H 275.408 -0.496494 -3.94488 0
M  V30 3079 N 276.405 1.4127 -0.698611 0
M  V30 3080 C 277.335 2.33447 -0.049629 0
M  V30 3081 C 278.316 1.51982 0.763898 0
M  V30 3082 O 279.501 1.80509 0.716257 0
M  V30 3083 C 276.631 3.35828 0.885267 0
M  V30 3084 C 275.585 4.27627 0.178613 0
M  V30 3085 C 274.911 5.20406 1.22807 0
M  V30 3086 C 276.211 5.13459 -0.956933 0
M  V30 3087 H 277.905 2.87966 -0.81951 0
M  V30 3088 H 275.451 1.38461 -0.395538 0
M  V30 3089 H 277.404 3.9924 1.34854 0
M  V30 3090 H 276.128 2.79666 1.68685 0
M  V30 3091 H 274.787 3.65643 -0.26466 0
M  V30 3092 H 274.435 4.60558 2.02226 0
M  V30 3093 H 274.135 5.82661 0.760239 0
M  V30 3094 H 275.659 5.86695 1.69179 0
M  V30 3095 H 277.073 5.70421 -0.573805 0
M  V30 3096 H 275.47 5.8467 -1.35205 0
M  V30 3097 H 276.54 4.50443 -1.79524 0
M  V30 3098 N 277.883 0.443576 1.51229 0
M  V30 3099 C 278.831 -0.37904 2.29491 0
M  V30 3100 C 279.825 -1.0153 1.35603 0
M  V30 3101 O 281.031 -0.94955 1.52917 0
M  V30 3102 H 277.406 -0.141053 0.738653 0
M  V30 3103 H 279.377 0.301799 2.9687 0
M  V30 3104 C 278.126 -1.46426 3.15364 0
M  V30 3105 H 277.449 -0.984037 3.87501 0
M  V30 3106 H 278.889 -2.01297 3.7317 0
M  V30 3107 C 277.348 -2.45099 2.31146 0
M  V30 3108 O 277.878 -3.49773 1.9754 0
M  V30 3109 N 276.084 -2.16139 1.94249 0
M  V30 3110 H 275.631 -1.31044 2.21777 0
M  V30 3111 H 275.589 -2.82398 1.38198 0
M  V30 3112 N 279.361 -1.56624 0.175154 0
M  V30 3113 C 280.609 -1.96609 -0.467885 0
M  V30 3114 C 280.93 -1.06238 -1.63519 0
M  V30 3115 O 280.2 -0.129523 -1.95471 0
M  V30 3116 H 278.78 -0.726008 -0.175845 0
M  V30 3117 H 281.442 -1.93195 0.257234 0
M  V30 3118 H 280.538 -3.00989 -0.825342 0
M  V30 3119 N 280.839 0.0985539 -1.57292 0
M  V30 3120 C 281.787 1.1387 -2.02821 0
M  V30 3121 C 282.781 1.41676 -0.928666 0
M  V30 3122 O 283.987 1.41398 -1.11385 0
M  V30 3123 H 280.362 0.384419 -0.646317 0
M  V30 3124 H 282.333 0.728347 -2.89375 0
M  V30 3125 C 281.082 2.45166 -2.46554 0
M  V30 3126 H 280.405 2.24613 -3.3074 0
M  V30 3127 H 281.845 3.16456 -2.8219 0
M  V30 3128 C 280.304 3.09216 -1.33742 0
M  V30 3129 O 280.834 3.96163 -0.66464 0
M  V30 3130 N 279.04 2.69413 -1.08928 0
M  V30 3131 H 278.587 1.98801 -1.63817 0
M  V30 3132 H 278.545 3.12594 -0.336458 0
M  V30 3133 N 282.317 1.53212 0.369288 0
M  V30 3134 C 283.265 1.80054 1.47253 0
M  V30 3135 C 284.259 0.669456 1.55611 0
M  V30 3136 O 285.465 0.852328 1.58541 0
M  V30 3137 H 281.84 0.570034 0.490475 0
M  V30 3138 H 283.811 2.72403 1.21817 0
M  V30 3139 C 282.56 2.00403 2.84137 0
M  V30 3140 H 281.883 2.86876 2.78464 0
M  V30 3141 H 283.323 2.23164 3.60519 0
M  V30 3142 C 281.782 0.782081 3.27697 0
M  V30 3143 O 282.312 -0.0310205 4.01688 0
M  V30 3144 N 280.518 0.606573 2.84199 0
M  V30 3145 H 280.065 1.26939 2.24152 0
M  V30 3146 H 280.023 -0.20962 3.137 0
M  V30 3147 N 283.795 -0.628877 1.44509 0
M  V30 3148 C 284.727 -1.754 1.47538 0
M  V30 3149 C 285.74 -1.58575 0.368506 0
M  V30 3150 O 286.929 -1.66847 0.634376 0
M  V30 3151 C 284.029 -3.1315 1.29577 0
M  V30 3152 C 283.202 -3.56413 2.53551 0
M  V30 3153 C 282.261 -4.7305 2.30457 0
M  V30 3154 O 281.287 -4.81247 3.03957 0
M  V30 3155 N 282.489 -5.64903 1.3366 0
M  V30 3156 H 285.254 -1.73272 2.44534 0
M  V30 3157 H 282.815 -0.813512 1.39977 0
M  V30 3158 H 284.807 -3.88902 1.11971 0
M  V30 3159 H 283.377 -3.09908 0.409371 0
M  V30 3160 H 282.597 -2.70847 2.86419 0
M  V30 3161 H 283.885 -3.82071 3.36005 0
M  V30 3162 H 283.283 -5.60975 0.729604 0
M  V30 3163 H 281.84 -6.40275 1.22032 0
M  V30 3164 N 285.273 -1.31445 -0.869486 0
M  V30 3165 C 286.498 -1.24256 -1.66058 0
M  V30 3166 C 286.923 0.188928 -1.87149 0
M  V30 3167 O 286.281 1.13522 -1.4136 0
M  V30 3168 C 286.329 -1.9924 -3.00559 0
M  V30 3169 O 285.433 -1.33007 -3.90362 0
M  V30 3170 H 284.774 -0.428973 -0.506831 0
M  V30 3171 H 287.304 -1.73521 -1.08404 0
M  V30 3172 H 287.314 -2.08854 -3.50491 0
M  V30 3173 H 285.989 -3.03342 -2.84528 0
M  V30 3174 H 284.566 -1.31848 -3.48813 0
M  V30 3175 N 286.751 1.08385 -1.14413 0
M  V30 3176 C 287.997 1.81044 -0.913834 0
M  V30 3177 C 288.33 1.86004 0.558209 0
M  V30 3178 O 287.605 1.33606 1.4135 0
M  V30 3179 C 287.888 3.26648 -1.51569 0
M  V30 3180 C 287.741 3.29895 -3.0576 0
M  V30 3181 C 289.06 4.23629 -1.19273 0
M  V30 3182 H 286.179 0.65727 -0.333414 0
M  V30 3183 H 288.821 1.26896 -1.41412 0
M  V30 3184 H 286.971 3.72889 -1.09023 0
M  V30 3185 H 288.643 2.91977 -3.57137 0
M  V30 3186 H 286.886 2.69163 -3.40197 0
M  V30 3187 H 287.557 4.32516 -3.42977 0
M  V30 3188 H 290.033 3.85727 -1.56057 0
M  V30 3189 H 288.909 5.23822 -1.64017 0
M  V30 3190 H 289.17 4.41968 -0.108068 0
M  V30 3191 N 288.23 0.939286 1.26551 0
M  V30 3192 C 289.458 0.602536 1.97932 0
M  V30 3193 C 289.873 -0.82206 1.69964 0
M  V30 3194 O 289.23 -1.54789 0.966784 0
M  V30 3195 C 289.281 0.832946 3.51773 0
M  V30 3196 O 289.002 2.20151 3.78768 0
M  V30 3197 C 290.503 0.506483 4.40397 0
M  V30 3198 H 287.723 0.227248 0.631347 0
M  V30 3199 H 290.267 1.25948 1.61113 0
M  V30 3200 H 288.422 0.222644 3.8676 0
M  V30 3201 H 288.836 2.26013 4.73306 0
M  V30 3202 H 290.31 0.718333 5.47306 0
M  V30 3203 H 290.787 -0.558451 4.35635 0
M  V30 3204 H 291.393 1.09543 4.10951 0
M  V30 3205 N 289.708 -1.40897 0.706093 0
M  V30 3206 C 291.124 -1.55042 0.37869 0
M  V30 3207 C 291.324 -1.67944 -1.11342 0
M  V30 3208 O 290.38 -1.66372 -1.89938 0
M  V30 3209 C 291.693 -2.78398 1.13643 0
M  V30 3210 C 293.241 -2.92206 1.12181 0
M  V30 3211 C 293.716 -4.18463 1.86152 0
M  V30 3212 N 295.207 -4.25443 1.83173 0
M  V30 3213 C 295.942 -5.2202 2.37239 0
M  V30 3214 N 295.438 -6.24563 2.99821 0
M  V30 3215 N 297.231 -5.14033 2.27435 0
M  V30 3216 H 289.382 -1.30769 1.67372 0
M  V30 3217 H 291.645 -0.631653 0.706907 0
M  V30 3218 H 291.351 -2.7511 2.19106 0
M  V30 3219 H 291.225 -3.70228 0.721853 0
M  V30 3220 H 293.612 -2.95004 0.0754171 0
M  V30 3221 H 293.693 -2.01521 1.57554 0
M  V30 3222 H 293.337 -4.16427 2.90776 0
M  V30 3223 H 293.267 -5.08141 1.38206 0
M  V30 3224 H 295.758 -3.51976 1.37556 0
M  V30 3225 H 296.071 -6.94665 3.38616 0
M  V30 3226 H 294.416 -6.25035 3.03902 0
M  V30 3227 H 297.607 -4.3285 1.78208 0
M  V30 3228 H 297.78 -5.89129 2.69873 0
M  V30 3229 N 291.186 -0.45159 -1.50991 0
M  V30 3230 C 292.118 0.388634 -2.25881 0
M  V30 3231 C 293.131 0.974041 -1.30446 0
M  V30 3232 O 294.32 0.865758 -1.56099 0
M  V30 3233 C 291.42 1.5571 -3.01011 0
M  V30 3234 C 290.593 1.08801 -4.23652 0
M  V30 3235 C 289.652 2.12825 -4.8124 0
M  V30 3236 O 288.678 1.71678 -5.42693 0
M  V30 3237 N 289.88 3.45453 -4.66522 0
M  V30 3238 H 292.645 -0.25329 -2.98628 0
M  V30 3239 H 290.206 -0.281268 -1.59438 0
M  V30 3240 H 292.198 2.24952 -3.3642 0
M  V30 3241 H 290.768 2.10409 -2.31186 0
M  V30 3242 H 289.988 0.22215 -3.93574 0
M  V30 3243 H 291.276 0.752213 -5.03209 0
M  V30 3244 H 290.674 3.81605 -4.17605 0
M  V30 3245 H 289.231 4.10549 -5.06254 0
M  V30 3246 N 292.664 1.56529 -0.183458 0
M  V30 3247 C 293.611 2.18546 0.742055 0
M  V30 3248 C 294.581 1.12912 1.2182 0
M  V30 3249 O 295.766 1.41115 1.28418 0
M  V30 3250 C 292.906 2.83977 1.96089 0
M  V30 3251 C 292.019 4.04105 1.52719 0
M  V30 3252 C 291.154 4.57427 2.70063 0
M  V30 3253 C 290.193 5.69938 2.23243 0
M  V30 3254 N 289.33 6.17717 3.33722 0
M  V30 3255 H 294.17 2.97284 0.206432 0
M  V30 3256 H 291.707 1.46823 0.0901571 0
M  V30 3257 H 293.665 3.20077 2.67594 0
M  V30 3258 H 292.295 2.07822 2.47002 0
M  V30 3259 H 291.347 3.73745 0.708436 0
M  V30 3260 H 292.659 4.85513 1.1436 0
M  V30 3261 H 291.813 4.95772 3.49708 0
M  V30 3262 H 290.552 3.75101 3.11689 0
M  V30 3263 H 289.557 5.31133 1.42048 0
M  V30 3264 H 290.782 6.54073 1.82661 0
M  V30 3265 H 288.728 5.38317 3.74902 0
M  V30 3266 H 288.645 6.94146 2.99495 0
M  V30 3267 H 289.913 6.60713 4.13616 0
M  V30 3268 N 294.142 -0.090211 1.57342 0
M  V30 3269 C 295.075 -1.14035 1.97664 0
M  V30 3270 C 296.053 -1.38576 0.850616 0
M  V30 3271 O 297.237 -1.52255 1.11134 0
M  V30 3272 C 294.364 -2.48854 2.2976 0
M  V30 3273 C 293.41 -2.40564 3.52181 0
M  V30 3274 S 294.243 -1.81745 5.03715 0
M  V30 3275 C 295.399 -3.18178 5.38993 0
M  V30 3276 H 295.632 -0.796636 2.86428 0
M  V30 3277 H 293.165 -0.298072 1.51496 0
M  V30 3278 H 295.123 -3.26413 2.48927 0
M  V30 3279 H 293.784 -2.80393 1.41558 0
M  V30 3280 H 292.977 -3.39942 3.72096 0
M  V30 3281 H 292.579 -1.71135 3.32549 0
M  V30 3282 H 294.871 -4.14461 5.35937 0
M  V30 3283 H 295.814 -3.03062 6.39968 0
M  V30 3284 H 296.222 -3.17935 4.66452 0
M  V30 3285 N 295.62 -1.53406 -0.361157 0
M  V30 3286 C 296.552 -1.76446 -1.46286 0
M  V30 3287 C 297.565 -0.645322 -1.49464 0
M  V30 3288 O 298.754 -0.921681 -1.52864 0
M  V30 3289 C 295.854 -1.83332 -2.85031 0
M  V30 3290 C 295.027 -3.13033 -3.05498 0
M  V30 3291 C 294.086 -3.11104 -4.24383 0
M  V30 3292 O 293.112 -3.84888 -4.19344 0
M  V30 3293 N 294.314 -2.32234 -5.32022 0
M  V30 3294 H 297.079 -2.71508 -1.26899 0
M  V30 3295 H 294.64 -1.52238 -0.550915 0
M  V30 3296 H 296.632 -1.79514 -3.62708 0
M  V30 3297 H 295.202 -0.955342 -2.97644 0
M  V30 3298 H 294.422 -3.30119 -2.15442 0
M  V30 3299 H 295.71 -3.9874 -3.16044 0
M  V30 3300 H 295.108 -1.71807 -5.38979 0
M  V30 3301 H 293.665 -2.3423 -6.08259 0
M  V30 3302 N 297.098 0.621204 -1.44841 0
M  V30 3303 C 298.03 1.74615 -1.48466 0
M  V30 3304 C 299.043 1.58377 -0.37691 0
M  V30 3305 O 300.232 1.66508 -0.643215 0
M  V30 3306 C 297.332 3.12459 -1.31236 0
M  V30 3307 C 296.505 3.55064 -2.55438 0
M  V30 3308 C 295.564 4.71821 -2.32963 0
M  V30 3309 O 294.59 4.79628 -3.06505 0
M  V30 3310 N 295.792 5.64186 -1.36654 0
M  V30 3311 H 298.557 1.71973 -2.45449 0
M  V30 3312 H 296.118 0.806077 -1.40407 0
M  V30 3313 H 298.11 3.88302 -1.14032 0
M  V30 3314 H 296.68 3.09686 -0.4258 0
M  V30 3315 H 295.9 2.69324 -2.87851 0
M  V30 3316 H 297.188 3.80284 -3.38026 0
M  V30 3317 H 296.586 5.6058 -0.759344 0
M  V30 3318 H 295.143 6.39618 -1.25425 0
M  V30 3319 N 298.576 1.31904 0.862503 0
M  V30 3320 C 299.506 1.22782 1.98612 0
M  V30 3321 C 300.487 0.113362 1.69722 0
M  V30 3322 O 301.672 0.299218 1.91881 0
M  V30 3323 C 298.802 0.942058 3.34279 0
M  V30 3324 C 297.756 2.0169 3.77499 0
M  V30 3325 C 297.082 1.58369 5.10709 0
M  V30 3326 C 298.382 3.43096 3.93805 0
M  V30 3327 H 300.076 2.16788 2.06502 0
M  V30 3328 H 297.622 1.04366 0.992154 0
M  V30 3329 H 299.575 0.864818 4.1243 0
M  V30 3330 H 298.299 -0.0336603 3.26583 0
M  V30 3331 H 296.958 2.08416 3.01593 0
M  V30 3332 H 296.606 0.595628 4.99461 0
M  V30 3333 H 296.306 2.30279 5.40597 0
M  V30 3334 H 297.83 1.52067 5.91361 0
M  V30 3335 H 299.244 3.39003 4.62331 0
M  V30 3336 H 297.641 4.13288 4.35101 0
M  V30 3337 H 298.711 3.83334 2.96957 0
M  V30 3338 N 300.054 -1.07777 1.14986 0
M  V30 3339 C 300.964 -2.18404 0.856546 0
M  V30 3340 C 301.98 -1.73211 -0.165485 0
M  V30 3341 O 303.156 -2.01399 0.00755219 0
M  V30 3342 C 300.221 -3.44977 0.34526 0
M  V30 3343 C 299.282 -4.0476 1.43065 0
M  V30 3344 C 298.515 -5.25291 0.943663 0
M  V30 3345 O 298.738 -5.70004 -0.212426 0
M  V30 3346 O 297.672 -5.76638 1.72547 0
M  V30 3347 H 301.498 -2.45978 1.78125 0
M  V30 3348 H 299.083 -1.17033 0.928631 0
M  V30 3349 H 300.965 -4.21348 0.0663671 0
M  V30 3350 H 299.64 -3.18965 -0.551631 0
M  V30 3351 H 298.547 -3.29949 1.76309 0
M  V30 3352 H 299.88 -4.35035 2.30229 0
M  V30 3353 N 301.532 -0.945985 -1.26051 0
M  V30 3354 C 302.464 -0.416662 -2.25381 0
M  V30 3355 C 303.477 0.462712 -1.56086 0
M  V30 3356 O 304.666 0.272383 -1.7641 0
M  V30 3357 C 301.766 0.419812 -3.3629 0
M  V30 3358 C 300.939 -0.444531 -4.35135 0
M  V30 3359 C 299.998 0.332305 -5.2515 0
M  V30 3360 O 299.024 -0.266324 -5.68577 0
M  V30 3361 N 300.226 1.62763 -5.57215 0
M  V30 3362 H 302.991 -1.27059 -2.71433 0
M  V30 3363 H 300.552 -0.815392 -1.39868 0
M  V30 3364 H 302.544 0.947013 -3.93464 0
M  V30 3365 H 301.114 1.17456 -2.89694 0
M  V30 3366 H 300.334 -1.15291 -3.76964 0
M  V30 3367 H 301.622 -1.03478 -4.98166 0
M  V30 3368 H 301.02 2.13603 -5.23823 0
M  V30 3369 H 299.577 2.10097 -6.17011 0
M  V30 3370 N 303.011 1.40521 -0.713556 0
M  V30 3371 C 303.944 2.28198 -0.00881422 0
M  V30 3372 C 304.922 1.43227 0.769735 0
M  V30 3373 O 306.106 1.72641 0.756799 0
M  V30 3374 C 303.233 3.23758 0.994899 0
M  V30 3375 C 302.279 4.25391 0.3074 0
M  V30 3376 S 303.112 5.26765 -0.963247 0
M  V30 3377 C 304.268 6.25888 0.0384143 0
M  V30 3378 H 304.501 2.87622 -0.752407 0
M  V30 3379 H 302.034 1.45925 -0.504502 0
M  V30 3380 H 303.992 3.79341 1.56879 0
M  V30 3381 H 302.653 2.63396 1.71118 0
M  V30 3382 H 301.846 4.92596 1.0661 0
M  V30 3383 H 301.448 3.73497 -0.193879 0
M  V30 3384 H 303.74 6.71683 0.885912 0
M  V30 3385 H 304.683 7.05552 -0.60019 0
M  V30 3386 H 305.091 5.63072 0.401233 0
M  V30 3387 N 304.489 0.459591 1.5075 0
M  V30 3388 C 305.419 -0.330644 2.31147 0
M  V30 3389 C 306.4 -1.00087 1.37538 0
M  V30 3390 O 307.585 -1.00025 1.66459 0
M  V30 3391 C 304.715 -1.41958 3.16962 0
M  V30 3392 C 303.669 -0.871608 4.19031 0
M  V30 3393 C 302.995 -2.05797 4.9351 0
M  V30 3394 C 304.295 0.109251 5.22186 0
M  V30 3395 H 305.989 0.340336 2.97459 0
M  V30 3396 H 303.535 0.165119 1.4305 0
M  V30 3397 H 305.488 -1.9798 3.71997 0
M  V30 3398 H 304.212 -2.11917 2.48513 0
M  V30 3399 H 302.871 -0.333442 3.6508 0
M  V30 3400 H 302.519 -2.74427 4.21544 0
M  V30 3401 H 302.219 -1.6976 5.62544 0
M  V30 3402 H 303.743 -2.62331 5.51375 0
M  V30 3403 H 305.157 -0.361405 5.7216 0
M  V30 3404 H 303.554 0.383316 5.98875 0
M  V30 3405 H 304.624 1.03887 4.73641 0
M  V30 3406 N 305.967 -1.56429 0.191757 0
M  V30 3407 C 307.195 -2.01867 -0.453586 0
M  V30 3408 C 307.61 -1.07191 -1.5542 0
M  V30 3409 O 306.967 -0.0762108 -1.82341 0
M  V30 3410 C 307.018 -3.47017 -1.013 0
M  V30 3411 O 306.739 -4.38078 0.0437005 0
M  V30 3412 C 308.24 -4.07956 -1.73456 0
M  V30 3413 H 305.46 -0.661211 -0.114199 0
M  V30 3414 H 308.004 -2.02295 0.299483 0
M  V30 3415 H 306.159 -3.47298 -1.71647 0
M  V30 3416 H 306.573 -5.23178 -0.372212 0
M  V30 3417 H 308.047 -5.1138 -2.07833 0
M  V30 3418 H 308.524 -3.51222 -2.63704 0
M  V30 3419 H 309.13 -4.11437 -1.07702 0
M  V30 3420 N 307.445 0.0818655 -1.57387 0
M  V30 3421 C 308.408 1.08265 -2.02018 0
M  V30 3422 C 309.408 1.32183 -0.915664 0
M  V30 3423 O 310.598 1.28073 -1.18081 0
M  V30 3424 C 307.73 2.42871 -2.39221 0
M  V30 3425 H 308.923 0.698204 -2.91659 0
M  V30 3426 H 306.476 0.327303 -1.52835 0
M  V30 3427 H 307.211 2.86167 -1.52575 0
M  V30 3428 H 306.996 2.26855 -3.19811 0
M  V30 3429 H 308.486 3.14826 -2.74362 0
M  V30 3430 N 308.923 1.53595 0.353017 0
M  V30 3431 C 309.853 1.83902 1.43883 0
M  V30 3432 C 310.834 0.693421 1.55324 0
M  V30 3433 O 312.019 0.944452 1.69687 0
M  V30 3434 C 309.149 2.04016 2.8106 0
M  V30 3435 C 308.103 3.19814 2.84434 0
M  V30 3436 C 307.429 3.25244 4.24406 0
M  V30 3437 C 308.729 4.58133 2.50822 0
M  V30 3438 H 310.423 2.74835 1.1877 0
M  V30 3439 H 307.969 1.32242 0.569917 0
M  V30 3440 H 309.922 2.238 3.57059 0
M  V30 3441 H 308.646 1.09804 3.07588 0
M  V30 3442 H 307.305 2.9987 2.10887 0
M  V30 3443 H 306.953 2.28646 4.48029 0
M  V30 3444 H 306.653 4.03054 4.27576 0
M  V30 3445 H 308.177 3.47228 5.0226 0
M  V30 3446 H 309.591 4.77995 3.16534 0
M  V30 3447 H 307.988 5.38276 2.6529 0
M  V30 3448 H 309.058 4.62387 1.46034 0
M  V30 3449 N 310.401 -0.613514 1.45168 0
M  V30 3450 C 311.678 -1.37263 1.39349 0
M  V30 3451 C 312.058 -2.11012 0.0610848 0
M  V30 3452 O 311.406 -2.07502 -0.956825 0
M  V30 3453 C 311.616 -2.3244 2.60332 0
M  V30 3454 C 312.964 -2.9523 3.05163 0
M  V30 3455 O 313.988 -2.42762 2.60663 0
M  V30 3456 O 312.847 -3.90454 3.82372 0
M  V30 3457 H 309.941 -0.615188 0.552696 0
M  V30 3458 H 312.487 -0.637097 1.57287 0
M  V30 3459 H 311.259 -1.77164 3.48896 0
M  V30 3460 H 310.882 -3.13383 2.44698 0
M  V30 3461 N 311.879 -1.3236 -0.855495 0
M  V30 3462 C 312.811 -1.17052 -1.97057 0
M  V30 3463 C 313.824 -0.10574 -1.62456 0
M  V30 3464 O 315.013 -0.354619 -1.74942 0
M  V30 3465 C 312.113 -0.769305 -3.30053 0
M  V30 3466 C 311.286 -1.9222 -3.929 0
M  V30 3467 C 310.345 -1.50466 -5.04228 0
M  V30 3468 O 309.371 -2.21655 -5.24269 0
M  V30 3469 N 310.573 -0.400209 -5.79119 0
M  V30 3470 H 313.338 -2.13103 -2.1073 0
M  V30 3471 H 310.899 -1.24885 -1.0303 0
M  V30 3472 H 312.891 -0.472407 -4.01933 0
M  V30 3473 H 311.461 0.100025 -3.1244 0
M  V30 3474 H 310.681 -2.38563 -3.13817 0
M  V30 3475 H 311.969 -2.69403 -4.31624 0
M  V30 3476 H 311.367 0.192319 -5.65373 0
M  V30 3477 H 309.924 -0.162912 -6.51596 0
M  V30 3478 N 313.357 1.07166 -1.15556 0
M  V30 3479 C 314.29 2.13808 -0.797593 0
M  V30 3480 C 315.268 1.6101 0.226812 0
M  V30 3481 O 316.452 1.88161 0.112932 0
M  V30 3482 C 313.579 3.38187 -0.186371 0
M  V30 3483 C 312.625 4.09766 -1.18297 0
M  V30 3484 S 313.458 4.60932 -2.72584 0
M  V30 3485 C 314.614 5.88583 -2.12886 0
M  V30 3486 H 314.847 2.43843 -1.70083 0
M  V30 3487 H 312.38 1.19467 -0.978106 0
M  V30 3488 H 314.338 4.10189 0.159837 0
M  V30 3489 H 312.999 3.06326 0.694489 0
M  V30 3490 H 312.192 4.99065 -0.703562 0
M  V30 3491 H 311.794 3.43736 -1.47381 0
M  V30 3492 H 314.086 6.60866 -1.49208 0
M  V30 3493 H 315.029 6.41241 -3.0036 0
M  V30 3494 H 315.437 5.42194 -1.57116 0
M  V30 3495 N 314.835 0.952656 1.25548 0
M  V30 3496 C 316.251 0.656769 1.4546 0
M  V30 3497 C 316.451 -0.78633 1.85524 0
M  V30 3498 O 315.507 -1.56183 1.98402 0
M  V30 3499 C 316.82 1.62801 2.52817 0
M  V30 3500 C 318.368 1.63897 2.66659 0
M  V30 3501 C 318.843 2.5978 3.77198 0
M  V30 3502 N 320.334 2.58133 3.84606 0
M  V30 3503 C 321.069 3.29003 4.69621 0
M  V30 3504 N 320.565 4.09339 5.58939 0
M  V30 3505 N 322.358 3.179 4.63569 0
M  V30 3506 H 314.509 1.88526 0.978344 0
M  V30 3507 H 316.772 0.810815 0.491206 0
M  V30 3508 H 316.478 2.65869 2.30232 0
M  V30 3509 H 316.352 1.38898 3.50695 0
M  V30 3510 H 318.739 0.615481 2.8861 0
M  V30 3511 H 318.82 1.91858 1.69187 0
M  V30 3512 H 318.464 3.62254 3.55997 0
M  V30 3513 H 318.394 2.29105 4.7415 0
M  V30 3514 H 320.885 1.99809 3.20757 0
M  V30 3515 H 321.198 4.6034 6.20731 0
M  V30 3516 H 319.543 4.13438 5.58654 0
M  V30 3517 H 322.734 2.54612 3.92798 0
M  V30 3518 H 322.907 3.73398 5.29602 0
M  V30 3519 N 316.313 -1.40141 0.720998 0
M  V30 3520 C 317.729 -1.54632 0.395113 0
M  V30 3521 C 317.929 -1.69115 -1.09555 0
M  V30 3522 O 316.985 -1.68377 -1.88163 0
M  V30 3523 C 318.298 -2.77177 1.1659 0
M  V30 3524 C 319.846 -2.91 1.15274 0
M  V30 3525 C 320.321 -4.16465 1.90579 0
M  V30 3526 N 321.812 -4.23476 1.87675 0
M  V30 3527 C 322.547 -5.19475 2.42762 0
M  V30 3528 N 322.043 -6.21348 3.06428 0
M  V30 3529 N 323.836 -5.11592 2.32874 0
M  V30 3530 H 315.987 -1.28986 1.68749 0
M  V30 3531 H 318.25 -0.62412 0.713567 0
M  V30 3532 H 317.956 -2.72771 2.22011 0
M  V30 3533 H 317.83 -3.69442 0.76108 0
M  V30 3534 H 320.217 -2.94907 0.106702 0
M  V30 3535 H 320.298 -1.99838 1.59682 0
M  V30 3536 H 319.942 -4.1332 2.95176 0
M  V30 3537 H 319.872 -5.06646 1.43587 0
M  V30 3538 H 322.363 -3.50497 1.41281 0
M  V30 3539 H 322.676 -6.91034 3.45965 0
M  V30 3540 H 321.021 -6.21777 3.10514 0
M  V30 3541 H 324.212 -4.30936 1.82789 0
M  V30 3542 H 324.385 -5.86233 2.76106 0
M  V30 3543 N 317.792 -0.46758 -1.50504 0
M  V30 3544 C 319.017 0.0886943 -2.0721 0
M  V30 3545 C 319.442 1.33057 -1.32956 0
M  V30 3546 O 318.8 1.77354 -0.376197 0
M  V30 3547 C 318.848 0.359202 -3.58806 0
M  V30 3548 O 317.952 1.44034 -3.8643 0
M  V30 3549 H 317.293 -0.0114349 -0.663902 0
M  V30 3550 H 319.823 -0.657613 -1.93744 0
M  V30 3551 H 319.833 0.600742 -4.03553 0
M  V30 3552 H 318.508 -0.548311 -4.1227 0
M  V30 3553 H 317.085 1.18638 -3.53524 0
M  V30 3554 N 319.27 1.56325 -0.20005 0
M  V30 3555 C 320.519 1.96895 0.437652 0
M  V30 3556 C 320.832 1.08999 1.62415 0
M  V30 3557 O 322.038 1.39372 2.32997 0
M  V30 3558 C 320.494 3.50198 0.830025 0
M  V30 3559 C 320.102 4.46765 -0.332461 0
M  V30 3560 C 321.846 3.99526 1.43453 0
M  V30 3561 C 319.753 5.91344 0.0811468 0
M  V30 3562 H 318.683 0.735209 0.167282 0
M  V30 3563 H 321.334 1.81148 -0.292853 0
M  V30 3564 H 319.716 3.61467 1.61734 0
M  V30 3565 H 320.89 4.47231 -1.11 0
M  V30 3566 H 319.205 4.07657 -0.848789 0
M  V30 3567 H 321.802 5.05025 1.75652 0
M  V30 3568 H 322.145 3.44122 2.34277 0
M  V30 3569 H 322.678 3.91393 0.71109 0
M  V30 3570 H 319.417 6.50685 -0.793033 0
M  V30 3571 H 318.937 5.94121 0.823445 0
M  V30 3572 H 320.616 6.44945 0.515252 0
M  V30 3573 N 320.748 -0.0735177 1.57428 0
M  V30 3574 C 321.994 -0.774145 1.87443 0
M  V30 3575 C 322.327 -1.77311 0.792103 0
M  V30 3576 O 321.602 -1.93492 -0.197793 0
M  V30 3577 C 321.885 -1.48367 3.28115 0
M  V30 3578 C 321.738 -0.501227 4.46999 0
M  V30 3579 C 323.057 -2.429 3.66998 0
M  V30 3580 H 320.176 -0.279971 0.681752 0
M  V30 3581 H 322.818 -0.0373616 1.89963 0
M  V30 3582 H 320.968 -2.11171 3.26097 0
M  V30 3583 H 322.64 0.121468 4.6114 0
M  V30 3584 H 320.883 0.183593 4.33411 0
M  V30 3585 H 321.554 -1.03526 5.42205 0
M  V30 3586 H 324.03 -1.90175 3.70098 0
M  V30 3587 H 322.906 -2.89549 4.66318 0
M  V30 3588 H 323.167 -3.27628 2.96837 0
M  V30 3589 N 322.226 -1.5378 -0.344866 0
M  V30 3590 C 323.451 -1.75211 -1.10977 0
M  V30 3591 C 323.876 -0.48936 -1.81623 0
M  V30 3592 O 323.234 0.557925 -1.72502 0
M  V30 3593 C 323.282 -2.93147 -2.09993 0
M  V30 3594 O 322.386 -2.63203 -3.17487 0
M  V30 3595 H 321.727 -0.581241 -0.321021 0
M  V30 3596 H 324.257 -2.00738 -0.395661 0
M  V30 3597 H 324.267 -3.19898 -2.53237 0
M  V30 3598 H 322.942 -3.84731 -1.5797 0
M  V30 3599 H 321.519 -2.47336 -2.79069 0
M  V30 3600 N 323.704 0.605807 -1.45491 0
M  V30 3601 C 324.614 1.74466 -1.56839 0
M  V30 3602 C 325.63 1.68006 -0.452772 0
M  V30 3603 O 326.806 1.8833 -0.713708 0
M  V30 3604 C 323.871 3.10931 -1.53371 0
M  V30 3605 C 322.932 3.28832 -2.75986 0
M  V30 3606 C 322.165 4.58787 -2.72673 0
M  V30 3607 O 322.388 5.4122 -1.80102 0
M  V30 3608 O 321.322 4.79438 -3.63899 0
M  V30 3609 H 325.148 1.67843 -2.53106 0
M  V30 3610 H 322.733 0.770108 -1.28022 0
M  V30 3611 H 324.615 3.92233 -1.54051 0
M  V30 3612 H 323.29 3.18042 -0.602572 0
M  V30 3613 H 322.197 2.47112 -2.80867 0
M  V30 3614 H 323.53 3.26599 -3.68231 0
M  V30 3615 N 325.182 1.32811 0.848464 0
M  V30 3616 C 326.112 1.24882 1.97299 0
M  V30 3617 C 327.093 0.131357 1.69592 0
M  V30 3618 O 328.278 0.319553 1.91553 0
M  V30 3619 C 325.408 0.97746 3.33261 0
M  V30 3620 C 324.362 2.05682 3.75338 0
M  V30 3621 C 323.688 1.63777 5.09 0
M  V30 3622 C 324.988 3.47254 3.90144 0
M  V30 3623 H 326.682 2.18966 2.04191 0
M  V30 3624 H 324.228 1.05413 0.981029 0
M  V30 3625 H 326.181 0.908513 4.1149 0
M  V30 3626 H 324.905 0.000980011 3.266 0
M  V30 3627 H 323.564 2.11603 2.99366 0
M  V30 3628 H 323.212 0.648569 4.98801 0
M  V30 3629 H 322.912 2.36 5.38124 0
M  V30 3630 H 324.436 1.5833 5.89715 0
M  V30 3631 H 325.85 3.43888 4.58709 0
M  V30 3632 H 324.247 4.1788 4.30693 0
M  V30 3633 H 325.317 3.86462 2.92874 0
M  V30 3634 N 326.66 -1.06551 1.16123 0
M  V30 3635 C 327.623 -2.12132 0.867906 0
M  V30 3636 C 328.623 -1.60224 -0.135944 0
M  V30 3637 O 329.813 -1.73943 0.0946422 0
M  V30 3638 C 326.945 -3.396 0.297419 0
M  V30 3639 H 328.138 -2.39586 1.80385 0
M  V30 3640 H 325.691 -1.22574 0.969812 0
M  V30 3641 H 326.426 -3.17794 -0.64633 0
M  V30 3642 H 326.211 -3.78581 1.02073 0
M  V30 3643 H 327.701 -4.17455 0.110052 0
M  V30 3644 N 328.138 -0.959301 -1.25041 0
M  V30 3645 C 329.386 -0.615393 -1.92503 0
M  V30 3646 C 329.707 0.850969 -1.75452 0
M  V30 3647 O 328.977 1.60658 -1.12098 0
M  V30 3648 H 327.557 -0.224613 -0.712431 0
M  V30 3649 H 330.219 -1.21855 -1.5211 0
M  V30 3650 H 329.315 -0.848738 -3.00338 0
M  V30 3651 N 329.616 1.39756 -0.72842 0
M  V30 3652 C 330.546 2.33289 -0.0991354 0
M  V30 3653 C 331.527 1.53568 0.731489 0
M  V30 3654 O 332.712 1.81987 0.677807 0
M  V30 3655 C 329.842 3.3763 0.813834 0
M  V30 3656 C 328.796 4.2791 0.0878663 0
M  V30 3657 C 328.122 5.22894 1.11741 0
M  V30 3658 C 329.422 5.11314 -1.06563 0
M  V30 3659 H 331.116 2.86163 -0.880408 0
M  V30 3660 H 328.662 1.37591 -0.424819 0
M  V30 3661 H 330.615 4.0201 1.26355 0
M  V30 3662 H 329.339 2.83181 1.62715 0
M  V30 3663 H 327.998 3.65 -0.342159 0
M  V30 3664 H 327.646 4.64744 1.92412 0
M  V30 3665 H 327.346 5.84143 0.636477 0
M  V30 3666 H 328.87 5.90151 1.56697 0
M  V30 3667 H 330.284 5.69076 -0.694671 0
M  V30 3668 H 328.681 5.81671 -1.47577 0
M  V30 3669 H 329.751 4.46534 -1.89038 0
M  V30 3670 N 331.094 0.475555 1.50254 0
M  V30 3671 C 332.024 -0.30611 2.31485 0
M  V30 3672 C 333.005 -0.986228 1.38591 0
M  V30 3673 O 334.19 -0.982541 1.67511 0
M  V30 3674 C 331.32 -1.38588 3.1845 0
M  V30 3675 C 330.274 -0.827115 4.19932 0
M  V30 3676 C 329.6 -2.00551 4.95665 0
M  V30 3677 C 330.9 0.16463 5.2204 0
M  V30 3678 H 332.594 0.371866 2.97082 0
M  V30 3679 H 330.14 0.180282 1.42867 0
M  V30 3680 H 332.093 -1.94023 3.74076 0
M  V30 3681 H 330.817 -2.09269 2.50747 0
M  V30 3682 H 329.476 -0.294702 3.65414 0
M  V30 3683 H 329.124 -2.6994 4.2443 0
M  V30 3684 H 328.824 -1.63784 5.64313 0
M  V30 3685 H 330.348 -2.56468 5.54127 0
M  V30 3686 H 331.762 -0.300699 5.72511 0
M  V30 3687 H 330.159 0.446813 5.98434 0
M  V30 3688 H 331.229 1.08905 4.72512 0
M  V30 3689 N 332.573 -1.56217 0.208337 0
M  V30 3690 C 333.798 -2.02782 -0.435222 0
M  V30 3691 C 334.223 -1.08738 -1.53485 0
M  V30 3692 O 333.581 -0.0731855 -1.81152 0
M  V30 3693 C 333.629 -3.47687 -0.956335 0
M  V30 3694 O 332.733 -3.56773 -2.06849 0
M  V30 3695 H 332.074 -0.656403 -0.100158 0
M  V30 3696 H 334.604 -2.02033 0.3231 0
M  V30 3697 H 334.614 -3.87745 -1.26955 0
M  V30 3698 H 333.289 -4.15624 -0.15143 0
M  V30 3699 H 331.866 -3.28597 -1.76292 0
M  V30 3700 N 334.051 0.0651679 -1.57465 0
M  V30 3701 C 335.014 1.06117 -2.03155 0
M  V30 3702 C 336.014 1.31204 -0.929632 0
M  V30 3703 O 337.204 1.26813 -1.19432 0
M  V30 3704 C 334.336 2.4032 -2.41783 0
M  V30 3705 H 335.529 0.667231 -2.92383 0
M  V30 3706 H 333.082 0.311075 -1.53173 0
M  V30 3707 H 333.817 2.84532 -1.55601 0
M  V30 3708 H 333.602 2.23451 -3.22199 0
M  V30 3709 H 335.092 3.11898 -2.77685 0
M  V30 3710 N 335.529 1.53961 0.336706 0
M  V30 3711 C 336.462 1.77255 1.43722 0
M  V30 3712 C 337.44 0.62193 1.50236 0
M  V30 3713 O 338.624 0.857874 1.67847 0
M  V30 3714 C 335.751 1.87733 2.81912 0
M  V30 3715 C 334.797 3.09933 2.92991 0
M  V30 3716 S 335.63 4.68836 2.58753 0
M  V30 3717 C 336.786 4.82202 3.99039 0
M  V30 3718 H 337.019 2.70322 1.23748 0
M  V30 3719 H 334.552 1.44917 0.532777 0
M  V30 3720 H 336.51 1.94455 3.61521 0
M  V30 3721 H 335.171 0.956666 2.99177 0
M  V30 3722 H 334.364 3.1396 3.94265 0
M  V30 3723 H 333.966 3.01472 2.21338 0
M  V30 3724 H 336.258 4.64032 4.9364 0
M  V30 3725 H 337.201 5.84298 4.00002 0
M  V30 3726 H 337.609 4.10604 3.87382 0
M  V30 3727 N 337.007 -0.598083 1.45811 0
M  V30 3728 C 337.917 -1.73632 1.57763 0
M  V30 3729 C 338.933 -1.67763 0.461676 0
M  V30 3730 O 340.109 -1.87949 0.723685 0
M  V30 3731 C 337.174 -3.10114 1.55018 0
M  V30 3732 C 336.235 -3.27364 2.77726 0
M  V30 3733 C 335.468 -4.57334 2.75102 0
M  V30 3734 O 335.691 -5.40258 1.8297 0
M  V30 3735 O 334.625 -4.77502 3.66437 0
M  V30 3736 H 338.451 -1.66498 2.53992 0
M  V30 3737 H 336.036 -0.763308 1.28429 0
M  V30 3738 H 337.918 -3.9141 1.56129 0
M  V30 3739 H 336.593 -3.17718 0.619431 0
M  V30 3740 H 335.5 -2.45619 2.82174 0
M  V30 3741 H 336.833 -3.24641 3.69958 0
M  V30 3742 N 338.485 -1.33259 -0.841409 0
M  V30 3743 C 339.715 -1.2742 -1.62628 0
M  V30 3744 C 340.123 0.157604 -1.88542 0
M  V30 3745 O 339.466 1.10938 -1.46419 0
M  V30 3746 C 339.528 -1.97797 -3.00194 0
M  V30 3747 C 339.192 -3.47109 -2.97261 0
M  V30 3748 C 340.189 -4.42358 -2.73159 0
M  V30 3749 C 337.874 -3.89247 -3.17478 0
M  V30 3750 C 339.868 -5.77718 -2.69296 0
M  V30 3751 C 337.555 -5.24713 -3.13241 0
M  V30 3752 C 338.553 -6.1876 -2.89181 0
M  V30 3753 O 338.241 -7.51745 -2.84843 0
M  V30 3754 H 337.973 -0.440436 -0.512827 0
M  V30 3755 H 340.527 -1.76153 -1.05638 0
M  V30 3756 H 338.757 -1.43652 -3.59028 0
M  V30 3757 H 340.446 -1.8549 -3.61038 0
M  V30 3758 H 341.212 -4.11127 -2.57294 0
M  V30 3759 H 337.091 -3.16456 -3.35226 0
M  V30 3760 H 340.635 -6.51097 -2.50436 0
M  V30 3761 H 336.532 -5.55569 -3.28654 0
M  V30 3762 H 337.3 -7.61262 -3.00702 0
M  V30 3763 N 339.963 1.05934 -1.16686 0
M  V30 3764 C 341.209 1.79065 -0.95203 0
M  V30 3765 C 341.542 1.87147 0.518629 0
M  V30 3766 O 340.817 1.36574 1.38484 0
M  V30 3767 C 341.1 3.23359 -1.58464 0
M  V30 3768 C 340.953 3.23336 -3.12689 0
M  V30 3769 C 342.272 4.21004 -1.28232 0
M  V30 3770 H 339.391 0.65005 -0.34728 0
M  V30 3771 H 342.033 1.23868 -1.44072 0
M  V30 3772 H 340.183 3.70493 -1.16908 0
M  V30 3773 H 341.855 2.84336 -3.6325 0
M  V30 3774 H 340.098 2.61886 -3.4583 0
M  V30 3775 H 340.769 4.25144 -3.52075 0
M  V30 3776 H 343.245 3.8233 -1.64203 0
M  V30 3777 H 342.121 5.20225 -1.75092 0
M  V30 3778 H 342.382 4.41639 -0.201791 0
M  V30 3779 N 341.441 0.965919 1.2453 0
M  V30 3780 C 342.373 0.452465 2.2469 0
M  V30 3781 C 343.386 -0.437821 1.56802 0
M  V30 3782 O 344.575 -0.244283 1.76821 0
M  V30 3783 C 341.675 -0.366258 3.36915 0
M  V30 3784 C 340.848 0.513701 4.34373 0
M  V30 3785 C 339.907 -0.248716 5.25612 0
M  V30 3786 O 338.933 0.356745 5.68081 0
M  V30 3787 N 340.135 -1.53877 5.59734 0
M  V30 3788 H 342.9 1.31361 2.69378 0
M  V30 3789 H 340.461 0.837541 1.38553 0
M  V30 3790 H 342.453 -0.884297 3.94921 0
M  V30 3791 H 341.023 -1.12832 2.91526 0
M  V30 3792 H 340.243 1.21273 3.75082 0
M  V30 3793 H 341.531 1.11391 4.96457 0
M  V30 3794 H 340.929 -2.05243 5.27154 0
M  V30 3795 H 339.486 -2.00254 6.20275 0
M  V30 3796 N 342.919 -1.39368 0.735821 0
M  V30 3797 C 343.866 -2.30599 0.0963825 0
M  V30 3798 C 344.836 -1.49257 -0.728794 0
M  V30 3799 O 346.021 -1.77941 -0.688588 0
M  V30 3800 C 343.161 -3.35596 -0.804305 0
M  V30 3801 C 342.274 -4.31987 0.0335761 0
M  V30 3802 C 341.409 -5.24053 -0.868461 0
M  V30 3803 C 340.448 -6.12095 -0.0258776 0
M  V30 3804 N 339.585 -6.96514 -0.883893 0
M  V30 3805 H 344.425 -2.8471 0.880002 0
M  V30 3806 H 341.962 -1.40188 0.445619 0
M  V30 3807 H 343.92 -3.95062 -1.34096 0
M  V30 3808 H 342.55 -2.82938 -1.55389 0
M  V30 3809 H 341.602 -3.74133 0.68766 0
M  V30 3810 H 342.914 -4.94074 0.685036 0
M  V30 3811 H 342.068 -5.88549 -1.47293 0
M  V30 3812 H 340.807 -4.62289 -1.5537 0
M  V30 3813 H 339.812 -5.4661 0.591386 0
M  V30 3814 H 341.037 -6.75923 0.656156 0
M  V30 3815 H 338.983 -6.37318 -1.55441 0
M  V30 3816 H 338.9 -7.55448 -0.288931 0
M  V30 3817 H 340.168 -7.65439 -1.4739 0
M  V30 3818 N 344.397 -0.483516 -1.5 0
M  V30 3819 C 345.625 0.0644831 -2.06799 0
M  V30 3820 C 346.04 1.32399 -1.34596 0
M  V30 3821 O 345.397 1.77626 -0.418946 0
M  V30 3822 C 345.448 0.339927 -3.59898 0
M  V30 3823 O 345.169 -0.869635 -4.29382 0
M  V30 3824 C 346.67 0.933515 -4.33359 0
M  V30 3825 H 343.89 -0.0126333 -0.670881 0
M  V30 3826 H 346.434 -0.675864 -1.93009 0
M  V30 3827 H 344.589 1.03022 -3.7345 0
M  V30 3828 H 345.003 -0.62179 -5.20801 0
M  V30 3829 H 346.477 1.07593 -5.41413 0
M  V30 3830 H 346.954 1.92685 -3.94676 0
M  V30 3831 H 347.56 0.281221 -4.24369 0
M  V30 3832 N 345.875 1.56104 -0.216619 0
M  V30 3833 C 346.805 2.23063 0.690296 0
M  V30 3834 C 347.786 1.20072 1.20485 0
M  V30 3835 O 348.971 1.48643 1.24976 0
M  V30 3836 C 346.101 2.90672 1.90072 0
M  V30 3837 C 345.055 4.00092 1.5202 0
M  V30 3838 C 344.381 4.54972 2.80899 0
M  V30 3839 C 345.681 5.17398 0.71391 0
M  V30 3840 H 347.375 2.99109 0.132038 0
M  V30 3841 H 344.921 1.43866 0.0620664 0
M  V30 3842 H 346.874 3.36204 2.54057 0
M  V30 3843 H 345.598 2.12066 2.48386 0
M  V30 3844 H 344.257 3.55283 0.903839 0
M  V30 3845 H 343.905 3.73102 3.37348 0
M  V30 3846 H 343.605 5.28817 2.56176 0
M  V30 3847 H 345.129 5.0322 3.45836 0
M  V30 3848 H 346.543 5.59342 1.25735 0
M  V30 3849 H 344.94 5.97444 0.563951 0
M  V30 3850 H 346.01 4.84088 -0.280527 0
M  V30 3851 N 347.353 -0.0568162 1.57498 0
M  V30 3852 C 348.581 -0.765626 1.92213 0
M  V30 3853 C 348.996 -1.70353 0.813961 0
M  V30 3854 O 348.353 -1.81268 -0.211701 0
M  V30 3855 C 348.404 -1.5465 3.2675 0
M  V30 3856 O 348.125 -0.646278 4.33307 0
M  V30 3857 C 349.626 -2.35497 3.75574 0
M  V30 3858 H 346.846 -0.216835 0.634999 0
M  V30 3859 H 349.39 -0.0226146 2.04487 0
M  V30 3860 H 347.545 -2.24165 3.15957 0
M  V30 3861 H 347.959 -1.19093 5.108 0
M  V30 3862 H 349.433 -2.85722 4.72299 0
M  V30 3863 H 349.91 -3.15692 3.05344 0
M  V30 3864 H 350.516 -1.7111 3.8936 0
M  V30 3865 N 348.832 -1.54138 -0.328536 0
M  V30 3866 C 350.109 -1.62749 -1.08499 0
M  V30 3867 C 350.489 -0.458198 -2.06067 0
M  V30 3868 O 349.837 0.548046 -2.2183 0
M  V30 3869 C 350.047 -2.99519 -1.79135 0
M  V30 3870 C 351.395 -3.55394 -2.32337 0
M  V30 3871 O 352.419 -3.01792 -1.89209 0
M  V30 3872 O 351.278 -4.49186 -3.11279 0
M  V30 3873 H 348.372 -0.65886 -0.499832 0
M  V30 3874 H 350.918 -1.66484 -0.328826 0
M  V30 3875 H 349.69 -3.76061 -1.08139 0
M  V30 3876 H 349.313 -2.99441 -2.61574 0
M  V30 3877 N 350.31 0.590341 -1.46126 0
M  V30 3878 C 351.22 1.72793 -1.58681 0
M  V30 3879 C 352.236 1.67516 -0.470566 0
M  V30 3880 O 353.412 1.87562 -0.733642 0
M  V30 3881 C 350.477 3.09287 -1.5666 0
M  V30 3882 C 349.538 3.25886 -2.79458 0
M  V30 3883 C 348.771 4.55869 -2.77524 0
M  V30 3884 O 348.994 5.3928 -1.85832 0
M  V30 3885 O 347.928 4.75552 -3.68964 0
M  V30 3886 H 351.754 1.65149 -2.54872 0
M  V30 3887 H 349.339 0.756486 -1.28832 0
M  V30 3888 H 351.221 3.90577 -1.58202 0
M  V30 3889 H 349.896 3.17385 -0.636271 0
M  V30 3890 H 348.803 2.44119 -2.83472 0
M  V30 3891 H 350.136 3.22675 -3.71674 0
M  V30 3892 N 351.788 1.33704 0.83433 0
M  V30 3893 C 352.698 1.26382 1.97648 0
M  V30 3894 C 353.714 0.173548 1.73132 0
M  V30 3895 O 354.89 0.397962 1.97429 0
M  V30 3896 C 351.955 1.00769 3.31733 0
M  V30 3897 C 351.016 2.1884 3.69334 0
M  V30 3898 C 350.249 1.9444 4.9702 0
M  V30 3899 O 350.472 0.896961 5.63303 0
M  V30 3900 O 349.406 2.81093 5.32231 0
M  V30 3901 H 353.232 2.22444 2.06767 0
M  V30 3902 H 350.817 1.13795 0.968037 0
M  V30 3903 H 352.699 0.882186 4.12062 0
M  V30 3904 H 351.374 0.0773783 3.23608 0
M  V30 3905 H 350.281 2.36946 2.89495 0
M  V30 3906 H 351.614 3.10221 3.82131 0
M  V30 3907 N 353.266 -1.05314 1.17247 0
M  V30 3908 C 354.196 -2.1498 0.911362 0
M  V30 3909 C 355.177 -1.69471 -0.146169 0
M  V30 3910 O 356.362 -1.942 0.003812 0
M  V30 3911 C 353.492 -3.4472 0.422528 0
M  V30 3912 C 352.446 -4.03789 1.4191 0
M  V30 3913 C 351.772 -5.28858 0.788274 0
M  V30 3914 C 353.072 -4.41418 2.7919 0
M  V30 3915 H 354.766 -2.3708 1.82848 0
M  V30 3916 H 352.312 -1.13938 0.880569 0
M  V30 3917 H 354.265 -4.20787 0.227289 0
M  V30 3918 H 352.989 -3.22269 -0.530123 0
M  V30 3919 H 351.648 -3.2979 1.60106 0
M  V30 3920 H 351.296 -5.02709 -0.171173 0
M  V30 3921 H 350.996 -5.69338 1.45353 0
M  V30 3922 H 352.52 -6.07612 0.603282 0
M  V30 3923 H 353.934 -5.08524 2.64719 0
M  V30 3924 H 352.331 -4.92913 3.42282 0
M  V30 3925 H 353.401 -3.51819 3.33693 0
M  V30 3926 N 354.744 -0.972509 -1.24016 0
M  V30 3927 C 355.707 -0.511403 -2.23422 0
M  V30 3928 C 356.707 0.394679 -1.55881 0
M  V30 3929 O 357.897 0.189469 -1.73167 0
M  V30 3930 C 355.029 0.258769 -3.39916 0
M  V30 3931 H 356.222 -1.39024 -2.6573 0
M  V30 3932 H 353.775 -0.757585 -1.36713 0
M  V30 3933 H 354.51 1.1545 -3.03054 0
M  V30 3934 H 354.295 -0.391522 -3.9014 0
M  V30 3935 H 355.785 0.570244 -4.13688 0
M  V30 3936 N 356.222 1.38976 -0.743202 0
M  V30 3937 C 357.499 1.94351 -0.220705 0
M  V30 3938 C 357.879 1.67935 1.2791 0
M  V30 3939 O 357.227 1.01211 2.04862 0
M  V30 3940 C 357.437 3.44426 -0.563171 0
M  V30 3941 C 358.785 4.2144 -0.517046 0
M  V30 3942 O 359.809 3.52661 -0.500846 0
M  V30 3943 O 358.668 5.44032 -0.518806 0
M  V30 3944 H 355.762 0.825879 -0.043047 0
M  V30 3945 H 358.308 1.48429 -0.822618 0
M  V30 3946 H 357.08 3.5712 -1.59941 0
M  V30 3947 H 356.703 3.97543 0.0672883 0
M  V30 3948 N 357.7 0.491464 1.49741 0
M  V30 3949 C 358.946 -0.0485431 2.03342 0
M  V30 3950 C 359.301 -1.35566 1.36527 0
M  V30 3951 O 358.594 -1.85262 0.488729 0
M  V30 3952 C 358.788 -0.267329 3.56399 0
M  V30 3953 C 358.617 1.01703 4.38049 0
M  V30 3954 C 357.387 1.56614 4.80417 0
M  V30 3955 C 359.585 1.91782 4.77204 0
M  V30 3956 N 357.567 2.7974 5.4646 0
M  V30 3957 C 358.938 2.99489 5.42868 0
M  V30 3958 C 360.993 1.92575 4.5915 0
M  V30 3959 C 359.696 4.08005 5.92389 0
M  V30 3960 C 361.722 3.0006 5.09626 0
M  V30 3961 C 361.084 4.06485 5.75282 0
M  V30 3962 H 357.183 0.0227779 0.781668 0
M  V30 3963 H 359.767 0.664204 1.8302 0
M  V30 3964 H 357.938 -0.949126 3.76625 0
M  V30 3965 H 359.67 -0.803492 3.96644 0
M  V30 3966 H 356.425 1.11256 4.60347 0
M  V30 3967 H 356.849 3.42323 5.84075 0
M  V30 3968 H 361.491 1.11605 4.07804 0
M  V30 3969 H 359.209 4.89779 6.42761 0
M  V30 3970 H 362.795 3.01681 4.97473 0
M  V30 3971 H 361.675 4.88287 6.13633 0
M  V30 3972 N 359.178 -1.55987 0.224894 0
M  V30 3973 C 360.125 -2.20436 -0.68385 0
M  V30 3974 C 361.095 -1.16102 -1.18783 0
M  V30 3975 O 362.28 -1.4447 -1.24632 0
M  V30 3976 C 359.42 -2.89076 -1.88491 0
M  V30 3977 C 358.533 -4.08012 -1.41951 0
M  V30 3978 C 357.668 -4.64426 -2.5784 0
M  V30 3979 C 356.707 -5.75656 -2.08053 0
M  V30 3980 N 355.844 -6.26347 -3.17227 0
M  V30 3981 H 360.684 -2.97727 -0.12754 0
M  V30 3982 H 358.221 -1.47011 -0.0511978 0
M  V30 3983 H 360.179 -3.27059 -2.59014 0
M  V30 3984 H 358.809 -2.14298 -2.41405 0
M  V30 3985 H 357.861 -3.75492 -0.609095 0
M  V30 3986 H 359.173 -4.88375 -1.01447 0
M  V30 3987 H 358.327 -5.04869 -3.3644 0
M  V30 3988 H 357.066 -3.83233 -3.01635 0
M  V30 3989 H 356.071 -5.34712 -1.27916 0
M  V30 3990 H 357.296 -6.58686 -1.65255 0
M  V30 3991 H 355.242 -5.48067 -3.60497 0
M  V30 3992 H 355.159 -7.01843 -2.80986 0
M  V30 3993 H 356.427 -6.71447 -3.95953 0
M  V30 3994 N 360.656 0.0484629 -1.57525 0
M  V30 3995 C 362.072 0.40375 -1.54409 0
M  V30 3996 C 362.272 1.77786 -0.948384 0
M  V30 3997 O 361.328 2.46189 -0.560983 0
M  V30 3998 C 362.641 0.323394 -2.98956 0
M  V30 3999 C 364.189 0.401892 -3.10409 0
M  V30 4000 C 364.664 0.351195 -4.56652 0
M  V30 4001 N 366.155 0.410576 -4.61377 0
M  V30 4002 C 366.89 0.393933 -5.72045 0
M  V30 4003 N 366.386 0.330724 -6.9201 0
M  V30 4004 N 368.179 0.442227 -5.60358 0
M  V30 4005 H 360.33 -0.851016 -1.94606 0
M  V30 4006 H 362.593 -0.321721 -0.89174 0
M  V30 4007 H 362.299 -0.62011 -3.4619 0
M  V30 4008 H 362.173 1.12463 -3.60044 0
M  V30 4009 H 364.56 1.33582 -2.63134 0
M  V30 4010 H 364.641 -0.428342 -2.52188 0
M  V30 4011 H 364.285 -0.578987 -5.04589 0
M  V30 4012 H 364.215 1.19928 -5.12762 0
M  V30 4013 H 366.706 0.462729 -3.75056 0
M  V30 4014 H 367.019 0.322592 -7.72126 0
M  V30 4015 H 365.364 0.29706 -6.94365 0
M  V30 4016 H 368.555 0.489464 -4.65534 0
M  V30 4017 H 368.728 0.425788 -6.466 0
M  V30 4018 N 362.134 1.5431 0.320358 0
M  V30 4019 C 363.55 1.45091 0.664889 0
M  V30 4020 C 363.75 0.626382 1.91517 0
M  V30 4021 O 362.806 0.126443 2.52183 0
M  V30 4022 C 364.119 2.88848 0.83591 0
M  V30 4023 C 365.667 2.9877 0.933046 0
M  V30 4024 C 366.142 4.43683 1.13621 0
M  V30 4025 N 367.633 4.47309 1.20287 0
M  V30 4026 C 368.368 5.56595 1.37801 0
M  V30 4027 N 367.864 6.75844 1.52338 0
M  V30 4028 N 369.657 5.44248 1.40535 0
M  V30 4029 H 361.808 2.06398 -0.501374 0
M  V30 4030 H 364.071 0.933963 -0.162534 0
M  V30 4031 H 363.777 3.51698 -0.0116092 0
M  V30 4032 H 363.651 3.35148 1.73078 0
M  V30 4033 H 366.038 2.36045 1.77107 0
M  V30 4034 H 366.119 2.55796 0.0145782 0
M  V30 4035 H 365.763 5.06995 0.303032 0
M  V30 4036 H 365.693 4.84269 2.0686 0
M  V30 4037 H 368.184 3.61388 1.10485 0
M  V30 4038 H 368.497 7.54892 1.65403 0
M  V30 4039 H 366.842 6.78746 1.4943 0
M  V30 4040 H 370.033 4.50038 1.28777 0
M  V30 4041 H 370.206 6.29473 1.53842 0
M  V30 4042 N 363.613 -0.582584 1.46437 0
M  V30 4043 C 364.545 -1.70618 1.53043 0
M  V30 4044 C 365.558 -1.57322 0.418769 0
M  V30 4045 O 366.747 -1.64744 0.687136 0
M  V30 4046 C 363.847 -3.08869 1.39474 0
M  V30 4047 C 363.02 -3.48166 2.64762 0
M  V30 4048 C 362.079 -4.65478 2.4539 0
M  V30 4049 O 361.105 -4.71333 3.19114 0
M  V30 4050 N 362.307 -5.60365 1.51564 0
M  V30 4051 H 365.072 -1.65405 2.49923 0
M  V30 4052 H 362.633 -0.768567 1.42494 0
M  V30 4053 H 364.625 -3.85143 1.24287 0
M  V30 4054 H 363.195 -3.08449 0.507758 0
M  V30 4055 H 362.415 -2.61598 2.9489 0
M  V30 4056 H 363.703 -3.71188 3.4799 0
M  V30 4057 H 363.101 -5.5837 0.907705 0
M  V30 4058 H 361.658 -6.36068 1.4234 0
M  V30 4059 N 365.091 -1.34144 -0.827227 0
M  V30 4060 C 366.023 -1.21206 -1.9453 0
M  V30 4061 C 367.036 -0.140176 -1.62195 0
M  V30 4062 O 368.225 -0.391647 -1.7415 0
M  V30 4063 C 365.325 -0.839141 -3.28347 0
M  V30 4064 C 364.498 -2.0051 -3.88734 0
M  V30 4065 C 363.557 -1.61128 -5.00923 0
M  V30 4066 O 362.583 -2.32726 -5.19449 0
M  V30 4067 N 363.785 -0.522958 -5.7814 0
M  V30 4068 H 366.55 -2.17525 -2.06162 0
M  V30 4069 H 364.111 -1.27043 -1.00358 0
M  V30 4070 H 366.103 -0.557556 -4.00841 0
M  V30 4071 H 364.673 0.0337293 -3.12582 0
M  V30 4072 H 363.893 -2.45166 -3.08686 0
M  V30 4073 H 365.181 -2.78498 -4.25812 0
M  V30 4074 H 364.579 0.0723518 -5.65654 0
M  V30 4075 H 363.136 -0.301089 -6.51104 0
M  V30 4076 N 366.569 1.04691 -1.17803 0
M  V30 4077 C 367.818 1.77176 -0.963931 0
M  V30 4078 C 368.131 1.88888 0.508015 0
M  V30 4079 O 369.337 2.58164 0.840465 0
M  V30 4080 C 367.793 3.18518 -1.67555 0
M  V30 4081 C 367.401 3.14919 -3.18637 0
M  V30 4082 C 369.145 3.95424 -1.54402 0
M  V30 4083 C 367.052 4.51081 -3.82466 0
M  V30 4084 H 365.982 0.664116 -0.357023 0
M  V30 4085 H 368.633 1.17303 -1.4111 0
M  V30 4086 H 367.015 3.78748 -1.15613 0
M  V30 4087 H 368.189 2.64178 -3.77554 0
M  V30 4088 H 366.504 2.51512 -3.31859 0
M  V30 4089 H 369.101 4.96106 -1.99456 0
M  V30 4090 H 369.444 4.13343 -0.495329 0
M  V30 4091 H 369.977 3.41754 -2.0359 0
M  V30 4092 H 366.716 4.38368 -4.87354 0
M  V30 4093 H 366.236 5.01951 -3.28337 0
M  V30 4094 H 367.915 5.2001 -3.84965 0
M  V30 4095 N 368.047 0.979072 1.23499 0
M  V30 4096 C 369.01 0.523244 2.23147 0
M  V30 4097 C 370.01 -0.386406 1.56088 0
M  V30 4098 O 371.2 -0.180283 1.73265 0
M  V30 4099 C 368.332 -0.240739 3.40049 0
M  V30 4100 H 369.525 1.40432 2.64989 0
M  V30 4101 H 367.078 0.764824 1.36309 0
M  V30 4102 H 367.813 -1.13841 3.03662 0
M  V30 4103 H 367.598 0.412207 3.89927 0
M  V30 4104 H 369.088 -0.548297 4.13985 0
M  V30 4105 N 369.525 -1.3858 0.750561 0
M  V30 4106 C 370.765 -2.02032 0.310258 0
M  V30 4107 C 371.129 -1.58288 -1.08668 0
M  V30 4108 O 372.33 -2.14049 -1.62593 0
M  V30 4109 C 370.601 -3.54856 0.425647 0
M  V30 4110 S 372.16 -4.38748 0.0674797 0
M  V30 4111 H 368.978 -0.700705 0.120554 0
M  V30 4112 H 371.58 -1.69134 0.980512 0
M  V30 4113 H 370.284 -3.84182 1.44335 0
M  V30 4114 H 369.815 -3.92527 -0.261894 0
M  V30 4115 H 371.83 -4.82835 -1.14388 0
M  V30 4116 N 371.003 -0.499398 -1.49478 0
M  V30 4117 C 372.252 0.0475259 -2.01644 0
M  V30 4118 C 372.565 1.38195 -1.38425 0
M  V30 4119 O 373.771 2.01547 -1.8191 0
M  V30 4120 C 372.227 0.135164 -3.59646 0
M  V30 4121 C 371.835 -1.19252 -4.31837 0
M  V30 4122 C 373.579 0.632538 -4.19761 0
M  V30 4123 C 371.486 -1.06713 -5.81693 0
M  V30 4124 H 370.416 0.0215349 -0.753692 0
M  V30 4125 H 373.067 -0.638577 -1.7203 0
M  V30 4126 H 371.449 0.885681 -3.85969 0
M  V30 4127 H 372.623 -1.9562 -4.17216 0
M  V30 4128 H 370.938 -1.62321 -3.83459 0
M  V30 4129 H 373.535 0.743833 -5.29501 0
M  V30 4130 H 373.878 1.63098 -3.83021 0
M  V30 4131 H 374.411 -0.0613987 -3.97753 0
M  V30 4132 H 371.15 -2.03979 -6.22955 0
M  V30 4133 H 370.67 -0.344307 -5.98811 0
M  V30 4134 H 372.349 -0.745208 -6.42694 0
M  V30 4135 N 372.481 1.55866 -0.233164 0
M  V30 4136 C 373.729 1.9821 0.394593 0
M  V30 4137 C 374.05 1.12234 1.59463 0
M  V30 4138 O 373.32 0.201981 1.94856 0
M  V30 4139 H 371.9 0.732034 0.148778 0
M  V30 4140 H 374.562 1.92107 -0.32876 0
M  V30 4141 H 373.658 3.03845 0.713063 0
M  V30 4142 N 373.959 -0.0401083 1.57549 0
M  V30 4143 C 375.207 -0.731677 1.8839 0
M  V30 4144 C 375.528 -1.76481 0.829425 0
M  V30 4145 O 374.798 -1.95411 -0.1383 0
M  V30 4146 H 373.378 -0.273225 0.695239 0
M  V30 4147 H 376.04 -0.00867725 1.94898 0
M  V30 4148 H 375.136 -1.22816 2.86919 0
M  V30 4149 N 375.437 -1.54477 -0.31217 0
M  V30 4150 C 376.848 -1.64344 -0.885891 0
M  V30 4151 C 377.199 -0.54485 -1.88483 0
M  V30 4152 O 376.324 0.320387 -2.14015 0
M  V30 4153 C 376.919 -2.97908 -1.61357 0
M  V30 4154 C 375.478 -3.09933 -2.13585 0
M  V30 4155 C 374.625 -2.59971 -0.964897 0
M  V30 4156 H 377.576 -1.58448 -0.0894528 0
M  V30 4157 H 377.597 -2.88706 -2.47848 0
M  V30 4158 H 377.109 -3.77845 -0.886277 0
M  V30 4159 H 375.21 -2.34694 -2.89395 0
M  V30 4160 H 375.323 -4.15916 -2.37804 0
M  V30 4161 H 373.687 -2.16147 -1.34731 0
M  V30 4162 H 374.47 -3.42376 -0.251742 0
M  V30 4163 N 376.915 0.57481 -1.46744 0
M  V30 4164 C 378.326 1.15695 -1.46532 0
M  V30 4165 C 378.677 1.95068 -0.210425 0
M  V30 4166 O 377.802 2.05241 0.685944 0
M  V30 4167 C 378.397 2.1048 -2.65487 0
M  V30 4168 C 376.956 2.64002 -2.68291 0
M  V30 4169 C 376.103 1.40026 -2.39349 0
M  V30 4170 H 379.054 0.362325 -1.54509 0
M  V30 4171 H 379.075 2.94074 -2.41455 0
M  V30 4172 H 378.587 1.52683 -3.56805 0
M  V30 4173 H 376.688 3.25646 -1.81067 0
M  V30 4174 H 376.801 3.06197 -3.68483 0
M  V30 4175 H 375.165 1.70106 -1.89568 0
M  V30 4176 H 375.948 0.840485 -3.32852 0
M  V30 4177 N 378.394 1.34581 0.820102 0
M  V30 4178 C 379.342 1.26401 1.95258 0
M  V30 4179 C 380.336 0.161553 1.68628 0
M  V30 4180 O 381.542 0.326703 1.7701 0
M  V30 4181 H 377.917 0.392749 0.64129 0
M  V30 4182 H 379.888 2.22105 1.99279 0
M  V30 4183 C 378.637 1.03919 3.31807 0
M  V30 4184 H 377.96 1.87984 3.52848 0
M  V30 4185 H 379.4 1.02232 4.11491 0
M  V30 4186 C 377.859 -0.257433 3.35915 0
M  V30 4187 O 378.389 -1.25784 3.81499 0
M  V30 4188 N 376.595 -0.291524 2.89134 0
M  V30 4189 H 376.142 0.523161 2.52232 0
M  V30 4190 H 376.1 -1.15883 2.92264 0
M  V30 4191 N 379.872 -1.04064 1.18357 0
M  V30 4192 C 381.121 -1.76662 0.973313 0
M  V30 4193 C 381.434 -1.89154 -0.497991 0
M  V30 4194 O 382.64 -2.58606 -0.826762 0
M  V30 4195 C 381.096 -3.17624 1.69242 0
M  V30 4196 C 380.704 -3.13225 3.20303 0
M  V30 4197 C 382.448 -3.946 1.56497 0
M  V30 4198 C 380.355 -4.49046 3.84853 0
M  V30 4199 H 379.285 -0.662214 0.36054 0
M  V30 4200 H 381.936 -1.16553 1.41731 0
M  V30 4201 H 380.318 -3.78129 1.1762 0
M  V30 4202 H 381.492 -2.62172 3.78949 0
M  V30 4203 H 379.807 -2.49749 3.33189 0
M  V30 4204 H 382.404 -4.95042 2.02084 0
M  V30 4205 H 382.747 -4.13074 0.517243 0
M  V30 4206 H 383.28 -3.4067 2.05399 0
M  V30 4207 H 380.019 -4.35777 4.89672 0
M  V30 4208 H 379.539 -5.00203 3.30994 0
M  V30 4209 H 381.218 -5.17961 3.87718 0
M  V30 4210 N 381.35 -0.985608 -1.22978 0
M  V30 4211 C 382.59 -0.665487 -1.93263 0
M  V30 4212 C 382.954 0.78706 -1.75127 0
M  V30 4213 O 384.155 1.21826 -2.39608 0
M  V30 4214 C 382.426 -1.0515 -3.41582 0
M  V30 4215 S 383.985 -0.848637 -4.30516 0
M  V30 4216 H 380.803 -0.24355 -0.667985 0
M  V30 4217 H 383.405 -1.26635 -1.48942 0
M  V30 4218 H 382.109 -2.10517 -3.52293 0
M  V30 4219 H 381.64 -0.442134 -3.90908 0
M  V30 4220 H 383.655 0.264717 -4.95493 0
M  V30 4221 N 382.828 1.3818 -0.7579 0
M  V30 4222 C 383.758 2.33027 -0.148597 0
M  V30 4223 C 384.739 1.55085 0.69875 0
M  V30 4224 O 385.924 1.83384 0.639053 0
M  V30 4225 C 383.054 3.3928 0.742034 0
M  V30 4226 C 382.008 4.28 -0.00291946 0
M  V30 4227 C 381.334 5.25146 1.00625 0
M  V30 4228 C 382.634 5.08938 -1.17385 0
M  V30 4229 H 384.328 2.84231 -0.940909 0
M  V30 4230 H 381.874 1.36659 -0.453908 0
M  V30 4231 H 383.827 4.046 1.17799 0
M  V30 4232 H 382.551 2.86569 1.56671 0
M  V30 4233 H 381.21 3.64192 -0.419504 0
M  V30 4234 H 380.858 4.68721 1.8251 0
M  V30 4235 H 380.558 5.85361 0.512428 0
M  V30 4236 H 382.082 5.93342 1.44143 0
M  V30 4237 H 383.496 5.67474 -0.815224 0
M  V30 4238 H 381.893 5.7841 -1.59882 0
M  V30 4239 H 382.963 4.42424 -1.98468 0
M  V30 4240 N 384.306 0.507319 1.49211 0
M  V30 4241 C 385.583 -0.0982702 1.95353 0
M  V30 4242 C 385.963 -1.53516 1.449 0
M  V30 4243 O 385.311 -2.18594 0.66551 0
M  V30 4244 C 385.521 -0.00440283 3.49 0
M  V30 4245 C 386.869 -0.175147 4.24239 0
M  V30 4246 O 387.893 -0.0792891 3.56112 0
M  V30 4247 O 386.752 -0.37276 5.45227 0
M  V30 4248 H 383.846 -0.0918236 0.821887 0
M  V30 4249 H 386.392 0.570307 1.5983 0
M  V30 4250 H 385.164 0.997402 3.78375 0
M  V30 4251 H 384.787 -0.712845 3.91158 0
M  V30 4252 N 385.784 -1.5574 0.241426 0
M  V30 4253 C 387.2 -1.59196 -0.113548 0
M  V30 4254 C 387.4 -1.25852 -1.57364 0
M  V30 4255 O 386.456 -1.00322 -2.31715 0
M  V30 4256 C 387.769 -2.99814 0.230695 0
M  V30 4257 C 389.317 -3.12513 0.174547 0
M  V30 4258 C 389.792 -4.55342 0.492744 0
M  V30 4259 N 391.283 -4.61076 0.443043 0
M  V30 4260 C 392.018 -5.6956 0.662484 0
M  V30 4261 N 391.514 -6.86328 0.944761 0
M  V30 4262 N 393.307 -5.58957 0.593564 0
M  V30 4263 H 385.458 -1.75685 1.19368 0
M  V30 4264 H 387.721 -0.81756 0.479896 0
M  V30 4265 H 387.427 -3.28932 1.24485 0
M  V30 4266 H 387.301 -3.74568 -0.444833 0
M  V30 4267 H 389.688 -2.83179 -0.830277 0
M  V30 4268 H 389.769 -2.40045 0.883845 0
M  V30 4269 H 389.413 -4.85396 1.4951 0
M  V30 4270 H 389.343 -5.26062 -0.23797 0
M  V30 4271 H 391.834 -3.77179 0.233374 0
M  V30 4272 H 392.147 -7.64935 1.09977 0
M  V30 4273 H 390.492 -6.88025 0.982175 0
M  V30 4274 H 393.683 -4.66611 0.373123 0
M  V30 4275 H 393.856 -6.43433 0.767981 0
M  V30 4276 N 387.262 0.0317525 -1.57568 0
M  V30 4277 C 388.192 1.03274 -2.0942 0
M  V30 4278 C 389.173 1.3788 -0.996143 0
M  V30 4279 O 390.358 1.46811 -1.27122 0
M  V30 4280 C 387.488 2.33448 -2.57137 0
M  V30 4281 C 386.442 2.13091 -3.71182 0
M  V30 4282 C 385.768 3.49001 -4.05095 0
M  V30 4283 C 387.068 1.51928 -4.99715 0
M  V30 4284 H 388.762 0.60112 -2.93303 0
M  V30 4285 H 386.308 0.287705 -1.41097 0
M  V30 4286 H 388.261 3.03802 -2.92032 0
M  V30 4287 H 386.985 2.78665 -1.70333 0
M  V30 4288 H 385.644 1.45171 -3.36632 0
M  V30 4289 H 385.292 3.91862 -3.15362 0
M  V30 4290 H 384.992 3.36207 -4.81911 0
M  V30 4291 H 386.516 4.20721 -4.42522 0
M  V30 4292 H 387.93 2.12196 -5.32584 0
M  V30 4293 H 386.327 1.49716 -5.81124 0
M  V30 4294 H 387.397 0.484811 -4.8247 0
M  V30 4295 N 388.74 1.54641 0.303973 0
M  V30 4296 C 389.65 1.88439 1.39743 0
M  V30 4297 C 390.666 0.778239 1.55626 0
M  V30 4298 O 391.842 1.07442 1.70347 0
M  V30 4299 C 388.907 2.12212 2.74166 0
M  V30 4300 C 387.968 3.35936 2.67293 0
M  V30 4301 C 387.201 3.58566 3.95305 0
M  V30 4302 O 387.424 2.84263 4.9452 0
M  V30 4303 O 386.358 4.52078 3.97378 0
M  V30 4304 H 390.184 2.81458 1.14083 0
M  V30 4305 H 387.769 1.40793 0.499768 0
M  V30 4306 H 389.651 2.29067 3.53704 0
M  V30 4307 H 388.326 1.22379 2.99675 0
M  V30 4308 H 387.233 3.24448 1.86237 0
M  V30 4309 H 388.566 4.2589 2.46736 0
M  V30 4310 N 390.218 -0.567019 1.47046 0
M  V30 4311 C 391.166 -1.69593 1.59188 0
M  V30 4312 C 392.16 -1.63046 0.459609 0
M  V30 4313 O 393.366 -1.6835 0.637058 0
M  V30 4314 H 389.741 -0.560993 0.500791 0
M  V30 4315 H 391.712 -1.56488 2.54075 0
M  V30 4316 C 390.461 -3.07964 1.61411 0
M  V30 4317 H 389.784 -3.13679 2.47881 0
M  V30 4318 H 391.224 -3.86671 1.73958 0
M  V30 4319 C 389.683 -3.35123 0.34559 0
M  V30 4320 O 390.213 -3.97812 -0.557521 0
M  V30 4321 N 388.419 -2.89699 0.22864 0
M  V30 4322 H 387.966 -2.38863 0.964479 0
M  V30 4323 H 387.924 -3.08242 -0.619192 0
M  V30 4324 N 391.696 -1.35014 -0.812953 0
M  V30 4325 C 392.942 -1.29129 -1.57154 0
M  V30 4326 C 393.297 0.134922 -1.91926 0
M  V30 4327 O 392.59 1.08373 -1.58006 0
M  V30 4328 C 392.784 -2.12524 -2.87347 0
M  V30 4329 C 392.613 -3.6311 -2.65294 0
M  V30 4330 C 391.383 -4.32363 -2.61516 0
M  V30 4331 C 393.581 -4.56897 -2.36114 0
M  V30 4332 N 391.563 -5.68735 -2.31113 0
M  V30 4333 C 392.934 -5.81345 -2.15494 0
M  V30 4334 C 394.989 -4.45706 -2.21925 0
M  V30 4335 C 393.692 -6.95862 -1.82122 0
M  V30 4336 C 395.718 -5.60066 -1.89948 0
M  V30 4337 C 395.08 -6.83539 -1.7016 0
M  V30 4338 H 391.179 -0.527764 -0.577052 0
M  V30 4339 H 393.763 -1.6983 -0.952146 0
M  V30 4340 H 391.934 -1.74104 -3.47192 0
M  V30 4341 H 393.666 -1.98207 -3.5284 0
M  V30 4342 H 390.421 -3.84907 -2.75941 0
M  V30 4343 H 390.845 -6.40694 -2.18724 0
M  V30 4344 H 395.487 -3.50855 -2.35925 0
M  V30 4345 H 393.205 -7.90685 -1.6686 0
M  V30 4346 H 396.791 -5.53357 -1.79687 0
M  V30 4347 H 395.671 -7.70531 -1.45777 0
M  V30 4348 N 393.175 1.03435 -1.18907 0
M  V30 4349 C 394.424 1.76143 -0.982669 0
M  V30 4350 C 394.737 1.89416 0.487953 0
M  V30 4351 O 395.943 2.59041 0.813036 0
M  V30 4352 C 394.399 3.16722 -1.70924 0
M  V30 4353 C 394.007 3.11522 -3.21959 0
M  V30 4354 C 395.751 3.93764 -1.58588 0
M  V30 4355 C 393.658 4.46999 -3.87228 0
M  V30 4356 H 392.588 0.660292 -0.364047 0
M  V30 4357 H 395.239 1.158 -1.42347 0
M  V30 4358 H 393.621 3.775 -1.19623 0
M  V30 4359 H 394.795 2.60158 -3.80335 0
M  V30 4360 H 393.11 2.47978 -3.34508 0
M  V30 4361 H 395.707 4.93963 -2.04707 0
M  V30 4362 H 396.05 4.12794 -0.539142 0
M  V30 4363 H 396.583 3.39576 -2.07203 0
M  V30 4364 H 393.322 4.33174 -4.91976 0
M  V30 4365 H 392.842 4.98441 -3.33642 0
M  V30 4366 H 394.521 5.15898 -3.90459 0
M  V30 4367 N 394.653 0.992116 1.22453 0
M  V30 4368 C 395.881 0.685944 1.95198 0
M  V30 4369 C 396.296 -0.749233 1.73297 0
M  V30 4370 O 395.653 -1.50549 1.03156 0
M  V30 4371 C 395.704 0.981395 3.47924 0
M  V30 4372 O 395.425 2.36018 3.6909 0
M  V30 4373 C 396.926 0.692815 4.37853 0
M  V30 4374 H 394.146 0.253821 0.621141 0
M  V30 4375 H 396.69 1.32668 1.55626 0
M  V30 4376 H 394.845 0.386481 3.85467 0
M  V30 4377 H 395.259 2.45884 4.63294 0
M  V30 4378 H 396.733 0.949818 5.43767 0
M  V30 4379 H 397.21 -0.373181 4.37612 0
M  V30 4380 H 397.816 1.26874 4.05935 0
M  V30 4381 N 396.131 -1.37776 0.765217 0
M  V30 4382 C 397.356 -2.04651 0.336537 0
M  V30 4383 C 397.781 -1.57337 -1.03086 0
M  V30 4384 O 397.139 -0.730621 -1.65927 0
M  V30 4385 C 397.187 -3.58577 0.381468 0
M  V30 4386 O 396.291 -4.07706 -0.62042 0
M  V30 4387 H 395.632 -0.64756 0.146838 0
M  V30 4388 H 398.162 -1.76221 1.03959 0
M  V30 4389 H 398.172 -4.07314 0.236448 0
M  V30 4390 H 396.847 -3.9237 1.37907 0
M  V30 4391 H 395.424 -3.70306 -0.439056 0
M  V30 4392 N 397.609 -0.515225 -1.4894 0
M  V30 4393 C 398.539 0.244628 -2.32215 0
M  V30 4394 C 399.52 0.949136 -1.41157 0
M  V30 4395 O 400.705 0.937783 -1.70057 0
M  V30 4396 C 397.835 1.30096 -3.22013 0
M  V30 4397 C 396.789 0.715486 -4.21977 0
M  V30 4398 C 396.115 1.87339 -5.00808 0
M  V30 4399 C 397.415 -0.302982 -5.2142 0
M  V30 4400 H 399.109 -0.450501 -2.95991 0
M  V30 4401 H 396.655 -0.218098 -1.42339 0
M  V30 4402 H 398.608 1.84037 -3.79089 0
M  V30 4403 H 397.332 2.02547 -2.56207 0
M  V30 4404 H 395.991 0.197715 -3.66066 0
M  V30 4405 H 395.639 2.58592 -4.31438 0
M  V30 4406 H 395.339 1.48764 -5.68457 0
M  V30 4407 H 396.863 2.41686 -5.60732 0
M  V30 4408 H 398.277 0.148802 -5.73107 0
M  V30 4409 H 396.674 -0.60532 -5.97039 0
M  V30 4410 H 397.744 -1.21395 -4.69459 0
M  V30 4411 N 399.087 1.5561 -0.249682 0
M  V30 4412 C 400.05 2.20217 0.635394 0
M  V30 4413 C 401.05 1.17227 1.10066 0
M  V30 4414 O 402.24 1.42292 1.00492 0
M  V30 4415 C 399.372 2.84794 1.87363 0
M  V30 4416 H 400.565 2.99814 0.0716752 0
M  V30 4417 H 398.118 1.563 -0.000153234 0
M  V30 4418 H 398.853 2.09142 2.47851 0
M  V30 4419 H 398.638 3.60241 1.5482 0
M  V30 4420 H 400.128 3.3423 2.5036 0
M  V30 4421 N 400.565 -0.0233959 1.57583 0
M  V30 4422 C 401.475 -1.03907 2.10334 0
M  V30 4423 C 402.491 -1.39257 1.04323 0
M  V30 4424 O 403.667 -1.48462 1.36091 0
M  V30 4425 C 400.732 -2.31938 2.57693 0
M  V30 4426 C 399.793 -2.03117 3.78209 0
M  V30 4427 C 399.026 -3.25043 4.233 0
M  V30 4428 O 399.249 -4.35916 3.67876 0
M  V30 4429 O 398.183 -3.10411 5.15683 0
M  V30 4430 H 402.009 -0.620748 2.97288 0
M  V30 4431 H 399.594 -0.240743 1.47448 0
M  V30 4432 H 401.476 -3.07196 2.88458 0
M  V30 4433 H 400.151 -2.73055 1.73847 0
M  V30 4434 H 399.058 -1.25408 3.52454 0
M  V30 4435 H 400.391 -1.66852 4.63056 0
M  V30 4436 N 402.043 -1.548 -0.295768 0
M  V30 4437 C 403.268 -1.78653 -1.05346 0
M  V30 4438 C 403.693 -0.546894 -1.79974 0
M  V30 4439 O 403.051 0.502763 -1.7419 0
M  V30 4440 C 403.099 -2.99679 -2.00561 0
M  V30 4441 O 402.203 -2.7317 -3.08953 0
M  V30 4442 H 401.544 -0.59116 -0.302367 0
M  V30 4443 H 404.074 -2.01895 -0.331598 0
M  V30 4444 H 404.084 -3.27793 -2.42932 0
M  V30 4445 H 402.759 -3.89562 -1.4565 0
M  V30 4446 H 401.336 -2.56089 -2.71059 0
M  V30 4447 N 403.521 0.559213 -1.47345 0
M  V30 4448 C 404.453 1.68161 -1.55738 0
M  V30 4449 C 405.466 1.56636 -0.443744 0
M  V30 4450 O 406.655 1.6363 -0.713258 0
M  V30 4451 C 403.755 3.06611 -1.4437 0
M  V30 4452 C 402.928 3.4391 -2.70268 0
M  V30 4453 C 401.987 4.61515 -2.52765 0
M  V30 4454 O 401.013 4.66197 -3.26572 0
M  V30 4455 N 402.215 5.57883 -1.6046 0
M  V30 4456 H 404.98 1.61408 -2.52522 0
M  V30 4457 H 402.541 0.7458 -1.43699 0
M  V30 4458 H 404.533 3.83117 -1.30398 0
M  V30 4459 H 403.103 3.07602 -0.556766 0
M  V30 4460 H 402.323 2.56873 -2.99015 0
M  V30 4461 H 403.611 3.65605 -3.53851 0
M  V30 4462 H 403.009 5.56855 -0.996422 0
M  V30 4463 H 401.566 6.33723 -1.52441 0
M  V30 4464 N 404.999 1.35443 0.805782 0
M  V30 4465 C 405.929 1.31095 1.93226 0
M  V30 4466 C 406.91 0.185244 1.69088 0
M  V30 4467 O 408.095 0.380332 1.90439 0
M  V30 4468 C 405.225 1.08299 3.29983 0
M  V30 4469 C 404.179 2.17519 3.68605 0
M  V30 4470 C 403.505 1.79887 5.03532 0
M  V30 4471 C 404.805 3.5949 3.78898 0
M  V30 4472 H 406.499 2.25352 1.97122 0
M  V30 4473 H 404.045 1.0848 0.946996 0
M  V30 4474 H 405.998 1.03897 4.08391 0
M  V30 4475 H 404.722 0.104885 3.26432 0
M  V30 4476 H 403.381 2.2102 2.92482 0
M  V30 4477 H 403.029 0.80693 4.96485 0
M  V30 4478 H 402.729 2.53001 5.30344 0
M  V30 4479 H 404.253 1.77011 5.84379 0
M  V30 4480 H 405.667 3.58307 4.47536 0
M  V30 4481 H 404.064 4.31371 4.1718 0
M  V30 4482 H 405.134 3.95584 2.80431 0
M  V30 4483 N 406.477 -1.02803 1.19454 0
M  V30 4484 C 407.409 -2.11181 0.890807 0
M  V30 4485 C 408.422 -1.6238 -0.116829 0
M  V30 4486 O 409.611 -1.78144 0.112694 0
M  V30 4487 C 406.711 -3.37461 0.311942 0
M  V30 4488 C 405.884 -4.15446 1.36834 0
M  V30 4489 C 404.943 -5.20039 0.802864 0
M  V30 4490 O 403.969 -5.49602 1.48077 0
M  V30 4491 N 405.171 -5.79165 -0.393417 0
M  V30 4492 H 407.936 -2.37827 1.82369 0
M  V30 4493 H 405.497 -1.19101 1.09666 0
M  V30 4494 H 407.489 -4.0462 -0.0802225 0
M  V30 4495 H 406.059 -3.08156 -0.52524 0
M  V30 4496 H 405.279 -3.43423 1.93531 0
M  V30 4497 H 406.567 -4.64335 2.08015 0
M  V30 4498 H 405.965 -5.57466 -0.961658 0
M  V30 4499 H 404.522 -6.47729 -0.727351 0
M  V30 4500 N 407.956 -0.998596 -1.21925 0
M  V30 4501 C 409.184 -0.696286 -1.94832 0
M  V30 4502 C 409.599 0.740032 -1.73692 0
M  V30 4503 O 408.956 1.5 -1.03953 0
M  V30 4504 C 409.007 -0.999833 -3.47398 0
M  V30 4505 O 408.728 -2.37972 -3.67833 0
M  V30 4506 C 410.229 -0.716025 -4.37479 0
M  V30 4507 H 407.449 -0.257111 -0.619786 0
M  V30 4508 H 409.993 -1.33491 -1.54921 0
M  V30 4509 H 408.148 -0.406918 -3.85257 0
M  V30 4510 H 408.562 -2.48338 -4.61983 0
M  V30 4511 H 410.036 -0.978642 -5.43256 0
M  V30 4512 H 410.513 0.349968 -4.37803 0
M  V30 4513 H 411.119 -1.29025 -4.05256 0
M  V30 4514 N 409.434 1.37368 -0.772513 0
M  V30 4515 C 410.85 1.53059 -0.452231 0
M  V30 4516 C 411.05 1.73065 1.03203 0
M  V30 4517 O 410.106 1.75245 1.81784 0
M  V30 4518 C 411.419 2.72659 -1.26797 0
M  V30 4519 C 412.967 2.86521 -1.25995 0
M  V30 4520 C 413.442 4.09105 -2.05905 0
M  V30 4521 N 414.933 4.16219 -2.03263 0
M  V30 4522 C 415.668 5.10107 -2.61875 0
M  V30 4523 N 415.164 6.09547 -3.29278 0
M  V30 4524 N 416.957 5.02596 -2.51701 0
M  V30 4525 H 409.108 1.22634 -1.7342 0
M  V30 4526 H 411.371 0.597206 -0.736239 0
M  V30 4527 H 411.077 2.64343 -2.31982 0
M  V30 4528 H 410.951 3.66363 -0.897672 0
M  V30 4529 H 413.338 2.94308 -0.216081 0
M  V30 4530 H 413.419 1.93774 -1.66989 0
M  V30 4531 H 413.063 4.0208 -3.10313 0
M  V30 4532 H 412.993 5.00968 -1.62292 0
M  V30 4533 H 415.484 3.45012 -1.54192 0
M  V30 4534 H 415.797 6.77718 -3.71374 0
M  V30 4535 H 414.142 6.09824 -3.33377 0
M  V30 4536 H 417.333 4.23855 -1.98657 0
M  V30 4537 H 417.506 5.75582 -2.97673 0
M  V30 4538 N 410.912 0.523116 1.48665 0
M  V30 4539 C 411.844 -0.280421 2.27478 0
M  V30 4540 C 412.857 -0.910694 1.34945 0
M  V30 4541 O 414.046 -0.790295 1.60052 0
M  V30 4542 C 411.146 -1.41171 3.08097 0
M  V30 4543 C 410.319 -0.884642 4.28361 0
M  V30 4544 C 409.378 -1.89622 4.90846 0
M  V30 4545 O 408.404 -1.4559 5.50265 0
M  V30 4546 N 409.606 -3.22801 4.82472 0
M  V30 4547 H 412.371 0.395481 2.97079 0
M  V30 4548 H 409.932 0.357018 1.57915 0
M  V30 4549 H 411.924 -2.08645 3.4677 0
M  V30 4550 H 410.494 -1.99139 2.40961 0
M  V30 4551 H 409.714 -0.0341177 3.94185 0
M  V30 4552 H 411.002 -0.511268 5.06225 0
M  V30 4553 H 410.4 -3.61246 4.35336 0
M  V30 4554 H 408.957 -3.85927 5.25265 0
M  V30 4555 N 412.39 -1.55475 0.257931 0
M  V30 4556 C 413.322 -2.19192 -0.669881 0
M  V30 4557 C 414.335 -1.17148 -1.1305 0
M  V30 4558 O 415.524 -1.43959 -1.05537 0
M  V30 4559 C 412.624 -2.79016 -1.92363 0
M  V30 4560 C 411.797 -4.06586 -1.61265 0
M  V30 4561 C 410.856 -4.50622 -2.7171 0
M  V30 4562 O 409.882 -5.16765 -2.38627 0
M  V30 4563 N 411.084 -4.19325 -4.01431 0
M  V30 4564 H 413.849 -2.99441 -0.124635 0
M  V30 4565 H 411.41 -1.6171 0.0783311 0
M  V30 4566 H 413.402 -3.05427 -2.65511 0
M  V30 4567 H 411.972 -2.0286 -2.37837 0
M  V30 4568 H 411.192 -3.87646 -0.715811 0
M  V30 4569 H 412.48 -4.89737 -1.37967 0
M  V30 4570 H 411.878 -3.66247 -4.31138 0
M  V30 4571 H 410.435 -4.50547 -4.7101 0
M  V30 4572 N 413.868 0.0150385 -1.57593 0
M  V30 4573 C 415.117 0.702115 -1.89085 0
M  V30 4574 C 415.43 1.75764 -0.858277 0
M  V30 4575 O 416.636 2.49829 -1.0629 0
M  V30 4576 C 415.092 1.29992 -3.35604 0
M  V30 4577 C 414.7 0.280007 -4.47124 0
M  V30 4578 C 416.444 1.96606 -3.76227 0
M  V30 4579 C 414.351 0.886949 -5.84711 0
M  V30 4580 H 413.281 0.265997 -0.705522 0
M  V30 4581 H 415.932 -0.0430408 -1.8345 0
M  V30 4582 H 414.314 2.09525 -3.36029 0
M  V30 4583 H 415.488 -0.489631 -4.58191 0
M  V30 4584 H 413.803 -0.284835 -4.15425 0
M  V30 4585 H 416.4 2.42893 -4.76347 0
M  V30 4586 H 416.743 2.79024 -3.08952 0
M  V30 4587 H 417.276 1.23828 -3.78036 0
M  V30 4588 H 414.015 0.101876 -6.55421 0
M  V30 4589 H 413.535 1.6261 -5.77337 0
M  V30 4590 H 415.214 1.39011 -6.3189 0
M  V30 4591 N 415.346 1.54954 0.287554 0
M  V30 4592 C 416.293 1.86834 1.35505 0
M  V30 4593 C 417.263 0.718452 1.49758 0
M  V30 4594 O 418.448 0.968358 1.644 0
M  V30 4595 C 415.588 2.13303 2.71286 0
M  V30 4596 C 414.701 3.40883 2.65373 0
M  V30 4597 C 413.836 3.57125 3.93236 0
M  V30 4598 C 412.875 4.78449 3.81776 0
M  V30 4599 N 412.012 4.91426 5.01443 0
M  V30 4600 H 416.852 2.77889 1.07619 0
M  V30 4601 H 414.389 1.37593 0.520241 0
M  V30 4602 H 416.347 2.26646 3.50267 0
M  V30 4603 H 414.977 1.25499 2.97405 0
M  V30 4604 H 414.029 3.36088 1.78182 0
M  V30 4605 H 415.341 4.29993 2.52799 0
M  V30 4606 H 414.495 3.70207 4.80658 0
M  V30 4607 H 413.234 2.66173 4.0866 0
M  V30 4608 H 412.239 4.65386 2.92738 0
M  V30 4609 H 413.464 5.70822 3.67884 0
M  V30 4610 H 411.41 4.03401 5.17304 0
M  V30 4611 H 411.327 5.74559 4.91343 0
M  V30 4612 H 412.595 5.08879 5.90477 0
M  V30 4613 N 416.824 -0.551391 1.4764 0
M  V30 4614 C 417.771 -1.65796 1.60563 0
M  V30 4615 C 418.741 -1.59932 0.448428 0
M  V30 4616 O 419.926 -1.78679 0.669222 0
M  V30 4617 C 417.066 -3.04108 1.63133 0
M  V30 4618 C 416.179 -3.20365 2.89811 0
M  V30 4619 C 415.314 -4.49109 2.8368 0
M  V30 4620 C 414.353 -4.58819 4.05156 0
M  V30 4621 N 413.49 -5.78926 3.97227 0
M  V30 4622 H 418.33 -1.54088 2.5507 0
M  V30 4623 H 415.867 -0.75052 1.26513 0
M  V30 4624 H 417.825 -3.84207 1.62606 0
M  V30 4625 H 416.455 -3.14637 0.721341 0
M  V30 4626 H 415.507 -2.33659 3.00179 0
M  V30 4627 H 416.819 -3.23402 3.79753 0
M  V30 4628 H 415.973 -5.37475 2.81434 0
M  V30 4629 H 414.712 -4.4856 1.91431 0
M  V30 4630 H 413.717 -3.68864 4.077 0
M  V30 4631 H 414.942 -4.61124 4.98539 0
M  V30 4632 H 412.888 -5.79314 3.07785 0
M  V30 4633 H 412.805 -5.83367 4.80853 0
M  V30 4634 H 414.073 -6.69637 3.99007 0
M  V30 4635 N 418.302 -1.35869 -0.798587 0
M  V30 4636 C 419.232 -1.32118 -1.92528 0
M  V30 4637 C 420.213 -0.194209 -1.68988 0
M  V30 4638 O 421.398 -0.390426 -1.90235 0
M  V30 4639 C 418.528 -1.10047 -3.29404 0
M  V30 4640 C 417.482 -2.19471 -3.67446 0
M  V30 4641 C 416.808 -1.82555 -5.02571 0
M  V30 4642 C 418.108 -3.61495 -3.76987 0
M  V30 4643 H 419.802 -2.26394 -1.95924 0
M  V30 4644 H 417.348 -1.08981 -0.94123 0
M  V30 4645 H 419.301 -1.06061 -4.07835 0
M  V30 4646 H 418.025 -0.122195 -3.26371 0
M  V30 4647 H 416.684 -2.22568 -2.91306 0
M  V30 4648 H 416.332 -0.833249 -4.9605 0
M  V30 4649 H 416.032 -2.5581 -5.28995 0
M  V30 4650 H 417.556 -1.80108 -5.83432 0
M  V30 4651 H 418.97 -3.60676 -4.4563 0
M  V30 4652 H 417.367 -4.33577 -4.14887 0
M  V30 4653 H 418.437 -3.97065 -2.78329 0
M  V30 4654 N 419.78 1.02168 -1.19998 0
M  V30 4655 C 420.69 2.14069 -0.959774 0
M  V30 4656 C 421.706 1.73804 0.082655 0
M  V30 4657 O 422.882 2.01133 -0.103633 0
M  V30 4658 C 419.947 3.42936 -0.509459 0
M  V30 4659 C 419.008 3.97474 -1.62213 0
M  V30 4660 C 418.241 5.2019 -1.19321 0
M  V30 4661 O 418.464 5.70369 -0.0597726 0
M  V30 4662 O 417.398 5.67749 -1.99863 0
M  V30 4663 H 421.224 2.37199 -1.89658 0
M  V30 4664 H 418.809 1.12469 -0.983411 0
M  V30 4665 H 420.691 4.20551 -0.267322 0
M  V30 4666 H 419.366 3.21234 0.398821 0
M  V30 4667 H 418.273 3.21161 -1.9185 0
M  V30 4668 H 419.606 4.23555 -2.50723 0
M  V30 4669 N 421.258 1.00505 1.21394 0
M  V30 4670 C 422.168 0.574806 2.27449 0
M  V30 4671 C 423.184 -0.382206 1.6975 0
M  V30 4672 O 424.36 -0.246027 1.99892 0
M  V30 4673 C 421.425 -0.0917414 3.46579 0
M  V30 4674 C 420.486 0.909758 4.1955 0
M  V30 4675 C 419.719 0.274924 5.32991 0
M  V30 4676 O 419.942 -0.928254 5.62796 0
M  V30 4677 O 418.876 0.985877 5.93771 0
M  V30 4678 H 422.702 1.45744 2.66444 0
M  V30 4679 H 420.287 0.773923 1.27792 0
M  V30 4680 H 422.169 -0.464551 4.18832 0
M  V30 4681 H 420.844 -0.948755 3.09484 0
M  V30 4682 H 419.751 1.33372 3.49518 0
M  V30 4683 H 421.084 1.73636 4.60555 0
M  V30 4684 N 422.737 -1.36956 0.779787 0
M  V30 4685 C 423.667 -2.32761 0.185651 0
M  V30 4686 C 424.648 -1.56177 -0.673989 0
M  V30 4687 O 425.833 -1.84378 -0.609797 0
M  V30 4688 C 422.963 -3.40418 -0.687964 0
M  V30 4689 C 421.917 -4.27941 0.0710102 0
M  V30 4690 C 421.243 -5.26681 -0.922573 0
M  V30 4691 C 422.543 -5.07006 1.25467 0
M  V30 4692 H 424.237 -2.82698 0.986008 0
M  V30 4693 H 421.783 -1.3592 0.475592 0
M  V30 4694 H 423.736 -4.06423 -1.11348 0
M  V30 4695 H 422.46 -2.89025 -1.52093 0
M  V30 4696 H 421.119 -3.63478 0.47739 0
M  V30 4697 H 420.767 -4.71565 -1.7503 0
M  V30 4698 H 420.467 -5.86103 -0.419237 0
M  V30 4699 H 421.991 -5.9556 -1.34686 0
M  V30 4700 H 423.405 -5.66105 0.905401 0
M  V30 4701 H 421.802 -5.75793 1.69063 0
M  V30 4702 H 422.872 -4.3921 2.05481 0
M  V30 4703 N 424.215 -0.530993 -1.48385 0
M  V30 4704 C 425.147 0.268353 -2.27624 0
M  V30 4705 C 426.16 0.903525 -1.35426 0
M  V30 4706 O 427.349 0.781796 -1.60469 0
M  V30 4707 C 424.449 1.39535 -3.08842 0
M  V30 4708 C 423.622 0.861913 -4.28824 0
M  V30 4709 C 422.681 1.87016 -4.91845 0
M  V30 4710 O 421.707 1.4267 -5.5103 0
M  V30 4711 N 422.909 3.20238 -4.84178 0
M  V30 4712 H 425.674 -0.41123 -2.96865 0
M  V30 4713 H 423.235 -0.365387 -1.57723 0
M  V30 4714 H 425.227 2.06803 -3.47871 0
M  V30 4715 H 423.797 1.97859 -2.42014 0
M  V30 4716 H 423.017 0.0132126 -3.94198 0
M  V30 4717 H 424.305 0.484415 -5.06489 0
M  V30 4718 H 423.703 3.58932 -4.37246 0
M  V30 4719 H 422.26 3.83136 -5.27305 0
M  V30 4720 N 425.693 1.55336 -0.266172 0
M  V30 4721 C 426.625 2.19544 0.658247 0
M  V30 4722 C 427.638 1.17746 1.12427 0
M  V30 4723 O 428.827 1.44517 1.04772 0
M  V30 4724 C 425.927 2.80032 1.9088 0
M  V30 4725 C 425.1 4.07436 1.59106 0
M  V30 4726 C 424.159 4.52056 2.69317 0
M  V30 4727 O 423.185 5.18023 2.35883 0
M  V30 4728 N 424.387 4.21448 3.99201 0
M  V30 4729 H 427.152 2.99503 0.108754 0
M  V30 4730 H 424.713 1.61667 -0.0869059 0
M  V30 4731 H 426.705 3.06831 2.63888 0
M  V30 4732 H 425.275 2.04119 2.36758 0
M  V30 4733 H 424.495 3.88021 0.695243 0
M  V30 4734 H 425.783 4.90462 1.35367 0
M  V30 4735 H 425.181 3.68528 4.29189 0
M  V30 4736 H 423.738 4.53039 4.68614 0
M  V30 4737 N 427.171 -0.0066808 1.57599 0
M  V30 4738 C 428.118 -1.00024 2.08 0
M  V30 4739 C 429.088 -1.34549 0.973943 0
M  V30 4740 O 430.273 -1.44502 1.24595 0
M  V30 4741 C 427.413 -2.2891 2.58252 0
M  V30 4742 C 426.526 -2.00346 3.82734 0
M  V30 4743 C 425.661 -3.23265 4.21513 0
M  V30 4744 C 424.7 -2.90357 5.3885 0
M  V30 4745 N 423.837 -4.05793 5.72954 0
M  V30 4746 H 428.677 -0.563499 2.92624 0
M  V30 4747 H 426.214 -0.266592 1.44664 0
M  V30 4748 H 428.172 -3.04247 2.85464 0
M  V30 4749 H 426.802 -2.70265 1.76512 0
M  V30 4750 H 425.854 -1.15406 3.62471 0
M  V30 4751 H 427.166 -1.72086 4.68175 0
M  V30 4752 H 426.32 -4.06953 4.49971 0
M  V30 4753 H 425.059 -3.54657 3.34768 0
M  V30 4754 H 424.064 -2.05075 5.10122 0
M  V30 4755 H 425.289 -2.60219 6.27266 0
M  V30 4756 H 423.235 -4.37094 4.89167 0
M  V30 4757 H 423.152 -3.81034 6.52954 0
M  V30 4758 H 424.42 -4.90289 6.06001 0
M  V30 4759 N 428.649 -1.55105 -0.279332 0
M  V30 4760 C 429.895 -1.75672 -1.01327 0
M  V30 4761 C 430.228 -0.552739 -1.86168 0
M  V30 4762 O 429.503 0.449827 -1.89227 0
M  V30 4763 C 429.786 -3.05825 -1.90114 0
M  V30 4764 C 429.639 -4.36565 -1.08309 0
M  V30 4765 C 430.958 -3.31975 -2.8893 0
M  V30 4766 H 428.077 -0.639149 -0.366957 0
M  V30 4767 H 430.719 -1.87833 -0.286154 0
M  V30 4768 H 428.869 -2.95588 -2.52111 0
M  V30 4769 H 430.541 -4.58751 -0.484314 0
M  V30 4770 H 428.784 -4.32076 -0.386362 0
M  V30 4771 H 429.455 -5.23946 -1.73737 0
M  V30 4772 H 431.931 -3.41963 -2.37067 0
M  V30 4773 H 430.807 -4.2432 -3.48201 0
M  V30 4774 H 431.068 -2.51309 -3.63725 0
M  V30 4775 N 430.127 0.543554 -1.4793 0
M  V30 4776 C 431.352 1.32995 -1.59145 0
M  V30 4777 C 431.777 1.86472 -0.246956 0
M  V30 4778 O 431.135 1.63696 0.779324 0
M  V30 4779 C 431.183 2.46623 -2.63077 0
M  V30 4780 O 430.287 3.49261 -2.19295 0
M  V30 4781 H 429.628 0.394472 -0.534124 0
M  V30 4782 H 432.158 0.655489 -1.93816 0
M  V30 4783 H 432.168 2.93001 -2.83926 0
M  V30 4784 H 430.843 2.07059 -3.60693 0
M  V30 4785 H 429.42 3.09094 -2.08603 0
M  V30 4786 N 431.605 1.3629 0.791371 0
M  V30 4787 C 432.835 1.33368 1.57786 0
M  V30 4788 C 433.243 -0.0875188 1.88997 0
M  V30 4789 O 432.586 -1.05427 1.50435 0
M  V30 4790 C 432.648 2.08802 2.92646 0
M  V30 4791 C 432.312 3.57903 2.84174 0
M  V30 4792 C 433.309 4.52191 2.56553 0
M  V30 4793 C 430.994 4.00762 3.02812 0
M  V30 4794 C 432.988 5.87315 2.47669 0
M  V30 4795 C 430.675 5.35977 2.93551 0
M  V30 4796 C 431.673 6.29066 2.66017 0
M  V30 4797 O 431.361 7.61798 2.56746 0
M  V30 4798 H 431.093 0.459166 0.496128 0
M  V30 4799 H 433.647 1.79952 0.990269 0
M  V30 4800 H 431.877 1.56878 3.53449 0
M  V30 4801 H 433.566 1.98762 3.53904 0
M  V30 4802 H 434.332 4.20393 2.41858 0
M  V30 4803 H 430.211 3.2868 3.2325 0
M  V30 4804 H 433.755 6.59943 2.26099 0
M  V30 4805 H 429.652 5.67384 3.07808 0
M  V30 4806 H 430.42 7.71898 2.72242 0
M  V30 4807 N 433.083 -1.0153 1.20538 0
M  V30 4808 C 434.03 -2.10098 0.955383 0
M  V30 4809 C 435 -1.65702 -0.114878 0
M  V30 4810 O 436.185 -1.90776 0.0301118 0
M  V30 4811 C 433.325 -3.41236 0.514969 0
M  V30 4812 C 432.438 -3.99102 1.65353 0
M  V30 4813 C 431.573 -5.18306 1.16329 0
M  V30 4814 C 430.612 -5.68258 2.27485 0
M  V30 4815 N 429.749 -6.78722 1.7967 0
M  V30 4816 H 434.589 -2.30818 1.88486 0
M  V30 4817 H 432.126 -1.13189 0.939499 0
M  V30 4818 H 434.084 -4.16504 0.240935 0
M  V30 4819 H 432.714 -3.20585 -0.377512 0
M  V30 4820 H 431.766 -3.20918 2.04245 0
M  V30 4821 H 433.078 -4.32177 2.49047 0
M  V30 4822 H 432.232 -6.00782 0.845302 0
M  V30 4823 H 430.971 -4.86799 0.296254 0
M  V30 4824 H 429.976 -4.84385 2.60099 0
M  V30 4825 H 431.201 -6.01798 3.14667 0
M  V30 4826 H 429.147 -6.49042 0.95295 0
M  V30 4827 H 429.064 -7.10996 2.56944 0
M  V30 4828 H 430.332 -7.64759 1.50875 0
M  V30 4829 N 434.561 -1.01147 -1.20859 0
M  V30 4830 C 435.809 -0.696486 -1.89719 0
M  V30 4831 C 436.13 0.775788 -1.78904 0
M  V30 4832 O 435.4 1.55759 -1.18811 0
M  V30 4833 H 433.98 -0.254628 -0.702263 0
M  V30 4834 H 436.642 -1.28197 -1.46804 0
M  V30 4835 H 435.738 -0.975357 -2.96468 0
M  V30 4836 N 436.039 1.36541 -0.78704 0
M  V30 4837 C 437.316 1.9355 -0.282424 0
M  V30 4838 C 437.696 1.71919 1.22503 0
M  V30 4839 O 437.044 1.07677 2.01539 0
M  V30 4840 C 437.254 3.4246 -0.672462 0
M  V30 4841 C 438.602 4.19582 -0.650863 0
M  V30 4842 O 439.626 3.50889 -0.612789 0
M  V30 4843 O 438.485 5.42106 -0.691623 0
M  V30 4844 H 435.579 0.824091 -0.0693 0
M  V30 4845 H 438.125 1.45736 -0.869423 0
M  V30 4846 H 436.897 3.51851 -1.71221 0
M  V30 4847 H 436.52 3.97556 -0.0592211 0
M  V30 4848 N 437.518 0.538854 1.48102 0
M  V30 4849 C 438.929 0.100679 1.86428 0
M  V30 4850 C 439.28 -1.32447 1.44749 0
M  V30 4851 O 438.405 -1.99339 0.842199 0
M  V30 4852 C 439 0.175933 3.38343 0
M  V30 4853 C 437.559 -0.207098 3.7583 0
M  V30 4854 C 436.706 0.531741 2.72154 0
M  V30 4855 H 439.657 0.749614 1.3988 0
M  V30 4856 H 439.678 -0.610144 3.75576 0
M  V30 4857 H 439.19 1.21328 3.68648 0
M  V30 4858 H 437.291 -1.24626 3.5114 0
M  V30 4859 H 437.404 0.138687 4.78899 0
M  V30 4860 H 435.768 -0.0230462 2.5469 0
M  V30 4861 H 436.551 1.56989 3.05302 0
M  V30 4862 N 438.996 -1.55193 0.274407 0
M  V30 4863 C 440.245 -1.98758 -0.343213 0
M  V30 4864 C 440.558 -1.16624 -1.5703 0
M  V30 4865 O 441.764 -1.5033 -2.26082 0
M  V30 4866 C 440.22 -3.53759 -0.661996 0
M  V30 4867 C 439.828 -4.4467 0.54524 0
M  V30 4868 C 441.572 -4.05916 -1.24228 0
M  V30 4869 C 439.479 -5.91058 0.201084 0
M  V30 4870 H 438.409 -0.742353 -0.132014 0
M  V30 4871 H 441.06 -1.79545 0.378948 0
M  V30 4872 H 439.442 -3.68772 -1.44304 0
M  V30 4873 H 440.616 -4.41426 1.32212 0
M  V30 4874 H 438.931 -4.03143 1.04232 0
M  V30 4875 H 441.528 -5.12831 -1.51357 0
M  V30 4876 H 441.871 -3.54908 -2.17592 0
M  V30 4877 H 442.404 -3.9434 -0.523542 0
M  V30 4878 H 439.143 -6.46161 1.10258 0
M  V30 4879 H 438.663 -5.97373 -0.539045 0
M  V30 4880 H 440.342 -6.46669 -0.206954 0
M  V30 4881 N 440.474 -0.00167713 -1.576 0
M  V30 4882 C 441.72 0.683832 -1.90923 0
M  V30 4883 C 442.053 1.7333 -0.875799 0
M  V30 4884 O 441.328 1.94215 0.10525 0
M  V30 4885 C 441.611 1.32543 -3.3482 0
M  V30 4886 C 441.464 0.287387 -4.48881 0
M  V30 4887 C 442.783 2.25114 -3.78169 0
M  V30 4888 H 439.902 0.247125 -0.694333 0
M  V30 4889 H 442.544 -0.0533149 -1.89925 0
M  V30 4890 H 440.694 1.95372 -3.35801 0
M  V30 4891 H 442.366 -0.341346 -4.60035 0
M  V30 4892 H 440.609 -0.39017 -4.32042 0
M  V30 4893 H 441.28 0.775393 -5.46527 0
M  V30 4894 H 443.756 1.723 -3.7875 0
M  V30 4895 H 442.632 2.66971 -4.79602 0
M  V30 4896 H 442.893 3.13092 -3.12131 0
M  V30 4897 N 441.952 1.55251 0.271103 0
M  V30 4898 C 442.884 1.84675 1.35749 0
M  V30 4899 C 443.897 0.731366 1.45447 0
M  V30 4900 O 445.086 1.00924 1.4723 0
M  V30 4901 C 442.186 1.99638 2.73857 0
M  V30 4902 C 441.359 3.30312 2.86727 0
M  V30 4903 C 440.418 3.35318 4.05522 0
M  V30 4904 O 439.444 4.08682 3.96191 0
M  V30 4905 N 440.646 2.62857 5.17577 0
M  V30 4906 H 443.411 2.78445 1.10853 0
M  V30 4907 H 440.972 1.55191 0.461218 0
M  V30 4908 H 442.964 2.00355 3.51625 0
M  V30 4909 H 441.534 1.12725 2.91568 0
M  V30 4910 H 440.754 3.42118 1.95829 0
M  V30 4911 H 442.042 4.16488 2.92258 0
M  V30 4912 H 441.44 2.02939 5.28046 0
M  V30 4913 H 439.997 2.69295 5.93568 0
M  V30 4914 N 443.43 -0.535701 1.48216 0
M  V30 4915 C 444.38 -1.63688 1.58714 0
M  V30 4916 C 445.364 -1.54635 0.444615 0
M  V30 4917 O 446.556 -1.62753 0.695742 0
M  V30 4918 C 443.685 -3.02423 1.62466 0
M  V30 4919 C 442.771 -3.16601 2.82178 0
M  V30 4920 N 443.162 -3.00771 4.06658 0
M  V30 4921 C 441.46 -3.47645 2.79391 0
M  V30 4922 C 442.161 -3.18213 4.86945 0
M  V30 4923 N 441.137 -3.45528 4.19656 0
M  V30 4924 H 444.939 -1.5005 2.5271 0
M  V30 4925 H 442.453 -0.741018 1.44508 0
M  V30 4926 H 444.45 -3.81517 1.6808 0
M  V30 4927 H 443.11 -3.17157 0.695826 0
M  V30 4928 H 444.121 -2.77652 4.37184 0
M  V30 4929 H 440.798 -3.68771 1.95739 0
M  V30 4930 H 442.188 -3.1076 5.95716 0
M  V30 4931 N 444.908 -1.36708 -0.784132 0
M  V30 4932 C 446.324 -1.17237 -1.08294 0
M  V30 4933 C 446.524 -5.93947e-05 -2.015 0
M  V30 4934 O 445.58 0.663686 -2.43622 0
M  V30 4935 C 446.893 -2.48557 -1.69233 0
M  V30 4936 C 448.441 -2.54968 -1.8155 0
M  V30 4937 C 448.916 -3.86388 -2.45904 0
M  V30 4938 N 450.407 -3.87762 -2.53367 0
M  V30 4939 C 451.142 -4.86191 -3.03983 0
M  V30 4940 N 450.638 -5.95015 -3.54866 0
M  V30 4941 N 452.431 -4.73606 -3.02743 0
M  V30 4942 H 444.582 -2.11758 -0.16501 0
M  V30 4943 H 446.845 -0.93822 -0.135822 0
M  V30 4944 H 446.551 -3.34638 -1.08215 0
M  V30 4945 H 446.425 -2.64748 -2.68679 0
M  V30 4946 H 448.812 -1.69302 -2.41704 0
M  V30 4947 H 448.893 -2.42672 -0.80895 0
M  V30 4948 H 448.537 -4.72462 -1.86392 0
M  V30 4949 H 448.467 -3.95982 -3.4714 0
M  V30 4950 H 450.958 -3.09145 -2.17343 0
M  V30 4951 H 451.271 -6.66086 -3.91854 0
M  V30 4952 H 449.616 -5.98676 -3.53003 0
M  V30 4953 H 452.807 -3.87717 -2.62284 0
M  V30 4954 H 452.98 -5.50473 -3.41881 0
M  V30 4955 N 446.386 1.0089 -1.21074 0
M  V30 4956 C 447.797 1.56056 -1.02486 0
M  V30 4957 C 448.148 1.91728 0.416506 0
M  V30 4958 O 447.273 1.73066 1.29912 0
M  V30 4959 C 447.868 2.83563 -1.85411 0
M  V30 4960 C 446.427 3.3523 -1.71166 0
M  V30 4961 C 445.574 2.0846 -1.82865 0
M  V30 4962 H 448.525 0.831818 -1.35154 0
M  V30 4963 H 448.546 3.55286 -1.36205 0
M  V30 4964 H 448.058 2.57569 -2.9031 0
M  V30 4965 H 446.159 3.66167 -0.689361 0
M  V30 4966 H 446.272 4.06913 -2.52901 0
M  V30 4967 H 444.636 2.21275 -1.26132 0
M  V30 4968 H 445.419 1.84883 -2.89263 0
M  V30 4969 N 447.864 1.01787 1.20321 0
M  V30 4970 C 448.797 0.533882 2.21867 0
M  V30 4971 C 449.775 -0.419361 1.57099 0
M  V30 4972 O 450.959 -0.339062 1.85426 0
M  V30 4973 C 448.086 -0.222899 3.37966 0
M  V30 4974 C 447.132 0.680091 4.21043 0
M  V30 4975 S 447.965 2.14997 4.90445 0
M  V30 4976 C 449.121 1.40339 6.09964 0
M  V30 4977 H 449.354 1.39429 2.62577 0
M  V30 4978 H 446.887 0.826867 1.30393 0
M  V30 4979 H 448.845 -0.653425 4.05266 0
M  V30 4980 H 447.506 -1.0589 2.95713 0
M  V30 4981 H 446.699 0.0964704 5.03908 0
M  V30 4982 H 446.301 1.04845 3.59004 0
M  V30 4983 H 448.593 0.68407 6.74038 0
M  V30 4984 H 449.536 2.20823 6.72787 0
M  V30 4985 H 449.944 0.905716 5.57187 0
M  V30 4986 N 449.342 -1.36122 0.79427 0
M  V30 4987 C 450.272 -2.32551 0.210328 0
M  V30 4988 C 451.253 -1.56884 -0.657386 0
M  V30 4989 O 452.438 -1.85014 -0.590207 0
M  V30 4990 C 449.568 -3.41128 -0.651819 0
M  V30 4991 C 448.522 -4.27842 0.116395 0
M  V30 4992 C 447.848 -5.2763 -0.86666 0
M  V30 4993 C 449.148 -5.05647 1.30837 0
M  V30 4994 H 450.842 -2.81636 1.01594 0
M  V30 4995 H 448.388 -1.35407 0.489981 0
M  V30 4996 H 450.341 -4.07581 -1.07031 0
M  V30 4997 H 449.065 -2.90622 -1.49019 0
M  V30 4998 H 447.724 -3.62952 0.515915 0
M  V30 4999 H 447.372 -4.73395 -1.70019 0
M  V30 5000 H 447.072 -5.86514 -0.35705 0
M  V30 5001 H 448.596 -5.96955 -1.28361 0
M  V30 5002 H 450.01 -5.65113 0.965393 0
M  V30 5003 H 448.407 -5.73967 1.75161 0
M  V30 5004 H 449.477 -4.37006 2.10128 0
M  V30 5005 N 450.82 -0.546701 -1.47814 0
M  V30 5006 C 451.73 0.21026 -2.33656 0
M  V30 5007 C 452.746 0.922413 -1.47538 0
M  V30 5008 O 453.922 0.893652 -1.80488 0
M  V30 5009 C 450.987 1.23348 -3.24016 0
M  V30 5010 C 450.048 0.529883 -4.26017 0
M  V30 5011 C 449.281 1.50435 -5.12059 0
M  V30 5012 O 449.504 2.73837 -5.00369 0
M  V30 5013 O 448.438 1.03459 -5.92942 0
M  V30 5014 H 452.264 -0.493605 -2.99662 0
M  V30 5015 H 449.849 -0.307427 -1.46203 0
M  V30 5016 H 451.731 1.82438 -3.79861 0
M  V30 5017 H 450.406 1.91945 -2.60651 0
M  V30 5018 H 449.313 -0.101948 -3.73961 0
M  V30 5019 H 450.646 -0.11445 -4.92067 0
M  V30 5020 N 452.299 1.55045 -0.282633 0
M  V30 5021 C 453.209 2.26491 0.61147 0
M  V30 5022 C 454.225 1.29348 1.16384 0
M  V30 5023 O 455.401 1.62298 1.19253 0
M  V30 5024 C 452.466 2.97779 1.77563 0
M  V30 5025 C 451.527 4.10418 1.25919 0
M  V30 5026 C 450.76 4.78297 2.36786 0
M  V30 5027 O 450.983 4.45426 3.56303 0
M  V30 5028 O 449.917 5.66089 2.04517 0
M  V30 5029 H 453.743 3.03683 0.0324615 0
M  V30 5030 H 451.328 1.49317 -0.0497576 0
M  V30 5031 H 453.21 3.42554 2.45427 0
M  V30 5032 H 451.885 2.23498 2.34159 0
M  V30 5033 H 450.792 3.70082 0.546797 0
M  V30 5034 H 452.125 4.86622 0.738887 0
M  V30 5035 N 453.777 0.010035 1.57597 0
M  V30 5036 C 455.193 -0.346164 1.55801 0
M  V30 5037 C 455.393 -1.74144 1.01371 0
M  V30 5038 O 454.449 -2.43938 0.651968 0
M  V30 5039 C 455.762 -0.212216 2.9995 0
M  V30 5040 C 457.31 -0.286409 3.11687 0
M  V30 5041 C 457.785 -0.18147 4.5764 0
M  V30 5042 N 459.276 -0.239056 4.62583 0
M  V30 5043 C 460.011 -0.181351 5.73113 0
M  V30 5044 N 459.507 -0.073661 6.92761 0
M  V30 5045 N 461.3 -0.233949 5.61613 0
M  V30 5046 H 453.451 0.922657 1.91313 0
M  V30 5047 H 455.714 0.354595 0.879185 0
M  V30 5048 H 455.42 0.748169 3.4365 0
M  V30 5049 H 455.294 -0.990224 3.6397 0
M  V30 5050 H 457.681 -1.23724 2.67911 0
M  V30 5051 H 457.762 0.521645 2.50425 0
M  V30 5052 H 457.406 0.765863 5.02093 0
M  V30 5053 H 457.336 -1.00814 5.1686 0
M  V30 5054 H 459.827 -0.32321 3.76515 0
M  V30 5055 H 460.14 -0.0358003 7.72792 0
M  V30 5056 H 458.485 -0.0391461 6.94989 0
M  V30 5057 H 461.676 -0.316347 4.6703 0
M  V30 5058 H 461.849 -0.185514 6.47734 0
M  V30 5059 N 455.255 -1.55392 -0.262866 0
M  V30 5060 C 456.504 -1.75679 -0.990943 0
M  V30 5061 C 456.817 -0.57097 -1.87081 0
M  V30 5062 O 458.023 -0.656486 -2.63444 0
M  V30 5063 C 456.479 -3.10964 -1.81188 0
M  V30 5064 C 456.087 -4.37146 -0.980188 0
M  V30 5065 C 457.831 -3.40597 -2.53365 0
M  V30 5066 C 455.738 -5.63466 -1.7961 0
M  V30 5067 H 454.668 -0.654868 -0.373716 0
M  V30 5068 H 457.319 -1.81841 -0.246203 0
M  V30 5069 H 455.701 -2.98867 -2.59797 0
M  V30 5070 H 456.875 -4.60187 -0.237558 0
M  V30 5071 H 455.19 -4.14731 -0.372497 0
M  V30 5072 H 457.787 -4.32186 -3.14833 0
M  V30 5073 H 458.13 -2.6119 -3.24169 0
M  V30 5074 H 458.663 -3.53838 -1.81779 0
M  V30 5075 H 455.402 -6.4565 -1.13209 0
M  V30 5076 H 454.922 -5.44552 -2.51443 0
M  V30 5077 H 456.601 -6.02139 -2.36723 0
M  V30 5078 N 456.733 0.527833 -1.48498 0
M  V30 5079 C 457.979 1.28545 -1.56857 0
M  V30 5080 C 458.312 1.92678 -0.242651 0
M  V30 5081 O 457.587 1.79394 0.751545 0
M  V30 5082 C 457.87 2.37314 -2.70839 0
M  V30 5083 C 457.723 1.77858 -4.13142 0
M  V30 5084 C 459.042 3.39068 -2.80573 0
M  V30 5085 H 456.161 0.466006 -0.570971 0
M  V30 5086 H 458.803 0.587784 -1.8068 0
M  V30 5087 H 456.953 2.96821 -2.50658 0
M  V30 5088 H 458.625 1.22385 -4.44769 0
M  V30 5089 H 456.868 1.08383 -4.20042 0
M  V30 5090 H 457.539 2.56624 -4.88721 0
M  V30 5091 H 460.015 2.89518 -2.98862 0
M  V30 5092 H 458.891 4.12566 -3.6205 0
M  V30 5093 H 459.152 3.9975 -1.88818 0
M  V30 5094 N 458.211 1.37122 0.776871 0
M  V30 5095 C 459.121 1.34651 1.9211 0
M  V30 5096 C 460.137 0.246824 1.7224 0
M  V30 5097 O 461.313 0.48134 1.95563 0
M  V30 5098 C 458.378 1.14748 3.2716 0
M  V30 5099 C 457.439 2.34308 3.5972 0
M  V30 5100 C 456.672 2.15345 4.88326 0
M  V30 5101 O 456.895 1.13507 5.58992 0
M  V30 5102 O 455.829 3.03414 5.1983 0
M  V30 5103 H 459.655 2.31013 1.97146 0
M  V30 5104 H 457.24 1.17799 0.918901 0
M  V30 5105 H 459.122 1.05616 4.0795 0
M  V30 5106 H 457.797 0.214562 3.22988 0
M  V30 5107 H 456.704 2.49011 2.79185 0
M  V30 5108 H 458.037 3.26149 3.68629 0
M  V30 5109 N 459.689 -1.00246 1.21608 0
M  V30 5110 C 460.619 -2.10921 1.00172 0
M  V30 5111 C 461.6 -1.69938 -0.0741587 0
M  V30 5112 O 462.785 -1.94009 0.0861753 0
M  V30 5113 C 459.915 -3.42618 0.568355 0
M  V30 5114 C 458.869 -3.97407 1.58909 0
M  V30 5115 C 458.195 -5.25038 1.01187 0
M  V30 5116 C 459.495 -4.2918 2.97661 0
M  V30 5117 H 461.189 -2.29112 1.92739 0
M  V30 5118 H 458.735 -1.10101 0.928102 0
M  V30 5119 H 460.688 -4.19444 0.405555 0
M  V30 5120 H 459.412 -3.24227 -0.392961 0
M  V30 5121 H 458.071 -3.22703 1.73949 0
M  V30 5122 H 457.719 -5.02982 0.0421965 0
M  V30 5123 H 457.419 -5.62661 1.6937 0
M  V30 5124 H 458.943 -6.04507 0.860448 0
M  V30 5125 H 460.357 -4.96839 2.86049 0
M  V30 5126 H 458.754 -4.77952 3.6288 0
M  V30 5127 H 459.824 -3.3735 3.48315 0
M  V30 5128 N 461.167 -1.02423 -1.1978 0
M  V30 5129 C 462.414 -0.717988 -1.89344 0
M  V30 5130 C 462.742 0.753036 -1.79331 0
M  V30 5131 O 461.997 1.56355 -1.17692 0
M  V30 5132 C 462.296 -1.1088 -3.39765 0
M  V30 5133 C 461.962 -2.57731 -3.6998 0
M  V30 5134 C 460.624 -2.97854 -3.77937 0
M  V30 5135 C 462.976 -3.52763 -3.83677 0
M  V30 5136 C 460.304 -4.31931 -3.97054 0
M  V30 5137 C 462.656 -4.86538 -4.04306 0
M  V30 5138 C 461.32 -5.26356 -4.10494 0
M  V30 5139 H 460.59 -0.26273 -0.692859 0
M  V30 5140 H 463.237 -1.28623 -1.41875 0
M  V30 5141 H 461.542 -0.459094 -3.89101 0
M  V30 5142 H 463.239 -0.849432 -3.919 0
M  V30 5143 H 459.829 -2.25646 -3.64393 0
M  V30 5144 H 464.013 -3.2292 -3.76877 0
M  V30 5145 H 459.269 -4.62324 -4.00083 0
M  V30 5146 H 463.443 -5.60093 -4.13846 0
M  V30 5147 H 461.07 -6.3026 -4.2506 0
M  V30 5148 N 462.645 1.35699 -0.801477 0
M  V30 5149 C 464.061 1.52065 -0.484596 0
M  V30 5150 C 464.261 1.75215 0.995084 0
M  V30 5151 O 463.317 1.79061 1.78026 0
M  V30 5152 C 464.63 2.69908 -1.32552 0
M  V30 5153 C 466.178 2.83784 -1.32044 0
M  V30 5154 C 466.653 4.04646 -2.14536 0
M  V30 5155 N 468.144 4.11814 -2.12046 0
M  V30 5156 C 468.879 5.04437 -2.72636 0
M  V30 5157 N 468.375 6.02426 -3.42133 0
M  V30 5158 N 470.168 4.97144 -2.62305 0
M  V30 5159 H 462.319 1.18928 -1.75983 0
M  V30 5160 H 464.582 0.581455 -0.748741 0
M  V30 5161 H 464.288 2.59363 -2.37537 0
M  V30 5162 H 464.162 3.64376 -0.975181 0
M  V30 5163 H 466.549 2.93783 -0.27846 0
M  V30 5164 H 466.63 1.90188 -1.71062 0
M  V30 5165 H 466.274 3.95407 -3.18772 0
M  V30 5166 H 466.204 4.97413 -1.72882 0
M  V30 5167 H 468.695 3.41664 -1.61476 0
M  V30 5168 H 469.008 6.69688 -3.85666 0
M  V30 5169 H 467.353 6.02615 -3.46237 0
M  V30 5170 H 470.544 4.19546 -2.07603 0
M  V30 5171 H 470.717 5.69138 -3.09815 0
M  V30 5172 N 464.123 0.554532 1.47522 0
M  V30 5173 C 465.071 -0.207765 2.3167 0
M  V30 5174 C 466.065 -0.911914 1.4276 0
M  V30 5175 O 467.271 -0.833504 1.59539 0
M  V30 5176 H 463.646 -0.0858726 0.747081 0
M  V30 5177 H 465.617 0.521178 2.93813 0
M  V30 5178 C 464.366 -1.2263 3.25357 0
M  V30 5179 H 463.689 -0.693887 3.93732 0
M  V30 5180 H 465.129 -1.73062 3.87073 0
M  V30 5181 C 463.588 -2.27278 2.4869 0
M  V30 5182 O 464.118 -3.34156 2.22941 0
M  V30 5183 N 462.324 -2.01134 2.09746 0
M  V30 5184 H 461.871 -1.14232 2.30887 0
M  V30 5185 H 461.829 -2.71369 1.58765 0
M  V30 5186 N 465.601 -1.54893 0.290851 0
M  V30 5187 C 466.531 -2.26103 -0.583084 0
M  V30 5188 C 467.512 -1.25684 -1.14619 0
M  V30 5189 O 468.697 -1.54436 -1.17741 0
M  V30 5190 C 465.827 -2.99409 -1.75987 0
M  V30 5191 C 464.781 -4.0689 -1.32758 0
M  V30 5192 C 464.107 -4.67856 -2.58872 0
M  V30 5193 C 465.407 -5.20215 -0.46624 0
M  V30 5194 H 467.101 -2.99398 0.0108214 0
M  V30 5195 H 464.647 -1.43998 0.00664468 0
M  V30 5196 H 466.6 -3.47943 -2.37727 0
M  V30 5197 H 465.324 -2.23675 -2.37985 0
M  V30 5198 H 463.983 -3.59191 -0.733299 0
M  V30 5199 H 463.631 -3.88772 -3.19163 0
M  V30 5200 H 463.331 -5.40438 -2.30653 0
M  V30 5201 H 464.855 -5.19147 -3.21433 0
M  V30 5202 H 466.269 -5.64704 -0.989047 0
M  V30 5203 H 464.666 -5.99455 -0.27826 0
M  V30 5204 H 465.736 -4.82198 0.511173 0
M  V30 5205 N 467.08 -0.0183926 -1.57589 0
M  V30 5206 C 468.013 1.00148 -2.0505 0
M  V30 5207 C 468.991 1.32387 -0.944058 0
M  V30 5208 O 470.175 1.44237 -1.21358 0
M  V30 5209 C 467.302 2.32435 -2.46357 0
M  V30 5210 C 466.348 2.15731 -3.67916 0
M  V30 5211 S 467.181 1.46613 -5.15039 0
M  V30 5212 C 468.337 2.80293 -5.59631 0
M  V30 5213 H 468.57 0.597429 -2.91235 0
M  V30 5214 H 466.103 0.193002 -1.53189 0
M  V30 5215 H 468.061 3.0849 -2.70822 0
M  V30 5216 H 466.722 2.69975 -1.60537 0
M  V30 5217 H 465.915 3.13502 -3.9463 0
M  V30 5218 H 465.517 1.4782 -3.43548 0
M  V30 5219 H 467.809 3.76557 -5.63215 0
M  V30 5220 H 468.752 2.58256 -6.59325 0
M  V30 5221 H 469.16 2.85047 -4.87246 0
M  V30 5222 N 468.558 1.5553 0.254621 0
M  V30 5223 C 469.505 1.89666 1.31512 0
M  V30 5224 C 470.475 0.750057 1.482 0
M  V30 5225 O 471.66 1.00301 1.62309 0
M  V30 5226 C 468.8 2.19009 2.667 0
M  V30 5227 C 467.913 3.46435 2.58083 0
M  V30 5228 C 467.048 3.65386 3.85573 0
M  V30 5229 C 466.087 4.8644 3.71541 0
M  V30 5230 N 465.224 5.01952 4.90906 0
M  V30 5231 H 470.064 2.80109 1.017 0
M  V30 5232 H 467.601 1.38666 0.490938 0
M  V30 5233 H 469.559 2.34025 3.45381 0
M  V30 5234 H 468.189 1.31779 2.94676 0
M  V30 5235 H 467.241 3.39792 1.71013 0
M  V30 5236 H 468.553 4.35258 2.43622 0
M  V30 5237 H 467.707 3.80319 4.72697 0
M  V30 5238 H 466.446 2.74781 4.02922 0
M  V30 5239 H 465.451 4.71491 2.82801 0
M  V30 5240 H 466.676 5.78497 3.55694 0
M  V30 5241 H 464.622 4.14283 5.08631 0
M  V30 5242 H 464.539 5.84851 4.79046 0
M  V30 5243 H 465.807 5.21289 5.7955 0
M  V30 5244 N 470.036 -0.519951 1.48776 0
M  V30 5245 C 471.261 -1.30447 1.6124 0
M  V30 5246 C 471.686 -1.86055 0.276591 0
M  V30 5247 O 471.044 -1.64915 -0.753183 0
M  V30 5248 C 471.092 -2.42406 2.66967 0
M  V30 5249 O 470.196 -3.45728 2.24824 0
M  V30 5250 H 469.537 -0.385924 0.540332 0
M  V30 5251 H 472.067 -0.624572 1.94834 0
M  V30 5252 H 472.077 -2.88447 2.88552 0
M  V30 5253 H 470.752 -2.01294 3.63941 0
M  V30 5254 H 469.329 -3.05737 2.13494 0
M  V30 5255 N 471.514 -1.37532 -0.769588 0
M  V30 5256 C 472.477 -1.33292 -1.86456 0
M  V30 5257 C 473.477 -0.236537 -1.59051 0
M  V30 5258 O 474.667 -0.492511 -1.67093 0
M  V30 5259 C 471.799 -1.07118 -3.23633 0
M  V30 5260 H 472.992 -2.30692 -1.91628 0
M  V30 5261 H 470.545 -1.22593 -0.969572 0
M  V30 5262 H 471.28 -0.102578 -3.24138 0
M  V30 5263 H 471.065 -1.86479 -3.44917 0
M  V30 5264 H 472.555 -1.06806 -4.03711 0
M  V30 5265 N 472.992 0.995999 -1.22138 0
M  V30 5266 C 474.239 1.7351 -1.04406 0
M  V30 5267 C 474.567 1.89884 0.421244 0
M  V30 5268 O 473.822 1.43683 1.32867 0
M  V30 5269 C 474.121 3.14553 -1.6968 0
M  V30 5270 C 473.787 3.18102 -3.19565 0
M  V30 5271 C 472.449 3.18778 -3.60464 0
M  V30 5272 C 474.801 3.14636 -4.15516 0
M  V30 5273 C 472.129 3.13684 -4.95801 0
M  V30 5274 C 474.481 3.11084 -5.50826 0
M  V30 5275 C 473.145 3.10074 -5.91109 0
M  V30 5276 H 472.415 0.634916 -0.38205 0
M  V30 5277 H 475.062 1.1667 -1.51857 0
M  V30 5278 H 473.367 3.74682 -1.14546 0
M  V30 5279 H 475.064 3.70477 -1.53454 0
M  V30 5280 H 471.654 3.18324 -2.86998 0
M  V30 5281 H 475.838 3.13266 -3.84939 0
M  V30 5282 H 471.094 3.11245 -5.26247 0
M  V30 5283 H 475.268 3.07357 -6.24904 0
M  V30 5284 H 472.895 3.05882 -6.95946 0
M  V30 5285 N 474.47 1.03057 1.19235 0
M  V30 5286 C 475.716 0.729098 1.89241 0
M  V30 5287 C 476.049 -0.740573 1.79525 0
M  V30 5288 O 475.324 -1.53946 1.18874 0
M  V30 5289 C 475.607 1.18304 3.40112 0
M  V30 5290 C 475.46 2.71406 3.5869 0
M  V30 5291 C 476.779 0.765161 4.33397 0
M  V30 5292 H 473.898 0.266338 0.687192 0
M  V30 5293 H 476.54 1.28079 1.40341 0
M  V30 5294 H 474.69 0.713672 3.81889 0
M  V30 5295 H 476.362 3.26303 3.26074 0
M  V30 5296 H 474.605 3.11717 3.01687 0
M  V30 5297 H 475.276 2.98225 4.64506 0
M  V30 5298 H 477.752 1.16889 3.99345 0
M  V30 5299 H 476.628 1.11065 5.37546 0
M  V30 5300 H 476.889 -0.332372 4.40849 0
M  V30 5301 N 475.948 -1.35272 0.808662 0
M  V30 5302 C 477.194 -1.99003 0.390581 0
M  V30 5303 C 477.527 -1.63999 -1.0401 0
M  V30 5304 O 476.802 -0.904368 -1.72196 0
M  V30 5305 C 477.085 -3.55454 0.576566 0
M  V30 5306 C 476.938 -4.00249 2.05233 0
M  V30 5307 C 478.257 -4.401 0.00354277 0
M  V30 5308 H 475.376 -0.722917 0.143388 0
M  V30 5309 H 478.018 -1.6039 1.01858 0
M  V30 5310 H 476.168 -3.88477 0.0419766 0
M  V30 5311 H 477.84 -3.77626 2.64946 0
M  V30 5312 H 476.083 -3.51082 2.54801 0
M  V30 5313 H 476.754 -5.0911 2.13333 0
M  V30 5314 H 479.23 -4.13548 0.460117 0
M  V30 5315 H 478.106 -5.48656 0.163575 0
M  V30 5316 H 478.367 -4.28444 -1.09032 0
M  V30 5317 N 477.426 -0.562348 -1.47226 0
M  V30 5318 C 478.336 0.185466 -2.33866 0
M  V30 5319 C 479.352 0.906713 -1.48508 0
M  V30 5320 O 480.528 0.874458 -1.81425 0
M  V30 5321 C 477.593 1.19904 -3.25306 0
M  V30 5322 C 476.654 0.484669 -4.26555 0
M  V30 5323 C 475.887 1.44996 -5.13626 0
M  V30 5324 O 476.11 2.68515 -5.03245 0
M  V30 5325 O 475.044 0.971642 -5.94006 0
M  V30 5326 H 478.87 -0.525361 -2.99121 0
M  V30 5327 H 476.455 -0.322916 -1.45868 0
M  V30 5328 H 478.337 1.78399 -3.81774 0
M  V30 5329 H 477.012 1.8917 -2.62672 0
M  V30 5330 H 475.919 -0.141605 -3.73832 0
M  V30 5331 H 477.252 -0.166634 -4.91918 0
M  V30 5332 N 478.904 1.54736 -0.299062 0
M  V30 5333 C 480.32 1.59507 0.0543849 0
M  V30 5334 C 480.52 1.31606 1.52585 0
M  V30 5335 O 479.576 1.08853 2.27832 0
M  V30 5336 C 480.889 2.98751 -0.34181 0
M  V30 5337 C 482.437 3.1165 -0.290414 0
M  V30 5338 C 482.912 4.53199 -0.661402 0
M  V30 5339 N 484.403 4.59114 -0.613863 0
M  V30 5340 C 485.138 5.66709 -0.873417 0
M  V30 5341 N 484.634 6.82349 -1.19884 0
M  V30 5342 N 486.427 5.56369 -0.800608 0
M  V30 5343 H 478.578 1.71133 -1.25806 0
M  V30 5344 H 480.841 0.799186 -0.509908 0
M  V30 5345 H 480.547 3.24085 -1.36608 0
M  V30 5346 H 480.421 3.75961 0.305508 0
M  V30 5347 H 482.808 2.86066 0.724605 0
M  V30 5348 H 482.889 2.366 -0.972327 0
M  V30 5349 H 482.533 4.79513 -1.67422 0
M  V30 5350 H 482.463 5.26583 0.0425612 0
M  V30 5351 H 484.954 3.76053 -0.3732 0
M  V30 5352 H 485.267 7.60326 -1.38291 0
M  V30 5353 H 483.612 6.83906 -1.23685 0
M  V30 5354 H 486.803 4.64904 -0.546045 0
M  V30 5355 H 486.976 6.40139 -1.00626 0
M  V30 5356 N 480.382 0.0267497 1.57577 0
M  V30 5357 C 481.314 -0.984594 2.06974 0
M  V30 5358 C 482.327 -1.29032 0.992705 0
M  V30 5359 O 483.516 -1.25539 1.26895 0
M  V30 5360 C 480.616 -2.31262 2.47732 0
M  V30 5361 C 479.789 -2.1924 3.78487 0
M  V30 5362 C 478.848 -3.34956 4.05821 0
M  V30 5363 O 477.874 -3.11948 4.76106 0
M  V30 5364 N 479.076 -4.58672 3.55809 0
M  V30 5365 H 481.841 -0.563143 2.94362 0
M  V30 5366 H 479.402 -0.160061 1.61107 0
M  V30 5367 H 481.394 -3.07496 2.63112 0
M  V30 5368 H 479.964 -2.65056 1.65723 0
M  V30 5369 H 479.184 -1.27747 3.72927 0
M  V30 5370 H 480.472 -2.08409 4.64158 0
M  V30 5371 H 479.87 -4.8026 2.98942 0
M  V30 5372 H 478.427 -5.32083 3.76472 0
M  V30 5373 N 481.861 -1.55662 -0.24637 0
M  V30 5374 C 483.272 -1.67953 -0.81539 0
M  V30 5375 C 483.623 -0.624302 -1.86002 0
M  V30 5376 O 482.748 0.229328 -2.15181 0
M  V30 5377 C 483.343 -3.04484 -1.48576 0
M  V30 5378 C 481.902 -3.18713 -2.00248 0
M  V30 5379 C 481.049 -2.6383 -0.853766 0
M  V30 5380 H 484 -1.58685 -0.0221692 0
M  V30 5381 H 484.021 -2.98959 -2.3538 0
M  V30 5382 H 483.533 -3.81264 -0.725222 0
M  V30 5383 H 481.634 -2.46757 -2.79181 0
M  V30 5384 H 481.747 -4.25628 -2.1995 0
M  V30 5385 H 480.111 -2.21667 -1.25442 0
M  V30 5386 H 480.894 -3.43135 -0.106302 0
M  V30 5387 N 483.339 0.512053 -1.4905 0
M  V30 5388 C 484.579 1.27715 -1.59588 0
M  V30 5389 C 484.943 1.90071 -0.271502 0
M  V30 5390 O 486.144 2.67616 -0.251987 0
M  V30 5391 C 484.415 2.32399 -2.71524 0
M  V30 5392 S 485.974 3.18396 -3.01943 0
M  V30 5393 H 482.792 0.43419 -0.563027 0
M  V30 5394 H 485.394 0.581315 -1.86657 0
M  V30 5395 H 484.098 1.85101 -3.66287 0
M  V30 5396 H 483.629 3.06667 -2.46412 0
M  V30 5397 H 485.644 4.32842 -2.42616 0
M  V30 5398 N 484.817 1.37938 0.762283 0
M  V30 5399 C 485.75 1.2884 1.88349 0
M  V30 5400 C 486.728 0.167084 1.61739 0
M  V30 5401 O 487.912 0.34292 1.85355 0
M  V30 5402 C 485.039 0.994257 3.23778 0
M  V30 5403 C 484.085 2.13376 3.69287 0
M  V30 5404 S 484.918 3.75439 3.81845 0
M  V30 5405 C 486.074 3.48195 5.20107 0
M  V30 5406 H 486.307 2.23736 1.95779 0
M  V30 5407 H 483.84 1.23672 0.924368 0
M  V30 5408 H 485.798 0.83138 4.01993 0
M  V30 5409 H 484.459 0.0626251 3.14038 0
M  V30 5410 H 483.652 1.88319 4.67495 0
M  V30 5411 H 483.254 2.25726 2.98201 0
M  V30 5412 H 485.546 3.0377 6.05583 0
M  V30 5413 H 486.489 4.45765 5.50181 0
M  V30 5414 H 486.897 2.82905 4.88493 0
M  V30 5415 N 486.295 -0.989507 1.22664 0
M  V30 5416 C 487.706 -1.54406 1.04955 0
M  V30 5417 C 488.057 -1.92366 -0.385951 0
M  V30 5418 O 487.182 -1.75111 -1.27142 0
M  V30 5419 C 487.777 -2.80578 1.89899 0
M  V30 5420 C 486.336 -3.32464 1.76478 0
M  V30 5421 C 485.483 -2.05524 1.86159 0
M  V30 5422 H 488.434 -0.810211 1.3646 0
M  V30 5423 H 488.455 -3.53075 1.4184 0
M  V30 5424 H 487.967 -2.52918 2.94371 0
M  V30 5425 H 486.068 -3.65024 0.747528 0
M  V30 5426 H 486.181 -4.02838 2.59342 0
M  V30 5427 H 484.545 -2.19241 1.29636 0
M  V30 5428 H 485.328 -1.80258 2.92168 0
M  V30 5429 N 487.773 -1.03688 -1.18687 0
M  V30 5430 C 488.706 -0.569112 -2.2099 0
M  V30 5431 C 489.684 0.394315 -1.57746 0
M  V30 5432 O 490.868 0.309519 -1.85941 0
M  V30 5433 C 487.995 0.169104 -3.38278 0
M  V30 5434 C 487.041 -0.746989 -4.19908 0
M  V30 5435 S 487.874 -2.22773 -4.86963 0
M  V30 5436 C 489.03 -1.50025 -6.07654 0
M  V30 5437 H 489.263 -1.43589 -2.60326 0
M  V30 5438 H 486.796 -0.847507 -1.29061 0
M  V30 5439 H 488.754 0.588868 -4.06254 0
M  V30 5440 H 487.415 1.01172 -2.9736 0
M  V30 5441 H 486.608 -0.176626 -5.0369 0
M  V30 5442 H 486.21 -1.10543 -3.5729 0
M  V30 5443 H 488.502 -0.791217 -6.72864 0
M  V30 5444 H 489.445 -2.31498 -6.69189 0
M  V30 5445 H 489.853 -0.994245 -5.55675 0
M  V30 5446 N 489.251 1.34841 -0.815825 0
M  V30 5447 C 490.201 2.27075 -0.205169 0
M  V30 5448 C 491.185 1.48205 0.626414 0
M  V30 5449 O 492.377 1.70306 0.482157 0
M  V30 5450 C 489.506 3.37322 0.637871 0
M  V30 5451 C 488.592 4.23609 -0.203948 0
M  V30 5452 N 488.983 4.89558 -1.27149 0
M  V30 5453 C 487.281 4.45998 0.0128971 0
M  V30 5454 C 487.982 5.53597 -1.7862 0
M  V30 5455 N 486.958 5.32535 -1.0912 0
M  V30 5456 H 490.76 2.75563 -1.02187 0
M  V30 5457 H 488.274 1.48477 -0.657912 0
M  V30 5458 H 490.271 4.02359 1.09146 0
M  V30 5459 H 488.931 2.90385 1.45281 0
M  V30 5460 H 489.942 4.9077 -1.65423 0
M  V30 5461 H 486.619 4.09837 0.79624 0
M  V30 5462 H 488.009 6.16184 -2.67892 0
M  V30 5463 N 490.729 0.570148 1.46925 0
M  V30 5464 C 492.14 0.1402 1.86173 0
M  V30 5465 C 492.491 -1.29347 1.47526 0
M  V30 5466 O 491.616 -1.97508 0.884292 0
M  V30 5467 C 492.211 0.247661 3.37894 0
M  V30 5468 C 490.77 -0.127332 3.76185 0
M  V30 5469 C 489.917 0.589349 2.70965 0
M  V30 5470 H 492.868 0.779117 1.38259 0
M  V30 5471 H 492.889 -0.530341 3.76786 0
M  V30 5472 H 492.401 1.29121 3.65991 0
M  V30 5473 H 490.502 -1.17149 3.53704 0
M  V30 5474 H 490.615 0.240238 4.78497 0
M  V30 5475 H 488.979 0.0309824 2.54681 0
M  V30 5476 H 489.762 1.6343 3.01903 0
M  V30 5477 N 492.207 -1.54576 0.307264 0
M  V30 5478 C 493.484 -1.92377 -0.353605 0
M  V30 5479 C 493.864 -1.23517 -1.71192 0
M  V30 5480 O 493.212 -0.373101 -2.25433 0
M  V30 5481 C 493.422 -3.45928 -0.462039 0
M  V30 5482 C 494.77 -4.18278 -0.729975 0
M  V30 5483 O 495.794 -3.51997 -0.545605 0
M  V30 5484 O 494.653 -5.3563 -1.08454 0
M  V30 5485 H 491.747 -0.802747 -0.198812 0
M  V30 5486 H 494.293 -1.65929 0.355783 0
M  V30 5487 H 493.065 -3.88187 0.492592 0
M  V30 5488 H 492.688 -3.78431 -1.21965 0
M  V30 5489 N 493.685 -0.035106 -1.57561 0
M  V30 5490 C 495.101 0.321334 -1.56332 0
M  V30 5491 C 495.301 1.72509 -1.04129 0
M  V30 5492 O 494.357 2.4287 -0.690694 0
M  V30 5493 C 495.67 0.164469 -3.0025 0
M  V30 5494 C 497.218 0.236786 -3.12103 0
M  V30 5495 C 497.693 0.10864 -4.57871 0
M  V30 5496 N 499.184 0.165433 -4.62904 0
M  V30 5497 C 499.919 0.0901506 -5.73329 0
M  V30 5498 N 499.415 -0.0365606 -6.9279 0
M  V30 5499 N 501.208 0.144572 -5.61914 0
M  V30 5500 H 493.359 -0.952976 -1.89821 0
M  V30 5501 H 495.622 -0.368537 -0.873432 0
M  V30 5502 H 495.328 -0.802746 -3.42416 0
M  V30 5503 H 495.202 0.932194 -3.655 0
M  V30 5504 H 497.589 1.19446 -2.69845 0
M  V30 5505 H 497.67 -0.561419 -2.49563 0
M  V30 5506 H 497.314 -0.845644 -5.00811 0
M  V30 5507 H 497.244 0.925786 -5.18398 0
M  V30 5508 H 499.735 0.263269 -3.76982 0
M  V30 5509 H 500.048 -0.0871487 -7.72751 0
M  V30 5510 H 498.393 -0.0714256 -6.94963 0
M  V30 5511 H 501.584 0.242006 -4.67474 0
M  V30 5512 H 501.757 0.0824413 -6.47948 0
M  V30 5513 N 495.163 1.55791 0.238111 0
M  V30 5514 C 496.574 1.68383 0.806472 0
M  V30 5515 C 496.925 0.634157 1.85669 0
M  V30 5516 O 496.05 -0.217913 2.153 0
M  V30 5517 C 496.645 3.05268 1.46959 0
M  V30 5518 C 495.204 3.1977 1.98555 0
M  V30 5519 C 494.351 2.64279 0.839763 0
M  V30 5520 H 497.302 1.58694 0.0137535 0
M  V30 5521 H 497.323 3.00203 2.33792 0
M  V30 5522 H 496.835 3.81643 0.704993 0
M  V30 5523 H 494.936 2.48234 2.77868 0
M  V30 5524 H 495.049 4.26788 2.17689 0
M  V30 5525 H 493.413 2.22329 1.24265 0
M  V30 5526 H 494.196 3.43187 0.0881032 0
M  V30 5527 N 496.642 -0.504142 1.49319 0
M  V30 5528 C 497.572 -1.61473 1.68667 0
M  V30 5529 C 498.553 -1.61455 0.535378 0
M  V30 5530 O 499.738 -1.78245 0.770868 0
M  V30 5531 C 496.868 -2.99971 1.75028 0
M  V30 5532 C 495.822 -3.14854 2.89916 0
M  V30 5533 C 495.148 -4.54671 2.81387 0
M  V30 5534 C 496.448 -2.95176 4.30893 0
M  V30 5535 H 498.142 -1.45535 2.61648 0
M  V30 5536 H 495.688 -0.698711 1.25913 0
M  V30 5537 H 497.641 -3.77562 1.8715 0
M  V30 5538 H 496.365 -3.1699 0.786441 0
M  V30 5539 H 495.024 -2.39687 2.77391 0
M  V30 5540 H 494.672 -4.68562 1.82917 0
M  V30 5541 H 494.372 -4.6557 3.58494 0
M  V30 5542 H 495.896 -5.34327 2.95512 0
M  V30 5543 H 497.31 -3.62538 4.44116 0
M  V30 5544 H 495.707 -3.17549 5.09198 0
M  V30 5545 H 496.777 -1.91332 4.45556 0
M  V30 5546 N 498.12 -1.38341 -0.754957 0
M  V30 5547 C 499.366 -1.34672 -1.51628 0
M  V30 5548 C 499.699 0.0636036 -1.94096 0
M  V30 5549 O 498.974 1.0245 -1.6533 0
M  V30 5550 C 499.257 -2.30116 -2.76981 0
M  V30 5551 C 499.11 -3.80003 -2.4066 0
M  V30 5552 C 500.429 -2.23715 -3.78998 0
M  V30 5553 H 497.548 -0.490517 -0.550056 0
M  V30 5554 H 500.19 -1.69178 -0.864807 0
M  V30 5555 H 498.34 -2.00821 -3.3257 0
M  V30 5556 H 500.012 -4.19966 -1.90856 0
M  V30 5557 H 498.255 -3.97751 -1.73137 0
M  V30 5558 H 498.926 -4.42244 -3.30339 0
M  V30 5559 H 501.402 -2.49574 -3.32945 0
M  V30 5560 H 500.278 -2.9261 -4.64403 0
M  V30 5561 H 500.539 -1.23554 -4.24484 0
M  V30 5562 N 499.598 0.982988 -1.23187 0
M  V30 5563 C 500.847 1.71817 -1.05649 0
M  V30 5564 C 501.16 1.91315 0.407176 0
M  V30 5565 O 502.366 2.62256 0.702436 0
M  V30 5566 C 500.822 3.09188 -1.84203 0
M  V30 5567 C 500.43 2.97586 -3.34882 0
M  V30 5568 C 502.174 3.86684 -1.75146 0
M  V30 5569 C 500.081 4.30173 -4.05839 0
M  V30 5570 H 499.011 0.644258 -0.391724 0
M  V30 5571 H 501.662 1.09659 -1.4713 0
M  V30 5572 H 500.044 3.72087 -1.35527 0
M  V30 5573 H 501.218 2.43793 -3.91026 0
M  V30 5574 H 499.533 2.33567 -3.44725 0
M  V30 5575 H 502.13 4.84836 -2.25473 0
M  V30 5576 H 502.473 4.10136 -0.713737 0
M  V30 5577 H 503.006 3.30482 -2.21419 0
M  V30 5578 H 499.745 4.11918 -5.09906 0
M  V30 5579 H 499.265 4.83841 -3.54482 0
M  V30 5580 H 500.944 4.98873 -4.11989 0
M  V30 5581 N 501.076 1.04316 1.18135 0
M  V30 5582 C 502.023 0.636398 2.21853 0
M  V30 5583 C 502.993 -0.357039 1.62217 0
M  V30 5584 O 504.178 -0.250453 1.89149 0
M  V30 5585 C 501.318 0.00812779 3.45099 0
M  V30 5586 C 500.431 1.04933 4.19062 0
M  V30 5587 C 499.566 0.389313 5.29771 0
M  V30 5588 C 498.605 1.41544 5.9551 0
M  V30 5589 N 497.742 0.78021 6.97751 0
M  V30 5590 H 502.582 1.52536 2.56002 0
M  V30 5591 H 500.119 0.76304 1.25762 0
M  V30 5592 H 502.077 -0.373497 4.15525 0
M  V30 5593 H 500.707 -0.844336 3.11562 0
M  V30 5594 H 499.759 1.54888 3.47439 0
M  V30 5595 H 501.071 1.82862 4.64072 0
M  V30 5596 H 500.225 -0.0463805 6.06682 0
M  V30 5597 H 498.964 -0.422038 4.8587 0
M  V30 5598 H 497.969 1.86124 5.17337 0
M  V30 5599 H 499.194 2.22854 6.41493 0
M  V30 5600 H 497.14 -0.0107899 6.55999 0
M  V30 5601 H 497.057 1.49716 7.41027 0
M  V30 5602 H 498.325 0.368996 7.78626 0
M  V30 5603 N 502.554 -1.34406 0.822964 0
M  V30 5604 C 503.782 -2.02508 0.424039 0
M  V30 5605 C 504.197 -1.61975 -0.970022 0
M  V30 5606 O 503.554 -0.825228 -1.62777 0
M  V30 5607 C 503.605 -3.57789 0.516657 0
M  V30 5608 O 503.326 -3.96853 1.85577 0
M  V30 5609 C 504.827 -4.43157 0.112637 0
M  V30 5610 H 502.047 -0.649063 0.170173 0
M  V30 5611 H 504.591 -1.7168 1.11113 0
M  V30 5612 H 502.746 -3.87207 -0.122353 0
M  V30 5613 H 503.16 -4.91538 1.83005 0
M  V30 5614 H 504.634 -5.51527 0.228526 0
M  V30 5615 H 505.111 -4.28939 -0.943837 0
M  V30 5616 H 505.717 -4.19067 0.725449 0
M  V30 5617 N 504.032 -0.577932 -1.46621 0
M  V30 5618 C 505.28 -0.061566 -2.02006 0
M  V30 5619 C 505.601 1.30117 -1.4524 0
M  V30 5620 O 504.871 1.85313 -0.63529 0
M  V30 5621 H 503.451 -0.0197692 -0.746738 0
M  V30 5622 H 506.113 -0.752631 -1.79782 0
M  V30 5623 H 505.209 0.0110238 -3.12098 0
M  V30 5624 N 505.51 1.54411 -0.315457 0
M  V30 5625 C 506.756 2.00716 0.289972 0
M  V30 5626 C 507.089 1.2034 1.5242 0
M  V30 5627 O 506.364 0.283579 1.92422 0
M  V30 5628 C 506.647 3.54507 0.632196 0
M  V30 5629 C 506.5 4.45615 -0.61218 0
M  V30 5630 C 507.819 4.15421 1.45305 0
M  V30 5631 H 504.938 0.729637 0.10392 0
M  V30 5632 H 507.58 1.8506 -0.430427 0
M  V30 5633 H 505.73 3.67979 1.24595 0
M  V30 5634 H 507.402 4.44026 -1.25053 0
M  V30 5635 H 505.645 4.15621 -1.24264 0
M  V30 5636 H 506.316 5.51022 -0.328379 0
M  V30 5637 H 508.792 4.05474 0.934331 0
M  V30 5638 H 507.668 5.23157 1.66127 0
M  V30 5639 H 507.929 3.68223 2.44671 0
M  V30 5640 N 506.988 0.0434614 1.5754 0
M  V30 5641 C 507.92 -0.962586 2.08007 0
M  V30 5642 C 508.933 -1.27972 1.00634 0
M  V30 5643 O 510.122 -1.24186 1.28219 0
M  V30 5644 C 507.222 -2.28621 2.50171 0
M  V30 5645 C 506.395 -2.15214 3.80791 0
M  V30 5646 C 505.454 -3.30633 4.09351 0
M  V30 5647 O 504.48 -3.0688 4.79388 0
M  V30 5648 N 505.682 -4.54873 3.60654 0
M  V30 5649 H 508.447 -0.531891 2.94942 0
M  V30 5650 H 506.008 -0.142965 1.61268 0
M  V30 5651 H 508 -3.04689 2.66359 0
M  V30 5652 H 506.57 -2.63283 1.68525 0
M  V30 5653 H 505.79 -1.23785 3.74261 0
M  V30 5654 H 507.078 -2.03475 4.66343 0
M  V30 5655 H 506.476 -4.77063 3.04019 0
M  V30 5656 H 505.033 -5.2806 3.82094 0
M  V30 5657 N 508.466 -1.55915 -0.229846 0
M  V30 5658 C 509.713 -1.78542 -0.955452 0
M  V30 5659 C 510.041 -0.610785 -1.84661 0
M  V30 5660 O 509.296 0.405213 -1.91459 0
M  V30 5661 C 509.595 -3.06845 -1.8325 0
M  V30 5662 C 509.261 -4.37395 -1.09528 0
M  V30 5663 C 507.923 -4.72868 -0.891598 0
M  V30 5664 C 510.275 -5.18029 -0.574046 0
M  V30 5665 C 507.603 -5.86496 -0.154655 0
M  V30 5666 C 509.955 -6.32423 0.149513 0
M  V30 5667 C 508.619 -6.66504 0.364519 0
M  V30 5668 H 507.889 -0.653333 -0.349625 0
M  V30 5669 H 510.536 -1.90183 -0.224235 0
M  V30 5670 H 508.841 -2.90291 -2.63132 0
M  V30 5671 H 510.538 -3.21553 -2.39592 0
M  V30 5672 H 507.128 -4.09538 -1.26399 0
M  V30 5673 H 511.312 -4.91066 -0.718899 0
M  V30 5674 H 506.568 -6.11396 0.0222356 0
M  V30 5675 H 510.742 -6.94137 0.560947 0
M  V30 5676 H 508.369 -7.54397 0.937495 0
M  V30 5677 N 509.944 0.496216 -1.49584 0
M  V30 5678 C 511.172 1.27394 -1.63029 0
M  V30 5679 C 511.587 1.86344 -0.303569 0
M  V30 5680 O 510.944 1.68057 0.711547 0
M  V30 5681 C 510.995 2.40077 -2.70269 0
M  V30 5682 O 510.716 1.83549 -3.97796 0
M  V30 5683 C 512.217 3.31372 -2.94462 0
M  V30 5684 H 509.437 0.386211 -0.54871 0
M  V30 5685 H 511.981 0.595163 -1.95648 0
M  V30 5686 H 510.136 3.03775 -2.40415 0
M  V30 5687 H 510.55 2.57561 -4.56905 0
M  V30 5688 H 512.024 4.06707 -3.73221 0
M  V30 5689 H 512.501 3.88654 -2.0456 0
M  V30 5690 H 513.107 2.73435 -3.25751 0
M  V30 5691 N 511.423 1.38739 0.74761 0
M  V30 5692 C 512.651 1.38521 1.53686 0
M  V30 5693 C 513.066 -0.0235129 1.88785 0
M  V30 5694 O 512.423 -0.991662 1.53207 0
M  V30 5695 C 512.474 2.24641 2.83229 0
M  V30 5696 O 512.195 3.60026 2.49625 0
M  V30 5697 C 513.696 2.32669 3.77333 0
M  V30 5698 H 510.916 0.473589 0.475347 0
M  V30 5699 H 513.46 1.82395 0.924786 0
M  V30 5700 H 511.615 1.84213 3.40799 0
M  V30 5701 H 512.029 4.05435 3.3275 0
M  V30 5702 H 513.503 2.97201 4.65162 0
M  V30 5703 H 513.98 1.3421 4.18192 0
M  V30 5704 H 514.586 2.73512 3.25685 0
M  V30 5705 N 512.901 -0.976442 1.23707 0
M  V30 5706 C 513.848 -2.06952 1.02174 0
M  V30 5707 C 514.818 -1.65984 -0.0621034 0
M  V30 5708 O 516.003 -1.90584 0.0907906 0
M  V30 5709 C 513.143 -3.39425 0.62327 0
M  V30 5710 C 512.256 -3.9364 1.77966 0
M  V30 5711 C 511.391 -5.14343 1.3276 0
M  V30 5712 C 510.43 -5.60733 2.45449 0
M  V30 5713 N 509.567 -6.72662 2.01172 0
M  V30 5714 H 514.407 -2.24704 1.95734 0
M  V30 5715 H 511.944 -1.10143 0.975034 0
M  V30 5716 H 513.902 -4.15526 0.37332 0
M  V30 5717 H 512.532 -3.21624 -0.275329 0
M  V30 5718 H 511.584 -3.14258 2.14351 0
M  V30 5719 H 512.896 -4.24035 2.62671 0
M  V30 5720 H 512.05 -5.97789 1.03601 0
M  V30 5721 H 510.789 -4.8561 0.450975 0
M  V30 5722 H 509.794 -4.75865 2.75378 0
M  V30 5723 H 511.019 -5.91483 3.33654 0
M  V30 5724 H 508.965 -6.45681 1.15895 0
M  V30 5725 H 508.882 -7.02462 2.79434 0
M  V30 5726 H 510.15 -7.59572 1.75129 0
M  V30 5727 N 514.379 -1.04941 -1.1758 0
M  V30 5728 C 515.625 -0.759112 -1.88057 0
M  V30 5729 C 515.958 0.711918 -1.8068 0
M  V30 5730 O 515.233 1.52035 -1.21308 0
M  V30 5731 C 515.516 -1.237 -3.38187 0
M  V30 5732 C 515.369 -2.77078 -3.54327 0
M  V30 5733 C 516.688 -0.834014 -4.32125 0
M  V30 5734 H 513.807 -0.277237 -0.682868 0
M  V30 5735 H 516.449 -1.30296 -1.38286 0
M  V30 5736 H 514.599 -0.774337 -3.80705 0
M  V30 5737 H 516.271 -3.31449 -3.20842 0
M  V30 5738 H 514.514 -3.16477 -2.96689 0
M  V30 5739 H 515.185 -3.05577 -4.59703 0
M  V30 5740 H 517.661 -1.23228 -3.97434 0
M  V30 5741 H 516.537 -1.19603 -5.35711 0
M  V30 5742 H 516.798 0.262195 -4.41322 0
M  V30 5743 N 515.857 1.33968 -0.830081 0
M  V30 5744 C 517.273 1.51003 -0.516742 0
M  V30 5745 C 517.473 1.77286 0.957694 0
M  V30 5746 O 516.529 1.82797 1.74188 0
M  V30 5747 C 517.842 2.67036 -1.38247 0
M  V30 5748 C 519.39 2.80919 -1.38034 0
M  V30 5749 C 519.865 4.00004 -2.23071 0
M  V30 5750 N 521.356 4.07224 -2.20733 0
M  V30 5751 C 522.091 4.98541 -2.83275 0
M  V30 5752 N 521.587 5.95033 -3.54835 0
M  V30 5753 N 523.38 4.91469 -2.72791 0
M  V30 5754 H 515.531 1.15168 -1.78466 0
M  V30 5755 H 517.794 0.565443 -0.760906 0
M  V30 5756 H 517.5 2.54266 -2.42985 0
M  V30 5757 H 517.374 3.62226 -1.05225 0
M  V30 5758 H 519.761 2.93127 -0.340713 0
M  V30 5759 H 519.842 1.86517 -1.75057 0
M  V30 5760 H 519.486 3.88557 -3.27087 0
M  V30 5761 H 519.416 4.93634 -1.83394 0
M  V30 5762 H 521.907 3.38162 -1.68687 0
M  V30 5763 H 522.22 6.61357 -3.99784 0
M  V30 5764 H 520.565 5.95135 -3.58942 0
M  V30 5765 H 523.756 4.15048 -2.16456 0
M  V30 5766 H 523.929 5.62439 -3.21818 0
M  V30 5767 N 517.335 0.585699 1.46312 0
M  V30 5768 C 518.265 -0.133556 2.33118 0
M  V30 5769 C 519.246 -0.880707 1.45525 0
M  V30 5770 O 520.431 -0.855579 1.74337 0
M  V30 5771 C 517.561 -1.14585 3.27853 0
M  V30 5772 C 516.515 -0.513341 4.2491 0
M  V30 5773 C 515.841 -1.63231 5.09175 0
M  V30 5774 C 517.141 0.551413 5.19381 0
M  V30 5775 H 518.835 0.59121 2.93505 0
M  V30 5776 H 516.381 0.285761 1.41136 0
M  V30 5777 H 518.334 -1.65741 3.87438 0
M  V30 5778 H 517.058 -1.90093 2.65579 0
M  V30 5779 H 515.717 -0.0228349 3.66593 0
M  V30 5780 H 515.365 -2.37713 4.43285 0
M  V30 5781 H 515.065 -1.21473 5.74907 0
M  V30 5782 H 516.589 -2.14658 5.71624 0
M  V30 5783 H 518.003 0.124804 5.73164 0
M  V30 5784 H 516.4 0.889486 5.93471 0
M  V30 5785 H 517.47 1.43655 4.63132 0
M  V30 5786 N 518.813 -1.54241 0.323641 0
M  V30 5787 C 519.743 -2.27289 -0.534993 0
M  V30 5788 C 520.724 -1.28087 -1.11927 0
M  V30 5789 O 521.909 -1.56899 -1.14439 0
M  V30 5790 C 519.039 -3.03075 -1.69596 0
M  V30 5791 C 517.993 -4.09614 -1.24098 0
M  V30 5792 C 517.319 -4.73242 -2.4889 0
M  V30 5793 C 518.619 -5.21087 -0.355789 0
M  V30 5794 H 520.313 -2.99308 0.0743257 0
M  V30 5795 H 517.859 -1.43952 0.0371874 0
M  V30 5796 H 519.812 -3.52907 -2.30293 0
M  V30 5797 H 518.536 -2.28673 -2.33187 0
M  V30 5798 H 517.195 -3.60666 -0.656945 0
M  V30 5799 H 516.843 -3.95455 -3.10845 0
M  V30 5800 H 516.543 -5.45209 -2.19138 0
M  V30 5801 H 518.067 -5.25848 -3.10348 0
M  V30 5802 H 519.481 -5.66675 -0.869042 0
M  V30 5803 H 517.878 -5.9991 -0.151045 0
M  V30 5804 H 518.948 -4.81005 0.613339 0
M  V30 5805 N 520.291 -0.0518155 -1.57515 0
M  V30 5806 C 521.537 0.622745 -1.93002 0
M  V30 5807 C 521.87 1.70456 -0.930499 0
M  V30 5808 O 521.145 1.94452 0.0434086 0
M  V30 5809 C 521.428 1.21824 -3.38867 0
M  V30 5810 C 521.281 0.144434 -4.49568 0
M  V30 5811 C 522.6 2.12968 -3.8514 0
M  V30 5812 H 519.719 0.22491 -0.701844 0
M  V30 5813 H 522.361 -0.113711 -1.89659 0
M  V30 5814 H 520.511 1.8459 -3.41846 0
M  V30 5815 H 522.183 -0.48753 -4.58717 0
M  V30 5816 H 520.426 -0.527424 -4.30582 0
M  V30 5817 H 521.097 0.601127 -5.48717 0
M  V30 5818 H 523.573 1.60163 -3.8404 0
M  V30 5819 H 522.449 2.51578 -4.87852 0
M  V30 5820 H 522.71 3.03004 -3.21934 0
M  V30 5821 N 521.769 1.56035 0.221574 0
M  V30 5822 C 522.716 1.92413 1.27459 0
M  V30 5823 C 523.686 0.781323 1.46576 0
M  V30 5824 O 524.871 1.03721 1.60145 0
M  V30 5825 C 522.011 2.24617 2.61995 0
M  V30 5826 C 521.124 3.51831 2.50677 0
M  V30 5827 C 520.259 3.73482 3.77736 0
M  V30 5828 C 519.298 4.94211 3.6114 0
M  V30 5829 N 518.435 5.12252 4.80148 0
M  V30 5830 H 523.275 2.82203 0.957355 0
M  V30 5831 H 520.812 1.39676 0.461415 0
M  V30 5832 H 522.77 2.41298 3.40339 0
M  V30 5833 H 521.4 1.38 2.91815 0
M  V30 5834 H 520.452 3.43343 1.63767 0
M  V30 5835 H 521.764 4.40328 2.34334 0
M  V30 5836 H 520.918 3.9026 4.64523 0
M  V30 5837 H 519.657 2.83266 3.97003 0
M  V30 5838 H 518.662 4.77384 2.72736 0
M  V30 5839 H 519.887 5.85912 3.43343 0
M  V30 5840 H 517.833 4.24978 4.99729 0
M  V30 5841 H 517.75 5.94881 4.66532 0
M  V30 5842 H 519.018 5.33465 5.68362 0
M  V30 5843 N 523.247 -0.488276 1.49845 0
M  V30 5844 C 524.494 -1.24157 1.59973 0
M  V30 5845 C 524.822 -1.92293 0.292182 0
M  V30 5846 O 524.077 -1.81942 -0.720813 0
M  V30 5847 C 524.376 -2.32152 2.71735 0
M  V30 5848 C 524.042 -1.81387 4.12807 0
M  V30 5849 C 522.704 -1.67262 4.51195 0
M  V30 5850 C 525.056 -1.43537 5.01045 0
M  V30 5851 C 522.384 -1.13685 5.7558 0
M  V30 5852 C 524.736 -0.914081 6.25961 0
M  V30 5853 C 523.4 -0.759327 6.63167 0
M  V30 5854 H 522.67 -0.454322 0.585383 0
M  V30 5855 H 525.317 -0.540261 1.83721 0
M  V30 5856 H 523.622 -3.08122 2.42008 0
M  V30 5857 H 525.319 -2.90164 2.76778 0
M  V30 5858 H 521.909 -1.93344 3.82513 0
M  V30 5859 H 526.093 -1.53292 4.72033 0
M  V30 5860 H 521.349 -1.00426 6.03096 0
M  V30 5861 H 525.523 -0.612066 6.93705 0
M  V30 5862 H 523.15 -0.342002 7.5943 0
M  V30 5863 N 524.725 -1.39134 -0.740242 0
M  V30 5864 C 526.136 -1.32208 -1.31825 0
M  V30 5865 C 526.487 0.0159919 -1.96193 0
M  V30 5866 O 525.612 0.918111 -1.95958 0
M  V30 5867 C 526.207 -2.39436 -2.39699 0
M  V30 5868 C 524.766 -2.36048 -2.93187 0
M  V30 5869 C 523.913 -2.21599 -1.66701 0
M  V30 5870 H 526.864 -1.49298 -0.538133 0
M  V30 5871 H 526.885 -2.05922 -3.19963 0
M  V30 5872 H 526.397 -3.36811 -1.92821 0
M  V30 5873 H 524.498 -1.42295 -3.44359 0
M  V30 5874 H 524.611 -3.30704 -3.46658 0
M  V30 5875 H 522.975 -1.68681 -1.90837 0
M  V30 5876 H 523.758 -3.20936 -1.21882 0
M  V30 5877 N 526.204 0.969867 -1.24223 0
M  V30 5878 C 527.114 2.09806 -1.0497 0
M  V30 5879 C 528.13 1.73998 0.00886455 0
M  V30 5880 O 529.306 2.00513 -0.188848 0
M  V30 5881 C 526.371 3.40467 -0.654452 0
M  V30 5882 C 525.432 3.90236 -1.78926 0
M  V30 5883 C 524.665 5.14662 -1.41277 0
M  V30 5884 O 524.888 5.69602 -0.301632 0
M  V30 5885 O 523.822 5.58761 -2.23763 0
M  V30 5886 H 527.648 2.28942 -1.99548 0
M  V30 5887 H 525.233 1.08197 -1.03023 0
M  V30 5888 H 527.115 4.19039 -0.445452 0
M  V30 5889 H 525.79 3.22636 0.262216 0
M  V30 5890 H 524.697 3.12735 -2.05299 0
M  V30 5891 H 526.03 4.1254 -2.68462 0
M  V30 5892 N 527.682 1.05563 1.17022 0
M  V30 5893 C 528.612 0.681026 2.23348 0
M  V30 5894 C 529.593 -0.322983 1.67005 0
M  V30 5895 O 530.778 -0.199746 1.9317 0
M  V30 5896 C 527.908 0.0589053 3.4725 0
M  V30 5897 C 526.862 0.988082 4.16438 0
M  V30 5898 C 526.188 0.229646 5.34207 0
M  V30 5899 C 527.488 2.31388 4.68249 0
M  V30 5900 H 529.182 1.56993 2.54938 0
M  V30 5901 H 526.728 0.756302 1.2254 0
M  V30 5902 H 528.681 -0.214982 4.20851 0
M  V30 5903 H 527.405 -0.864968 3.14938 0
M  V30 5904 H 526.064 1.24659 3.44754 0
M  V30 5905 H 525.712 -0.697111 4.98146 0
M  V30 5906 H 525.412 0.848815 5.81437 0
M  V30 5907 H 526.936 -0.0368694 6.10589 0
M  V30 5908 H 528.35 2.09964 5.33468 0
M  V30 5909 H 526.747 2.88736 5.26072 0
M  V30 5910 H 527.817 2.94982 3.84855 0
M  V30 5911 N 529.16 -1.33526 0.837174 0
M  V30 5912 C 530.108 -2.31168 0.257698 0
M  V30 5913 C 531.102 -1.5806 -0.609388 0
M  V30 5914 O 532.308 -1.72941 -0.499139 0
M  V30 5915 H 528.683 -0.74922 0.0646058 0
M  V30 5916 H 530.654 -2.77552 1.09578 0
M  V30 5917 C 529.403 -3.4326 -0.553887 0
M  V30 5918 H 528.726 -3.99665 0.104008 0
M  V30 5919 H 530.166 -4.13782 -0.925219 0
M  V30 5920 C 528.625 -2.88965 -1.73207 0
M  V30 5921 O 529.155 -2.85013 -2.83073 0
M  V30 5922 N 527.361 -2.45596 -1.55342 0
M  V30 5923 H 526.908 -2.49009 -0.659705 0
M  V30 5924 H 526.866 -2.0962 -2.34322 0
M  V30 5925 N 530.638 -0.59345 -1.46 0
M  V30 5926 C 531.868 -0.0889642 -2.06408 0
M  V30 5927 C 532.276 1.22597 -1.44106 0
M  V30 5928 O 531.619 1.75448 -0.544398 0
M  V30 5929 C 531.681 0.139902 -3.59228 0
M  V30 5930 C 531.345 -1.09107 -4.43784 0
M  V30 5931 C 532.342 -2.00577 -4.79651 0
M  V30 5932 C 530.027 -1.31593 -4.84756 0
M  V30 5933 C 532.021 -3.12873 -5.55328 0
M  V30 5934 C 529.708 -2.44192 -5.60191 0
M  V30 5935 C 530.706 -3.34661 -5.95392 0
M  V30 5936 O 530.394 -4.45302 -6.69299 0
M  V30 5937 H 530.126 -0.0594613 -0.67338 0
M  V30 5938 H 532.68 -0.817 -1.88452 0
M  V30 5939 H 530.91 0.922672 -3.75531 0
M  V30 5940 H 532.599 0.594228 -4.01527 0
M  V30 5941 H 533.365 -1.84425 -4.48567 0
M  V30 5942 H 529.244 -0.620801 -4.56801 0
M  V30 5943 H 532.788 -3.83511 -5.82722 0
M  V30 5944 H 528.685 -2.60303 -5.90688 0
M  V30 5945 H 529.453 -4.43805 -6.87735 0
M  V30 5946 N 532.116 1.54067 -0.331816 0
M  V30 5947 C 533.048 2.22139 0.564538 0
M  V30 5948 C 534.061 1.22408 1.07332 0
M  V30 5949 O 535.25 1.4883 0.985481 0
M  V30 5950 C 532.35 2.87876 1.78831 0
M  V30 5951 C 531.523 4.13817 1.41682 0
M  V30 5952 C 530.582 4.63072 2.49901 0
M  V30 5953 O 529.608 5.27562 2.13699 0
M  V30 5954 N 530.81 4.38001 3.80967 0
M  V30 5955 H 533.575 2.99694 -0.0183736 0
M  V30 5956 H 531.136 1.61153 -0.155396 0
M  V30 5957 H 533.128 3.17747 2.50637 0
M  V30 5958 H 531.698 2.13977 2.27887 0
M  V30 5959 H 530.918 3.9062 0.530044 0
M  V30 5960 H 532.206 4.95762 1.14443 0
M  V30 5961 H 531.604 3.864 4.13173 0
M  V30 5962 H 530.161 4.72507 4.48977 0
M  V30 5963 N 533.594 0.0601682 1.57485 0
M  V30 5964 C 534.524 -0.90889 2.15085 0
M  V30 5965 C 535.505 -1.31838 1.07484 0
M  V30 5966 O 536.69 -1.3915 1.35466 0
M  V30 5967 C 533.82 -2.18059 2.7031 0
M  V30 5968 C 532.774 -1.91088 3.82974 0
M  V30 5969 C 532.1 -3.24789 4.24754 0
M  V30 5970 C 533.4 -1.22535 5.07723 0
M  V30 5971 H 535.094 -0.429093 2.96309 0
M  V30 5972 H 532.64 -0.204952 1.42534 0
M  V30 5973 H 534.593 -2.86258 3.09248 0
M  V30 5974 H 533.317 -2.6826 1.8629 0
M  V30 5975 H 531.976 -1.25297 3.44523 0
M  V30 5976 H 531.624 -3.72809 3.37672 0
M  V30 5977 H 531.324 -3.07538 5.00694 0
M  V30 5978 H 532.848 -3.94205 4.66299 0
M  V30 5979 H 534.262 -1.80783 5.4405 0
M  V30 5980 H 532.659 -1.1558 5.88864 0
M  V30 5981 H 533.729 -0.202692 4.84476 0
M  V30 5982 N 535.072 -1.5615 -0.213296 0
M  V30 5983 C 536.019 -1.93086 -1.26437 0
M  V30 5984 C 536.989 -0.789086 -1.4616 0
M  V30 5985 O 538.174 -1.04569 -1.59593 0
M  V30 5986 C 535.314 -2.26003 -2.608 0
M  V30 5987 C 534.427 -3.53156 -2.48807 0
M  V30 5988 C 533.562 -3.7548 -3.7575 0
M  V30 5989 C 532.601 -4.96119 -3.58514 0
M  V30 5990 N 531.738 -5.14791 -4.77425 0
M  V30 5991 H 536.578 -2.82707 -0.942376 0
M  V30 5992 H 534.115 -1.39919 -0.454001 0
M  V30 5993 H 536.073 -2.431 -3.39055 0
M  V30 5994 H 534.703 -1.39546 -2.91079 0
M  V30 5995 H 533.755 -3.44207 -1.61944 0
M  V30 5996 H 535.067 -4.41565 -2.31996 0
M  V30 5997 H 534.221 -3.92718 -4.62447 0
M  V30 5998 H 532.96 -2.85368 -3.95495 0
M  V30 5999 H 531.965 -4.78823 -2.70201 0
M  V30 6000 H 533.19 -5.87724 -3.40231 0
M  V30 6001 H 531.136 -4.27623 -4.97468 0
M  V30 6002 H 531.053 -5.97347 -4.63371 0
M  V30 6003 H 532.321 -5.36471 -5.65525 0
M  V30 6004 N 536.55 0.480323 -1.50102 0
M  V30 6005 C 537.799 1.22979 -1.59872 0
M  V30 6006 C 538.112 1.93282 -0.30022 0
M  V30 6007 O 539.318 2.70086 -0.276709 0
M  V30 6008 C 537.774 2.23408 -2.82164 0
M  V30 6009 C 537.382 1.5895 -4.18854 0
M  V30 6010 C 539.126 2.99055 -3.01275 0
M  V30 6011 C 537.033 2.57611 -5.32344 0
M  V30 6012 H 535.963 0.462707 -0.59533 0
M  V30 6013 H 538.614 0.501291 -1.7652 0
M  V30 6014 H 536.996 2.99511 -2.59055 0
M  V30 6015 H 538.17 0.887 -4.52182 0
M  V30 6016 H 536.485 0.956191 -4.05273 0
M  V30 6017 H 539.082 3.72876 -3.83233 0
M  V30 6018 H 539.425 3.57897 -2.12639 0
M  V30 6019 H 539.958 2.30066 -3.24522 0
M  V30 6020 H 536.697 2.03521 -6.23105 0
M  V30 6021 H 536.217 3.26041 -5.03445 0
M  V30 6022 H 537.896 3.19627 -5.62537 0
M  V30 6023 N 538.028 1.39524 0.732853 0
M  V30 6024 C 538.975 1.38416 1.84688 0
M  V30 6025 C 539.945 0.243539 1.64305 0
M  V30 6026 O 541.13 0.438979 1.85681 0
M  V30 6027 C 538.27 1.23555 3.22224 0
M  V30 6028 C 537.383 2.47179 3.54298 0
M  V30 6029 C 536.518 2.2489 4.81246 0
M  V30 6030 C 535.557 3.44178 5.0617 0
M  V30 6031 N 534.694 3.21192 6.24323 0
M  V30 6032 H 539.534 2.33645 1.84971 0
M  V30 6033 H 537.071 1.16059 0.903804 0
M  V30 6034 H 539.029 1.12949 4.0162 0
M  V30 6035 H 537.659 0.31954 3.21215 0
M  V30 6036 H 536.711 2.68379 2.69587 0
M  V30 6037 H 538.023 3.36022 3.68633 0
M  V30 6038 H 537.177 2.11538 5.68627 0
M  V30 6039 H 535.916 1.33443 4.69089 0
M  V30 6040 H 534.921 3.58025 4.17251 0
M  V30 6041 H 536.146 4.36528 5.20212 0
M  V30 6042 H 534.092 2.32413 6.1345 0
M  V30 6043 H 534.009 4.03594 6.39256 0
M  V30 6044 H 535.277 3.1154 7.14537 0
M  V30 6045 N 539.506 -0.963266 1.24736 0
M  V30 6046 C 540.752 -1.70933 1.09131 0
M  V30 6047 C 541.085 -1.90676 -0.368273 0
M  V30 6048 O 540.36 -1.47147 -1.27193 0
M  V30 6049 C 540.643 -3.09744 1.83658 0
M  V30 6050 C 540.496 -2.97465 3.37394 0
M  V30 6051 C 541.815 -4.09483 1.61282 0
M  V30 6052 H 538.934 -0.620398 0.397838 0
M  V30 6053 H 541.576 -1.12028 1.53459 0
M  V30 6054 H 539.726 -3.60031 1.4598 0
M  V30 6055 H 541.398 -2.54571 3.84696 0
M  V30 6056 H 539.641 -2.33576 3.65547 0
M  V30 6057 H 540.312 -3.95822 3.84745 0
M  V30 6058 H 542.788 -3.68073 1.94066 0
M  V30 6059 H 541.664 -5.04666 2.15878 0
M  V30 6060 H 541.925 -4.38639 0.552102 0
M  V30 6061 N 540.985 -1.06182 -1.16461 0
M  V30 6062 C 542.225 -0.787048 -1.8864 0
M  V30 6063 C 542.589 0.674093 -1.79778 0
M  V30 6064 O 543.79 1.06341 -2.46871 0
M  V30 6065 C 542.061 -1.2666 -3.34203 0
M  V30 6066 S 543.62 -1.12071 -4.24247 0
M  V30 6067 H 540.438 -0.285539 -0.651144 0
M  V30 6068 H 543.04 -1.35851 -1.40587 0
M  V30 6069 H 541.744 -2.32496 -3.38192 0
M  V30 6070 H 541.275 -0.689841 -3.87304 0
M  V30 6071 H 543.29 -0.0509341 -4.96174 0
M  V30 6072 N 542.463 1.3308 -0.844243 0
M  V30 6073 C 543.712 1.96868 -0.438833 0
M  V30 6074 C 544.025 1.67599 1.00846 0
M  V30 6075 O 545.231 2.25043 1.51881 0
M  V30 6076 C 543.687 3.5234 -0.73377 0
M  V30 6077 C 543.295 3.90481 -2.1961 0
M  V30 6078 C 545.039 4.22653 -0.395574 0
M  V30 6079 C 542.946 5.38954 -2.43481 0
M  V30 6080 H 541.876 0.736749 -0.160364 0
M  V30 6081 H 544.527 1.51623 -1.03358 0
M  V30 6082 H 542.909 3.95941 -0.068589 0
M  V30 6083 H 544.083 3.57922 -2.90221 0
M  V30 6084 H 542.398 3.33165 -2.4978 0
M  V30 6085 H 544.995 5.31848 -0.551477 0
M  V30 6086 H 545.338 4.11004 0.661921 0
M  V30 6087 H 545.871 3.84601 -1.01621 0
M  V30 6088 H 542.61 5.55612 -3.47816 0
M  V30 6089 H 542.13 5.72954 -1.77437 0
M  V30 6090 H 543.809 6.05907 -2.26905 0
M  V30 6091 N 543.941 0.601185 1.45683 0
M  V30 6092 C 545.218 0.0261659 1.95582 0
M  V30 6093 C 545.598 -1.4399 1.5437 0
M  V30 6094 O 544.946 -2.13919 0.80318 0
M  V30 6095 C 545.156 0.217557 3.48321 0
M  V30 6096 C 546.504 0.0950076 4.24494 0
M  V30 6097 O 547.528 0.147345 3.55895 0
M  V30 6098 O 546.387 -0.025261 5.46494 0
M  V30 6099 H 543.481 -0.0393688 0.826062 0
M  V30 6100 H 546.027 0.670798 1.55879 0
M  V30 6101 H 544.799 1.23601 3.71266 0
M  V30 6102 H 544.422 -0.46264 3.94899 0
M  V30 6103 N 545.419 -1.53889 0.339982 0
M  V30 6104 C 546.366 -2.24902 -0.518452 0
M  V30 6105 C 547.336 -1.24593 -1.09844 0
M  V30 6106 O 548.521 -1.53317 -1.13572 0
M  V30 6107 C 545.661 -3.02262 -1.66529 0
M  V30 6108 C 544.774 -4.17418 -1.11295 0
M  V30 6109 C 543.909 -4.82273 -2.2268 0
M  V30 6110 C 542.948 -5.89503 -1.6478 0
M  V30 6111 N 542.085 -6.48153 -2.69893 0
M  V30 6112 H 546.925 -2.97853 0.0936579 0
M  V30 6113 H 544.462 -1.46986 0.0579924 0
M  V30 6114 H 546.42 -3.45371 -2.3404 0
M  V30 6115 H 545.05 -2.31614 -2.24844 0
M  V30 6116 H 544.102 -3.78976 -0.328886 0
M  V30 6117 H 545.414 -4.94554 -0.649414 0
M  V30 6118 H 544.568 -5.28435 -2.98063 0
M  V30 6119 H 543.307 -4.04552 -2.72376 0
M  V30 6120 H 542.312 -5.42728 -0.879004 0
M  V30 6121 H 543.537 -6.6913 -1.1594 0
M  V30 6122 H 541.483 -5.73298 -3.1885 0
M  V30 6123 H 541.4 -7.20752 -2.28151 0
M  V30 6124 H 542.668 -6.98968 -3.45056 0
M  V30 6125 N 546.897 -0.0685191 -1.57451 0
M  V30 6126 C 548.174 0.642167 -1.84758 0
M  V30 6127 C 548.554 1.87991 -0.960344 0
M  V30 6128 O 547.902 2.28485 -0.0257894 0
M  V30 6129 C 548.112 0.982946 -3.34872 0
M  V30 6130 C 549.46 1.35784 -4.02303 0
M  V30 6131 O 550.484 1.07477 -3.39598 0
M  V30 6132 O 549.343 1.88681 -5.12895 0
M  V30 6133 H 546.437 0.318625 -0.763156 0
M  V30 6134 H 548.983 -0.0992015 -1.6941 0
M  V30 6135 H 547.755 0.10372 -3.91163 0
M  V30 6136 H 547.378 1.78119 -3.55471 0
M  V30 6137 N 548.375 1.56261 0.205012 0
M  V30 6138 C 549.6 1.84491 0.947512 0
M  V30 6139 C 550.025 0.650894 1.76479 0
M  V30 6140 O 549.383 -0.40035 1.76824 0
M  V30 6141 C 549.431 3.10863 1.82747 0
M  V30 6142 O 548.535 2.90719 2.925 0
M  V30 6143 H 547.876 0.607783 0.267386 0
M  V30 6144 H 550.406 2.03485 0.213323 0
M  V30 6145 H 550.416 3.41399 2.23407 0
M  V30 6146 H 549.091 3.97392 1.2269 0
M  V30 6147 H 547.668 2.71457 2.55667 0
M  V30 6148 N 549.853 -0.472356 1.50355 0
M  V30 6149 C 551.101 -1.22211 1.60962 0
M  V30 6150 C 551.422 -1.92497 0.311439 0
M  V30 6151 O 550.692 -1.8405 -0.671002 0
M  V30 6152 H 549.272 -0.454092 0.593135 0
M  V30 6153 H 551.934 -0.544977 1.87126 0
M  V30 6154 H 551.03 -1.9707 2.42012 0
M  V30 6155 N 551.331 -1.39911 -0.725443 0
M  V30 6156 C 552.608 -1.28158 -1.47766 0
M  V30 6157 C 552.988 0.104545 -2.10841 0
M  V30 6158 O 552.336 1.11657 -1.99361 0
M  V30 6159 C 552.546 -2.41306 -2.52135 0
M  V30 6160 C 553.894 -2.81076 -3.18247 0
M  V30 6161 O 554.918 -2.40827 -2.62452 0
M  V30 6162 O 553.777 -3.50581 -4.19231 0
M  V30 6163 H 550.871 -0.502761 -0.656628 0
M  V30 6164 H 553.417 -1.51808 -0.758456 0
M  V30 6165 H 552.189 -3.33932 -2.03974 0
M  V30 6166 H 551.812 -2.19374 -3.31603 0
M  V30 6167 N 552.809 0.956637 -1.25245 0
M  V30 6168 C 554.055 1.70352 -1.10036 0
M  V30 6169 C 554.388 1.90869 0.358156 0
M  V30 6170 O 553.663 1.47819 1.26411 0
M  V30 6171 C 553.946 3.08766 -1.85298 0
M  V30 6172 C 553.799 2.95672 -3.38966 0
M  V30 6173 C 555.118 4.08622 -1.63451 0
M  V30 6174 H 552.237 0.618279 -0.401123 0
M  V30 6175 H 554.879 1.11212 -1.54051 0
M  V30 6176 H 553.029 3.59252 -1.47887 0
M  V30 6177 H 554.701 2.52527 -3.86041 0
M  V30 6178 H 552.944 2.31634 -3.6678 0
M  V30 6179 H 553.615 3.93776 -3.86839 0
M  V30 6180 H 556.091 3.67038 -1.96015 0
M  V30 6181 H 554.967 5.03514 -2.18551 0
M  V30 6182 H 555.228 4.3834 -0.575357 0
M  V30 6183 N 554.287 1.06798 1.15896 0
M  V30 6184 C 555.25 0.687328 2.18651 0
M  V30 6185 C 556.25 -0.269559 1.58524 0
M  V30 6186 O 557.44 -0.0512627 1.74125 0
M  V30 6187 C 554.572 0.0121642 3.40898 0
M  V30 6188 H 555.765 1.59701 2.53842 0
M  V30 6189 H 553.318 0.863828 1.3026 0
M  V30 6190 H 554.053 -0.910025 3.1127 0
M  V30 6191 H 553.838 0.700309 3.85795 0
M  V30 6192 H 555.328 -0.239703 4.16911 0
M  V30 6193 N 555.766 -1.3263 0.851289 0
M  V30 6194 C 556.729 -2.27247 0.298541 0
M  V30 6195 C 557.729 -1.51467 -0.539847 0
M  V30 6196 O 558.919 -1.7061 -0.351843 0
M  V30 6197 C 556.051 -3.35964 -0.578004 0
M  V30 6198 H 557.244 -2.7765 1.13359 0
M  V30 6199 H 554.797 -1.43245 0.625354 0
M  V30 6200 H 555.532 -2.90823 -1.435 0
M  V30 6201 H 555.317 -3.92094 0.0220539 0
M  V30 6202 H 556.807 -4.06472 -0.957626 0
M  V30 6203 N 557.244 -0.608902 -1.45362 0
M  V30 6204 C 558.174 0.0964526 -2.33301 0
M  V30 6205 C 559.155 0.857444 -1.46908 0
M  V30 6206 O 560.34 0.827735 -1.75676 0
M  V30 6207 C 557.47 1.09354 -3.29635 0
M  V30 6208 C 556.424 0.445676 -4.25673 0
M  V30 6209 C 555.75 1.5511 -5.11708 0
M  V30 6210 C 557.05 -0.633972 -5.18438 0
M  V30 6211 H 558.744 -0.637829 -2.92527 0
M  V30 6212 H 556.29 -0.308178 -1.40664 0
M  V30 6213 H 558.243 1.59556 -3.90025 0
M  V30 6214 H 556.967 1.85843 -2.6857 0
M  V30 6215 H 555.626 -0.0354897 -3.66583 0
M  V30 6216 H 555.274 2.30631 -4.4701 0
M  V30 6217 H 554.974 1.12311 -5.76767 0
M  V30 6218 H 556.498 2.05537 -5.74967 0
M  V30 6219 H 557.912 -0.215974 -5.72893 0
M  V30 6220 H 556.309 -0.983789 -5.91981 0
M  V30 6221 H 557.379 -1.51005 -4.60788 0
M  V30 6222 N 558.722 1.53707 -0.348139 0
M  V30 6223 C 560.138 1.596 0.00361134 0
M  V30 6224 C 560.338 1.36394 1.4832 0
M  V30 6225 O 559.394 1.16046 2.24253 0
M  V30 6226 C 560.707 2.97512 -0.436682 0
M  V30 6227 C 562.255 3.10568 -0.389416 0
M  V30 6228 C 562.73 4.50866 -0.805249 0
M  V30 6229 N 564.221 4.56929 -0.759616 0
M  V30 6230 C 564.956 5.63643 -1.05327 0
M  V30 6231 N 564.452 6.78189 -1.41531 0
M  V30 6232 N 566.245 5.5354 -0.977207 0
M  V30 6233 H 558.396 1.67044 -1.31187 0
M  V30 6234 H 560.659 0.782559 -0.535075 0
M  V30 6235 H 560.365 3.19575 -1.46849 0
M  V30 6236 H 560.239 3.76742 0.185744 0
M  V30 6237 H 562.626 2.88226 0.633228 0
M  V30 6238 H 562.707 2.33387 -1.04711 0
M  V30 6239 H 562.351 4.73943 -1.82593 0
M  V30 6240 H 562.281 5.26452 -0.124989 0
M  V30 6241 H 564.772 3.74675 -0.49265 0
M  V30 6242 H 565.085 7.55541 -1.62411 0
M  V30 6243 H 563.43 6.79624 -1.45381 0
M  V30 6244 H 566.621 4.62932 -0.693675 0
M  V30 6245 H 566.794 6.36614 -1.2094 0
M  V30 6246 N 560.2 0.0768682 1.57412 0
M  V30 6247 C 561.448 -0.589918 1.93299 0
M  V30 6248 C 561.769 -1.69842 0.958049 0
M  V30 6249 O 561.039 -1.95899 0.00703261 0
M  V30 6250 H 559.619 -0.220901 0.713591 0
M  V30 6251 H 562.281 0.135917 1.94425 0
M  V30 6252 H 561.377 -1.01195 2.95239 0
M  V30 6253 N 561.678 -1.56367 -0.196722 0
M  V30 6254 C 562.903 -1.84991 -0.937714 0
M  V30 6255 C 563.328 -0.660244 -1.76132 0
M  V30 6256 O 562.686 0.390967 -1.77034 0
M  V30 6257 C 562.734 -3.11828 -1.81096 0
M  V30 6258 O 561.838 -2.92266 -2.90955 0
M  V30 6259 H 561.179 -0.609193 -0.264159 0
M  V30 6260 H 563.709 -2.03595 -0.202529 0
M  V30 6261 H 563.719 -3.42579 -2.21594 0
M  V30 6262 H 562.394 -3.98037 -1.2058 0
M  V30 6263 H 560.971 -2.72809 -2.54224 0
M  V30 6264 N 563.156 0.464375 -1.50603 0
M  V30 6265 C 564.572 0.798684 -1.38178 0
M  V30 6266 C 564.772 1.96568 -0.44308 0
M  V30 6267 O 563.828 2.52252 0.111814 0
M  V30 6268 C 565.141 1.10444 -2.79683 0
M  V30 6269 C 566.689 1.2105 -2.88645 0
M  V30 6270 C 567.164 1.54934 -4.30998 0
M  V30 6271 N 568.655 1.61913 -4.3398 0
M  V30 6272 C 569.39 1.8965 -5.41129 0
M  V30 6273 N 568.886 2.15361 -6.58477 0
M  V30 6274 N 570.679 1.91207 -5.28579 0
M  V30 6275 H 562.83 -0.304603 -2.10204 0
M  V30 6276 H 565.093 -0.0737804 -0.945125 0
M  V30 6277 H 564.799 0.319934 -3.50242 0
M  V30 6278 H 564.673 2.03896 -3.17342 0
M  V30 6279 H 567.06 1.98567 -2.18301 0
M  V30 6280 H 567.141 0.255613 -2.5452 0
M  V30 6281 H 566.785 0.779549 -5.01882 0
M  V30 6282 H 566.715 2.51584 -4.62615 0
M  V30 6283 H 569.206 1.44055 -3.49366 0
M  V30 6284 H 569.519 2.35818 -7.35941 0
M  V30 6285 H 567.864 2.1274 -6.6164 0
M  V30 6286 H 571.055 1.70622 -4.35897 0
M  V30 6287 H 571.228 2.12488 -6.12171 0
M  V30 6288 N 564.634 1.40294 0.718013 0
M  V30 6289 C 565.581 1.40367 1.8321 0
M  V30 6290 C 566.551 0.260952 1.64037 0
M  V30 6291 O 567.736 0.458648 1.85205 0
M  V30 6292 C 564.876 1.26965 3.20895 0
M  V30 6293 C 563.989 2.50922 3.51656 0
M  V30 6294 C 563.124 2.29981 4.78834 0
M  V30 6295 C 562.163 3.49527 5.02491 0
M  V30 6296 N 561.3 3.27796 6.20882 0
M  V30 6297 H 566.14 2.35593 1.82482 0
M  V30 6298 H 563.677 1.17012 0.891444 0
M  V30 6299 H 565.635 1.17202 4.00399 0
M  V30 6300 H 564.265 0.353591 3.20858 0
M  V30 6301 H 563.317 2.71223 2.66725 0
M  V30 6302 H 564.629 3.39913 3.65048 0
M  V30 6303 H 563.783 2.17558 5.66351 0
M  V30 6304 H 562.522 1.38411 4.67647 0
M  V30 6305 H 561.527 3.6243 4.1343 0
M  V30 6306 H 562.752 4.42021 5.15553 0
M  V30 6307 H 560.698 2.38906 6.1095 0
M  V30 6308 H 560.615 4.10351 6.34939 0
M  V30 6309 H 561.883 3.19101 7.11193 0
M  V30 6310 N 566.112 -0.949982 1.2575 0
M  V30 6311 C 567.359 -1.69515 1.10774 0
M  V30 6312 C 567.687 -1.91316 -0.350479 0
M  V30 6313 O 566.942 -1.48515 -1.27443 0
M  V30 6314 C 567.241 -3.08039 1.81237 0
M  V30 6315 C 566.907 -3.06023 3.31151 0
M  V30 6316 C 565.569 -3.0518 3.72047 0
M  V30 6317 C 567.921 -2.98998 4.26907 0
M  V30 6318 C 565.249 -2.95067 5.07102 0
M  V30 6319 C 567.601 -2.90426 5.61992 0
M  V30 6320 C 566.265 -2.87922 6.0221 0
M  V30 6321 H 565.535 -0.6203 0.405351 0
M  V30 6322 H 568.182 -1.10953 1.56082 0
M  V30 6323 H 566.487 -3.70172 1.28373 0
M  V30 6324 H 568.184 -3.64526 1.67098 0
M  V30 6325 H 564.774 -3.07453 2.98614 0
M  V30 6326 H 568.958 -2.98764 3.963 0
M  V30 6327 H 564.214 -2.915 5.37436 0
M  V30 6328 H 568.388 -2.83952 6.35881 0
M  V30 6329 H 566.015 -2.79841 7.06819 0
M  V30 6330 N 567.59 -1.07411 -1.15328 0
M  V30 6331 C 568.538 -0.689316 -2.22151 0
M  V30 6332 C 569.532 0.300156 -1.6672 0
M  V30 6333 O 570.738 0.163804 -1.79253 0
M  V30 6334 H 567.113 -0.204834 -0.723566 0
M  V30 6335 H 569.084 -1.59988 -2.51886 0
M  V30 6336 C 567.833 -0.103848 -3.47545 0
M  V30 6337 H 567.156 -0.856367 -3.90521 0
M  V30 6338 H 568.596 0.127725 -4.23808 0
M  V30 6339 C 567.055 1.15563 -3.1646 0
M  V30 6340 O 567.585 2.242 -3.33312 0
M  V30 6341 N 565.791 1.06203 -2.70498 0
M  V30 6342 H 565.338 0.177933 -2.56985 0
M  V30 6343 H 565.296 1.90553 -2.50074 0
M  V30 6344 N 569.068 1.32177 -0.85831 0
M  V30 6345 C 570.317 1.96392 -0.459689 0
M  V30 6346 C 570.63 1.68659 0.990632 0
M  V30 6347 O 571.836 2.26641 1.49485 0
M  V30 6348 C 570.292 3.51542 -0.7711 0
M  V30 6349 C 569.9 3.8813 -2.2374 0
M  V30 6350 C 571.644 4.2221 -0.44038 0
M  V30 6351 C 569.551 5.36341 -2.49183 0
M  V30 6352 H 568.481 0.735007 -0.168169 0
M  V30 6353 H 571.132 1.50518 -1.0496 0
M  V30 6354 H 569.514 3.95846 -0.11058 0
M  V30 6355 H 570.688 3.54824 -2.94001 0
M  V30 6356 H 569.003 3.30497 -2.533 0
M  V30 6357 H 571.6 5.31234 -0.607855 0
M  V30 6358 H 571.943 4.11683 0.618291 0
M  V30 6359 H 572.476 3.83502 -1.05695 0
M  V30 6360 H 569.215 5.51892 -3.53689 0
M  V30 6361 H 568.735 5.7104 -1.83504 0
M  V30 6362 H 570.414 6.03466 -2.33318 0
M  V30 6363 N 570.547 0.616602 1.45037 0
M  V30 6364 C 571.477 -0.0840787 2.33349 0
M  V30 6365 C 572.458 -0.849641 1.4736 0
M  V30 6366 O 573.643 -0.818407 1.76113 0
M  V30 6367 C 570.773 -1.07604 3.3021 0
M  V30 6368 C 569.727 -0.423096 4.25904 0
M  V30 6369 C 569.053 -1.52394 5.12523 0
M  V30 6370 C 570.353 0.661457 5.18095 0
M  V30 6371 H 572.047 0.653333 2.92185 0
M  V30 6372 H 569.593 0.315634 1.40498 0
M  V30 6373 H 571.546 -1.57485 3.90866 0
M  V30 6374 H 570.27 -1.84416 2.69552 0
M  V30 6375 H 568.929 0.05493 3.66559 0
M  V30 6376 H 568.577 -2.28257 4.48227 0
M  V30 6377 H 568.277 -1.09251 5.77354 0
M  V30 6378 H 569.801 -2.02485 5.76049 0
M  V30 6379 H 571.215 0.246353 5.7277 0
M  V30 6380 H 569.612 1.01517 5.91451 0
M  V30 6381 H 570.682 1.53446 4.59981 0
M  V30 6382 N 572.025 -1.5352 0.356285 0
M  V30 6383 C 573.273 -2.00719 -0.235837 0
M  V30 6384 C 573.594 -1.24551 -1.5004 0
M  V30 6385 O 572.864 -0.356185 -1.92635 0
M  V30 6386 H 571.444 -0.741542 -0.0901366 0
M  V30 6387 H 574.106 -1.88887 0.480378 0
M  V30 6388 H 573.202 -3.08551 -0.469357 0
M  V30 6389 N 573.503 -0.0852151 -1.57369 0
M  V30 6390 C 574.731 0.58946 -1.98325 0
M  V30 6391 C 575.146 1.62333 -0.96403 0
M  V30 6392 O 574.503 1.82438 0.0476395 0
M  V30 6393 C 574.554 1.24604 -3.39347 0
M  V30 6394 O 574.275 0.253532 -4.37366 0
M  V30 6395 C 575.776 2.00726 -3.95252 0
M  V30 6396 H 572.996 0.158783 -0.651942 0
M  V30 6397 H 575.54 -0.161584 -2.03861 0
M  V30 6398 H 573.695 1.94808 -3.34856 0
M  V30 6399 H 574.109 0.726207 -5.19448 0
M  V30 6400 H 575.583 2.42039 -4.96106 0
M  V30 6401 H 576.06 2.86919 -3.32527 0
M  V30 6402 H 576.666 1.3536 -4.03185 0
M  V30 6403 N 574.981 1.5647 0.188427 0
M  V30 6404 C 575.929 1.95971 1.25293 0
M  V30 6405 C 576.923 0.846047 1.4676 0
M  V30 6406 O 578.129 1.03109 1.47542 0
M  V30 6407 H 574.504 0.623253 0.420784 0
M  V30 6408 H 576.475 2.84731 0.892792 0
M  V30 6409 C 575.224 2.32116 2.58877 0
M  V30 6410 H 574.547 3.17341 2.43176 0
M  V30 6411 H 575.987 2.63613 3.3209 0
M  V30 6412 C 574.446 1.15823 3.16365 0
M  V30 6413 O 574.976 0.436785 3.99318 0
M  V30 6414 N 573.182 0.933278 2.75206 0
M  V30 6415 H 572.729 1.52169 2.07852 0
M  V30 6416 H 572.687 0.156976 3.14008 0
M  V30 6417 N 576.459 -0.456382 1.50847 0
M  V30 6418 C 577.687 -1.23026 1.66349 0
M  V30 6419 C 578.102 -1.85473 0.352868 0
M  V30 6420 O 577.459 -1.69885 -0.666739 0
M  V30 6421 C 577.51 -2.32827 2.76539 0
M  V30 6422 O 577.231 -1.72938 4.02522 0
M  V30 6423 C 578.732 -3.23448 3.03144 0
M  V30 6424 H 575.952 -0.371527 0.558756 0
M  V30 6425 H 578.496 -0.543082 1.97157 0
M  V30 6426 H 576.651 -2.97294 2.48384 0
M  V30 6427 H 577.065 -2.45357 4.63573 0
M  V30 6428 H 578.539 -3.96669 3.83872 0
M  V30 6429 H 579.016 -3.83094 2.14793 0
M  V30 6430 H 579.622 -2.64702 3.32886 0
M  V30 6431 N 577.937 -1.40673 -0.710563 0
M  V30 6432 C 578.884 -1.41336 -1.82463 0
M  V30 6433 C 579.854 -0.269648 -1.63897 0
M  V30 6434 O 581.039 -0.468463 -1.8496 0
M  V30 6435 C 578.179 -1.28665 -3.20218 0
M  V30 6436 C 577.292 -2.52784 -3.5032 0
M  V30 6437 C 576.427 -2.32517 -4.77608 0
M  V30 6438 C 575.466 -3.52187 -5.0063 0
M  V30 6439 N 574.603 -3.31084 -6.19135 0
M  V30 6440 H 579.443 -2.36558 -1.8123 0
M  V30 6441 H 576.98 -1.17483 -0.885226 0
M  V30 6442 H 578.938 -1.19324 -3.99772 0
M  V30 6443 H 577.568 -0.370602 -3.20666 0
M  V30 6444 H 576.62 -2.72634 -2.65283 0
M  V30 6445 H 577.932 -3.41845 -3.63241 0
M  V30 6446 H 577.086 -2.20558 -5.65189 0
M  V30 6447 H 575.825 -1.40889 -4.66906 0
M  V30 6448 H 574.83 -3.64617 -4.11502 0
M  V30 6449 H 576.055 -4.44749 -5.13201 0
M  V30 6450 H 574.001 -2.42143 -6.09674 0
M  V30 6451 H 573.918 -4.13713 -6.32754 0
M  V30 6452 H 575.186 -3.22868 -7.0949 0
M  V30 6453 N 579.415 0.9433 -1.26252 0
M  V30 6454 C 580.661 1.69175 -1.11837 0
M  V30 6455 C 580.994 1.91238 0.337891 0
M  V30 6456 O 580.269 1.49152 1.24836 0
M  V30 6457 C 580.552 3.06783 -1.88563 0
M  V30 6458 C 580.405 2.9206 -3.42083 0
M  V30 6459 C 581.724 4.06865 -1.67776 0
M  V30 6460 H 578.843 0.61399 -0.407658 0
M  V30 6461 H 581.485 1.09572 -1.55222 0
M  V30 6462 H 579.635 3.57663 -1.51689 0
M  V30 6463 H 581.307 2.48419 -3.88698 0
M  V30 6464 H 579.55 2.27731 -3.69217 0
M  V30 6465 H 580.221 3.89651 -3.90994 0
M  V30 6466 H 582.697 3.64939 -1.99897 0
M  V30 6467 H 581.573 5.01168 -2.23879 0
M  V30 6468 H 581.834 4.37705 -0.621816 0
M  V30 6469 N 580.893 1.08022 1.14757 0
M  V30 6470 C 581.826 0.650738 2.18725 0
M  V30 6471 C 582.804 -0.335496 1.59101 0
M  V30 6472 O 583.988 -0.240295 1.86962 0
M  V30 6473 C 581.115 -0.0434377 3.38672 0
M  V30 6474 C 580.161 0.90232 4.16846 0
M  V30 6475 S 580.994 2.40693 4.78359 0
M  V30 6476 C 582.15 1.72475 6.01667 0
M  V30 6477 H 582.383 1.53152 2.54817 0
M  V30 6478 H 579.916 0.894823 1.25826 0
M  V30 6479 H 581.874 -0.437684 4.0816 0
M  V30 6480 H 580.535 -0.900659 3.0091 0
M  V30 6481 H 579.728 0.363445 5.02688 0
M  V30 6482 H 579.33 1.23728 3.52941 0
M  V30 6483 H 581.622 1.0404 6.69464 0
M  V30 6484 H 582.565 2.56175 6.60136 0
M  V30 6485 H 582.973 1.19979 5.51602 0
M  V30 6486 N 582.371 -1.3172 0.865308 0
M  V30 6487 C 583.319 -2.30569 0.306674 0
M  V30 6488 C 584.313 -1.59317 -0.575724 0
M  V30 6489 O 585.519 -1.73961 -0.462343 0
M  V30 6490 H 581.894 -0.747681 0.0804834 0
M  V30 6491 H 583.865 -2.75165 1.15441 0
M  V30 6492 C 582.614 -3.44358 -0.480952 0
M  V30 6493 H 581.937 -3.99354 0.18876 0
M  V30 6494 H 583.377 -4.15652 -0.837241 0
M  V30 6495 C 581.836 -2.92574 -1.67039 0
M  V30 6496 O 582.366 -2.90954 -2.76964 0
M  V30 6497 N 580.572 -2.48835 -1.50097 0
M  V30 6498 H 580.119 -2.50353 -0.606738 0
M  V30 6499 H 580.077 -2.14543 -2.29823 0
M  V30 6500 N 583.85 -0.624285 -1.44708 0
M  V30 6501 C 584.783 0.133905 -2.27807 0
M  V30 6502 C 585.76 0.857794 -1.38133 0
M  V30 6503 O 586.945 0.863277 -1.6757 0
M  V30 6504 C 584.072 1.19541 -3.16903 0
M  V30 6505 C 583.118 0.572813 -4.22636 0
M  V30 6506 S 583.951 -0.631953 -5.31758 0
M  V30 6507 C 585.106 0.429733 -6.24423 0
M  V30 6508 H 585.34 -0.571072 -2.91764 0
M  V30 6509 H 582.873 -0.412261 -1.48794 0
M  V30 6510 H 584.831 1.80293 -3.68788 0
M  V30 6511 H 583.492 1.87255 -2.5218 0
M  V30 6512 H 582.685 1.37205 -4.84965 0
M  V30 6513 H 582.287 0.0400641 -3.73979 0
M  V30 6514 H 584.579 1.30421 -6.64828 0
M  V30 6515 H 585.522 -0.157804 -7.07924 0
M  V30 6516 H 585.93 0.75256 -5.59461 0
M  V30 6517 N 585.328 1.53329 -0.364422 0
M  V30 6518 C 586.238 2.29414 0.490552 0
M  V30 6519 C 587.254 1.35335 1.09363 0
M  V30 6520 O 588.43 1.68391 1.10483 0
M  V30 6521 C 585.495 3.06772 1.61529 0
M  V30 6522 C 584.556 4.16516 1.03986 0
M  V30 6523 C 583.789 4.90176 2.111 0
M  V30 6524 O 584.012 4.63687 3.32191 0
M  V30 6525 O 582.946 5.76134 1.74222 0
M  V30 6526 H 586.772 3.03428 -0.12856 0
M  V30 6527 H 584.357 1.48843 -0.128837 0
M  V30 6528 H 586.239 3.55082 2.26924 0
M  V30 6529 H 584.914 2.35596 2.21983 0
M  V30 6530 H 583.821 3.7246 0.349856 0
M  V30 6531 H 585.154 4.89855 0.4799 0
M  V30 6532 N 586.806 0.0935595 1.57322 0
M  V30 6533 C 587.716 -0.880192 2.17462 0
M  V30 6534 C 588.732 -1.31135 1.14366 0
M  V30 6535 O 589.908 -1.37958 1.46729 0
M  V30 6536 C 586.973 -2.12184 2.74188 0
M  V30 6537 C 586.034 -1.74503 3.92234 0
M  V30 6538 C 585.267 -2.92748 4.46245 0
M  V30 6539 O 585.49 -4.07427 3.99198 0
M  V30 6540 O 584.424 -2.71303 5.37288 0
M  V30 6541 H 588.25 -0.398516 3.01074 0
M  V30 6542 H 585.835 -0.130707 1.48827 0
M  V30 6543 H 587.717 -2.84953 3.10451 0
M  V30 6544 H 586.392 -2.59407 1.93623 0
M  V30 6545 H 585.299 -0.989186 3.60785 0
M  V30 6546 H 586.632 -1.32044 4.74157 0
M  V30 6547 N 588.284 -1.56567 -0.180126 0
M  V30 6548 C 589.509 -1.85975 -0.918041 0
M  V30 6549 C 589.934 -0.678888 -1.75422 0
M  V30 6550 O 589.292 0.372168 -1.77439 0
M  V30 6551 C 589.34 -3.13731 -1.77779 0
M  V30 6552 O 588.444 -2.95335 -2.87838 0
M  V30 6553 H 587.785 -0.61196 -0.257683 0
M  V30 6554 H 590.315 -2.03798 -0.180923 0
M  V30 6555 H 590.325 -3.4491 -2.17948 0
M  V30 6556 H 589 -3.99293 -1.16352 0
M  V30 6557 H 587.577 -2.7549 -2.51316 0
M  V30 6558 N 589.762 0.448376 -1.51087 0
M  V30 6559 C 590.71 1.56407 -1.72161 0
M  V30 6560 C 591.704 1.58878 -0.587721 0
M  V30 6561 O 592.91 1.62755 -0.768822 0
M  V30 6562 H 589.285 0.519423 -0.543786 0
M  V30 6563 H 591.256 1.35803 -2.65707 0
M  V30 6564 C 590.005 2.94163 -1.85373 0
M  V30 6565 H 589.328 2.9299 -2.72024 0
M  V30 6566 H 590.768 3.71625 -2.04135 0
M  V30 6567 C 589.227 3.31317 -0.610803 0
M  V30 6568 O 589.757 4.00985 0.239636 0
M  V30 6569 N 587.963 2.86966 -0.458127 0
M  V30 6570 H 587.51 2.30443 -1.15124 0
M  V30 6571 H 587.468 3.12188 0.372289 0
M  V30 6572 N 591.24 1.41047 0.703093 0
M  V30 6573 C 592.188 1.42494 1.83843 0
M  V30 6574 C 593.182 0.303885 1.66652 0
M  V30 6575 O 594.388 0.475544 1.73605 0
M  V30 6576 H 590.763 0.445685 0.605697 0
M  V30 6577 H 592.734 2.38194 1.79739 0
M  V30 6578 C 591.483 1.31666 3.21807 0
M  V30 6579 H 590.806 2.17212 3.35647 0
M  V30 6580 H 592.246 1.36738 4.01346 0
M  V30 6581 C 590.705 0.0281828 3.36888 0
M  V30 6582 O 591.235 -0.929995 3.90786 0
M  V30 6583 N 589.441 -0.0454322 2.90564 0
M  V30 6584 H 588.988 0.735046 2.4689 0
M  V30 6585 H 588.946 -0.906968 3.01034 0
M  V30 6586 N 592.718 -0.936591 1.26751 0
M  V30 6587 C 593.966 -1.67998 1.12343 0
M  V30 6588 C 594.287 -1.92137 -0.332938 0
M  V30 6589 O 593.557 -1.52132 -1.23421 0
M  V30 6590 H 592.137 -0.622609 0.412756 0
M  V30 6591 H 594.799 -1.12509 1.59147 0
M  V30 6592 H 593.895 -2.65185 1.64571 0
M  V30 6593 N 594.196 -1.08629 -1.14182 0
M  V30 6594 C 595.421 -0.83902 -1.89671 0
M  V30 6595 C 595.846 0.603332 -1.78161 0
M  V30 6596 O 595.204 1.42301 -1.12339 0
M  V30 6597 C 595.252 -1.26854 -3.37551 0
M  V30 6598 O 594.356 -0.42188 -4.10236 0
M  V30 6599 H 593.697 -0.304545 -0.590041 0
M  V30 6600 H 596.227 -1.4483 -1.44518 0
M  V30 6601 H 596.237 -1.25038 -3.88368 0
M  V30 6602 H 594.912 -2.31901 -3.45246 0
M  V30 6603 H 593.489 -0.503654 -3.69483 0
M  V30 6604 N 595.674 1.31259 -0.872281 0
M  V30 6605 C 596.604 2.30929 -0.345554 0
M  V30 6606 C 597.585 1.60449 0.5648 0
M  V30 6607 O 598.77 1.8814 0.481335 0
M  V30 6608 C 595.9 3.44348 0.451823 0
M  V30 6609 C 594.854 4.26435 -0.365641 0
M  V30 6610 C 594.18 5.31785 0.557562 0
M  V30 6611 C 595.48 4.97159 -1.60095 0
M  V30 6612 H 597.174 2.75234 -1.17841 0
M  V30 6613 H 594.72 1.3232 -0.568094 0
M  V30 6614 H 596.673 4.13128 0.830854 0
M  V30 6615 H 595.397 2.98816 1.31821 0
M  V30 6616 H 594.056 3.59326 -0.726649 0
M  V30 6617 H 593.704 4.82502 1.4213 0
M  V30 6618 H 593.404 5.87598 0.0144878 0
M  V30 6619 H 594.928 6.03424 0.933387 0
M  V30 6620 H 596.342 5.58523 -1.29323 0
M  V30 6621 H 594.739 5.62779 -2.08327 0
M  V30 6622 H 595.809 4.24012 -2.35249 0
M  V30 6623 N 597.152 0.631951 1.44375 0
M  V30 6624 C 598.377 0.142146 2.06912 0
M  V30 6625 C 598.802 -1.17456 1.4692 0
M  V30 6626 O 598.16 -1.72074 0.570975 0
M  V30 6627 C 598.208 0.0417952 3.60576 0
M  V30 6628 O 597.312 -1.00194 4.00044 0
M  V30 6629 H 596.653 0.0851491 0.658518 0
M  V30 6630 H 599.183 0.868863 1.85235 0
M  V30 6631 H 599.193 -0.148517 4.0773 0
M  V30 6632 H 597.868 1.0031 4.03622 0
M  V30 6633 H 596.445 -0.786131 3.64519 0
M  V30 6634 N 598.631 -1.53133 0.372548 0
M  V30 6635 C 599.594 -2.24569 -0.458389 0
M  V30 6636 C 600.594 -1.25603 -1.00402 0
M  V30 6637 O 601.784 -1.49827 -0.888672 0
M  V30 6638 C 598.916 -2.98783 -1.6414 0
M  V30 6639 H 600.109 -2.99436 0.166799 0
M  V30 6640 H 597.662 -1.55805 0.124357 0
M  V30 6641 H 598.397 -2.28176 -2.30448 0
M  V30 6642 H 598.182 -3.71404 -1.25704 0
M  V30 6643 H 599.672 -3.53068 -2.23008 0
M  V30 6644 N 600.109 -0.101901 -1.5727 0
M  V30 6645 C 601.019 0.868647 -2.17926 0
M  V30 6646 C 602.035 1.30527 -1.1506 0
M  V30 6647 O 603.211 1.37178 -1.47459 0
M  V30 6648 C 600.276 2.10727 -2.75309 0
M  V30 6649 C 599.337 1.7242 -3.93154 0
M  V30 6650 C 598.57 2.90377 -4.47791 0
M  V30 6651 O 598.793 4.05305 -4.01353 0
M  V30 6652 O 597.727 2.6845 -5.38719 0
M  V30 6653 H 601.553 0.382544 -3.01281 0
M  V30 6654 H 599.138 0.122812 -1.48894 0
M  V30 6655 H 601.02 2.83303 -3.11958 0
M  V30 6656 H 599.695 2.58376 -1.94996 0
M  V30 6657 H 598.602 0.970039 -3.61305 0
M  V30 6658 H 599.935 1.29528 -4.74851 0
M  V30 6659 N 601.587 1.56661 0.17182 0
M  V30 6660 C 602.834 1.81965 0.888529 0
M  V30 6661 C 603.162 0.6789 1.82267 0
M  V30 6662 O 602.417 -0.333875 1.92831 0
M  V30 6663 C 602.716 3.13435 1.71736 0
M  V30 6664 C 602.382 4.41159 0.932184 0
M  V30 6665 C 601.044 4.75851 0.715481 0
M  V30 6666 C 603.396 5.19803 0.381387 0
M  V30 6667 C 600.724 5.86666 -0.063126 0
M  V30 6668 C 603.076 6.31433 -0.384129 0
M  V30 6669 C 601.74 6.64692 -0.611637 0
M  V30 6670 H 601.01 0.665859 0.325136 0
M  V30 6671 H 603.657 1.90884 0.153495 0
M  V30 6672 H 601.962 2.99857 2.52177 0
M  V30 6673 H 603.659 3.30224 2.27493 0
M  V30 6674 H 600.249 4.13947 1.11112 0
M  V30 6675 H 604.433 4.93396 0.536148 0
M  V30 6676 H 599.689 6.10892 -0.249136 0
M  V30 6677 H 603.863 6.91577 -0.818185 0
M  V30 6678 H 601.49 7.50398 -1.21684 0
M  V30 6679 N 603.065 -0.440357 1.51323 0
M  V30 6680 C 604.012 -1.53429 1.72419 0
M  V30 6681 C 604.982 -1.56165 0.565826 0
M  V30 6682 O 606.167 -1.73222 0.799917 0
M  V30 6683 C 603.307 -2.91169 1.85242 0
M  V30 6684 C 602.42 -2.97985 3.12777 0
M  V30 6685 C 601.555 -4.26829 3.16212 0
M  V30 6686 C 600.594 -4.27501 4.38074 0
M  V30 6687 N 599.731 -5.47866 4.39076 0
M  V30 6688 H 604.571 -1.34743 2.65797 0
M  V30 6689 H 602.108 -0.654608 1.31732 0
M  V30 6690 H 604.066 -3.71087 1.90658 0
M  V30 6691 H 602.696 -3.0842 0.952744 0
M  V30 6692 H 601.748 -2.10749 3.16685 0
M  V30 6693 H 603.06 -2.94342 4.02696 0
M  V30 6694 H 602.214 -5.15118 3.20527 0
M  V30 6695 H 600.953 -4.33124 2.24176 0
M  V30 6696 H 599.958 -3.37606 4.33938 0
M  V30 6697 H 601.183 -4.22873 5.31371 0
M  V30 6698 H 599.129 -5.54887 3.49909 0
M  V30 6699 H 599.046 -5.46091 5.22801 0
M  V30 6700 H 600.314 -6.38195 4.4758 0
M  V30 6701 N 604.543 -1.41418 -0.695603 0
M  V30 6702 C 605.493 -1.39731 -1.80165 0
M  V30 6703 C 606.477 -0.271689 -1.5859 0
M  V30 6704 O 607.669 -0.512354 -1.69422 0
M  V30 6705 C 604.798 -1.28187 -3.1847 0
M  V30 6706 C 603.884 -2.45612 -3.45739 0
M  V30 6707 N 604.275 -3.71077 -3.43708 0
M  V30 6708 C 602.573 -2.39424 -3.76288 0
M  V30 6709 C 603.274 -4.48957 -3.69882 0
M  V30 6710 N 602.25 -3.7907 -3.89624 0
M  V30 6711 H 606.052 -2.34656 -1.76957 0
M  V30 6712 H 603.566 -1.35473 -0.89559 0
M  V30 6713 H 605.563 -1.2506 -3.977 0
M  V30 6714 H 604.223 -0.342468 -3.22889 0
M  V30 6715 H 605.234 -4.03963 -3.2409 0
M  V30 6716 H 601.911 -1.53955 -3.88077 0
M  V30 6717 H 603.301 -5.57887 -3.74448 0
M  V30 6718 N 606.021 0.929856 -1.27246 0
M  V30 6719 C 606.951 2.04722 -1.12299 0
M  V30 6720 C 607.932 1.70082 -0.0250464 0
M  V30 6721 O 609.117 1.93176 -0.199141 0
M  V30 6722 C 606.247 3.38721 -0.767145 0
M  V30 6723 C 605.201 3.87466 -1.81808 0
M  V30 6724 C 604.527 5.18246 -1.31626 0
M  V30 6725 C 605.827 4.11095 -3.22177 0
M  V30 6726 H 607.521 2.17485 -2.05769 0
M  V30 6727 H 605.067 1.04503 -0.990715 0
M  V30 6728 H 607.02 4.16366 -0.649413 0
M  V30 6729 H 605.744 3.25967 0.203259 0
M  V30 6730 H 604.403 3.12012 -1.92468 0
M  V30 6731 H 604.051 5.01881 -0.335378 0
M  V30 6732 H 603.751 5.51829 -2.01887 0
M  V30 6733 H 605.275 5.98462 -1.21143 0
M  V30 6734 H 606.689 4.79316 -3.1453 0
M  V30 6735 H 605.086 4.55982 -3.90129 0
M  V30 6736 H 606.156 3.16468 -3.67391 0
M  V30 6737 N 607.499 1.09233 1.13605 0
M  V30 6738 C 608.727 0.848908 1.88683 0
M  V30 6739 C 609.142 -0.599667 1.79024 0
M  V30 6740 O 608.499 -1.41265 1.15544 0
M  V30 6741 C 608.55 1.27273 3.38355 0
M  V30 6742 O 608.271 2.66449 3.47759 0
M  V30 6743 C 609.772 1.0614 4.30406 0
M  V30 6744 H 606.992 0.305549 0.597395 0
M  V30 6745 H 609.536 1.4538 1.43823 0
M  V30 6746 H 607.691 0.711776 3.80805 0
M  V30 6747 H 608.105 2.84264 4.40788 0
M  V30 6748 H 609.579 1.40725 5.33761 0
M  V30 6749 H 610.056 -0.000960332 4.392 0
M  V30 6750 H 610.662 1.60821 3.93722 0
M  V30 6751 N 608.977 -1.30795 0.87923 0
M  V30 6752 C 609.907 -2.30742 0.357796 0
M  V30 6753 C 610.888 -1.60747 -0.556283 0
M  V30 6754 O 612.073 -1.88393 -0.47135 0
M  V30 6755 C 609.203 -3.44583 -0.433555 0
M  V30 6756 C 608.157 -4.26235 0.388251 0
M  V30 6757 C 607.483 -5.32073 -0.529352 0
M  V30 6758 C 608.783 -4.96303 1.62729 0
M  V30 6759 H 610.477 -2.74605 1.19299 0
M  V30 6760 H 608.023 -1.32017 0.575104 0
M  V30 6761 H 609.976 -4.13563 -0.808934 0
M  V30 6762 H 608.7 -2.99511 -1.30234 0
M  V30 6763 H 607.359 -3.58936 0.745695 0
M  V30 6764 H 607.007 -4.83249 -1.39569 0
M  V30 6765 H 606.707 -5.87598 0.0166741 0
M  V30 6766 H 608.231 -6.0391 -0.901373 0
M  V30 6767 H 609.645 -5.5783 1.32283 0
M  V30 6768 H 608.042 -5.61666 2.11309 0
M  V30 6769 H 609.112 -4.22758 2.37494 0
M  V30 6770 N 610.455 -0.639598 -1.44038 0
M  V30 6771 C 611.871 -0.305953 -1.5664 0
M  V30 6772 C 612.071 1.19055 -1.62567 0
M  V30 6773 O 611.127 1.97492 -1.57331 0
M  V30 6774 C 612.44 -1.00533 -2.83397 0
M  V30 6775 C 613.988 -0.984278 -2.97121 0
M  V30 6776 C 614.463 -1.66428 -4.26691 0
M  V30 6777 N 615.954 -1.63127 -4.33525 0
M  V30 6778 C 616.689 -2.12629 -5.32519 0
M  V30 6779 N 616.185 -2.70359 -6.3787 0
M  V30 6780 N 617.978 -2.03208 -5.24083 0
M  V30 6781 H 610.129 -1.6109 -1.38434 0
M  V30 6782 H 612.392 -0.676672 -0.663942 0
M  V30 6783 H 612.098 -2.06034 -2.85032 0
M  V30 6784 H 611.972 -0.548362 -3.73193 0
M  V30 6785 H 614.359 0.0622792 -2.95034 0
M  V30 6786 H 614.44 -1.47981 -2.08651 0
M  V30 6787 H 614.084 -2.71034 -4.29538 0
M  V30 6788 H 614.014 -1.14351 -5.14034 0
M  V30 6789 H 616.505 -1.20987 -3.58009 0
M  V30 6790 H 616.818 -3.05842 -7.09704 0
M  V30 6791 H 615.163 -2.74414 -6.38531 0
M  V30 6792 H 618.354 -1.57823 -4.40692 0
M  V30 6793 H 618.527 -2.42097 -6.01077 0
M  V30 6794 N 611.933 1.52934 -0.380664 0
M  V30 6795 C 612.843 2.29921 0.466192 0
M  V30 6796 C 613.859 1.36488 1.07922 0
M  V30 6797 O 615.035 1.69553 1.0869 0
M  V30 6798 C 612.1 3.08468 1.58266 0
M  V30 6799 C 611.161 4.17595 0.995627 0
M  V30 6800 C 610.394 4.92387 2.05889 0
M  V30 6801 O 610.617 4.67184 3.27254 0
M  V30 6802 O 609.551 5.77949 1.68102 0
M  V30 6803 H 613.377 3.03274 -0.160735 0
M  V30 6804 H 610.962 1.48698 -0.144617 0
M  V30 6805 H 612.844 3.57469 2.23145 0
M  V30 6806 H 611.519 2.37937 2.19471 0
M  V30 6807 H 610.426 3.72811 0.310332 0
M  V30 6808 H 611.759 4.90336 0.427918 0
M  V30 6809 N 613.412 0.11024 1.57214 0
M  V30 6810 C 614.344 -0.873497 2.11902 0
M  V30 6811 C 615.357 -1.23588 1.05971 0
M  V30 6812 O 616.546 -1.18636 1.33371 0
M  V30 6813 C 613.646 -2.17805 2.59643 0
M  V30 6814 C 612.819 -1.98869 3.89576 0
M  V30 6815 C 611.878 -3.12974 4.23006 0
M  V30 6816 O 610.904 -2.86272 4.91973 0
M  V30 6817 N 612.106 -4.39167 3.79622 0
M  V30 6818 H 614.871 -0.406317 2.96933 0
M  V30 6819 H 612.432 -0.074437 1.61729 0
M  V30 6820 H 614.424 -2.93117 2.79042 0
M  V30 6821 H 612.994 -2.55899 1.7954 0
M  V30 6822 H 612.214 -1.078 3.79174 0
M  V30 6823 H 613.502 -1.83512 4.74553 0
M  V30 6824 H 612.9 -4.63739 3.2398 0
M  V30 6825 H 611.457 -5.11379 4.04147 0
M  V30 6826 N 614.89 -1.56749 -0.16351 0
M  V30 6827 C 616.306 -1.51043 -0.515567 0
M  V30 6828 C 616.506 -0.815855 -1.84245 0
M  V30 6829 O 615.562 -0.379477 -2.49632 0
M  V30 6830 C 616.875 -2.95791 -0.541114 0
M  V30 6831 C 618.423 -3.0664 -0.627776 0
M  V30 6832 C 618.898 -4.52861 -0.684141 0
M  V30 6833 N 620.389 -4.5714 -0.746818 0
M  V30 6834 C 621.124 -5.67634 -0.811137 0
M  V30 6835 N 620.62 -6.8774 -0.835811 0
M  V30 6836 N 622.413 -5.55624 -0.850756 0
M  V30 6837 H 614.564 -2.00307 0.70645 0
M  V30 6838 H 616.827 -0.912876 0.255659 0
M  V30 6839 H 616.533 -3.49797 0.365329 0
M  V30 6840 H 616.407 -3.50858 -1.38487 0
M  V30 6841 H 618.794 -2.52663 -1.52464 0
M  V30 6842 H 618.875 -2.54645 0.242805 0
M  V30 6843 H 618.519 -5.07472 0.2085 0
M  V30 6844 H 618.449 -5.02621 -1.57098 0
M  V30 6845 H 620.94 -3.70669 -0.735717 0
M  V30 6846 H 621.253 -7.67701 -0.886279 0
M  V30 6847 H 619.598 -6.90334 -0.803958 0
M  V30 6848 H 622.789 -4.60709 -0.828535 0
M  V30 6849 H 622.962 -6.41756 -0.897418 0
M  V30 6850 N 616.368 0.432326 -1.51554 0
M  V30 6851 C 617.608 1.19076 -1.66133 0
M  V30 6852 C 617.972 1.88364 -0.371873 0
M  V30 6853 O 619.173 2.65904 -0.39349 0
M  V30 6854 C 617.444 2.1768 -2.83461 0
M  V30 6855 S 619.003 3.01943 -3.18396 0
M  V30 6856 H 615.821 0.403735 -0.585251 0
M  V30 6857 H 618.423 0.481554 -1.89476 0
M  V30 6858 H 617.127 1.65424 -3.75583 0
M  V30 6859 H 616.658 2.93174 -2.62322 0
M  V30 6860 H 618.673 4.19373 -2.65219 0
M  V30 6861 N 617.846 1.41785 0.688094 0
M  V30 6862 C 619.094 1.41264 1.4453 0
M  V30 6863 C 619.415 0.0252946 1.94984 0
M  V30 6864 O 618.685 -0.934081 1.72197 0
M  V30 6865 H 617.265 0.519998 0.536294 0
M  V30 6866 H 619.927 1.7709 0.813941 0
M  V30 6867 H 619.023 2.10439 2.30482 0
M  V30 6868 N 619.324 -0.923095 1.27737 0
M  V30 6869 C 620.272 -2.04567 1.10703 0
M  V30 6870 C 621.266 -1.69375 0.0288445 0
M  V30 6871 O 622.472 -1.79027 0.186913 0
M  V30 6872 H 618.847 -0.670109 0.34126 0
M  V30 6873 H 620.818 -2.1608 2.05796 0
M  V30 6874 C 619.567 -3.38934 0.775837 0
M  V30 6875 H 618.89 -3.66501 1.59741 0
M  V30 6876 H 620.33 -4.18239 0.696548 0
M  V30 6877 C 618.789 -3.32863 -0.520012 0
M  V30 6878 O 619.319 -3.70462 -1.55308 0
M  V30 6879 N 617.525 -2.85958 -0.51732 0
M  V30 6880 H 617.072 -2.55557 0.32379 0
M  V30 6881 H 617.03 -2.82279 -1.38441 0
M  V30 6882 N 620.802 -1.09834 -1.13024 0
M  V30 6883 C 622.05 -0.835297 -1.8403 0
M  V30 6884 C 622.371 0.640944 -1.84165 0
M  V30 6885 O 621.641 1.46517 -1.30037 0
M  V30 6886 H 620.221 -0.306018 -0.681441 0
M  V30 6887 H 622.883 -1.38734 -1.36891 0
M  V30 6888 H 621.979 -1.19258 -2.88416 0
M  V30 6889 N 622.28 1.30327 -0.886154 0
M  V30 6890 C 623.528 1.9571 -0.504195 0
M  V30 6891 C 623.849 1.70294 0.950003 0
M  V30 6892 O 623.119 1.02718 1.66811 0
M  V30 6893 H 621.699 0.72412 -0.183465 0
M  V30 6894 H 624.361 1.58835 -1.12949 0
M  V30 6895 H 623.457 3.04704 -0.675431 0
M  V30 6896 N 623.758 0.647228 1.43697 0
M  V30 6897 C 625.174 0.314256 1.56476 0
M  V30 6898 C 625.374 -1.18191 1.63196 0
M  V30 6899 O 624.43 -1.96655 1.58376 0
M  V30 6900 C 625.743 1.02034 2.82859 0
M  V30 6901 C 627.291 1.00002 2.96595 0
M  V30 6902 C 627.766 1.68689 4.25803 0
M  V30 6903 N 629.257 1.65424 4.32654 0
M  V30 6904 C 629.992 2.1545 5.31384 0
M  V30 6905 N 629.488 2.73738 6.36427 0
M  V30 6906 N 631.281 2.05985 5.22998 0
M  V30 6907 H 623.432 1.61821 1.37578 0
M  V30 6908 H 625.695 0.680184 0.660344 0
M  V30 6909 H 625.401 2.07542 2.83935 0
M  V30 6910 H 625.275 0.568146 3.72897 0
M  V30 6911 H 627.662 -0.0466319 2.95063 0
M  V30 6912 H 627.743 1.49086 2.07863 0
M  V30 6913 H 627.387 2.73308 4.28095 0
M  V30 6914 H 627.317 1.17076 5.13421 0
M  V30 6915 H 629.808 1.22884 3.57363 0
M  V30 6916 H 630.121 3.09602 7.08072 0
M  V30 6917 H 628.466 2.77796 6.37067 0
M  V30 6918 H 631.657 1.60157 4.39849 0
M  V30 6919 H 631.83 2.45281 5.99784 0
M  V30 6920 N 625.236 -1.5273 0.388769 0
M  V30 6921 C 626.199 -2.25043 -0.434544 0
M  V30 6922 C 627.199 -1.26661 -0.990644 0
M  V30 6923 O 628.389 -1.50762 -0.872731 0
M  V30 6924 C 625.521 -3.00507 -1.60961 0
M  V30 6925 H 626.714 -2.99242 0.198549 0
M  V30 6926 H 624.267 -1.55664 0.140875 0
M  V30 6927 H 625.002 -2.30607 -2.28015 0
M  V30 6928 H 624.787 -3.72716 -1.21757 0
M  V30 6929 H 626.277 -3.55413 -2.19251 0
M  V30 6930 N 626.714 -0.118576 -1.57153 0
M  V30 6931 C 627.662 0.849114 -2.16547 0
M  V30 6932 C 628.656 1.27567 -1.11458 0
M  V30 6933 O 629.862 1.24746 -1.29763 0
M  V30 6934 H 626.237 0.291935 -0.693021 0
M  V30 6935 H 628.208 0.323693 -2.96639 0
M  V30 6936 C 626.957 2.08951 -2.77912 0
M  V30 6937 H 626.28 1.77021 -3.58474 0
M  V30 6938 H 627.72 2.74666 -3.23008 0
M  V30 6939 C 626.179 2.87899 -1.74974 0
M  V30 6940 O 626.709 3.83268 -1.20285 0
M  V30 6941 N 624.915 2.51884 -1.44924 0
M  V30 6942 H 624.462 1.74397 -1.89587 0
M  V30 6943 H 624.42 3.05003 -0.762921 0
M  V30 6944 N 628.193 1.56834 0.155195 0
M  V30 6945 C 629.433 1.84701 0.875488 0
M  V30 6946 C 629.797 0.701747 1.78716 0
M  V30 6947 O 630.998 0.861263 2.54629 0
M  V30 6948 C 629.269 3.1773 1.63654 0
M  V30 6949 S 630.828 3.67128 2.40338 0
M  V30 6950 H 627.646 0.647856 0.292923 0
M  V30 6951 H 630.248 1.95026 0.136024 0
M  V30 6952 H 628.952 3.99059 0.958117 0
M  V30 6953 H 628.483 3.10388 2.41708 0
M  V30 6954 H 630.498 3.35739 3.65368 0
M  V30 6955 N 629.671 -0.424282 1.51781 0
M  V30 6956 C 630.948 -1.18464 1.55646 0
M  V30 6957 C 631.328 -2.08529 0.328438 0
M  V30 6958 O 630.676 -2.17969 -0.685693 0
M  V30 6959 C 630.886 -1.97514 2.87731 0
M  V30 6960 C 632.234 -2.54106 3.40169 0
M  V30 6961 O 633.258 -2.07711 2.89369 0
M  V30 6962 O 632.117 -3.38759 4.28841 0
M  V30 6963 H 629.211 -0.540055 0.626314 0
M  V30 6964 H 631.757 -0.432291 1.64102 0
M  V30 6965 H 630.529 -1.31444 3.68562 0
M  V30 6966 H 630.152 -2.79787 2.82498 0
M  V30 6967 N 631.149 -1.42148 -0.680565 0
M  V30 6968 C 632.112 -1.4488 -1.77602 0
M  V30 6969 C 633.112 -0.337209 -1.57224 0
M  V30 6970 O 634.302 -0.597778 -1.63622 0
M  V30 6971 C 631.434 -1.27483 -3.16166 0
M  V30 6972 H 632.627 -2.42412 -1.76568 0
M  V30 6973 H 630.18 -1.28511 -0.889645 0
M  V30 6974 H 630.915 -0.30851 -3.22829 0
M  V30 6975 H 630.7 -2.08037 -3.3236 0
M  V30 6976 H 632.19 -1.32265 -3.96101 0
M  V30 6977 N 632.627 0.916307 -1.28225 0
M  V30 6978 C 633.852 1.7043 -1.18188 0
M  V30 6979 C 634.277 1.86346 0.256274 0
M  V30 6980 O 633.635 1.37175 1.18544 0
M  V30 6981 C 633.683 3.07546 -1.88275 0
M  V30 6982 O 632.787 3.94904 -1.18848 0
M  V30 6983 H 632.128 0.521967 -0.410423 0
M  V30 6984 H 634.658 1.14589 -1.69501 0
M  V30 6985 H 634.668 3.57793 -1.96082 0
M  V30 6986 H 633.343 2.95279 -2.92887 0
M  V30 6987 H 631.92 3.53339 -1.19187 0
M  V30 6988 N 634.105 1.10431 1.1244 0
M  V30 6989 C 635.035 0.775143 2.20258 0
M  V30 6990 C 636.016 -0.25186 1.68225 0
M  V30 6991 O 637.201 -0.117637 1.93843 0
M  V30 6992 C 634.331 0.206133 3.46688 0
M  V30 6993 C 633.285 1.16382 4.11873 0
M  V30 6994 C 632.611 0.456014 5.32752 0
M  V30 6995 C 633.911 2.5104 4.58013 0
M  V30 6996 H 635.605 1.67665 2.4805 0
M  V30 6997 H 633.151 0.807595 1.19222 0
M  V30 6998 H 635.104 -0.036291 4.21384 0
M  V30 6999 H 633.828 -0.730614 3.18323 0
M  V30 7000 H 632.487 1.39169 3.39157 0
M  V30 7001 H 632.135 -0.485203 5.00654 0
M  V30 7002 H 631.835 1.09466 5.77314 0
M  V30 7003 H 633.359 0.222135 6.10196 0
M  V30 7004 H 634.773 2.32401 5.24083 0
M  V30 7005 H 633.17 3.10789 5.13352 0
M  V30 7006 H 634.24 3.11039 3.71998 0
M  V30 7007 N 635.583 -1.29855 0.893053 0
M  V30 7008 C 636.832 -1.95104 0.511597 0
M  V30 7009 C 637.145 -1.71226 -0.945567 0
M  V30 7010 O 638.351 -2.30525 -1.43424 0
M  V30 7011 C 636.807 -3.49374 0.864034 0
M  V30 7012 C 636.415 -3.82061 2.33952 0
M  V30 7013 C 638.159 -4.20894 0.552167 0
M  V30 7014 C 636.066 -5.29546 2.63316 0
M  V30 7015 H 634.996 -0.73029 0.187597 0
M  V30 7016 H 637.647 -1.47682 1.08914 0
M  V30 7017 H 636.029 -3.95413 0.215493 0
M  V30 7018 H 637.203 -3.46904 3.03305 0
M  V30 7019 H 635.518 -3.23665 2.61973 0
M  V30 7020 H 638.115 -5.29435 0.748489 0
M  V30 7021 H 638.458 -4.13178 -0.508924 0
M  V30 7022 H 638.991 -3.80564 1.15825 0
M  V30 7023 H 635.73 -5.4232 3.68197 0
M  V30 7024 H 635.25 -5.65974 1.9858 0
M  V30 7025 H 636.929 -5.97068 2.49236 0
M  V30 7026 N 637.061 -0.65484 -1.43351 0
M  V30 7027 C 638.307 -0.169142 -2.02093 0
M  V30 7028 C 638.64 1.21431 -1.51553 0
M  V30 7029 O 637.915 1.81105 -0.709317 0
M  V30 7030 C 638.198 -0.181775 -3.59641 0
M  V30 7031 C 638.051 -1.59926 -4.20409 0
M  V30 7032 C 639.37 0.480945 -4.37464 0
M  V30 7033 H 636.489 -0.0629371 -0.734308 0
M  V30 7034 H 639.131 -0.835833 -1.70628 0
M  V30 7035 H 637.281 0.385918 -3.86578 0
M  V30 7036 H 638.953 -2.21766 -4.04497 0
M  V30 7037 H 637.196 -2.14605 -3.76998 0
M  V30 7038 H 637.867 -1.55994 -5.295 0
M  V30 7039 H 640.343 -0.00208273 -4.161 0
M  V30 7040 H 639.219 0.441384 -5.47122 0
M  V30 7041 H 639.48 1.55533 -4.13838 0
M  V30 7042 N 638.539 1.52521 -0.396863 0
M  V30 7043 C 639.767 2.06091 0.18275 0
M  V30 7044 C 640.182 1.26796 1.39886 0
M  V30 7045 O 639.539 0.316585 1.79733 0
M  V30 7046 C 639.59 3.57362 0.545377 0
M  V30 7047 O 639.311 4.33656 -0.622428 0
M  V30 7048 C 640.812 4.27305 1.18004 0
M  V30 7049 H 638.032 0.670504 0.025789 0
M  V30 7050 H 640.576 1.96561 -0.564276 0
M  V30 7051 H 638.731 3.66941 1.2423 0
M  V30 7052 H 639.145 5.23507 -0.322662 0
M  V30 7053 H 640.619 5.34366 1.38408 0
M  V30 7054 H 641.096 3.83 2.1496 0
M  V30 7055 H 641.702 4.22064 0.523671 0
M  V30 7056 N 640.017 0.126909 1.57088 0
M  V30 7057 C 640.927 -0.833867 2.1928 0
M  V30 7058 C 641.943 -1.2868 1.17122 0
M  V30 7059 O 643.119 -1.34815 1.49622 0
M  V30 7060 C 640.184 -2.0632 2.78627 0
M  V30 7061 C 639.245 -1.66143 3.95847 0
M  V30 7062 C 638.478 -2.83217 4.52354 0
M  V30 7063 O 638.701 -3.98868 4.0775 0
M  V30 7064 O 637.635 -2.59846 5.42922 0
M  V30 7065 H 641.461 -0.334564 3.01852 0
M  V30 7066 H 639.046 -0.0991091 1.49071 0
M  V30 7067 H 640.928 -2.78304 3.16425 0
M  V30 7068 H 639.603 -2.55242 1.99082 0
M  V30 7069 H 638.51 -0.912435 3.62802 0
M  V30 7070 H 639.843 -1.21957 4.76852 0
M  V30 7071 N 641.495 -1.56914 -0.146875 0
M  V30 7072 C 642.405 -2.0154 -1.20079 0
M  V30 7073 C 643.421 -0.930838 -1.47008 0
M  V30 7074 O 644.597 -1.24032 -1.58676 0
M  V30 7075 C 641.662 -2.38715 -2.51428 0
M  V30 7076 C 640.723 -3.6112 -2.32145 0
M  V30 7077 C 639.956 -3.96512 -3.57231 0
M  V30 7078 O 640.179 -3.32566 -4.63418 0
M  V30 7079 O 639.113 -4.89758 -3.49887 0
M  V30 7080 H 642.939 -2.91506 -0.851924 0
M  V30 7081 H 640.524 -1.45106 -0.355607 0
M  V30 7082 H 642.406 -2.63485 -3.28867 0
M  V30 7083 H 641.081 -1.51903 -2.85845 0
M  V30 7084 H 639.988 -3.41536 -1.52656 0
M  V30 7085 H 641.321 -4.48549 -2.02644 0
M  V30 7086 N 642.974 0.416227 -1.52004 0
M  V30 7087 C 643.904 1.51365 -1.77795 0
M  V30 7088 C 644.885 1.58059 -0.628601 0
M  V30 7089 O 646.07 1.73447 -0.873478 0
M  V30 7090 C 643.2 2.89256 -1.92219 0
M  V30 7091 C 642.154 2.97415 -3.0778 0
M  V30 7092 C 641.48 4.37492 -3.07417 0
M  V30 7093 C 642.78 2.69551 -4.47369 0
M  V30 7094 H 644.474 1.30033 -2.69688 0
M  V30 7095 H 642.02 0.624112 -1.29772 0
M  V30 7096 H 643.973 3.66008 -2.08845 0
M  V30 7097 H 642.697 3.11866 -0.969917 0
M  V30 7098 H 641.356 2.23107 -2.90893 0
M  V30 7099 H 641.004 4.571 -2.09925 0
M  V30 7100 H 640.704 4.43877 -3.85029 0
M  V30 7101 H 642.228 5.16188 -3.26162 0
M  V30 7102 H 643.642 3.36028 -4.64497 0
M  V30 7103 H 642.039 2.87321 -5.26846 0
M  V30 7104 H 643.109 1.65029 -4.55953 0
M  V30 7105 N 644.452 1.42507 0.673017 0
M  V30 7106 C 645.402 1.4258 1.77919 0
M  V30 7107 C 646.386 0.296885 1.58137 0
M  V30 7108 O 647.578 0.539243 1.68586 0
M  V30 7109 C 644.707 1.33238 3.1639 0
M  V30 7110 C 643.793 2.51081 3.41788 0
M  V30 7111 N 644.184 3.76498 3.37761 0
M  V30 7112 C 642.482 2.4538 3.72431 0
M  V30 7113 C 643.183 4.54784 3.62693 0
M  V30 7114 N 642.159 3.8522 3.83544 0
M  V30 7115 H 645.961 2.37442 1.73201 0
M  V30 7116 H 643.475 1.36881 0.873924 0
M  V30 7117 H 645.472 1.31372 3.9566 0
M  V30 7118 H 644.132 0.393794 3.22303 0
M  V30 7119 H 645.143 4.09068 3.17622 0
M  V30 7120 H 641.82 1.60109 3.85579 0
M  V30 7121 H 643.21 5.63774 3.65525 0
M  V30 7122 N 645.93 -0.909495 1.28709 0
M  V30 7123 C 646.86 -2.0291 1.15542 0
M  V30 7124 C 647.841 -1.7002 0.0521017 0
M  V30 7125 O 649.026 -1.92835 0.229849 0
M  V30 7126 C 646.156 -3.37458 0.820935 0
M  V30 7127 C 645.11 -3.84524 1.87949 0
M  V30 7128 C 644.436 -5.16086 1.39854 0
M  V30 7129 C 645.736 -4.05918 3.28676 0
M  V30 7130 H 647.43 -2.14183 2.09203 0
M  V30 7131 H 644.976 -1.02913 1.00722 0
M  V30 7132 H 646.929 -4.1528 0.715571 0
M  V30 7133 H 645.653 -3.26249 -0.151374 0
M  V30 7134 H 644.312 -3.08911 1.97408 0
M  V30 7135 H 643.96 -5.01284 0.41518 0
M  V30 7136 H 643.66 -5.48547 2.1064 0
M  V30 7137 H 645.184 -5.96459 1.30649 0
M  V30 7138 H 646.598 -4.74252 3.22115 0
M  V30 7139 H 644.995 -4.49717 3.97334 0
M  V30 7140 H 646.065 -3.10583 3.72379 0
M  V30 7141 N 647.408 -1.11026 -1.11852 0
M  V30 7142 C 648.657 -0.851249 -1.82857 0
M  V30 7143 C 648.97 0.62514 -1.85341 0
M  V30 7144 O 650.176 1.00026 -2.52403 0
M  V30 7145 C 648.632 -1.47309 -3.28372 0
M  V30 7146 C 648.24 -2.9832 -3.34229 0
M  V30 7147 C 649.984 -1.29373 -4.04306 0
M  V30 7148 C 647.891 -3.53509 -4.74115 0
M  V30 7149 H 646.821 -0.314794 -0.685143 0
M  V30 7150 H 649.472 -1.33499 -1.25898 0
M  V30 7151 H 647.854 -0.917017 -3.85236 0
M  V30 7152 H 649.028 -3.60295 -2.87271 0
M  V30 7153 H 647.343 -3.15482 -2.71772 0
M  V30 7154 H 649.94 -1.68042 -5.07608 0
M  V30 7155 H 650.283 -0.235879 -4.15631 0
M  V30 7156 H 650.816 -1.8182 -3.53817 0
M  V30 7157 H 647.555 -4.58987 -4.67986 0
M  V30 7158 H 647.075 -2.96305 -5.21501 0
M  V30 7159 H 648.754 -3.51693 -5.43066 0
M  V30 7160 N 648.886 1.2938 -0.899927 0
M  V30 7161 C 650.114 1.99691 -0.541386 0
M  V30 7162 C 650.529 1.67355 0.873936 0
M  V30 7163 O 649.886 0.918728 1.57688 0
M  V30 7164 C 649.937 3.54168 -0.72438 0
M  V30 7165 O 649.658 3.85359 -2.08399 0
M  V30 7166 C 651.159 4.41746 -0.370819 0
M  V30 7167 H 648.379 0.638037 -0.207726 0
M  V30 7168 H 650.923 1.6491 -1.20934 0
M  V30 7169 H 649.078 3.87261 -0.103607 0
M  V30 7170 H 649.492 4.80032 -2.11352 0
M  V30 7171 H 650.966 5.49256 -0.549693 0
M  V30 7172 H 651.443 4.33712 0.692148 0
M  V30 7173 H 652.049 4.14125 -0.968543 0
M  V30 7174 N 650.364 0.662433 1.43002 0
M  V30 7175 C 651.611 0.179591 2.01702 0
M  V30 7176 C 651.939 -1.20964 1.52309 0
M  V30 7177 O 651.194 -1.82343 0.7106 0
M  V30 7178 C 651.493 0.149363 3.57088 0
M  V30 7179 C 651.159 1.48158 4.25864 0
M  V30 7180 C 649.821 1.84638 4.44367 0
M  V30 7181 C 652.173 2.35953 4.64732 0
M  V30 7182 C 649.501 3.08561 4.99006 0
M  V30 7183 C 651.853 3.59176 5.20745 0
M  V30 7184 C 650.517 3.95841 5.37463 0
M  V30 7185 H 649.787 0.0657172 0.73808 0
M  V30 7186 H 652.434 0.854968 1.71355 0
M  V30 7187 H 650.739 -0.609491 3.8703 0
M  V30 7188 H 652.436 -0.241241 4.00274 0
M  V30 7189 H 649.026 1.18777 4.11813 0
M  V30 7190 H 653.21 2.09058 4.50121 0
M  V30 7191 H 648.466 3.37005 5.10135 0
M  V30 7192 H 652.64 4.27417 5.49807 0
M  V30 7193 H 650.267 4.91942 5.79566 0
M  V30 7194 N 651.842 -1.52309 0.404946 0
M  V30 7195 C 652.752 -2.30634 -0.429555 0
M  V30 7196 C 653.768 -1.38187 -1.05737 0
M  V30 7197 O 654.944 -1.71261 -1.05979 0
M  V30 7198 C 652.009 -3.10947 -1.53339 0
M  V30 7199 C 651.07 -4.19126 -0.929065 0
M  V30 7200 C 650.303 -4.95601 -1.9803 0
M  V30 7201 O 650.526 -4.72331 -3.1978 0
M  V30 7202 O 649.46 -5.80551 -1.58886 0
M  V30 7203 H 653.286 -3.0298 0.208963 0
M  V30 7204 H 650.871 -1.4845 0.168255 0
M  V30 7205 H 652.753 -3.60974 -2.1743 0
M  V30 7206 H 651.428 -2.41399 -2.15658 0
M  V30 7207 H 650.335 -3.73257 -0.250982 0
M  V30 7208 H 651.668 -4.90955 -0.349855 0
M  V30 7209 N 653.32 -0.135238 -1.57019 0
M  V30 7210 C 654.548 0.526066 -2.001 0
M  V30 7211 C 654.963 1.59184 -1.01519 0
M  V30 7212 O 654.32 1.82497 -0.0104258 0
M  V30 7213 C 654.371 1.13744 -3.43139 0
M  V30 7214 O 654.092 0.114259 -4.37951 0
M  V30 7215 C 655.593 1.8805 -4.01438 0
M  V30 7216 H 652.813 0.137962 -0.656664 0
M  V30 7217 H 655.357 -0.226359 -2.03243 0
M  V30 7218 H 653.512 1.84056 -3.40885 0
M  V30 7219 H 653.926 0.56058 -5.21496 0
M  V30 7220 H 655.4 2.26133 -5.03555 0
M  V30 7221 H 655.877 2.76194 -3.41487 0
M  V30 7222 H 656.483 1.22464 -4.07287 0
M  V30 7223 N 654.798 1.5699 0.138552 0
M  V30 7224 C 655.708 2.02174 1.19008 0
M  V30 7225 C 656.724 0.938622 1.46512 0
M  V30 7226 O 657.9 1.24872 1.58016 0
M  V30 7227 C 654.965 2.40045 2.50159 0
M  V30 7228 C 654.026 3.62346 2.30226 0
M  V30 7229 C 653.259 3.98401 3.55123 0
M  V30 7230 O 653.482 3.35019 4.61647 0
M  V30 7231 O 652.416 4.91606 3.47285 0
M  V30 7232 H 656.242 2.91954 0.836452 0
M  V30 7233 H 653.827 1.45293 0.347907 0
M  V30 7234 H 655.709 2.65225 3.27465 0
M  V30 7235 H 654.384 1.53417 2.85035 0
M  V30 7236 H 653.291 3.42341 1.50843 0
M  V30 7237 H 654.624 4.49617 2.00262 0
M  V30 7238 N 656.276 -0.40816 1.52223 0
M  V30 7239 C 657.522 -1.15673 1.66576 0
M  V30 7240 C 657.855 -1.90141 0.394996 0
M  V30 7241 O 657.13 -1.84798 -0.606613 0
M  V30 7242 C 657.413 -2.15042 2.88841 0
M  V30 7243 C 657.266 -1.44465 4.25969 0
M  V30 7244 C 658.585 -3.15699 3.0663 0
M  V30 7245 H 655.704 -0.41916 0.606196 0
M  V30 7246 H 658.346 -0.442348 1.84779 0
M  V30 7247 H 656.496 -2.75964 2.73452 0
M  V30 7248 H 658.168 -0.866544 4.53088 0
M  V30 7249 H 656.411 -0.746612 4.27327 0
M  V30 7250 H 657.082 -2.16976 5.07568 0
M  V30 7251 H 659.558 -2.64854 3.20923 0
M  V30 7252 H 658.434 -3.82491 3.9369 0
M  V30 7253 H 658.695 -3.83481 2.19987 0
M  V30 7254 N 657.755 -1.42862 -0.66545 0
M  V30 7255 C 658.985 -1.47032 -1.45138 0
M  V30 7256 C 659.393 -0.0829977 -1.89018 0
M  V30 7257 O 658.736 0.914551 -1.59316 0
M  V30 7258 C 658.798 -2.34302 -2.72659 0
M  V30 7259 C 658.462 -3.82034 -2.50796 0
M  V30 7260 C 659.459 -4.73453 -2.14799 0
M  V30 7261 C 657.144 -4.26397 -2.655 0
M  V30 7262 C 659.138 -6.07228 -1.93785 0
M  V30 7263 C 656.825 -5.6023 -2.44103 0
M  V30 7264 C 657.823 -6.50462 -2.08299 0
M  V30 7265 O 657.511 -7.8182 -1.87116 0
M  V30 7266 H 657.243 -0.501969 -0.452772 0
M  V30 7267 H 659.797 -1.88137 -0.82423 0
M  V30 7268 H 658.027 -1.88063 -3.37889 0
M  V30 7269 H 659.716 -2.29818 -3.34572 0
M  V30 7270 H 660.482 -4.4046 -2.03026 0
M  V30 7271 H 656.361 -3.56448 -2.92345 0
M  V30 7272 H 659.905 -6.7762 -1.65763 0
M  V30 7273 H 655.802 -5.92793 -2.55475 0
M  V30 7274 H 656.57 -7.93274 -2.01639 0
M  V30 7275 N 659.233 0.902656 -1.29189 0
M  V30 7276 C 660.183 1.99326 -1.10695 0
M  V30 7277 C 661.167 1.60877 -0.0272521 0
M  V30 7278 O 662.359 1.75245 -0.248635 0
M  V30 7279 C 659.488 3.34265 -0.78244 0
M  V30 7280 C 658.574 3.79081 -1.90153 0
M  V30 7281 N 658.965 3.96162 -3.14466 0
M  V30 7282 C 657.263 4.08333 -1.79389 0
M  V30 7283 C 657.964 4.3388 -3.87458 0
M  V30 7284 N 656.94 4.42759 -3.15381 0
M  V30 7285 H 660.742 2.10597 -2.05003 0
M  V30 7286 H 658.256 1.09127 -1.20271 0
M  V30 7287 H 660.253 4.12097 -0.630996 0
M  V30 7288 H 658.913 3.2434 0.152754 0
M  V30 7289 H 659.924 3.81775 -3.49954 0
M  V30 7290 H 656.601 4.06982 -0.931217 0
M  V30 7291 H 657.991 4.54965 -4.94425 0
M  V30 7292 N 660.711 1.11618 1.11262 0
M  V30 7293 C 661.643 0.734015 2.17129 0
M  V30 7294 C 662.656 -0.235243 1.61091 0
M  V30 7295 O 663.845 -0.0178597 1.78491 0
M  V30 7296 C 660.945 0.0643682 3.38839 0
M  V30 7297 C 660.118 1.06092 4.24339 0
M  V30 7298 C 659.177 0.420482 5.24517 0
M  V30 7299 O 658.203 1.07495 5.58957 0
M  V30 7300 N 659.405 -0.815828 5.74739 0
M  V30 7301 H 662.17 1.64492 2.50524 0
M  V30 7302 H 659.731 1.00664 1.26801 0
M  V30 7303 H 661.723 -0.375851 4.02951 0
M  V30 7304 H 660.293 -0.749147 3.03491 0
M  V30 7305 H 659.513 1.67903 3.56654 0
M  V30 7306 H 660.801 1.73507 4.78302 0
M  V30 7307 H 660.199 -1.36668 5.48943 0
M  V30 7308 H 658.756 -1.199 6.40677 0
M  V30 7309 N 662.189 -1.289 0.906776 0
M  V30 7310 C 663.437 -1.94883 0.535266 0
M  V30 7311 C 663.758 -1.71784 -0.922791 0
M  V30 7312 O 663.028 -1.05359 -1.65156 0
M  V30 7313 H 661.608 -0.721109 0.194962 0
M  V30 7314 H 664.27 -1.57018 1.15461 0
M  V30 7315 H 663.366 -3.03591 0.723821 0
M  V30 7316 N 663.667 -0.670007 -1.42649 0
M  V30 7317 C 664.597 -0.00258501 -2.335 0
M  V30 7318 C 665.578 0.794364 -1.50412 0
M  V30 7319 O 666.763 0.75248 -1.79029 0
M  V30 7320 C 663.893 0.952748 -3.33976 0
M  V30 7321 C 662.847 0.264733 -4.2718 0
M  V30 7322 C 662.173 1.33267 -5.17826 0
M  V30 7323 C 663.473 -0.853289 -5.15283 0
M  V30 7324 H 665.167 -0.761326 -2.89559 0
M  V30 7325 H 662.713 -0.367561 -1.3923 0
M  V30 7326 H 664.666 1.4287 -3.96442 0
M  V30 7327 H 663.39 1.74285 -2.7621 0
M  V30 7328 H 662.049 -0.190938 -3.66102 0
M  V30 7329 H 661.697 2.11464 -4.5639 0
M  V30 7330 H 661.397 0.877476 -5.81011 0
M  V30 7331 H 662.921 1.80965 -5.83167 0
M  V30 7332 H 664.335 -0.458763 -5.71462 0
M  V30 7333 H 662.732 -1.23398 -5.87276 0
M  V30 7334 H 663.802 -1.70412 -4.53969 0
M  V30 7335 N 665.145 1.52092 -0.413018 0
M  V30 7336 C 666.092 2.27119 0.410558 0
M  V30 7337 C 667.062 1.29692 1.03774 0
M  V30 7338 O 668.247 1.58561 1.06128 0
M  V30 7339 C 665.387 3.09863 1.51918 0
M  V30 7340 C 664.5 4.22252 0.912528 0
M  V30 7341 C 663.635 4.92348 1.99417 0
M  V30 7342 C 662.674 5.96694 1.36466 0
M  V30 7343 N 661.811 6.60292 2.38661 0
M  V30 7344 H 666.651 2.97067 -0.235661 0
M  V30 7345 H 664.188 1.46542 -0.128055 0
M  V30 7346 H 666.146 3.56144 2.17295 0
M  V30 7347 H 664.776 2.42078 2.13537 0
M  V30 7348 H 663.828 3.80113 0.147697 0
M  V30 7349 H 665.14 4.9709 0.412717 0
M  V30 7350 H 664.294 5.42054 2.72512 0
M  V30 7351 H 663.033 4.17087 2.52764 0
M  V30 7352 H 662.038 5.46304 0.61906 0
M  V30 7353 H 663.263 6.73899 0.838827 0
M  V30 7354 H 661.209 5.87858 2.91134 0
M  V30 7355 H 661.126 7.30816 1.93503 0
M  V30 7356 H 662.394 7.14635 3.11314 0
M  V30 7357 N 666.623 0.143563 1.56945 0
M  V30 7358 C 667.872 -0.50835 1.95189 0
M  V30 7359 C 668.185 -1.66239 1.03073 0
M  V30 7360 O 669.391 -2.3787 1.30882 0
M  V30 7361 C 667.847 -0.955735 3.46978 0
M  V30 7362 C 667.455 0.171183 4.47673 0
M  V30 7363 C 669.199 -1.57763 3.94095 0
M  V30 7364 C 667.106 -0.294279 5.90667 0
M  V30 7365 H 666.036 -0.193679 0.728701 0
M  V30 7366 H 668.687 0.227357 1.82086 0
M  V30 7367 H 667.069 -1.7466 3.55401 0
M  V30 7368 H 668.243 0.948049 4.50942 0
M  V30 7369 H 666.558 0.701273 4.10452 0
M  V30 7370 H 669.155 -1.93745 4.98364 0
M  V30 7371 H 669.498 -2.46531 3.35452 0
M  V30 7372 H 670.031 -0.851728 3.88575 0
M  V30 7373 H 666.77 0.557939 6.53121 0
M  V30 7374 H 666.29 -1.0371 5.90766 0
M  V30 7375 H 667.969 -0.747426 6.42668 0
M  V30 7376 N 668.101 -1.57061 -0.130224 0
M  V30 7377 C 669.378 -1.75205 -0.869631 0
M  V30 7378 C 669.758 -0.716063 -1.98584 0
M  V30 7379 O 669.106 0.262032 -2.26993 0
M  V30 7380 C 669.316 -3.19835 -1.39666 0
M  V30 7381 C 670.664 -3.82011 -1.85345 0
M  V30 7382 O 671.688 -3.23368 -1.49371 0
M  V30 7383 O 670.547 -4.85064 -2.51744 0
M  V30 7384 H 667.641 -0.716977 -0.412157 0
M  V30 7385 H 670.187 -1.69311 -0.11484 0
M  V30 7386 H 668.959 -3.86745 -0.595288 0
M  V30 7387 H 668.582 -3.30222 -2.21448 0
M  V30 7388 N 669.579 0.400081 -1.52437 0
M  V30 7389 C 670.509 1.4947 -1.7939 0
M  V30 7390 C 671.49 1.57383 -0.645329 0
M  V30 7391 O 672.675 1.72511 -0.891826 0
M  V30 7392 C 669.805 2.87201 -1.95276 0
M  V30 7393 C 668.759 2.94134 -3.10917 0
M  V30 7394 C 668.085 4.34207 -3.1204 0
M  V30 7395 C 669.385 2.64791 -4.50203 0
M  V30 7396 H 671.079 1.27165 -2.71052 0
M  V30 7397 H 668.625 0.610312 -1.30427 0
M  V30 7398 H 670.578 3.63772 -2.12715 0
M  V30 7399 H 669.302 3.10819 -1.00294 0
M  V30 7400 H 667.961 2.20009 -2.93243 0
M  V30 7401 H 667.609 4.54848 -2.14761 0
M  V30 7402 H 667.309 4.39768 -3.89715 0
M  V30 7403 H 668.833 5.127 -3.31619 0
M  V30 7404 H 670.247 3.31083 -4.68035 0
M  V30 7405 H 668.644 2.81717 -5.29864 0
M  V30 7406 H 669.714 1.60184 -4.57678 0
M  V30 7407 N 671.057 1.43213 0.657864 0
M  V30 7408 C 671.967 1.50448 1.80007 0
M  V30 7409 C 672.983 0.39191 1.69529 0
M  V30 7410 O 674.159 0.645349 1.90781 0
M  V30 7411 C 671.224 1.42062 3.16258 0
M  V30 7412 C 670.285 2.63951 3.38568 0
M  V30 7413 C 669.518 2.55956 4.68318 0
M  V30 7414 O 669.741 1.60473 5.47361 0
M  V30 7415 O 668.675 3.46378 4.92245 0
M  V30 7416 H 672.501 2.4689 1.76858 0
M  V30 7417 H 670.086 1.25163 0.81576 0
M  V30 7418 H 671.968 1.3981 3.97531 0
M  V30 7419 H 670.643 0.487524 3.20008 0
M  V30 7420 H 669.55 2.71776 2.57077 0
M  V30 7421 H 670.883 3.56217 3.39662 0
M  V30 7422 N 672.536 -0.895792 1.29666 0
M  V30 7423 C 673.764 -1.68001 1.20761 0
M  V30 7424 C 674.179 -1.87379 -0.231187 0
M  V30 7425 O 673.536 -1.41359 -1.15429 0
M  V30 7426 C 673.587 -3.06236 1.92098 0
M  V30 7427 O 673.308 -2.8774 3.30359 0
M  V30 7428 C 674.809 -4.00652 1.89717 0
M  V30 7429 H 672.029 -0.524591 0.418384 0
M  V30 7430 H 674.573 -1.11995 1.71106 0
M  V30 7431 H 672.728 -3.59007 1.45578 0
M  V30 7432 H 673.142 -3.75359 3.66342 0
M  V30 7433 H 674.616 -4.95051 2.44189 0
M  V30 7434 H 675.093 -4.30424 0.873595 0
M  V30 7435 H 675.699 -3.53815 2.35998 0
M  V30 7436 N 674.014 -1.12206 -1.10668 0
M  V30 7437 C 674.964 -0.75669 -2.15077 0
M  V30 7438 C 675.948 0.243154 -1.59052 0
M  V30 7439 O 677.14 0.0490268 -1.76932 0
M  V30 7440 C 674.269 -0.210303 -3.42655 0
M  V30 7441 C 673.355 -1.23829 -4.05619 0
M  V30 7442 N 673.746 -2.43513 -4.43323 0
M  V30 7443 C 672.044 -1.08309 -4.32649 0
M  V30 7444 C 672.745 -3.09138 -4.92756 0
M  V30 7445 N 671.721 -2.36593 -4.89413 0
M  V30 7446 H 675.523 -1.66747 -2.42018 0
M  V30 7447 H 673.037 -1.00248 -1.27765 0
M  V30 7448 H 675.034 0.0696287 -4.16842 0
M  V30 7449 H 673.694 0.694967 -3.17176 0
M  V30 7450 H 674.705 -2.80912 -4.35097 0
M  V30 7451 H 671.382 -0.234919 -4.16839 0
M  V30 7452 H 672.772 -4.11049 -5.31496 0
M  V30 7453 N 675.492 1.28418 -0.913599 0
M  V30 7454 C 676.717 1.99643 -0.561899 0
M  V30 7455 C 677.142 1.67819 0.849608 0
M  V30 7456 O 676.5 0.910503 1.56779 0
M  V30 7457 C 676.548 3.52116 -0.777622 0
M  V30 7458 O 675.652 4.12076 0.163457 0
M  V30 7459 H 674.993 0.627229 -0.217898 0
M  V30 7460 H 677.523 1.63575 -1.229 0
M  V30 7461 H 677.533 4.02163 -0.687666 0
M  V30 7462 H 676.208 3.74613 -1.8066 0
M  V30 7463 H 674.785 3.72892 0.0247827 0
M  V30 7464 N 676.97 0.677563 1.42291 0
M  V30 7465 C 677.9 0.014968 2.33495 0
M  V30 7466 C 678.881 -0.786376 1.50831 0
M  V30 7467 O 680.066 -0.742975 1.79426 0
M  V30 7468 C 677.196 -0.935023 3.34477 0
M  V30 7469 C 676.15 -0.242074 4.27315 0
M  V30 7470 C 675.476 -1.30519 5.18526 0
M  V30 7471 C 676.776 0.880604 5.14823 0
M  V30 7472 H 678.47 0.776671 2.89151 0
M  V30 7473 H 676.016 0.37494 1.39033 0
M  V30 7474 H 677.969 -1.40766 3.97194 0
M  V30 7475 H 676.693 -1.72818 2.77131 0
M  V30 7476 H 675.352 0.210351 3.65996 0
M  V30 7477 H 675 -2.09041 4.57505 0
M  V30 7478 H 674.7 -0.846652 5.81468 0
M  V30 7479 H 676.224 -1.7787 5.84119 0
M  V30 7480 H 677.638 0.489062 5.7121 0
M  V30 7481 H 676.035 1.26511 5.86613 0
M  V30 7482 H 677.105 1.72818 4.53059 0
M  V30 7483 N 678.448 -1.51871 0.421078 0
M  V30 7484 C 679.859 -1.86644 -0.0457991 0
M  V30 7485 C 680.21 -1.33919 -1.43388 0
M  V30 7486 O 679.335 -0.683316 -2.05328 0
M  V30 7487 C 679.93 -3.38681 -0.0898844 0
M  V30 7488 C 678.489 -3.73049 -0.501127 0
M  V30 7489 C 677.636 -2.75485 0.316723 0
M  V30 7490 H 680.587 -1.45327 0.637635 0
M  V30 7491 H 680.608 -3.69636 -0.902734 0
M  V30 7492 H 680.12 -3.77025 0.920513 0
M  V30 7493 H 678.221 -3.40288 -1.51773 0
M  V30 7494 H 678.334 -4.78512 -0.237217 0
M  V30 7495 H 676.698 -2.53725 -0.222663 0
M  V30 7496 H 677.481 -3.16671 1.32569 0
M  V30 7497 N 679.926 -0.151884 -1.56866 0
M  V30 7498 C 681.172 0.498742 -1.96572 0
M  V30 7499 C 681.505 1.64194 -1.03702 0
M  V30 7500 O 680.78 1.94334 -0.0803432 0
M  V30 7501 C 681.063 1.00027 -3.45929 0
M  V30 7502 C 680.916 -0.141767 -4.49577 0
M  V30 7503 C 682.235 1.88044 -3.97904 0
M  V30 7504 H 679.354 0.17982 -0.714726 0
M  V30 7505 H 681.996 -0.234097 -1.88552 0
M  V30 7506 H 680.146 1.62476 -3.52894 0
M  V30 7507 H 681.818 -0.778269 -4.54687 0
M  V30 7508 H 680.061 -0.80019 -4.26356 0
M  V30 7509 H 680.732 0.250947 -5.51429 0
M  V30 7510 H 683.208 1.35416 -3.93449 0
M  V30 7511 H 682.084 2.20043 -5.02864 0
M  V30 7512 H 682.345 2.81916 -3.40552 0
M  V30 7513 N 681.404 1.57128 0.121893 0
M  V30 7514 C 682.65 1.84974 0.831418 0
M  V30 7515 C 682.983 0.737204 1.79663 0
M  V30 7516 O 682.258 -0.257199 1.92792 0
M  V30 7517 C 682.541 3.23397 1.58386 0
M  V30 7518 C 682.394 4.45246 0.638445 0
M  V30 7519 C 683.713 3.59355 2.54071 0
M  V30 7520 H 680.832 0.67282 0.300803 0
M  V30 7521 H 683.474 1.89759 0.0957587 0
M  V30 7522 H 681.624 3.19449 2.21098 0
M  V30 7523 H 683.296 4.61295 0.0203925 0
M  V30 7524 H 681.539 4.33771 -0.05023 0
M  V30 7525 H 682.21 5.38765 1.20151 0
M  V30 7526 H 684.686 3.64075 2.01465 0
M  V30 7527 H 683.562 4.57193 3.03752 0
M  V30 7528 H 683.823 2.86622 3.36601 0
M  V30 7529 N 682.882 -0.391992 1.52647 0
M  V30 7530 C 684.128 -1.139 1.67793 0
M  V30 7531 C 684.461 -1.89711 0.41514 0
M  V30 7532 O 683.736 -1.85431 -0.586979 0
M  V30 7533 C 684.019 -2.11966 2.91105 0
M  V30 7534 C 683.872 -1.39939 4.27478 0
M  V30 7535 C 685.191 -3.1243 3.09961 0
M  V30 7536 H 682.31 -0.412707 0.610608 0
M  V30 7537 H 684.952 -0.422725 1.85238 0
M  V30 7538 H 683.102 -2.73048 2.76364 0
M  V30 7539 H 684.774 -0.818439 4.53982 0
M  V30 7540 H 683.017 -0.701246 4.28095 0
M  V30 7541 H 683.688 -2.1158 5.09841 0
M  V30 7542 H 686.164 -2.61435 3.23714 0
M  V30 7543 H 685.04 -3.78294 3.97725 0
M  V30 7544 H 685.301 -3.81127 2.24042 0
M  V30 7545 N 684.36 -1.4356 -0.65026 0
M  V30 7546 C 685.609 -1.44619 -1.406 0
M  V30 7547 C 685.922 -0.0752645 -1.95455 0
M  V30 7548 O 687.128 0.0366832 -2.71475 0
M  V30 7549 C 685.584 -2.54511 -2.54465 0
M  V30 7550 C 685.192 -3.97723 -2.06204 0
M  V30 7551 C 686.936 -2.64768 -3.31811 0
M  V30 7552 C 684.843 -4.99075 -3.17298 0
M  V30 7553 H 683.773 -0.537983 -0.52829 0
M  V30 7554 H 686.424 -1.69559 -0.701561 0
M  V30 7555 H 684.806 -2.22777 -3.27393 0
M  V30 7556 H 685.98 -4.38932 -1.40267 0
M  V30 7557 H 684.295 -3.91538 -1.41729 0
M  V30 7558 H 686.892 -3.37664 -4.14593 0
M  V30 7559 H 687.235 -1.69936 -3.80036 0
M  V30 7560 H 687.768 -2.95817 -2.65964 0
M  V30 7561 H 684.507 -5.95469 -2.74038 0
M  V30 7562 H 684.027 -4.62476 -3.81937 0
M  V30 7563 H 685.706 -5.21913 -3.82382 0
M  V30 7564 N 685.838 0.888903 -1.30139 0
M  V30 7565 C 687.063 1.67884 -1.21777 0
M  V30 7566 C 687.488 1.86848 0.216689 0
M  V30 7567 O 686.846 1.39659 1.15608 0
M  V30 7568 C 686.894 3.03483 -1.94757 0
M  V30 7569 O 685.998 3.92294 -1.27198 0
M  V30 7570 H 685.339 0.513144 -0.421402 0
M  V30 7571 H 687.869 1.10968 -1.71893 0
M  V30 7572 H 687.879 3.53553 -2.03627 0
M  V30 7573 H 686.554 2.89 -2.99085 0
M  V30 7574 H 685.131 3.50732 -1.26655 0
M  V30 7575 N 687.317 1.12792 1.10072 0
M  V30 7576 C 688.265 0.794523 2.18609 0
M  V30 7577 C 689.259 -0.220271 1.67962 0
M  V30 7578 O 690.465 -0.0780938 1.79831 0
M  V30 7579 H 686.84 0.239123 0.712969 0
M  V30 7580 H 688.811 1.71823 2.43966 0
M  V30 7581 C 687.56 0.269548 3.46654 0
M  V30 7582 H 686.883 1.04171 3.8599 0
M  V30 7583 H 688.323 0.0746242 4.23934 0
M  V30 7584 C 686.782 -1.00333 3.21613 0
M  V30 7585 O 687.312 -2.08042 3.4363 0
M  V30 7586 N 685.518 -0.931763 2.75257 0
M  V30 7587 H 685.065 -0.0551197 2.57541 0
M  V30 7588 H 685.023 -1.78405 2.58881 0
M  V30 7589 N 688.795 -1.27931 0.920396 0
M  V30 7590 C 690.044 -1.93975 0.552867 0
M  V30 7591 C 690.357 -1.73193 -0.909035 0
M  V30 7592 O 691.563 -2.33515 -1.38502 0
M  V30 7593 C 690.019 -3.47463 0.937947 0
M  V30 7594 C 689.627 -3.77013 2.42003 0
M  V30 7595 C 691.371 -4.19628 0.64132 0
M  V30 7596 C 689.278 -5.23841 2.74489 0
M  V30 7597 H 688.208 -0.726146 0.203046 0
M  V30 7598 H 690.859 -1.45339 1.12022 0
M  V30 7599 H 689.241 -3.94867 0.299317 0
M  V30 7600 H 690.415 -3.40393 3.10595 0
M  V30 7601 H 688.73 -3.18035 2.6878 0
M  V30 7602 H 691.327 -5.27729 0.860622 0
M  V30 7603 H 691.67 -4.14164 -0.421168 0
M  V30 7604 H 692.203 -3.78022 1.23872 0
M  V30 7605 H 688.942 -5.34388 3.79618 0
M  V30 7606 H 688.462 -5.61634 2.1054 0
M  V30 7607 H 690.141 -5.91647 2.61845 0
M  V30 7608 N 690.273 -0.685099 -1.4193 0
M  V30 7609 C 691.513 -0.215676 -2.03259 0
M  V30 7610 C 691.877 1.15934 -1.53047 0
M  V30 7611 O 693.078 1.72401 -2.06231 0
M  V30 7612 C 691.349 -0.259649 -3.56456 0
M  V30 7613 S 692.908 0.137262 -4.38585 0
M  V30 7614 H 689.726 -0.0877362 -0.705566 0
M  V30 7615 H 692.328 -0.900547 -1.73523 0
M  V30 7616 H 691.032 -1.26256 -3.90497 0
M  V30 7617 H 690.563 0.444716 -3.90878 0
M  V30 7618 H 692.578 1.36787 -4.76973 0
M  V30 7619 N 691.751 1.51645 -0.429126 0
M  V30 7620 C 692.683 2.25279 0.422124 0
M  V30 7621 C 693.696 1.28986 0.993299 0
M  V30 7622 O 694.885 1.54797 0.888836 0
M  V30 7623 C 691.985 2.98666 1.60162 0
M  V30 7624 C 691.158 4.2199 1.15078 0
M  V30 7625 C 690.217 4.78028 2.19946 0
M  V30 7626 O 689.243 5.40084 1.79716 0
M  V30 7627 N 690.445 4.61342 3.5234 0
M  V30 7628 H 693.21 2.98971 -0.208931 0
M  V30 7629 H 690.771 1.59838 -0.257568 0
M  V30 7630 H 692.763 3.33044 2.29922 0
M  V30 7631 H 691.333 2.28036 2.13818 0
M  V30 7632 H 690.553 3.932 0.280552 0
M  V30 7633 H 691.841 5.02037 0.826831 0
M  V30 7634 H 691.239 4.11894 3.87763 0
M  V30 7635 H 689.796 5.00104 4.18019 0
M  V30 7636 N 693.229 0.160201 1.56784 0
M  V30 7637 C 694.162 -0.812797 2.13234 0
M  V30 7638 C 695.14 -1.2335 1.05942 0
M  V30 7639 O 696.324 -1.32725 1.33852 0
M  V30 7640 C 693.451 -2.09311 2.66283 0
M  V30 7641 C 692.497 -1.8173 3.85845 0
M  V30 7642 S 693.33 -0.996473 5.26147 0
M  V30 7643 C 694.486 -2.28769 5.82594 0
M  V30 7644 H 694.719 -0.332794 2.95432 0
M  V30 7645 H 692.252 -0.0542971 1.54304 0
M  V30 7646 H 694.21 -2.82854 2.97496 0
M  V30 7647 H 692.871 -2.54425 1.84192 0
M  V30 7648 H 692.064 -2.76699 4.21253 0
M  V30 7649 H 691.666 -1.16289 3.55462 0
M  V30 7650 H 693.958 -3.24319 5.9483 0
M  V30 7651 H 694.901 -1.97846 6.79899 0
M  V30 7652 H 695.309 -2.40021 5.10931 0
M  V30 7653 N 694.707 -1.5719 -0.113559 0
M  V30 7654 C 696.118 -1.74259 -0.670116 0
M  V30 7655 C 696.469 -0.779694 -1.80042 0
M  V30 7656 O 695.594 0.0461353 -2.16351 0
M  V30 7657 C 696.189 -3.15981 -1.22236 0
M  V30 7658 C 694.748 -3.34537 -1.72516 0
M  V30 7659 C 693.895 -2.70116 -0.627098 0
M  V30 7660 H 696.846 -1.58301 0.112396 0
M  V30 7661 H 696.867 -3.17832 -2.09197 0
M  V30 7662 H 696.379 -3.86038 -0.39949 0
M  V30 7663 H 694.48 -2.6953 -2.57263 0
M  V30 7664 H 694.593 -4.42737 -1.83086 0
M  V30 7665 H 692.957 -2.31501 -1.06204 0
M  V30 7666 H 693.74 -3.42802 0.184889 0
M  V30 7667 N 696.185 0.383891 -1.52853 0
M  V30 7668 C 697.133 1.48965 -1.7864 0
M  V30 7669 C 698.127 1.56242 -0.654577 0
M  V30 7670 O 699.333 1.59347 -0.83716 0
M  V30 7671 H 695.708 0.495892 -0.565328 0
M  V30 7672 H 697.679 1.24411 -2.71228 0
M  V30 7673 C 696.428 2.86036 -1.97683 0
M  V30 7674 H 695.751 2.81188 -2.84206 0
M  V30 7675 H 697.191 3.62632 -2.19713 0
M  V30 7676 C 695.65 3.28428 -0.750776 0
M  V30 7677 O 696.18 4.0164 0.0693491 0
M  V30 7678 N 694.386 2.84765 -0.579427 0
M  V30 7679 H 693.933 2.25353 -1.24795 0
M  V30 7680 H 693.891 3.13486 0.239544 0
M  V30 7681 N 697.663 1.43903 0.642637 0
M  V30 7682 C 698.626 1.49538 1.73698 0
M  V30 7683 C 699.626 0.378776 1.56275 0
M  V30 7684 O 700.816 0.64095 1.6198 0
M  V30 7685 C 697.948 1.35821 3.12675 0
M  V30 7686 H 699.141 2.47008 1.70079 0
M  V30 7687 H 696.694 1.30824 0.85526 0
M  V30 7688 H 697.429 0.393994 3.21898 0
M  V30 7689 H 697.214 2.16776 3.26727 0
M  V30 7690 H 698.704 1.4272 3.92455 0
M  V30 7691 N 699.141 -0.881989 1.30609 0
M  V30 7692 C 700.387 -1.63649 1.20791 0
M  V30 7693 C 700.742 -1.90966 -0.234437 0
M  V30 7694 O 700.035 -1.52163 -1.16434 0
M  V30 7695 C 700.229 -2.97999 1.97311 0
M  V30 7696 C 700.058 -2.83798 3.48839 0
M  V30 7697 C 698.828 -2.83622 4.18195 0
M  V30 7698 C 701.026 -2.59529 4.44015 0
M  V30 7699 N 699.008 -2.60344 5.55962 0
M  V30 7700 C 700.379 -2.45401 5.69366 0
M  V30 7701 C 702.434 -2.44777 4.33576 0
M  V30 7702 C 701.137 -2.18023 6.85462 0
M  V30 7703 C 703.163 -2.18785 5.49443 0
M  V30 7704 C 702.525 -2.05436 6.73777 0
M  V30 7705 H 698.624 -0.603687 0.497077 0
M  V30 7706 H 701.208 -1.03908 1.64655 0
M  V30 7707 H 699.379 -3.55767 1.55834 0
M  V30 7708 H 701.111 -3.6266 1.79611 0
M  V30 7709 H 697.866 -2.95562 3.70054 0
M  V30 7710 H 698.29 -2.51709 6.28468 0
M  V30 7711 H 702.932 -2.53831 3.38126 0
M  V30 7712 H 700.65 -2.07707 7.8095 0
M  V30 7713 H 704.236 -2.08188 5.43276 0
M  V30 7714 H 703.116 -1.85605 7.61919 0
M  V30 7715 N 700.619 -1.13374 -1.09472 0
M  V30 7716 C 701.582 -0.813639 -2.14272 0
M  V30 7717 C 702.582 0.176677 -1.59826 0
M  V30 7718 O 703.772 -0.0503441 -1.74127 0
M  V30 7719 C 700.904 -0.210897 -3.40247 0
M  V30 7720 H 702.097 -1.74229 -2.44099 0
M  V30 7721 H 699.65 -0.938304 -1.25002 0
M  V30 7722 H 700.385 0.726998 -3.16046 0
M  V30 7723 H 700.17 -0.924048 -3.81056 0
M  V30 7724 H 701.66 -0.00377603 -4.176 0
M  V30 7725 N 702.098 1.27442 -0.927168 0
M  V30 7726 C 703.323 1.99036 -0.583042 0
M  V30 7727 C 703.748 1.68711 0.83176 0
M  V30 7728 O 703.106 0.927081 1.55804 0
M  V30 7729 C 703.154 3.51271 -0.814925 0
M  V30 7730 O 702.258 4.12226 0.119742 0
M  V30 7731 H 701.599 0.624883 -0.224538 0
M  V30 7732 H 704.129 1.62263 -1.24628 0
M  V30 7733 H 704.139 4.01411 -0.730282 0
M  V30 7734 H 702.814 3.72676 -1.84623 0
M  V30 7735 H 701.391 3.72897 -0.0147688 0
M  V30 7736 N 703.576 0.692616 1.41565 0
M  V30 7737 C 704.825 0.219452 2.00503 0
M  V30 7738 C 705.138 -1.18683 1.55479 0
M  V30 7739 O 706.344 -1.75731 2.06956 0
M  V30 7740 C 704.8 0.341451 3.58277 0
M  V30 7741 C 704.408 1.75291 4.12283 0
M  V30 7742 C 706.152 -0.0720899 4.24439 0
M  V30 7743 C 704.059 1.82673 5.62481 0
M  V30 7744 H 702.989 0.0782874 0.749925 0
M  V30 7745 H 705.64 0.860386 1.62079 0
M  V30 7746 H 704.022 -0.367683 3.94289 0
M  V30 7747 H 705.196 2.49057 3.87695 0
M  V30 7748 H 703.511 2.11587 3.58636 0
M  V30 7749 H 706.108 -0.0373385 5.34687 0
M  V30 7750 H 706.451 -1.11034 4.0122 0
M  V30 7751 H 706.984 0.586663 3.9345 0
M  V30 7752 H 703.723 2.84539 5.90523 0
M  V30 7753 H 703.243 1.13288 5.89004 0
M  V30 7754 H 704.922 1.58827 6.27203 0
M  V30 7755 N 705.054 -1.51416 0.437162 0
M  V30 7756 C 705.984 -2.30631 -0.364922 0
M  V30 7757 C 706.965 -1.36037 -1.02118 0
M  V30 7758 O 708.15 -1.64956 -1.02485 0
M  V30 7759 C 705.28 -3.1482 -1.46648 0
M  V30 7760 C 704.234 -4.17691 -0.933717 0
M  V30 7761 C 703.56 -4.904 -2.13101 0
M  V30 7762 C 704.86 -5.2229 0.0317201 0
M  V30 7763 H 706.554 -2.97932 0.29614 0
M  V30 7764 H 704.1 -1.4328 0.143865 0
M  V30 7765 H 706.053 -3.69017 -2.03481 0
M  V30 7766 H 704.777 -2.4534 -2.15583 0
M  V30 7767 H 703.436 -3.64545 -0.387602 0
M  V30 7768 H 703.084 -4.17423 -2.80654 0
M  V30 7769 H 702.784 -5.59962 -1.78092 0
M  V30 7770 H 704.308 -5.4742 -2.70487 0
M  V30 7771 H 705.722 -5.7156 -0.446302 0
M  V30 7772 H 704.119 -5.99378 0.29437 0
M  V30 7773 H 705.189 -4.75131 0.968447 0
M  V30 7774 N 706.532 -0.168513 -1.56696 0
M  V30 7775 C 707.778 0.471368 -1.97863 0
M  V30 7776 C 708.133 1.61049 -1.05267 0
M  V30 7777 O 707.426 1.9138 -0.0917908 0
M  V30 7778 C 707.62 1.00441 -3.42996 0
M  V30 7779 C 707.449 -0.081524 -4.49626 0
M  V30 7780 C 706.219 -0.530242 -5.0251 0
M  V30 7781 C 708.417 -0.880897 -5.067 0
M  V30 7782 N 706.399 -1.59678 -5.9277 0
M  V30 7783 C 707.77 -1.79742 -5.93374 0
M  V30 7784 C 709.825 -0.92629 -4.89208 0
M  V30 7785 C 708.528 -2.7555 -6.64428 0
M  V30 7786 C 710.554 -1.8723 -5.6098 0
M  V30 7787 C 709.916 -2.77631 -6.4738 0
M  V30 7788 H 706.015 0.140671 -0.769244 0
M  V30 7789 H 708.599 -0.268084 -1.92846 0
M  V30 7790 H 706.77 1.71339 -3.48565 0
M  V30 7791 H 708.502 1.61269 -3.7118 0
M  V30 7792 H 705.257 -0.12847 -4.73426 0
M  V30 7793 H 705.681 -2.13045 -6.42605 0
M  V30 7794 H 710.323 -0.241412 -4.2211 0
M  V30 7795 H 708.041 -3.45027 -7.30741 0
M  V30 7796 H 711.627 -1.91349 -5.49433 0
M  V30 7797 H 710.507 -3.4964 -7.01941 0
M  V30 7798 N 708.01 1.57248 0.105221 0
M  V30 7799 C 709.24 1.89492 0.823175 0
M  V30 7800 C 709.648 0.75934 1.73294 0
M  V30 7801 O 708.991 -0.278182 1.81581 0
M  V30 7802 C 709.053 3.16891 1.69765 0
M  V30 7803 C 708.717 4.46787 0.960769 0
M  V30 7804 C 709.714 5.19061 0.295218 0
M  V30 7805 C 707.399 4.93467 0.937854 0
M  V30 7806 C 709.393 6.36246 -0.383393 0
M  V30 7807 C 707.08 6.10566 0.255452 0
M  V30 7808 C 708.078 6.81804 -0.404003 0
M  V30 7809 O 707.766 7.96673 -1.07549 0
M  V30 7810 H 707.498 0.631512 0.24118 0
M  V30 7811 H 710.052 2.05203 0.0899655 0
M  V30 7812 H 708.282 2.973 2.47285 0
M  V30 7813 H 709.971 3.35046 2.29126 0
M  V30 7814 H 710.737 4.84044 0.304448 0
M  V30 7815 H 706.616 4.37913 1.44058 0
M  V30 7816 H 710.16 6.91787 -0.898696 0
M  V30 7817 H 706.057 6.45039 0.244032 0
M  V30 7818 H 706.825 8.12596 -0.981355 0
M  V30 7819 N 709.488 -0.375779 1.53054 0
M  V30 7820 C 710.436 -1.48015 1.79428 0
M  V30 7821 C 711.43 -1.55893 0.662854 0
M  V30 7822 O 712.636 -1.58901 0.845599 0
M  V30 7823 H 709.011 -0.492887 0.56795 0
M  V30 7824 H 710.982 -1.22971 2.71884 0
M  V30 7825 C 709.731 -2.84984 1.99197 0
M  V30 7826 H 709.054 -2.79677 2.85693 0
M  V30 7827 H 710.494 -3.61462 2.21633 0
M  V30 7828 C 708.953 -3.28025 0.768183 0
M  V30 7829 O 709.483 -4.01671 -0.0480482 0
M  V30 7830 N 707.689 -2.84454 0.594521 0
M  V30 7831 H 707.236 -2.24688 1.25988 0
M  V30 7832 H 707.194 -3.13609 -0.222916 0
M  V30 7833 N 710.966 -1.44241 -0.634997 0
M  V30 7834 C 711.899 -1.45274 -1.75985 0
M  V30 7835 C 712.877 -0.312025 -1.59578 0
M  V30 7836 O 714.061 -0.508409 -1.81514 0
M  V30 7837 C 711.188 -1.28173 -3.13511 0
M  V30 7838 C 710.234 -2.45757 -3.48576 0
M  V30 7839 S 711.067 -4.08293 -3.46492 0
M  V30 7840 C 712.223 -3.93608 -4.86645 0
M  V30 7841 H 712.456 -2.40454 -1.74841 0
M  V30 7842 H 709.989 -1.31492 -0.809268 0
M  V30 7843 H 711.947 -1.18993 -3.92875 0
M  V30 7844 H 710.608 -0.34511 -3.12198 0
M  V30 7845 H 709.801 -2.29644 -4.48642 0
M  V30 7846 H 709.403 -2.51657 -2.76667 0
M  V30 7847 H 711.695 -3.57059 -5.75774 0
M  V30 7848 H 712.638 -4.9349 -5.07813 0
M  V30 7849 H 713.046 -3.25737 -4.61038 0
M  V30 7850 N 712.444 0.87505 -1.31075 0
M  V30 7851 C 713.374 1.99775 -1.20881 0
M  V30 7852 C 714.355 1.69822 -0.0971612 0
M  V30 7853 O 715.54 1.92158 -0.280895 0
M  V30 7854 C 712.67 3.35163 -0.910118 0
M  V30 7855 C 711.624 3.79406 -1.98078 0
M  V30 7856 C 710.95 5.12197 -1.53488 0
M  V30 7857 C 712.25 3.97061 -3.39323 0
M  V30 7858 H 713.944 2.08562 -2.14808 0
M  V30 7859 H 711.49 1.00207 -1.03415 0
M  V30 7860 H 713.443 4.13237 -0.825423 0
M  V30 7861 H 712.167 3.26536 0.064822 0
M  V30 7862 H 710.826 3.03568 -2.05528 0
M  V30 7863 H 710.474 5.00007 -0.547941 0
M  V30 7864 H 710.174 5.4277 -2.2511 0
M  V30 7865 H 711.698 5.92785 -1.46417 0
M  V30 7866 H 713.112 4.65545 -3.34576 0
M  V30 7867 H 711.509 4.39025 -4.09118 0
M  V30 7868 H 712.579 3.00601 -3.80483 0
M  V30 7869 N 713.922 1.13953 1.08869 0
M  V30 7870 C 715.15 0.92817 1.84912 0
M  V30 7871 C 715.565 -0.523197 1.81406 0
M  V30 7872 O 714.922 -1.36237 1.21432 0
M  V30 7873 C 714.973 1.41509 3.32652 0
M  V30 7874 O 714.694 2.80959 3.36145 0
M  V30 7875 C 716.195 1.243 4.25517 0
M  V30 7876 H 713.415 0.330612 0.583898 0
M  V30 7877 H 715.959 1.51349 1.37527 0
M  V30 7878 H 714.114 0.872648 3.77444 0
M  V30 7879 H 714.528 3.02704 4.28335 0
M  V30 7880 H 716.002 1.63237 5.27312 0
M  V30 7881 H 716.479 0.18532 4.38809 0
M  V30 7882 H 717.085 1.77375 3.86546 0
M  V30 7883 N 715.4 -1.26948 0.933913 0
M  V30 7884 C 716.348 -2.2862 0.428463 0
M  V30 7885 C 717.342 -1.62144 -0.490464 0
M  V30 7886 O 718.548 -1.76167 -0.36948 0
M  V30 7887 H 714.923 -0.742363 0.120003 0
M  V30 7888 H 716.894 -2.68659 1.29865 0
M  V30 7889 C 715.643 -3.46423 -0.29774 0
M  V30 7890 H 714.966 -3.97792 0.400183 0
M  V30 7891 H 716.406 -4.19505 -0.615736 0
M  V30 7892 C 714.865 -3.01017 -1.51295 0
M  V30 7893 O 715.395 -3.05226 -2.61151 0
M  V30 7894 N 713.601 -2.56442 -1.36696 0
M  V30 7895 H 713.148 -2.53217 -0.473178 0
M  V30 7896 H 713.106 -2.26424 -2.18127 0
M  V30 7897 N 716.879 -0.700114 -1.41195 0
M  V30 7898 C 717.827 -0.0263301 -2.32585 0
M  V30 7899 C 718.821 0.763683 -1.51209 0
M  V30 7900 O 720.027 0.668793 -1.67114 0
M  V30 7901 H 716.402 0.0102869 -0.75193 0
M  V30 7902 H 718.373 -0.814087 -2.8708 0
M  V30 7903 C 717.122 0.892793 -3.36042 0
M  V30 7904 H 716.445 0.294306 -3.98715 0
M  V30 7905 H 717.885 1.33247 -4.02518 0
M  V30 7906 C 716.344 2.01109 -2.7029 0
M  V30 7907 O 716.874 3.10035 -2.55423 0
M  V30 7908 N 715.08 1.79015 -2.28915 0
M  V30 7909 H 714.627 0.904275 -2.41207 0
M  V30 7910 H 714.585 2.54022 -1.85257 0
M  V30 7911 N 718.357 1.51182 -0.445186 0
M  V30 7912 C 719.768 1.86693 0.0160999 0
M  V30 7913 C 720.119 1.36183 1.4124 0
M  V30 7914 O 719.244 0.715895 2.04215 0
M  V30 7915 C 719.839 3.38781 0.0359918 0
M  V30 7916 C 718.398 3.73799 0.441715 0
M  V30 7917 C 717.545 2.74947 -0.360511 0
M  V30 7918 H 720.496 1.44294 -0.660674 0
M  V30 7919 H 720.517 3.71026 0.843813 0
M  V30 7920 H 720.029 3.75513 -0.980378 0
M  V30 7921 H 718.13 3.42659 1.4634 0
M  V30 7922 H 718.243 4.78829 0.16106 0
M  V30 7923 H 716.607 2.54047 0.182269 0
M  V30 7924 H 717.39 3.14521 -1.3759 0
M  V30 7925 N 719.835 0.176821 1.56605 0
M  V30 7926 C 720.782 -0.751312 2.18229 0
M  V30 7927 C 721.752 -1.22297 1.12395 0
M  V30 7928 O 722.937 -1.29015 1.40569 0
M  V30 7929 C 720.077 -1.97291 2.83143 0
M  V30 7930 C 719.19 -1.54431 4.03454 0
M  V30 7931 C 718.325 -2.72 4.56278 0
M  V30 7932 C 717.364 -2.25657 5.68986 0
M  V30 7933 N 716.501 -3.36338 6.16296 0
M  V30 7934 H 721.341 -0.219033 2.97194 0
M  V30 7935 H 718.878 -0.0963803 1.46784 0
M  V30 7936 H 720.836 -2.68949 3.1894 0
M  V30 7937 H 719.466 -2.4788 2.06773 0
M  V30 7938 H 718.518 -0.724273 3.73441 0
M  V30 7939 H 719.83 -1.16417 4.85024 0
M  V30 7940 H 718.984 -3.51806 4.94285 0
M  V30 7941 H 717.723 -3.13277 3.73777 0
M  V30 7942 H 716.728 -1.44299 5.30526 0
M  V30 7943 H 717.953 -1.85432 6.53293 0
M  V30 7944 H 715.899 -3.7718 5.36723 0
M  V30 7945 H 715.816 -3.02435 6.9287 0
M  V30 7946 H 717.084 -4.16413 6.58954 0
M  V30 7947 N 721.313 -1.57302 -0.09688 0
M  V30 7948 C 722.261 -2.02942 -1.13654 0
M  V30 7949 C 723.255 -0.930173 -1.41577 0
M  V30 7950 O 724.461 -1.11535 -1.41279 0
M  V30 7951 H 720.836 -0.646726 -0.383731 0
M  V30 7952 H 722.807 -2.89452 -0.725267 0
M  V30 7953 C 721.556 -2.46815 -2.44903 0
M  V30 7954 H 720.879 -3.30979 -2.24261 0
M  V30 7955 H 722.319 -2.82527 -3.16156 0
M  V30 7956 C 720.778 -1.34071 -3.09074 0
M  V30 7957 O 721.308 -0.668856 -3.96092 0
M  V30 7958 N 719.514 -1.09214 -2.69296 0
M  V30 7959 H 719.061 -1.64029 -1.98626 0
M  V30 7960 H 719.019 -0.339785 -3.12559 0
M  V30 7961 N 722.791 0.367657 -1.53252 0
M  V30 7962 C 724.037 1.11216 -1.69584 0
M  V30 7963 C 724.37 1.89026 -0.445269 0
M  V30 7964 O 723.645 1.86342 0.557404 0
M  V30 7965 C 723.928 2.07308 -2.94441 0
M  V30 7966 C 723.781 1.3312 -4.2965 0
M  V30 7967 C 725.1 3.07459 -3.14892 0
M  V30 7968 H 722.219 0.40294 -0.617096 0
M  V30 7969 H 724.861 0.393201 -1.85887 0
M  V30 7970 H 723.011 2.68617 -2.80673 0
M  V30 7971 H 724.683 0.746111 -4.55226 0
M  V30 7972 H 722.926 0.633051 -4.29156 0
M  V30 7973 H 723.597 2.03443 -5.13142 0
M  V30 7974 H 726.073 2.56252 -3.27832 0
M  V30 7975 H 724.949 3.71919 -4.03693 0
M  V30 7976 H 725.21 3.77514 -2.30077 0
M  V30 7977 N 724.269 1.44576 0.627338 0
M  V30 7978 C 725.217 1.52039 1.76031 0
M  V30 7979 C 726.211 0.391796 1.64807 0
M  V30 7980 O 727.417 0.5669 1.7084 0
M  V30 7981 H 723.792 0.477165 0.581221 0
M  V30 7982 H 725.763 2.47387 1.6686 0
M  V30 7983 C 724.512 1.48539 3.14375 0
M  V30 7984 H 723.835 2.34699 3.23661 0
M  V30 7985 H 725.275 1.57821 3.93534 0
M  V30 7986 C 723.734 0.20672 3.36265 0
M  V30 7987 O 724.264 -0.72154 3.95167 0
M  V30 7988 N 722.47 0.108654 2.90397 0
M  V30 7989 H 722.017 0.864884 2.42647 0
M  V30 7990 H 721.975 -0.746121 3.05418 0
M  V30 7991 N 725.747 -0.868086 1.31537 0
M  V30 7992 C 726.994 -1.62127 1.2133 0
M  V30 7993 C 727.322 -1.93158 -0.2281 0
M  V30 7994 O 726.577 -1.5632 -1.1774 0
M  V30 7995 C 726.876 -2.95889 2.0046 0
M  V30 7996 C 726.542 -2.84343 3.49943 0
M  V30 7997 C 725.204 -2.80901 3.90702 0
M  V30 7998 C 727.556 -2.71243 4.45058 0
M  V30 7999 C 724.884 -2.6222 5.24841 0
M  V30 8000 C 727.236 -2.54098 5.79325 0
M  V30 8001 C 725.9 -2.4904 6.19302 0
M  V30 8002 H 725.17 -0.593265 0.443979 0
M  V30 8003 H 727.817 -1.00803 1.62822 0
M  V30 8004 H 726.122 -3.61259 1.51655 0
M  V30 8005 H 727.819 -3.53161 1.89942 0
M  V30 8006 H 724.409 -2.8784 3.17563 0
M  V30 8007 H 728.593 -2.72956 4.14498 0
M  V30 8008 H 723.849 -2.56731 5.54887 0
M  V30 8009 H 728.023 -2.42938 6.52652 0
M  V30 8010 H 725.65 -2.34324 7.23185 0
M  V30 8011 N 727.225 -1.14528 -1.08264 0
M  V30 8012 C 728.472 -0.914405 -1.80679 0
M  V30 8013 C 728.8 0.558952 -1.86295 0
M  V30 8014 O 728.055 1.43017 -1.33584 0
M  V30 8015 C 728.354 -1.46226 -3.26117 0
M  V30 8016 C 728.02 -2.95451 -3.40616 0
M  V30 8017 C 726.682 -3.36191 -3.4428 0
M  V30 8018 C 729.034 -3.91399 -3.44175 0
M  V30 8019 C 726.362 -4.71539 -3.49096 0
M  V30 8020 C 728.714 -5.26606 -3.50526 0
M  V30 8021 C 727.378 -5.66856 -3.52464 0
M  V30 8022 H 726.648 -0.334604 -0.661151 0
M  V30 8023 H 729.295 -1.4292 -1.27461 0
M  V30 8024 H 727.6 -0.868442 -3.82054 0
M  V30 8025 H 729.297 -1.25955 -3.80705 0
M  V30 8026 H 725.887 -2.62955 -3.38456 0
M  V30 8027 H 730.071 -3.61004 -3.40573 0
M  V30 8028 H 725.327 -5.02082 -3.4889 0
M  V30 8029 H 729.501 -6.00758 -3.52225 0
M  V30 8030 H 727.128 -6.71718 -3.55948 0
M  V30 8031 N 728.703 1.26451 -0.940633 0
M  V30 8032 C 729.931 1.97868 -0.604642 0
M  V30 8033 C 730.346 1.70051 0.820251 0
M  V30 8034 O 729.703 0.96843 1.54686 0
M  V30 8035 C 729.754 3.51684 -0.836689 0
M  V30 8036 O 729.475 3.78533 -2.20554 0
M  V30 8037 C 730.976 4.40343 -0.511169 0
M  V30 8038 H 728.196 0.631105 -0.227919 0
M  V30 8039 H 730.74 1.60979 -1.26119 0
M  V30 8040 H 728.895 3.86736 -0.226759 0
M  V30 8041 H 729.309 4.73065 -2.26517 0
M  V30 8042 H 730.783 5.47229 -0.724157 0
M  V30 8043 H 731.26 4.35694 0.553815 0
M  V30 8044 H 731.866 4.10834 -1.0998 0
M  V30 8045 N 730.181 0.707592 1.40822 0
M  V30 8046 C 731.128 0.0499029 2.30746 0
M  V30 8047 C 732.098 -0.758718 1.47759 0
M  V30 8048 O 733.283 -0.724299 1.76518 0
M  V30 8049 C 730.423 -0.871756 3.33908 0
M  V30 8050 C 729.536 -0.0534655 4.31967 0
M  V30 8051 C 728.671 -0.973869 5.22197 0
M  V30 8052 C 727.71 -0.149194 6.11918 0
M  V30 8053 N 726.847 -1.02404 6.94592 0
M  V30 8054 H 731.687 0.822461 2.86426 0
M  V30 8055 H 729.224 0.417285 1.41057 0
M  V30 8056 H 731.182 -1.42028 3.9228 0
M  V30 8057 H 729.812 -1.61058 2.7975 0
M  V30 8058 H 728.864 0.612142 3.75442 0
M  V30 8059 H 730.176 0.585354 4.95353 0
M  V30 8060 H 729.33 -1.59121 5.85462 0
M  V30 8061 H 728.069 -1.64652 4.59065 0
M  V30 8062 H 727.074 0.481137 5.47691 0
M  V30 8063 H 728.299 0.519841 6.77107 0
M  V30 8064 H 726.245 -1.6825 6.34057 0
M  V30 8065 H 726.162 -0.441076 7.54712 0
M  V30 8066 H 727.43 -1.62782 7.62314 0
M  V30 8067 N 731.66 -1.50943 0.453197 0
M  V30 8068 C 733.071 -1.86699 -0.00619892 0
M  V30 8069 C 733.422 -1.3693 -1.40515 0
M  V30 8070 O 732.547 -0.726715 -2.03833 0
M  V30 8071 C 733.142 -3.38795 -0.018025 0
M  V30 8072 C 731.701 -3.74028 -0.421885 0
M  V30 8073 C 730.848 -2.74752 0.375087 0
M  V30 8074 H 733.799 -1.43942 0.668317 0
M  V30 8075 H 733.82 -3.71468 -0.824125 0
M  V30 8076 H 733.332 -3.74988 1.00028 0
M  V30 8077 H 731.433 -3.43431 -1.44521 0
M  V30 8078 H 731.546 -4.78908 -0.135664 0
M  V30 8079 H 729.91 -2.5414 -0.168794 0
M  V30 8080 H 730.693 -3.13787 1.39256 0
M  V30 8081 N 733.138 -0.185124 -1.56509 0
M  V30 8082 C 734.549 0.329221 -1.83774 0
M  V30 8083 C 734.9 1.62093 -1.10545 0
M  V30 8084 O 734.025 2.13334 -0.36298 0
M  V30 8085 C 734.62 0.604099 -3.33371 0
M  V30 8086 C 733.179 1.06284 -3.61083 0
M  V30 8087 C 732.326 0.10608 -2.77097 0
M  V30 8088 H 735.277 -0.409116 -1.53336 0
M  V30 8089 H 735.298 1.45458 -3.51599 0
M  V30 8090 H 734.81 -0.336201 -3.86641 0
M  V30 8091 H 732.911 2.01777 -3.13236 0
M  V30 8092 H 733.024 0.962453 -4.69333 0
M  V30 8093 H 731.388 0.606082 -2.47384 0
M  V30 8094 H 732.171 -0.828486 -3.33153 0
M  V30 8095 N 734.616 1.57351 0.0885366 0
M  V30 8096 C 735.865 1.85604 0.789556 0
M  V30 8097 C 736.178 0.775352 1.79576 0
M  V30 8098 O 737.384 0.945206 2.54515 0
M  V30 8099 C 735.84 3.29175 1.45506 0
M  V30 8100 C 735.448 4.45331 0.488278 0
M  V30 8101 C 737.192 3.66646 2.13942 0
M  V30 8102 C 735.099 5.79937 1.15874 0
M  V30 8103 H 734.029 0.692346 0.298619 0
M  V30 8104 H 736.68 1.83451 0.0425821 0
M  V30 8105 H 735.062 3.25889 2.24972 0
M  V30 8106 H 736.236 4.59977 -0.275359 0
M  V30 8107 H 734.551 4.16301 -0.0907363 0
M  V30 8108 H 737.148 4.64498 2.6485 0
M  V30 8109 H 737.491 2.956 2.93132 0
M  V30 8110 H 738.024 3.71848 1.41328 0
M  V30 8111 H 734.763 6.54232 0.407508 0
M  V30 8112 H 734.283 5.69123 1.89364 0
M  V30 8113 H 735.962 6.24718 1.68336 0
M  V30 8114 N 736.094 -0.359525 1.53444 0
M  V30 8115 C 737.342 -1.09935 1.69584 0
M  V30 8116 C 737.663 -1.89656 0.453371 0
M  V30 8117 O 736.933 -1.8852 -0.53263 0
M  V30 8118 H 735.513 -0.408843 0.625185 0
M  V30 8119 H 738.175 -0.40467 1.90653 0
M  V30 8120 H 737.271 -1.78575 2.55964 0
M  V30 8121 N 737.572 -1.44907 -0.619662 0
M  V30 8122 C 738.8 -1.51795 -1.40591 0
M  V30 8123 C 739.215 -0.146553 -1.8823 0
M  V30 8124 O 738.572 0.849698 -1.61513 0
M  V30 8125 C 738.623 -2.49229 -2.61853 0
M  V30 8126 O 738.344 -3.81039 -2.16197 0
M  V30 8127 C 739.845 -2.65696 -3.54853 0
M  V30 8128 H 737.065 -0.514463 -0.430777 0
M  V30 8129 H 739.609 -1.8998 -0.756813 0
M  V30 8130 H 737.764 -2.14149 -3.2283 0
M  V30 8131 H 738.178 -4.33747 -2.94896 0
M  V30 8132 H 739.652 -3.37874 -4.36515 0
M  V30 8133 H 740.129 -1.71316 -4.0441 0
M  V30 8134 H 740.735 -3.01724 -2.99737 0
M  V30 8135 N 739.05 0.861098 -1.31996 0
M  V30 8136 C 740.296 1.61707 -1.23379 0
M  V30 8137 C 740.651 1.91315 0.204026 0
M  V30 8138 O 739.944 1.53997 1.13998 0
M  V30 8139 C 740.138 2.94822 -2.02027 0
M  V30 8140 C 739.967 2.78212 -3.5331 0
M  V30 8141 C 738.737 2.76933 -4.22654 0
M  V30 8142 C 740.935 2.52432 -4.48088 0
M  V30 8143 N 738.917 2.51466 -5.60034 0
M  V30 8144 C 740.288 2.36312 -5.73198 0
M  V30 8145 C 742.343 2.37848 -4.37416 0
M  V30 8146 C 741.046 2.0709 -6.88844 0
M  V30 8147 C 743.072 2.10016 -5.52854 0
M  V30 8148 C 742.434 1.94691 -6.7696 0
M  V30 8149 H 738.533 0.595703 -0.506618 0
M  V30 8150 H 741.117 1.01275 -1.66287 0
M  V30 8151 H 739.288 3.53243 -1.61474 0
M  V30 8152 H 741.02 3.59756 -1.85358 0
M  V30 8153 H 737.775 2.89638 -3.74709 0
M  V30 8154 H 738.199 2.41679 -6.32392 0
M  V30 8155 H 742.841 2.4842 -3.42122 0
M  V30 8156 H 740.559 1.95256 -7.84156 0
M  V30 8157 H 744.145 1.99519 -5.46519 0
M  V30 8158 H 743.025 1.7346 -7.64775 0
M  V30 8159 N 740.528 1.15101 1.07655 0
M  V30 8160 C 741.805 0.834578 1.76902 0
M  V30 8161 C 742.185 -0.670431 2.00171 0
M  V30 8162 O 741.533 -1.61378 1.6177 0
M  V30 8163 C 741.743 1.64191 3.07965 0
M  V30 8164 C 743.091 1.84615 3.82364 0
M  V30 8165 O 744.115 1.60941 3.17768 0
M  V30 8166 O 742.974 2.24244 4.98374 0
M  V30 8167 H 740.068 0.306608 0.768063 0
M  V30 8168 H 742.614 1.25663 1.14048 0
M  V30 8169 H 741.386 2.66386 2.86626 0
M  V30 8170 H 741.009 1.216 3.78549 0
M  V30 8171 N 742.006 -1.2595 0.947325 0
M  V30 8172 C 742.938 -2.25336 0.41906 0
M  V30 8173 C 743.951 -1.56135 -0.461051 0
M  V30 8174 O 745.14 -1.76438 -0.270505 0
M  V30 8175 C 742.24 -3.36334 -0.416233 0
M  V30 8176 C 741.413 -4.35088 0.449162 0
M  V30 8177 C 740.472 -5.25185 -0.326716 0
M  V30 8178 O 739.498 -5.68548 0.272374 0
M  V30 8179 N 740.7 -5.57388 -1.6217 0
M  V30 8180 H 743.465 -2.71298 1.27348 0
M  V30 8181 H 741.026 -1.39781 0.81688 0
M  V30 8182 H 743.018 -3.93564 -0.942826 0
M  V30 8183 H 741.588 -2.89819 -1.17148 0
M  V30 8184 H 740.808 -3.76841 1.15692 0
M  V30 8185 H 742.096 -4.98056 1.04008 0
M  V30 8186 H 741.494 -5.2405 -2.13046 0
M  V30 8187 H 740.051 -6.17234 -2.0944 0
M  V30 8188 N 743.484 -0.715051 -1.40445 0
M  V30 8189 C 744.73 -0.254705 -2.01194 0
M  V30 8190 C 745.063 1.14894 -1.56567 0
M  V30 8191 O 744.338 1.77933 -0.785491 0
M  V30 8192 C 744.621 -0.334148 -3.58546 0
M  V30 8193 C 744.474 -1.77613 -4.13248 0
M  V30 8194 C 745.793 0.294968 -4.3911 0
M  V30 8195 H 742.912 -0.094025 -0.730978 0
M  V30 8196 H 745.554 -0.907449 -1.66929 0
M  V30 8197 H 743.704 0.221609 -3.87867 0
M  V30 8198 H 745.376 -2.38723 -3.94727 0
M  V30 8199 H 743.619 -2.30402 -3.67556 0
M  V30 8200 H 744.29 -1.78311 -5.22407 0
M  V30 8201 H 746.766 -0.178563 -4.15717 0
M  V30 8202 H 745.642 0.208934 -5.48502 0
M  V30 8203 H 745.903 1.37841 -4.20062 0
M  V30 8204 N 744.962 1.50701 -0.461195 0
M  V30 8205 C 745.925 2.2686 0.326679 0
M  V30 8206 C 746.925 1.31243 0.929085 0
M  V30 8207 O 748.115 1.54754 0.799807 0
M  V30 8208 C 745.247 3.07844 1.46441 0
M  V30 8209 H 746.44 2.97954 -0.341095 0
M  V30 8210 H 743.993 1.54814 -0.214984 0
M  V30 8211 H 744.728 2.41223 2.16753 0
M  V30 8212 H 744.513 3.78101 1.03836 0
M  V30 8213 H 746.003 3.65469 2.02044 0
M  V30 8214 N 746.441 0.193421 1.56409 0
M  V30 8215 C 747.351 -0.740112 2.2262 0
M  V30 8216 C 748.367 -1.23597 1.22474 0
M  V30 8217 O 749.543 -1.28348 1.55206 0
M  V30 8218 C 746.608 -1.94317 2.87127 0
M  V30 8219 C 745.669 -1.49205 4.02538 0
M  V30 8220 C 744.902 -2.63776 4.63959 0
M  V30 8221 O 745.125 -3.81215 4.24301 0
M  V30 8222 O 744.059 -2.36585 5.53454 0
M  V30 8223 H 747.885 -0.206238 3.02999 0
M  V30 8224 H 745.47 -0.0357938 1.49357 0
M  V30 8225 H 747.352 -2.64633 3.27944 0
M  V30 8226 H 746.027 -2.46568 2.09728 0
M  V30 8227 H 744.934 -0.757738 3.66346 0
M  V30 8228 H 746.267 -1.01622 4.81595 0
M  V30 8229 N 747.919 -1.57396 -0.0801906 0
M  V30 8230 C 749.165 -1.87113 -0.782083 0
M  V30 8231 C 749.498 -0.78458 -1.77646 0
M  V30 8232 O 748.773 0.205993 -1.93406 0
M  V30 8233 C 749.056 -3.27483 -1.49756 0
M  V30 8234 C 748.909 -4.46782 -0.520171 0
M  V30 8235 C 750.228 -3.65965 -2.44454 0
M  V30 8236 H 747.347 -0.680559 -0.282858 0
M  V30 8237 H 749.989 -1.89946 -0.0454139 0
M  V30 8238 H 748.139 -3.25199 -2.12551 0
M  V30 8239 H 749.811 -4.61187 0.101919 0
M  V30 8240 H 748.054 -4.33485 0.165219 0
M  V30 8241 H 748.725 -5.41761 -1.05824 0
M  V30 8242 H 751.201 -3.69289 -1.91742 0
M  V30 8243 H 750.077 -4.65086 -2.91524 0
M  V30 8244 H 750.338 -2.95446 -3.28883 0
M  V30 8245 N 749.397 0.351382 -1.53633 0
M  V30 8246 C 750.327 1.43688 -1.84055 0
M  V30 8247 C 751.308 1.55251 -0.695073 0
M  V30 8248 O 752.493 1.69587 -0.946257 0
M  V30 8249 C 749.623 2.80843 -2.04315 0
M  V30 8250 C 748.577 2.84094 -3.20117 0
M  V30 8251 C 747.903 4.2406 -3.25696 0
M  V30 8252 C 749.203 2.50334 -4.58399 0
M  V30 8253 H 750.897 1.18478 -2.74961 0
M  V30 8254 H 748.443 0.568509 -1.32303 0
M  V30 8255 H 750.396 3.56821 -2.2418 0
M  V30 8256 H 749.12 3.07471 -1.10132 0
M  V30 8257 H 747.779 2.10568 -3.00094 0
M  V30 8258 H 747.427 4.47785 -2.29123 0
M  V30 8259 H 747.127 4.27147 -4.03509 0
M  V30 8260 H 748.651 5.0189 -3.47762 0
M  V30 8261 H 750.065 3.16025 -4.78332 0
M  V30 8262 H 748.462 2.64717 -5.38558 0
M  V30 8263 H 749.532 1.45542 -4.62543 0
M  V30 8264 N 750.875 1.45233 0.611969 0
M  V30 8265 C 752.1 1.52767 1.40274 0
M  V30 8266 C 752.525 0.159701 1.87421 0
M  V30 8267 O 751.883 -0.854837 1.59882 0
M  V30 8268 C 751.931 2.51286 2.58626 0
M  V30 8269 O 751.035 2.02764 3.59111 0
M  V30 8270 H 750.376 0.515141 0.418958 0
M  V30 8271 H 752.906 1.90547 0.745188 0
M  V30 8272 H 752.916 2.69949 3.05927 0
M  V30 8273 H 751.591 3.50641 2.23659 0
M  V30 8274 H 750.168 1.93957 3.18489 0
M  V30 8275 N 752.353 -0.854086 1.3245 0
M  V30 8276 C 753.599 -1.6105 1.24235 0
M  V30 8277 C 753.954 -1.91421 -0.193877 0
M  V30 8278 O 753.247 -1.54599 -1.1318 0
M  V30 8279 C 753.441 -2.93746 2.03587 0
M  V30 8280 C 753.27 -2.76335 3.54781 0
M  V30 8281 C 752.04 -2.74687 4.24117 0
M  V30 8282 C 754.238 -2.50052 4.4942 0
M  V30 8283 N 752.22 -2.48493 5.6136 0
M  V30 8284 C 753.591 -2.33269 5.74444 0
M  V30 8285 C 755.646 -2.35525 4.38671 0
M  V30 8286 C 754.349 -2.03434 6.89933 0
M  V30 8287 C 756.375 -2.07081 5.5396 0
M  V30 8288 C 755.737 -1.91098 6.77983 0
M  V30 8289 H 751.836 -0.593008 0.50977 0
M  V30 8290 H 754.42 -1.00392 1.66822 0
M  V30 8291 H 752.591 -3.52382 1.63345 0
M  V30 8292 H 754.323 -3.58768 1.87263 0
M  V30 8293 H 751.078 -2.87647 3.7624 0
M  V30 8294 H 751.502 -2.38322 6.33665 0
M  V30 8295 H 756.144 -2.46602 3.43435 0
M  V30 8296 H 753.862 -1.91095 7.85181 0
M  V30 8297 H 757.448 -1.96618 5.4757 0
M  V30 8298 H 756.328 -1.69402 7.65684 0
M  V30 8299 N 753.831 -1.1567 -1.07043 0
M  V30 8300 C 754.763 -0.814095 -2.14255 0
M  V30 8301 C 755.776 0.175293 -1.61854 0
M  V30 8302 O 756.965 -0.0483984 -1.78434 0
M  V30 8303 C 754.065 -0.190082 -3.38367 0
M  V30 8304 C 753.238 -1.21768 -4.20109 0
M  V30 8305 C 752.297 -0.614863 -5.22595 0
M  V30 8306 O 751.323 -1.28167 -5.54583 0
M  V30 8307 N 752.525 0.601955 -5.77371 0
M  V30 8308 H 755.29 -1.73677 -2.44247 0
M  V30 8309 H 752.851 -1.05301 -1.22977 0
M  V30 8310 H 754.843 0.22604 -4.04068 0
M  V30 8311 H 753.413 0.635992 -3.06062 0
M  V30 8312 H 752.633 -1.81025 -3.50177 0
M  V30 8313 H 753.921 -1.9114 -4.71533 0
M  V30 8314 H 753.319 1.162 -5.53637 0
M  V30 8315 H 751.876 0.96039 -6.44686 0
M  V30 8316 N 755.309 1.25446 -0.953992 0
M  V30 8317 C 756.556 1.93143 -0.608429 0
M  V30 8318 C 756.884 1.74727 0.854451 0
M  V30 8319 O 756.139 1.0855 1.62836 0
M  V30 8320 C 756.438 3.45555 -0.912496 0
M  V30 8321 C 756.104 3.84126 -2.36131 0
M  V30 8322 C 754.766 3.94367 -2.75732 0
M  V30 8323 C 757.118 4.0324 -3.30223 0
M  V30 8324 C 754.446 4.21127 -4.08496 0
M  V30 8325 C 756.798 4.31493 -4.62598 0
M  V30 8326 C 755.462 4.3995 -5.01996 0
M  V30 8327 H 754.732 0.706762 -0.22264 0
M  V30 8328 H 757.379 1.49005 -1.20291 0
M  V30 8329 H 755.684 3.91091 -0.235618 0
M  V30 8330 H 757.381 3.9612 -0.623714 0
M  V30 8331 H 753.971 3.76711 -2.04418 0
M  V30 8332 H 758.155 3.94744 -3.00817 0
M  V30 8333 H 753.411 4.2589 -4.38665 0
M  V30 8334 H 757.585 4.45227 -5.35486 0
M  V30 8335 H 755.212 4.60439 -6.04896 0
M  V30 8336 N 756.787 0.722489 1.40064 0
M  V30 8337 C 758.012 0.273446 2.05589 0
M  V30 8338 C 758.437 -1.07875 1.54093 0
M  V30 8339 O 757.795 -1.68095 0.679252 0
M  V30 8340 C 757.843 0.271023 3.5958 0
M  V30 8341 O 756.947 -0.745499 4.05606 0
M  V30 8342 H 756.288 0.126856 0.65177 0
M  V30 8343 H 758.818 0.984906 1.79334 0
M  V30 8344 H 758.828 0.111084 4.07849 0
M  V30 8345 H 757.503 1.25776 3.96425 0
M  V30 8346 H 756.08 -0.552719 3.68781 0
M  V30 8347 N 758.265 -1.50454 0.469181 0
M  V30 8348 C 759.49 -2.0722 -0.0864892 0
M  V30 8349 C 759.915 -1.33098 -1.32916 0
M  V30 8350 O 759.273 -0.378084 -1.77314 0
M  V30 8351 C 759.321 -3.58845 -0.355384 0
M  V30 8352 O 758.425 -3.86583 -1.43622 0
M  V30 8353 H 757.766 -0.663889 0.0121414 0
M  V30 8354 H 760.296 -1.93674 0.659674 0
M  V30 8355 H 760.306 -4.03617 -0.596447 0
M  V30 8356 H 758.981 -4.12211 0.552698 0
M  V30 8357 H 757.558 -3.5365 -1.18262 0
M  V30 8358 N 759.743 -0.201713 -1.56304 0
M  V30 8359 C 760.971 0.440723 -2.02152 0
M  V30 8360 C 761.386 1.54735 -1.08179 0
M  V30 8361 O 760.743 1.82289 -0.0878196 0
M  V30 8362 C 760.794 0.990884 -3.47655 0
M  V30 8363 O 760.515 -0.0715937 -4.38041 0
M  V30 8364 C 762.016 1.70854 -4.09052 0
M  V30 8365 H 759.236 0.109987 -0.661924 0
M  V30 8366 H 761.78 -0.312358 -2.021 0
M  V30 8367 H 759.935 1.69432 -3.48384 0
M  V30 8368 H 760.349 0.338892 -5.23404 0
M  V30 8369 H 761.823 2.04572 -5.12693 0
M  V30 8370 H 762.3 2.61462 -3.52894 0
M  V30 8371 H 762.906 1.0508 -4.12114 0
M  V30 8372 N 761.222 1.57436 0.0718424 0
M  V30 8373 C 762.45 1.91474 0.783932 0
M  V30 8374 C 762.865 0.797669 1.71122 0
M  V30 8375 O 762.222 -0.228989 1.81058 0
M  V30 8376 C 762.273 3.25259 1.57761 0
M  V30 8377 O 761.994 4.3267 0.687596 0
M  V30 8378 C 763.495 3.7331 2.3907 0
M  V30 8379 H 760.715 0.632901 0.222885 0
M  V30 8380 H 763.259 2.04457 0.0421262 0
M  V30 8381 H 761.414 3.13804 2.27169 0
M  V30 8382 H 761.828 5.09641 1.23962 0
M  V30 8383 H 763.302 4.69551 2.90216 0
M  V30 8384 H 763.779 3.02318 3.18591 0
M  V30 8385 H 764.385 3.8771 1.74818 0
M  V30 8386 N 762.7 -0.34323 1.53817 0
M  V30 8387 C 763.647 -1.42153 1.81827 0
M  V30 8388 C 764.617 -1.52251 0.663996 0
M  V30 8389 O 765.802 -1.67784 0.908461 0
M  V30 8390 C 762.942 -2.78799 2.03384 0
M  V30 8391 C 762.055 -2.7749 3.31094 0
M  V30 8392 C 761.19 -4.05856 3.42717 0
M  V30 8393 C 760.229 -3.98776 4.64375 0
M  V30 8394 N 759.366 -5.18833 4.73029 0
M  V30 8395 H 764.206 -1.17567 2.73829 0
M  V30 8396 H 761.743 -0.569506 1.35628 0
M  V30 8397 H 763.701 -3.58211 2.13872 0
M  V30 8398 H 762.331 -3.01736 1.14696 0
M  V30 8399 H 761.383 -1.90182 3.29446 0
M  V30 8400 H 762.695 -2.68137 4.206 0
M  V30 8401 H 761.849 -4.93691 3.52638 0
M  V30 8402 H 760.588 -4.1799 2.51267 0
M  V30 8403 H 759.593 -3.09325 4.5453 0
M  V30 8404 H 760.818 -3.88224 5.57189 0
M  V30 8405 H 758.764 -5.31511 3.84489 0
M  V30 8406 H 758.681 -5.11737 5.56472 0
M  V30 8407 H 759.949 -6.08439 4.87261 0
M  V30 8408 N 764.178 -1.45556 -0.604258 0
M  V30 8409 C 765.594 -1.30035 -0.925368 0
M  V30 8410 C 765.794 -0.255833 -1.99869 0
M  V30 8411 O 764.85 0.349076 -2.50075 0
M  V30 8412 C 766.163 -2.68028 -1.36314 0
M  V30 8413 C 767.711 -2.75951 -1.47717 0
M  V30 8414 C 768.186 -4.14476 -1.94868 0
M  V30 8415 N 769.677 -4.16787 -2.02097 0
M  V30 8416 C 770.412 -5.20845 -2.39809 0
M  V30 8417 N 769.908 -6.35246 -2.76467 0
M  V30 8418 N 771.701 -5.08204 -2.40177 0
M  V30 8419 H 763.852 -2.1214 0.10512 0
M  V30 8420 H 766.115 -0.947871 -0.0156303 0
M  V30 8421 H 765.821 -3.45667 -0.648628 0
M  V30 8422 H 765.695 -2.96711 -2.329 0
M  V30 8423 H 768.082 -1.98613 -2.18258 0
M  V30 8424 H 768.163 -2.50977 -0.494371 0
M  V30 8425 H 767.807 -4.923 -1.24912 0
M  V30 8426 H 767.737 -4.36843 -2.94068 0
M  V30 8427 H 770.228 -3.34233 -1.76343 0
M  V30 8428 H 770.541 -7.10438 -3.04134 0
M  V30 8429 H 768.886 -6.38642 -2.74155 0
M  V30 8430 H 772.077 -4.17874 -2.10947 0
M  V30 8431 H 772.25 -5.89417 -2.69242 0
M  V30 8432 N 765.656 0.84705 -1.32902 0
M  V30 8433 C 766.904 1.5986 -1.2365 0
M  V30 8434 C 767.225 1.93974 0.199789 0
M  V30 8435 O 766.495 1.60273 1.12648 0
M  V30 8436 H 765.075 0.592696 -0.454665 0
M  V30 8437 H 767.737 1.01278 -1.66519 0
M  V30 8438 H 766.833 2.53218 -1.82448 0
M  V30 8439 N 767.134 1.16236 1.06428 0
M  V30 8440 C 768.064 0.890807 2.1584 0
M  V30 8441 C 769.045 -0.162333 1.69324 0
M  V30 8442 O 770.23 -0.0147191 1.94194 0
M  V30 8443 C 767.36 0.389615 3.45108 0
M  V30 8444 C 766.314 1.38051 4.05125 0
M  V30 8445 C 765.64 0.737773 5.29586 0
M  V30 8446 C 766.94 2.74965 4.44062 0
M  V30 8447 H 768.634 1.80577 2.38814 0
M  V30 8448 H 766.18 0.869657 1.14774 0
M  V30 8449 H 768.133 0.187127 4.20984 0
M  V30 8450 H 766.857 -0.560851 3.21748 0
M  V30 8451 H 765.516 1.56952 3.31303 0
M  V30 8452 H 765.164 -0.219135 5.02522 0
M  V30 8453 H 764.864 1.39914 5.70699 0
M  V30 8454 H 766.388 0.545275 6.0816 0
M  V30 8455 H 767.802 2.59855 5.11027 0
M  V30 8456 H 766.199 3.37563 4.96156 0
M  V30 8457 H 767.269 3.30321 3.54987 0
M  V30 8458 N 768.612 -1.24939 0.960631 0
M  V30 8459 C 769.837 -1.9742 0.635608 0
M  V30 8460 C 770.262 -1.70857 -0.786737 0
M  V30 8461 O 769.62 -0.968063 -1.53291 0
M  V30 8462 C 769.668 -3.48987 0.907771 0
M  V30 8463 O 768.772 -4.12399 -0.0104053 0
M  V30 8464 H 768.113 -0.61871 0.241027 0
M  V30 8465 H 770.643 -1.58901 1.28886 0
M  V30 8466 H 770.653 -3.99334 0.836453 0
M  V30 8467 H 769.328 -3.6765 1.94439 0
M  V30 8468 H 767.905 -3.72727 0.113631 0
M  V30 8469 N 770.09 -0.729906 -1.39679 0
M  V30 8470 C 771.339 -0.272534 -1.9985 0
M  V30 8471 C 771.652 1.14519 -1.58571 0
M  V30 8472 O 772.858 1.70182 -2.11543 0
M  V30 8473 C 771.314 -0.436322 -3.57245 0
M  V30 8474 C 770.922 -1.86161 -4.0749 0
M  V30 8475 C 772.666 -0.0404679 -4.24481 0
M  V30 8476 C 770.573 -1.97522 -5.5744 0
M  V30 8477 H 769.503 -0.0981428 -0.747585 0
M  V30 8478 H 772.154 -0.903056 -1.59741 0
M  V30 8479 H 770.536 0.263015 -3.95126 0
M  V30 8480 H 771.71 -2.59248 -3.80955 0
M  V30 8481 H 770.025 -2.21021 -3.529 0
M  V30 8482 H 772.622 -0.104437 -5.34598 0
M  V30 8483 H 772.965 1.00357 -4.04023 0
M  V30 8484 H 773.498 -0.690774 -3.91757 0
M  V30 8485 H 770.237 -3.00096 -5.82771 0
M  V30 8486 H 769.757 -1.28864 -5.85794 0
M  V30 8487 H 771.436 -1.754 -6.22771 0
M  V30 8488 N 771.568 1.50203 -0.477153 0
M  V30 8489 C 772.478 2.32421 0.319027 0
M  V30 8490 C 773.494 1.43075 0.990233 0
M  V30 8491 O 774.67 1.76123 0.976873 0
M  V30 8492 C 771.735 3.17909 1.38328 0
M  V30 8493 C 770.796 4.23082 0.728036 0
M  V30 8494 C 770.029 5.04484 1.74158 0
M  V30 8495 O 770.252 4.8705 2.96881 0
M  V30 8496 O 769.186 5.8747 1.31006 0
M  V30 8497 H 773.012 3.01638 -0.353281 0
M  V30 8498 H 770.597 1.47478 -0.238891 0
M  V30 8499 H 772.479 3.70937 1.9996 0
M  V30 8500 H 771.154 2.51413 2.03895 0
M  V30 8501 H 770.061 3.7403 0.07261 0
M  V30 8502 H 771.394 4.92065 0.115216 0
M  V30 8503 N 773.046 0.209999 1.56195 0
M  V30 8504 C 773.978 -0.736967 2.17029 0
M  V30 8505 C 774.991 -1.16599 1.13616 0
M  V30 8506 O 776.18 -1.09914 1.40646 0
M  V30 8507 C 773.28 -2.00852 2.72969 0
M  V30 8508 C 772.453 -1.73691 4.01435 0
M  V30 8509 C 771.512 -2.85439 4.42053 0
M  V30 8510 O 770.538 -2.54405 5.09183 0
M  V30 8511 N 771.74 -4.14135 4.06783 0
M  V30 8512 H 774.505 -0.216656 2.98916 0
M  V30 8513 H 772.066 0.0285672 1.61875 0
M  V30 8514 H 774.058 -2.74778 2.97118 0
M  V30 8515 H 772.628 -2.43963 1.95451 0
M  V30 8516 H 771.848 -0.834676 3.85262 0
M  V30 8517 H 773.136 -1.52961 4.85263 0
M  V30 8518 H 772.534 -4.42196 3.52816 0
M  V30 8519 H 771.091 -4.84642 4.35851 0
M  V30 8520 N 774.524 -1.57472 -0.0634922 0
M  V30 8521 C 775.454 -2.07297 -1.07473 0
M  V30 8522 C 776.435 -0.968162 -1.39859 0
M  V30 8523 O 777.62 -1.24139 -1.49343 0
M  V30 8524 C 774.75 -2.52381 -2.38581 0
M  V30 8525 C 773.704 -3.66813 -2.20526 0
M  V30 8526 C 773.03 -3.97982 -3.57092 0
M  V30 8527 C 774.33 -4.96553 -1.61965 0
M  V30 8528 H 776.024 -2.92033 -0.660092 0
M  V30 8529 H 773.57 -1.40488 -0.316074 0
M  V30 8530 H 775.523 -2.85852 -3.09624 0
M  V30 8531 H 774.247 -1.64684 -2.8204 0
M  V30 8532 H 772.906 -3.33639 -1.51924 0
M  V30 8533 H 772.554 -3.07403 -3.98136 0
M  V30 8534 H 772.254 -4.7504 -3.45848 0
M  V30 8535 H 773.778 -4.33956 -4.29552 0
M  V30 8536 H 775.192 -5.28201 -2.22883 0
M  V30 8537 H 773.589 -5.7799 -1.61394 0
M  V30 8538 H 774.659 -4.81396 -0.581918 0
M  V30 8539 N 776.003 0.335068 -1.53997 0
M  V30 8540 C 777.231 1.09418 -1.756 0
M  V30 8541 C 777.646 1.82083 -0.499138 0
M  V30 8542 O 777.003 1.74646 0.529631 0
M  V30 8543 C 777.054 2.10115 -2.94166 0
M  V30 8544 O 776.775 1.40404 -4.14992 0
M  V30 8545 C 778.276 2.98336 -3.27888 0
M  V30 8546 H 775.496 0.32595 -0.586513 0
M  V30 8547 H 778.04 0.384693 -2.00849 0
M  V30 8548 H 776.195 2.76616 -2.71224 0
M  V30 8549 H 776.609 2.07743 -4.81605 0
M  V30 8550 H 778.083 3.6491 -4.1418 0
M  V30 8551 H 778.56 3.64814 -2.44556 0
M  V30 8552 H 779.166 2.37412 -3.52868 0
M  V30 8553 N 777.481 1.45874 0.596531 0
M  V30 8554 C 778.709 1.54013 1.38158 0
M  V30 8555 C 779.124 0.17648 1.87973 0
M  V30 8556 O 778.481 -0.823895 1.62844 0
M  V30 8557 C 778.532 2.53363 2.57855 0
M  V30 8558 O 778.253 3.8443 2.10108 0
M  V30 8559 C 779.754 2.71308 3.50581 0
M  V30 8560 H 776.974 0.521251 0.422538 0
M  V30 8561 H 779.518 1.9116 0.726493 0
M  V30 8562 H 777.673 2.19257 3.19382 0
M  V30 8563 H 778.087 4.38384 2.87958 0
M  V30 8564 H 779.561 3.44776 4.31084 0
M  V30 8565 H 780.038 1.77728 4.01633 0
M  V30 8566 H 780.644 3.06455 2.94899 0
M  V30 8567 N 778.959 -0.83999 1.33349 0
M  V30 8568 C 779.889 -1.965 1.26135 0
M  V30 8569 C 780.87 -1.69505 0.142152 0
M  V30 8570 O 782.055 -1.91346 0.331743 0
M  V30 8571 C 779.185 -3.32632 0.99866 0
M  V30 8572 C 778.139 -3.74021 2.08068 0
M  V30 8573 C 777.465 -5.07947 1.67014 0
M  V30 8574 C 778.765 -3.87925 3.49731 0
M  V30 8575 H 780.459 -2.02793 2.20262 0
M  V30 8576 H 778.005 -0.974297 1.06035 0
M  V30 8577 H 779.958 -4.10903 0.934696 0
M  V30 8578 H 778.682 -3.26593 0.0217759 0
M  V30 8579 H 777.341 -2.98012 2.13505 0
M  V30 8580 H 776.989 -4.98378 0.680316 0
M  V30 8581 H 776.689 -5.36611 2.39422 0
M  V30 8582 H 778.213 -5.88695 1.62082 0
M  V30 8583 H 779.627 -4.5651 3.46802 0
M  V30 8584 H 778.024 -4.28023 4.20614 0
M  V30 8585 H 779.094 -2.90407 3.88319 0
M  V30 8586 N 780.437 -1.16799 -1.0581 0
M  V30 8587 C 781.4 -0.881396 -2.11575 0
M  V30 8588 C 782.4 0.12574 -1.60308 0
M  V30 8589 O 783.59 -0.105716 -1.73879 0
M  V30 8590 C 780.722 -0.319037 -3.39404 0
M  V30 8591 H 781.915 -1.81907 -2.38432 0
M  V30 8592 H 779.468 -0.977597 -1.21954 0
M  V30 8593 H 780.203 0.626082 -3.18199 0
M  V30 8594 H 779.988 -1.04481 -3.77923 0
M  V30 8595 H 781.478 -0.13663 -4.17376 0
M  V30 8596 N 781.915 1.24427 -0.967243 0
M  V30 8597 C 782.825 2.29109 -0.504592 0
M  V30 8598 C 783.841 1.68495 0.434224 0
M  V30 8599 O 785.017 1.99041 0.307379 0
M  V30 8600 C 782.082 3.46133 0.198273 0
M  V30 8601 C 781.143 4.22149 -0.780313 0
M  V30 8602 C 780.376 5.33585 -0.110896 0
M  V30 8603 O 780.599 5.59676 1.10088 0
M  V30 8604 O 779.533 5.96522 -0.802823 0
M  V30 8605 H 783.359 2.708 -1.37482 0
M  V30 8606 H 780.944 1.30111 -0.73426 0
M  V30 8607 H 782.826 4.17205 0.593124 0
M  V30 8608 H 781.501 3.0642 1.04347 0
M  V30 8609 H 780.408 3.53454 -1.22561 0
M  V30 8610 H 781.741 4.65677 -1.59392 0
M  V30 8611 N 783.393 0.737304 1.3929 0
M  V30 8612 C 784.34 0.0988364 2.30588 0
M  V30 8613 C 785.31 -0.727206 1.49335 0
M  V30 8614 O 786.495 -0.686694 1.78014 0
M  V30 8615 C 783.635 -0.800734 3.35682 0
M  V30 8616 C 782.748 0.0381731 4.31983 0
M  V30 8617 C 781.883 -0.862884 5.24145 0
M  V30 8618 C 780.922 -0.0193639 6.12097 0
M  V30 8619 N 780.059 -0.87648 6.96608 0
M  V30 8620 H 784.899 0.883031 2.84617 0
M  V30 8621 H 782.436 0.447111 1.4014 0
M  V30 8622 H 784.394 -1.33676 3.95205 0
M  V30 8623 H 783.024 -1.55088 2.83103 0
M  V30 8624 H 782.076 0.691641 3.74059 0
M  V30 8625 H 783.388 0.690294 4.94 0
M  V30 8626 H 782.542 -1.46667 5.88705 0
M  V30 8627 H 781.281 -1.54878 4.62454 0
M  V30 8628 H 780.286 0.597202 5.46547 0
M  V30 8629 H 781.511 0.663348 6.75852 0
M  V30 8630 H 779.457 -1.54762 6.37483 0
M  V30 8631 H 779.374 -0.280892 7.55478 0
M  V30 8632 H 780.642 -1.46575 7.65595 0
M  V30 8633 N 784.871 -1.49948 0.485112 0
M  V30 8634 C 785.801 -2.31675 -0.291364 0
M  V30 8635 C 786.782 -1.39216 -0.977383 0
M  V30 8636 O 787.967 -1.68133 -0.971855 0
M  V30 8637 C 785.097 -3.19326 -1.36558 0
M  V30 8638 C 784.051 -4.2045 -0.800359 0
M  V30 8639 C 783.377 -4.96931 -1.97391 0
M  V30 8640 C 784.677 -5.21925 0.197867 0
M  V30 8641 H 786.371 -2.96839 0.390775 0
M  V30 8642 H 783.917 -1.42749 0.189375 0
M  V30 8643 H 785.87 -3.75304 -1.91638 0
M  V30 8644 H 784.594 -2.52074 -2.07668 0
M  V30 8645 H 783.253 -3.65594 -0.271428 0
M  V30 8646 H 782.901 -4.26141 -2.67232 0
M  V30 8647 H 782.601 -5.65344 -1.60187 0
M  V30 8648 H 784.125 -5.55749 -2.52935 0
M  V30 8649 H 785.539 -5.72691 -0.264239 0
M  V30 8650 H 783.936 -5.98138 0.484908 0
M  V30 8651 H 785.006 -4.71809 1.11912 0
M  V30 8652 N 786.349 -0.21828 -1.56081 0
M  V30 8653 C 787.279 0.687922 -2.23136 0
M  V30 8654 C 788.26 1.20357 -1.202 0
M  V30 8655 O 789.445 1.24817 -1.48776 0
M  V30 8656 C 786.575 1.89762 -2.90874 0
M  V30 8657 C 785.529 1.51595 -4.00254 0
M  V30 8658 C 784.855 2.80415 -4.55271 0
M  V30 8659 C 786.155 0.708404 -5.17474 0
M  V30 8660 H 787.849 0.128854 -2.99123 0
M  V30 8661 H 785.395 0.0605354 -1.43873 0
M  V30 8662 H 787.348 2.53699 -3.36474 0
M  V30 8663 H 786.072 2.4816 -2.1233 0
M  V30 8664 H 784.731 0.900058 -3.55379 0
M  V30 8665 H 784.379 3.36951 -3.73461 0
M  V30 8666 H 784.079 2.55613 -5.2909 0
M  V30 8667 H 785.603 3.453 -5.03587 0
M  V30 8668 H 787.017 1.2514 -5.59476 0
M  V30 8669 H 785.414 0.557593 -5.97504 0
M  V30 8670 H 786.484 -0.285679 -4.84058 0
M  V30 8671 N 787.827 1.57504 0.0551401 0
M  V30 8672 C 789.075 1.87684 0.74962 0
M  V30 8673 C 789.396 0.812547 1.77264 0
M  V30 8674 O 788.666 -0.15694 1.9527 0
M  V30 8675 H 787.246 0.6926 0.279846 0
M  V30 8676 H 789.908 1.94881 0.0272745 0
M  V30 8677 H 789.004 2.85734 1.25548 0
M  V30 8678 N 789.305 -0.326896 1.54172 0
M  V30 8679 C 790.716 -0.901533 1.63491 0
M  V30 8680 C 791.067 -1.88994 0.52684 0
M  V30 8681 O 790.192 -2.137 -0.340794 0
M  V30 8682 C 790.787 -1.64192 2.96355 0
M  V30 8683 C 789.346 -2.16533 3.07881 0
M  V30 8684 C 788.493 -0.98966 2.59039 0
M  V30 8685 H 791.444 -0.104568 1.58355 0
M  V30 8686 H 791.465 -2.50592 2.86328 0
M  V30 8687 H 790.977 -0.922291 3.76982 0
M  V30 8688 H 789.078 -2.91622 2.31922 0
M  V30 8689 H 789.191 -2.41762 4.13628 0
M  V30 8690 H 787.555 -1.36787 2.14852 0
M  V30 8691 H 788.338 -0.284401 3.4212 0
M  V30 8692 N 790.784 -1.46188 -0.588786 0
M  V30 8693 C 792.032 -1.50885 -1.34455 0
M  V30 8694 C 792.353 -0.159555 -1.94346 0
M  V30 8695 O 791.623 0.813239 -1.78222 0
M  V30 8696 H 790.203 -0.555707 -0.499198 0
M  V30 8697 H 792.865 -1.82277 -0.690014 0
M  V30 8698 H 791.961 -2.25816 -2.15438 0
M  V30 8699 N 792.262 0.832906 -1.33792 0
M  V30 8700 C 793.508 1.59089 -1.25772 0
M  V30 8701 C 793.841 1.93414 0.174601 0
M  V30 8702 O 793.116 1.59195 1.11746 0
M  V30 8703 C 793.399 2.89699 -2.13885 0
M  V30 8704 C 793.252 2.62017 -3.65605 0
M  V30 8705 C 794.571 3.91182 -2.01654 0
M  V30 8706 H 791.69 0.577232 -0.458227 0
M  V30 8707 H 794.332 0.960227 -1.6395 0
M  V30 8708 H 792.482 3.4352 -1.81456 0
M  V30 8709 H 794.154 2.14582 -4.08353 0
M  V30 8710 H 792.397 1.95621 -3.87189 0
M  V30 8711 H 793.068 3.55112 -4.2261 0
M  V30 8712 H 795.544 3.46684 -2.30107 0
M  V30 8713 H 794.42 4.80391 -2.65548 0
M  V30 8714 H 794.681 4.30861 -0.990536 0
M  V30 8715 N 793.74 1.17359 1.05189 0
M  V30 8716 C 794.688 0.886527 2.15043 0
M  V30 8717 C 795.682 -0.148834 1.68745 0
M  V30 8718 O 796.888 -0.00175123 1.8 0
M  V30 8719 H 793.263 0.269147 0.702185 0
M  V30 8720 H 795.234 1.82016 2.36459 0
M  V30 8721 C 793.983 0.416333 3.45198 0
M  V30 8722 H 793.306 1.20449 3.81225 0
M  V30 8723 H 794.746 0.254362 4.23236 0
M  V30 8724 C 793.205 -0.866016 3.25579 0
M  V30 8725 O 793.735 -1.9328 3.52144 0
M  V30 8726 N 791.941 -0.814179 2.78961 0
M  V30 8727 H 791.488 0.0541618 2.57543 0
M  V30 8728 H 791.446 -1.67264 2.66214 0
M  V30 8729 N 795.218 -1.23913 0.973828 0
M  V30 8730 C 796.448 -1.95911 0.655938 0
M  V30 8731 C 796.856 -1.72375 -0.779967 0
M  V30 8732 O 796.199 -1.00807 -1.5357 0
M  V30 8733 C 796.261 -3.49103 0.858324 0
M  V30 8734 C 795.925 -3.96347 2.27504 0
M  V30 8735 C 796.922 -4.05537 3.25324 0
M  V30 8736 C 794.607 -4.29509 2.60437 0
M  V30 8737 C 796.601 -4.47233 4.5416 0
M  V30 8738 C 794.288 -4.70887 3.89498 0
M  V30 8739 C 795.286 -4.79714 4.86172 0
M  V30 8740 O 794.974 -5.20166 6.1293 0
M  V30 8741 H 794.706 -0.630721 0.243244 0
M  V30 8742 H 797.26 -1.58534 1.30599 0
M  V30 8743 H 795.49 -3.86405 0.151097 0
M  V30 8744 H 797.179 -4.02311 0.538592 0
M  V30 8745 H 797.945 -3.80128 3.0121 0
M  V30 8746 H 793.824 -4.21853 1.85906 0
M  V30 8747 H 797.368 -4.54038 5.29618 0
M  V30 8748 H 793.265 -4.95744 4.1341 0
M  V30 8749 H 794.033 -5.38298 6.16586 0
M  V30 8750 N 796.696 -0.74468 -1.38897 0
M  V30 8751 C 797.921 -0.306119 -2.05128 0
M  V30 8752 C 798.346 1.0541 -1.55789 0
M  V30 8753 O 797.704 1.66993 -0.705909 0
M  V30 8754 C 797.752 -0.328195 -3.59103 0
M  V30 8755 O 796.856 0.680876 -4.06741 0
M  V30 8756 H 796.197 -0.137209 -0.649669 0
M  V30 8757 H 798.727 -1.01331 -1.77745 0
M  V30 8758 H 798.737 -0.175956 -4.0762 0
M  V30 8759 H 797.412 -1.32067 -3.94374 0
M  V30 8760 H 795.989 0.49398 -3.69614 0
M  V30 8761 N 798.174 1.49689 -0.493057 0
M  V30 8762 C 799.422 2.02027 0.0541642 0
M  V30 8763 C 799.743 1.37554 1.38217 0
M  V30 8764 O 799.013 0.528174 1.88646 0
M  V30 8765 H 797.593 0.746646 0.0230069 0
M  V30 8766 H 800.255 1.83795 -0.648489 0
M  V30 8767 H 799.351 3.11523 0.189652 0
M  V30 8768 N 799.652 0.226554 1.55963 0
M  V30 8769 C 800.892 -0.405574 2.00336 0
M  V30 8770 C 801.256 -1.56593 1.11097 0
M  V30 8771 O 802.457 -2.26441 1.44838 0
M  V30 8772 C 800.728 -0.82435 3.47763 0
M  V30 8773 S 802.287 -1.44988 4.14154 0
M  V30 8774 H 799.105 -0.128512 0.699289 0
M  V30 8775 H 801.707 0.337017 1.92573 0
M  V30 8776 H 800.411 0.0297636 4.10389 0
M  V30 8777 H 799.942 -1.59963 3.5941 0
M  V30 8778 H 801.957 -2.73897 4.13757 0
M  V30 8779 N 801.13 -1.57531 -0.0467866 0
M  V30 8780 C 802.062 -2.02156 -1.08007 0
M  V30 8781 C 803.075 -0.931434 -1.33522 0
M  V30 8782 O 804.264 -1.209 -1.31321 0
M  V30 8783 C 801.364 -2.36675 -2.42566 0
M  V30 8784 C 800.537 -3.67848 -2.36658 0
M  V30 8785 C 799.596 -3.89754 -3.53523 0
M  V30 8786 O 798.622 -4.61036 -3.33818 0
M  V30 8787 N 799.824 -3.34025 -4.74771 0
M  V30 8788 H 802.589 -2.91414 -0.699845 0
M  V30 8789 H 800.15 -1.60185 -0.235041 0
M  V30 8790 H 802.142 -2.48482 -3.19435 0
M  V30 8791 H 800.712 -1.53178 -2.72498 0
M  V30 8792 H 799.932 -3.66561 -1.45005 0
M  V30 8793 H 801.22 -4.53931 -2.29835 0
M  V30 8794 H 800.618 -2.76214 -4.93683 0
M  V30 8795 H 799.175 -3.51241 -5.49066 0
M  V30 8796 N 802.608 0.318715 -1.54344 0
M  V30 8797 C 803.857 1.05363 -1.71993 0
M  V30 8798 C 804.17 1.89018 -0.503155 0
M  V30 8799 O 805.376 2.65639 -0.561085 0
M  V30 8800 C 803.832 1.92281 -3.0423 0
M  V30 8801 C 803.44 1.13715 -4.33328 0
M  V30 8802 C 805.184 2.65479 -3.31242 0
M  V30 8803 C 803.091 1.99806 -5.56625 0
M  V30 8804 H 802.021 0.397081 -0.64097 0
M  V30 8805 H 804.672 0.311598 -1.80835 0
M  V30 8806 H 803.054 2.70402 -2.89307 0
M  V30 8807 H 804.228 0.403305 -4.59032 0
M  V30 8808 H 802.543 0.521769 -4.13118 0
M  V30 8809 H 805.14 3.30209 -4.20555 0
M  V30 8810 H 805.483 3.33374 -2.49334 0
M  V30 8811 H 806.016 1.94417 -3.47054 0
M  V30 8812 H 802.755 1.36411 -6.41149 0
M  V30 8813 H 802.275 2.70911 -5.35133 0
M  V30 8814 H 803.954 2.58277 -5.93213 0
M  V30 8815 N 804.086 1.46499 0.581025 0
M  V30 8816 C 805.314 1.5547 1.36517 0
M  V30 8817 C 805.729 0.196407 1.87776 0
M  V30 8818 O 805.086 -0.806577 1.63709 0
M  V30 8819 C 805.137 2.56084 2.55154 0
M  V30 8820 O 804.858 3.86637 2.06018 0
M  V30 8821 C 806.359 2.75011 3.47683 0
M  V30 8822 H 803.579 0.525703 0.416986 0
M  V30 8823 H 806.123 1.9192 0.706177 0
M  V30 8824 H 804.278 2.22633 3.17039 0
M  V30 8825 H 804.692 4.41413 2.83292 0
M  V30 8826 H 806.166 3.49329 4.27403 0
M  V30 8827 H 806.643 1.81978 3.99726 0
M  V30 8828 H 807.249 3.09565 2.91632 0
M  V30 8829 N 805.565 -0.825799 1.34232 0
M  V30 8830 C 806.811 -1.58379 1.27623 0
M  V30 8831 C 807.166 -1.91789 -0.15323 0
M  V30 8832 O 806.459 -1.56965 -1.09875 0
M  V30 8833 C 806.653 -2.89362 2.09772 0
M  V30 8834 C 806.482 -2.68747 3.60562 0
M  V30 8835 C 805.252 -2.6563 4.29848 0
M  V30 8836 C 807.45 -2.40463 4.54623 0
M  V30 8837 N 805.432 -2.3653 5.66504 0
M  V30 8838 C 806.803 -2.21032 5.79262 0
M  V30 8839 C 808.858 -2.26168 4.43568 0
M  V30 8840 C 807.561 -1.88754 6.94093 0
M  V30 8841 C 809.587 -1.95284 5.58228 0
M  V30 8842 C 808.949 -1.76674 6.81884 0
M  V30 8843 H 805.048 -0.582062 0.522234 0
M  V30 8844 H 807.632 -0.968308 1.68914 0
M  V30 8845 H 805.803 -3.48838 1.70783 0
M  V30 8846 H 807.535 -3.54716 1.94831 0
M  V30 8847 H 804.29 -2.79601 3.82257 0
M  V30 8848 H 804.714 -2.24827 6.38578 0
M  V30 8849 H 809.356 -2.39262 3.48588 0
M  V30 8850 H 807.074 -1.74397 7.89057 0
M  V30 8851 H 810.66 -1.84959 5.51617 0
M  V30 8852 H 809.54 -1.53123 7.69105 0
M  V30 8853 N 807.043 -1.17915 -1.04565 0
M  V30 8854 C 808.006 -0.903787 -2.10628 0
M  V30 8855 C 809.006 0.10873 -1.60432 0
M  V30 8856 O 810.196 -0.124152 -1.73757 0
M  V30 8857 C 807.328 -0.355017 -3.39046 0
M  V30 8858 H 808.521 -1.84425 -2.3649 0
M  V30 8859 H 806.074 -0.990477 -1.2091 0
M  V30 8860 H 806.809 0.592297 -3.18845 0
M  V30 8861 H 806.594 -1.08484 -3.76794 0
M  V30 8862 H 808.084 -0.180891 -4.17208 0
M  V30 8863 N 808.521 1.23394 -0.980386 0
M  V30 8864 C 809.468 2.24859 -0.520298 0
M  V30 8865 C 810.438 1.60144 0.440821 0
M  V30 8866 O 811.623 1.87593 0.348369 0
M  V30 8867 C 808.763 3.44675 0.171145 0
M  V30 8868 C 807.876 4.23947 -0.830233 0
M  V30 8869 C 807.011 5.31079 -0.113597 0
M  V30 8870 C 806.05 6.02058 -1.10419 0
M  V30 8871 N 805.187 7.00862 -0.416709 0
M  V30 8872 H 810.027 2.63579 -1.39032 0
M  V30 8873 H 807.564 1.29556 -0.696682 0
M  V30 8874 H 809.522 4.13024 0.588838 0
M  V30 8875 H 808.152 3.06755 1.00504 0
M  V30 8876 H 807.204 3.55016 -1.36631 0
M  V30 8877 H 808.516 4.72945 -1.58508 0
M  V30 8878 H 807.67 6.05622 0.36146 0
M  V30 8879 H 806.409 4.83022 0.673854 0
M  V30 8880 H 805.414 5.26307 -1.59 0
M  V30 8881 H 806.639 6.52203 -1.8923 0
M  V30 8882 H 804.585 6.55057 0.351535 0
M  V30 8883 H 804.502 7.47804 -1.11021 0
M  V30 8884 H 805.77 7.79492 0.0359606 0
M  V30 8885 N 809.999 0.752036 1.385 0
M  V30 8886 C 811.246 0.307503 2.00152 0
M  V30 8887 C 811.574 -1.11033 1.59693 0
M  V30 8888 O 810.829 -1.77455 0.825125 0
M  V30 8889 C 811.128 0.376155 3.55415 0
M  V30 8890 C 810.794 1.74942 4.15579 0
M  V30 8891 C 809.456 2.12525 4.31725 0
M  V30 8892 C 811.808 2.65031 4.48785 0
M  V30 8893 C 809.136 3.39671 4.78373 0
M  V30 8894 C 811.488 3.91567 4.96848 0
M  V30 8895 C 810.152 4.2922 5.11201 0
M  V30 8896 H 809.422 0.112523 0.732407 0
M  V30 8897 H 812.069 0.962213 1.65571 0
M  V30 8898 H 810.374 -0.362121 3.90123 0
M  V30 8899 H 812.071 0.0138065 4.00998 0
M  V30 8900 H 808.661 1.44726 4.03426 0
M  V30 8901 H 812.845 2.3726 4.35914 0
M  V30 8902 H 808.101 3.68765 4.8767 0
M  V30 8903 H 812.275 4.61517 5.21512 0
M  V30 8904 H 809.902 5.27805 5.47107 0
M  V30 8905 N 811.477 -1.49425 0.500989 0
M  V30 8906 C 812.717 -2.04357 -0.0419004 0
M  V30 8907 C 813.081 -1.37236 -1.34277 0
M  V30 8908 O 814.282 -1.82889 -1.9699 0
M  V30 8909 C 812.553 -3.56889 -0.19112 0
M  V30 8910 S 814.112 -4.33369 -0.688259 0
M  V30 8911 H 810.93 -0.710998 -0.00177796 0
M  V30 8912 H 813.532 -1.83479 0.674953 0
M  V30 8913 H 812.236 -4.03283 0.760964 0
M  V30 8914 H 811.767 -3.82171 -0.933214 0
M  V30 8915 H 813.782 -4.55961 -1.9574 0
M  V30 8916 N 812.955 -0.234822 -1.55841 0
M  V30 8917 C 813.902 0.6698 -2.20867 0
M  V30 8918 C 814.872 1.18042 -1.16856 0
M  V30 8919 O 816.057 1.23709 -1.45261 0
M  V30 8920 C 813.197 1.86646 -2.90271 0
M  V30 8921 C 812.31 1.39351 -4.08908 0
M  V30 8922 C 811.445 2.54878 -4.66059 0
M  V30 8923 C 810.484 2.04384 -5.76969 0
M  V30 8924 N 809.621 3.13233 -6.28355 0
M  V30 8925 H 814.461 0.10858 -2.97802 0
M  V30 8926 H 811.998 0.041836 -1.4704 0
M  V30 8927 H 813.956 2.56926 -3.28702 0
M  V30 8928 H 812.586 2.40035 -2.15831 0
M  V30 8929 H 811.638 0.585173 -3.75872 0
M  V30 8930 H 812.95 0.983356 -4.89011 0
M  V30 8931 H 812.104 3.33219 -5.07001 0
M  V30 8932 H 810.843 2.99188 -3.85146 0
M  V30 8933 H 809.848 1.24509 -5.35516 0
M  V30 8934 H 811.073 1.61057 -6.59725 0
M  V30 8935 H 809.019 3.57 -5.50352 0
M  V30 8936 H 808.936 2.76511 -7.03618 0
M  V30 8937 H 810.204 3.91669 -6.73955 0
M  V30 8938 N 814.433 1.57553 0.0384317 0
M  V30 8939 C 815.343 2.09333 1.0591 0
M  V30 8940 C 816.359 1.0299 1.40247 0
M  V30 8941 O 817.535 1.34669 1.49754 0
M  V30 8942 C 814.6 2.55468 2.34386 0
M  V30 8943 C 813.661 3.76254 2.06716 0
M  V30 8944 C 812.894 4.20179 3.29067 0
M  V30 8945 O 813.117 3.637 4.39407 0
M  V30 8946 O 812.051 5.12697 3.15317 0
M  V30 8947 H 815.877 2.96683 0.649087 0
M  V30 8948 H 813.462 1.47211 0.254802 0
M  V30 8949 H 815.344 2.85514 3.09935 0
M  V30 8950 H 814.019 1.71234 2.74701 0
M  V30 8951 H 812.926 3.51241 1.28766 0
M  V30 8952 H 814.259 4.61443 1.71263 0
M  V30 8953 N 815.911 -0.310526 1.54511 0
M  V30 8954 C 816.859 -1.40272 1.85544 0
M  V30 8955 C 817.853 -1.52941 0.728377 0
M  V30 8956 O 819.059 -1.55172 0.912234 0
M  V30 8957 H 815.434 -0.468355 0.588343 0
M  V30 8958 H 817.405 -1.11329 2.76855 0
M  V30 8959 C 816.154 -2.76279 2.11105 0
M  V30 8960 H 815.477 -2.67308 2.97298 0
M  V30 8961 H 816.917 -3.51736 2.36765 0
M  V30 8962 C 815.376 -3.24472 0.906618 0
M  V30 8963 O 815.906 -4.01514 0.122358 0
M  V30 8964 N 814.112 -2.81676 0.714632 0
M  V30 8965 H 813.659 -2.19143 1.35404 0
M  V30 8966 H 813.617 -3.14272 -0.089703 0
M  V30 8967 N 817.389 -1.46805 -0.573248 0
M  V30 8968 C 818.322 -1.52608 -1.69665 0
M  V30 8969 C 819.3 -0.379426 -1.58111 0
M  V30 8970 O 820.484 -0.584938 -1.79195 0
M  V30 8971 C 817.611 -1.41355 -3.07793 0
M  V30 8972 C 816.657 -2.60321 -3.37839 0
M  V30 8973 S 817.49 -4.22622 -3.28863 0
M  V30 8974 C 818.646 -4.13894 -4.69513 0
M  V30 8975 H 818.879 -2.47653 -1.64485 0
M  V30 8976 H 816.412 -1.34806 -0.752769 0
M  V30 8977 H 818.37 -1.35549 -3.87475 0
M  V30 8978 H 817.031 -0.477213 -3.10454 0
M  V30 8979 H 816.224 -2.48466 -4.38498 0
M  V30 8980 H 815.826 -2.63165 -2.65745 0
M  V30 8981 H 818.118 -3.81158 -5.60111 0
M  V30 8982 H 819.061 -5.14584 -4.86425 0
M  V30 8983 H 819.469 -3.44998 -4.46807 0
M  V30 8984 N 818.867 0.818669 -1.34668 0
M  V30 8985 C 819.83 1.9114 -1.26483 0
M  V30 8986 C 820.83 1.598 -0.179044 0
M  V30 8987 O 822.02 1.6876 -0.431952 0
M  V30 8988 C 819.152 3.27285 -0.95381 0
M  V30 8989 H 820.345 1.9982 -2.23634 0
M  V30 8990 H 817.898 1.01314 -1.19018 0
M  V30 8991 H 818.633 3.24297 0.0143428 0
M  V30 8992 H 818.418 3.51416 -1.73924 0
M  V30 8993 H 819.908 4.07299 -0.921827 0
M  V30 8994 N 820.346 1.18468 1.03938 0
M  V30 8995 C 821.594 0.978895 1.76811 0
M  V30 8996 C 821.915 -0.49257 1.88676 0
M  V30 8997 O 821.185 -1.3572 1.41269 0
M  V30 8998 H 819.765 0.359201 0.654968 0
M  V30 8999 H 822.427 1.49173 1.25433 0
M  V30 9000 H 821.523 1.418 2.78027 0
M  V30 9001 N 821.824 -1.22873 0.986916 0
M  V30 9002 C 822.771 -2.2458 0.532215 0
M  V30 9003 C 823.741 -1.60375 -0.432322 0
M  V30 9004 O 824.926 -1.87775 -0.338416 0
M  V30 9005 C 822.066 -3.44761 -0.152864 0
M  V30 9006 C 821.179 -4.23501 0.852704 0
M  V30 9007 C 820.314 -5.31011 0.14176 0
M  V30 9008 C 819.353 -6.01464 1.1361 0
M  V30 9009 N 818.49 -7.00631 0.453871 0
M  V30 9010 H 823.33 -2.62838 1.40428 0
M  V30 9011 H 820.867 -1.29185 0.703543 0
M  V30 9012 H 822.825 -4.1333 -0.566926 0
M  V30 9013 H 821.455 -3.07284 -0.988756 0
M  V30 9014 H 820.507 -3.54286 1.38512 0
M  V30 9015 H 821.819 -4.72097 1.61014 0
M  V30 9016 H 820.973 -6.05805 -0.329337 0
M  V30 9017 H 819.712 -4.83373 -0.648229 0
M  V30 9018 H 818.717 -5.25456 1.61789 0
M  V30 9019 H 819.942 -6.5119 1.92686 0
M  V30 9020 H 817.888 -6.55235 -0.316791 0
M  V30 9021 H 817.805 -7.47204 1.14986 0
M  V30 9022 H 819.073 -7.795 0.00537823 0
M  V30 9023 N 823.302 -0.75937 -1.38099 0
M  V30 9024 C 824.55 -0.317485 -1.99591 0
M  V30 9025 C 824.871 1.10628 -1.60581 0
M  V30 9026 O 824.141 1.7575 -0.865378 0
M  V30 9027 H 822.721 -0.114397 -0.738189 0
M  V30 9028 H 825.383 -0.974749 -1.68774 0
M  V30 9029 H 824.479 -0.385227 -3.09713 0
M  V30 9030 N 824.78 1.49157 -0.508906 0
M  V30 9031 C 826.027 2.02473 0.0327983 0
M  V30 9032 C 826.355 1.38792 1.36261 0
M  V30 9033 O 825.61 0.515576 1.88786 0
M  V30 9034 C 825.909 3.56687 0.225717 0
M  V30 9035 C 825.575 4.39046 -1.02708 0
M  V30 9036 C 824.237 4.61271 -1.37048 0
M  V30 9037 C 826.589 4.86902 -1.85946 0
M  V30 9038 C 823.917 5.28598 -2.54562 0
M  V30 9039 C 826.269 5.55521 -3.0262 0
M  V30 9040 C 824.933 5.7599 -3.3733 0
M  V30 9041 H 824.203 0.740903 0.0120017 0
M  V30 9042 H 826.85 1.79372 -0.670665 0
M  V30 9043 H 825.155 3.78511 1.01177 0
M  V30 9044 H 826.852 3.95541 0.659433 0
M  V30 9045 H 823.442 4.21994 -0.749615 0
M  V30 9046 H 827.626 4.69553 -1.6073 0
M  V30 9047 H 822.882 5.42646 -2.81682 0
M  V30 9048 H 827.056 5.91576 -3.67438 0
M  V30 9049 H 824.683 6.27934 -4.2849 0
M  V30 9050 N 826.258 0.243083 1.55714 0
M  V30 9051 C 827.483 -0.389944 2.03701 0
M  V30 9052 C 827.908 -1.51025 1.12129 0
M  V30 9053 O 827.266 -1.80944 0.11352 0
M  V30 9054 C 827.314 -0.878649 3.49731 0
M  V30 9055 O 826.418 -1.98851 3.61292 0
M  V30 9056 H 825.759 -0.0855115 0.658471 0
M  V30 9057 H 828.289 0.368023 2.01263 0
M  V30 9058 H 828.299 -1.18287 3.90477 0
M  V30 9059 H 826.974 -0.0588107 4.15858 0
M  V30 9060 H 825.551 -1.68928 3.32442 0
M  V30 9061 N 827.736 -1.57571 -0.0300757 0
M  V30 9062 C 828.983 -1.89226 -0.721091 0
M  V30 9063 C 829.311 -0.840244 -1.75414 0
M  V30 9064 O 828.566 0.158906 -1.95054 0
M  V30 9065 C 828.865 -3.27624 -1.42818 0
M  V30 9066 C 828.531 -4.4776 -0.531208 0
M  V30 9067 C 827.193 -4.8036 -0.28415 0
M  V30 9068 C 829.545 -5.21125 0.0881582 0
M  V30 9069 C 826.873 -5.83715 0.591065 0
M  V30 9070 C 829.225 -6.2541 0.95107 0
M  V30 9071 C 827.889 -6.56486 1.2076 0
M  V30 9072 H 827.159 -0.692428 -0.263866 0
M  V30 9073 H 829.806 -1.91491 0.0189874 0
M  V30 9074 H 828.111 -3.21343 -2.24155 0
M  V30 9075 H 829.808 -3.49365 -1.96838 0
M  V30 9076 H 826.398 -4.2227 -0.73392 0
M  V30 9077 H 830.582 -4.96219 -0.0897496 0
M  V30 9078 H 825.838 -6.06168 0.798132 0
M  V30 9079 H 830.012 -6.81402 1.43751 0
M  V30 9080 H 827.639 -7.36395 1.88751 0
M  V30 9081 N 829.214 0.302327 -1.54673 0
M  V30 9082 C 830.46 1.03532 -1.75079 0
M  V30 9083 C 830.815 1.84972 -0.52943 0
M  V30 9084 O 830.108 1.85537 0.478169 0
M  V30 9085 C 830.302 1.97365 -2.97963 0
M  V30 9086 C 830.131 1.25154 -4.31934 0
M  V30 9087 C 828.901 0.979243 -4.95721 0
M  V30 9088 C 831.099 0.656653 -5.10091 0
M  V30 9089 N 829.081 0.227265 -6.13479 0
M  V30 9090 C 830.452 0.0373759 -6.19989 0
M  V30 9091 C 832.507 0.561571 -4.94723 0
M  V30 9092 C 831.21 -0.667782 -7.16194 0
M  V30 9093 C 833.236 -0.12993 -5.91257 0
M  V30 9094 C 832.598 -0.738063 -7.00523 0
M  V30 9095 H 828.697 0.361824 -0.693258 0
M  V30 9096 H 831.281 0.314091 -1.9215 0
M  V30 9097 H 829.452 2.66739 -2.8232 0
M  V30 9098 H 831.184 2.63806 -3.06902 0
M  V30 9099 H 827.939 1.27706 -4.56057 0
M  V30 9100 H 828.363 -0.135199 -6.76865 0
M  V30 9101 H 833.005 1.01744 -4.10375 0
M  V30 9102 H 830.723 -1.13542 -8.00084 0
M  V30 9103 H 834.309 -0.203423 -5.81444 0
M  V30 9104 H 833.189 -1.26463 -7.73936 0
M  V30 9105 N 830.692 1.47107 0.565454 0
M  V30 9106 C 831.938 1.53535 1.32495 0
M  V30 9107 C 832.271 0.193537 1.93233 0
M  V30 9108 O 831.546 -0.796956 1.77423 0
M  V30 9109 C 831.829 2.64712 2.4413 0
M  V30 9110 C 831.682 4.08482 1.88314 0
M  V30 9111 C 833.001 2.71853 3.46098 0
M  V30 9112 H 830.12 0.558926 0.480386 0
M  V30 9113 H 832.762 1.79125 0.633575 0
M  V30 9114 H 830.912 2.43023 3.03104 0
M  V30 9115 H 832.584 4.4151 1.33665 0
M  V30 9116 H 830.827 4.17148 1.19037 0
M  V30 9117 H 831.498 4.82032 2.68978 0
M  V30 9118 H 833.974 2.91397 2.97031 0
M  V30 9119 H 832.85 3.51433 4.21646 0
M  V30 9120 H 833.111 1.78584 4.04426 0
M  V30 9121 N 832.17 -0.811516 1.35101 0
M  V30 9122 C 833.416 -1.57016 1.29296 0
M  V30 9123 C 833.771 -1.91941 -0.13288 0
M  V30 9124 O 833.064 -1.58121 -1.08204 0
M  V30 9125 C 833.258 -2.87121 2.1283 0
M  V30 9126 C 833.087 -2.64908 3.63392 0
M  V30 9127 C 831.857 -2.61055 4.32641 0
M  V30 9128 C 834.055 -2.35628 4.57148 0
M  V30 9129 N 832.037 -2.30508 5.68981 0
M  V30 9130 C 833.408 -2.14876 5.81574 0
M  V30 9131 C 835.463 -2.2145 4.45942 0
M  V30 9132 C 834.166 -1.81381 6.96055 0
M  V30 9133 C 836.192 -1.89352 5.60267 0
M  V30 9134 C 835.554 -1.69432 6.83719 0
M  V30 9135 H 831.653 -0.57649 0.528378 0
M  V30 9136 H 834.237 -0.950338 1.69931 0
M  V30 9137 H 832.408 -3.47007 1.74473 0
M  V30 9138 H 834.14 -3.52629 1.98582 0
M  V30 9139 H 830.895 -2.75531 3.85201 0
M  V30 9140 H 831.319 -2.18042 6.40927 0
M  V30 9141 H 835.961 -2.35551 3.51106 0
M  V30 9142 H 833.679 -1.66018 7.90863 0
M  V30 9143 H 837.265 -1.79098 5.53548 0
M  V30 9144 H 836.145 -1.44957 7.70686 0
M  V30 9145 N 833.648 -1.19017 -1.03309 0
M  V30 9146 C 834.578 -0.94772 -2.13402 0
M  V30 9147 C 835.559 0.117383 -1.69694 0
M  V30 9148 O 836.744 -0.0367733 -1.94165 0
M  V30 9149 C 833.874 -0.480977 -3.43953 0
M  V30 9150 C 832.828 -1.48743 -4.01322 0
M  V30 9151 C 832.154 -0.877924 -5.27443 0
M  V30 9152 C 833.454 -2.86642 -4.36616 0
M  V30 9153 H 835.148 -1.86846 -2.33942 0
M  V30 9154 H 832.694 -0.899781 -1.12427 0
M  V30 9155 H 834.647 -0.298677 -4.2034 0
M  V30 9156 H 833.371 0.475348 -3.23122 0
M  V30 9157 H 832.03 -1.65681 -3.27025 0
M  V30 9158 H 831.678 0.0858232 -5.02927 0
M  V30 9159 H 831.378 -1.54996 -5.66789 0
M  V30 9160 H 832.902 -0.706326 -6.06501 0
M  V30 9161 H 834.316 -2.73312 -5.03958 0
M  V30 9162 H 832.713 -3.50599 -4.87032 0
M  V30 9163 H 833.783 -3.39617 -3.46105 0
M  V30 9164 N 835.127 1.22348 -0.993418 0
M  V30 9165 C 836.404 1.86632 -0.585495 0
M  V30 9166 C 836.784 1.89156 0.937187 0
M  V30 9167 O 836.132 1.38247 1.81934 0
M  V30 9168 C 836.342 3.27481 -1.20652 0
M  V30 9169 C 837.69 4.03971 -1.30738 0
M  V30 9170 O 838.714 3.3675 -1.16096 0
M  V30 9171 O 837.573 5.24302 -1.54173 0
M  V30 9172 H 834.667 0.802704 -0.198984 0
M  V30 9173 H 837.213 1.30122 -1.08933 0
M  V30 9174 H 835.985 3.20281 -2.24802 0
M  V30 9175 H 835.608 3.91597 -0.688312 0
M  V30 9176 N 836.605 0.766683 1.37694 0
M  V30 9177 C 837.553 0.137269 2.32195 0
M  V30 9178 C 838.547 -0.69067 1.54681 0
M  V30 9179 O 839.753 -0.588299 1.70115 0
M  V30 9180 H 836.128 0.0256003 0.751564 0
M  V30 9181 H 838.099 0.950129 2.82869 0
M  V30 9182 C 836.848 -0.731446 3.39919 0
M  V30 9183 H 836.171 -0.103738 3.99665 0
M  V30 9184 H 837.611 -1.13891 4.08417 0
M  V30 9185 C 836.07 -1.87984 2.79578 0
M  V30 9186 O 836.6 -2.97496 2.69924 0
M  V30 9187 N 834.806 -1.6789 2.37195 0
M  V30 9188 H 834.353 -0.788162 2.45246 0
M  V30 9189 H 834.311 -2.44894 1.97165 0
M  V30 9190 N 838.083 -1.48885 0.516809 0
M  V30 9191 C 839.332 -2.01686 -0.0239899 0
M  V30 9192 C 839.645 -1.40029 -1.3657 0
M  V30 9193 O 840.851 -1.84249 -1.9941 0
M  V30 9194 C 839.307 -3.59779 -0.0931825 0
M  V30 9195 C 838.915 -4.30416 1.24283 0
M  V30 9196 C 840.659 -4.20471 -0.583507 0
M  V30 9197 C 838.566 -5.80408 1.13494 0
M  V30 9198 H 837.496 -0.753892 -0.0127376 0
M  V30 9199 H 840.147 -1.71273 0.65861 0
M  V30 9200 H 838.529 -3.86976 -0.840577 0
M  V30 9201 H 839.703 -4.14905 2.00476 0
M  V30 9202 H 838.018 -3.81539 1.66785 0
M  V30 9203 H 840.615 -5.30333 -0.681987 0
M  V30 9204 H 840.958 -3.84898 -1.58617 0
M  V30 9205 H 841.491 -3.97654 0.107814 0
M  V30 9206 H 838.23 -6.20532 2.11235 0
M  V30 9207 H 837.75 -5.98368 0.414167 0
M  V30 9208 H 839.429 -6.41781 0.820162 0
M  V30 9209 N 839.561 -0.251338 -1.55583 0
M  V30 9210 C 840.81 0.372681 -1.98227 0
M  V30 9211 C 841.123 1.58743 -1.1428 0
M  V30 9212 O 842.329 2.28289 -1.46957 0
M  V30 9213 C 840.785 0.714439 -3.52738 0
M  V30 9214 C 840.393 -0.479168 -4.4543 0
M  V30 9215 C 842.137 1.3024 -4.04027 0
M  V30 9216 C 840.044 -0.113318 -5.91291 0
M  V30 9217 H 838.974 0.14302 -0.740312 0
M  V30 9218 H 841.625 -0.352253 -1.80087 0
M  V30 9219 H 840.007 1.49762 -3.66589 0
M  V30 9220 H 841.181 -1.25644 -4.4334 0
M  V30 9221 H 839.496 -0.982359 -4.04646 0
M  V30 9222 H 842.093 1.58953 -5.10527 0
M  V30 9223 H 842.436 2.22837 -3.51638 0
M  V30 9224 H 842.969 0.582024 -3.93519 0
M  V30 9225 H 839.708 -1.00654 -6.47726 0
M  V30 9226 H 839.228 0.627666 -5.96507 0
M  V30 9227 H 840.907 0.30293 -6.4629 0
M  V30 9228 N 841.039 1.57585 0.0217189 0
M  V30 9229 C 842.316 1.80779 0.74687 0
M  V30 9230 C 842.696 0.851163 1.9318 0
M  V30 9231 O 842.044 -0.105039 2.28258 0
M  V30 9232 C 842.254 3.28696 1.17302 0
M  V30 9233 C 843.602 3.93871 1.58589 0
M  V30 9234 O 844.626 3.3289 1.2674 0
M  V30 9235 O 843.485 5.01254 2.1773 0
M  V30 9236 H 840.579 0.743666 0.361786 0
M  V30 9237 H 843.125 1.697 -0.00206785 0
M  V30 9238 H 841.897 3.89927 0.327453 0
M  V30 9239 H 841.52 3.44692 1.98174 0
M  V30 9240 N 842.517 -0.29412 1.54831 0
M  V30 9241 C 843.447 -1.36757 1.89261 0
M  V30 9242 C 844.428 -1.52564 0.752214 0
M  V30 9243 O 845.613 -1.65958 1.00855 0
M  V30 9244 C 842.743 -2.73066 2.14597 0
M  V30 9245 C 841.697 -2.72017 3.3044 0
M  V30 9246 C 841.023 -4.11679 3.4121 0
M  V30 9247 C 842.323 -2.33149 4.67375 0
M  V30 9248 H 844.017 -1.08191 2.79169 0
M  V30 9249 H 841.563 -0.519014 1.34321 0
M  V30 9250 H 843.516 -3.48255 2.37269 0
M  V30 9251 H 842.24 -3.03172 1.21467 0
M  V30 9252 H 840.899 -1.99285 3.07703 0
M  V30 9253 H 840.547 -4.38973 2.45584 0
M  V30 9254 H 840.247 -4.11877 4.19084 0
M  V30 9255 H 841.771 -4.88637 3.6615 0
M  V30 9256 H 843.185 -2.98054 4.89731 0
M  V30 9257 H 841.582 -2.44546 5.48012 0
M  V30 9258 H 842.652 -1.28275 4.67626 0
M  V30 9259 N 843.995 -1.47404 -0.557645 0
M  V30 9260 C 845.241 -1.54235 -1.31679 0
M  V30 9261 C 845.574 -0.203782 -1.93128 0
M  V30 9262 O 844.849 0.787536 -1.77843 0
M  V30 9263 C 845.132 -2.66003 -2.42723 0
M  V30 9264 C 844.985 -4.09475 -1.86145 0
M  V30 9265 C 846.304 -2.73685 -3.44652 0
M  V30 9266 H 843.423 -0.561466 -0.477415 0
M  V30 9267 H 846.065 -1.79459 -0.624067 0
M  V30 9268 H 844.215 -2.44627 -3.01811 0
M  V30 9269 H 845.887 -4.42213 -1.31321 0
M  V30 9270 H 844.13 -4.17774 -1.16823 0
M  V30 9271 H 844.801 -4.83451 -2.66418 0
M  V30 9272 H 847.277 -2.92968 -2.95481 0
M  V30 9273 H 846.153 -3.53665 -4.19777 0
M  V30 9274 H 846.414 -1.80726 -4.03473 0
M  V30 9275 N 845.473 0.80434 -1.35529 0
M  V30 9276 C 846.42 1.91629 -1.28635 0
M  V30 9277 C 847.39 1.65348 -0.157862 0
M  V30 9278 O 848.575 1.87711 -0.341934 0
M  V30 9279 C 845.715 3.28207 -1.0665 0
M  V30 9280 C 844.828 3.66659 -2.28441 0
M  V30 9281 C 843.963 4.92279 -1.99588 0
M  V30 9282 C 843.002 5.23365 -3.1742 0
M  V30 9283 N 842.139 6.40165 -2.88328 0
M  V30 9284 H 846.979 1.96858 -2.23721 0
M  V30 9285 H 844.516 0.962871 -1.11208 0
M  V30 9286 H 846.474 4.06945 -0.919343 0
M  V30 9287 H 845.104 3.22441 -0.152253 0
M  V30 9288 H 844.156 2.83164 -2.54013 0
M  V30 9289 H 845.468 3.8559 -3.1642 0
M  V30 9290 H 844.622 5.78847 -1.81715 0
M  V30 9291 H 843.361 4.75387 -1.08896 0
M  V30 9292 H 842.366 4.35285 -3.35867 0
M  V30 9293 H 843.591 5.42185 -4.08916 0
M  V30 9294 H 841.537 6.24694 -2.00233 0
M  V30 9295 H 841.454 6.59357 -3.69843 0
M  V30 9296 H 842.722 7.29755 -2.74002 0
M  V30 9297 N 846.951 1.19563 1.02676 0
M  V30 9298 C 847.898 0.935291 2.11 0
M  V30 9299 C 848.868 -0.130685 1.65585 0
M  V30 9300 O 850.053 0.0119062 1.90796 0
M  V30 9301 C 847.193 0.482384 3.41712 0
M  V30 9302 C 846.306 1.61537 4.00662 0
M  V30 9303 C 845.441 1.11378 5.19392 0
M  V30 9304 C 844.48 2.22052 5.70403 0
M  V30 9305 N 843.617 1.73185 6.80405 0
M  V30 9306 H 848.457 1.86275 2.32606 0
M  V30 9307 H 845.994 0.928656 1.14081 0
M  V30 9308 H 847.952 0.20118 4.16715 0
M  V30 9309 H 846.582 -0.408086 3.2021 0
M  V30 9310 H 845.634 2.01173 3.22852 0
M  V30 9311 H 846.946 2.44912 4.34534 0
M  V30 9312 H 846.1 0.787935 6.01562 0
M  V30 9313 H 844.839 0.249789 4.8706 0
M  V30 9314 H 843.844 2.55465 4.86845 0
M  V30 9315 H 845.069 3.08911 6.04774 0
M  V30 9316 H 843.015 0.890973 6.49921 0
M  V30 9317 H 842.932 2.50148 7.13416 0
M  V30 9318 H 844.2 1.4357 7.66164 0
M  V30 9319 N 848.429 -1.21819 0.999893 0
M  V30 9320 C 849.659 -1.94475 0.697346 0
M  V30 9321 C 850.067 -1.73991 -0.743228 0
M  V30 9322 O 849.41 -1.04042 -1.51397 0
M  V30 9323 C 849.472 -3.47204 0.932181 0
M  V30 9324 C 849.136 -3.91432 2.3586 0
M  V30 9325 C 850.133 -3.98545 3.33853 0
M  V30 9326 C 847.818 -4.23888 2.69489 0
M  V30 9327 C 849.812 -4.37499 4.63545 0
M  V30 9328 C 847.499 -4.62519 3.99399 0
M  V30 9329 C 848.497 -4.69294 4.96238 0
M  V30 9330 O 848.185 -5.07048 6.23825 0
M  V30 9331 H 847.917 -0.625419 0.256567 0
M  V30 9332 H 850.471 -1.55728 1.33933 0
M  V30 9333 H 848.701 -3.85997 0.233025 0
M  V30 9334 H 850.39 -4.01078 0.623807 0
M  V30 9335 H 851.156 -3.73654 3.09205 0
M  V30 9336 H 847.035 -4.17815 1.94812 0
M  V30 9337 H 850.579 -4.42702 5.3913 0
M  V30 9338 H 846.476 -4.86864 4.23833 0
M  V30 9339 H 847.244 -5.25098 6.27865 0
M  V30 9340 N 849.908 -0.773975 -1.37286 0
M  V30 9341 C 851.157 -0.335977 -1.98882 0
M  V30 9342 C 851.47 1.09416 -1.62134 0
M  V30 9343 O 852.676 1.63366 -2.1685 0
M  V30 9344 C 851.132 -0.549756 -3.55676 0
M  V30 9345 C 850.74 -1.9903 -4.01361 0
M  V30 9346 C 852.484 -0.175493 -4.24137 0
M  V30 9347 C 850.391 -2.15156 -5.50874 0
M  V30 9348 H 849.321 -0.121877 -0.744085 0
M  V30 9349 H 851.972 -0.953419 -1.56787 0
M  V30 9350 H 850.354 0.137175 -3.95762 0
M  V30 9351 H 851.528 -2.71237 -3.72515 0
M  V30 9352 H 849.843 -2.32137 -3.4569 0
M  V30 9353 H 852.44 -0.274463 -5.33995 0
M  V30 9354 H 852.783 0.874524 -4.07011 0
M  V30 9355 H 853.316 -0.815058 -3.89361 0
M  V30 9356 H 850.055 -3.18485 -5.72929 0
M  V30 9357 H 849.575 -1.47435 -5.81397 0
M  V30 9358 H 851.254 -1.95124 -6.16876 0
M  V30 9359 N 851.386 1.48609 -0.524698 0
M  V30 9360 C 852.316 2.32366 0.229837 0
M  V30 9361 C 853.297 1.41759 0.940129 0
M  V30 9362 O 854.482 1.7065 0.926936 0
M  V30 9363 C 851.612 3.22835 1.28043 0
M  V30 9364 C 850.566 4.22424 0.688603 0
M  V30 9365 C 849.892 5.0199 1.84146 0
M  V30 9366 C 851.192 5.21217 -0.336176 0
M  V30 9367 H 852.886 2.95698 -0.469339 0
M  V30 9368 H 850.432 1.42197 -0.227156 0
M  V30 9369 H 852.385 3.80253 1.8162 0
M  V30 9370 H 851.109 2.57492 2.00912 0
M  V30 9371 H 849.768 3.66185 0.174402 0
M  V30 9372 H 849.416 4.33076 2.5584 0
M  V30 9373 H 849.116 5.69392 1.45142 0
M  V30 9374 H 850.64 5.62259 2.38111 0
M  V30 9375 H 852.054 5.7319 0.112307 0
M  V30 9376 H 850.451 5.96642 -0.643324 0
M  V30 9377 H 851.521 4.68676 -1.24381 0
M  V30 9378 N 852.864 0.259585 1.55447 0
M  V30 9379 C 853.827 -0.621359 2.20617 0
M  V30 9380 C 854.827 -1.09317 1.17925 0
M  V30 9381 O 856.017 -0.995842 1.42929 0
M  V30 9382 C 853.149 -1.85546 2.85982 0
M  V30 9383 H 854.342 -0.0525833 2.99854 0
M  V30 9384 H 851.895 0.0101055 1.56297 0
M  V30 9385 H 852.63 -2.46515 2.10715 0
M  V30 9386 H 852.415 -1.52523 3.61219 0
M  V30 9387 H 853.905 -2.48227 3.35817 0
M  V30 9388 N 854.342 -1.57594 -0.0133615 0
M  V30 9389 C 855.272 -2.10611 -1.00823 0
M  V30 9390 C 856.253 -1.01217 -1.36708 0
M  V30 9391 O 857.438 -1.28827 -1.45318 0
M  V30 9392 C 854.568 -2.59844 -2.30431 0
M  V30 9393 C 853.522 -3.73644 -2.08745 0
M  V30 9394 C 852.848 -4.09141 -3.4425 0
M  V30 9395 C 854.148 -5.01454 -1.46086 0
M  V30 9396 H 855.842 -2.93985 -0.566849 0
M  V30 9397 H 853.388 -1.41423 -0.271219 0
M  V30 9398 H 855.341 -2.95557 -3.00373 0
M  V30 9399 H 854.065 -1.73573 -2.76658 0
M  V30 9400 H 852.724 -3.38303 -1.41232 0
M  V30 9401 H 852.372 -3.19914 -3.88155 0
M  V30 9402 H 852.072 -4.85802 -3.3056 0
M  V30 9403 H 853.596 -4.47402 -4.15528 0
M  V30 9404 H 855.01 -5.35024 -2.05966 0
M  V30 9405 H 853.407 -5.82832 -1.42924 0
M  V30 9406 H 854.477 -4.83003 -0.428471 0
M  V30 9407 N 855.82 0.285905 -1.54985 0
M  V30 9408 C 857.066 1.01669 -1.76168 0
M  V30 9409 C 857.421 1.84401 -0.549019 0
M  V30 9410 O 856.714 1.86034 0.458463 0
M  V30 9411 C 856.908 1.94193 -3.0004 0
M  V30 9412 C 856.737 1.20565 -4.33237 0
M  V30 9413 C 855.507 0.92661 -4.96731 0
M  V30 9414 C 857.705 0.602514 -5.10759 0
M  V30 9415 N 855.687 0.162185 -6.13686 0
M  V30 9416 C 857.058 -0.0283843 -6.19994 0
M  V30 9417 C 859.113 0.509067 -4.95291 0
M  V30 9418 C 857.816 -0.743706 -7.15445 0
M  V30 9419 C 859.842 -0.192633 -5.91086 0
M  V30 9420 C 859.204 -0.812321 -6.997 0
M  V30 9421 H 855.303 0.354451 -0.697057 0
M  V30 9422 H 857.887 0.293693 -1.92472 0
M  V30 9423 H 856.058 2.6373 -2.85133 0
M  V30 9424 H 857.79 2.60536 -3.09682 0
M  V30 9425 H 854.545 1.22861 -4.57386 0
M  V30 9426 H 854.969 -0.206982 -6.76684 0
M  V30 9427 H 859.611 0.973856 -4.11432 0
M  V30 9428 H 857.329 -1.22022 -7.98834 0
M  V30 9429 H 860.915 -0.265082 -5.81196 0
M  V30 9430 H 859.795 -1.34665 -7.72551 0
M  V30 9431 N 857.298 1.47698 0.54982 0
M  V30 9432 C 858.246 1.61156 1.67724 0
M  V30 9433 C 859.24 0.478606 1.62498 0
M  V30 9434 O 860.446 0.656661 1.67595 0
M  V30 9435 H 856.821 0.507304 0.55511 0
M  V30 9436 H 858.792 2.55884 1.53512 0
M  V30 9437 C 857.541 1.64994 3.06059 0
M  V30 9438 H 856.864 2.51525 3.10765 0
M  V30 9439 H 858.304 1.78459 3.84615 0
M  V30 9440 C 856.763 0.384677 3.34697 0
M  V30 9441 O 857.293 -0.511057 3.98436 0
M  V30 9442 N 855.499 0.262434 2.89413 0
M  V30 9443 H 855.046 0.99229 2.37721 0
M  V30 9444 H 855.004 -0.583177 3.08944 0
M  V30 9445 N 858.776 -0.797141 1.35954 0
M  V30 9446 C 859.686 -1.94088 1.31784 0
M  V30 9447 C 860.702 -1.72588 0.221227 0
M  V30 9448 O 861.878 -1.96256 0.452255 0
M  V30 9449 C 858.943 -3.28828 1.09878 0
M  V30 9450 C 858.004 -3.63158 2.28942 0
M  V30 9451 C 857.237 -4.91469 2.08072 0
M  V30 9452 O 857.46 -5.60616 1.05196 0
M  V30 9453 O 856.394 -5.24277 2.95664 0
M  V30 9454 H 860.22 -2.00554 2.28061 0
M  V30 9455 H 857.805 -0.936288 1.16422 0
M  V30 9456 H 859.687 -4.09473 0.995485 0
M  V30 9457 H 858.362 -3.23271 0.16659 0
M  V30 9458 H 857.269 -2.82851 2.44839 0
M  V30 9459 H 858.602 -3.7343 3.20641 0
M  V30 9460 N 860.254 -1.20106 -1.0204 0
M  V30 9461 C 861.502 -1.0069 -1.75231 0
M  V30 9462 C 861.823 0.462491 -1.89436 0
M  V30 9463 O 861.093 1.33455 -1.4341 0
M  V30 9464 H 859.673 -0.369576 -0.649171 0
M  V30 9465 H 862.335 -1.51149 -1.23044 0
M  V30 9466 H 861.431 -1.46205 -2.75736 0
M  V30 9467 N 861.732 1.21287 -1.00634 0
M  V30 9468 C 862.962 1.94103 -0.70765 0
M  V30 9469 C 863.37 1.74382 0.733991 0
M  V30 9470 O 862.713 1.04843 1.50843 0
M  V30 9471 C 862.775 3.46705 -0.950581 0
M  V30 9472 C 862.439 3.90176 -2.37932 0
M  V30 9473 C 863.436 3.96769 -3.35961 0
M  V30 9474 C 861.121 4.22453 -2.71733 0
M  V30 9475 C 863.115 4.35034 -4.65858 0
M  V30 9476 C 860.802 4.60394 -4.01846 0
M  V30 9477 C 861.8 4.66656 -4.9872 0
M  V30 9478 O 861.488 5.03732 -6.26505 0
M  V30 9479 H 861.22 0.62405 -0.259881 0
M  V30 9480 H 863.774 1.55015 -1.34757 0
M  V30 9481 H 862.004 3.85868 -0.253492 0
M  V30 9482 H 863.693 4.00741 -0.645069 0
M  V30 9483 H 864.459 3.72009 -3.11182 0
M  V30 9484 H 860.338 4.16776 -1.97025 0
M  V30 9485 H 863.882 4.39836 -5.4147 0
M  V30 9486 H 859.779 4.84609 -4.26409 0
M  V30 9487 H 860.547 5.21761 -6.30641 0
M  V30 9488 N 863.21 0.781244 1.36873 0
M  V30 9489 C 864.459 0.34652 1.98701 0
M  V30 9490 C 864.772 -1.08555 1.62712 0
M  V30 9491 O 865.978 -1.62213 2.17713 0
M  V30 9492 C 864.434 0.568611 3.5538 0
M  V30 9493 C 864.042 2.01156 4.003 0
M  V30 9494 C 865.786 0.197983 4.24038 0
M  V30 9495 C 863.693 2.18074 5.49725 0
M  V30 9496 H 862.623 0.125821 0.743428 0
M  V30 9497 H 865.274 0.961721 1.56279 0
M  V30 9498 H 863.656 -0.116185 3.9583 0
M  V30 9499 H 864.83 2.73209 3.71071 0
M  V30 9500 H 863.145 2.33967 3.44454 0
M  V30 9501 H 865.742 0.302778 5.33842 0
M  V30 9502 H 866.085 -0.852927 4.07469 0
M  V30 9503 H 866.618 0.835696 3.88923 0
M  V30 9504 H 863.357 3.21519 5.71232 0
M  V30 9505 H 862.877 1.50517 5.80607 0
M  V30 9506 H 864.556 1.98393 6.15832 0
M  V30 9507 N 864.689 -1.48329 0.532571 0
M  V30 9508 C 865.622 -2.26524 -0.2761 0
M  V30 9509 C 866.6 -1.32498 -0.942496 0
M  V30 9510 O 867.784 -1.61844 -0.966376 0
M  V30 9511 C 864.911 -3.08808 -1.39124 0
M  V30 9512 C 863.957 -4.18227 -0.835984 0
M  V30 9513 S 864.79 -5.34669 0.298186 0
M  V30 9514 C 865.946 -6.20514 -0.81937 0
M  V30 9515 H 866.179 -2.94764 0.387502 0
M  V30 9516 H 863.712 -1.51081 0.318407 0
M  V30 9517 H 865.67 -3.56792 -2.03002 0
M  V30 9518 H 864.331 -2.39976 -2.02658 0
M  V30 9519 H 863.524 -4.75435 -1.67264 0
M  V30 9520 H 863.126 -3.72996 -0.27385 0
M  V30 9521 H 865.418 -6.55371 -1.7174 0
M  V30 9522 H 866.361 -7.07525 -0.285199 0
M  V30 9523 H 866.769 -5.5366 -1.10094 0
M  V30 9524 N 866.167 -0.267825 -1.55308 0
M  V30 9525 C 867.415 0.350343 -1.9904 0
M  V30 9526 C 867.736 1.56924 -1.15758 0
M  V30 9527 O 867.006 1.94358 -0.245336 0
M  V30 9528 H 865.586 0.132435 -0.735167 0
M  V30 9529 H 868.248 -0.371471 -1.91327 0
M  V30 9530 H 867.344 0.645203 -3.05358 0
M  V30 9531 N 867.645 1.57599 0.00500368 0
M  V30 9532 C 868.892 1.90349 0.690895 0
M  V30 9533 C 869.22 0.868045 1.74055 0
M  V30 9534 O 868.475 -0.127855 1.95282 0
M  V30 9535 C 868.774 3.29855 1.37588 0
M  V30 9536 C 868.44 4.48548 0.459906 0
M  V30 9537 C 867.102 4.80752 0.207693 0
M  V30 9538 C 869.454 5.20919 -0.171054 0
M  V30 9539 C 866.782 5.82701 -0.683855 0
M  V30 9540 C 869.134 6.23818 -1.05045 0
M  V30 9541 C 867.798 6.54481 -1.31189 0
M  V30 9542 H 867.068 0.696538 0.252816 0
M  V30 9543 H 869.715 1.91436 -0.0494495 0
M  V30 9544 H 868.02 3.24869 2.19015 0
M  V30 9545 H 869.717 3.52452 1.91255 0
M  V30 9546 H 866.307 4.23384 0.666648 0
M  V30 9547 H 870.491 4.96299 0.0107942 0
M  V30 9548 H 865.747 6.04822 -0.894467 0
M  V30 9549 H 869.921 6.79029 -1.54574 0
M  V30 9550 H 867.548 7.33299 -2.00442 0
M  V30 9551 N 869.123 -0.277682 1.55134 0
M  V30 9552 C 870.372 -1.00766 1.74726 0
M  V30 9553 C 870.685 -1.87617 0.553092 0
M  V30 9554 O 871.891 -2.64058 0.631318 0
M  V30 9555 C 870.347 -1.84147 3.09221 0
M  V30 9556 C 869.955 -1.02186 4.3619 0
M  V30 9557 C 871.699 -2.56604 3.38164 0
M  V30 9558 C 869.606 -1.84978 5.61727 0
M  V30 9559 H 868.536 -0.379948 0.651273 0
M  V30 9560 H 871.187 -0.263543 1.81598 0
M  V30 9561 H 869.569 -2.62637 2.96375 0
M  V30 9562 H 870.743 -0.281459 4.5994 0
M  V30 9563 H 869.058 -0.412054 4.14356 0
M  V30 9564 H 871.655 -3.18942 4.29162 0
M  V30 9565 H 871.998 -3.26647 2.58085 0
M  V30 9566 H 872.531 -1.85147 3.52087 0
M  V30 9567 H 869.27 -1.19365 6.4454 0
M  V30 9568 H 868.79 -2.56628 5.42128 0
M  V30 9569 H 870.469 -2.42458 5.99853 0
M  V30 9570 N 870.601 -1.47988 -0.541979 0
M  V30 9571 C 871.826 -1.59286 -1.32826 0
M  V30 9572 C 872.251 -0.24894 -1.86445 0
M  V30 9573 O 871.609 0.777581 -1.63778 0
M  V30 9574 C 871.657 -2.6334 -2.46343 0
M  V30 9575 O 870.761 -2.19667 -3.49028 0
M  V30 9576 H 870.102 -0.534543 -0.393903 0
M  V30 9577 H 872.632 -1.93885 -0.653427 0
M  V30 9578 H 872.642 -2.84238 -2.92699 0
M  V30 9579 H 871.317 -3.60913 -2.06675 0
M  V30 9580 H 869.894 -2.08932 -3.08872 0
M  V30 9581 N 872.079 0.78992 -1.36375 0
M  V30 9582 C 873.026 1.90254 -1.3066 0
M  V30 9583 C 873.996 1.65171 -0.17539 0
M  V30 9584 O 875.181 1.87338 -0.361824 0
M  V30 9585 C 872.321 3.27057 -1.10125 0
M  V30 9586 C 871.434 3.64215 -2.32317 0
M  V30 9587 C 870.569 4.90134 -2.04798 0
M  V30 9588 C 869.608 5.19969 -3.22953 0
M  V30 9589 N 868.745 6.37071 -2.95102 0
M  V30 9590 H 873.585 1.94474 -2.25796 0
M  V30 9591 H 871.122 0.951022 -1.12223 0
M  V30 9592 H 873.08 4.05947 -0.962453 0
M  V30 9593 H 871.71 3.22261 -0.186444 0
M  V30 9594 H 870.762 2.80454 -2.57002 0
M  V30 9595 H 872.074 3.82212 -3.20492 0
M  V30 9596 H 871.228 5.76888 -1.87845 0
M  V30 9597 H 869.967 4.74205 -1.13932 0
M  V30 9598 H 868.972 4.31699 -3.40465 0
M  V30 9599 H 870.197 5.37817 -4.14644 0
M  V30 9600 H 868.143 6.22535 -2.06848 0
M  V30 9601 H 868.06 6.55398 -3.76815 0
M  V30 9602 H 869.328 7.26808 -2.81727 0
M  V30 9603 N 873.557 1.20646 1.01402 0
M  V30 9604 C 874.467 0.973385 2.13453 0
M  V30 9605 C 875.483 -0.0715865 1.73853 0
M  V30 9606 O 876.659 0.116438 2.01063 0
M  V30 9607 C 873.724 0.531285 3.42605 0
M  V30 9608 C 872.785 1.64741 3.96433 0
M  V30 9609 C 872.018 1.22631 5.1942 0
M  V30 9610 O 872.241 0.0960891 5.70319 0
M  V30 9611 O 871.175 2.03474 5.66465 0
M  V30 9612 H 875.001 1.91164 2.35987 0
M  V30 9613 H 872.586 0.990553 1.11841 0
M  V30 9614 H 874.468 0.294095 4.20373 0
M  V30 9615 H 873.143 -0.378358 3.21481 0
M  V30 9616 H 872.05 1.93891 3.19933 0
M  V30 9617 H 873.383 2.53415 4.2195 0
M  V30 9618 N 875.035 -1.20752 1.01276 0
M  V30 9619 C 876.451 -1.42084 0.726934 0
M  V30 9620 C 876.651 -1.89138 -0.694907 0
M  V30 9621 O 875.707 -2.05783 -1.4632 0
M  V30 9622 C 877.02 -2.44575 1.74938 0
M  V30 9623 C 878.568 -2.58347 1.76708 0
M  V30 9624 C 879.043 -3.64078 2.77869 0
M  V30 9625 N 880.534 -3.71558 2.76585 0
M  V30 9626 C 881.269 -4.53016 3.51517 0
M  V30 9627 N 880.765 -5.38309 4.36114 0
M  V30 9628 N 882.558 -4.47512 3.40132 0
M  V30 9629 H 874.709 -0.885228 1.93074 0
M  V30 9630 H 876.972 -0.451075 0.833808 0
M  V30 9631 H 876.678 -2.1699 2.76782 0
M  V30 9632 H 876.552 -3.43503 1.55838 0
M  V30 9633 H 878.939 -2.85265 0.755516 0
M  V30 9634 H 879.02 -1.59628 1.99882 0
M  V30 9635 H 878.664 -3.37905 3.79187 0
M  V30 9636 H 878.594 -4.62412 2.51958 0
M  V30 9637 H 881.085 -3.10629 2.15216 0
M  V30 9638 H 881.398 -5.9754 4.90068 0
M  V30 9639 H 879.743 -5.37824 4.40194 0
M  V30 9640 H 882.934 -3.79912 2.73467 0
M  V30 9641 H 883.107 -5.10759 3.98784 0
M  V30 9642 N 876.513 -0.788492 -1.36457 0
M  V30 9643 C 877.423 -0.187385 -2.3385 0
M  V30 9644 C 878.439 0.659984 -1.60998 0
M  V30 9645 O 879.615 0.575986 -1.92988 0
M  V30 9646 C 876.68 0.668525 -3.40194 0
M  V30 9647 C 875.741 -0.197234 -4.28847 0
M  V30 9648 C 874.974 0.61792 -5.30111 0
M  V30 9649 O 875.197 1.85396 -5.3943 0
M  V30 9650 O 874.131 0.0183016 -6.01897 0
M  V30 9651 H 877.957 -0.992617 -2.87021 0
M  V30 9652 H 875.542 -0.549934 -1.3891 0
M  V30 9653 H 877.424 1.15663 -4.05216 0
M  V30 9654 H 876.099 1.45166 -2.89324 0
M  V30 9655 H 875.006 -0.73207 -3.66867 0
M  V30 9656 H 876.339 -0.943863 -4.83065 0
M  V30 9657 N 877.991 1.48044 -0.54043 0
M  V30 9658 C 879.407 1.58354 -0.199006 0
M  V30 9659 C 879.607 1.54118 1.29807 0
M  V30 9660 O 878.663 1.43573 2.07709 0
M  V30 9661 C 879.976 2.89563 -0.810797 0
M  V30 9662 C 881.524 3.03113 -0.780486 0
M  V30 9663 C 881.999 4.36997 -1.37104 0
M  V30 9664 N 883.49 4.43591 -1.33347 0
M  V30 9665 C 884.225 5.45714 -1.76021 0
M  V30 9666 N 883.721 6.54738 -2.26473 0
M  V30 9667 N 885.514 5.36659 -1.67194 0
M  V30 9668 H 877.665 1.49041 -1.51329 0
M  V30 9669 H 879.928 0.708309 -0.630081 0
M  V30 9670 H 879.634 2.9835 -1.86227 0
M  V30 9671 H 879.508 3.76053 -0.293977 0
M  V30 9672 H 881.895 2.93932 0.262246 0
M  V30 9673 H 881.976 2.18207 -1.33489 0
M  V30 9674 H 881.62 4.46932 -2.41276 0
M  V30 9675 H 881.55 5.20607 -0.792229 0
M  V30 9676 H 884.041 3.65391 -0.964259 0
M  V30 9677 H 884.354 7.28814 -2.57002 0
M  V30 9678 H 882.699 6.55673 -2.30473 0
M  V30 9679 H 885.89 4.50382 -1.27569 0
M  V30 9680 H 886.063 6.16113 -2.00771 0
M  V30 9681 N 879.47 0.276058 1.55163 0
M  V30 9682 C 880.433 -0.597924 2.21263 0
M  V30 9683 C 881.433 -1.0806 1.19078 0
M  V30 9684 O 882.623 -0.980626 1.43977 0
M  V30 9685 C 879.755 -1.82503 2.87933 0
M  V30 9686 H 880.948 -0.0207769 2.99893 0
M  V30 9687 H 878.501 0.0266823 1.56277 0
M  V30 9688 H 879.236 -2.44266 2.13318 0
M  V30 9689 H 879.021 -1.48683 3.62816 0
M  V30 9690 H 880.511 -2.44651 3.38431 0
M  V30 9691 N 880.948 -1.576 0.00335426 0
M  V30 9692 C 882.197 -1.89892 -0.680001 0
M  V30 9693 C 882.51 -0.878731 -1.7475 0
M  V30 9694 O 883.716 -1.09199 -2.48572 0
M  V30 9695 C 882.172 -3.37098 -1.26066 0
M  V30 9696 C 881.78 -4.4742 -0.227807 0
M  V30 9697 C 883.524 -3.78495 -1.92202 0
M  V30 9698 C 881.431 -5.85706 -0.81865 0
M  V30 9699 H 880.361 -0.708578 -0.257746 0
M  V30 9700 H 883.012 -1.83387 0.0644472 0
M  V30 9701 H 881.394 -3.38451 -2.05589 0
M  V30 9702 H 882.568 -4.57589 0.54307 0
M  V30 9703 H 880.883 -4.15064 0.333297 0
M  V30 9704 H 883.48 -4.7915 -2.37318 0
M  V30 9705 H 883.823 -3.12187 -2.75399 0
M  V30 9706 H 884.356 -3.79456 -1.19408 0
M  V30 9707 H 881.095 -6.55495 -0.0253787 0
M  V30 9708 H 880.615 -5.79196 -1.55861 0
M  V30 9709 H 882.294 -6.33469 -1.31627 0
M  V30 9710 N 882.426 0.269451 -1.5528 0
M  V30 9711 C 883.356 1.33729 -1.91413 0
M  V30 9712 C 884.337 1.51348 -0.776391 0
M  V30 9713 O 885.522 1.64332 -1.03482 0
M  V30 9714 C 882.652 2.69618 -2.18914 0
M  V30 9715 C 881.606 2.66725 -3.34726 0
M  V30 9716 C 880.932 4.06199 -3.47716 0
M  V30 9717 C 882.232 2.25684 -4.71025 0
M  V30 9718 H 883.926 1.03736 -2.80854 0
M  V30 9719 H 881.472 0.497579 -1.3513 0
M  V30 9720 H 883.425 3.44436 -2.42779 0
M  V30 9721 H 882.149 3.01201 -1.26275 0
M  V30 9722 H 880.808 1.94365 -3.10834 0
M  V30 9723 H 880.456 4.3501 -2.52537 0
M  V30 9724 H 880.156 4.05157 -4.25583 0
M  V30 9725 H 881.68 4.8275 -3.73877 0
M  V30 9726 H 883.094 2.90225 -4.94411 0
M  V30 9727 H 881.491 2.35797 -5.51833 0
M  V30 9728 H 882.561 1.20819 -4.69607 0
M  V30 9729 N 883.904 1.48273 0.534124 0
M  V30 9730 C 885.129 1.59988 1.31979 0
M  V30 9731 C 885.554 0.258824 1.86311 0
M  V30 9732 O 884.912 -0.768885 1.64188 0
M  V30 9733 C 884.96 2.64642 2.44943 0
M  V30 9734 O 884.064 2.21515 3.47858 0
M  V30 9735 H 883.405 0.536625 0.391063 0
M  V30 9736 H 885.935 1.94229 0.643135 0
M  V30 9737 H 885.945 2.85786 2.91187 0
M  V30 9738 H 884.62 3.62004 2.04758 0
M  V30 9739 H 883.197 2.10567 3.0776 0
M  V30 9740 N 885.382 -0.782676 1.36792 0
M  V30 9741 C 886.61 -1.57162 1.34565 0
M  V30 9742 C 887.025 -1.88664 -0.0715501 0
M  V30 9743 O 886.382 -1.50633 -1.03033 0
M  V30 9744 C 886.433 -2.88854 2.1736 0
M  V30 9745 O 886.154 -2.58707 3.53557 0
M  V30 9746 C 887.655 -3.83132 2.2299 0
M  V30 9747 H 884.875 -0.487245 0.461338 0
M  V30 9748 H 887.419 -0.970905 1.79982 0
M  V30 9749 H 885.574 -3.45377 1.7548 0
M  V30 9750 H 885.988 -3.42961 3.96835 0
M  V30 9751 H 887.462 -4.72575 2.85266 0
M  V30 9752 H 887.939 -4.21472 1.23524 0
M  V30 9753 H 888.545 -3.32541 2.65135 0
M  V30 9754 N 886.86 -1.21182 -1.00761 0
M  V30 9755 C 887.807 -0.968741 -2.09485 0
M  V30 9756 C 888.777 0.104325 -1.65772 0
M  V30 9757 O 889.962 -0.0422587 -1.90753 0
M  V30 9758 C 887.102 -0.536686 -3.40901 0
M  V30 9759 C 886.215 -1.6789 -3.98041 0
M  V30 9760 C 885.35 -1.19627 -5.17555 0
M  V30 9761 C 884.389 -2.31099 -5.66798 0
M  V30 9762 N 883.526 -1.83988 -6.77564 0
M  V30 9763 H 888.366 -1.89952 -2.29613 0
M  V30 9764 H 885.903 -0.946688 -1.12589 0
M  V30 9765 H 887.861 -0.26745 -4.16342 0
M  V30 9766 H 886.491 0.357092 -3.20819 0
M  V30 9767 H 885.543 -2.06284 -3.19611 0
M  V30 9768 H 886.855 -2.51794 -4.30582 0
M  V30 9769 H 886.009 -0.883539 -6.00232 0
M  V30 9770 H 884.748 -0.327244 -4.86601 0
M  V30 9771 H 883.753 -2.63178 -4.82719 0
M  V30 9772 H 884.978 -3.18493 -5.99782 0
M  V30 9773 H 882.924 -0.994257 -6.48422 0
M  V30 9774 H 882.841 -2.61466 -7.09346 0
M  V30 9775 H 884.109 -1.55741 -7.63783 0
M  V30 9776 N 888.338 1.20213 -1.01915 0
M  V30 9777 C 889.749 1.7136 -0.741131 0
M  V30 9778 C 890.1 1.81705 0.740107 0
M  V30 9779 O 889.225 1.48139 1.57746 0
M  V30 9780 C 889.82 3.11231 -1.33869 0
M  V30 9781 C 888.379 3.59677 -1.10948 0
M  V30 9782 C 887.526 2.36809 -1.4428 0
M  V30 9783 H 890.477 1.05191 -1.1883 0
M  V30 9784 H 890.498 3.7342 -0.730585 0
M  V30 9785 H 890.01 3.03669 -2.41675 0
M  V30 9786 H 888.111 3.72568 -0.0492052 0
M  V30 9787 H 888.224 4.44351 -1.79134 0
M  V30 9788 H 886.588 2.39674 -0.861881 0
M  V30 9789 H 887.371 2.31886 -2.53148 0
M  V30 9790 N 889.816 0.795718 1.36037 0
M  V30 9791 C 891.227 0.433379 1.816 0
M  V30 9792 C 891.578 -1.04341 1.66155 0
M  V30 9793 O 890.703 -1.81004 1.18603 0
M  V30 9794 C 891.298 0.77985 3.29703 0
M  V30 9795 C 889.857 0.470256 3.73451 0
M  V30 9796 C 889.004 1.01119 2.58206 0
M  V30 9797 H 891.955 0.988317 1.24169 0
M  V30 9798 H 891.976 0.0732898 3.80429 0
M  V30 9799 H 891.488 1.85473 3.40913 0
M  V30 9800 H 889.589 -0.596332 3.67797 0
M  V30 9801 H 889.702 0.995276 4.68648 0
M  V30 9802 H 888.066 0.434077 2.50974 0
M  V30 9803 H 888.849 2.09196 2.72198 0
M  V30 9804 N 891.294 -1.47756 0.548274 0
M  V30 9805 C 892.542 -2.02089 0.0208542 0
M  V30 9806 C 892.863 -1.42589 -1.33017 0
M  V30 9807 O 892.133 -0.597825 -1.86555 0
M  V30 9808 H 890.713 -0.746985 0.00472023 0
M  V30 9809 H 893.375 -1.81262 0.716257 0
M  V30 9810 H 892.471 -3.12012 -0.0739016 0
M  V30 9811 N 892.772 -0.284283 -1.55015 0
M  V30 9812 C 894 0.332948 -2.04203 0
M  V30 9813 C 894.415 1.48783 -1.16229 0
M  V30 9814 O 893.772 1.81567 -0.184323 0
M  V30 9815 C 893.823 0.805207 -3.52418 0
M  V30 9816 O 893.544 -0.303689 -4.37046 0
M  V30 9817 C 895.045 1.48931 -4.17534 0
M  V30 9818 H 892.265 0.0747447 -0.666824 0
M  V30 9819 H 894.809 -0.419048 -2.00161 0
M  V30 9820 H 892.964 1.50727 -3.56876 0
M  V30 9821 H 893.378 0.0609703 -5.24465 0
M  V30 9822 H 894.852 1.77108 -5.22816 0
M  V30 9823 H 895.329 2.42389 -3.66257 0
M  V30 9824 H 895.935 0.830867 -4.17105 0
M  V30 9825 N 894.251 1.57596 -0.0117121 0
M  V30 9826 C 895.498 1.91071 0.670667 0
M  V30 9827 C 895.826 0.886457 1.73125 0
M  V30 9828 O 895.081 -0.107135 1.95407 0
M  V30 9829 C 895.38 3.31296 1.34082 0
M  V30 9830 C 895.046 4.49011 0.412305 0
M  V30 9831 C 893.708 4.80945 0.156691 0
M  V30 9832 C 896.06 5.20709 -0.226294 0
M  V30 9833 C 893.388 5.81943 -0.745619 0
M  V30 9834 C 895.74 6.22668 -1.11655 0
M  V30 9835 C 894.404 6.53053 -1.38123 0
M  V30 9836 H 893.674 0.69918 0.245415 0
M  V30 9837 H 896.321 1.91373 -0.0697511 0
M  V30 9838 H 894.626 3.27174 2.15557 0
M  V30 9839 H 896.323 3.54461 1.87506 0
M  V30 9840 H 892.913 4.24067 0.621705 0
M  V30 9841 H 897.097 4.96282 -0.0418456 0
M  V30 9842 H 892.353 6.03839 -0.958566 0
M  V30 9843 H 896.527 6.77351 -1.61767 0
M  V30 9844 H 894.154 7.31132 -2.08208 0
M  V30 9845 N 895.729 -0.261212 1.5542 0
M  V30 9846 C 896.659 -1.32712 1.92119 0
M  V30 9847 C 897.64 -1.50934 0.784406 0
M  V30 9848 O 898.825 -1.63781 1.04352 0
M  V30 9849 C 895.955 -2.68453 2.20341 0
M  V30 9850 C 894.909 -2.64947 3.36136 0
M  V30 9851 C 894.235 -4.04349 3.49865 0
M  V30 9852 C 895.535 -2.23182 4.72215 0
M  V30 9853 H 897.229 -1.02245 2.81401 0
M  V30 9854 H 894.775 -0.490406 1.35392 0
M  V30 9855 H 896.728 -3.43144 2.44603 0
M  V30 9856 H 895.452 -3.00527 1.27871 0
M  V30 9857 H 894.111 -1.92714 3.11861 0
M  V30 9858 H 893.759 -4.33665 2.5484 0
M  V30 9859 H 893.459 -4.02895 4.27726 0
M  V30 9860 H 894.983 -4.80761 3.76432 0
M  V30 9861 H 896.397 -2.87599 4.95943 0
M  V30 9862 H 894.794 -2.32867 5.53076 0
M  V30 9863 H 895.864 -1.18327 4.70241 0
M  V30 9864 N 897.207 -1.48554 -0.526253 0
M  V30 9865 C 898.137 -1.66252 -1.63959 0
M  V30 9866 C 899.118 -0.511351 -1.62232 0
M  V30 9867 O 900.303 -0.744322 -1.7937 0
M  V30 9868 C 897.433 -1.70556 -3.02536 0
M  V30 9869 C 896.387 -2.8521 -3.19123 0
M  V30 9870 C 895.713 -2.74606 -4.58798 0
M  V30 9871 C 897.013 -4.26463 -3.0154 0
M  V30 9872 H 898.707 -2.59459 -1.49404 0
M  V30 9873 H 896.253 -1.24862 -0.717326 0
M  V30 9874 H 898.206 -1.81524 -3.80298 0
M  V30 9875 H 896.93 -0.739297 -3.18123 0
M  V30 9876 H 895.589 -2.73802 -2.43779 0
M  V30 9877 H 895.237 -1.75941 -4.71226 0
M  V30 9878 H 894.937 -3.51544 -4.70841 0
M  V30 9879 H 896.461 -2.87548 -5.38655 0
M  V30 9880 H 897.875 -4.38685 -3.69091 0
M  V30 9881 H 896.272 -5.04428 -3.25073 0
M  V30 9882 H 897.342 -4.42667 -1.97925 0
M  V30 9883 N 898.685 0.775411 -1.37205 0
M  V30 9884 C 900.101 1.07546 -1.17924 0
M  V30 9885 C 900.301 2.01496 -0.0128897 0
M  V30 9886 O 899.357 2.44039 0.64816 0
M  V30 9887 C 900.67 1.67647 -2.49629 0
M  V30 9888 C 902.218 1.79923 -2.56119 0
M  V30 9889 C 902.693 2.43438 -3.87946 0
M  V30 9890 N 904.184 2.50893 -3.89368 0
M  V30 9891 C 904.919 3.00881 -4.88117 0
M  V30 9892 N 904.415 3.5107 -5.97262 0
M  V30 9893 N 906.208 2.99722 -4.75524 0
M  V30 9894 H 898.359 0.151524 -2.11859 0
M  V30 9895 H 900.622 0.129845 -0.939066 0
M  V30 9896 H 900.328 1.06082 -3.3532 0
M  V30 9897 H 900.202 2.66988 -2.66453 0
M  V30 9898 H 902.589 2.40621 -1.70838 0
M  V30 9899 H 902.67 0.793482 -2.43182 0
M  V30 9900 H 902.314 1.8338 -4.73639 0
M  V30 9901 H 902.244 3.44611 -3.98184 0
M  V30 9902 H 904.735 2.1537 -3.10522 0
M  V30 9903 H 905.048 3.87604 -6.68568 0
M  V30 9904 H 903.393 3.49184 -6.00912 0
M  V30 9905 H 906.584 2.5981 -3.8938 0
M  V30 9906 H 906.757 3.38369 -5.52639 0
M  V30 9907 N 900.163 1.21714 1.00117 0
M  V30 9908 C 901.41 1.0367 1.73951 0
M  V30 9909 C 901.738 -0.429289 1.89703 0
M  V30 9910 O 900.993 -1.33475 1.43119 0
M  V30 9911 C 901.292 1.68345 3.15269 0
M  V30 9912 C 900.958 3.18214 3.19454 0
M  V30 9913 C 899.62 3.59109 3.20303 0
M  V30 9914 C 901.972 4.14179 3.16394 0
M  V30 9915 C 899.3 4.94467 3.15783 0
M  V30 9916 C 901.652 5.49502 3.13416 0
M  V30 9917 C 900.316 5.8979 3.12577 0
M  V30 9918 H 899.586 0.379355 0.63653 0
M  V30 9919 H 902.233 1.51361 1.17312 0
M  V30 9920 H 900.538 1.12957 3.75164 0
M  V30 9921 H 902.235 1.51882 3.71124 0
M  V30 9922 H 898.825 2.85646 3.19538 0
M  V30 9923 H 903.009 3.83607 3.14895 0
M  V30 9924 H 898.265 5.24923 3.13473 0
M  V30 9925 H 902.439 6.23595 3.10003 0
M  V30 9926 H 900.066 6.94643 3.08829 0
M  V30 9927 N 901.641 -1.19671 1.02551 0
M  V30 9928 C 902.866 -1.93774 0.739363 0
M  V30 9929 C 903.291 -1.74787 -0.695064 0
M  V30 9930 O 902.649 -1.04796 -1.47944 0
M  V30 9931 C 902.697 -3.43684 1.09149 0
M  V30 9932 O 901.801 -4.11874 0.208213 0
M  V30 9933 H 901.142 -0.605064 0.273484 0
M  V30 9934 H 903.672 -1.51846 1.37128 0
M  V30 9935 H 903.682 -3.94339 1.04695 0
M  V30 9936 H 902.357 -3.56826 2.13654 0
M  V30 9937 H 900.934 -3.716 0.311045 0
M  V30 9938 N 903.119 -0.802921 -1.35613 0
M  V30 9939 C 904.029 -0.212177 -2.33639 0
M  V30 9940 C 905.045 0.642871 -1.61689 0
M  V30 9941 O 906.221 0.555485 -1.93588 0
M  V30 9942 C 903.286 0.632406 -3.40883 0
M  V30 9943 C 902.347 -0.242708 -4.28613 0
M  V30 9944 C 901.58 0.56166 -5.30736 0
M  V30 9945 O 901.803 1.79664 -5.41366 0
M  V30 9946 O 900.737 -0.0455387 -6.01883 0
M  V30 9947 H 904.563 -1.023 -2.85952 0
M  V30 9948 H 902.148 -0.564636 -1.38319 0
M  V30 9949 H 904.03 1.11358 -4.0642 0
M  V30 9950 H 902.705 1.42089 -2.90848 0
M  V30 9951 H 901.612 -0.77094 -3.6607 0
M  V30 9952 H 902.945 -0.995046 -4.82037 0
M  V30 9953 N 904.597 1.47463 -0.556102 0
M  V30 9954 C 905.822 2.07371 -0.0344729 0
M  V30 9955 C 906.247 1.40621 1.2493 0
M  V30 9956 O 905.605 0.48082 1.74808 0
M  V30 9957 C 905.653 3.60306 0.145563 0
M  V30 9958 O 904.757 3.94299 1.20839 0
M  V30 9959 H 904.098 0.662052 -0.0508274 0
M  V30 9960 H 906.628 1.89498 -0.771469 0
M  V30 9961 H 906.638 4.06408 0.360112 0
M  V30 9962 H 905.313 4.08288 -0.792089 0
M  V30 9963 H 903.89 3.59944 0.97442 0
M  V30 9964 N 906.075 0.2925 1.54862 0
M  V30 9965 C 907.3 -0.32494 2.04839 0
M  V30 9966 C 907.725 -1.47381 1.16877 0
M  V30 9967 O 907.083 -1.80492 0.171028 0
M  V30 9968 C 907.131 -0.76694 3.5235 0
M  V30 9969 O 906.235 -1.87256 3.67436 0
M  V30 9970 H 905.576 -0.0645195 0.660858 0
M  V30 9971 H 908.106 0.431867 1.9999 0
M  V30 9972 H 908.116 -1.05804 3.94043 0
M  V30 9973 H 906.791 0.0735212 4.15835 0
M  V30 9974 H 905.368 -1.58266 3.37648 0
M  V30 9975 N 907.553 -1.57587 0.0200696 0
M  V30 9976 C 908.5 -2.09667 -0.964791 0
M  V30 9977 C 909.47 -0.99664 -1.32877 0
M  V30 9978 O 910.655 -1.2703 -1.42366 0
M  V30 9979 C 907.795 -2.62101 -2.24493 0
M  V30 9980 C 906.908 -3.8608 -1.93821 0
M  V30 9981 C 906.043 -4.26939 -3.16064 0
M  V30 9982 C 905.082 -5.43701 -2.81169 0
M  V30 9983 N 904.219 -5.79759 -3.9601 0
M  V30 9984 H 909.059 -2.93538 -0.513751 0
M  V30 9985 H 906.596 -1.45096 -0.242 0
M  V30 9986 H 908.554 -2.90587 -2.99358 0
M  V30 9987 H 907.184 -1.81074 -2.6723 0
M  V30 9988 H 906.236 -3.64378 -1.09237 0
M  V30 9989 H 907.548 -4.71028 -1.64115 0
M  V30 9990 H 906.702 -4.56814 -3.99257 0
M  V30 9991 H 905.441 -3.40739 -3.48924 0
M  V30 9992 H 904.446 -5.13529 -1.96387 0
M  V30 9993 H 905.671 -6.31593 -2.49535 0
M  V30 9994 H 903.617 -4.96516 -4.28729 0
M  V30 9995 H 903.534 -6.59327 -3.69896 0
M  V30 9996 H 904.802 -6.14235 -4.79933 0
M  V30 9997 N 909.032 0.252966 -1.55557 0
M  V30 9998 C 909.942 1.33472 -1.92931 0
M  V30 9999 C 910.958 1.52983 -0.828985 0
M  V30 10000 O 912.134 1.66723 -1.12984 0
M  V30 10001 C 909.199 2.6704 -2.21112 0
M  V30 10002 C 908.26 2.56103 -3.44542 0
M  V30 10003 C 907.493 3.83302 -3.71369 0
M  V30 10004 O 907.716 4.84907 -3.00368 0
M  V30 10005 O 906.65 3.823 -4.64898 0
M  V30 10006 H 910.476 1.04768 -2.85057 0
M  V30 10007 H 908.061 0.453208 -1.4236 0
M  V30 10008 H 909.943 3.45981 -2.40572 0
M  V30 10009 H 908.618 2.95489 -1.32166 0
M  V30 10010 H 907.525 1.7547 -3.30396 0
M  V30 10011 H 908.858 2.32601 -4.33772 0
M  V30 10012 N 910.51 1.48831 0.518367 0
M  V30 10013 C 911.758 1.57128 1.27103 0
M  V30 10014 C 912.079 0.252098 1.93364 0
M  V30 10015 O 911.349 -0.727281 1.819 0
M  V30 10016 H 909.929 0.578891 0.472116 0
M  V30 10017 H 912.591 1.85361 0.602262 0
M  V30 10018 H 911.687 2.35838 2.04418 0
M  V30 10019 N 911.988 -0.768124 1.37614 0
M  V30 10020 C 913.236 -1.52379 1.3276 0
M  V30 10021 C 913.557 -1.94809 -0.0863564 0
M  V30 10022 O 912.827 -1.66568 -1.03112 0
M  V30 10023 H 911.407 -0.565179 0.488448 0
M  V30 10024 H 914.069 -0.913974 1.72141 0
M  V30 10025 H 913.165 -2.4215 1.96901 0
M  V30 10026 N 913.466 -1.22244 -0.994698 0
M  V30 10027 C 914.712 -1.04746 -1.73655 0
M  V30 10028 C 915.045 0.41668 -1.89677 0
M  V30 10029 O 914.32 1.30897 -1.43862 0
M  V30 10030 C 914.603 -1.75716 -3.14318 0
M  V30 10031 C 914.456 -3.29714 -3.05955 0
M  V30 10032 C 915.775 -1.50809 -4.13455 0
M  V30 10033 H 912.894 -0.381921 -0.630322 0
M  V30 10034 H 915.536 -1.50559 -1.15897 0
M  V30 10035 H 913.686 -1.3677 -3.63629 0
M  V30 10036 H 915.358 -3.78093 -2.64279 0
M  V30 10037 H 913.601 -3.59484 -2.42804 0
M  V30 10038 H 914.272 -3.74547 -4.05485 0
M  V30 10039 H 916.748 -1.84636 -3.72892 0
M  V30 10040 H 915.624 -2.02964 -5.09997 0
M  V30 10041 H 915.885 -0.440292 -4.39902 0
M  V30 10042 N 914.944 1.19125 -1.03184 0
M  V30 10043 C 916.172 1.92838 -0.74975 0
M  V30 10044 C 916.587 1.75667 0.691851 0
M  V30 10045 O 915.944 1.0805 1.47076 0
M  V30 10046 C 915.995 3.44509 -1.09525 0
M  V30 10047 O 915.716 3.6113 -2.48025 0
M  V30 10048 C 917.217 4.35338 -0.836397 0
M  V30 10049 H 914.437 0.61246 -0.274105 0
M  V30 10050 H 916.981 1.5118 -1.37712 0
M  V30 10051 H 915.136 3.83988 -0.513006 0
M  V30 10052 H 915.55 4.54959 -2.60984 0
M  V30 10053 H 917.024 5.4035 -1.12808 0
M  V30 10054 H 917.501 4.38602 0.229102 0
M  V30 10055 H 918.107 4.01544 -1.40152 0
M  V30 10056 N 916.422 0.810101 1.35185 0
M  V30 10057 C 917.669 0.392117 1.98667 0
M  V30 10058 C 917.997 -1.0416 1.64259 0
M  V30 10059 O 917.252 -1.73795 0.899647 0
M  V30 10060 C 917.551 0.526561 3.535 0
M  V30 10061 C 917.217 1.92411 4.07785 0
M  V30 10062 C 915.879 2.30644 4.22323 0
M  V30 10063 C 918.231 2.83827 4.37141 0
M  V30 10064 C 915.559 3.59655 4.63536 0
M  V30 10065 C 917.911 4.12287 4.79794 0
M  V30 10066 C 916.575 4.50515 4.92536 0
M  V30 10067 H 915.845 0.143486 0.726975 0
M  V30 10068 H 918.492 1.03157 1.61341 0
M  V30 10069 H 916.797 -0.19633 3.91308 0
M  V30 10070 H 918.494 0.183871 4.00578 0
M  V30 10071 H 915.084 1.61707 3.96924 0
M  V30 10072 H 919.268 2.55536 4.25459 0
M  V30 10073 H 914.524 3.89117 4.71591 0
M  V30 10074 H 918.698 4.83221 5.01468 0
M  V30 10075 H 916.325 5.50535 5.24229 0
M  V30 10076 N 917.9 -1.47166 0.563914 0
M  V30 10077 C 919.128 -2.06846 0.0474287 0
M  V30 10078 C 919.543 -1.41557 -1.24928 0
M  V30 10079 O 918.9 -0.514376 -1.75101 0
M  V30 10080 C 918.951 -3.6121 -0.144831 0
M  V30 10081 O 918.672 -4.24052 1.10053 0
M  V30 10082 C 920.173 -4.37773 -0.69783 0
M  V30 10083 H 917.393 -0.669217 0.0488896 0
M  V30 10084 H 919.937 -1.89072 0.779235 0
M  V30 10085 H 918.092 -3.78474 -0.82679 0
M  V30 10086 H 918.506 -5.16677 0.902481 0
M  V30 10087 H 919.98 -5.46438 -0.781616 0
M  V30 10088 H 920.457 -4.04517 -1.71063 0
M  V30 10089 H 921.063 -4.25269 -0.0513516 0
M  V30 10090 N 919.378 -0.300708 -1.54705 0
M  V30 10091 C 920.624 0.301982 -2.01146 0
M  V30 10092 C 920.979 1.51548 -1.18537 0
M  V30 10093 O 920.272 1.89914 -0.253656 0
M  V30 10094 C 920.466 0.710108 -3.50275 0
M  V30 10095 C 920.295 -0.462291 -4.47318 0
M  V30 10096 C 919.065 -0.954214 -4.96208 0
M  V30 10097 C 921.263 -1.30716 -4.97411 0
M  V30 10098 N 919.245 -2.09341 -5.77105 0
M  V30 10099 C 920.616 -2.29384 -5.76006 0
M  V30 10100 C 922.671 -1.33756 -4.79597 0
M  V30 10101 C 921.374 -3.30869 -6.38685 0
M  V30 10102 C 923.4 -2.34099 -5.43094 0
M  V30 10103 C 922.762 -3.31498 -6.21521 0
M  V30 10104 H 918.861 0.0749709 -0.778398 0
M  V30 10105 H 921.445 -0.430557 -1.8988 0
M  V30 10106 H 919.616 1.41182 -3.61832 0
M  V30 10107 H 921.348 1.29231 -3.83512 0
M  V30 10108 H 918.103 -0.529238 -4.70634 0
M  V30 10109 H 918.527 -2.66739 -6.22237 0
M  V30 10110 H 923.169 -0.598284 -4.18546 0
M  V30 10111 H 920.887 -4.05717 -6.9887 0
M  V30 10112 H 924.473 -2.37225 -5.31239 0
M  V30 10113 H 923.353 -4.07872 -6.69784 0
M  V30 10114 N 920.856 1.57574 -0.0284266 0
M  V30 10115 C 922.102 1.92056 0.651327 0
M  V30 10116 C 922.435 0.905092 1.71819 0
M  V30 10117 O 921.71 -0.0722703 1.94366 0
M  V30 10118 C 921.993 3.37021 1.26841 0
M  V30 10119 C 921.846 4.49304 0.211157 0
M  V30 10120 C 923.165 3.81936 2.18662 0
M  V30 10121 H 920.284 0.698428 0.235304 0
M  V30 10122 H 922.926 1.89807 -0.0855435 0
M  V30 10123 H 921.076 3.39068 1.89644 0
M  V30 10124 H 922.748 4.5939 -0.419379 0
M  V30 10125 H 920.991 4.31317 -0.463445 0
M  V30 10126 H 921.662 5.47764 0.682518 0
M  V30 10127 H 924.138 3.8162 1.65847 0
M  V30 10128 H 923.014 4.84064 2.58792 0
M  V30 10129 H 923.275 3.174 3.07749 0
M  V30 10130 N 922.334 -0.244713 1.55689 0
M  V30 10131 C 923.244 -1.32447 1.93636 0
M  V30 10132 C 924.26 -1.52541 0.837086 0
M  V30 10133 O 925.436 -1.66121 1.13867 0
M  V30 10134 C 922.501 -2.65864 2.22525 0
M  V30 10135 C 921.562 -2.54273 3.45896 0
M  V30 10136 C 920.795 -3.81327 3.73397 0
M  V30 10137 O 921.018 -4.83307 3.02936 0
M  V30 10138 O 919.952 -3.79829 4.66919 0
M  V30 10139 H 923.778 -1.03255 2.85608 0
M  V30 10140 H 921.363 -0.445652 1.42598 0
M  V30 10141 H 923.245 -3.447 2.42404 0
M  V30 10142 H 921.92 -2.94784 1.33731 0
M  V30 10143 H 920.827 -1.73715 3.31321 0
M  V30 10144 H 922.16 -2.30297 4.34999 0
M  V30 10145 N 923.813 -1.49104 -0.510467 0
M  V30 10146 C 924.76 -1.65074 -1.61305 0
M  V30 10147 C 925.73 -0.492362 -1.58635 0
M  V30 10148 O 926.915 -0.718241 -1.76765 0
M  V30 10149 C 924.055 -1.71457 -2.99493 0
M  V30 10150 C 923.168 -2.98536 -3.12251 0
M  V30 10151 C 922.303 -2.95957 -4.41116 0
M  V30 10152 C 921.342 -4.17655 -4.47471 0
M  V30 10153 N 920.479 -4.13041 -5.67751 0
M  V30 10154 H 925.319 -2.59222 -1.46996 0
M  V30 10155 H 922.856 -1.28535 -0.715346 0
M  V30 10156 H 924.814 -1.7314 -3.79577 0
M  V30 10157 H 923.444 -0.807834 -3.12528 0
M  V30 10158 H 922.496 -3.06509 -2.25292 0
M  V30 10159 H 923.808 -3.88527 -3.12807 0
M  V30 10160 H 922.962 -2.96149 -5.2951 0
M  V30 10161 H 921.701 -2.03728 -4.4311 0
M  V30 10162 H 920.706 -4.17717 -3.57481 0
M  V30 10163 H 921.931 -5.11066 -4.472 0
M  V30 10164 H 919.877 -3.23643 -5.70606 0
M  V30 10165 H 919.794 -4.96757 -5.69884 0
M  V30 10166 H 921.062 -4.17322 -6.58379 0
M  V30 10167 N 925.291 0.760815 -1.38019 0
M  V30 10168 C 926.568 1.5098 -1.24356 0
M  V30 10169 C 926.948 2.10507 0.158169 0
M  V30 10170 O 926.296 1.96455 1.16695 0
M  V30 10171 C 926.506 2.58195 -2.34811 0
M  V30 10172 C 927.854 3.25297 -2.72886 0
M  V30 10173 O 928.878 2.68496 -2.34069 0
M  V30 10174 O 927.737 4.28018 -3.39799 0
M  V30 10175 H 924.831 0.66921 -0.485888 0
M  V30 10176 H 927.377 0.796844 -1.49828 0
M  V30 10177 H 926.149 2.12406 -3.28633 0
M  V30 10178 H 925.772 3.37079 -2.10864 0
M  V30 10179 N 926.769 1.22769 0.988202 0
M  V30 10180 C 928.018 1.0492 1.72263 0
M  V30 10181 C 928.331 -0.415282 1.91141 0
M  V30 10182 O 929.537 -0.713547 2.61956 0
M  V30 10183 C 927.993 1.82891 3.09966 0
M  V30 10184 C 927.601 3.33618 2.99003 0
M  V30 10185 C 929.345 1.73505 3.87423 0
M  V30 10186 C 927.252 4.04012 4.3189 0
M  V30 10187 H 926.182 0.38899 0.645912 0
M  V30 10188 H 928.833 1.46664 1.10281 0
M  V30 10189 H 927.215 1.33948 3.72658 0
M  V30 10190 H 928.389 3.8999 2.45448 0
M  V30 10191 H 926.704 3.43732 2.35027 0
M  V30 10192 H 929.301 2.23416 4.85787 0
M  V30 10193 H 929.644 0.696344 4.10435 0
M  V30 10194 H 930.177 2.20016 3.31418 0
M  V30 10195 H 926.916 5.08155 4.14075 0
M  V30 10196 H 926.436 3.52428 4.8534 0
M  V30 10197 H 928.115 4.0987 5.00615 0
M  V30 10198 N 928.247 -1.18576 1.03814 0
M  V30 10199 C 929.472 -1.92978 0.759873 0
M  V30 10200 C 929.897 -1.75514 -0.676486 0
M  V30 10201 O 929.255 -1.06359 -1.46824 0
M  V30 10202 C 929.303 -3.42507 1.12788 0
M  V30 10203 O 928.407 -4.1163 0.251886 0
M  V30 10204 H 927.748 -0.602129 0.279886 0
M  V30 10205 H 930.278 -1.50383 1.3873 0
M  V30 10206 H 930.288 -3.93206 1.08872 0
M  V30 10207 H 928.963 -3.5454 2.17427 0
M  V30 10208 H 927.54 -3.7125 0.350441 0
M  V30 10209 N 929.725 -0.817259 -1.34754 0
M  V30 10210 C 930.973 -0.401852 -1.98065 0
M  V30 10211 C 931.294 1.03718 -1.65129 0
M  V30 10212 O 930.564 1.71921 -0.939141 0
M  V30 10213 H 929.144 -0.145603 -0.732672 0
M  V30 10214 H 931.806 -1.04545 -1.64488 0
M  V30 10215 H 930.902 -0.516241 -3.07801 0
M  V30 10216 N 931.203 1.46865 -0.571711 0
M  V30 10217 C 932.15 2.30189 0.167808 0
M  V30 10218 C 933.12 1.3995 0.89461 0
M  V30 10219 O 934.305 1.68905 0.887451 0
M  V30 10220 C 931.445 3.24205 1.1826 0
M  V30 10221 C 930.558 4.2954 0.460376 0
M  V30 10222 C 929.693 5.10693 1.46173 0
M  V30 10223 C 928.732 6.07788 0.725291 0
M  V30 10224 N 927.869 6.81847 1.67417 0
M  V30 10225 H 932.709 2.92902 -0.548831 0
M  V30 10226 H 930.246 1.44362 -0.282474 0
M  V30 10227 H 932.204 3.77147 1.7837 0
M  V30 10228 H 930.834 2.63324 1.86709 0
M  V30 10229 H 929.886 3.79541 -0.255546 0
M  V30 10230 H 931.198 4.98665 -0.115855 0
M  V30 10231 H 930.352 5.67857 2.13595 0
M  V30 10232 H 929.091 4.41502 2.07188 0
M  V30 10233 H 928.096 5.49787 0.037228 0
M  V30 10234 H 929.321 6.78993 0.120678 0
M  V30 10235 H 927.267 6.15376 2.27263 0
M  V30 10236 H 927.184 7.47195 1.15046 0
M  V30 10237 H 928.452 7.43577 2.33908 0
M  V30 10238 N 932.681 0.308908 1.54543 0
M  V30 10239 C 933.909 -0.300418 2.04707 0
M  V30 10240 C 934.324 -1.46915 1.18581 0
M  V30 10241 O 933.681 -1.81251 0.213186 0
M  V30 10242 C 933.732 -0.749038 3.53655 0
M  V30 10243 O 933.453 0.373181 4.36508 0
M  V30 10244 C 934.954 -1.4227 4.1985 0
M  V30 10245 H 932.174 -0.0641267 0.667929 0
M  V30 10246 H 934.718 0.450839 1.99469 0
M  V30 10247 H 932.873 -1.4503 3.59228 0
M  V30 10248 H 933.287 0.0224752 5.24495 0
M  V30 10249 H 934.761 -1.68768 5.25568 0
M  V30 10250 H 935.238 -2.36531 3.70067 0
M  V30 10251 H 935.844 -0.764404 4.18374 0
M  V30 10252 N 934.159 -1.57557 0.0367827 0
M  V30 10253 C 935.091 -2.07597 -0.971395 0
M  V30 10254 C 936.104 -1.0009 -1.28397 0
M  V30 10255 O 937.293 -1.27692 -1.24728 0
M  V30 10256 C 934.393 -2.492 -2.2968 0
M  V30 10257 C 933.566 -3.79875 -2.16826 0
M  V30 10258 C 932.625 -4.07946 -3.32366 0
M  V30 10259 O 931.651 -4.78083 -3.0891 0
M  V30 10260 N 932.853 -3.58722 -4.56397 0
M  V30 10261 H 935.618 -2.94714 -0.544389 0
M  V30 10262 H 933.179 -1.61205 -0.1498 0
M  V30 10263 H 935.171 -2.65065 -3.05815 0
M  V30 10264 H 933.741 -1.67407 -2.63995 0
M  V30 10265 H 932.961 -3.73732 -1.2537 0
M  V30 10266 H 934.249 -4.65476 -2.0545 0
M  V30 10267 H 933.647 -3.01994 -4.78347 0
M  V30 10268 H 932.204 -3.79852 -5.29675 0
M  V30 10269 N 935.637 0.236453 -1.55816 0
M  V30 10270 C 936.886 0.960981 -1.77336 0
M  V30 10271 C 937.199 1.86085 -0.602641 0
M  V30 10272 O 938.405 2.62291 -0.701106 0
M  V30 10273 C 936.861 1.75884 -3.13995 0
M  V30 10274 C 936.469 0.905849 -4.38746 0
M  V30 10275 C 938.213 2.47548 -3.44848 0
M  V30 10276 C 936.12 1.7002 -5.66434 0
M  V30 10277 H 935.05 0.362547 -0.661117 0
M  V30 10278 H 937.701 0.215303 -1.82233 0
M  V30 10279 H 936.083 2.54687 -3.03234 0
M  V30 10280 H 937.257 0.159415 -4.60524 0
M  V30 10281 H 935.572 0.30205 -4.15303 0
M  V30 10282 H 938.169 3.07452 -4.37467 0
M  V30 10283 H 938.512 3.19689 -2.66655 0
M  V30 10284 H 939.045 1.75747 -3.56872 0
M  V30 10285 H 935.784 1.02234 -6.47479 0
M  V30 10286 H 935.304 2.42164 -5.48741 0
M  V30 10287 H 936.983 2.26469 -6.0607 0
M  V30 10288 N 937.115 1.49373 0.502552 0
M  V30 10289 C 938.047 1.62045 1.62093 0
M  V30 10290 C 939.06 0.503221 1.54827 0
M  V30 10291 O 940.249 0.775208 1.60788 0
M  V30 10292 C 937.349 1.55971 3.00876 0
M  V30 10293 C 936.522 2.832 3.33341 0
M  V30 10294 C 935.581 2.702 4.51529 0
M  V30 10295 O 934.607 3.44132 4.53389 0
M  V30 10296 N 935.809 1.81642 5.5135 0
M  V30 10297 H 938.574 2.58501 1.51649 0
M  V30 10298 H 936.135 1.46442 0.690396 0
M  V30 10299 H 938.127 1.4493 3.77859 0
M  V30 10300 H 936.697 0.673795 3.05252 0
M  V30 10301 H 935.917 3.08604 2.4527 0
M  V30 10302 H 937.205 3.67551 3.51829 0
M  V30 10303 H 936.603 1.20829 5.52645 0
M  V30 10304 H 935.16 1.76524 6.27441 0
M  V30 10305 N 938.594 -0.753485 1.38421 0
M  V30 10306 C 939.819 -1.54783 1.38047 0
M  V30 10307 C 940.244 -1.8808 -0.0276371 0
M  V30 10308 O 939.602 -1.5058 -1.00973 0
M  V30 10309 C 939.65 -2.82353 2.24297 0
M  V30 10310 O 938.754 -3.77509 1.66014 0
M  V30 10311 H 938.095 -0.468151 0.470883 0
M  V30 10312 H 940.625 -0.931144 1.82184 0
M  V30 10313 H 940.635 -3.31277 2.38159 0
M  V30 10314 H 939.31 -2.57449 3.26639 0
M  V30 10315 H 937.887 -3.36212 1.61294 0
M  V30 10316 N 940.072 -1.23292 -0.981677 0
M  V30 10317 C 941.318 -1.06582 -1.72535 0
M  V30 10318 C 941.651 0.396538 -1.90108 0
M  V30 10319 O 940.926 1.29363 -1.45243 0
M  V30 10320 C 941.209 -1.7904 -3.12437 0
M  V30 10321 C 941.062 -3.32941 -3.02441 0
M  V30 10322 C 942.381 -1.55185 -4.11832 0
M  V30 10323 H 939.5 -0.388585 -0.626236 0
M  V30 10324 H 942.142 -1.51779 -1.14293 0
M  V30 10325 H 940.292 -1.40619 -3.62158 0
M  V30 10326 H 941.964 -3.80875 -2.60254 0
M  V30 10327 H 940.207 -3.62039 -2.38977 0
M  V30 10328 H 940.878 -3.78827 -4.0149 0
M  V30 10329 H 943.354 -1.88581 -3.70913 0
M  V30 10330 H 942.23 -2.08362 -5.07815 0
M  V30 10331 H 942.491 -0.486925 -4.3941 0
M  V30 10332 N 941.55 1.18024 -1.04442 0
M  V30 10333 C 942.46 2.25436 -0.649276 0
M  V30 10334 C 943.476 1.70915 0.326189 0
M  V30 10335 O 944.652 2.00592 0.180174 0
M  V30 10336 C 941.717 3.46693 -0.0222558 0
M  V30 10337 C 940.778 4.16332 -1.0472 0
M  V30 10338 C 940.011 5.31799 -0.450011 0
M  V30 10339 O 940.234 5.65544 0.742717 0
M  V30 10340 O 939.168 5.90209 -1.18056 0
M  V30 10341 H 942.994 2.61508 -1.54426 0
M  V30 10342 H 940.579 1.25178 -0.81552 0
M  V30 10343 H 942.461 4.20132 0.326597 0
M  V30 10344 H 941.136 3.12436 0.84649 0
M  V30 10345 H 940.043 3.44944 -1.44792 0
M  V30 10346 H 941.376 4.54598 -1.88684 0
M  V30 10347 N 943.028 0.824394 1.34319 0
M  V30 10348 C 944.439 0.471802 1.8064 0
M  V30 10349 C 944.79 -1.00793 1.6833 0
M  V30 10350 O 943.915 -1.78447 1.22416 0
M  V30 10351 C 944.51 0.849609 3.27974 0
M  V30 10352 C 943.069 0.549365 3.72369 0
M  V30 10353 C 942.216 1.06573 2.56003 0
M  V30 10354 H 945.167 1.01443 1.22045 0
M  V30 10355 H 945.188 0.153968 3.80188 0
M  V30 10356 H 944.7 1.92663 3.36902 0
M  V30 10357 H 942.801 -0.518182 3.68979 0
M  V30 10358 H 942.914 1.09446 4.66432 0
M  V30 10359 H 941.278 0.487214 2.49997 0
M  V30 10360 H 942.061 2.14923 2.677 0
M  V30 10361 N 944.506 -1.46559 0.579492 0
M  V30 10362 C 945.736 -2.06484 0.0692642 0
M  V30 10363 C 946.144 -1.4293 -1.23967 0
M  V30 10364 O 945.487 -0.527632 -1.75959 0
M  V30 10365 C 945.549 -3.59078 -0.174174 0
M  V30 10366 C 945.213 -4.44805 1.04867 0
M  V30 10367 C 946.21 -4.81543 1.95991 0
M  V30 10368 C 943.895 -4.8599 1.26961 0
M  V30 10369 C 945.889 -5.58288 3.0756 0
M  V30 10370 C 943.576 -5.62495 2.38836 0
M  V30 10371 C 944.574 -5.98558 3.28964 0
M  V30 10372 O 944.262 -6.73518 4.38896 0
M  V30 10373 H 943.994 -0.673917 0.0530331 0
M  V30 10374 H 946.548 -1.89223 0.79898 0
M  V30 10375 H 944.778 -3.74634 -0.958464 0
M  V30 10376 H 946.467 -4.00941 -0.632515 0
M  V30 10377 H 947.233 -4.50307 1.80136 0
M  V30 10378 H 943.112 -4.57372 0.577184 0
M  V30 10379 H 946.656 -5.86355 3.77933 0
M  V30 10380 H 942.553 -5.93145 2.54655 0
M  V30 10381 H 943.321 -6.91938 4.37223 0
M  V30 10382 N 945.984 -0.3171 -1.54377 0
M  V30 10383 C 947.212 0.289558 -2.04864 0
M  V30 10384 C 947.627 1.46284 -1.19359 0
M  V30 10385 O 946.984 1.81135 -0.222795 0
M  V30 10386 C 947.035 0.730273 -3.54047 0
M  V30 10387 O 946.756 -0.396325 -4.36304 0
M  V30 10388 C 948.257 1.40041 -4.20599 0
M  V30 10389 H 945.477 0.0605836 -0.668259 0
M  V30 10390 H 948.021 -0.461411 -1.99227 0
M  V30 10391 H 946.176 1.43123 -3.59992 0
M  V30 10392 H 946.59 -0.0502901 -5.24476 0
M  V30 10393 H 948.064 1.65979 -5.26455 0
M  V30 10394 H 948.541 2.34565 -3.71316 0
M  V30 10395 H 949.147 0.742206 -4.18774 0
M  V30 10396 N 947.462 1.57535 -0.0451378 0
M  V30 10397 C 948.409 2.11176 0.931313 0
M  V30 10398 C 949.379 1.01765 1.31275 0
M  V30 10399 O 950.564 1.29279 1.40327 0
M  V30 10400 C 947.704 2.65639 2.20295 0
M  V30 10401 C 946.817 3.89114 1.87654 0
M  V30 10402 C 945.952 4.31914 3.09232 0
M  V30 10403 C 944.991 5.48105 2.72484 0
M  V30 10404 N 944.128 5.85986 3.86736 0
M  V30 10405 H 948.968 2.94318 0.466986 0
M  V30 10406 H 946.505 1.45462 0.218886 0
M  V30 10407 H 948.463 2.95312 2.94697 0
M  V30 10408 H 947.093 1.85303 2.64316 0
M  V30 10409 H 946.145 3.6607 1.03427 0
M  V30 10410 H 947.457 4.7358 1.56601 0
M  V30 10411 H 946.611 4.63108 3.91939 0
M  V30 10412 H 945.35 3.46247 3.43459 0
M  V30 10413 H 944.355 5.16589 1.88192 0
M  V30 10414 H 945.58 6.35482 2.39455 0
M  V30 10415 H 943.526 5.03273 4.20775 0
M  V30 10416 H 943.443 6.65129 3.5936 0
M  V30 10417 H 944.711 6.21793 4.701 0
M  V30 10418 N 948.94 -0.228186 1.55939 0
M  V30 10419 C 949.872 -1.30605 1.88348 0
M  V30 10420 C 950.885 -1.43375 0.771198 0
M  V30 10421 O 952.074 -1.44391 1.04945 0
M  V30 10422 C 949.174 -2.68248 2.07115 0
M  V30 10423 C 948.347 -2.77509 3.38094 0
M  V30 10424 C 947.406 -3.96121 3.46373 0
M  V30 10425 O 946.432 -3.8477 4.19453 0
M  V30 10426 N 947.634 -5.10132 2.77031 0
M  V30 10427 H 950.399 -1.03132 2.81396 0
M  V30 10428 H 947.96 -0.418245 1.56404 0
M  V30 10429 H 949.952 -3.45966 2.09976 0
M  V30 10430 H 948.522 -2.88348 1.20723 0
M  V30 10431 H 947.742 -1.8632 3.47388 0
M  V30 10432 H 949.03 -2.80662 4.2439 0
M  V30 10433 H 948.428 -5.22249 2.17424 0
M  V30 10434 H 946.985 -5.85916 2.85561 0
M  V30 10435 N 950.418 -1.49637 -0.494624 0
M  V30 10436 C 951.35 -1.62902 -1.61231 0
M  V30 10437 C 952.363 -0.511425 -1.54558 0
M  V30 10438 O 953.552 -0.783724 -1.60375 0
M  V30 10439 C 950.652 -1.57564 -3.00045 0
M  V30 10440 C 949.825 -2.84964 -3.31835 0
M  V30 10441 C 948.884 -2.72591 -4.5009 0
M  V30 10442 O 947.91 -3.46532 -4.51558 0
M  V30 10443 N 949.112 -1.84563 -5.50379 0
M  V30 10444 H 951.877 -2.59301 -1.50276 0
M  V30 10445 H 949.438 -1.46806 -0.68262 0
M  V30 10446 H 951.43 -1.46932 -3.77085 0
M  V30 10447 H 950 -0.689974 -3.0489 0
M  V30 10448 H 949.22 -3.099 -2.4363 0
M  V30 10449 H 950.508 -3.69412 -3.49875 0
M  V30 10450 H 949.906 -1.23758 -5.51997 0
M  V30 10451 H 948.463 -1.79849 -6.26496 0
M  V30 10452 N 951.896 0.746133 -1.38819 0
M  V30 10453 C 952.826 1.87344 -1.39372 0
M  V30 10454 C 953.807 1.68123 -0.258583 0
M  V30 10455 O 954.992 1.88606 -0.462769 0
M  V30 10456 C 952.122 3.24962 -1.22543 0
M  V30 10457 C 951.076 3.58799 -2.33339 0
M  V30 10458 C 950.402 4.95235 -2.01609 0
M  V30 10459 C 951.702 3.62911 -3.75624 0
M  V30 10460 H 953.396 1.87138 -2.33709 0
M  V30 10461 H 950.942 0.898937 -1.12495 0
M  V30 10462 H 952.895 4.03488 -1.21554 0
M  V30 10463 H 951.619 3.25667 -0.246707 0
M  V30 10464 H 950.278 2.82596 -2.33527 0
M  V30 10465 H 949.926 4.92508 -1.02202 0
M  V30 10466 H 949.626 5.18843 -2.75819 0
M  V30 10467 H 951.15 5.76131 -2.02251 0
M  V30 10468 H 952.564 4.31535 -3.77426 0
M  V30 10469 H 950.961 3.98031 -4.491 0
M  V30 10470 H 952.031 2.62967 -4.07402 0
M  V30 10471 N 953.375 1.23811 0.975125 0
M  V30 10472 C 954.323 1.02149 2.0897 0
M  V30 10473 C 955.317 -0.0412172 1.6935 0
M  V30 10474 O 956.523 0.112726 1.79647 0
M  V30 10475 H 952.898 0.313259 0.683647 0
M  V30 10476 H 954.869 1.96686 2.24404 0
M  V30 10477 C 953.618 0.635023 3.41852 0
M  V30 10478 H 952.941 1.44449 3.72793 0
M  V30 10479 H 954.381 0.52301 4.20762 0
M  V30 10480 C 952.84 -0.657207 3.30428 0
M  V30 10481 O 953.37 -1.70494 3.63723 0
M  V30 10482 N 951.576 -0.635122 2.83575 0
M  V30 10483 H 951.123 0.21784 2.56677 0
M  V30 10484 H 951.081 -1.49995 2.76313 0
M  V30 10485 N 954.853 -1.17469 1.05066 0
M  V30 10486 C 955.801 -2.23495 0.644418 0
M  V30 10487 C 956.795 -1.66081 -0.333685 0
M  V30 10488 O 958.001 -1.78887 -0.199886 0
M  V30 10489 H 954.376 -0.727546 0.190214 0
M  V30 10490 H 956.347 -2.55058 1.5488 0
M  V30 10491 C 955.096 -3.47684 0.0338051 0
M  V30 10492 H 954.419 -3.92167 0.777513 0
M  V30 10493 H 955.859 -4.23464 -0.213086 0
M  V30 10494 C 954.318 -3.14067 -1.21915 0
M  V30 10495 O 954.848 -3.28728 -2.3087 0
M  V30 10496 N 953.054 -2.68304 -1.11631 0
M  V30 10497 H 952.601 -2.56574 -0.229673 0
M  V30 10498 H 952.559 -2.46184 -1.95553 0
M  V30 10499 N 956.331 -0.831506 -1.3388 0
M  V30 10500 C 957.264 -0.2046 -2.27281 0
M  V30 10501 C 958.242 0.643992 -1.49303 0
M  V30 10502 O 959.426 0.605863 -1.78498 0
M  V30 10503 C 956.553 0.713409 -3.31101 0
M  V30 10504 C 955.599 -0.0587654 -4.2646 0
M  V30 10505 S 956.432 -1.41172 -5.16557 0
M  V30 10506 C 957.588 -0.498807 -6.23909 0
M  V30 10507 H 957.821 -0.996442 -2.80104 0
M  V30 10508 H 955.354 -0.62786 -1.41058 0
M  V30 10509 H 957.312 1.23748 -3.91403 0
M  V30 10510 H 955.973 1.47885 -2.77108 0
M  V30 10511 H 955.166 0.639466 -4.99927 0
M  V30 10512 H 954.768 -0.513665 -3.70456 0
M  V30 10513 H 957.06 0.306268 -6.76807 0
M  V30 10514 H 958.003 -1.20342 -6.97799 0
M  V30 10515 H 958.411 -0.0834242 -5.64438 0
M  V30 10516 N 957.809 1.4625 -0.587256 0
M  V30 10517 C 959.034 2.07252 -0.0784517 0
M  V30 10518 C 959.459 1.43239 1.21919 0
M  V30 10519 O 958.817 0.517791 1.73749 0
M  V30 10520 C 958.865 3.60534 0.0691037 0
M  V30 10521 O 957.969 3.96773 1.12448 0
M  V30 10522 H 957.31 0.660825 -0.064859 0
M  V30 10523 H 959.84 1.87819 -0.811491 0
M  V30 10524 H 959.85 4.0708 0.273826 0
M  V30 10525 H 958.525 4.06516 -0.878514 0
M  V30 10526 H 957.102 3.6193 0.897852 0
M  V30 10527 N 959.287 0.325282 1.54207 0
M  V30 10528 C 960.534 -0.276775 2.006 0
M  V30 10529 C 960.862 -1.52007 1.21343 0
M  V30 10530 O 960.117 -1.93627 0.284104 0
M  V30 10531 C 960.416 -0.654292 3.5136 0
M  V30 10532 C 960.082 0.490023 4.48229 0
M  V30 10533 C 958.744 0.804104 4.74434 0
M  V30 10534 C 961.096 1.2586 5.05775 0
M  V30 10535 C 958.424 1.88945 5.55443 0
M  V30 10536 C 960.776 2.33405 5.87967 0
M  V30 10537 C 959.44 2.65393 6.12473 0
M  V30 10538 H 958.71 -0.101279 0.734046 0
M  V30 10539 H 961.357 0.449416 1.86152 0
M  V30 10540 H 959.662 -1.46093 3.63544 0
M  V30 10541 H 961.359 -1.13171 3.84699 0
M  V30 10542 H 957.949 0.235147 4.27954 0
M  V30 10543 H 962.133 1.02921 4.85511 0
M  V30 10544 H 957.389 2.14174 5.7266 0
M  V30 10545 H 961.563 2.93402 6.31576 0
M  V30 10546 H 959.19 3.49622 6.75032 0
M  V30 10547 N 960.765 -1.57509 0.0534917 0
M  V30 10548 C 961.728 -2.10563 -0.905307 0
M  V30 10549 C 962.728 -1.02571 -1.23838 0
M  V30 10550 O 963.918 -1.28635 -1.17468 0
M  V30 10551 C 961.05 -2.5918 -2.21447 0
M  V30 10552 H 962.243 -2.96575 -0.445354 0
M  V30 10553 H 959.796 -1.55079 -0.194947 0
M  V30 10554 H 960.531 -1.76568 -2.72019 0
M  V30 10555 H 960.316 -3.38098 -1.98575 0
M  V30 10556 H 961.806 -3.00365 -2.90122 0
M  V30 10557 N 962.243 0.219913 -1.56058 0
M  V30 10558 C 963.153 1.29349 -1.95719 0
M  V30 10559 C 964.169 1.5119 -0.861248 0
M  V30 10560 O 965.345 1.64289 -1.16495 0
M  V30 10561 C 962.41 2.6229 -2.26726 0
M  V30 10562 C 961.471 2.48738 -3.49897 0
M  V30 10563 C 960.704 3.75339 -3.79416 0
M  V30 10564 O 960.927 4.78427 -3.10586 0
M  V30 10565 O 959.861 3.72352 -4.72903 0
M  V30 10566 H 963.687 0.986979 -2.87215 0
M  V30 10567 H 961.272 0.42291 -1.43289 0
M  V30 10568 H 963.154 3.408 -2.47857 0
M  V30 10569 H 961.829 2.92619 -1.38404 0
M  V30 10570 H 960.736 1.68422 -3.34043 0
M  V30 10571 H 962.069 2.23347 -4.38608 0
M  V30 10572 N 963.721 1.49897 0.486681 0
M  V30 10573 C 964.97 1.59349 1.23656 0
M  V30 10574 C 965.283 0.292024 1.93408 0
M  V30 10575 O 966.489 0.265258 2.70201 0
M  V30 10576 C 964.945 2.81215 2.24602 0
M  V30 10577 C 964.553 4.18177 1.60725 0
M  V30 10578 C 966.297 3.00004 3.00329 0
M  V30 10579 C 964.204 5.31247 2.59866 0
M  V30 10580 H 963.134 0.593363 0.465227 0
M  V30 10581 H 965.785 1.76306 0.508769 0
M  V30 10582 H 964.167 2.57783 3.00606 0
M  V30 10583 H 965.341 4.51802 0.90616 0
M  V30 10584 H 963.656 4.04864 0.973362 0
M  V30 10585 H 966.253 3.81649 3.74497 0
M  V30 10586 H 966.596 2.1112 3.58795 0
M  V30 10587 H 967.129 3.23544 2.3144 0
M  V30 10588 H 963.868 6.22236 2.06161 0
M  V30 10589 H 963.388 5.02059 3.28172 0
M  V30 10590 H 965.067 5.61177 3.22009 0
M  V30 10591 N 965.199 -0.738761 1.39212 0
M  V30 10592 C 966.448 -1.49368 1.35543 0
M  V30 10593 C 966.761 -1.95543 -0.0471091 0
M  V30 10594 O 967.967 -2.70714 -0.206376 0
M  V30 10595 C 966.423 -2.69882 2.381 0
M  V30 10596 C 966.031 -2.30672 3.8405 0
M  V30 10597 C 967.775 -3.47718 2.435 0
M  V30 10598 C 965.682 -3.47886 4.78256 0
M  V30 10599 H 964.612 -0.560898 0.503894 0
M  V30 10600 H 967.263 -0.806221 1.6484 0
M  V30 10601 H 965.645 -3.40684 2.01867 0
M  V30 10602 H 966.819 -1.67441 4.29302 0
M  V30 10603 H 965.134 -1.65936 3.81909 0
M  V30 10604 H 967.731 -4.34897 3.11077 0
M  V30 10605 H 968.074 -3.89919 1.45838 0
M  V30 10606 H 968.607 -2.83942 2.78606 0
M  V30 10607 H 965.346 -3.10739 5.77167 0
M  V30 10608 H 964.866 -4.10111 4.37686 0
M  V30 10609 H 966.545 -4.14271 4.96979 0
M  V30 10610 N 966.677 -1.24326 -0.968545 0
M  V30 10611 C 967.61 -0.978121 -2.06175 0
M  V30 10612 C 968.588 0.0878107 -1.62363 0
M  V30 10613 O 969.772 -0.0489472 -1.88436 0
M  V30 10614 C 966.899 -0.475884 -3.3534 0
M  V30 10615 C 965.945 -1.53023 -3.98103 0
M  V30 10616 S 966.778 -3.11131 -4.35841 0
M  V30 10617 C 967.934 -2.62608 -5.68144 0
M  V30 10618 H 968.167 -1.9038 -2.28348 0
M  V30 10619 H 965.7 -1.07701 -1.10633 0
M  V30 10620 H 967.658 -0.192739 -4.10047 0
M  V30 10621 H 966.319 0.429067 -3.11156 0
M  V30 10622 H 965.512 -1.12922 -4.91187 0
M  V30 10623 H 965.114 -1.76334 -3.29822 0
M  V30 10624 H 967.406 -2.05367 -6.45624 0
M  V30 10625 H 968.349 -3.54277 -6.13101 0
M  V30 10626 H 968.757 -2.03063 -5.26712 0
M  V30 10627 N 968.156 1.1691 -1.05688 0
M  V30 10628 C 969.404 1.86922 -0.768409 0
M  V30 10629 C 969.725 1.81735 0.706921 0
M  V30 10630 O 968.995 1.24671 1.51109 0
M  V30 10631 H 967.575 0.69203 -0.281253 0
M  V30 10632 H 970.237 1.41803 -1.33708 0
M  V30 10633 H 969.333 2.92528 -1.08783 0
M  V30 10634 N 969.634 0.838594 1.33437 0
M  V30 10635 C 970.864 0.446995 2.01707 0
M  V30 10636 C 971.272 -0.956335 1.63251 0
M  V30 10637 O 970.615 -1.63289 0.841566 0
M  V30 10638 C 970.677 0.487707 3.56176 0
M  V30 10639 C 970.341 1.8471 4.18009 0
M  V30 10640 C 971.338 2.81028 4.374 0
M  V30 10641 C 969.023 2.13987 4.54439 0
M  V30 10642 C 971.017 4.04785 4.92369 0
M  V30 10643 C 968.704 3.38 5.09116 0
M  V30 10644 C 969.702 4.33216 5.28027 0
M  V30 10645 O 969.39 5.55036 5.81541 0
M  V30 10646 H 969.122 0.175799 0.652741 0
M  V30 10647 H 971.676 1.13265 1.71348 0
M  V30 10648 H 969.906 -0.254719 3.8586 0
M  V30 10649 H 971.595 0.113971 4.0574 0
M  V30 10650 H 972.361 2.5971 4.09604 0
M  V30 10651 H 968.24 1.40668 4.39014 0
M  V30 10652 H 971.784 4.79114 5.07046 0
M  V30 10653 H 967.681 3.59175 5.36343 0
M  V30 10654 H 968.449 5.56772 5.99956 0
M  V30 10655 N 971.112 -1.45937 0.595003 0
M  V30 10656 C 972.059 -2.30427 -0.131165 0
M  V30 10657 C 973.029 -1.41355 -0.872232 0
M  V30 10658 O 974.214 -1.70296 -0.860467 0
M  V30 10659 C 971.354 -3.26045 -1.13087 0
M  V30 10660 C 970.467 -4.30218 -0.391982 0
M  V30 10661 C 969.602 -5.12953 -1.3803 0
M  V30 10662 C 968.641 -6.08865 -0.628505 0
M  V30 10663 N 967.778 -6.84425 -1.56548 0
M  V30 10664 H 972.618 -2.91992 0.595359 0
M  V30 10665 H 970.155 -1.43895 0.305405 0
M  V30 10666 H 972.113 -3.79937 -1.72348 0
M  V30 10667 H 970.743 -2.66261 -1.82496 0
M  V30 10668 H 969.795 -3.79086 0.315895 0
M  V30 10669 H 971.107 -4.98418 0.195173 0
M  V30 10670 H 970.261 -5.71184 -2.04534 0
M  V30 10671 H 969 -4.44743 -2.00138 0
M  V30 10672 H 968.005 -5.49777 0.0502431 0
M  V30 10673 H 969.23 -6.79099 -0.012641 0
M  V30 10674 H 967.176 -6.18913 -2.17444 0
M  V30 10675 H 967.093 -7.48931 -1.03145 0
M  V30 10676 H 968.361 -7.47204 -2.22049 0
M  V30 10677 N 972.59 -0.333456 -1.54032 0
M  V30 10678 C 973.839 0.267081 -1.99924 0
M  V30 10679 C 974.152 1.52463 -1.22534 0
M  V30 10680 O 975.358 2.20178 -1.58852 0
M  V30 10681 C 973.814 0.526456 -3.56029 0
M  V30 10682 C 973.422 -0.714607 -4.42264 0
M  V30 10683 C 975.166 1.0864 -4.10363 0
M  V30 10684 C 973.073 -0.42659 -5.89859 0
M  V30 10685 H 972.003 0.103577 -0.746852 0
M  V30 10686 H 974.654 -0.447218 -1.77967 0
M  V30 10687 H 973.036 1.3012 -3.74012 0
M  V30 10688 H 974.21 -1.48968 -4.36056 0
M  V30 10689 H 972.525 -1.19547 -3.9887 0
M  V30 10690 H 975.122 1.31668 -5.18235 0
M  V30 10691 H 975.465 2.03884 -3.62956 0
M  V30 10692 H 975.998 0.37261 -3.96051 0
M  V30 10693 H 972.737 -1.34847 -6.4148 0
M  V30 10694 H 972.257 0.310588 -5.98995 0
M  V30 10695 H 973.936 -0.0400807 -6.46988 0
M  V30 10696 N 974.068 1.57479 -0.061844 0
M  V30 10697 C 975.001 2.07734 0.94455 0
M  V30 10698 C 975.979 0.980207 1.29733 0
M  V30 10699 O 977.163 1.2529 1.40836 0
M  V30 10700 C 974.29 2.52673 2.25553 0
M  V30 10701 C 973.336 3.73725 2.05503 0
M  V30 10702 S 974.169 5.18886 1.32354 0
M  V30 10703 C 975.325 5.67148 2.64753 0
M  V30 10704 H 975.558 2.92772 0.516888 0
M  V30 10705 H 973.091 1.53663 0.150684 0
M  V30 10706 H 975.049 2.79226 3.00904 0
M  V30 10707 H 973.71 1.67921 2.65445 0
M  V30 10708 H 972.903 4.03125 3.025 0
M  V30 10709 H 972.505 3.47494 1.3829 0
M  V30 10710 H 974.797 5.73385 3.60882 0
M  V30 10711 H 975.74 6.66196 2.39976 0
M  V30 10712 H 976.148 4.94921 2.71502 0
M  V30 10713 N 975.546 -0.211634 1.56173 0
M  V30 10714 C 976.823 -0.959467 1.70451 0
M  V30 10715 C 977.203 -2.02036 0.611942 0
M  V30 10716 O 976.551 -2.25325 -0.37959 0
M  V30 10717 C 976.761 -1.56092 3.12148 0
M  V30 10718 C 978.109 -2.04939 3.71867 0
M  V30 10719 O 979.133 -1.65966 3.15172 0
M  V30 10720 O 977.992 -2.766 4.71333 0
M  V30 10721 H 975.086 -0.448844 0.6946 0
M  V30 10722 H 977.632 -0.202633 1.68486 0
M  V30 10723 H 976.404 -0.79538 3.83131 0
M  V30 10724 H 976.027 -2.38303 3.18273 0
M  V30 10725 N 977.024 -1.50153 -0.478725 0
M  V30 10726 C 977.987 -1.67916 -1.56003 0
M  V30 10727 C 978.987 -0.550111 -1.51097 0
M  V30 10728 O 980.177 -0.817001 -1.53853 0
M  V30 10729 C 977.309 -1.6973 -2.95643 0
M  V30 10730 H 978.502 -2.6438 -1.41573 0
M  V30 10731 H 976.055 -1.39519 -0.704565 0
M  V30 10732 H 976.79 -0.749306 -3.15525 0
M  V30 10733 H 976.575 -2.51745 -3.00611 0
M  V30 10734 H 978.065 -1.85453 -3.74162 0
M  V30 10735 N 978.502 0.731368 -1.39602 0
M  V30 10736 C 979.73 1.52059 -1.40305 0
M  V30 10737 C 980.145 1.888 0.00147921 0
M  V30 10738 O 979.502 1.54354 0.973715 0
M  V30 10739 C 979.553 2.80588 -2.27931 0
M  V30 10740 O 979.274 2.45406 -3.62915 0
M  V30 10741 C 980.775 3.74592 -2.37056 0
M  V30 10742 H 977.995 0.469787 -0.479104 0
M  V30 10743 H 980.539 0.903436 -1.83462 0
M  V30 10744 H 978.694 3.38626 -1.88178 0
M  V30 10745 H 979.108 3.27996 -4.09291 0
M  V30 10746 H 980.582 4.61662 -3.02609 0
M  V30 10747 H 981.059 4.16597 -1.39081 0
M  V30 10748 H 981.665 3.22471 -2.77295 0
M  V30 10749 N 979.98 1.24838 0.961938 0
M  V30 10750 C 980.928 1.0436 2.07874 0
M  V30 10751 C 981.922 -0.0232531 1.69384 0
M  V30 10752 O 983.128 0.131773 1.79517 0
M  V30 10753 H 979.503 0.320492 0.680286 0
M  V30 10754 H 981.474 1.99055 2.22306 0
M  V30 10755 C 980.223 0.671246 3.41159 0
M  V30 10756 H 979.546 1.48395 3.7124 0
M  V30 10757 H 980.986 0.567608 4.20184 0
M  V30 10758 C 979.445 -0.622124 3.31106 0
M  V30 10759 O 979.975 -1.66627 3.65511 0
M  V30 10760 N 978.181 -0.605009 2.84232 0
M  V30 10761 H 977.728 0.245052 2.56432 0
M  V30 10762 H 977.686 -1.47056 2.77888 0
M  V30 10763 N 981.458 -1.16348 1.06306 0
M  V30 10764 C 982.707 -1.8622 0.774909 0
M  V30 10765 C 983.02 -1.82598 -0.701245 0
M  V30 10766 O 984.226 -2.48051 -1.10377 0
M  V30 10767 C 982.682 -3.34182 1.33604 0
M  V30 10768 C 982.29 -3.46279 2.84245 0
M  V30 10769 C 984.034 -4.09309 1.12544 0
M  V30 10770 C 981.941 -4.88327 3.33602 0
M  V30 10771 H 980.871 -0.697574 0.286194 0
M  V30 10772 H 983.522 -1.31311 1.28179 0
M  V30 10773 H 981.904 -3.88698 0.756937 0
M  V30 10774 H 983.078 -3.01923 3.48108 0
M  V30 10775 H 981.393 -2.84585 3.03974 0
M  V30 10776 H 983.99 -5.14123 1.46909 0
M  V30 10777 H 984.333 -4.16251 0.0638129 0
M  V30 10778 H 984.866 -3.61032 1.67034 0
M  V30 10779 H 981.605 -4.86565 4.39244 0
M  V30 10780 H 981.125 -5.33307 2.74487 0
M  V30 10781 H 982.804 -5.57144 3.28937 0
M  V30 10782 N 982.937 -0.845659 -1.3299 0
M  V30 10783 C 983.867 -0.298957 -2.31578 0
M  V30 10784 C 984.848 0.597012 -1.59279 0
M  V30 10785 O 986.033 0.519142 -1.87132 0
M  V30 10786 C 983.163 0.521109 -3.43368 0
M  V30 10787 C 982.117 -0.279651 -4.27085 0
M  V30 10788 C 981.443 0.664591 -5.30554 0
M  V30 10789 C 982.743 -1.50046 -5.00283 0
M  V30 10790 H 984.437 -1.12272 -2.77552 0
M  V30 10791 H 981.983 -0.54132 -1.33438 0
M  V30 10792 H 983.936 0.913921 -4.1137 0
M  V30 10793 H 982.66 1.37815 -2.96099 0
M  V30 10794 H 981.319 -0.654106 -3.60717 0
M  V30 10795 H 980.967 1.51822 -4.79541 0
M  V30 10796 H 980.667 0.132871 -5.8745 0
M  V30 10797 H 982.191 1.05477 -6.01421 0
M  V30 10798 H 983.605 -1.18044 -5.61016 0
M  V30 10799 H 982.002 -1.96946 -5.66862 0
M  V30 10800 H 983.072 -2.26659 -4.28665 0
M  V30 10801 N 984.415 1.45619 -0.602734 0
M  V30 10802 C 985.661 2.02572 -0.0961759 0
M  V30 10803 C 985.994 1.47076 1.26815 0
M  V30 10804 O 985.269 0.643566 1.83544 0
M  V30 10805 C 985.552 3.60062 -0.0520032 0
M  V30 10806 C 985.405 4.25901 -1.44665 0
M  V30 10807 C 986.724 4.35446 0.638342 0
M  V30 10808 H 983.843 0.736099 -0.0364238 0
M  V30 10809 H 986.485 1.7353 -0.773776 0
M  V30 10810 H 984.635 3.84936 0.525032 0
M  V30 10811 H 986.307 4.12228 -2.0704 0
M  V30 10812 H 984.55 3.84489 -2.00874 0
M  V30 10813 H 985.221 5.34779 -1.36803 0
M  V30 10814 H 987.697 4.15837 0.147926 0
M  V30 10815 H 986.573 5.45176 0.63834 0
M  V30 10816 H 986.834 4.07962 1.70351 0
M  V30 10817 N 985.893 0.34162 1.53853 0
M  V30 10818 C 987.118 -0.259608 2.05769 0
M  V30 10819 C 987.543 -1.43588 1.21507 0
M  V30 10820 O 986.901 -1.79856 0.228364 0
M  V30 10821 C 986.949 -0.654455 3.54611 0
M  V30 10822 O 986.053 -1.75472 3.73207 0
M  V30 10823 H 985.394 -0.0434621 0.662576 0
M  V30 10824 H 987.924 0.495274 1.98515 0
M  V30 10825 H 987.934 -0.932142 3.97209 0
M  V30 10826 H 986.609 0.205779 4.15391 0
M  V30 10827 H 985.186 -1.47444 3.42512 0
M  V30 10828 N 987.371 -1.57444 0.0701946 0
M  V30 10829 C 988.782 -1.80875 -0.462709 0
M  V30 10830 C 989.133 -0.983975 -1.69742 0
M  V30 10831 O 988.258 -0.206027 -2.15417 0
M  V30 10832 C 988.853 -3.28062 -0.84623 0
M  V30 10833 C 987.412 -3.52345 -1.32401 0
M  V30 10834 C 986.559 -2.7558 -0.308399 0
M  V30 10835 H 989.51 -1.55917 0.295907 0
M  V30 10836 H 989.531 -3.40023 -1.70776 0
M  V30 10837 H 989.043 -3.88064 0.0526033 0
M  V30 10838 H 987.144 -2.97645 -2.24139 0
M  V30 10839 H 987.257 -4.6104 -1.30304 0
M  V30 10840 H 985.621 -2.4229 -0.785337 0
M  V30 10841 H 986.404 -3.38319 0.582679 0
M  V30 10842 N 988.849 0.203349 -1.56283 0
M  V30 10843 C 989.779 1.2549 -1.96912 0
M  V30 10844 C 990.76 1.47919 -0.839884 0
M  V30 10845 O 991.945 1.59795 -1.10359 0
M  V30 10846 C 989.075 2.6009 -2.30153 0
M  V30 10847 C 988.029 2.52289 -3.45738 0
M  V30 10848 C 987.355 3.91086 -3.64632 0
M  V30 10849 C 988.655 2.05503 -4.80173 0
M  V30 10850 H 990.349 0.917306 -2.85002 0
M  V30 10851 H 987.895 0.439818 -1.37119 0
M  V30 10852 H 989.848 3.33829 -2.5717 0
M  V30 10853 H 988.572 2.95574 -1.38937 0
M  V30 10854 H 987.231 1.81006 -3.18798 0
M  V30 10855 H 986.879 4.23908 -2.7076 0
M  V30 10856 H 986.579 3.86742 -4.42385 0
M  V30 10857 H 988.103 4.66459 -3.94016 0
M  V30 10858 H 989.517 2.68995 -5.06275 0
M  V30 10859 H 987.914 2.1218 -5.61337 0
M  V30 10860 H 988.984 1.00793 -4.74309 0
M  V30 10861 N 990.327 1.50405 0.470755 0
M  V30 10862 C 991.573 1.6165 1.22462 0
M  V30 10863 C 991.906 0.316034 1.91611 0
M  V30 10864 O 991.181 -0.682509 1.82132 0
M  V30 10865 C 991.464 2.79702 2.26801 0
M  V30 10866 C 991.317 4.19631 1.61955 0
M  V30 10867 C 992.636 2.93313 3.28109 0
M  V30 10868 H 989.755 0.588345 0.443868 0
M  V30 10869 H 992.397 1.82792 0.518376 0
M  V30 10870 H 990.547 2.61807 2.87036 0
M  V30 10871 H 992.219 4.49117 1.05316 0
M  V30 10872 H 990.462 4.23874 0.922674 0
M  V30 10873 H 991.133 4.98162 2.37779 0
M  V30 10874 H 993.609 3.09697 2.77897 0
M  V30 10875 H 992.485 3.77537 3.98443 0
M  V30 10876 H 992.746 2.03942 3.9225 0
M  V30 10877 N 991.805 -0.723954 1.39988 0
M  V30 10878 C 993.035 -1.51094 1.40905 0
M  V30 10879 C 993.443 -1.89199 0.00476744 0
M  V30 10880 O 992.786 -1.55398 -0.979646 0
M  V30 10881 C 992.848 -2.82114 2.22827 0
M  V30 10882 C 992.512 -2.66379 3.71337 0
M  V30 10883 C 993.509 -2.34192 4.64166 0
M  V30 10884 C 991.194 -2.82905 4.15054 0
M  V30 10885 C 993.188 -2.18729 5.98696 0
M  V30 10886 C 990.875 -2.67059 5.49657 0
M  V30 10887 C 991.873 -2.35018 6.41292 0
M  V30 10888 O 991.561 -2.19284 7.73414 0
M  V30 10889 H 991.293 -0.473142 0.482818 0
M  V30 10890 H 993.847 -0.901321 1.84568 0
M  V30 10891 H 992.077 -3.45377 1.7393 0
M  V30 10892 H 993.766 -3.43789 2.15787 0
M  V30 10893 H 994.532 -2.21065 4.31689 0
M  V30 10894 H 990.411 -3.06834 3.44055 0
M  V30 10895 H 993.955 -1.93641 6.70186 0
M  V30 10896 H 989.852 -2.79768 5.81722 0
M  V30 10897 H 990.62 -2.34269 7.84258 0
M  V30 10898 N 993.283 -1.25346 -0.955304 0
M  V30 10899 C 994.213 -1.08152 -2.06943 0
M  V30 10900 C 995.194 0.00922598 -1.70097 0
M  V30 10901 O 996.379 -0.160181 -1.93538 0
M  V30 10902 C 993.509 -0.698745 -3.40198 0
M  V30 10903 C 992.463 -1.73965 -3.9105 0
M  V30 10904 C 991.789 -1.21158 -5.20792 0
M  V30 10905 C 993.089 -3.13829 -4.17503 0
M  V30 10906 H 994.783 -2.01345 -2.21586 0
M  V30 10907 H 992.329 -0.969459 -1.06478 0
M  V30 10908 H 994.282 -0.565394 -4.1759 0
M  V30 10909 H 993.006 0.268892 -3.25491 0
M  V30 10910 H 991.665 -1.86143 -3.15827 0
M  V30 10911 H 991.313 -0.234193 -5.02455 0
M  V30 10912 H 991.013 -1.90728 -5.55785 0
M  V30 10913 H 992.537 -1.09061 -6.00781 0
M  V30 10914 H 993.951 -3.04809 -4.85556 0
M  V30 10915 H 992.348 -3.80863 -4.63749 0
M  V30 10916 H 993.418 -3.6094 -3.23806 0
M  V30 10917 N 994.761 1.15782 -1.06922 0
M  V30 10918 C 995.991 1.90079 -0.809545 0
M  V30 10919 C 996.399 1.78028 0.640523 0
M  V30 10920 O 995.742 1.12692 1.45073 0
M  V30 10921 C 995.804 3.41179 -1.13302 0
M  V30 10922 C 995.468 3.77015 -2.5828 0
M  V30 10923 C 996.465 3.78403 -3.56521 0
M  V30 10924 C 994.15 4.07455 -2.93745 0
M  V30 10925 C 996.144 4.09729 -4.88264 0
M  V30 10926 C 993.831 4.38446 -4.25686 0
M  V30 10927 C 994.829 4.39564 -5.22755 0
M  V30 10928 O 994.517 4.69814 -6.52326 0
M  V30 10929 H 994.249 0.609397 -0.292595 0
M  V30 10930 H 996.803 1.47654 -1.42784 0
M  V30 10931 H 995.033 3.83982 -0.457676 0
M  V30 10932 H 996.722 3.96759 -0.856586 0
M  V30 10933 H 997.488 3.54991 -3.30464 0
M  V30 10934 H 993.367 4.05746 -2.1884 0
M  V30 10935 H 996.911 4.10516 -5.64023 0
M  V30 10936 H 992.808 4.61325 -4.51497 0
M  V30 10937 H 993.576 4.87598 -6.57412 0
M  V30 10938 N 996.239 0.8527 1.3254 0
M  V30 10939 C 997.65 0.510012 1.79599 0
M  V30 10940 C 998.001 -0.972002 1.70431 0
M  V30 10941 O 997.126 -1.7581 1.26173 0
M  V30 10942 C 997.721 0.918986 3.26098 0
M  V30 10943 C 996.28 0.628227 3.7112 0
M  V30 10944 C 995.427 1.11979 2.53685 0
M  V30 10945 H 998.378 1.04009 1.19866 0
M  V30 10946 H 998.399 0.234577 3.79776 0
M  V30 10947 H 997.911 1.99765 3.32739 0
M  V30 10948 H 996.012 -0.4398 3.69995 0
M  V30 10949 H 996.125 1.19315 4.64005 0
M  V30 10950 H 994.489 0.540133 2.48907 0
M  V30 10951 H 995.272 2.20552 2.63081 0
M  V30 10952 N 997.718 -1.45297 0.610449 0
M  V30 10953 C 998.995 -1.95562 0.0386189 0
M  V30 10954 C 999.375 -1.55284 -1.43004 0
M  V30 10955 O 998.723 -0.816785 -2.13403 0
M  V30 10956 C 998.933 -3.48176 0.239731 0
M  V30 10957 C 1000.28 -4.24425 0.122035 0
M  V30 10958 O 1001.3 -3.55794 0.170003 0
M  V30 10959 O 1000.16 -5.46499 0.00953695 0
M  V30 10960 H 997.258 -0.826296 -0.0341081 0
M  V30 10961 H 999.804 -1.55449 0.68071 0
M  V30 10962 H 998.576 -3.70471 1.25963 0
M  V30 10963 H 998.199 -3.95186 -0.437486 0
M  V30 10964 N 999.196 -0.349774 -1.5367 0
M  V30 10965 C 1000.44 0.245862 -2.00196 0
M  V30 10966 C 1000.76 1.51154 -1.24144 0
M  V30 10967 O 1001.96 2.18481 -1.61178 0
M  V30 10968 C 1000.42 0.488665 -3.56567 0
M  V30 10969 C 1000.03 -0.761475 -4.41481 0
M  V30 10970 C 1001.77 1.04282 -4.11492 0
M  V30 10971 C 999.679 -0.489128 -5.89374 0
M  V30 10972 H 998.609 0.0956493 -0.747909 0
M  V30 10973 H 1001.26 -0.466068 -1.77483 0
M  V30 10974 H 999.642 1.26145 -3.75371 0
M  V30 10975 H 1000.82 -1.53585 -4.34452 0
M  V30 10976 H 999.131 -1.23771 -3.9758 0
M  V30 10977 H 1001.73 1.26164 -5.19603 0
M  V30 10978 H 1002.07 2.00023 -3.65098 0
M  V30 10979 H 1002.6 0.330582 -3.96424 0
M  V30 10980 H 999.343 -1.41643 -6.40014 0
M  V30 10981 H 998.863 0.247039 -5.99291 0
M  V30 10982 H 1000.54 -0.1087 -6.46909 0
M  V30 10983 N 1000.67 1.57404 -0.0785433 0
M  V30 10984 C 1002.08 1.81118 0.45311 0
M  V30 10985 C 1002.44 0.992963 1.69218 0
M  V30 10986 O 1001.56 0.217448 2.15305 0
M  V30 10987 C 1002.16 3.28506 0.82882 0
M  V30 10988 C 1000.71 3.53042 1.3053 0
M  V30 10989 C 999.862 2.75739 0.29378 0
M  V30 10990 H 1002.81 1.55758 -0.304171 0
M  V30 10991 H 1002.83 3.40924 1.68971 0
M  V30 10992 H 1002.35 3.88031 -0.0731826 0
M  V30 10993 H 1000.45 2.98829 2.22558 0
M  V30 10994 H 1000.56 4.61724 1.27857 0
M  V30 10995 H 998.924 2.42703 0.772477 0
M  V30 10996 H 999.707 3.38005 -0.600613 0
M  V30 10997 N 1002.15 -0.195058 1.56388 0
M  V30 10998 C 1003.1 -1.24175 1.94549 0
M  V30 10999 C 1004.07 -1.45229 0.806089 0
M  V30 11000 O 1005.25 -1.58362 1.06425 0
M  V30 11001 C 1002.39 -2.58145 2.29031 0
M  V30 11002 C 1001.51 -2.44669 3.56035 0
M  V30 11003 C 1000.64 -3.71342 3.7984 0
M  V30 11004 C 999.681 -3.52699 5.0027 0
M  V30 11005 N 998.818 -4.71385 5.20328 0
M  V30 11006 H 1003.66 -0.909319 2.83788 0
M  V30 11007 H 1001.19 -0.437641 1.40439 0
M  V30 11008 H 1003.15 -3.36195 2.4704 0
M  V30 11009 H 1001.78 -2.8943 1.42933 0
M  V30 11010 H 1000.83 -1.57916 3.46073 0
M  V30 11011 H 1002.15 -2.26827 4.44242 0
M  V30 11012 H 1001.3 -4.57832 3.98088 0
M  V30 11013 H 1000.04 -3.92138 2.89964 0
M  V30 11014 H 999.045 -2.64594 4.81944 0
M  V30 11015 H 1000.27 -3.33349 5.91655 0
M  V30 11016 H 998.216 -4.92444 4.33399 0
M  V30 11017 H 998.133 -4.56368 6.02714 0
M  V30 11018 H 999.401 -5.59226 5.43035 0
M  V30 11019 N 1003.63 -1.50653 -0.462772 0
M  V30 11020 C 1004.54 -1.72923 -1.58539 0
M  V30 11021 C 1005.56 -0.612577 -1.6286 0
M  V30 11022 O 1006.73 -0.891885 -1.80575 0
M  V30 11023 C 1003.8 -1.82623 -2.94703 0
M  V30 11024 C 1002.86 -3.06392 -3.00704 0
M  V30 11025 C 1002.09 -3.15618 -4.30373 0
M  V30 11026 O 1002.31 -2.31423 -5.21344 0
M  V30 11027 O 1001.25 -4.0841 -4.42136 0
M  V30 11028 H 1005.07 -2.68103 -1.42669 0
M  V30 11029 H 1002.66 -1.34848 -0.643144 0
M  V30 11030 H 1004.54 -1.91134 -3.7556 0
M  V30 11031 H 1003.22 -0.906275 -3.10754 0
M  V30 11032 H 1002.12 -3.03375 -2.18894 0
M  V30 11033 H 1003.46 -3.97992 -2.89591 0
M  V30 11034 N 1005.11 0.71652 -1.4037 0
M  V30 11035 C 1006.02 1.86074 -1.42876 0
M  V30 11036 C 1007.03 1.71005 -0.321475 0
M  V30 11037 O 1008.21 1.93286 -0.565909 0
M  V30 11038 C 1005.28 3.21862 -1.28863 0
M  V30 11039 C 1004.34 3.49193 -2.49726 0
M  V30 11040 C 1003.57 4.78502 -2.36372 0
M  V30 11041 O 1003.79 5.53529 -1.37703 0
M  V30 11042 O 1002.73 5.06147 -3.25728 0
M  V30 11043 H 1006.55 1.86916 -2.39366 0
M  V30 11044 H 1004.14 0.866818 -1.21683 0
M  V30 11045 H 1006.02 4.02972 -1.23253 0
M  V30 11046 H 1004.69 3.2175 -0.354783 0
M  V30 11047 H 1003.6 2.68095 -2.60913 0
M  V30 11048 H 1004.93 3.54101 -3.41868 0
M  V30 11049 N 1006.59 1.25851 0.948643 0
M  V30 11050 C 1007.55 1.0683 2.0278 0
M  V30 11051 C 1008.55 0.0191016 1.60789 0
M  V30 11052 O 1009.74 0.261836 1.72221 0
M  V30 11053 C 1006.87 0.623318 3.35153 0
M  V30 11054 H 1008.06 2.02635 2.21086 0
M  V30 11055 H 1005.62 1.08343 1.12657 0
M  V30 11056 H 1006.35 -0.337053 3.22544 0
M  V30 11057 H 1006.14 1.38082 3.66982 0
M  V30 11058 H 1007.63 0.511854 4.14451 0
M  V30 11059 N 1008.06 -1.15214 1.07534 0
M  V30 11060 C 1009.31 -1.86043 0.799629 0
M  V30 11061 C 1009.64 -1.82435 -0.674356 0
M  V30 11062 O 1008.89 -1.24379 -1.51091 0
M  V30 11063 C 1009.19 -3.34623 1.25547 0
M  V30 11064 C 1008.86 -3.58425 2.73573 0
M  V30 11065 C 1007.52 -3.6463 3.14004 0
M  V30 11066 C 1009.87 -3.67977 3.6911 0
M  V30 11067 C 1007.2 -3.779 4.48786 0
M  V30 11068 C 1009.55 -3.82771 5.03656 0
M  V30 11069 C 1008.22 -3.87222 5.43705 0
M  V30 11070 H 1007.49 -0.680781 0.292605 0
M  V30 11071 H 1010.13 -1.36149 1.34669 0
M  V30 11072 H 1008.44 -3.86737 0.627828 0
M  V30 11073 H 1010.14 -3.87836 1.01901 0
M  V30 11074 H 1006.73 -3.54238 2.41275 0
M  V30 11075 H 1010.91 -3.62482 3.39 0
M  V30 11076 H 1006.17 -3.79604 4.79281 0
M  V30 11077 H 1010.34 -3.89104 5.77556 0
M  V30 11078 H 1007.97 -3.97256 6.48145 0
M  V30 11079 N 1009.54 -0.859717 -1.32086 0
M  V30 11080 C 1010.79 -0.464662 -1.96686 0
M  V30 11081 C 1011.11 0.98412 -1.68345 0
M  V30 11082 O 1010.38 1.68847 -0.993361 0
M  V30 11083 H 1008.96 -0.168838 -0.727669 0
M  V30 11084 H 1011.62 -1.09726 -1.61079 0
M  V30 11085 H 1010.72 -0.613904 -3.06003 0
M  V30 11086 N 1011.02 1.44971 -0.618145 0
M  V30 11087 C 1011.97 2.30606 0.09449 0
M  V30 11088 C 1012.94 1.42725 0.849633 0
M  V30 11089 O 1014.12 1.71643 0.833266 0
M  V30 11090 C 1011.26 3.27803 1.07886 0
M  V30 11091 C 1010.38 4.30787 0.323488 0
M  V30 11092 C 1009.51 5.15085 1.29851 0
M  V30 11093 C 1008.55 6.09788 0.531561 0
M  V30 11094 N 1007.69 6.86829 1.4564 0
M  V30 11095 H 1012.53 2.91008 -0.641738 0
M  V30 11096 H 1010.06 1.43391 -0.328259 0
M  V30 11097 H 1012.02 3.82631 1.66281 0
M  V30 11098 H 1010.65 2.69131 1.78237 0
M  V30 11099 H 1009.7 3.78536 -0.376164 0
M  V30 11100 H 1011.02 4.98044 -0.274443 0
M  V30 11101 H 1010.17 5.74365 1.95421 0
M  V30 11102 H 1008.91 4.4787 1.93037 0
M  V30 11103 H 1007.91 5.49628 -0.137702 0
M  V30 11104 H 1009.14 6.79033 -0.0953993 0
M  V30 11105 H 1007.08 6.22295 2.07571 0
M  V30 11106 H 1007 7.50477 0.912167 0
M  V30 11107 H 1008.27 7.50642 2.10134 0
M  V30 11108 N 1012.5 0.357919 1.53482 0
M  V30 11109 C 1013.73 -0.234799 2.05261 0
M  V30 11110 C 1014.14 -1.43618 1.23169 0
M  V30 11111 O 1013.48 -1.81801 0.263435 0
M  V30 11112 C 1013.54 -0.699748 3.52624 0
M  V30 11113 C 1013.21 0.383905 4.55385 0
M  V30 11114 C 1014.2 1.23129 5.05109 0
M  V30 11115 C 1011.89 0.541953 4.99368 0
M  V30 11116 C 1013.88 2.22214 5.97411 0
M  V30 11117 C 1011.57 1.53618 5.91477 0
M  V30 11118 C 1012.57 2.37471 6.40388 0
M  V30 11119 O 1012.25 3.35199 7.30682 0
M  V30 11120 H 1011.99 -0.0465364 0.674396 0
M  V30 11121 H 1014.54 0.512355 1.98907 0
M  V30 11122 H 1012.77 -1.49838 3.5649 0
M  V30 11123 H 1014.46 -1.21461 3.87301 0
M  V30 11124 H 1015.23 1.12035 4.71883 0
M  V30 11125 H 1011.1 -0.100929 4.6089 0
M  V30 11126 H 1014.65 2.87702 6.35511 0
M  V30 11127 H 1010.55 1.64763 6.24118 0
M  V30 11128 H 1011.31 3.30838 7.48658 0
M  V30 11129 N 1013.98 -1.5736 0.0868897 0
M  V30 11130 C 1015.22 -1.95933 -0.582212 0
M  V30 11131 C 1015.58 -0.967238 -1.65857 0
M  V30 11132 O 1016.78 -1.24116 -2.3843 0
M  V30 11133 C 1015.05 -3.39049 -1.1305 0
M  V30 11134 S 1016.61 -3.99612 -1.81262 0
M  V30 11135 H 1013.43 -0.685082 -0.190221 0
M  V30 11136 H 1016.03 -1.94808 0.164341 0
M  V30 11137 H 1014.74 -4.09026 -0.335492 0
M  V30 11138 H 1014.27 -3.43752 -1.91307 0
M  V30 11139 H 1016.28 -3.87747 -3.09624 0
M  V30 11140 N 1015.45 0.186762 -1.56489 0
M  V30 11141 C 1016.87 0.537933 -1.50261 0
M  V30 11142 C 1017.07 1.85435 -0.788414 0
M  V30 11143 O 1016.13 2.50168 -0.342377 0
M  V30 11144 C 1017.44 0.584965 -2.94955 0
M  V30 11145 C 1018.99 0.673228 -3.05674 0
M  V30 11146 C 1019.46 0.751294 -4.51796 0
M  V30 11147 N 1020.95 0.814599 -4.55981 0
M  V30 11148 C 1021.69 0.895313 -5.66367 0
M  V30 11149 N 1021.18 0.937814 -6.86423 0
M  V30 11150 N 1022.98 0.933145 -5.543 0
M  V30 11151 H 1015.13 -0.676636 -2.01334 0
M  V30 11152 H 1017.39 -0.242079 -0.916571 0
M  V30 11153 H 1017.1 -0.313361 -3.50301 0
M  V30 11154 H 1016.97 1.4368 -3.48763 0
M  V30 11155 H 1019.36 1.56198 -2.50372 0
M  V30 11156 H 1019.44 -0.204976 -2.54977 0
M  V30 11157 H 1019.08 -0.133143 -5.07725 0
M  V30 11158 H 1019.01 1.64542 -5.00233 0
M  V30 11159 H 1021.5 0.790662 -3.69536 0
M  V30 11160 H 1021.82 1.00015 -7.66301 0
M  V30 11161 H 1020.16 0.906351 -6.89065 0
M  V30 11162 H 1023.35 0.896836 -4.59428 0
M  V30 11163 H 1023.53 0.992588 -6.40353 0
M  V30 11164 N 1016.93 1.50896 0.454776 0
M  V30 11165 C 1018.34 1.55372 1.0352 0
M  V30 11166 C 1018.69 0.366822 1.9274 0
M  V30 11167 O 1017.82 -0.518444 2.10098 0
M  V30 11168 C 1018.41 2.81574 1.88418 0
M  V30 11169 C 1016.97 2.88679 2.4154 0
M  V30 11170 C 1016.12 2.49847 1.20298 0
M  V30 11171 H 1019.07 1.56924 0.236729 0
M  V30 11172 H 1019.09 2.64352 2.73676 0
M  V30 11173 H 1018.6 3.67941 1.23455 0
M  V30 11174 H 1016.71 2.06702 3.10008 0
M  V30 11175 H 1016.82 3.91944 2.7553 0
M  V30 11176 H 1015.18 2.02651 1.54288 0
M  V30 11177 H 1015.97 3.3854 0.569723 0
M  V30 11178 N 1018.41 -0.709066 1.40748 0
M  V30 11179 C 1019.32 -1.85314 1.43861 0
M  V30 11180 C 1020.34 -1.70832 0.330539 0
M  V30 11181 O 1021.51 -1.92983 0.576152 0
M  V30 11182 C 1018.58 -3.21174 1.30568 0
M  V30 11183 C 1017.64 -3.47863 2.51574 0
M  V30 11184 C 1016.87 -4.77241 2.38906 0
M  V30 11185 O 1017.09 -5.52791 1.40636 0
M  V30 11186 O 1016.03 -5.04413 3.28407 0
M  V30 11187 H 1019.85 -1.85644 2.40354 0
M  V30 11188 H 1017.44 -0.860352 1.2214 0
M  V30 11189 H 1019.32 -4.02313 1.25388 0
M  V30 11190 H 1018 -3.21557 0.371841 0
M  V30 11191 H 1016.9 -2.66708 2.62331 0
M  V30 11192 H 1018.24 -3.52283 3.43741 0
M  V30 11193 N 1019.89 -1.26353 -0.941956 0
M  V30 11194 C 1021.11 -1.14731 -1.72776 0
M  V30 11195 C 1021.54 0.293766 -1.85792 0
M  V30 11196 O 1020.9 1.21284 -1.34759 0
M  V30 11197 C 1020.95 -1.82041 -3.11277 0
M  V30 11198 O 1020.05 -1.10867 -3.97218 0
M  V30 11199 H 1019.39 -0.399823 -0.53013 0
M  V30 11200 H 1021.92 -1.67157 -1.17981 0
M  V30 11201 H 1021.93 -1.88834 -3.61671 0
M  V30 11202 H 1020.61 -2.86879 -3.0112 0
M  V30 11203 H 1019.18 -1.12044 -3.55669 0
M  V30 11204 N 1021.37 1.14642 -1.08144 0
M  V30 11205 C 1022.3 2.19283 -0.6669 0
M  V30 11206 C 1023.31 1.60292 0.284668 0
M  V30 11207 O 1024.5 1.78352 0.0727383 0
M  V30 11208 C 1021.6 3.38877 0.0398572 0
M  V30 11209 C 1020.77 4.274 -0.929929 0
M  V30 11210 C 1019.83 5.25562 -0.258991 0
M  V30 11211 O 1018.86 5.61999 -0.902563 0
M  V30 11212 N 1020.06 5.71958 0.992177 0
M  V30 11213 H 1022.83 2.55464 -1.5671 0
M  V30 11214 H 1020.39 1.29836 -0.96717 0
M  V30 11215 H 1022.38 4.01605 0.499583 0
M  V30 11216 H 1020.95 3.01043 0.842118 0
M  V30 11217 H 1020.17 3.61649 -1.56857 0
M  V30 11218 H 1021.46 4.83411 -1.58717 0
M  V30 11219 H 1020.86 5.44481 1.53484 0
M  V30 11220 H 1019.41 6.36687 1.39544 0
M  V30 11221 N 1022.85 0.866709 1.31628 0
M  V30 11222 C 1023.76 0.323408 2.3236 0
M  V30 11223 C 1024.77 -0.564995 1.64572 0
M  V30 11224 O 1025.95 -0.462489 1.96018 0
M  V30 11225 C 1023.01 -0.469045 3.43513 0
M  V30 11226 C 1022.07 0.446928 4.26967 0
M  V30 11227 C 1021.31 -0.307799 5.32812 0
M  V30 11228 O 1021.53 -1.5363 5.49321 0
M  V30 11229 O 1020.46 0.332653 6.0098 0
M  V30 11230 H 1024.29 1.15827 2.80745 0
M  V30 11231 H 1021.87 0.629987 1.35468 0
M  V30 11232 H 1023.76 -0.918405 4.1127 0
M  V30 11233 H 1022.43 -1.28051 2.97296 0
M  V30 11234 H 1021.34 0.944719 3.61975 0
M  V30 11235 H 1022.67 1.2239 4.76741 0
M  V30 11236 N 1024.32 -1.44642 0.625825 0
M  V30 11237 C 1025.27 -2.27762 -0.104042 0
M  V30 11238 C 1026.26 -1.38364 -0.821232 0
M  V30 11239 O 1027.45 -1.62214 -0.708213 0
M  V30 11240 C 1024.58 -3.25585 -1.08853 0
M  V30 11241 C 1023.66 -4.22472 -0.371241 0
M  V30 11242 N 1024.06 -5.02262 0.597226 0
M  V30 11243 C 1022.35 -4.4172 -0.616392 0
M  V30 11244 C 1023.05 -5.72678 1.02053 0
M  V30 11245 N 1022.03 -5.42404 0.360423 0
M  V30 11246 H 1025.83 -2.86858 0.639517 0
M  V30 11247 H 1023.35 -1.56015 0.450911 0
M  V30 11248 H 1025.34 -3.83885 -1.62597 0
M  V30 11249 H 1024 -2.68051 -1.83245 0
M  V30 11250 H 1025.01 -5.08643 0.974803 0
M  V30 11251 H 1021.69 -3.9529 -1.34359 0
M  V30 11252 H 1023.08 -6.46772 1.82033 0
M  V30 11253 N 1025.8 -0.366053 -1.5329 0
M  V30 11254 C 1027.21 0.113056 -1.86357 0
M  V30 11255 C 1027.56 1.48123 -1.28662 0
M  V30 11256 O 1026.69 2.07658 -0.608849 0
M  V30 11257 C 1027.28 0.211923 -3.38137 0
M  V30 11258 C 1025.84 0.635289 -3.71 0
M  V30 11259 C 1024.99 -0.217203 -2.76448 0
M  V30 11260 H 1027.94 -0.584829 -1.47531 0
M  V30 11261 H 1027.96 1.0354 -3.66142 0
M  V30 11262 H 1027.47 -0.783994 -3.80099 0
M  V30 11263 H 1025.57 1.63942 -3.34595 0
M  V30 11264 H 1025.69 0.409571 -4.77346 0
M  V30 11265 H 1024.05 0.313988 -2.52757 0
M  V30 11266 H 1024.83 -1.21067 -3.21244 0
M  V30 11267 N 1027.28 1.57312 -0.0952337 0
M  V30 11268 C 1028.19 2.17556 0.877877 0
M  V30 11269 C 1029.21 1.14505 1.31014 0
M  V30 11270 O 1030.38 1.46876 1.37802 0
M  V30 11271 C 1027.45 2.74413 2.11892 0
M  V30 11272 C 1026.51 3.92419 1.74085 0
M  V30 11273 C 1025.74 4.46556 2.92273 0
M  V30 11274 O 1025.96 3.99631 4.07002 0
M  V30 11275 O 1024.9 5.37576 2.70732 0
M  V30 11276 H 1028.72 3.01116 0.395312 0
M  V30 11277 H 1026.31 1.48841 0.129123 0
M  V30 11278 H 1028.19 3.10754 2.84622 0
M  V30 11279 H 1026.87 1.93899 2.59201 0
M  V30 11280 H 1025.77 3.6089 0.985346 0
M  V30 11281 H 1027.11 4.74298 1.31539 0
M  V30 11282 N 1028.76 -0.17846 1.56586 0
M  V30 11283 C 1029.72 -1.20479 1.94981 0
M  V30 11284 C 1030.72 -1.37561 0.832677 0
M  V30 11285 O 1031.91 -1.35089 1.09984 0
M  V30 11286 C 1029.04 -2.57117 2.23839 0
M  V30 11287 H 1030.24 -0.876173 2.86816 0
M  V30 11288 H 1027.79 -0.420635 1.50534 0
M  V30 11289 H 1028.52 -2.95005 1.34695 0
M  V30 11290 H 1028.31 -2.46086 3.05261 0
M  V30 11291 H 1029.8 -3.31096 2.5449 0
M  V30 11292 N 1030.24 -1.51135 -0.446768 0
M  V30 11293 C 1031.51 -1.5387 -1.20762 0
M  V30 11294 C 1031.89 -0.297446 -2.08994 0
M  V30 11295 O 1031.24 0.717975 -2.16927 0
M  V30 11296 C 1031.45 -2.84767 -2.01764 0
M  V30 11297 C 1032.8 -3.3636 -2.59128 0
M  V30 11298 O 1033.82 -2.86254 -2.11984 0
M  V30 11299 O 1032.68 -4.23765 -3.45088 0
M  V30 11300 H 1029.78 -0.618228 -0.549293 0
M  V30 11301 H 1032.32 -1.63442 -0.456605 0
M  V30 11302 H 1031.09 -3.6657 -1.36901 0
M  V30 11303 H 1030.72 -2.78313 -2.8395 0
M  V30 11304 N 1031.71 0.701592 -1.41122 0
M  V30 11305 C 1033.12 1.28129 -1.35793 0
M  V30 11306 C 1033.48 1.96163 -0.0381185 0
M  V30 11307 O 1032.6 1.98416 0.863723 0
M  V30 11308 C 1033.2 2.33005 -2.45955 0
M  V30 11309 C 1031.75 2.86566 -2.44043 0
M  V30 11310 C 1030.9 1.60526 -2.26112 0
M  V30 11311 H 1033.85 0.496756 -1.50725 0
M  V30 11312 H 1033.87 3.14163 -2.14667 0
M  V30 11313 H 1033.39 1.8346 -3.42 0
M  V30 11314 H 1031.49 3.40304 -1.51737 0
M  V30 11315 H 1031.6 3.37406 -3.40138 0
M  V30 11316 H 1029.96 1.86113 -1.7388 0
M  V30 11317 H 1030.75 1.12985 -3.24175 0
M  V30 11318 N 1033.19 1.2685 0.935242 0
M  V30 11319 C 1034.44 1.12522 1.67878 0
M  V30 11320 C 1034.76 -0.330894 1.92172 0
M  V30 11321 O 1034.03 -1.23259 1.52263 0
M  V30 11322 H 1032.61 0.413418 0.622169 0
M  V30 11323 H 1035.27 1.59267 1.12339 0
M  V30 11324 H 1034.37 1.64853 2.65009 0
M  V30 11325 N 1034.67 -1.14067 1.0875 0
M  V30 11326 C 1035.9 -1.89582 0.841038 0
M  V30 11327 C 1036.32 -1.78226 -0.601436 0
M  V30 11328 O 1035.68 -1.12491 -1.42181 0
M  V30 11329 C 1035.73 -3.37415 1.27213 0
M  V30 11330 O 1034.83 -4.10191 0.426246 0
M  V30 11331 H 1034.17 -0.589716 0.305173 0
M  V30 11332 H 1036.7 -1.44364 1.44984 0
M  V30 11333 H 1036.71 -3.88234 1.25451 0
M  V30 11334 H 1035.39 -3.44999 2.32268 0
M  V30 11335 H 1033.96 -3.69429 0.507585 0
M  V30 11336 N 1036.15 -0.873678 -1.31166 0
M  V30 11337 C 1037.11 -0.337069 -2.26708 0
M  V30 11338 C 1038.11 0.51406 -1.52362 0
M  V30 11339 O 1039.3 0.322834 -1.71182 0
M  V30 11340 C 1036.43 0.520897 -3.36897 0
M  V30 11341 H 1037.63 -1.18056 -2.75686 0
M  V30 11342 H 1035.18 -0.649577 -1.42163 0
M  V30 11343 H 1035.91 1.38543 -2.93217 0
M  V30 11344 H 1035.7 -0.0886015 -3.92 0
M  V30 11345 H 1037.19 0.888497 -4.08039 0
M  V30 11346 N 1037.63 1.44308 -0.633487 0
M  V30 11347 C 1038.59 2.2912 0.060376 0
M  V30 11348 C 1039.59 1.41166 0.769992 0
M  V30 11349 O 1040.78 1.63012 0.614224 0
M  V30 11350 C 1037.91 3.22798 1.0961 0
M  V30 11351 H 1039.1 2.91958 -0.685617 0
M  V30 11352 H 1036.66 1.51259 -0.393738 0
M  V30 11353 H 1037.39 2.64815 1.87199 0
M  V30 11354 H 1037.18 3.87618 0.591161 0
M  V30 11355 H 1038.67 3.86504 1.58127 0
M  V30 11356 N 1039.1 0.374177 1.53094 0
M  V30 11357 C 1040.52 -0.103172 1.86415 0
M  V30 11358 C 1040.87 -1.47439 1.29446 0
M  V30 11359 O 1039.99 -2.07333 0.619853 0
M  V30 11360 C 1040.59 -0.193988 3.38244 0
M  V30 11361 C 1039.15 -0.615605 3.71332 0
M  V30 11362 C 1038.29 0.23186 2.76329 0
M  V30 11363 H 1041.24 0.592644 1.47219 0
M  V30 11364 H 1041.26 -1.01597 3.66686 0
M  V30 11365 H 1040.78 0.80414 3.79678 0
M  V30 11366 H 1038.88 -1.62165 3.3546 0
M  V30 11367 H 1038.99 -0.38425 4.77557 0
M  V30 11368 H 1037.35 -0.300579 2.5292 0
M  V30 11369 H 1038.14 1.22769 3.20597 0
M  V30 11370 N 1040.58 -1.57259 0.103575 0
M  V30 11371 C 1041.81 -1.98711 -0.565454 0
M  V30 11372 C 1042.22 -0.981759 -1.61735 0
M  V30 11373 O 1041.56 0.0357019 -1.83665 0
M  V30 11374 C 1041.63 -3.36552 -1.26384 0
M  V30 11375 C 1041.29 -4.55566 -0.361714 0
M  V30 11376 C 1042.29 -5.18408 0.393539 0
M  V30 11377 C 1039.97 -5.01534 -0.277292 0
M  V30 11378 C 1041.97 -6.25594 1.2211 0
M  V30 11379 C 1039.65 -6.08584 0.553919 0
M  V30 11380 C 1040.65 -6.7048 1.30176 0
M  V30 11381 O 1040.34 -7.75464 2.1192 0
M  V30 11382 H 1040.07 -0.657853 -0.155582 0
M  V30 11383 H 1042.62 -2.04591 0.182089 0
M  V30 11384 H 1040.85 -3.2738 -2.05813 0
M  V30 11385 H 1042.54 -3.62395 -1.82824 0
M  V30 11386 H 1043.31 -4.8382 0.338098 0
M  V30 11387 H 1039.19 -4.53114 -0.849047 0
M  V30 11388 H 1042.73 -6.73836 1.80531 0
M  V30 11389 H 1038.63 -6.42604 0.610809 0
M  V30 11390 H 1039.4 -7.92491 2.04694 0
M  V30 11391 N 1042.06 0.170153 -1.56679 0
M  V30 11392 C 1042.99 1.21285 -1.9953 0
M  V30 11393 C 1043.97 1.46104 -0.871071 0
M  V30 11394 O 1045.16 1.57419 -1.13724 0
M  V30 11395 C 1042.29 2.5515 -2.35618 0
M  V30 11396 C 1041.24 2.44898 -3.51011 0
M  V30 11397 C 1040.57 3.83263 -3.72845 0
M  V30 11398 C 1041.87 1.95271 -4.84424 0
M  V30 11399 H 1043.56 0.856646 -2.86883 0
M  V30 11400 H 1041.11 0.410634 -1.38021 0
M  V30 11401 H 1043.06 3.28299 -2.64193 0
M  V30 11402 H 1041.78 2.92561 -1.45175 0
M  V30 11403 H 1040.44 1.74203 -3.22566 0
M  V30 11404 H 1040.09 4.18069 -2.79691 0
M  V30 11405 H 1039.79 3.77272 -4.50488 0
M  V30 11406 H 1041.31 4.57996 -4.03822 0
M  V30 11407 H 1042.73 2.58195 -5.11867 0
M  V30 11408 H 1041.13 2.00225 -5.65712 0
M  V30 11409 H 1042.2 0.90709 -4.7634 0
M  V30 11410 N 1043.54 1.5137 0.438746 0
M  V30 11411 C 1044.49 1.72582 1.53245 0
M  V30 11412 C 1045.46 0.567488 1.56105 0
M  V30 11413 O 1046.64 0.80176 1.73137 0
M  V30 11414 C 1043.78 1.85551 2.90972 0
M  V30 11415 C 1042.89 3.13094 2.97652 0
M  V30 11416 C 1042.03 3.16666 4.26493 0
M  V30 11417 C 1041.07 4.38529 4.27035 0
M  V30 11418 N 1040.2 4.39659 5.47398 0
M  V30 11419 H 1045.04 2.65941 1.3446 0
M  V30 11420 H 1042.58 1.31801 0.653206 0
M  V30 11421 H 1044.54 1.91053 3.70884 0
M  V30 11422 H 1043.17 0.956025 3.08318 0
M  V30 11423 H 1042.22 3.16909 2.10412 0
M  V30 11424 H 1043.53 4.03009 2.93914 0
M  V30 11425 H 1042.69 3.21075 5.14777 0
M  V30 11426 H 1041.43 2.24637 4.32885 0
M  V30 11427 H 1040.43 4.34297 3.37144 0
M  V30 11428 H 1041.66 5.31821 4.22307 0
M  V30 11429 H 1039.6 3.50499 5.54514 0
M  V30 11430 H 1039.52 5.23382 5.45534 0
M  V30 11431 H 1040.79 4.48259 6.37718 0
M  V30 11432 N 1045.02 -0.694098 1.41492 0
M  V30 11433 C 1046.24 -1.48286 1.44288 0
M  V30 11434 C 1046.66 -1.88737 0.0485783 0
M  V30 11435 O 1046.02 -1.56881 -0.932449 0
M  V30 11436 C 1046.07 -2.74446 2.3529 0
M  V30 11437 O 1045.79 -2.35698 3.69294 0
M  V30 11438 C 1047.29 -3.68175 2.46905 0
M  V30 11439 H 1044.51 -0.45692 0.491391 0
M  V30 11440 H 1047.05 -0.854477 1.85793 0
M  V30 11441 H 1045.21 -3.33518 1.9709 0
M  V30 11442 H 1045.62 -3.17029 4.17843 0
M  V30 11443 H 1047.1 -4.53476 3.14743 0
M  V30 11444 H 1047.57 -4.12763 1.50078 0
M  V30 11445 H 1048.18 -3.15006 2.85747 0
M  V30 11446 N 1046.49 -1.27344 -0.928501 0
M  V30 11447 C 1047.44 -1.10001 -2.029 0
M  V30 11448 C 1048.41 -0.00131084 -1.661 0
M  V30 11449 O 1049.6 -0.163485 -1.90098 0
M  V30 11450 C 1046.74 -0.7524 -3.36798 0
M  V30 11451 C 1045.85 -1.92865 -3.86558 0
M  V30 11452 C 1044.98 -1.52299 -5.08899 0
M  V30 11453 C 1044.02 -2.66677 -5.50953 0
M  V30 11454 N 1043.16 -2.26706 -6.64491 0
M  V30 11455 H 1048 -2.0417 -2.17068 0
M  V30 11456 H 1045.54 -1.01637 -1.0634 0
M  V30 11457 H 1047.5 -0.531687 -4.13798 0
M  V30 11458 H 1046.13 0.15234 -3.2244 0
M  V30 11459 H 1045.18 -2.26192 -3.05845 0
M  V30 11460 H 1046.49 -2.78668 -4.13698 0
M  V30 11461 H 1045.64 -1.26348 -5.93398 0
M  V30 11462 H 1044.38 -0.636042 -4.83535 0
M  V30 11463 H 1043.39 -2.93344 -4.65004 0
M  V30 11464 H 1044.61 -3.55992 -5.78313 0
M  V30 11465 H 1042.56 -1.40462 -6.40786 0
M  V30 11466 H 1042.48 -3.06049 -6.91281 0
M  V30 11467 H 1043.74 -2.04 -7.52333 0
M  V30 11468 N 1047.97 1.13488 -1.09353 0
M  V30 11469 C 1049.22 1.84748 -0.829126 0
M  V30 11470 C 1049.55 1.83485 0.645247 0
M  V30 11471 O 1048.8 1.26767 1.49093 0
M  V30 11472 C 1049.1 3.32584 -1.30854 0
M  V30 11473 C 1048.77 3.54028 -2.7924 0
M  V30 11474 C 1047.43 3.59588 -3.19765 0
M  V30 11475 C 1049.78 3.62058 -3.74918 0
M  V30 11476 C 1047.11 3.70712 -4.54741 0
M  V30 11477 C 1049.46 3.7471 -5.09682 0
M  V30 11478 C 1048.13 3.78523 -5.49797 0
M  V30 11479 H 1047.4 0.67604 -0.303399 0
M  V30 11480 H 1050.04 1.33989 -1.36818 0
M  V30 11481 H 1048.35 3.85689 -0.689275 0
M  V30 11482 H 1050.04 3.86166 -1.08059 0
M  V30 11483 H 1046.63 3.50354 -2.4688 0
M  V30 11484 H 1050.82 3.57043 -3.44723 0
M  V30 11485 H 1046.07 3.71931 -4.8526 0
M  V30 11486 H 1050.25 3.79866 -5.83674 0
M  V30 11487 H 1047.88 3.86895 -6.54382 0
M  V30 11488 N 1049.45 0.880621 1.30701 0
M  V30 11489 C 1050.7 0.492957 1.95583 0
M  V30 11490 C 1051.01 -0.961863 1.70316 0
M  V30 11491 O 1052.22 -1.45617 2.29146 0
M  V30 11492 C 1050.68 0.830656 3.50183 0
M  V30 11493 C 1050.28 2.30295 3.84276 0
M  V30 11494 C 1052.03 0.511979 4.21401 0
M  V30 11495 C 1049.93 2.58251 5.32034 0
M  V30 11496 H 1048.86 0.18062 0.732047 0
M  V30 11497 H 1051.52 1.075 1.48715 0
M  V30 11498 H 1049.9 0.177752 3.95601 0
M  V30 11499 H 1051.07 2.99981 3.49783 0
M  V30 11500 H 1049.39 2.58873 3.2615 0
M  V30 11501 H 1051.98 0.697935 5.30125 0
M  V30 11502 H 1052.33 -0.548327 4.12673 0
M  V30 11503 H 1052.86 1.12189 3.81652 0
M  V30 11504 H 1049.6 3.63005 5.45809 0
M  V30 11505 H 1049.12 1.9317 5.67843 0
M  V30 11506 H 1050.8 2.43527 5.99419 0
M  V30 11507 N 1050.93 -1.4397 0.641131 0
M  V30 11508 C 1052.17 -2.03826 0.153071 0
M  V30 11509 C 1052.53 -1.4941 -1.20585 0
M  V30 11510 O 1053.73 -2.00832 -1.78661 0
M  V30 11511 C 1052.01 -3.57085 0.149914 0
M  V30 11512 S 1053.56 -4.37956 -0.272065 0
M  V30 11513 H 1050.38 -0.70793 0.0659981 0
M  V30 11514 H 1052.98 -1.76211 0.846761 0
M  V30 11515 H 1051.69 -3.94194 1.14188 0
M  V30 11516 H 1051.22 -3.89326 -0.564703 0
M  V30 11517 H 1053.23 -4.72542 -1.5139 0
M  V30 11518 N 1052.41 -0.382291 -1.52893 0
M  V30 11519 C 1053.65 0.202433 -2.01787 0
M  V30 11520 C 1053.99 1.47044 -1.26853 0
M  V30 11521 O 1053.26 1.91007 -0.366969 0
M  V30 11522 C 1053.54 0.477471 -3.5692 0
M  V30 11523 C 1053.4 -0.805339 -4.42532 0
M  V30 11524 C 1054.72 1.27106 -4.21346 0
M  V30 11525 H 1051.84 0.0720998 -0.733465 0
M  V30 11526 H 1054.48 -0.510478 -1.83014 0
M  V30 11527 H 1052.63 1.08478 -3.73048 0
M  V30 11528 H 1054.3 -1.4424 -4.3817 0
M  V30 11529 H 1052.54 -1.42216 -4.09826 0
M  V30 11530 H 1053.21 -0.567635 -5.49074 0
M  V30 11531 H 1055.69 0.757161 -4.09153 0
M  V30 11532 H 1054.57 1.43225 -5.29885 0
M  V30 11533 H 1054.83 2.28431 -3.78513 0
M  V30 11534 N 1053.89 1.57202 -0.111913 0
M  V30 11535 C 1055.11 1.99297 0.555713 0
M  V30 11536 C 1055.53 0.991444 1.60673 0
M  V30 11537 O 1054.89 -0.0166672 1.82492 0
M  V30 11538 C 1054.94 3.41413 1.18826 0
M  V30 11539 O 1054.66 4.37733 0.179261 0
M  V30 11540 C 1056.16 3.98602 1.93989 0
M  V30 11541 H 1053.38 0.654543 0.147695 0
M  V30 11542 H 1055.92 2.03557 -0.196163 0
M  V30 11543 H 1054.08 3.38115 1.89096 0
M  V30 11544 H 1054.49 5.20606 0.637935 0
M  V30 11545 H 1055.97 5.00143 2.33584 0
M  V30 11546 H 1056.44 3.37349 2.81233 0
M  V30 11547 H 1057.05 4.05424 1.28497 0
M  V30 11548 N 1055.36 -0.161842 1.56767 0
M  V30 11549 C 1056.77 -0.723385 1.72116 0
M  V30 11550 C 1057.13 -1.82355 0.723961 0
M  V30 11551 O 1056.25 -2.16107 -0.112643 0
M  V30 11552 C 1056.85 -1.31895 3.12072 0
M  V30 11553 C 1055.4 -1.82722 3.29074 0
M  V30 11554 C 1054.55 -0.709863 2.6806 0
M  V30 11555 H 1057.5 0.0636647 1.58572 0
M  V30 11556 H 1057.52 -2.18871 3.11249 0
M  V30 11557 H 1057.04 -0.51801 3.84627 0
M  V30 11558 H 1055.14 -2.6543 2.61491 0
M  V30 11559 H 1055.25 -1.96614 4.36898 0
M  V30 11560 H 1053.61 -1.13273 2.28126 0
M  V30 11561 H 1054.4 0.0793884 3.43208 0
M  V30 11562 N 1056.84 -1.516 -0.430713 0
M  V30 11563 C 1058.07 -1.68414 -1.20185 0
M  V30 11564 C 1058.48 -0.384297 -1.84847 0
M  V30 11565 O 1057.84 0.637808 -1.70992 0
M  V30 11566 C 1057.89 -2.80451 -2.28099 0
M  V30 11567 O 1057.61 -4.05399 -1.66081 0
M  V30 11568 C 1059.11 -3.0859 -3.18256 0
M  V30 11569 H 1056.33 -0.564982 -0.361989 0
M  V30 11570 H 1058.88 -1.9805 -0.50954 0
M  V30 11571 H 1057.03 -2.53395 -2.93036 0
M  V30 11572 H 1057.45 -4.67671 -2.37453 0
M  V30 11573 H 1058.92 -3.9055 -3.90096 0
M  V30 11574 H 1059.4 -2.21264 -3.79393 0
M  V30 11575 H 1060 -3.37331 -2.59014 0
M  V30 11576 N 1058.32 0.686584 -1.41858 0
M  V30 11577 C 1059.55 1.47519 -1.45072 0
M  V30 11578 C 1059.96 1.88709 -0.0585868 0
M  V30 11579 O 1059.32 1.57373 0.924116 0
M  V30 11580 C 1059.37 2.73195 -2.36742 0
M  V30 11581 O 1059.09 2.33736 -3.70539 0
M  V30 11582 C 1060.59 3.66861 -2.48854 0
M  V30 11583 H 1057.81 0.454307 -0.493808 0
M  V30 11584 H 1060.36 0.844612 -1.86243 0
M  V30 11585 H 1058.51 3.32468 -1.98856 0
M  V30 11586 H 1058.93 3.14809 -4.19518 0
M  V30 11587 H 1060.4 4.51801 -3.17143 0
M  V30 11588 H 1060.88 4.11961 -1.52265 0
M  V30 11589 H 1061.48 3.13486 -2.87414 0
M  V30 11590 N 1059.8 1.27835 0.921735 0
M  V30 11591 C 1061.04 1.15766 1.68457 0
M  V30 11592 C 1061.4 -0.290542 1.89789 0
M  V30 11593 O 1062.6 -0.53378 2.63447 0
M  V30 11594 C 1060.87 1.92591 3.0107 0
M  V30 11595 S 1062.43 1.96804 3.92191 0
M  V30 11596 H 1059.25 0.413169 0.578629 0
M  V30 11597 H 1061.85 1.61826 1.09693 0
M  V30 11598 H 1060.56 2.96991 2.8324 0
M  V30 11599 H 1060.09 1.47049 3.64884 0
M  V30 11600 H 1062.1 1.06877 4.84553 0
M  V30 11601 N 1061.28 -1.12907 1.09954 0
M  V30 11602 C 1062.5 -1.88679 0.861099 0
M  V30 11603 C 1062.93 -1.78853 -0.582499 0
M  V30 11604 O 1062.28 -1.13992 -1.4098 0
M  V30 11605 C 1062.33 -3.36047 1.30785 0
M  V30 11606 O 1061.44 -4.09716 0.469728 0
M  V30 11607 H 1060.78 -0.586447 0.31141 0
M  V30 11608 H 1063.31 -1.42818 1.46507 0
M  V30 11609 H 1063.32 -3.86882 1.29562 0
M  V30 11610 H 1061.99 -3.42516 2.35914 0
M  V30 11611 H 1060.57 -3.6887 0.54674 0
M  V30 11612 N 1062.75 -0.88754 -1.30232 0
M  V30 11613 C 1063.7 -0.345765 -2.30016 0
M  V30 11614 C 1064.7 0.5486 -1.60271 0
M  V30 11615 O 1065.9 0.43275 -1.74721 0
M  V30 11616 H 1062.28 -0.0931623 -0.746207 0
M  V30 11617 H 1064.25 -1.20095 -2.73166 0
M  V30 11618 C 1063 0.422435 -3.45124 0
M  V30 11619 H 1062.32 -0.256516 -3.98976 0
M  V30 11620 H 1063.76 0.766572 -4.17013 0
M  V30 11621 C 1062.22 1.62049 -2.95367 0
M  V30 11622 O 1062.75 2.71985 -2.95613 0
M  V30 11623 N 1060.95 1.45852 -2.51347 0
M  V30 11624 H 1060.5 0.564158 -2.51346 0
M  V30 11625 H 1060.46 2.26148 -2.18413 0
M  V30 11626 N 1064.23 1.43628 -0.648757 0
M  V30 11627 C 1065.46 2.06217 -0.167945 0
M  V30 11628 C 1065.88 1.486 1.16462 0
M  V30 11629 O 1065.23 0.61559 1.71804 0
M  V30 11630 C 1065.28 3.6144 -0.0660114 0
M  V30 11631 O 1065 4.16914 -1.34589 0
M  V30 11632 C 1066.51 4.41097 0.441408 0
M  V30 11633 H 1063.73 0.665228 -0.0878237 0
M  V30 11634 H 1066.27 1.84207 -0.888144 0
M  V30 11635 H 1064.42 3.82651 0.604722 0
M  V30 11636 H 1064.84 5.10537 -1.20218 0
M  V30 11637 H 1066.31 5.50066 0.461697 0
M  V30 11638 H 1066.79 4.13803 1.47187 0
M  V30 11639 H 1067.4 4.24845 -0.19668 0
M  V30 11640 N 1065.71 0.390394 1.52688 0
M  V30 11641 C 1066.96 -0.192697 2.00777 0
M  V30 11642 C 1067.27 -1.4781 1.28108 0
M  V30 11643 O 1068.48 -2.1413 1.66914 0
M  V30 11644 C 1066.93 -0.393955 3.57737 0
M  V30 11645 C 1066.54 0.878259 4.39307 0
M  V30 11646 C 1068.29 -0.933352 4.14112 0
M  V30 11647 C 1066.19 0.645218 5.8787 0
M  V30 11648 H 1065.12 -0.0757862 0.750182 0
M  V30 11649 H 1067.77 0.512961 1.76184 0
M  V30 11650 H 1066.16 -1.16149 3.78583 0
M  V30 11651 H 1067.33 1.65049 4.30227 0
M  V30 11652 H 1065.65 1.34269 3.94158 0
M  V30 11653 H 1068.24 -1.12343 5.22765 0
M  V30 11654 H 1068.59 -1.90272 3.70273 0
M  V30 11655 H 1069.12 -0.225361 3.97161 0
M  V30 11656 H 1065.86 1.58562 6.36033 0
M  V30 11657 H 1065.38 -0.0880609 5.99735 0
M  V30 11658 H 1067.06 0.280178 6.46393 0
M  V30 11659 N 1067.19 -1.57141 0.120249 0
M  V30 11660 C 1068.47 -1.8677 -0.581075 0
M  V30 11661 C 1068.85 -1.02163 -1.84732 0
M  V30 11662 O 1068.19 -0.100897 -2.28277 0
M  V30 11663 C 1068.4 -3.37923 -0.872316 0
M  V30 11664 C 1069.75 -4.0655 -1.22483 0
M  V30 11665 O 1070.78 -3.42948 -0.962539 0
M  V30 11666 O 1069.63 -5.18821 -1.71717 0
M  V30 11667 H 1066.73 -0.773219 -0.293362 0
M  V30 11668 H 1069.27 -1.68992 0.154846 0
M  V30 11669 H 1068.05 -3.91292 0.0249416 0
M  V30 11670 H 1067.67 -3.61135 -1.66335 0
M  V30 11671 N 1068.67 0.153526 -1.5685 0
M  V30 11672 C 1069.6 1.19162 -2.00805 0
M  V30 11673 C 1070.58 1.45172 -0.886518 0
M  V30 11674 O 1071.76 1.56203 -1.15387 0
M  V30 11675 C 1068.89 2.52637 -2.38311 0
M  V30 11676 C 1067.85 2.41161 -3.53589 0
M  V30 11677 C 1067.17 3.79287 -3.76889 0
M  V30 11678 C 1068.47 1.90122 -4.86468 0
M  V30 11679 H 1070.17 0.82617 -2.87776 0
M  V30 11680 H 1067.71 0.395972 -1.38449 0
M  V30 11681 H 1069.67 3.25478 -2.6766 0
M  V30 11682 H 1068.39 2.91005 -1.4827 0
M  V30 11683 H 1067.05 1.70772 -3.24395 0
M  V30 11684 H 1066.7 4.15079 -2.84109 0
M  V30 11685 H 1066.4 3.72472 -4.54465 0
M  V30 11686 H 1067.92 4.53687 -4.08657 0
M  V30 11687 H 1069.33 2.52752 -5.14577 0
M  V30 11688 H 1067.73 1.94214 -5.67804 0
M  V30 11689 H 1068.8 0.856517 -4.77275 0
M  V30 11690 N 1070.14 1.51827 0.422667 0
M  V30 11691 C 1071.56 1.57533 1.00201 0
M  V30 11692 C 1071.91 0.407623 1.91919 0
M  V30 11693 O 1071.03 -0.473763 2.1115 0
M  V30 11694 C 1071.63 2.85508 1.82403 0
M  V30 11695 C 1070.19 2.93737 2.35362 0
M  V30 11696 C 1069.33 2.52343 1.14971 0
M  V30 11697 H 1072.28 1.57391 0.20339 0
M  V30 11698 H 1072.3 2.70097 2.68007 0
M  V30 11699 H 1071.82 3.70477 1.15623 0
M  V30 11700 H 1069.92 2.13231 3.05554 0
M  V30 11701 H 1070.03 3.977 2.67155 0
M  V30 11702 H 1068.39 2.05878 1.49955 0
M  V30 11703 H 1069.18 3.39672 0.497786 0
M  V30 11704 N 1071.62 -0.679052 1.4222 0
M  V30 11705 C 1072.56 -1.80369 1.39794 0
M  V30 11706 C 1073.53 -1.60462 0.262806 0
M  V30 11707 O 1074.72 -1.82992 0.452352 0
M  V30 11708 C 1071.84 -3.17305 1.18471 0
M  V30 11709 C 1070.89 -3.55969 2.34922 0
M  V30 11710 S 1071.72 -3.58884 3.97445 0
M  V30 11711 C 1072.88 -4.98519 3.78457 0
M  V30 11712 H 1073.11 -1.82152 2.34964 0
M  V30 11713 H 1070.65 -0.84932 1.28942 0
M  V30 11714 H 1072.6 -3.96348 1.06856 0
M  V30 11715 H 1071.26 -3.13112 0.248944 0
M  V30 11716 H 1070.46 -4.55491 2.1574 0
M  V30 11717 H 1070.06 -2.84275 2.4303 0
M  V30 11718 H 1072.35 -5.86481 3.39184 0
M  V30 11719 H 1073.29 -5.22748 4.77641 0
M  V30 11720 H 1073.7 -4.70836 3.11406 0
M  V30 11721 N 1073.1 -1.28322 -0.914942 0
M  V30 11722 C 1074.33 -1.1837 -1.70304 0
M  V30 11723 C 1074.75 0.254291 -1.86373 0
M  V30 11724 O 1074.11 1.18398 -1.37301 0
M  V30 11725 C 1074.16 -1.88603 -3.07346 0
M  V30 11726 O 1073.26 -1.19268 -3.94777 0
M  V30 11727 H 1072.6 -0.410978 -0.52153 0
M  V30 11728 H 1075.13 -1.69622 -1.14409 0
M  V30 11729 H 1075.14 -1.96463 -3.57584 0
M  V30 11730 H 1073.82 -2.93201 -2.94967 0
M  V30 11731 H 1072.39 -1.19563 -3.53212 0
M  V30 11732 N 1074.58 1.12322 -1.10551 0
M  V30 11733 C 1075.99 1.6539 -0.8662 0
M  V30 11734 C 1076.34 1.86695 0.603284 0
M  V30 11735 O 1075.47 1.59432 1.46323 0
M  V30 11736 C 1076.06 3.00443 -1.56587 0
M  V30 11737 C 1074.62 3.50456 -1.37323 0
M  V30 11738 C 1073.77 2.25454 -1.61449 0
M  V30 11739 H 1076.72 0.960866 -1.26305 0
M  V30 11740 H 1076.74 3.66972 -1.00557 0
M  V30 11741 H 1076.25 2.84905 -2.63535 0
M  V30 11742 H 1074.35 3.71176 -0.325431 0
M  V30 11743 H 1074.46 4.29839 -2.11601 0
M  V30 11744 H 1072.83 2.32621 -1.03729 0
M  V30 11745 H 1073.61 2.12469 -2.69651 0
M  V30 11746 N 1076.06 0.894434 1.2976 0
M  V30 11747 C 1077.47 0.589778 1.48303 0
M  V30 11748 C 1077.67 -0.870085 1.81746 0
M  V30 11749 O 1076.73 -1.65065 1.91076 0
M  V30 11750 C 1078.04 1.51107 2.59975 0
M  V30 11751 C 1079.59 1.51571 2.73853 0
M  V30 11752 C 1080.06 2.42316 3.88648 0
M  V30 11753 N 1081.56 2.40333 3.95973 0
M  V30 11754 C 1082.29 3.07254 4.84131 0
M  V30 11755 N 1081.79 3.83435 5.77018 0
M  V30 11756 N 1083.58 2.96438 4.77578 0
M  V30 11757 H 1075.73 1.83871 1.06327 0
M  V30 11758 H 1077.99 0.78758 0.527657 0
M  V30 11759 H 1077.7 2.55097 2.42112 0
M  V30 11760 H 1077.57 1.22767 3.56662 0
M  V30 11761 H 1079.96 0.483277 2.91116 0
M  V30 11762 H 1080.04 1.83946 1.77757 0
M  V30 11763 H 1079.69 3.4565 3.72141 0
M  V30 11764 H 1079.62 2.07252 4.84101 0
M  V30 11765 H 1082.11 1.84979 3.29532 0
M  V30 11766 H 1082.42 4.31565 6.4107 0
M  V30 11767 H 1080.76 3.87542 5.7692 0
M  V30 11768 H 1083.96 2.36442 4.03996 0
M  V30 11769 H 1084.13 3.48867 5.46073 0
M  V30 11770 N 1077.53 -1.43282 0.656365 0
M  V30 11771 C 1078.76 -2.06125 0.178879 0
M  V30 11772 C 1079.18 -1.49216 -1.15672 0
M  V30 11773 O 1078.53 -0.624693 -1.71475 0
M  V30 11774 C 1078.59 -3.614 0.0851785 0
M  V30 11775 O 1078.31 -4.16194 1.36798 0
M  V30 11776 C 1079.81 -4.41325 -0.41801 0
M  V30 11777 H 1077.03 -0.664753 0.0913504 0
M  V30 11778 H 1079.57 -1.83733 0.897901 0
M  V30 11779 H 1077.73 -3.82966 -0.584421 0
M  V30 11780 H 1078.14 -5.09892 1.22924 0
M  V30 11781 H 1079.61 -5.50303 -0.432519 0
M  V30 11782 H 1080.09 -4.14577 -1.44991 0
M  V30 11783 H 1080.7 -4.24735 0.219208 0
M  V30 11784 N 1079.01 -0.398486 -1.52479 0
M  V30 11785 C 1079.94 0.423498 -2.29627 0
M  V30 11786 C 1080.92 1.05547 -1.33394 0
M  V30 11787 O 1082.11 1.0665 -1.62294 0
M  V30 11788 C 1079.24 1.54612 -3.10986 0
M  V30 11789 C 1078.19 1.03971 -4.15179 0
M  V30 11790 C 1077.52 2.25512 -4.84818 0
M  V30 11791 C 1078.82 0.10121 -5.22202 0
M  V30 11792 H 1080.51 -0.220222 -2.98589 0
M  V30 11793 H 1078.06 -0.107355 -1.43599 0
M  V30 11794 H 1080.01 2.12806 -3.63719 0
M  V30 11795 H 1078.74 2.21756 -2.39774 0
M  V30 11796 H 1077.4 0.480251 -3.63441 0
M  V30 11797 H 1077.04 2.91187 -4.10145 0
M  V30 11798 H 1076.74 1.92285 -5.55248 0
M  V30 11799 H 1078.27 2.84331 -5.40359 0
M  V30 11800 H 1079.68 0.591617 -5.70239 0
M  V30 11801 H 1078.08 -0.141737 -5.99933 0
M  V30 11802 H 1079.15 -0.847216 -4.77441 0
M  V30 11803 N 1080.49 1.57075 -0.12858 0
M  V30 11804 C 1081.77 1.87075 0.571162 0
M  V30 11805 C 1082.15 1.03141 1.84188 0
M  V30 11806 O 1081.5 0.113001 2.2822 0
M  V30 11807 C 1081.71 3.3838 0.854383 0
M  V30 11808 C 1083.05 4.07194 1.20326 0
M  V30 11809 O 1084.08 3.43454 0.944338 0
M  V30 11810 O 1082.94 5.19725 1.68963 0
M  V30 11811 H 1080.03 0.774764 0.289258 0
M  V30 11812 H 1082.58 1.68908 -0.163806 0
M  V30 11813 H 1081.35 3.91273 -0.0456925 0
M  V30 11814 H 1080.97 3.62012 1.64418 0
M  V30 11815 N 1081.97 -0.145205 1.5693 0
M  V30 11816 C 1083.19 -0.876386 1.87974 0
M  V30 11817 C 1083.62 -1.73866 0.717795 0
M  V30 11818 O 1082.98 -1.78224 -0.332551 0
M  V30 11819 C 1083.03 -1.70746 3.17613 0
M  V30 11820 O 1082.13 -2.81188 3.01674 0
M  V30 11821 H 1081.47 -0.243987 0.617549 0
M  V30 11822 H 1084 -0.135482 2.04151 0
M  V30 11823 H 1084.01 -2.1021 3.49679 0
M  V30 11824 H 1082.69 -1.07429 4.01786 0
M  V30 11825 H 1081.26 -2.45117 2.81019 0
M  V30 11826 N 1083.45 -1.52049 -0.414609 0
M  V30 11827 C 1084.38 -1.77956 -1.51175 0
M  V30 11828 C 1085.36 -0.630282 -1.57992 0
M  V30 11829 O 1086.54 -0.875324 -1.73354 0
M  V30 11830 C 1083.67 -1.92527 -2.89051 0
M  V30 11831 C 1082.63 -3.08096 -2.97087 0
M  V30 11832 C 1081.95 -3.07882 -4.37164 0
M  V30 11833 C 1083.25 -4.47656 -2.69075 0
M  V30 11834 H 1084.95 -2.69827 -1.29746 0
M  V30 11835 H 1082.49 -1.29839 -0.62273 0
M  V30 11836 H 1084.45 -2.09234 -3.65786 0
M  V30 11837 H 1083.17 -0.973235 -3.11762 0
M  V30 11838 H 1081.83 -2.91131 -2.22797 0
M  V30 11839 H 1081.48 -2.10411 -4.56877 0
M  V30 11840 H 1081.18 -3.85501 -4.43467 0
M  V30 11841 H 1082.7 -3.26712 -5.15841 0
M  V30 11842 H 1084.12 -4.64855 -3.35534 0
M  V30 11843 H 1082.51 -5.27151 -2.8676 0
M  V30 11844 H 1083.58 -4.56129 -1.64544 0
M  V30 11845 N 1084.93 0.6715 -1.42579 0
M  V30 11846 C 1085.86 1.79625 -1.40749 0
M  V30 11847 C 1086.84 1.6032 -0.271312 0
M  V30 11848 O 1088.02 1.82749 -0.46205 0
M  V30 11849 C 1085.15 3.16672 -1.20153 0
M  V30 11850 C 1084.19 3.54718 -2.36807 0
M  V30 11851 S 1085.03 3.56771 -3.99343 0
M  V30 11852 C 1086.18 4.96505 -3.81095 0
M  V30 11853 H 1086.42 1.80903 -2.35926 0
M  V30 11854 H 1083.95 0.842469 -1.2939 0
M  V30 11855 H 1085.91 3.95776 -1.08956 0
M  V30 11856 H 1084.57 3.12976 -0.265545 0
M  V30 11857 H 1083.76 4.54341 -2.18152 0
M  V30 11858 H 1083.36 2.82982 -2.44535 0
M  V30 11859 H 1085.65 5.84674 -3.4229 0
M  V30 11860 H 1086.6 5.20207 -4.80406 0
M  V30 11861 H 1087.01 4.69178 -3.13898 0
M  V30 11862 N 1086.4 1.28806 0.908124 0
M  V30 11863 C 1087.34 1.09018 2.01613 0
M  V30 11864 C 1088.35 0.0402059 1.6275 0
M  V30 11865 O 1089.54 0.283853 1.76229 0
M  V30 11866 C 1086.64 0.635712 3.32884 0
M  V30 11867 C 1085.81 1.76235 4.00325 0
M  V30 11868 C 1084.87 1.3003 5.09881 0
M  V30 11869 O 1083.9 2.00354 5.32773 0
M  V30 11870 N 1085.1 0.166575 5.80261 0
M  V30 11871 H 1087.86 2.0444 2.19144 0
M  V30 11872 H 1085.42 1.20633 1.07978 0
M  V30 11873 H 1087.42 0.310097 4.0351 0
M  V30 11874 H 1085.99 -0.225816 3.11783 0
M  V30 11875 H 1085.21 2.25727 3.23173 0
M  V30 11876 H 1086.49 2.51796 4.42127 0
M  V30 11877 H 1085.89 -0.419934 5.64139 0
M  V30 11878 H 1084.45 -0.0997281 6.51724 0
M  V30 11879 N 1087.88 -1.11734 1.11145 0
M  V30 11880 C 1089.13 -1.83405 0.858413 0
M  V30 11881 C 1089.46 -1.84488 -0.615975 0
M  V30 11882 O 1088.71 -1.29123 -1.47057 0
M  V30 11883 C 1089.01 -3.3046 1.36129 0
M  V30 11884 C 1088.68 -3.4954 2.84837 0
M  V30 11885 C 1087.34 -3.54456 3.25445 0
M  V30 11886 C 1089.69 -3.56048 3.8063 0
M  V30 11887 C 1087.02 -3.63431 4.60581 0
M  V30 11888 C 1089.37 -3.66554 5.15579 0
M  V30 11889 C 1088.03 -3.69728 5.55749 0
M  V30 11890 H 1087.3 -0.671128 0.314115 0
M  V30 11891 H 1089.95 -1.31795 1.38933 0
M  V30 11892 H 1088.26 -3.84544 0.750547 0
M  V30 11893 H 1089.95 -3.84398 1.14188 0
M  V30 11894 H 1086.54 -3.46382 2.52423 0
M  V30 11895 H 1090.73 -3.51513 3.5036 0
M  V30 11896 H 1085.98 -3.64164 4.91116 0
M  V30 11897 H 1090.16 -3.70532 5.89643 0
M  V30 11898 H 1087.78 -3.76435 6.60455 0
M  V30 11899 N 1089.36 -0.901303 -1.29284 0
M  V30 11900 C 1090.61 -0.527 -1.95108 0
M  V30 11901 C 1090.93 0.930065 -1.71391 0
M  V30 11902 O 1090.2 1.65601 -1.04658 0
M  V30 11903 H 1088.78 -0.191903 -0.721929 0
M  V30 11904 H 1091.44 -1.14795 -1.57506 0
M  V30 11905 H 1090.54 -0.710945 -3.03895 0
M  V30 11906 N 1090.84 1.42931 -0.663954 0
M  V30 11907 C 1091.79 2.32577 0.03287 0
M  V30 11908 C 1092.78 1.49217 0.801918 0
M  V30 11909 O 1093.99 1.65358 0.711106 0
M  V30 11910 H 1090.36 0.751424 0.0294198 0
M  V30 11911 H 1092.33 2.89059 -0.740763 0
M  V30 11912 C 1091.08 3.33661 0.978025 0
M  V30 11913 H 1090.4 3.97837 0.395681 0
M  V30 11914 H 1091.84 3.98997 1.43448 0
M  V30 11915 C 1090.3 2.65085 2.07922 0
M  V30 11916 O 1090.83 2.4745 3.16435 0
M  V30 11917 N 1089.04 2.24285 1.84783 0
M  V30 11918 H 1088.59 2.38827 0.965368 0
M  V30 11919 H 1088.54 1.78732 2.58655 0
M  V30 11920 N 1092.32 0.406567 1.52266 0
M  V30 11921 C 1093.26 -0.43489 2.28498 0
M  V30 11922 C 1094.26 -1.04806 1.33086 0
M  V30 11923 O 1095.46 -0.986557 1.50556 0
M  V30 11924 H 1091.84 -0.159023 0.734994 0
M  V30 11925 H 1093.81 0.229316 2.97518 0
M  V30 11926 C 1092.56 -1.54073 3.117 0
M  V30 11927 H 1091.88 -1.07824 3.84986 0
M  V30 11928 H 1093.32 -2.10337 3.6815 0
M  V30 11929 C 1091.78 -2.50662 2.251 0
M  V30 11930 O 1092.31 -3.54486 1.88951 0
M  V30 11931 N 1090.52 -2.20811 1.8892 0
M  V30 11932 H 1090.06 -1.36413 2.18516 0
M  V30 11933 H 1090.02 -2.85684 1.3127 0
M  V30 11934 N 1093.79 -1.57004 0.136909 0
M  V30 11935 C 1095.04 -1.9541 -0.51569 0
M  V30 11936 C 1095.36 -1.02219 -1.66061 0
M  V30 11937 O 1094.63 -0.0818172 -1.95729 0
M  V30 11938 H 1093.21 -0.721504 -0.193497 0
M  V30 11939 H 1095.88 -1.93765 0.210046 0
M  V30 11940 H 1094.97 -2.98887 -0.898494 0
M  V30 11941 N 1095.27 0.136881 -1.57004 0
M  V30 11942 C 1096.18 1.18793 -2.023 0
M  V30 11943 C 1097.2 1.46412 -0.94018 0
M  V30 11944 O 1098.37 1.57883 -1.2504 0
M  V30 11945 C 1095.44 2.49903 -2.40311 0
M  V30 11946 C 1094.5 2.29841 -3.6259 0
M  V30 11947 C 1093.73 3.54699 -3.98779 0
M  V30 11948 O 1093.96 4.61291 -3.3551 0
M  V30 11949 O 1092.89 3.46761 -4.91976 0
M  V30 11950 H 1096.72 0.833345 -2.92043 0
M  V30 11951 H 1094.3 0.346361 -1.4533 0
M  V30 11952 H 1096.18 3.27183 -2.65574 0
M  V30 11953 H 1094.86 2.84872 -1.5372 0
M  V30 11954 H 1093.77 1.50478 -3.42501 0
M  V30 11955 H 1095.1 1.99784 -4.4983 0
M  V30 11956 N 1096.75 1.52266 0.40654 0
M  V30 11957 C 1098 1.66123 1.15097 0
M  V30 11958 C 1098.32 0.394836 1.90961 0
M  V30 11959 O 1097.59 -0.590349 1.86793 0
M  V30 11960 H 1096.17 0.612317 0.427875 0
M  V30 11961 H 1098.83 1.89318 0.463106 0
M  V30 11962 H 1097.93 2.50351 1.86361 0
M  V30 11963 N 1098.23 -0.663929 1.42933 0
M  V30 11964 C 1099.19 -1.75899 1.46943 0
M  V30 11965 C 1100.19 -1.5682 0.355535 0
M  V30 11966 O 1101.38 -1.62914 0.616833 0
M  V30 11967 C 1098.51 -3.14657 1.31164 0
M  V30 11968 H 1099.71 -1.73727 2.44456 0
M  V30 11969 H 1097.26 -0.874587 1.2954 0
M  V30 11970 H 1097.99 -3.22447 0.346165 0
M  V30 11971 H 1097.78 -3.29909 2.11902 0
M  V30 11972 H 1099.27 -3.9453 1.36878 0
M  V30 11973 N 1099.71 -1.29285 -0.901281 0
M  V30 11974 C 1100.62 -1.16161 -2.03823 0
M  V30 11975 C 1101.63 -0.0852298 -1.73791 0
M  V30 11976 O 1102.81 -0.29699 -1.99198 0
M  V30 11977 C 1099.87 -0.837586 -3.3643 0
M  V30 11978 C 1098.93 -1.99764 -3.7999 0
M  V30 11979 C 1098.17 -1.68898 -5.0627 0
M  V30 11980 O 1098.39 -0.609177 -5.67138 0
M  V30 11981 O 1097.32 -2.53648 -5.45845 0
M  V30 11982 H 1101.15 -2.11635 -2.17817 0
M  V30 11983 H 1098.74 -1.08722 -1.02468 0
M  V30 11984 H 1100.62 -0.671376 -4.16017 0
M  V30 11985 H 1099.29 0.0873811 -3.23582 0
M  V30 11986 H 1098.2 -2.21908 -3.01177 0
M  V30 11987 H 1099.53 -2.90376 -3.9742 0
M  V30 11988 N 1101.18 1.11143 -1.11736 0
M  V30 11989 C 1102.6 1.64462 -0.883693 0
M  V30 11990 C 1102.95 1.87324 0.583448 0
M  V30 11991 O 1102.07 1.60975 1.44623 0
M  V30 11992 C 1102.67 2.98765 -1.59764 0
M  V30 11993 C 1101.23 3.4898 -1.41032 0
M  V30 11994 C 1100.37 2.23729 -1.63831 0
M  V30 11995 H 1103.32 0.947415 -1.27317 0
M  V30 11996 H 1103.34 3.65885 -1.04443 0
M  V30 11997 H 1102.86 2.82094 -2.66542 0
M  V30 11998 H 1100.96 3.7081 -0.364781 0
M  V30 11999 H 1101.07 4.27571 -2.16148 0
M  V30 12000 H 1099.43 2.31507 -1.06191 0
M  V30 12001 H 1100.22 2.09597 -2.7189 0
M  V30 12002 N 1102.66 0.908147 1.28804 0
M  V30 12003 C 1103.89 0.553431 1.9988 0
M  V30 12004 C 1104.31 -0.856714 1.67458 0
M  V30 12005 O 1103.67 -1.57163 0.903849 0
M  V30 12006 C 1103.72 0.762688 3.52442 0
M  V30 12007 O 1102.82 -0.180924 4.12003 0
M  V30 12008 H 1102.16 0.215237 0.628147 0
M  V30 12009 H 1104.69 1.22205 1.64095 0
M  V30 12010 H 1104.7 0.670612 4.02451 0
M  V30 12011 H 1103.38 1.79071 3.75375 0
M  V30 12012 H 1101.96 -0.0405897 3.72878 0
M  V30 12013 N 1104.14 -1.42577 0.671525 0
M  V30 12014 C 1105.1 -2.292 0.000392482 0
M  V30 12015 C 1106.1 -1.43158 -0.732294 0
M  V30 12016 O 1107.29 -1.64583 -0.570789 0
M  V30 12017 C 1104.43 -3.25591 -1.01013 0
M  V30 12018 H 1105.62 -2.90037 0.762783 0
M  V30 12019 H 1103.17 -1.50162 0.433703 0
M  V30 12020 H 1103.91 -2.69685 -1.80112 0
M  V30 12021 H 1103.69 -3.89049 -0.488183 0
M  V30 12022 H 1105.18 -3.90561 -1.47824 0
M  V30 12023 N 1105.62 -0.414636 -1.52048 0
M  V30 12024 C 1106.87 0.159034 -2.01473 0
M  V30 12025 C 1107.19 1.45176 -1.30188 0
M  V30 12026 O 1106.46 1.91134 -0.429469 0
M  V30 12027 H 1105.04 0.0617604 -0.744443 0
M  V30 12028 H 1107.7 -0.552141 -1.86916 0
M  V30 12029 H 1106.8 0.351217 -3.10118 0
M  V30 12030 N 1107.1 1.56929 -0.145233 0
M  V30 12031 C 1108.34 1.95681 0.50532 0
M  V30 12032 C 1108.67 1.03098 1.65516 0
M  V30 12033 O 1107.94 0.0921961 1.95683 0
M  V30 12034 H 1106.52 0.72252 0.189668 0
M  V30 12035 H 1109.18 1.93651 -0.220318 0
M  V30 12036 H 1108.27 2.99359 0.882631 0
M  V30 12037 N 1108.58 -0.128553 1.57075 0
M  V30 12038 C 1109.51 -1.18362 1.96273 0
M  V30 12039 C 1110.52 -1.3818 0.860818 0
M  V30 12040 O 1111.71 -1.37424 1.13916 0
M  V30 12041 C 1108.81 -2.54533 2.23755 0
M  V30 12042 C 1107.98 -2.55446 3.55058 0
M  V30 12043 C 1107.04 -3.73291 3.70864 0
M  V30 12044 O 1106.07 -3.57315 4.43074 0
M  V30 12045 N 1107.27 -4.91481 3.08912 0
M  V30 12046 H 1110.03 -0.850276 2.87385 0
M  V30 12047 H 1107.6 -0.317931 1.58748 0
M  V30 12048 H 1109.59 -3.31912 2.31553 0
M  V30 12049 H 1108.16 -2.80087 1.38816 0
M  V30 12050 H 1107.38 -1.6385 3.58534 0
M  V30 12051 H 1108.67 -2.53104 4.4138 0
M  V30 12052 H 1108.06 -5.07364 2.50196 0
M  V30 12053 H 1106.62 -5.6657 3.22245 0
M  V30 12054 N 1110.05 -1.5248 -0.398459 0
M  V30 12055 C 1111.3 -1.67061 -1.14441 0
M  V30 12056 C 1111.63 -0.405821 -1.90219 0
M  V30 12057 O 1110.88 0.611532 -1.859 0
M  V30 12058 C 1111.18 -2.85038 -2.15611 0
M  V30 12059 C 1110.85 -4.22847 -1.56561 0
M  V30 12060 C 1109.51 -4.60329 -1.40182 0
M  V30 12061 C 1111.86 -5.08683 -1.1354 0
M  V30 12062 C 1109.19 -5.81314 -0.793149 0
M  V30 12063 C 1111.54 -6.30284 -0.540866 0
M  V30 12064 C 1110.21 -6.66505 -0.364297 0
M  V30 12065 H 1109.48 -0.611321 -0.418769 0
M  V30 12066 H 1112.12 -1.86604 -0.430241 0
M  V30 12067 H 1110.43 -2.59873 -2.93212 0
M  V30 12068 H 1112.13 -2.93516 -2.73221 0
M  V30 12069 H 1108.72 -3.93316 -1.70295 0
M  V30 12070 H 1112.9 -4.80301 -1.24999 0
M  V30 12071 H 1108.16 -6.07994 -0.64446 0
M  V30 12072 H 1112.33 -6.96115 -0.199167 0
M  V30 12073 H 1109.96 -7.60121 0.109439 0
M  V30 12074 N 1111.53 0.65634 -1.43283 0
M  V30 12075 C 1112.44 1.79847 -1.50639 0
M  V30 12076 C 1113.46 1.69487 -0.393714 0
M  V30 12077 O 1114.63 1.90712 -0.647379 0
M  V30 12078 C 1111.7 3.16107 -1.42398 0
M  V30 12079 C 1110.76 3.38287 -2.64312 0
M  V30 12080 C 1109.99 4.68046 -2.56454 0
M  V30 12081 O 1110.22 5.4719 -1.61056 0
M  V30 12082 O 1109.15 4.91877 -3.46902 0
M  V30 12083 H 1112.98 1.76596 -2.47078 0
M  V30 12084 H 1110.56 0.814428 -1.25249 0
M  V30 12085 H 1112.44 3.97382 -1.40233 0
M  V30 12086 H 1111.12 3.19956 -0.490929 0
M  V30 12087 H 1110.02 2.56788 -2.72049 0
M  V30 12088 H 1111.36 3.39282 -3.56579 0
M  V30 12089 N 1113.01 1.29761 0.894412 0
M  V30 12090 C 1114.23 1.21064 1.68399 0
M  V30 12091 C 1114.66 -0.224608 1.86754 0
M  V30 12092 O 1114.02 -1.16199 1.39167 0
M  V30 12093 C 1114.07 1.93468 3.04306 0
M  V30 12094 O 1113.17 1.25533 3.9283 0
M  V30 12095 H 1112.51 0.419223 0.514925 0
M  V30 12096 H 1115.04 1.71421 1.11696 0
M  V30 12097 H 1115.05 2.02127 3.54413 0
M  V30 12098 H 1113.73 2.97857 2.90265 0
M  V30 12099 H 1112.3 1.25168 3.51266 0
M  V30 12100 N 1114.49 -1.10549 1.12324 0
M  V30 12101 C 1115.42 -2.18911 0.812416 0
M  V30 12102 C 1116.4 -1.68628 -0.22327 0
M  V30 12103 O 1117.58 -1.94015 -0.0847184 0
M  V30 12104 C 1114.71 -3.46288 0.264947 0
M  V30 12105 C 1113.67 -4.09838 1.23356 0
M  V30 12106 C 1112.99 -5.31901 0.546374 0
M  V30 12107 C 1114.29 -4.53686 2.58778 0
M  V30 12108 H 1115.99 -2.45169 1.71851 0
M  V30 12109 H 1113.53 -1.17834 0.827715 0
M  V30 12110 H 1115.49 -4.21385 0.0352364 0
M  V30 12111 H 1114.21 -3.19517 -0.676479 0
M  V30 12112 H 1112.87 -3.36746 1.44906 0
M  V30 12113 H 1112.52 -5.01406 -0.400157 0
M  V30 12114 H 1112.22 -5.75372 1.19249 0
M  V30 12115 H 1113.74 -6.09731 0.325673 0
M  V30 12116 H 1115.16 -5.20063 2.41263 0
M  V30 12117 H 1113.55 -5.08003 3.19457 0
M  V30 12118 H 1114.62 -3.66665 3.17309 0
M  V30 12119 N 1115.97 -0.914965 -1.28321 0
M  V30 12120 C 1117.19 -0.564654 -1.99046 0
M  V30 12121 C 1117.61 0.854345 -1.68364 0
M  V30 12122 O 1116.97 1.56605 -0.937068 0
M  V30 12123 C 1117.02 -0.765663 -3.53299 0
M  V30 12124 O 1116.74 -2.12883 -3.829 0
M  V30 12125 C 1118.24 -0.422347 -4.41283 0
M  V30 12126 H 1115.46 -0.215158 -0.635569 0
M  V30 12127 H 1118 -1.2285 -1.63487 0
M  V30 12128 H 1116.16 -0.148795 -3.87114 0
M  V30 12129 H 1116.57 -2.1694 -4.77533 0
M  V30 12130 H 1118.05 -0.613757 -5.48577 0
M  V30 12131 H 1118.52 0.641484 -4.3449 0
M  V30 12132 H 1119.13 -1.01681 -4.12966 0
M  V30 12133 N 1117.44 1.42219 -0.679077 0
M  V30 12134 C 1118.69 2.01479 -0.203119 0
M  V30 12135 C 1119.02 1.5371 1.19178 0
M  V30 12136 O 1118.27 0.731832 1.81501 0
M  V30 12137 C 1118.57 3.56889 -0.191027 0
M  V30 12138 C 1118.24 4.24106 -1.53118 0
M  V30 12139 C 1116.9 4.42182 -1.89812 0
M  V30 12140 C 1119.25 4.61946 -2.41361 0
M  V30 12141 C 1116.58 4.95371 -3.14364 0
M  V30 12142 C 1118.93 5.16518 -3.65229 0
M  V30 12143 C 1117.6 5.32807 -4.02086 0
M  V30 12144 H 1116.87 0.737263 -0.0743264 0
M  V30 12145 H 1119.51 1.70346 -0.874908 0
M  V30 12146 H 1117.82 3.87715 0.564282 0
M  V30 12147 H 1119.52 4.00528 0.194511 0
M  V30 12148 H 1116.11 4.10399 -1.23575 0
M  V30 12149 H 1120.29 4.4765 -2.14297 0
M  V30 12150 H 1115.55 5.06167 -3.42935 0
M  V30 12151 H 1119.72 5.44782 -4.33804 0
M  V30 12152 H 1117.35 5.73785 -4.98673 0
M  V30 12153 N 1118.92 0.422693 1.51826 0
M  V30 12154 C 1120.2 -0.20786 1.94492 0
M  V30 12155 C 1120.58 -1.61414 1.36047 0
M  V30 12156 O 1119.93 -2.21987 0.541657 0
M  V30 12157 C 1120.14 -0.200457 3.48424 0
M  V30 12158 C 1121.48 -0.413199 4.22585 0
M  V30 12159 O 1122.51 -0.27922 3.55104 0
M  V30 12160 O 1121.37 -0.678469 5.42272 0
M  V30 12161 H 1118.46 -0.137851 0.81543 0
M  V30 12162 H 1121.01 0.479617 1.62781 0
M  V30 12163 H 1119.78 0.783263 3.83381 0
M  V30 12164 H 1119.4 -0.931464 3.86535 0
M  V30 12165 N 1120.4 -1.5685 0.153553 0
M  V30 12166 C 1121.33 -2.12888 -0.821829 0
M  V30 12167 C 1122.31 -1.05418 -1.23798 0
M  V30 12168 O 1123.49 -1.33288 -1.33292 0
M  V30 12169 C 1120.62 -2.65394 -2.10438 0
M  V30 12170 C 1119.67 -3.85071 -1.83364 0
M  V30 12171 S 1120.5 -5.2572 -1.01877 0
M  V30 12172 C 1121.66 -5.81619 -2.31236 0
M  V30 12173 H 1121.89 -2.95288 -0.345314 0
M  V30 12174 H 1119.42 -1.5428 -0.0608377 0
M  V30 12175 H 1121.38 -2.96294 -2.84113 0
M  V30 12176 H 1120.04 -1.83112 -2.55204 0
M  V30 12177 H 1119.23 -4.20076 -2.78482 0
M  V30 12178 H 1118.84 -3.54965 -1.17794 0
M  V30 12179 H 1121.13 -5.9345 -3.26838 0
M  V30 12180 H 1122.07 -6.79054 -2.00727 0
M  V30 12181 H 1122.48 -5.09909 -2.42184 0
M  V30 12182 N 1121.88 0.120221 -1.57141 0
M  V30 12183 C 1122.79 1.16641 -2.03549 0
M  V30 12184 C 1123.8 1.45407 -0.955656 0
M  V30 12185 O 1124.98 1.56547 -1.26708 0
M  V30 12186 C 1122.04 2.4734 -2.42948 0
M  V30 12187 C 1121.11 2.25982 -3.65008 0
M  V30 12188 C 1120.34 3.50449 -4.02518 0
M  V30 12189 O 1120.56 4.57706 -3.40384 0
M  V30 12190 O 1119.5 3.41524 -4.95626 0
M  V30 12191 H 1123.32 0.802323 -2.9291 0
M  V30 12192 H 1120.91 0.330927 -1.45689 0
M  V30 12193 H 1122.79 3.24348 -2.69029 0
M  V30 12194 H 1121.46 2.83225 -1.56733 0
M  V30 12195 H 1120.37 1.46837 -3.44078 0
M  V30 12196 H 1121.7 1.95002 -4.51924 0
M  V30 12197 N 1123.36 1.52689 0.390367 0
M  V30 12198 C 1124.29 1.80338 1.48325 0
M  V30 12199 C 1125.27 0.655338 1.56969 0
M  V30 12200 O 1126.45 0.902792 1.7194 0
M  V30 12201 C 1123.58 1.97101 2.85952 0
M  V30 12202 C 1122.54 3.12783 2.92148 0
M  V30 12203 C 1121.86 3.14798 4.32211 0
M  V30 12204 C 1123.16 4.5188 2.61919 0
M  V30 12205 H 1124.86 2.71857 1.25437 0
M  V30 12206 H 1122.4 1.30813 0.601995 0
M  V30 12207 H 1124.36 2.15027 3.62411 0
M  V30 12208 H 1123.08 1.02271 3.10174 0
M  V30 12209 H 1121.74 2.94638 2.18137 0
M  V30 12210 H 1121.39 2.17653 4.53471 0
M  V30 12211 H 1121.09 3.92507 4.37278 0
M  V30 12212 H 1122.61 3.34877 5.10578 0
M  V30 12213 H 1124.02 4.70134 3.28096 0
M  V30 12214 H 1122.42 5.31647 2.78337 0
M  V30 12215 H 1123.49 4.58689 1.57266 0
M  V30 12216 N 1124.83 -0.648732 1.43629 0
M  V30 12217 C 1126.06 -1.4362 1.48932 0
M  V30 12218 C 1126.48 -1.88487 0.108599 0
M  V30 12219 O 1125.83 -1.59768 -0.882066 0
M  V30 12220 C 1125.89 -2.66822 2.43903 0
M  V30 12221 O 1125.61 -2.2383 3.76606 0
M  V30 12222 C 1127.11 -3.60134 2.58493 0
M  V30 12223 H 1124.33 -0.441055 0.505679 0
M  V30 12224 H 1126.87 -0.794936 1.88417 0
M  V30 12225 H 1125.03 -3.27079 2.07601 0
M  V30 12226 H 1125.44 -3.03575 4.27718 0
M  V30 12227 H 1126.91 -4.43234 3.29011 0
M  V30 12228 H 1127.39 -4.07779 1.63134 0
M  V30 12229 H 1128 -3.05756 2.95624 0
M  V30 12230 N 1126.31 -1.30234 -0.887518 0
M  V30 12231 C 1127.54 -1.21955 -1.67755 0
M  V30 12232 C 1127.96 0.214701 -1.86871 0
M  V30 12233 O 1127.32 1.15459 -1.39782 0
M  V30 12234 C 1127.37 -1.95079 -3.03276 0
M  V30 12235 O 1126.47 -1.27615 -3.92158 0
M  V30 12236 H 1125.81 -0.421948 -0.512695 0
M  V30 12237 H 1128.34 -1.72011 -1.10785 0
M  V30 12238 H 1128.35 -2.04004 -3.53336 0
M  V30 12239 H 1127.03 -2.99392 -2.88682 0
M  V30 12240 H 1125.61 -1.27029 -3.50597 0
M  V30 12241 N 1127.79 1.09952 -1.12909 0
M  V30 12242 C 1128.7 2.19999 -0.81471 0
M  V30 12243 C 1129.72 1.72864 0.19851 0
M  V30 12244 O 1130.89 2.01376 0.0308832 0
M  V30 12245 C 1127.96 3.45573 -0.279363 0
M  V30 12246 C 1127.02 4.07417 -1.35314 0
M  V30 12247 C 1126.25 5.26996 -0.843247 0
M  V30 12248 O 1126.47 5.69495 0.321164 0
M  V30 12249 O 1125.41 5.79826 -1.61511 0
M  V30 12250 H 1129.23 2.49333 -1.73398 0
M  V30 12251 H 1126.82 1.18784 -0.906128 0
M  V30 12252 H 1128.7 4.21398 0.0140531 0
M  V30 12253 H 1127.38 3.17854 0.612401 0
M  V30 12254 H 1126.28 3.33253 -1.6998 0
M  V30 12255 H 1127.62 4.39349 -2.21885 0
M  V30 12256 N 1129.27 0.921757 1.27833 0
M  V30 12257 C 1130.51 0.566288 1.96399 0
M  V30 12258 C 1130.87 -0.875149 1.70895 0
M  V30 12259 O 1132.07 -1.3386 2.33099 0
M  V30 12260 C 1130.34 0.876329 3.4649 0
M  V30 12261 S 1131.9 0.628481 4.34276 0
M  V30 12262 H 1128.72 0.209246 0.679512 0
M  V30 12263 H 1131.32 1.18892 1.55193 0
M  V30 12264 H 1130.03 1.92319 3.62549 0
M  V30 12265 H 1129.56 0.242658 3.92651 0
M  V30 12266 H 1131.57 -0.516493 4.93505 0
M  V30 12267 N 1130.75 -1.41857 0.686609 0
M  V30 12268 C 1131.71 -2.29187 0.0247022 0
M  V30 12269 C 1132.71 -1.43926 -0.717069 0
M  V30 12270 O 1133.9 -1.65179 -0.5533 0
M  V30 12271 C 1131.03 -3.26644 -0.975537 0
M  V30 12272 H 1132.22 -2.89212 0.793503 0
M  V30 12273 H 1129.78 -1.49694 0.449605 0
M  V30 12274 H 1130.51 -2.7158 -1.77242 0
M  V30 12275 H 1130.3 -3.89545 -0.446892 0
M  V30 12276 H 1131.79 -3.92107 -1.43673 0
M  V30 12277 N 1132.22 -0.430739 -1.51599 0
M  V30 12278 C 1133.45 0.136797 -2.06447 0
M  V30 12279 C 1133.87 1.37027 -1.29881 0
M  V30 12280 O 1133.22 1.78983 -0.356543 0
M  V30 12281 C 1133.28 0.465637 -3.58489 0
M  V30 12282 O 1133 -0.718873 -4.32162 0
M  V30 12283 C 1134.5 1.08456 -4.29828 0
M  V30 12284 H 1131.72 0.0108468 -0.670912 0
M  V30 12285 H 1134.26 -0.607921 -1.95255 0
M  V30 12286 H 1132.42 1.16025 -3.69617 0
M  V30 12287 H 1132.83 -0.439195 -5.22658 0
M  V30 12288 H 1134.3 1.2647 -5.37317 0
M  V30 12289 H 1134.78 2.06376 -3.87693 0
M  V30 12290 H 1135.39 0.429525 -4.23125 0
M  V30 12291 N 1133.7 1.56767 -0.161869 0
M  V30 12292 C 1134.93 2.01401 0.49523 0
M  V30 12293 C 1135.35 1.04133 1.56646 0
M  V30 12294 O 1134.71 0.0193747 1.8129 0
M  V30 12295 C 1134.76 3.44695 1.05913 0
M  V30 12296 O 1133.86 3.50475 2.1735 0
M  V30 12297 H 1133.2 0.65314 0.1196 0
M  V30 12298 H 1135.73 2.02903 -0.26298 0
M  V30 12299 H 1135.74 3.83805 1.3841 0
M  V30 12300 H 1134.42 4.14991 0.274749 0
M  V30 12301 H 1133 3.23218 1.85969 0
M  V30 12302 N 1135.18 -0.111886 1.57202 0
M  V30 12303 C 1136.59 -0.668261 1.74331 0
M  V30 12304 C 1136.94 -1.79959 0.781609 0
M  V30 12305 O 1136.07 -2.16356 -0.043833 0
M  V30 12306 C 1136.66 -1.219 3.1611 0
M  V30 12307 C 1135.22 -1.7216 3.34721 0
M  V30 12308 C 1134.37 -0.624223 2.70183 0
M  V30 12309 H 1137.32 0.114081 1.58289 0
M  V30 12310 H 1137.34 -2.08858 3.18054 0
M  V30 12311 H 1136.85 -0.395381 3.86081 0
M  V30 12312 H 1134.95 -2.56976 2.69803 0
M  V30 12313 H 1135.07 -1.82615 4.42932 0
M  V30 12314 H 1133.43 -1.05958 2.31614 0
M  V30 12315 H 1134.21 0.188537 3.42782 0
M  V30 12316 N 1136.66 -1.52894 -0.382264 0
M  V30 12317 C 1137.59 -1.7291 -1.48921 0
M  V30 12318 C 1138.57 -0.577056 -1.52016 0
M  V30 12319 O 1139.75 -0.807667 -1.7032 0
M  V30 12320 C 1136.88 -1.79281 -2.87361 0
M  V30 12321 C 1135.93 -3.01099 -3.02063 0
M  V30 12322 S 1136.76 -4.60947 -2.72558 0
M  V30 12323 C 1137.92 -4.70144 -4.13178 0
M  V30 12324 H 1138.15 -2.66529 -1.31718 0
M  V30 12325 H 1135.68 -1.43271 -0.575563 0
M  V30 12326 H 1137.64 -1.83637 -3.67134 0
M  V30 12327 H 1136.3 -0.867428 -3.01885 0
M  V30 12328 H 1135.49 -3.02117 -4.03412 0
M  V30 12329 H 1135.1 -2.94769 -2.3019 0
M  V30 12330 H 1137.39 -4.49173 -5.07198 0
M  V30 12331 H 1138.33 -5.72166 -4.17172 0
M  V30 12332 H 1138.74 -3.98923 -3.99401 0
M  V30 12333 O 1138.18 0.528217 -1.52618 0
M  V30 12334 H 1138.87 1.18332 -1.53353 0
M  V30 END ATOM
M  V30 BEGIN BOND
M  V30 END BOND
M  V30 END CTAB
M  END
$$$$
