drugbank_target|P40926 Malate dehydrogenase, mitochondrial (DB00157; DB04272; DB09092)
 OpenBabel12092119403D

  0  0  0     0  0            999 V3000
M  V30 BEGIN CTAB
M  V30 COUNTS 5078 5119 0 0 0
M  V30 BEGIN ATOM
M  V30 1 H -0.908 1.98254 -0.117106 0
M  V30 2 N 0 1.576 0 0
M  V30 3 C 0.933 2.03868 1.02534 0
M  V30 4 C 1.911 0.928543 1.3348 0
M  V30 5 O 3.095 1.19667 1.45644 0
M  V30 6 C 0.222 2.43627 2.35294 0
M  V30 7 C -0.732 3.65373 2.2001 0
M  V30 8 S 0.101 5.13292 1.52614 0
M  V30 9 C 1.257 5.56322 2.86805 0
M  V30 10 H 1.49 2.90518 0.631377 0
M  V30 11 H -0.977 1.52953 0.210867 0
M  V30 12 H 0.981 2.67203 3.11629 0
M  V30 13 H -0.358 1.57376 2.7183 0
M  V30 14 H -1.165 3.90944 3.18086 0
M  V30 15 H -1.563 3.418 1.51819 0
M  V30 16 H 0.729 5.58782 3.83104 0
M  V30 17 H 1.672 6.56266 2.65933 0
M  V30 18 H 2.08 4.83886 2.90714 0
M  V30 19 N 1.4781 -0.272755 1.55222 0
M  V30 20 C 2.4081 -1.34136 1.91127 0
M  V30 21 C 3.3891 -1.51513 0.773168 0
M  V30 22 O 4.5741 -1.64552 1.03132 0
M  V30 23 C 1.7041 -2.70083 2.1834 0
M  V30 24 C 0.6581 -2.67437 3.34158 0
M  V30 25 C -0.0159 -4.06938 3.46851 0
M  V30 26 C 1.2841 -2.26686 4.70543 0
M  V30 27 H 2.9781 -1.04333 2.80633 0
M  V30 28 H 0.5241 -0.500454 1.35024 0
M  V30 29 H 2.4771 -3.44952 2.42046 0
M  V30 30 H 1.2011 -3.01469 1.25634 0
M  V30 31 H -0.1399 -1.95026 3.1042 0
M  V30 32 H -0.4919 -4.35547 2.51611 0
M  V30 33 H -0.7919 -4.06062 4.2472 0
M  V30 34 H 0.7321 -4.83545 3.72849 0
M  V30 35 H 2.1461 -2.91277 4.93792 0
M  V30 36 H 0.5431 -2.36971 5.5133 0
M  V30 37 H 1.6131 -1.21818 4.69349 0
M  V30 38 N 2.9562 -1.48159 -0.537278 0
M  V30 39 C 4.1812 -1.59707 -1.32319 0
M  V30 40 C 4.6062 -0.254859 -1.86365 0
M  V30 41 O 3.9642 0.772378 -1.64024 0
M  V30 42 C 4.0122 -2.6412 -2.45505 0
M  V30 43 O 3.1162 -2.20774 -3.48328 0
M  V30 44 H 2.4572 -0.535791 -0.392204 0
M  V30 45 H 4.9872 -1.94092 -0.647268 0
M  V30 46 H 4.9972 -2.85166 -2.91795 0
M  V30 47 H 3.6722 -3.61567 -2.05528 0
M  V30 48 H 2.2492 -2.09911 -3.08207 0
M  V30 49 N 4.4343 0.785586 -1.36625 0
M  V30 50 C 5.3973 1.87999 -1.31107 0
M  V30 51 C 6.3973 1.59316 -0.217959 0
M  V30 52 O 7.5873 1.67656 -0.472977 0
M  V30 53 C 4.7193 3.24861 -1.03334 0
M  V30 54 H 5.9123 1.94307 -2.2844 0
M  V30 55 H 3.4653 0.983813 -1.21453 0
M  V30 56 H 4.2003 3.24235 -0.0647432 0
M  V30 57 H 3.9853 3.4707 -1.82441 0
M  V30 58 H 5.4753 4.04929 -1.02088 0
M  V30 59 N 5.9124 1.20967 1.01018 0
M  V30 60 C 6.8424 0.988272 2.11555 0
M  V30 61 C 7.8234 -0.0849778 1.69888 0
M  V30 62 O 9.0084 0.0738202 1.9406 0
M  V30 63 C 6.1384 0.546528 3.42973 0
M  V30 64 C 5.0924 1.56375 3.9841 0
M  V30 65 C 4.4184 0.97842 5.25672 0
M  V30 66 C 5.7184 2.94922 4.31066 0
M  V30 67 H 7.4124 1.91276 2.30334 0
M  V30 68 H 4.9584 0.921073 1.1069 0
M  V30 69 H 6.9114 0.378839 4.19694 0
M  V30 70 H 5.6354 -0.413598 3.23971 0
M  V30 71 H 4.2944 1.71891 3.23804 0
M  V30 72 H 3.9424 0.0101688 5.02999 0
M  V30 73 H 3.6424 1.65784 5.63728 0
M  V30 74 H 5.1664 0.821939 6.05043 0
M  V30 75 H 6.5804 2.8288 4.9865 0
M  V30 76 H 4.9774 3.5983 4.80253 0
M  V30 77 H 6.0474 3.4616 3.39561 0
M  V30 78 N 7.3905 -1.2043 1.01659 0
M  V30 79 C 8.3535 -2.21433 0.591616 0
M  V30 80 C 9.3535 -1.57203 -0.338226 0
M  V30 81 O 10.5435 -1.73737 -0.126918 0
M  V30 82 C 7.6755 -3.40628 -0.136058 0
M  V30 83 H 8.8685 -2.60545 1.48514 0
M  V30 84 H 6.4215 -1.33893 0.806379 0
M  V30 85 H 7.1565 -3.07019 -1.04449 0
M  V30 86 H 6.9415 -3.88475 0.531917 0
M  V30 87 H 8.4315 -4.15475 -0.420735 0
M  V30 88 N 8.8686 -0.792821 -1.36206 0
M  V30 89 C 10.2846 -0.474903 -1.52371 0
M  V30 90 C 10.4846 1.00622 -1.74578 0
M  V30 91 O 9.5406 1.79162 -1.77924 0
M  V30 92 C 10.8536 -1.3083 -2.70747 0
M  V30 93 C 12.4016 -1.30234 -2.84619 0
M  V30 94 C 12.8766 -2.11956 -4.06004 0
M  V30 95 N 14.3676 -2.09419 -4.13156 0
M  V30 96 C 15.1026 -2.69419 -5.06163 0
M  V30 97 N 14.5986 -3.3829 -6.04592 0
M  V30 98 N 16.3916 -2.59134 -4.98804 0
M  V30 99 H 8.5426 -1.75222 -1.20046 0
M  V30 100 H 10.8056 -0.745024 -0.586211 0
M  V30 101 H 10.5116 -2.35881 -2.6087 0
M  V30 102 H 10.3856 -0.95196 -3.6499 0
M  V30 103 H 12.7726 -0.259748 -2.93955 0
M  V30 104 H 12.8536 -1.69847 -1.91274 0
M  V30 105 H 12.4976 -3.16248 -3.97429 0
M  V30 106 H 12.4276 -1.69711 -4.98503 0
M  V30 107 H 14.9186 -1.59297 -3.42685 0
M  V30 108 H 15.2316 -3.81394 -6.7213 0
M  V30 109 H 13.5766 -3.42393 -6.04807 0
M  V30 110 H 16.7676 -2.04927 -4.20859 0
M  V30 111 H 16.9406 -3.06185 -5.711 0
M  V30 112 N 10.3467 1.47872 -0.545128 0
M  V30 113 C 11.7577 1.86384 -0.108581 0
M  V30 114 C 12.1087 1.45309 1.31832 0
M  V30 115 O 11.2337 0.850641 1.9898 0
M  V30 116 C 11.8287 3.38265 -0.190274 0
M  V30 117 C 10.3877 3.75914 0.191164 0
M  V30 118 C 9.5347 2.71926 -0.543273 0
M  V30 119 H 12.4857 1.39561 -0.755537 0
M  V30 120 H 12.5067 3.75831 0.594217 0
M  V30 121 H 12.0187 3.6813 -1.2289 0
M  V30 122 H 10.1197 3.51665 1.23136 0
M  V30 123 H 10.2327 4.78836 -0.158987 0
M  V30 124 H 8.5967 2.54697 0.0122495 0
M  V30 125 H 9.3797 3.04634 -1.58282 0
M  V30 126 N 11.8248 0.280983 1.55075 0
M  V30 127 C 12.7878 -0.590896 2.21452 0
M  V30 128 C 13.7878 -1.07682 1.19421 0
M  V30 129 O 14.9778 -0.97605 1.44288 0
M  V30 130 C 12.1098 -1.81587 2.88511 0
M  V30 131 H 13.3028 -0.0112554 2.99898 0
M  V30 132 H 10.8558 0.0316438 1.56268 0
M  V30 133 H 11.5908 -2.43587 2.14093 0
M  V30 134 H 11.3758 -1.4753 3.63287 0
M  V30 135 H 12.8658 -2.43575 3.39206 0
M  V30 136 N 13.3029 -1.57598 0.00835791 0
M  V30 137 C 14.5279 -1.95617 -0.689103 0
M  V30 138 C 14.9529 -0.883753 -1.66046 0
M  V30 139 O 14.3109 0.157352 -1.80616 0
M  V30 140 C 14.3589 -3.32736 -1.38994 0
M  V30 141 O 13.4629 -3.27631 -2.50463 0
M  V30 142 H 12.8039 -0.638379 -0.182668 0
M  V30 143 H 15.3339 -2.045 0.064036 0
M  V30 144 H 15.3439 -3.68494 -1.75147 0
M  V30 145 H 14.0189 -4.1034 -0.677778 0
M  V30 146 H 12.5959 -3.03561 -2.16576 0
M  V30 147 N 14.781 0.264519 -1.55364 0
M  V30 148 C 15.744 1.31046 -1.88042 0
M  V30 149 C 16.744 1.41943 -0.755569 0
M  V30 150 O 17.934 1.40947 -1.02369 0
M  V30 151 C 15.066 2.69067 -2.09323 0
M  V30 152 H 16.259 1.03297 -2.81549 0
M  V30 153 H 13.812 0.502989 -1.47986 0
M  V30 154 H 14.547 3.01982 -1.18226 0
M  V30 155 H 14.332 2.62542 -2.91229 0
M  V30 156 H 15.822 3.44623 -2.35848 0
M  V30 157 N 16.2591 1.48442 0.529413 0
M  V30 158 C 17.2221 1.62524 1.61612 0
M  V30 159 C 18.2221 0.498509 1.52877 0
M  V30 160 O 19.4121 0.76431 1.56537 0
M  V30 161 C 16.5441 1.59597 3.01233 0
M  V30 162 H 17.7371 2.59423 1.50465 0
M  V30 163 H 15.2901 1.37047 0.751514 0
M  V30 164 H 16.0251 0.641781 3.17886 0
M  V30 165 H 15.8101 2.41397 3.08982 0
M  V30 166 H 17.3001 1.72646 3.80241 0
M  V30 167 N 17.7372 -0.778329 1.37039 0
M  V30 168 C 18.6672 -1.90546 1.34962 0
M  V30 169 C 19.6482 -1.68681 0.219274 0
M  V30 170 O 20.8332 -1.89634 0.418624 0
M  V30 171 C 17.9632 -3.27734 1.14925 0
M  V30 172 C 16.9172 -3.64147 2.24902 0
M  V30 173 C 16.2432 -4.99806 1.89996 0
M  V30 174 C 17.5432 -3.71579 3.67051 0
M  V30 175 H 19.2372 -1.92541 2.29277 0
M  V30 176 H 16.7832 -0.924948 1.10366 0
M  V30 177 H 18.7362 -4.06215 1.12104 0
M  V30 178 H 17.4602 -3.26154 0.170631 0
M  V30 179 H 16.1192 -2.8797 2.26868 0
M  V30 180 H 15.7672 -4.94759 0.906796 0
M  V30 181 H 15.4672 -5.25139 2.63634 0
M  V30 182 H 16.9912 -5.80694 1.88749 0
M  V30 183 H 18.4052 -4.40227 3.67251 0
M  V30 184 H 16.8022 -4.08405 4.39688 0
M  V30 185 H 17.8722 -2.72404 4.01154 0
M  V30 186 N 19.2153 -1.21501 -1.00376 0
M  V30 187 C 20.6313 -0.972629 -1.26539 0
M  V30 188 C 20.8313 0.340257 -1.98606 0
M  V30 189 O 19.8873 1.06561 -2.28913 0
M  V30 190 C 21.2003 -2.16404 -2.08781 0
M  V30 191 C 22.7483 -2.20643 -2.22004 0
M  V30 192 C 23.2233 -3.39306 -3.07629 0
M  V30 193 N 24.7143 -3.39401 -3.15217 0
M  V30 194 C 25.4493 -4.27867 -3.81729 0
M  V30 195 N 24.9453 -5.26533 -4.5026 0
M  V30 196 N 26.7383 -4.15672 -3.78382 0
M  V30 197 H 18.8893 -2.05929 -0.520281 0
M  V30 198 H 21.1523 -0.901803 -0.292328 0
M  V30 199 H 20.8583 -3.11554 -1.63178 0
M  V30 200 H 20.7323 -2.15567 -3.09533 0
M  V30 201 H 23.1193 -1.26048 -2.66825 0
M  V30 202 H 23.2003 -2.25523 -1.20718 0
M  V30 203 H 22.8443 -4.34195 -2.63509 0
M  V30 204 H 22.7743 -3.31665 -4.09031 0
M  V30 205 H 25.2653 -2.67997 -2.66432 0
M  V30 206 H 25.5783 -5.90337 -4.98721 0
M  V30 207 H 23.9233 -5.30457 -4.49044 0
M  V30 208 H 27.1143 -3.3785 -3.23998 0
M  V30 209 H 27.2873 -4.84825 -4.2994 0
M  V30 210 N 20.6934 1.19889 -1.02296 0
M  V30 211 C 22.1094 1.41462 -0.738954 0
M  V30 212 C 22.3094 1.89721 0.678846 0
M  V30 213 O 21.3654 2.07016 1.4457 0
M  V30 214 C 22.6784 2.43083 -1.77005 0
M  V30 215 C 24.2264 2.5684 -1.78892 0
M  V30 216 C 24.7014 3.61709 -2.80945 0
M  V30 217 N 26.1924 3.69199 -2.79725 0
M  V30 218 C 26.9274 4.50019 -3.55345 0
M  V30 219 N 26.4234 5.34592 -4.40662 0
M  V30 220 N 28.2164 4.44612 -3.43914 0
M  V30 221 H 20.3674 0.868827 -1.93817 0
M  V30 222 H 22.6304 0.44399 -0.837602 0
M  V30 223 H 22.3364 2.14636 -2.78612 0
M  V30 224 H 22.2104 3.4217 -1.58744 0
M  V30 225 H 24.5974 2.84614 -0.779674 0
M  V30 226 H 24.6784 1.57927 -2.01228 0
M  V30 227 H 24.3224 3.34678 -3.82038 0
M  V30 228 H 24.2524 4.60259 -2.5587 0
M  V30 229 H 26.7434 3.08794 -2.17842 0
M  V30 230 H 27.0564 5.93363 -4.95116 0
M  V30 231 H 25.4014 5.34073 -4.44737 0
M  V30 232 H 28.5924 3.7758 -2.76679 0
M  V30 233 H 28.7654 5.0736 -4.031 0
M  V30 234 N 22.1715 0.800033 1.35784 0
M  V30 235 C 23.3965 0.388511 2.03729 0
M  V30 236 C 23.8215 -0.990481 1.5991 0
M  V30 237 O 23.1795 -1.64013 0.772612 0
M  V30 238 C 23.2275 0.4726 3.5749 0
M  V30 239 O 22.3315 -0.51646 4.09153 0
M  V30 240 H 21.6725 0.163271 0.643614 0
M  V30 241 H 24.2025 1.0841 1.73518 0
M  V30 242 H 24.2125 0.34003 4.06581 0
M  V30 243 H 22.8875 1.47848 3.88734 0
M  V30 244 H 21.4645 -0.344673 3.71304 0
M  V30 245 N 23.6496 -1.47581 0.552962 0
M  V30 246 C 24.8966 -2.02482 0.0273243 0
M  V30 247 C 25.2246 -1.42776 -1.32081 0
M  V30 248 O 24.4796 -0.571393 -1.87173 0
M  V30 249 C 24.7786 -3.57199 -0.119728 0
M  V30 250 C 24.4446 -4.35804 1.15697 0
M  V30 251 C 23.1066 -4.57 1.50681 0
M  V30 252 C 25.4586 -4.81167 2.00319 0
M  V30 253 C 22.7866 -5.20807 2.70142 0
M  V30 254 C 25.1386 -5.46293 3.18978 0
M  V30 255 C 23.8026 -5.65722 3.54281 0
M  V30 256 H 23.0726 -0.740933 0.00999866 0
M  V30 257 H 25.7196 -1.77302 0.72362 0
M  V30 258 H 24.0246 -3.81348 -0.89896 0
M  V30 259 H 25.7216 -3.97324 -0.541718 0
M  V30 260 H 22.3116 -4.19582 0.874561 0
M  V30 261 H 26.4956 -4.64574 1.74599 0
M  V30 262 H 21.7516 -5.34045 2.97668 0
M  V30 263 H 25.9256 -5.80407 3.84838 0
M  V30 264 H 23.5526 -6.14936 4.46942 0
M  V30 265 N 25.1277 -0.289203 -1.54924 0
M  V30 266 C 26.3527 0.329299 -2.04769 0
M  V30 267 C 26.7777 1.4763 -1.16564 0
M  V30 268 O 26.1357 1.80527 -0.167186 0
M  V30 269 C 26.1837 0.774438 -3.52186 0
M  V30 270 O 25.2877 1.88038 -3.67036 0
M  V30 271 H 24.6287 0.0659259 -0.660719 0
M  V30 272 H 27.1587 -0.42761 -2.00082 0
M  V30 273 H 27.1687 1.06642 -3.93816 0
M  V30 274 H 25.8437 -0.0646707 -4.1585 0
M  V30 275 H 24.4207 1.58985 -3.3731 0
M  V30 276 N 26.6058 1.57591 -0.0167156 0
M  V30 277 C 27.8338 1.95575 0.675128 0
M  V30 278 C 28.2488 0.892542 1.6637 0
M  V30 279 O 27.6058 -0.126912 1.82058 0
M  V30 280 C 27.6568 3.33608 1.39239 0
M  V30 281 O 27.3778 4.3585 0.443444 0
M  V30 282 C 28.8788 3.86151 2.17721 0
M  V30 283 H 26.0988 0.644423 0.186978 0
M  V30 284 H 28.6428 2.0437 -0.0728 0
M  V30 285 H 26.7978 3.2607 2.09182 0
M  V30 286 H 27.2118 5.158 0.951358 0
M  V30 287 H 28.6858 4.85114 2.63379 0
M  V30 288 H 29.1628 3.19738 3.01105 0
M  V30 289 H 29.7688 3.96918 1.52761 0
M  V30 290 N 28.0839 -0.256276 1.55502 0
M  V30 291 C 29.3089 -1.00766 1.81276 0
M  V30 292 C 29.7339 -1.78524 0.59252 0
M  V30 293 O 29.0919 -1.75413 -0.45827 0
M  V30 294 C 29.1399 -1.92869 3.04687 0
M  V30 295 O 28.2439 -3.019 2.80945 0
M  V30 296 H 27.5849 -0.287224 0.598664 0
M  V30 297 H 30.1149 -0.280109 2.02674 0
M  V30 298 H 30.1249 -2.34511 3.33869 0
M  V30 299 H 28.7999 -1.35689 3.93143 0
M  V30 300 H 27.3769 -2.64454 2.62904 0
M  V30 301 N 29.562 -1.4872 -0.521534 0
M  V30 302 C 30.525 -1.63379 -1.60748 0
M  V30 303 C 31.525 -0.50661 -1.52611 0
M  V30 304 O 32.715 -0.772601 -1.5613 0
M  V30 305 C 29.847 -1.61192 -3.00383 0
M  V30 306 H 31.04 -2.60217 -1.49087 0
M  V30 307 H 28.593 -1.37444 -0.744235 0
M  V30 308 H 29.328 -0.65863 -3.17541 0
M  V30 309 H 29.113 -2.43032 -3.07698 0
M  V30 310 H 30.603 -1.7466 -3.7932 0
M  V30 311 N 31.0401 0.771051 -1.3745 0
M  V30 312 C 31.9721 1.89352 -1.29146 0
M  V30 313 C 32.9851 1.61477 -0.207124 0
M  V30 314 O 34.1741 1.72382 -0.463324 0
M  V30 315 C 31.2741 3.24596 -0.974195 0
M  V30 316 C 30.4471 3.80111 -2.16413 0
M  V30 317 C 29.5061 4.93832 -1.81703 0
M  V30 318 O 28.5321 5.09382 -2.54006 0
M  V30 319 N 29.7341 5.75483 -0.761573 0
M  V30 320 H 32.4991 1.96991 -2.25864 0
M  V30 321 H 30.0601 0.950191 -1.31084 0
M  V30 322 H 32.0521 3.98193 -0.722828 0
M  V30 323 H 30.6221 3.12454 -0.0955527 0
M  V30 324 H 29.8421 2.98284 -2.57721 0
M  V30 325 H 31.1301 4.13932 -2.95867 0
M  V30 326 H 30.5281 5.65469 -0.161609 0
M  V30 327 H 29.0851 6.49302 -0.570064 0
M  V30 328 N 32.5182 1.22032 0.997298 0
M  V30 329 C 33.4662 0.983634 2.10778 0
M  V30 330 C 34.4602 -0.0717564 1.69248 0
M  V30 331 O 35.6662 0.080304 1.79821 0
M  V30 332 H 32.0412 0.300877 0.689186 0
M  V30 333 H 34.0122 1.92606 2.27916 0
M  V30 334 C 32.7612 0.57326 3.42942 0
M  V30 335 H 32.0842 1.37702 3.75338 0
M  V30 336 H 33.5242 0.447031 4.21637 0
M  V30 337 C 31.9832 -0.7167 3.29188 0
M  V30 338 O 32.5132 -1.77027 3.60589 0
M  V30 339 N 30.7192 -0.686167 2.82383 0
M  V30 340 H 30.2662 0.171507 2.57028 0
M  V30 341 H 30.2242 -1.54955 2.73562 0
M  V30 342 N 33.9963 -1.19345 1.0293 0
M  V30 343 C 34.9443 -2.24621 0.604001 0
M  V30 344 C 35.9383 -1.65452 -0.363587 0
M  V30 345 O 37.1443 -1.78497 -0.23212 0
M  V30 346 H 33.5193 -0.730858 0.177061 0
M  V30 347 H 35.4903 -2.5781 1.50255 0
M  V30 348 C 34.2393 -3.47688 -0.0289127 0
M  V30 349 H 33.5623 -3.93505 0.706651 0
M  V30 350 H 35.0023 -4.23011 -0.289432 0
M  V30 351 C 33.4613 -3.11817 -1.2756 0
M  V30 352 O 33.9913 -3.2451 -2.36762 0
M  V30 353 N 32.1973 -2.66246 -1.16453 0
M  V30 354 H 31.7443 -2.56118 -0.275914 0
M  V30 355 H 31.7023 -2.42617 -1.99961 0
M  V30 356 N 35.4744 -0.807222 -1.35358 0
M  V30 357 C 36.4374 -0.223665 -2.28106 0
M  V30 358 C 37.4374 0.589354 -1.4961 0
M  V30 359 O 38.6274 0.407745 -1.69361 0
M  V30 360 C 35.7594 0.688149 -3.33882 0
M  V30 361 H 36.9524 -1.04169 -2.81227 0
M  V30 362 H 34.5054 -0.577921 -1.45223 0
M  V30 363 H 35.2404 1.52984 -2.85948 0
M  V30 364 H 35.0254 0.10687 -3.91954 0
M  V30 365 H 36.5154 1.09075 -4.03104 0
M  V30 366 N 36.9525 1.47285 -0.560781 0
M  V30 367 C 37.8995 2.30058 0.18491 0
M  V30 368 C 38.8695 1.39281 0.904986 0
M  V30 369 O 40.0545 1.68241 0.899979 0
M  V30 370 C 37.1945 3.23317 1.20666 0
M  V30 371 C 36.3075 4.29186 0.492285 0
M  V30 372 C 35.4425 5.09592 1.49964 0
M  V30 373 C 34.4815 6.07232 0.770439 0
M  V30 374 N 33.6185 6.80584 1.72479 0
M  V30 375 H 38.4585 2.93302 -0.527048 0
M  V30 376 H 35.9955 1.44568 -0.271738 0
M  V30 377 H 37.9535 3.75811 1.81168 0
M  V30 378 H 36.5835 2.61929 1.88661 0
M  V30 379 H 35.6355 3.7972 -0.227333 0
M  V30 380 H 36.9475 4.98738 -0.0787929 0
M  V30 381 H 36.1015 5.66254 2.17809 0
M  V30 382 H 34.8405 4.3995 2.10464 0
M  V30 383 H 33.8455 5.49745 0.0780846 0
M  V30 384 H 35.0705 6.78884 0.171134 0
M  V30 385 H 33.0165 6.1367 2.3183 0
M  V30 386 H 32.9335 7.46319 1.20596 0
M  V30 387 H 34.2015 7.41818 2.39428 0
M  V30 388 N 38.4306 0.297415 1.54768 0
M  V30 389 C 39.6766 -0.313376 2.00364 0
M  V30 390 C 40.0096 -1.53815 1.18553 0
M  V30 391 O 39.2846 -1.92739 0.261103 0
M  V30 392 C 39.5676 -0.673525 3.53745 0
M  V30 393 C 39.4206 0.560133 4.46299 0
M  V30 394 C 40.7396 -1.50143 4.13697 0
M  V30 395 H 37.8586 -0.112428 0.728374 0
M  V30 396 H 40.5006 0.4088 1.8555 0
M  V30 397 H 38.6506 -1.28881 3.665 0
M  V30 398 H 40.3226 1.19863 4.45455 0
M  V30 399 H 38.5656 1.19405 4.17043 0
M  V30 400 H 39.2366 0.26405 5.51368 0
M  V30 401 H 41.7126 -0.981588 4.04356 0
M  V30 402 H 40.5886 -1.72221 5.21182 0
M  V30 403 H 40.8496 -2.48952 3.65343 0
M  V30 404 N 39.9087 -1.5758 0.0250728 0
M  V30 405 C 40.8717 -2.08896 -0.943139 0
M  V30 406 C 41.8717 -1.00321 -1.25668 0
M  V30 407 O 43.0617 -1.26495 -1.19769 0
M  V30 408 C 40.1937 -2.55143 -2.26086 0
M  V30 409 H 41.3867 -2.95723 -0.498775 0
M  V30 410 H 38.9397 -1.54703 -0.222888 0
M  V30 411 H 39.6747 -1.71633 -2.75159 0
M  V30 412 H 39.4597 -3.34461 -2.04641 0
M  V30 413 H 40.9497 -2.95083 -2.95492 0
M  V30 414 N 41.3868 0.248026 -1.55636 0
M  V30 415 C 42.6328 0.97767 -1.77678 0
M  V30 416 C 42.9658 1.85016 -0.590135 0
M  V30 417 O 42.2408 1.90095 0.411611 0
M  V30 418 C 42.5238 1.83914 -3.09593 0
M  V30 419 C 42.3768 0.99491 -4.38659 0
M  V30 420 C 43.6958 2.82183 -3.37729 0
M  V30 421 H 40.8148 0.354005 -0.646413 0
M  V30 422 H 43.4568 0.248253 -1.88371 0
M  V30 423 H 41.6068 2.46104 -3.00608 0
M  V30 424 H 43.2788 0.391789 -4.59633 0
M  V30 425 H 41.5218 0.299231 -4.32767 0
M  V30 426 H 42.1928 1.63145 -5.2734 0
M  V30 427 H 44.6688 2.30129 -3.4667 0
M  V30 428 H 43.5448 3.39582 -4.31249 0
M  V30 429 H 43.8058 3.58588 -2.58586 0
M  V30 430 N 42.8649 1.48995 0.513639 0
M  V30 431 C 43.7949 1.67636 1.62544 0
M  V30 432 C 44.7759 0.525087 1.61793 0
M  V30 433 O 45.9609 0.759502 1.78732 0
M  V30 434 C 43.0909 1.73114 3.01079 0
M  V30 435 C 42.0449 2.87905 3.16693 0
M  V30 436 C 41.3709 2.78486 4.56453 0
M  V30 437 C 42.6709 4.29005 2.97913 0
M  V30 438 H 44.3649 2.60716 1.47198 0
M  V30 439 H 41.9109 1.25465 0.706714 0
M  V30 440 H 43.8639 1.84742 3.78746 0
M  V30 441 H 42.5879 0.766241 3.17484 0
M  V30 442 H 41.2469 2.75859 2.41448 0
M  V30 443 H 40.8949 1.7993 4.69717 0
M  V30 444 H 40.5949 3.55523 4.67843 0
M  V30 445 H 42.1189 2.92104 5.36197 0
M  V30 446 H 43.5329 4.41798 3.65359 0
M  V30 447 H 41.9299 5.07166 3.20785 0
M  V30 448 H 42.9999 4.44329 1.94165 0
M  V30 449 N 44.343 -0.763751 1.37857 0
M  V30 450 C 45.591 -1.51957 1.33243 0
M  V30 451 C 45.912 -1.94835 -0.0801709 0
M  V30 452 O 45.182 -1.66894 -1.02582 0
M  V30 453 H 43.762 -0.563626 0.49024 0
M  V30 454 H 46.424 -0.908504 1.7243 0
M  V30 455 H 45.52 -2.41523 1.97669 0
M  V30 456 N 45.8211 -1.22559 -0.990812 0
M  V30 457 C 46.7841 -0.998863 -2.0629 0
M  V30 458 C 47.7841 0.0354834 -1.60761 0
M  V30 459 O 48.9741 -0.203231 -1.7301 0
M  V30 460 C 46.1061 -0.509203 -3.37076 0
M  V30 461 H 47.2991 -1.95014 -2.27837 0
M  V30 462 H 44.8521 -1.04456 -1.16269 0
M  V30 463 H 45.5871 0.446335 -3.21214 0
M  V30 464 H 45.3721 -1.25547 -3.71457 0
M  V30 465 H 46.8621 -0.370888 -4.1595 0
M  V30 466 N 47.2992 1.18797 -1.03562 0
M  V30 467 C 48.5242 1.9314 -0.755764 0
M  V30 468 C 48.9492 1.7537 0.68022 0
M  V30 469 O 48.3072 1.06046 1.47051 0
M  V30 470 C 48.3552 3.42747 -1.12058 0
M  V30 471 O 47.4592 4.11683 -0.243124 0
M  V30 472 H 46.8002 0.602724 -0.278604 0
M  V30 473 H 49.3302 1.50678 -1.3841 0
M  V30 474 H 49.3402 3.93437 -1.08035 0
M  V30 475 H 48.0152 3.55002 -2.16672 0
M  V30 476 H 46.5922 3.71323 -0.342539 0
M  V30 477 N 48.7773 0.814389 1.34928 0
M  V30 478 C 50.0253 0.397636 1.9815 0
M  V30 479 C 50.3463 -1.04069 1.64908 0
M  V30 480 O 49.6163 -1.72121 0.93548 0
M  V30 481 H 48.1963 0.144043 0.732981 0
M  V30 482 H 50.8583 1.04195 1.6471 0
M  V30 483 H 49.9543 0.509688 3.0791 0
M  V30 484 N 50.2554 -1.46986 0.568584 0
M  V30 485 C 51.5034 -2.02041 0.0487022 0
M  V30 486 C 51.8244 -1.44408 -1.31039 0
M  V30 487 O 51.0944 -0.623477 -1.85714 0
M  V30 488 H 49.6744 -0.746849 0.015014 0
M  V30 489 H 52.3364 -1.80257 0.741168 0
M  V30 490 H 51.4324 -3.12085 -0.0308961 0
M  V30 491 N 51.7335 -0.305618 -1.54608 0
M  V30 492 C 52.9825 0.303098 -1.9941 0
M  V30 493 C 53.2955 1.54648 -1.19764 0
M  V30 494 O 54.5015 2.23007 -1.54855 0
M  V30 495 C 52.9575 0.590588 -3.55021 0
M  V30 496 C 52.5655 -0.634719 -4.43481 0
M  V30 497 C 54.3095 1.16025 -4.08336 0
M  V30 498 C 52.2165 -0.320126 -5.90533 0
M  V30 499 H 51.1465 0.117031 -0.744862 0
M  V30 500 H 53.7975 -0.415045 -1.78745 0
M  V30 501 H 52.1795 1.36845 -3.71604 0
M  V30 502 H 53.3535 -1.41079 -4.38672 0
M  V30 503 H 51.6685 -1.12333 -4.00962 0
M  V30 504 H 54.2655 1.40994 -5.15776 0
M  V30 505 H 54.6085 2.10397 -3.5922 0
M  V30 506 H 55.1415 0.443985 -3.95315 0
M  V30 507 H 51.8805 -1.23254 -6.43808 0
M  V30 508 H 51.4005 0.418579 -5.98338 0
M  V30 509 H 53.0795 0.0766241 -6.46955 0
M  V30 510 N 53.2116 1.57565 -0.0334293 0
M  V30 511 C 54.4596 1.91598 0.642999 0
M  V30 512 C 54.7806 0.910847 1.7242 0
M  V30 513 O 54.0506 -0.0469931 1.95844 0
M  V30 514 H 52.6306 0.707228 0.240496 0
M  V30 515 H 55.2926 1.94726 -0.0822488 0
M  V30 516 H 54.3886 2.92336 1.09298 0
M  V30 517 N 54.6897 -0.239769 1.55765 0
M  V30 518 C 55.6217 -1.32001 1.87372 0
M  V30 519 C 56.6347 -1.43944 0.760522 0
M  V30 520 O 57.8237 -1.45167 1.0387 0
M  V30 521 C 54.9237 -2.69779 2.05115 0
M  V30 522 C 54.0967 -2.80014 3.36022 0
M  V30 523 C 53.1557 -3.98684 3.4342 0
M  V30 524 O 52.1817 -3.87877 4.16582 0
M  V30 525 N 53.3837 -5.12176 2.73232 0
M  V30 526 H 56.1487 -1.0522 2.80622 0
M  V30 527 H 53.7097 -0.429857 1.56089 0
M  V30 528 H 55.7017 -3.47517 2.07399 0
M  V30 529 H 54.2717 -2.89237 1.18577 0
M  V30 530 H 53.4917 -1.88896 3.45994 0
M  V30 531 H 54.7797 -2.83808 4.22292 0
M  V30 532 H 54.1777 -5.2385 2.13536 0
M  V30 533 H 52.7347 -5.88022 2.81199 0
M  V30 534 N 56.1678 -1.49265 -0.50573 0
M  V30 535 C 57.5788 -1.51769 -1.08734 0
M  V30 536 C 57.9298 -0.301192 -1.93874 0
M  V30 537 O 57.0548 0.589456 -2.08217 0
M  V30 538 C 57.6498 -2.75017 -1.97867 0
M  V30 539 C 56.2088 -2.80314 -2.51199 0
M  V30 540 C 55.3558 -2.4562 -1.28709 0
M  V30 541 H 58.3068 -1.56031 -0.289855 0
M  V30 542 H 58.3278 -2.5491 -2.82491 0
M  V30 543 H 57.8398 -3.63539 -1.35873 0
M  V30 544 H 55.9408 -1.96061 -3.16845 0
M  V30 545 H 56.0538 -3.82366 -2.88675 0
M  V30 546 H 54.4178 -1.97297 -1.61078 0
M  V30 547 H 55.2008 -3.36411 -0.6843 0
M  V30 548 N 57.6459 0.756429 -1.3826 0
M  V30 549 C 58.5759 1.88374 -1.37976 0
M  V30 550 C 59.5569 1.68311 -0.246082 0
M  V30 551 O 60.7419 1.88944 -0.44874 0
M  V30 552 C 57.8719 3.25864 -1.20125 0
M  V30 553 C 56.8259 3.60523 -2.30666 0
M  V30 554 C 56.1519 4.9672 -1.97923 0
M  V30 555 C 57.4519 3.65692 -3.72916 0
M  V30 556 H 59.1459 1.88869 -2.32312 0
M  V30 557 H 56.6919 0.907272 -1.11824 0
M  V30 558 H 58.6449 4.0438 -1.18552 0
M  V30 559 H 57.3689 3.25841 -0.222498 0
M  V30 560 H 56.0279 2.84324 -2.3142 0
M  V30 561 H 55.6759 4.93253 -0.985393 0
M  V30 562 H 55.3759 5.20878 -2.71955 0
M  V30 563 H 56.8999 5.77618 -1.97964 0
M  V30 564 H 58.3139 4.34328 -3.74208 0
M  V30 565 H 56.7109 4.01358 -4.4613 0
M  V30 566 H 57.7809 2.65987 -4.05436 0
M  V30 567 N 59.124 1.23083 0.984299 0
M  V30 568 C 60.349 1.088 1.76571 0
M  V30 569 C 60.774 -0.356657 1.84688 0
M  V30 570 O 60.132 -1.25788 1.30565 0
M  V30 571 C 60.18 1.71371 3.17277 0
M  V30 572 O 59.284 0.973213 4.00752 0
M  V30 573 H 58.625 0.381599 0.543395 0
M  V30 574 H 61.155 1.63057 1.23587 0
M  V30 575 H 61.165 1.76449 3.67872 0
M  V30 576 H 59.84 2.76493 3.10684 0
M  V30 577 H 58.417 0.999078 3.59267 0
M  V30 578 N 60.6021 -1.18246 1.0419 0
M  V30 579 C 61.5321 -2.24127 0.654914 0
M  V30 580 C 62.5131 -1.66617 -0.342451 0
M  V30 581 O 63.6981 -1.92924 -0.222277 0
M  V30 582 C 60.8281 -3.47295 0.0183757 0
M  V30 583 C 59.7821 -4.17563 0.939414 0
M  V30 584 C 59.1081 -5.34438 0.167286 0
M  V30 585 C 60.4081 -4.70917 2.25908 0
M  V30 586 H 62.1021 -2.56753 1.54007 0
M  V30 587 H 59.6481 -1.23414 0.74195 0
M  V30 588 H 61.6011 -4.20572 -0.264082 0
M  V30 589 H 60.3251 -3.13907 -0.901664 0
M  V30 590 H 58.9841 -3.46186 1.20628 0
M  V30 591 H 58.6321 -4.97298 -0.7552 0
M  V30 592 H 58.3321 -5.82388 0.780901 0
M  V30 593 H 59.8561 -6.10504 -0.108125 0
M  V30 594 H 61.2701 -5.35882 2.03724 0
M  V30 595 H 59.6671 -5.29406 2.82577 0
M  V30 596 H 60.7371 -3.88272 2.9047 0
M  V30 597 N 62.0802 -0.821533 -1.34494 0
M  V30 598 C 63.0102 -0.257138 -2.3208 0
M  V30 599 C 63.9912 0.625645 -1.58176 0
M  V30 600 O 65.1762 0.552811 -1.86166 0
M  V30 601 C 62.3062 0.582958 -3.42372 0
M  V30 602 C 61.2602 -0.202571 -4.2752 0
M  V30 603 C 60.5862 0.760179 -5.29269 0
M  V30 604 C 61.8862 -1.40998 -5.02908 0
M  V30 605 H 63.5802 -1.07247 -2.79532 0
M  V30 606 H 61.1262 -0.517163 -1.34393 0
M  V30 607 H 63.0792 0.987972 -4.09655 0
M  V30 608 H 61.8032 1.43133 -2.93565 0
M  V30 609 H 60.4622 -0.588936 -3.61838 0
M  V30 610 H 60.1102 1.60447 -4.76724 0
M  V30 611 H 59.8102 0.238809 -5.87115 0
M  V30 612 H 61.3342 1.16308 -5.9942 0
M  V30 613 H 62.7482 -1.07905 -5.63054 0
M  V30 614 H 61.1452 -1.86689 -5.70322 0
M  V30 615 H 62.2152 -2.1889 -4.32684 0
M  V30 616 N 63.5583 1.46682 -0.576371 0
M  V30 617 C 64.4883 2.33028 0.148397 0
M  V30 618 C 65.4693 1.44961 0.889956 0
M  V30 619 O 66.6543 1.73789 0.866662 0
M  V30 620 C 63.7843 3.27117 1.1667 0
M  V30 621 C 62.7383 4.24575 0.540386 0
M  V30 622 C 62.0643 5.08126 1.6647 0
M  V30 623 C 63.3643 5.19722 -0.518331 0
M  V30 624 H 65.0583 2.93875 -0.572509 0
M  V30 625 H 62.6043 1.41315 -0.276768 0
M  V30 626 H 64.5573 3.86374 1.68204 0
M  V30 627 H 63.2813 2.64364 1.9178 0
M  V30 628 H 61.9403 3.66571 0.0461769 0
M  V30 629 H 61.5883 4.41762 2.40531 0
M  V30 630 H 61.2883 5.74122 1.25131 0
M  V30 631 H 62.8123 5.70246 2.18293 0
M  V30 632 H 64.2263 5.73232 -0.0883058 0
M  V30 633 H 62.6233 5.94026 -0.851679 0
M  V30 634 H 63.6933 4.64037 -1.40703 0
M  V30 635 N 65.0364 0.313813 1.54444 0
M  V30 636 C 65.9834 -0.55655 2.23989 0
M  V30 637 C 66.9534 -1.11943 1.22711 0
M  V30 638 O 68.1384 -1.16158 1.51367 0
M  V30 639 C 65.2784 -1.71635 2.99392 0
M  V30 640 C 64.3914 -1.18364 4.15468 0
M  V30 641 C 63.5264 -2.30834 4.78424 0
M  V30 642 C 62.5654 -1.74762 5.86622 0
M  V30 643 N 61.7024 -2.80855 6.43479 0
M  V30 644 H 66.5424 0.0430893 2.97969 0
M  V30 645 H 64.0794 0.0330359 1.47063 0
M  V30 646 H 66.0374 -2.39868 3.41349 0
M  V30 647 H 64.6674 -2.28742 2.27765 0
M  V30 648 H 63.7194 -0.393163 3.78363 0
M  V30 649 H 65.0314 -0.733262 4.93381 0
M  V30 650 H 64.1854 -3.0699 5.23299 0
M  V30 651 H 62.9244 -2.79204 3.99871 0
M  V30 652 H 61.9294 -0.970995 5.41158 0
M  V30 653 H 63.1544 -1.2728 6.67066 0
M  V30 654 H 61.1004 -3.28535 5.67804 0
M  V30 655 H 61.0174 -2.40351 7.16776 0
M  V30 656 H 62.2854 -3.5687 6.93011 0
M  V30 657 N 66.5145 -1.57545 0.0417849 0
M  V30 658 C 67.4625 -2.12148 -0.953723 0
M  V30 659 C 68.4565 -1.05104 -1.32852 0
M  V30 660 O 69.6625 -1.23524 -1.30927 0
M  V30 661 H 66.0375 -0.677957 -0.325389 0
M  V30 662 H 68.0085 -2.94707 -0.467991 0
M  V30 663 C 66.7575 -2.6739 -2.22257 0
M  V30 664 H 66.0805 -3.49413 -1.94295 0
M  V30 665 H 67.5205 -3.09227 -2.90094 0
M  V30 666 C 65.9795 -1.60723 -2.96091 0
M  V30 667 O 66.5095 -1.01449 -3.88679 0
M  V30 668 N 64.7155 -1.32466 -2.58652 0
M  V30 669 H 64.2625 -1.80856 -1.83437 0
M  V30 670 H 64.2205 -0.61325 -3.08361 0
M  V30 671 N 67.9926 0.231505 -1.5589 0
M  V30 672 C 69.2176 0.978689 -1.82856 0
M  V30 673 C 69.6426 1.77559 -0.620846 0
M  V30 674 O 69.0006 1.76119 0.430305 0
M  V30 675 C 69.0486 1.87997 -3.07716 0
M  V30 676 O 68.1526 2.97393 -2.85712 0
M  V30 677 H 67.4936 0.277663 -0.603158 0
M  V30 678 H 70.0236 0.24783 -2.03093 0
M  V30 679 H 70.0336 2.2917 -3.37558 0
M  V30 680 H 68.7086 1.29417 -3.95252 0
M  V30 681 H 67.2856 2.60238 -2.67078 0
M  V30 682 N 69.4707 1.49531 0.497807 0
M  V30 683 C 70.8817 1.52344 1.07927 0
M  V30 684 C 71.2327 0.311469 1.93712 0
M  V30 685 O 70.3577 -0.578405 2.08527 0
M  V30 686 C 70.9527 2.76062 1.96405 0
M  V30 687 C 69.5117 2.81643 2.49709 0
M  V30 688 C 68.6587 2.46299 1.27404 0
M  V30 689 H 71.6097 1.56182 0.281576 0
M  V30 690 H 71.6307 2.56405 2.81135 0
M  V30 691 H 71.1427 3.64254 1.33943 0
M  V30 692 H 69.2437 1.97739 3.15801 0
M  V30 693 H 69.3567 3.83891 2.86643 0
M  V30 694 H 67.7207 1.98148 1.60029 0
M  V30 695 H 68.5037 3.36769 0.66645 0
M  V30 696 N 70.9488 -0.749086 1.3866 0
M  V30 697 C 71.8788 -1.8764 1.38973 0
M  V30 698 C 72.8598 -1.68178 0.255004 0
M  V30 699 O 74.0448 -1.88704 0.458754 0
M  V30 700 C 71.1748 -3.25222 1.21851 0
M  V30 701 C 70.1288 -3.59295 2.32575 0
M  V30 702 C 69.4548 -4.95663 2.00555 0
M  V30 703 C 70.7548 -3.63709 3.7485 0
M  V30 704 H 72.4488 -1.87635 2.3331 0
M  V30 705 H 69.9948 -0.901329 1.12303 0
M  V30 706 H 71.9478 -4.03746 1.20695 0
M  V30 707 H 70.6718 -3.25719 0.239775 0
M  V30 708 H 69.3308 -2.83093 2.32925 0
M  V30 709 H 68.9788 -4.92724 1.01154 0
M  V30 710 H 68.6788 -5.19429 2.74714 0
M  V30 711 H 70.2028 -5.7656 2.01024 0
M  V30 712 H 71.6168 -4.32338 3.76506 0
M  V30 713 H 70.0138 -3.98986 4.48252 0
M  V30 714 H 71.0838 -2.63834 4.06841 0
M  V30 715 N 72.4269 -1.23603 -0.977757 0
M  V30 716 C 73.6729 -1.07129 -1.72195 0
M  V30 717 C 74.0059 0.390501 -1.90233 0
M  V30 718 O 73.2809 1.28902 -1.45653 0
M  V30 719 C 73.5639 -1.80031 -3.11867 0
M  V30 720 C 73.4169 -3.33899 -3.01383 0
M  V30 721 C 74.7359 -1.56492 -4.11337 0
M  V30 722 H 71.8549 -0.390571 -0.624999 0
M  V30 723 H 74.4969 -1.52142 -1.13811 0
M  V30 724 H 72.6469 -1.41768 -3.6171 0
M  V30 725 H 74.3189 -3.81699 -2.59043 0
M  V30 726 H 72.5619 -3.62796 -2.37827 0
M  V30 727 H 73.2329 -3.801 -4.00285 0
M  V30 728 H 75.7089 -1.89757 -3.70313 0
M  V30 729 H 74.5849 -2.09973 -5.07151 0
M  V30 730 H 74.8459 -0.500874 -4.39254 0
M  V30 731 N 73.905 1.17692 -1.04816 0
M  V30 732 C 75.13 1.92327 -0.776207 0
M  V30 733 C 75.555 1.76082 0.661581 0
M  V30 734 O 74.913 1.076 1.45917 0
M  V30 735 C 74.961 3.41539 -1.15687 0
M  V30 736 O 74.065 4.11402 -0.286775 0
M  V30 737 H 73.406 0.599735 -0.284981 0
M  V30 738 H 75.936 1.49201 -1.4 0
M  V30 739 H 75.946 3.92269 -1.12202 0
M  V30 740 H 74.621 3.52684 -2.20425 0
M  V30 741 H 73.198 3.70939 -0.381903 0
M  V30 742 N 75.3831 0.828654 1.34056 0
M  V30 743 C 76.7991 0.515135 1.51058 0
M  V30 744 C 76.9991 -0.959581 1.77184 0
M  V30 745 O 76.0551 -1.74382 1.82612 0
M  V30 746 C 77.3681 1.37963 2.67183 0
M  V30 747 C 78.9161 1.37735 2.81066 0
M  V30 748 C 79.3911 2.22645 4.00241 0
M  V30 749 N 80.8821 2.203 4.07458 0
M  V30 750 C 81.6171 2.82744 4.98842 0
M  V30 751 N 81.1131 3.54201 5.9541 0
M  V30 752 N 82.9061 2.72268 4.91759 0
M  V30 753 H 75.0571 1.78343 1.15358 0
M  V30 754 H 77.3201 0.760304 0.566252 0
M  V30 755 H 77.0261 2.42714 2.54525 0
M  V30 756 H 76.9001 1.0484 3.62338 0
M  V30 757 H 79.2871 0.337593 2.93163 0
M  V30 758 H 79.3681 1.74859 1.86703 0
M  V30 759 H 79.0121 3.26674 3.88905 0
M  V30 760 H 78.9421 1.82869 4.93829 0
M  V30 761 H 81.4331 1.68327 3.38341 0
M  V30 762 H 81.7461 3.9908 6.61782 0
M  V30 763 H 80.0911 3.58308 5.95517 0
M  V30 764 H 83.2821 2.16014 4.15278 0
M  V30 765 H 83.4551 3.21219 5.62781 0
M  V30 766 N 76.8612 -1.46375 0.584142 0
M  V30 767 C 77.7912 -2.33103 -0.136037 0
M  V30 768 C 78.7722 -1.45431 -0.882255 0
M  V30 769 O 79.9572 -1.74246 -0.857434 0
M  V30 770 C 77.0872 -3.27731 -1.14933 0
M  V30 771 C 76.0412 -4.24855 -0.517862 0
M  V30 772 C 75.3672 -5.09001 -1.63773 0
M  V30 773 C 76.6672 -5.19439 0.545886 0
M  V30 774 H 78.3612 -2.93568 0.588086 0
M  V30 775 H 75.9072 -1.41166 0.284259 0
M  V30 776 H 77.8602 -3.87261 -1.66153 0
M  V30 777 H 76.5842 -2.65377 -1.90375 0
M  V30 778 H 75.2432 -3.6659 -0.0267361 0
M  V30 779 H 74.8912 -4.43031 -2.38185 0
M  V30 780 H 74.5912 -5.74777 -1.22085 0
M  V30 781 H 76.1152 -5.71396 -2.15266 0
M  V30 782 H 77.5292 -5.73177 0.118704 0
M  V30 783 H 75.9262 -5.93566 0.88317 0
M  V30 784 H 76.9962 -4.63285 1.43162 0
M  V30 785 N 78.3393 -0.321999 -1.54275 0
M  V30 786 C 79.5673 0.283052 -2.04955 0
M  V30 787 C 79.9823 1.45904 -1.19823 0
M  V30 788 O 79.3393 1.81063 -0.228545 0
M  V30 789 C 79.3903 0.719028 -3.54277 0
M  V30 790 O 79.1113 -0.410175 -4.36176 0
M  V30 791 C 80.6123 1.38705 -4.21041 0
M  V30 792 H 77.8323 0.0584616 -0.668448 0
M  V30 793 H 80.3763 -0.467734 -1.99079 0
M  V30 794 H 78.5313 1.41979 -3.60445 0
M  V30 795 H 78.9453 -0.0669416 -5.24457 0
M  V30 796 H 80.4193 1.64306 -5.2698 0
M  V30 797 H 80.8963 2.33385 -3.72059 0
M  V30 798 H 81.5023 0.728906 -4.19007 0
M  V30 799 N 79.8174 1.5752 -0.0501392 0
M  V30 800 C 80.7474 2.14502 0.922566 0
M  V30 801 C 81.7284 1.06642 1.3252 0
M  V30 802 O 82.9134 1.34577 1.4001 0
M  V30 803 C 80.0434 2.68916 2.19776 0
M  V30 804 C 78.9974 3.8175 1.93523 0
M  V30 805 C 78.3234 4.22677 3.27487 0
M  V30 806 C 79.6234 5.06932 1.25765 0
M  V30 807 H 81.3174 2.9603 0.447952 0
M  V30 808 H 78.8634 1.42401 0.214024 0
M  V30 809 H 80.8164 3.07419 2.88222 0
M  V30 810 H 79.5404 1.84578 2.69441 0
M  V30 811 H 78.1994 3.43718 1.27489 0
M  V30 812 H 77.8474 3.35291 3.74952 0
M  V30 813 H 77.5474 4.98725 3.1072 0
M  V30 814 H 79.0714 4.63779 3.97166 0
M  V30 815 H 80.4854 5.42888 1.84244 0
M  V30 816 H 78.8824 5.88116 1.19328 0
M  V30 817 H 79.9524 4.84337 0.233536 0
M  V30 818 N 81.2955 -0.223234 1.56011 0
M  V30 819 C 82.5255 -0.963413 1.82762 0
M  V30 820 C 82.9335 -1.78516 0.626804 0
M  V30 821 O 82.2765 -1.78974 -0.414014 0
M  V30 822 C 82.3385 -1.93126 3.0322 0
M  V30 823 C 82.0025 -1.2942 4.38291 0
M  V30 824 C 82.9995 -0.684916 5.15369 0
M  V30 825 C 80.6845 -1.30647 4.85012 0
M  V30 826 C 82.6785 -0.0963971 6.37327 0
M  V30 827 C 80.3655 -0.71411 6.06913 0
M  V30 828 C 81.3635 -0.110123 6.82911 0
M  V30 829 O 81.0515 0.47303 8.02507 0
M  V30 830 H 80.7835 -0.288011 0.611576 0
M  V30 831 H 83.3375 -0.244103 2.03944 0
M  V30 832 H 81.5675 -2.68952 2.77852 0
M  V30 833 H 83.2565 -2.53685 3.16857 0
M  V30 834 H 84.0225 -0.667774 4.80381 0
M  V30 835 H 79.9015 -1.76598 4.25833 0
M  V30 836 H 83.4455 0.375657 6.96588 0
M  V30 837 H 79.3425 -0.728659 6.41374 0
M  V30 838 H 80.1105 0.367186 8.17676 0
M  V30 839 N 82.7736 -1.49793 -0.48987 0
M  V30 840 C 84.0506 -1.50348 -1.25119 0
M  V30 841 C 84.4306 -0.237466 -2.0976 0
M  V30 842 O 83.7786 0.77981 -2.14782 0
M  V30 843 C 83.9886 -2.78872 -2.09837 0
M  V30 844 C 85.3366 -3.288 -2.68655 0
M  V30 845 O 86.3606 -2.80065 -2.20096 0
M  V30 846 O 85.2196 -4.13707 -3.57083 0
M  V30 847 H 82.3136 -0.602242 -0.566775 0
M  V30 848 H 84.8596 -1.62067 -0.503229 0
M  V30 849 H 83.6316 -3.62499 -1.47343 0
M  V30 850 H 83.2546 -2.70066 -2.91805 0
M  V30 851 N 84.2517 0.741722 -1.39055 0
M  V30 852 C 85.5007 1.49656 -1.35225 0
M  V30 853 C 85.8137 1.95533 0.0512708 0
M  V30 854 O 87.0197 2.7067 0.212138 0
M  V30 855 C 85.4757 2.70389 -2.37525 0
M  V30 856 C 85.0837 2.31489 -3.83558 0
M  V30 857 C 86.8277 3.48236 -2.42759 0
M  V30 858 C 84.7347 3.48903 -4.77515 0
M  V30 859 H 83.6647 0.56197 -0.502699 0
M  V30 860 H 86.3157 0.809727 -1.64668 0
M  V30 861 H 84.6977 3.41113 -2.01142 0
M  V30 862 H 85.8717 1.68354 -4.28945 0
M  V30 863 H 84.1867 1.66749 -3.81554 0
M  V30 864 H 86.7837 4.35558 -3.1015 0
M  V30 865 H 87.1267 3.90229 -1.45008 0
M  V30 866 H 87.6597 2.84535 -2.78002 0
M  V30 867 H 84.3987 3.11966 -5.76504 0
M  V30 868 H 83.9187 4.11041 -4.36813 0
M  V30 869 H 85.5977 4.15328 -4.96096 0
M  V30 870 N 85.7298 1.2412 0.971189 0
M  V30 871 C 86.6928 1.03156 2.04674 0
M  V30 872 C 87.6928 -0.00990322 1.60797 0
M  V30 873 O 88.8828 0.230729 1.72665 0
M  V30 874 C 86.0148 0.562765 3.36223 0
M  V30 875 H 87.2078 1.98614 2.24705 0
M  V30 876 H 84.7608 1.06293 1.14593 0
M  V30 877 H 85.4958 -0.395176 3.21883 0
M  V30 878 H 85.2808 1.31441 3.69413 0
M  V30 879 H 86.7708 0.437015 4.15307 0
M  V30 880 N 87.2079 -1.17134 1.05439 0
M  V30 881 C 88.1579 -2.1919 0.627675 0
M  V30 882 C 89.1419 -1.57328 -0.337147 0
M  V30 883 O 90.3339 -1.76329 -0.153976 0
M  V30 884 C 87.4629 -3.43299 0.00651435 0
M  V30 885 C 86.5489 -4.12255 0.995312 0
M  V30 886 N 86.9399 -4.56997 2.16765 0
M  V30 887 C 85.2379 -4.38316 0.824336 0
M  V30 888 C 85.9389 -5.10239 2.7934 0
M  V30 889 N 84.9149 -5.02595 2.07122 0
M  V30 890 H 88.7169 -2.5149 1.52086 0
M  V30 891 H 86.2309 -1.33491 0.924868 0
M  V30 892 H 88.2279 -4.15693 -0.316965 0
M  V30 893 H 86.8879 -3.1249 -0.882033 0
M  V30 894 H 87.8989 -4.51006 2.54587 0
M  V30 895 H 84.5759 -4.17498 -0.0129526 0
M  V30 896 H 85.9659 -5.54961 3.78772 0
M  V30 897 N 88.686 -0.835752 -1.33615 0
M  V30 898 C 89.914 -0.443344 -2.02094 0
M  V30 899 C 90.329 0.954522 -1.62894 0
M  V30 900 O 89.686 1.61982 -0.840723 0
M  V30 901 C 89.737 -0.550775 -3.5728 0
M  V30 902 O 89.458 -1.89356 -3.95065 0
M  V30 903 C 90.959 -0.154919 -4.43029 0
M  V30 904 H 88.179 -0.176359 -0.647409 0
M  V30 905 H 90.723 -1.12746 -1.70612 0
M  V30 906 H 88.878 0.0853997 -3.87306 0
M  V30 907 H 89.292 -1.87687 -4.89769 0
M  V30 908 H 90.766 -0.281144 -5.51284 0
M  V30 909 H 91.243 0.902863 -4.2982 0
M  V30 910 H 91.849 -0.765404 -4.18356 0
M  V30 911 N 90.1641 1.46063 -0.591896 0
M  V30 912 C 91.5751 1.85944 -0.167822 0
M  V30 913 C 91.9261 1.49429 1.27143 0
M  V30 914 O 91.0511 0.913515 1.96173 0
M  V30 915 C 91.6461 3.37489 -0.297794 0
M  V30 916 C 90.2051 3.76332 0.0714732 0
M  V30 917 C 89.3521 2.7006 -0.629509 0
M  V30 918 H 92.3031 1.37087 -0.799555 0
M  V30 919 H 92.3241 3.77532 0.474349 0
M  V30 920 H 91.8361 3.64034 -1.3454 0
M  V30 921 H 89.9371 3.55405 1.11886 0
M  V30 922 H 90.0501 4.78088 -0.311245 0
M  V30 923 H 88.4141 2.54607 -0.0687867 0
M  V30 924 H 89.1971 2.99444 -1.67894 0
M  V30 925 N 91.6422 0.330177 1.54103 0
M  V30 926 C 92.8902 -0.269871 2.0029 0
M  V30 927 C 93.2112 -1.52133 1.21986 0
M  V30 928 O 92.4812 -1.93212 0.323438 0
M  V30 929 H 91.0612 -0.10271 0.739905 0
M  V30 930 H 93.7232 0.448249 1.89675 0
M  V30 931 H 92.8192 -0.52166 3.07709 0
M  V30 932 N 93.1203 -1.57491 0.0584922 0
M  V30 933 C 94.3663 -1.93264 -0.614558 0
M  V30 934 C 94.6993 -0.937717 -1.7006 0
M  V30 935 O 93.9743 0.0351652 -1.94468 0
M  V30 936 C 94.2573 -3.3938 -1.20386 0
M  V30 937 C 94.1103 -4.49625 -0.125375 0
M  V30 938 C 95.4293 -3.86039 -2.11334 0
M  V30 939 H 92.5483 -0.702791 -0.221933 0
M  V30 940 H 95.1903 -1.8961 0.12175 0
M  V30 941 H 93.3403 -3.42626 -1.83139 0
M  V30 942 H 95.0123 -4.58506 0.506971 0
M  V30 943 H 93.2553 -4.30354 0.545672 0
M  V30 944 H 93.9263 -5.48967 -0.577861 0
M  V30 945 H 96.4023 -3.84716 -1.58534 0
M  V30 946 H 95.2783 -4.88914 -2.49507 0
M  V30 947 H 95.5393 -3.23215 -3.01636 0
M  V30 948 N 94.5984 0.214957 -1.56127 0
M  V30 949 C 95.5614 1.24997 -1.92116 0
M  V30 950 C 96.5614 1.39467 -0.800344 0
M  V30 951 O 97.7514 1.37619 -1.06802 0
M  V30 952 C 94.8834 2.62271 -2.17777 0
M  V30 953 H 96.0764 0.942875 -2.84693 0
M  V30 954 H 93.6294 0.455654 -1.49511 0
M  V30 955 H 94.3644 2.98068 -1.27773 0
M  V30 956 H 94.1494 2.53143 -2.99434 0
M  V30 957 H 95.6394 3.36946 -2.46693 0
M  V30 958 N 96.0765 1.50051 0.48192 0
M  V30 959 C 97.0395 1.67584 1.5636 0
M  V30 960 C 98.0395 0.546894 1.51214 0
M  V30 961 O 99.2295 0.813725 1.54026 0
M  V30 962 C 96.3615 1.691 2.96003 0
M  V30 963 H 97.5545 2.64078 1.42136 0
M  V30 964 H 95.1075 1.39369 0.707533 0
M  V30 965 H 95.8425 0.742589 3.15684 0
M  V30 966 H 95.6275 2.51105 3.01146 0
M  V30 967 H 97.1175 1.84656 3.74556 0
M  V30 968 N 97.5546 -0.734337 1.39446 0
M  V30 969 C 98.8316 -1.48579 1.27215 0
M  V30 970 C 99.2116 -2.1077 -0.117968 0
M  V30 971 O 98.5596 -1.98646 -1.12924 0
M  V30 972 C 98.7696 -2.53667 2.39696 0
M  V30 973 C 100.118 -3.20031 2.79044 0
M  V30 974 O 101.142 -2.6398 2.39151 0
M  V30 975 O 100.001 -4.21455 3.47905 0
M  V30 976 H 97.0946 -0.659816 0.49857 0
M  V30 977 H 99.6406 -0.768106 1.51322 0
M  V30 978 H 98.4126 -2.06096 3.32626 0
M  V30 979 H 98.0356 -3.32994 2.17258 0
M  V30 980 N 99.0327 -1.24633 -0.964593 0
M  V30 981 C 99.9627 -1.06611 -2.07741 0
M  V30 982 C 100.944 0.0218666 -1.70086 0
M  V30 983 O 102.129 -0.145793 -1.93652 0
M  V30 984 C 99.2587 -0.673444 -3.40708 0
M  V30 985 C 98.2127 -1.71054 -3.92332 0
M  V30 986 C 97.5387 -1.17285 -5.21678 0
M  V30 987 C 98.8387 -3.10718 -4.19824 0
M  V30 988 H 100.533 -1.99693 -2.23076 0
M  V30 989 H 98.0787 -0.96152 -1.07195 0
M  V30 990 H 100.032 -0.534345 -4.17998 0
M  V30 991 H 98.7557 0.293073 -3.25282 0
M  V30 992 H 97.4147 -1.83791 -3.17201 0
M  V30 993 H 97.0627 -0.196847 -5.02615 0
M  V30 994 H 96.7627 -1.86592 -5.57187 0
M  V30 995 H 98.2867 -1.04593 -6.01575 0
M  V30 996 H 99.7007 -3.01192 -4.87808 0
M  V30 997 H 98.0977 -3.77406 -4.66567 0
M  V30 998 H 99.1677 -3.58524 -3.26479 0
M  V30 999 N 100.511 1.16574 -1.06058 0
M  V30 1000 C 101.736 1.91493 -0.796562 0
M  V30 1001 C 102.161 1.76773 0.642868 0
M  V30 1002 O 101.519 1.09142 1.44768 0
M  V30 1003 C 101.567 3.40293 -1.19303 0
M  V30 1004 O 100.671 4.11074 -0.330394 0
M  V30 1005 H 100.012 0.596678 -0.291326 0
M  V30 1006 H 102.542 1.47708 -1.41575 0
M  V30 1007 H 102.552 3.91057 -1.16356 0
M  V30 1008 H 101.227 3.50326 -2.24153 0
M  V30 1009 H 99.8038 3.70513 -0.421225 0
M  V30 1010 N 101.989 0.842826 1.3317 0
M  V30 1011 C 102.939 0.250877 2.26616 0
M  V30 1012 C 103.923 -0.596427 1.49437 0
M  V30 1013 O 105.115 -0.447747 1.71243 0
M  V30 1014 C 102.244 -0.569779 3.38539 0
M  V30 1015 C 101.33 0.289254 4.23112 0
M  V30 1016 N 101.721 1.36987 4.86897 0
M  V30 1017 C 100.019 0.0769631 4.45934 0
M  V30 1018 C 100.72 1.89737 5.49886 0
M  V30 1019 N 99.6959 1.19827 5.30229 0
M  V30 1020 H 103.498 1.07718 2.73448 0
M  V30 1021 H 101.012 0.687693 1.47121 0
M  V30 1022 H 103.009 -1.01018 4.04476 0
M  V30 1023 H 101.669 -1.39401 2.93253 0
M  V30 1024 H 102.68 1.75277 4.87338 0
M  V30 1025 H 99.3569 -0.713507 4.11358 0
M  V30 1026 H 100.747 2.80253 6.10662 0
M  V30 1027 N 103.467 -1.45747 0.599634 0
M  V30 1028 C 104.716 -2.01502 0.0893511 0
M  V30 1029 C 105.029 -1.4748 -1.28488 0
M  V30 1030 O 106.235 -1.95161 -1.88745 0
M  V30 1031 C 104.691 -3.59735 0.109082 0
M  V30 1032 C 104.299 -4.22754 1.48267 0
M  V30 1033 C 106.043 -4.23085 -0.346374 0
M  V30 1034 C 103.95 -5.73115 1.45921 0
M  V30 1035 H 102.88 -0.753417 0.0296347 0
M  V30 1036 H 105.531 -1.67303 0.753788 0
M  V30 1037 H 103.913 -3.91087 -0.621854 0
M  V30 1038 H 105.087 -4.02987 2.23468 0
M  V30 1039 H 103.402 -3.71567 1.87955 0
M  V30 1040 H 105.999 -5.33327 -0.38298 0
M  V30 1041 H 106.342 -3.93201 -1.36743 0
M  V30 1042 H 106.875 -3.9642 0.331038 0
M  V30 1043 H 103.614 -6.07685 2.45762 0
M  V30 1044 H 103.134 -5.95097 0.749665 0
M  V30 1045 H 104.813 -6.3616 1.17941 0
M  V30 1046 N 104.945 -0.338344 -1.53925 0
M  V30 1047 C 105.855 0.529421 -2.28548 0
M  V30 1048 C 106.871 1.11645 -1.3346 0
M  V30 1049 O 108.047 1.13325 -1.66492 0
M  V30 1050 C 105.112 1.66713 -3.03987 0
M  V30 1051 C 104.173 1.11041 -4.14691 0
M  V30 1052 C 103.406 2.19389 -4.86522 0
M  V30 1053 O 103.629 3.40013 -4.57982 0
M  V30 1054 O 102.563 1.83976 -5.73094 0
M  V30 1055 H 106.389 -0.0770399 -3.03602 0
M  V30 1056 H 103.974 -0.103555 -1.49041 0
M  V30 1057 H 105.856 2.32918 -3.5118 0
M  V30 1058 H 104.531 2.25949 -2.31794 0
M  V30 1059 H 103.438 0.413024 -3.71813 0
M  V30 1060 H 104.771 0.562975 -4.8897 0
M  V30 1061 N 106.423 1.57458 -0.0668435 0
M  V30 1062 C 107.651 1.97624 0.612565 0
M  V30 1063 C 108.066 0.94502 1.63447 0
M  V30 1064 O 107.423 -0.0689276 1.8237 0
M  V30 1065 C 107.474 3.37869 1.28555 0
M  V30 1066 O 107.195 4.3704 0.304557 0
M  V30 1067 C 108.696 3.92882 2.05325 0
M  V30 1068 H 105.916 0.650045 0.166381 0
M  V30 1069 H 108.46 2.04035 -0.137782 0
M  V30 1070 H 106.615 3.3256 1.98702 0
M  V30 1071 H 107.029 5.18565 0.786779 0
M  V30 1072 H 108.503 4.93247 2.47812 0
M  V30 1073 H 108.98 3.29156 2.9078 0
M  V30 1074 H 109.586 4.01577 1.40056 0
M  V30 1075 N 107.901 -0.206675 1.56239 0
M  V30 1076 C 108.848 -1.25617 1.93621 0
M  V30 1077 C 109.818 -1.45824 0.795274 0
M  V30 1078 O 111.003 -1.59148 1.05245 0
M  V30 1079 C 108.143 -2.59839 2.27107 0
M  V30 1080 C 107.256 -2.47308 3.54207 0
M  V30 1081 C 106.391 -3.74155 3.7707 0
M  V30 1082 C 105.43 -3.56407 4.97635 0
M  V30 1083 N 104.567 -4.75238 5.1681 0
M  V30 1084 H 109.407 -0.930383 2.83104 0
M  V30 1085 H 106.944 -0.448065 1.4011 0
M  V30 1086 H 108.902 -3.38021 2.44535 0
M  V30 1087 H 107.532 -2.90485 1.40778 0
M  V30 1088 H 106.584 -1.60483 3.4489 0
M  V30 1089 H 107.896 -2.30122 4.42544 0
M  V30 1090 H 107.05 -4.60778 3.94675 0
M  V30 1091 H 105.789 -3.94282 2.87042 0
M  V30 1092 H 104.794 -2.68168 4.79964 0
M  V30 1093 H 106.019 -3.37736 5.89161 0
M  V30 1094 H 103.965 -4.95651 4.29728 0
M  V30 1095 H 103.882 -4.60835 5.99306 0
M  V30 1096 H 105.15 -5.63246 5.38864 0
M  V30 1097 N 109.379 -1.50304 -0.473955 0
M  V30 1098 C 110.342 -1.6841 -1.55469 0
M  V30 1099 C 111.342 -0.554905 -1.50922 0
M  V30 1100 O 112.532 -0.821882 -1.53593 0
M  V30 1101 C 109.664 -1.70667 -2.95102 0
M  V30 1102 H 110.857 -2.64828 -1.40733 0
M  V30 1103 H 108.41 -1.39742 -0.700132 0
M  V30 1104 H 109.145 -0.75932 -3.15285 0
M  V30 1105 H 108.93 -2.52698 -2.9981 0
M  V30 1106 H 110.42 -1.8664 -3.73571 0
M  V30 1107 N 110.857 0.726932 -1.39834 0
M  V30 1108 C 111.82 1.82269 -1.38962 0
M  V30 1109 C 112.82 1.58248 -0.285334 0
M  V30 1110 O 114.01 1.65499 -0.54366 0
M  V30 1111 C 111.142 3.20186 -1.17019 0
M  V30 1112 H 112.335 1.84443 -2.36476 0
M  V30 1113 H 109.888 0.931416 -1.25516 0
M  V30 1114 H 110.623 3.23669 -0.202204 0
M  V30 1115 H 110.408 3.3902 -1.96998 0
M  V30 1116 H 111.898 4.00235 -1.1917 0
M  V30 1117 N 112.336 1.25143 0.95797 0
M  V30 1118 C 113.582 1.09855 1.70469 0
M  V30 1119 C 113.915 -0.360187 1.90831 0
M  V30 1120 O 113.19 -1.26568 1.47685 0
M  V30 1121 C 113.473 1.8497 3.08963 0
M  V30 1122 C 113.326 3.38652 2.96032 0
M  V30 1123 C 114.645 1.63016 4.08795 0
M  V30 1124 H 111.764 0.400465 0.618706 0
M  V30 1125 H 114.406 1.53933 1.11376 0
M  V30 1126 H 112.556 1.47505 3.59409 0
M  V30 1127 H 114.228 3.85772 2.52938 0
M  V30 1128 H 112.471 3.66534 2.32025 0
M  V30 1129 H 113.142 3.8642 3.94187 0
M  V30 1130 H 115.618 1.95625 3.67247 0
M  V30 1131 H 114.494 2.18015 5.03747 0
M  V30 1132 H 114.755 0.570692 4.38401 0
M  V30 1133 N 113.814 -1.1601 1.06675 0
M  V30 1134 C 114.761 -2.20525 0.680967 0
M  V30 1135 C 115.731 -1.62904 -0.324283 0
M  V30 1136 O 116.916 -1.89615 -0.212294 0
M  V30 1137 C 114.056 -3.45013 0.0776551 0
M  V30 1138 C 113.169 -4.16863 1.13355 0
M  V30 1139 C 112.304 -5.2888 0.49597 0
M  V30 1140 C 111.343 -5.92537 1.53513 0
M  V30 1141 N 110.48 -6.96038 0.920631 0
M  V30 1142 H 115.32 -2.52876 1.57663 0
M  V30 1143 H 112.857 -1.24199 0.788223 0
M  V30 1144 H 114.815 -4.16193 -0.289704 0
M  V30 1145 H 113.445 -3.132 -0.781393 0
M  V30 1146 H 112.497 -3.44248 1.61857 0
M  V30 1147 H 113.809 -4.60294 1.92174 0
M  V30 1148 H 112.963 -6.06653 0.0758604 0
M  V30 1149 H 111.702 -4.86622 -0.324062 0
M  V30 1150 H 110.707 -5.13482 1.9651 0
M  V30 1151 H 111.932 -6.36873 2.35733 0
M  V30 1152 H 109.878 -6.55888 0.12138 0
M  V30 1153 H 109.795 -7.3786 1.64616 0
M  V30 1154 H 111.063 -7.77725 0.525795 0
M  V30 1155 N 115.292 -0.849877 -1.32721 0
M  V30 1156 C 116.54 -0.450032 -1.97026 0
M  V30 1157 C 116.861 0.996604 -1.67609 0
M  V30 1158 O 116.131 1.6958 -0.980786 0
M  V30 1159 H 114.711 -0.163426 -0.728904 0
M  V30 1160 H 117.373 -1.08526 -1.6189 0
M  V30 1161 H 116.469 -0.591146 -3.0645 0
M  V30 1162 N 116.77 1.45427 -0.607355 0
M  V30 1163 C 118 2.06314 -0.108656 0
M  V30 1164 C 118.408 1.45269 1.21217 0
M  V30 1165 O 117.751 0.561115 1.74921 0
M  V30 1166 C 117.813 3.59345 0.105618 0
M  V30 1167 C 117.477 4.42723 -1.13337 0
M  V30 1168 C 118.474 4.77715 -2.05145 0
M  V30 1169 C 116.159 4.83478 -1.36213 0
M  V30 1170 C 118.153 5.52317 -3.18158 0
M  V30 1171 C 115.84 5.57835 -2.49527 0
M  V30 1172 C 116.838 5.92171 -3.40327 0
M  V30 1173 O 116.526 6.65019 -4.51669 0
M  V30 1174 H 116.258 0.672782 -0.0658842 0
M  V30 1175 H 118.812 1.87664 -0.834945 0
M  V30 1176 H 117.042 3.76394 0.886796 0
M  V30 1177 H 118.731 4.02076 0.555886 0
M  V30 1178 H 119.497 4.46787 -1.88697 0
M  V30 1179 H 115.376 4.56188 -0.664362 0
M  V30 1180 H 118.92 5.79036 -3.89054 0
M  V30 1181 H 114.817 5.88177 -2.65928 0
M  V30 1182 H 115.585 6.83469 -4.50348 0
M  V30 1183 N 118.248 0.346503 1.53744 0
M  V30 1184 C 119.178 -0.501193 2.28058 0
M  V30 1185 C 120.159 -1.10014 1.29734 0
M  V30 1186 O 121.344 -1.12097 1.58581 0
M  V30 1187 C 118.474 -1.65078 3.05559 0
M  V30 1188 C 117.428 -1.18003 4.11411 0
M  V30 1189 C 116.754 -2.41837 4.76884 0
M  V30 1190 C 118.054 -0.278394 5.21558 0
M  V30 1191 H 119.748 0.11875 2.99164 0
M  V30 1192 H 117.294 0.0585531 1.43881 0
M  V30 1193 H 119.247 -2.25028 3.56287 0
M  V30 1194 H 117.971 -2.29767 2.32109 0
M  V30 1195 H 116.63 -0.603331 3.61601 0
M  V30 1196 H 116.278 -3.0494 4.00026 0
M  V30 1197 H 115.978 -2.1102 5.48402 0
M  V30 1198 H 117.502 -3.02508 5.30397 0
M  V30 1199 H 118.916 -0.784823 5.67903 0
M  V30 1200 H 117.313 -0.0619707 6.00068 0
M  V30 1201 H 118.383 0.684677 4.80042 0
M  V30 1202 N 119.726 -1.57421 0.075193 0
M  V30 1203 C 120.974 -1.93236 -0.591974 0
M  V30 1204 C 121.295 -0.956241 -1.69944 0
M  V30 1205 O 120.565 -0.00494792 -1.95899 0
M  V30 1206 H 119.145 -0.713355 -0.22166 0
M  V30 1207 H 121.807 -1.9444 0.133848 0
M  V30 1208 H 120.903 -2.95131 -1.01509 0
M  V30 1209 N 121.204 0.198386 -1.56346 0
M  V30 1210 C 122.615 0.763358 -1.70381 0
M  V30 1211 C 122.966 1.83995 -0.681203 0
M  V30 1212 O 122.091 2.15785 0.16305 0
M  V30 1213 C 122.686 1.39143 -3.08909 0
M  V30 1214 C 121.245 1.90352 -3.2472 0
M  V30 1215 C 120.392 0.772233 -2.6633 0
M  V30 1216 H 123.343 -0.0266377 -1.58678 0
M  V30 1217 H 123.364 2.26076 -3.06055 0
M  V30 1218 H 122.876 0.607638 -3.83314 0
M  V30 1219 H 120.977 2.71461 -2.55225 0
M  V30 1220 H 121.09 2.06757 -4.3219 0
M  V30 1221 H 119.454 1.18566 -2.2542 0
M  V30 1222 H 120.237 0.00073556 -3.433 0
M  V30 1223 N 122.682 1.50554 0.465978 0
M  V30 1224 C 123.592 1.72585 1.58907 0
M  V30 1225 C 124.608 0.60911 1.6299 0
M  V30 1226 O 125.784 0.88804 1.80765 0
M  V30 1227 C 122.849 1.81995 2.95091 0
M  V30 1228 C 121.91 3.05751 3.01355 0
M  V30 1229 C 121.143 3.14702 4.31043 0
M  V30 1230 O 121.366 2.30313 5.21835 0
M  V30 1231 O 120.3 4.07468 4.43005 0
M  V30 1232 H 124.126 2.67799 1.43239 0
M  V30 1233 H 121.711 1.34711 0.646013 0
M  V30 1234 H 123.593 1.90335 3.75966 0
M  V30 1235 H 122.268 0.899659 3.10947 0
M  V30 1236 H 121.175 3.02908 2.19539 0
M  V30 1237 H 122.508 3.97375 2.90437 0
M  V30 1238 N 124.16 -0.719506 1.40217 0
M  V30 1239 C 125.092 -1.84428 1.36084 0
M  V30 1240 C 126.105 -1.60597 0.266913 0
M  V30 1241 O 127.294 -1.70544 0.526983 0
M  V30 1242 C 124.394 -3.20757 1.094 0
M  V30 1243 C 123.567 -3.71817 2.30372 0
M  V30 1244 C 122.626 -4.86748 1.99907 0
M  V30 1245 O 121.652 -4.99603 2.72737 0
M  V30 1246 N 122.854 -5.7226 0.974635 0
M  V30 1247 H 125.619 -1.88473 2.33019 0
M  V30 1248 H 123.18 -0.900885 1.3452 0
M  V30 1249 H 125.172 -3.95235 0.870116 0
M  V30 1250 H 123.742 -3.11884 0.211452 0
M  V30 1251 H 122.962 -2.88514 2.68614 0
M  V30 1252 H 124.25 -4.02666 3.11026 0
M  V30 1253 H 123.648 -5.6448 0.371368 0
M  V30 1254 H 122.205 -6.46739 0.810656 0
M  V30 1255 N 125.638 -1.25649 -0.95132 0
M  V30 1256 C 126.568 -1.08808 -2.06599 0
M  V30 1257 C 127.549 0.00382547 -1.701 0
M  V30 1258 O 128.734 -0.166325 -1.93486 0
M  V30 1259 C 125.864 -0.709542 -3.39975 0
M  V30 1260 C 124.818 -1.75206 -3.90496 0
M  V30 1261 C 124.144 -1.22811 -5.20405 0
M  V30 1262 C 125.444 -3.15153 -4.16504 0
M  V30 1263 H 127.138 -2.02048 -2.20946 0
M  V30 1264 H 124.684 -0.972835 -1.06169 0
M  V30 1265 H 126.637 -0.578649 -4.17408 0
M  V30 1266 H 125.361 0.258556 -3.25575 0
M  V30 1267 H 124.02 -1.87145 -3.15234 0
M  V30 1268 H 123.668 -0.250145 -5.02378 0
M  V30 1269 H 123.368 -1.92492 -5.55176 0
M  V30 1270 H 124.892 -1.10968 -6.00432 0
M  V30 1271 H 126.306 -3.06349 -4.84586 0
M  V30 1272 H 124.703 -3.82333 -4.62538 0
M  V30 1273 H 125.773 -3.61966 -3.22658 0
M  V30 1274 N 127.117 1.15442 -1.07289 0
M  V30 1275 C 128.528 1.67803 -0.818475 0
M  V30 1276 C 128.879 1.8489 0.656507 0
M  V30 1277 O 128.004 1.55176 1.50829 0
M  V30 1278 C 128.599 3.04805 -1.47917 0
M  V30 1279 C 127.158 3.54245 -1.27229 0
M  V30 1280 C 126.305 2.29986 -1.54925 0
M  V30 1281 H 129.256 0.996646 -1.23502 0
M  V30 1282 H 129.277 3.69702 -0.90005 0
M  V30 1283 H 128.789 2.92336 -2.55267 0
M  V30 1284 H 126.89 3.71956 -0.21899 0
M  V30 1285 H 127.003 4.35723 -1.99203 0
M  V30 1286 H 125.367 2.35496 -0.970242 0
M  V30 1287 H 126.15 2.20105 -2.63455 0
M  V30 1288 N 128.595 0.856903 1.32268 0
M  V30 1289 C 129.872 0.382583 1.91822 0
M  V30 1290 C 130.252 -1.13407 1.78051 0
M  V30 1291 O 129.6 -1.95673 1.18001 0
M  V30 1292 C 129.81 0.849446 3.38505 0
M  V30 1293 C 131.158 0.867936 4.15634 0
M  V30 1294 O 132.182 0.794232 3.47232 0
M  V30 1295 O 131.041 0.972286 5.37781 0
M  V30 1296 H 128.135 0.112014 0.819379 0
M  V30 1297 H 130.681 0.943952 1.41024 0
M  V30 1298 H 129.453 1.89267 3.42482 0
M  V30 1299 H 129.076 0.265652 3.96712 0
M  V30 1300 N 130.073 -1.45103 0.615059 0
M  V30 1301 C 131.313 -2.04069 0.116282 0
M  V30 1302 C 131.677 -1.4721 -1.2326 0
M  V30 1303 O 132.878 -1.97577 -1.82255 0
M  V30 1304 C 131.149 -3.57298 0.085482 0
M  V30 1305 S 132.708 -4.37394 -0.351015 0
M  V30 1306 H 129.526 -0.709006 0.0532183 0
M  V30 1307 H 132.128 -1.77709 0.81484 0
M  V30 1308 H 130.832 -3.9619 1.0706 0
M  V30 1309 H 130.363 -3.88244 -0.634835 0
M  V30 1310 H 132.378 -4.69734 -1.59889 0
M  V30 1311 N 131.551 -0.354651 -1.53558 0
M  V30 1312 C 132.481 0.489091 -2.2832 0
M  V30 1313 C 133.462 1.09324 -1.30316 0
M  V30 1314 O 134.647 1.11255 -1.59173 0
M  V30 1315 C 131.777 1.63456 -3.0643 0
M  V30 1316 C 130.731 1.1582 -4.12031 0
M  V30 1317 C 130.057 2.39305 -4.7816 0
M  V30 1318 C 131.357 0.250731 -5.21698 0
M  V30 1319 H 133.051 -0.134614 -2.99097 0
M  V30 1320 H 130.597 -0.0661826 -1.43848 0
M  V30 1321 H 132.55 2.23136 -3.57475 0
M  V30 1322 H 131.274 2.28533 -2.33325 0
M  V30 1323 H 129.933 0.584146 -3.61916 0
M  V30 1324 H 129.581 3.02814 -4.01637 0
M  V30 1325 H 129.281 2.08109 -5.49513 0
M  V30 1326 H 130.805 2.99691 -5.31994 0
M  V30 1327 H 132.219 0.754695 -5.68311 0
M  V30 1328 H 130.616 0.0301468 -6.00092 0
M  V30 1329 H 131.686 -0.710125 -4.79672 0
M  V30 1330 N 133.029 1.57378 -0.0835403 0
M  V30 1331 C 133.976 2.13384 0.879539 0
M  V30 1332 C 134.946 1.04936 1.28754 0
M  V30 1333 O 136.131 1.32662 1.37133 0
M  V30 1334 C 133.271 2.70932 2.13752 0
M  V30 1335 C 132.384 3.93575 1.7811 0
M  V30 1336 C 131.519 4.39326 2.98607 0
M  V30 1337 C 130.558 5.54587 2.59037 0
M  V30 1338 N 129.695 5.95243 3.72331 0
M  V30 1339 H 134.535 2.9537 0.395076 0
M  V30 1340 H 132.072 1.45953 0.183349 0
M  V30 1341 H 134.03 3.02411 2.87408 0
M  V30 1342 H 132.66 1.91693 2.59718 0
M  V30 1343 H 131.712 3.68483 0.94469 0
M  V30 1344 H 133.024 4.77258 1.45005 0
M  V30 1345 H 132.178 4.72528 3.80529 0
M  V30 1346 H 130.917 3.5452 3.34913 0
M  V30 1347 H 129.922 5.21024 1.75539 0
M  V30 1348 H 131.147 6.41133 2.23887 0
M  V30 1349 H 129.093 5.13385 4.08378 0
M  V30 1350 H 129.01 6.73694 3.43034 0
M  V30 1351 H 130.278 6.33072 4.54797 0
M  V30 1352 N 134.507 -0.190092 1.56449 0
M  V30 1353 C 135.755 -0.907908 1.80559 0
M  V30 1354 C 136.076 -1.83583 0.657438 0
M  V30 1355 O 135.346 -1.93203 -0.323924 0
M  V30 1356 H 133.926 -0.338247 0.666032 0
M  V30 1357 H 136.588 -0.194403 1.93928 0
M  V30 1358 H 135.684 -1.49604 2.73907 0
M  V30 1359 N 135.985 -1.50799 -0.457987 0
M  V30 1360 C 137.225 -1.64088 -1.21879 0
M  V30 1361 C 137.589 -0.339848 -1.88968 0
M  V30 1362 O 138.79 -0.348301 -2.66534 0
M  V30 1363 C 137.061 -2.79726 -2.2246 0
M  V30 1364 S 138.62 -3.13225 -3.07303 0
M  V30 1365 H 135.438 -0.578314 -0.41361 0
M  V30 1366 H 138.04 -1.88632 -0.513645 0
M  V30 1367 H 136.744 -3.72722 -1.71775 0
M  V30 1368 H 136.275 -2.57308 -2.97584 0
M  V30 1369 H 138.29 -2.58062 -4.23814 0
M  V30 1370 N 137.463 0.71206 -1.40597 0
M  V30 1371 C 138.74 1.46536 -1.29563 0
M  V30 1372 C 139.12 2.10931 0.0844217 0
M  V30 1373 O 138.468 2.00418 1.0975 0
M  V30 1374 C 138.678 2.49821 -2.43701 0
M  V30 1375 C 140.026 3.15551 -2.841 0
M  V30 1376 O 141.05 2.60142 -2.4332 0
M  V30 1377 O 139.909 4.15867 -3.54566 0
M  V30 1378 H 137.003 0.651801 -0.509004 0
M  V30 1379 H 139.549 0.743935 -1.52524 0
M  V30 1380 H 138.321 2.00778 -3.35863 0
M  V30 1381 H 137.944 3.29495 -2.22528 0
M  V30 1382 N 138.941 1.26152 0.944643 0
M  V30 1383 C 140.187 1.11657 1.69294 0
M  V30 1384 C 140.52 -0.339926 1.91202 0
M  V30 1385 O 139.795 -1.24994 1.49019 0
M  V30 1386 C 140.078 1.88236 3.06984 0
M  V30 1387 C 139.931 3.41772 2.92424 0
M  V30 1388 C 141.25 1.67343 4.07043 0
M  V30 1389 H 138.369 0.407004 0.614424 0
M  V30 1390 H 141.011 1.55106 1.09737 0
M  V30 1391 H 139.161 1.51308 3.57824 0
M  V30 1392 H 140.833 3.88433 2.48832 0
M  V30 1393 H 139.076 3.68974 2.28124 0
M  V30 1394 H 139.747 3.90579 3.90067 0
M  V30 1395 H 142.223 1.99509 3.65151 0
M  V30 1396 H 141.099 2.23346 5.01406 0
M  V30 1397 H 141.36 0.617158 4.37771 0
M  V30 1398 N 140.419 -1.14872 1.07899 0
M  V30 1399 C 141.665 -1.86064 0.806725 0
M  V30 1400 C 141.998 -1.82434 -0.665706 0
M  V30 1401 O 141.273 -1.25138 -1.48899 0
M  V30 1402 C 141.556 -3.34929 1.32267 0
M  V30 1403 C 141.409 -3.47161 2.86006 0
M  V30 1404 C 142.728 -4.29863 0.943717 0
M  V30 1405 H 139.847 -0.675591 0.294526 0
M  V30 1406 H 142.489 -1.34925 1.33773 0
M  V30 1407 H 140.639 -3.78611 0.870974 0
M  V30 1408 H 142.311 -3.12302 3.39507 0
M  V30 1409 H 140.554 -2.88539 3.23925 0
M  V30 1410 H 141.225 -4.51777 3.17177 0
M  V30 1411 H 143.701 -3.9417 1.33302 0
M  V30 1412 H 142.577 -5.32494 1.33198 0
M  V30 1413 H 142.838 -4.41846 -0.149796 0
M  V30 1414 N 141.898 -0.863906 -1.31812 0
M  V30 1415 C 143.144 -0.472535 -1.97218 0
M  V30 1416 C 143.477 0.971394 -1.68159 0
M  V30 1417 O 142.752 1.68309 -0.974798 0
M  V30 1418 C 143.035 -0.723054 -3.52766 0
M  V30 1419 C 142.888 -2.21608 -3.91421 0
M  V30 1420 C 144.207 -0.185522 -4.39709 0
M  V30 1421 H 141.326 -0.173158 -0.71637 0
M  V30 1422 H 143.968 -1.08403 -1.56041 0
M  V30 1423 H 142.118 -0.202577 -3.87971 0
M  V30 1424 H 143.79 -2.80334 -3.66347 0
M  V30 1425 H 142.033 -2.691 -3.40246 0
M  V30 1426 H 142.704 -2.34203 -4.99853 0
M  V30 1427 H 145.18 -0.630726 -4.11292 0
M  V30 1428 H 144.056 -0.390306 -5.47511 0
M  V30 1429 H 144.317 0.912229 -4.32586 0
M  V30 1430 N 143.376 1.44774 -0.622745 0
M  V30 1431 C 144.625 2.01334 -0.121397 0
M  V30 1432 C 144.938 1.49505 1.26125 0
M  V30 1433 O 146.144 1.98139 1.85616 0
M  V30 1434 C 144.6 3.59516 -0.166298 0
M  V30 1435 C 144.208 4.20342 -1.54974 0
M  V30 1436 C 145.952 4.23582 0.279021 0
M  V30 1437 C 143.859 5.70721 -1.55021 0
M  V30 1438 H 142.789 0.752851 -0.0416172 0
M  V30 1439 H 145.44 1.66083 -0.780309 0
M  V30 1440 H 143.822 3.92027 0.559557 0
M  V30 1441 H 144.996 3.99381 -2.29851 0
M  V30 1442 H 143.311 3.68529 -1.93843 0
M  V30 1443 H 145.908 5.33868 0.298083 0
M  V30 1444 H 146.251 3.95327 1.30471 0
M  V30 1445 H 146.784 3.95843 -0.394063 0
M  V30 1446 H 143.523 6.03698 -2.55399 0
M  V30 1447 H 143.043 5.93829 -0.844245 0
M  V30 1448 H 144.722 6.34203 -1.28047 0
M  V30 1449 N 144.854 0.36279 1.53368 0
M  V30 1450 C 146.265 -0.117022 1.86333 0
M  V30 1451 C 146.616 -1.48397 1.28347 0
M  V30 1452 O 145.741 -2.07787 0.604428 0
M  V30 1453 C 146.336 -0.21912 3.38091 0
M  V30 1454 C 144.895 -0.643184 3.70864 0
M  V30 1455 C 144.042 0.211318 2.76494 0
M  V30 1456 H 146.993 0.581687 1.47655 0
M  V30 1457 H 147.014 -1.04319 3.6592 0
M  V30 1458 H 146.526 0.775902 3.80265 0
M  V30 1459 H 144.627 -1.64654 3.34245 0
M  V30 1460 H 144.74 -0.41973 4.77258 0
M  V30 1461 H 143.104 -0.319367 2.5269 0
M  V30 1462 H 143.887 1.20383 3.21501 0
M  V30 1463 N 146.332 -1.57332 0.0918853 0
M  V30 1464 C 147.295 -2.12708 -0.85369 0
M  V30 1465 C 148.295 -1.05561 -1.213 0
M  V30 1466 O 149.485 -1.31461 -1.14296 0
M  V30 1467 C 146.617 -2.64503 -2.15061 0
M  V30 1468 H 147.81 -2.97573 -0.3729 0
M  V30 1469 H 145.363 -1.55509 -0.157072 0
M  V30 1470 H 146.098 -1.83149 -2.67632 0
M  V30 1471 H 145.883 -3.4284 -1.90272 0
M  V30 1472 H 147.373 -3.07351 -2.82711 0
M  V30 1473 N 147.81 0.181792 -1.56548 0
M  V30 1474 C 149.058 0.89832 -1.81038 0
M  V30 1475 C 149.379 1.83232 -0.667164 0
M  V30 1476 O 148.649 1.93372 0.313673 0
M  V30 1477 H 147.229 0.33471 -0.667816 0
M  V30 1478 H 149.891 0.184116 -1.94028 0
M  V30 1479 H 148.987 1.4815 -2.74696 0
M  V30 1480 N 149.288 1.51039 0.449983 0
M  V30 1481 C 150.534 1.63322 1.20223 0
M  V30 1482 C 150.867 0.34241 1.91158 0
M  V30 1483 O 150.142 -0.657344 1.83055 0
M  V30 1484 C 150.425 2.82801 2.22925 0
M  V30 1485 C 150.278 4.21823 1.56157 0
M  V30 1486 C 151.597 2.97807 3.24035 0
M  V30 1487 H 148.716 0.594407 0.435718 0
M  V30 1488 H 151.358 1.83489 0.493136 0
M  V30 1489 H 149.508 2.65738 2.834 0
M  V30 1490 H 151.18 4.50526 0.991162 0
M  V30 1491 H 149.423 4.25105 0.864172 0
M  V30 1492 H 150.094 5.01391 2.30891 0
M  V30 1493 H 152.57 3.13497 2.73603 0
M  V30 1494 H 151.446 3.82992 3.93202 0
M  V30 1495 H 151.707 2.09328 3.89402 0
M  V30 1496 N 150.766 -0.704594 1.40972 0
M  V30 1497 C 152.177 -1.28418 1.3552 0
M  V30 1498 C 152.528 -1.96171 0.0339434 0
M  V30 1499 O 151.653 -1.98231 -0.867944 0
M  V30 1500 C 152.248 -2.33528 2.45459 0
M  V30 1501 C 150.807 -2.87085 2.43433 0
M  V30 1502 C 149.954 -1.61007 2.2577 0
M  V30 1503 H 152.905 -0.499963 1.50619 0
M  V30 1504 H 152.926 -3.14619 2.13998 0
M  V30 1505 H 152.438 -1.84187 3.41609 0
M  V30 1506 H 150.539 -3.40626 1.51013 0
M  V30 1507 H 150.652 -3.3813 3.39419 0
M  V30 1508 H 149.016 -1.86482 1.73483 0
M  V30 1509 H 149.799 -1.13675 3.23933 0
M  V30 1510 N 152.244 -1.26651 -0.937939 0
M  V30 1511 C 153.66 -1.03834 -1.21205 0
M  V30 1512 C 153.86 0.234502 -2.00131 0
M  V30 1513 O 152.916 0.942767 -2.3424 0
M  V30 1514 C 154.229 -2.27167 -1.97017 0
M  V30 1515 C 155.777 -2.32101 -2.09996 0
M  V30 1516 C 156.252 -3.55136 -2.8921 0
M  V30 1517 N 157.743 -3.55632 -2.96783 0
M  V30 1518 C 158.478 -4.475 -3.58512 0
M  V30 1519 N 157.974 -5.4966 -4.21717 0
M  V30 1520 N 159.767 -4.35145 -3.55816 0
M  V30 1521 H 151.918 -2.08398 -0.410391 0
M  V30 1522 H 154.181 -0.916031 -0.244114 0
M  V30 1523 H 153.887 -3.19765 -1.46434 0
M  V30 1524 H 153.761 -2.31672 -2.97671 0
M  V30 1525 H 156.148 -1.40015 -2.59769 0
M  V30 1526 H 156.229 -2.31605 -1.08594 0
M  V30 1527 H 155.873 -4.47553 -2.40123 0
M  V30 1528 H 155.803 -3.5288 -3.90875 0
M  V30 1529 H 158.294 -2.81743 -2.51852 0
M  V30 1530 H 158.607 -6.15943 -4.66727 0
M  V30 1531 H 156.952 -5.53514 -4.20294 0
M  V30 1532 H 160.143 -3.5455 -3.05634 0
M  V30 1533 H 160.316 -5.06934 -4.03636 0
M  V30 1534 N 153.722 1.14298 -1.08507 0
M  V30 1535 C 154.669 2.19414 -0.715965 0
M  V30 1536 C 155.639 1.63399 0.298326 0
M  V30 1537 O 156.824 1.89929 0.182101 0
M  V30 1538 C 153.964 3.44845 -0.132534 0
M  V30 1539 C 153.077 4.15007 -1.19973 0
M  V30 1540 C 152.212 5.28024 -0.580048 0
M  V30 1541 C 151.251 5.9002 -1.62921 0
M  V30 1542 N 150.388 6.94485 -1.03125 0
M  V30 1543 H 155.228 2.50336 -1.61666 0
M  V30 1544 H 152.765 1.2293 -0.807882 0
M  V30 1545 H 154.723 4.16601 0.223454 0
M  V30 1546 H 153.353 3.14403 0.731467 0
M  V30 1547 H 152.405 3.41629 -1.67313 0
M  V30 1548 H 153.717 4.57178 -1.99473 0
M  V30 1549 H 152.871 6.06455 -0.172364 0
M  V30 1550 H 151.61 4.87076 0.246603 0
M  V30 1551 H 150.615 5.10291 -2.04654 0
M  V30 1552 H 151.84 6.33042 -2.45835 0
M  V30 1553 H 149.786 6.55612 -0.225711 0
M  V30 1554 H 149.703 7.35148 -1.76334 0
M  V30 1555 H 150.971 7.7679 -0.649458 0
M  V30 1556 N 155.201 0.870884 1.31352 0
M  V30 1557 C 156.612 0.534714 1.78879 0
M  V30 1558 C 156.963 -0.948423 1.71754 0
M  V30 1559 O 156.088 -1.74055 1.28584 0
M  V30 1560 C 156.683 0.963839 3.24801 0
M  V30 1561 C 155.242 0.679311 3.70219 0
M  V30 1562 C 154.389 1.15465 2.52117 0
M  V30 1563 H 157.34 1.05651 1.18421 0
M  V30 1564 H 157.361 0.286892 3.79417 0
M  V30 1565 H 156.873 2.04332 3.29955 0
M  V30 1566 H 154.974 -0.388769 3.70566 0
M  V30 1567 H 155.087 1.25698 4.62317 0
M  V30 1568 H 153.451 0.574383 2.48139 0
M  V30 1569 H 154.234 2.24157 2.60016 0
M  V30 1570 N 156.679 -1.44442 0.630414 0
M  V30 1571 C 157.927 -2.01653 0.134351 0
M  V30 1572 C 158.248 -1.49836 -1.24796 0
M  V30 1573 O 157.518 -0.701684 -1.82902 0
M  V30 1574 H 156.098 -0.74554 0.0466769 0
M  V30 1575 H 158.76 -1.76952 0.816955 0
M  V30 1576 H 157.856 -3.11935 0.101498 0
M  V30 1577 N 158.157 -0.370918 -1.53173 0
M  V30 1578 C 159.09 0.516727 -2.22273 0
M  V30 1579 C 160.068 1.07877 -1.21661 0
M  V30 1580 O 161.252 1.13389 -1.50583 0
M  V30 1581 C 158.379 1.71346 -2.92161 0
M  V30 1582 C 157.425 1.27838 -4.0689 0
M  V30 1583 S 158.258 0.275217 -5.34792 0
M  V30 1584 C 159.414 1.47816 -6.08195 0
M  V30 1585 H 159.647 -0.0701054 -2.97217 0
M  V30 1586 H 157.18 -0.155038 -1.5362 0
M  V30 1587 H 159.138 2.39988 -3.3304 0
M  V30 1588 H 157.799 2.27156 -2.16931 0
M  V30 1589 H 156.992 2.17141 -4.54825 0
M  V30 1590 H 156.594 0.671105 -3.6793 0
M  V30 1591 H 158.886 2.40831 -6.33251 0
M  V30 1592 H 159.829 1.04008 -7.0042 0
M  V30 1593 H 160.237 1.68663 -5.38714 0
M  V30 1594 N 159.635 1.57281 -0.100228 0
M  V30 1595 C 160.863 1.98879 0.570509 0
M  V30 1596 C 161.278 0.979476 1.61405 0
M  V30 1597 O 160.635 -0.0302288 1.82475 0
M  V30 1598 C 160.686 3.4052 1.2136 0
M  V30 1599 O 160.407 4.37588 0.211786 0
M  V30 1600 C 161.908 3.97149 1.96945 0
M  V30 1601 H 159.128 0.653428 0.152555 0
M  V30 1602 H 161.672 2.03697 -0.18103 0
M  V30 1603 H 159.827 3.367 1.91603 0
M  V30 1604 H 160.241 5.20118 0.676607 0
M  V30 1605 H 161.715 4.98393 2.37294 0
M  V30 1606 H 162.192 3.3525 2.83733 0
M  V30 1607 H 162.798 4.04458 1.31506 0
M  V30 1608 N 161.113 -0.173488 1.56642 0
M  V30 1609 C 162.529 -0.525174 1.50712 0
M  V30 1610 C 162.729 -1.8476 0.804107 0
M  V30 1611 O 161.785 -2.49869 0.363574 0
M  V30 1612 C 163.098 -0.559937 2.95441 0
M  V30 1613 C 164.646 -0.647288 3.06234 0
M  V30 1614 C 165.121 -0.712963 4.52417 0
M  V30 1615 N 166.612 -0.775911 4.56655 0
M  V30 1616 C 167.347 -0.847264 5.67106 0
M  V30 1617 N 166.843 -0.879585 6.87194 0
M  V30 1618 N 168.636 -0.886117 5.55071 0
M  V30 1619 H 160.787 0.693681 2.00753 0
M  V30 1620 H 163.05 0.249841 0.914485 0
M  V30 1621 H 162.756 0.343049 3.50023 0
M  V30 1622 H 162.63 -1.40718 3.49969 0
M  V30 1623 H 165.017 -1.5407 2.51687 0
M  V30 1624 H 165.098 0.226586 2.54794 0
M  V30 1625 H 164.742 0.176183 5.07594 0
M  V30 1626 H 164.672 -1.60295 5.0161 0
M  V30 1627 H 167.163 -0.759304 3.70193 0
M  V30 1628 H 167.476 -0.935144 7.67121 0
M  V30 1629 H 165.821 -0.847898 6.89808 0
M  V30 1630 H 169.012 -0.857853 4.60172 0
M  V30 1631 H 169.185 -0.938263 6.41171 0
M  V30 1632 N 162.591 -1.51276 -0.441967 0
M  V30 1633 C 163.868 -1.54252 -1.20273 0
M  V30 1634 C 164.248 -0.30408 -2.08898 0
M  V30 1635 O 163.596 0.711084 -2.17154 0
M  V30 1636 C 163.806 -2.85406 -2.00859 0
M  V30 1637 C 165.154 -3.37181 -2.58059 0
M  V30 1638 O 166.178 -2.86925 -2.11074 0
M  V30 1639 O 165.037 -4.24858 -3.43741 0
M  V30 1640 H 162.131 -0.619969 -0.547328 0
M  V30 1641 H 164.677 -1.63586 -0.451413 0
M  V30 1642 H 163.449 -3.67003 -1.35736 0
M  V30 1643 H 163.072 -2.79213 -2.83065 0
M  V30 1644 N 164.069 0.697108 -1.41344 0
M  V30 1645 C 165.346 1.45154 -1.31109 0
M  V30 1646 C 165.726 2.11009 0.0620449 0
M  V30 1647 O 165.074 2.01571 1.07618 0
M  V30 1648 C 165.284 2.47223 -2.46337 0
M  V30 1649 C 166.632 3.1252 -2.87431 0
M  V30 1650 O 167.656 2.57547 -2.46065 0
M  V30 1651 O 166.515 4.12083 -3.58957 0
M  V30 1652 H 163.609 0.646365 -0.515889 0
M  V30 1653 H 166.155 0.727716 -1.53305 0
M  V30 1654 H 164.927 1.97204 -3.37974 0
M  V30 1655 H 164.55 3.27116 -2.2601 0
M  V30 1656 N 165.547 1.27147 0.931209 0
M  V30 1657 C 166.477 1.12081 2.04842 0
M  V30 1658 C 167.458 0.0232364 1.70084 0
M  V30 1659 O 168.643 0.197085 1.93197 0
M  V30 1660 C 165.773 0.76354 3.38803 0
M  V30 1661 C 164.727 1.81396 3.87659 0
M  V30 1662 C 164.053 1.31075 5.18385 0
M  V30 1663 C 165.353 3.21739 4.11438 0
M  V30 1664 H 167.047 2.05537 2.17703 0
M  V30 1665 H 164.593 0.989603 1.04608 0
M  V30 1666 H 166.546 0.644982 4.16435 0
M  V30 1667 H 165.27 -0.206727 3.25945 0
M  V30 1668 H 163.929 1.92136 3.12217 0
M  V30 1669 H 163.577 0.330037 5.01916 0
M  V30 1670 H 163.277 2.013 5.52044 0
M  V30 1671 H 164.801 1.20506 5.98591 0
M  V30 1672 H 166.215 3.14019 4.79651 0
M  V30 1673 H 164.612 3.89644 4.56397 0
M  V30 1674 H 165.682 3.67054 3.16859 0
M  V30 1675 N 167.025 -1.13721 1.09112 0
M  V30 1676 C 168.272 -1.84924 0.825192 0
M  V30 1677 C 168.6 -1.83347 -0.649151 0
M  V30 1678 O 167.855 -1.26449 -1.49362 0
M  V30 1679 C 168.154 -3.32861 1.30146 0
M  V30 1680 C 167.82 -3.54621 2.78486 0
M  V30 1681 C 166.482 -3.60268 3.18999 0
M  V30 1682 C 168.834 -3.62855 3.74146 0
M  V30 1683 C 166.162 -3.71679 4.53951 0
M  V30 1684 C 168.514 -3.75793 5.08883 0
M  V30 1685 C 167.178 -3.79692 5.4899 0
M  V30 1686 H 166.448 -0.676684 0.301959 0
M  V30 1687 H 169.095 -1.3428 1.36533 0
M  V30 1688 H 167.4 -3.85835 0.681064 0
M  V30 1689 H 169.097 -3.86395 1.07236 0
M  V30 1690 H 165.687 -3.50879 2.46134 0
M  V30 1691 H 169.871 -3.57775 3.43963 0
M  V30 1692 H 165.127 -3.72963 4.84467 0
M  V30 1693 H 169.301 -3.81107 5.82864 0
M  V30 1694 H 166.928 -3.88287 6.53558 0
M  V30 1695 N 168.503 -0.877838 -1.30888 0
M  V30 1696 C 169.451 -0.328662 -2.30266 0
M  V30 1697 C 170.445 0.560496 -1.59859 0
M  V30 1698 O 171.651 0.445722 -1.74394 0
M  V30 1699 H 168.026 -0.0876142 -0.746879 0
M  V30 1700 H 169.997 -1.18061 -2.74051 0
M  V30 1701 C 168.746 0.448071 -3.44801 0
M  V30 1702 H 168.069 -0.226859 -3.99156 0
M  V30 1703 H 169.509 0.797541 -4.16432 0
M  V30 1704 C 167.968 1.64239 -2.94155 0
M  V30 1705 O 168.498 2.74175 -2.93583 0
M  V30 1706 N 166.704 1.47716 -2.50256 0
M  V30 1707 H 166.251 0.582821 -2.5092 0
M  V30 1708 H 166.209 2.27765 -2.16727 0
M  V30 1709 N 169.982 1.44106 -0.638065 0
M  V30 1710 C 171.21 2.06336 -0.152615 0
M  V30 1711 C 171.625 1.47731 1.17563 0
M  V30 1712 O 170.982 0.602806 1.72257 0
M  V30 1713 C 171.033 3.61479 -0.0391491 0
M  V30 1714 O 170.754 4.17903 -1.31487 0
M  V30 1715 C 172.255 4.40757 0.474176 0
M  V30 1716 H 169.475 0.665862 -0.0828776 0
M  V30 1717 H 172.019 1.84862 -0.87443 0
M  V30 1718 H 170.174 3.82191 0.633142 0
M  V30 1719 H 170.588 5.11416 -1.16421 0
M  V30 1720 H 172.062 5.49707 0.502562 0
M  V30 1721 H 172.539 4.12697 1.50258 0
M  V30 1722 H 173.145 4.24979 -0.165102 0
M  V30 1723 N 171.46 0.379036 1.52974 0
M  V30 1724 C 172.408 -0.476033 2.27677 0
M  V30 1725 C 173.402 -1.0719 1.31174 0
M  V30 1726 O 174.608 -1.01355 1.48752 0
M  V30 1727 H 170.983 -0.172255 0.732006 0
M  V30 1728 H 172.954 0.175615 2.97883 0
M  V30 1729 C 171.703 -1.5967 3.0887 0
M  V30 1730 H 171.026 -1.1475 3.82978 0
M  V30 1731 H 172.466 -2.16943 3.64296 0
M  V30 1732 C 170.925 -2.54682 2.20542 0
M  V30 1733 O 171.455 -3.57836 1.82527 0
M  V30 1734 N 169.661 -2.24183 1.84907 0
M  V30 1735 H 169.208 -1.40333 2.1602 0
M  V30 1736 H 169.166 -2.88006 1.26096 0
M  V30 1737 N 172.938 -1.57226 0.108567 0
M  V30 1738 C 173.901 -2.13602 -0.831082 0
M  V30 1739 C 174.901 -1.06841 -1.20173 0
M  V30 1740 O 176.091 -1.32666 -1.12895 0
M  V30 1741 C 173.223 -2.66769 -2.12243 0
M  V30 1742 H 174.416 -2.97951 -0.341317 0
M  V30 1743 H 171.969 -1.55667 -0.14057 0
M  V30 1744 H 172.704 -1.85977 -2.65675 0
M  V30 1745 H 172.489 -3.44839 -1.86625 0
M  V30 1746 H 173.979 -3.10332 -2.79435 0
M  V30 1747 N 174.416 0.165178 -1.56732 0
M  V30 1748 C 175.644 0.896218 -1.86482 0
M  V30 1749 C 176.059 1.75555 -0.694675 0
M  V30 1750 O 175.416 1.79379 0.33607 0
M  V30 1751 C 175.467 1.76792 -3.1532 0
M  V30 1752 O 175.188 0.943239 -4.27825 0
M  V30 1753 C 176.689 2.6081 -3.58459 0
M  V30 1754 H 173.909 0.260064 -0.618553 0
M  V30 1755 H 176.453 0.163428 -2.03846 0
M  V30 1756 H 174.608 2.45398 -2.99764 0
M  V30 1757 H 175.022 1.53998 -5.01383 0
M  V30 1758 H 176.496 3.17579 -4.51495 0
M  V30 1759 H 176.973 3.35977 -2.82872 0
M  V30 1760 H 177.579 1.97526 -3.76648 0
M  V30 1761 N 175.894 1.51508 0.433938 0
M  V30 1762 C 177.143 1.63578 1.18005 0
M  V30 1763 C 177.456 0.359514 1.92268 0
M  V30 1764 O 178.662 0.359632 2.69108 0
M  V30 1765 C 177.118 2.88901 2.14626 0
M  V30 1766 C 176.726 4.23544 1.45995 0
M  V30 1767 C 178.47 3.10328 2.89649 0
M  V30 1768 C 176.377 5.40014 2.4112 0
M  V30 1769 H 175.307 0.609277 0.444182 0
M  V30 1770 H 177.958 1.77978 0.446773 0
M  V30 1771 H 176.34 2.68142 2.91403 0
M  V30 1772 H 177.514 4.54696 0.747532 0
M  V30 1773 H 175.829 4.08021 0.831115 0
M  V30 1774 H 178.426 3.94518 3.60915 0
M  V30 1775 H 178.769 2.23544 3.51189 0
M  V30 1776 H 179.302 3.31443 2.19978 0
M  V30 1777 H 176.041 6.29068 1.84264 0
M  V30 1778 H 175.561 5.13233 3.10406 0
M  V30 1779 H 177.24 5.72099 3.02177 0
M  V30 1780 N 177.372 -0.689602 1.41712 0
M  V30 1781 C 178.618 -1.45181 1.41599 0
M  V30 1782 C 178.951 -1.94181 0.0270081 0
M  V30 1783 O 178.226 -1.6993 -0.946265 0
M  V30 1784 C 178.509 -2.65945 2.42787 0
M  V30 1785 C 178.362 -2.22672 3.90816 0
M  V30 1786 C 179.681 -3.68149 2.41151 0
M  V30 1787 H 176.8 -0.526576 0.515642 0
M  V30 1788 H 179.442 -0.784947 1.73028 0
M  V30 1789 H 177.592 -3.2284 2.16116 0
M  V30 1790 H 179.264 -1.71058 4.28412 0
M  V30 1791 H 177.507 -1.54394 4.05395 0
M  V30 1792 H 178.178 -3.0935 4.57172 0
M  V30 1793 H 180.654 -3.2094 2.64834 0
M  V30 1794 H 179.53 -4.50248 3.13955 0
M  V30 1795 H 179.791 -4.18259 1.43221 0
M  V30 1796 N 178.85 -1.27639 -0.924453 0
M  V30 1797 C 179.813 -1.10681 -2.00705 0
M  V30 1798 C 180.813 -0.0497823 -1.60723 0
M  V30 1799 O 182.003 -0.294654 -1.7169 0
M  V30 1800 C 179.135 -0.687164 -3.33902 0
M  V30 1801 H 180.328 -2.06817 -2.17179 0
M  V30 1802 H 177.881 -1.10473 -1.10569 0
M  V30 1803 H 178.616 0.275439 -3.23128 0
M  V30 1804 H 178.401 -1.45061 -3.6428 0
M  V30 1805 H 179.891 -0.590853 -4.13399 0
M  V30 1806 N 180.328 1.1314 -1.09713 0
M  V30 1807 C 181.556 1.88321 -0.856898 0
M  V30 1808 C 181.971 1.79276 0.592073 0
M  V30 1809 O 181.328 1.16142 1.40774 0
M  V30 1810 C 181.379 3.37812 -1.28706 0
M  V30 1811 O 181.1 3.46627 -2.67921 0
M  V30 1812 C 182.601 4.29952 -1.07964 0
M  V30 1813 H 179.821 0.596094 -0.308079 0
M  V30 1814 H 182.365 1.43205 -1.45988 0
M  V30 1815 H 180.52 3.805 -0.727912 0
M  V30 1816 H 180.934 4.39579 -2.8613 0
M  V30 1817 H 182.408 5.33159 -1.42986 0
M  V30 1818 H 182.885 4.39196 -0.0176577 0
M  V30 1819 H 183.491 3.93036 -1.62489 0
M  V30 1820 N 181.806 0.884767 1.30421 0
M  V30 1821 C 182.736 0.367574 2.30589 0
M  V30 1822 C 183.717 -0.549464 1.60981 0
M  V30 1823 O 184.902 -0.46336 1.88591 0
M  V30 1824 C 182.032 -0.418944 3.44764 0
M  V30 1825 C 180.986 0.406316 4.26067 0
M  V30 1826 C 180.312 -0.506793 5.32293 0
M  V30 1827 C 181.612 1.64832 4.95608 0
M  V30 1828 H 183.306 1.20462 2.74097 0
M  V30 1829 H 180.852 0.580695 1.31772 0
M  V30 1830 H 182.805 -0.791395 4.13902 0
M  V30 1831 H 181.529 -1.28964 3.0006 0
M  V30 1832 H 180.188 0.760903 3.58617 0
M  V30 1833 H 179.836 -1.37519 4.83836 0
M  V30 1834 H 179.536 0.0415828 5.87585 0
M  V30 1835 H 181.06 -0.875764 6.04287 0
M  V30 1836 H 182.474 1.34646 5.57264 0
M  V30 1837 H 180.871 2.13688 5.60765 0
M  V30 1838 H 181.941 2.39284 4.21748 0
M  V30 1839 N 183.284 -1.43765 0.645699 0
M  V30 1840 C 184.512 -2.06253 0.163556 0
M  V30 1841 C 184.927 -1.48352 -1.16778 0
M  V30 1842 O 184.284 -0.611932 -1.71935 0
M  V30 1843 C 184.335 -3.61453 0.0583186 0
M  V30 1844 O 184.056 -4.172 1.33702 0
M  V30 1845 C 185.557 -4.41002 -0.450795 0
M  V30 1846 H 182.777 -0.665413 0.0864077 0
M  V30 1847 H 185.321 -1.84396 0.884222 0
M  V30 1848 H 183.476 -3.82522 -0.612865 0
M  V30 1849 H 183.89 -5.10791 1.19131 0
M  V30 1850 H 185.364 -5.49966 -0.473403 0
M  V30 1851 H 185.841 -4.13488 -1.48068 0
M  V30 1852 H 186.447 -4.24886 0.187637 0
M  V30 1853 N 184.763 -0.387143 -1.52771 0
M  V30 1854 C 185.726 0.436939 -2.24997 0
M  V30 1855 C 186.726 0.991991 -1.26555 0
M  V30 1856 O 187.916 0.874335 -1.50669 0
M  V30 1857 C 185.048 1.61281 -3.00335 0
M  V30 1858 H 186.241 -0.195365 -2.99263 0
M  V30 1859 H 183.794 -0.139218 -1.55679 0
M  V30 1860 H 184.529 2.2826 -2.30364 0
M  V30 1861 H 184.314 1.22154 -3.72587 0
M  V30 1862 H 185.804 2.19629 -3.5518 0
M  V30 1863 N 186.241 1.57166 -0.116904 0
M  V30 1864 C 187.204 2.14039 0.819742 0
M  V30 1865 C 188.204 1.07477 1.19605 0
M  V30 1866 O 189.394 1.33263 1.1219 0
M  V30 1867 C 186.526 2.67891 2.10826 0
M  V30 1868 H 187.719 2.98128 0.325511 0
M  V30 1869 H 185.272 1.55739 0.132312 0
M  V30 1870 H 186.007 1.87384 2.64685 0
M  V30 1871 H 185.792 3.45823 1.84793 0
M  V30 1872 H 187.282 3.11809 2.77785 0
M  V30 1873 N 187.719 -0.156864 1.56817 0
M  V30 1874 C 188.959 -0.877453 1.84608 0
M  V30 1875 C 189.323 -1.78791 0.699845 0
M  V30 1876 O 190.524 -2.5472 0.858553 0
M  V30 1877 C 188.795 -1.63992 3.17555 0
M  V30 1878 S 190.354 -2.40729 3.66872 0
M  V30 1879 H 187.172 -0.293612 0.647544 0
M  V30 1880 H 189.774 -0.138099 1.95012 0
M  V30 1881 H 188.478 -0.962363 3.98957 0
M  V30 1882 H 188.009 -2.42038 3.10131 0
M  V30 1883 H 190.024 -3.65725 3.3535 0
M  V30 1884 N 189.197 -1.51736 -0.425897 0
M  V30 1885 C 190.16 -1.73271 -1.50032 0
M  V30 1886 C 191.16 -0.602639 -1.4908 0
M  V30 1887 O 192.35 -0.87033 -1.509 0
M  V30 1888 C 189.482 -1.79969 -2.89523 0
M  V30 1889 H 190.675 -2.69172 -1.32237 0
M  V30 1890 H 188.228 -1.41899 -0.65532 0
M  V30 1891 H 188.963 -0.859241 -3.1271 0
M  V30 1892 H 188.748 -2.62109 -2.91619 0
M  V30 1893 H 190.238 -1.9843 -3.67444 0
M  V30 1894 N 190.675 0.682077 -1.42076 0
M  V30 1895 C 191.607 1.80755 -1.40926 0
M  V30 1896 C 192.62 1.59833 -0.309398 0
M  V30 1897 O 193.809 1.69087 -0.572014 0
M  V30 1898 C 190.909 3.17744 -1.17865 0
M  V30 1899 C 190.082 3.65578 -2.40149 0
M  V30 1900 C 189.141 4.81277 -2.12742 0
M  V30 1901 O 188.167 4.92197 -2.85887 0
M  V30 1902 N 189.369 5.69474 -1.12602 0
M  V30 1903 H 192.134 1.82229 -2.37935 0
M  V30 1904 H 189.695 0.864903 -1.36861 0
M  V30 1905 H 191.687 3.9279 -0.9746 0
M  V30 1906 H 190.257 3.11214 -0.294068 0
M  V30 1907 H 189.477 2.81291 -2.76169 0
M  V30 1908 H 190.765 3.94278 -3.21593 0
M  V30 1909 H 190.163 5.63297 -0.520899 0
M  V30 1910 H 188.72 6.44363 -0.981842 0
M  V30 1911 N 192.153 1.28127 0.917671 0
M  V30 1912 C 193.103 1.08361 2.00604 0
M  V30 1913 C 194.087 0.00847518 1.60898 0
M  V30 1914 O 195.279 0.228167 1.75523 0
M  V30 1915 C 192.408 0.743376 3.35155 0
M  V30 1916 C 191.494 1.85716 3.81275 0
M  V30 1917 N 191.885 3.09822 3.99805 0
M  V30 1918 C 190.183 1.74612 4.10398 0
M  V30 1919 C 190.884 3.82368 4.38372 0
M  V30 1920 N 189.86 3.10192 4.4641 0
M  V30 1921 H 193.662 2.02531 2.12975 0
M  V30 1922 H 191.176 1.18989 1.10523 0
M  V30 1923 H 193.173 0.582859 4.12805 0
M  V30 1924 H 191.833 -0.190595 3.2414 0
M  V30 1925 H 192.844 3.45475 3.85833 0
M  V30 1926 H 189.521 0.883657 4.08041 0
M  V30 1927 H 190.911 4.89082 4.60704 0
M  V30 1928 N 193.631 -1.12557 1.10312 0
M  V30 1929 C 194.871 -1.8568 0.854543 0
M  V30 1930 C 195.235 -1.82091 -0.608843 0
M  V30 1931 O 196.436 -2.50544 -0.973717 0
M  V30 1932 C 194.707 -3.2942 1.38626 0
M  V30 1933 S 196.266 -4.19931 1.27293 0
M  V30 1934 H 193.084 -0.640427 0.308827 0
M  V30 1935 H 195.686 -1.35599 1.40831 0
M  V30 1936 H 194.39 -3.2959 2.44537 0
M  V30 1937 H 193.921 -3.84566 0.82902 0
M  V30 1938 H 195.936 -4.95668 0.229776 0
M  V30 1939 N 195.109 -0.891671 -1.2995 0
M  V30 1940 C 196.52 -0.563104 -1.78006 0
M  V30 1941 C 196.871 0.920978 -1.73241 0
M  V30 1942 O 195.996 1.71987 -1.31337 0
M  V30 1943 C 196.591 -1.01539 -3.23226 0
M  V30 1944 C 195.15 -0.738124 -3.69092 0
M  V30 1945 C 194.297 -1.19461 -2.50249 0
M  V30 1946 H 197.248 -1.07522 -1.16725 0
M  V30 1947 H 197.269 -0.347217 -3.78912 0
M  V30 1948 H 196.781 -2.09555 -3.26662 0
M  V30 1949 H 194.882 0.329766 -3.71138 0
M  V30 1950 H 194.995 -1.33037 -4.60259 0
M  V30 1951 H 193.359 -0.613787 -2.47194 0
M  V30 1952 H 194.142 -2.28265 -2.56417 0
M  V30 1953 N 196.587 1.43421 -0.653314 0
M  V30 1954 C 197.497 2.34568 0.0388565 0
M  V30 1955 C 198.513 1.53888 0.81207 0
M  V30 1956 O 199.689 1.86539 0.759294 0
M  V30 1957 C 196.754 3.32167 0.993269 0
M  V30 1958 C 195.815 4.28751 0.216977 0
M  V30 1959 C 195.048 5.21688 1.12593 0
M  V30 1960 O 195.271 5.19052 2.36519 0
M  V30 1961 O 194.205 5.98919 0.598284 0
M  V30 1962 H 198.031 2.95251 -0.711386 0
M  V30 1963 H 195.616 1.43564 -0.413502 0
M  V30 1964 H 197.498 3.92183 1.54176 0
M  V30 1965 H 196.173 2.73987 1.72374 0
M  V30 1966 H 195.08 3.72215 -0.375101 0
M  V30 1967 H 196.413 4.89913 -0.473924 0
M  V30 1968 N 198.065 0.39524 1.52563 0
M  V30 1969 C 199.028 -0.425001 2.25225 0
M  V30 1970 C 200.028 -0.985266 1.27079 0
M  V30 1971 O 201.218 -0.866332 1.5113 0
M  V30 1972 C 198.35 -1.59686 3.01186 0
M  V30 1973 H 199.543 0.211233 2.99155 0
M  V30 1974 H 197.096 0.147472 1.55603 0
M  V30 1975 H 197.831 -2.27035 2.31572 0
M  V30 1976 H 197.616 -1.20176 3.73229 0
M  V30 1977 H 199.106 -2.17743 3.5634 0
M  V30 1978 N 199.544 -1.57102 0.125237 0
M  V30 1979 C 200.477 -2.11371 -0.860094 0
M  V30 1980 C 201.455 -1.03168 -1.25679 0
M  V30 1981 O 202.639 -1.30862 -1.35674 0
M  V30 1982 C 199.766 -2.61555 -2.1519 0
M  V30 1983 C 198.812 -3.81701 -1.9028 0
M  V30 1984 S 199.645 -5.23797 -1.11343 0
M  V30 1985 C 200.801 -5.77353 -2.41689 0
M  V30 1986 H 201.034 -2.94617 -0.39852 0
M  V30 1987 H 198.567 -1.54145 -0.0886555 0
M  V30 1988 H 200.525 -2.91122 -2.89411 0
M  V30 1989 H 199.186 -1.78479 -2.58465 0
M  V30 1990 H 198.379 -4.14985 -2.86014 0
M  V30 1991 H 197.981 -3.52783 -1.24178 0
M  V30 1992 H 200.273 -5.87458 -3.37489 0
M  V30 1993 H 201.216 -6.75323 -2.12942 0
M  V30 1994 H 201.624 -5.05457 -2.51342 0
M  V30 1995 N 201.022 0.148545 -1.56898 0
M  V30 1996 C 202.271 0.85984 -1.82454 0
M  V30 1997 C 202.584 1.82406 -0.706229 0
M  V30 1998 O 203.79 2.57938 -0.847349 0
M  V30 1999 C 202.246 1.57967 -3.2338 0
M  V30 2000 C 201.854 0.65794 -4.43142 0
M  V30 2001 C 203.598 2.27784 -3.58211 0
M  V30 2002 C 201.505 1.3793 -5.75091 0
M  V30 2003 H 200.435 0.324834 -0.68044 0
M  V30 2004 H 203.086 0.112588 -1.83154 0
M  V30 2005 H 201.468 2.37249 -3.17063 0
M  V30 2006 H 202.642 -0.0995497 -4.60692 0
M  V30 2007 H 200.957 0.0682643 -4.16344 0
M  V30 2008 H 203.554 2.8239 -4.54048 0
M  V30 2009 H 203.897 3.04204 -2.84193 0
M  V30 2010 H 204.43 1.55421 -3.66182 0
M  V30 2011 H 201.169 0.656982 -6.52199 0
M  V30 2012 H 200.689 2.10954 -5.61479 0
M  V30 2013 H 202.368 1.92063 -6.17835 0
M  V30 2014 N 202.5 1.5196 0.417844 0
M  V30 2015 C 203.74 1.67262 1.17486 0
M  V30 2016 C 204.104 0.38983 1.88001 0
M  V30 2017 O 205.305 0.418845 2.65517 0
M  V30 2018 C 203.576 2.85526 2.14965 0
M  V30 2019 S 205.135 3.21263 2.98891 0
M  V30 2020 H 201.953 0.589077 0.398132 0
M  V30 2021 H 204.555 1.89927 0.463452 0
M  V30 2022 H 203.259 3.77145 1.61833 0
M  V30 2023 H 202.79 2.65107 2.90657 0
M  V30 2024 H 204.805 2.69208 4.16823 0
M  V30 2025 N 203.978 -0.674533 1.42435 0
M  V30 2026 C 205.224 -1.43671 1.43131 0
M  V30 2027 C 205.557 -1.94142 0.0476021 0
M  V30 2028 O 204.832 -1.70924 -0.928188 0
M  V30 2029 C 205.115 -2.63355 2.45594 0
M  V30 2030 C 204.968 -2.18514 3.93156 0
M  V30 2031 C 206.287 -3.65571 2.45043 0
M  V30 2032 H 203.406 -0.521077 0.521198 0
M  V30 2033 H 206.048 -0.766551 1.7385 0
M  V30 2034 H 204.198 -3.2053 2.19528 0
M  V30 2035 H 205.87 -1.66504 4.30202 0
M  V30 2036 H 204.113 -1.50086 4.07009 0
M  V30 2037 H 204.784 -3.04484 4.60428 0
M  V30 2038 H 207.26 -3.18113 2.68223 0
M  V30 2039 H 206.136 -4.46893 3.18713 0
M  V30 2040 H 206.397 -4.16716 1.47649 0
M  V30 2041 N 205.456 -1.28612 -0.910864 0
M  V30 2042 C 206.705 -1.15311 -1.65488 0
M  V30 2043 C 207.018 0.296999 -1.93332 0
M  V30 2044 O 208.224 0.551168 -2.65847 0
M  V30 2045 C 206.68 -2.01599 -2.98137 0
M  V30 2046 C 206.288 -3.51367 -2.7793 0
M  V30 2047 C 208.032 -1.96993 -3.76024 0
M  V30 2048 C 205.939 -4.29797 -4.06237 0
M  V30 2049 H 204.869 -0.42796 -0.620779 0
M  V30 2050 H 207.52 -1.53166 -1.01057 0
M  V30 2051 H 205.902 -1.56603 -3.63719 0
M  V30 2052 H 207.076 -4.0434 -2.21011 0
M  V30 2053 H 205.391 -3.57529 -2.13452 0
M  V30 2054 H 207.988 -2.52856 -4.71135 0
M  V30 2055 H 208.331 -0.94733 -4.05378 0
M  V30 2056 H 208.864 -2.39973 -3.17266 0
M  V30 2057 H 205.603 -5.32648 -3.82055 0
M  V30 2058 H 205.123 -3.81596 -4.62757 0
M  V30 2059 H 206.802 -4.39869 -4.74473 0
M  V30 2060 N 206.934 1.1197 -1.10907 0
M  V30 2061 C 207.897 2.16031 -0.765707 0
M  V30 2062 C 208.897 1.59393 0.212235 0
M  V30 2063 O 210.087 1.74196 -0.0115441 0
M  V30 2064 C 207.219 3.40632 -0.135053 0
M  V30 2065 H 208.412 2.47919 -1.68748 0
M  V30 2066 H 205.965 1.27061 -0.910226 0
M  V30 2067 H 206.7 3.14348 0.797218 0
M  V30 2068 H 206.485 3.8302 -0.838937 0
M  V30 2069 H 207.975 4.17505 0.0892469 0
M  V30 2070 N 208.412 0.89855 1.29475 0
M  V30 2071 C 209.36 0.365253 2.29714 0
M  V30 2072 C 210.354 -0.534993 1.6073 0
M  V30 2073 O 211.56 -0.417921 1.75081 0
M  V30 2074 H 207.935 0.0994853 0.74539 0
M  V30 2075 H 209.906 1.22406 2.72138 0
M  V30 2076 C 208.655 -0.393159 3.4547 0
M  V30 2077 H 207.978 0.290332 3.98744 0
M  V30 2078 H 209.418 -0.731189 4.17648 0
M  V30 2079 C 207.877 -1.59539 2.9673 0
M  V30 2080 O 208.407 -2.69469 2.97908 0
M  V30 2081 N 206.613 -1.43716 2.52575 0
M  V30 2082 H 206.16 -0.542828 2.51816 0
M  V30 2083 H 206.118 -2.24288 2.20323 0
M  V30 2084 N 209.89 -1.43072 0.660911 0
M  V30 2085 C 211.301 -1.84932 0.256348 0
M  V30 2086 C 211.652 -1.55325 -1.19868 0
M  V30 2087 O 210.777 -1.00607 -1.91591 0
M  V30 2088 C 211.372 -3.35684 0.458475 0
M  V30 2089 C 209.931 -3.76245 0.108161 0
M  V30 2090 C 209.078 -2.66749 0.757641 0
M  V30 2091 H 212.029 -1.33116 0.864051 0
M  V30 2092 H 212.05 -3.79365 -0.293683 0
M  V30 2093 H 211.562 -3.572 1.51755 0
M  V30 2094 H 209.663 -3.60338 -0.948014 0
M  V30 2095 H 209.776 -4.76058 0.538992 0
M  V30 2096 H 208.14 -2.53989 0.190185 0
M  V30 2097 H 208.923 -2.91092 1.81989 0
M  V30 2098 N 211.368 -0.403325 -1.52352 0
M  V30 2099 C 212.614 0.174605 -2.02047 0
M  V30 2100 C 212.947 1.45282 -1.28867 0
M  V30 2101 O 212.222 1.90483 -0.393257 0
M  V30 2102 C 212.505 0.428238 -3.57545 0
M  V30 2103 C 212.358 -0.866248 -4.4138 0
M  V30 2104 C 213.677 1.21287 -4.23057 0
M  V30 2105 H 210.796 0.0619851 -0.734389 0
M  V30 2106 H 213.438 -0.53565 -1.82293 0
M  V30 2107 H 211.588 1.03327 -3.74507 0
M  V30 2108 H 213.26 -1.50265 -4.3614 0
M  V30 2109 H 211.503 -1.47851 -4.07827 0
M  V30 2110 H 212.174 -0.643249 -5.48239 0
M  V30 2111 H 214.65 0.700703 -4.10158 0
M  V30 2112 H 213.526 1.35909 -5.31808 0
M  V30 2113 H 213.787 2.23193 -3.81625 0
M  V30 2114 N 212.846 1.57033 -0.133567 0
M  V30 2115 C 213.794 2.17348 0.828412 0
M  V30 2116 C 214.788 1.12671 1.26498 0
M  V30 2117 O 215.994 1.30947 1.23502 0
M  V30 2118 H 212.369 0.695775 0.285309 0
M  V30 2119 H 214.34 2.96935 0.295372 0
M  V30 2120 C 213.089 2.79893 2.06289 0
M  V30 2121 H 212.412 3.60147 1.73592 0
M  V30 2122 H 213.852 3.25615 2.71572 0
M  V30 2123 C 212.311 1.77713 2.86216 0
M  V30 2124 O 212.841 1.23937 3.82103 0
M  V30 2125 N 211.047 1.47321 2.50489 0
M  V30 2126 H 210.594 1.91243 1.7258 0
M  V30 2127 H 210.552 0.79199 3.04261 0
M  V30 2128 N 214.325 -0.140222 1.56975 0
M  V30 2129 C 215.55 -0.870414 1.88251 0
M  V30 2130 C 215.975 -1.73637 0.723312 0
M  V30 2131 O 215.333 -1.78329 -0.32689 0
M  V30 2132 C 215.381 -1.69737 3.18154 0
M  V30 2133 O 214.485 -2.80229 3.02565 0
M  V30 2134 H 213.826 -0.242025 0.61832 0
M  V30 2135 H 216.356 -0.128999 2.04193 0
M  V30 2136 H 216.366 -2.09099 3.50345 0
M  V30 2137 H 215.041 -1.06152 4.02125 0
M  V30 2138 H 213.618 -2.44224 2.81796 0
M  V30 2139 N 215.803 -1.52179 -0.40978 0
M  V30 2140 C 217.031 -1.70054 -1.17853 0
M  V30 2141 C 217.446 -0.409735 -1.843 0
M  V30 2142 O 216.803 0.614183 -1.71855 0
M  V30 2143 C 216.854 -2.83568 -2.24213 0
M  V30 2144 O 216.575 -4.0765 -1.60478 0
M  V30 2145 C 218.076 -3.12947 -3.13973 0
M  V30 2146 H 215.296 -0.569917 -0.354169 0
M  V30 2147 H 217.84 -1.98734 -0.482198 0
M  V30 2148 H 215.995 -2.57409 -2.89516 0
M  V30 2149 H 216.409 -4.70899 -2.30986 0
M  V30 2150 H 217.883 -3.95889 -3.84677 0
M  V30 2151 H 218.36 -2.26472 -3.76307 0
M  V30 2152 H 218.966 -3.40868 -2.5434 0
M  V30 2153 N 217.281 0.66697 -1.42791 0
M  V30 2154 C 218.53 1.42278 -1.42968 0
M  V30 2155 C 218.843 1.9553 -0.0524489 0
M  V30 2156 O 220.049 2.71414 0.068363 0
M  V30 2157 C 218.505 2.57418 -2.51524 0
M  V30 2158 C 218.113 2.10832 -3.9529 0
M  V30 2159 C 219.857 3.34878 -2.60877 0
M  V30 2160 C 217.764 3.23101 -4.95338 0
M  V30 2161 H 216.694 0.534533 -0.531781 0
M  V30 2162 H 219.345 0.721302 -1.68729 0
M  V30 2163 H 217.727 3.29971 -2.18941 0
M  V30 2164 H 218.901 1.4538 -4.37266 0
M  V30 2165 H 217.216 1.46289 -3.89857 0
M  V30 2166 H 219.813 4.18505 -3.32802 0
M  V30 2167 H 220.156 3.81993 -1.6549 0
M  V30 2168 H 220.689 2.69398 -2.92693 0
M  V30 2169 H 217.428 2.80969 -5.9223 0
M  V30 2170 H 216.948 3.87309 -4.57987 0
M  V30 2171 H 218.627 3.88447 -5.17415 0
M  V30 2172 N 218.759 1.29093 0.90403 0
M  V30 2173 C 220.17 1.15186 1.46932 0
M  V30 2174 C 220.521 -0.254587 1.94541 0
M  V30 2175 O 219.646 -1.14972 1.83332 0
M  V30 2176 C 220.241 2.08492 2.67051 0
M  V30 2177 C 218.8 1.98621 3.19729 0
M  V30 2178 C 217.947 1.9967 1.92425 0
M  V30 2179 H 220.898 1.41641 0.715789 0
M  V30 2180 H 220.919 1.65461 3.42641 0
M  V30 2181 H 220.431 3.10847 2.3237 0
M  V30 2182 H 218.532 0.993389 3.59114 0
M  V30 2183 H 218.645 2.86068 3.8432 0
M  V30 2184 H 217.009 1.44208 2.09943 0
M  V30 2185 H 217.792 3.03721 1.60026 0
M  V30 2186 N 220.237 -1.11381 1.11499 0
M  V30 2187 C 221.486 -1.82494 0.858993 0
M  V30 2188 C 221.799 -1.85605 -0.617278 0
M  V30 2189 O 223.005 -2.52824 -0.989552 0
M  V30 2190 C 221.461 -3.27745 1.48699 0
M  V30 2191 C 221.069 -3.32961 2.99735 0
M  V30 2192 C 222.813 -4.03754 1.31085 0
M  V30 2193 C 220.72 -4.72612 3.55516 0
M  V30 2194 H 219.65 -0.683802 0.317696 0
M  V30 2195 H 222.301 -1.25331 1.34031 0
M  V30 2196 H 220.683 -3.84844 0.933339 0
M  V30 2197 H 221.857 -2.85741 3.61509 0
M  V30 2198 H 220.172 -2.70433 3.16631 0
M  V30 2199 H 222.769 -5.06891 1.70192 0
M  V30 2200 H 223.112 -4.15527 0.253496 0
M  V30 2201 H 223.645 -3.53043 1.83318 0
M  V30 2202 H 220.384 -4.66036 4.60967 0
M  V30 2203 H 219.904 -5.2024 2.98513 0
M  V30 2204 H 221.583 -5.4157 3.53992 0
M  V30 2205 N 221.715 -0.905404 -1.28997 0
M  V30 2206 C 222.943 -0.549846 -1.9946 0
M  V30 2207 C 223.358 0.866834 -1.67724 0
M  V30 2208 O 222.715 1.57298 -0.925404 0
M  V30 2209 C 222.766 -0.739387 -3.53858 0
M  V30 2210 O 222.487 -2.10031 -3.84472 0
M  V30 2211 C 223.988 -0.389541 -4.41585 0
M  V30 2212 H 221.208 -0.210429 -0.637151 0
M  V30 2213 H 223.752 -1.21632 -1.64396 0
M  V30 2214 H 221.907 -0.120023 -3.87214 0
M  V30 2215 H 222.321 -2.13385 -4.79132 0
M  V30 2216 H 223.795 -0.572972 -5.49018 0
M  V30 2217 H 224.272 0.673756 -4.34001 0
M  V30 2218 H 224.878 -0.986089 -4.1371 0
M  V30 2219 N 223.193 1.4272 -0.668489 0
M  V30 2220 C 224.156 2.292 0.00448567 0
M  V30 2221 C 225.156 1.43001 0.735339 0
M  V30 2222 O 226.346 1.64461 0.57429 0
M  V30 2223 C 223.478 3.25375 1.01705 0
M  V30 2224 H 224.671 2.90199 -0.756608 0
M  V30 2225 H 222.224 1.50254 -0.430506 0
M  V30 2226 H 222.959 2.69301 1.80686 0
M  V30 2227 H 222.744 3.88944 0.496463 0
M  V30 2228 H 224.234 3.90245 1.48655 0
M  V30 2229 N 224.671 0.411399 1.52136 0
M  V30 2230 C 225.581 -0.419774 2.30814 0
M  V30 2231 C 226.597 -1.0515 1.38634 0
M  V30 2232 O 227.773 -1.05252 1.71709 0
M  V30 2233 C 224.838 -1.52019 3.11594 0
M  V30 2234 C 223.899 -0.91129 4.19516 0
M  V30 2235 C 223.132 -1.95927 4.96436 0
M  V30 2236 O 223.355 -3.17775 4.73683 0
M  V30 2237 O 222.289 -1.56423 5.81219 0
M  V30 2238 H 226.115 0.221805 3.02889 0
M  V30 2239 H 223.7 0.174547 1.48377 0
M  V30 2240 H 225.582 -2.15898 3.61892 0
M  V30 2241 H 224.257 -2.14633 2.42311 0
M  V30 2242 H 223.164 -0.235157 3.7336 0
M  V30 2243 H 224.497 -0.32904 4.91099 0
M  V30 2244 N 226.149 -1.5696 0.141893 0
M  V30 2245 C 227.395 -1.9625 -0.511248 0
M  V30 2246 C 227.728 -1.02654 -1.64851 0
M  V30 2247 O 227.003 -0.0679676 -1.94381 0
M  V30 2248 C 227.286 -3.45285 -1.02227 0
M  V30 2249 C 227.139 -4.49658 0.113138 0
M  V30 2250 C 228.458 -3.96698 -1.90574 0
M  V30 2251 H 225.577 -0.713567 -0.184367 0
M  V30 2252 H 228.219 -1.88698 0.222087 0
M  V30 2253 H 226.369 -3.51852 -1.64719 0
M  V30 2254 H 228.041 -4.55174 0.749302 0
M  V30 2255 H 226.284 -4.26857 0.773026 0
M  V30 2256 H 226.955 -5.51258 -0.286053 0
M  V30 2257 H 229.431 -3.92578 -1.37918 0
M  V30 2258 H 228.307 -5.01453 -2.2324 0
M  V30 2259 H 228.568 -3.3875 -2.84079 0
M  V30 2260 N 227.627 0.131896 -1.57047 0
M  V30 2261 C 228.874 0.841932 -1.84168 0
M  V30 2262 C 229.202 1.8048 -0.725066 0
M  V30 2263 O 228.457 1.93618 0.284692 0
M  V30 2264 C 228.756 1.63703 -3.17704 0
M  V30 2265 C 228.422 0.81961 -4.43388 0
M  V30 2266 C 227.084 0.594148 -4.77518 0
M  V30 2267 C 229.436 0.248977 -5.20605 0
M  V30 2268 C 226.764 -0.212409 -5.86315 0
M  V30 2269 C 229.116 -0.544701 -6.30251 0
M  V30 2270 C 227.78 -0.780599 -6.6292 0
M  V30 2271 H 227.05 0.308085 -0.673917 0
M  V30 2272 H 229.697 0.104867 -1.91213 0
M  V30 2273 H 228.002 2.44464 -3.06177 0
M  V30 2274 H 229.699 2.19015 -3.35907 0
M  V30 2275 H 226.289 1.00542 -4.16641 0
M  V30 2276 H 230.473 0.410408 -4.946 0
M  V30 2277 H 225.729 -0.404524 -6.1006 0
M  V30 2278 H 229.903 -0.993922 -6.89271 0
M  V30 2279 H 227.53 -1.40742 -7.47058 0
M  V30 2280 N 229.106 1.52395 0.401703 0
M  V30 2281 C 230.053 1.76268 1.48991 0
M  V30 2282 C 231.023 0.605386 1.54675 0
M  V30 2283 O 232.208 0.843742 1.7113 0
M  V30 2284 C 229.348 1.92592 2.86361 0
M  V30 2285 C 228.461 3.20259 2.89928 0
M  V30 2286 C 227.596 3.26972 4.18644 0
M  V30 2287 C 226.635 4.48812 4.16214 0
M  V30 2288 N 225.772 4.52877 5.36514 0
M  V30 2289 H 230.612 2.6914 1.27935 0
M  V30 2290 H 228.149 1.33355 0.620871 0
M  V30 2291 H 230.107 2.0004 3.66115 0
M  V30 2292 H 228.737 1.03093 3.05895 0
M  V30 2293 H 227.789 3.21945 2.02621 0
M  V30 2294 H 229.101 4.10056 2.83999 0
M  V30 2295 H 228.255 3.33533 5.06794 0
M  V30 2296 H 226.994 2.35126 4.27278 0
M  V30 2297 H 225.999 4.4239 3.26453 0
M  V30 2298 H 227.224 5.41961 4.09213 0
M  V30 2299 H 225.17 3.63917 5.45802 0
M  V30 2300 H 225.087 5.36529 5.32609 0
M  V30 2301 H 226.355 4.63676 6.26597 0
M  V30 2302 N 230.584 -0.659388 1.43143 0
M  V30 2303 C 231.531 -1.77249 1.47822 0
M  V30 2304 C 232.501 -1.62818 0.328558 0
M  V30 2305 O 233.686 -1.83151 0.534838 0
M  V30 2306 C 230.826 -3.15371 1.40126 0
M  V30 2307 C 229.939 -3.4098 2.65249 0
M  V30 2308 C 229.074 -4.68915 2.49584 0
M  V30 2309 C 228.113 -4.87608 3.70006 0
M  V30 2310 N 227.25 -6.06796 3.53189 0
M  V30 2311 H 232.09 -1.72584 2.42938 0
M  V30 2312 H 229.627 -0.842297 1.20598 0
M  V30 2313 H 231.585 -3.9521 1.33659 0
M  V30 2314 H 230.215 -3.19121 0.485964 0
M  V30 2315 H 229.267 -2.55282 2.8202 0
M  V30 2316 H 230.579 -3.50681 3.54717 0
M  V30 2317 H 229.733 -5.56871 2.4079 0
M  V30 2318 H 228.472 -4.61524 1.5763 0
M  V30 2319 H 227.477 -3.9809 3.79215 0
M  V30 2320 H 228.702 -4.96834 4.62961 0
M  V30 2321 H 226.648 -6.00549 2.63965 0
M  V30 2322 H 226.565 -6.17428 4.36255 0
M  V30 2323 H 227.833 -6.9739 3.48236 0
M  V30 2324 N 232.062 -1.29571 -0.897171 0
M  V30 2325 C 233.012 -1.11539 -1.98855 0
M  V30 2326 C 233.996 -0.0340716 -1.60864 0
M  V30 2327 O 235.188 -0.256062 -1.75138 0
M  V30 2328 C 232.317 -0.796603 -3.3393 0
M  V30 2329 C 231.403 -1.91758 -3.78272 0
M  V30 2330 N 231.794 -3.16143 -3.94826 0
M  V30 2331 C 230.092 -1.81119 -4.07568 0
M  V30 2332 C 230.793 -3.89293 -4.32233 0
M  V30 2333 N 229.769 -3.17255 -4.41419 0
M  V30 2334 H 233.571 -2.05894 -2.09726 0
M  V30 2335 H 231.085 -1.20732 -1.08616 0
M  V30 2336 H 233.082 -0.648459 -4.11826 0
M  V30 2337 H 231.742 0.139003 -3.24402 0
M  V30 2338 H 232.753 -3.5157 -3.80288 0
M  V30 2339 H 229.43 -0.948461 -4.06584 0
M  V30 2340 H 230.82 -4.9635 -4.52865 0
M  V30 2341 N 233.54 1.10788 -1.12088 0
M  V30 2342 C 234.788 1.8231 -0.872205 0
M  V30 2343 C 235.109 1.85419 0.603709 0
M  V30 2344 O 234.379 1.32963 1.43867 0
M  V30 2345 H 232.959 0.675137 -0.319686 0
M  V30 2346 H 235.621 1.34068 -1.41463 0
M  V30 2347 H 234.717 2.85955 -1.25045 0
M  V30 2348 N 235.018 0.912232 1.28515 0
M  V30 2349 C 236.264 0.545405 1.95328 0
M  V30 2350 C 236.597 -0.908313 1.71649 0
M  V30 2351 O 235.872 -1.64575 1.03659 0
M  V30 2352 C 236.155 0.853483 3.4984 0
M  V30 2353 C 236.008 2.35982 3.82926 0
M  V30 2354 C 237.327 0.348589 4.38717 0
M  V30 2355 H 234.446 0.199626 0.709449 0
M  V30 2356 H 237.088 1.1412 1.5191 0
M  V30 2357 H 235.238 0.34643 3.86952 0
M  V30 2358 H 236.91 2.93738 3.55691 0
M  V30 2359 H 235.153 2.81543 3.30024 0
M  V30 2360 H 235.824 2.52593 4.90816 0
M  V30 2361 H 238.3 0.78294 4.08668 0
M  V30 2362 H 237.176 0.593242 5.45685 0
M  V30 2363 H 237.437 -0.751049 4.35674 0
M  V30 2364 N 236.496 -1.42363 0.676048 0
M  V30 2365 C 237.726 -2.05561 0.206967 0
M  V30 2366 C 238.134 -1.50887 -1.14148 0
M  V30 2367 O 237.477 -0.643933 -1.72044 0
M  V30 2368 C 237.539 -3.5944 0.0659508 0
M  V30 2369 C 237.203 -4.36812 1.34331 0
M  V30 2370 C 238.2 -4.67383 2.27704 0
M  V30 2371 C 235.885 -4.76429 1.59125 0
M  V30 2372 C 237.879 -5.36509 3.44147 0
M  V30 2373 C 235.566 -5.45294 2.75857 0
M  V30 2374 C 236.564 -5.75259 3.68193 0
M  V30 2375 O 236.252 -6.42712 4.82883 0
M  V30 2376 H 235.984 -0.668872 0.0979084 0
M  V30 2377 H 238.538 -1.83467 0.923531 0
M  V30 2378 H 236.768 -3.80197 -0.706204 0
M  V30 2379 H 238.457 -4.0427 -0.363418 0
M  V30 2380 H 239.223 -4.37275 2.09799 0
M  V30 2381 H 235.102 -4.52498 0.881258 0
M  V30 2382 H 238.646 -5.59814 4.16238 0
M  V30 2383 H 234.543 -5.7482 2.93688 0
M  V30 2384 H 235.311 -6.61204 4.82444 0
M  V30 2385 N 237.974 -0.419461 -1.51915 0
M  V30 2386 C 238.922 0.415502 -2.28859 0
M  V30 2387 C 239.916 1.03674 -1.3397 0
M  V30 2388 O 241.122 0.973757 -1.51387 0
M  V30 2389 H 237.497 0.152786 -0.736315 0
M  V30 2390 H 239.468 -0.254531 -2.97312 0
M  V30 2391 C 238.217 1.51425 -3.12995 0
M  V30 2392 H 237.54 1.04556 -3.85886 0
M  V30 2393 H 238.98 2.07208 -3.6992 0
M  V30 2394 C 237.439 2.48745 -2.27217 0
M  V30 2395 O 237.969 3.52871 -1.9195 0
M  V30 2396 N 236.175 2.19202 -1.90785 0
M  V30 2397 H 235.722 1.34556 -2.19664 0
M  V30 2398 H 235.68 2.84561 -1.33687 0
M  V30 2399 N 239.452 1.56882 -0.150215 0
M  V30 2400 C 240.863 1.82995 0.370076 0
M  V30 2401 C 241.214 1.06907 1.64515 0
M  V30 2402 O 240.339 0.315369 2.1409 0
M  V30 2403 C 240.934 3.31942 0.678208 0
M  V30 2404 C 239.493 3.58625 1.14301 0
M  V30 2405 C 238.64 2.76792 0.167778 0
M  V30 2406 H 241.591 1.54209 -0.374858 0
M  V30 2407 H 241.612 3.48272 1.53254 0
M  V30 2408 H 241.124 3.87294 -0.249991 0
M  V30 2409 H 239.225 3.08664 2.08704 0
M  V30 2410 H 239.338 4.67073 1.06676 0
M  V30 2411 H 237.702 2.45972 0.661037 0
M  V30 2412 H 238.485 3.34916 -0.754069 0
M  V30 2413 N 240.93 -0.123565 1.57115 0
M  V30 2414 C 241.878 -1.17082 2.00984 0
M  V30 2415 C 242.872 -1.43136 0.906009 0
M  V30 2416 O 244.078 -1.43152 1.09121 0
M  V30 2417 H 240.453 -0.394653 0.64012 0
M  V30 2418 H 242.424 -0.774292 2.88179 0
M  V30 2419 C 241.173 -2.49057 2.42623 0
M  V30 2420 H 240.496 -2.29846 3.27125 0
M  V30 2421 H 241.936 -3.20906 2.7712 0
M  V30 2422 C 240.395 -3.11305 1.28805 0
M  V30 2423 O 240.925 -3.97171 0.60153 0
M  V30 2424 N 239.131 -2.71111 1.04628 0
M  V30 2425 H 238.678 -2.01382 1.60634 0
M  V30 2426 H 238.636 -3.1309 0.286685 0
M  V30 2427 N 242.408 -1.52605 -0.393616 0
M  V30 2428 C 243.355 -1.77055 -1.48054 0
M  V30 2429 C 244.325 -0.61358 -1.54352 0
M  V30 2430 O 245.51 -0.852806 -1.70681 0
M  V30 2431 C 242.65 -1.94108 -2.85335 0
M  V30 2432 C 241.763 -3.21792 -2.88226 0
M  V30 2433 C 240.898 -3.29188 -4.16904 0
M  V30 2434 C 239.937 -4.51013 -4.13828 0
M  V30 2435 N 239.074 -4.55716 -5.34105 0
M  V30 2436 H 243.914 -2.69815 -1.26506 0
M  V30 2437 H 241.451 -1.33683 -0.61379 0
M  V30 2438 H 243.409 -2.01979 -3.65049 0
M  V30 2439 H 242.039 -1.04713 -3.05344 0
M  V30 2440 H 241.091 -3.23015 -2.00911 0
M  V30 2441 H 242.403 -4.11557 -2.8182 0
M  V30 2442 H 241.557 -3.36216 -5.05018 0
M  V30 2443 H 240.296 -2.37389 -4.26026 0
M  V30 2444 H 239.301 -4.44115 -3.24102 0
M  V30 2445 H 240.526 -5.44123 -4.06333 0
M  V30 2446 H 238.472 -3.66807 -5.43865 0
M  V30 2447 H 238.389 -5.39346 -5.29756 0
M  V30 2448 H 239.657 -4.66993 -6.2413 0
M  V30 2449 N 243.887 0.651787 -1.4349 0
M  V30 2450 C 245.136 1.40754 -1.44469 0
M  V30 2451 C 245.449 1.95463 -0.0731845 0
M  V30 2452 O 246.655 2.71471 0.0395721 0
M  V30 2453 C 245.111 2.54735 -2.5424 0
M  V30 2454 C 244.719 2.06628 -3.97504 0
M  V30 2455 C 246.463 3.32092 -2.64414 0
M  V30 2456 C 244.37 3.17829 -4.98737 0
M  V30 2457 H 243.3 0.528862 -0.53742 0
M  V30 2458 H 245.951 0.703365 -1.69485 0
M  V30 2459 H 244.333 3.2763 -2.22428 0
M  V30 2460 H 245.507 1.40734 -4.38783 0
M  V30 2461 H 243.822 1.42146 -3.91387 0
M  V30 2462 H 246.419 4.14952 -3.37223 0
M  V30 2463 H 246.762 3.80217 -1.69532 0
M  V30 2464 H 247.295 2.66279 -2.95534 0
M  V30 2465 H 244.034 2.74671 -5.95177 0
M  V30 2466 H 243.554 3.82429 -4.62069 0
M  V30 2467 H 245.233 3.82937 -5.21505 0
M  V30 2468 N 245.365 1.30045 0.890287 0
M  V30 2469 C 246.612 1.18561 1.64163 0
M  V30 2470 C 246.94 -0.260852 1.92743 0
M  V30 2471 O 246.195 -1.20376 1.54299 0
M  V30 2472 C 246.494 1.95409 2.99249 0
M  V30 2473 C 246.16 3.45066 2.90242 0
M  V30 2474 C 244.822 3.85878 2.87492 0
M  V30 2475 C 247.174 4.4039 2.78758 0
M  V30 2476 C 244.502 5.20314 2.7109 0
M  V30 2477 C 246.854 5.74928 2.63894 0
M  V30 2478 C 245.518 6.14986 2.59516 0
M  V30 2479 H 244.788 0.433846 0.600715 0
M  V30 2480 H 247.435 1.61088 1.03552 0
M  V30 2481 H 245.74 1.45501 3.63781 0
M  V30 2482 H 247.437 1.8392 3.56334 0
M  V30 2483 H 244.027 3.12631 2.93189 0
M  V30 2484 H 248.211 4.09806 2.79952 0
M  V30 2485 H 243.467 5.50449 2.66112 0
M  V30 2486 H 247.641 6.48434 2.53981 0
M  V30 2487 H 245.268 7.19104 2.46565 0
M  V30 2488 N 246.843 -1.10192 1.12674 0
M  V30 2489 C 248.091 -1.81845 0.881861 0
M  V30 2490 C 248.412 -1.85737 -0.593867 0
M  V30 2491 O 247.682 -1.33724 -1.4316 0
M  V30 2492 H 246.262 -0.673432 0.323261 0
M  V30 2493 H 248.924 -1.33316 1.42172 0
M  V30 2494 H 248.02 -2.85288 1.2656 0
M  V30 2495 N 248.321 -0.919034 -1.28029 0
M  V30 2496 C 249.567 -0.555757 -1.95036 0
M  V30 2497 C 249.9 0.899198 -1.72128 0
M  V30 2498 O 249.175 1.64023 -1.04531 0
M  V30 2499 C 249.458 -0.872024 -3.49382 0
M  V30 2500 C 249.311 -2.3801 -3.81669 0
M  V30 2501 C 250.63 -0.37185 -4.38526 0
M  V30 2502 H 247.749 -0.203386 -0.708381 0
M  V30 2503 H 250.391 -1.14924 -1.51303 0
M  V30 2504 H 248.541 -0.366946 -3.86763 0
M  V30 2505 H 250.213 -2.9562 -3.54128 0
M  V30 2506 H 248.456 -2.83289 -3.28526 0
M  V30 2507 H 249.127 -2.55192 -4.8947 0
M  V30 2508 H 251.603 -0.804602 -4.08247 0
M  V30 2509 H 250.479 -0.622173 -5.45362 0
M  V30 2510 H 250.74 0.727934 -4.36066 0
M  V30 2511 N 249.799 1.42003 -0.683588 0
M  V30 2512 C 251.027 2.05746 -0.218182 0
M  V30 2513 C 251.442 1.51396 1.12804 0
M  V30 2514 O 250.799 0.657303 1.70252 0
M  V30 2515 C 250.85 3.61171 -0.154131 0
M  V30 2516 O 250.571 4.13508 -1.44716 0
M  V30 2517 C 252.072 4.42042 0.333713 0
M  V30 2518 H 249.292 0.662888 -0.10402 0
M  V30 2519 H 251.836 1.81987 -0.9328 0
M  V30 2520 H 249.991 3.84012 0.511231 0
M  V30 2521 H 250.405 5.07453 -1.32632 0
M  V30 2522 H 251.879 5.51028 0.327423 0
M  V30 2523 H 252.356 4.17269 1.37053 0
M  V30 2524 H 252.962 4.24239 -0.300222 0
M  V30 2525 N 251.277 0.427512 1.51691 0
M  V30 2526 C 252.505 -0.141191 2.06418 0
M  V30 2527 C 252.92 -1.37303 1.29589 0
M  V30 2528 O 252.277 -1.79059 0.352732 0
M  V30 2529 C 252.328 -0.473266 3.58389 0
M  V30 2530 O 252.049 0.709673 4.32314 0
M  V30 2531 C 253.55 -1.09371 4.29596 0
M  V30 2532 H 250.77 -0.0122747 0.670888 0
M  V30 2533 H 253.314 0.603764 1.95384 0
M  V30 2534 H 251.469 -1.16812 3.69369 0
M  V30 2535 H 251.883 0.42807 5.2275 0
M  V30 2536 H 253.357 -1.27613 5.37046 0
M  V30 2537 H 253.834 -2.072 3.87253 0
M  V30 2538 H 254.44 -0.43853 4.23033 0
M  V30 2539 N 252.755 -1.56801 0.158532 0
M  V30 2540 C 253.685 -2.20347 -0.772609 0
M  V30 2541 C 254.666 -1.15518 -1.24859 0
M  V30 2542 O 255.851 -1.43902 -1.30406 0
M  V30 2543 C 252.981 -2.83417 -2.00729 0
M  V30 2544 C 251.935 -3.94174 -1.66765 0
M  V30 2545 C 251.261 -4.44233 -2.97592 0
M  V30 2546 C 252.561 -5.14392 -0.905447 0
M  V30 2547 H 254.255 -2.98413 -0.242959 0
M  V30 2548 H 251.801 -1.43537 -0.115419 0
M  V30 2549 H 253.754 -3.26543 -2.6636 0
M  V30 2550 H 252.478 -2.02701 -2.56086 0
M  V30 2551 H 251.137 -3.51684 -1.03508 0
M  V30 2552 H 250.785 -3.60325 -3.50963 0
M  V30 2553 H 250.485 -5.18945 -2.75626 0
M  V30 2554 H 252.009 -4.90037 -3.64274 0
M  V30 2555 H 253.423 -5.5429 -1.46408 0
M  V30 2556 H 251.82 -5.9494 -0.7853 0
M  V30 2557 H 252.89 -4.84795 0.100668 0
M  V30 2558 N 254.233 0.115231 -1.57178 0
M  V30 2559 C 255.51 0.852873 -1.76027 0
M  V30 2560 C 255.89 1.97892 -0.73498 0
M  V30 2561 O 255.238 2.27232 0.24036 0
M  V30 2562 C 255.448 1.36608 -3.21153 0
M  V30 2563 C 256.796 1.81692 -3.83762 0
M  V30 2564 O 257.82 1.46278 -3.24779 0
M  V30 2565 O 256.679 2.47104 -4.87444 0
M  V30 2566 H 253.773 0.405296 -0.720877 0
M  V30 2567 H 256.319 0.0986785 -1.69413 0
M  V30 2568 H 255.091 0.558357 -3.87296 0
M  V30 2569 H 254.714 2.18287 -3.3232 0
M  V30 2570 N 255.711 1.52812 0.385517 0
M  V30 2571 C 256.96 1.67249 1.12741 0
M  V30 2572 C 257.273 0.4205 1.91027 0
M  V30 2573 O 258.479 0.445064 2.67827 0
M  V30 2574 C 256.935 2.95583 2.05326 0
M  V30 2575 C 256.543 4.27974 1.32447 0
M  V30 2576 C 258.287 3.19386 2.7963 0
M  V30 2577 C 256.194 5.47412 2.23818 0
M  V30 2578 H 255.124 0.6231 0.424573 0
M  V30 2579 H 257.775 1.79309 0.389924 0
M  V30 2580 H 256.157 2.77277 2.82725 0
M  V30 2581 H 257.331 4.56844 0.602495 0
M  V30 2582 H 255.646 4.10459 0.700885 0
M  V30 2583 H 258.243 4.05801 3.48181 0
M  V30 2584 H 258.586 2.34604 3.43899 0
M  V30 2585 H 259.119 3.38274 2.09322 0
M  V30 2586 H 255.858 6.34612 1.64157 0
M  V30 2587 H 255.378 5.22849 2.93921 0
M  V30 2588 H 257.057 5.81423 2.83824 0
M  V30 2589 N 257.189 -0.644168 1.43834 0
M  V30 2590 C 258.435 -1.40603 1.46146 0
M  V30 2591 C 258.768 -1.93997 0.0887717 0
M  V30 2592 O 258.043 -1.72854 -0.891724 0
M  V30 2593 C 258.326 -2.58086 2.51124 0
M  V30 2594 C 258.179 -2.10126 3.97702 0
M  V30 2595 C 259.498 -3.60291 2.52742 0
M  V30 2596 H 256.617 -0.509905 0.532134 0
M  V30 2597 H 259.259 -0.729502 1.75437 0
M  V30 2598 H 257.409 -3.15801 2.26278 0
M  V30 2599 H 259.081 -1.57342 4.33637 0
M  V30 2600 H 257.324 -1.41419 4.10101 0
M  V30 2601 H 257.995 -2.94649 4.66783 0
M  V30 2602 H 260.471 -3.12352 2.7491 0
M  V30 2603 H 259.347 -4.40032 3.28121 0
M  V30 2604 H 259.608 -4.1349 1.56455 0
M  V30 2605 N 258.668 -1.30515 -0.883378 0
M  V30 2606 C 260.084 -1.08881 -1.16692 0
M  V30 2607 C 260.284 0.149409 -2.00945 0
M  V30 2608 O 259.34 0.84257 -2.38027 0
M  V30 2609 C 260.653 -2.35319 -1.87204 0
M  V30 2610 C 262.201 -2.40799 -1.99962 0
M  V30 2611 C 262.676 -3.67083 -2.73887 0
M  V30 2612 N 264.167 -3.679 -2.81432 0
M  V30 2613 C 264.902 -4.62303 -3.3921 0
M  V30 2614 N 264.398 -5.67052 -3.98025 0
M  V30 2615 N 266.191 -4.49845 -3.3704 0
M  V30 2616 H 258.342 -2.09951 -0.321633 0
M  V30 2617 H 260.605 -0.92556 -0.205043 0
M  V30 2618 H 260.311 -3.25689 -1.3274 0
M  V30 2619 H 260.185 -2.44089 -2.87577 0
M  V30 2620 H 262.572 -1.50907 -2.53597 0
M  V30 2621 H 262.653 -2.36003 -0.98673 0
M  V30 2622 H 262.297 -4.57334 -2.20925 0
M  V30 2623 H 262.227 -3.69141 -3.75556 0
M  V30 2624 H 264.718 -2.92171 -2.39676 0
M  V30 2625 H 265.031 -6.35184 -4.40183 0
M  V30 2626 H 263.376 -5.70842 -3.96439 0
M  V30 2627 H 266.567 -3.67194 -2.90321 0
M  V30 2628 H 266.74 -5.23597 -3.81772 0
M  V30 2629 N 260.146 1.09593 -1.13257 0
M  V30 2630 C 261.109 2.14359 -0.811358 0
M  V30 2631 C 262.109 1.59808 0.178377 0
M  V30 2632 O 263.299 1.74132 -0.0484911 0
M  V30 2633 C 260.431 3.40269 -0.207276 0
M  V30 2634 H 261.624 2.44284 -1.73969 0
M  V30 2635 H 259.177 1.25102 -0.936973 0
M  V30 2636 H 259.912 3.15969 0.73036 0
M  V30 2637 H 259.697 3.81154 -0.919992 0
M  V30 2638 H 261.187 4.176 0.000667944 0
M  V30 2639 N 261.624 0.925811 1.2754 0
M  V30 2640 C 262.572 0.413897 2.28888 0
M  V30 2641 C 263.566 -0.500779 1.61829 0
M  V30 2642 O 264.772 -0.38069 1.75928 0
M  V30 2643 H 261.147 0.115274 0.743112 0
M  V30 2644 H 263.118 1.28151 2.69481 0
M  V30 2645 C 261.867 -0.319792 3.46226 0
M  V30 2646 H 261.19 0.374846 3.98039 0
M  V30 2647 H 262.63 -0.642435 4.19105 0
M  V30 2648 C 261.089 -1.53209 3.00048 0
M  V30 2649 O 261.619 -2.6309 3.03557 0
M  V30 2650 N 259.825 -1.38326 2.55566 0
M  V30 2651 H 259.372 -0.489292 2.5291 0
M  V30 2652 H 259.33 -2.19564 2.25031 0
M  V30 2653 N 263.102 -1.41638 0.69111 0
M  V30 2654 C 264.33 -2.05628 0.22909 0
M  V30 2655 C 264.745 -1.51992 -1.11999 0
M  V30 2656 O 264.102 -0.666322 -1.69901 0
M  V30 2657 C 264.153 -3.61084 0.173283 0
M  V30 2658 O 263.874 -4.12735 1.46907 0
M  V30 2659 C 265.375 -4.42213 -0.310266 0
M  V30 2660 H 262.595 -0.662327 0.107534 0
M  V30 2661 H 265.139 -1.81489 0.942438 0
M  V30 2662 H 263.294 -3.84278 -0.490858 0
M  V30 2663 H 263.708 -5.06743 1.35322 0
M  V30 2664 H 265.182 -5.51194 -0.298196 0
M  V30 2665 H 265.659 -4.1799 -1.34838 0
M  V30 2666 H 266.265 -4.24074 0.322716 0
M  V30 2667 N 264.58 -0.43555 -1.51462 0
M  V30 2668 C 265.827 0.131514 -2.02072 0
M  V30 2669 C 266.155 1.42868 -1.31981 0
M  V30 2670 O 265.41 1.91076 -0.422883 0
M  V30 2671 C 265.709 0.39942 -3.55161 0
M  V30 2672 C 265.375 -0.81172 -4.43533 0
M  V30 2673 C 264.037 -1.14387 -4.67407 0
M  V30 2674 C 266.389 -1.61976 -4.95392 0
M  V30 2675 C 263.717 -2.28477 -5.40384 0
M  V30 2676 C 266.069 -2.75164 -5.6962 0
M  V30 2677 C 264.733 -3.08835 -5.91758 0
M  V30 2678 H 264.003 0.0481244 -0.739436 0
M  V30 2679 H 266.65 -0.58238 -1.8243 0
M  V30 2680 H 264.955 1.19519 -3.73125 0
M  V30 2681 H 266.652 0.85157 -3.91854 0
M  V30 2682 H 263.242 -0.542898 -4.25148 0
M  V30 2683 H 267.426 -1.37637 -4.76833 0
M  V30 2684 H 262.682 -2.5488 -5.55739 0
M  V30 2685 H 266.856 -3.38147 -6.08793 0
M  V30 2686 H 264.483 -3.97353 -6.48086 0
M  V30 2687 N 266.058 1.56714 -0.166846 0
M  V30 2688 C 267.304 1.97039 0.479962 0
M  V30 2689 C 267.637 1.05264 1.63197 0
M  V30 2690 O 266.912 0.0988833 1.94248 0
M  V30 2691 C 267.195 3.46867 0.967212 0
M  V30 2692 C 267.048 4.49421 -0.18466 0
M  V30 2693 C 268.367 3.9968 1.84238 0
M  V30 2694 H 265.486 0.71641 0.172992 0
M  V30 2695 H 268.128 1.8832 -0.252079 0
M  V30 2696 H 266.278 3.54428 1.59101 0
M  V30 2697 H 267.95 4.53924 -0.821621 0
M  V30 2698 H 266.193 4.25573 -0.840837 0
M  V30 2699 H 266.864 5.51644 0.198317 0
M  V30 2700 H 269.34 3.94723 1.31655 0
M  V30 2701 H 268.216 5.04941 2.15234 0
M  V30 2702 H 268.477 3.43226 2.78654 0
M  V30 2703 N 267.536 -0.106894 1.57237 0
M  V30 2704 C 268.499 -1.11466 2.0027 0
M  V30 2705 C 269.499 -1.33623 0.894519 0
M  V30 2706 O 270.689 -1.29935 1.16028 0
M  V30 2707 C 267.821 -2.46646 2.35327 0
M  V30 2708 H 269.014 -0.744516 2.90512 0
M  V30 2709 H 266.567 -0.351576 1.52295 0
M  V30 2710 H 267.302 -2.88558 1.48003 0
M  V30 2711 H 267.087 -2.31915 3.16161 0
M  V30 2712 H 268.577 -3.19151 2.69318 0
M  V30 2713 N 269.014 -1.53014 -0.377408 0
M  V30 2714 C 269.924 -1.81557 -1.48574 0
M  V30 2715 C 270.94 -0.703102 -1.59162 0
M  V30 2716 O 272.116 -0.99192 -1.75279 0
M  V30 2717 C 269.181 -1.9889 -2.83978 0
M  V30 2718 C 268.242 -3.22801 -2.83016 0
M  V30 2719 C 267.475 -3.39298 -4.11962 0
M  V30 2720 O 267.698 -2.60345 -5.0752 0
M  V30 2721 O 266.632 -4.32604 -4.18494 0
M  V30 2722 H 270.458 -2.75695 -1.27382 0
M  V30 2723 H 268.043 -1.38248 -0.566373 0
M  V30 2724 H 269.925 -2.11931 -3.6423 0
M  V30 2725 H 268.6 -1.07942 -3.05172 0
M  V30 2726 H 267.507 -3.15193 -2.01505 0
M  V30 2727 H 268.84 -4.13632 -2.66775 0
M  V30 2728 N 270.492 0.636531 -1.44174 0
M  V30 2729 C 271.422 1.76003 -1.53444 0
M  V30 2730 C 272.403 1.65619 -0.387841 0
M  V30 2731 O 273.588 1.84461 -0.607257 0
M  V30 2732 C 270.718 3.14511 -1.4731 0
M  V30 2733 C 269.672 3.39677 -2.60391 0
M  V30 2734 C 268.998 4.78159 -2.39308 0
M  V30 2735 C 270.298 3.32772 -4.02567 0
M  V30 2736 H 271.992 1.68501 -2.47483 0
M  V30 2737 H 269.538 0.809237 -1.19111 0
M  V30 2738 H 271.491 3.92878 -1.52397 0
M  V30 2739 H 270.215 3.22783 -0.49785 0
M  V30 2740 H 268.874 2.63688 -2.54684 0
M  V30 2741 H 268.522 4.83128 -1.39988 0
M  V30 2742 H 268.222 4.95956 -3.15122 0
M  V30 2743 H 269.746 5.58762 -2.46205 0
M  V30 2744 H 271.16 4.01051 -4.09672 0
M  V30 2745 H 269.557 3.62104 -4.7854 0
M  V30 2746 H 270.627 2.30669 -4.2652 0
M  V30 2747 N 271.97 1.30982 0.876444 0
M  V30 2748 C 272.917 1.18085 1.98304 0
M  V30 2749 C 273.887 0.0682263 1.6596 0
M  V30 2750 O 275.072 0.239937 1.89285 0
M  V30 2751 C 272.212 0.887475 3.33493 0
M  V30 2752 C 271.325 2.08281 3.78475 0
M  V30 2753 C 270.46 1.72678 5.0235 0
M  V30 2754 C 269.499 2.88657 5.39762 0
M  V30 2755 N 268.636 2.53292 6.54819 0
M  V30 2756 H 273.476 2.1275 2.08666 0
M  V30 2757 H 271.013 1.05839 1.02159 0
M  V30 2758 H 272.971 0.697961 4.1132 0
M  V30 2759 H 271.601 -0.022315 3.22792 0
M  V30 2760 H 270.653 2.3833 2.96484 0
M  V30 2761 H 271.965 2.95108 4.02135 0
M  V30 2762 H 271.119 1.50151 5.87826 0
M  V30 2763 H 269.858 0.830327 4.8058 0
M  V30 2764 H 268.863 3.1184 4.52809 0
M  V30 2765 H 270.088 3.79002 5.63502 0
M  V30 2766 H 268.034 1.66163 6.34607 0
M  V30 2767 H 267.951 3.3365 6.7839 0
M  V30 2768 H 269.219 2.34143 7.43503 0
M  V30 2769 N 273.449 -1.08991 1.13837 0
M  V30 2770 C 274.697 -1.80899 0.901098 0
M  V30 2771 C 275.018 -1.86356 -0.574134 0
M  V30 2772 O 274.288 -1.35235 -1.41733 0
M  V30 2773 H 272.868 -0.669966 0.330386 0
M  V30 2774 H 275.53 -1.318 1.43578 0
M  V30 2775 H 274.626 -2.83929 1.29578 0
M  V30 2776 N 274.927 -0.932562 -1.27047 0
M  V30 2777 C 275.857 -0.452902 -2.29066 0
M  V30 2778 C 276.838 0.489338 -1.62909 0
M  V30 2779 O 278.023 0.393046 -1.90181 0
M  V30 2780 C 275.153 0.290698 -3.46081 0
M  V30 2781 C 274.107 -0.564168 -4.24265 0
M  V30 2782 C 273.433 0.308886 -5.33807 0
M  V30 2783 C 274.733 -1.83112 -4.89149 0
M  V30 2784 H 276.427 -1.30552 -2.69437 0
M  V30 2785 H 273.973 -0.629201 -1.29526 0
M  V30 2786 H 275.926 0.637233 -4.16554 0
M  V30 2787 H 274.65 1.17738 -3.0464 0
M  V30 2788 H 273.309 -0.893477 -3.55545 0
M  V30 2789 H 272.957 1.19467 -4.88607 0
M  V30 2790 H 272.657 -0.259633 -5.87026 0
M  V30 2791 H 274.181 0.650884 -6.07121 0
M  V30 2792 H 275.595 -1.55236 -5.51883 0
M  V30 2793 H 273.992 -2.34353 -5.52448 0
M  V30 2794 H 275.062 -2.54772 -4.12576 0
M  V30 2795 N 276.405 1.4127 -0.698611 0
M  V30 2796 C 277.682 1.94955 -0.158762 0
M  V30 2797 C 278.062 1.63781 1.33188 0
M  V30 2798 O 277.41 0.946423 2.07979 0
M  V30 2799 C 277.62 3.46044 -0.453309 0
M  V30 2800 C 278.968 4.22872 -0.382707 0
M  V30 2801 O 279.992 3.54076 -0.388396 0
M  V30 2802 O 278.851 5.45407 -0.345463 0
M  V30 2803 H 275.945 0.82683 -0.0167505 0
M  V30 2804 H 278.491 1.50971 -0.77498 0
M  V30 2805 H 277.263 3.62028 -1.48498 0
M  V30 2806 H 276.886 3.97128 0.19373 0
M  V30 2807 N 277.883 0.443576 1.51229 0
M  V30 2808 C 279.294 -0.0180867 1.86691 0
M  V30 2809 C 279.645 -1.41384 1.36033 0
M  V30 2810 O 278.77 -2.04291 0.713722 0
M  V30 2811 C 279.365 -0.039597 3.38777 0
M  V30 2812 C 277.924 -0.445692 3.73752 0
M  V30 2813 C 277.071 0.357584 2.74985 0
M  V30 2814 H 280.022 0.659138 1.44364 0
M  V30 2815 H 280.043 -0.847761 3.70936 0
M  V30 2816 H 279.555 0.976382 3.75617 0
M  V30 2817 H 277.656 -1.46704 3.42503 0
M  V30 2818 H 277.769 -0.166155 4.78812 0
M  V30 2819 H 276.133 -0.184973 2.54027 0
M  V30 2820 H 276.916 1.37256 3.14668 0
M  V30 2821 N 279.361 -1.56624 0.175154 0
M  V30 2822 C 280.324 -2.16934 -0.739738 0
M  V30 2823 C 281.324 -1.11842 -1.15533 0
M  V30 2824 O 282.514 -1.37335 -1.07167 0
M  V30 2825 C 279.646 -2.75531 -2.00738 0
M  V30 2826 H 280.839 -2.99131 -0.214639 0
M  V30 2827 H 278.392 -1.56123 -0.0744197 0
M  V30 2828 H 279.127 -1.97078 -2.57548 0
M  V30 2829 H 278.912 -3.52444 -1.71831 0
M  V30 2830 H 280.402 -3.21904 -2.66021 0
M  V30 2831 N 280.839 0.0985539 -1.57292 0
M  V30 2832 C 282.255 0.45267 -1.53046 0
M  V30 2833 C 282.455 1.80713 -0.891342 0
M  V30 2834 O 281.511 2.4785 -0.482375 0
M  V30 2835 C 282.824 0.418341 -2.97776 0
M  V30 2836 C 284.372 0.500443 -3.08973 0
M  V30 2837 C 284.847 0.496297 -4.55303 0
M  V30 2838 N 286.338 0.557151 -4.59837 0
M  V30 2839 C 287.073 0.575726 -5.70502 0
M  V30 2840 N 286.569 0.550714 -6.90608 0
M  V30 2841 N 288.362 0.620277 -5.58667 0
M  V30 2842 H 280.513 -0.788673 -1.97215 0
M  V30 2843 H 282.776 -0.293188 -0.901524 0
M  V30 2844 H 282.482 -0.509659 -3.47988 0
M  V30 2845 H 282.356 1.2386 -3.56284 0
M  V30 2846 H 284.743 1.41886 -2.58751 0
M  V30 2847 H 284.824 -0.347894 -2.53423 0
M  V30 2848 H 284.468 -0.418162 -5.06176 0
M  V30 2849 H 284.398 1.3618 -5.08687 0
M  V30 2850 H 286.889 0.581816 -3.73394 0
M  V30 2851 H 287.202 0.568075 -7.70709 0
M  V30 2852 H 285.547 0.517816 -6.93068 0
M  V30 2853 H 288.738 0.637322 -4.63741 0
M  V30 2854 H 288.911 0.631283 -6.44918 0
M  V30 2855 N 282.317 1.53212 0.369288 0
M  V30 2856 C 283.563 1.69466 1.11397 0
M  V30 2857 C 283.896 0.443257 1.89074 0
M  V30 2858 O 283.171 -0.559386 1.86282 0
M  V30 2859 C 283.454 2.9422 2.07621 0
M  V30 2860 C 283.307 4.29508 1.33577 0
M  V30 2861 C 284.626 3.14565 3.07794 0
M  V30 2862 H 281.745 0.616667 0.403597 0
M  V30 2863 H 284.387 1.85845 0.395179 0
M  V30 2864 H 282.537 2.80387 2.68916 0
M  V30 2865 H 284.209 4.55147 0.750955 0
M  V30 2866 H 282.452 4.29088 0.637618 0
M  V30 2867 H 283.123 5.12926 2.03989 0
M  V30 2868 H 285.599 3.2756 2.56601 0
M  V30 2869 H 284.475 4.03297 3.72348 0
M  V30 2870 H 284.736 2.29675 3.77759 0
M  V30 2871 N 283.795 -0.628877 1.44509 0
M  V30 2872 C 284.743 -1.76193 1.51852 0
M  V30 2873 C 285.737 -1.64849 0.390042 0
M  V30 2874 O 286.943 -1.709 0.565082 0
M  V30 2875 H 283.318 -0.581728 0.476547 0
M  V30 2876 H 285.289 -1.67123 2.47209 0
M  V30 2877 C 284.038 -3.14533 1.48204 0
M  V30 2878 H 283.361 -3.23911 2.34354 0
M  V30 2879 H 284.801 -3.93701 1.57402 0
M  V30 2880 C 283.26 -3.36287 0.203142 0
M  V30 2881 O 283.79 -3.9509 -0.725745 0
M  V30 2882 N 281.996 -2.90408 0.105563 0
M  V30 2883 H 281.543 -2.42739 0.862301 0
M  V30 2884 H 281.501 -3.05339 -0.749371 0
M  V30 2885 N 285.273 -1.31445 -0.869486 0
M  V30 2886 C 286.519 -1.21337 -1.62496 0
M  V30 2887 C 286.852 0.227872 -1.92858 0
M  V30 2888 O 286.127 1.16094 -1.56053 0
M  V30 2889 C 286.41 -2.05814 -2.95487 0
M  V30 2890 C 286.263 -3.5824 -2.72 0
M  V30 2891 C 287.582 -1.9079 -3.96594 0
M  V30 2892 H 284.701 -0.442135 -0.589649 0
M  V30 2893 H 287.343 -1.6124 -1.00507 0
M  V30 2894 H 285.493 -1.71913 -3.48394 0
M  V30 2895 H 287.165 -4.0228 -2.25762 0
M  V30 2896 H 285.408 -3.81647 -2.06224 0
M  V30 2897 H 286.079 -4.12657 -3.66631 0
M  V30 2898 H 288.555 -2.20459 -3.52898 0
M  V30 2899 H 287.431 -2.52199 -4.87531 0
M  V30 2900 H 287.692 -0.871341 -4.33428 0
M  V30 2901 N 286.751 1.08385 -1.14413 0
M  V30 2902 C 288.162 1.62258 -0.923535 0
M  V30 2903 C 288.513 1.88691 0.537595 0
M  V30 2904 O 287.638 1.64454 1.40655 0
M  V30 2905 C 288.233 2.94781 -1.67002 0
M  V30 2906 C 286.792 3.45437 -1.495 0
M  V30 2907 C 285.939 2.19668 -1.69238 0
M  V30 2908 H 288.89 0.916086 -1.2959 0
M  V30 2909 H 288.911 3.63229 -1.13334 0
M  V30 2910 H 288.423 2.7551 -2.73342 0
M  V30 2911 H 286.524 3.6981 -0.455097 0
M  V30 2912 H 286.637 4.22173 -2.2651 0
M  V30 2913 H 285.001 2.28849 -1.11804 0
M  V30 2914 H 285.784 2.02905 -2.7692 0
M  V30 2915 N 288.23 0.939286 1.26551 0
M  V30 2916 C 289.476 0.586715 1.94128 0
M  V30 2917 C 289.809 -0.8717 1.73537 0
M  V30 2918 O 289.084 -1.62339 1.07127 0
M  V30 2919 C 289.367 0.927497 3.4795 0
M  V30 2920 C 289.22 2.44052 3.77834 0
M  V30 2921 C 290.539 0.441569 4.37879 0
M  V30 2922 H 287.658 0.21463 0.705055 0
M  V30 2923 H 290.3 1.17316 1.49455 0
M  V30 2924 H 288.45 0.428431 3.8613 0
M  V30 2925 H 290.122 3.01216 3.4938 0
M  V30 2926 H 288.365 2.8848 3.23978 0
M  V30 2927 H 289.036 2.62947 4.85348 0
M  V30 2928 H 291.512 0.869448 4.06915 0
M  V30 2929 H 290.388 0.708856 5.44304 0
M  V30 2930 H 290.649 -0.658467 4.37169 0
M  V30 2931 N 289.708 -1.40897 0.706093 0
M  V30 2932 C 290.957 -2.00284 0.238574 0
M  V30 2933 C 291.27 -1.56604 -1.17194 0
M  V30 2934 O 292.476 -2.08624 -1.73748 0
M  V30 2935 C 290.932 -3.57934 0.375623 0
M  V30 2936 C 290.54 -4.10591 1.79217 0
M  V30 2937 C 292.284 -4.24488 -0.0315857 0
M  V30 2938 C 290.191 -5.60712 1.88032 0
M  V30 2939 H 289.121 -0.749144 0.0854398 0
M  V30 2940 H 291.772 -1.61251 0.875813 0
M  V30 2941 H 290.154 -3.94622 -0.330042 0
M  V30 2942 H 291.328 -3.85301 2.52745 0
M  V30 2943 H 289.643 -3.56601 2.15 0
M  V30 2944 H 292.24 -5.34698 0.0136842 0
M  V30 2945 H 292.583 -4.02261 -1.072 0
M  V30 2946 H 293.116 -3.92873 0.624181 0
M  V30 2947 H 289.855 -5.87781 2.90161 0
M  V30 2948 H 289.375 -5.87896 1.18903 0
M  V30 2949 H 291.054 -6.25658 1.64805 0
M  V30 2950 N 291.186 -0.45159 -1.50991 0
M  V30 2951 C 292.434 0.109857 -2.01801 0
M  V30 2952 C 292.755 1.41958 -1.3369 0
M  V30 2953 O 292.025 1.9003 -0.475951 0
M  V30 2954 H 290.605 0.0435884 -0.745727 0
M  V30 2955 H 293.267 -0.597557 -1.85514 0
M  V30 2956 H 292.363 0.275489 -3.10882 0
M  V30 2957 N 292.664 1.56529 -0.183458 0
M  V30 2958 C 293.912 1.96855 0.457452 0
M  V30 2959 C 294.233 1.07104 1.62953 0
M  V30 2960 O 293.503 0.139887 1.954 0
M  V30 2961 H 292.083 0.72693 0.171992 0
M  V30 2962 H 294.745 1.93056 -0.267476 0
M  V30 2963 H 293.841 3.01423 0.809368 0
M  V30 2964 N 294.142 -0.090211 1.57342 0
M  V30 2965 C 295.092 -1.11557 1.98844 0
M  V30 2966 C 296.076 -1.35503 0.867624 0
M  V30 2967 O 297.268 -1.36113 1.13148 0
M  V30 2968 C 294.397 -2.43446 2.42051 0
M  V30 2969 C 293.483 -2.22853 3.60828 0
M  V30 2970 N 293.874 -1.72141 4.75606 0
M  V30 2971 C 292.172 -2.53401 3.67021 0
M  V30 2972 C 292.873 -1.65932 5.57531 0
M  V30 2973 N 291.849 -2.11323 5.00843 0
M  V30 2974 H 295.651 -0.716499 2.85032 0
M  V30 2975 H 293.165 -0.297567 1.59651 0
M  V30 2976 H 295.162 -3.17644 2.70014 0
M  V30 2977 H 293.822 -2.84087 1.57241 0
M  V30 2978 H 294.833 -1.41268 4.98261 0
M  V30 2979 H 291.51 -2.97532 2.92884 0
M  V30 2980 H 292.9 -1.27733 6.59647 0
M  V30 2981 N 295.62 -1.53406 -0.361157 0
M  V30 2982 C 296.583 -1.79479 -1.42548 0
M  V30 2983 C 297.583 -0.665327 -1.4639 0
M  V30 2984 O 298.773 -0.933549 -1.47073 0
M  V30 2985 C 295.905 -1.92087 -2.8163 0
M  V30 2986 H 297.098 -2.74538 -1.20701 0
M  V30 2987 H 294.651 -1.4455 -0.594546 0
M  V30 2988 H 295.386 -0.991099 -3.08784 0
M  V30 2989 H 295.171 -2.74241 -2.80239 0
M  V30 2990 H 296.661 -2.13836 -3.58697 0
M  V30 2991 N 297.098 0.621204 -1.44841 0
M  V30 2992 C 298.346 1.37783 -1.47852 0
M  V30 2993 C 298.667 1.94653 -0.116224 0
M  V30 2994 O 297.937 1.76367 0.852737 0
M  V30 2995 H 296.517 0.511453 -0.544449 0
M  V30 2996 H 299.179 0.730446 -1.80694 0
M  V30 2997 H 298.275 2.20414 -2.20961 0
M  V30 2998 N 298.576 1.31904 0.862503 0
M  V30 2999 C 299.523 1.20182 1.9704 0
M  V30 3000 C 300.493 0.0858247 1.65878 0
M  V30 3001 O 301.678 0.26 1.8902 0
M  V30 3002 C 298.818 0.922797 3.32533 0
M  V30 3003 C 297.931 2.12284 3.76244 0
M  V30 3004 C 297.066 1.77996 5.00491 0
M  V30 3005 C 296.105 2.94366 5.36671 0
M  V30 3006 N 295.242 2.60223 6.52095 0
M  V30 3007 H 300.082 2.14951 2.06398 0
M  V30 3008 H 297.619 1.06917 1.01031 0
M  V30 3009 H 299.577 0.741548 4.10557 0
M  V30 3010 H 298.207 0.0119227 3.22798 0
M  V30 3011 H 297.259 2.41461 2.9394 0
M  V30 3012 H 298.571 2.99357 3.98982 0
M  V30 3013 H 297.725 1.56377 5.862 0
M  V30 3014 H 296.464 0.881252 4.79672 0
M  V30 3015 H 295.469 3.16625 4.49476 0
M  V30 3016 H 296.694 3.84957 5.59451 0
M  V30 3017 H 294.64 1.72884 6.32809 0
M  V30 3018 H 294.557 3.40827 6.74814 0
M  V30 3019 H 295.825 2.42016 7.40978 0
M  V30 3020 N 300.054 -1.07777 1.14986 0
M  V30 3021 C 301.282 -1.84018 0.945773 0
M  V30 3022 C 301.697 -1.81897 -0.505863 0
M  V30 3023 O 301.054 -1.22726 -1.35072 0
M  V30 3024 C 301.105 -3.31287 1.44677 0
M  V30 3025 O 300.826 -3.33449 2.84154 0
M  V30 3026 C 302.327 -4.24311 1.28355 0
M  V30 3027 H 299.547 -0.580716 0.336169 0
M  V30 3028 H 302.091 -1.36077 1.52654 0
M  V30 3029 H 300.246 -3.76594 0.908625 0
M  V30 3030 H 300.66 -4.25427 3.06777 0
M  V30 3031 H 302.134 -5.2573 1.68261 0
M  V30 3032 H 302.611 -4.38612 0.227184 0
M  V30 3033 H 303.217 -3.84836 1.81056 0
M  V30 3034 N 301.532 -0.945985 -1.26051 0
M  V30 3035 C 302.781 -0.591836 -1.92822 0
M  V30 3036 C 303.094 0.873956 -1.7499 0
M  V30 3037 O 304.3 1.33769 -2.36259 0
M  V30 3038 C 302.756 -1.00776 -3.45503 0
M  V30 3039 C 302.364 -2.4955 -3.7206 0
M  V30 3040 C 304.108 -0.725735 -4.1825 0
M  V30 3041 C 302.015 -2.84988 -5.18205 0
M  V30 3042 H 300.945 -0.217635 -0.721908 0
M  V30 3043 H 303.596 -1.14927 -1.43052 0
M  V30 3044 H 301.978 -0.378812 -3.94184 0
M  V30 3045 H 303.152 -3.1739 -3.34066 0
M  V30 3046 H 301.467 -2.75133 -3.12555 0
M  V30 3047 H 304.064 -0.966771 -5.25887 0
M  V30 3048 H 304.407 0.337639 -4.14929 0
M  V30 3049 H 304.94 -1.31463 -3.7545 0
M  V30 3050 H 301.679 -3.90307 -5.26631 0
M  V30 3051 H 301.199 -2.21813 -5.57278 0
M  V30 3052 H 302.878 -2.73712 -5.86252 0
M  V30 3053 N 303.011 1.40521 -0.713556 0
M  V30 3054 C 304.26 2.00155 -0.249192 0
M  V30 3055 C 304.573 1.57224 1.16362 0
M  V30 3056 O 305.779 2.09542 1.72639 0
M  V30 3057 C 304.235 3.5773 -0.3946 0
M  V30 3058 C 303.843 4.09635 -1.81392 0
M  V30 3059 C 305.587 4.24499 0.00907364 0
M  V30 3060 C 303.494 5.59707 -1.91003 0
M  V30 3061 H 302.424 0.74868 -0.0894114 0
M  V30 3062 H 305.075 1.60784 -0.884352 0
M  V30 3063 H 303.457 3.94792 0.30911 0
M  V30 3064 H 304.631 3.83955 -2.54785 0
M  V30 3065 H 302.946 3.55456 -2.16888 0
M  V30 3066 H 305.543 5.34683 -0.0420404 0
M  V30 3067 H 305.886 4.02824 1.05065 0
M  V30 3068 H 306.419 3.92536 -0.645007 0
M  V30 3069 H 303.158 5.86234 -2.93275 0
M  V30 3070 H 302.678 5.87258 -1.22019 0
M  V30 3071 H 304.357 6.24776 -1.6812 0
M  V30 3072 N 304.489 0.459591 1.5075 0
M  V30 3073 C 305.9 0.00171547 1.867 0
M  V30 3074 C 306.251 -1.39934 1.37525 0
M  V30 3075 O 305.376 -2.03523 0.735349 0
M  V30 3076 C 305.971 -0.00366298 3.388 0
M  V30 3077 C 304.53 -0.406026 3.74204 0
M  V30 3078 C 303.677 0.38673 2.7459 0
M  V30 3079 H 306.628 0.674413 1.43657 0
M  V30 3080 H 306.649 -0.808371 3.71814 0
M  V30 3081 H 306.161 1.01617 3.74561 0
M  V30 3082 H 304.262 -1.43063 3.4404 0
M  V30 3083 H 304.375 -0.115362 4.78961 0
M  V30 3084 H 302.739 -0.158019 2.54209 0
M  V30 3085 H 303.522 1.40585 3.13194 0
M  V30 3086 N 305.967 -1.56429 0.191757 0
M  V30 3087 C 306.897 -2.21937 -0.725696 0
M  V30 3088 C 307.878 -1.1814 -1.2238 0
M  V30 3089 O 309.063 -1.46636 -1.27325 0
M  V30 3090 C 306.193 -2.87611 -1.94672 0
M  V30 3091 C 305.147 -3.97623 -1.58366 0
M  V30 3092 C 304.473 -4.50446 -2.88102 0
M  V30 3093 C 305.773 -5.16197 -0.796133 0
M  V30 3094 H 307.467 -2.98861 -0.179606 0
M  V30 3095 H 305.013 -1.43749 -0.0849464 0
M  V30 3096 H 306.966 -3.3212 -2.59373 0
M  V30 3097 H 305.69 -2.08087 -2.51728 0
M  V30 3098 H 304.349 -3.53801 -0.960247 0
M  V30 3099 H 303.997 -3.67688 -3.43241 0
M  V30 3100 H 303.697 -5.24675 -2.64556 0
M  V30 3101 H 305.221 -4.97654 -3.53798 0
M  V30 3102 H 306.635 -5.57271 -1.34618 0
M  V30 3103 H 305.032 -5.96471 -0.658928 0
M  V30 3104 H 306.102 -4.84473 0.203478 0
M  V30 3105 N 307.445 0.0818655 -1.57387 0
M  V30 3106 C 308.694 0.781681 -1.85937 0
M  V30 3107 C 309.007 1.79246 -0.782957 0
M  V30 3108 O 310.213 2.54112 -0.955987 0
M  V30 3109 C 308.669 1.44109 -3.29789 0
M  V30 3110 C 308.277 0.469396 -4.45534 0
M  V30 3111 C 310.021 2.12386 -3.67549 0
M  V30 3112 C 307.928 1.13415 -5.80423 0
M  V30 3113 H 306.858 0.295682 -0.693605 0
M  V30 3114 H 309.509 0.0348051 -1.83467 0
M  V30 3115 H 307.891 2.23588 -3.2684 0
M  V30 3116 H 309.065 -0.294856 -4.59856 0
M  V30 3117 H 307.38 -0.108383 -4.16259 0
M  V30 3118 H 309.977 2.62878 -4.65617 0
M  V30 3119 H 310.32 2.91877 -2.96839 0
M  V30 3120 H 310.853 1.39751 -3.72444 0
M  V30 3121 H 307.592 0.379771 -6.54399 0
M  V30 3122 H 307.112 1.8695 -5.69921 0
M  V30 3123 H 308.791 1.65686 -6.25426 0
M  V30 3124 N 308.923 1.53595 0.353017 0
M  V30 3125 C 310.148 1.7462 1.11904 0
M  V30 3126 C 310.573 0.479721 1.8188 0
M  V30 3127 O 309.931 -0.567066 1.72204 0
M  V30 3128 C 309.979 2.92029 2.11545 0
M  V30 3129 O 309.083 2.61516 3.18878 0
M  V30 3130 H 308.424 0.579531 0.324099 0
M  V30 3131 H 310.954 2.00525 0.406301 0
M  V30 3132 H 310.964 3.18551 2.5493 0
M  V30 3133 H 309.639 3.83888 1.60008 0
M  V30 3134 H 308.216 2.45852 2.80377 0
M  V30 3135 N 310.401 -0.613514 1.45168 0
M  V30 3136 C 311.333 -1.73825 1.4939 0
M  V30 3137 C 312.346 -1.58175 0.385304 0
M  V30 3138 O 313.535 -1.66165 0.652036 0
M  V30 3139 C 310.635 -3.11758 1.32891 0
M  V30 3140 C 309.808 -3.53704 2.57317 0
M  V30 3141 C 308.867 -4.70579 2.35462 0
M  V30 3142 O 307.893 -4.77996 3.09044 0
M  V30 3143 N 309.095 -5.63454 1.39644 0
M  V30 3144 H 311.86 -1.70669 2.46358 0
M  V30 3145 H 309.421 -0.79862 1.40832 0
M  V30 3146 H 311.413 -3.87692 1.1609 0
M  V30 3147 H 309.983 -3.09456 0.442218 0
M  V30 3148 H 309.203 -2.67794 2.89275 0
M  V30 3149 H 310.491 -3.78486 3.40038 0
M  V30 3150 H 309.889 -5.6017 0.789062 0
M  V30 3151 H 308.446 -6.38944 1.28816 0
M  V30 3152 N 311.879 -1.3236 -0.855495 0
M  V30 3153 C 313.119 -1.24187 -1.62348 0
M  V30 3154 C 313.483 0.193597 -1.91021 0
M  V30 3155 O 314.684 0.39904 -2.65822 0
M  V30 3156 C 312.955 -2.07661 -2.90881 0
M  V30 3157 S 314.514 -2.16505 -3.81669 0
M  V30 3158 H 311.332 -0.442076 -0.556857 0
M  V30 3159 H 313.934 -1.67198 -1.01317 0
M  V30 3160 H 312.638 -3.11018 -2.67761 0
M  V30 3161 H 312.169 -1.65425 -3.56929 0
M  V30 3162 H 314.184 -1.31394 -4.78487 0
M  V30 3163 N 313.357 1.07166 -1.15556 0
M  V30 3164 C 314.585 1.83514 -0.955519 0
M  V30 3165 C 315 1.82163 0.49621 0
M  V30 3166 O 314.357 1.23441 1.34419 0
M  V30 3167 C 314.408 3.30515 -1.46432 0
M  V30 3168 O 314.129 3.31937 -2.85918 0
M  V30 3169 C 315.63 4.23625 -1.30603 0
M  V30 3170 H 312.85 0.578926 -0.339244 0
M  V30 3171 H 315.394 1.35265 -1.53374 0
M  V30 3172 H 313.549 3.76106 -0.928584 0
M  V30 3173 H 313.963 4.23794 -3.09029 0
M  V30 3174 H 315.437 5.24831 -1.71047 0
M  V30 3175 H 315.914 4.38485 -0.250441 0
M  V30 3176 H 316.52 3.83871 -1.83094 0
M  V30 3177 N 314.835 0.952656 1.25548 0
M  V30 3178 C 316.246 0.647392 1.75116 0
M  V30 3179 C 316.597 -0.837274 1.77438 0
M  V30 3180 O 315.722 -1.65525 1.39393 0
M  V30 3181 C 316.317 1.16845 3.18014 0
M  V30 3182 C 314.876 0.913382 3.6515 0
M  V30 3183 C 314.023 1.31265 2.44264 0
M  V30 3184 H 316.974 1.12968 1.11462 0
M  V30 3185 H 316.995 0.527606 3.76824 0
M  V30 3186 H 316.507 2.24902 3.16292 0
M  V30 3187 H 314.608 -0.152316 3.72289 0
M  V30 3188 H 314.721 1.54845 4.53387 0
M  V30 3189 H 313.085 0.731028 2.43984 0
M  V30 3190 H 313.868 2.40239 2.45234 0
M  V30 3191 N 316.313 -1.40141 0.720998 0
M  V30 3192 C 317.26 -2.30688 0.071919 0
M  V30 3193 C 318.23 -1.48476 -0.744584 0
M  V30 3194 O 319.415 -1.77201 -0.707423 0
M  V30 3195 C 316.555 -3.34724 -0.839855 0
M  V30 3196 C 315.668 -4.31998 -0.0122438 0
M  V30 3197 C 314.803 -5.23102 -0.923995 0
M  V30 3198 C 313.842 -6.12033 -0.0907969 0
M  V30 3199 N 312.979 -6.95537 -0.957718 0
M  V30 3200 H 317.819 -2.85628 0.849755 0
M  V30 3201 H 315.356 -1.40653 0.430726 0
M  V30 3202 H 317.314 -3.93618 -1.38279 0
M  V30 3203 H 315.944 -2.81274 -1.58381 0
M  V30 3204 H 314.996 -3.74841 0.64794 0
M  V30 3205 H 316.308 -4.94772 0.632595 0
M  V30 3206 H 315.462 -5.86953 -1.53527 0
M  V30 3207 H 314.201 -4.60615 -1.60264 0
M  V30 3208 H 313.206 -5.47207 0.533377 0
M  V30 3209 H 314.431 -6.76581 0.584428 0
M  V30 3210 H 312.377 -6.35633 -1.62192 0
M  V30 3211 H 312.294 -7.55099 -0.36904 0
M  V30 3212 H 313.562 -7.63832 -1.555 0
M  V30 3213 N 317.792 -0.46758 -1.50504 0
M  V30 3214 C 319.038 0.0887532 -2.02606 0
M  V30 3215 C 319.371 1.39686 -1.34913 0
M  V30 3216 O 318.646 1.88644 -0.473694 0
M  V30 3217 C 318.929 0.276206 -3.59039 0
M  V30 3218 C 318.782 -1.05267 -4.37309 0
M  V30 3219 C 320.101 1.03235 -4.27821 0
M  V30 3220 H 317.22 0.0307814 -0.736357 0
M  V30 3221 H 319.862 -0.612485 -1.79857 0
M  V30 3222 H 318.012 0.8735 -3.78553 0
M  V30 3223 H 319.684 -1.68628 -4.29374 0
M  V30 3224 H 317.927 -1.65015 -4.01189 0
M  V30 3225 H 318.598 -0.875197 -5.45018 0
M  V30 3226 H 321.074 0.526111 -4.12761 0
M  V30 3227 H 319.95 1.1323 -5.37094 0
M  V30 3228 H 320.211 2.06806 -3.90748 0
M  V30 3229 N 319.27 1.56325 -0.20005 0
M  V30 3230 C 320.547 1.89484 0.48529 0
M  V30 3231 C 320.927 1.1143 1.79294 0
M  V30 3232 O 320.275 0.216919 2.27468 0
M  V30 3233 C 320.485 3.41923 0.699243 0
M  V30 3234 C 321.833 4.12256 1.01638 0
M  V30 3235 O 322.857 3.47402 0.786792 0
M  V30 3236 O 321.716 5.26887 1.45095 0
M  V30 3237 H 318.81 0.787144 0.253639 0
M  V30 3238 H 321.356 1.67985 -0.240633 0
M  V30 3239 H 320.128 3.90658 -0.224008 0
M  V30 3240 H 319.751 3.69131 1.47744 0
M  V30 3241 N 320.748 -0.0735177 1.57428 0
M  V30 3242 C 321.995 -0.772999 1.87166 0
M  V30 3243 C 322.323 -1.77665 0.791551 0
M  V30 3244 O 321.578 -1.94541 -0.212636 0
M  V30 3245 C 321.877 -1.51799 3.23561 0
M  V30 3246 C 321.543 -0.654484 4.46125 0
M  V30 3247 C 320.205 -0.416511 4.79394 0
M  V30 3248 C 322.557 -0.0555862 5.2117 0
M  V30 3249 C 319.885 0.429869 5.85123 0
M  V30 3250 C 322.237 0.778239 6.27795 0
M  V30 3251 C 320.901 1.0261 6.59566 0
M  V30 3252 H 320.171 -0.282861 0.684888 0
M  V30 3253 H 322.818 -0.0338272 1.9147 0
M  V30 3254 H 321.123 -2.32932 3.1504 0
M  V30 3255 H 322.82 -2.06397 3.43804 0
M  V30 3256 H 319.41 -0.850091 4.20085 0
M  V30 3257 H 323.594 -0.226558 4.95783 0
M  V30 3258 H 318.85 0.630665 6.08139 0
M  V30 3259 H 323.024 1.24906 6.85107 0
M  V30 3260 H 320.651 1.68371 7.4132 0
M  V30 3261 N 322.226 -1.5378 -0.344866 0
M  V30 3262 C 323.637 -1.62428 -0.920552 0
M  V30 3263 C 323.988 -0.504747 -1.89596 0
M  V30 3264 O 323.113 0.365711 -2.13287 0
M  V30 3265 C 323.708 -2.94419 -1.67639 0
M  V30 3266 C 322.267 -3.05333 -2.20111 0
M  V30 3267 C 321.414 -2.57866 -1.01982 0
M  V30 3268 H 324.365 -1.58222 -0.123042 0
M  V30 3269 H 324.386 -2.83384 -2.53917 0
M  V30 3270 H 323.898 -3.7588 -0.966224 0
M  V30 3271 H 321.999 -2.28502 -2.94308 0
M  V30 3272 H 322.112 -4.10778 -2.46573 0
M  V30 3273 H 320.476 -2.13241 -1.39285 0
M  V30 3274 H 321.259 -3.41765 -0.324308 0
M  V30 3275 N 323.704 0.605807 -1.45491 0
M  V30 3276 C 324.636 1.73031 -1.5031 0
M  V30 3277 C 325.649 1.57968 -0.393687 0
M  V30 3278 O 326.838 1.65817 -0.660839 0
M  V30 3279 C 323.938 3.11049 -1.34543 0
M  V30 3280 C 323.111 3.52334 -2.59189 0
M  V30 3281 C 322.17 4.69323 -2.37954 0
M  V30 3282 O 321.196 4.7635 -3.11575 0
M  V30 3283 N 322.398 5.62705 -1.4263 0
M  V30 3284 H 325.163 1.6936 -2.4726 0
M  V30 3285 H 322.724 0.79114 -1.41254 0
M  V30 3286 H 324.716 3.87071 -1.18144 0
M  V30 3287 H 323.286 3.09217 -0.458623 0
M  V30 3288 H 322.506 2.66256 -2.90691 0
M  V30 3289 H 323.794 3.76677 -3.42041 0
M  V30 3290 H 323.192 5.59744 -0.818758 0
M  V30 3291 H 321.749 6.38252 -1.32202 0
M  V30 3292 N 325.182 1.32811 0.848464 0
M  V30 3293 C 326.459 1.14334 1.58704 0
M  V30 3294 C 326.839 -0.293948 2.09043 0
M  V30 3295 O 326.187 -1.29153 1.88499 0
M  V30 3296 C 326.397 2.17626 2.72837 0
M  V30 3297 C 327.745 2.51282 3.42261 0
M  V30 3298 O 328.769 2.16219 2.83068 0
M  V30 3299 O 327.628 3.11413 4.49093 0
M  V30 3300 H 324.722 0.441601 0.699226 0
M  V30 3301 H 327.268 1.44362 0.892053 0
M  V30 3302 H 326.04 3.14211 2.3321 0
M  V30 3303 H 325.663 1.88628 3.50008 0
M  V30 3304 N 326.66 -1.06551 1.16123 0
M  V30 3305 C 327.592 -2.13908 0.823171 0
M  V30 3306 C 328.605 -1.61926 -0.16843 0
M  V30 3307 O 329.794 -1.78412 0.055962 0
M  V30 3308 C 326.894 -3.38283 0.204424 0
M  V30 3309 C 326.067 -4.19589 1.23548 0
M  V30 3310 C 325.126 -5.2233 0.637011 0
M  V30 3311 O 324.152 -5.54034 1.30516 0
M  V30 3312 N 325.354 -5.77621 -0.577474 0
M  V30 3313 H 328.119 -2.43508 1.74711 0
M  V30 3314 H 325.68 -1.2253 1.05821 0
M  V30 3315 H 327.672 -4.0416 -0.208909 0
M  V30 3316 H 326.242 -3.06329 -0.623012 0
M  V30 3317 H 325.462 -3.49406 1.82507 0
M  V30 3318 H 326.75 -4.70718 1.93137 0
M  V30 3319 H 326.148 -5.54125 -1.13853 0
M  V30 3320 H 324.705 -6.45087 -0.933053 0
M  V30 3321 N 328.138 -0.959301 -1.25041 0
M  V30 3322 C 329.068 -0.501388 -2.28053 0
M  V30 3323 C 330.049 0.454673 -1.63911 0
M  V30 3324 O 331.234 0.352618 -1.90972 0
M  V30 3325 C 328.364 0.217224 -3.4662 0
M  V30 3326 C 327.318 -0.654034 -4.22973 0
M  V30 3327 C 326.644 0.195589 -5.34342 0
M  V30 3328 C 327.944 -1.93447 -4.85155 0
M  V30 3329 H 329.638 -1.36238 -2.66608 0
M  V30 3330 H 327.184 -0.656534 -1.28163 0
M  V30 3331 H 329.137 0.548732 -4.17812 0
M  V30 3332 H 327.861 1.1125 -3.07068 0
M  V30 3333 H 326.52 -0.968693 -3.5357 0
M  V30 3334 H 326.168 1.09076 -4.91031 0
M  V30 3335 H 325.868 -0.384091 -5.86343 0
M  V30 3336 H 327.392 0.521958 -6.08365 0
M  V30 3337 H 328.806 -1.66908 -5.48466 0
M  V30 3338 H 327.203 -2.46018 -5.47353 0
M  V30 3339 H 328.273 -2.63466 -4.07079 0
M  V30 3340 N 329.616 1.39756 -0.72842 0
M  V30 3341 C 330.844 2.04948 -0.283528 0
M  V30 3342 C 331.259 1.54908 1.0793 0
M  V30 3343 O 330.616 0.711135 1.68075 0
M  V30 3344 C 330.667 3.60498 -0.268957 0
M  V30 3345 O 330.388 4.08695 -1.57798 0
M  V30 3346 C 331.889 4.4288 0.192912 0
M  V30 3347 H 329.109 0.659243 -0.125056 0
M  V30 3348 H 331.653 1.78927 -0.990226 0
M  V30 3349 H 329.808 3.85444 0.388801 0
M  V30 3350 H 330.222 5.02977 -1.48709 0
M  V30 3351 H 331.696 5.51791 0.151952 0
M  V30 3352 H 332.173 4.21418 1.23708 0
M  V30 3353 H 332.779 4.23069 -0.435039 0
M  V30 3354 N 331.094 0.475555 1.50254 0
M  V30 3355 C 332.057 -0.305016 2.27161 0
M  V30 3356 C 333.057 -0.916519 1.32123 0
M  V30 3357 O 334.247 -0.785003 1.5551 0
M  V30 3358 C 331.379 -1.43496 3.09227 0
M  V30 3359 H 332.572 0.369511 2.97615 0
M  V30 3360 H 330.125 0.229747 1.54602 0
M  V30 3361 H 330.86 -2.14441 2.43281 0
M  V30 3362 H 330.645 -1.00223 3.79075 0
M  V30 3363 H 332.135 -1.98548 3.67381 0
M  V30 3364 N 332.573 -1.56217 0.208337 0
M  V30 3365 C 333.503 -2.22694 -0.702116 0
M  V30 3366 C 334.484 -1.19432 -1.2112 0
M  V30 3367 O 335.669 -1.47978 -1.25762 0
M  V30 3368 C 332.799 -2.8966 -1.9161 0
M  V30 3369 C 331.753 -3.9928 -1.5414 0
M  V30 3370 C 331.079 -4.53476 -2.83308 0
M  V30 3371 C 332.379 -5.17012 -0.741339 0
M  V30 3372 H 334.073 -2.99034 -0.147898 0
M  V30 3373 H 331.619 -1.43831 -0.0696951 0
M  V30 3374 H 333.572 -3.34852 -2.55836 0
M  V30 3375 H 332.296 -2.10746 -2.49507 0
M  V30 3376 H 330.955 -3.54799 -0.922668 0
M  V30 3377 H 330.603 -3.71308 -3.39322 0
M  V30 3378 H 330.303 -5.27451 -2.58976 0
M  V30 3379 H 331.827 -5.01378 -3.485 0
M  V30 3380 H 333.241 -5.58667 -1.28699 0
M  V30 3381 H 331.638 -5.97137 -0.595627 0
M  V30 3382 H 332.708 -4.8423 0.254851 0
M  V30 3383 N 334.051 0.0651679 -1.57465 0
M  V30 3384 C 335.279 0.775808 -1.91804 0
M  V30 3385 C 335.694 1.70782 -0.804916 0
M  V30 3386 O 335.051 1.81153 0.221311 0
M  V30 3387 C 335.102 1.56381 -3.25925 0
M  V30 3388 O 334.823 0.669248 -4.32958 0
M  V30 3389 C 336.324 2.37485 -3.7432 0
M  V30 3390 H 333.544 0.2202 -0.63384 0
M  V30 3391 H 336.088 0.0334587 -2.04473 0
M  V30 3392 H 334.243 2.25837 -3.14764 0
M  V30 3393 H 334.657 1.21801 -5.10162 0
M  V30 3394 H 336.131 2.88223 -4.70778 0
M  V30 3395 H 336.608 3.17307 -3.03666 0
M  V30 3396 H 337.214 1.73173 -3.88447 0
M  V30 3397 N 335.529 1.53961 0.336706 0
M  V30 3398 C 336.777 1.71197 1.07405 0
M  V30 3399 C 337.098 0.481475 1.88962 0
M  V30 3400 O 336.368 -0.504585 1.8929 0
M  V30 3401 H 334.948 0.631185 0.399517 0
M  V30 3402 H 337.61 1.91232 0.376323 0
M  V30 3403 H 336.706 2.58587 1.74755 0
M  V30 3404 N 337.007 -0.598083 1.45811 0
M  V30 3405 C 338.423 -0.919847 1.30426 0
M  V30 3406 C 338.623 -1.99759 0.264303 0
M  V30 3407 O 337.679 -2.50221 -0.338472 0
M  V30 3408 C 338.992 -1.35176 2.68603 0
M  V30 3409 C 340.54 -1.46546 2.76574 0
M  V30 3410 C 341.015 -1.9311 4.15298 0
M  V30 3411 N 342.506 -2.00328 4.1764 0
M  V30 3412 C 343.241 -2.37599 5.21856 0
M  V30 3413 N 342.737 -2.73771 6.36413 0
M  V30 3414 N 344.53 -2.38021 5.09218 0
M  V30 3415 H 336.681 0.114111 2.12093 0
M  V30 3416 H 338.944 -0.0116121 0.947929 0
M  V30 3417 H 338.65 -0.633969 3.45939 0
M  V30 3418 H 338.524 -2.3164 2.97696 0
M  V30 3419 H 340.911 -2.17415 1.99537 0
M  V30 3420 H 340.992 -0.483727 2.51185 0
M  V30 3421 H 340.636 -1.22824 4.92825 0
M  V30 3422 H 340.566 -2.92213 4.38086 0
M  V30 3423 H 343.057 -1.74925 3.34977 0
M  V30 3424 H 343.37 -3.0112 7.11721 0
M  V30 3425 H 341.715 -2.71445 6.39799 0
M  V30 3426 H 344.906 -2.09174 4.18765 0
M  V30 3427 H 345.079 -2.66741 5.90554 0
M  V30 3428 N 338.485 -1.33259 -0.841409 0
M  V30 3429 C 339.734 -1.23921 -1.59143 0
M  V30 3430 C 340.047 0.1941 -1.94635 0
M  V30 3431 O 341.253 0.409474 -2.68394 0
M  V30 3432 C 339.709 -2.17119 -2.87032 0
M  V30 3433 C 339.317 -3.65606 -2.58914 0
M  V30 3434 C 341.061 -2.16648 -3.65053 0
M  V30 3435 C 338.968 -4.50726 -3.82884 0
M  V30 3436 H 337.898 -0.460264 -0.597221 0
M  V30 3437 H 340.549 -1.58307 -0.927959 0
M  V30 3438 H 338.931 -1.75663 -3.54906 0
M  V30 3439 H 340.105 -4.15487 -1.99267 0
M  V30 3440 H 338.42 -3.68341 -1.942 0
M  V30 3441 H 341.017 -2.77474 -4.57069 0
M  V30 3442 H 341.36 -1.16088 -3.99787 0
M  V30 3443 H 341.893 -2.56453 -3.041 0
M  V30 3444 H 338.632 -5.52151 -3.53283 0
M  V30 3445 H 338.152 -4.0559 -4.41879 0
M  V30 3446 H 339.831 -4.64401 -4.50489 0
M  V30 3447 N 339.963 1.05934 -1.16686 0
M  V30 3448 C 340.895 2.13468 -0.834503 0
M  V30 3449 C 341.908 1.62013 0.15984 0
M  V30 3450 O 343.097 1.7838 -0.0654228 0
M  V30 3451 C 340.197 3.3817 -0.222361 0
M  V30 3452 C 339.37 4.18928 -1.25771 0
M  V30 3453 C 338.429 5.21985 -0.664703 0
M  V30 3454 O 337.455 5.53334 -1.33453 0
M  V30 3455 N 338.657 5.77919 0.546834 0
M  V30 3456 H 341.422 2.42578 -1.75999 0
M  V30 3457 H 338.983 1.21967 -1.06469 0
M  V30 3458 H 340.975 4.04266 0.187472 0
M  V30 3459 H 339.545 3.06655 0.606758 0
M  V30 3460 H 338.765 3.48433 -1.84358 0
M  V30 3461 H 340.053 4.69687 -1.95631 0
M  V30 3462 H 339.451 5.54721 1.10912 0
M  V30 3463 H 338.008 6.45573 0.898829 0
M  V30 3464 N 341.441 0.965919 1.2453 0
M  V30 3465 C 342.351 0.502154 2.29163 0
M  V30 3466 C 343.367 -0.436017 1.68448 0
M  V30 3467 O 344.543 -0.309497 1.99008 0
M  V30 3468 C 341.608 -0.201956 3.46111 0
M  V30 3469 C 340.669 0.775821 4.22232 0
M  V30 3470 C 339.902 0.105217 5.33596 0
M  V30 3471 O 340.125 -1.10683 5.59558 0
M  V30 3472 O 339.059 0.796475 5.96607 0
M  V30 3473 H 342.885 1.37194 2.70946 0
M  V30 3474 H 340.47 0.732875 1.30189 0
M  V30 3475 H 342.352 -0.597564 4.17142 0
M  V30 3476 H 341.027 -1.04673 3.06309 0
M  V30 3477 H 339.934 1.22185 3.53584 0
M  V30 3478 H 341.267 1.58896 4.65846 0
M  V30 3479 N 342.919 -1.39368 0.735821 0
M  V30 3480 C 343.882 -2.2896 0.104874 0
M  V30 3481 C 344.882 -1.46347 -0.666274 0
M  V30 3482 O 346.072 -1.67014 -0.49517 0
M  V30 3483 C 343.204 -3.29857 -0.860656 0
M  V30 3484 H 344.397 -2.86259 0.894205 0
M  V30 3485 H 341.95 -1.48029 0.501704 0
M  V30 3486 H 342.685 -2.77615 -1.67631 0
M  V30 3487 H 342.47 -3.9087 -0.310327 0
M  V30 3488 H 343.96 -3.96893 -1.29867 0
M  V30 3489 N 344.397 -0.483516 -1.5 0
M  V30 3490 C 345.645 0.067027 -2.01989 0
M  V30 3491 C 345.966 1.3909 -1.36671 0
M  V30 3492 O 345.236 1.88978 -0.516152 0
M  V30 3493 H 343.816 0.0277606 -0.746484 0
M  V30 3494 H 346.478 -0.636773 -1.84204 0
M  V30 3495 H 345.574 0.209484 -3.11396 0
M  V30 3496 N 345.875 1.56104 -0.216619 0
M  V30 3497 C 347.103 2.02563 0.421413 0
M  V30 3498 C 347.518 1.0965 1.53695 0
M  V30 3499 O 346.875 0.10521 1.82196 0
M  V30 3500 C 346.926 3.48584 0.957665 0
M  V30 3501 O 346.647 4.37953 -0.113389 0
M  V30 3502 C 348.148 4.10664 1.66943 0
M  V30 3503 H 345.368 0.662944 0.103665 0
M  V30 3504 H 347.912 2.01793 -0.331629 0
M  V30 3505 H 346.067 3.49985 1.661 0
M  V30 3506 H 346.481 5.23704 0.288932 0
M  V30 3507 H 347.955 5.14622 1.99671 0
M  V30 3508 H 348.432 3.55373 2.58083 0
M  V30 3509 H 349.038 4.13098 1.01142 0
M  V30 3510 N 347.353 -0.0568162 1.57498 0
M  V30 3511 C 348.263 -1.08346 2.08083 0
M  V30 3512 C 349.279 -1.41439 1.01346 0
M  V30 3513 O 350.455 -1.51316 1.32912 0
M  V30 3514 C 347.52 -2.37352 2.52715 0
M  V30 3515 C 346.581 -2.11093 3.73816 0
M  V30 3516 C 345.814 -3.33949 4.1631 0
M  V30 3517 O 346.037 -4.43622 3.58547 0
M  V30 3518 O 344.971 -3.21279 5.08983 0
M  V30 3519 H 348.797 -0.683667 2.95905 0
M  V30 3520 H 346.382 -0.271965 1.46904 0
M  V30 3521 H 348.264 -3.13246 2.81877 0
M  V30 3522 H 346.939 -2.76681 1.68016 0
M  V30 3523 H 345.846 -1.32856 3.49714 0
M  V30 3524 H 347.179 -1.76637 4.59413 0
M  V30 3525 N 348.832 -1.54138 -0.328536 0
M  V30 3526 C 350.078 -1.7236 -1.06865 0
M  V30 3527 C 350.411 -0.493231 -1.87832 0
M  V30 3528 O 349.686 0.5098 -1.877 0
M  V30 3529 C 349.969 -2.99621 -1.99747 0
M  V30 3530 C 349.822 -4.32899 -1.22143 0
M  V30 3531 C 351.141 -3.22615 -2.99345 0
M  V30 3532 H 348.26 -0.627151 -0.387105 0
M  V30 3533 H 350.902 -1.86827 -0.345767 0
M  V30 3534 H 349.052 -2.87418 -2.61387 0
M  V30 3535 H 350.724 -4.56978 -0.630017 0
M  V30 3536 H 348.967 -4.30628 -0.523628 0
M  V30 3537 H 349.638 -5.18154 -1.90318 0
M  V30 3538 H 352.114 -3.34248 -2.47826 0
M  V30 3539 H 350.99 -4.13027 -3.61524 0
M  V30 3540 H 351.251 -2.3961 -3.71536 0
M  V30 3541 N 350.31 0.590341 -1.46126 0
M  V30 3542 C 351.556 1.35082 -1.51264 0
M  V30 3543 C 351.889 1.93534 -0.160711 0
M  V30 3544 O 351.164 1.76045 0.826956 0
M  V30 3545 C 351.447 2.48588 -2.6053 0
M  V30 3546 C 351.3 1.95221 -4.05227 0
M  V30 3547 C 352.619 3.50662 -2.6594 0
M  V30 3548 H 349.738 0.489803 -0.550692 0
M  V30 3549 H 352.38 0.663887 -1.78024 0
M  V30 3550 H 350.53 3.07186 -2.37843 0
M  V30 3551 H 352.202 1.41139 -4.39178 0
M  V30 3552 H 350.445 1.26101 -4.15068 0
M  V30 3553 H 351.116 2.77121 -4.77397 0
M  V30 3554 H 353.592 3.01934 -2.86313 0
M  V30 3555 H 352.468 4.27551 -3.44226 0
M  V30 3556 H 352.729 4.07399 -1.71694 0
M  V30 3557 N 351.788 1.33704 0.83433 0
M  V30 3558 C 352.735 1.24335 1.94447 0
M  V30 3559 C 353.705 0.120991 1.65659 0
M  V30 3560 O 354.89 0.300035 1.88426 0
M  V30 3561 C 352.03 0.993124 3.30501 0
M  V30 3562 C 351.143 2.20217 3.71657 0
M  V30 3563 C 350.278 1.88572 4.96602 0
M  V30 3564 C 349.317 3.05683 5.30306 0
M  V30 3565 N 348.454 2.73997 6.46429 0
M  V30 3566 H 353.294 2.1928 2.01792 0
M  V30 3567 H 350.831 1.09035 0.987404 0
M  V30 3568 H 352.789 0.828467 4.08892 0
M  V30 3569 H 351.419 0.0803902 3.227 0
M  V30 3570 H 350.471 2.47642 2.88752 0
M  V30 3571 H 351.783 3.07752 3.92543 0
M  V30 3572 H 350.937 1.68776 5.82752 0
M  V30 3573 H 349.676 0.982799 4.77695 0
M  V30 3574 H 348.681 3.26088 4.42659 0
M  V30 3575 H 349.906 3.96737 5.51159 0
M  V30 3576 H 347.852 1.86268 6.28999 0
M  V30 3577 H 347.769 3.55064 6.67432 0
M  V30 3578 H 349.037 2.57679 7.35678 0
M  V30 3579 N 353.266 -1.05314 1.17247 0
M  V30 3580 C 354.229 -2.112 0.890357 0
M  V30 3581 C 355.229 -1.60359 -0.118943 0
M  V30 3582 O 356.419 -1.73833 0.113086 0
M  V30 3583 C 353.551 -3.39266 0.333422 0
M  V30 3584 H 354.744 -2.37659 1.82916 0
M  V30 3585 H 352.297 -1.21538 0.982758 0
M  V30 3586 H 353.032 -3.18462 -0.612587 0
M  V30 3587 H 352.817 -3.77477 1.06082 0
M  V30 3588 H 354.307 -4.17315 0.154322 0
M  V30 3589 N 354.744 -0.972509 -1.24016 0
M  V30 3590 C 355.691 -0.505969 -2.25186 0
M  V30 3591 C 356.661 0.451009 -1.5986 0
M  V30 3592 O 357.846 0.360307 -1.87367 0
M  V30 3593 C 354.986 0.193089 -3.44559 0
M  V30 3594 C 354.099 -0.803222 -4.24467 0
M  V30 3595 C 353.234 -0.0797793 -5.3114 0
M  V30 3596 C 352.273 -1.06583 -6.02749 0
M  V30 3597 N 351.41 -0.372074 -7.01113 0
M  V30 3598 H 356.25 -1.37351 -2.64459 0
M  V30 3599 H 353.787 -0.688419 -1.29997 0
M  V30 3600 H 355.745 0.615125 -4.1264 0
M  V30 3601 H 354.375 1.02455 -3.06109 0
M  V30 3602 H 353.427 -1.34368 -3.55878 0
M  V30 3603 H 354.739 -1.55494 -4.73944 0
M  V30 3604 H 353.893 0.400015 -6.0538 0
M  V30 3605 H 352.632 0.704597 -4.82583 0
M  V30 3606 H 351.637 -1.55645 -5.27309 0
M  V30 3607 H 352.862 -1.85074 -6.53395 0
M  V30 3608 H 350.808 0.393238 -6.5482 0
M  V30 3609 H 350.725 -1.06258 -7.48495 0
M  V30 3610 H 351.993 0.0855932 -7.79453 0
M  V30 3611 N 356.222 1.38976 -0.743202 0
M  V30 3612 C 357.185 2.28901 -0.117014 0
M  V30 3613 C 358.185 1.46698 0.658503 0
M  V30 3614 O 359.375 1.67274 0.486305 0
M  V30 3615 C 356.507 3.30309 0.84315 0
M  V30 3616 H 357.7 2.8578 -0.909373 0
M  V30 3617 H 355.253 1.47761 -0.509547 0
M  V30 3618 H 355.988 2.785 1.66157 0
M  V30 3619 H 355.773 3.91029 0.289594 0
M  V30 3620 H 357.263 3.97577 1.2776 0
M  V30 3621 N 357.7 0.491464 1.49741 0
M  V30 3622 C 358.948 -0.0563141 2.02022 0
M  V30 3623 C 359.269 -1.38363 1.37407 0
M  V30 3624 O 358.539 -1.88702 0.526166 0
M  V30 3625 H 357.119 -0.0238014 0.746621 0
M  V30 3626 H 359.781 0.646533 1.83864 0
M  V30 3627 H 358.877 -0.192967 3.11503 0
M  V30 3628 N 359.178 -1.55987 0.224894 0
M  V30 3629 C 360.141 -2.19178 -0.670348 0
M  V30 3630 C 361.141 -1.15461 -1.11917 0
M  V30 3631 O 362.331 -1.40675 -1.02743 0
M  V30 3632 C 359.463 -2.81777 -1.9187 0
M  V30 3633 H 360.656 -2.99662 -0.119364 0
M  V30 3634 H 358.209 -1.5628 -0.0247128 0
M  V30 3635 H 358.944 -2.05172 -2.51147 0
M  V30 3636 H 358.729 -3.57732 -1.60531 0
M  V30 3637 H 360.219 -3.30205 -2.55645 0
M  V30 3638 N 360.656 0.0484629 -1.57525 0
M  V30 3639 C 361.904 0.741657 -1.88 0
M  V30 3640 C 362.225 1.76918 -0.820054 0
M  V30 3641 O 361.495 1.95335 0.148661 0
M  V30 3642 H 360.075 0.276908 -0.69378 0
M  V30 3643 H 362.737 0.019013 -1.94891 0
M  V30 3644 H 361.833 1.24336 -2.86264 0
M  V30 3645 N 362.134 1.5431 0.320358 0
M  V30 3646 C 363.359 1.76954 1.08175 0
M  V30 3647 C 363.784 0.518193 1.80821 0
M  V30 3648 O 363.142 -0.530411 1.73368 0
M  V30 3649 C 363.19 2.96451 2.05303 0
M  V30 3650 O 362.294 2.68221 3.13259 0
M  V30 3651 H 361.635 0.586275 0.311733 0
M  V30 3652 H 364.165 2.01342 0.363676 0
M  V30 3653 H 364.175 3.23887 2.48116 0
M  V30 3654 H 362.85 3.87196 1.51829 0
M  V30 3655 H 361.427 2.51744 2.75099 0
M  V30 3656 N 363.613 -0.582584 1.46437 0
M  V30 3657 C 364.576 -1.67366 1.56592 0
M  V30 3658 C 365.576 -1.54575 0.443072 0
M  V30 3659 O 366.766 -1.59191 0.707381 0
M  V30 3660 C 363.898 -3.06791 1.48634 0
M  V30 3661 H 365.091 -1.5972 2.5383 0
M  V30 3662 H 362.644 -0.800432 1.34249 0
M  V30 3663 H 363.379 -3.19993 0.526763 0
M  V30 3664 H 363.164 -3.17484 2.30101 0
M  V30 3665 H 364.654 -3.86218 1.58826 0
M  V30 3666 N 365.091 -1.34144 -0.827227 0
M  V30 3667 C 366.319 -1.29325 -1.61501 0
M  V30 3668 C 366.734 0.13354 -1.88327 0
M  V30 3669 O 366.091 1.0793 -1.47164 0
M  V30 3670 C 366.142 -2.07746 -2.95844 0
M  V30 3671 O 365.863 -3.4486 -2.70191 0
M  V30 3672 C 367.364 -2.10273 -3.90256 0
M  V30 3673 H 364.584 -0.445069 -0.50215 0
M  V30 3674 H 367.128 -1.76693 -1.02955 0
M  V30 3675 H 365.283 -1.6403 -3.5096 0
M  V30 3676 H 365.697 -3.85345 -3.55822 0
M  V30 3677 H 367.171 -2.69575 -4.81698 0
M  V30 3678 H 367.648 -1.096 -4.25305 0
M  V30 3679 H 368.254 -2.54059 -3.41078 0
M  V30 3680 N 366.569 1.04691 -1.17803 0
M  V30 3681 C 367.499 2.14494 -0.92275 0
M  V30 3682 C 368.48 1.69546 0.137179 0
M  V30 3683 O 369.665 1.94195 -0.0141108 0
M  V30 3684 C 366.795 3.44491 -0.440803 0
M  V30 3685 C 365.749 4.03031 -1.4405 0
M  V30 3686 C 365.075 5.28432 -0.81631 0
M  V30 3687 C 366.375 4.39932 -2.81527 0
M  V30 3688 H 368.069 2.36107 -1.84103 0
M  V30 3689 H 365.615 1.1347 -0.886599 0
M  V30 3690 H 367.568 4.2066 -0.249602 0
M  V30 3691 H 366.292 3.22546 0.513025 0
M  V30 3692 H 364.951 3.28937 -1.61853 0
M  V30 3693 H 364.599 5.02792 0.144511 0
M  V30 3694 H 364.299 5.68559 -1.48371 0
M  V30 3695 H 365.823 6.07284 -0.635496 0
M  V30 3696 H 367.237 5.07113 -2.67412 0
M  V30 3697 H 365.634 4.9109 -3.44892 0
M  V30 3698 H 366.704 3.50045 -3.35554 0
M  V30 3699 N 368.047 0.979072 1.23499 0
M  V30 3700 C 369.272 0.664845 1.96455 0
M  V30 3701 C 369.697 -0.761287 1.72006 0
M  V30 3702 O 369.055 -1.51837 0.990713 0
M  V30 3703 C 369.103 0.959479 3.47601 0
M  V30 3704 O 368.207 0.0508168 4.12369 0
M  V30 3705 H 367.548 0.250185 0.615064 0
M  V30 3706 H 370.078 1.31231 1.5697 0
M  V30 3707 H 370.088 0.895642 3.98048 0
M  V30 3708 H 368.763 1.99876 3.64723 0
M  V30 3709 H 367.34 0.16895 3.72517 0
M  V30 3710 N 369.525 -1.3858 0.750561 0
M  V30 3711 C 370.458 -2.28095 0.0693139 0
M  V30 3712 C 371.436 -1.45217 -0.731491 0
M  V30 3713 O 372.62 -1.74587 -0.71076 0
M  V30 3714 C 369.747 -3.26282 -0.90871 0
M  V30 3715 C 368.793 -4.26056 -0.194507 0
M  V30 3716 S 369.626 -5.24026 1.10257 0
M  V30 3717 C 370.782 -6.2577 0.127542 0
M  V30 3718 H 371.015 -2.85526 0.8284 0
M  V30 3719 H 368.548 -1.44536 0.543014 0
M  V30 3720 H 370.506 -3.83367 -1.46766 0
M  V30 3721 H 369.167 -2.6784 -1.64075 0
M  V30 3722 H 368.36 -4.95249 -0.93512 0
M  V30 3723 H 367.962 -3.72852 0.292837 0
M  V30 3724 H 370.254 -6.73796 -0.707516 0
M  V30 3725 H 371.197 -7.03712 0.787044 0
M  V30 3726 H 371.605 -5.63938 -0.251803 0
M  V30 3727 N 371.003 -0.499398 -1.49478 0
M  V30 3728 C 371.966 0.268838 -2.27618 0
M  V30 3729 C 372.966 0.895383 -1.33565 0
M  V30 3730 O 374.156 0.760164 -1.56739 0
M  V30 3731 C 371.288 1.38559 -3.11471 0
M  V30 3732 H 372.481 -0.416812 -2.96989 0
M  V30 3733 H 370.034 -0.254313 -1.54217 0
M  V30 3734 H 370.769 2.10544 -2.46661 0
M  V30 3735 H 370.554 0.941797 -3.80621 0
M  V30 3736 H 372.044 1.92678 -3.70493 0
M  V30 3737 N 372.481 1.55866 -0.233164 0
M  V30 3738 C 373.711 2.02704 0.399325 0
M  V30 3739 C 374.119 1.11204 1.53069 0
M  V30 3740 O 373.462 0.116182 1.83332 0
M  V30 3741 C 373.524 3.45844 0.981429 0
M  V30 3742 C 373.188 4.56997 -0.0159561 0
M  V30 3743 C 374.185 5.13384 -0.820552 0
M  V30 3744 C 371.87 5.0211 -0.138072 0
M  V30 3745 C 373.864 6.13365 -1.73386 0
M  V30 3746 C 371.551 6.01926 -1.0549 0
M  V30 3747 C 372.549 6.57431 -1.85132 0
M  V30 3748 O 372.237 7.55302 -2.75272 0
M  V30 3749 H 371.969 0.668459 0.100692 0
M  V30 3750 H 374.523 2.02387 -0.35052 0
M  V30 3751 H 372.753 3.43267 1.78058 0
M  V30 3752 H 374.442 3.76262 1.52255 0
M  V30 3753 H 375.208 4.79372 -0.736721 0
M  V30 3754 H 371.087 4.5858 0.471737 0
M  V30 3755 H 374.631 6.56614 -2.35592 0
M  V30 3756 H 370.528 6.35359 -1.1397 0
M  V30 3757 H 371.296 7.72867 -2.69477 0
M  V30 3758 N 373.959 -0.0401083 1.57549 0
M  V30 3759 C 374.922 -1.02871 2.04817 0
M  V30 3760 C 375.922 -1.29708 0.950388 0
M  V30 3761 O 377.112 -1.24897 1.21435 0
M  V30 3762 C 374.244 -2.36443 2.45576 0
M  V30 3763 H 375.437 -0.620631 2.93408 0
M  V30 3764 H 372.99 -0.286667 1.53649 0
M  V30 3765 H 373.725 -2.82021 1.60108 0
M  V30 3766 H 373.51 -2.18296 3.25713 0
M  V30 3767 H 375 -3.07441 2.82612 0
M  V30 3768 N 375.437 -1.54477 -0.31217 0
M  V30 3769 C 376.685 -1.72884 -1.04668 0
M  V30 3770 C 377.006 -0.511477 -1.88173 0
M  V30 3771 O 376.276 0.474407 -1.90069 0
M  V30 3772 H 374.856 -0.637461 -0.389425 0
M  V30 3773 H 377.518 -1.91807 -0.345852 0
M  V30 3774 H 376.614 -2.61334 -1.70619 0
M  V30 3775 N 376.915 0.57481 -1.46744 0
M  V30 3776 C 377.878 1.66533 -1.57478 0
M  V30 3777 C 378.878 1.54338 -0.451263 0
M  V30 3778 O 380.068 1.58814 -0.715813 0
M  V30 3779 C 377.2 3.05999 -1.50259 0
M  V30 3780 H 378.393 1.58372 -2.54673 0
M  V30 3781 H 375.946 0.793301 -1.34672 0
M  V30 3782 H 376.681 3.19709 -0.543725 0
M  V30 3783 H 376.466 3.16259 -2.31781 0
M  V30 3784 H 377.956 3.8537 -1.60872 0
M  V30 3785 N 378.394 1.34581 0.820102 0
M  V30 3786 C 379.81 1.14325 1.11364 0
M  V30 3787 C 380.01 -0.0533648 2.01429 0
M  V30 3788 O 379.066 -0.728044 2.41776 0
M  V30 3789 C 380.379 2.43983 1.75764 0
M  V30 3790 C 381.927 2.50065 1.88246 0
M  V30 3791 C 382.402 3.79732 2.56061 0
M  V30 3792 N 383.893 3.80908 2.63558 0
M  V30 3793 C 384.628 4.77961 3.16766 0
M  V30 3794 N 384.124 5.85397 3.70517 0
M  V30 3795 N 385.917 4.65413 3.15194 0
M  V30 3796 H 378.068 2.11246 0.221096 0
M  V30 3797 H 380.331 0.934289 0.160649 0
M  V30 3798 H 380.037 3.31651 1.1705 0
M  V30 3799 H 379.911 2.57531 2.75604 0
M  V30 3800 H 382.298 1.62834 2.46108 0
M  V30 3801 H 382.379 2.40442 0.873006 0
M  V30 3802 H 382.023 4.67354 1.98853 0
M  V30 3803 H 381.953 3.86639 3.57516 0
M  V30 3804 H 384.444 3.03274 2.25463 0
M  V30 3805 H 384.757 6.55463 4.09376 0
M  V30 3806 H 383.102 5.89107 3.68752 0
M  V30 3807 H 386.293 3.80627 2.72471 0
M  V30 3808 H 386.466 5.41216 3.56356 0
M  V30 3809 N 379.872 -1.04064 1.18357 0
M  V30 3810 C 381.119 -1.77265 0.978947 0
M  V30 3811 C 381.447 -1.88189 -0.491428 0
M  V30 3812 O 380.702 -1.38653 -1.38108 0
M  V30 3813 C 381.001 -3.20634 1.57888 0
M  V30 3814 C 380.667 -3.29743 3.07539 0
M  V30 3815 C 379.329 -3.31937 3.48384 0
M  V30 3816 C 381.681 -3.29841 4.03552 0
M  V30 3817 C 379.009 -3.3187 4.83818 0
M  V30 3818 C 381.361 -3.31313 5.38901 0
M  V30 3819 C 380.025 -3.31799 5.79194 0
M  V30 3820 H 379.295 -0.648659 0.358222 0
M  V30 3821 H 381.942 -1.22225 1.47422 0
M  V30 3822 H 380.247 -3.78675 1.00561 0
M  V30 3823 H 381.944 -3.75917 1.39598 0
M  V30 3824 H 378.534 -3.28757 2.74986 0
M  V30 3825 H 382.718 -3.27337 3.73047 0
M  V30 3826 H 377.974 -3.30562 5.14333 0
M  V30 3827 H 382.148 -3.30338 6.13066 0
M  V30 3828 H 379.775 -3.315 6.84114 0
M  V30 3829 N 381.35 -0.985608 -1.22978 0
M  V30 3830 C 382.596 -0.65836 -1.91816 0
M  V30 3831 C 382.929 0.806692 -1.76653 0
M  V30 3832 O 382.204 1.58252 -1.13078 0
M  V30 3833 C 382.487 -1.056 -3.44268 0
M  V30 3834 C 382.34 -2.57906 -3.68516 0
M  V30 3835 C 383.659 -0.603781 -4.35939 0
M  V30 3836 H 380.778 -0.24065 -0.696604 0
M  V30 3837 H 383.42 -1.22783 -1.44998 0
M  V30 3838 H 381.57 -0.571445 -3.84274 0
M  V30 3839 H 383.242 -3.13976 -3.3796 0
M  V30 3840 H 381.485 -3.00305 -3.13048 0
M  V30 3841 H 382.156 -2.80779 -4.75255 0
M  V30 3842 H 384.632 -1.01987 -4.03408 0
M  V30 3843 H 383.508 -0.910383 -5.41298 0
M  V30 3844 H 383.769 0.495761 -4.39312 0
M  V30 3845 N 382.828 1.3818 -0.7579 0
M  V30 3846 C 384.075 2.00019 -0.315985 0
M  V30 3847 C 384.403 1.60163 1.10355 0
M  V30 3848 O 383.658 0.83264 1.77103 0
M  V30 3849 C 383.957 3.55252 -0.391218 0
M  V30 3850 C 383.623 4.14834 -1.76702 0
M  V30 3851 C 382.285 4.30821 -2.14353 0
M  V30 3852 C 384.637 4.47658 -2.66931 0
M  V30 3853 C 381.965 4.76928 -3.41696 0
M  V30 3854 C 384.317 4.95184 -3.93669 0
M  V30 3855 C 382.981 5.09377 -4.31383 0
M  V30 3856 H 382.251 0.731923 -0.115627 0
M  V30 3857 H 384.898 1.65161 -0.969223 0
M  V30 3858 H 383.203 3.90273 0.34558 0
M  V30 3859 H 384.9 4.00988 -0.030805 0
M  V30 3860 H 381.49 4.02808 -1.46435 0
M  V30 3861 H 385.674 4.34904 -2.39106 0
M  V30 3862 H 380.93 4.86103 -3.70829 0
M  V30 3863 H 385.104 5.19551 -4.63724 0
M  V30 3864 H 382.731 5.44865 -5.30119 0
M  V30 3865 N 384.306 0.507319 1.49211 0
M  V30 3866 C 385.531 -0.033725 2.07373 0
M  V30 3867 C 385.956 -1.29485 1.36437 0
M  V30 3868 O 385.314 -1.76294 0.423087 0
M  V30 3869 C 385.362 -0.263945 3.59633 0
M  V30 3870 O 384.466 -1.33737 3.90113 0
M  V30 3871 H 383.807 0.0290331 0.663365 0
M  V30 3872 H 386.337 0.708749 1.91932 0
M  V30 3873 H 386.347 -0.493536 4.05004 0
M  V30 3874 H 385.022 0.657424 4.10671 0
M  V30 3875 H 383.599 -1.09224 3.56545 0
M  V30 3876 N 385.784 -1.5574 0.241426 0
M  V30 3877 C 386.714 -2.24133 -0.654722 0
M  V30 3878 C 387.695 -1.21974 -1.1856 0
M  V30 3879 O 388.88 -1.50612 -1.22595 0
M  V30 3880 C 386.01 -2.93659 -1.85423 0
M  V30 3881 C 384.964 -4.0246 -1.45636 0
M  V30 3882 C 384.29 -4.59383 -2.73626 0
M  V30 3883 C 385.59 -5.18468 -0.631506 0
M  V30 3884 H 387.284 -2.99281 -0.0844353 0
M  V30 3885 H 384.83 -1.43947 -0.0391707 0
M  V30 3886 H 386.783 -3.40203 -2.48676 0
M  V30 3887 H 385.507 -2.15991 -2.44981 0
M  V30 3888 H 384.166 -3.56676 -0.847202 0
M  V30 3889 H 383.814 -3.78422 -3.3137 0
M  V30 3890 H 383.514 -5.32826 -2.4773 0
M  V30 3891 H 385.038 -5.08658 -3.37786 0
M  V30 3892 H 386.452 -5.61272 -1.1682 0
M  V30 3893 H 384.849 -5.98266 -0.468831 0
M  V30 3894 H 385.919 -4.8358 0.357506 0
M  V30 3895 N 387.262 0.0317525 -1.57568 0
M  V30 3896 C 388.508 0.724175 -1.8943 0
M  V30 3897 C 388.841 1.75149 -0.838836 0
M  V30 3898 O 388.116 1.93948 0.146422 0
M  V30 3899 C 388.399 1.39615 -3.31933 0
M  V30 3900 C 388.252 0.382537 -4.4817 0
M  V30 3901 C 389.571 2.33084 -3.73309 0
M  V30 3902 H 386.69 0.261797 -0.688935 0
M  V30 3903 H 389.332 -0.013017 -1.89996 0
M  V30 3904 H 387.482 2.02451 -3.31581 0
M  V30 3905 H 389.154 -0.243689 -4.60656 0
M  V30 3906 H 387.397 -0.29844 -4.32772 0
M  V30 3907 H 388.068 0.891145 -5.44759 0
M  V30 3908 H 390.544 1.80295 -3.7501 0
M  V30 3909 H 389.42 2.77084 -4.73831 0
M  V30 3910 H 389.681 3.19643 -3.05419 0
M  V30 3911 N 388.74 1.54641 0.303973 0
M  V30 3912 C 390.017 1.64455 1.05896 0
M  V30 3913 C 390.397 0.490923 2.05312 0
M  V30 3914 O 389.745 -0.512685 2.22674 0
M  V30 3915 C 389.955 3.02331 1.74347 0
M  V30 3916 C 391.303 3.59045 2.26653 0
M  V30 3917 O 392.327 3.04764 1.84384 0
M  V30 3918 O 391.186 4.54081 3.04093 0
M  V30 3919 H 388.28 0.666729 0.489287 0
M  V30 3920 H 390.826 1.66986 0.302298 0
M  V30 3921 H 389.598 3.77734 1.02142 0
M  V30 3922 H 389.221 3.03565 2.56777 0
M  V30 3923 N 390.218 -0.567019 1.47046 0
M  V30 3924 C 391.181 -1.65696 1.58359 0
M  V30 3925 C 392.181 -1.54097 0.459441 0
M  V30 3926 O 393.371 -1.58432 0.724225 0
M  V30 3927 C 390.503 -3.05197 1.51879 0
M  V30 3928 H 391.696 -1.57019 2.5551 0
M  V30 3929 H 389.249 -0.786148 1.3509 0
M  V30 3930 H 389.984 -3.19417 0.560673 0
M  V30 3931 H 389.769 -3.15025 2.33455 0
M  V30 3932 H 391.259 -3.84511 1.62913 0
M  V30 3933 N 391.696 -1.35014 -0.812953 0
M  V30 3934 C 392.629 -1.21761 -1.93001 0
M  V30 3935 C 393.607 -0.10694 -1.62248 0
M  V30 3936 O 394.791 -0.273891 -1.865 0
M  V30 3937 C 391.918 -0.873404 -3.27245 0
M  V30 3938 C 390.964 -1.99523 -3.76952 0
M  V30 3939 S 391.797 -3.61009 -3.95516 0
M  V30 3940 C 392.953 -3.28651 -5.32672 0
M  V30 3941 H 393.186 -2.16315 -2.03948 0
M  V30 3942 H 390.719 -1.20156 -0.969631 0
M  V30 3943 H 392.677 -0.68161 -4.04802 0
M  V30 3944 H 391.338 0.053971 -3.14054 0
M  V30 3945 H 390.531 -1.70838 -4.74163 0
M  V30 3946 H 390.133 -2.14503 -3.06373 0
M  V30 3947 H 392.425 -2.81085 -6.1644 0
M  V30 3948 H 393.368 -4.25039 -5.66346 0
M  V30 3949 H 393.776 -2.6458 -4.98656 0
M  V30 3950 N 393.175 1.03435 -1.18907 0
M  V30 3951 C 394.123 2.13703 -0.918353 0
M  V30 3952 C 395.117 1.68947 0.123767 0
M  V30 3953 O 396.323 1.79983 -0.0249701 0
M  V30 3954 H 392.698 0.698112 -0.279542 0
M  V30 3955 H 394.669 2.33731 -1.85506 0
M  V30 3956 C 393.418 3.44542 -0.467532 0
M  V30 3957 H 392.741 3.79394 -1.26095 0
M  V30 3958 H 394.181 4.22812 -0.317164 0
M  V30 3959 C 392.64 3.26829 0.817588 0
M  V30 3960 O 393.17 3.54975 1.88031 0
M  V30 3961 N 391.376 2.80139 0.772677 0
M  V30 3962 H 390.923 2.57434 -0.0923883 0
M  V30 3963 H 390.881 2.68668 1.63294 0
M  V30 3964 N 394.653 0.992116 1.22453 0
M  V30 3965 C 395.901 0.666215 1.90804 0
M  V30 3966 C 396.222 -0.804152 1.77647 0
M  V30 3967 O 395.492 -1.57629 1.16318 0
M  V30 3968 H 394.072 0.243423 0.706225 0
M  V30 3969 H 396.734 1.25845 1.48825 0
M  V30 3970 H 395.83 0.928069 2.97982 0
M  V30 3971 N 396.131 -1.37776 0.765217 0
M  V30 3972 C 397.078 -2.30342 0.145274 0
M  V30 3973 C 398.048 -1.5077 -0.696971 0
M  V30 3974 O 399.233 -1.79362 -0.650689 0
M  V30 3975 C 396.373 -3.37227 -0.732939 0
M  V30 3976 C 395.486 -4.31819 0.125199 0
M  V30 3977 C 394.621 -5.25777 -0.757107 0
M  V30 3978 C 393.66 -6.12012 0.103963 0
M  V30 3979 N 392.797 -6.98232 -0.735953 0
M  V30 3980 H 397.637 -2.8278 0.940195 0
M  V30 3981 H 395.174 -1.39211 0.475255 0
M  V30 3982 H 397.132 -3.97818 -1.25686 0
M  V30 3983 H 395.762 -2.86171 -1.49353 0
M  V30 3984 H 394.814 -3.7259 0.766865 0
M  V30 3985 H 396.126 -4.92509 0.789683 0
M  V30 3986 H 395.28 -5.91541 -1.34776 0
M  V30 3987 H 394.019 -4.65481 -1.45529 0
M  V30 3988 H 393.024 -5.45233 0.707197 0
M  V30 3989 H 394.249 -6.74379 0.799381 0
M  V30 3990 H 392.195 -6.40472 -1.41887 0
M  V30 3991 H 392.112 -7.55891 -0.128624 0
M  V30 3992 H 393.38 -7.68393 -1.31121 0
M  V30 3993 N 397.609 -0.515225 -1.4894 0
M  V30 3994 C 398.519 0.259774 -2.33157 0
M  V30 3995 C 399.535 0.953501 -1.45548 0
M  V30 3996 O 400.711 0.931735 -1.78552 0
M  V30 3997 C 397.776 1.30193 -3.21326 0
M  V30 3998 C 396.837 0.620129 -4.24797 0
M  V30 3999 C 396.07 1.61263 -5.08753 0
M  V30 4000 O 396.293 2.84389 -4.94448 0
M  V30 4001 O 395.227 1.16013 -5.90614 0
M  V30 4002 H 399.053 -0.429932 -3.00641 0
M  V30 4003 H 396.638 -0.276346 -1.46822 0
M  V30 4004 H 398.52 1.90455 -3.75905 0
M  V30 4005 H 397.195 1.97431 -2.56521 0
M  V30 4006 H 396.102 -0.0226019 -3.74093 0
M  V30 4007 H 397.435 -0.0100493 -4.92199 0
M  V30 4008 N 399.087 1.5561 -0.249682 0
M  V30 4009 C 400.335 1.98618 0.373548 0
M  V30 4010 C 400.656 1.13919 1.58264 0
M  V30 4011 O 399.926 0.222637 1.94631 0
M  V30 4012 H 398.506 0.733571 0.141006 0
M  V30 4013 H 401.168 1.91748 -0.349117 0
M  V30 4014 H 400.264 3.04584 0.680796 0
M  V30 4015 N 400.565 -0.0233959 1.57583 0
M  V30 4016 C 401.811 -0.714119 1.89811 0
M  V30 4017 C 402.144 -1.74702 0.848113 0
M  V30 4018 O 401.419 -1.94023 -0.136135 0
M  V30 4019 C 401.702 -1.37853 3.32669 0
M  V30 4020 C 401.555 -0.358764 4.48367 0
M  V30 4021 C 402.874 -2.31101 3.7454 0
M  V30 4022 H 399.993 -0.25814 0.690314 0
M  V30 4023 H 402.635 0.0230927 1.89986 0
M  V30 4024 H 400.785 -2.00689 3.3265 0
M  V30 4025 H 402.457 0.268115 4.6052 0
M  V30 4026 H 400.7 0.321387 4.32608 0
M  V30 4027 H 401.371 -0.862242 5.45224 0
M  V30 4028 H 403.847 -1.78304 3.75961 0
M  V30 4029 H 402.723 -2.74567 4.75294 0
M  V30 4030 H 402.984 -3.18018 3.0711 0
M  V30 4031 N 402.043 -1.548 -0.295768 0
M  V30 4032 C 403.289 -1.74588 -1.03184 0
M  V30 4033 C 403.622 -0.532962 -1.86744 0
M  V30 4034 O 402.897 0.469872 -1.88739 0
M  V30 4035 C 403.18 -3.03791 -1.93347 0
M  V30 4036 C 403.033 -4.35392 -1.12933 0
M  V30 4037 C 404.352 -3.28892 -2.92435 0
M  V30 4038 H 401.471 -0.635221 -0.373715 0
M  V30 4039 H 404.113 -1.87519 -0.30606 0
M  V30 4040 H 402.263 -2.92898 -2.55232 0
M  V30 4041 H 403.935 -4.58211 -0.532943 0
M  V30 4042 H 402.178 -4.31642 -0.432168 0
M  V30 4043 H 402.849 -5.22074 -1.79284 0
M  V30 4044 H 405.325 -3.39429 -2.4068 0
M  V30 4045 H 404.201 -4.20603 -3.52682 0
M  V30 4046 H 404.462 -2.47437 -3.6637 0
M  V30 4047 N 403.521 0.559213 -1.47345 0
M  V30 4048 C 404.431 1.69388 -1.62311 0
M  V30 4049 C 405.447 1.6648 -0.505993 0
M  V30 4050 O 406.623 1.85964 -0.773262 0
M  V30 4051 C 403.688 3.05894 -1.63185 0
M  V30 4052 C 402.749 3.19885 -2.86307 0
M  V30 4053 C 401.982 4.49879 -2.87131 0
M  V30 4054 O 402.205 5.35217 -1.97229 0
M  V30 4055 O 401.139 4.67618 -3.78968 0
M  V30 4056 H 404.965 1.59706 -2.58317 0
M  V30 4057 H 402.55 0.728989 -1.30407 0
M  V30 4058 H 404.432 3.87133 -1.66451 0
M  V30 4059 H 403.107 3.15964 -0.70345 0
M  V30 4060 H 402.014 2.38052 -2.88587 0
M  V30 4061 H 403.347 3.14718 -3.78435 0
M  V30 4062 N 404.999 1.35443 0.805782 0
M  V30 4063 C 406.239 1.30127 1.57627 0
M  V30 4064 C 406.603 -0.122567 1.91608 0
M  V30 4065 O 407.804 -0.300107 2.67119 0
M  V30 4066 C 406.075 2.18314 2.82973 0
M  V30 4067 S 407.634 2.30521 3.7337 0
M  V30 4068 H 404.452 0.462439 0.540066 0
M  V30 4069 H 407.054 1.70843 0.95042 0
M  V30 4070 H 405.758 3.20741 2.56034 0
M  V30 4071 H 405.289 1.78558 3.50543 0
M  V30 4072 H 407.304 1.49062 4.73281 0
M  V30 4073 N 406.477 -1.02803 1.19454 0
M  V30 4074 C 407.702 -1.80378 1.02364 0
M  V30 4075 C 408.127 -1.83282 -0.423007 0
M  V30 4076 O 407.485 -1.25945 -1.30413 0
M  V30 4077 C 407.533 -3.23248 1.59821 0
M  V30 4078 O 406.637 -4.04 0.828105 0
M  V30 4079 H 405.978 -0.556799 0.361761 0
M  V30 4080 H 408.508 -1.29385 1.58495 0
M  V30 4081 H 408.518 -3.73994 1.63073 0
M  V30 4082 H 407.193 -3.2045 2.65113 0
M  V30 4083 H 405.77 -3.62635 0.86891 0
M  V30 4084 N 407.956 -0.998596 -1.21925 0
M  V30 4085 C 409.203 -0.677663 -1.90824 0
M  V30 4086 C 409.531 0.790905 -1.77693 0
M  V30 4087 O 408.786 1.58817 -1.14349 0
M  V30 4088 C 409.085 -1.03648 -3.42041 0
M  V30 4089 C 408.751 -2.49825 -3.75364 0
M  V30 4090 C 407.413 -2.8977 -3.8417 0
M  V30 4091 C 409.765 -3.44545 -3.91073 0
M  V30 4092 C 407.093 -4.23412 -4.06127 0
M  V30 4093 C 409.445 -4.77853 -4.14535 0
M  V30 4094 C 408.109 -5.17531 -4.21566 0
M  V30 4095 H 407.379 -0.247975 -0.698276 0
M  V30 4096 H 410.026 -1.25584 -1.44571 0
M  V30 4097 H 408.331 -0.376457 -3.89987 0
M  V30 4098 H 410.028 -0.766113 -3.93614 0
M  V30 4099 H 406.618 -2.17866 -3.69097 0
M  V30 4100 H 410.802 -3.14853 -3.83642 0
M  V30 4101 H 406.058 -4.53734 -4.09799 0
M  V30 4102 H 410.232 -5.51189 -4.25633 0
M  V30 4103 H 407.859 -6.21102 -4.38333 0
M  V30 4104 N 409.434 1.37368 -0.772513 0
M  V30 4105 C 410.68 1.99969 -0.337681 0
M  V30 4106 C 411.013 1.61184 1.08321 0
M  V30 4107 O 410.288 0.858395 1.74533 0
M  V30 4108 C 410.571 3.56858 -0.482121 0
M  V30 4109 C 410.424 4.0555 -1.94549 0
M  V30 4110 C 411.743 4.39955 0.113143 0
M  V30 4111 H 408.862 0.726464 -0.124171 0
M  V30 4112 H 411.504 1.63034 -0.975699 0
M  V30 4113 H 409.654 3.88452 0.0610361 0
M  V30 4114 H 411.326 3.84518 -2.54841 0
M  V30 4115 H 409.569 3.57715 -2.45403 0
M  V30 4116 H 410.24 5.14587 -1.9976 0
M  V30 4117 H 412.716 4.14623 -0.35031 0
M  V30 4118 H 411.592 5.48897 -0.0180514 0
M  V30 4119 H 411.853 4.25403 1.20354 0
M  V30 4120 N 410.912 0.523116 1.48665 0
M  V30 4121 C 411.859 -0.243398 2.29513 0
M  V30 4122 C 412.829 -0.940139 1.36933 0
M  V30 4123 O 414.014 -0.942503 1.65896 0
M  V30 4124 C 411.154 -1.28855 3.20141 0
M  V30 4125 C 410.267 -0.60135 4.27794 0
M  V30 4126 C 409.402 -1.62884 5.05611 0
M  V30 4127 C 408.441 -0.924726 6.05075 0
M  V30 4128 N 407.578 -1.89744 6.75975 0
M  V30 4129 H 412.418 0.452234 2.94549 0
M  V30 4130 H 409.955 0.234858 1.45213 0
M  V30 4131 H 411.913 -1.90674 3.71079 0
M  V30 4132 H 410.543 -1.95266 2.57043 0
M  V30 4133 H 409.595 0.130623 3.80176 0
M  V30 4134 H 410.907 -0.0481585 4.98777 0
M  V30 4135 H 410.061 -2.32149 5.60528 0
M  V30 4136 H 408.8 -2.21592 4.34452 0
M  V30 4137 H 407.805 -0.217966 5.49368 0
M  V30 4138 H 409.03 -0.343851 6.78229 0
M  V30 4139 H 406.976 -2.47373 6.07571 0
M  V30 4140 H 406.893 -1.3955 7.43009 0
M  V30 4141 H 408.161 -2.58229 7.35485 0
M  V30 4142 N 412.39 -1.55475 0.257931 0
M  V30 4143 C 413.615 -2.04064 -0.370488 0
M  V30 4144 C 414.04 -1.13565 -1.49948 0
M  V30 4145 O 413.398 -0.130781 -1.80828 0
M  V30 4146 C 413.446 -3.50554 -0.845237 0
M  V30 4147 O 412.55 -3.63173 -1.95394 0
M  V30 4148 H 411.891 -0.659257 -0.0792243 0
M  V30 4149 H 414.421 -2.00903 0.387212 0
M  V30 4150 H 414.431 -3.91588 -1.14555 0
M  V30 4151 H 413.106 -4.15896 -0.0191259 0
M  V30 4152 H 411.683 -3.34039 -1.65748 0
M  V30 4153 N 413.868 0.0150385 -1.57593 0
M  V30 4154 C 414.8 1.03912 -2.04291 0
M  V30 4155 C 415.813 1.31618 -0.958146 0
M  V30 4156 O 417.002 1.28859 -1.23522 0
M  V30 4157 C 414.102 2.37749 -2.41514 0
M  V30 4158 C 413.275 2.29198 -3.72541 0
M  V30 4159 C 412.334 3.45598 -3.96797 0
M  V30 4160 O 411.36 3.24461 -4.67668 0
M  V30 4161 N 412.562 4.67945 -3.43523 0
M  V30 4162 H 415.327 0.64099 -2.92765 0
M  V30 4163 H 412.888 0.20272 -1.60626 0
M  V30 4164 H 414.88 3.14364 -2.54867 0
M  V30 4165 H 413.45 2.69357 -1.58637 0
M  V30 4166 H 412.67 1.3759 -3.69408 0
M  V30 4167 H 413.958 2.20642 -4.5847 0
M  V30 4168 H 413.356 4.88017 -2.86104 0
M  V30 4169 H 411.913 5.41878 -3.62232 0
M  V30 4170 N 415.346 1.54954 0.287554 0
M  V30 4171 C 416.256 1.8991 1.37736 0
M  V30 4172 C 417.272 0.794701 1.54792 0
M  V30 4173 O 418.448 1.09243 1.69198 0
M  V30 4174 C 415.513 2.15108 2.71899 0
M  V30 4175 C 414.574 3.38752 2.63715 0
M  V30 4176 C 413.807 3.62739 3.91479 0
M  V30 4177 O 414.03 2.89492 4.91478 0
M  V30 4178 O 412.964 4.56267 3.92561 0
M  V30 4179 H 416.79 2.82652 1.11092 0
M  V30 4180 H 414.375 1.41315 0.484807 0
M  V30 4181 H 416.257 2.32806 3.51254 0
M  V30 4182 H 414.932 1.25551 2.9836 0
M  V30 4183 H 413.839 3.26405 1.82786 0
M  V30 4184 H 415.172 4.28483 2.42205 0
M  V30 4185 N 416.824 -0.551391 1.4764 0
M  V30 4186 C 418.052 -1.33357 1.58189 0
M  V30 4187 C 418.467 -1.87342 0.234199 0
M  V30 4188 O 417.824 -1.65301 -0.77343 0
M  V30 4189 C 417.875 -2.49942 2.61173 0
M  V30 4190 O 417.596 -1.98187 3.90709 0
M  V30 4191 C 419.097 -3.42072 2.8196 0
M  V30 4192 H 416.317 -0.40631 0.533998 0
M  V30 4193 H 418.861 -0.667367 1.93304 0
M  V30 4194 H 417.016 -3.12489 2.28975 0
M  V30 4195 H 417.43 -2.74342 4.47031 0
M  V30 4196 H 418.904 -4.20278 3.57869 0
M  V30 4197 H 419.381 -3.95978 1.89995 0
M  V30 4198 H 419.987 -2.85336 3.15378 0
M  V30 4199 N 418.302 -1.35869 -0.798587 0
M  V30 4200 C 419.212 -1.31578 -1.94228 0
M  V30 4201 C 420.228 -0.21939 -1.72611 0
M  V30 4202 O 421.404 -0.450167 -1.96305 0
M  V30 4203 C 418.469 -1.09528 -3.28944 0
M  V30 4204 C 417.53 -2.28556 -3.63402 0
M  V30 4205 C 416.763 -2.07549 -4.9169 0
M  V30 4206 O 416.986 -1.046 -5.60727 0
M  V30 4207 O 415.92 -2.95106 -5.24591 0
M  V30 4208 H 419.746 -2.27847 -2.00796 0
M  V30 4209 H 417.331 -1.16322 -0.937526 0
M  V30 4210 H 419.213 -0.991127 -4.09579 0
M  V30 4211 H 417.888 -0.16315 -3.23289 0
M  V30 4212 H 416.795 -2.44538 -2.83112 0
M  V30 4213 H 418.128 -3.20244 -3.73771 0
M  V30 4214 N 419.78 1.02168 -1.19998 0
M  V30 4215 C 421.02 1.77232 -1.01825 0
M  V30 4216 C 421.384 1.86833 0.442428 0
M  V30 4217 O 422.585 2.58293 0.744189 0
M  V30 4218 C 420.856 3.15601 -1.67722 0
M  V30 4219 S 422.415 4.06765 -1.64584 0
M  V30 4220 H 419.233 0.610021 -0.365233 0
M  V30 4221 H 421.835 1.22368 -1.52467 0
M  V30 4222 H 420.539 3.06235 -2.73218 0
M  V30 4223 H 420.07 3.7554 -1.17189 0
M  V30 4224 H 422.085 4.91586 -0.67511 0
M  V30 4225 N 421.258 1.00505 1.21394 0
M  V30 4226 C 422.486 0.706609 1.9446 0
M  V30 4227 C 422.901 -0.73081 1.74082 0
M  V30 4228 O 422.258 -1.49446 1.04747 0
M  V30 4229 C 422.309 1.01824 3.46863 0
M  V30 4230 O 422.03 2.39919 3.66566 0
M  V30 4231 C 423.531 0.739216 4.37093 0
M  V30 4232 H 420.751 0.260394 0.618414 0
M  V30 4233 H 423.295 1.34311 1.54211 0
M  V30 4234 H 421.45 0.427343 3.85036 0
M  V30 4235 H 421.864 2.50784 4.6066 0
M  V30 4236 H 423.338 1.00744 5.42729 0
M  V30 4237 H 423.815 -0.326746 4.37983 0
M  V30 4238 H 424.421 1.31173 4.04566 0
M  V30 4239 N 422.737 -1.36956 0.779787 0
M  V30 4240 C 423.967 -2.03459 0.358877 0
M  V30 4241 C 424.375 -1.58939 -1.02641 0
M  V30 4242 O 423.718 -0.769777 -1.66794 0
M  V30 4243 C 423.78 -3.5796 0.332393 0
M  V30 4244 C 423.444 -4.25644 1.66362 0
M  V30 4245 C 424.441 -4.49205 2.61746 0
M  V30 4246 C 422.126 -4.63313 1.94027 0
M  V30 4247 C 424.12 -5.09503 3.82996 0
M  V30 4248 C 421.807 -5.2333 3.15546 0
M  V30 4249 C 422.805 -5.46363 4.0985 0
M  V30 4250 O 422.493 -6.05122 5.29228 0
M  V30 4251 H 422.225 -0.659767 0.147254 0
M  V30 4252 H 424.779 -1.76111 1.05708 0
M  V30 4253 H 423.009 -3.84388 -0.422237 0
M  V30 4254 H 424.698 -4.05852 -0.0625389 0
M  V30 4255 H 425.464 -4.20508 2.41657 0
M  V30 4256 H 421.343 -4.44715 1.21448 0
M  V30 4257 H 424.887 -5.27397 4.56617 0
M  V30 4258 H 420.784 -5.51451 3.35517 0
M  V30 4259 H 421.552 -6.23595 5.30161 0
M  V30 4260 N 424.215 -0.530993 -1.48385 0
M  V30 4261 C 425.462 0.0027373 -2.025 0
M  V30 4262 C 425.79 1.34186 -1.40799 0
M  V30 4263 O 425.045 1.88 -0.543544 0
M  V30 4264 C 425.344 0.172742 -3.56982 0
M  V30 4265 C 425.01 -1.09215 -4.37473 0
M  V30 4266 C 423.672 -1.43881 -4.59186 0
M  V30 4267 C 426.024 -1.93153 -4.84088 0
M  V30 4268 C 423.352 -2.62381 -5.2476 0
M  V30 4269 C 425.704 -3.10833 -5.50968 0
M  V30 4270 C 424.368 -3.45843 -5.70919 0
M  V30 4271 H 423.638 0.00100165 -0.740999 0
M  V30 4272 H 426.285 -0.697219 -1.78357 0
M  V30 4273 H 424.59 0.955473 -3.79971 0
M  V30 4274 H 426.287 0.600642 -3.96476 0
M  V30 4275 H 422.877 -0.812177 -4.20834 0
M  V30 4276 H 427.061 -1.67683 -4.67115 0
M  V30 4277 H 422.317 -2.89707 -5.38405 0
M  V30 4278 H 426.491 -3.7618 -5.86056 0
M  V30 4279 H 424.118 -4.37764 -6.21503 0
M  V30 4280 N 425.693 1.55336 -0.266172 0
M  V30 4281 C 426.918 2.04258 0.359661 0
M  V30 4282 C 427.343 1.14359 1.49344 0
M  V30 4283 O 426.701 0.140369 1.80756 0
M  V30 4284 C 426.749 3.50997 0.826635 0
M  V30 4285 O 425.853 3.64204 1.93466 0
M  V30 4286 H 425.194 0.659668 0.075727 0
M  V30 4287 H 427.724 2.00694 -0.39786 0
M  V30 4288 H 427.734 3.9219 1.12477 0
M  V30 4289 H 426.409 4.159 -0.00293032 0
M  V30 4290 H 424.986 3.34913 1.63974 0
M  V30 4291 N 427.171 -0.0066808 1.57599 0
M  V30 4292 C 428.399 -0.704087 1.94551 0
M  V30 4293 C 428.814 -1.67677 0.867746 0
M  V30 4294 O 428.171 -1.8185 -0.153925 0
M  V30 4295 C 428.222 -1.44177 3.31505 0
M  V30 4296 O 427.943 -0.508097 4.35144 0
M  V30 4297 C 429.444 -2.23429 3.82876 0
M  V30 4298 H 426.664 -0.196523 0.641576 0
M  V30 4299 H 429.208 0.042453 2.04456 0
M  V30 4300 H 427.363 -2.13999 3.22929 0
M  V30 4301 H 427.777 -1.02782 5.14331 0
M  V30 4302 H 429.251 -2.70552 4.8115 0
M  V30 4303 H 429.728 -3.05818 3.15233 0
M  V30 4304 H 430.334 -1.58636 3.94607 0
M  V30 4305 N 428.649 -1.55105 -0.279332 0
M  V30 4306 C 430.06 -1.66186 -0.850832 0
M  V30 4307 C 430.411 -0.584707 -1.87285 0
M  V30 4308 O 429.536 0.274919 -2.14647 0
M  V30 4309 C 430.131 -3.01264 -1.55001 0
M  V30 4310 C 428.69 -3.14394 -2.06963 0
M  V30 4311 C 427.837 -2.61959 -0.909536 0
M  V30 4312 H 430.788 -1.58602 -0.0558235 0
M  V30 4313 H 430.809 -2.93899 -2.41669 0
M  V30 4314 H 430.321 -3.7964 -0.805931 0
M  V30 4315 H 428.422 -2.4078 -2.84352 0
M  V30 4316 H 428.535 -4.20867 -2.28928 0
M  V30 4317 H 426.899 -2.18957 -1.30116 0
M  V30 4318 H 427.682 -3.42833 -0.179062 0
M  V30 4319 N 430.127 0.543554 -1.4793 0
M  V30 4320 C 431.057 1.65888 -1.64327 0
M  V30 4321 C 432.038 1.62818 -0.492383 0
M  V30 4322 O 433.223 1.80226 -0.723338 0
M  V30 4323 C 430.353 3.04506 -1.67013 0
M  V30 4324 C 429.307 3.2243 -2.81466 0
M  V30 4325 C 428.633 4.61972 -2.69233 0
M  V30 4326 C 429.933 3.06496 -4.22915 0
M  V30 4327 H 431.627 1.52421 -2.57698 0
M  V30 4328 H 429.173 0.731849 -1.24016 0
M  V30 4329 H 431.126 3.82391 -1.77074 0
M  V30 4330 H 429.85 3.18964 -0.70212 0
M  V30 4331 H 428.509 2.46957 -2.70938 0
M  V30 4332 H 428.157 4.73247 -1.7043 0
M  V30 4333 H 427.857 4.74911 -3.46025 0
M  V30 4334 H 429.381 5.41974 -2.81242 0
M  V30 4335 H 430.795 3.74186 -4.34348 0
M  V30 4336 H 429.192 3.30938 -5.006 0
M  V30 4337 H 430.262 2.03077 -4.40327 0
M  V30 4338 N 431.605 1.3629 0.791371 0
M  V30 4339 C 432.535 1.33137 1.91825 0
M  V30 4340 C 433.516 0.203168 1.68882 0
M  V30 4341 O 434.701 0.400509 1.90025 0
M  V30 4342 C 431.831 1.11793 3.28816 0
M  V30 4343 C 430.785 2.21417 3.66277 0
M  V30 4344 C 430.111 1.85218 5.01596 0
M  V30 4345 C 431.411 3.63489 3.75064 0
M  V30 4346 H 433.105 2.2743 1.9472 0
M  V30 4347 H 430.651 1.09479 0.935437 0
M  V30 4348 H 432.604 1.08222 4.07266 0
M  V30 4349 H 431.328 0.139501 3.26302 0
M  V30 4350 H 429.987 2.2411 2.90121 0
M  V30 4351 H 429.635 0.859544 4.95602 0
M  V30 4352 H 429.335 2.58611 5.27631 0
M  V30 4353 H 430.859 1.832 5.82469 0
M  V30 4354 H 432.273 3.63034 4.43711 0
M  V30 4355 H 430.67 4.35771 4.12582 0
M  V30 4356 H 431.74 3.98536 2.76219 0
M  V30 4357 N 433.083 -1.0153 1.20538 0
M  V30 4358 C 434.013 -2.11972 0.979295 0
M  V30 4359 C 434.994 -1.6985 -0.0921787 0
M  V30 4360 O 436.179 -1.94089 0.0655932 0
M  V30 4361 C 433.309 -3.43201 0.531984 0
M  V30 4362 C 432.263 -3.9907 1.54685 0
M  V30 4363 C 431.589 -5.26082 0.956127 0
M  V30 4364 C 432.889 -4.32313 2.93092 0
M  V30 4365 H 434.583 -2.31143 1.90298 0
M  V30 4366 H 432.129 -1.11079 0.916372 0
M  V30 4367 H 434.082 -4.1985 0.361044 0
M  V30 4368 H 432.806 -3.23792 -0.427327 0
M  V30 4369 H 431.465 -3.2453 1.70517 0
M  V30 4370 H 431.113 -5.02999 -0.0111538 0
M  V30 4371 H 430.813 -5.64426 1.63393 0
M  V30 4372 H 432.337 -6.05386 0.796284 0
M  V30 4373 H 433.751 -4.99845 2.80763 0
M  V30 4374 H 432.148 -4.81774 3.57791 0
M  V30 4375 H 433.218 -3.41025 3.44717 0
M  V30 4376 N 434.561 -1.01147 -1.20859 0
M  V30 4377 C 435.809 -0.696486 -1.89719 0
M  V30 4378 C 436.13 0.775788 -1.78904 0
M  V30 4379 O 435.4 1.55759 -1.18811 0
M  V30 4380 H 433.98 -0.254628 -0.702263 0
M  V30 4381 H 436.642 -1.28197 -1.46804 0
M  V30 4382 H 435.738 -0.975357 -2.96468 0
M  V30 4383 N 436.039 1.36541 -0.78704 0
M  V30 4384 C 436.986 2.30082 -0.181901 0
M  V30 4385 C 437.956 1.5186 0.672896 0
M  V30 4386 O 439.141 1.80374 0.622072 0
M  V30 4387 C 436.281 3.3835 0.679197 0
M  V30 4388 C 435.394 4.31565 -0.193882 0
M  V30 4389 C 434.529 5.26915 0.673364 0
M  V30 4390 C 433.568 6.11769 -0.201315 0
M  V30 4391 N 432.705 6.99315 0.624777 0
M  V30 4392 H 437.545 2.81248 -0.985064 0
M  V30 4393 H 435.082 1.38437 -0.497342 0
M  V30 4394 H 437.04 3.99767 1.19341 0
M  V30 4395 H 435.67 2.8851 1.44781 0
M  V30 4396 H 434.722 3.71323 -0.826044 0
M  V30 4397 H 436.034 4.91191 -0.867937 0
M  V30 4398 H 435.188 5.9361 1.25348 0
M  V30 4399 H 433.927 4.67737 1.38105 0
M  V30 4400 H 432.932 5.44039 -0.793849 0
M  V30 4401 H 434.157 6.73022 -0.906568 0
M  V30 4402 H 432.103 6.42648 1.3168 0
M  V30 4403 H 432.02 7.56 0.00835237 0
M  V30 4404 H 433.288 7.70382 1.18879 0
M  V30 4405 N 437.518 0.538854 1.48102 0
M  V30 4406 C 438.465 -0.219042 2.29758 0
M  V30 4407 C 439.435 -0.925562 1.37922 0
M  V30 4408 O 440.62 -0.924855 1.66886 0
M  V30 4409 C 437.76 -1.25452 3.2149 0
M  V30 4410 C 436.873 -0.555943 4.28408 0
M  V30 4411 C 436.008 -1.57512 5.0731 0
M  V30 4412 C 435.047 -0.860498 6.06021 0
M  V30 4413 N 434.184 -1.82564 6.77949 0
M  V30 4414 H 439.024 0.483449 2.94052 0
M  V30 4415 H 436.561 0.250247 1.44956 0
M  V30 4416 H 438.519 -1.86727 3.7308 0
M  V30 4417 H 437.149 -1.92528 2.591 0
M  V30 4418 H 436.201 0.170938 3.80016 0
M  V30 4419 H 437.513 0.00474616 4.988 0
M  V30 4420 H 436.667 -2.26191 5.62959 0
M  V30 4421 H 435.406 -2.16972 4.36778 0
M  V30 4422 H 434.411 -0.159686 5.49568 0
M  V30 4423 H 435.636 -0.271897 6.78555 0
M  V30 4424 H 433.582 -2.40915 6.10161 0
M  V30 4425 H 433.499 -1.31662 7.44447 0
M  V30 4426 H 434.767 -2.50414 7.38182 0
M  V30 4427 N 438.996 -1.55193 0.274407 0
M  V30 4428 C 440.244 -1.99187 -0.341902 0
M  V30 4429 C 440.565 -1.16422 -1.56431 0
M  V30 4430 O 439.835 -0.253573 -1.94252 0
M  V30 4431 H 438.415 -0.735721 -0.129317 0
M  V30 4432 H 441.077 -1.91168 0.379578 0
M  V30 4433 H 440.173 -3.05629 -0.632253 0
M  V30 4434 N 440.474 -0.00167713 -1.576 0
M  V30 4435 C 441.723 0.682021 -1.89819 0
M  V30 4436 C 442.036 1.74844 -0.876871 0
M  V30 4437 O 443.242 2.48688 -1.08934 0
M  V30 4438 C 441.698 1.26425 -3.36964 0
M  V30 4439 C 441.306 0.232568 -4.47396 0
M  V30 4440 C 443.05 1.92604 -3.78291 0
M  V30 4441 C 440.957 0.824882 -5.85619 0
M  V30 4442 H 439.887 0.258499 -0.708304 0
M  V30 4443 H 442.538 -0.0624957 -1.83394 0
M  V30 4444 H 440.92 2.05949 -3.38232 0
M  V30 4445 H 442.094 -0.5382 -4.57646 0
M  V30 4446 H 440.409 -0.32888 -4.15099 0
M  V30 4447 H 443.006 2.37827 -4.78897 0
M  V30 4448 H 443.349 2.75732 -3.11894 0
M  V30 4449 H 443.882 1.19812 -3.79328 0
M  V30 4450 H 440.621 0.0323542 -6.55492 0
M  V30 4451 H 440.141 1.56477 -5.79029 0
M  V30 4452 H 441.82 1.32301 -6.33329 0
M  V30 4453 N 441.952 1.55251 0.271103 0
M  V30 4454 C 442.862 1.9136 1.35714 0
M  V30 4455 C 443.878 0.811075 1.5394 0
M  V30 4456 O 445.054 1.11031 1.6803 0
M  V30 4457 C 442.119 2.1798 2.69603 0
M  V30 4458 C 441.18 3.4153 2.60107 0
M  V30 4459 C 440.413 3.66871 3.8761 0
M  V30 4460 O 440.636 2.94689 4.8838 0
M  V30 4461 O 439.57 4.60405 3.87699 0
M  V30 4462 H 443.396 2.83815 1.08088 0
M  V30 4463 H 440.981 1.41821 0.469792 0
M  V30 4464 H 442.863 2.36518 3.48765 0
M  V30 4465 H 441.538 1.28708 2.97012 0
M  V30 4466 H 440.445 3.28325 1.79314 0
M  V30 4467 H 441.778 4.31027 2.37647 0
M  V30 4468 N 443.43 -0.535701 1.48216 0
M  V30 4469 C 444.377 -1.64083 1.62312 0
M  V30 4470 C 445.347 -1.59448 0.465365 0
M  V30 4471 O 446.532 -1.77959 0.688135 0
M  V30 4472 C 443.672 -3.0236 1.66349 0
M  V30 4473 C 442.785 -3.17273 2.93193 0
M  V30 4474 C 441.92 -4.46075 2.88427 0
M  V30 4475 C 440.959 -4.54496 4.1 0
M  V30 4476 N 440.096 -5.7468 4.03345 0
M  V30 4477 H 444.936 -1.51374 2.5669 0
M  V30 4478 H 442.473 -0.737059 1.27302 0
M  V30 4479 H 444.431 -3.82461 1.66672 0
M  V30 4480 H 443.061 -3.13854 0.754672 0
M  V30 4481 H 442.113 -2.30462 3.02641 0
M  V30 4482 H 443.425 -3.19357 3.83162 0
M  V30 4483 H 442.579 -5.3446 2.87119 0
M  V30 4484 H 441.318 -4.46504 1.96177 0
M  V30 4485 H 440.323 -3.64519 4.11589 0
M  V30 4486 H 441.548 -4.5581 5.03402 0
M  V30 4487 H 439.494 -5.76017 3.13912 0
M  V30 4488 H 439.411 -5.78234 4.87013 0
M  V30 4489 H 440.679 -6.65367 4.06087 0
M  V30 4490 N 444.908 -1.36708 -0.784132 0
M  V30 4491 C 445.856 -1.31533 -1.91838 0
M  V30 4492 C 446.85 -0.206205 -1.6814 0
M  V30 4493 O 448.056 -0.373519 -1.76082 0
M  V30 4494 H 444.431 -0.409613 -0.630651 0
M  V30 4495 H 446.402 -2.2731 -1.9332 0
M  V30 4496 C 445.151 -1.12679 -3.28936 0
M  V30 4497 H 444.474 -1.97274 -3.4774 0
M  V30 4498 H 445.914 -1.13106 -4.08636 0
M  V30 4499 C 444.373 0.168281 -3.36479 0
M  V30 4500 O 444.903 1.15625 -3.84699 0
M  V30 4501 N 443.109 0.214762 -2.89805 0
M  V30 4502 H 442.656 -0.589852 -2.50756 0
M  V30 4503 H 442.614 1.08094 -2.95234 0
M  V30 4504 N 446.386 1.0089 -1.21074 0
M  V30 4505 C 447.316 2.1145 -0.990523 0
M  V30 4506 C 448.297 1.69897 0.0831699 0
M  V30 4507 O 449.482 1.94052 -0.0758853 0
M  V30 4508 C 446.612 3.42914 -0.550177 0
M  V30 4509 C 445.566 3.98244 -1.56799 0
M  V30 4510 C 444.892 5.25568 -0.984013 0
M  V30 4511 C 446.192 4.30752 -2.95381 0
M  V30 4512 H 447.886 2.3013 -1.91521 0
M  V30 4513 H 445.432 1.10592 -0.92225 0
M  V30 4514 H 447.385 4.19653 -0.383305 0
M  V30 4515 H 446.109 3.24014 0.41015 0
M  V30 4516 H 444.768 3.23621 -1.72236 0
M  V30 4517 H 444.416 5.02998 -0.0155216 0
M  V30 4518 H 444.116 5.63551 -1.66384 0
M  V30 4519 H 445.64 6.04955 -0.828378 0
M  V30 4520 H 447.054 4.98349 -2.8341 0
M  V30 4521 H 445.451 4.79869 -3.60341 0
M  V30 4522 H 446.521 3.39192 -3.46521 0
M  V30 4523 N 447.864 1.01787 1.20321 0
M  V30 4524 C 449.112 0.706538 1.89347 0
M  V30 4525 C 449.433 -0.766289 1.79313 0
M  V30 4526 O 448.703 -1.55126 1.19635 0
M  V30 4527 H 447.283 0.258348 0.700903 0
M  V30 4528 H 449.945 1.28974 1.46122 0
M  V30 4529 H 449.041 0.991066 2.95946 0
M  V30 4530 N 449.342 -1.36122 0.79427 0
M  V30 4531 C 450.591 -1.98361 0.365464 0
M  V30 4532 C 450.904 -1.6374 -1.06997 0
M  V30 4533 O 452.11 -2.19251 -1.60129 0
M  V30 4534 C 450.566 -3.54821 0.602496 0
M  V30 4535 C 450.174 -3.98362 2.04967 0
M  V30 4536 C 451.918 -4.2383 0.238437 0
M  V30 4537 C 449.825 -5.47619 2.2331 0
M  V30 4538 H 448.755 -0.742193 0.13291 0
M  V30 4539 H 451.406 -1.55354 0.976589 0
M  V30 4540 H 449.788 -3.95922 -0.078409 0
M  V30 4541 H 450.962 -3.68447 2.76737 0
M  V30 4542 H 449.277 -3.42206 2.37243 0
M  V30 4543 H 451.874 -5.33529 0.353705 0
M  V30 4544 H 452.217 -4.08264 -0.814006 0
M  V30 4545 H 452.75 -3.88108 0.872769 0
M  V30 4546 H 449.489 -5.68138 3.26955 0
M  V30 4547 H 449.009 -5.79145 1.5605 0
M  V30 4548 H 450.688 -6.13911 2.0426 0
M  V30 4549 N 450.82 -0.546701 -1.47814 0
M  V30 4550 C 452.068 -0.0187037 -2.02091 0
M  V30 4551 C 452.389 1.33168 -1.42447 0
M  V30 4552 O 451.659 1.86619 -0.595839 0
M  V30 4553 H 450.239 -0.00392531 -0.74699 0
M  V30 4554 H 452.901 -0.714327 -1.81338 0
M  V30 4555 H 451.997 0.0772219 -3.12004 0
M  V30 4556 N 452.299 1.55045 -0.282633 0
M  V30 4557 C 453.246 2.22822 0.601566 0
M  V30 4558 C 454.216 1.20431 1.14392 0
M  V30 4559 O 455.401 1.48996 1.19184 0
M  V30 4560 C 452.541 2.95873 1.77632 0
M  V30 4561 C 451.654 4.12999 1.26711 0
M  V30 4562 C 450.789 4.73676 2.40426 0
M  V30 4563 C 449.828 5.82981 1.86545 0
M  V30 4564 N 448.965 6.3769 2.93762 0
M  V30 4565 H 453.805 2.97995 0.0169528 0
M  V30 4566 H 451.342 1.471 -0.00339964 0
M  V30 4567 H 453.3 3.36447 2.46697 0
M  V30 4568 H 451.93 2.2311 2.33285 0
M  V30 4569 H 450.982 3.77494 0.469314 0
M  V30 4570 H 452.294 4.91803 0.832518 0
M  V30 4571 H 451.448 5.17008 3.17471 0
M  V30 4572 H 450.187 3.94164 2.87203 0
M  V30 4573 H 449.192 5.39092 1.07983 0
M  V30 4574 H 450.417 6.64366 1.40694 0
M  V30 4575 H 448.363 5.61069 3.39908 0
M  V30 4576 H 448.28 7.11788 2.54744 0
M  V30 4577 H 449.548 6.8568 3.7076 0
M  V30 4578 N 453.777 0.010035 1.57597 0
M  V30 4579 C 455.023 -0.673697 1.91283 0
M  V30 4580 C 455.356 -1.72863 0.884979 0
M  V30 4581 O 454.631 -1.94268 -0.0949487 0
M  V30 4582 C 454.914 -1.30766 3.35518 0
M  V30 4583 C 454.767 -0.263578 4.49027 0
M  V30 4584 C 456.086 -2.23105 3.79358 0
M  V30 4585 H 453.205 -0.243439 0.695634 0
M  V30 4586 H 455.847 0.0633864 1.89894 0
M  V30 4587 H 453.997 -1.93588 3.36832 0
M  V30 4588 H 455.669 0.365738 4.59848 0
M  V30 4589 H 453.912 0.413077 4.31829 0
M  V30 4590 H 454.583 -0.746398 5.4693 0
M  V30 4591 H 457.059 -1.70289 3.79659 0
M  V30 4592 H 455.935 -2.64424 4.81011 0
M  V30 4593 H 456.196 -3.11433 3.13787 0
M  V30 4594 N 455.255 -1.55392 -0.262866 0
M  V30 4595 C 456.48 -1.80847 -1.01533 0
M  V30 4596 C 456.905 -0.584946 -1.78774 0
M  V30 4597 O 456.263 0.465701 -1.75217 0
M  V30 4598 C 456.311 -3.03866 -1.94159 0
M  V30 4599 O 455.415 -2.79662 -3.03089 0
M  V30 4600 H 454.756 -0.597441 -0.289759 0
M  V30 4601 H 457.286 -2.02553 -0.288698 0
M  V30 4602 H 457.296 -3.32872 -2.35924 0
M  V30 4603 H 455.971 -3.92564 -1.37354 0
M  V30 4604 H 454.548 -2.61781 -2.65566 0
M  V30 4605 N 456.733 0.527833 -1.48498 0
M  V30 4606 C 457.958 1.313 -1.60546 0
M  V30 4607 C 458.383 1.86199 -0.26672 0
M  V30 4608 O 457.741 1.64513 0.761918 0
M  V30 4609 C 457.789 2.43818 -2.65678 0
M  V30 4610 O 456.893 3.46916 -2.22987 0
M  V30 4611 H 456.234 0.388784 -0.538277 0
M  V30 4612 H 458.764 0.634896 -1.945 0
M  V30 4613 H 458.774 2.89973 -2.87018 0
M  V30 4614 H 457.449 2.03222 -3.62869 0
M  V30 4615 H 456.026 3.06864 -2.11869 0
M  V30 4616 N 458.211 1.37122 0.776871 0
M  V30 4617 C 459.458 1.32047 1.53524 0
M  V30 4618 C 459.786 -0.0965631 1.9426 0
M  V30 4619 O 459.041 -1.06866 1.63945 0
M  V30 4620 C 459.34 2.20068 2.81611 0
M  V30 4621 C 459.006 3.68423 2.59953 0
M  V30 4622 C 457.668 4.08854 2.53755 0
M  V30 4623 C 460.02 4.62431 2.40431 0
M  V30 4624 C 457.348 5.41417 2.26018 0
M  V30 4625 C 459.7 5.95225 2.14219 0
M  V30 4626 C 458.364 6.34767 2.06462 0
M  V30 4627 H 457.634 0.483196 0.561785 0
M  V30 4628 H 460.281 1.69284 0.895268 0
M  V30 4629 H 458.586 1.75809 3.50141 0
M  V30 4630 H 460.283 2.13458 3.39465 0
M  V30 4631 H 456.873 3.36354 2.65638 0
M  V30 4632 H 461.057 4.32057 2.44213 0
M  V30 4633 H 456.313 5.71022 2.18504 0
M  V30 4634 H 460.487 6.67626 1.98112 0
M  V30 4635 H 458.114 7.37413 1.84733 0
M  V30 4636 N 459.689 -1.00246 1.21608 0
M  V30 4637 C 460.599 -2.12515 0.993709 0
M  V30 4638 C 461.615 -1.73913 -0.0549939 0
M  V30 4639 O 462.791 -2.00943 0.135619 0
M  V30 4640 C 459.856 -3.42083 0.563953 0
M  V30 4641 C 458.917 -3.94843 1.68516 0
M  V30 4642 C 458.15 -5.18226 1.27582 0
M  V30 4643 O 458.373 -5.70201 0.150506 0
M  V30 4644 O 457.307 -5.64497 2.0887 0
M  V30 4645 H 461.133 -2.34152 1.93407 0
M  V30 4646 H 458.718 -1.10891 1.00118 0
M  V30 4647 H 460.6 -4.20073 0.334194 0
M  V30 4648 H 459.275 -3.21828 -0.347665 0
M  V30 4649 H 458.182 -3.18068 1.96935 0
M  V30 4650 H 459.515 -4.19512 2.5743 0
M  V30 4651 N 461.167 -1.02423 -1.1978 0
M  V30 4652 C 462.077 -0.610919 -2.26506 0
M  V30 4653 C 463.093 0.355152 -1.70337 0
M  V30 4654 O 464.269 0.214195 -2.00258 0
M  V30 4655 C 461.334 0.0365921 -3.46681 0
M  V30 4656 C 460.395 -0.976389 -4.18049 0
M  V30 4657 C 459.628 -0.359683 -5.32487 0
M  V30 4658 O 459.851 0.838601 -5.64202 0
M  V30 4659 O 458.785 -1.08022 -5.92127 0
M  V30 4660 H 462.611 -1.49965 -2.64091 0
M  V30 4661 H 460.196 -0.794156 -1.26545 0
M  V30 4662 H 462.078 0.39786 -4.19518 0
M  V30 4663 H 460.753 0.899398 -3.10954 0
M  V30 4664 H 459.66 -1.38916 -3.47352 0
M  V30 4665 H 460.993 -1.80941 -4.57735 0
M  V30 4666 N 462.645 1.35699 -0.801477 0
M  V30 4667 C 463.592 2.29876 -0.206294 0
M  V30 4668 C 464.562 1.52565 0.656752 0
M  V30 4669 O 465.747 1.81024 0.602906 0
M  V30 4670 C 462.887 3.39052 0.643272 0
M  V30 4671 C 462 4.31335 -0.239644 0
M  V30 4672 C 461.135 5.27599 0.61744 0
M  V30 4673 C 460.174 6.11521 -0.26619 0
M  V30 4674 N 459.311 6.99938 0.550571 0
M  V30 4675 H 464.151 2.80187 -1.01484 0
M  V30 4676 H 461.688 1.37902 -0.511997 0
M  V30 4677 H 463.646 4.0101 1.15094 0
M  V30 4678 H 462.276 2.9003 1.41713 0
M  V30 4679 H 461.328 3.70426 -0.865381 0
M  V30 4680 H 462.64 4.90243 -0.919985 0
M  V30 4681 H 461.794 5.94906 1.19045 0
M  V30 4682 H 460.533 4.69176 1.33137 0
M  V30 4683 H 459.538 5.43166 -0.851507 0
M  V30 4684 H 460.763 6.72022 -0.9779 0
M  V30 4685 H 458.709 6.44008 1.24856 0
M  V30 4686 H 458.626 7.55966 -0.071832 0
M  V30 4687 H 459.894 7.71599 1.10702 0
M  V30 4688 N 464.123 0.554532 1.47522 0
M  V30 4689 C 465.056 -0.242442 2.26908 0
M  V30 4690 C 466.034 -0.922722 1.33883 0
M  V30 4691 O 467.218 -0.942244 1.63261 0
M  V30 4692 C 464.345 -1.34525 3.10839 0
M  V30 4693 C 463.391 -0.773805 4.19422 0
M  V30 4694 S 464.224 0.377525 5.34168 0
M  V30 4695 C 465.38 -0.727164 6.21662 0
M  V30 4696 H 465.613 0.431218 2.94156 0
M  V30 4697 H 463.146 0.3408 1.50592 0
M  V30 4698 H 465.104 -1.97683 3.59766 0
M  V30 4699 H 463.765 -1.99073 2.42958 0
M  V30 4700 H 462.958 -1.60187 4.77866 0
M  V30 4701 H 462.56 -0.218448 3.73361 0
M  V30 4702 H 464.852 -1.61992 6.57849 0
M  V30 4703 H 465.795 -0.180135 7.07871 0
M  V30 4704 H 466.203 -1.01863 5.55233 0
M  V30 4705 N 465.601 -1.54893 0.290851 0
M  V30 4706 C 466.85 -1.99111 -0.322113 0
M  V30 4707 C 467.163 -1.18283 -1.55784 0
M  V30 4708 O 468.369 -1.5272 -2.24475 0
M  V30 4709 C 466.825 -3.54442 -0.624438 0
M  V30 4710 C 466.433 -4.44066 0.592373 0
M  V30 4711 C 468.177 -4.07211 -1.19916 0
M  V30 4712 C 466.084 -5.90812 0.263762 0
M  V30 4713 H 465.014 -0.743712 -0.124133 0
M  V30 4714 H 467.665 -1.79132 0.39797 0
M  V30 4715 H 466.047 -3.70281 -1.40384 0
M  V30 4716 H 467.221 -4.39999 1.36886 0
M  V30 4717 H 465.536 -4.02015 1.08502 0
M  V30 4718 H 468.133 -5.14407 -1.45909 0
M  V30 4719 H 468.476 -3.57196 -2.13815 0
M  V30 4720 H 469.009 -3.94873 -0.481687 0
M  V30 4721 H 465.748 -6.44955 1.17105 0
M  V30 4722 H 465.268 -5.97911 -0.475655 0
M  V30 4723 H 466.947 -6.46852 -0.138354 0
M  V30 4724 N 467.08 -0.0183926 -1.57589 0
M  V30 4725 C 468.305 0.676634 -1.96052 0
M  V30 4726 C 468.73 1.6548 -0.894307 0
M  V30 4727 O 468.088 1.80712 0.145849 0
M  V30 4728 C 468.136 1.36872 -3.33614 0
M  V30 4729 O 467.24 2.48372 -3.29219 0
M  V30 4730 H 466.581 0.1786 -0.63953 0
M  V30 4731 H 469.111 -0.077056 -2.04455 0
M  V30 4732 H 469.121 1.72797 -3.69601 0
M  V30 4733 H 467.796 0.651636 -4.10763 0
M  V30 4734 H 466.373 2.14639 -3.04934 0
M  V30 4735 N 468.558 1.5553 0.254621 0
M  V30 4736 C 469.835 1.6774 1.00611 0
M  V30 4737 C 470.215 0.555993 2.03647 0
M  V30 4738 O 469.563 -0.441583 2.24193 0
M  V30 4739 C 469.773 3.07725 1.6464 0
M  V30 4740 C 471.121 3.66074 2.15116 0
M  V30 4741 O 472.145 3.10476 1.74595 0
M  V30 4742 O 471.004 4.63526 2.89493 0
M  V30 4743 H 468.098 0.681958 0.467828 0
M  V30 4744 H 470.644 1.67863 0.24902 0
M  V30 4745 H 469.416 3.80792 0.900734 0
M  V30 4746 H 469.039 3.1158 2.46989 0
M  V30 4747 N 470.036 -0.519951 1.48776 0
M  V30 4748 C 470.999 -1.60574 1.6355 0
M  V30 4749 C 471.999 -1.52557 0.508234 0
M  V30 4750 O 473.189 -1.56047 0.774262 0
M  V30 4751 C 470.321 -3.00211 1.61512 0
M  V30 4752 H 471.514 -1.4881 2.60376 0
M  V30 4753 H 469.067 -0.742772 1.37523 0
M  V30 4754 H 469.802 -3.17471 0.662009 0
M  V30 4755 H 469.587 -3.07439 2.43359 0
M  V30 4756 H 471.077 -3.79134 1.75064 0
M  V30 4757 N 471.514 -1.37532 -0.769588 0
M  V30 4758 C 472.763 -1.32183 -1.5235 0
M  V30 4759 C 473.076 0.0906555 -1.9539 0
M  V30 4760 O 474.282 0.266628 -2.70188 0
M  V30 4761 C 472.738 -2.32029 -2.75119 0
M  V30 4762 C 472.346 -3.78816 -2.3917 0
M  V30 4763 C 474.09 -2.35694 -3.53056 0
M  V30 4764 C 471.997 -4.70388 -3.58453 0
M  V30 4765 H 470.927 -0.491275 -0.571984 0
M  V30 4766 H 473.578 -1.63004 -0.842739 0
M  V30 4767 H 471.96 -1.94229 -3.45096 0
M  V30 4768 H 473.134 -4.25466 -1.76962 0
M  V30 4769 H 471.449 -3.78117 -1.74402 0
M  V30 4770 H 474.046 -3.01312 -4.41718 0
M  V30 4771 H 474.389 -1.37117 -3.93071 0
M  V30 4772 H 474.922 -2.72212 -2.90078 0
M  V30 4773 H 471.661 -5.70102 -3.23518 0
M  V30 4774 H 471.181 -4.28442 -4.19758 0
M  V30 4775 H 472.86 -4.87628 -4.25239 0
M  V30 4776 N 472.992 0.995999 -1.22138 0
M  V30 4777 C 474.403 1.54961 -1.04135 0
M  V30 4778 C 474.754 1.92159 0.396147 0
M  V30 4779 O 473.879 1.74435 1.28069 0
M  V30 4780 C 474.474 2.81581 -1.88408 0
M  V30 4781 C 473.033 3.33396 -1.74712 0
M  V30 4782 C 472.18 2.06509 -1.85066 0
M  V30 4783 H 475.131 0.817436 -1.36028 0
M  V30 4784 H 475.152 3.53822 -1.39966 0
M  V30 4785 H 474.664 2.54476 -2.93025 0
M  V30 4786 H 472.765 3.65416 -0.728159 0
M  V30 4787 H 472.878 4.04208 -2.57202 0
M  V30 4788 H 471.242 2.19925 -1.28472 0
M  V30 4789 H 472.025 1.81804 -2.91208 0
M  V30 4790 N 474.47 1.03057 1.19235 0
M  V30 4791 C 475.38 0.622922 2.26179 0
M  V30 4792 C 476.396 -0.346113 1.70523 0
M  V30 4793 O 477.572 -0.203572 2.00369 0
M  V30 4794 C 474.637 -0.0182063 3.46695 0
M  V30 4795 C 473.698 0.998546 4.17526 0
M  V30 4796 C 472.931 0.387917 5.32288 0
M  V30 4797 O 473.154 -0.808668 5.64639 0
M  V30 4798 O 472.088 1.1116 5.91546 0
M  V30 4799 H 475.914 1.51363 2.63292 0
M  V30 4800 H 473.499 0.800856 1.26122 0
M  V30 4801 H 475.381 -0.375606 4.19723 0
M  V30 4802 H 474.056 -0.882895 3.11427 0
M  V30 4803 H 472.963 1.40756 3.4661 0
M  V30 4804 H 474.296 1.83366 4.56769 0
M  V30 4805 N 475.948 -1.35272 0.808662 0
M  V30 4806 C 476.878 -2.32315 0.234981 0
M  V30 4807 C 477.859 -1.57572 -0.64071 0
M  V30 4808 O 479.044 -1.8563 -0.570551 0
M  V30 4809 C 476.174 -3.41801 -0.615601 0
M  V30 4810 C 475.128 -4.27694 0.161767 0
M  V30 4811 C 474.454 -5.28519 -0.810649 0
M  V30 4812 C 475.754 -5.04231 1.36193 0
M  V30 4813 H 477.448 -2.80543 1.04575 0
M  V30 4814 H 474.994 -1.3488 0.504315 0
M  V30 4815 H 476.947 -4.08693 -1.02702 0
M  V30 4816 H 475.671 -2.92186 -1.45928 0
M  V30 4817 H 474.33 -3.62384 0.554382 0
M  V30 4818 H 473.978 -4.75171 -1.64988 0
M  V30 4819 H 473.678 -5.8686 -0.294822 0
M  V30 4820 H 475.202 -5.98283 -1.22023 0
M  V30 4821 H 476.616 -5.64058 1.02528 0
M  V30 4822 H 475.013 -5.72077 1.81239 0
M  V30 4823 H 476.083 -4.34753 2.14751 0
M  V30 4824 N 477.426 -0.562348 -1.47226 0
M  V30 4825 C 478.373 0.182461 -2.30078 0
M  V30 4826 C 479.343 0.903503 -1.39377 0
M  V30 4827 O 480.528 0.898188 -1.68337 0
M  V30 4828 C 477.668 1.20322 -3.23445 0
M  V30 4829 C 476.781 0.487717 -4.29238 0
M  V30 4830 C 475.916 1.49422 -5.09752 0
M  V30 4831 C 474.955 0.763976 -6.07314 0
M  V30 4832 N 474.092 1.71755 -6.80768 0
M  V30 4833 H 478.932 -0.530169 -2.93246 0
M  V30 4834 H 476.469 -0.273276 -1.44539 0
M  V30 4835 H 478.427 1.80768 -3.76004 0
M  V30 4836 H 477.057 1.88382 -2.6213 0
M  V30 4837 H 476.109 -0.231374 -3.79696 0
M  V30 4838 H 477.421 -0.0841003 -4.98729 0
M  V30 4839 H 476.575 2.17206 -5.66486 0
M  V30 4840 H 475.314 2.09995 -4.40174 0
M  V30 4841 H 474.319 0.0722344 -5.49753 0
M  V30 4842 H 475.544 0.16391 -6.78902 0
M  V30 4843 H 473.49 2.31177 -6.13916 0
M  V30 4844 H 473.407 1.19802 -7.46447 0
M  V30 4845 H 474.675 2.38638 -7.42073 0
M  V30 4846 N 478.904 1.54736 -0.299062 0
M  V30 4847 C 479.867 2.22127 0.565012 0
M  V30 4848 C 480.867 1.20669 1.06281 0
M  V30 4849 O 482.057 1.45417 0.959145 0
M  V30 4850 C 479.189 2.90611 1.78208 0
M  V30 4851 H 480.382 2.99891 -0.0237448 0
M  V30 4852 H 477.935 1.5622 -0.0498788 0
M  V30 4853 H 478.67 2.16921 2.41072 0
M  V30 4854 H 478.455 3.64984 1.43281 0
M  V30 4855 H 479.945 3.42026 2.396 0
M  V30 4856 N 480.382 0.0267497 1.57577 0
M  V30 4857 C 481.607 -0.666227 1.96408 0
M  V30 4858 C 482.032 -1.65004 0.903071 0
M  V30 4859 O 481.39 -1.80787 -0.136263 0
M  V30 4860 C 481.438 -1.35101 3.34335 0
M  V30 4861 O 480.542 -2.46623 3.30531 0
M  V30 4862 H 479.883 -0.175206 0.640468 0
M  V30 4863 H 482.413 0.0878977 2.04411 0
M  V30 4864 H 482.423 -1.70834 3.70513 0
M  V30 4865 H 481.098 -0.629844 4.11103 0
M  V30 4866 H 479.675 -2.13019 3.06068 0
M  V30 4867 N 481.861 -1.55662 -0.24637 0
M  V30 4868 C 483.11 -1.7672 -0.972254 0
M  V30 4869 C 483.423 -0.59078 -1.86465 0
M  V30 4870 O 484.629 -0.684391 -2.62732 0
M  V30 4871 C 483.085 -3.12869 -1.7788 0
M  V30 4872 C 482.693 -4.38161 -0.933768 0
M  V30 4873 C 484.437 -3.43265 -2.49738 0
M  V30 4874 C 482.344 -5.6534 -1.73623 0
M  V30 4875 H 481.274 -0.658795 -0.366749 0
M  V30 4876 H 483.925 -1.82092 -0.226902 0
M  V30 4877 H 482.307 -3.01606 -2.56612 0
M  V30 4878 H 483.481 -4.60413 -0.188736 0
M  V30 4879 H 481.796 -4.15102 -0.328488 0
M  V30 4880 H 484.393 -4.35501 -3.10231 0
M  V30 4881 H 484.736 -2.64614 -3.2138 0
M  V30 4882 H 485.269 -3.55746 -1.78016 0
M  V30 4883 H 482.008 -6.46814 -1.06354 0
M  V30 4884 H 481.528 -5.47188 -2.45653 0
M  V30 4885 H 483.207 -6.04616 -2.30323 0
M  V30 4886 N 483.339 0.512053 -1.4905 0
M  V30 4887 C 484.286 1.6148 -1.64902 0
M  V30 4888 C 485.256 1.58687 -0.490673 0
M  V30 4889 O 486.441 1.76842 -0.71636 0
M  V30 4890 C 483.581 2.99676 -1.71139 0
M  V30 4891 C 482.694 3.12568 -2.98203 0
M  V30 4892 C 481.829 4.4143 -2.95487 0
M  V30 4893 C 480.868 4.47916 -4.17179 0
M  V30 4894 N 480.005 5.68191 -4.12437 0
M  V30 4895 H 484.845 1.47271 -2.59066 0
M  V30 4896 H 482.382 0.716713 -1.28459 0
M  V30 4897 H 484.34 3.79761 -1.72736 0
M  V30 4898 H 482.97 3.12614 -0.804508 0
M  V30 4899 H 482.022 2.25618 -3.06269 0
M  V30 4900 H 483.334 3.1322 -3.88194 0
M  V30 4901 H 482.488 5.29825 -2.95585 0
M  V30 4902 H 481.227 4.43326 -2.03256 0
M  V30 4903 H 480.232 3.57925 -4.17337 0
M  V30 4904 H 481.457 4.47744 -5.1059 0
M  V30 4905 H 479.403 5.7095 -3.23036 0
M  V30 4906 H 479.32 5.70413 -4.96151 0
M  V30 4907 H 480.588 6.58823 -4.16621 0
M  V30 4908 N 484.817 1.37938 0.762283 0
M  V30 4909 C 485.764 1.34467 1.87583 0
M  V30 4910 C 486.734 0.208633 1.64785 0
M  V30 4911 O 487.919 0.399494 1.86571 0
M  V30 4912 C 485.059 1.16692 3.24772 0
M  V30 4913 C 484.172 2.39608 3.59461 0
M  V30 4914 C 483.307 2.14631 4.85908 0
M  V30 4915 C 482.346 3.33364 5.13357 0
M  V30 4916 N 481.483 3.07877 6.30996 0
M  V30 4917 H 486.323 2.29669 1.89885 0
M  V30 4918 H 483.86 1.14116 0.928219 0
M  V30 4919 H 485.818 1.04405 4.03925 0
M  V30 4920 H 484.448 0.251333 3.2182 0
M  V30 4921 H 483.5 2.626 2.75219 0
M  V30 4922 H 484.812 3.28128 3.75678 0
M  V30 4923 H 483.966 1.99429 5.72986 0
M  V30 4924 H 482.705 1.23463 4.71814 0
M  V30 4925 H 481.71 3.49094 4.24751 0
M  V30 4926 H 482.935 4.25395 5.29354 0
M  V30 4927 H 480.881 2.19348 6.18241 0
M  V30 4928 H 480.798 3.89944 6.47673 0
M  V30 4929 H 482.066 2.96313 7.20985 0
M  V30 4930 N 486.295 -0.989507 1.22664 0
M  V30 4931 C 487.543 -1.72612 1.05117 0
M  V30 4932 C 487.864 -1.90552 -0.414131 0
M  V30 4933 O 487.134 -1.4676 -1.29762 0
M  V30 4934 H 485.714 -0.639555 0.385977 0
M  V30 4935 H 488.376 -1.19158 1.54232 0
M  V30 4936 H 487.472 -2.71926 1.53175 0
M  V30 4937 N 487.773 -1.03688 -1.18687 0
M  V30 4938 C 488.683 -0.634908 -2.25845 0
M  V30 4939 C 489.699 0.337065 -1.70704 0
M  V30 4940 O 490.875 0.192943 -2.00474 0
M  V30 4941 C 487.94 -0.000180054 -3.467 0
M  V30 4942 C 487.001 -1.02067 -4.1699 0
M  V30 4943 C 486.234 -0.41614 -5.32075 0
M  V30 4944 O 486.457 0.778712 -5.65059 0
M  V30 4945 O 485.391 -1.14296 -5.90948 0
M  V30 4946 H 489.217 -1.52757 -2.62486 0
M  V30 4947 H 486.802 -0.807533 -1.25695 0
M  V30 4948 H 488.684 0.353342 -4.19916 0
M  V30 4949 H 487.359 0.866367 -3.11891 0
M  V30 4950 H 486.266 -1.42592 -3.45859 0
M  V30 4951 H 487.599 -1.85786 -4.5579 0
M  V30 4952 N 489.251 1.34841 -0.815825 0
M  V30 4953 C 490.528 1.92908 -0.323416 0
M  V30 4954 C 490.908 1.74479 1.18828 0
M  V30 4955 O 490.256 1.11928 1.99209 0
M  V30 4956 C 490.466 3.40957 -0.744952 0
M  V30 4957 C 491.814 4.18107 -0.739716 0
M  V30 4958 O 492.838 3.49511 -0.68708 0
M  V30 4959 O 491.697 5.40517 -0.806456 0
M  V30 4960 H 488.791 0.822436 -0.0867646 0
M  V30 4961 H 491.337 1.4386 -0.90014 0
M  V30 4962 H 490.109 3.4814 -1.78646 0
M  V30 4963 H 489.732 3.97341 -0.143535 0
M  V30 4964 N 490.729 0.570148 1.46925 0
M  V30 4965 C 491.976 0.0509529 2.02436 0
M  V30 4966 C 492.304 -1.30405 1.44308 0
M  V30 4967 O 491.559 -1.86493 0.593198 0
M  V30 4968 C 491.858 -0.0780336 3.57315 0
M  V30 4969 C 491.524 1.20775 4.34424 0
M  V30 4970 C 490.186 1.56004 4.5521 0
M  V30 4971 C 492.538 2.0592 4.78797 0
M  V30 4972 C 489.866 2.76201 5.17619 0
M  V30 4973 C 492.218 3.25332 5.42533 0
M  V30 4974 C 490.882 3.60859 5.61549 0
M  V30 4975 H 490.152 0.018645 0.740765 0
M  V30 4976 H 492.799 0.744262 1.76445 0
M  V30 4977 H 491.104 -0.854394 3.82371 0
M  V30 4978 H 492.801 -0.495312 3.97929 0
M  V30 4979 H 489.391 0.923469 4.18533 0
M  V30 4980 H 493.575 1.80008 4.62505 0
M  V30 4981 H 488.831 3.0388 5.30535 0
M  V30 4982 H 493.005 3.91586 5.75876 0
M  V30 4983 H 490.632 4.54088 6.09678 0
M  V30 4984 N 492.207 -1.54576 0.307264 0
M  V30 4985 C 493.453 -2.0056 -0.300612 0
M  V30 4986 C 493.786 -1.1953 -1.53057 0
M  V30 4987 O 493.061 -0.27337 -1.92569 0
M  V30 4988 C 493.344 -3.54167 -0.650987 0
M  V30 4989 C 493.197 -4.45933 0.588539 0
M  V30 4990 C 494.516 -4.14645 -1.47506 0
M  V30 4991 H 491.635 -0.729075 -0.107788 0
M  V30 4992 H 494.277 -1.85286 0.420606 0
M  V30 4993 H 492.427 -3.67313 -1.26544 0
M  V30 4994 H 494.099 -4.44683 1.22697 0
M  V30 4995 H 492.342 -4.16274 1.22058 0
M  V30 4996 H 493.013 -5.51189 0.299153 0
M  V30 4997 H 495.489 -4.04973 -0.955821 0
M  V30 4998 H 494.365 -5.22269 -1.68899 0
M  V30 4999 H 494.626 -3.66921 -2.4662 0
M  V30 5000 N 493.685 -0.035106 -1.57561 0
M  V30 5001 C 494.632 0.94474 -2.10578 0
M  V30 5002 C 495.602 1.3192 -1.00927 0
M  V30 5003 O 496.787 1.41147 -1.28382 0
M  V30 5004 C 493.927 2.21982 -2.64231 0
M  V30 5005 C 493.04 1.90128 -3.87911 0
M  V30 5006 C 492.175 3.11975 -4.29936 0
M  V30 5007 C 491.214 2.75968 -5.46359 0
M  V30 5008 N 490.351 3.90459 -5.83512 0
M  V30 5009 H 495.191 0.485717 -2.94015 0
M  V30 5010 H 492.728 0.228143 -1.4532 0
M  V30 5011 H 494.686 2.96572 -2.9343 0
M  V30 5012 H 493.316 2.6549 -1.83616 0
M  V30 5013 H 492.368 1.05755 -3.65404 0
M  V30 5014 H 493.68 1.59613 -4.72573 0
M  V30 5015 H 492.834 3.9488 -4.60603 0
M  V30 5016 H 491.573 3.45657 -3.44053 0
M  V30 5017 H 490.578 1.91478 -5.1538 0
M  V30 5018 H 491.803 2.43497 -6.33945 0
M  V30 5019 H 489.749 4.23971 -5.00584 0
M  V30 5020 H 489.666 3.63588 -6.62827 0
M  V30 5021 H 490.934 4.7405 -6.18787 0
M  V30 5022 N 495.163 1.55791 0.238111 0
M  V30 5023 C 496.391 1.82098 0.982233 0
M  V30 5024 C 496.806 0.612025 1.78605 0
M  V30 5025 O 496.163 -0.419381 1.77616 0
M  V30 5026 C 496.214 3.0673 1.91309 0
M  V30 5027 O 495.935 4.2296 1.14179 0
M  V30 5028 C 497.436 3.45903 2.77248 0
M  V30 5029 H 494.656 0.605748 0.288635 0
M  V30 5030 H 497.2 2.02862 0.258341 0
M  V30 5031 H 495.355 2.87991 2.59114 0
M  V30 5032 H 495.769 4.93653 1.7722 0
M  V30 5033 H 497.243 4.36189 3.38295 0
M  V30 5034 H 497.72 2.66891 3.48806 0
M  V30 5035 H 498.326 3.67024 2.14881 0
M  V30 5036 N 496.642 -0.504142 1.49319 0
M  V30 5037 C 497.572 -1.61473 1.68667 0
M  V30 5038 C 498.553 -1.61455 0.535378 0
M  V30 5039 O 499.738 -1.78245 0.770868 0
M  V30 5040 C 496.868 -2.99971 1.75028 0
M  V30 5041 C 495.822 -3.14854 2.89916 0
M  V30 5042 C 495.148 -4.54671 2.81387 0
M  V30 5043 C 496.448 -2.95176 4.30893 0
M  V30 5044 H 498.142 -1.45535 2.61648 0
M  V30 5045 H 495.688 -0.698711 1.25913 0
M  V30 5046 H 497.641 -3.77562 1.8715 0
M  V30 5047 H 496.365 -3.1699 0.786441 0
M  V30 5048 H 495.024 -2.39687 2.77391 0
M  V30 5049 H 494.672 -4.68562 1.82917 0
M  V30 5050 H 494.372 -4.6557 3.58494 0
M  V30 5051 H 495.896 -5.34327 2.95512 0
M  V30 5052 H 497.31 -3.62538 4.44116 0
M  V30 5053 H 495.707 -3.17549 5.09198 0
M  V30 5054 H 496.777 -1.91332 4.45556 0
M  V30 5055 N 498.12 -1.38341 -0.754957 0
M  V30 5056 C 499.067 -1.3546 -1.86867 0
M  V30 5057 C 500.037 -0.217369 -1.64672 0
M  V30 5058 O 501.222 -0.409383 -1.86356 0
M  V30 5059 C 498.362 -1.18413 -3.24149 0
M  V30 5060 C 497.475 -2.41511 -3.58185 0
M  V30 5061 C 496.61 -2.17205 -4.84763 0
M  V30 5062 C 495.649 -3.36081 -5.11582 0
M  V30 5063 N 494.786 -3.11219 -6.29354 0
M  V30 5064 H 499.626 -2.30672 -1.88664 0
M  V30 5065 H 497.163 -1.14607 -0.922154 0
M  V30 5066 H 499.121 -1.06545 -4.03366 0
M  V30 5067 H 497.751 -0.268397 -3.21682 0
M  V30 5068 H 496.803 -2.64056 -2.73822 0
M  V30 5069 H 498.115 -3.30115 -3.73932 0
M  V30 5070 H 497.269 -2.02465 -5.7192 0
M  V30 5071 H 496.008 -1.25964 -4.71152 0
M  V30 5072 H 495.013 -3.51341 -4.22894 0
M  V30 5073 H 496.238 -4.28196 -5.27091 0
M  V30 5074 H 494.184 -2.22624 -6.17069 0
M  V30 5075 H 494.101 -3.93373 -6.45596 0
M  V30 5076 H 495.369 -3.00132 -7.19403 0
M  V30 5077 O 499.637 0.895511 -1.34398 0
M  V30 5078 H 500.328 1.53136 -1.18614 0
M  V30 END ATOM
M  V30 BEGIN BOND
M  V30 END BOND
M  V30 END CTAB
M  END
$$$$
