drugbank_target|P40943 Endo-1,4-beta-xylanase (DB02379; DB03389)
 OpenBabel12092120273D

  0  0  0     0  0            999 V3000
M  V30 BEGIN CTAB
M  V30 COUNTS 6590 6675 0 0 0
M  V30 BEGIN ATOM
M  V30 1 H -0.908 1.98254 -0.117106 0
M  V30 2 N 0 1.576 0 0
M  V30 3 C 0.933 2.03868 1.02534 0
M  V30 4 C 1.911 0.928543 1.3348 0
M  V30 5 O 3.095 1.19667 1.45644 0
M  V30 6 C 0.222 2.43627 2.35294 0
M  V30 7 C -0.732 3.65373 2.2001 0
M  V30 8 S 0.101 5.13292 1.52614 0
M  V30 9 C 1.257 5.56322 2.86805 0
M  V30 10 H 1.49 2.90518 0.631377 0
M  V30 11 H -0.977 1.52953 0.210867 0
M  V30 12 H 0.981 2.67203 3.11629 0
M  V30 13 H -0.358 1.57376 2.7183 0
M  V30 14 H -1.165 3.90944 3.18086 0
M  V30 15 H -1.563 3.418 1.51819 0
M  V30 16 H 0.729 5.58782 3.83104 0
M  V30 17 H 1.672 6.56266 2.65933 0
M  V30 18 H 2.08 4.83886 2.90714 0
M  V30 19 N 1.4781 -0.272755 1.55222 0
M  V30 20 C 2.8941 -0.619959 1.47067 0
M  V30 21 C 3.0941 -1.895 0.684978 0
M  V30 22 O 2.1501 -2.51675 0.203931 0
M  V30 23 C 3.4631 -0.746693 2.91282 0
M  V30 24 C 5.0111 -0.840731 3.01497 0
M  V30 25 C 5.4861 -0.99924 4.46967 0
M  V30 26 N 6.9771 -1.06476 4.50796 0
M  V30 27 C 7.7121 -1.20621 5.6057 0
M  V30 28 N 7.2081 -1.31483 6.80209 0
M  V30 29 N 9.0011 -1.23733 5.48312 0
M  V30 30 H 1.1521 0.564606 2.04758 0
M  V30 31 H 3.4151 0.191177 0.928523 0
M  V30 32 H 3.1211 0.119753 3.51496 0
M  V30 33 H 2.9951 -1.6269 3.40311 0
M  V30 34 H 5.3821 -1.69764 2.41379 0
M  V30 35 H 5.4631 0.0640874 2.5572 0
M  V30 36 H 5.1071 -0.146984 5.07687 0
M  V30 37 H 5.0371 -1.91871 4.90401 0
M  V30 38 H 7.5281 -0.993196 3.64615 0
M  V30 39 H 7.8411 -1.42111 7.59621 0
M  V30 40 H 6.1861 -1.28487 6.8302 0
M  V30 41 H 9.3771 -1.14877 4.53785 0
M  V30 42 H 9.5501 -1.34412 6.33906 0
M  V30 43 N 2.9562 -1.48159 -0.537278 0
M  V30 44 C 3.9042 -1.62573 -1.66352 0
M  V30 45 C 4.8982 -0.492366 -1.62087 0
M  V30 46 O 6.1042 -0.670847 -1.67032 0
M  V30 47 H 2.4792 -0.511992 -0.550789 0
M  V30 48 H 4.4502 -2.57176 -1.51337 0
M  V30 49 C 3.1992 -1.67583 -3.04649 0
M  V30 50 H 2.5222 -2.54151 -3.08622 0
M  V30 51 H 3.9622 -1.81713 -3.83088 0
M  V30 52 C 2.4212 -0.413039 -3.34358 0
M  V30 53 O 2.9512 0.477259 -3.98855 0
M  V30 54 N 1.1572 -0.286961 -2.8918 0
M  V30 55 H 0.7042 -1.01241 -2.36871 0
M  V30 56 H 0.6622 0.556963 -3.09427 0
M  V30 57 N 4.4343 0.785586 -1.36625 0
M  V30 58 C 5.6803 1.54591 -1.31261 0
M  V30 59 C 6.0133 1.93906 0.106823 0
M  V30 60 O 5.2883 1.63007 1.06108 0
M  V30 61 C 5.5713 2.82038 -2.23889 0
M  V30 62 C 5.4243 2.49066 -3.74548 0
M  V30 63 C 6.7433 3.83887 -2.15217 0
M  V30 64 H 3.8623 0.560846 -0.478143 0
M  V30 65 H 6.5043 0.902278 -1.67209 0
M  V30 66 H 4.6543 3.36961 -1.93363 0
M  V30 67 H 6.3263 2.00164 -4.15611 0
M  V30 68 H 4.5693 1.81954 -3.93796 0
M  V30 69 H 5.2403 3.40109 -4.34776 0
M  V30 70 H 7.7163 3.38421 -2.42096 0
M  V30 71 H 6.5923 4.70806 -2.82193 0
M  V30 72 H 6.8533 4.27131 -1.14068 0
M  V30 73 N 5.9124 1.20967 1.01018 0
M  V30 74 C 7.1584 1.02526 1.74975 0
M  V30 75 C 7.4914 -0.4408 1.89131 0
M  V30 76 O 6.7664 -1.32718 1.42184 0
M  V30 77 C 7.0494 1.71699 3.1653 0
M  V30 78 C 6.9024 3.25791 3.10129 0
M  V30 79 C 8.2214 1.45531 4.15342 0
M  V30 80 H 5.3404 0.373863 0.635134 0
M  V30 81 H 7.9824 1.49071 1.17805 0
M  V30 82 H 6.1324 1.32128 3.65341 0
M  V30 83 H 7.8044 3.74697 2.69072 0
M  V30 84 H 6.0474 3.56363 2.47362 0
M  V30 85 H 6.7184 3.69353 4.10222 0
M  V30 86 H 9.1944 1.79872 3.75213 0
M  V30 87 H 8.0704 1.96453 5.1254 0
M  V30 88 H 8.3314 0.384237 4.40427 0
M  V30 89 N 7.3905 -1.2043 1.01659 0
M  V30 90 C 8.8065 -1.41852 0.731442 0
M  V30 91 C 9.0065 -1.89358 -0.688898 0
M  V30 92 O 8.0625 -2.06247 -1.45666 0
M  V30 93 C 9.3755 -2.44019 1.75714 0
M  V30 94 C 10.9235 -2.57785 1.77527 0
M  V30 95 C 11.3985 -3.63194 2.79023 0
M  V30 96 N 12.8895 -3.70678 2.77763 0
M  V30 97 C 13.6245 -4.51897 3.52954 0
M  V30 98 N 13.1205 -5.36921 4.37821 0
M  V30 99 N 14.9135 -4.4643 3.41551 0
M  V30 100 H 7.0645 -0.879093 1.93354 0
M  V30 101 H 9.3275 -0.448425 0.835236 0
M  V30 102 H 9.0335 -2.1611 2.77469 0
M  V30 103 H 8.9075 -3.43007 1.56927 0
M  V30 104 H 11.2945 -2.85023 0.764569 0
M  V30 105 H 11.3755 -1.58992 2.00387 0
M  V30 106 H 11.0195 -3.36699 3.80258 0
M  V30 107 H 10.9495 -4.61609 2.53425 0
M  V30 108 H 13.4405 -3.09944 2.16201 0
M  V30 109 H 13.7535 -5.95981 4.91962 0
M  V30 110 H 12.0985 -5.36424 4.41899 0
M  V30 111 H 15.2895 -3.79042 2.74672 0
M  V30 112 H 15.4625 -5.09491 4.00404 0
M  V30 113 N 8.8686 -0.792821 -1.36206 0
M  V30 114 C 9.8156 -0.191653 -2.30003 0
M  V30 115 C 10.7856 0.666453 -1.52143 0
M  V30 116 O 11.9706 0.61442 -1.80636 0
M  V30 117 C 9.1106 0.664848 -3.38635 0
M  V30 118 C 8.2236 -0.212175 -4.31479 0
M  V30 119 C 7.3586 0.651022 -5.27196 0
M  V30 120 C 6.3976 -0.227247 -6.11678 0
M  V30 121 N 5.5346 0.595127 -6.99573 0
M  V30 122 H 10.3746 -0.996978 -2.80828 0
M  V30 123 H 7.9116 -0.503206 -1.38225 0
M  V30 124 H 9.8696 1.17645 -4.00269 0
M  V30 125 H 8.4996 1.43557 -2.89122 0
M  V30 126 H 7.5516 -0.841777 -3.70969 0
M  V30 127 H 8.8636 -0.888751 -4.90818 0
M  V30 128 H 8.0176 1.2283 -5.94136 0
M  V30 129 H 6.7566 1.36121 -4.68319 0
M  V30 130 H 5.7616 -0.816904 -5.43697 0
M  V30 131 H 6.9866 -0.93509 -6.72631 0
M  V30 132 H 4.9326 1.28955 -6.432 0
M  V30 133 H 4.8496 -0.0236952 -7.55996 0
M  V30 134 H 6.1176 1.15613 -7.70879 0
M  V30 135 N 10.3467 1.47872 -0.545128 0
M  V30 136 C 11.7577 1.86384 -0.108581 0
M  V30 137 C 12.1087 1.45309 1.31832 0
M  V30 138 O 11.2337 0.850641 1.9898 0
M  V30 139 C 11.8287 3.38265 -0.190274 0
M  V30 140 C 10.3877 3.75914 0.191164 0
M  V30 141 C 9.5347 2.71926 -0.543273 0
M  V30 142 H 12.4857 1.39561 -0.755537 0
M  V30 143 H 12.5067 3.75831 0.594217 0
M  V30 144 H 12.0187 3.6813 -1.2289 0
M  V30 145 H 10.1197 3.51665 1.23136 0
M  V30 146 H 10.2327 4.78836 -0.158987 0
M  V30 147 H 8.5967 2.54697 0.0122495 0
M  V30 148 H 9.3797 3.04634 -1.58282 0
M  V30 149 N 11.8248 0.280983 1.55075 0
M  V30 150 C 12.7548 -0.597469 2.25727 0
M  V30 151 C 13.7358 -1.15417 1.24952 0
M  V30 152 O 14.9208 -1.18722 1.53684 0
M  V30 153 C 12.0508 -1.7789 2.98283 0
M  V30 154 C 11.0048 -1.35347 4.06036 0
M  V30 155 C 10.3308 -2.61846 4.66198 0
M  V30 156 C 11.6308 -0.499354 5.19907 0
M  V30 157 H 13.3248 -0.00824265 2.99399 0
M  V30 158 H 10.8708 -0.0025244 1.44 0
M  V30 159 H 12.8238 -2.39937 3.46422 0
M  V30 160 H 11.5478 -2.39405 2.22155 0
M  V30 161 H 10.2068 -0.756156 3.58717 0
M  V30 162 H 9.8548 -3.21632 3.86732 0
M  V30 163 H 9.5548 -2.3409 5.38958 0
M  V30 164 H 11.0788 -3.24732 5.1709 0
M  V30 165 H 12.4928 -1.02498 5.64063 0
M  V30 166 H 10.8898 -0.316424 5.99265 0
M  V30 167 H 11.9598 0.480459 4.82514 0
M  V30 168 N 13.3029 -1.57598 0.00835791 0
M  V30 169 C 14.5309 -1.95214 -0.68549 0
M  V30 170 C 14.9459 -0.883706 -1.66841 0
M  V30 171 O 14.3029 0.136565 -1.81988 0
M  V30 172 C 14.3539 -3.32865 -1.41007 0
M  V30 173 O 14.0749 -4.35609 -0.466552 0
M  V30 174 C 15.5759 -3.84991 -2.19765 0
M  V30 175 H 12.7959 -0.643422 -0.190392 0
M  V30 176 H 15.3399 -2.04406 0.0619607 0
M  V30 177 H 13.4949 -3.24956 -2.10908 0
M  V30 178 H 13.9089 -5.15288 -0.978699 0
M  V30 179 H 15.3829 -4.8371 -2.65948 0
M  V30 180 H 15.8599 -3.18137 -3.02796 0
M  V30 181 H 16.4659 -3.96103 -1.54864 0
M  V30 182 N 14.781 0.264519 -1.55364 0
M  V30 183 C 16.03 0.992812 -1.75574 0
M  V30 184 C 16.343 1.87142 -0.568979 0
M  V30 185 O 17.549 2.63513 -0.653682 0
M  V30 186 C 16.005 1.81519 -3.10771 0
M  V30 187 C 15.613 0.984839 -4.37041 0
M  V30 188 C 17.357 2.53727 -3.40327 0
M  V30 189 C 15.264 1.80209 -5.63275 0
M  V30 190 H 14.194 0.374412 -0.65447 0
M  V30 191 H 16.845 0.248138 -1.81815 0
M  V30 192 H 15.227 2.60115 -2.98591 0
M  V30 193 H 16.401 0.242455 -4.60162 0
M  V30 194 H 14.716 0.37691 -4.14691 0
M  V30 195 H 17.313 3.15292 -4.3185 0
M  V30 196 H 17.656 3.24447 -2.60845 0
M  V30 197 H 18.189 1.82156 -3.53644 0
M  V30 198 H 14.928 1.13896 -6.45529 0
M  V30 199 H 14.448 2.52022 -5.44284 0
M  V30 200 H 16.127 2.37364 -6.01887 0
M  V30 201 N 16.2591 1.48442 0.529413 0
M  V30 202 C 17.5071 1.56179 1.28267 0
M  V30 203 C 17.8281 0.237721 1.93546 0
M  V30 204 O 17.0981 -0.740779 1.81354 0
M  V30 205 H 15.6781 0.575367 0.476405 0
M  V30 206 H 18.3401 1.84909 0.61602 0
M  V30 207 H 17.4361 2.34312 2.06165 0
M  V30 208 N 17.7372 -0.778329 1.37039 0
M  V30 209 C 18.6672 -1.90546 1.34962 0
M  V30 210 C 19.6482 -1.68681 0.219274 0
M  V30 211 O 20.8332 -1.89634 0.418624 0
M  V30 212 C 17.9632 -3.27734 1.14925 0
M  V30 213 C 16.9172 -3.64147 2.24902 0
M  V30 214 C 16.2432 -4.99806 1.89996 0
M  V30 215 C 17.5432 -3.71579 3.67051 0
M  V30 216 H 19.2372 -1.92541 2.29277 0
M  V30 217 H 16.7832 -0.924948 1.10366 0
M  V30 218 H 18.7362 -4.06215 1.12104 0
M  V30 219 H 17.4602 -3.26154 0.170631 0
M  V30 220 H 16.1192 -2.8797 2.26868 0
M  V30 221 H 15.7672 -4.94759 0.906796 0
M  V30 222 H 15.4672 -5.25139 2.63634 0
M  V30 223 H 16.9912 -5.80694 1.88749 0
M  V30 224 H 18.4052 -4.40227 3.67251 0
M  V30 225 H 16.8022 -4.08405 4.39688 0
M  V30 226 H 17.8722 -2.72404 4.01154 0
M  V30 227 N 19.2153 -1.21501 -1.00376 0
M  V30 228 C 20.1783 -0.976927 -2.07337 0
M  V30 229 C 21.1783 0.0525322 -1.60714 0
M  V30 230 O 22.3683 -0.184869 -1.73216 0
M  V30 231 C 19.5003 -0.473423 -3.37597 0
M  V30 232 H 20.6933 -1.92587 -2.29892 0
M  V30 233 H 18.2463 -1.03217 -1.17371 0
M  V30 234 H 18.9813 0.480379 -3.20722 0
M  V30 235 H 18.7663 -1.216 -3.72768 0
M  V30 236 H 20.2563 -0.32675 -4.1632 0
M  V30 237 N 20.6934 1.19889 -1.02296 0
M  V30 238 C 21.6234 2.25141 -0.619174 0
M  V30 239 C 22.6044 1.66051 0.368915 0
M  V30 240 O 23.7894 1.92546 0.252941 0
M  V30 241 C 20.9194 3.4728 0.0368783 0
M  V30 242 C 19.8734 4.19005 -0.872865 0
M  V30 243 C 19.1994 5.34637 -0.0822402 0
M  V30 244 C 20.4994 4.74452 -2.18387 0
M  V30 245 H 22.1934 2.59171 -1.49903 0
M  V30 246 H 19.7394 1.24579 -0.722222 0
M  V30 247 H 21.6924 4.20098 0.330958 0
M  V30 248 H 20.4164 3.12433 0.95149 0
M  V30 249 H 19.0754 3.48061 -1.15105 0
M  V30 250 H 18.7234 4.96034 0.83422 0
M  V30 251 H 18.4234 5.83557 -0.688149 0
M  V30 252 H 19.9474 6.10255 0.205238 0
M  V30 253 H 21.3614 5.39055 -1.95172 0
M  V30 254 H 19.7584 5.33834 -2.74119 0
M  V30 255 H 20.8284 3.92844 -2.84257 0
M  V30 256 N 22.1715 0.800033 1.35784 0
M  V30 257 C 23.3995 0.389606 2.03199 0
M  V30 258 C 23.8145 -0.997375 1.60306 0
M  V30 259 O 23.1715 -1.64154 0.797481 0
M  V30 260 C 23.2225 0.455855 3.58614 0
M  V30 261 O 22.9435 1.78815 3.99946 0
M  V30 262 C 24.4445 0.0374032 4.43284 0
M  V30 263 H 21.6645 0.159132 0.651857 0
M  V30 264 H 24.2085 1.08183 1.73541 0
M  V30 265 H 22.3635 -0.188057 3.86943 0
M  V30 266 H 22.7775 1.74636 4.94573 0
M  V30 267 H 24.2515 0.134882 5.51835 0
M  V30 268 H 24.7285 -1.01651 4.27275 0
M  V30 269 H 25.3345 0.654215 4.20238 0
M  V30 270 N 23.6496 -1.47581 0.552962 0
M  V30 271 C 24.5796 -2.32762 -0.185451 0
M  V30 272 C 25.5606 -1.43527 -0.912905 0
M  V30 273 O 26.7456 -1.72388 -0.894201 0
M  V30 274 C 23.8756 -3.25219 -1.21859 0
M  V30 275 C 22.8296 -4.23661 -0.607864 0
M  V30 276 C 22.1556 -5.05413 -1.74533 0
M  V30 277 C 23.4556 -5.20481 0.435582 0
M  V30 278 H 25.1496 -2.94749 0.525684 0
M  V30 279 H 22.6956 -1.41738 0.254251 0
M  V30 280 H 24.6486 -3.8365 -1.7433 0
M  V30 281 H 23.3726 -2.61279 -1.95961 0
M  V30 282 H 22.0316 -3.66451 -0.104489 0
M  V30 283 H 21.6796 -4.3788 -2.47529 0
M  V30 284 H 21.3796 -5.72059 -1.34249 0
M  V30 285 H 22.9036 -5.66701 -2.27338 0
M  V30 286 H 24.3176 -5.733 -0.00290157 0
M  V30 287 H 22.7146 -5.95305 0.757067 0
M  V30 288 H 23.7846 -4.66217 1.33303 0
M  V30 289 N 25.1277 -0.289203 -1.54924 0
M  V30 290 C 26.0577 0.58549 -2.2604 0
M  V30 291 C 27.0387 1.14753 -1.25562 0
M  V30 292 O 28.2237 1.17906 -1.54311 0
M  V30 293 C 25.3537 1.76305 -2.99222 0
M  V30 294 C 24.3077 1.33191 -4.06748 0
M  V30 295 C 23.6337 2.5937 -4.6758 0
M  V30 296 C 24.9337 0.471775 -5.20165 0
M  V30 297 H 26.6277 -0.00763532 -2.99399 0
M  V30 298 H 24.1737 -0.00511229 -1.43999 0
M  V30 299 H 26.1267 2.38097 -3.47689 0
M  V30 300 H 24.8507 2.38223 -2.23422 0
M  V30 301 H 23.5097 0.737121 -3.59113 0
M  V30 302 H 23.1577 3.19576 -3.88433 0
M  V30 303 H 22.8577 2.31228 -5.40192 0
M  V30 304 H 24.3817 3.21985 -5.18804 0
M  V30 305 H 25.7957 0.995056 -5.64599 0
M  V30 306 H 24.1927 0.284639 -5.99425 0
M  V30 307 H 25.2627 -0.506041 -4.82252 0
M  V30 308 N 26.6058 1.57591 -0.0167156 0
M  V30 309 C 27.5358 2.12496 0.967858 0
M  V30 310 C 28.5168 1.03807 1.34752 0
M  V30 311 O 29.7018 1.31577 1.42833 0
M  V30 312 C 26.8318 2.64194 2.25431 0
M  V30 313 C 25.7858 3.77559 2.01576 0
M  V30 314 C 25.1118 4.15636 3.36379 0
M  V30 315 C 26.4118 5.04151 1.36489 0
M  V30 316 H 28.1058 2.95013 0.510643 0
M  V30 317 H 25.6518 1.41915 0.244181 0
M  V30 318 H 27.6048 3.01236 2.94678 0
M  V30 319 H 26.3288 1.78821 2.73296 0
M  V30 320 H 24.9878 3.40937 1.34751 0
M  V30 321 H 24.6358 3.27263 3.81979 0
M  V30 322 H 24.3358 4.92022 3.21229 0
M  V30 323 H 25.8598 4.5525 4.06915 0
M  V30 324 H 27.2738 5.38857 1.95718 0
M  V30 325 H 25.6708 5.85453 1.31776 0
M  V30 326 H 26.7408 4.83733 0.336219 0
M  V30 327 N 28.0839 -0.256276 1.55502 0
M  V30 328 C 29.4949 -0.826068 1.67431 0
M  V30 329 C 29.8459 -1.86396 0.612446 0
M  V30 330 O 28.9709 -2.15031 -0.243025 0
M  V30 331 C 29.5659 -1.50512 3.03532 0
M  V30 332 C 28.1249 -2.02273 3.17431 0
M  V30 333 C 27.2719 -0.870548 2.63281 0
M  V30 334 H 30.2229 -0.0322728 1.58667 0
M  V30 335 H 30.2439 -2.37279 2.97454 0
M  V30 336 H 29.7559 -0.749484 3.80794 0
M  V30 337 H 27.8569 -2.80746 2.44974 0
M  V30 338 H 27.9699 -2.22655 4.24219 0
M  V30 339 H 26.3339 -1.26851 2.20864 0
M  V30 340 H 27.1169 -0.128149 3.43061 0
M  V30 341 N 29.562 -1.4872 -0.521534 0
M  V30 342 C 30.495 -1.58451 -1.64221 0
M  V30 343 C 31.473 -0.434513 -1.56687 0
M  V30 344 O 32.657 -0.647275 -1.77038 0
M  V30 345 C 29.784 -1.52037 -3.02659 0
M  V30 346 C 28.83 -2.71981 -3.28525 0
M  V30 347 S 29.663 -4.33869 -3.13876 0
M  V30 348 C 30.819 -4.30067 -4.54745 0
M  V30 349 H 31.052 -2.53256 -1.55719 0
M  V30 350 H 28.585 -1.37358 -0.705143 0
M  V30 351 H 30.543 -1.49023 -3.82495 0
M  V30 352 H 29.204 -0.585541 -3.08594 0
M  V30 353 H 28.397 -2.63656 -4.29536 0
M  V30 354 H 27.999 -2.72302 -2.56374 0
M  V30 355 H 30.291 -4.00521 -5.46433 0
M  V30 356 H 31.234 -5.31287 -4.68123 0
M  V30 357 H 31.642 -3.60419 -4.34463 0
M  V30 358 N 31.0401 0.771051 -1.3745 0
M  V30 359 C 32.2881 1.52661 -1.32435 0
M  V30 360 C 32.6091 1.9479 0.0905024 0
M  V30 361 O 31.8791 1.66348 1.03466 0
M  V30 362 H 30.4591 0.566218 -0.487244 0
M  V30 363 H 33.1211 0.917636 -1.71946 0
M  V30 364 H 32.2171 2.42568 -1.96385 0
M  V30 365 N 32.5182 1.22032 0.997298 0
M  V30 366 C 33.4512 0.929735 2.08401 0
M  V30 367 C 34.4292 -0.125681 1.62114 0
M  V30 368 O 35.6132 0.00495409 1.88499 0
M  V30 369 C 32.7402 0.397488 3.3636 0
M  V30 370 C 31.7862 1.4369 4.01566 0
M  V30 371 S 32.6192 3.00874 4.42984 0
M  V30 372 C 33.7752 2.49276 5.74119 0
M  V30 373 H 34.0082 1.84998 2.32729 0
M  V30 374 H 31.5412 1.0509 1.13117 0
M  V30 375 H 33.4992 0.0969846 4.10385 0
M  V30 376 H 32.1602 -0.501571 3.10069 0
M  V30 377 H 31.3532 1.01427 4.93689 0
M  V30 378 H 30.9552 1.68588 3.33847 0
M  V30 379 H 33.2472 1.90242 6.50242 0
M  V30 380 H 34.1902 3.39872 6.21203 0
M  V30 381 H 34.5982 1.90714 5.31308 0
M  V30 382 N 33.9963 -1.19345 1.0293 0
M  V30 383 C 35.2243 -1.92997 0.745644 0
M  V30 384 C 35.6393 -1.75519 -0.695589 0
M  V30 385 O 34.9963 -1.07737 -1.47306 0
M  V30 386 C 35.0473 -3.44741 1.08792 0
M  V30 387 O 34.7683 -3.61658 2.47256 0
M  V30 388 C 36.2693 -4.35515 0.827129 0
M  V30 389 H 33.4893 -0.613042 0.272801 0
M  V30 390 H 36.0333 -1.51473 1.3739 0
M  V30 391 H 34.1883 -3.84097 0.504832 0
M  V30 392 H 34.6023 -4.55514 2.60015 0
M  V30 393 H 36.0763 -5.40589 1.11658 0
M  V30 394 H 36.5533 -4.38552 -0.238436 0
M  V30 395 H 37.1593 -4.01841 1.39297 0
M  V30 396 N 35.4744 -0.807222 -1.35358 0
M  V30 397 C 36.4374 -0.223665 -2.28106 0
M  V30 398 C 37.4374 0.589354 -1.4961 0
M  V30 399 O 38.6274 0.407745 -1.69361 0
M  V30 400 C 35.7594 0.688149 -3.33882 0
M  V30 401 H 36.9524 -1.04169 -2.81227 0
M  V30 402 H 34.5054 -0.577921 -1.45223 0
M  V30 403 H 35.2404 1.52984 -2.85948 0
M  V30 404 H 35.0254 0.10687 -3.91954 0
M  V30 405 H 36.5154 1.09075 -4.03104 0
M  V30 406 N 36.9525 1.47285 -0.560781 0
M  V30 407 C 38.1805 2.06855 -0.0430262 0
M  V30 408 C 38.5955 1.41291 1.25229 0
M  V30 409 O 37.9525 0.510648 1.7521 0
M  V30 410 C 38.0035 3.61178 0.152518 0
M  V30 411 O 37.7245 4.24285 -1.0915 0
M  V30 412 C 39.2255 4.37624 0.707145 0
M  V30 413 H 36.4455 0.669319 -0.0474652 0
M  V30 414 H 38.9895 1.89237 -0.77521 0
M  V30 415 H 37.1445 3.78298 0.834843 0
M  V30 416 H 37.5585 5.16868 -0.891482 0
M  V30 417 H 39.0325 5.46271 0.793244 0
M  V30 418 H 39.5095 4.04152 1.71923 0
M  V30 419 H 40.1155 4.25257 0.0604027 0
M  V30 420 N 38.4306 0.297415 1.54768 0
M  V30 421 C 39.6556 -0.318435 2.04941 0
M  V30 422 C 40.0806 -1.4701 1.17345 0
M  V30 423 O 39.4386 -1.80436 0.176758 0
M  V30 424 C 39.4866 -0.755749 3.52592 0
M  V30 425 O 38.5906 -1.86088 3.68028 0
M  V30 426 H 37.9316 -0.062421 0.661059 0
M  V30 427 H 40.4616 0.438215 1.99852 0
M  V30 428 H 40.4716 -1.04552 3.94376 0
M  V30 429 H 39.1466 0.0867233 4.1581 0
M  V30 430 H 37.7236 -1.57193 3.38149 0
M  V30 431 N 39.9087 -1.5758 0.0250728 0
M  V30 432 C 40.8717 -2.08896 -0.943139 0
M  V30 433 C 41.8717 -1.00321 -1.25668 0
M  V30 434 O 43.0617 -1.26495 -1.19769 0
M  V30 435 C 40.1937 -2.55143 -2.26086 0
M  V30 436 H 41.3867 -2.95723 -0.498775 0
M  V30 437 H 38.9397 -1.54703 -0.222888 0
M  V30 438 H 39.6747 -1.71633 -2.75159 0
M  V30 439 H 39.4597 -3.34461 -2.04641 0
M  V30 440 H 40.9497 -2.95083 -2.95492 0
M  V30 441 N 41.3868 0.248026 -1.55636 0
M  V30 442 C 42.3338 1.30707 -1.90222 0
M  V30 443 C 43.3038 1.47881 -0.756332 0
M  V30 444 O 44.4888 1.61883 -1.00988 0
M  V30 445 C 41.6288 2.65769 -2.20138 0
M  V30 446 C 40.7418 2.56612 -3.47526 0
M  V30 447 C 39.8768 3.8402 -3.67017 0
M  V30 448 C 38.9158 3.69476 -4.8801 0
M  V30 449 N 38.0528 4.88774 -5.04029 0
M  V30 450 H 42.8928 1.00512 -2.80538 0
M  V30 451 H 40.4298 0.485055 -1.38873 0
M  V30 452 H 42.3878 3.44386 -2.35487 0
M  V30 453 H 41.0178 2.94115 -1.33027 0
M  V30 454 H 40.0698 1.69571 -3.40514 0
M  V30 455 H 41.3818 2.41774 -4.36287 0
M  V30 456 H 40.5358 4.7108 -3.8232 0
M  V30 457 H 39.2748 4.01754 -2.76487 0
M  V30 458 H 38.2798 2.80799 -4.72686 0
M  V30 459 H 39.5048 3.53238 -5.8 0
M  V30 460 H 37.4508 5.0687 -4.16435 0
M  V30 461 H 37.3678 4.76562 -5.86877 0
M  V30 462 H 38.6358 5.77335 -5.23741 0
M  V30 463 N 42.8649 1.48995 0.513639 0
M  V30 464 C 43.8129 1.65199 1.63744 0
M  V30 465 C 44.8069 0.51809 1.61283 0
M  V30 466 O 46.0129 0.697335 1.65943 0
M  V30 467 H 42.3879 0.52069 0.542574 0
M  V30 468 H 44.3589 2.59552 1.47226 0
M  V30 469 C 43.1079 1.72409 3.01945 0
M  V30 470 H 42.4309 2.59029 3.04539 0
M  V30 471 H 43.8709 1.87785 3.80148 0
M  V30 472 C 42.3299 0.46618 3.33659 0
M  V30 473 O 42.8599 -0.413744 3.99564 0
M  V30 474 N 41.0659 0.332931 2.88687 0
M  V30 475 H 40.6129 1.04996 2.35231 0
M  V30 476 H 40.5709 -0.507665 3.10274 0
M  V30 477 N 44.343 -0.763751 1.37857 0
M  V30 478 C 45.306 -1.85889 1.34081 0
M  V30 479 C 46.306 -1.58949 0.243277 0
M  V30 480 O 47.496 -1.66882 0.499589 0
M  V30 481 C 44.628 -3.23176 1.08489 0
M  V30 482 H 45.821 -1.90648 2.31502 0
M  V30 483 H 43.374 -0.964367 1.23003 0
M  V30 484 H 44.109 -3.24091 0.116318 0
M  V30 485 H 43.894 -3.44124 1.8794 0
M  V30 486 H 45.384 -4.03254 1.08517 0
M  V30 487 N 45.8211 -1.22559 -0.990812 0
M  V30 488 C 47.0981 -0.959875 -1.70428 0
M  V30 489 C 47.4781 0.524455 -2.04481 0
M  V30 490 O 46.8261 1.49302 -1.72977 0
M  V30 491 C 47.0361 -1.85955 -2.95333 0
M  V30 492 C 48.3841 -2.11687 -3.68068 0
M  V30 493 O 49.4081 -1.8342 -3.05345 0
M  V30 494 O 48.2671 -2.59572 -4.80921 0
M  V30 495 H 45.3611 -0.361154 -0.743974 0
M  V30 496 H 47.9071 -1.33554 -1.04697 0
M  V30 497 H 46.6791 -2.86346 -2.66687 0
M  V30 498 H 46.3021 -1.4856 -3.68803 0
M  V30 499 N 47.2992 1.18797 -1.03562 0
M  V30 500 C 48.5242 1.9314 -0.755764 0
M  V30 501 C 48.9492 1.7537 0.68022 0
M  V30 502 O 48.3072 1.06046 1.47051 0
M  V30 503 C 48.3552 3.42747 -1.12058 0
M  V30 504 O 47.4592 4.11683 -0.243124 0
M  V30 505 H 46.8002 0.602724 -0.278604 0
M  V30 506 H 49.3302 1.50678 -1.3841 0
M  V30 507 H 49.3402 3.93437 -1.08035 0
M  V30 508 H 48.0152 3.55002 -2.16672 0
M  V30 509 H 46.5922 3.71323 -0.342539 0
M  V30 510 N 48.7773 0.814389 1.34928 0
M  V30 511 C 50.0073 0.41054 2.0248 0
M  V30 512 C 50.4153 -0.985625 1.61499 0
M  V30 513 O 49.7583 -1.64781 0.811976 0
M  V30 514 C 49.8203 0.423384 3.56998 0
M  V30 515 C 49.4843 1.77141 4.21272 0
M  V30 516 C 50.4813 2.73093 4.42398 0
M  V30 517 C 48.1663 2.05755 4.58225 0
M  V30 518 C 50.1603 3.95838 4.9959 0
M  V30 519 C 47.8473 3.28762 5.1513 0
M  V30 520 C 48.8453 4.23621 5.35755 0
M  V30 521 O 48.5333 5.44456 5.91458 0
M  V30 522 H 48.2653 0.163997 0.655806 0
M  V30 523 H 50.8193 1.10155 1.73364 0
M  V30 524 H 49.0493 -0.324276 3.85338 0
M  V30 525 H 50.7383 0.0407683 4.0588 0
M  V30 526 H 51.5043 2.5228 4.14222 0
M  V30 527 H 47.3833 1.32727 4.4148 0
M  V30 528 H 50.9273 4.69891 5.15605 0
M  V30 529 H 46.8243 3.49443 5.42734 0
M  V30 530 H 47.5923 5.4586 6.09901 0
M  V30 531 N 50.2554 -1.46986 0.568584 0
M  V30 532 C 51.2184 -2.28624 -0.162366 0
M  V30 533 C 52.2184 -1.37596 -0.832103 0
M  V30 534 O 53.4084 -1.60115 -0.68622 0
M  V30 535 C 50.5404 -3.17596 -1.23878 0
M  V30 536 H 51.7334 -2.94722 0.554899 0
M  V30 537 H 49.2864 -1.52863 0.325976 0
M  V30 538 H 50.0214 -2.56214 -1.98808 0
M  V30 539 H 49.8064 -3.846 -0.763219 0
M  V30 540 H 51.2964 -3.79078 -1.75185 0
M  V30 541 N 51.7335 -0.305618 -1.54608 0
M  V30 542 C 52.6805 0.568421 -2.23691 0
M  V30 543 C 53.6505 1.12592 -1.22116 0
M  V30 544 O 54.8355 1.16959 -1.50749 0
M  V30 545 C 51.9755 1.7322 -2.98477 0
M  V30 546 C 51.0885 1.20566 -4.14835 0
M  V30 547 C 50.2235 2.33368 -4.77193 0
M  V30 548 C 49.2625 1.7787 -5.85686 0
M  V30 549 N 48.3995 2.84263 -6.4198 0
M  V30 550 H 53.2395 -0.0272867 -2.97988 0
M  V30 551 H 50.7765 -0.0252363 -1.47078 0
M  V30 552 H 52.7345 2.41675 -3.40072 0
M  V30 553 H 51.3645 2.29947 -2.26548 0
M  V30 554 H 50.4165 0.413223 -3.78149 0
M  V30 555 H 51.7285 0.759417 -4.92985 0
M  V30 556 H 50.8825 3.09761 -5.21664 0
M  V30 557 H 49.6215 2.8132 -3.98385 0
M  V30 558 H 48.6265 0.99968 -5.40635 0
M  V30 559 H 49.8515 1.30816 -6.66381 0
M  V30 560 H 47.7975 3.31541 -5.66053 0
M  V30 561 H 47.7145 2.44149 -7.15491 0
M  V30 562 H 48.9825 3.6054 -6.91109 0
M  V30 563 N 53.2116 1.57565 -0.0334293 0
M  V30 564 C 54.1586 2.10478 0.946981 0
M  V30 565 C 55.1286 1.00787 1.32027 0
M  V30 566 O 56.3136 1.28232 1.41284 0
M  V30 567 C 53.4536 2.63994 2.22263 0
M  V30 568 C 52.5666 3.87709 1.90541 0
M  V30 569 C 51.7016 4.29604 3.12433 0
M  V30 570 C 50.7406 5.46065 2.76549 0
M  V30 571 N 49.8776 5.83096 3.9108 0
M  V30 572 H 54.7176 2.93963 0.488846 0
M  V30 573 H 52.2546 1.45296 0.22969 0
M  V30 574 H 54.2126 2.93114 2.96884 0
M  V30 575 H 52.8426 1.83333 2.65685 0
M  V30 576 H 51.8946 3.65291 1.06144 0
M  V30 577 H 53.2066 4.72403 1.60116 0
M  V30 578 H 52.3606 4.60182 3.9537 0
M  V30 579 H 51.0996 3.43685 3.46023 0
M  V30 580 H 50.1046 5.15176 1.92026 0
M  V30 581 H 51.3296 6.33685 2.44171 0
M  V30 582 H 49.2756 5.00132 4.24504 0
M  V30 583 H 49.1926 6.6244 3.64293 0
M  V30 584 H 50.4606 6.18282 4.74708 0
M  V30 585 N 54.6897 -0.239769 1.55765 0
M  V30 586 C 56.1007 -0.808263 1.68297 0
M  V30 587 C 56.4517 -1.85736 0.632181 0
M  V30 588 O 55.5767 -2.15277 -0.220204 0
M  V30 589 C 56.1717 -1.47284 3.05111 0
M  V30 590 C 54.7307 -1.98895 3.19559 0
M  V30 591 C 53.8777 -0.842575 2.64189 0
M  V30 592 H 56.8287 -0.0154422 1.58692 0
M  V30 593 H 56.8497 -2.34111 2.99954 0
M  V30 594 H 56.3617 -0.709053 3.81568 0
M  V30 595 H 54.4627 -2.78132 2.47938 0
M  V30 596 H 54.5757 -2.18143 4.26556 0
M  V30 597 H 52.9397 -1.24501 2.22197 0
M  V30 598 H 53.7227 -0.0917552 3.43177 0
M  V30 599 N 56.1678 -1.49265 -0.50573 0
M  V30 600 C 57.1178 -1.6198 -1.60457 0
M  V30 601 C 58.1018 -0.47568 -1.53708 0
M  V30 602 O 59.2938 -0.728392 -1.61318 0
M  V30 603 C 56.4228 -1.68526 -2.99089 0
M  V30 604 C 55.5088 -2.885 -3.10852 0
M  V30 605 N 55.8998 -4.12635 -2.92517 0
M  V30 606 C 54.1978 -2.86338 -3.41945 0
M  V30 607 C 54.8988 -4.93258 -3.08337 0
M  V30 608 N 53.8748 -4.26533 -3.37003 0
M  V30 609 H 57.6768 -2.55681 -1.44928 0
M  V30 610 H 55.1908 -1.45972 -0.711752 0
M  V30 611 H 57.1878 -1.75732 -3.78053 0
M  V30 612 H 55.8478 -0.759584 -3.1569 0
M  V30 613 H 56.8588 -4.42689 -2.68787 0
M  V30 614 H 53.5358 -2.03129 -3.64753 0
M  V30 615 H 54.9258 -6.01856 -2.98695 0
M  V30 616 N 57.6459 0.756429 -1.3826 0
M  V30 617 C 58.8949 1.51082 -1.3363 0
M  V30 618 C 59.2079 1.95467 0.0720068 0
M  V30 619 O 60.4139 2.7043 0.240834 0
M  V30 620 C 58.8699 2.72893 -2.34644 0
M  V30 621 C 58.4779 2.35544 -3.81081 0
M  V30 622 C 60.2219 3.50791 -2.39052 0
M  V30 623 C 58.1289 3.53948 -4.73787 0
M  V30 624 H 57.0589 0.56727 -0.49671 0
M  V30 625 H 59.7099 0.827147 -1.638 0
M  V30 626 H 58.0919 3.43227 -1.97513 0
M  V30 627 H 59.2659 1.72894 -4.27135 0
M  V30 628 H 57.5809 1.70786 -3.79764 0
M  V30 629 H 60.1779 4.38823 -3.05513 0
M  V30 630 H 60.5209 3.91745 -1.40861 0
M  V30 631 H 61.0539 2.87467 -2.74968 0
M  V30 632 H 57.7929 3.18064 -5.73163 0
M  V30 633 H 57.3129 4.15651 -4.32428 0
M  V30 634 H 58.9919 4.20566 -4.91663 0
M  V30 635 N 59.124 1.23083 0.984299 0
M  V30 636 C 60.349 1.088 1.76571 0
M  V30 637 C 60.774 -0.356657 1.84688 0
M  V30 638 O 60.132 -1.25788 1.30565 0
M  V30 639 C 60.18 1.71371 3.17277 0
M  V30 640 O 59.284 0.973213 4.00752 0
M  V30 641 H 58.625 0.381599 0.543395 0
M  V30 642 H 61.155 1.63057 1.23587 0
M  V30 643 H 61.165 1.76449 3.67872 0
M  V30 644 H 59.84 2.76493 3.10684 0
M  V30 645 H 58.417 0.999078 3.59267 0
M  V30 646 N 60.6021 -1.18246 1.0419 0
M  V30 647 C 61.5651 -2.20128 0.638452 0
M  V30 648 C 62.5651 -1.57885 -0.304805 0
M  V30 649 O 63.7551 -1.73967 -0.0900369 0
M  V30 650 C 60.8871 -3.4084 -0.0637751 0
M  V30 651 H 62.0801 -2.57336 1.54007 0
M  V30 652 H 59.6331 -1.32152 0.834598 0
M  V30 653 H 60.3681 -3.09166 -0.979136 0
M  V30 654 H 60.1531 -3.8726 0.614198 0
M  V30 655 H 61.6431 -4.16274 -0.332512 0
M  V30 656 N 62.0802 -0.821533 -1.34494 0
M  V30 657 C 63.0102 -0.257138 -2.3208 0
M  V30 658 C 63.9912 0.625645 -1.58176 0
M  V30 659 O 65.1762 0.552811 -1.86166 0
M  V30 660 C 62.3062 0.582958 -3.42372 0
M  V30 661 C 61.2602 -0.202571 -4.2752 0
M  V30 662 C 60.5862 0.760179 -5.29269 0
M  V30 663 C 61.8862 -1.40998 -5.02908 0
M  V30 664 H 63.5802 -1.07247 -2.79532 0
M  V30 665 H 61.1262 -0.517163 -1.34393 0
M  V30 666 H 63.0792 0.987972 -4.09655 0
M  V30 667 H 61.8032 1.43133 -2.93565 0
M  V30 668 H 60.4622 -0.588936 -3.61838 0
M  V30 669 H 60.1102 1.60447 -4.76724 0
M  V30 670 H 59.8102 0.238809 -5.87115 0
M  V30 671 H 61.3342 1.16308 -5.9942 0
M  V30 672 H 62.7482 -1.07905 -5.63054 0
M  V30 673 H 61.1452 -1.86689 -5.70322 0
M  V30 674 H 62.2152 -2.1889 -4.32684 0
M  V30 675 N 63.5583 1.46682 -0.576371 0
M  V30 676 C 64.5063 2.31953 0.17335 0
M  V30 677 C 65.5003 1.44098 0.89062 0
M  V30 678 O 66.7063 1.60759 0.809728 0
M  V30 679 H 63.0813 0.748273 0.0747727 0
M  V30 680 H 65.0523 2.93007 -0.564738 0
M  V30 681 C 63.8013 3.27142 1.17786 0
M  V30 682 H 63.1243 3.94719 0.635361 0
M  V30 683 H 64.5643 3.896 1.67296 0
M  V30 684 C 63.0233 2.52036 2.23561 0
M  V30 685 O 63.5533 2.27877 3.3081 0
M  V30 686 N 61.7593 2.12709 1.97998 0
M  V30 687 H 61.3063 2.32557 1.10792 0
M  V30 688 H 61.2643 1.62776 2.68982 0
M  V30 689 N 65.0364 0.313813 1.54444 0
M  V30 690 C 65.9994 -0.54379 2.22656 0
M  V30 691 C 66.9994 -1.05124 1.21678 0
M  V30 692 O 68.1894 -0.945225 1.46325 0
M  V30 693 C 65.3214 -1.75427 2.92298 0
M  V30 694 H 66.5144 0.0523599 2.99854 0
M  V30 695 H 64.0674 0.0647834 1.56166 0
M  V30 696 H 64.8024 -2.38991 2.19211 0
M  V30 697 H 64.5874 -1.39791 3.66334 0
M  V30 698 H 66.0774 -2.36325 3.44297 0
M  V30 699 N 66.5145 -1.57545 0.0417849 0
M  V30 700 C 67.9255 -1.80011 -0.495259 0
M  V30 701 C 68.2765 -0.953199 -1.71489 0
M  V30 702 O 67.4015 -0.167138 -2.15754 0
M  V30 703 C 67.9965 -3.26482 -0.905265 0
M  V30 704 C 66.5555 -3.499 -1.38734 0
M  V30 705 C 65.7025 -2.74979 -0.358056 0
M  V30 706 H 68.6535 -1.56425 0.267736 0
M  V30 707 H 68.6745 -3.36887 -1.76882 0
M  V30 708 H 68.1865 -3.88096 -0.017401 0
M  V30 709 H 66.2875 -2.93553 -2.29471 0
M  V30 710 H 66.4005 -4.58615 -1.38598 0
M  V30 711 H 64.7645 -2.40834 -0.828912 0
M  V30 712 H 65.5475 -3.39315 0.521561 0
M  V30 713 N 67.9926 0.231505 -1.5589 0
M  V30 714 C 68.9246 1.31006 -1.8807 0
M  V30 715 C 69.9376 1.43539 -0.768145 0
M  V30 716 O 71.1266 1.44614 -1.04638 0
M  V30 717 C 68.2266 2.68688 -2.06543 0
M  V30 718 C 67.3996 2.78228 -3.37502 0
M  V30 719 C 66.4586 3.96857 -3.4553 0
M  V30 720 O 65.4846 3.85662 -4.18633 0
M  V30 721 N 66.6866 5.1072 -2.75944 0
M  V30 722 H 69.4516 1.03731 -2.81176 0
M  V30 723 H 67.0126 0.421573 -1.56315 0
M  V30 724 H 69.0046 3.46412 -2.09239 0
M  V30 725 H 67.5746 2.88605 -1.20109 0
M  V30 726 H 66.7946 1.87059 -3.46991 0
M  V30 727 H 68.0826 2.81564 -4.23791 0
M  V30 728 H 67.4806 5.2271 -2.16311 0
M  V30 729 H 66.0376 5.86523 -2.84314 0
M  V30 730 N 69.4707 1.49531 0.497807 0
M  V30 731 C 70.4007 1.6935 1.60757 0
M  V30 732 C 71.3817 0.542218 1.61227 0
M  V30 733 O 72.5667 0.778417 1.77917 0
M  V30 734 C 69.6967 1.76298 2.99226 0
M  V30 735 C 68.6507 2.91248 3.13622 0
M  V30 736 C 67.9767 2.83312 4.53474 0
M  V30 737 C 69.2767 4.3214 2.93346 0
M  V30 738 H 70.9707 2.62263 1.44425 0
M  V30 739 H 68.5167 1.26208 0.693367 0
M  V30 740 H 70.4697 1.88749 3.76765 0
M  V30 741 H 69.1937 0.799871 3.16654 0
M  V30 742 H 67.8527 2.78404 2.38509 0
M  V30 743 H 67.5007 1.84902 4.67782 0
M  V30 744 H 67.2007 3.60465 4.64046 0
M  V30 745 H 68.7247 2.97775 5.33069 0
M  V30 746 H 70.1387 4.45649 3.60652 0
M  V30 747 H 68.5357 5.1054 3.15387 0
M  V30 748 H 69.6057 4.46363 1.89441 0
M  V30 749 N 70.9488 -0.749086 1.3866 0
M  V30 750 C 72.2258 -1.4992 1.25632 0
M  V30 751 C 72.6058 -2.10633 -0.140317 0
M  V30 752 O 71.9538 -1.97437 -1.15025 0
M  V30 753 C 72.1638 -2.56195 2.36992 0
M  V30 754 C 73.5118 -3.22972 2.75634 0
M  V30 755 O 74.5358 -2.66502 2.36337 0
M  V30 756 O 73.3948 -4.25122 3.43415 0
M  V30 757 H 70.4888 -0.665067 0.491544 0
M  V30 758 H 73.0348 -0.784113 1.50498 0
M  V30 759 H 71.8068 -2.09612 3.30422 0
M  V30 760 H 71.4298 -3.35279 2.13714 0
M  V30 761 N 72.4269 -1.23603 -0.977757 0
M  V30 762 C 73.3589 -0.977369 -2.07317 0
M  V30 763 C 74.3719 0.0495845 -1.62724 0
M  V30 764 O 75.5609 -0.186261 -1.77526 0
M  V30 765 C 72.6609 -0.451216 -3.35883 0
M  V30 766 C 71.8339 -1.53896 -4.09432 0
M  V30 767 C 70.8929 -1.01721 -5.16274 0
M  V30 768 O 69.9189 -1.70676 -5.43009 0
M  V30 769 N 71.1209 0.153594 -5.80297 0
M  V30 770 H 73.8859 -1.92047 -2.30082 0
M  V30 771 H 71.4469 -1.14497 -1.14465 0
M  V30 772 H 73.4389 -0.0871574 -4.04606 0
M  V30 773 H 72.0089 0.397368 -3.10064 0
M  V30 774 H 71.2289 -2.07566 -3.35127 0
M  V30 775 H 72.5169 -2.27037 -4.55337 0
M  V30 776 H 71.9149 0.730323 -5.60966 0
M  V30 777 H 70.4719 0.458892 -6.50183 0
M  V30 778 N 73.905 1.17692 -1.04816 0
M  V30 779 C 75.321 1.39863 -0.768794 0
M  V30 780 C 75.521 1.91118 0.638451 0
M  V30 781 O 74.577 2.10036 1.40146 0
M  V30 782 C 75.89 2.39274 -1.82122 0
M  V30 783 C 77.438 2.52987 -1.843 0
M  V30 784 C 77.913 3.55669 -2.88555 0
M  V30 785 N 79.404 3.63183 -2.87493 0
M  V30 786 C 80.139 4.42381 -3.64811 0
M  V30 787 N 79.635 5.25125 -4.51903 0
M  V30 788 N 81.428 4.37217 -3.53267 0
M  V30 789 H 73.579 0.82752 -1.95617 0
M  V30 790 H 75.842 0.426123 -0.846831 0
M  V30 791 H 75.548 2.08678 -2.83102 0
M  V30 792 H 75.422 3.38725 -1.65967 0
M  V30 793 H 77.809 2.82896 -0.839869 0
M  V30 794 H 77.89 1.53623 -2.04532 0
M  V30 795 H 77.534 3.26499 -3.89051 0
M  V30 796 H 77.464 4.54728 -2.65575 0
M  V30 797 H 79.955 3.04103 -2.24343 0
M  V30 798 H 80.268 5.82728 -5.07591 0
M  V30 799 H 78.613 5.24519 -4.55966 0
M  V30 800 H 81.804 3.71626 -2.84625 0
M  V30 801 H 81.977 4.98696 -4.13771 0
M  V30 802 N 75.3831 0.828654 1.34056 0
M  V30 803 C 76.6131 0.431993 2.02033 0
M  V30 804 C 77.0211 -0.96844 1.62536 0
M  V30 805 O 76.3641 -1.6391 0.829408 0
M  V30 806 C 76.4261 0.461224 3.56529 0
M  V30 807 C 76.0901 1.81599 4.1937 0
M  V30 808 C 77.0871 2.7777 4.39477 0
M  V30 809 C 74.7721 2.10604 4.56017 0
M  V30 810 C 76.7661 4.01115 4.95364 0
M  V30 811 C 74.4531 3.34207 5.11614 0
M  V30 812 C 75.4511 4.2928 5.31232 0
M  V30 813 O 75.1391 5.50699 5.8565 0
M  V30 814 H 74.8711 0.170943 0.654029 0
M  V30 815 H 77.4251 1.11988 1.72185 0
M  V30 816 H 75.6551 -0.283388 3.8566 0
M  V30 817 H 77.3441 0.0838149 4.05813 0
M  V30 818 H 78.1101 2.56659 4.11523 0
M  V30 819 H 73.9891 1.37402 4.40047 0
M  V30 820 H 77.5331 4.75333 5.10592 0
M  V30 821 H 73.4301 3.55179 5.38997 0
M  V30 822 H 74.1981 5.52298 6.04077 0
M  V30 823 N 76.8612 -1.46375 0.584142 0
M  V30 824 C 77.8082 -2.30323 -0.148286 0
M  V30 825 C 78.7782 -1.40703 -0.882713 0
M  V30 826 O 79.9632 -1.69651 -0.873099 0
M  V30 827 C 77.1032 -3.25196 -1.15507 0
M  V30 828 C 76.2162 -4.29915 -0.423943 0
M  V30 829 C 75.3512 -5.11914 -1.41838 0
M  V30 830 C 74.3902 -6.08381 -0.673736 0
M  V30 831 N 73.5272 -6.83242 -1.6163 0
M  V30 832 H 78.3672 -2.92427 0.573644 0
M  V30 833 H 75.9042 -1.44118 0.294703 0
M  V30 834 H 77.8622 -3.78646 -1.75166 0
M  V30 835 H 76.4922 -2.64898 -1.8447 0
M  V30 836 H 75.5442 -3.7931 0.287714 0
M  V30 837 H 76.8562 -4.98549 0.158128 0
M  V30 838 H 76.0102 -5.69648 -2.08773 0
M  V30 839 H 74.7492 -4.43243 -2.03438 0
M  V30 840 H 73.7542 -5.49799 0.00938483 0
M  V30 841 H 74.9792 -6.79071 -0.0631082 0
M  V30 842 H 72.9252 -6.1728 -2.22038 0
M  V30 843 H 72.8422 -7.48144 -1.08707 0
M  V30 844 H 74.1102 -7.45534 -2.27596 0
M  V30 845 N 78.3393 -0.321999 -1.54275 0
M  V30 846 C 79.2873 0.560206 -2.25753 0
M  V30 847 C 80.2813 1.11984 -1.27106 0
M  V30 848 O 81.4873 1.06806 -1.44888 0
M  V30 849 H 77.8623 0.199304 -0.725108 0
M  V30 850 H 79.8333 -0.0649365 -2.98329 0
M  V30 851 C 78.5823 1.71023 -3.02731 0
M  V30 852 H 77.9053 1.28885 -3.78456 0
M  V30 853 H 79.3453 2.30314 -3.55993 0
M  V30 854 C 77.8043 2.62692 -2.10938 0
M  V30 855 O 78.3343 3.64364 -1.6912 0
M  V30 856 N 76.5403 2.30891 -1.76459 0
M  V30 857 H 76.0873 1.48253 -2.10663 0
M  V30 858 H 76.0453 2.92487 -1.1532 0
M  V30 859 N 79.8174 1.5752 -0.0501392 0
M  V30 860 C 80.7274 2.14952 0.939827 0
M  V30 861 C 81.7434 1.10706 1.34239 0
M  V30 862 O 82.9194 1.42869 1.41952 0
M  V30 863 C 79.9844 2.68232 2.19665 0
M  V30 864 C 79.0454 3.87272 1.85253 0
M  V30 865 C 78.2784 4.38002 3.04943 0
M  V30 866 O 78.5014 3.87811 4.18281 0
M  V30 867 O 77.4354 5.29602 2.86017 0
M  V30 868 H 81.2614 2.9986 0.481392 0
M  V30 869 H 78.8464 1.4841 0.171699 0
M  V30 870 H 80.7284 3.02475 2.93406 0
M  V30 871 H 79.4034 1.86395 2.64648 0
M  V30 872 H 78.3104 3.5792 1.0883 0
M  V30 873 H 79.6434 4.70336 1.4507 0
M  V30 874 N 81.2955 -0.223234 1.56011 0
M  V30 875 C 82.5425 -0.947875 1.78946 0
M  V30 876 C 82.8705 -1.844 0.618608 0
M  V30 877 O 82.1255 -1.91629 -0.397093 0
M  V30 878 C 82.4245 -1.81948 3.0762 0
M  V30 879 C 82.0905 -1.07672 4.37856 0
M  V30 880 C 80.7525 -0.871544 4.73242 0
M  V30 881 C 83.1045 -0.552081 5.18268 0
M  V30 882 C 80.4325 -0.129791 5.86556 0
M  V30 883 C 82.7845 0.17632 6.32354 0
M  V30 884 C 81.4485 0.39277 6.66343 0
M  V30 885 H 80.7185 -0.346852 0.654809 0
M  V30 886 H 83.3655 -0.216171 1.90276 0
M  V30 887 H 81.6705 -2.61899 2.91404 0
M  V30 888 H 83.3675 -2.38227 3.22566 0
M  V30 889 H 79.9575 -1.24662 4.1007 0
M  V30 890 H 84.1415 -0.698076 4.91366 0
M  V30 891 H 79.3975 0.048153 6.11381 0
M  V30 892 H 83.5715 0.590367 6.93893 0
M  V30 893 H 81.1985 0.969466 7.53993 0
M  V30 894 N 82.7736 -1.49793 -0.48987 0
M  V30 895 C 84.0016 -1.63568 -1.26701 0
M  V30 896 C 84.4166 -0.311465 -1.86213 0
M  V30 897 O 83.7736 0.704416 -1.68357 0
M  V30 898 C 83.8246 -2.71284 -2.38929 0
M  V30 899 O 83.5456 -3.9857 -1.81861 0
M  V30 900 C 85.0466 -2.95864 -3.3012 0
M  V30 901 H 82.2666 -0.550342 -0.383881 0
M  V30 902 H 84.8106 -1.95898 -0.586864 0
M  V30 903 H 82.9656 -2.417 -3.02753 0
M  V30 904 H 83.3796 -4.57993 -2.55622 0
M  V30 905 H 84.8536 -3.74941 -4.05121 0
M  V30 906 H 85.3306 -2.06206 -3.87783 0
M  V30 907 H 85.9366 -3.26907 -2.72051 0
M  V30 908 N 84.2517 0.741722 -1.39055 0
M  V30 909 C 85.5007 1.49656 -1.35225 0
M  V30 910 C 85.8137 1.95533 0.0512708 0
M  V30 911 O 87.0197 2.7067 0.212138 0
M  V30 912 C 85.4757 2.70389 -2.37525 0
M  V30 913 C 85.0837 2.31489 -3.83558 0
M  V30 914 C 86.8277 3.48236 -2.42759 0
M  V30 915 C 84.7347 3.48903 -4.77515 0
M  V30 916 H 83.6647 0.56197 -0.502699 0
M  V30 917 H 86.3157 0.809727 -1.64668 0
M  V30 918 H 84.6977 3.41113 -2.01142 0
M  V30 919 H 85.8717 1.68354 -4.28945 0
M  V30 920 H 84.1867 1.66749 -3.81554 0
M  V30 921 H 86.7837 4.35558 -3.1015 0
M  V30 922 H 87.1267 3.90229 -1.45008 0
M  V30 923 H 87.6597 2.84535 -2.78002 0
M  V30 924 H 84.3987 3.11966 -5.76504 0
M  V30 925 H 83.9187 4.11041 -4.36813 0
M  V30 926 H 85.5977 4.15328 -4.96096 0
M  V30 927 N 85.7298 1.2412 0.971189 0
M  V30 928 C 86.9778 1.07668 1.71032 0
M  V30 929 C 87.2988 -0.385797 1.91146 0
M  V30 930 O 86.5688 -1.27569 1.4867 0
M  V30 931 H 85.1488 0.395429 0.633755 0
M  V30 932 H 87.8108 1.55984 1.16855 0
M  V30 933 H 86.9068 1.57195 2.69622 0
M  V30 934 N 87.2079 -1.17134 1.05439 0
M  V30 935 C 88.1709 -2.19439 0.661764 0
M  V30 936 C 89.1709 -1.58199 -0.288042 0
M  V30 937 O 90.3609 -1.74053 -0.0715803 0
M  V30 938 C 87.4929 -3.40889 -0.0276209 0
M  V30 939 H 88.6859 -2.55688 1.56728 0
M  V30 940 H 86.2389 -1.31259 0.848567 0
M  V30 941 H 86.9739 -3.10187 -0.94629 0
M  V30 942 H 86.7589 -3.86586 0.655238 0
M  V30 943 H 88.2489 -4.16603 -0.288342 0
M  V30 944 N 88.686 -0.835752 -1.33615 0
M  V30 945 C 89.649 -0.272 -2.2758 0
M  V30 946 C 90.649 0.557487 -1.50827 0
M  V30 947 O 91.839 0.37173 -1.70188 0
M  V30 948 C 88.971 0.617173 -3.35267 0
M  V30 949 H 90.164 -1.10111 -2.78954 0
M  V30 950 H 87.717 -0.608594 -1.43965 0
M  V30 951 H 88.452 1.46884 -2.89129 0
M  V30 952 H 88.237 0.0237066 -3.92093 0
M  V30 953 H 89.727 1.005 -4.05326 0
M  V30 954 N 90.1641 1.46063 -0.591896 0
M  V30 955 C 91.4101 2.02638 -0.0811191 0
M  V30 956 C 91.7431 1.4613 1.27905 0
M  V30 957 O 91.0181 0.629908 1.84017 0
M  V30 958 C 91.3011 3.60091 -0.0252436 0
M  V30 959 C 91.1541 4.26965 -1.41496 0
M  V30 960 C 92.4731 4.3496 0.670685 0
M  V30 961 H 89.5921 0.73635 -0.0309524 0
M  V30 962 H 92.2341 1.741 -0.760859 0
M  V30 963 H 90.3841 3.84535 0.553624 0
M  V30 964 H 92.0561 4.13756 -2.0397 0
M  V30 965 H 90.2991 3.85971 -1.98011 0
M  V30 966 H 90.9701 5.35781 -1.32825 0
M  V30 967 H 93.4461 4.15716 0.178825 0
M  V30 968 H 92.3221 5.44686 0.678837 0
M  V30 969 H 92.5831 4.06685 1.73379 0
M  V30 970 N 91.6422 0.330177 1.54103 0
M  V30 971 C 92.5522 -0.541534 2.28264 0
M  V30 972 C 93.5682 -1.12351 1.32866 0
M  V30 973 O 94.7442 -1.14206 1.65888 0
M  V30 974 C 91.8092 -1.68322 3.03098 0
M  V30 975 C 90.8702 -1.13238 4.14096 0
M  V30 976 C 90.1032 -2.21966 4.85352 0
M  V30 977 O 90.3262 -3.42437 4.56172 0
M  V30 978 O 89.2602 -1.87013 5.7211 0
M  V30 979 H 93.0862 0.060938 3.03639 0
M  V30 980 H 90.6712 0.09565 1.49093 0
M  V30 981 H 92.5532 -2.34777 3.49939 0
M  V30 982 H 91.2282 -2.27176 2.30593 0
M  V30 983 H 90.1352 -0.432736 3.71589 0
M  V30 984 H 91.4682 -0.588898 4.88664 0
M  V30 985 N 93.1203 -1.57491 0.0584922 0
M  V30 986 C 94.5313 -1.80526 -0.476138 0
M  V30 987 C 94.8823 -0.971334 -1.70469 0
M  V30 988 O 94.0073 -0.190012 -2.15564 0
M  V30 989 C 94.6023 -3.27424 -0.870587 0
M  V30 990 C 93.1613 -3.51351 -1.35015 0
M  V30 991 C 92.3083 -2.75343 -0.32887 0
M  V30 992 H 95.2593 -1.56133 0.284312 0
M  V30 993 H 95.2803 -3.38745 -1.73299 0
M  V30 994 H 94.7923 -3.88093 0.0237627 0
M  V30 995 H 92.8933 -2.95971 -2.26345 0
M  V30 996 H 93.0063 -4.60059 -1.33726 0
M  V30 997 H 91.3703 -2.417 -0.803321 0
M  V30 998 H 92.1533 -3.38743 0.557521 0
M  V30 999 N 94.5984 0.214957 -1.56127 0
M  V30 1000 C 95.8284 0.953707 -1.8327 0
M  V30 1001 C 96.2364 1.78181 -0.636262 0
M  V30 1002 O 95.5794 1.79191 0.404516 0
M  V30 1003 C 95.6414 1.91516 -3.0424 0
M  V30 1004 C 95.3054 1.27094 -4.38972 0
M  V30 1005 C 96.3024 0.657575 -5.15725 0
M  V30 1006 C 93.9874 1.28073 -4.85698 0
M  V30 1007 C 95.9814 0.0625968 -6.37369 0
M  V30 1008 C 93.6684 0.681914 -6.07283 0
M  V30 1009 C 94.6664 0.0739046 -6.8296 0
M  V30 1010 O 94.3544 -0.515582 -8.02245 0
M  V30 1011 H 94.0864 0.284764 -0.613095 0
M  V30 1012 H 96.6404 0.233283 -2.04071 0
M  V30 1013 H 94.8704 2.67475 -2.79274 0
M  V30 1014 H 96.5594 2.52001 -3.18198 0
M  V30 1015 H 97.3254 0.642288 -4.80728 0
M  V30 1016 H 93.2044 1.74337 -4.26764 0
M  V30 1017 H 96.7484 -0.412593 -6.96379 0
M  V30 1018 H 92.6454 0.694636 -6.41752 0
M  V30 1019 H 93.4134 -0.410544 -8.1747 0
M  V30 1020 N 96.0765 1.50051 0.48192 0
M  V30 1021 C 97.0085 1.64263 1.59844 0
M  V30 1022 C 98.0215 0.52451 1.54119 0
M  V30 1023 O 99.2105 0.797293 1.59704 0
M  V30 1024 C 96.3105 1.60102 2.98698 0
M  V30 1025 C 95.4835 2.87767 3.29407 0
M  V30 1026 C 94.5425 2.76397 4.47762 0
M  V30 1027 O 93.5685 3.50348 4.48603 0
M  V30 1028 N 94.7705 1.89222 5.48794 0
M  V30 1029 H 97.5355 2.60566 1.48073 0
M  V30 1030 H 95.0965 1.47379 0.670149 0
M  V30 1031 H 97.0885 1.50123 3.75826 0
M  V30 1032 H 95.6585 0.715798 3.04294 0
M  V30 1033 H 94.8785 3.11954 2.40994 0
M  V30 1034 H 96.1665 3.72365 3.4673 0
M  V30 1035 H 95.5645 1.28434 5.50928 0
M  V30 1036 H 94.1215 1.85154 6.24949 0
M  V30 1037 N 97.5546 -0.734337 1.39446 0
M  V30 1038 C 98.4846 -1.86155 1.40955 0
M  V30 1039 C 99.4656 -1.67898 0.272827 0
M  V30 1040 O 100.651 -1.88207 0.478743 0
M  V30 1041 C 97.7806 -3.23912 1.25294 0
M  V30 1042 C 96.7346 -3.56808 2.36373 0
M  V30 1043 C 96.0606 -4.93508 2.058 0
M  V30 1044 C 97.3606 -3.59713 3.78687 0
M  V30 1045 H 99.0546 -1.8515 2.35287 0
M  V30 1046 H 96.6006 -0.889367 1.13253 0
M  V30 1047 H 98.5536 -4.02443 1.2497 0
M  V30 1048 H 97.2776 -3.25446 0.274308 0
M  V30 1049 H 95.9366 -2.80606 2.35914 0
M  V30 1050 H 95.5846 -4.91623 1.06374 0
M  V30 1051 H 95.2846 -5.16486 2.80208 0
M  V30 1052 H 96.8086 -5.74396 2.07128 0
M  V30 1053 H 98.2226 -4.2832 3.81071 0
M  V30 1054 H 96.6196 -3.94209 4.52459 0
M  V30 1055 H 97.6896 -2.59504 4.09617 0
M  V30 1056 N 99.0327 -1.24633 -0.964593 0
M  V30 1057 C 99.9647 -0.999302 -2.06268 0
M  V30 1058 C 100.978 0.0323226 -1.62768 0
M  V30 1059 O 102.167 -0.205079 -1.77318 0
M  V30 1060 C 99.2667 -0.486816 -3.35385 0
M  V30 1061 C 98.4397 -1.5823 -4.07777 0
M  V30 1062 C 97.4987 -1.07191 -5.15166 0
M  V30 1063 O 96.5247 -1.76426 -5.41168 0
M  V30 1064 N 97.7267 0.0920373 -5.80427 0
M  V30 1065 H 100.492 -1.94477 -2.28033 0
M  V30 1066 H 98.0527 -1.15704 -1.13244 0
M  V30 1067 H 100.045 -0.130066 -4.04491 0
M  V30 1068 H 98.6147 0.364459 -3.10468 0
M  V30 1069 H 97.8347 -2.11109 -3.32906 0
M  V30 1070 H 99.1227 -2.31854 -4.52903 0
M  V30 1071 H 98.5207 0.670784 -5.61709 0
M  V30 1072 H 97.0777 0.389905 -6.50633 0
M  V30 1073 N 100.511 1.16574 -1.06058 0
M  V30 1074 C 101.459 2.22941 -0.663343 0
M  V30 1075 C 102.453 1.66358 0.319593 0
M  V30 1076 O 103.659 1.7905 0.184713 0
M  V30 1077 H 100.034 0.725907 -0.196376 0
M  V30 1078 H 102.005 2.53736 -1.57037 0
M  V30 1079 C 100.754 3.47642 -0.0632808 0
M  V30 1080 H 100.077 3.91493 -0.810733 0
M  V30 1081 H 101.517 4.2363 0.177177 0
M  V30 1082 C 99.9758 3.1509 1.19248 0
M  V30 1083 O 100.506 3.30673 2.28075 0
M  V30 1084 N 98.7118 2.6924 1.09353 0
M  V30 1085 H 98.2588 2.5676 0.207912 0
M  V30 1086 H 98.2168 2.47833 1.93458 0
M  V30 1087 N 101.989 0.842826 1.3317 0
M  V30 1088 C 102.899 0.281444 2.32906 0
M  V30 1089 C 103.915 -0.594587 1.63526 0
M  V30 1090 O 105.091 -0.49777 1.95152 0
M  V30 1091 C 102.156 -0.530929 3.42611 0
M  V30 1092 C 101.217 0.369843 4.27704 0
M  V30 1093 C 100.45 -0.403853 5.3217 0
M  V30 1094 O 100.673 -1.63513 5.46461 0
M  V30 1095 O 99.6069 0.224199 6.01482 0
M  V30 1096 H 103.433 1.10744 2.82789 0
M  V30 1097 H 101.018 0.60545 1.36582 0
M  V30 1098 H 102.9 -0.992437 4.09547 0
M  V30 1099 H 101.575 -1.33392 2.94938 0
M  V30 1100 H 100.482 0.879275 3.6362 0
M  V30 1101 H 101.815 1.13771 4.78871 0
M  V30 1102 N 103.467 -1.45747 0.599634 0
M  V30 1103 C 104.414 -2.30467 -0.123849 0
M  V30 1104 C 105.384 -1.41632 -0.86774 0
M  V30 1105 O 106.569 -1.70568 -0.855056 0
M  V30 1106 C 103.709 -3.26402 -1.12051 0
M  V30 1107 C 102.822 -4.3034 -0.37832 0
M  V30 1108 C 101.957 -5.13389 -1.364 0
M  V30 1109 C 100.996 -6.09061 -0.609171 0
M  V30 1110 N 100.133 -6.84918 -1.54374 0
M  V30 1111 H 104.973 -2.91802 0.604627 0
M  V30 1112 H 102.51 -1.43797 0.309972 0
M  V30 1113 H 104.468 -3.80482 -1.7114 0
M  V30 1114 H 103.098 -2.66839 -1.8165 0
M  V30 1115 H 102.15 -3.78984 0.327929 0
M  V30 1116 H 103.462 -4.98354 0.210997 0
M  V30 1117 H 102.616 -5.7183 -2.02719 0
M  V30 1118 H 101.355 -4.45376 -1.98725 0
M  V30 1119 H 100.36 -5.49758 0.0676979 0
M  V30 1120 H 101.585 -6.79099 0.00891991 0
M  V30 1121 H 99.531 -6.19601 -2.15478 0
M  V30 1122 H 99.448 -7.49254 -1.00766 0
M  V30 1123 H 100.716 -7.47906 -2.19676 0
M  V30 1124 N 104.945 -0.338344 -1.53925 0
M  V30 1125 C 106.222 0.314774 -1.93051 0
M  V30 1126 C 106.602 1.68669 -1.26941 0
M  V30 1127 O 105.95 2.24636 -0.418445 0
M  V30 1128 C 106.16 0.392249 -3.46789 0
M  V30 1129 C 107.508 0.645554 -4.19664 0
M  V30 1130 O 108.532 0.474575 -3.53024 0
M  V30 1131 O 107.391 0.976408 -5.37707 0
M  V30 1132 H 104.485 0.182598 -0.80659 0
M  V30 1133 H 107.031 -0.389141 -1.65178 0
M  V30 1134 H 105.803 -0.570702 -3.87116 0
M  V30 1135 H 105.426 1.14316 -3.80812 0
M  V30 1136 N 106.423 1.57458 -0.0668435 0
M  V30 1137 C 107.669 1.93587 0.6043 0
M  V30 1138 C 108.002 0.946722 1.69561 0
M  V30 1139 O 107.277 -0.0248516 1.94484 0
M  V30 1140 C 107.56 3.40014 1.18585 0
M  V30 1141 C 107.413 4.49685 0.101529 0
M  V30 1142 C 108.732 3.87154 2.09284 0
M  V30 1143 H 105.851 0.703958 0.218202 0
M  V30 1144 H 108.493 1.89542 -0.131804 0
M  V30 1145 H 106.643 3.43592 1.81319 0
M  V30 1146 H 108.315 4.5823 -0.531279 0
M  V30 1147 H 106.558 4.30059 -0.568487 0
M  V30 1148 H 107.229 5.49266 0.54874 0
M  V30 1149 H 109.705 3.85551 1.56491 0
M  V30 1150 H 108.581 4.90231 2.46911 0
M  V30 1151 H 108.842 3.2481 2.99918 0
M  V30 1152 N 107.901 -0.206675 1.56239 0
M  V30 1153 C 108.833 -1.27997 1.9013 0
M  V30 1154 C 109.846 -1.42299 0.790883 0
M  V30 1155 O 111.035 -1.42931 1.06925 0
M  V30 1156 C 108.135 -2.65368 2.10792 0
M  V30 1157 C 107.308 -2.72824 3.41886 0
M  V30 1158 C 106.367 -3.9131 3.51799 0
M  V30 1159 O 105.393 -3.78953 4.24716 0
M  V30 1160 N 106.595 -5.06265 2.84035 0
M  V30 1161 H 109.36 -0.992444 2.82791 0
M  V30 1162 H 106.921 -0.396652 1.56966 0
M  V30 1163 H 108.913 -3.43039 2.14724 0
M  V30 1164 H 107.483 -2.86657 1.24685 0
M  V30 1165 H 106.703 -1.81515 3.49923 0
M  V30 1166 H 107.991 -2.74786 4.28217 0
M  V30 1167 H 107.389 -5.19203 2.246 0
M  V30 1168 H 105.946 -5.81925 2.93609 0
M  V30 1169 N 109.379 -1.50304 -0.473955 0
M  V30 1170 C 110.312 -1.63595 -1.59097 0
M  V30 1171 C 111.29 -0.484142 -1.55225 0
M  V30 1172 O 112.474 -0.703271 -1.7489 0
M  V30 1173 C 109.601 -1.61589 -2.97669 0
M  V30 1174 C 108.647 -2.82295 -3.19705 0
M  V30 1175 S 109.48 -4.43635 -2.99913 0
M  V30 1176 C 110.636 -4.44317 -4.40832 0
M  V30 1177 H 110.869 -2.58082 -1.47583 0
M  V30 1178 H 108.402 -1.39531 -0.661087 0
M  V30 1179 H 110.36 -1.61116 -3.7756 0
M  V30 1180 H 109.021 -0.683421 -3.06575 0
M  V30 1181 H 108.214 -2.77188 -4.20931 0
M  V30 1182 H 107.816 -2.8032 -2.47582 0
M  V30 1183 H 110.108 -4.17703 -5.33414 0
M  V30 1184 H 111.051 -5.45911 -4.50984 0
M  V30 1185 H 111.459 -3.74059 -4.22777 0
M  V30 1186 N 110.857 0.726932 -1.39834 0
M  V30 1187 C 111.787 1.85405 -1.41941 0
M  V30 1188 C 112.768 1.67751 -0.281728 0
M  V30 1189 O 113.953 1.8795 -0.488717 0
M  V30 1190 C 111.083 3.23243 -1.2701 0
M  V30 1191 C 110.037 3.55549 -2.38262 0
M  V30 1192 C 109.363 4.9241 -2.08415 0
M  V30 1193 C 110.663 3.577 -3.80589 0
M  V30 1194 H 112.357 1.83899 -2.36266 0
M  V30 1195 H 109.903 0.883349 -1.13723 0
M  V30 1196 H 111.856 4.01775 -1.27103 0
M  V30 1197 H 110.58 3.25296 -0.291564 0
M  V30 1198 H 109.239 2.79351 -2.37399 0
M  V30 1199 H 108.887 4.91052 -1.0898 0
M  V30 1200 H 108.587 5.14992 -2.82943 0
M  V30 1201 H 110.111 5.73289 -2.10171 0
M  V30 1202 H 111.525 4.26293 -3.83337 0
M  V30 1203 H 109.922 3.91804 -4.54543 0
M  V30 1204 H 110.992 2.57328 -4.10987 0
M  V30 1205 N 112.336 1.25143 0.95797 0
M  V30 1206 C 113.283 1.05235 2.05412 0
M  V30 1207 C 114.253 -0.0374561 1.66058 0
M  V30 1208 O 115.438 0.119073 1.90428 0
M  V30 1209 C 112.578 0.673589 3.38462 0
M  V30 1210 C 111.691 1.8379 3.90954 0
M  V30 1211 C 110.826 1.40381 5.12315 0
M  V30 1212 C 109.865 2.53746 5.57027 0
M  V30 1213 N 109.002 2.11136 6.69601 0
M  V30 1214 H 113.842 1.99048 2.21774 0
M  V30 1215 H 111.379 0.991277 1.08683 0
M  V30 1216 H 113.337 0.434964 4.14926 0
M  V30 1217 H 111.967 -0.227554 3.21997 0
M  V30 1218 H 111.019 2.18992 3.11041 0
M  V30 1219 H 112.331 2.68937 4.20089 0
M  V30 1220 H 111.485 1.12464 5.96185 0
M  V30 1221 H 110.224 0.523015 4.84887 0
M  V30 1222 H 109.229 2.82412 4.71724 0
M  V30 1223 H 110.454 3.42398 5.86464 0
M  V30 1224 H 108.4 1.25468 6.4389 0
M  V30 1225 H 108.317 2.89832 6.98236 0
M  V30 1226 H 109.585 1.86385 7.56889 0
M  V30 1227 N 113.814 -1.1601 1.06675 0
M  V30 1228 C 115.23 -1.38622 0.790948 0
M  V30 1229 C 115.43 -1.92109 -0.607965 0
M  V30 1230 O 114.486 -2.12239 -1.36787 0
M  V30 1231 C 115.799 -2.36347 1.85905 0
M  V30 1232 C 117.347 -2.50023 1.88301 0
M  V30 1233 C 117.822 -3.51033 2.94176 0
M  V30 1234 N 119.313 -3.58563 2.93235 0
M  V30 1235 C 120.048 -4.36521 3.71803 0
M  V30 1236 N 119.544 -5.17869 4.602 0
M  V30 1237 N 121.337 -4.31541 3.60178 0
M  V30 1238 H 113.488 -0.796294 1.96908 0
M  V30 1239 H 115.751 -0.412597 0.853503 0
M  V30 1240 H 115.457 -2.04147 2.86386 0
M  V30 1241 H 115.331 -3.36042 1.71334 0
M  V30 1242 H 117.718 -2.81524 0.884769 0
M  V30 1243 H 117.799 -1.5035 2.06951 0
M  V30 1244 H 117.443 -3.20268 3.94196 0
M  V30 1245 H 117.373 -4.50445 2.72776 0
M  V30 1246 H 119.864 -3.00496 2.29152 0
M  V30 1247 H 120.177 -5.74578 5.16797 0
M  V30 1248 H 118.522 -5.17199 4.64253 0
M  V30 1249 H 121.713 -3.67051 2.90502 0
M  V30 1250 H 121.886 -4.9205 4.21653 0
M  V30 1251 N 115.292 -0.849877 -1.32721 0
M  V30 1252 C 116.242 -0.262892 -2.26479 0
M  V30 1253 C 117.226 0.588493 -1.49752 0
M  V30 1254 O 118.418 0.438659 -1.71478 0
M  V30 1255 C 115.547 0.551818 -3.38836 0
M  V30 1256 C 114.633 -0.311689 -4.22953 0
M  V30 1257 N 115.024 -1.39567 -4.86163 0
M  V30 1258 C 113.322 -0.100611 -4.45887 0
M  V30 1259 C 114.023 -1.92651 -5.48872 0
M  V30 1260 N 112.999 -1.22637 -5.29586 0
M  V30 1261 H 116.801 -1.09166 -2.72873 0
M  V30 1262 H 114.315 -0.695486 -1.46754 0
M  V30 1263 H 116.312 0.988713 -4.05006 0
M  V30 1264 H 114.972 1.37844 -2.93988 0
M  V30 1265 H 115.983 -1.77859 -4.86402 0
M  V30 1266 H 112.66 0.691681 -4.11731 0
M  V30 1267 H 114.05 -2.83487 -6.09167 0
M  V30 1268 N 116.77 1.45427 -0.607355 0
M  V30 1269 C 118.017 2.02241 -0.102455 0
M  V30 1270 C 118.345 1.4758 1.26691 0
M  V30 1271 O 117.6 0.640468 1.84923 0
M  V30 1272 C 117.899 3.57398 -0.0129263 0
M  V30 1273 C 117.565 4.3121 -1.31792 0
M  V30 1274 C 116.227 4.51092 -1.67539 0
M  V30 1275 C 118.579 4.73401 -2.18039 0
M  V30 1276 C 115.907 5.10422 -2.89285 0
M  V30 1277 C 118.259 5.34078 -3.39034 0
M  V30 1278 C 116.923 5.52184 -3.75033 0
M  V30 1279 H 116.193 0.740051 -0.037491 0
M  V30 1280 H 118.84 1.74494 -0.788926 0
M  V30 1281 H 117.145 3.84421 0.756806 0
M  V30 1282 H 118.842 3.99061 0.393881 0
M  V30 1283 H 115.432 4.16047 -1.02968 0
M  V30 1284 H 119.616 4.57774 -1.91721 0
M  V30 1285 H 114.872 5.22629 -3.17283 0
M  V30 1286 H 119.046 5.65724 -4.06115 0
M  V30 1287 H 116.673 5.97925 -4.69457 0
M  V30 1288 N 118.248 0.346503 1.53744 0
M  V30 1289 C 119.196 -0.52422 2.26616 0
M  V30 1290 C 120.19 -1.09948 1.28871 0
M  V30 1291 O 121.396 -1.04488 1.46568 0
M  V30 1292 H 117.771 -0.187743 0.728187 0
M  V30 1293 H 119.742 0.11239 2.98188 0
M  V30 1294 C 118.491 -1.66186 3.05414 0
M  V30 1295 H 117.814 -1.22848 3.80458 0
M  V30 1296 H 119.254 -2.24622 3.59612 0
M  V30 1297 C 117.713 -2.59302 2.1509 0
M  V30 1298 O 118.243 -3.61628 1.74895 0
M  V30 1299 N 116.449 -2.28055 1.8011 0
M  V30 1300 H 115.996 -1.44883 2.12994 0
M  V30 1301 H 115.954 -2.90615 1.19958 0
M  V30 1302 N 119.726 -1.57421 0.075193 0
M  V30 1303 C 120.951 -1.98364 -0.605515 0
M  V30 1304 C 121.376 -0.953383 -1.62149 0
M  V30 1305 O 120.734 0.0806053 -1.81121 0
M  V30 1306 C 120.782 -3.38332 -1.24756 0
M  V30 1307 O 119.886 -3.37959 -2.36342 0
M  V30 1308 H 119.227 -0.645553 -0.155428 0
M  V30 1309 H 121.757 -2.04044 0.150714 0
M  V30 1310 H 121.767 -3.75591 -1.5936 0
M  V30 1311 H 120.442 -4.12846 -0.503129 0
M  V30 1312 H 119.019 -3.12474 -2.03506 0
M  V30 1313 N 121.204 0.198386 -1.56346 0
M  V30 1314 C 122.453 0.917451 -1.79627 0
M  V30 1315 C 122.766 1.8456 -0.64784 0
M  V30 1316 O 123.972 2.60504 -0.764859 0
M  V30 1317 C 122.428 1.68175 -3.18191 0
M  V30 1318 C 122.036 0.798589 -4.40825 0
M  V30 1319 C 123.78 2.39065 -3.50782 0
M  V30 1320 C 121.687 1.56157 -5.70411 0
M  V30 1321 H 120.617 0.346317 -0.669762 0
M  V30 1322 H 123.268 0.170801 -1.82703 0
M  V30 1323 H 121.65 2.47216 -3.09354 0
M  V30 1324 H 122.824 0.0470665 -4.60776 0
M  V30 1325 H 121.139 0.200686 -4.15916 0
M  V30 1326 H 123.736 2.96692 -4.44835 0
M  V30 1327 H 124.079 3.13091 -2.74371 0
M  V30 1328 H 124.612 1.66993 -3.61052 0
M  V30 1329 H 121.351 0.864142 -6.49779 0
M  V30 1330 H 120.871 2.2871 -5.54483 0
M  V30 1331 H 122.55 2.11622 -6.11412 0
M  V30 1332 N 122.682 1.50554 0.465978 0
M  V30 1333 C 123.928 1.62038 1.21949 0
M  V30 1334 C 124.261 0.322116 1.9151 0
M  V30 1335 O 123.536 -0.676723 1.82348 0
M  V30 1336 C 123.819 2.80421 2.25912 0
M  V30 1337 C 123.672 4.20144 1.60622 0
M  V30 1338 C 124.991 2.94354 3.27176 0
M  V30 1339 H 122.11 0.589752 0.441998 0
M  V30 1340 H 124.752 1.82956 0.51257 0
M  V30 1341 H 122.902 2.62717 2.86203 0
M  V30 1342 H 124.574 4.49449 1.03889 0
M  V30 1343 H 122.817 4.24165 0.909211 0
M  V30 1344 H 123.488 4.98914 2.36196 0
M  V30 1345 H 125.964 3.10578 2.76913 0
M  V30 1346 H 124.84 3.788 3.97242 0
M  V30 1347 H 125.101 2.05186 3.916 0
M  V30 1348 N 124.16 -0.719506 1.40217 0
M  V30 1349 C 125.123 -1.8153 1.39927 0
M  V30 1350 C 126.123 -1.58095 0.293723 0
M  V30 1351 O 127.313 -1.65209 0.552429 0
M  V30 1352 C 124.445 -3.19561 1.18716 0
M  V30 1353 H 125.638 -1.83186 2.37451 0
M  V30 1354 H 123.191 -0.924746 1.26008 0
M  V30 1355 H 123.926 -3.23557 0.219366 0
M  V30 1356 H 123.711 -3.3797 1.98793 0
M  V30 1357 H 125.201 -3.99598 1.21291 0
M  V30 1358 N 125.638 -1.25649 -0.95132 0
M  V30 1359 C 126.548 -1.08073 -2.08224 0
M  V30 1360 C 127.564 -0.0169666 -1.73992 0
M  V30 1361 O 128.74 -0.218593 -2.0021 0
M  V30 1362 C 125.805 -0.704922 -3.39458 0
M  V30 1363 C 124.866 -1.84699 -3.87537 0
M  V30 1364 C 124.099 -1.48902 -5.12508 0
M  V30 1365 O 124.322 -0.386156 -5.69091 0
M  V30 1366 O 123.256 -2.32033 -5.55378 0
M  V30 1367 H 127.082 -2.02924 -2.25954 0
M  V30 1368 H 124.667 -1.04618 -1.06656 0
M  V30 1369 H 126.549 -0.507609 -4.18332 0
M  V30 1370 H 125.224 0.214291 -3.2299 0
M  V30 1371 H 124.131 -2.09919 -3.09653 0
M  V30 1372 H 125.464 -2.74557 -4.08509 0
M  V30 1373 N 127.117 1.15442 -1.07289 0
M  V30 1374 C 128.065 2.22225 -0.686952 0
M  V30 1375 C 129.059 1.66688 0.30193 0
M  V30 1376 O 130.265 1.79236 0.165712 0
M  V30 1377 H 126.64 0.723783 -0.204064 0
M  V30 1378 H 128.611 2.52056 -1.5972 0
M  V30 1379 C 127.36 3.47556 -0.100149 0
M  V30 1380 H 126.683 3.90612 -0.852211 0
M  V30 1381 H 128.123 4.23794 0.132235 0
M  V30 1382 C 126.582 3.16337 1.159 0
M  V30 1383 O 127.112 3.33074 2.24555 0
M  V30 1384 N 125.318 2.70385 1.06491 0
M  V30 1385 H 124.865 2.56966 0.180668 0
M  V30 1386 H 124.823 2.49871 1.90819 0
M  V30 1387 N 128.595 0.856903 1.32268 0
M  V30 1388 C 129.841 0.462069 1.97466 0
M  V30 1389 C 130.174 -0.980298 1.67642 0
M  V30 1390 O 129.449 -1.68824 0.965858 0
M  V30 1391 C 129.732 0.704336 3.53145 0
M  V30 1392 C 129.585 2.19529 3.9259 0
M  V30 1393 C 130.904 0.1622 4.39801 0
M  V30 1394 H 128.023 0.169357 0.717278 0
M  V30 1395 H 130.665 1.07574 1.56614 0
M  V30 1396 H 128.815 0.181999 3.88073 0
M  V30 1397 H 130.487 2.78387 3.67829 0
M  V30 1398 H 128.73 2.67292 3.41668 0
M  V30 1399 H 129.401 2.31549 5.01088 0
M  V30 1400 H 131.877 0.608905 4.11621 0
M  V30 1401 H 130.753 0.361265 5.4771 0
M  V30 1402 H 131.014 -0.935158 4.32096 0
M  V30 1403 N 130.073 -1.45103 0.615059 0
M  V30 1404 C 131.006 -2.27717 -0.148408 0
M  V30 1405 C 131.984 -1.37584 -0.866572 0
M  V30 1406 O 133.168 -1.67017 -0.87393 0
M  V30 1407 C 130.295 -3.16136 -1.21557 0
M  V30 1408 C 129.341 -4.22263 -0.599712 0
M  V30 1409 S 130.174 -5.3215 0.598081 0
M  V30 1410 C 131.33 -6.24137 -0.469484 0
M  V30 1411 H 131.563 -2.92121 0.552483 0
M  V30 1412 H 129.096 -1.49054 0.402778 0
M  V30 1413 H 131.054 -3.67633 -1.82638 0
M  V30 1414 H 129.715 -2.50982 -1.88857 0
M  V30 1415 H 128.908 -4.84081 -1.4029 0
M  V30 1416 H 128.51 -3.73945 -0.063876 0
M  V30 1417 H 130.802 -6.63984 -1.34652 0
M  V30 1418 H 131.745 -7.0801 0.112725 0
M  V30 1419 H 132.153 -5.58971 -0.788168 0
M  V30 1420 N 131.551 -0.354651 -1.53558 0
M  V30 1421 C 132.498 0.496968 -2.25386 0
M  V30 1422 C 133.468 1.0865 -1.25636 0
M  V30 1423 O 134.653 1.12104 -1.54394 0
M  V30 1424 C 131.793 1.63637 -3.03837 0
M  V30 1425 C 130.906 1.07307 -4.18461 0
M  V30 1426 C 130.041 2.18068 -4.84376 0
M  V30 1427 C 129.08 1.59147 -5.91049 0
M  V30 1428 N 128.217 2.63695 -6.50699 0
M  V30 1429 H 133.057 -0.122075 -2.9775 0
M  V30 1430 H 130.594 -0.0720154 -1.46924 0
M  V30 1431 H 132.552 2.30734 -3.47589 0
M  V30 1432 H 131.182 2.22623 -2.33749 0
M  V30 1433 H 130.234 0.292708 -3.79272 0
M  V30 1434 H 131.546 0.602193 -4.95152 0
M  V30 1435 H 130.7 2.93007 -5.31255 0
M  V30 1436 H 129.439 2.68504 -4.07133 0
M  V30 1437 H 128.444 0.827175 -5.43542 0
M  V30 1438 H 129.669 1.09549 -6.70206 0
M  V30 1439 H 127.615 3.13365 -5.76315 0
M  V30 1440 H 127.532 2.21263 -7.22896 0
M  V30 1441 H 128.8 3.3837 -7.02229 0
M  V30 1442 N 133.029 1.57378 -0.0835403 0
M  V30 1443 C 134.44 1.81261 0.447358 0
M  V30 1444 C 134.791 0.998331 1.68902 0
M  V30 1445 O 133.916 0.224282 2.15235 0
M  V30 1446 C 134.511 3.28767 0.818386 0
M  V30 1447 C 133.07 3.53455 1.29409 0
M  V30 1448 C 132.217 2.75831 0.285024 0
M  V30 1449 H 135.168 1.5566 -0.309115 0
M  V30 1450 H 135.189 3.41459 1.67887 0
M  V30 1451 H 134.701 3.88006 -0.0855019 0
M  V30 1452 H 132.802 2.99534 2.21608 0
M  V30 1453 H 132.915 4.62128 1.2639 0
M  V30 1454 H 131.279 2.42947 0.764767 0
M  V30 1455 H 132.062 3.37813 -0.611341 0
M  V30 1456 N 134.507 -0.190092 1.56449 0
M  V30 1457 C 135.756 -0.907912 1.80111 0
M  V30 1458 C 136.069 -1.84214 0.657619 0
M  V30 1459 O 137.275 -2.60094 0.778663 0
M  V30 1460 C 135.731 -1.66485 3.19078 0
M  V30 1461 C 135.339 -0.7752 4.41242 0
M  V30 1462 C 137.083 -2.37201 3.52045 0
M  V30 1463 C 134.99 -1.53129 5.71231 0
M  V30 1464 H 133.92 -0.34276 0.671589 0
M  V30 1465 H 136.571 -0.161109 1.82791 0
M  V30 1466 H 134.953 -2.45572 3.10661 0
M  V30 1467 H 136.127 -0.0226298 4.60794 0
M  V30 1468 H 134.442 -0.178627 4.16017 0
M  V30 1469 H 137.039 -2.94329 4.46402 0
M  V30 1470 H 137.382 -3.11632 2.76028 0
M  V30 1471 H 137.915 -1.65075 3.61932 0
M  V30 1472 H 134.654 -0.82967 6.50228 0
M  V30 1473 H 134.174 -2.25767 5.55688 0
M  V30 1474 H 135.853 -2.08377 6.12526 0
M  V30 1475 N 135.985 -1.50799 -0.457987 0
M  V30 1476 C 137.21 -1.66496 -1.23668 0
M  V30 1477 C 137.635 -0.353288 -1.84752 0
M  V30 1478 O 136.993 0.684346 -1.67888 0
M  V30 1479 C 137.041 -2.76763 -2.3116 0
M  V30 1480 O 136.145 -2.38928 -3.36136 0
M  V30 1481 H 135.486 -0.555828 -0.363252 0
M  V30 1482 H 138.016 -1.9725 -0.543474 0
M  V30 1483 H 138.026 -3.00232 -2.76269 0
M  V30 1484 H 136.701 -3.71954 -1.86073 0
M  V30 1485 H 135.278 -2.25953 -2.96647 0
M  V30 1486 N 137.463 0.71206 -1.40597 0
M  V30 1487 C 138.712 1.46754 -1.38369 0
M  V30 1488 C 139.025 1.95598 0.0097839 0
M  V30 1489 O 140.231 2.71059 0.154677 0
M  V30 1490 C 138.687 2.65289 -2.43207 0
M  V30 1491 C 138.295 2.23301 -3.88382 0
M  V30 1492 C 140.039 3.43008 -2.50091 0
M  V30 1493 C 137.946 3.38696 -4.84808 0
M  V30 1494 H 136.876 0.55118 -0.514506 0
M  V30 1495 H 139.527 0.774616 -1.66349 0
M  V30 1496 H 137.909 3.36769 -2.08332 0
M  V30 1497 H 139.083 1.59218 -4.32419 0
M  V30 1498 H 137.398 1.58618 -3.85006 0
M  V30 1499 H 139.995 4.28881 -3.1932 0
M  V30 1500 H 140.338 3.87065 -1.53253 0
M  V30 1501 H 140.871 2.78574 -2.83974 0
M  V30 1502 H 137.61 2.99668 -5.82992 0
M  V30 1503 H 137.13 4.01683 -4.45433 0
M  V30 1504 H 138.809 4.04712 -5.04794 0
M  V30 1505 N 138.941 1.26152 0.944643 0
M  V30 1506 C 139.873 1.03199 2.04652 0
M  V30 1507 C 140.886 -0.00642356 1.62799 0
M  V30 1508 O 142.075 0.233263 1.76969 0
M  V30 1509 C 139.175 0.540111 3.34568 0
M  V30 1510 C 138.348 1.64697 4.05208 0
M  V30 1511 C 137.407 1.15374 5.13396 0
M  V30 1512 O 136.433 1.85013 5.38293 0
M  V30 1513 N 137.635 0.00031529 5.805 0
M  V30 1514 H 140.4 1.9808 2.2491 0
M  V30 1515 H 137.961 1.17491 1.11389 0
M  V30 1516 H 139.953 0.194401 4.04233 0
M  V30 1517 H 138.523 -0.315021 3.11009 0
M  V30 1518 H 137.743 2.16379 3.29506 0
M  V30 1519 H 139.031 2.3903 4.49157 0
M  V30 1520 H 138.429 -0.581336 5.62705 0
M  V30 1521 H 136.986 -0.286346 6.51171 0
M  V30 1522 N 140.419 -1.14872 1.07899 0
M  V30 1523 C 141.83 -1.67367 0.827363 0
M  V30 1524 C 142.181 -1.85236 -0.646693 0
M  V30 1525 O 141.306 -1.55974 -1.50004 0
M  V30 1526 C 141.901 -3.04016 1.49532 0
M  V30 1527 C 140.46 -3.53566 1.29106 0
M  V30 1528 C 139.607 -2.29161 1.56143 0
M  V30 1529 H 142.558 -0.990083 1.24028 0
M  V30 1530 H 142.579 -3.69219 0.919643 0
M  V30 1531 H 142.091 -2.90978 2.56814 0
M  V30 1532 H 140.192 -3.71835 0.238713 0
M  V30 1533 H 140.305 -4.34661 2.01511 0
M  V30 1534 H 138.669 -2.34978 0.982717 0
M  V30 1535 H 139.452 -2.18705 2.64619 0
M  V30 1536 N 141.898 -0.863906 -1.31812 0
M  V30 1537 C 142.808 -0.318461 -2.32428 0
M  V30 1538 C 143.824 0.568496 -1.64451 0
M  V30 1539 O 145 0.46666 -1.95919 0
M  V30 1540 C 142.065 0.476355 -3.43412 0
M  V30 1541 C 141.126 -0.43784 -4.27061 0
M  V30 1542 C 140.359 0.319138 -5.32745 0
M  V30 1543 O 140.582 1.54799 -5.48993 0
M  V30 1544 O 139.516 -0.319861 -6.01049 0
M  V30 1545 H 143.342 -1.15229 -2.80991 0
M  V30 1546 H 140.927 -0.627103 -1.35602 0
M  V30 1547 H 142.809 0.927156 -4.11074 0
M  V30 1548 H 141.484 1.28683 -2.97022 0
M  V30 1549 H 140.391 -0.937013 -3.62175 0
M  V30 1550 H 141.724 -1.21375 -4.77 0
M  V30 1551 N 143.376 1.44774 -0.622745 0
M  V30 1552 C 144.286 2.34433 0.0886031 0
M  V30 1553 C 145.302 1.52131 0.844529 0
M  V30 1554 O 146.478 1.84886 0.798691 0
M  V30 1555 C 143.543 3.29986 1.0635 0
M  V30 1556 C 142.604 4.28195 0.307873 0
M  V30 1557 C 141.837 5.19183 1.23633 0
M  V30 1558 O 142.06 5.13918 2.47476 0
M  V30 1559 O 140.994 5.97515 0.725189 0
M  V30 1560 H 144.82 2.96693 -0.648599 0
M  V30 1561 H 142.405 1.44408 -0.382957 0
M  V30 1562 H 144.287 3.88825 1.6246 0
M  V30 1563 H 142.962 2.70269 1.78146 0
M  V30 1564 H 141.869 3.72927 -0.296064 0
M  V30 1565 H 143.202 4.90808 -0.3699 0
M  V30 1566 N 144.854 0.36279 1.53368 0
M  V30 1567 C 146.102 -0.227326 2.00817 0
M  V30 1568 C 146.423 -1.49511 1.25186 0
M  V30 1569 O 145.693 -1.92482 0.364348 0
M  V30 1570 H 144.273 -0.0869923 0.741917 0
M  V30 1571 H 146.935 0.488381 1.88682 0
M  V30 1572 H 146.031 -0.456273 3.08747 0
M  V30 1573 N 146.332 -1.57332 0.0918853 0
M  V30 1574 C 147.279 -2.13847 -0.868211 0
M  V30 1575 C 148.249 -1.05618 -1.28196 0
M  V30 1576 O 149.434 -1.33387 -1.36427 0
M  V30 1577 C 146.574 -2.72062 -2.12312 0
M  V30 1578 C 145.687 -3.94514 -1.7602 0
M  V30 1579 C 144.822 -4.40903 -2.96273 0
M  V30 1580 C 143.861 -5.55953 -2.56092 0
M  V30 1581 N 142.998 -5.97209 -3.69169 0
M  V30 1582 H 147.838 -2.95575 -0.379406 0
M  V30 1583 H 145.375 -1.46048 -0.175606 0
M  V30 1584 H 147.333 -3.03931 -2.858 0
M  V30 1585 H 145.963 -1.93068 -2.58698 0
M  V30 1586 H 145.015 -3.68979 -0.925135 0
M  V30 1587 H 146.327 -4.7802 -1.42472 0
M  V30 1588 H 145.481 -4.74539 -3.78018 0
M  V30 1589 H 144.22 -3.56291 -3.33029 0
M  V30 1590 H 143.225 -5.21948 -1.72773 0
M  V30 1591 H 144.45 -6.42311 -2.20484 0
M  V30 1592 H 142.396 -5.15543 -4.05649 0
M  V30 1593 H 142.313 -6.75504 -3.39456 0
M  V30 1594 H 143.581 -6.35475 -4.51434 0
M  V30 1595 N 147.81 0.181792 -1.56548 0
M  V30 1596 C 149.057 0.900097 -1.81396 0
M  V30 1597 C 149.385 1.82695 -0.667281 0
M  V30 1598 O 148.64 1.92614 0.346146 0
M  V30 1599 C 148.939 1.73728 -3.12335 0
M  V30 1600 C 148.605 0.960255 -4.40556 0
M  V30 1601 C 147.267 0.745766 -4.75386 0
M  V30 1602 C 149.619 0.414477 -5.19549 0
M  V30 1603 C 146.947 -0.0257694 -5.86694 0
M  V30 1604 C 149.299 -0.343916 -6.31664 0
M  V30 1605 C 147.963 -0.569301 -6.65068 0
M  V30 1606 H 147.233 0.329369 -0.663775 0
M  V30 1607 H 149.88 0.165647 -1.90782 0
M  V30 1608 H 148.185 2.54081 -2.98245 0
M  V30 1609 H 149.882 2.29591 -3.28769 0
M  V30 1610 H 146.472 1.13746 -4.13231 0
M  V30 1611 H 150.656 0.567554 -4.93044 0
M  V30 1612 H 145.912 -0.210233 -6.11038 0
M  V30 1613 H 150.086 -0.774133 -6.92084 0
M  V30 1614 H 147.713 -1.16903 -7.51158 0
M  V30 1615 N 149.288 1.51039 0.449983 0
M  V30 1616 C 150.236 1.71995 1.5659 0
M  V30 1617 C 151.23 0.586029 1.5894 0
M  V30 1618 O 152.436 0.76709 1.62837 0
M  V30 1619 H 148.811 0.543233 0.520001 0
M  V30 1620 H 150.782 2.65562 1.36085 0
M  V30 1621 C 149.531 1.8506 2.9436 0
M  V30 1622 H 148.854 2.71712 2.93279 0
M  V30 1623 H 150.294 2.0374 3.71842 0
M  V30 1624 C 148.753 0.607277 3.31382 0
M  V30 1625 O 149.283 -0.243903 4.00959 0
M  V30 1626 N 147.489 0.455073 2.87015 0
M  V30 1627 H 147.036 1.14879 2.30566 0
M  V30 1628 H 146.994 -0.375611 3.12148 0
M  V30 1629 N 150.766 -0.704594 1.40972 0
M  V30 1630 C 152.013 -1.46458 1.39844 0
M  V30 1631 C 152.341 -1.94499 0.00447594 0
M  V30 1632 O 151.596 -1.69275 -0.982057 0
M  V30 1633 C 151.895 -2.698 2.34399 0
M  V30 1634 C 151.561 -2.40464 3.81429 0
M  V30 1635 C 150.223 -2.32174 4.21484 0
M  V30 1636 C 152.575 -2.16086 4.74296 0
M  V30 1637 C 149.903 -1.97589 5.52427 0
M  V30 1638 C 152.255 -1.83011 6.05549 0
M  V30 1639 C 150.919 -1.7321 6.44635 0
M  V30 1640 H 150.189 -0.535927 0.511725 0
M  V30 1641 H 152.836 -0.806124 1.73706 0
M  V30 1642 H 151.141 -3.40536 1.93759 0
M  V30 1643 H 152.838 -3.27919 2.30804 0
M  V30 1644 H 149.428 -2.47808 3.49699 0
M  V30 1645 H 153.612 -2.2144 4.4416 0
M  V30 1646 H 148.868 -1.88547 5.81601 0
M  V30 1647 H 153.042 -1.63164 6.77016 0
M  V30 1648 H 150.669 -1.46179 7.46013 0
M  V30 1649 N 152.244 -1.26651 -0.937939 0
M  V30 1650 C 153.154 -1.10276 -2.07066 0
M  V30 1651 C 154.17 -0.0354197 -1.73964 0
M  V30 1652 O 155.346 -0.239816 -1.99967 0
M  V30 1653 C 152.411 -0.740887 -3.38691 0
M  V30 1654 C 151.472 -1.88799 -3.85556 0
M  V30 1655 C 150.705 -1.54329 -5.10899 0
M  V30 1656 O 150.928 -0.446494 -5.6865 0
M  V30 1657 O 149.862 -2.37911 -5.52885 0
M  V30 1658 H 153.688 -2.05309 -2.23789 0
M  V30 1659 H 151.273 -1.05743 -1.0554 0
M  V30 1660 H 153.155 -0.55195 -4.1777 0
M  V30 1661 H 151.83 0.180022 -3.23199 0
M  V30 1662 H 150.737 -2.13191 -3.07409 0
M  V30 1663 H 152.07 -2.78874 -4.05574 0
M  V30 1664 N 153.722 1.14298 -1.08507 0
M  V30 1665 C 154.654 2.1907 -0.673859 0
M  V30 1666 C 155.667 1.60381 0.279577 0
M  V30 1667 O 156.856 1.78374 0.0670754 0
M  V30 1668 C 153.956 3.38888 0.0290979 0
M  V30 1669 C 153.129 4.27103 -0.943494 0
M  V30 1670 C 152.188 5.25477 -0.275676 0
M  V30 1671 O 151.214 5.61709 -0.920401 0
M  V30 1672 N 152.416 5.7227 0.974013 0
M  V30 1673 H 155.181 2.54965 -1.57521 0
M  V30 1674 H 152.742 1.29528 -0.971287 0
M  V30 1675 H 154.734 4.01761 0.48683 0
M  V30 1676 H 153.304 3.01309 0.832555 0
M  V30 1677 H 152.524 3.61149 -1.58004 0
M  V30 1678 H 153.812 4.82905 -1.60251 0
M  V30 1679 H 153.21 5.44965 1.51755 0
M  V30 1680 H 151.767 6.37127 1.37522 0
M  V30 1681 N 155.201 0.870884 1.31352 0
M  V30 1682 C 156.164 0.332243 2.26779 0
M  V30 1683 C 157.164 -0.517302 1.52252 0
M  V30 1684 O 158.354 -0.326477 1.71113 0
M  V30 1685 C 155.486 -0.528066 3.36785 0
M  V30 1686 H 156.679 1.17469 2.75937 0
M  V30 1687 H 154.232 0.64655 1.423 0
M  V30 1688 H 154.967 -1.39167 2.92922 0
M  V30 1689 H 154.752 0.0802582 3.92018 0
M  V30 1690 H 156.242 -0.897179 4.07849 0
M  V30 1691 N 156.679 -1.44442 0.630414 0
M  V30 1692 C 157.956 -1.9549 0.0655657 0
M  V30 1693 C 158.336 -1.5724 -1.40851 0
M  V30 1694 O 157.684 -0.846116 -2.12257 0
M  V30 1695 C 157.894 -3.47812 0.287691 0
M  V30 1696 C 159.242 -4.24216 0.180513 0
M  V30 1697 O 160.266 -3.55526 0.219019 0
M  V30 1698 O 159.125 -5.46434 0.0848493 0
M  V30 1699 H 156.219 -0.826688 -0.0227177 0
M  V30 1700 H 158.765 -1.54496 0.702068 0
M  V30 1701 H 157.537 -3.687 1.31056 0
M  V30 1702 H 157.16 -3.95751 -0.382984 0
M  V30 1703 N 158.157 -0.370918 -1.53173 0
M  V30 1704 C 159.573 -0.0200818 -1.59587 0
M  V30 1705 C 159.773 1.46279 -1.38581 0
M  V30 1706 O 158.829 2.22506 -1.19363 0
M  V30 1707 C 160.142 -0.4808 -2.96831 0
M  V30 1708 C 161.69 -0.435477 -3.09956 0
M  V30 1709 C 162.165 -0.872092 -4.4962 0
M  V30 1710 N 163.656 -0.827364 -4.55751 0
M  V30 1711 C 164.391 -1.13683 -5.62018 0
M  V30 1712 N 163.887 -1.51584 -6.76014 0
M  V30 1713 N 165.68 -1.05927 -5.52029 0
M  V30 1714 H 157.831 -1.33652 -1.65079 0
M  V30 1715 H 160.094 -0.546634 -0.774529 0
M  V30 1716 H 159.8 -1.51577 -3.1736 0
M  V30 1717 H 159.674 0.129796 -3.76977 0
M  V30 1718 H 162.061 0.590371 -2.89134 0
M  V30 1719 H 162.142 -1.08164 -2.31806 0
M  V30 1720 H 161.786 -1.89608 -4.71181 0
M  V30 1721 H 161.716 -0.203127 -5.26208 0
M  V30 1722 H 164.207 -0.548216 -3.73902 0
M  V30 1723 H 164.52 -1.73609 -7.53047 0
M  V30 1724 H 162.865 -1.55454 -6.77391 0
M  V30 1725 H 166.056 -0.762321 -4.61851 0
M  V30 1726 H 166.229 -1.30378 -6.34749 0
M  V30 1727 N 159.635 1.57281 -0.100228 0
M  V30 1728 C 160.884 1.93713 0.561984 0
M  V30 1729 C 161.197 0.984492 1.69018 0
M  V30 1730 O 162.403 1.24273 2.41389 0
M  V30 1731 C 160.859 3.4421 1.05106 0
M  V30 1732 C 160.467 4.47975 -0.0476628 0
M  V30 1733 C 162.211 3.89595 1.68571 0
M  V30 1734 C 160.118 5.89631 0.457055 0
M  V30 1735 H 159.048 0.723082 0.2137 0
M  V30 1736 H 161.699 1.82644 -0.177057 0
M  V30 1737 H 160.081 3.50449 1.84395 0
M  V30 1738 H 161.255 4.53385 -0.823333 0
M  V30 1739 H 159.57 4.1223 -0.587816 0
M  V30 1740 H 162.167 4.92832 2.07414 0
M  V30 1741 H 162.51 3.28526 2.55688 0
M  V30 1742 H 163.043 3.86078 0.958562 0
M  V30 1743 H 159.782 6.54411 -0.377616 0
M  V30 1744 H 159.302 5.87681 1.19962 0
M  V30 1745 H 160.981 6.40363 0.92437 0
M  V30 1746 N 161.113 -0.173488 1.56642 0
M  V30 1747 C 162.359 -0.891784 1.8214 0
M  V30 1748 C 162.692 -1.8199 0.677736 0
M  V30 1749 O 161.967 -1.91842 -0.320446 0
M  V30 1750 C 162.25 -1.68933 3.18015 0
M  V30 1751 C 162.103 -0.784487 4.42906 0
M  V30 1752 C 163.422 -2.65748 3.50808 0
M  V30 1753 H 160.541 -0.322761 0.662567 0
M  V30 1754 H 163.183 -0.158095 1.89341 0
M  V30 1755 H 161.333 -2.31482 3.12007 0
M  V30 1756 H 163.005 -0.172046 4.60979 0
M  V30 1757 H 161.248 -0.0924117 4.33702 0
M  V30 1758 H 161.919 -1.37799 5.34524 0
M  V30 1759 H 164.395 -2.13327 3.57255 0
M  V30 1760 H 163.271 -3.18619 4.4696 0
M  V30 1761 H 163.532 -3.45842 2.75401 0
M  V30 1762 N 162.591 -1.51276 -0.441967 0
M  V30 1763 C 163.538 -1.72256 -1.53612 0
M  V30 1764 C 164.508 -0.564164 -1.56225 0
M  V30 1765 O 165.693 -0.798074 -1.73307 0
M  V30 1766 C 162.833 -1.84932 -2.91366 0
M  V30 1767 C 161.946 -3.12459 -2.98317 0
M  V30 1768 C 161.081 -3.15758 -4.27166 0
M  V30 1769 C 160.12 -4.37619 -4.27967 0
M  V30 1770 N 159.257 -4.38493 -5.48333 0
M  V30 1771 H 164.097 -2.65654 -1.35026 0
M  V30 1772 H 161.634 -1.31662 -0.656009 0
M  V30 1773 H 163.592 -1.90263 -3.7129 0
M  V30 1774 H 162.222 -0.949461 -3.08521 0
M  V30 1775 H 161.274 -3.1646 -2.11086 0
M  V30 1776 H 162.586 -4.02382 -2.94771 0
M  V30 1777 H 161.74 -3.19979 -5.15459 0
M  V30 1778 H 160.479 -2.23715 -4.33362 0
M  V30 1779 H 159.484 -4.33579 -3.38067 0
M  V30 1780 H 160.709 -5.30921 -4.23438 0
M  V30 1781 H 158.655 -3.49318 -5.55259 0
M  V30 1782 H 158.572 -5.22219 -5.46647 0
M  V30 1783 H 159.84 -4.469 -6.38671 0
M  V30 1784 N 164.069 0.697108 -1.41344 0
M  V30 1785 C 165.316 1.45714 -1.40619 0
M  V30 1786 C 165.644 1.94494 -0.0147907 0
M  V30 1787 O 164.899 1.69794 0.973066 0
M  V30 1788 C 165.198 2.68553 -2.35826 0
M  V30 1789 C 164.864 2.38438 -3.82698 0
M  V30 1790 C 163.526 2.29936 -4.22709 0
M  V30 1791 C 165.878 2.13567 -4.75435 0
M  V30 1792 C 163.206 1.94656 -5.53467 0
M  V30 1793 C 165.558 1.79797 -6.06511 0
M  V30 1794 C 164.222 1.69789 -6.45545 0
M  V30 1795 H 163.492 0.533206 -0.51456 0
M  V30 1796 H 166.139 0.796901 -1.74131 0
M  V30 1797 H 164.444 3.39503 -1.95563 0
M  V30 1798 H 166.141 3.2669 -2.32539 0
M  V30 1799 H 162.731 2.4595 -3.51008 0
M  V30 1800 H 166.915 2.19082 -4.45328 0
M  V30 1801 H 162.171 1.8546 -5.82593 0
M  V30 1802 H 166.345 1.59572 -6.77872 0
M  V30 1803 H 163.972 1.4222 -7.46778 0
M  V30 1804 N 165.547 1.27147 0.931209 0
M  V30 1805 C 166.51 1.09615 2.01289 0
M  V30 1806 C 167.51 0.0412581 1.60747 0
M  V30 1807 O 168.7 0.285545 1.71844 0
M  V30 1808 C 165.832 0.669447 3.34262 0
M  V30 1809 H 167.025 2.05662 2.18273 0
M  V30 1810 H 164.578 1.09885 1.11153 0
M  V30 1811 H 165.313 -0.292572 3.22978 0
M  V30 1812 H 165.098 1.43127 3.65044 0
M  V30 1813 H 166.588 0.568921 4.13706 0
M  V30 1814 N 167.025 -1.13721 1.09112 0
M  V30 1815 C 167.972 -2.19031 0.727591 0
M  V30 1816 C 168.942 -1.63555 -0.289656 0
M  V30 1817 O 170.127 -1.90023 -0.172026 0
M  V30 1818 C 167.267 -3.4477 0.15082 0
M  V30 1819 C 166.38 -4.14365 1.22172 0
M  V30 1820 C 165.515 -5.27709 0.608042 0
M  V30 1821 C 164.554 -5.89147 1.66047 0
M  V30 1822 N 163.691 -6.93929 1.06806 0
M  V30 1823 H 168.531 -2.49475 1.62991 0
M  V30 1824 H 166.068 -1.22499 0.81439 0
M  V30 1825 H 168.026 -4.16714 -0.201358 0
M  V30 1826 H 166.656 -3.14787 -0.714783 0
M  V30 1827 H 165.708 -3.40737 1.69122 0
M  V30 1828 H 167.02 -4.56114 2.01895 0
M  V30 1829 H 166.174 -6.06355 0.204523 0
M  V30 1830 H 164.913 -4.872 -0.220769 0
M  V30 1831 H 163.918 -5.09198 2.07357 0
M  V30 1832 H 165.143 -6.31729 2.49189 0
M  V30 1833 H 163.089 -6.55483 0.260476 0
M  V30 1834 H 163.006 -7.34202 1.8023 0
M  V30 1835 H 164.274 -7.76434 0.690644 0
M  V30 1836 N 168.503 -0.877838 -1.30888 0
M  V30 1837 C 169.466 -0.344265 -2.266 0
M  V30 1838 C 170.466 0.50922 -1.52524 0
M  V30 1839 O 171.656 0.317398 -1.71284 0
M  V30 1840 C 168.788 0.510198 -3.37061 0
M  V30 1841 H 169.981 -1.1893 -2.7531 0
M  V30 1842 H 167.534 -0.654088 -1.41956 0
M  V30 1843 H 168.269 1.37612 -2.93655 0
M  V30 1844 H 168.054 -0.101047 -3.9197 0
M  V30 1845 H 169.544 0.875537 -4.08319 0
M  V30 1846 N 169.982 1.44106 -0.638065 0
M  V30 1847 C 170.93 2.3248 0.0748149 0
M  V30 1848 C 171.924 1.47746 0.828702 0
M  V30 1849 O 173.13 1.64049 0.740816 0
M  V30 1850 H 169.505 0.750771 0.0429686 0
M  V30 1851 H 171.476 2.90348 -0.688504 0
M  V30 1852 C 170.225 3.31843 1.03805 0
M  V30 1853 H 169.548 3.97059 0.467375 0
M  V30 1854 H 170.988 3.96345 1.50622 0
M  V30 1855 C 169.447 2.61291 2.1267 0
M  V30 1856 O 169.977 2.41702 3.20847 0
M  V30 1857 N 168.183 2.20915 1.88798 0
M  V30 1858 H 167.73 2.37047 1.00829 0
M  V30 1859 H 167.688 1.74038 2.61836 0
M  V30 1860 N 171.46 0.379036 1.52974 0
M  V30 1861 C 172.708 -0.206014 2.01047 0
M  V30 1862 C 173.029 -1.48175 1.26765 0
M  V30 1863 O 172.299 -1.92085 0.384743 0
M  V30 1864 H 170.879 -0.0791184 0.742798 0
M  V30 1865 H 173.541 0.508366 1.88153 0
M  V30 1866 H 172.637 -0.423501 3.09213 0
M  V30 1867 N 172.938 -1.57226 0.108567 0
M  V30 1868 C 173.871 -2.10447 -0.882464 0
M  V30 1869 C 174.849 -1.01829 -1.26766 0
M  V30 1870 O 176.033 -1.29415 -1.37054 0
M  V30 1871 C 173.16 -2.59258 -2.17952 0
M  V30 1872 C 172.206 -3.79662 -1.94318 0
M  V30 1873 S 173.039 -5.22586 -1.16892 0
M  V30 1874 C 174.195 -5.74758 -2.47799 0
M  V30 1875 H 174.428 -2.94178 -0.429745 0
M  V30 1876 H 171.961 -1.54043 -0.105 0
M  V30 1877 H 173.919 -2.88036 -2.92482 0
M  V30 1878 H 172.58 -1.75728 -2.60343 0
M  V30 1879 H 171.773 -4.11928 -2.90399 0
M  V30 1880 H 171.375 -3.51446 -1.27913 0
M  V30 1881 H 173.667 -5.83846 -3.43701 0
M  V30 1882 H 174.61 -6.73027 -2.20093 0
M  V30 1883 H 175.018 -5.02763 -2.56689 0
M  V30 1884 N 174.416 0.165178 -1.56732 0
M  V30 1885 C 175.693 0.908443 -1.73224 0
M  V30 1886 C 176.073 2.0013 -0.67165 0
M  V30 1887 O 175.421 2.26353 0.31253 0
M  V30 1888 C 175.631 1.46756 -3.16644 0
M  V30 1889 C 176.979 1.93809 -3.77787 0
M  V30 1890 O 178.003 1.56537 -3.1996 0
M  V30 1891 O 176.862 2.62486 -4.79336 0
M  V30 1892 H 173.956 0.428025 -0.707618 0
M  V30 1893 H 176.502 0.152526 -1.69013 0
M  V30 1894 H 175.274 0.68129 -3.85323 0
M  V30 1895 H 174.897 2.28749 -3.25207 0
M  V30 1896 N 175.894 1.51508 0.433938 0
M  V30 1897 C 177.143 1.63578 1.18005 0
M  V30 1898 C 177.456 0.359514 1.92268 0
M  V30 1899 O 178.662 0.359632 2.69108 0
M  V30 1900 C 177.118 2.88901 2.14626 0
M  V30 1901 C 176.726 4.23544 1.45995 0
M  V30 1902 C 178.47 3.10328 2.89649 0
M  V30 1903 C 176.377 5.40014 2.4112 0
M  V30 1904 H 175.307 0.609277 0.444182 0
M  V30 1905 H 177.958 1.77978 0.446773 0
M  V30 1906 H 176.34 2.68142 2.91403 0
M  V30 1907 H 177.514 4.54696 0.747532 0
M  V30 1908 H 175.829 4.08021 0.831115 0
M  V30 1909 H 178.426 3.94518 3.60915 0
M  V30 1910 H 178.769 2.23544 3.51189 0
M  V30 1911 H 179.302 3.31443 2.19978 0
M  V30 1912 H 176.041 6.29068 1.84264 0
M  V30 1913 H 175.561 5.13233 3.10406 0
M  V30 1914 H 177.24 5.72099 3.02177 0
M  V30 1915 N 177.372 -0.689602 1.41712 0
M  V30 1916 C 178.788 -1.00093 1.24312 0
M  V30 1917 C 178.988 -2.01036 0.136729 0
M  V30 1918 O 178.044 -2.47562 -0.496918 0
M  V30 1919 C 179.357 -1.51985 2.59463 0
M  V30 1920 C 180.905 -1.63838 2.66695 0
M  V30 1921 C 181.38 -2.1913 4.02177 0
M  V30 1922 N 182.871 -2.26483 4.04054 0
M  V30 1923 C 183.606 -2.70306 5.0569 0
M  V30 1924 N 183.102 -3.13691 6.17713 0
M  V30 1925 N 184.895 -2.69923 4.9305 0
M  V30 1926 H 177.046 -0.0210029 2.1239 0
M  V30 1927 H 179.309 -0.0718733 0.945272 0
M  V30 1928 H 179.015 -0.85269 3.41207 0
M  V30 1929 H 178.889 -2.50103 2.82362 0
M  V30 1930 H 181.276 -2.29664 1.85306 0
M  V30 1931 H 181.357 -0.642492 2.476 0
M  V30 1932 H 181.001 -1.53918 4.84016 0
M  V30 1933 H 180.931 -3.19482 4.18615 0
M  V30 1934 H 183.422 -1.95874 3.23174 0
M  V30 1935 H 183.735 -3.45773 6.9113 0
M  V30 1936 H 182.08 -3.11585 6.21241 0
M  V30 1937 H 185.271 -2.35382 4.04614 0
M  V30 1938 H 185.444 -3.03758 5.72394 0
M  V30 1939 N 178.85 -1.27639 -0.924453 0
M  V30 1940 C 180.097 -1.14167 -1.67249 0
M  V30 1941 C 180.425 0.311863 -1.91984 0
M  V30 1942 O 179.68 1.24425 -1.51053 0
M  V30 1943 C 179.979 -1.87407 -3.04325 0
M  V30 1944 C 179.645 -3.37249 -2.99289 0
M  V30 1945 C 178.307 -3.7812 -2.97622 0
M  V30 1946 C 180.659 -4.32845 -2.90336 0
M  V30 1947 C 177.987 -5.12944 -2.8479 0
M  V30 1948 C 180.339 -5.6773 -2.79045 0
M  V30 1949 C 179.003 -6.07889 -2.7573 0
M  V30 1950 H 178.273 -0.417766 -0.612007 0
M  V30 1951 H 180.92 -1.58286 -1.07786 0
M  V30 1952 H 179.225 -1.35805 -3.67511 0
M  V30 1953 H 180.922 -1.74408 -3.61086 0
M  V30 1954 H 177.512 -3.04748 -3.01374 0
M  V30 1955 H 181.696 -4.02239 -2.90719 0
M  V30 1956 H 176.952 -5.432 -2.80612 0
M  V30 1957 H 181.126 -6.41472 -2.71083 0
M  V30 1958 H 178.753 -7.12314 -2.65544 0
M  V30 1959 N 180.328 1.1314 -1.09713 0
M  V30 1960 C 181.278 2.16709 -0.708593 0
M  V30 1961 C 182.262 1.58471 0.278523 0
M  V30 1962 O 183.454 1.76779 0.088427 0
M  V30 1963 C 180.583 3.43039 -0.133923 0
M  V30 1964 C 179.669 4.08277 -1.14763 0
M  V30 1965 N 180.06 4.48637 -2.33577 0
M  V30 1966 C 178.358 4.34954 -0.986446 0
M  V30 1967 C 179.059 4.9952 -2.98085 0
M  V30 1968 N 178.035 4.94561 -2.25632 0
M  V30 1969 H 181.837 2.45672 -1.61315 0
M  V30 1970 H 179.351 1.29967 -0.973775 0
M  V30 1971 H 181.348 4.16583 0.162465 0
M  V30 1972 H 180.008 3.15549 0.765447 0
M  V30 1973 H 181.019 4.41246 -2.7115 0
M  V30 1974 H 177.696 4.17258 -0.142008 0
M  V30 1975 H 179.086 5.40521 -3.99108 0
M  V30 1976 N 181.806 0.884767 1.30421 0
M  V30 1977 C 183.034 0.518044 2.0031 0
M  V30 1978 C 183.449 -0.893408 1.66324 0
M  V30 1979 O 182.806 -1.5875 0.900262 0
M  V30 1980 C 182.857 0.682997 3.54989 0
M  V30 1981 O 182.578 2.03888 3.87764 0
M  V30 1982 C 184.079 0.31924 4.42149 0
M  V30 1983 H 181.299 0.200265 0.640418 0
M  V30 1984 H 183.843 1.19001 1.6631 0
M  V30 1985 H 181.998 0.0584052 3.87356 0
M  V30 1986 H 182.412 2.05735 4.82466 0
M  V30 1987 H 183.886 0.485555 5.4986 0
M  V30 1988 H 184.363 -0.742717 4.32875 0
M  V30 1989 H 184.969 0.920147 4.15227 0
M  V30 1990 N 183.284 -1.43765 0.645699 0
M  V30 1991 C 184.214 -2.33471 -0.0370477 0
M  V30 1992 C 185.195 -1.49042 -0.819779 0
M  V30 1993 O 186.38 -1.77726 -0.782758 0
M  V30 1994 C 183.51 -3.32311 -1.0093 0
M  V30 1995 C 182.464 -4.2667 -0.337201 0
M  V30 1996 C 181.79 -5.1549 -1.42037 0
M  V30 1997 C 183.09 -5.16657 0.765706 0
M  V30 1998 H 184.784 -2.90809 0.712069 0
M  V30 1999 H 182.33 -1.39834 0.343876 0
M  V30 2000 H 184.283 -3.9396 -1.49578 0
M  V30 2001 H 183.007 -2.73213 -1.78948 0
M  V30 2002 H 181.666 -3.66374 0.128771 0
M  V30 2003 H 181.314 -4.52735 -2.1918 0
M  V30 2004 H 181.014 -5.79438 -0.975966 0
M  V30 2005 H 182.538 -5.80012 -1.90838 0
M  V30 2006 H 183.952 -5.72158 0.361702 0
M  V30 2007 H 182.349 -5.89286 1.13413 0
M  V30 2008 H 183.419 -4.56796 1.62683 0
M  V30 2009 N 184.763 -0.387143 -1.52771 0
M  V30 2010 C 186.009 0.196025 -2.0185 0
M  V30 2011 C 186.342 1.46641 -1.27319 0
M  V30 2012 O 185.617 1.90889 -0.373032 0
M  V30 2013 C 185.9 0.466136 -3.5707 0
M  V30 2014 C 185.753 -0.819385 -4.42274 0
M  V30 2015 C 187.072 1.25768 -4.21747 0
M  V30 2016 H 184.191 0.0697708 -0.73369 0
M  V30 2017 H 186.833 -0.516286 -1.82851 0
M  V30 2018 H 184.983 1.07293 -3.7339 0
M  V30 2019 H 186.655 -1.4563 -4.37709 0
M  V30 2020 H 184.898 -1.43517 -4.09372 0
M  V30 2021 H 185.569 -0.585065 -5.48891 0
M  V30 2022 H 188.045 0.744167 -4.09391 0
M  V30 2023 H 186.921 1.41541 -5.30337 0
M  V30 2024 H 187.182 2.27228 -3.79236 0
M  V30 2025 N 186.241 1.57166 -0.116904 0
M  V30 2026 C 187.487 1.96206 0.536166 0
M  V30 2027 C 187.842 0.99915 1.64422 0
M  V30 2028 O 187.135 0.0288195 1.91578 0
M  V30 2029 C 187.329 3.39508 1.11664 0
M  V30 2030 C 187.158 4.49651 0.0663474 0
M  V30 2031 C 185.928 5.03982 -0.36474 0
M  V30 2032 C 188.126 5.09322 -0.713829 0
M  V30 2033 N 186.108 5.97699 -1.40102 0
M  V30 2034 C 187.479 5.98963 -1.60136 0
M  V30 2035 C 189.534 4.91989 -0.764948 0
M  V30 2036 C 188.237 6.73128 -2.53556 0
M  V30 2037 C 190.263 5.66833 -1.68685 0
M  V30 2038 C 189.625 6.56158 -2.56196 0
M  V30 2039 H 185.724 0.764203 0.165886 0
M  V30 2040 H 188.308 1.93623 -0.204535 0
M  V30 2041 H 186.479 3.42743 1.82707 0
M  V30 2042 H 188.211 3.65677 1.73386 0
M  V30 2043 H 184.966 4.73592 0.027252 0
M  V30 2044 H 185.39 6.49262 -1.91802 0
M  V30 2045 H 190.032 4.22676 -0.102501 0
M  V30 2046 H 187.75 7.41689 -3.20816 0
M  V30 2047 H 191.336 5.55427 -1.73181 0
M  V30 2048 H 190.216 7.13057 -3.26372 0
M  V30 2049 N 187.719 -0.156864 1.56817 0
M  V30 2050 C 188.669 -1.19891 1.93934 0
M  V30 2051 C 189.653 -1.39061 0.809372 0
M  V30 2052 O 190.845 -1.40789 1.07273 0
M  V30 2053 C 187.974 -2.53493 2.31508 0
M  V30 2054 C 187.06 -2.37957 3.51052 0
M  V30 2055 N 187.451 -1.92158 4.67877 0
M  V30 2056 C 185.749 -2.68739 3.55943 0
M  V30 2057 C 186.45 -1.8943 5.49992 0
M  V30 2058 N 185.426 -2.32375 4.91429 0
M  V30 2059 H 189.228 -0.836746 2.81737 0
M  V30 2060 H 186.742 -0.365012 1.58245 0
M  V30 2061 H 188.739 -3.28811 2.56299 0
M  V30 2062 H 187.399 -2.905 1.45051 0
M  V30 2063 H 188.41 -1.62274 4.91821 0
M  V30 2064 H 185.087 -3.09687 2.80001 0
M  V30 2065 H 186.477 -1.55596 6.53636 0
M  V30 2066 N 189.197 -1.51736 -0.425897 0
M  V30 2067 C 190.422 -1.69082 -1.20108 0
M  V30 2068 C 190.847 -0.392398 -1.83962 0
M  V30 2069 O 190.205 0.64858 -1.69302 0
M  V30 2070 C 190.253 -2.81604 -2.25237 0
M  V30 2071 O 189.357 -2.46004 -3.30992 0
M  V30 2072 H 188.698 -0.563408 -0.35138 0
M  V30 2073 H 191.228 -1.98358 -0.501512 0
M  V30 2074 H 191.238 -3.06025 -2.69838 0
M  V30 2075 H 189.913 -3.75817 -1.78142 0
M  V30 2076 H 188.49 -2.32195 -2.91787 0
M  V30 2077 N 190.675 0.682077 -1.42076 0
M  V30 2078 C 191.607 1.80755 -1.40926 0
M  V30 2079 C 192.62 1.59833 -0.309398 0
M  V30 2080 O 193.809 1.69087 -0.572014 0
M  V30 2081 C 190.909 3.17744 -1.17865 0
M  V30 2082 C 190.082 3.65578 -2.40149 0
M  V30 2083 C 189.141 4.81277 -2.12742 0
M  V30 2084 O 188.167 4.92197 -2.85887 0
M  V30 2085 N 189.369 5.69474 -1.12602 0
M  V30 2086 H 192.134 1.82229 -2.37935 0
M  V30 2087 H 189.695 0.864903 -1.36861 0
M  V30 2088 H 191.687 3.9279 -0.9746 0
M  V30 2089 H 190.257 3.11214 -0.294068 0
M  V30 2090 H 189.477 2.81291 -2.76169 0
M  V30 2091 H 190.765 3.94278 -3.21593 0
M  V30 2092 H 190.163 5.63297 -0.520899 0
M  V30 2093 H 188.72 6.44363 -0.981842 0
M  V30 2094 N 192.153 1.28127 0.917671 0
M  V30 2095 C 193.399 1.15223 1.66888 0
M  V30 2096 C 193.732 -0.299293 1.9188 0
M  V30 2097 O 193.007 -1.21805 1.51637 0
M  V30 2098 C 193.29 1.94706 3.02922 0
M  V30 2099 C 193.143 3.47898 2.85109 0
M  V30 2100 C 194.462 1.75939 4.03402 0
M  V30 2101 H 191.581 0.419946 0.605652 0
M  V30 2102 H 194.223 1.57398 1.06423 0
M  V30 2103 H 192.373 1.58864 3.54534 0
M  V30 2104 H 194.045 3.93624 2.40537 0
M  V30 2105 H 192.288 3.7373 2.20246 0
M  V30 2106 H 192.959 3.98765 3.81694 0
M  V30 2107 H 195.435 2.07209 3.60837 0
M  V30 2108 H 194.311 2.33931 4.96556 0
M  V30 2109 H 194.572 0.709877 4.36364 0
M  V30 2110 N 193.631 -1.12557 1.10312 0
M  V30 2111 C 195.042 -1.65574 0.862678 0
M  V30 2112 C 195.393 -1.86566 -0.607256 0
M  V30 2113 O 194.518 -1.59121 -1.46662 0
M  V30 2114 C 195.113 -3.00776 1.55947 0
M  V30 2115 C 193.672 -3.50748 1.36576 0
M  V30 2116 C 192.819 -2.25797 1.60968 0
M  V30 2117 H 195.77 -0.963552 1.26101 0
M  V30 2118 H 195.791 -3.67185 0.997753 0
M  V30 2119 H 195.303 -2.85465 2.62928 0
M  V30 2120 H 193.404 -3.71245 0.317531 0
M  V30 2121 H 193.517 -4.30289 2.10686 0
M  V30 2122 H 191.881 -2.32841 1.03234 0
M  V30 2123 H 192.664 -2.13043 2.69198 0
M  V30 2124 N 195.109 -0.891671 -1.2995 0
M  V30 2125 C 196.041 -0.320695 -2.26945 0
M  V30 2126 C 197.054 0.528497 -1.53983 0
M  V30 2127 O 198.243 0.346959 -1.75096 0
M  V30 2128 C 195.343 0.562066 -3.34207 0
M  V30 2129 C 194.516 -0.259576 -4.36629 0
M  V30 2130 C 193.575 0.554739 -5.23268 0
M  V30 2131 O 192.601 -0.0249311 -5.69195 0
M  V30 2132 N 193.803 1.8625 -5.4981 0
M  V30 2133 H 196.568 -1.15432 -2.76578 0
M  V30 2134 H 194.129 -0.755336 -1.432 0
M  V30 2135 H 196.121 1.11304 -3.89093 0
M  V30 2136 H 194.691 1.29637 -2.84452 0
M  V30 2137 H 193.911 -0.991986 -3.81514 0
M  V30 2138 H 195.199 -0.822564 -5.02107 0
M  V30 2139 H 194.597 2.35628 -5.14292 0
M  V30 2140 H 193.154 2.36078 -6.07545 0
M  V30 2141 N 196.587 1.43421 -0.653314 0
M  V30 2142 C 197.833 2.02641 -0.175593 0
M  V30 2143 C 198.188 1.5062 1.19713 0
M  V30 2144 O 197.481 0.689697 1.78756 0
M  V30 2145 C 197.675 3.57176 -0.126623 0
M  V30 2146 C 197.504 4.24191 -1.49306 0
M  V30 2147 C 196.274 4.60257 -2.08547 0
M  V30 2148 C 198.472 4.53193 -2.43148 0
M  V30 2149 N 196.454 5.12345 -3.38194 0
M  V30 2150 C 197.825 5.06601 -3.57429 0
M  V30 2151 C 199.88 4.35161 -2.41949 0
M  V30 2152 C 198.583 5.43875 -4.70736 0
M  V30 2153 C 200.609 4.73498 -3.54336 0
M  V30 2154 C 199.971 5.27039 -4.67343 0
M  V30 2155 H 196.07 0.77441 -0.108686 0
M  V30 2156 H 198.654 1.74596 -0.861638 0
M  V30 2157 H 196.825 3.84784 0.528766 0
M  V30 2158 H 198.557 4.03078 0.36198 0
M  V30 2159 H 195.312 4.45302 -1.61255 0
M  V30 2160 H 195.736 5.42842 -4.04538 0
M  V30 2161 H 200.378 3.9304 -1.55818 0
M  V30 2162 H 198.096 5.8494 -5.57558 0
M  V30 2163 H 201.682 4.61241 -3.5461 0
M  V30 2164 H 200.562 5.56153 -5.52868 0
M  V30 2165 N 198.065 0.39524 1.52563 0
M  V30 2166 C 199.312 -0.185044 2.01653 0
M  V30 2167 C 199.64 -1.46317 1.28146 0
M  V30 2168 O 198.895 -1.9213 0.372074 0
M  V30 2169 C 199.194 -0.493444 3.53977 0
M  V30 2170 C 198.86 0.69384 4.4553 0
M  V30 2171 C 197.522 1.01954 4.70275 0
M  V30 2172 C 199.874 1.48785 4.99512 0
M  V30 2173 C 197.202 2.14069 5.46252 0
M  V30 2174 C 199.554 2.59965 5.76716 0
M  V30 2175 C 198.218 2.93037 5.99738 0
M  V30 2176 H 197.488 -0.0677123 0.7379 0
M  V30 2177 H 200.135 0.533807 1.8391 0
M  V30 2178 H 198.44 -1.29369 3.69825 0
M  V30 2179 H 200.137 -0.955163 3.89458 0
M  V30 2180 H 196.727 0.429987 4.26438 0
M  V30 2181 H 200.911 1.24946 4.80315 0
M  V30 2182 H 196.167 2.40056 5.62302 0
M  V30 2183 H 200.341 3.21887 6.17545 0
M  V30 2184 H 197.968 3.8003 6.58393 0
M  V30 2185 N 199.544 -1.57102 0.125237 0
M  V30 2186 C 200.791 -1.95407 -0.531248 0
M  V30 2187 C 201.119 -1.0089 -1.66287 0
M  V30 2188 O 200.374 -0.0339431 -1.95671 0
M  V30 2189 C 200.673 -3.40096 -1.09862 0
M  V30 2190 C 200.339 -4.50815 -0.0876989 0
M  V30 2191 C 199.001 -4.80824 0.19026 0
M  V30 2192 C 201.353 -5.17724 0.600902 0
M  V30 2193 C 198.681 -5.75058 1.163 0
M  V30 2194 C 201.033 -6.13005 1.56231 0
M  V30 2195 C 199.697 -6.41403 1.8482 0
M  V30 2196 H 198.967 -0.715046 -0.194397 0
M  V30 2197 H 201.614 -1.90373 0.207463 0
M  V30 2198 H 199.919 -3.41855 -1.91422 0
M  V30 2199 H 201.616 -3.6705 -1.61478 0
M  V30 2200 H 198.206 -4.27444 -0.314528 0
M  V30 2201 H 202.39 -4.94691 0.399333 0
M  V30 2202 H 197.646 -5.95362 1.39117 0
M  V30 2203 H 201.82 -6.63934 2.10153 0
M  V30 2204 H 199.447 -7.14229 2.60349 0
M  V30 2205 N 201.022 0.148545 -1.56898 0
M  V30 2206 C 201.952 1.18524 -2.01182 0
M  V30 2207 C 202.933 1.4489 -0.891123 0
M  V30 2208 O 204.118 1.55836 -1.15882 0
M  V30 2209 C 201.248 2.51879 -2.39112 0
M  V30 2210 C 200.202 2.40038 -3.54353 0
M  V30 2211 C 199.528 3.78089 -3.78091 0
M  V30 2212 C 200.828 1.88577 -4.87069 0
M  V30 2213 H 202.522 0.817029 -2.88036 0
M  V30 2214 H 200.068 0.391575 -1.38574 0
M  V30 2215 H 202.021 3.24627 -2.68692 0
M  V30 2216 H 200.745 2.90532 -1.49193 0
M  V30 2217 H 199.404 1.69742 -3.24936 0
M  V30 2218 H 199.052 4.14175 -2.85426 0
M  V30 2219 H 198.752 3.71028 -4.55645 0
M  V30 2220 H 200.276 4.52387 -4.10095 0
M  V30 2221 H 201.69 2.51117 -5.15377 0
M  V30 2222 H 200.087 1.9241 -5.68417 0
M  V30 2223 H 201.157 0.84136 -4.77545 0
M  V30 2224 N 202.5 1.5196 0.417844 0
M  V30 2225 C 203.777 1.56146 1.17803 0
M  V30 2226 C 204.157 0.337275 2.08388 0
M  V30 2227 O 203.505 -0.676447 2.18258 0
M  V30 2228 C 203.715 2.88566 1.96293 0
M  V30 2229 C 205.063 3.41244 2.52662 0
M  V30 2230 O 206.087 2.90247 2.06483 0
M  V30 2231 O 204.946 4.30273 3.36938 0
M  V30 2232 H 202.04 0.628598 0.537395 0
M  V30 2233 H 204.586 1.64283 0.425331 0
M  V30 2234 H 203.358 3.69116 1.2988 0
M  V30 2235 H 202.981 2.83681 2.78587 0
M  V30 2236 N 203.978 -0.674533 1.42435 0
M  V30 2237 C 204.925 -1.78807 1.45934 0
M  V30 2238 C 205.895 -1.63157 0.311271 0
M  V30 2239 O 207.08 -1.83707 0.515383 0
M  V30 2240 C 204.22 -3.16839 1.36773 0
M  V30 2241 C 203.333 -3.43774 2.61617 0
M  V30 2242 C 202.468 -4.71536 2.44597 0
M  V30 2243 C 201.507 -4.91505 3.64814 0
M  V30 2244 N 200.644 -6.10508 3.46734 0
M  V30 2245 H 205.484 -1.75151 2.41093 0
M  V30 2246 H 203.021 -0.85504 1.19697 0
M  V30 2247 H 204.979 -3.96606 1.29459 0
M  V30 2248 H 203.609 -3.19619 0.452089 0
M  V30 2249 H 202.661 -2.58259 2.79297 0
M  V30 2250 H 203.973 -3.54423 3.50978 0
M  V30 2251 H 203.127 -5.59393 2.3487 0
M  V30 2252 H 201.866 -4.6317 1.52726 0
M  V30 2253 H 200.871 -4.0209 3.74972 0
M  V30 2254 H 202.096 -5.01716 4.57665 0
M  V30 2255 H 200.042 -6.03315 2.5758 0
M  V30 2256 H 199.959 -6.2202 4.29682 0
M  V30 2257 H 201.227 -7.01044 3.40819 0
M  V30 2258 N 205.456 -1.28612 -0.910864 0
M  V30 2259 C 206.366 -1.14643 -2.0468 0
M  V30 2260 C 207.382 -0.0723121 -1.7385 0
M  V30 2261 O 208.558 -0.282178 -1.99413 0
M  V30 2262 C 205.623 -0.812561 -3.37044 0
M  V30 2263 C 204.684 -1.96935 -3.81465 0
M  V30 2264 C 203.917 -1.65131 -5.07511 0
M  V30 2265 O 204.14 -0.567013 -5.67575 0
M  V30 2266 O 203.074 -2.49585 -5.47714 0
M  V30 2267 H 206.9 -2.1001 -2.19384 0
M  V30 2268 H 204.485 -1.07958 -1.03274 0
M  V30 2269 H 206.367 -0.640441 -4.16505 0
M  V30 2270 H 205.042 0.111426 -3.23508 0
M  V30 2271 H 203.949 -2.19664 -3.02818 0
M  V30 2272 H 205.282 -2.87414 -3.99567 0
M  V30 2273 N 206.934 1.1197 -1.10907 0
M  V30 2274 C 208.182 1.83225 -0.852819 0
M  V30 2275 C 208.503 1.84769 0.623341 0
M  V30 2276 O 207.773 1.3143 1.45269 0
M  V30 2277 H 206.353 0.67849 -0.312507 0
M  V30 2278 H 209.015 1.3556 -1.40033 0
M  V30 2279 H 208.111 2.87265 -1.22005 0
M  V30 2280 N 208.412 0.89855 1.29475 0
M  V30 2281 C 209.359 0.373819 2.27753 0
M  V30 2282 C 210.329 -0.543444 1.56958 0
M  V30 2283 O 211.514 -0.468934 1.84948 0
M  V30 2284 C 208.654 -0.393648 3.42848 0
M  V30 2285 C 207.767 0.554379 4.28428 0
M  V30 2286 C 206.902 -0.230026 5.30702 0
M  V30 2287 C 205.941 0.712599 6.07938 0
M  V30 2288 N 205.078 -0.0373283 7.0209 0
M  V30 2289 H 209.918 1.21699 2.72017 0
M  V30 2290 H 207.455 0.611456 1.33789 0
M  V30 2291 H 209.413 -0.85466 4.08352 0
M  V30 2292 H 208.043 -1.20128 2.99615 0
M  V30 2293 H 207.095 1.13391 3.63107 0
M  V30 2294 H 208.407 1.27597 4.82204 0
M  V30 2295 H 207.561 -0.752288 6.02018 0
M  V30 2296 H 206.3 -0.984758 4.77654 0
M  V30 2297 H 205.305 1.24637 5.35486 0
M  V30 2298 H 206.53 1.46664 6.63074 0
M  V30 2299 H 204.476 -0.774348 6.51414 0
M  V30 2300 H 204.393 0.624374 7.53417 0
M  V30 2301 H 205.661 -0.539891 7.77628 0
M  V30 2302 N 209.89 -1.43072 0.660911 0
M  V30 2303 C 211.301 -1.84932 0.256348 0
M  V30 2304 C 211.652 -1.55325 -1.19868 0
M  V30 2305 O 210.777 -1.00607 -1.91591 0
M  V30 2306 C 211.372 -3.35684 0.458475 0
M  V30 2307 C 209.931 -3.76245 0.108161 0
M  V30 2308 C 209.078 -2.66749 0.757641 0
M  V30 2309 H 212.029 -1.33116 0.864051 0
M  V30 2310 H 212.05 -3.79365 -0.293683 0
M  V30 2311 H 211.562 -3.572 1.51755 0
M  V30 2312 H 209.663 -3.60338 -0.948014 0
M  V30 2313 H 209.776 -4.76058 0.538992 0
M  V30 2314 H 208.14 -2.53989 0.190185 0
M  V30 2315 H 208.923 -2.91092 1.81989 0
M  V30 2316 N 211.368 -0.403325 -1.52352 0
M  V30 2317 C 212.301 0.469463 -2.23319 0
M  V30 2318 C 213.279 1.05272 -1.23922 0
M  V30 2319 O 214.463 1.10169 -1.52954 0
M  V30 2320 C 211.59 1.6511 -2.9573 0
M  V30 2321 C 210.636 1.19178 -4.0951 0
M  V30 2322 S 211.469 0.161718 -5.35256 0
M  V30 2323 C 212.625 1.34882 -6.11194 0
M  V30 2324 H 212.858 -0.133134 -2.97002 0
M  V30 2325 H 210.391 -0.187588 -1.53256 0
M  V30 2326 H 212.349 2.3287 -3.38056 0
M  V30 2327 H 211.01 2.22503 -2.21701 0
M  V30 2328 H 210.203 2.07444 -4.59329 0
M  V30 2329 H 209.805 0.592911 -3.6927 0
M  V30 2330 H 212.097 2.27345 -6.38217 0
M  V30 2331 H 213.04 0.89128 -7.02468 0
M  V30 2332 H 213.448 1.57198 -5.42171 0
M  V30 2333 N 212.846 1.57033 -0.133567 0
M  V30 2334 C 214.092 1.95976 0.521649 0
M  V30 2335 C 214.425 1.01779 1.65393 0
M  V30 2336 O 213.7 0.0576581 1.94415 0
M  V30 2337 C 213.983 3.44738 1.04057 0
M  V30 2338 C 213.836 4.49711 -0.0892897 0
M  V30 2339 C 215.155 3.95682 1.92675 0
M  V30 2340 H 212.274 0.712579 0.188149 0
M  V30 2341 H 214.916 1.88813 -0.212076 0
M  V30 2342 H 213.066 3.50973 1.66583 0
M  V30 2343 H 214.738 4.55565 -0.725152 0
M  V30 2344 H 212.981 4.27261 -0.750378 0
M  V30 2345 H 213.652 5.51099 0.315284 0
M  V30 2346 H 216.128 3.91841 1.39998 0
M  V30 2347 H 215.004 5.00262 2.25897 0
M  V30 2348 H 215.265 3.37239 2.85872 0
M  V30 2349 N 214.325 -0.140222 1.56975 0
M  V30 2350 C 215.273 -1.19207 1.99731 0
M  V30 2351 C 216.267 -1.44089 0.890777 0
M  V30 2352 O 217.473 -1.44301 1.07597 0
M  V30 2353 H 213.848 -0.40142 0.635898 0
M  V30 2354 H 215.819 -0.804813 2.87342 0
M  V30 2355 C 214.568 -2.51617 2.39967 0
M  V30 2356 H 213.891 -2.33303 3.24669 0
M  V30 2357 H 215.331 -3.23827 2.73701 0
M  V30 2358 C 213.79 -3.12654 1.25496 0
M  V30 2359 O 214.32 -3.97786 0.559371 0
M  V30 2360 N 212.526 -2.72206 1.01746 0
M  V30 2361 H 212.073 -2.03074 1.58489 0
M  V30 2362 H 212.031 -3.13377 0.253461 0
M  V30 2363 N 215.803 -1.52179 -0.40978 0
M  V30 2364 C 216.713 -1.78364 -1.52392 0
M  V30 2365 C 217.729 -0.669183 -1.60617 0
M  V30 2366 O 218.905 -0.954518 -1.77344 0
M  V30 2367 C 215.97 -1.92822 -2.88133 0
M  V30 2368 C 215.031 -3.16725 -2.898 0
M  V30 2369 C 214.264 -3.30483 -4.19067 0
M  V30 2370 O 214.487 -2.49522 -5.12928 0
M  V30 2371 O 213.421 -4.2363 -4.27576 0
M  V30 2372 H 217.247 -2.72931 -1.33201 0
M  V30 2373 H 214.832 -1.37016 -0.59557 0
M  V30 2374 H 216.714 -2.04157 -3.68643 0
M  V30 2375 H 215.389 -1.01444 -3.07393 0
M  V30 2376 H 214.296 -3.10848 -2.08146 0
M  V30 2377 H 215.629 -4.07881 -2.75489 0
M  V30 2378 N 217.281 0.66697 -1.42791 0
M  V30 2379 C 218.509 1.45505 -1.47091 0
M  V30 2380 C 218.924 1.8861 -0.0845873 0
M  V30 2381 O 218.281 1.58632 0.90234 0
M  V30 2382 C 218.332 2.69906 -2.40485 0
M  V30 2383 O 218.053 2.28608 -3.73725 0
M  V30 2384 C 219.554 3.63396 -2.53886 0
M  V30 2385 H 216.774 0.447459 -0.500022 0
M  V30 2386 H 219.318 0.818866 -1.8739 0
M  V30 2387 H 217.473 3.29696 -2.03419 0
M  V30 2388 H 217.887 3.08997 -4.23817 0
M  V30 2389 H 219.361 4.47387 -3.2334 0
M  V30 2390 H 219.838 4.09824 -1.57927 0
M  V30 2391 H 220.444 3.09495 -2.91706 0
M  V30 2392 N 218.759 1.29093 0.90403 0
M  V30 2393 C 220.036 1.075 1.63411 0
M  V30 2394 C 220.416 -0.382346 2.07609 0
M  V30 2395 O 219.764 -1.37031 1.82851 0
M  V30 2396 C 219.974 2.05858 2.81822 0
M  V30 2397 C 221.322 2.36539 3.52611 0
M  V30 2398 O 222.346 2.04019 2.91984 0
M  V30 2399 O 221.205 2.92085 4.61897 0
M  V30 2400 H 218.299 0.411547 0.717327 0
M  V30 2401 H 220.845 1.40449 0.952479 0
M  V30 2402 H 219.617 3.04037 2.46327 0
M  V30 2403 H 219.24 1.73613 3.57693 0
M  V30 2404 N 220.237 -1.11381 1.11499 0
M  V30 2405 C 221.648 -1.6465 0.880191 0
M  V30 2406 C 221.999 -1.87199 -0.587434 0
M  V30 2407 O 221.124 -1.60667 -1.44966 0
M  V30 2408 C 221.719 -2.99105 1.59128 0
M  V30 2409 C 220.278 -3.49279 1.40289 0
M  V30 2410 C 219.425 -2.24077 1.63354 0
M  V30 2411 H 222.376 -0.950123 1.27116 0
M  V30 2412 H 222.397 -3.66107 1.03664 0
M  V30 2413 H 221.909 -2.82661 2.65941 0
M  V30 2414 H 220.01 -3.70887 0.356888 0
M  V30 2415 H 220.123 -4.2803 2.15238 0
M  V30 2416 H 218.487 -2.31733 1.05698 0
M  V30 2417 H 219.27 -2.10175 2.71443 0
M  V30 2418 N 221.715 -0.905404 -1.28997 0
M  V30 2419 C 222.961 -0.535039 -1.95615 0
M  V30 2420 C 223.294 0.917404 -1.71165 0
M  V30 2421 O 222.569 1.65123 -1.02785 0
M  V30 2422 C 222.852 -0.834918 -3.50287 0
M  V30 2423 C 222.705 -2.33948 -3.84172 0
M  V30 2424 C 224.024 -0.325318 -4.38896 0
M  V30 2425 H 221.143 -0.195861 -0.710498 0
M  V30 2426 H 223.785 -1.13313 -1.52513 0
M  V30 2427 H 221.935 -0.325904 -3.87131 0
M  V30 2428 H 223.607 -2.91847 -3.57243 0
M  V30 2429 H 221.85 -2.79789 -3.31513 0
M  V30 2430 H 222.521 -2.49987 -4.92149 0
M  V30 2431 H 224.997 -0.761256 -4.09077 0
M  V30 2432 H 223.873 -0.564295 -5.45992 0
M  V30 2433 H 224.134 0.774144 -4.35269 0
M  V30 2434 N 223.193 1.4272 -0.668489 0
M  V30 2435 C 224.14 2.30796 0.0137489 0
M  V30 2436 C 225.11 1.4561 0.799177 0
M  V30 2437 O 226.295 1.74453 0.772702 0
M  V30 2438 C 223.435 3.31377 0.963507 0
M  V30 2439 C 222.548 4.31655 0.172569 0
M  V30 2440 C 221.683 5.19312 1.1175 0
M  V30 2441 C 220.722 6.11274 0.317886 0
M  V30 2442 N 219.859 6.91504 1.2152 0
M  V30 2443 H 224.699 2.88585 -0.743161 0
M  V30 2444 H 222.236 1.42154 -0.378226 0
M  V30 2445 H 224.194 3.88214 1.52792 0
M  V30 2446 H 222.824 2.75202 1.68712 0
M  V30 2447 H 221.876 3.76988 -0.508374 0
M  V30 2448 H 223.188 4.96779 -0.448527 0
M  V30 2449 H 222.342 5.80851 1.75206 0
M  V30 2450 H 221.081 4.5435 1.77249 0
M  V30 2451 H 220.086 5.48809 -0.329918 0
M  V30 2452 H 221.311 6.78283 -0.332917 0
M  V30 2453 H 219.257 6.29176 1.85671 0
M  V30 2454 H 219.174 7.53209 0.649036 0
M  V30 2455 H 220.442 7.57535 1.83742 0
M  V30 2456 N 224.671 0.411399 1.52136 0
M  V30 2457 C 226.087 0.0623865 1.59478 0
M  V30 2458 C 226.287 -1.42554 1.4241 0
M  V30 2459 O 225.343 -2.19263 1.2522 0
M  V30 2460 C 226.656 0.559331 2.95452 0
M  V30 2461 C 228.204 0.517503 3.08692 0
M  V30 2462 C 228.679 0.990994 4.4715 0
M  V30 2463 N 230.17 0.947908 4.53397 0
M  V30 2464 C 230.905 1.28544 5.58806 0
M  V30 2465 N 230.401 1.69454 6.71757 0
M  V30 2466 N 232.194 1.20526 5.49026 0
M  V30 2467 H 224.345 1.37982 1.61477 0
M  V30 2468 H 226.608 0.566977 0.759764 0
M  V30 2469 H 226.314 1.59938 3.1323 0
M  V30 2470 H 226.188 -0.0298014 3.77188 0
M  V30 2471 H 228.575 -0.513505 2.90598 0
M  V30 2472 H 228.656 1.14272 2.28857 0
M  V30 2473 H 228.3 2.02034 4.65988 0
M  V30 2474 H 228.23 0.34257 5.25485 0
M  V30 2475 H 230.721 0.647157 3.72317 0
M  V30 2476 H 231.034 1.93513 7.48179 0
M  V30 2477 H 229.379 1.73359 6.73032 0
M  V30 2478 H 232.57 0.884505 4.59667 0
M  V30 2479 H 232.743 1.47161 6.31069 0
M  V30 2480 N 226.149 -1.5696 0.141893 0
M  V30 2481 C 227.059 -2.20066 -0.812905 0
M  V30 2482 C 228.075 -1.18344 -1.27557 0
M  V30 2483 O 229.251 -1.50902 -1.33381 0
M  V30 2484 C 226.316 -2.80583 -2.03652 0
M  V30 2485 C 225.377 -3.97414 -1.62359 0
M  V30 2486 C 224.61 -4.55036 -2.78887 0
M  V30 2487 O 224.833 -4.11538 -3.94959 0
M  V30 2488 O 223.767 -5.45376 -2.54653 0
M  V30 2489 H 227.593 -3.02157 -0.305746 0
M  V30 2490 H 225.178 -1.49159 -0.0848799 0
M  V30 2491 H 227.06 -3.19067 -2.75272 0
M  V30 2492 H 225.735 -2.01508 -2.5333 0
M  V30 2493 H 224.642 -3.63656 -0.877775 0
M  V30 2494 H 225.975 -4.77994 -1.17401 0
M  V30 2495 N 227.627 0.131896 -1.57047 0
M  V30 2496 C 228.559 1.1878 -1.9602 0
M  V30 2497 C 229.572 1.38363 -0.857875 0
M  V30 2498 O 230.761 1.37666 -1.13623 0
M  V30 2499 C 227.861 2.55008 -2.23213 0
M  V30 2500 C 227.034 2.56201 -3.54513 0
M  V30 2501 C 226.093 3.7408 -3.70069 0
M  V30 2502 O 225.119 3.58258 -4.42312 0
M  V30 2503 N 226.321 4.92137 -3.07866 0
M  V30 2504 H 229.086 0.85639 -2.87204 0
M  V30 2505 H 226.647 0.321309 -1.5868 0
M  V30 2506 H 228.639 3.32404 -2.30846 0
M  V30 2507 H 227.209 2.80382 -1.3822 0
M  V30 2508 H 226.429 1.64613 -3.58185 0
M  V30 2509 H 227.717 2.54043 -4.4084 0
M  V30 2510 H 227.115 5.07895 -2.49116 0
M  V30 2511 H 225.672 5.67254 -3.21039 0
M  V30 2512 N 229.106 1.52395 0.401703 0
M  V30 2513 C 230.054 1.7689 1.51039 0
M  V30 2514 C 231.048 0.636298 1.56996 0
M  V30 2515 O 232.254 0.818507 1.60314 0
M  V30 2516 H 228.629 0.559502 0.502456 0
M  V30 2517 H 230.6 2.69757 1.27568 0
M  V30 2518 C 229.349 1.94331 2.88324 0
M  V30 2519 H 228.672 2.80905 2.84486 0
M  V30 2520 H 230.112 2.15466 3.65172 0
M  V30 2521 C 228.571 0.712396 3.29282 0
M  V30 2522 O 229.101 -0.116218 4.01532 0
M  V30 2523 N 227.307 0.546154 2.85422 0
M  V30 2524 H 226.854 1.22156 2.26794 0
M  V30 2525 H 226.812 -0.276113 3.13185 0
M  V30 2526 N 230.584 -0.659388 1.43143 0
M  V30 2527 C 231.531 -1.77249 1.47822 0
M  V30 2528 C 232.501 -1.62818 0.328558 0
M  V30 2529 O 233.686 -1.83151 0.534838 0
M  V30 2530 C 230.826 -3.15371 1.40126 0
M  V30 2531 C 229.939 -3.4098 2.65249 0
M  V30 2532 C 229.074 -4.68915 2.49584 0
M  V30 2533 C 228.113 -4.87608 3.70006 0
M  V30 2534 N 227.25 -6.06796 3.53189 0
M  V30 2535 H 232.09 -1.72584 2.42938 0
M  V30 2536 H 229.627 -0.842297 1.20598 0
M  V30 2537 H 231.585 -3.9521 1.33659 0
M  V30 2538 H 230.215 -3.19121 0.485964 0
M  V30 2539 H 229.267 -2.55282 2.8202 0
M  V30 2540 H 230.579 -3.50681 3.54717 0
M  V30 2541 H 229.733 -5.56871 2.4079 0
M  V30 2542 H 228.472 -4.61524 1.5763 0
M  V30 2543 H 227.477 -3.9809 3.79215 0
M  V30 2544 H 228.702 -4.96834 4.62961 0
M  V30 2545 H 226.648 -6.00549 2.63965 0
M  V30 2546 H 226.565 -6.17428 4.36255 0
M  V30 2547 H 227.833 -6.9739 3.48236 0
M  V30 2548 N 232.062 -1.29571 -0.897171 0
M  V30 2549 C 232.994 -1.10724 -2.00681 0
M  V30 2550 C 234.007 -0.0540026 -1.6271 0
M  V30 2551 O 235.196 -0.298783 -1.75982 0
M  V30 2552 C 232.296 -0.663912 -3.32333 0
M  V30 2553 C 231.469 -1.79622 -3.98816 0
M  V30 2554 C 230.528 -1.34349 -5.0876 0
M  V30 2555 O 229.554 -2.04864 -5.31055 0
M  V30 2556 N 230.756 -0.215764 -5.80099 0
M  V30 2557 H 233.521 -2.06291 -2.17403 0
M  V30 2558 H 231.082 -1.21544 -1.06951 0
M  V30 2559 H 233.074 -0.344295 -4.03233 0
M  V30 2560 H 231.644 0.199375 -3.11964 0
M  V30 2561 H 230.864 -2.28459 -3.21248 0
M  V30 2562 H 232.152 -2.55535 -4.39976 0
M  V30 2563 H 231.55 0.372091 -5.64475 0
M  V30 2564 H 230.107 0.0444707 -6.51785 0
M  V30 2565 N 233.54 1.10788 -1.12088 0
M  V30 2566 C 234.47 2.19083 -0.807755 0
M  V30 2567 C 235.451 1.6858 0.226859 0
M  V30 2568 O 236.636 1.93997 0.0888475 0
M  V30 2569 C 233.766 3.46344 -0.257576 0
M  V30 2570 C 232.72 4.101 -1.22483 0
M  V30 2571 C 232.046 5.32016 -0.535052 0
M  V30 2572 C 233.346 4.54236 -2.57811 0
M  V30 2573 H 235.04 2.45534 -1.71328 0
M  V30 2574 H 232.586 1.1801 -0.825205 0
M  V30 2575 H 234.539 4.21392 -0.0262679 0
M  V30 2576 H 233.263 3.19373 0.683278 0
M  V30 2577 H 231.922 3.37054 -1.44189 0
M  V30 2578 H 231.57 5.01319 0.410827 0
M  V30 2579 H 231.27 5.75625 -1.18024 0
M  V30 2580 H 232.794 6.09799 -0.312695 0
M  V30 2581 H 234.208 5.20575 -2.40155 0
M  V30 2582 H 232.605 5.08682 -3.18375 0
M  V30 2583 H 233.675 3.6734 -3.16528 0
M  V30 2584 N 235.018 0.912232 1.28515 0
M  V30 2585 C 235.948 0.416403 2.29757 0
M  V30 2586 C 236.929 -0.515194 1.6211 0
M  V30 2587 O 238.114 -0.423253 1.89532 0
M  V30 2588 C 235.244 -0.34572 3.45575 0
M  V30 2589 C 234.198 0.496599 4.25109 0
M  V30 2590 C 233.524 -0.393771 5.33248 0
M  V30 2591 C 234.824 1.75307 4.92001 0
M  V30 2592 H 236.518 1.26249 2.7148 0
M  V30 2593 H 234.064 0.608515 1.30511 0
M  V30 2594 H 236.017 -0.703422 4.15488 0
M  V30 2595 H 234.741 -1.2257 3.02728 0
M  V30 2596 H 233.4 0.8368 3.56922 0
M  V30 2597 H 233.048 -1.27225 4.86644 0
M  V30 2598 H 232.748 0.166209 5.87365 0
M  V30 2599 H 234.272 -0.747389 6.06009 0
M  V30 2600 H 235.686 1.46437 5.54283 0
M  V30 2601 H 234.083 2.25534 5.56106 0
M  V30 2602 H 235.153 2.48176 4.16577 0
M  V30 2603 N 236.496 -1.42363 0.676048 0
M  V30 2604 C 237.426 -2.33497 0.0124832 0
M  V30 2605 C 238.407 -1.50748 -0.787981 0
M  V30 2606 O 239.592 -1.79346 -0.744884 0
M  V30 2607 C 236.722 -3.34377 -0.938582 0
M  V30 2608 C 235.676 -4.27289 -0.246622 0
M  V30 2609 C 235.002 -5.18386 -1.31071 0
M  V30 2610 C 236.302 -5.14916 0.875125 0
M  V30 2611 H 237.996 -2.89233 0.773593 0
M  V30 2612 H 235.542 -1.39073 0.37346 0
M  V30 2613 H 237.495 -3.97044 -1.41188 0
M  V30 2614 H 236.219 -2.76947 -1.73113 0
M  V30 2615 H 234.878 -3.66018 0.206456 0
M  V30 2616 H 234.526 -4.57282 -2.09528 0
M  V30 2617 H 234.226 -5.81378 -0.852839 0
M  V30 2618 H 235.75 -5.83929 -1.78492 0
M  V30 2619 H 237.164 -5.71262 0.482983 0
M  V30 2620 H 235.561 -5.86747 1.25887 0
M  V30 2621 H 236.631 -4.53242 1.72335 0
M  V30 2622 N 237.974 -0.419461 -1.51915 0
M  V30 2623 C 238.921 0.400927 -2.27291 0
M  V30 2624 C 239.891 1.03224 -1.30131 0
M  V30 2625 O 241.076 1.05455 -1.59009 0
M  V30 2626 C 238.216 1.50603 -3.10504 0
M  V30 2627 C 237.329 0.89462 -4.22635 0
M  V30 2628 C 236.464 1.97328 -4.93189 0
M  V30 2629 C 235.503 1.33935 -5.97267 0
M  V30 2630 N 234.64 2.3586 -6.61298 0
M  V30 2631 H 239.48 -0.248251 -2.96964 0
M  V30 2632 H 237.017 -0.134266 -1.46486 0
M  V30 2633 H 238.975 2.15783 -3.57062 0
M  V30 2634 H 237.605 2.12509 -2.42981 0
M  V30 2635 H 236.657 0.131583 -3.80172 0
M  V30 2636 H 237.969 0.391641 -4.9726 0
M  V30 2637 H 237.123 2.70211 -5.43204 0
M  V30 2638 H 235.862 2.50994 -4.18155 0
M  V30 2639 H 234.867 0.595896 -5.46561 0
M  V30 2640 H 236.092 0.810252 -6.74249 0
M  V30 2641 H 234.038 2.88639 -5.89087 0
M  V30 2642 H 233.955 1.90403 -7.3163 0
M  V30 2643 H 235.223 3.08282 -7.15949 0
M  V30 2644 N 239.452 1.56882 -0.150215 0
M  V30 2645 C 240.868 1.58263 0.20617 0
M  V30 2646 C 241.068 1.16464 1.64434 0
M  V30 2647 O 240.124 0.866422 2.3717 0
M  V30 2648 C 241.437 3.00649 -0.0555025 0
M  V30 2649 C 242.985 3.12999 0.00795388 0
M  V30 2650 C 243.46 4.5744 -0.226429 0
M  V30 2651 N 244.951 4.62875 -0.173469 0
M  V30 2652 C 245.686 5.72454 -0.329288 0
M  V30 2653 N 245.182 6.90669 -0.543005 0
M  V30 2654 N 246.975 5.61467 -0.266666 0
M  V30 2655 H 239.126 1.82345 -1.08922 0
M  V30 2656 H 241.389 0.844149 -0.431413 0
M  V30 2657 H 241.095 3.3563 -1.05096 0
M  V30 2658 H 240.969 3.71337 0.66246 0
M  V30 2659 H 243.356 2.77857 0.993966 0
M  V30 2660 H 243.437 2.4479 -0.742388 0
M  V30 2661 H 243.081 4.93287 -1.20956 0
M  V30 2662 H 243.011 5.2378 0.544274 0
M  V30 2663 H 245.502 3.77898 -0.0130709 0
M  V30 2664 H 245.815 7.70045 -0.651922 0
M  V30 2665 H 244.16 6.92581 -0.579366 0
M  V30 2666 H 247.351 4.67992 -0.100441 0
M  V30 2667 H 247.524 6.46816 -0.391535 0
M  V30 2668 N 240.93 -0.123565 1.57115 0
M  V30 2669 C 241.86 -1.15309 2.03042 0
M  V30 2670 C 242.841 -1.43454 0.914061 0
M  V30 2671 O 244.026 -1.53973 1.18347 0
M  V30 2672 C 241.156 -2.48043 2.43089 0
M  V30 2673 C 240.11 -2.3437 3.58127 0
M  V30 2674 C 239.436 -3.72026 3.84059 0
M  V30 2675 C 240.736 -1.80804 4.90007 0
M  V30 2676 H 242.43 -0.771102 2.893 0
M  V30 2677 H 239.976 -0.369479 1.39179 0
M  V30 2678 H 241.929 -3.20311 2.73823 0
M  V30 2679 H 240.653 -2.88122 1.53796 0
M  V30 2680 H 239.312 -1.64551 3.27595 0
M  V30 2681 H 238.96 -4.09582 2.91979 0
M  V30 2682 H 238.66 -3.63732 4.6149 0
M  V30 2683 H 240.184 -4.45806 4.1724 0
M  V30 2684 H 241.598 -2.42886 5.19307 0
M  V30 2685 H 239.995 -1.83343 5.71407 0
M  V30 2686 H 241.065 -0.76528 4.78823 0
M  V30 2687 N 242.408 -1.52605 -0.393616 0
M  V30 2688 C 243.318 -1.79971 -1.50492 0
M  V30 2689 C 244.334 -0.686181 -1.59899 0
M  V30 2690 O 245.51 -0.973274 -1.76322 0
M  V30 2691 C 242.575 -1.95867 -2.86072 0
M  V30 2692 C 241.636 -3.19781 -2.86424 0
M  V30 2693 C 240.869 -3.34909 -4.15538 0
M  V30 2694 O 241.092 -2.54948 -5.10253 0
M  V30 2695 O 240.026 -4.28141 -4.23059 0
M  V30 2696 H 243.852 -2.74328 -1.30299 0
M  V30 2697 H 241.437 -1.3764 -0.581005 0
M  V30 2698 H 243.319 -2.08056 -3.66457 0
M  V30 2699 H 241.994 -1.04699 -3.063 0
M  V30 2700 H 240.901 -3.13038 -2.04837 0
M  V30 2701 H 242.234 -4.1078 -2.71147 0
M  V30 2702 N 243.887 0.651787 -1.4349 0
M  V30 2703 C 245.115 1.43937 -1.48626 0
M  V30 2704 C 245.53 1.8851 -0.104587 0
M  V30 2705 O 244.887 1.5958 0.885464 0
M  V30 2706 C 244.938 2.6734 -2.43334 0
M  V30 2707 O 244.659 2.24631 -3.76128 0
M  V30 2708 C 246.16 3.60683 -2.57726 0
M  V30 2709 H 243.38 0.44213 -0.504739 0
M  V30 2710 H 245.924 0.798944 -1.88248 0
M  V30 2711 H 244.079 3.2752 -2.06904 0
M  V30 2712 H 244.493 3.04485 -4.2707 0
M  V30 2713 H 245.967 4.43933 -3.28067 0
M  V30 2714 H 246.444 4.08126 -1.62265 0
M  V30 2715 H 247.05 3.06384 -2.94973 0
M  V30 2716 N 245.365 1.30045 0.890287 0
M  V30 2717 C 246.315 1.12592 1.9826 0
M  V30 2718 C 247.299 0.0426021 1.60844 0
M  V30 2719 O 248.491 0.265346 1.75 0
M  V30 2720 C 245.62 0.814301 3.33503 0
M  V30 2721 C 244.706 1.93761 3.7725 0
M  V30 2722 N 245.097 3.18232 3.93143 0
M  V30 2723 C 243.395 1.83277 4.06602 0
M  V30 2724 C 244.096 3.9158 4.30163 0
M  V30 2725 N 243.072 3.19591 4.3973 0
M  V30 2726 H 246.874 2.07003 2.08631 0
M  V30 2727 H 244.388 1.21307 1.07974 0
M  V30 2728 H 246.385 0.67029 4.11476 0
M  V30 2729 H 245.045 -0.121797 3.24471 0
M  V30 2730 H 246.056 3.53581 3.78419 0
M  V30 2731 H 242.733 0.97001 4.06075 0
M  V30 2732 H 244.123 4.98744 4.50226 0
M  V30 2733 N 246.843 -1.10192 1.12674 0
M  V30 2734 C 248.092 -1.81573 0.8783 0
M  V30 2735 C 248.405 -1.86249 -0.597557 0
M  V30 2736 O 249.611 -2.5386 -0.962681 0
M  V30 2737 C 248.067 -3.26149 1.52167 0
M  V30 2738 C 247.675 -3.29763 3.03249 0
M  V30 2739 C 249.419 -4.0234 1.3536 0
M  V30 2740 C 247.326 -4.68815 3.60508 0
M  V30 2741 H 246.256 -0.680394 0.324931 0
M  V30 2742 H 248.907 -1.23902 1.35353 0
M  V30 2743 H 247.289 -3.83832 0.974104 0
M  V30 2744 H 248.463 -2.8189 3.6452 0
M  V30 2745 H 246.778 -2.67059 3.19481 0
M  V30 2746 H 249.375 -5.05058 1.75559 0
M  V30 2747 H 249.718 -4.15235 0.297554 0
M  V30 2748 H 250.251 -3.51079 1.87052 0
M  V30 2749 H 246.99 -4.61121 4.65884 0
M  V30 2750 H 246.51 -5.17045 3.04014 0
M  V30 2751 H 248.189 -5.37785 3.59717 0
M  V30 2752 N 248.321 -0.919034 -1.28029 0
M  V30 2753 C 249.268 -0.410005 -2.27129 0
M  V30 2754 C 250.238 0.518405 -1.57803 0
M  V30 2755 O 251.423 0.439451 -1.8567 0
M  V30 2756 C 248.563 0.339054 -3.4343 0
M  V30 2757 C 247.676 -0.622468 -4.27492 0
M  V30 2758 C 246.811 0.145567 -5.31001 0
M  V30 2759 C 245.85 -0.809226 -6.06727 0
M  V30 2760 N 244.987 -0.0743728 -7.02061 0
M  V30 2761 H 249.827 -1.26011 -2.70047 0
M  V30 2762 H 247.364 -0.632663 -1.328 0
M  V30 2763 H 249.322 0.789586 -4.0966 0
M  V30 2764 H 247.952 1.15346 -3.01488 0
M  V30 2765 H 247.004 -1.19153 -3.61257 0
M  V30 2766 H 248.316 -1.35252 -4.80113 0
M  V30 2767 H 247.47 0.656417 -6.03139 0
M  V30 2768 H 246.209 0.908643 -4.79161 0
M  V30 2769 H 245.214 -1.3314 -5.33436 0
M  V30 2770 H 246.439 -1.57194 -6.60656 0
M  V30 2771 H 244.385 0.670616 -6.52563 0
M  V30 2772 H 244.302 -0.744157 -7.52329 0
M  V30 2773 H 245.57 0.416109 -7.78389 0
M  V30 2774 N 249.799 1.42003 -0.683588 0
M  V30 2775 C 251.027 2.05746 -0.218182 0
M  V30 2776 C 251.442 1.51396 1.12804 0
M  V30 2777 O 250.799 0.657303 1.70252 0
M  V30 2778 C 250.85 3.61171 -0.154131 0
M  V30 2779 O 250.571 4.13508 -1.44716 0
M  V30 2780 C 252.072 4.42042 0.333713 0
M  V30 2781 H 249.292 0.662888 -0.10402 0
M  V30 2782 H 251.836 1.81987 -0.9328 0
M  V30 2783 H 249.991 3.84012 0.511231 0
M  V30 2784 H 250.405 5.07453 -1.32632 0
M  V30 2785 H 251.879 5.51028 0.327423 0
M  V30 2786 H 252.356 4.17269 1.37053 0
M  V30 2787 H 252.962 4.24239 -0.300222 0
M  V30 2788 N 251.277 0.427512 1.51691 0
M  V30 2789 C 252.526 -0.143679 2.01188 0
M  V30 2790 C 252.839 -1.44642 1.31674 0
M  V30 2791 O 254.045 -2.09997 1.72086 0
M  V30 2792 C 252.501 -0.306602 3.58592 0
M  V30 2793 C 252.109 0.985125 4.37035 0
M  V30 2794 C 253.853 -0.832091 4.16265 0
M  V30 2795 C 251.76 0.788382 5.86122 0
M  V30 2796 H 250.69 -0.0574701 0.751807 0
M  V30 2797 H 253.341 0.555772 1.74881 0
M  V30 2798 H 251.723 -1.06882 3.81303 0
M  V30 2799 H 252.897 1.75492 4.26074 0
M  V30 2800 H 251.212 1.4384 3.90767 0
M  V30 2801 H 253.809 -0.995617 5.25349 0
M  V30 2802 H 254.152 -1.81186 3.74803 0
M  V30 2803 H 254.685 -0.128444 3.97593 0
M  V30 2804 H 251.424 1.74025 6.31978 0
M  V30 2805 H 250.944 0.0582143 5.99772 0
M  V30 2806 H 252.623 0.437722 6.45518 0
M  V30 2807 N 252.755 -1.56801 0.158532 0
M  V30 2808 C 254.001 -1.96781 -0.490405 0
M  V30 2809 C 254.334 -1.04397 -1.63753 0
M  V30 2810 O 253.609 -0.0885805 -1.94298 0
M  V30 2811 C 253.892 -3.4635 -0.985594 0
M  V30 2812 C 253.745 -4.49512 0.160824 0
M  V30 2813 C 255.064 -3.98697 -1.86355 0
M  V30 2814 H 252.183 -0.715482 -0.176788 0
M  V30 2815 H 254.825 -1.88451 0.242088 0
M  V30 2816 H 252.975 -3.53579 -1.60978 0
M  V30 2817 H 254.647 -4.54353 0.797537 0
M  V30 2818 H 252.89 -4.26013 0.818256 0
M  V30 2819 H 253.561 -5.51531 -0.227569 0
M  V30 2820 H 256.037 -3.94019 -1.33746 0
M  V30 2821 H 254.913 -5.03792 -2.17909 0
M  V30 2822 H 255.174 -3.41744 -2.8047 0
M  V30 2823 N 254.233 0.115231 -1.57178 0
M  V30 2824 C 255.143 1.15994 -2.03918 0
M  V30 2825 C 256.159 1.45103 -0.960268 0
M  V30 2826 O 257.335 1.56144 -1.27204 0
M  V30 2827 C 254.4 2.46568 -2.43732 0
M  V30 2828 C 253.461 2.24822 -3.65723 0
M  V30 2829 C 252.694 3.4917 -4.03629 0
M  V30 2830 O 252.917 4.56623 -3.41835 0
M  V30 2831 O 251.851 3.39949 -4.96708 0
M  V30 2832 H 255.677 0.793019 -2.93164 0
M  V30 2833 H 253.262 0.3263 -1.45793 0
M  V30 2834 H 255.144 3.23492 -2.70057 0
M  V30 2835 H 253.819 2.82726 -1.57631 0
M  V30 2836 H 252.726 1.45744 -3.44542 0
M  V30 2837 H 254.059 1.93566 -4.52541 0
M  V30 2838 N 255.711 1.52812 0.385517 0
M  V30 2839 C 257.127 1.4214 0.725829 0
M  V30 2840 C 257.327 0.544589 1.94001 0
M  V30 2841 O 256.383 0.0193693 2.52493 0
M  V30 2842 C 257.696 2.85042 0.957668 0
M  V30 2843 C 259.244 2.94543 1.05892 0
M  V30 2844 C 259.719 4.38464 1.32337 0
M  V30 2845 N 261.21 4.41804 1.39151 0
M  V30 2846 C 261.945 5.5025 1.61285 0
M  V30 2847 N 261.441 6.68775 1.80866 0
M  V30 2848 N 263.234 5.37798 1.63492 0
M  V30 2849 H 255.385 2.08338 -0.413383 0
M  V30 2850 H 257.648 0.940016 -0.122775 0
M  V30 2851 H 257.354 3.51431 0.137568 0
M  V30 2852 H 257.228 3.27505 1.87137 0
M  V30 2853 H 259.615 2.28321 1.86959 0
M  V30 2854 H 259.696 2.55504 0.123057 0
M  V30 2855 H 259.34 5.05254 0.517793 0
M  V30 2856 H 259.27 4.75059 2.27214 0
M  V30 2857 H 261.761 3.56377 1.25713 0
M  V30 2858 H 262.074 7.47197 1.97271 0
M  V30 2859 H 260.419 6.71797 1.78083 0
M  V30 2860 H 263.61 4.44171 1.47749 0
M  V30 2861 H 263.783 6.22382 1.80402 0
M  V30 2862 N 257.189 -0.644168 1.43834 0
M  V30 2863 C 258.419 -1.42939 1.49171 0
M  V30 2864 C 258.827 -1.88874 0.111048 0
M  V30 2865 O 258.17 -1.60656 -0.8908 0
M  V30 2866 C 258.232 -2.69151 2.38324 0
M  V30 2867 C 257.896 -2.45097 3.85715 0
M  V30 2868 C 258.893 -2.07747 4.76589 0
M  V30 2869 C 256.578 -2.59141 4.30292 0
M  V30 2870 C 258.572 -1.8475 6.10038 0
M  V30 2871 C 256.259 -2.35759 5.63792 0
M  V30 2872 C 257.257 -1.9862 6.53482 0
M  V30 2873 O 256.945 -1.75489 7.84512 0
M  V30 2874 H 256.677 -0.445271 0.508635 0
M  V30 2875 H 259.231 -0.79621 1.8934 0
M  V30 2876 H 257.461 -3.3506 1.93058 0
M  V30 2877 H 259.15 -3.31123 2.3476 0
M  V30 2878 H 259.916 -1.96465 4.43426 0
M  V30 2879 H 255.795 -2.87022 3.60749 0
M  V30 2880 H 259.339 -1.55686 6.80006 0
M  V30 2881 H 255.236 -2.46646 5.9652 0
M  V30 2882 H 256.004 -1.89841 7.9618 0
M  V30 2883 N 258.668 -1.30515 -0.883378 0
M  V30 2884 C 259.615 -1.17032 -1.98927 0
M  V30 2885 C 260.585 -0.0594241 -1.65994 0
M  V30 2886 O 261.77 -0.229895 -1.8941 0
M  V30 2887 C 258.91 -0.869777 -3.33959 0
M  V30 2888 C 258.023 -2.06271 -3.79574 0
M  V30 2889 C 257.158 -1.70011 -5.03259 0
M  V30 2890 C 256.197 -2.8579 -5.41286 0
M  V30 2891 N 255.334 -2.49816 -6.56153 0
M  V30 2892 H 260.174 -2.1164 -2.09792 0
M  V30 2893 H 257.711 -1.05296 -1.02719 0
M  V30 2894 H 259.669 -0.676138 -4.11685 0
M  V30 2895 H 258.299 0.0394332 -3.22776 0
M  V30 2896 H 257.351 -2.36755 -2.97744 0
M  V30 2897 H 258.663 -2.92971 -4.03694 0
M  V30 2898 H 257.817 -1.47032 -5.88614 0
M  V30 2899 H 256.556 -0.804829 -4.81013 0
M  V30 2900 H 255.561 -3.09434 -4.54456 0
M  V30 2901 H 256.786 -3.76008 -5.65504 0
M  V30 2902 H 254.732 -1.62795 -6.35479 0
M  V30 2903 H 254.649 -3.30048 -6.8015 0
M  V30 2904 H 255.917 -2.30197 -7.44735 0
M  V30 2905 N 260.146 1.09593 -1.13257 0
M  V30 2906 C 261.423 1.78293 -0.804432 0
M  V30 2907 C 261.803 1.99004 0.70431 0
M  V30 2908 O 261.151 1.59007 1.641 0
M  V30 2909 C 261.361 3.10707 -1.5894 0
M  V30 2910 C 262.709 3.85443 -1.78099 0
M  V30 2911 O 263.733 3.20454 -1.55525 0
M  V30 2912 O 262.592 5.02108 -2.15753 0
M  V30 2913 H 259.686 0.773156 -0.293528 0
M  V30 2914 H 262.232 1.16164 -1.23709 0
M  V30 2915 H 261.004 2.91106 -2.61482 0
M  V30 2916 H 260.627 3.80558 -1.15157 0
M  V30 2917 N 261.624 0.925811 1.2754 0
M  V30 2918 C 262.901 0.483726 1.89524 0
M  V30 2919 C 263.281 -1.03809 1.83812 0
M  V30 2920 O 262.629 -1.89143 1.28207 0
M  V30 2921 C 262.839 1.02769 3.33526 0
M  V30 2922 C 264.187 1.08703 4.10449 0
M  V30 2923 O 265.211 0.977175 3.42534 0
M  V30 2924 O 264.07 1.25599 5.31871 0
M  V30 2925 H 261.164 0.15529 0.812289 0
M  V30 2926 H 263.71 1.01738 1.35822 0
M  V30 2927 H 262.482 2.07155 3.31967 0
M  V30 2928 H 262.105 0.475567 3.94746 0
M  V30 2929 N 263.102 -1.41638 0.69111 0
M  V30 2930 C 264.351 -2.00526 0.217318 0
M  V30 2931 C 264.664 -1.55353 -1.18848 0
M  V30 2932 O 265.87 -2.06769 -1.75951 0
M  V30 2933 C 264.326 -3.58313 0.337639 0
M  V30 2934 C 263.934 -4.12469 1.74852 0
M  V30 2935 C 265.678 -4.24431 -0.0766066 0
M  V30 2936 C 263.585 -5.62675 1.82074 0
M  V30 2937 H 262.515 -0.750008 0.0774893 0
M  V30 2938 H 265.166 -1.6217 0.858661 0
M  V30 2939 H 263.548 -3.9425 -0.371879 0
M  V30 2940 H 264.722 -3.8796 2.48644 0
M  V30 2941 H 263.037 -3.58861 2.11205 0
M  V30 2942 H 265.634 -5.34683 -0.0430284 0
M  V30 2943 H 265.977 -4.01101 -1.1146 0
M  V30 2944 H 266.51 -3.93512 0.582476 0
M  V30 2945 H 263.249 -5.90826 2.83911 0
M  V30 2946 H 262.769 -5.89124 1.12661 0
M  V30 2947 H 264.448 -6.27371 1.58159 0
M  V30 2948 N 264.58 -0.43555 -1.51462 0
M  V30 2949 C 265.527 0.376797 -2.27703 0
M  V30 2950 C 266.497 1.01838 -1.31219 0
M  V30 2951 O 267.682 1.03762 -1.60119 0
M  V30 2952 C 264.822 1.47301 -3.12084 0
M  V30 2953 C 263.935 0.849744 -4.2356 0
M  V30 2954 C 263.07 1.92086 -4.95254 0
M  V30 2955 C 262.109 1.27593 -5.98654 0
M  V30 2956 N 261.246 2.28833 -6.63762 0
M  V30 2957 H 266.086 -0.279734 -2.96684 0
M  V30 2958 H 263.623 -0.149795 -1.46335 0
M  V30 2959 H 265.581 2.11984 -3.59331 0
M  V30 2960 H 264.211 2.0992 -2.45221 0
M  V30 2961 H 263.263 0.0912529 -3.80291 0
M  V30 2962 H 264.575 0.338878 -4.97648 0
M  V30 2963 H 263.729 2.64435 -5.46039 0
M  V30 2964 H 262.468 2.46545 -4.20793 0
M  V30 2965 H 261.473 0.537893 -5.47162 0
M  V30 2966 H 262.698 0.738693 -6.7507 0
M  V30 2967 H 260.644 2.82375 -5.92115 0
M  V30 2968 H 260.561 1.82632 -7.33608 0
M  V30 2969 H 261.829 3.00671 -7.19178 0
M  V30 2970 N 266.058 1.56714 -0.166846 0
M  V30 2971 C 267.288 2.00828 0.48494 0
M  V30 2972 C 267.696 1.04612 1.57648 0
M  V30 2973 O 267.039 0.0383201 1.8366 0
M  V30 2974 C 267.101 3.4137 1.12723 0
M  V30 2975 C 266.765 4.56654 0.177886 0
M  V30 2976 C 267.762 5.16402 -0.60207 0
M  V30 2977 C 265.447 5.02244 0.0750139 0
M  V30 2978 C 267.441 6.20167 -1.47215 0
M  V30 2979 C 265.128 6.05859 -0.798649 0
M  V30 2980 C 266.126 6.64691 -1.57082 0
M  V30 2981 O 265.814 7.66297 -2.42989 0
M  V30 2982 H 265.546 0.663587 0.128953 0
M  V30 2983 H 268.1 2.03692 -0.264365 0
M  V30 2984 H 266.33 3.35406 1.92457 0
M  V30 2985 H 268.019 3.69466 1.68076 0
M  V30 2986 H 268.785 4.82065 -0.53274 0
M  V30 2987 H 264.664 4.56167 0.665812 0
M  V30 2988 H 268.208 6.66016 -2.07531 0
M  V30 2989 H 264.105 6.39621 -0.869199 0
M  V30 2990 H 264.873 7.83601 -2.36455 0
M  V30 2991 N 267.536 -0.106894 1.57237 0
M  V30 2992 C 268.782 -0.808678 1.86633 0
M  V30 2993 C 269.137 -1.76917 0.756178 0
M  V30 2994 O 268.43 -1.90055 -0.242834 0
M  V30 2995 C 268.624 -1.58628 3.20268 0
M  V30 2996 C 268.453 -0.702592 4.44178 0
M  V30 2997 C 267.223 -0.352808 5.04067 0
M  V30 2998 C 269.421 -0.0148031 5.14298 0
M  V30 2999 N 267.403 0.540279 6.11518 0
M  V30 3000 C 268.774 0.736809 6.15606 0
M  V30 3001 C 270.829 0.0603524 4.97863 0
M  V30 3002 C 269.532 1.55654 7.02257 0
M  V30 3003 C 271.558 0.866942 5.85011 0
M  V30 3004 C 270.92 1.60671 6.85831 0
M  V30 3005 H 267.019 -0.27246 0.733001 0
M  V30 3006 H 269.603 -0.0717858 1.94568 0
M  V30 3007 H 267.774 -2.29413 3.13408 0
M  V30 3008 H 269.506 -2.23434 3.3743 0
M  V30 3009 H 266.261 -0.697802 4.68431 0
M  V30 3010 H 266.685 0.979029 6.69884 0
M  V30 3011 H 271.327 -0.497236 4.19866 0
M  V30 3012 H 269.045 2.12524 7.79653 0
M  V30 3013 H 272.631 0.927612 5.74358 0
M  V30 3014 H 271.511 2.2208 7.52097 0
M  V30 3015 N 269.014 -1.53014 -0.377408 0
M  V30 3016 C 270.291 -1.59215 -1.13622 0
M  V30 3017 C 270.671 -0.392407 -2.07421 0
M  V30 3018 O 270.019 0.618342 -2.19975 0
M  V30 3019 C 270.229 -2.93669 -1.88573 0
M  V30 3020 C 271.577 -3.47822 -2.43526 0
M  V30 3021 O 272.601 -2.9562 -1.98715 0
M  V30 3022 O 271.46 -4.39055 -3.25412 0
M  V30 3023 H 268.554 -0.642625 -0.52054 0
M  V30 3024 H 271.1 -1.65353 -0.381625 0
M  V30 3025 H 269.872 -3.7243 -1.20048 0
M  V30 3026 H 269.495 -2.90968 -2.70968 0
M  V30 3027 N 270.492 0.636531 -1.44174 0
M  V30 3028 C 271.738 1.39826 -1.4689 0
M  V30 3029 C 272.071 1.93947 -0.0990585 0
M  V30 3030 O 271.346 1.73325 0.882544 0
M  V30 3031 C 271.629 2.56751 -2.5249 0
M  V30 3032 C 271.482 2.08014 -3.98811 0
M  V30 3033 C 272.801 3.58946 -2.54649 0
M  V30 3034 H 269.92 0.507075 -0.53483 0
M  V30 3035 H 272.562 0.720188 -1.75822 0
M  V30 3036 H 270.712 3.14597 -2.2795 0
M  V30 3037 H 272.384 1.5504 -4.34466 0
M  V30 3038 H 270.627 1.39242 -4.10846 0
M  V30 3039 H 271.298 2.92169 -4.68339 0
M  V30 3040 H 273.774 3.1089 -2.76563 0
M  V30 3041 H 272.65 4.38286 -3.3045 0
M  V30 3042 H 272.911 4.12655 -1.58646 0
M  V30 3043 N 271.97 1.30982 0.876444 0
M  V30 3044 C 273.216 1.20474 1.63138 0
M  V30 3045 C 273.549 -0.238096 1.92735 0
M  V30 3046 O 272.824 -1.1692 1.55435 0
M  V30 3047 C 273.107 2.04244 2.96574 0
M  V30 3048 C 272.96 3.56793 2.73896 0
M  V30 3049 C 274.279 1.88684 3.97601 0
M  V30 3050 H 271.398 0.439001 0.591985 0
M  V30 3051 H 274.04 1.60704 1.01361 0
M  V30 3052 H 272.19 1.70063 3.493 0
M  V30 3053 H 273.862 4.01077 2.27892 0
M  V30 3054 H 272.105 3.80548 2.08245 0
M  V30 3055 H 272.776 4.10706 3.68815 0
M  V30 3056 H 275.252 2.18584 3.54062 0
M  V30 3057 H 274.128 2.4961 4.88862 0
M  V30 3058 H 274.389 0.848343 4.33884 0
M  V30 3059 N 273.449 -1.08991 1.13837 0
M  V30 3060 C 274.397 -2.17841 0.815347 0
M  V30 3061 C 275.391 -1.68164 -0.204233 0
M  V30 3062 O 276.597 -1.79897 -0.0609304 0
M  V30 3063 H 272.972 -0.710654 0.245915 0
M  V30 3064 H 274.943 -2.42315 1.74143 0
M  V30 3065 C 273.692 -3.46381 0.302614 0
M  V30 3066 H 273.015 -3.84979 1.0785 0
M  V30 3067 H 274.455 -4.23844 0.115074 0
M  V30 3068 C 272.914 -3.22556 -0.972591 0
M  V30 3069 O 273.444 -3.45599 -2.04754 0
M  V30 3070 N 271.65 -2.76134 -0.905455 0
M  V30 3071 H 271.197 -2.57582 -0.0305421 0
M  V30 3072 H 271.155 -2.60571 -1.75926 0
M  V30 3073 N 274.927 -0.932562 -1.27047 0
M  V30 3074 C 275.837 -0.441219 -2.30414 0
M  V30 3075 C 276.853 0.480525 -1.67233 0
M  V30 3076 O 278.029 0.362151 -1.98117 0
M  V30 3077 C 275.094 0.293651 -3.45454 0
M  V30 3078 C 274.155 -0.663601 -4.2414 0
M  V30 3079 C 273.388 0.0362932 -5.33688 0
M  V30 3080 O 273.611 1.2548 -5.56427 0
M  V30 3081 O 272.545 -0.638015 -5.98509 0
M  V30 3082 H 276.371 -1.29962 -2.74488 0
M  V30 3083 H 273.956 -0.6981 -1.32087 0
M  V30 3084 H 275.838 0.707951 -4.15411 0
M  V30 3085 H 274.513 1.12758 -3.03426 0
M  V30 3086 H 273.42 -1.12768 -3.56699 0
M  V30 3087 H 274.753 -1.46489 -4.69896 0
M  V30 3088 N 276.405 1.4127 -0.698611 0
M  V30 3089 C 277.651 2.01478 -0.231207 0
M  V30 3090 C 277.984 1.55215 1.16713 0
M  V30 3091 O 277.259 0.764672 1.78838 0
M  V30 3092 C 277.542 3.58912 -0.292281 0
M  V30 3093 C 277.395 4.15293 -1.72778 0
M  V30 3094 C 278.714 4.38736 0.346194 0
M  V30 3095 H 275.833 0.732025 -0.0854878 0
M  V30 3096 H 278.475 1.67977 -0.887906 0
M  V30 3097 H 276.625 3.87582 0.26686 0
M  V30 3098 H 278.297 3.97486 -2.341 0
M  V30 3099 H 276.54 3.7022 -2.26096 0
M  V30 3100 H 277.211 5.24452 -1.72202 0
M  V30 3101 H 279.687 4.15897 -0.130035 0
M  V30 3102 H 278.563 5.48221 0.272932 0
M  V30 3103 H 278.824 4.18425 1.42734 0
M  V30 3104 N 277.883 0.443576 1.51229 0
M  V30 3105 C 279.129 -0.120975 2.02439 0
M  V30 3106 C 279.462 -1.41815 1.32674 0
M  V30 3107 O 278.737 -1.89373 0.443622 0
M  V30 3108 C 279.02 -0.333291 3.58554 0
M  V30 3109 C 278.873 0.982968 4.38928 0
M  V30 3110 C 280.192 -1.10028 4.26124 0
M  V30 3111 H 277.311 -0.0424923 0.735774 0
M  V30 3112 H 279.953 0.583794 1.80809 0
M  V30 3113 H 278.103 -0.933614 3.77115 0
M  V30 3114 H 279.775 1.61775 4.32003 0
M  V30 3115 H 278.018 1.58611 4.03763 0
M  V30 3116 H 278.689 0.788379 5.46341 0
M  V30 3117 H 281.165 -0.591711 4.11871 0
M  V30 3118 H 280.041 -1.21761 5.35225 0
M  V30 3119 H 280.302 -2.12996 3.87408 0
M  V30 3120 N 279.361 -1.56624 0.175154 0
M  V30 3121 C 280.609 -1.96609 -0.467885 0
M  V30 3122 C 280.93 -1.06238 -1.63519 0
M  V30 3123 O 280.2 -0.129523 -1.95471 0
M  V30 3124 H 278.78 -0.726008 -0.175845 0
M  V30 3125 H 281.442 -1.93195 0.257234 0
M  V30 3126 H 280.538 -3.00989 -0.825342 0
M  V30 3127 N 280.839 0.0985539 -1.57292 0
M  V30 3128 C 282.116 0.834155 -1.76921 0
M  V30 3129 C 282.496 1.97101 -0.755928 0
M  V30 3130 O 281.844 2.27474 0.216245 0
M  V30 3131 C 282.054 1.33194 -3.22584 0
M  V30 3132 C 283.402 1.77611 -3.85668 0
M  V30 3133 O 284.426 1.42825 -3.26312 0
M  V30 3134 O 283.285 2.4192 -4.90038 0
M  V30 3135 H 280.379 0.397628 -0.725135 0
M  V30 3136 H 282.925 0.0807044 -1.69508 0
M  V30 3137 H 281.697 0.517248 -3.87866 0
M  V30 3138 H 281.32 2.1475 -3.34616 0
M  V30 3139 N 282.317 1.53212 0.369288 0
M  V30 3140 C 283.594 1.59815 1.12776 0
M  V30 3141 C 283.974 0.403402 2.0721 0
M  V30 3142 O 283.322 -0.606667 2.20299 0
M  V30 3143 C 283.532 2.94664 1.87013 0
M  V30 3144 C 284.88 3.49109 2.41677 0
M  V30 3145 O 285.904 2.96669 1.97144 0
M  V30 3146 O 284.763 4.40775 3.23079 0
M  V30 3147 H 281.857 0.645376 0.517125 0
M  V30 3148 H 284.403 1.65553 0.37285 0
M  V30 3149 H 283.175 3.73061 1.18071 0
M  V30 3150 H 282.798 2.92401 2.69421 0
M  V30 3151 N 283.795 -0.628877 1.44509 0
M  V30 3152 C 285.043 -1.38565 1.4712 0
M  V30 3153 C 285.364 -1.94712 0.105899 0
M  V30 3154 O 284.634 -1.75912 -0.862079 0
M  V30 3155 H 283.214 -0.514333 0.541729 0
M  V30 3156 H 285.876 -0.740018 1.80305 0
M  V30 3157 H 284.972 -2.21583 2.19789 0
M  V30 3158 N 285.273 -1.31445 -0.869486 0
M  V30 3159 C 286.22 -1.19135 -1.97675 0
M  V30 3160 C 287.19 -0.0770266 -1.65921 0
M  V30 3161 O 288.375 -0.249972 -1.89155 0
M  V30 3162 C 285.515 -0.905149 -3.33018 0
M  V30 3163 C 284.628 -2.10285 -3.77365 0
M  V30 3164 C 283.763 -1.75339 -5.01427 0
M  V30 3165 C 282.802 -2.91515 -5.38224 0
M  V30 3166 N 281.939 -2.56762 -6.53466 0
M  V30 3167 H 286.779 -2.13853 -2.07535 0
M  V30 3168 H 284.316 -1.06379 -1.01597 0
M  V30 3169 H 286.274 -0.719765 -4.10944 0
M  V30 3170 H 284.904 0.00519624 -3.228 0
M  V30 3171 H 283.956 -2.39899 -2.95216 0
M  V30 3172 H 285.268 -2.97237 -4.00564 0
M  V30 3173 H 284.422 -1.53266 -5.87022 0
M  V30 3174 H 283.161 -0.855801 -4.80133 0
M  V30 3175 H 282.166 -3.14237 -4.51149 0
M  V30 3176 H 283.391 -3.81985 -5.61484 0
M  V30 3177 H 281.337 -1.69526 -6.33717 0
M  V30 3178 H 281.254 -3.37243 -6.76612 0
M  V30 3179 H 282.522 -2.38083 -7.42251 0
M  V30 3180 N 286.751 1.08385 -1.14413 0
M  V30 3181 C 287.681 2.17321 -0.854044 0
M  V30 3182 C 288.662 1.69024 0.191049 0
M  V30 3183 O 289.847 1.94141 0.0476779 0
M  V30 3184 C 286.977 3.45719 -0.330983 0
M  V30 3185 C 285.931 4.07409 -1.31155 0
M  V30 3186 C 285.257 5.30762 -0.64778 0
M  V30 3187 C 286.557 4.48665 -2.67388 0
M  V30 3188 H 288.251 2.41845 -1.76498 0
M  V30 3189 H 285.797 1.16233 -0.850051 0
M  V30 3190 H 287.75 4.21241 -0.115645 0
M  V30 3191 H 286.474 3.2075 0.615381 0
M  V30 3192 H 285.133 3.33919 -1.51306 0
M  V30 3193 H 284.781 5.02078 0.304398 0
M  V30 3194 H 284.481 5.72992 -1.30207 0
M  V30 3195 H 286.005 6.08998 -0.441972 0
M  V30 3196 H 287.419 5.15364 -2.51143 0
M  V30 3197 H 285.816 5.01814 -3.29093 0
M  V30 3198 H 286.886 3.60543 -3.24248 0
M  V30 3199 N 288.23 0.939286 1.26551 0
M  V30 3200 C 289.646 0.641304 1.46149 0
M  V30 3201 C 289.846 -0.805964 1.84679 0
M  V30 3202 O 288.902 -1.58278 1.96734 0
M  V30 3203 C 290.215 1.6011 2.54529 0
M  V30 3204 C 291.763 1.6106 2.68382 0
M  V30 3205 C 292.238 2.55765 3.79932 0
M  V30 3206 N 293.729 2.5404 3.87322 0
M  V30 3207 C 294.464 3.24004 4.73085 0
M  V30 3208 N 293.96 4.03388 5.63249 0
M  V30 3209 N 295.753 3.12965 4.66914 0
M  V30 3210 H 287.904 1.87478 0.998285 0
M  V30 3211 H 290.167 0.805559 0.499779 0
M  V30 3212 H 289.873 2.63412 2.33039 0
M  V30 3213 H 289.747 1.35171 3.52149 0
M  V30 3214 H 292.134 0.584835 2.89247 0
M  V30 3215 H 292.215 1.90053 1.71212 0
M  V30 3216 H 291.859 3.58458 3.5982 0
M  V30 3217 H 291.789 2.24063 4.76554 0
M  V30 3218 H 294.28 1.96396 3.22858 0
M  V30 3219 H 294.593 4.5373 6.25579 0
M  V30 3220 H 292.938 4.07489 5.63008 0
M  V30 3221 H 296.129 2.50432 3.95476 0
M  V30 3222 H 296.302 3.67759 5.33533 0
M  V30 3223 N 289.708 -1.40897 0.706093 0
M  V30 3224 C 290.656 -2.32572 0.0361893 0
M  V30 3225 C 291.65 -1.51532 -0.757266 0
M  V30 3226 O 292.856 -1.67396 -0.661703 0
M  V30 3227 H 289.231 -0.751966 -0.00709935 0
M  V30 3228 H 291.202 -2.86733 0.826249 0
M  V30 3229 C 289.951 -3.36418 -0.87854 0
M  V30 3230 H 289.274 -3.98836 -0.277401 0
M  V30 3231 H 290.714 -4.0308 -1.3154 0
M  V30 3232 C 289.173 -2.71141 -1.99961 0
M  V30 3233 O 289.703 -2.56735 -3.0895 0
M  V30 3234 N 287.909 -2.29671 -1.78043 0
M  V30 3235 H 287.456 -2.41588 -0.894042 0
M  V30 3236 H 287.414 -1.86332 -2.53235 0
M  V30 3237 N 291.186 -0.45159 -1.50991 0
M  V30 3238 C 292.411 0.110667 -2.07105 0
M  V30 3239 C 292.836 1.3446 -1.31538 0
M  V30 3240 O 292.194 1.77743 -0.357365 0
M  V30 3241 C 292.242 0.397238 -3.58405 0
M  V30 3242 O 291.346 1.48124 -3.84881 0
M  V30 3243 H 290.687 -0.00439271 -0.663985 0
M  V30 3244 H 293.217 -0.637026 -1.9443 0
M  V30 3245 H 293.227 0.64351 -4.02893 0
M  V30 3246 H 291.902 -0.504553 -4.12828 0
M  V30 3247 H 290.479 1.22381 -3.52246 0
M  V30 3248 N 292.664 1.56529 -0.183458 0
M  V30 3249 C 294.075 1.83739 0.331177 0
M  V30 3250 C 294.426 1.10373 1.62211 0
M  V30 3251 O 293.551 0.36071 2.13373 0
M  V30 3252 C 294.146 3.33306 0.607646 0
M  V30 3253 C 292.705 3.60969 1.06668 0
M  V30 3254 C 291.852 2.77086 0.109029 0
M  V30 3255 H 294.803 1.53379 -0.407484 0
M  V30 3256 H 294.824 3.51444 1.45832 0
M  V30 3257 H 294.336 3.86677 -0.332086 0
M  V30 3258 H 292.437 3.13021 2.0211 0
M  V30 3259 H 292.55 4.69231 0.967447 0
M  V30 3260 H 290.914 2.47319 0.608714 0
M  V30 3261 H 291.697 3.33241 -0.82494 0
M  V30 3262 N 294.142 -0.090211 1.57342 0
M  V30 3263 C 295.388 -0.788838 1.8748 0
M  V30 3264 C 295.743 -1.76105 0.7749 0
M  V30 3265 O 295.036 -1.90302 -0.222663 0
M  V30 3266 C 295.23 -1.55222 3.21933 0
M  V30 3267 C 295.059 -0.655441 4.44898 0
M  V30 3268 C 293.829 -0.299325 5.04413 0
M  V30 3269 C 296.027 0.0397458 5.14285 0
M  V30 3270 N 294.009 0.605108 6.10911 0
M  V30 3271 C 295.38 0.802061 6.1479 0
M  V30 3272 C 297.435 0.113154 4.97771 0
M  V30 3273 C 296.138 1.63093 7.00566 0
M  V30 3274 C 298.164 0.928942 5.84059 0
M  V30 3275 C 297.526 1.67936 6.84088 0
M  V30 3276 H 293.625 -0.26467 0.735849 0
M  V30 3277 H 296.209 -0.0511453 1.94633 0
M  V30 3278 H 294.38 -2.26076 3.15823 0
M  V30 3279 H 296.112 -2.19843 3.39781 0
M  V30 3280 H 292.867 -0.648079 4.69145 0
M  V30 3281 H 293.291 1.05002 6.68808 0
M  V30 3282 H 297.933 -0.452676 4.2037 0
M  V30 3283 H 295.651 2.20781 7.77355 0
M  V30 3284 H 299.237 0.988478 5.73341 0
M  V30 3285 H 298.117 2.30044 7.49699 0
M  V30 3286 N 295.62 -1.53406 -0.361157 0
M  V30 3287 C 296.85 -1.73465 -1.1222 0
M  V30 3288 C 297.258 -0.465486 -1.83384 0
M  V30 3289 O 296.601 0.571611 -1.7458 0
M  V30 3290 C 296.663 -2.84834 -2.19339 0
M  V30 3291 C 296.327 -4.25038 -1.67903 0
M  V30 3292 C 297.324 -5.07231 -1.14074 0
M  V30 3293 C 295.009 -4.71464 -1.73282 0
M  V30 3294 C 297.003 -6.33942 -0.663068 0
M  V30 3295 C 294.69 -5.98153 -1.25127 0
M  V30 3296 C 295.688 -6.79223 -0.717296 0
M  V30 3297 O 295.376 -8.03533 -0.242865 0
M  V30 3298 H 295.108 -0.583526 -0.341283 0
M  V30 3299 H 297.662 -2.00964 -0.424591 0
M  V30 3300 H 295.892 -2.5282 -2.92607 0
M  V30 3301 H 297.581 -2.9303 -2.80871 0
M  V30 3302 H 298.347 -4.72534 -1.09254 0
M  V30 3303 H 294.226 -4.08432 -2.13786 0
M  V30 3304 H 297.77 -6.97167 -0.245612 0
M  V30 3305 H 293.667 -6.32347 -1.29642 0
M  V30 3306 H 294.435 -8.177 -0.361786 0
M  V30 3307 N 297.098 0.621204 -1.44841 0
M  V30 3308 C 298.03 1.74615 -1.48466 0
M  V30 3309 C 299.043 1.58377 -0.37691 0
M  V30 3310 O 300.232 1.66508 -0.643215 0
M  V30 3311 C 297.332 3.12459 -1.31236 0
M  V30 3312 C 296.505 3.55064 -2.55438 0
M  V30 3313 C 295.564 4.71821 -2.32963 0
M  V30 3314 O 294.59 4.79628 -3.06505 0
M  V30 3315 N 295.792 5.64186 -1.36654 0
M  V30 3316 H 298.557 1.71973 -2.45449 0
M  V30 3317 H 296.118 0.806077 -1.40407 0
M  V30 3318 H 298.11 3.88302 -1.14032 0
M  V30 3319 H 296.68 3.09686 -0.4258 0
M  V30 3320 H 295.9 2.69324 -2.87851 0
M  V30 3321 H 297.188 3.80284 -3.38026 0
M  V30 3322 H 296.586 5.6058 -0.759344 0
M  V30 3323 H 295.143 6.39618 -1.25425 0
M  V30 3324 N 298.576 1.31904 0.862503 0
M  V30 3325 C 299.825 1.21373 1.61094 0
M  V30 3326 C 300.138 -0.22504 1.94301 0
M  V30 3327 O 301.344 -0.452121 2.67709 0
M  V30 3328 C 299.8 2.12525 2.9045 0
M  V30 3329 C 299.408 3.61441 2.64697 0
M  V30 3330 C 301.152 2.10813 3.68454 0
M  V30 3331 C 299.059 4.44578 3.90006 0
M  V30 3332 H 297.989 0.450705 0.604468 0
M  V30 3333 H 300.64 1.56811 0.953027 0
M  V30 3334 H 299.022 1.69994 3.57656 0
M  V30 3335 H 300.196 4.12264 2.05851 0
M  V30 3336 H 298.511 3.65205 2.00036 0
M  V30 3337 H 301.108 2.70167 4.61426 0
M  V30 3338 H 301.451 1.09713 4.01583 0
M  V30 3339 H 301.984 2.51583 3.08141 0
M  V30 3340 H 298.723 5.46461 3.62023 0
M  V30 3341 H 298.243 3.98508 4.48276 0
M  V30 3342 H 299.922 4.57176 4.5782 0
M  V30 3343 N 300.054 -1.07777 1.14986 0
M  V30 3344 C 301.017 -2.13041 0.845358 0
M  V30 3345 C 302.017 -1.60071 -0.152931 0
M  V30 3346 O 303.207 -1.74033 0.0761879 0
M  V30 3347 C 300.339 -3.39896 0.261383 0
M  V30 3348 H 301.532 -2.41485 1.77834 0
M  V30 3349 H 299.085 -1.23595 0.956757 0
M  V30 3350 H 299.82 -3.17091 -0.68 0
M  V30 3351 H 299.605 -3.79642 0.980514 0
M  V30 3352 H 301.095 -4.17548 0.0657687 0
M  V30 3353 N 301.532 -0.945985 -1.26051 0
M  V30 3354 C 302.78 -0.594941 -1.93145 0
M  V30 3355 C 303.101 0.86953 -1.7454 0
M  V30 3356 O 302.371 1.61838 -1.10387 0
M  V30 3357 H 300.951 -0.217044 -0.714773 0
M  V30 3358 H 303.613 -1.20235 -1.53393 0
M  V30 3359 H 302.709 -0.816835 -3.01221 0
M  V30 3360 N 303.011 1.40521 -0.713556 0
M  V30 3361 C 304.26 2.00155 -0.249192 0
M  V30 3362 C 304.573 1.57224 1.16362 0
M  V30 3363 O 305.779 2.09542 1.72639 0
M  V30 3364 C 304.235 3.5773 -0.3946 0
M  V30 3365 C 303.843 4.09635 -1.81392 0
M  V30 3366 C 305.587 4.24499 0.00907364 0
M  V30 3367 C 303.494 5.59707 -1.91003 0
M  V30 3368 H 302.424 0.74868 -0.0894114 0
M  V30 3369 H 305.075 1.60784 -0.884352 0
M  V30 3370 H 303.457 3.94792 0.30911 0
M  V30 3371 H 304.631 3.83955 -2.54785 0
M  V30 3372 H 302.946 3.55456 -2.16888 0
M  V30 3373 H 305.543 5.34683 -0.0420404 0
M  V30 3374 H 305.886 4.02824 1.05065 0
M  V30 3375 H 306.419 3.92536 -0.645007 0
M  V30 3376 H 303.158 5.86234 -2.93275 0
M  V30 3377 H 302.678 5.87258 -1.22019 0
M  V30 3378 H 304.357 6.24776 -1.6812 0
M  V30 3379 N 304.489 0.459591 1.5075 0
M  V30 3380 C 305.766 -0.160371 1.94941 0
M  V30 3381 C 306.146 -1.58048 1.39943 0
M  V30 3382 O 305.494 -2.206 0.595629 0
M  V30 3383 C 305.704 -0.115432 3.48809 0
M  V30 3384 C 307.052 -0.310026 4.23467 0
M  V30 3385 O 308.076 -0.192543 3.55679 0
M  V30 3386 O 306.935 -0.546031 5.43765 0
M  V30 3387 H 304.029 -0.117925 0.818549 0
M  V30 3388 H 306.575 0.519169 1.61563 0
M  V30 3389 H 305.347 0.87652 3.81357 0
M  V30 3390 H 304.97 -0.836928 3.88692 0
M  V30 3391 N 305.967 -1.56429 0.191757 0
M  V30 3392 C 307.197 -2.01574 -0.452928 0
M  V30 3393 C 307.605 -1.07107 -1.55964 0
M  V30 3394 O 306.948 -0.067534 -1.83576 0
M  V30 3395 C 307.01 -3.43121 -1.07278 0
M  V30 3396 C 306.674 -4.56879 -0.105214 0
M  V30 3397 C 307.671 -5.15379 0.684149 0
M  V30 3398 C 305.356 -5.023 0.00489824 0
M  V30 3399 C 307.35 -6.17746 1.57062 0
M  V30 3400 C 305.037 -6.04511 0.894935 0
M  V30 3401 C 306.035 -6.62108 1.67637 0
M  V30 3402 O 305.723 -7.62335 2.55149 0
M  V30 3403 H 305.455 -0.665554 -0.118379 0
M  V30 3404 H 308.009 -2.03245 0.296737 0
M  V30 3405 H 306.239 -3.38425 -1.87097 0
M  V30 3406 H 307.928 -3.72093 -1.62177 0
M  V30 3407 H 308.694 -4.81157 0.609365 0
M  V30 3408 H 304.573 -4.57168 -0.593156 0
M  V30 3409 H 308.117 -6.6263 2.181 0
M  V30 3410 H 304.014 -6.38157 0.970847 0
M  V30 3411 H 304.782 -7.79741 2.48892 0
M  V30 3412 N 307.445 0.0818655 -1.57387 0
M  V30 3413 C 308.694 0.781681 -1.85937 0
M  V30 3414 C 309.007 1.79246 -0.782957 0
M  V30 3415 O 310.213 2.54112 -0.955987 0
M  V30 3416 C 308.669 1.44109 -3.29789 0
M  V30 3417 C 308.277 0.469396 -4.45534 0
M  V30 3418 C 310.021 2.12386 -3.67549 0
M  V30 3419 C 307.928 1.13415 -5.80423 0
M  V30 3420 H 306.858 0.295682 -0.693605 0
M  V30 3421 H 309.509 0.0348051 -1.83467 0
M  V30 3422 H 307.891 2.23588 -3.2684 0
M  V30 3423 H 309.065 -0.294856 -4.59856 0
M  V30 3424 H 307.38 -0.108383 -4.16259 0
M  V30 3425 H 309.977 2.62878 -4.65617 0
M  V30 3426 H 310.32 2.91877 -2.96839 0
M  V30 3427 H 310.853 1.39751 -3.72444 0
M  V30 3428 H 307.592 0.379771 -6.54399 0
M  V30 3429 H 307.112 1.8695 -5.69921 0
M  V30 3430 H 308.791 1.65686 -6.25426 0
M  V30 3431 N 308.923 1.53595 0.353017 0
M  V30 3432 C 309.87 1.80919 1.43308 0
M  V30 3433 C 310.84 0.654288 1.5267 0
M  V30 3434 O 312.025 0.897759 1.6836 0
M  V30 3435 C 309.165 2.01605 2.80089 0
M  V30 3436 C 308.278 3.29321 2.79593 0
M  V30 3437 C 307.413 3.40125 4.0803 0
M  V30 3438 C 306.452 4.61826 4.01725 0
M  V30 3439 N 305.589 4.69716 5.21834 0
M  V30 3440 H 310.429 2.73074 1.19308 0
M  V30 3441 H 307.966 1.35263 0.578131 0
M  V30 3442 H 309.924 2.11586 3.59565 0
M  V30 3443 H 308.554 1.12772 3.0246 0
M  V30 3444 H 307.606 3.28229 1.92276 0
M  V30 3445 H 308.918 4.18884 2.70809 0
M  V30 3446 H 308.072 3.49488 4.95927 0
M  V30 3447 H 306.811 2.48601 4.19582 0
M  V30 3448 H 305.816 4.52552 3.12213 0
M  V30 3449 H 307.041 5.54705 3.91764 0
M  V30 3450 H 304.987 3.81097 5.33948 0
M  V30 3451 H 304.904 5.53202 5.1527 0
M  V30 3452 H 306.172 4.83376 6.11529 0
M  V30 3453 N 310.401 -0.613514 1.45168 0
M  V30 3454 C 311.647 -1.37471 1.49096 0
M  V30 3455 C 311.98 -1.93765 0.129901 0
M  V30 3456 O 311.255 -1.74707 -0.854858 0
M  V30 3457 C 311.538 -2.52701 2.56542 0
M  V30 3458 C 311.391 -2.01643 4.0207 0
M  V30 3459 C 312.71 -3.54849 2.60327 0
M  V30 3460 H 309.829 -0.498502 0.54283 0
M  V30 3461 H 312.471 -0.692125 1.76945 0
M  V30 3462 H 310.621 -3.10931 2.32926 0
M  V30 3463 H 312.293 -1.48108 4.36877 0
M  V30 3464 H 310.536 -1.32688 4.13009 0
M  V30 3465 H 311.207 -2.84681 4.72928 0
M  V30 3466 H 313.683 -3.0645 2.81474 0
M  V30 3467 H 312.559 -4.32973 3.37381 0
M  V30 3468 H 312.82 -4.10079 1.6519 0
M  V30 3469 N 311.879 -1.3236 -0.855495 0
M  V30 3470 C 312.842 -1.21164 -1.94556 0
M  V30 3471 C 313.842 -0.134908 -1.60233 0
M  V30 3472 O 315.032 -0.385249 -1.69887 0
M  V30 3473 C 312.164 -0.863192 -3.29791 0
M  V30 3474 H 313.357 -2.18038 -2.05911 0
M  V30 3475 H 310.91 -1.16179 -1.04557 0
M  V30 3476 H 311.645 0.103769 -3.24134 0
M  V30 3477 H 311.43 -1.64166 -3.56078 0
M  V30 3478 H 312.92 -0.809156 -4.09686 0
M  V30 3479 N 313.357 1.07166 -1.15556 0
M  V30 3480 C 314.604 1.79798 -0.931604 0
M  V30 3481 C 314.932 1.8682 0.54115 0
M  V30 3482 O 314.187 1.34942 1.41736 0
M  V30 3483 C 314.486 3.24707 -1.49332 0
M  V30 3484 C 314.152 3.37781 -2.98688 0
M  V30 3485 C 312.814 3.41057 -3.39461 0
M  V30 3486 C 315.166 3.40424 -3.94665 0
M  V30 3487 C 312.494 3.4458 -4.74849 0
M  V30 3488 C 314.846 3.45485 -5.29927 0
M  V30 3489 C 313.51 3.47039 -5.70193 0
M  V30 3490 H 312.78 0.657928 -0.340898 0
M  V30 3491 H 315.427 1.26091 -1.44129 0
M  V30 3492 H 313.732 3.81208 -0.904859 0
M  V30 3493 H 315.429 3.79486 -1.29582 0
M  V30 3494 H 312.019 3.35932 -2.66172 0
M  V30 3495 H 316.203 3.37113 -3.64237 0
M  V30 3496 H 311.459 3.44083 -5.05388 0
M  V30 3497 H 315.633 3.46476 -6.04092 0
M  V30 3498 H 313.26 3.49522 -6.75084 0
M  V30 3499 N 314.835 0.952656 1.25548 0
M  V30 3500 C 315.767 0.428609 2.25157 0
M  V30 3501 C 316.78 -0.454428 1.56329 0
M  V30 3502 O 317.969 -0.263023 1.76552 0
M  V30 3503 C 315.069 -0.401972 3.36508 0
M  V30 3504 C 314.242 0.467601 4.34893 0
M  V30 3505 C 313.301 -0.30445 5.25319 0
M  V30 3506 O 312.327 0.296473 5.68427 0
M  V30 3507 N 313.529 -1.59805 5.5807 0
M  V30 3508 H 316.294 1.28497 2.70756 0
M  V30 3509 H 313.855 0.822798 1.39433 0
M  V30 3510 H 315.847 -0.926134 3.9396 0
M  V30 3511 H 314.417 -1.15918 2.90313 0
M  V30 3512 H 313.637 1.17288 3.76347 0
M  V30 3513 H 314.925 1.06119 4.97611 0
M  V30 3514 H 314.323 -2.10823 5.24948 0
M  V30 3515 H 312.88 -2.06822 6.18116 0
M  V30 3516 N 316.313 -1.40141 0.720998 0
M  V30 3517 C 317.276 -2.29058 0.0805834 0
M  V30 3518 C 318.276 -1.45632 -0.681758 0
M  V30 3519 O 319.466 -1.6648 -0.512856 0
M  V30 3520 C 316.598 -3.28925 -0.895593 0
M  V30 3521 H 317.791 -2.87191 0.863793 0
M  V30 3522 H 315.344 -1.48553 0.485975 0
M  V30 3523 H 316.079 -2.75822 -1.70566 0
M  V30 3524 H 315.864 -3.90519 -0.351766 0
M  V30 3525 H 317.354 -3.95494 -1.34069 0
M  V30 3526 N 317.792 -0.46758 -1.50504 0
M  V30 3527 C 318.755 0.317059 -2.26996 0
M  V30 3528 C 319.755 0.923513 -1.31635 0
M  V30 3529 O 320.945 0.793239 -1.55091 0
M  V30 3530 C 318.077 1.45134 -3.08462 0
M  V30 3531 H 319.27 -0.353723 -2.97807 0
M  V30 3532 H 316.823 -0.221545 -1.54722 0
M  V30 3533 H 317.558 2.15728 -2.4214 0
M  V30 3534 H 317.343 1.02232 -3.78538 0
M  V30 3535 H 318.833 2.00493 -3.66323 0
M  V30 3536 N 319.27 1.56325 -0.20005 0
M  V30 3537 C 320.686 1.58839 0.155716 0
M  V30 3538 C 320.886 1.21636 1.60645 0
M  V30 3539 O 319.942 0.941437 2.34293 0
M  V30 3540 C 321.255 3.0032 -0.151124 0
M  V30 3541 C 322.803 3.12866 -0.0916284 0
M  V30 3542 C 323.278 4.56488 -0.371845 0
M  V30 3543 N 324.769 4.62089 -0.320641 0
M  V30 3544 C 325.504 5.71116 -0.511243 0
M  V30 3545 N 325 6.88592 -0.762461 0
M  V30 3546 N 326.793 5.60335 -0.445157 0
M  V30 3547 H 318.944 1.78788 -1.14668 0
M  V30 3548 H 321.207 0.829996 -0.458051 0
M  V30 3549 H 320.913 3.32117 -1.15721 0
M  V30 3550 H 320.787 3.73257 0.543986 0
M  V30 3551 H 323.174 2.80878 0.905065 0
M  V30 3552 H 323.255 2.42304 -0.81989 0
M  V30 3553 H 322.899 4.89189 -1.36588 0
M  V30 3554 H 322.829 5.25246 0.377362 0
M  V30 3555 H 325.32 3.77665 -0.13329 0
M  V30 3556 H 325.633 7.67581 -0.896576 0
M  V30 3557 H 323.978 6.90387 -0.799412 0
M  V30 3558 H 327.169 4.67436 -0.249278 0
M  V30 3559 H 327.342 6.45243 -0.597116 0
M  V30 3560 N 320.748 -0.0735177 1.57428 0
M  V30 3561 C 321.695 -1.08756 2.0357 0
M  V30 3562 C 322.665 -1.38559 0.916 0
M  V30 3563 O 323.85 -1.49656 1.18354 0
M  V30 3564 C 320.99 -2.39657 2.48311 0
M  V30 3565 C 320.103 -2.16399 3.73892 0
M  V30 3566 C 319.238 -3.40852 4.07423 0
M  V30 3567 C 318.277 -3.1295 5.2605 0
M  V30 3568 N 317.414 -4.29729 5.55228 0
M  V30 3569 H 322.254 -0.687104 2.8997 0
M  V30 3570 H 319.791 -0.327709 1.43403 0
M  V30 3571 H 321.749 -3.16081 2.72303 0
M  V30 3572 H 320.379 -2.77508 1.64891 0
M  V30 3573 H 319.431 -1.30676 3.57251 0
M  V30 3574 H 320.743 -1.91788 4.60455 0
M  V30 3575 H 319.897 -4.25671 4.32306 0
M  V30 3576 H 318.636 -3.68537 3.19425 0
M  V30 3577 H 317.641 -2.26526 5.00965 0
M  V30 3578 H 318.866 -2.86589 6.15665 0
M  V30 3579 H 316.812 -4.57448 4.70188 0
M  V30 3580 H 316.729 -4.08385 6.36206 0
M  V30 3581 H 317.997 -5.1555 5.84661 0
M  V30 3582 N 322.226 -1.5378 -0.344866 0
M  V30 3583 C 323.456 -1.74646 -1.10374 0
M  V30 3584 C 323.864 -0.48491 -1.8288 0
M  V30 3585 O 323.207 0.553062 -1.75177 0
M  V30 3586 C 323.269 -2.87145 -2.16306 0
M  V30 3587 C 322.933 -4.26795 -1.63386 0
M  V30 3588 C 323.93 -5.08412 -1.08688 0
M  V30 3589 C 321.615 -4.73276 -1.68272 0
M  V30 3590 C 323.609 -6.34609 -0.595792 0
M  V30 3591 C 321.296 -5.99446 -1.18776 0
M  V30 3592 C 322.294 -6.79946 -0.645215 0
M  V30 3593 O 321.982 -8.03745 -0.157626 0
M  V30 3594 H 321.714 -0.587112 -0.335075 0
M  V30 3595 H 324.268 -2.01403 -0.403252 0
M  V30 3596 H 322.498 -2.55909 -2.89909 0
M  V30 3597 H 324.187 -2.95992 -2.77747 0
M  V30 3598 H 324.953 -4.73666 -1.04236 0
M  V30 3599 H 320.832 -4.10677 -2.09442 0
M  V30 3600 H 324.376 -6.97389 -0.171654 0
M  V30 3601 H 320.273 -6.33687 -1.22928 0
M  V30 3602 H 321.041 -8.18038 -0.275037 0
M  V30 3603 N 323.704 0.605807 -1.45491 0
M  V30 3604 C 324.952 1.36207 -1.49305 0
M  V30 3605 C 325.273 1.94519 -0.136863 0
M  V30 3606 O 324.543 1.77261 0.833983 0
M  V30 3607 H 323.123 0.50565 -0.549843 0
M  V30 3608 H 325.785 0.711239 -1.81459 0
M  V30 3609 H 324.881 2.18058 -2.23287 0
M  V30 3610 N 325.182 1.32811 0.848464 0
M  V30 3611 C 326.43 1.23479 1.59991 0
M  V30 3612 C 326.751 -0.201853 1.93952 0
M  V30 3613 O 326.021 -1.12818 1.60153 0
M  V30 3614 H 324.601 0.454034 0.593179 0
M  V30 3615 H 327.263 1.66412 1.01455 0
M  V30 3616 H 326.359 1.82178 2.53412 0
M  V30 3617 N 326.66 -1.06551 1.16123 0
M  V30 3618 C 327.937 -1.76097 0.85142 0
M  V30 3619 C 328.317 -2.00802 -0.6513 0
M  V30 3620 O 327.665 -1.63302 -1.59827 0
M  V30 3621 C 327.875 -3.06384 1.67122 0
M  V30 3622 C 329.223 -3.80585 1.88255 0
M  V30 3623 O 330.247 -3.16218 1.63966 0
M  V30 3624 O 329.106 -4.96212 2.2899 0
M  V30 3625 H 326.2 -0.765102 0.313923 0
M  V30 3626 H 328.746 -1.12844 1.26745 0
M  V30 3627 H 327.518 -2.84071 2.69108 0
M  V30 3628 H 327.141 -3.77371 1.25206 0
M  V30 3629 N 328.138 -0.959301 -1.25041 0
M  V30 3630 C 329.086 -0.474437 -2.2771 0
M  V30 3631 C 330.08 0.457697 -1.631 0
M  V30 3632 O 331.286 0.333912 -1.76876 0
M  V30 3633 H 327.661 -0.134936 -0.739795 0
M  V30 3634 H 329.632 -1.35251 -2.65988 0
M  V30 3635 C 328.381 0.227884 -3.46952 0
M  V30 3636 H 327.704 -0.480248 -3.96905 0
M  V30 3637 H 329.144 0.531091 -4.20661 0
M  V30 3638 C 327.603 1.452 -3.04004 0
M  V30 3639 O 328.133 2.54949 -3.10426 0
M  V30 3640 N 326.339 1.31502 -2.59144 0
M  V30 3641 H 325.886 0.422065 -2.54119 0
M  V30 3642 H 325.844 2.13521 -2.30773 0
M  V30 3643 N 329.616 1.39756 -0.72842 0
M  V30 3644 C 330.865 1.99879 -0.270407 0
M  V30 3645 C 331.178 1.58449 1.14688 0
M  V30 3646 O 332.384 2.11362 1.70407 0
M  V30 3647 C 330.84 3.57292 -0.43252 0
M  V30 3648 C 330.448 4.07688 -1.85727 0
M  V30 3649 C 332.192 4.24485 -0.0359507 0
M  V30 3650 C 330.099 5.5765 -1.96928 0
M  V30 3651 H 329.029 0.747689 -0.0973472 0
M  V30 3652 H 331.68 1.59837 -0.901355 0
M  V30 3653 H 330.062 3.95097 0.267219 0
M  V30 3654 H 331.236 3.81231 -2.58843 0
M  V30 3655 H 329.551 3.53135 -2.20646 0
M  V30 3656 H 332.148 5.34609 -0.0987484 0
M  V30 3657 H 332.491 4.03915 1.00787 0
M  V30 3658 H 333.024 3.9183 -0.686604 0
M  V30 3659 H 329.763 5.8309 -2.99476 0
M  V30 3660 H 329.283 5.8593 -1.28241 0
M  V30 3661 H 330.962 6.22957 -1.74737 0
M  V30 3662 N 331.094 0.475555 1.50254 0
M  V30 3663 C 332.041 -0.316293 2.28622 0
M  V30 3664 C 333.011 -0.983227 1.33873 0
M  V30 3665 O 334.196 -0.994805 1.62814 0
M  V30 3666 C 331.336 -1.38975 3.1588 0
M  V30 3667 C 330.449 -0.737146 4.25664 0
M  V30 3668 C 329.584 -1.78887 5.00173 0
M  V30 3669 C 328.623 -1.11676 6.01826 0
M  V30 3670 N 327.76 -2.11154 6.69596 0
M  V30 3671 H 332.6 0.358297 2.95838 0
M  V30 3672 H 330.137 0.188541 1.45887 0
M  V30 3673 H 332.095 -2.02383 3.64825 0
M  V30 3674 H 330.725 -2.03344 2.50701 0
M  V30 3675 H 329.777 0.0096065 3.80399 0
M  V30 3676 H 331.089 -0.206816 4.98371 0
M  V30 3677 H 330.243 -2.49865 5.52859 0
M  V30 3678 H 328.982 -2.35302 4.27182 0
M  V30 3679 H 327.987 -0.392633 5.48396 0
M  V30 3680 H 329.212 -0.55945 6.76792 0
M  V30 3681 H 327.158 -2.66577 5.99394 0
M  V30 3682 H 327.075 -1.63118 7.38193 0
M  V30 3683 H 328.343 -2.81497 7.26897 0
M  V30 3684 N 332.573 -1.56217 0.208337 0
M  V30 3685 C 333.503 -2.22694 -0.702116 0
M  V30 3686 C 334.484 -1.19432 -1.2112 0
M  V30 3687 O 335.669 -1.47978 -1.25762 0
M  V30 3688 C 332.799 -2.8966 -1.9161 0
M  V30 3689 C 331.753 -3.9928 -1.5414 0
M  V30 3690 C 331.079 -4.53476 -2.83308 0
M  V30 3691 C 332.379 -5.17012 -0.741339 0
M  V30 3692 H 334.073 -2.99034 -0.147898 0
M  V30 3693 H 331.619 -1.43831 -0.0696951 0
M  V30 3694 H 333.572 -3.34852 -2.55836 0
M  V30 3695 H 332.296 -2.10746 -2.49507 0
M  V30 3696 H 330.955 -3.54799 -0.922668 0
M  V30 3697 H 330.603 -3.71308 -3.39322 0
M  V30 3698 H 330.303 -5.27451 -2.58976 0
M  V30 3699 H 331.827 -5.01378 -3.485 0
M  V30 3700 H 333.241 -5.58667 -1.28699 0
M  V30 3701 H 331.638 -5.97137 -0.595627 0
M  V30 3702 H 332.708 -4.8423 0.254851 0
M  V30 3703 N 334.051 0.0651679 -1.57465 0
M  V30 3704 C 335.281 0.774683 -1.91526 0
M  V30 3705 C 335.689 1.71305 -0.803196 0
M  V30 3706 O 335.032 1.82231 0.231881 0
M  V30 3707 C 335.094 1.61645 -3.21109 0
M  V30 3708 C 334.758 0.846753 -4.49087 0
M  V30 3709 C 335.755 0.163024 -5.19644 0
M  V30 3710 C 333.44 0.811966 -4.95694 0
M  V30 3711 C 335.434 -0.54519 -6.35064 0
M  V30 3712 C 333.121 0.0999836 -6.11018 0
M  V30 3713 C 334.119 -0.577388 -6.80555 0
M  V30 3714 O 333.807 -1.27789 -7.93678 0
M  V30 3715 H 333.539 0.225031 -0.637446 0
M  V30 3716 H 336.093 0.0377134 -2.05365 0
M  V30 3717 H 334.323 2.39638 -3.03497 0
M  V30 3718 H 336.012 2.20525 -3.40769 0
M  V30 3719 H 336.778 0.181163 -4.84662 0
M  V30 3720 H 332.657 1.32867 -4.41438 0
M  V30 3721 H 336.201 -1.07446 -6.89276 0
M  V30 3722 H 332.098 0.0797945 -6.45451 0
M  V30 3723 H 332.866 -1.18784 -8.09835 0
M  V30 3724 N 335.529 1.53961 0.336706 0
M  V30 3725 C 336.462 1.77255 1.43722 0
M  V30 3726 C 337.44 0.62193 1.50236 0
M  V30 3727 O 338.624 0.857874 1.67847 0
M  V30 3728 C 335.751 1.87733 2.81912 0
M  V30 3729 C 334.797 3.09933 2.92991 0
M  V30 3730 S 335.63 4.68836 2.58753 0
M  V30 3731 C 336.786 4.82202 3.99039 0
M  V30 3732 H 337.019 2.70322 1.23748 0
M  V30 3733 H 334.552 1.44917 0.532777 0
M  V30 3734 H 336.51 1.94455 3.61521 0
M  V30 3735 H 335.171 0.956666 2.99177 0
M  V30 3736 H 334.364 3.1396 3.94265 0
M  V30 3737 H 333.966 3.01472 2.21338 0
M  V30 3738 H 336.258 4.64032 4.9364 0
M  V30 3739 H 337.201 5.84298 4.00002 0
M  V30 3740 H 337.609 4.10604 3.87382 0
M  V30 3741 N 337.007 -0.598083 1.45811 0
M  V30 3742 C 337.955 -1.72932 1.55555 0
M  V30 3743 C 338.949 -1.63984 0.424921 0
M  V30 3744 O 340.155 -1.69663 0.601205 0
M  V30 3745 H 336.53 -0.571489 0.488779 0
M  V30 3746 H 338.501 -1.61842 2.50699 0
M  V30 3747 C 337.25 -3.11318 1.54843 0
M  V30 3748 H 336.573 -3.18867 2.41172 0
M  V30 3749 H 338.013 -3.90274 1.65717 0
M  V30 3750 C 336.472 -3.3578 0.274427 0
M  V30 3751 O 337.002 -3.9654 -0.641778 0
M  V30 3752 N 335.208 -2.90119 0.167139 0
M  V30 3753 H 334.755 -2.40855 0.913596 0
M  V30 3754 H 334.713 -3.0686 -0.684435 0
M  V30 3755 N 338.485 -1.33259 -0.841409 0
M  V30 3756 C 339.762 -1.15174 -1.58096 0
M  V30 3757 C 340.142 0.282858 -2.09196 0
M  V30 3758 O 339.49 1.28151 -1.89181 0
M  V30 3759 C 339.7 -2.1907 -2.71679 0
M  V30 3760 C 341.048 -2.53093 -3.40924 0
M  V30 3761 O 342.072 -2.17717 -2.81918 0
M  V30 3762 O 340.931 -3.1379 -4.47435 0
M  V30 3763 H 338.025 -0.445303 -0.696875 0
M  V30 3764 H 340.571 -1.44833 -0.884385 0
M  V30 3765 H 339.343 -3.15443 -2.31541 0
M  V30 3766 H 338.966 -1.90481 -3.49002 0
M  V30 3767 N 339.963 1.05934 -1.16686 0
M  V30 3768 C 341.193 1.82226 -0.973515 0
M  V30 3769 C 341.601 1.8297 0.481532 0
M  V30 3770 O 340.944 1.25009 1.34604 0
M  V30 3771 C 341.006 3.29897 -1.42858 0
M  V30 3772 C 340.67 3.52849 -2.90425 0
M  V30 3773 C 341.667 3.45595 -3.88407 0
M  V30 3774 C 339.352 3.80053 -3.28428 0
M  V30 3775 C 341.346 3.65217 -5.22394 0
M  V30 3776 C 339.033 3.99325 -4.62583 0
M  V30 3777 C 340.031 3.91905 -5.59374 0
M  V30 3778 O 339.719 4.10647 -6.91104 0
M  V30 3779 H 339.451 0.581314 -0.345036 0
M  V30 3780 H 342.005 1.3453 -1.55212 0
M  V30 3781 H 340.235 3.78472 -0.793477 0
M  V30 3782 H 341.924 3.87692 -1.20207 0
M  V30 3783 H 342.69 3.24564 -3.60393 0
M  V30 3784 H 338.569 3.84936 -2.53664 0
M  V30 3785 H 342.113 3.59341 -5.9793 0
M  V30 3786 H 338.01 4.19846 -4.90306 0
M  V30 3787 H 338.778 4.27915 -6.97733 0
M  V30 3788 N 341.441 0.965919 1.2453 0
M  V30 3789 C 342.389 0.486506 2.27455 0
M  V30 3790 C 343.383 -0.449041 1.6334 0
M  V30 3791 O 344.589 -0.324527 1.7705 0
M  V30 3792 H 340.964 0.138857 0.739069 0
M  V30 3793 H 342.935 1.3666 2.65267 0
M  V30 3794 C 341.684 -0.209481 3.47068 0
M  V30 3795 H 341.007 0.50129 3.96645 0
M  V30 3796 H 342.447 -0.508775 4.20936 0
M  V30 3797 C 340.906 -1.43586 3.0477 0
M  V30 3798 O 341.436 -2.53299 3.11773 0
M  V30 3799 N 339.642 -1.30126 2.59838 0
M  V30 3800 H 339.189 -0.408583 2.54339 0
M  V30 3801 H 339.147 -2.12294 2.31902 0
M  V30 3802 N 342.919 -1.39368 0.735821 0
M  V30 3803 C 344.147 -2.04795 0.294393 0
M  V30 3804 C 344.562 -1.55478 -1.07107 0
M  V30 3805 O 343.919 -0.720038 -1.67695 0
M  V30 3806 C 343.97 -3.6035 0.288071 0
M  V30 3807 O 343.691 -4.07852 1.59963 0
M  V30 3808 C 345.192 -4.42976 -0.169422 0
M  V30 3809 H 342.412 -0.658571 0.128551 0
M  V30 3810 H 344.956 -1.78399 0.999701 0
M  V30 3811 H 343.111 -3.85645 -0.368355 0
M  V30 3812 H 343.525 -5.02181 1.51375 0
M  V30 3813 H 344.999 -5.51864 -0.122687 0
M  V30 3814 H 345.476 -4.22068 -1.21472 0
M  V30 3815 H 346.082 -4.22832 0.457469 0
M  V30 3816 N 344.397 -0.483516 -1.5 0
M  V30 3817 C 345.307 0.309172 -2.32554 0
M  V30 3818 C 346.323 0.984159 -1.43493 0
M  V30 3819 O 347.499 0.969399 -1.76535 0
M  V30 3820 C 344.564 1.36979 -3.18493 0
M  V30 3821 C 343.625 0.710095 -4.23387 0
M  V30 3822 C 342.858 1.72018 -5.05218 0
M  V30 3823 O 343.081 2.94813 -4.88305 0
M  V30 3824 O 342.015 1.28515 -5.8802 0
M  V30 3825 H 345.841 -0.366064 -3.01486 0
M  V30 3826 H 343.426 -0.24514 -1.47375 0
M  V30 3827 H 345.308 1.98385 -3.71781 0
M  V30 3828 H 343.983 2.02828 -2.52275 0
M  V30 3829 H 342.89 0.0567539 -3.74057 0
M  V30 3830 H 344.223 0.0943557 -4.9211 0
M  V30 3831 N 345.875 1.56104 -0.216619 0
M  V30 3832 C 347.121 1.98466 0.417033 0
M  V30 3833 C 347.454 1.10403 1.59765 0
M  V30 3834 O 346.729 0.160632 1.93836 0
M  V30 3835 C 347.012 3.49769 0.85637 0
M  V30 3836 C 346.865 4.48606 -0.327546 0
M  V30 3837 C 348.184 4.05339 1.7143 0
M  V30 3838 H 345.303 0.721551 0.150112 0
M  V30 3839 H 347.945 1.87423 -0.311864 0
M  V30 3840 H 346.095 3.5931 1.47745 0
M  V30 3841 H 347.767 4.5108 -0.965618 0
M  V30 3842 H 346.01 4.22682 -0.975805 0
M  V30 3843 H 346.681 5.51995 0.0227149 0
M  V30 3844 H 349.157 3.98712 1.19031 0
M  V30 3845 H 348.033 5.11533 1.99061 0
M  V30 3846 H 348.294 3.51918 2.67593 0
M  V30 3847 N 347.353 -0.0568162 1.57498 0
M  V30 3848 C 348.263 -1.08346 2.08083 0
M  V30 3849 C 349.279 -1.41439 1.01346 0
M  V30 3850 O 350.455 -1.51316 1.32912 0
M  V30 3851 C 347.52 -2.37352 2.52715 0
M  V30 3852 C 346.581 -2.11093 3.73816 0
M  V30 3853 C 345.814 -3.33949 4.1631 0
M  V30 3854 O 346.037 -4.43622 3.58547 0
M  V30 3855 O 344.971 -3.21279 5.08983 0
M  V30 3856 H 348.797 -0.683667 2.95905 0
M  V30 3857 H 346.382 -0.271965 1.46904 0
M  V30 3858 H 348.264 -3.13246 2.81877 0
M  V30 3859 H 346.939 -2.76681 1.68016 0
M  V30 3860 H 345.846 -1.32856 3.49714 0
M  V30 3861 H 347.179 -1.76637 4.59413 0
M  V30 3862 N 348.832 -1.54138 -0.328536 0
M  V30 3863 C 350.243 -1.63395 -0.903272 0
M  V30 3864 C 350.594 -0.524828 -1.8905 0
M  V30 3865 O 349.719 0.343068 -2.13663 0
M  V30 3866 C 350.314 -2.9618 -1.64507 0
M  V30 3867 C 348.873 -3.0765 -2.1686 0
M  V30 3868 C 348.02 -2.58933 -0.992416 0
M  V30 3869 H 350.971 -1.58344 -0.106253 0
M  V30 3870 H 350.992 -2.86061 -2.50897 0
M  V30 3871 H 350.504 -3.76884 -0.926302 0
M  V30 3872 H 348.605 -2.31611 -2.91868 0
M  V30 3873 H 348.718 -4.1337 -2.42202 0
M  V30 3874 H 347.082 -2.14706 -1.37016 0
M  V30 3875 H 347.865 -3.42089 -0.288041 0
M  V30 3876 N 350.31 0.590341 -1.46126 0
M  V30 3877 C 351.257 1.69994 -1.56111 0
M  V30 3878 C 352.227 1.61065 -0.405867 0
M  V30 3879 O 353.412 1.8039 -0.621613 0
M  V30 3880 C 350.552 3.08326 -1.55013 0
M  V30 3881 C 349.665 3.27936 -2.81215 0
M  V30 3882 C 348.8 4.56473 -2.71673 0
M  V30 3883 C 347.839 4.694 -3.92849 0
M  V30 3884 N 346.976 5.89254 -3.81738 0
M  V30 3885 H 351.816 1.60797 -2.50895 0
M  V30 3886 H 349.353 0.783799 -1.24479 0
M  V30 3887 H 351.311 3.88383 -1.52362 0
M  V30 3888 H 349.941 3.16439 -0.637667 0
M  V30 3889 H 348.993 2.41536 -2.93879 0
M  V30 3890 H 350.305 3.33357 -3.71045 0
M  V30 3891 H 349.459 5.44748 -2.67085 0
M  V30 3892 H 348.198 4.53477 -1.7947 0
M  V30 3893 H 347.203 3.79544 -3.97777 0
M  V30 3894 H 348.428 4.7418 -4.86138 0
M  V30 3895 H 346.374 5.87271 -2.92317 0
M  V30 3896 H 346.291 5.95911 -4.65217 0
M  V30 3897 H 347.559 6.79981 -3.81112 0
M  V30 3898 N 351.788 1.33704 0.83433 0
M  V30 3899 C 353.204 1.13137 1.12571 0
M  V30 3900 C 353.404 -0.0747261 2.01361 0
M  V30 3901 O 352.46 -0.753647 2.4099 0
M  V30 3902 C 353.773 2.42105 1.78342 0
M  V30 3903 C 355.321 2.48054 1.90888 0
M  V30 3904 C 355.796 3.76995 2.60075 0
M  V30 3905 N 357.287 3.78092 2.67584 0
M  V30 3906 C 358.022 4.74574 3.21818 0
M  V30 3907 N 357.518 5.81434 3.76705 0
M  V30 3908 N 359.311 4.62044 3.20112 0
M  V30 3909 H 351.462 2.11 0.243489 0
M  V30 3910 H 353.725 0.932532 0.17055 0
M  V30 3911 H 353.431 3.30391 1.20561 0
M  V30 3912 H 353.305 2.54594 2.7832 0
M  V30 3913 H 355.692 1.60215 2.47821 0
M  V30 3914 H 355.773 2.39502 0.898459 0
M  V30 3915 H 355.417 4.65219 2.03799 0
M  V30 3916 H 355.347 3.82825 3.61597 0
M  V30 3917 H 357.838 3.00865 2.28667 0
M  V30 3918 H 358.151 6.51084 4.16305 0
M  V30 3919 H 356.496 5.85163 3.7498 0
M  V30 3920 H 359.687 3.77716 2.76493 0
M  V30 3921 H 359.86 5.37406 3.62076 0
M  V30 3922 N 353.266 -1.05314 1.17247 0
M  V30 3923 C 354.494 -1.81971 0.984593 0
M  V30 3924 C 354.909 -1.82929 -0.467166 0
M  V30 3925 O 354.266 -1.25564 -1.32438 0
M  V30 3926 C 354.317 -3.28143 1.51672 0
M  V30 3927 O 354.038 -3.27347 2.91163 0
M  V30 3928 C 355.539 -4.21493 1.37326 0
M  V30 3929 H 352.759 -0.573455 0.348411 0
M  V30 3930 H 355.303 -1.32808 1.55506 0
M  V30 3931 H 353.458 -3.74582 0.988302 0
M  V30 3932 H 353.872 -4.18824 3.15732 0
M  V30 3933 H 355.346 -5.22043 1.79375 0
M  V30 3934 H 355.823 -4.38031 0.320169 0
M  V30 3935 H 356.429 -3.80909 1.89178 0
M  V30 3936 N 354.744 -0.972509 -1.24016 0
M  V30 3937 C 355.707 -0.511403 -2.23422 0
M  V30 3938 C 356.707 0.394679 -1.55881 0
M  V30 3939 O 357.897 0.189469 -1.73167 0
M  V30 3940 C 355.029 0.258769 -3.39916 0
M  V30 3941 H 356.222 -1.39024 -2.6573 0
M  V30 3942 H 353.775 -0.757585 -1.36713 0
M  V30 3943 H 354.51 1.1545 -3.03054 0
M  V30 3944 H 354.295 -0.391522 -3.9014 0
M  V30 3945 H 355.785 0.570244 -4.13688 0
M  V30 3946 N 356.222 1.38976 -0.743202 0
M  V30 3947 C 357.152 2.33171 -0.123873 0
M  V30 3948 C 358.133 1.54336 0.71516 0
M  V30 3949 O 359.318 1.82696 0.658467 0
M  V30 3950 C 356.448 3.38474 0.777978 0
M  V30 3951 C 355.402 4.27979 0.0424758 0
M  V30 3952 C 354.728 5.2405 1.06189 0
M  V30 3953 C 356.028 5.10155 -1.1198 0
M  V30 3954 H 357.722 2.85213 -0.910709 0
M  V30 3955 H 355.268 1.37133 -0.439388 0
M  V30 3956 H 357.221 4.03328 1.22084 0
M  V30 3957 H 355.945 2.84891 1.59702 0
M  V30 3958 H 354.604 3.64616 -0.380853 0
M  V30 3959 H 354.252 4.66758 1.87472 0
M  V30 3960 H 353.952 5.84785 0.574485 0
M  V30 3961 H 355.476 5.9178 1.50428 0
M  V30 3962 H 356.89 5.68307 -0.75499 0
M  V30 3963 H 355.287 5.80073 -1.53738 0
M  V30 3964 H 356.357 4.44504 -1.93764 0
M  V30 3965 N 357.7 0.491464 1.49741 0
M  V30 3966 C 358.93 -0.0534375 2.06531 0
M  V30 3967 C 359.338 -1.32233 1.35318 0
M  V30 3968 O 358.681 -1.78781 0.422243 0
M  V30 3969 C 358.743 -0.387034 3.57411 0
M  V30 3970 C 358.407 0.782764 4.50246 0
M  V30 3971 C 359.404 1.67059 4.92329 0
M  V30 3972 C 357.089 0.978866 4.9267 0
M  V30 3973 C 359.083 2.73874 5.75562 0
M  V30 3974 C 356.77 2.05022 5.75682 0
M  V30 3975 C 357.768 2.92851 6.17031 0
M  V30 3976 O 357.456 3.98138 6.98385 0
M  V30 3977 H 357.188 0.0129324 0.675876 0
M  V30 3978 H 359.742 0.685238 1.93633 0
M  V30 3979 H 357.972 -1.17918 3.68283 0
M  V30 3980 H 359.661 -0.869419 3.96479 0
M  V30 3981 H 360.427 1.53086 4.60206 0
M  V30 3982 H 356.306 0.304646 4.59992 0
M  V30 3983 H 359.85 3.42458 6.07757 0
M  V30 3984 H 355.747 2.18993 6.07217 0
M  V30 3985 H 356.515 3.95374 7.16674 0
M  V30 3986 N 359.178 -1.55987 0.224894 0
M  V30 3987 C 360.126 -2.21808 -0.700283 0
M  V30 3988 C 361.12 -1.19854 -1.19714 0
M  V30 3989 O 362.326 -1.37925 -1.15658 0
M  V30 3990 H 358.701 -0.711226 -0.244258 0
M  V30 3991 H 360.672 -2.98152 -0.121749 0
M  V30 3992 C 359.421 -2.91444 -1.8962 0
M  V30 3993 H 358.744 -3.69655 -1.52299 0
M  V30 3994 H 360.184 -3.40894 -2.52125 0
M  V30 3995 C 358.643 -1.94098 -2.75368 0
M  V30 3996 O 359.173 -1.46004 -3.74227 0
M  V30 3997 N 357.379 -1.61675 -2.41474 0
M  V30 3998 H 356.926 -2.00979 -1.61137 0
M  V30 3999 H 356.884 -0.968036 -2.99126 0
M  V30 4000 N 360.656 0.0484629 -1.57525 0
M  V30 4001 C 361.586 1.0549 -2.08313 0
M  V30 4002 C 362.567 1.38929 -0.981463 0
M  V30 4003 O 363.752 1.48151 -1.25558 0
M  V30 4004 C 360.882 2.36162 -2.54646 0
M  V30 4005 C 359.836 2.17016 -3.68901 0
M  V30 4006 C 359.162 3.53278 -4.01371 0
M  V30 4007 C 360.462 1.57219 -4.98076 0
M  V30 4008 H 362.156 0.632195 -2.92649 0
M  V30 4009 H 359.702 0.302654 -1.40784 0
M  V30 4010 H 361.655 3.06882 -2.88793 0
M  V30 4011 H 360.379 2.80456 -1.67368 0
M  V30 4012 H 359.038 1.48733 -3.35073 0
M  V30 4013 H 358.686 3.95185 -3.11188 0
M  V30 4014 H 358.386 3.41299 -4.78318 0
M  V30 4015 H 359.91 4.25391 -4.38035 0
M  V30 4016 H 361.324 2.17832 -5.30304 0
M  V30 4017 H 359.721 1.55871 -5.79503 0
M  V30 4018 H 360.791 0.535956 -4.81929 0
M  V30 4019 N 362.134 1.5431 0.320358 0
M  V30 4020 C 363.38 1.72924 1.05949 0
M  V30 4021 C 363.713 0.503185 1.87568 0
M  V30 4022 O 362.988 -0.499839 1.87968 0
M  V30 4023 C 363.271 3.00676 1.98156 0
M  V30 4024 C 363.124 4.3354 1.19845 0
M  V30 4025 C 364.443 3.24198 2.9763 0
M  V30 4026 H 361.562 0.629195 0.383774 0
M  V30 4027 H 364.204 1.87008 0.335854 0
M  V30 4028 H 362.354 2.888 2.59859 0
M  V30 4029 H 364.026 4.57305 0.605773 0
M  V30 4030 H 362.269 4.309 0.500784 0
M  V30 4031 H 362.94 5.19156 1.87567 0
M  V30 4032 H 365.416 3.35557 2.4605 0
M  V30 4033 H 364.292 4.14938 3.59329 0
M  V30 4034 H 364.553 2.41577 3.7026 0
M  V30 4035 N 363.613 -0.582584 1.46437 0
M  V30 4036 C 364.56 -1.69164 1.5701 0
M  V30 4037 C 365.53 -1.60847 0.414403 0
M  V30 4038 O 366.715 -1.80058 0.631171 0
M  V30 4039 C 363.855 -3.075 1.56646 0
M  V30 4040 C 362.968 -3.2644 2.82951 0
M  V30 4041 C 362.103 -4.55026 2.7409 0
M  V30 4042 C 361.142 -4.6731 3.95333 0
M  V30 4043 N 360.279 -5.87221 3.84858 0
M  V30 4044 H 365.119 -1.59464 2.51744 0
M  V30 4045 H 362.656 -0.777186 1.24893 0
M  V30 4046 H 364.614 -3.8757 1.5442 0
M  V30 4047 H 363.244 -3.16096 0.654439 0
M  V30 4048 H 362.296 -2.39974 2.95155 0
M  V30 4049 H 363.608 -3.31385 3.72808 0
M  V30 4050 H 362.762 -5.43324 2.6997 0
M  V30 4051 H 361.501 -4.52519 1.81873 0
M  V30 4052 H 360.506 -3.77429 3.99784 0
M  V30 4053 H 361.731 -4.71595 4.88646 0
M  V30 4054 H 359.677 -5.85712 2.95427 0
M  V30 4055 H 359.594 -5.93435 4.6837 0
M  V30 4056 H 360.862 -6.7795 3.84713 0
M  V30 4057 N 365.091 -1.34144 -0.827227 0
M  V30 4058 C 366.023 -1.21206 -1.9453 0
M  V30 4059 C 367.036 -0.140176 -1.62195 0
M  V30 4060 O 368.225 -0.391647 -1.7415 0
M  V30 4061 C 365.325 -0.839141 -3.28347 0
M  V30 4062 C 364.498 -2.0051 -3.88734 0
M  V30 4063 C 363.557 -1.61128 -5.00923 0
M  V30 4064 O 362.583 -2.32726 -5.19449 0
M  V30 4065 N 363.785 -0.522958 -5.7814 0
M  V30 4066 H 366.55 -2.17525 -2.06162 0
M  V30 4067 H 364.111 -1.27043 -1.00358 0
M  V30 4068 H 366.103 -0.557556 -4.00841 0
M  V30 4069 H 364.673 0.0337293 -3.12582 0
M  V30 4070 H 363.893 -2.45166 -3.08686 0
M  V30 4071 H 365.181 -2.78498 -4.25812 0
M  V30 4072 H 364.579 0.0723518 -5.65654 0
M  V30 4073 H 363.136 -0.301089 -6.51104 0
M  V30 4074 N 366.569 1.04691 -1.17803 0
M  V30 4075 C 367.499 2.14494 -0.92275 0
M  V30 4076 C 368.48 1.69546 0.137179 0
M  V30 4077 O 369.665 1.94195 -0.0141108 0
M  V30 4078 C 366.795 3.44491 -0.440803 0
M  V30 4079 C 365.749 4.03031 -1.4405 0
M  V30 4080 C 365.075 5.28432 -0.81631 0
M  V30 4081 C 366.375 4.39932 -2.81527 0
M  V30 4082 H 368.069 2.36107 -1.84103 0
M  V30 4083 H 365.615 1.1347 -0.886599 0
M  V30 4084 H 367.568 4.2066 -0.249602 0
M  V30 4085 H 366.292 3.22546 0.513025 0
M  V30 4086 H 364.951 3.28937 -1.61853 0
M  V30 4087 H 364.599 5.02792 0.144511 0
M  V30 4088 H 364.299 5.68559 -1.48371 0
M  V30 4089 H 365.823 6.07284 -0.635496 0
M  V30 4090 H 367.237 5.07113 -2.67412 0
M  V30 4091 H 365.634 4.9109 -3.44892 0
M  V30 4092 H 366.704 3.50045 -3.35554 0
M  V30 4093 N 368.047 0.979072 1.23499 0
M  V30 4094 C 368.994 0.517904 2.24914 0
M  V30 4095 C 369.964 -0.442525 1.60097 0
M  V30 4096 O 371.149 -0.350365 1.87556 0
M  V30 4097 C 368.289 -0.174813 3.44657 0
M  V30 4098 C 367.402 0.825721 4.24035 0
M  V30 4099 C 366.537 0.107946 5.3109 0
M  V30 4100 C 365.576 1.09778 6.02175 0
M  V30 4101 N 364.713 0.40925 7.00906 0
M  V30 4102 H 369.553 1.38751 2.63727 0
M  V30 4103 H 367.09 0.695303 1.2963 0
M  V30 4104 H 369.048 -0.593233 4.12961 0
M  V30 4105 H 367.678 -1.0083 3.06648 0
M  V30 4106 H 366.73 1.36253 3.55161 0
M  V30 4107 H 368.042 1.58005 4.73113 0
M  V30 4108 H 367.196 -0.367904 6.05583 0
M  V30 4109 H 365.935 -0.678994 4.8295 0
M  V30 4110 H 364.94 1.5844 5.26476 0
M  V30 4111 H 366.165 1.88536 6.52404 0
M  V30 4112 H 364.111 -0.358506 6.5502 0
M  V30 4113 H 364.028 1.10226 7.47921 0
M  V30 4114 H 365.296 -0.0442557 7.79487 0
M  V30 4115 N 369.525 -1.3858 0.750561 0
M  V30 4116 C 370.435 -2.34278 0.122825 0
M  V30 4117 C 371.451 -1.59116 -0.704131 0
M  V30 4118 O 372.627 -1.91326 -0.628987 0
M  V30 4119 C 369.692 -3.38221 -0.762086 0
M  V30 4120 C 368.753 -4.29227 0.078896 0
M  V30 4121 C 367.986 -5.28205 -0.763874 0
M  V30 4122 O 368.209 -5.34112 -2.00201 0
M  V30 4123 O 367.143 -6.01618 -0.18428 0
M  V30 4124 H 370.969 -2.89649 0.913088 0
M  V30 4125 H 368.554 -1.40374 0.511417 0
M  V30 4126 H 370.436 -4.01872 -1.26793 0
M  V30 4127 H 369.111 -2.85211 -1.5309 0
M  V30 4128 H 368.018 -3.68747 0.630621 0
M  V30 4129 H 369.351 -4.85484 0.810289 0
M  V30 4130 N 371.003 -0.499398 -1.49478 0
M  V30 4131 C 371.913 0.284489 -2.32869 0
M  V30 4132 C 372.929 0.968885 -1.44529 0
M  V30 4133 O 374.105 0.95062 -1.77553 0
M  V30 4134 C 371.17 1.33594 -3.19928 0
M  V30 4135 C 370.231 0.665149 -4.24116 0
M  V30 4136 C 369.464 1.6665 -5.07014 0
M  V30 4137 O 369.687 2.89618 -4.91404 0
M  V30 4138 O 368.621 1.22271 -5.8935 0
M  V30 4139 H 372.447 -0.39802 -3.01081 0
M  V30 4140 H 370.032 -0.260758 -1.47107 0
M  V30 4141 H 371.914 1.94431 -3.73864 0
M  V30 4142 H 370.589 2.0014 -2.54412 0
M  V30 4143 H 369.496 0.0170769 -3.74096 0
M  V30 4144 H 370.829 0.0421555 -4.92182 0
M  V30 4145 N 372.481 1.55866 -0.233164 0
M  V30 4146 C 373.729 1.9821 0.394593 0
M  V30 4147 C 374.05 1.12234 1.59463 0
M  V30 4148 O 373.32 0.201981 1.94856 0
M  V30 4149 H 371.9 0.732034 0.148778 0
M  V30 4150 H 374.562 1.92107 -0.32876 0
M  V30 4151 H 373.658 3.03845 0.713063 0
M  V30 4152 N 373.959 -0.0401083 1.57549 0
M  V30 4153 C 375.205 -0.734211 1.89043 0
M  V30 4154 C 375.538 -1.75591 0.829535 0
M  V30 4155 O 374.813 -1.93868 -0.156706 0
M  V30 4156 C 375.096 -1.41374 3.31188 0
M  V30 4157 C 374.949 -0.406299 4.47961 0
M  V30 4158 C 376.268 -2.35061 3.72068 0
M  V30 4159 H 373.387 -0.265447 0.687537 0
M  V30 4160 H 376.029 0.00294087 1.9 0
M  V30 4161 H 374.179 -2.04206 3.30503 0
M  V30 4162 H 375.851 0.219255 4.60779 0
M  V30 4163 H 374.094 0.275485 4.32924 0
M  V30 4164 H 374.765 -0.920022 5.44279 0
M  V30 4165 H 377.241 -1.82282 3.74049 0
M  V30 4166 H 376.117 -2.79593 4.72355 0
M  V30 4167 H 376.378 -3.21258 3.0372 0
M  V30 4168 N 375.437 -1.54477 -0.31217 0
M  V30 4169 C 376.848 -1.64344 -0.885891 0
M  V30 4170 C 377.199 -0.54485 -1.88483 0
M  V30 4171 O 376.324 0.320387 -2.14015 0
M  V30 4172 C 376.919 -2.97908 -1.61357 0
M  V30 4173 C 375.478 -3.09933 -2.13585 0
M  V30 4174 C 374.625 -2.59971 -0.964897 0
M  V30 4175 H 377.576 -1.58448 -0.0894528 0
M  V30 4176 H 377.597 -2.88706 -2.47848 0
M  V30 4177 H 377.109 -3.77845 -0.886277 0
M  V30 4178 H 375.21 -2.34694 -2.89395 0
M  V30 4179 H 375.323 -4.15916 -2.37804 0
M  V30 4180 H 373.687 -2.16147 -1.34731 0
M  V30 4181 H 374.47 -3.42376 -0.251742 0
M  V30 4182 N 376.915 0.57481 -1.46744 0
M  V30 4183 C 378.164 1.32898 -1.51727 0
M  V30 4184 C 378.477 1.948 -0.176692 0
M  V30 4185 O 379.683 2.71299 -0.104385 0
M  V30 4186 C 378.139 2.40901 -2.67385 0
M  V30 4187 C 377.747 1.85266 -4.07898 0
M  V30 4188 C 379.491 3.17609 -2.81646 0
M  V30 4189 C 377.398 2.90945 -5.14883 0
M  V30 4190 H 376.328 0.499631 -0.564699 0
M  V30 4191 H 378.979 0.612536 -1.72975 0
M  V30 4192 H 377.361 3.15379 -2.39483 0
M  V30 4193 H 378.535 1.17278 -4.45626 0
M  V30 4194 H 376.85 1.21199 -3.98371 0
M  V30 4195 H 379.447 3.96493 -3.58744 0
M  V30 4196 H 379.79 3.70696 -1.89448 0
M  V30 4197 H 380.323 2.50239 -3.09233 0
M  V30 4198 H 377.062 2.42736 -6.089 0
M  V30 4199 H 376.582 3.57398 -4.81691 0
M  V30 4200 H 378.261 3.54755 -5.41071 0
M  V30 4201 N 378.394 1.34581 0.820102 0
M  V30 4202 C 379.671 1.17675 1.56244 0
M  V30 4203 C 380.051 -0.249541 2.0962 0
M  V30 4204 O 379.399 -1.25125 1.91196 0
M  V30 4205 C 379.609 2.23364 2.6816 0
M  V30 4206 C 380.957 2.58485 3.36854 0
M  V30 4207 O 381.981 2.22175 2.78418 0
M  V30 4208 O 380.84 3.20868 4.42386 0
M  V30 4209 H 377.934 0.456333 0.689702 0
M  V30 4210 H 380.48 1.46222 0.861231 0
M  V30 4211 H 379.252 3.19087 2.26493 0
M  V30 4212 H 378.875 1.96009 3.45928 0
M  V30 4213 N 379.872 -1.04064 1.18357 0
M  V30 4214 C 381.12 -1.76915 0.977013 0
M  V30 4215 C 381.441 -1.88624 -0.494577 0
M  V30 4216 O 380.711 -1.41125 -1.3587 0
M  V30 4217 H 379.291 -0.65535 0.358504 0
M  V30 4218 H 381.953 -1.25592 1.49039 0
M  V30 4219 H 381.049 -2.78178 1.41504 0
M  V30 4220 N 381.35 -0.985608 -1.22978 0
M  V30 4221 C 382.599 -0.652881 -1.90841 0
M  V30 4222 C 382.912 0.817842 -1.77681 0
M  V30 4223 O 384.118 1.26185 -2.40395 0
M  V30 4224 C 382.574 -1.11717 -3.42122 0
M  V30 4225 C 382.182 -2.6126 -3.63933 0
M  V30 4226 C 383.926 -0.85843 -4.1573 0
M  V30 4227 C 381.833 -3.0133 -5.08876 0
M  V30 4228 H 380.763 -0.240491 -0.714619 0
M  V30 4229 H 383.414 -1.1942 -1.39324 0
M  V30 4230 H 381.796 -0.504027 -3.92779 0
M  V30 4231 H 382.97 -3.27858 -3.23799 0
M  V30 4232 H 381.285 -2.84937 -3.03644 0
M  V30 4233 H 383.882 -1.13359 -5.22546 0
M  V30 4234 H 384.225 0.205461 -4.15793 0
M  V30 4235 H 384.758 -1.43341 -3.71077 0
M  V30 4236 H 381.497 -4.06864 -5.13947 0
M  V30 4237 H 381.017 -2.3943 -5.49939 0
M  V30 4238 H 382.696 -2.92224 -5.77247 0
M  V30 4239 N 382.828 1.3818 -0.7579 0
M  V30 4240 C 384.076 1.99624 -0.315361 0
M  V30 4241 C 384.397 1.60464 1.10799 0
M  V30 4242 O 383.667 0.863507 1.75842 0
M  V30 4243 H 382.247 0.73831 -0.113611 0
M  V30 4244 H 384.909 1.68878 -0.972952 0
M  V30 4245 H 384.005 3.09754 -0.381931 0
M  V30 4246 N 384.306 0.507319 1.49211 0
M  V30 4247 C 385.256 -0.287112 2.26185 0
M  V30 4248 C 386.24 -0.929983 1.31302 0
M  V30 4249 O 387.432 -0.836538 1.55984 0
M  V30 4250 C 384.561 -1.34718 3.15763 0
M  V30 4251 C 383.647 -0.710235 4.18111 0
M  V30 4252 N 384.038 0.190836 5.0544 0
M  V30 4253 C 382.336 -0.97009 4.35322 0
M  V30 4254 C 383.037 0.55606 5.79036 0
M  V30 4255 N 382.013 -0.0775232 5.43545 0
M  V30 4256 H 385.815 0.406445 2.91076 0
M  V30 4257 H 383.329 0.323814 1.59139 0
M  V30 4258 H 385.326 -1.92982 3.69545 0
M  V30 4259 H 383.986 -2.04235 2.52424 0
M  V30 4260 H 384.997 0.562047 5.14841 0
M  V30 4261 H 381.674 -1.65753 3.83187 0
M  V30 4262 H 383.064 1.2936 6.5933 0
M  V30 4263 N 385.784 -1.5574 0.241426 0
M  V30 4264 C 386.716 -2.18469 -0.693091 0
M  V30 4265 C 387.729 -1.15942 -1.14286 0
M  V30 4266 O 388.918 -1.42832 -1.07058 0
M  V30 4267 C 386.018 -2.7696 -1.95311 0
M  V30 4268 C 385.191 -4.04853 -1.65568 0
M  V30 4269 C 384.25 -4.47715 -2.76474 0
M  V30 4270 O 383.276 -5.14205 -2.44094 0
M  V30 4271 N 384.478 -4.15044 -4.05855 0
M  V30 4272 H 387.243 -2.99292 -0.156388 0
M  V30 4273 H 384.804 -1.61784 0.0611752 0
M  V30 4274 H 386.796 -3.02594 -2.68736 0
M  V30 4275 H 385.366 -2.00326 -2.39975 0
M  V30 4276 H 384.586 -3.86865 -0.756886 0
M  V30 4277 H 385.874 -4.88246 -1.43153 0
M  V30 4278 H 385.272 -3.61654 -4.34998 0
M  V30 4279 H 383.829 -4.45526 -4.75762 0
M  V30 4280 N 387.262 0.0317525 -1.57568 0
M  V30 4281 C 388.487 0.738664 -1.938 0
M  V30 4282 C 388.912 1.68242 -0.841208 0
M  V30 4283 O 388.27 1.80157 0.203267 0
M  V30 4284 C 388.318 1.47417 -3.29091 0
M  V30 4285 O 387.422 2.5872 -3.2115 0
M  V30 4286 H 386.763 0.198856 -0.633524 0
M  V30 4287 H 389.293 -0.0119713 -2.04596 0
M  V30 4288 H 389.303 1.84468 -3.63917 0
M  V30 4289 H 387.978 0.781988 -4.08482 0
M  V30 4290 H 386.555 2.24231 -2.97951 0
M  V30 4291 N 388.74 1.54641 0.303973 0
M  V30 4292 C 389.69 1.8177 1.37636 0
M  V30 4293 C 390.674 0.674697 1.46071 0
M  V30 4294 O 391.866 0.935251 1.50273 0
M  V30 4295 C 388.995 2.06584 2.74186 0
M  V30 4296 C 388.081 3.2706 2.69986 0
M  V30 4297 N 388.472 4.47682 2.35402 0
M  V30 4298 C 386.77 3.29028 3.01092 0
M  V30 4299 C 387.471 5.29689 2.40426 0
M  V30 4300 N 386.447 4.67339 2.7766 0
M  V30 4301 H 390.249 2.72596 1.09857 0
M  V30 4302 H 387.763 1.541 0.51254 0
M  V30 4303 H 389.76 2.24166 3.51504 0
M  V30 4304 H 388.42 1.17024 3.02879 0
M  V30 4305 H 389.431 4.74336 2.07908 0
M  V30 4306 H 386.108 2.49565 3.34699 0
M  V30 4307 H 387.498 6.3606 2.16512 0
M  V30 4308 N 390.218 -0.567019 1.47046 0
M  V30 4309 C 391.467 -1.32091 1.5243 0
M  V30 4310 C 391.78 -1.94704 0.187021 0
M  V30 4311 O 392.986 -2.7124 0.118771 0
M  V30 4312 C 391.442 -2.39479 2.68659 0
M  V30 4313 C 391.05 -1.831 4.08874 0
M  V30 4314 C 392.794 -3.16111 2.83327 0
M  V30 4315 C 390.701 -2.8821 5.16419 0
M  V30 4316 H 389.631 -0.496629 0.56734 0
M  V30 4317 H 392.282 -0.603354 1.73297 0
M  V30 4318 H 390.664 -3.14105 2.41152 0
M  V30 4319 H 391.838 -1.14913 4.46242 0
M  V30 4320 H 390.153 -1.19085 3.99008 0
M  V30 4321 H 392.75 -3.94585 3.60842 0
M  V30 4322 H 393.093 -3.69686 1.91411 0
M  V30 4323 H 393.626 -2.48595 3.10556 0
M  V30 4324 H 390.365 -2.39504 6.10179 0
M  V30 4325 H 389.885 -3.54839 4.8358 0
M  V30 4326 H 391.564 -3.51881 5.42945 0
M  V30 4327 N 391.696 -1.35014 -0.812953 0
M  V30 4328 C 392.628 -1.23262 -1.93233 0
M  V30 4329 C 393.641 -0.157371 -1.62038 0
M  V30 4330 O 394.83 -0.410096 -1.73725 0
M  V30 4331 C 391.93 -0.87392 -3.27438 0
M  V30 4332 C 391.103 -2.04622 -3.86586 0
M  V30 4333 C 390.162 -1.66432 -4.99186 0
M  V30 4334 O 389.188 -2.38222 -5.16951 0
M  V30 4335 N 390.39 -0.584248 -5.77552 0
M  V30 4336 H 393.155 -2.19699 -2.03844 0
M  V30 4337 H 390.716 -1.281 -0.99005 0
M  V30 4338 H 392.708 -0.600039 -4.00227 0
M  V30 4339 H 391.278 0.00057392 -3.126 0
M  V30 4340 H 390.498 -2.48427 -3.06068 0
M  V30 4341 H 391.786 -2.82999 -4.22835 0
M  V30 4342 H 391.184 0.0123526 -5.65699 0
M  V30 4343 H 389.741 -0.37013 -6.50748 0
M  V30 4344 N 393.175 1.03435 -1.18907 0
M  V30 4345 C 394.424 1.76143 -0.982669 0
M  V30 4346 C 394.737 1.89416 0.487953 0
M  V30 4347 O 395.943 2.59041 0.813036 0
M  V30 4348 C 394.399 3.16722 -1.70924 0
M  V30 4349 C 394.007 3.11522 -3.21959 0
M  V30 4350 C 395.751 3.93764 -1.58588 0
M  V30 4351 C 393.658 4.46999 -3.87228 0
M  V30 4352 H 392.588 0.660292 -0.364047 0
M  V30 4353 H 395.239 1.158 -1.42347 0
M  V30 4354 H 393.621 3.775 -1.19623 0
M  V30 4355 H 394.795 2.60158 -3.80335 0
M  V30 4356 H 393.11 2.47978 -3.34508 0
M  V30 4357 H 395.707 4.93963 -2.04707 0
M  V30 4358 H 396.05 4.12794 -0.539142 0
M  V30 4359 H 396.583 3.39576 -2.07203 0
M  V30 4360 H 393.322 4.33174 -4.91976 0
M  V30 4361 H 392.842 4.98441 -3.33642 0
M  V30 4362 H 394.521 5.15898 -3.90459 0
M  V30 4363 N 394.653 0.992116 1.22453 0
M  V30 4364 C 395.901 0.666215 1.90804 0
M  V30 4365 C 396.222 -0.804152 1.77647 0
M  V30 4366 O 395.492 -1.57629 1.16318 0
M  V30 4367 H 394.072 0.243423 0.706225 0
M  V30 4368 H 396.734 1.25845 1.48825 0
M  V30 4369 H 395.83 0.928069 2.97982 0
M  V30 4370 N 396.131 -1.37776 0.765217 0
M  V30 4371 C 397.377 -2.00604 0.336066 0
M  V30 4372 C 397.732 -1.59657 -1.07366 0
M  V30 4373 O 397.025 -0.829565 -1.7271 0
M  V30 4374 C 397.219 -3.5504 0.410053 0
M  V30 4375 C 397.048 -4.10985 1.82542 0
M  V30 4376 C 395.818 -4.42229 2.44461 0
M  V30 4377 C 398.016 -4.32438 2.78392 0
M  V30 4378 N 395.998 -4.8385 3.77839 0
M  V30 4379 C 397.369 -4.76596 3.96556 0
M  V30 4380 C 399.424 -4.14559 2.75764 0
M  V30 4381 C 398.127 -5.04748 5.12466 0
M  V30 4382 C 400.153 -4.43843 3.90842 0
M  V30 4383 C 399.515 -4.88235 5.07746 0
M  V30 4384 H 395.614 -0.763325 0.169881 0
M  V30 4385 H 398.198 -1.67197 0.997656 0
M  V30 4386 H 396.369 -3.87769 -0.221325 0
M  V30 4387 H 398.101 -4.0468 -0.0405285 0
M  V30 4388 H 394.856 -4.31079 1.96131 0
M  V30 4389 H 395.28 -5.08979 4.46396 0
M  V30 4390 H 399.922 -3.79415 1.86558 0
M  V30 4391 H 397.64 -5.38783 6.02277 0
M  V30 4392 H 401.226 -4.31603 3.90141 0
M  V30 4393 H 400.106 -5.10461 5.95315 0
M  V30 4394 N 397.609 -0.515225 -1.4894 0
M  V30 4395 C 399.02 -0.0710067 -1.86565 0
M  V30 4396 C 399.371 1.34733 -1.42623 0
M  V30 4397 O 398.496 2.00653 -0.810379 0
M  V30 4398 C 399.091 -0.122083 -3.3858 0
M  V30 4399 C 397.65 0.266863 -3.75453 0
M  V30 4400 C 396.797 -0.488376 -2.72966 0
M  V30 4401 H 399.748 -0.727266 -1.41055 0
M  V30 4402 H 399.769 0.669818 -3.74558 0
M  V30 4403 H 399.281 -1.15448 -3.70531 0
M  V30 4404 H 397.382 1.30196 -3.49113 0
M  V30 4405 H 397.495 -0.0624811 -4.79059 0
M  V30 4406 H 395.859 0.0635622 -2.54621 0
M  V30 4407 H 396.642 -1.52113 -3.07761 0
M  V30 4408 N 399.087 1.5561 -0.249682 0
M  V30 4409 C 400.312 2.03865 0.381305 0
M  V30 4410 C 400.737 1.12769 1.50548 0
M  V30 4411 O 400.095 0.121189 1.80895 0
M  V30 4412 C 400.143 3.50101 0.863816 0
M  V30 4413 O 399.247 3.62132 1.97318 0
M  V30 4414 H 398.588 0.658827 0.0827194 0
M  V30 4415 H 401.118 2.01105 -0.376552 0
M  V30 4416 H 401.128 3.90975 1.1663 0
M  V30 4417 H 399.803 4.1588 0.0411816 0
M  V30 4418 H 398.38 3.33155 1.67517 0
M  V30 4419 N 400.565 -0.0233959 1.57583 0
M  V30 4420 C 401.475 -1.03907 2.10334 0
M  V30 4421 C 402.491 -1.39257 1.04323 0
M  V30 4422 O 403.667 -1.48462 1.36091 0
M  V30 4423 C 400.732 -2.31938 2.57693 0
M  V30 4424 C 399.793 -2.03117 3.78209 0
M  V30 4425 C 399.026 -3.25043 4.233 0
M  V30 4426 O 399.249 -4.35916 3.67876 0
M  V30 4427 O 398.183 -3.10411 5.15683 0
M  V30 4428 H 402.009 -0.620748 2.97288 0
M  V30 4429 H 399.594 -0.240743 1.47448 0
M  V30 4430 H 401.476 -3.07196 2.88458 0
M  V30 4431 H 400.151 -2.73055 1.73847 0
M  V30 4432 H 399.058 -1.25408 3.52454 0
M  V30 4433 H 400.391 -1.66852 4.63056 0
M  V30 4434 N 402.043 -1.548 -0.295768 0
M  V30 4435 C 403.006 -1.85363 -1.34808 0
M  V30 4436 C 404.006 -0.726817 -1.43436 0
M  V30 4437 O 405.196 -0.995088 -1.42981 0
M  V30 4438 C 402.328 -2.03859 -2.73229 0
M  V30 4439 H 403.521 -2.7941 -1.08949 0
M  V30 4440 H 401.074 -1.46942 -0.532702 0
M  V30 4441 H 401.809 -1.12117 -3.04303 0
M  V30 4442 H 401.594 -2.8588 -2.68356 0
M  V30 4443 H 403.084 -2.28857 -3.49305 0
M  V30 4444 N 403.521 0.559213 -1.47345 0
M  V30 4445 C 404.431 1.69388 -1.62311 0
M  V30 4446 C 405.447 1.6648 -0.505993 0
M  V30 4447 O 406.623 1.85964 -0.773262 0
M  V30 4448 C 403.688 3.05894 -1.63185 0
M  V30 4449 C 402.749 3.19885 -2.86307 0
M  V30 4450 C 401.982 4.49879 -2.87131 0
M  V30 4451 O 402.205 5.35217 -1.97229 0
M  V30 4452 O 401.139 4.67618 -3.78968 0
M  V30 4453 H 404.965 1.59706 -2.58317 0
M  V30 4454 H 402.55 0.728989 -1.30407 0
M  V30 4455 H 404.432 3.87133 -1.66451 0
M  V30 4456 H 403.107 3.15964 -0.70345 0
M  V30 4457 H 402.014 2.38052 -2.88587 0
M  V30 4458 H 403.347 3.14718 -3.78435 0
M  V30 4459 N 404.999 1.35443 0.805782 0
M  V30 4460 C 406.248 1.28097 1.55801 0
M  V30 4461 C 406.561 -0.142428 1.95081 0
M  V30 4462 O 407.767 -0.33817 2.69386 0
M  V30 4463 C 406.223 2.24653 2.81174 0
M  V30 4464 C 405.831 3.72342 2.49129 0
M  V30 4465 C 407.575 2.2625 3.59181 0
M  V30 4466 C 405.482 4.60719 3.70799 0
M  V30 4467 H 404.412 0.475937 0.584808 0
M  V30 4468 H 407.063 1.60712 0.885661 0
M  V30 4469 H 405.445 1.85011 3.50124 0
M  V30 4470 H 406.619 4.20624 1.88181 0
M  V30 4471 H 404.934 3.73361 1.84366 0
M  V30 4472 H 407.531 2.89495 4.49552 0
M  V30 4473 H 407.874 1.26647 3.96568 0
M  V30 4474 H 408.407 2.64426 2.97193 0
M  V30 4475 H 405.146 5.61324 3.3852 0
M  V30 4476 H 404.666 4.17163 4.3097 0
M  V30 4477 H 406.345 4.76182 4.38018 0
M  V30 4478 N 406.477 -1.02803 1.19454 0
M  V30 4479 C 407.387 -2.14575 0.948408 0
M  V30 4480 C 408.403 -1.73757 -0.091871 0
M  V30 4481 O 409.579 -2.01185 0.0929654 0
M  V30 4482 C 406.644 -3.43202 0.491265 0
M  V30 4483 C 405.705 -3.98328 1.60103 0
M  V30 4484 C 404.938 -5.20816 1.16561 0
M  V30 4485 O 405.161 -5.70392 0.0295238 0
M  V30 4486 O 404.095 -5.68801 1.96849 0
M  V30 4487 H 407.921 -2.38202 1.88397 0
M  V30 4488 H 405.506 -1.12989 0.977433 0
M  V30 4489 H 407.388 -4.20687 0.245015 0
M  V30 4490 H 406.063 -3.21018 -0.415851 0
M  V30 4491 H 404.97 -3.22174 1.90144 0
M  V30 4492 H 406.303 -4.24879 2.48473 0
M  V30 4493 N 407.956 -0.998596 -1.21925 0
M  V30 4494 C 408.903 -0.553621 -2.24062 0
M  V30 4495 C 409.873 0.416999 -1.6078 0
M  V30 4496 O 411.058 0.320482 -1.88089 0
M  V30 4497 C 408.198 0.119959 -3.44891 0
M  V30 4498 C 407.311 -0.893077 -4.22668 0
M  V30 4499 C 406.446 -0.192424 -5.30851 0
M  V30 4500 C 405.485 -1.19344 -6.00353 0
M  V30 4501 N 404.622 -0.520707 -7.00166 0
M  V30 4502 H 409.462 -1.4293 -2.61486 0
M  V30 4503 H 406.999 -0.715838 -1.28507 0
M  V30 4504 H 408.957 0.527459 -4.13852 0
M  V30 4505 H 407.587 0.959389 -3.08214 0
M  V30 4506 H 406.639 -1.41886 -3.52948 0
M  V30 4507 H 407.951 -1.65512 -4.70539 0
M  V30 4508 H 407.105 0.271515 -6.06092 0
M  V30 4509 H 405.844 0.602075 -4.83969 0
M  V30 4510 H 404.849 -1.66795 -5.23889 0
M  V30 4511 H 406.074 -1.98891 -6.49322 0
M  V30 4512 H 404.02 0.254252 -6.55507 0
M  V30 4513 H 403.937 -1.2211 -7.46073 0
M  V30 4514 H 405.205 -0.0797596 -7.79459 0
M  V30 4515 N 409.434 1.37368 -0.772513 0
M  V30 4516 C 410.662 2.03942 -0.348588 0
M  V30 4517 C 411.077 1.58264 1.02947 0
M  V30 4518 O 410.434 0.764246 1.65727 0
M  V30 4519 C 410.485 3.5946 -0.38351 0
M  V30 4520 O 410.206 4.03468 -1.70721 0
M  V30 4521 C 411.707 4.4327 0.0519152 0
M  V30 4522 H 408.927 0.654931 -0.145966 0
M  V30 4523 H 411.471 1.75686 -1.04665 0
M  V30 4524 H 409.626 3.86486 0.265978 0
M  V30 4525 H 410.04 4.97991 -1.64636 0
M  V30 4526 H 411.514 5.51995 -0.0236733 0
M  V30 4527 H 411.991 4.2514 1.10238 0
M  V30 4528 H 412.597 4.21471 -0.569415 0
M  V30 4529 N 410.912 0.523116 1.48665 0
M  V30 4530 C 412.161 -0.01544 2.01694 0
M  V30 4531 C 412.474 -1.35975 1.40606 0
M  V30 4532 O 413.68 -1.98627 1.85093 0
M  V30 4533 C 412.136 -0.0779303 3.59816 0
M  V30 4534 C 411.744 1.26107 4.29885 0
M  V30 4535 C 413.488 -0.565678 4.20714 0
M  V30 4536 C 411.395 1.15954 5.79921 0
M  V30 4537 H 410.325 -0.00954163 0.75394 0
M  V30 4538 H 412.976 0.665865 1.70993 0
M  V30 4539 H 411.358 -0.824165 3.87329 0
M  V30 4540 H 412.532 2.02233 4.14051 0
M  V30 4541 H 410.847 1.68401 3.80828 0
M  V30 4542 H 413.444 -0.6595 5.30617 0
M  V30 4543 H 413.787 -1.56984 3.85567 0
M  V30 4544 H 414.32 0.12467 3.97605 0
M  V30 4545 H 411.059 2.13864 6.19631 0
M  V30 4546 H 410.579 0.439529 5.98187 0
M  V30 4547 H 412.258 0.847361 6.41427 0
M  V30 4548 N 412.39 -1.55475 0.257931 0
M  V30 4549 C 413.338 -2.23244 -0.653076 0
M  V30 4550 C 414.332 -1.22366 -1.17144 0
M  V30 4551 O 415.538 -1.40347 -1.12706 0
M  V30 4552 H 411.913 -0.716247 -0.229117 0
M  V30 4553 H 413.884 -2.98343 -0.0584788 0
M  V30 4554 C 412.633 -2.95401 -1.83395 0
M  V30 4555 H 411.956 -3.72802 -1.44424 0
M  V30 4556 H 413.396 -3.46165 -2.44838 0
M  V30 4557 C 411.855 -1.99895 -2.71189 0
M  V30 4558 O 412.385 -1.53909 -3.71046 0
M  V30 4559 N 410.591 -1.6676 -2.3799 0
M  V30 4560 H 410.138 -2.04352 -1.56837 0
M  V30 4561 H 410.096 -1.03127 -2.97005 0
M  V30 4562 N 413.868 0.0150385 -1.57593 0
M  V30 4563 C 414.801 1.04475 -2.0288 0
M  V30 4564 C 415.779 1.3436 -0.915764 0
M  V30 4565 O 416.963 1.46779 -1.18271 0
M  V30 4566 C 414.09 2.37608 -2.41371 0
M  V30 4567 C 413.136 2.23487 -3.63257 0
M  V30 4568 S 413.969 1.57505 -5.11813 0
M  V30 4569 C 415.125 2.921 -5.5356 0
M  V30 4570 H 415.358 0.65907 -2.89903 0
M  V30 4571 H 412.891 0.225452 -1.52745 0
M  V30 4572 H 414.849 3.14165 -2.64217 0
M  V30 4573 H 413.51 2.7332 -1.54775 0
M  V30 4574 H 412.703 3.21802 -3.87891 0
M  V30 4575 H 412.305 1.55074 -3.40335 0
M  V30 4576 H 414.597 3.88419 -5.55101 0
M  V30 4577 H 415.54 2.72184 -6.53698 0
M  V30 4578 H 415.948 2.95318 -4.8109 0
M  V30 4579 N 415.346 1.54954 0.287554 0
M  V30 4580 C 416.593 1.74873 1.02106 0
M  V30 4581 C 416.921 0.541829 1.86801 0
M  V30 4582 O 416.176 -0.475992 1.89823 0
M  V30 4583 C 416.475 2.99833 1.94512 0
M  V30 4584 C 416.141 4.33029 1.25686 0
M  V30 4585 C 414.803 4.69233 1.06649 0
M  V30 4586 C 417.155 5.15542 0.765913 0
M  V30 4587 C 414.483 5.85518 0.372222 0
M  V30 4588 C 416.835 6.32542 0.0853101 0
M  V30 4589 C 415.499 6.67398 -0.1169 0
M  V30 4590 H 414.769 0.639906 0.373632 0
M  V30 4591 H 417.416 1.89219 0.294665 0
M  V30 4592 H 415.721 2.80325 2.73725 0
M  V30 4593 H 417.418 3.1244 2.51361 0
M  V30 4594 H 414.008 4.04564 1.41512 0
M  V30 4595 H 418.192 4.88059 0.90066 0
M  V30 4596 H 413.448 6.11057 0.204695 0
M  V30 4597 H 417.622 6.95741 -0.302936 0
M  V30 4598 H 415.249 7.57357 -0.656859 0
M  V30 4599 N 416.824 -0.551391 1.4764 0
M  V30 4600 C 417.787 -1.64007 1.60107 0
M  V30 4601 C 418.787 -1.53601 0.47576 0
M  V30 4602 O 419.977 -1.57655 0.740988 0
M  V30 4603 C 417.109 -3.03569 1.55108 0
M  V30 4604 H 418.302 -1.543 2.57161 0
M  V30 4605 H 415.855 -0.771776 1.35917 0
M  V30 4606 H 416.59 -3.18804 0.594519 0
M  V30 4607 H 416.375 -3.12532 2.36783 0
M  V30 4608 H 417.865 -3.82762 1.66982 0
M  V30 4609 N 418.302 -1.35869 -0.798587 0
M  V30 4610 C 419.265 -1.29307 -1.89242 0
M  V30 4611 C 420.265 -0.202747 -1.59517 0
M  V30 4612 O 421.455 -0.456957 -1.681 0
M  V30 4613 C 418.587 -1.00229 -3.25833 0
M  V30 4614 H 419.78 -2.26576 -1.96478 0
M  V30 4615 H 417.333 -1.20509 -0.995358 0
M  V30 4616 H 418.068 -0.033801 -3.24282 0
M  V30 4617 H 417.853 -1.79121 -3.48795 0
M  V30 4618 H 419.343 -0.98219 -4.05885 0
M  V30 4619 N 419.78 1.02168 -1.19998 0
M  V30 4620 C 420.71 2.12488 -0.96804 0
M  V30 4621 C 421.691 1.69799 0.101185 0
M  V30 4622 O 422.876 1.94121 -0.0552993 0
M  V30 4623 C 420.006 3.43479 -0.513776 0
M  V30 4624 C 418.96 3.99884 -1.52566 0
M  V30 4625 C 418.286 5.26582 -0.928214 0
M  V30 4626 C 419.586 4.33861 -2.90795 0
M  V30 4627 H 421.28 2.32149 -1.89069 0
M  V30 4628 H 418.826 1.11564 -0.910468 0
M  V30 4629 H 420.779 4.20036 -0.338774 0
M  V30 4630 H 419.503 3.23561 0.444493 0
M  V30 4631 H 418.162 3.25429 -1.68794 0
M  V30 4632 H 417.81 5.02986 0.0378289 0
M  V30 4633 H 417.51 5.65284 -1.60397 0
M  V30 4634 H 419.034 6.05799 -0.764167 0
M  V30 4635 H 420.448 5.01327 -2.78109 0
M  V30 4636 H 418.845 4.83664 -3.55231 0
M  V30 4637 H 419.915 3.42848 -3.42904 0
M  V30 4638 N 421.258 1.00505 1.21394 0
M  V30 4639 C 422.506 0.686415 1.90086 0
M  V30 4640 C 422.827 -0.785264 1.7849 0
M  V30 4641 O 422.097 -1.56387 1.17983 0
M  V30 4642 H 420.677 0.2509 0.703604 0
M  V30 4643 H 423.339 1.27417 1.47482 0
M  V30 4644 H 422.435 0.959621 2.96981 0
M  V30 4645 N 422.737 -1.36956 0.779787 0
M  V30 4646 C 423.667 -2.32761 0.185651 0
M  V30 4647 C 424.648 -1.56177 -0.673989 0
M  V30 4648 O 425.833 -1.84378 -0.609797 0
M  V30 4649 C 422.963 -3.40418 -0.687964 0
M  V30 4650 C 421.917 -4.27941 0.0710102 0
M  V30 4651 C 421.243 -5.26681 -0.922573 0
M  V30 4652 C 422.543 -5.07006 1.25467 0
M  V30 4653 H 424.237 -2.82698 0.986008 0
M  V30 4654 H 421.783 -1.3592 0.475592 0
M  V30 4655 H 423.736 -4.06423 -1.11348 0
M  V30 4656 H 422.46 -2.89025 -1.52093 0
M  V30 4657 H 421.119 -3.63478 0.47739 0
M  V30 4658 H 420.767 -4.71565 -1.7503 0
M  V30 4659 H 420.467 -5.86103 -0.419237 0
M  V30 4660 H 421.991 -5.9556 -1.34686 0
M  V30 4661 H 423.405 -5.66105 0.905401 0
M  V30 4662 H 421.802 -5.75793 1.69063 0
M  V30 4663 H 422.872 -4.3921 2.05481 0
M  V30 4664 N 424.215 -0.530993 -1.48385 0
M  V30 4665 C 425.492 0.0671788 -1.95485 0
M  V30 4666 C 425.872 1.51191 -1.47324 0
M  V30 4667 O 425.22 2.17507 -0.700202 0
M  V30 4668 C 425.43 -0.0511206 -3.48963 0
M  V30 4669 C 426.778 0.107632 -4.24464 0
M  V30 4670 O 427.802 0.0226248 -3.56193 0
M  V30 4671 O 426.661 0.285972 -5.45751 0
M  V30 4672 H 423.755 0.0787365 -0.823243 0
M  V30 4673 H 426.301 -0.595662 -1.58902 0
M  V30 4674 H 425.073 -1.05747 -3.7674 0
M  V30 4675 H 424.696 0.650525 -3.92242 0
M  V30 4676 N 425.693 1.55336 -0.266172 0
M  V30 4677 C 426.641 2.23587 0.641228 0
M  V30 4678 C 427.635 1.22986 1.16494 0
M  V30 4679 O 428.841 1.40943 1.1196 0
M  V30 4680 H 425.216 0.717452 0.225315 0
M  V30 4681 H 427.187 2.9837 0.0426561 0
M  V30 4682 C 425.936 2.96369 1.81826 0
M  V30 4683 H 425.259 3.73563 1.42445 0
M  V30 4684 H 426.699 3.47459 2.42998 0
M  V30 4685 C 425.158 2.0133 2.70125 0
M  V30 4686 O 425.688 1.55875 3.70224 0
M  V30 4687 N 423.894 1.6802 2.37102 0
M  V30 4688 H 423.441 2.05181 1.55751 0
M  V30 4689 H 423.399 1.047 2.96454 0
M  V30 4690 N 427.171 -0.0066808 1.57599 0
M  V30 4691 C 428.103 -1.02827 2.04839 0
M  V30 4692 C 429.116 -1.31108 0.965113 0
M  V30 4693 O 430.305 -1.28202 1.24203 0
M  V30 4694 C 427.405 -2.36464 2.42771 0
M  V30 4695 C 426.578 -2.27219 3.73751 0
M  V30 4696 C 425.637 -3.43489 3.98625 0
M  V30 4697 O 424.663 -3.21976 4.69382 0
M  V30 4698 N 425.865 -4.66116 3.46 0
M  V30 4699 H 428.63 -0.625455 2.93101 0
M  V30 4700 H 426.191 -0.194198 1.60731 0
M  V30 4701 H 428.183 -3.13008 2.56531 0
M  V30 4702 H 426.753 -2.68512 1.60063 0
M  V30 4703 H 425.973 -1.35629 3.70133 0
M  V30 4704 H 427.261 -2.18208 4.59633 0
M  V30 4705 H 426.659 -4.86493 2.88688 0
M  V30 4706 H 425.216 -5.39949 3.65101 0
M  V30 4707 N 428.649 -1.55105 -0.279332 0
M  V30 4708 C 429.898 -1.74618 -1.00952 0
M  V30 4709 C 430.211 -0.551096 -1.87676 0
M  V30 4710 O 431.417 -0.628507 -2.64125 0
M  V30 4711 C 429.873 -3.09025 -1.84476 0
M  V30 4712 C 429.481 -4.36081 -1.0265 0
M  V30 4713 C 431.225 -3.37891 -2.56963 0
M  V30 4714 C 429.132 -5.6153 -1.85576 0
M  V30 4715 H 428.062 -0.650868 -0.38064 0
M  V30 4716 H 430.713 -1.81569 -0.265475 0
M  V30 4717 H 429.095 -2.96095 -2.62952 0
M  V30 4718 H 430.269 -4.59909 -0.286354 0
M  V30 4719 H 428.584 -4.14312 -0.416464 0
M  V30 4720 H 431.181 -4.28822 -3.19399 0
M  V30 4721 H 431.524 -2.57737 -3.26921 0
M  V30 4722 H 432.057 -3.5189 -1.85522 0
M  V30 4723 H 428.796 -6.44413 -1.2005 0
M  V30 4724 H 428.316 -5.41854 -2.57204 0
M  V30 4725 H 429.995 -5.99594 -2.43096 0
M  V30 4726 N 430.127 0.543554 -1.4793 0
M  V30 4727 C 431.355 1.32516 -1.58894 0
M  V30 4728 C 431.77 1.87215 -0.244131 0
M  V30 4729 O 431.127 1.65709 0.764652 0
M  V30 4730 C 431.178 2.48554 -2.62494 0
M  V30 4731 O 430.899 1.96112 -3.91755 0
M  V30 4732 C 432.4 3.40572 -2.8377 0
M  V30 4733 H 429.62 0.403472 -0.536145 0
M  V30 4734 H 432.164 0.657106 -1.93655 0
M  V30 4735 H 430.319 3.1127 -2.30629 0
M  V30 4736 H 430.733 2.71967 -4.4848 0
M  V30 4737 H 432.207 4.18375 -3.60093 0
M  V30 4738 H 432.684 3.94965 -1.92092 0
M  V30 4739 H 433.29 2.8366 -3.16887 0
M  V30 4740 N 431.605 1.3629 0.791371 0
M  V30 4741 C 432.515 1.32606 1.93527 0
M  V30 4742 C 433.531 0.228541 1.72493 0
M  V30 4743 O 434.707 0.460571 1.96063 0
M  V30 4744 C 431.772 1.11271 3.28359 0
M  V30 4745 C 430.833 2.3048 3.62185 0
M  V30 4746 C 430.066 2.10154 4.90583 0
M  V30 4747 O 430.289 1.07572 5.60165 0
M  V30 4748 O 429.223 2.97884 5.23019 0
M  V30 4749 H 433.049 2.28909 1.99585 0
M  V30 4750 H 430.634 1.16818 0.931344 0
M  V30 4751 H 432.516 1.01283 4.09047 0
M  V30 4752 H 431.191 0.180292 3.23198 0
M  V30 4753 H 430.098 2.46036 2.81811 0
M  V30 4754 H 431.431 3.22221 3.72068 0
M  V30 4755 N 433.083 -1.0153 1.20538 0
M  V30 4756 C 434.013 -2.11972 0.979295 0
M  V30 4757 C 434.994 -1.6985 -0.0921787 0
M  V30 4758 O 436.179 -1.94089 0.0655932 0
M  V30 4759 C 433.309 -3.43201 0.531984 0
M  V30 4760 C 432.263 -3.9907 1.54685 0
M  V30 4761 C 431.589 -5.26082 0.956127 0
M  V30 4762 C 432.889 -4.32313 2.93092 0
M  V30 4763 H 434.583 -2.31143 1.90298 0
M  V30 4764 H 432.129 -1.11079 0.916372 0
M  V30 4765 H 434.082 -4.1985 0.361044 0
M  V30 4766 H 432.806 -3.23792 -0.427327 0
M  V30 4767 H 431.465 -3.2453 1.70517 0
M  V30 4768 H 431.113 -5.02999 -0.0111538 0
M  V30 4769 H 430.813 -5.64426 1.63393 0
M  V30 4770 H 432.337 -6.05386 0.796284 0
M  V30 4771 H 433.751 -4.99845 2.80763 0
M  V30 4772 H 432.148 -4.81774 3.57791 0
M  V30 4773 H 433.218 -3.41025 3.44717 0
M  V30 4774 N 434.561 -1.01147 -1.20859 0
M  V30 4775 C 435.838 -0.613136 -1.85742 0
M  V30 4776 C 436.218 0.909004 -1.90526 0
M  V30 4777 O 435.566 1.79862 -1.40932 0
M  V30 4778 C 435.776 -1.255 -3.25654 0
M  V30 4779 C 437.124 -1.3672 -4.01986 0
M  V30 4780 O 438.148 -1.21082 -3.34989 0
M  V30 4781 O 437.007 -1.6194 -5.21956 0
M  V30 4782 H 434.101 -0.210878 -0.799662 0
M  V30 4783 H 436.647 -1.10853 -1.2849 0
M  V30 4784 H 435.419 -2.29532 -3.16908 0
M  V30 4785 H 435.042 -0.746369 -3.90532 0
M  V30 4786 N 436.039 1.36541 -0.78704 0
M  V30 4787 C 437.285 1.99599 -0.358872 0
M  V30 4788 C 437.618 1.62323 1.06606 0
M  V30 4789 O 436.893 0.876858 1.73613 0
M  V30 4790 C 437.176 3.56327 -0.519944 0
M  V30 4791 C 437.029 4.03464 -1.98839 0
M  V30 4792 C 438.348 4.4005 0.0664737 0
M  V30 4793 H 435.467 0.725107 -0.131869 0
M  V30 4794 H 438.109 1.6199 -0.992936 0
M  V30 4795 H 436.259 3.88495 0.0198321 0
M  V30 4796 H 437.931 3.81793 -2.58905 0
M  V30 4797 H 436.174 3.55092 -2.49183 0
M  V30 4798 H 436.845 5.12439 -2.05207 0
M  V30 4799 H 439.321 4.14228 -0.394267 0
M  V30 4800 H 438.197 5.48847 -0.0762682 0
M  V30 4801 H 438.458 4.26655 1.15835 0
M  V30 4802 N 437.518 0.538854 1.48102 0
M  V30 4803 C 438.743 0.0102694 2.07397 0
M  V30 4804 C 439.168 -1.26562 1.39153 0
M  V30 4805 O 438.526 -1.75357 0.460387 0
M  V30 4806 C 438.574 -0.187602 3.60112 0
M  V30 4807 O 437.678 -1.25432 3.92862 0
M  V30 4808 H 437.019 0.0430975 0.6626 0
M  V30 4809 H 439.549 0.749301 1.90385 0
M  V30 4810 H 439.559 -0.407517 4.0596 0
M  V30 4811 H 438.234 0.744386 4.09184 0
M  V30 4812 H 436.811 -1.01636 3.58782 0
M  V30 4813 N 438.996 -1.55193 0.274407 0
M  V30 4814 C 439.929 -2.18606 -0.654712 0
M  V30 4815 C 440.907 -1.14677 -1.15273 0
M  V30 4816 O 442.091 -1.43198 -1.22583 0
M  V30 4817 C 439.218 -2.80875 -1.89281 0
M  V30 4818 C 438.264 -3.981 -1.53032 0
M  V30 4819 S 439.097 -5.32025 -0.609107 0
M  V30 4820 C 440.253 -5.97761 -1.85559 0
M  V30 4821 H 440.486 -2.97074 -0.115894 0
M  V30 4822 H 438.019 -1.54288 0.05867 0
M  V30 4823 H 439.977 -3.17381 -2.60345 0
M  V30 4824 H 438.638 -2.02302 -2.40277 0
M  V30 4825 H 437.831 -4.40356 -2.45158 0
M  V30 4826 H 437.433 -3.63013 -0.899874 0
M  V30 4827 H 439.725 -6.16951 -2.7996 0
M  V30 4828 H 440.668 -6.92545 -1.47605 0
M  V30 4829 H 441.076 -5.27113 -2.02021 0
M  V30 4830 N 440.474 -0.00167713 -1.576 0
M  V30 4831 C 441.704 0.692754 -1.94639 0
M  V30 4832 C 442.112 1.67744 -0.87513 0
M  V30 4833 O 441.455 1.8305 0.154382 0
M  V30 4834 C 441.517 1.47881 -3.27676 0
M  V30 4835 C 441.181 0.655518 -4.52274 0
M  V30 4836 C 442.178 -0.0575214 -5.19868 0
M  V30 4837 C 439.863 0.600994 -4.98692 0
M  V30 4838 C 441.857 -0.814052 -6.3218 0
M  V30 4839 C 439.544 -0.15926 -6.10892 0
M  V30 4840 C 440.542 -0.865515 -6.77494 0
M  V30 4841 O 440.23 -1.61336 -7.87544 0
M  V30 4842 H 439.962 0.197792 -0.646417 0
M  V30 4843 H 442.516 -0.049423 -2.05341 0
M  V30 4844 H 440.746 2.2655 -3.13388 0
M  V30 4845 H 442.435 2.05874 -3.49816 0
M  V30 4846 H 443.201 -0.0245611 -4.84994 0
M  V30 4847 H 439.08 1.14025 -4.46676 0
M  V30 4848 H 442.624 -1.36584 -6.84098 0
M  V30 4849 H 438.521 -0.194035 -6.45208 0
M  V30 4850 H 439.289 -1.53025 -8.04068 0
M  V30 4851 N 441.952 1.55251 0.271103 0
M  V30 4852 C 443.2 1.75599 1.00047 0
M  V30 4853 C 443.521 0.561188 1.8675 0
M  V30 4854 O 442.791 -0.423846 1.9126 0
M  V30 4855 H 441.371 0.647562 0.372387 0
M  V30 4856 H 444.033 1.92656 0.294876 0
M  V30 4857 H 443.129 2.65766 1.6363 0
M  V30 4858 N 443.43 -0.535701 1.48216 0
M  V30 4859 C 444.676 -1.2913 1.57153 0
M  V30 4860 C 445.031 -1.90899 0.239823 0
M  V30 4861 O 444.324 -1.76022 -0.756748 0
M  V30 4862 C 444.518 -2.4068 2.64212 0
M  V30 4863 C 444.347 -1.89844 4.07663 0
M  V30 4864 C 443.117 -1.72708 4.74869 0
M  V30 4865 C 445.315 -1.43031 4.94011 0
M  V30 4866 N 443.297 -1.16437 6.02757 0
M  V30 4867 C 444.668 -0.986691 6.12098 0
M  V30 4868 C 446.723 -1.3128 4.80281 0
M  V30 4869 C 445.426 -0.437231 7.1797 0
M  V30 4870 C 447.452 -0.777346 5.86269 0
M  V30 4871 C 446.814 -0.343774 7.03561 0
M  V30 4872 H 442.913 -0.463753 0.629648 0
M  V30 4873 H 445.497 -0.604736 1.8507 0
M  V30 4874 H 443.668 -3.06839 2.38126 0
M  V30 4875 H 445.4 -3.07706 2.62867 0
M  V30 4876 H 442.155 -1.96061 4.31111 0
M  V30 4877 H 442.579 -0.903281 6.70947 0
M  V30 4878 H 447.221 -1.63408 3.89946 0
M  V30 4879 H 444.939 -0.103621 8.08034 0
M  V30 4880 H 448.525 -0.689688 5.77698 0
M  V30 4881 H 447.405 0.0641219 7.84174 0
M  V30 4882 N 444.908 -1.36708 -0.784132 0
M  V30 4883 C 446.319 -1.27947 -1.35965 0
M  V30 4884 C 446.67 0.0784013 -1.96043 0
M  V30 4885 O 445.795 0.979989 -1.92938 0
M  V30 4886 C 446.39 -2.31689 -2.47195 0
M  V30 4887 C 444.949 -2.26601 -3.00548 0
M  V30 4888 C 444.096 -2.16184 -1.73666 0
M  V30 4889 H 447.047 -1.4751 -0.585358 0
M  V30 4890 H 447.068 -1.95638 -3.26352 0
M  V30 4891 H 446.58 -3.30506 -2.03439 0
M  V30 4892 H 444.681 -1.31268 -3.48711 0
M  V30 4893 H 444.794 -3.19508 -3.57004 0
M  V30 4894 H 443.158 -1.62524 -1.96107 0
M  V30 4895 H 443.941 -3.16896 -1.32031 0
M  V30 4896 N 446.386 1.0089 -1.21074 0
M  V30 4897 C 447.797 1.56056 -1.02486 0
M  V30 4898 C 448.148 1.91728 0.416506 0
M  V30 4899 O 447.273 1.73066 1.29912 0
M  V30 4900 C 447.868 2.83563 -1.85411 0
M  V30 4901 C 446.427 3.3523 -1.71166 0
M  V30 4902 C 445.574 2.0846 -1.82865 0
M  V30 4903 H 448.525 0.831818 -1.35154 0
M  V30 4904 H 448.546 3.55286 -1.36205 0
M  V30 4905 H 448.058 2.57569 -2.9031 0
M  V30 4906 H 446.159 3.66167 -0.689361 0
M  V30 4907 H 446.272 4.06913 -2.52901 0
M  V30 4908 H 444.636 2.21275 -1.26132 0
M  V30 4909 H 445.419 1.84883 -2.89263 0
M  V30 4910 N 447.864 1.01787 1.20321 0
M  V30 4911 C 449.28 0.732951 1.41774 0
M  V30 4912 C 449.48 -0.686883 1.89431 0
M  V30 4913 O 448.536 -1.45446 2.06402 0
M  V30 4914 C 449.849 1.75973 2.43832 0
M  V30 4915 C 451.397 1.77802 2.57596 0
M  V30 4916 C 451.872 2.7941 3.62897 0
M  V30 4917 N 453.363 2.78157 3.70382 0
M  V30 4918 C 454.098 3.53434 4.51521 0
M  V30 4919 N 453.594 4.38392 5.36455 0
M  V30 4920 N 455.387 3.42026 4.46066 0
M  V30 4921 H 447.538 1.93447 0.877035 0
M  V30 4922 H 449.801 0.835712 0.447536 0
M  V30 4923 H 449.507 2.77699 2.15815 0
M  V30 4924 H 449.381 1.57292 3.4284 0
M  V30 4925 H 451.768 0.767602 2.84942 0
M  V30 4926 H 451.849 2.00557 1.58779 0
M  V30 4927 H 451.493 3.80616 3.36295 0
M  V30 4928 H 451.423 2.53916 4.61339 0
M  V30 4929 H 453.914 2.16531 3.09714 0
M  V30 4930 H 454.227 4.92596 5.95457 0
M  V30 4931 H 452.572 4.4247 5.35953 0
M  V30 4932 H 455.763 2.75075 3.78749 0
M  V30 4933 H 455.936 4.00946 5.09064 0
M  V30 4934 N 449.342 -1.36122 0.79427 0
M  V30 4935 C 450.305 -2.28309 0.201889 0
M  V30 4936 C 451.305 -1.49041 -0.603603 0
M  V30 4937 O 452.495 -1.68964 -0.423888 0
M  V30 4938 C 449.627 -3.3321 -0.719978 0
M  V30 4939 H 450.82 -2.82208 1.01481 0
M  V30 4940 H 448.373 -1.45768 0.564037 0
M  V30 4941 H 449.108 -2.84475 -1.55706 0
M  V30 4942 H 448.893 -3.91835 -0.144266 0
M  V30 4943 H 450.383 -4.02044 -1.12916 0
M  V30 4944 N 450.82 -0.546701 -1.47814 0
M  V30 4945 C 452.05 -0.0232519 -2.06587 0
M  V30 4946 C 452.458 1.2712 -1.40133 0
M  V30 4947 O 451.801 1.77091 -0.488305 0
M  V30 4948 C 451.863 0.254117 -3.58601 0
M  V30 4949 C 451.527 -0.949331 -4.47031 0
M  V30 4950 C 452.524 -1.85216 -4.85789 0
M  V30 4951 C 450.209 -1.16104 -4.88697 0
M  V30 4952 C 452.203 -2.95047 -5.65001 0
M  V30 4953 C 449.89 -2.26247 -5.67676 0
M  V30 4954 C 450.888 -3.1555 -6.05737 0
M  V30 4955 O 450.576 -4.23784 -6.83127 0
M  V30 4956 H 450.308 -0.0380082 -0.674931 0
M  V30 4957 H 452.862 -0.756631 -1.90956 0
M  V30 4958 H 451.092 1.04168 -3.72406 0
M  V30 4959 H 452.781 0.72167 -3.99433 0
M  V30 4960 H 453.547 -1.70061 -4.54207 0
M  V30 4961 H 449.426 -0.475159 -4.58545 0
M  V30 4962 H 452.97 -3.64778 -5.94628 0
M  V30 4963 H 448.867 -2.41379 -5.98671 0
M  V30 4964 H 449.635 -4.21701 -7.01506 0
M  V30 4965 N 452.299 1.55045 -0.282633 0
M  V30 4966 C 453.71 1.85473 0.213655 0
M  V30 4967 C 454.061 1.20465 1.54863 0
M  V30 4968 O 453.186 0.495676 2.10647 0
M  V30 4969 C 453.781 3.36496 0.394445 0
M  V30 4970 C 452.34 3.67022 0.834961 0
M  V30 4971 C 451.487 2.77218 -0.0674081 0
M  V30 4972 H 454.438 1.50478 -0.504202 0
M  V30 4973 H 454.459 3.60007 1.23186 0
M  V30 4974 H 453.971 3.83782 -0.577326 0
M  V30 4975 H 452.072 3.25241 1.81794 0
M  V30 4976 H 452.185 4.74433 0.667075 0
M  V30 4977 H 450.549 2.5069 0.450196 0
M  V30 4978 H 451.332 3.2732 -1.0352 0
M  V30 4979 N 453.777 0.010035 1.57597 0
M  V30 4980 C 455.005 -0.683413 1.95287 0
M  V30 4981 C 455.42 -1.66747 0.885481 0
M  V30 4982 O 454.777 -1.82003 -0.134629 0
M  V30 4983 C 454.828 -1.40652 3.33015 0
M  V30 4984 O 454.549 -0.461916 4.35658 0
M  V30 4985 C 456.05 -2.19356 3.85225 0
M  V30 4986 H 453.27 -0.189708 0.643624 0
M  V30 4987 H 455.814 0.0641359 2.04399 0
M  V30 4988 H 453.969 -2.10562 3.2518 0
M  V30 4989 H 454.383 -0.973215 5.15392 0
M  V30 4990 H 455.857 -2.65433 4.83993 0
M  V30 4991 H 456.334 -3.02457 3.18459 0
M  V30 4992 H 456.94 -1.54442 3.96267 0
M  V30 4993 N 455.255 -1.55392 -0.262866 0
M  V30 4994 C 456.485 -1.80251 -1.00961 0
M  V30 4995 C 456.893 -0.58117 -1.80053 0
M  V30 4996 O 456.236 0.459427 -1.77862 0
M  V30 4997 C 456.298 -2.98207 -2.00781 0
M  V30 4998 C 455.962 -4.34856 -1.40533 0
M  V30 4999 C 456.959 -5.13459 -0.815853 0
M  V30 5000 C 454.644 -4.8153 -1.42948 0
M  V30 5001 C 456.638 -6.36875 -0.258562 0
M  V30 5002 C 454.325 -6.04899 -0.868334 0
M  V30 5003 C 455.323 -6.8241 -0.283884 0
M  V30 5004 O 455.011 -8.03451 0.268644 0
M  V30 5005 H 454.743 -0.604049 -0.303482 0
M  V30 5006 H 457.297 -2.03257 -0.295926 0
M  V30 5007 H 455.527 -2.70917 -2.75936 0
M  V30 5008 H 457.216 -3.10299 -2.61667 0
M  V30 5009 H 457.982 -4.78526 -0.789812 0
M  V30 5010 H 453.861 -4.21201 -1.87378 0
M  V30 5011 H 457.405 -6.97318 0.198257 0
M  V30 5012 H 453.302 -6.39312 -0.891649 0
M  V30 5013 H 454.07 -8.18346 0.158974 0
M  V30 5014 N 456.733 0.527833 -1.48498 0
M  V30 5015 C 458.01 1.28905 -1.47115 0
M  V30 5016 C 458.39 2.10297 -0.184007 0
M  V30 5017 O 457.738 2.12728 0.834218 0
M  V30 5018 C 457.948 2.16866 -2.73441 0
M  V30 5019 C 459.296 2.76936 -3.21857 0
M  V30 5020 O 460.32 2.27152 -2.74373 0
M  V30 5021 O 459.179 3.67496 -4.04486 0
M  V30 5022 H 456.273 0.581918 -0.587623 0
M  V30 5023 H 458.819 0.544311 -1.60734 0
M  V30 5024 H 457.591 1.56521 -3.58632 0
M  V30 5025 H 457.214 2.98583 -2.62553 0
M  V30 5026 N 458.211 1.37122 0.776871 0
M  V30 5027 C 459.174 1.32301 1.8716 0
M  V30 5028 C 460.174 0.228099 1.59174 0
M  V30 5029 O 461.364 0.483642 1.67352 0
M  V30 5030 C 458.496 1.054 3.24197 0
M  V30 5031 H 459.689 2.29673 1.92848 0
M  V30 5032 H 457.242 1.22077 0.97606 0
M  V30 5033 H 457.977 0.0853872 3.24188 0
M  V30 5034 H 457.762 1.84648 3.45901 0
M  V30 5035 H 459.252 1.04664 4.04271 0
M  V30 5036 N 459.689 -1.00246 1.21608 0
M  V30 5037 C 460.938 -1.73476 1.02902 0
M  V30 5038 C 461.251 -1.90643 -0.437561 0
M  V30 5039 O 462.457 -2.61105 -0.74407 0
M  V30 5040 C 460.913 -3.12079 1.79261 0
M  V30 5041 C 460.521 -3.02877 3.30106 0
M  V30 5042 C 462.265 -3.89421 1.68972 0
M  V30 5043 C 460.172 -4.36575 3.98944 0
M  V30 5044 H 459.102 -0.650408 0.381425 0
M  V30 5045 H 461.753 -1.11985 1.45367 0
M  V30 5046 H 460.135 -3.74196 1.2959 0
M  V30 5047 H 461.309 -2.49983 3.87098 0
M  V30 5048 H 459.624 -2.39022 3.40965 0
M  V30 5049 H 462.221 -4.88362 2.17731 0
M  V30 5050 H 462.564 -4.1122 0.648397 0
M  V30 5051 H 463.097 -3.33963 2.16133 0
M  V30 5052 H 459.836 -4.19978 5.03288 0
M  V30 5053 H 459.356 -4.8942 3.4674 0
M  V30 5054 H 461.035 -5.05364 4.04 0
M  V30 5055 N 461.167 -1.02423 -1.1978 0
M  V30 5056 C 462.578 -0.748389 -1.71044 0
M  V30 5057 C 462.929 0.732398 -1.82017 0
M  V30 5058 O 462.054 1.57116 -1.48807 0
M  V30 5059 C 462.649 -1.35187 -3.1066 0
M  V30 5060 C 461.208 -1.12472 -3.59203 0
M  V30 5061 C 460.355 -1.45283 -2.36195 0
M  V30 5062 H 463.306 -1.19275 -1.04686 0
M  V30 5063 H 463.327 -0.746408 -3.73107 0
M  V30 5064 H 462.839 -2.4296 -3.02642 0
M  V30 5065 H 460.94 -0.0649983 -3.72543 0
M  V30 5066 H 461.053 -1.81016 -4.43588 0
M  V30 5067 H 459.417 -0.872034 -2.39307 0
M  V30 5068 H 460.2 -2.54129 -2.30811 0
M  V30 5069 N 462.645 1.35699 -0.801477 0
M  V30 5070 C 463.592 2.29876 -0.206294 0
M  V30 5071 C 464.562 1.52565 0.656752 0
M  V30 5072 O 465.747 1.81024 0.602906 0
M  V30 5073 C 462.887 3.39052 0.643272 0
M  V30 5074 C 462 4.31335 -0.239644 0
M  V30 5075 C 461.135 5.27599 0.61744 0
M  V30 5076 C 460.174 6.11521 -0.26619 0
M  V30 5077 N 459.311 6.99938 0.550571 0
M  V30 5078 H 464.151 2.80187 -1.01484 0
M  V30 5079 H 461.688 1.37902 -0.511997 0
M  V30 5080 H 463.646 4.0101 1.15094 0
M  V30 5081 H 462.276 2.9003 1.41713 0
M  V30 5082 H 461.328 3.70426 -0.865381 0
M  V30 5083 H 462.64 4.90243 -0.919985 0
M  V30 5084 H 461.794 5.94906 1.19045 0
M  V30 5085 H 460.533 4.69176 1.33137 0
M  V30 5086 H 459.538 5.43166 -0.851507 0
M  V30 5087 H 460.763 6.72022 -0.9779 0
M  V30 5088 H 458.709 6.44008 1.24856 0
M  V30 5089 H 458.626 7.55966 -0.071832 0
M  V30 5090 H 459.894 7.71599 1.10702 0
M  V30 5091 N 464.123 0.554532 1.47522 0
M  V30 5092 C 465.055 -0.232106 2.28022 0
M  V30 5093 C 466.068 -0.881865 1.36847 0
M  V30 5094 O 467.257 -0.756168 1.61692 0
M  V30 5095 C 464.357 -1.34604 3.11022 0
M  V30 5096 C 463.53 -0.793582 4.30141 0
M  V30 5097 C 462.589 -1.79168 4.94758 0
M  V30 5098 O 461.615 -1.33886 5.5323 0
M  V30 5099 N 462.817 -3.12495 4.89211 0
M  V30 5100 H 465.582 0.458407 2.96173 0
M  V30 5101 H 463.143 0.390433 1.57122 0
M  V30 5102 H 465.135 -2.01243 3.51118 0
M  V30 5103 H 463.705 -1.93983 2.45131 0
M  V30 5104 H 462.925 0.0495025 3.94169 0
M  V30 5105 H 464.213 -0.403776 5.07195 0
M  V30 5106 H 463.611 -3.51931 4.42901 0
M  V30 5107 H 462.168 -3.74698 5.33333 0
M  V30 5108 N 465.601 -1.54893 0.290851 0
M  V30 5109 C 466.548 -2.23138 -0.58974 0
M  V30 5110 C 467.518 -1.21036 -1.13752 0
M  V30 5111 O 468.703 -1.49626 -1.18392 0
M  V30 5112 C 465.843 -2.96811 -1.76061 0
M  V30 5113 C 464.956 -4.13665 -1.24519 0
M  V30 5114 C 464.091 -4.74944 -2.3791 0
M  V30 5115 C 463.13 -5.83963 -1.83451 0
M  V30 5116 N 462.267 -6.39239 -2.90376 0
M  V30 5117 H 467.107 -2.98 -0.00114915 0
M  V30 5118 H 464.644 -1.47096 0.0112006 0
M  V30 5119 H 466.602 -3.37751 -2.44909 0
M  V30 5120 H 465.232 -2.24344 -2.32098 0
M  V30 5121 H 464.284 -3.77737 -0.449288 0
M  V30 5122 H 465.596 -4.92238 -0.806424 0
M  V30 5123 H 464.75 -5.18684 -3.14724 0
M  V30 5124 H 463.489 -3.95682 -2.85109 0
M  V30 5125 H 462.494 -5.39657 -1.05122 0
M  V30 5126 H 463.719 -6.65103 -1.37169 0
M  V30 5127 H 461.665 -5.62864 -3.36927 0
M  V30 5128 H 461.582 -7.13129 -2.50965 0
M  V30 5129 H 462.85 -6.87637 -3.67118 0
M  V30 5130 N 467.08 -0.0183926 -1.57589 0
M  V30 5131 C 468.327 0.662562 -1.91354 0
M  V30 5132 C 468.655 1.72747 -0.893788 0
M  V30 5133 O 467.91 1.9545 0.0988509 0
M  V30 5134 C 468.209 1.32676 -3.31861 0
M  V30 5135 C 467.875 0.393267 -4.49182 0
M  V30 5136 C 466.537 0.136302 -4.81007 0
M  V30 5137 C 468.889 -0.248366 -5.20608 0
M  V30 5138 C 466.217 -0.770282 -5.81621 0
M  V30 5139 C 468.569 -1.14294 -6.22189 0
M  V30 5140 C 467.233 -1.4089 -6.52462 0
M  V30 5141 H 466.503 0.242448 -0.700214 0
M  V30 5142 H 469.15 -0.0778629 -1.91342 0
M  V30 5143 H 467.455 2.14168 -3.28084 0
M  V30 5144 H 469.152 1.86001 -3.55253 0
M  V30 5145 H 465.742 0.603723 -4.24327 0
M  V30 5146 H 469.926 -0.062883 -4.9626 0
M  V30 5147 H 465.182 -0.984154 -6.03427 0
M  V30 5148 H 469.356 -1.64637 -6.76659 0
M  V30 5149 H 466.983 -2.11306 -7.30242 0
M  V30 5150 N 468.558 1.5553 0.254621 0
M  V30 5151 C 469.488 1.9268 1.31897 0
M  V30 5152 C 470.469 0.790797 1.506 0
M  V30 5153 O 471.654 1.05045 1.63337 0
M  V30 5154 C 468.784 2.21477 2.67517 0
M  V30 5155 C 467.738 3.37256 2.63519 0
M  V30 5156 C 467.064 3.51576 4.02862 0
M  V30 5157 C 468.364 4.73157 2.21179 0
M  V30 5158 H 470.058 2.81832 1.01051 0
M  V30 5159 H 467.604 1.35599 0.484662 0
M  V30 5160 H 469.557 2.46055 3.42104 0
M  V30 5161 H 468.281 1.29144 2.99982 0
M  V30 5162 H 466.94 3.12675 1.9139 0
M  V30 5163 H 466.588 2.56676 4.32581 0
M  V30 5164 H 466.288 4.2943 4.01078 0
M  V30 5165 H 467.812 3.78467 4.79161 0
M  V30 5166 H 469.226 4.97158 2.85494 0
M  V30 5167 H 467.623 5.54058 2.30521 0
M  V30 5168 H 468.693 4.70739 1.16332 0
M  V30 5169 N 470.036 -0.519951 1.48776 0
M  V30 5170 C 471.313 -1.28123 1.47797 0
M  V30 5171 C 471.693 -2.10196 0.195157 0
M  V30 5172 O 471.041 -2.13167 -0.822925 0
M  V30 5173 C 471.251 -2.15413 2.74587 0
M  V30 5174 C 472.599 -2.75225 3.23321 0
M  V30 5175 O 473.623 -2.25694 2.75574 0
M  V30 5176 O 472.482 -3.65346 4.06429 0
M  V30 5177 H 469.576 -0.578793 0.590701 0
M  V30 5178 H 472.122 -0.535779 1.6102 0
M  V30 5179 H 470.894 -1.54617 3.59457 0
M  V30 5180 H 470.517 -2.97186 2.64132 0
M  V30 5181 N 471.514 -1.37532 -0.769588 0
M  V30 5182 C 472.446 -1.29347 -1.89214 0
M  V30 5183 C 473.459 -0.208842 -1.61455 0
M  V30 5184 O 474.648 -0.465158 -1.72333 0
M  V30 5185 C 471.748 -0.977649 -3.24492 0
M  V30 5186 C 470.921 -2.16817 -3.7988 0
M  V30 5187 C 469.98 -1.82229 -4.93639 0
M  V30 5188 O 469.006 -2.54548 -5.09111 0
M  V30 5189 N 470.208 -0.767696 -5.75401 0
M  V30 5190 H 472.973 -2.26073 -1.96751 0
M  V30 5191 H 470.534 -1.31185 -0.948795 0
M  V30 5192 H 472.526 -0.727065 -3.98115 0
M  V30 5193 H 471.096 -0.0988777 -3.12444 0
M  V30 5194 H 470.316 -2.58038 -2.9801 0
M  V30 5195 H 471.604 -2.96308 -4.13617 0
M  V30 5196 H 471.002 -0.167626 -5.65452 0
M  V30 5197 H 469.559 -0.576973 -6.49241 0
M  V30 5198 N 472.992 0.995999 -1.22138 0
M  V30 5199 C 473.955 2.06711 -0.990109 0
M  V30 5200 C 474.955 1.60744 0.0422978 0
M  V30 5201 O 476.145 1.73095 -0.195895 0
M  V30 5202 C 473.277 3.37288 -0.49491 0
M  V30 5203 H 474.47 2.28661 -1.94047 0
M  V30 5204 H 472.023 1.16711 -1.03963 0
M  V30 5205 H 472.758 3.21022 0.459948 0
M  V30 5206 H 472.543 3.71986 -1.23971 0
M  V30 5207 H 474.033 4.16103 -0.353253 0
M  V30 5208 N 474.47 1.03057 1.19235 0
M  V30 5209 C 475.433 0.617418 2.20727 0
M  V30 5210 C 476.433 -0.319856 1.57587 0
M  V30 5211 O 477.623 -0.106633 1.73873 0
M  V30 5212 C 474.755 -0.096296 3.40764 0
M  V30 5213 H 475.948 1.51544 2.58794 0
M  V30 5214 H 473.501 0.821949 1.32942 0
M  V30 5215 H 474.236 -1.00859 3.08217 0
M  V30 5216 H 474.021 0.577217 3.87828 0
M  V30 5217 H 475.511 -0.372219 4.15938 0
M  V30 5218 N 475.948 -1.35272 0.808662 0
M  V30 5219 C 477.364 -1.51806 0.492653 0
M  V30 5220 C 477.564 -1.7574 -0.985778 0
M  V30 5221 O 476.62 -1.80003 -1.77074 0
M  V30 5222 C 477.933 -2.69202 1.33981 0
M  V30 5223 C 479.481 -2.8308 1.33547 0
M  V30 5224 C 479.956 -4.03502 2.16679 0
M  V30 5225 N 481.447 -4.10684 2.14227 0
M  V30 5226 C 482.182 -5.02984 2.75308 0
M  V30 5227 N 481.678 -6.00603 3.45323 0
M  V30 5228 N 483.471 -4.95746 2.64938 0
M  V30 5229 H 475.622 -1.17993 1.76611 0
M  V30 5230 H 477.885 -0.577476 0.751814 0
M  V30 5231 H 477.591 -2.581 2.38909 0
M  V30 5232 H 477.465 -3.63854 0.994491 0
M  V30 5233 H 479.852 -2.93631 0.294036 0
M  V30 5234 H 479.933 -1.89278 1.72068 0
M  V30 5235 H 479.577 -3.93711 3.20864 0
M  V30 5236 H 479.507 -4.96489 1.75517 0
M  V30 5237 H 481.998 -3.40802 1.63285 0
M  V30 5238 H 482.311 -6.67633 3.89212 0
M  V30 5239 H 480.656 -6.0077 3.49428 0
M  V30 5240 H 483.847 -4.18439 2.09825 0
M  V30 5241 H 484.02 -5.67487 3.12829 0
M  V30 5242 N 477.426 -0.562348 -1.47226 0
M  V30 5243 C 478.656 -0.0451619 -2.06551 0
M  V30 5244 C 479.064 1.25626 -1.41473 0
M  V30 5245 O 478.407 1.76563 -0.507061 0
M  V30 5246 C 478.469 0.216068 -3.5885 0
M  V30 5247 C 478.133 -0.996691 -4.45999 0
M  V30 5248 C 479.13 -1.90358 -4.83797 0
M  V30 5249 C 476.815 -1.21281 -4.87438 0
M  V30 5250 C 478.809 -3.01023 -5.6184 0
M  V30 5251 C 476.496 -2.32255 -5.65244 0
M  V30 5252 C 477.494 -3.21956 -6.02356 0
M  V30 5253 O 477.182 -4.31005 -6.78594 0
M  V30 5254 H 476.914 -0.0451646 -0.67449 0
M  V30 5255 H 479.468 -0.776842 -1.90143 0
M  V30 5256 H 477.698 1.00212 -3.7349 0
M  V30 5257 H 479.387 0.679264 -4.00176 0
M  V30 5258 H 480.153 -1.74868 -4.52378 0
M  V30 5259 H 476.032 -0.523767 -4.58015 0
M  V30 5260 H 479.576 -3.71064 -5.90726 0
M  V30 5261 H 475.473 -2.47715 -5.96077 0
M  V30 5262 H 476.241 -4.29118 -6.96994 0
M  V30 5263 N 478.904 1.54736 -0.299062 0
M  V30 5264 C 480.181 1.92187 0.363802 0
M  V30 5265 C 480.561 1.22607 1.71845 0
M  V30 5266 O 479.909 0.361141 2.25628 0
M  V30 5267 C 480.119 3.45678 0.480377 0
M  V30 5268 C 481.467 4.17885 0.752147 0
M  V30 5269 O 482.491 3.51702 0.564264 0
M  V30 5270 O 481.35 5.35048 1.11294 0
M  V30 5271 H 478.444 0.801681 0.203066 0
M  V30 5272 H 480.99 1.66115 -0.346978 0
M  V30 5273 H 479.762 3.88443 -0.471999 0
M  V30 5274 H 479.385 3.77779 1.2397 0
M  V30 5275 N 480.382 0.0267497 1.57577 0
M  V30 5276 C 481.798 -0.32962 1.56159 0
M  V30 5277 C 481.998 -1.73059 1.03213 0
M  V30 5278 O 481.054 -2.43233 0.677804 0
M  V30 5279 C 482.367 -0.18039 3.00158 0
M  V30 5280 C 483.915 -0.253334 3.11973 0
M  V30 5281 C 484.39 -0.132921 4.57807 0
M  V30 5282 N 485.881 -0.189979 4.6281 0
M  V30 5283 C 486.616 -0.120554 5.73273 0
M  V30 5284 N 486.112 -0.000180315 6.928 0
M  V30 5285 N 487.905 -0.174369 5.61829 0
M  V30 5286 H 480.056 0.942896 1.90324 0
M  V30 5287 H 482.319 0.3639 0.875375 0
M  V30 5288 H 482.025 0.784576 3.42837 0
M  V30 5289 H 481.899 -0.951565 3.65 0
M  V30 5290 H 484.286 -1.20876 2.69208 0
M  V30 5291 H 484.367 0.548177 2.49857 0
M  V30 5292 H 484.011 0.819073 5.01252 0
M  V30 5293 H 483.941 -0.953264 5.179 0
M  V30 5294 H 486.432 -0.283257 3.76837 0
M  V30 5295 H 486.745 0.0461666 7.72786 0
M  V30 5296 H 485.09 0.034569 6.94991 0
M  V30 5297 H 488.281 -0.266794 4.67339 0
M  V30 5298 H 488.454 -0.116802 6.47895 0
M  V30 5299 N 481.861 -1.55662 -0.24637 0
M  V30 5300 C 482.791 -1.93377 -1.30873 0
M  V30 5301 C 483.772 -0.798773 -1.50179 0
M  V30 5302 O 484.957 -1.0591 -1.62778 0
M  V30 5303 C 482.087 -2.22893 -2.66338 0
M  V30 5304 C 481.041 -3.38649 -2.61727 0
M  V30 5305 C 480.367 -3.53708 -4.00992 0
M  V30 5306 C 481.667 -4.74323 -2.18666 0
M  V30 5307 H 483.361 -2.82363 -0.995552 0
M  V30 5308 H 480.907 -1.35854 -0.477464 0
M  V30 5309 H 482.86 -2.47866 -3.40794 0
M  V30 5310 H 481.584 -1.30733 -2.99293 0
M  V30 5311 H 480.243 -3.13685 -1.89729 0
M  V30 5312 H 479.891 -2.58967 -4.31214 0
M  V30 5313 H 479.591 -4.31551 -3.98795 0
M  V30 5314 H 481.115 -3.81003 -4.77147 0
M  V30 5315 H 482.529 -4.98665 -2.82854 0
M  V30 5316 H 480.926 -5.55273 -2.27579 0
M  V30 5317 H 481.996 -4.71349 -1.13834 0
M  V30 5318 N 483.339 0.512053 -1.4905 0
M  V30 5319 C 484.586 1.26686 -1.57978 0
M  V30 5320 C 484.914 1.92733 -0.261553 0
M  V30 5321 O 484.169 1.80772 0.749667 0
M  V30 5322 C 484.468 2.36446 -2.68008 0
M  V30 5323 C 484.134 1.87932 -4.09869 0
M  V30 5324 C 482.796 1.74419 -4.48477 0
M  V30 5325 C 485.148 1.5149 -4.98698 0
M  V30 5326 C 482.476 1.22827 -5.73699 0
M  V30 5327 C 484.828 1.01355 -6.24428 0
M  V30 5328 C 483.492 0.864735 -6.61875 0
M  V30 5329 H 482.762 0.463577 -0.578081 0
M  V30 5330 H 485.409 0.569421 -1.82838 0
M  V30 5331 H 483.714 3.11933 -2.37076 0
M  V30 5332 H 485.411 2.9453 -2.72127 0
M  V30 5333 H 482.001 1.99405 -3.79389 0
M  V30 5334 H 486.185 1.60782 -4.69535 0
M  V30 5335 H 481.441 1.10008 -6.01422 0
M  V30 5336 H 485.615 0.722351 -6.92644 0
M  V30 5337 H 483.242 0.462777 -7.5879 0
M  V30 5338 N 484.817 1.37938 0.762283 0
M  V30 5339 C 485.764 1.34467 1.87583 0
M  V30 5340 C 486.734 0.208633 1.64785 0
M  V30 5341 O 487.919 0.399494 1.86571 0
M  V30 5342 C 485.059 1.16692 3.24772 0
M  V30 5343 C 484.172 2.39608 3.59461 0
M  V30 5344 C 483.307 2.14631 4.85908 0
M  V30 5345 C 482.346 3.33364 5.13357 0
M  V30 5346 N 481.483 3.07877 6.30996 0
M  V30 5347 H 486.323 2.29669 1.89885 0
M  V30 5348 H 483.86 1.14116 0.928219 0
M  V30 5349 H 485.818 1.04405 4.03925 0
M  V30 5350 H 484.448 0.251333 3.2182 0
M  V30 5351 H 483.5 2.626 2.75219 0
M  V30 5352 H 484.812 3.28128 3.75678 0
M  V30 5353 H 483.966 1.99429 5.72986 0
M  V30 5354 H 482.705 1.23463 4.71814 0
M  V30 5355 H 481.71 3.49094 4.24751 0
M  V30 5356 H 482.935 4.25395 5.29354 0
M  V30 5357 H 480.881 2.19348 6.18241 0
M  V30 5358 H 480.798 3.89944 6.47673 0
M  V30 5359 H 482.066 2.96313 7.20985 0
M  V30 5360 N 486.295 -0.989507 1.22664 0
M  V30 5361 C 487.225 -2.09847 1.02404 0
M  V30 5362 C 488.206 -1.70007 -0.0561303 0
M  V30 5363 O 489.391 -1.93906 0.106748 0
M  V30 5364 C 486.521 -3.41996 0.604663 0
M  V30 5365 C 485.475 -3.95699 1.63115 0
M  V30 5366 C 484.801 -5.23936 1.0675 0
M  V30 5367 C 486.101 -4.25999 3.02196 0
M  V30 5368 H 487.795 -2.27054 1.95158 0
M  V30 5369 H 485.341 -1.09111 0.939727 0
M  V30 5370 H 487.294 -4.1899 0.45002 0
M  V30 5371 H 486.018 -3.24626 -0.35855 0
M  V30 5372 H 484.677 -3.2084 1.77362 0
M  V30 5373 H 484.325 -5.02909 0.0955422 0
M  V30 5374 H 484.025 -5.60833 1.75328 0
M  V30 5375 H 485.549 -6.0356 0.924516 0
M  V30 5376 H 486.963 -4.93777 2.91303 0
M  V30 5377 H 485.36 -4.74076 3.67929 0
M  V30 5378 H 486.43 -3.33636 3.51873 0
M  V30 5379 N 487.773 -1.03688 -1.18687 0
M  V30 5380 C 489.003 -0.756819 -1.92239 0
M  V30 5381 C 489.411 0.689374 -1.76194 0
M  V30 5382 O 488.754 1.48126 -1.08648 0
M  V30 5383 C 488.816 -1.03851 -3.44173 0
M  V30 5384 C 488.48 -2.47785 -3.83994 0
M  V30 5385 C 489.477 -3.4595 -3.88091 0
M  V30 5386 C 487.162 -2.82397 -4.154 0
M  V30 5387 C 489.156 -4.76779 -4.23038 0
M  V30 5388 C 486.843 -4.13433 -4.50018 0
M  V30 5389 C 487.841 -5.10434 -4.53813 0
M  V30 5390 O 487.529 -6.39122 -4.87625 0
M  V30 5391 H 487.261 -0.275678 -0.617234 0
M  V30 5392 H 489.815 -1.38658 -1.51536 0
M  V30 5393 H 488.045 -0.351612 -3.85098 0
M  V30 5394 H 489.734 -0.746846 -3.9897 0
M  V30 5395 H 490.5 -3.20549 -3.63969 0
M  V30 5396 H 486.379 -2.07568 -4.11627 0
M  V30 5397 H 489.923 -5.52488 -4.25914 0
M  V30 5398 H 485.82 -4.38604 -4.736 0
M  V30 5399 H 486.588 -6.43715 -5.05542 0
M  V30 5400 N 489.251 1.34841 -0.815825 0
M  V30 5401 C 490.161 2.33425 -0.234462 0
M  V30 5402 C 491.177 1.62295 0.627413 0
M  V30 5403 O 492.353 1.94109 0.536987 0
M  V30 5404 C 489.418 3.41471 0.599849 0
M  V30 5405 C 488.479 4.28362 -0.283596 0
M  V30 5406 C 487.712 5.31248 0.51099 0
M  V30 5407 O 487.935 5.43056 1.7449 0
M  V30 5408 O 486.869 6.01812 -0.10297 0
M  V30 5409 H 490.695 2.84962 -1.05024 0
M  V30 5410 H 488.28 1.37774 -0.577809 0
M  V30 5411 H 490.162 4.07464 1.07475 0
M  V30 5412 H 488.837 2.9219 1.39308 0
M  V30 5413 H 487.744 3.65318 -0.805836 0
M  V30 5414 H 489.077 4.81066 -1.041 0
M  V30 5415 N 490.729 0.570148 1.46925 0
M  V30 5416 C 491.676 -0.170257 2.30171 0
M  V30 5417 C 492.646 -0.896099 1.39855 0
M  V30 5418 O 493.831 -0.889248 1.68811 0
M  V30 5419 C 490.971 -1.18605 3.24079 0
M  V30 5420 C 490.084 -0.464947 4.29491 0
M  V30 5421 C 489.219 -1.46716 5.10537 0
M  V30 5422 C 488.258 -0.731758 6.0771 0
M  V30 5423 N 487.395 -1.68142 6.81669 0
M  V30 5424 H 492.235 0.545713 2.92961 0
M  V30 5425 H 489.772 0.280938 1.44392 0
M  V30 5426 H 491.73 -1.78771 3.76957 0
M  V30 5427 H 490.36 -1.86989 2.63125 0
M  V30 5428 H 489.412 0.251506 3.79568 0
M  V30 5429 H 490.724 0.110548 4.98677 0
M  V30 5430 H 489.878 -2.14199 5.6763 0
M  V30 5431 H 488.617 -2.07658 4.41282 0
M  V30 5432 H 487.622 -0.0430787 5.49783 0
M  V30 5433 H 488.847 -0.127904 6.7898 0
M  V30 5434 H 486.793 -2.27918 6.15134 0
M  V30 5435 H 486.71 -1.15841 7.47072 0
M  V30 5436 H 487.978 -2.347 7.43328 0
M  V30 5437 N 492.207 -1.54576 0.307264 0
M  V30 5438 C 493.137 -2.26708 -0.55907 0
M  V30 5439 C 494.118 -1.26893 -1.1328 0
M  V30 5440 O 495.303 -1.55677 -1.16097 0
M  V30 5441 C 492.433 -3.01259 -1.72801 0
M  V30 5442 C 491.387 -4.08275 -1.28435 0
M  V30 5443 C 490.713 -4.70575 -2.53895 0
M  V30 5444 C 492.013 -5.2068 -0.411038 0
M  V30 5445 H 493.707 -2.9937 0.042576 0
M  V30 5446 H 491.253 -1.43983 0.0219173 0
M  V30 5447 H 493.206 -3.50444 -2.34023 0
M  V30 5448 H 491.93 -2.26187 -2.356 0
M  V30 5449 H 490.589 -3.59949 -0.695161 0
M  V30 5450 H 490.237 -3.92136 -3.15021 0
M  V30 5451 H 489.937 -5.42854 -2.24908 0
M  V30 5452 H 491.461 -5.22527 -3.15908 0
M  V30 5453 H 492.875 -5.65721 -0.929097 0
M  V30 5454 H 491.272 -5.99716 -0.214664 0
M  V30 5455 H 492.342 -4.81629 0.562287 0
M  V30 5456 N 493.685 -0.035106 -1.57561 0
M  V30 5457 C 494.91 0.655802 -1.96759 0
M  V30 5458 C 495.335 1.64523 -0.911809 0
M  V30 5459 O 494.693 1.80857 0.126673 0
M  V30 5460 C 494.741 1.33326 -3.35047 0
M  V30 5461 O 493.845 2.44866 -3.31835 0
M  V30 5462 H 493.186 0.171807 -0.641388 0
M  V30 5463 H 495.716 -0.0987369 -2.04362 0
M  V30 5464 H 495.726 1.68867 -3.71413 0
M  V30 5465 H 494.401 0.608033 -4.11431 0
M  V30 5466 H 492.978 2.11392 -3.07193 0
M  V30 5467 N 495.163 1.55791 0.238111 0
M  V30 5468 C 496.44 1.68798 0.98826 0
M  V30 5469 C 496.82 0.577562 2.03045 0
M  V30 5470 O 496.168 -0.41778 2.24648 0
M  V30 5471 C 496.378 3.09454 1.61367 0
M  V30 5472 C 497.726 3.68335 2.11221 0
M  V30 5473 O 498.75 3.1231 1.71292 0
M  V30 5474 O 497.609 4.6657 2.84561 0
M  V30 5475 H 494.703 0.686881 0.460568 0
M  V30 5476 H 497.249 1.68118 0.231202 0
M  V30 5477 H 496.021 3.81726 0.860295 0
M  V30 5478 H 495.644 3.14182 2.4367 0
M  V30 5479 N 496.642 -0.504142 1.49319 0
M  V30 5480 C 497.589 -1.60603 1.65756 0
M  V30 5481 C 498.559 -1.58425 0.499082 0
M  V30 5482 O 499.744 -1.76459 0.725728 0
M  V30 5483 C 496.884 -2.98764 1.72726 0
M  V30 5484 C 495.997 -3.10982 2.99857 0
M  V30 5485 C 495.132 -4.39857 2.97824 0
M  V30 5486 C 494.171 -4.45697 4.19548 0
M  V30 5487 N 493.308 -5.65995 4.15444 0
M  V30 5488 H 498.148 -1.45895 2.59843 0
M  V30 5489 H 495.685 -0.709891 1.28837 0
M  V30 5490 H 497.643 -3.78839 1.74747 0
M  V30 5491 H 496.273 -3.12183 0.821075 0
M  V30 5492 H 495.325 -2.23991 3.07461 0
M  V30 5493 H 496.637 -3.11157 3.89849 0
M  V30 5494 H 495.791 -5.2825 2.98391 0
M  V30 5495 H 494.53 -4.42242 2.05604 0
M  V30 5496 H 493.535 -3.55707 4.19229 0
M  V30 5497 H 494.76 -4.4503 5.12957 0
M  V30 5498 H 492.706 -5.69229 3.26059 0
M  V30 5499 H 492.623 -5.67773 4.99169 0
M  V30 5500 H 493.891 -6.56604 4.20109 0
M  V30 5501 N 498.12 -1.38341 -0.754957 0
M  V30 5502 C 499.369 -1.33791 -1.5094 0
M  V30 5503 C 499.682 0.0699267 -1.95475 0
M  V30 5504 O 500.888 0.237956 -2.70455 0
M  V30 5505 C 499.344 -2.34934 -2.72643 0
M  V30 5506 C 498.952 -3.81332 -2.35138 0
M  V30 5507 C 500.696 -2.39425 -3.50536 0
M  V30 5508 C 498.603 -4.74164 -3.53444 0
M  V30 5509 H 497.533 -0.497314 -0.566741 0
M  V30 5510 H 500.184 -1.63888 -0.825403 0
M  V30 5511 H 498.566 -1.97878 -3.43017 0
M  V30 5512 H 499.74 -4.27319 -1.7244 0
M  V30 5513 H 498.055 -3.79946 -1.70382 0
M  V30 5514 H 500.652 -3.0598 -4.38498 0
M  V30 5515 H 500.995 -1.41278 -3.91594 0
M  V30 5516 H 501.528 -2.75274 -2.87174 0
M  V30 5517 H 498.267 -5.73501 -3.17453 0
M  V30 5518 H 497.787 -4.3287 -4.15191 0
M  V30 5519 H 499.466 -4.92111 -4.20043 0
M  V30 5520 N 499.598 0.982988 -1.23187 0
M  V30 5521 C 500.823 1.76455 -1.08988 0
M  V30 5522 C 501.248 1.84726 0.354691 0
M  V30 5523 O 500.606 1.30699 1.25649 0
M  V30 5524 C 500.654 3.17094 -1.71708 0
M  V30 5525 O 499.758 4.00648 -0.977477 0
M  V30 5526 H 499.099 0.542988 -0.382177 0
M  V30 5527 H 501.629 1.23413 -1.63188 0
M  V30 5528 H 501.639 3.67684 -1.76841 0
M  V30 5529 H 500.314 3.10389 -2.76823 0
M  V30 5530 H 498.891 3.59161 -1.0029 0
M  V30 5531 N 501.076 1.04316 1.18135 0
M  V30 5532 C 502.024 0.630175 2.23901 0
M  V30 5533 C 503.018 -0.344254 1.65865 0
M  V30 5534 O 504.224 -0.211273 1.78756 0
M  V30 5535 H 500.599 0.185578 0.728742 0
M  V30 5536 H 502.57 1.53253 2.56039 0
M  V30 5537 C 501.319 0.011666 3.47698 0
M  V30 5538 H 500.642 0.752526 3.92654 0
M  V30 5539 H 502.082 -0.240046 4.2332 0
M  V30 5540 C 500.541 -1.23913 3.13285 0
M  V30 5541 O 501.071 -2.32959 3.27251 0
M  V30 5542 N 499.277 -1.13338 2.67587 0
M  V30 5543 H 498.824 -0.246006 2.56423 0
M  V30 5544 H 498.782 -1.97116 2.44934 0
M  V30 5545 N 502.554 -1.34406 0.822964 0
M  V30 5546 C 503.8 -1.98578 0.411666 0
M  V30 5547 C 504.133 -1.65093 -1.02264 0
M  V30 5548 O 503.408 -0.92258 -1.71227 0
M  V30 5549 C 503.691 -3.54823 0.614235 0
M  V30 5550 C 503.544 -3.9805 2.09466 0
M  V30 5551 C 504.863 -4.40071 0.050221 0
M  V30 5552 H 501.982 -0.721355 0.151047 0
M  V30 5553 H 504.624 -1.59301 1.03554 0
M  V30 5554 H 502.774 -3.88411 0.0831774 0
M  V30 5555 H 504.446 -3.74795 2.68936 0
M  V30 5556 H 502.689 -3.4836 2.5851 0
M  V30 5557 H 503.36 -5.06819 2.18721 0
M  V30 5558 H 505.836 -4.13037 0.503953 0
M  V30 5559 H 504.712 -5.48452 0.221759 0
M  V30 5560 H 504.973 -4.29576 -1.04482 0
M  V30 5561 N 504.032 -0.577932 -1.46621 0
M  V30 5562 C 505.26 -0.0671642 -2.06791 0
M  V30 5563 C 505.675 1.23571 -1.42743 0
M  V30 5564 O 505.032 1.74602 -0.531062 0
M  V30 5565 C 505.083 0.110357 -3.61332 0
M  V30 5566 O 504.804 -1.14095 -4.22982 0
M  V30 5567 C 506.305 0.656025 -4.38419 0
M  V30 5568 H 503.525 -0.0552732 -0.66872 0
M  V30 5569 H 506.069 -0.797242 -1.8832 0
M  V30 5570 H 504.224 0.790637 -3.79246 0
M  V30 5571 H 504.638 -0.951742 -5.15793 0
M  V30 5572 H 506.112 0.729438 -5.47159 0
M  V30 5573 H 506.589 1.67195 -4.06131 0
M  V30 5574 H 507.195 0.0107692 -4.25299 0
M  V30 5575 N 505.51 1.54411 -0.315457 0
M  V30 5576 C 506.757 2.00419 0.289543 0
M  V30 5577 C 507.085 1.20373 1.52776 0
M  V30 5578 O 506.34 0.271769 1.93804 0
M  V30 5579 C 506.639 3.50936 0.676652 0
M  V30 5580 C 506.305 4.48532 -0.461472 0
M  V30 5581 C 504.967 4.74936 -0.773879 0
M  V30 5582 C 507.319 5.06567 -1.22637 0
M  V30 5583 C 504.647 5.56634 -1.85405 0
M  V30 5584 C 506.999 5.89441 -2.29657 0
M  V30 5585 C 505.663 6.1415 -2.61488 0
M  V30 5586 H 504.933 0.733386 0.105951 0
M  V30 5587 H 507.58 1.86434 -0.437554 0
M  V30 5588 H 505.885 3.62606 1.48405 0
M  V30 5589 H 507.582 3.83971 1.15618 0
M  V30 5590 H 504.172 4.28096 -0.207893 0
M  V30 5591 H 508.356 4.86157 -0.998271 0
M  V30 5592 H 503.612 5.74012 -2.10523 0
M  V30 5593 H 507.786 6.33432 -2.89374 0
M  V30 5594 H 505.413 6.77245 -3.45317 0
M  V30 5595 N 506.988 0.0434614 1.5754 0
M  V30 5596 C 508.234 -0.627109 1.93491 0
M  V30 5597 C 508.589 -1.68904 0.921362 0
M  V30 5598 O 507.882 -1.91504 -0.0605799 0
M  V30 5599 C 508.076 -1.2738 3.3393 0
M  V30 5600 C 507.905 -0.27603 4.48852 0
M  V30 5601 C 506.675 0.129244 5.05135 0
M  V30 5602 C 508.873 0.475462 5.12098 0
M  V30 5603 N 506.855 1.12068 6.03584 0
M  V30 5604 C 508.226 1.32021 6.05781 0
M  V30 5605 C 510.281 0.534611 4.95022 0
M  V30 5606 C 508.984 2.2188 6.84223 0
M  V30 5607 C 511.01 1.42059 5.74085 0
M  V30 5608 C 510.372 2.25309 6.67394 0
M  V30 5609 H 506.471 -0.201354 0.755633 0
M  V30 5610 H 509.055 0.113991 1.94366 0
M  V30 5611 H 507.226 -1.98496 3.33847 0
M  V30 5612 H 508.958 -1.90255 3.57191 0
M  V30 5613 H 505.713 -0.248145 4.72949 0
M  V30 5614 H 506.137 1.61306 6.57502 0
M  V30 5615 H 510.779 -0.0947817 4.22694 0
M  V30 5616 H 508.497 2.85868 7.55847 0
M  V30 5617 H 512.083 1.47083 5.62901 0
M  V30 5618 H 510.963 2.92754 7.27506 0
M  V30 5619 N 508.466 -1.55915 -0.229846 0
M  V30 5620 C 509.714 -1.7819 -0.953565 0
M  V30 5621 C 510.035 -0.610504 -1.85197 0
M  V30 5622 O 509.305 0.372988 -1.92316 0
M  V30 5623 H 507.885 -0.657208 -0.355087 0
M  V30 5624 H 510.547 -1.9337 -0.243693 0
M  V30 5625 H 509.643 -2.70011 -1.56527 0
M  V30 5626 N 509.944 0.496216 -1.49584 0
M  V30 5627 C 511.193 1.24668 -1.58558 0
M  V30 5628 C 511.506 1.9359 -0.279703 0
M  V30 5629 O 512.712 2.70365 -0.248048 0
M  V30 5630 C 511.168 2.26388 -2.79779 0
M  V30 5631 C 510.776 1.63384 -4.17145 0
M  V30 5632 C 512.52 3.02233 -2.98086 0
M  V30 5633 C 510.427 2.63243 -5.29582 0
M  V30 5634 H 509.357 0.468995 -0.590389 0
M  V30 5635 H 512.008 0.519985 -1.75978 0
M  V30 5636 H 510.39 3.02241 -2.55863 0
M  V30 5637 H 511.564 0.93491 -4.51216 0
M  V30 5638 H 509.879 0.999121 -4.04236 0
M  V30 5639 H 512.476 3.76919 -3.79257 0
M  V30 5640 H 512.819 3.60132 -2.08831 0
M  V30 5641 H 513.352 2.33495 -3.22063 0
M  V30 5642 H 510.091 2.10119 -6.20911 0
M  V30 5643 H 509.611 3.31363 -4.99959 0
M  V30 5644 H 511.29 3.25575 -5.59115 0
M  V30 5645 N 511.423 1.38739 0.74761 0
M  V30 5646 C 512.386 1.36241 1.84312 0
M  V30 5647 C 513.386 0.261811 1.58654 0
M  V30 5648 O 514.576 0.519031 1.66288 0
M  V30 5649 C 511.708 1.12253 3.21888 0
M  V30 5650 H 512.901 2.33712 1.87933 0
M  V30 5651 H 510.454 1.2412 0.949946 0
M  V30 5652 H 511.189 0.154133 3.23934 0
M  V30 5653 H 510.974 1.91943 3.41907 0
M  V30 5654 H 512.464 1.13215 4.0196 0
M  V30 5655 N 512.901 -0.976442 1.23707 0
M  V30 5656 C 514.178 -1.69296 0.979699 0
M  V30 5657 C 514.558 -2.0508 -0.500555 0
M  V30 5658 O 513.906 -1.74708 -1.47273 0
M  V30 5659 C 514.116 -2.93143 1.89389 0
M  V30 5660 C 515.464 -3.65572 2.15968 0
M  V30 5661 O 516.488 -3.03184 1.86971 0
M  V30 5662 O 515.347 -4.77859 2.65167 0
M  V30 5663 H 512.441 -0.739708 0.369812 0
M  V30 5664 H 514.987 -1.03131 1.34767 0
M  V30 5665 H 513.759 -2.63327 2.89439 0
M  V30 5666 H 513.382 -3.67044 1.52854 0
M  V30 5667 N 514.379 -1.04941 -1.1758 0
M  V30 5668 C 515.327 -0.64204 -2.23563 0
M  V30 5669 C 516.321 0.335453 -1.66045 0
M  V30 5670 O 517.527 0.20179 -1.78865 0
M  V30 5671 H 513.902 -0.18944 -0.727748 0
M  V30 5672 H 515.873 -1.54609 -2.55223 0
M  V30 5673 C 514.622 -0.0301051 -3.47687 0
M  V30 5674 H 513.945 -0.773339 -3.92249 0
M  V30 5675 H 515.385 0.217592 -4.23441 0
M  V30 5676 C 513.844 1.2225 -3.13937 0
M  V30 5677 O 514.374 2.3122 -3.28482 0
M  V30 5678 N 512.58 1.11917 -2.68185 0
M  V30 5679 H 512.127 0.232403 -2.5655 0
M  V30 5680 H 512.085 1.95814 -2.45976 0
M  V30 5681 N 515.857 1.33968 -0.830081 0
M  V30 5682 C 516.807 2.26845 -0.229242 0
M  V30 5683 C 517.791 1.48862 0.610659 0
M  V30 5684 O 518.983 1.70808 0.464067 0
M  V30 5685 C 516.112 3.3798 0.602057 0
M  V30 5686 C 515.198 4.23369 -0.248866 0
M  V30 5687 N 515.589 4.88182 -1.32334 0
M  V30 5688 C 513.887 4.45987 -0.0344077 0
M  V30 5689 C 514.588 5.51671 -1.84482 0
M  V30 5690 N 513.564 5.31348 -1.14762 0
M  V30 5691 H 517.366 2.74464 -1.05104 0
M  V30 5692 H 514.88 1.4777 -0.673623 0
M  V30 5693 H 516.877 4.03494 1.04873 0
M  V30 5694 H 515.537 2.9191 1.42193 0
M  V30 5695 H 516.548 4.88988 -1.70619 0
M  V30 5696 H 513.225 4.10658 0.752727 0
M  V30 5697 H 514.615 6.13308 -2.74413 0
M  V30 5698 N 517.335 0.585699 1.46312 0
M  V30 5699 C 518.563 0.0781299 2.06752 0
M  V30 5700 C 518.978 -1.22812 1.43396 0
M  V30 5701 O 518.335 -1.74318 0.540314 0
M  V30 5702 C 518.386 -0.0911927 3.61385 0
M  V30 5703 O 518.107 1.16336 4.22371 0
M  V30 5704 C 519.608 -0.632765 4.38761 0
M  V30 5705 H 516.828 0.0588188 0.668417 0
M  V30 5706 H 519.372 0.807218 1.87894 0
M  V30 5707 H 517.527 -0.770514 3.7966 0
M  V30 5708 H 517.941 0.979082 5.15281 0
M  V30 5709 H 519.415 -0.70041 5.47538 0
M  V30 5710 H 519.892 -1.65039 4.07012 0
M  V30 5711 H 520.498 0.0117856 4.25298 0
M  V30 5712 N 518.813 -1.54241 0.323641 0
M  V30 5713 C 520.059 -2.01572 -0.272089 0
M  V30 5714 C 520.414 -1.20774 -1.49771 0
M  V30 5715 O 519.707 -0.281821 -1.89516 0
M  V30 5716 C 519.901 -3.5129 -0.658031 0
M  V30 5717 C 519.73 -4.46582 0.528645 0
M  V30 5718 C 518.5 -4.94737 1.02777 0
M  V30 5719 C 520.698 -4.95416 1.38086 0
M  V30 5720 N 518.68 -5.73933 2.17885 0
M  V30 5721 C 520.051 -5.72537 2.3791 0
M  V30 5722 C 522.106 -4.77559 1.40861 0
M  V30 5723 C 520.809 -6.33702 3.40314 0
M  V30 5724 C 522.835 -5.39559 2.42136 0
M  V30 5725 C 522.197 -6.16532 3.40688 0
M  V30 5726 H 518.296 -0.779425 -0.0634072 0
M  V30 5727 H 520.88 -1.8922 0.458697 0
M  V30 5728 H 519.051 -3.63888 -1.35795 0
M  V30 5729 H 520.783 -3.85388 -1.23524 0
M  V30 5730 H 517.538 -4.69796 0.599046 0
M  V30 5731 H 517.962 -6.18209 2.75947 0
M  V30 5732 H 522.604 -4.17611 0.660352 0
M  V30 5733 H 520.322 -6.9277 4.16047 0
M  V30 5734 H 523.908 -5.27659 2.45086 0
M  V30 5735 H 522.788 -6.63655 4.1777 0
M  V30 5736 N 520.291 -0.0518155 -1.57515 0
M  V30 5737 C 521.221 0.920283 -2.146 0
M  V30 5738 C 522.202 1.32406 -1.06783 0
M  V30 5739 O 523.387 1.39866 -1.34726 0
M  V30 5740 C 520.517 2.1949 -2.6915 0
M  V30 5741 C 519.471 1.93116 -3.81956 0
M  V30 5742 C 518.797 3.27037 -4.23026 0
M  V30 5743 C 520.097 1.25225 -5.07066 0
M  V30 5744 H 521.791 0.444801 -2.96077 0
M  V30 5745 H 519.337 0.212508 -1.42423 0
M  V30 5746 H 521.29 2.87894 -3.07725 0
M  V30 5747 H 520.014 2.69244 -1.84865 0
M  V30 5748 H 518.673 1.27123 -3.43854 0
M  V30 5749 H 518.321 3.74595 -3.3569 0
M  V30 5750 H 518.021 3.10189 -4.99056 0
M  V30 5751 H 519.545 3.96673 -4.64202 0
M  V30 5752 H 520.959 1.83666 -5.43083 0
M  V30 5753 H 519.356 1.18702 -5.88243 0
M  V30 5754 H 520.426 0.228382 -4.84362 0
M  V30 5755 N 521.769 1.56035 0.221574 0
M  V30 5756 C 523.046 1.69837 0.970301 0
M  V30 5757 C 523.426 0.599065 2.02421 0
M  V30 5758 O 522.774 -0.393929 2.25079 0
M  V30 5759 C 522.984 3.11148 1.58076 0
M  V30 5760 C 524.332 3.70555 2.07302 0
M  V30 5761 O 525.356 3.14109 1.6797 0
M  V30 5762 O 524.215 4.69562 2.79596 0
M  V30 5763 H 521.309 0.691727 0.453257 0
M  V30 5764 H 523.855 1.68353 0.213358 0
M  V30 5765 H 522.627 3.82617 0.819759 0
M  V30 5766 H 522.25 3.16749 2.40324 0
M  V30 5767 N 523.247 -0.488276 1.49845 0
M  V30 5768 C 524.472 -1.26997 1.63971 0
M  V30 5769 C 524.897 -1.85427 0.315994 0
M  V30 5770 O 524.255 -1.66475 -0.718032 0
M  V30 5771 C 524.303 -2.36689 2.72049 0
M  V30 5772 O 523.407 -3.40882 2.32107 0
M  V30 5773 H 522.748 -0.374376 0.548396 0
M  V30 5774 H 525.278 -0.583104 1.96115 0
M  V30 5775 H 525.288 -2.82262 2.94605 0
M  V30 5776 H 523.963 -1.93529 3.68129 0
M  V30 5777 H 522.54 -3.01139 2.19931 0
M  V30 5778 N 524.725 -1.39134 -0.740242 0
M  V30 5779 C 526.141 -1.20623 -1.0451 0
M  V30 5780 C 526.341 -0.0641651 -2.01398 0
M  V30 5781 O 525.397 0.585843 -2.4561 0
M  V30 5782 C 526.71 -2.53815 -1.6124 0
M  V30 5783 C 528.258 -2.60615 -1.73346 0
M  V30 5784 C 528.733 -3.94015 -2.33486 0
M  V30 5785 N 530.224 -3.95627 -2.40902 0
M  V30 5786 C 530.959 -4.95616 -2.88361 0
M  V30 5787 N 530.455 -6.06003 -3.35756 0
M  V30 5788 N 532.248 -4.82998 -2.87523 0
M  V30 5789 H 524.399 -2.12176 -0.0975576 0
M  V30 5790 H 526.662 -0.942066 -0.105904 0
M  V30 5791 H 526.368 -3.37911 -0.975144 0
M  V30 5792 H 526.242 -2.73162 -2.6012 0
M  V30 5793 H 528.629 -1.76906 -2.36195 0
M  V30 5794 H 528.71 -2.45123 -0.731336 0
M  V30 5795 H 528.354 -4.78153 -1.71267 0
M  V30 5796 H 528.284 -4.06825 -3.34366 0
M  V30 5797 H 530.775 -3.15903 -2.07398 0
M  V30 5798 H 531.088 -6.78215 -3.70464 0
M  V30 5799 H 529.433 -6.09604 -3.33778 0
M  V30 5800 H 532.624 -3.95866 -2.49816 0
M  V30 5801 H 532.797 -5.61072 -3.24196 0
M  V30 5802 N 526.204 0.969867 -1.24223 0
M  V30 5803 C 527.167 2.04564 -1.03373 0
M  V30 5804 C 528.167 1.60798 0.00819206 0
M  V30 5805 O 529.357 1.72641 -0.232567 0
M  V30 5806 C 526.489 3.36163 -0.566343 0
M  V30 5807 H 527.682 2.24494 -1.98853 0
M  V30 5808 H 525.235 1.1448 -1.06415 0
M  V30 5809 H 525.97 3.21925 0.391751 0
M  V30 5810 H 525.755 3.69273 -1.31834 0
M  V30 5811 H 527.245 4.1526 -0.441435 0
M  V30 5812 N 527.682 1.05563 1.17022 0
M  V30 5813 C 528.959 0.68165 1.83338 0
M  V30 5814 C 529.339 -0.837665 1.93769 0
M  V30 5815 O 528.687 -1.74507 1.47511 0
M  V30 5816 C 528.897 1.375 3.20772 0
M  V30 5817 C 530.245 1.51545 3.96635 0
M  V30 5818 O 531.269 1.33431 3.30264 0
M  V30 5819 O 530.128 1.812 5.15586 0
M  V30 5820 H 527.222 0.240412 0.791285 0
M  V30 5821 H 529.768 1.15545 1.24288 0
M  V30 5822 H 528.54 2.41135 3.08171 0
M  V30 5823 H 528.163 0.890798 3.87493 0
M  V30 5824 N 529.16 -1.33526 0.837174 0
M  V30 5825 C 530.406 -1.9813 0.432704 0
M  V30 5826 C 530.739 -1.66168 -1.00508 0
M  V30 5827 O 530.014 -0.94069 -1.70239 0
M  V30 5828 C 530.297 -3.54151 0.651834 0
M  V30 5829 C 530.15 -3.95806 2.13676 0
M  V30 5830 C 531.469 -4.39993 0.0968937 0
M  V30 5831 H 528.588 -0.719713 0.15869 0
M  V30 5832 H 531.23 -1.58193 1.05237 0
M  V30 5833 H 529.38 -3.88301 0.124369 0
M  V30 5834 H 531.052 -3.71921 2.72896 0
M  V30 5835 H 529.295 -3.45599 2.62191 0
M  V30 5836 H 529.966 -5.0447 2.24084 0
M  V30 5837 H 532.442 -4.12479 0.547733 0
M  V30 5838 H 531.318 -5.48186 0.279917 0
M  V30 5839 H 531.579 -4.3066 -0.9992 0
M  V30 5840 N 530.638 -0.59345 -1.46 0
M  V30 5841 C 531.868 -0.0889642 -2.06408 0
M  V30 5842 C 532.276 1.22597 -1.44106 0
M  V30 5843 O 531.619 1.75448 -0.544398 0
M  V30 5844 C 531.681 0.139902 -3.59228 0
M  V30 5845 C 531.345 -1.09107 -4.43784 0
M  V30 5846 C 532.342 -2.00577 -4.79651 0
M  V30 5847 C 530.027 -1.31593 -4.84756 0
M  V30 5848 C 532.021 -3.12873 -5.55328 0
M  V30 5849 C 529.708 -2.44192 -5.60191 0
M  V30 5850 C 530.706 -3.34661 -5.95392 0
M  V30 5851 O 530.394 -4.45302 -6.69299 0
M  V30 5852 H 530.126 -0.0594613 -0.67338 0
M  V30 5853 H 532.68 -0.817 -1.88452 0
M  V30 5854 H 530.91 0.922672 -3.75531 0
M  V30 5855 H 532.599 0.594228 -4.01527 0
M  V30 5856 H 533.365 -1.84425 -4.48567 0
M  V30 5857 H 529.244 -0.620801 -4.56801 0
M  V30 5858 H 532.788 -3.83511 -5.82722 0
M  V30 5859 H 528.685 -2.60303 -5.90688 0
M  V30 5860 H 529.453 -4.43805 -6.87735 0
M  V30 5861 N 532.116 1.54067 -0.331816 0
M  V30 5862 C 533.346 2.04833 0.269605 0
M  V30 5863 C 533.754 1.20714 1.45687 0
M  V30 5864 O 533.097 0.232539 1.82222 0
M  V30 5865 C 533.159 3.51386 0.759499 0
M  V30 5866 C 532.823 4.55971 -0.306557 0
M  V30 5867 C 533.82 5.07126 -1.14538 0
M  V30 5868 C 531.505 5.00216 -0.457116 0
M  V30 5869 C 533.499 6.01096 -2.12042 0
M  V30 5870 C 531.186 5.93999 -1.43556 0
M  V30 5871 C 532.184 6.44326 -2.26568 0
M  V30 5872 O 531.872 7.36267 -3.22749 0
M  V30 5873 H 531.604 0.673509 0.0579763 0
M  V30 5874 H 534.158 1.99748 -0.478521 0
M  V30 5875 H 532.388 3.53896 1.55867 0
M  V30 5876 H 534.077 3.85184 1.28017 0
M  V30 5877 H 534.843 4.73716 -1.04009 0
M  V30 5878 H 530.722 4.60652 0.179142 0
M  V30 5879 H 534.266 6.40302 -2.76873 0
M  V30 5880 H 530.163 6.26825 -1.54146 0
M  V30 5881 H 530.931 7.54165 -3.18083 0
M  V30 5882 N 533.594 0.0601682 1.57485 0
M  V30 5883 C 534.871 -0.651956 1.84415 0
M  V30 5884 C 535.251 -1.88498 0.950361 0
M  V30 5885 O 534.599 -2.28496 0.0136719 0
M  V30 5886 C 534.809 -1.00069 3.34346 0
M  V30 5887 C 536.157 -1.37915 4.01578 0
M  V30 5888 O 537.181 -1.09277 3.39024 0
M  V30 5889 O 536.04 -1.91399 5.11887 0
M  V30 5890 H 533.134 -0.322668 0.761455 0
M  V30 5891 H 535.68 0.0902159 1.6946 0
M  V30 5892 H 534.452 -0.124463 3.91102 0
M  V30 5893 H 534.075 -1.80001 3.54521 0
M  V30 5894 N 535.072 -1.5615 -0.213296 0
M  V30 5895 C 536.035 -1.92249 -1.24792 0
M  V30 5896 C 537.035 -0.801828 -1.39382 0
M  V30 5897 O 538.225 -1.06948 -1.37506 0
M  V30 5898 C 535.357 -2.18056 -2.62039 0
M  V30 5899 H 536.55 -2.84793 -0.939845 0
M  V30 5900 H 534.103 -1.49559 -0.454062 0
M  V30 5901 H 534.838 -1.2809 -2.97932 0
M  V30 5902 H 534.623 -2.99703 -2.52825 0
M  V30 5903 H 536.113 -2.47051 -3.36683 0
M  V30 5904 N 536.55 0.480323 -1.50102 0
M  V30 5905 C 537.498 1.60024 -1.68805 0
M  V30 5906 C 538.492 1.60089 -0.553888 0
M  V30 5907 O 539.698 1.64349 -0.734127 0
M  V30 5908 H 536.073 0.530841 -0.532646 0
M  V30 5909 H 538.044 1.41408 -2.62767 0
M  V30 5910 C 536.793 2.98029 -1.79092 0
M  V30 5911 H 536.116 2.98694 -2.65748 0
M  V30 5912 H 537.556 3.75871 -1.96206 0
M  V30 5913 C 536.015 3.32538 -0.540388 0
M  V30 5914 O 536.545 4.00386 0.324637 0
M  V30 5915 N 534.751 2.87873 -0.397154 0
M  V30 5916 H 534.298 2.32834 -1.1021 0
M  V30 5917 H 534.256 3.11328 0.438425 0
M  V30 5918 N 538.028 1.39524 0.732853 0
M  V30 5919 C 539.276 1.36594 1.48951 0
M  V30 5920 C 539.597 -0.0367507 1.94965 0
M  V30 5921 O 538.867 -0.988391 1.69138 0
M  V30 5922 H 537.447 0.502673 0.552566 0
M  V30 5923 H 540.109 1.74411 0.869869 0
M  V30 5924 H 539.205 2.03 2.3706 0
M  V30 5925 N 539.506 -0.963266 1.24736 0
M  V30 5926 C 540.454 -2.07985 1.04139 0
M  V30 5927 C 541.448 -1.69381 -0.0250556 0
M  V30 5928 O 542.654 -1.79531 0.129863 0
M  V30 5929 H 539.029 -0.680627 0.319768 0
M  V30 5930 H 541 -2.22517 1.98818 0
M  V30 5931 C 539.749 -3.4123 0.667615 0
M  V30 5932 H 539.072 -3.71397 1.48 0
M  V30 5933 H 540.512 -4.20244 0.563136 0
M  V30 5934 C 538.971 -3.3104 -0.625647 0
M  V30 5935 O 539.501 -3.65334 -1.67016 0
M  V30 5936 N 537.707 -2.84168 -0.608033 0
M  V30 5937 H 537.254 -2.56458 0.242323 0
M  V30 5938 H 537.212 -2.77732 -1.47352 0
M  V30 5939 N 540.985 -1.06182 -1.16461 0
M  V30 5940 C 542.231 -0.779015 -1.87241 0
M  V30 5941 C 542.564 0.692715 -1.81425 0
M  V30 5942 O 541.839 1.5074 -1.22913 0
M  V30 5943 C 542.122 -1.2728 -3.36856 0
M  V30 5944 C 541.975 -2.80821 -3.51368 0
M  V30 5945 C 543.294 -0.879799 -4.31216 0
M  V30 5946 H 540.413 -0.284464 -0.679889 0
M  V30 5947 H 543.055 -1.31755 -1.36896 0
M  V30 5948 H 541.205 -0.814673 -3.79862 0
M  V30 5949 H 542.877 -3.34833 -3.17308 0
M  V30 5950 H 541.12 -3.19606 -2.93316 0
M  V30 5951 H 541.791 -3.10435 -4.56436 0
M  V30 5952 H 544.267 -1.27436 -3.96105 0
M  V30 5953 H 543.143 -1.25278 -5.34412 0
M  V30 5954 H 543.404 0.215372 -4.41575 0
M  V30 5955 N 542.463 1.3308 -0.844243 0
M  V30 5956 C 543.709 1.97898 -0.443206 0
M  V30 5957 C 544.042 1.66699 0.99625 0
M  V30 5958 O 543.317 0.949704 1.69738 0
M  V30 5959 C 543.6 3.53801 -0.670606 0
M  V30 5960 C 543.453 3.94667 -2.15772 0
M  V30 5961 C 544.772 4.39936 -0.120226 0
M  V30 5962 H 541.891 0.718861 -0.162504 0
M  V30 5963 H 544.533 1.57633 -1.06075 0
M  V30 5964 H 542.683 3.88229 -0.14496 0
M  V30 5965 H 544.355 3.70469 -2.74865 0
M  V30 5966 H 542.598 3.44203 -2.6402 0
M  V30 5967 H 543.269 5.03275 -2.26757 0
M  V30 5968 H 545.745 4.12183 -0.5696 0
M  V30 5969 H 544.621 5.4803 -0.308984 0
M  V30 5970 H 544.882 4.31184 0.976347 0
M  V30 5971 N 543.941 0.601185 1.45683 0
M  V30 5972 C 545.187 0.0940202 2.02582 0
M  V30 5973 C 545.52 -1.26972 1.46941 0
M  V30 5974 O 544.795 -1.83613 0.641612 0
M  V30 5975 C 545.078 0.0481715 3.60068 0
M  V30 5976 C 544.931 1.44212 4.26055 0
M  V30 5977 C 546.25 -0.642975 4.35378 0
M  V30 5978 H 543.369 0.0356404 0.736138 0
M  V30 5979 H 546.011 0.771929 1.73612 0
M  V30 5980 H 544.161 -0.529128 3.8488 0
M  V30 5981 H 545.833 2.06601 4.12449 0
M  V30 5982 H 544.076 2.00465 3.84703 0
M  V30 5983 H 544.747 1.36234 5.34925 0
M  V30 5984 H 547.223 -0.152351 4.15821 0
M  V30 5985 H 546.099 -0.644141 5.45107 0
M  V30 5986 H 546.36 -1.70785 4.0778 0
M  V30 5987 N 545.419 -1.53889 0.339982 0
M  V30 5988 C 546.696 -1.93084 -0.312719 0
M  V30 5989 C 547.076 -1.2712 -1.68534 0
M  V30 5990 O 546.424 -0.420835 -2.24591 0
M  V30 5991 C 546.634 -3.4683 -0.388558 0
M  V30 5992 C 547.982 -4.19732 -0.641088 0
M  V30 5993 O 549.006 -3.53075 -0.470818 0
M  V30 5994 O 547.865 -5.3781 -0.970685 0
M  V30 5995 H 544.959 -0.806784 -0.18174 0
M  V30 5996 H 547.505 -1.65137 0.390898 0
M  V30 5997 H 546.277 -3.87055 0.574821 0
M  V30 5998 H 545.9 -3.80933 -1.1391 0
M  V30 5999 N 546.897 -0.0685191 -1.57451 0
M  V30 6000 C 548.308 0.464634 -1.80826 0
M  V30 6001 C 548.659 1.69847 -0.982169 0
M  V30 6002 O 547.784 2.15439 -0.203734 0
M  V30 6003 C 548.379 0.849721 -3.27971 0
M  V30 6004 C 546.938 1.32776 -3.52204 0
M  V30 6005 C 546.085 0.311332 -2.75547 0
M  V30 6006 H 549.036 -0.294248 -1.55948 0
M  V30 6007 H 549.057 1.71138 -3.39841 0
M  V30 6008 H 548.569 -0.0484736 -3.8807 0
M  V30 6009 H 546.67 2.24456 -2.97406 0
M  V30 6010 H 546.783 1.30794 -4.60901 0
M  V30 6011 H 545.147 0.787915 -2.42206 0
M  V30 6012 H 545.93 -0.579078 -3.38381 0
M  V30 6013 N 548.375 1.56261 0.205012 0
M  V30 6014 C 549.323 1.94631 1.27364 0
M  V30 6015 C 550.317 0.830434 1.47649 0
M  V30 6016 O 551.523 1.01538 1.48627 0
M  V30 6017 H 547.898 0.618755 0.427371 0
M  V30 6018 H 549.869 2.83768 0.922941 0
M  V30 6019 C 548.618 2.29358 2.61324 0
M  V30 6020 H 547.941 3.14744 2.46528 0
M  V30 6021 H 549.381 2.60076 3.34868 0
M  V30 6022 C 547.84 1.12461 3.17575 0
M  V30 6023 O 548.37 0.394407 3.99759 0
M  V30 6024 N 546.576 0.904036 2.7618 0
M  V30 6025 H 546.123 1.49956 2.09454 0
M  V30 6026 H 546.081 0.123662 3.14157 0
M  V30 6027 N 549.853 -0.472356 1.50355 0
M  V30 6028 C 550.816 -1.5529 1.68576 0
M  V30 6029 C 551.816 -1.50863 0.556511 0
M  V30 6030 O 553.006 -1.53505 0.823516 0
M  V30 6031 C 550.138 -2.94921 1.70981 0
M  V30 6032 H 551.331 -1.40451 2.64978 0
M  V30 6033 H 548.884 -0.698645 1.39816 0
M  V30 6034 H 549.619 -3.15204 0.762675 0
M  V30 6035 H 549.404 -2.99541 2.53017 0
M  V30 6036 H 550.894 -3.73372 1.87037 0
M  V30 6037 N 551.331 -1.39911 -0.725443 0
M  V30 6038 C 552.742 -1.33599 -1.30415 0
M  V30 6039 C 553.093 -0.00481792 -1.96199 0
M  V30 6040 O 552.218 0.897275 -1.96921 0
M  V30 6041 C 552.813 -2.41965 -2.37146 0
M  V30 6042 C 551.372 -2.39144 -2.90667 0
M  V30 6043 C 550.519 -2.23355 -1.64341 0
M  V30 6044 H 553.47 -1.4986 -0.522267 0
M  V30 6045 H 553.491 -2.09304 -3.17761 0
M  V30 6046 H 553.003 -3.38837 -1.89238 0
M  V30 6047 H 551.104 -1.4594 -3.4283 0
M  V30 6048 H 551.217 -3.34362 -3.43131 0
M  V30 6049 H 549.581 -1.70696 -1.89037 0
M  V30 6050 H 550.364 -3.2221 -1.18471 0
M  V30 6051 N 552.809 0.956637 -1.25245 0
M  V30 6052 C 554.039 1.7332 -1.12445 0
M  V30 6053 C 554.447 1.86392 0.324732 0
M  V30 6054 O 553.79 1.35967 1.23526 0
M  V30 6055 C 553.852 3.16603 -1.70303 0
M  V30 6056 C 553.516 3.26966 -3.19284 0
M  V30 6057 C 554.513 3.11434 -4.16299 0
M  V30 6058 C 552.198 3.50851 -3.59456 0
M  V30 6059 C 554.192 3.1963 -5.51467 0
M  V30 6060 C 551.879 3.58684 -4.94761 0
M  V30 6061 C 552.877 3.43087 -5.90576 0
M  V30 6062 O 552.565 3.50598 -7.2342 0
M  V30 6063 H 552.297 0.549981 -0.393061 0
M  V30 6064 H 554.851 1.20892 -1.66055 0
M  V30 6065 H 553.081 3.70385 -1.11138 0
M  V30 6066 H 554.77 3.76109 -1.52632 0
M  V30 6067 H 555.536 2.92853 -3.86604 0
M  V30 6068 H 551.415 3.62053 -2.85375 0
M  V30 6069 H 554.959 3.07373 -6.26233 0
M  V30 6070 H 550.856 3.76782 -5.24124 0
M  V30 6071 H 551.624 3.67242 -7.31489 0
M  V30 6072 N 554.287 1.06798 1.15896 0
M  V30 6073 C 555.25 0.687328 2.18651 0
M  V30 6074 C 556.25 -0.269559 1.58524 0
M  V30 6075 O 557.44 -0.0512627 1.74125 0
M  V30 6076 C 554.572 0.0121642 3.40898 0
M  V30 6077 H 555.765 1.59701 2.53842 0
M  V30 6078 H 553.318 0.863828 1.3026 0
M  V30 6079 H 554.053 -0.910025 3.1127 0
M  V30 6080 H 553.838 0.700309 3.85795 0
M  V30 6081 H 555.328 -0.239703 4.16911 0
M  V30 6082 N 555.766 -1.3263 0.851289 0
M  V30 6083 C 556.713 -2.28952 0.291469 0
M  V30 6084 C 557.683 -1.54897 -0.599676 0
M  V30 6085 O 558.868 -1.83137 -0.535305 0
M  V30 6086 C 556.008 -3.41206 -0.516992 0
M  V30 6087 C 555.121 -4.30148 0.399566 0
M  V30 6088 C 554.256 -5.29527 -0.4212 0
M  V30 6089 C 553.295 -6.10112 0.492969 0
M  V30 6090 N 552.432 -7.01499 -0.290414 0
M  V30 6091 H 557.272 -2.76228 1.11813 0
M  V30 6092 H 554.809 -1.35907 0.562826 0
M  V30 6093 H 556.767 -4.05005 -1.00132 0
M  V30 6094 H 555.397 -2.9509 -1.30851 0
M  V30 6095 H 554.449 -3.66959 1.00227 0
M  V30 6096 H 555.761 -4.8649 1.1013 0
M  V30 6097 H 554.915 -5.98914 -0.968832 0
M  V30 6098 H 553.654 -4.73794 -1.15632 0
M  V30 6099 H 552.659 -5.39632 1.05251 0
M  V30 6100 H 553.884 -6.6793 1.22664 0
M  V30 6101 H 551.83 -6.48199 -1.00868 0
M  V30 6102 H 551.747 -7.55178 0.352354 0
M  V30 6103 H 553.015 -7.75176 -0.819882 0
M  V30 6104 N 557.244 -0.608902 -1.45362 0
M  V30 6105 C 558.49 -0.104762 -2.02529 0
M  V30 6106 C 558.823 1.26191 -1.47613 0
M  V30 6107 O 558.098 1.8327 -0.65134 0
M  V30 6108 C 558.381 -0.0672661 -3.60037 0
M  V30 6109 C 558.234 -1.4647 -4.25284 0
M  V30 6110 C 559.553 0.619877 -4.35713 0
M  V30 6111 H 556.672 -0.0395438 -0.735938 0
M  V30 6112 H 559.314 -0.781126 -1.73201 0
M  V30 6113 H 557.464 0.50871 -3.85155 0
M  V30 6114 H 559.136 -2.08785 -4.11347 0
M  V30 6115 H 557.379 -2.02502 -3.83634 0
M  V30 6116 H 558.05 -1.39069 -5.34195 0
M  V30 6117 H 560.526 0.130297 -4.15896 0
M  V30 6118 H 559.402 0.615224 -5.45441 0
M  V30 6119 H 559.663 1.68621 -4.0868 0
M  V30 6120 N 558.722 1.53707 -0.348139 0
M  V30 6121 C 559.632 2.28881 0.514857 0
M  V30 6122 C 560.648 1.34168 1.10793 0
M  V30 6123 O 561.824 1.6721 1.12262 0
M  V30 6124 C 558.889 3.05042 1.64774 0
M  V30 6125 C 557.95 4.15389 1.08398 0
M  V30 6126 C 557.183 4.87909 2.16287 0
M  V30 6127 O 557.406 4.60137 3.3709 0
M  V30 6128 O 556.34 5.74254 1.80323 0
M  V30 6129 H 560.166 3.03547 -0.0963699 0
M  V30 6130 H 557.751 1.48972 -0.113043 0
M  V30 6131 H 559.633 3.52656 2.30677 0
M  V30 6132 H 558.308 2.33228 2.24469 0
M  V30 6133 H 557.215 3.72068 0.389341 0
M  V30 6134 H 558.548 4.89318 0.531829 0
M  V30 6135 N 560.2 0.0768682 1.57412 0
M  V30 6136 C 561.147 -0.888577 2.13009 0
M  V30 6137 C 562.117 -1.29198 1.0439 0
M  V30 6138 O 563.302 -1.37694 1.3208 0
M  V30 6139 C 560.442 -2.14899 2.70023 0
M  V30 6140 C 559.555 -1.79777 3.92816 0
M  V30 6141 C 558.69 -3.00467 4.38056 0
M  V30 6142 C 557.729 -2.61385 5.53484 0
M  V30 6143 N 556.866 -3.74851 5.93659 0
M  V30 6144 H 561.706 -0.407593 2.95199 0
M  V30 6145 H 559.243 -0.189534 1.45874 0
M  V30 6146 H 561.201 -2.88688 3.0119 0
M  V30 6147 H 559.831 -2.60529 1.9059 0
M  V30 6148 H 558.883 -0.960301 3.68079 0
M  V30 6149 H 560.195 -1.47027 4.76639 0
M  V30 6150 H 559.349 -3.82529 4.7091 0
M  V30 6151 H 558.088 -3.36413 3.53097 0
M  V30 6152 H 557.093 -1.77746 5.20275 0
M  V30 6153 H 558.318 -2.26603 6.40178 0
M  V30 6154 H 556.264 -4.1055 5.11649 0
M  V30 6155 H 556.181 -3.45887 6.72234 0
M  V30 6156 H 557.449 -4.57477 6.31138 0
M  V30 6157 N 561.678 -1.56367 -0.196722 0
M  V30 6158 C 562.926 -1.80172 -0.915554 0
M  V30 6159 C 563.247 -0.649649 -1.8386 0
M  V30 6160 O 562.517 0.332111 -1.93064 0
M  V30 6161 H 561.097 -0.664592 -0.341067 0
M  V30 6162 H 563.759 -1.93844 -0.202622 0
M  V30 6163 H 562.855 -2.7327 -1.50764 0
M  V30 6164 N 563.156 0.464375 -1.50603 0
M  V30 6165 C 564.103 1.56152 -1.69956 0
M  V30 6166 C 565.073 1.57046 -0.54091 0
M  V30 6167 O 566.258 1.74473 -0.772258 0
M  V30 6168 C 563.398 2.94079 -1.80586 0
M  V30 6169 C 562.511 3.02923 -3.07996 0
M  V30 6170 C 561.646 4.31806 -3.09382 0
M  V30 6171 C 560.685 4.34417 -4.31218 0
M  V30 6172 N 559.822 5.54782 -4.30304 0
M  V30 6173 H 564.662 1.38955 -2.6362 0
M  V30 6174 H 562.199 0.675482 -1.30674 0
M  V30 6175 H 564.157 3.74073 -1.8473 0
M  V30 6176 H 562.787 3.09896 -0.903556 0
M  V30 6177 H 561.839 2.1576 -3.13292 0
M  V30 6178 H 563.151 3.00712 -3.97962 0
M  V30 6179 H 562.305 5.20153 -3.12292 0
M  V30 6180 H 561.044 4.36636 -2.17257 0
M  V30 6181 H 560.049 3.44467 -4.28512 0
M  V30 6182 H 561.274 4.31273 -5.24576 0
M  V30 6183 H 559.22 5.60384 -3.41037 0
M  V30 6184 H 559.137 5.54339 -5.14047 0
M  V30 6185 H 560.405 6.45235 -4.3737 0
M  V30 6186 N 564.634 1.40294 0.718013 0
M  V30 6187 C 565.882 1.38167 1.47494 0
M  V30 6188 C 566.203 -0.01607 1.94993 0
M  V30 6189 O 565.473 -0.970396 1.70177 0
M  V30 6190 H 564.053 0.508505 0.547203 0
M  V30 6191 H 566.715 1.75324 0.851322 0
M  V30 6192 H 565.811 2.05503 2.34894 0
M  V30 6193 N 566.112 -0.949982 1.2575 0
M  V30 6194 C 567.059 -2.04738 1.06541 0
M  V30 6195 C 568.029 -1.66078 -0.0268818 0
M  V30 6196 O 569.214 -1.90348 0.131196 0
M  V30 6197 C 566.354 -3.38027 0.695127 0
M  V30 6198 C 565.467 -3.89776 1.86276 0
M  V30 6199 C 564.602 -5.11411 1.4364 0
M  V30 6200 C 563.641 -5.554 2.57287 0
M  V30 6201 N 562.778 -6.68244 2.15395 0
M  V30 6202 H 567.618 -2.20502 2.00457 0
M  V30 6203 H 565.155 -1.0805 0.998178 0
M  V30 6204 H 567.113 -4.14641 0.461375 0
M  V30 6205 H 565.743 -3.22135 -0.207046 0
M  V30 6206 H 564.795 -3.0964 2.20969 0
M  V30 6207 H 566.107 -4.18368 2.71606 0
M  V30 6208 H 565.261 -5.95457 1.16257 0
M  V30 6209 H 564 -4.84545 0.553879 0
M  V30 6210 H 563.005 -4.69916 2.85409 0
M  V30 6211 H 564.23 -5.84272 3.46125 0
M  V30 6212 H 562.176 -6.43078 1.29565 0
M  V30 6213 H 562.093 -6.96377 2.94272 0
M  V30 6214 H 563.361 -7.55687 1.91201 0
M  V30 6215 N 567.59 -1.07411 -1.15328 0
M  V30 6216 C 568.867 -0.710732 -1.82231 0
M  V30 6217 C 569.247 0.806732 -1.95077 0
M  V30 6218 O 568.595 1.72139 -1.50268 0
M  V30 6219 C 568.805 -1.42586 -3.18544 0
M  V30 6220 C 570.153 -1.57836 -3.94174 0
M  V30 6221 O 571.177 -1.38669 -3.281 0
M  V30 6222 O 570.036 -1.8938 -5.12638 0
M  V30 6223 H 567.13 -0.25297 -0.78736 0
M  V30 6224 H 569.676 -1.17508 -1.22434 0
M  V30 6225 H 568.448 -2.46008 -3.04296 0
M  V30 6226 H 568.071 -0.952332 -3.86026 0
M  V30 6227 N 569.068 1.32177 -0.85831 0
M  V30 6228 C 570.031 2.27086 -0.310588 0
M  V30 6229 C 571.031 1.51751 0.531806 0
M  V30 6230 O 572.221 1.70794 0.34279 0
M  V30 6231 C 569.353 3.36266 0.560179 0
M  V30 6232 H 570.546 2.77045 -1.1483 0
M  V30 6233 H 568.099 1.42911 -0.632942 0
M  V30 6234 H 568.834 2.9158 1.41956 0
M  V30 6235 H 568.619 3.92077 -0.0428473 0
M  V30 6236 H 570.109 4.06974 0.936056 0
M  V30 6237 N 570.547 0.616602 1.45037 0
M  V30 6238 C 571.958 0.199359 1.85633 0
M  V30 6239 C 572.309 -1.24588 1.51566 0
M  V30 6240 O 571.434 -1.94594 0.94668 0
M  V30 6241 C 572.029 0.355033 3.36935 0
M  V30 6242 C 570.588 -0.00758748 3.76399 0
M  V30 6243 C 569.735 0.675256 2.68953 0
M  V30 6244 H 572.686 0.822708 1.3571 0
M  V30 6245 H 572.707 -0.410201 3.78282 0
M  V30 6246 H 572.219 1.40699 3.61698 0
M  V30 6247 H 570.32 -1.05837 3.57252 0
M  V30 6248 H 570.433 0.392346 4.77491 0
M  V30 6249 H 568.797 0.111992 2.54454 0
M  V30 6250 H 569.58 1.72952 2.96551 0
M  V30 6251 N 572.025 -1.5352 0.356285 0
M  V30 6252 C 573.272 -2.01117 -0.236303 0
M  V30 6253 C 573.6 -1.24381 -1.49531 0
M  V30 6254 O 572.855 -0.323057 -1.93015 0
M  V30 6255 C 573.154 -3.52607 -0.583369 0
M  V30 6256 C 572.82 -4.47151 0.58023 0
M  V30 6257 C 571.482 -4.72718 0.899528 0
M  V30 6258 C 573.834 -5.03137 1.36024 0
M  V30 6259 C 571.162 -5.51523 2.00098 0
M  V30 6260 C 573.514 -5.83145 2.45204 0
M  V30 6261 C 572.178 -6.07001 2.77679 0
M  V30 6262 H 571.448 -0.735938 -0.0864695 0
M  V30 6263 H 574.095 -1.85209 0.48683 0
M  V30 6264 H 572.4 -3.66413 -1.38739 0
M  V30 6265 H 574.097 -3.86901 -1.05397 0
M  V30 6266 H 570.687 -4.27394 0.321322 0
M  V30 6267 H 574.871 -4.83339 1.12682 0
M  V30 6268 H 570.127 -5.68229 2.25668 0
M  V30 6269 H 574.301 -6.25537 3.06067 0
M  V30 6270 H 571.928 -6.67851 3.63151 0
M  V30 6271 N 573.503 -0.0852151 -1.57369 0
M  V30 6272 C 574.749 0.581666 -1.94279 0
M  V30 6273 C 575.082 1.68444 -0.966446 0
M  V30 6274 O 574.357 1.945 0.00215277 0
M  V30 6275 C 574.64 1.14609 -3.41375 0
M  V30 6276 C 574.493 0.0490414 -4.49773 0
M  V30 6277 C 575.812 2.04751 -3.8957 0
M  V30 6278 H 572.931 0.209972 -0.706456 0
M  V30 6279 H 575.573 -0.153915 -1.89376 0
M  V30 6280 H 573.723 1.77297 -3.45685 0
M  V30 6281 H 575.395 -0.584721 -4.57579 0
M  V30 6282 H 573.638 -0.618638 -4.29366 0
M  V30 6283 H 574.309 0.484601 -5.49869 0
M  V30 6284 H 576.785 1.51981 -3.87351 0
M  V30 6285 H 575.661 2.41173 -4.93079 0
M  V30 6286 H 575.922 2.96107 -3.28288 0
M  V30 6287 N 574.981 1.5647 0.188427 0
M  V30 6288 C 576.228 1.81013 0.907779 0
M  V30 6289 C 576.556 0.65953 1.82977 0
M  V30 6290 O 575.811 -0.354308 1.92466 0
M  V30 6291 C 576.11 3.11596 1.7505 0
M  V30 6292 C 575.776 4.40145 0.978922 0
M  V30 6293 C 574.438 4.75066 0.765912 0
M  V30 6294 C 576.79 5.19369 0.436498 0
M  V30 6295 C 574.118 5.867 -0.00089868 0
M  V30 6296 C 576.47 6.31805 -0.317136 0
M  V30 6297 C 575.134 6.65303 -0.541103 0
M  V30 6298 H 574.404 0.662373 0.33218 0
M  V30 6299 H 577.051 1.9071 0.173732 0
M  V30 6300 H 575.356 2.97165 2.55343 0
M  V30 6301 H 577.053 3.27793 2.30983 0
M  V30 6302 H 573.643 4.12745 1.15497 0
M  V30 6303 H 577.827 4.92799 0.588449 0
M  V30 6304 H 573.083 6.11122 -0.184329 0
M  V30 6305 H 577.257 6.92406 -0.744788 0
M  V30 6306 H 574.884 7.51646 -1.13718 0
M  V30 6307 N 576.459 -0.456382 1.50847 0
M  V30 6308 C 577.707 -1.20497 1.62249 0
M  V30 6309 C 578.028 -1.92156 0.331839 0
M  V30 6310 O 577.298 -1.84751 -0.651443 0
M  V30 6311 H 575.878 -0.447775 0.597918 0
M  V30 6312 H 578.54 -0.525099 1.87693 0
M  V30 6313 H 577.636 -1.94492 2.44089 0
M  V30 6314 N 577.937 -1.40673 -0.710563 0
M  V30 6315 C 579.348 -1.34975 -1.28991 0
M  V30 6316 C 579.699 -0.0256272 -1.96183 0
M  V30 6317 O 578.824 0.876339 -1.97862 0
M  V30 6318 C 579.419 -2.44467 -2.34567 0
M  V30 6319 C 577.978 -2.42213 -2.88114 0
M  V30 6320 C 577.125 -2.25085 -1.61963 0
M  V30 6321 H 580.076 -1.50406 -0.506343 0
M  V30 6322 H 580.097 -2.12663 -3.15523 0
M  V30 6323 H 579.609 -3.40825 -1.85634 0
M  V30 6324 H 577.71 -1.49568 -3.41263 0
M  V30 6325 H 577.823 -3.37983 -3.39565 0
M  V30 6326 H 576.187 -1.72691 -1.87216 0
M  V30 6327 H 576.97 -3.23449 -1.15047 0
M  V30 6328 N 579.415 0.9433 -1.26252 0
M  V30 6329 C 580.692 1.66639 -1.02424 0
M  V30 6330 C 581.072 2.06335 0.446006 0
M  V30 6331 O 580.42 1.78551 1.42589 0
M  V30 6332 C 580.63 2.88019 -1.97094 0
M  V30 6333 C 581.978 3.59718 -2.25584 0
M  V30 6334 O 583.002 2.9812 -1.94943 0
M  V30 6335 O 581.861 4.7066 -2.77743 0
M  V30 6336 H 578.955 0.729643 -0.389294 0
M  V30 6337 H 581.501 0.995218 -1.37454 0
M  V30 6338 H 580.273 2.5556 -2.96319 0
M  V30 6339 H 579.896 3.62863 -1.62532 0
M  V30 6340 N 580.893 1.08022 1.14757 0
M  V30 6341 C 582.123 0.827646 1.89298 0
M  V30 6342 C 582.531 -0.623506 1.78631 0
M  V30 6343 O 581.874 -1.43991 1.14071 0
M  V30 6344 C 581.936 1.16553 3.40082 0
M  V30 6345 C 581.6 2.61866 3.74533 0
M  V30 6346 C 582.597 3.60116 3.74984 0
M  V30 6347 C 580.282 2.97619 4.04633 0
M  V30 6348 C 582.276 4.92151 4.05051 0
M  V30 6349 C 579.963 4.2985 4.34364 0
M  V30 6350 C 580.961 5.26926 4.34555 0
M  V30 6351 O 580.649 6.5678 4.63568 0
M  V30 6352 H 580.381 0.298396 0.606577 0
M  V30 6353 H 582.935 1.44187 1.46285 0
M  V30 6354 H 581.165 0.494296 3.83528 0
M  V30 6355 H 582.854 0.894407 3.95923 0
M  V30 6356 H 583.62 3.33837 3.51821 0
M  V30 6357 H 579.499 2.22702 4.03639 0
M  V30 6358 H 583.043 5.67915 4.05115 0
M  V30 6359 H 578.94 4.55879 4.56995 0
M  V30 6360 H 579.708 6.62035 4.81303 0
M  V30 6361 N 582.371 -1.3172 0.865308 0
M  V30 6362 C 583.318 -2.2863 0.315736 0
M  V30 6363 C 584.288 -1.55524 -0.583213 0
M  V30 6364 O 585.473 -1.83694 -0.51585 0
M  V30 6365 C 582.613 -3.41735 -0.480773 0
M  V30 6366 C 581.726 -4.297 0.445167 0
M  V30 6367 C 580.861 -5.29944 -0.365012 0
M  V30 6368 C 579.9 -6.09554 0.557651 0
M  V30 6369 N 579.037 -7.01768 -0.215994 0
M  V30 6370 H 583.877 -2.75026 1.14736 0
M  V30 6371 H 581.414 -1.35302 0.577209 0
M  V30 6372 H 583.372 -4.06045 -0.958306 0
M  V30 6373 H 582.002 -2.96461 -1.27714 0
M  V30 6374 H 581.054 -3.65875 1.04113 0
M  V30 6375 H 582.366 -4.85295 1.15284 0
M  V30 6376 H 581.52 -5.99908 -0.905255 0
M  V30 6377 H 580.259 -4.74994 -1.106 0
M  V30 6378 H 579.264 -5.38485 1.10969 0
M  V30 6379 H 580.489 -6.66591 1.29742 0
M  V30 6380 H 578.435 -6.49232 -0.939878 0
M  V30 6381 H 578.352 -7.54762 0.432431 0
M  V30 6382 H 579.62 -7.76002 -0.737618 0
M  V30 6383 N 583.85 -0.624285 -1.44708 0
M  V30 6384 C 585.096 -0.126237 -2.02407 0
M  V30 6385 C 585.428 1.24618 -1.48943 0
M  V30 6386 O 584.704 1.82569 -0.670742 0
M  V30 6387 C 584.986 -0.105449 -3.59946 0
M  V30 6388 C 584.84 -1.50972 -4.23707 0
M  V30 6389 C 586.159 0.573629 -4.36346 0
M  V30 6390 H 583.278 -0.0473472 -0.735478 0
M  V30 6391 H 585.92 -0.799452 -1.72362 0
M  V30 6392 H 584.07 0.46783 -3.85673 0
M  V30 6393 H 585.742 -2.13136 -4.0911 0
M  V30 6394 H 583.985 -2.0656 -3.81465 0
M  V30 6395 H 584.656 -1.44727 -5.32689 0
M  V30 6396 H 587.132 0.0861787 -4.16011 0
M  V30 6397 H 586.008 0.557338 -5.46063 0
M  V30 6398 H 586.269 1.64276 -4.10446 0
M  V30 6399 N 585.328 1.53329 -0.364422 0
M  V30 6400 C 586.275 2.25698 0.482607 0
M  V30 6401 C 587.245 1.26325 1.07848 0
M  V30 6402 O 588.43 1.55104 1.11119 0
M  V30 6403 C 585.57 3.04873 1.61699 0
M  V30 6404 C 584.683 4.19135 1.0464 0
M  V30 6405 C 583.818 4.85754 2.14979 0
M  V30 6406 C 582.857 5.9205 1.5538 0
M  V30 6407 N 581.994 6.52365 2.59547 0
M  V30 6408 H 586.834 2.97666 -0.141032 0
M  V30 6409 H 584.371 1.46875 -0.0813692 0
M  V30 6410 H 586.329 3.49051 2.28516 0
M  V30 6411 H 584.959 2.35162 2.2113 0
M  V30 6412 H 584.011 3.79451 0.268553 0
M  V30 6413 H 585.323 4.95525 0.570653 0
M  V30 6414 H 584.477 5.3311 2.89619 0
M  V30 6415 H 583.216 4.08834 2.65906 0
M  V30 6416 H 582.221 5.44058 0.792549 0
M  V30 6417 H 583.446 6.7089 1.0528 0
M  V30 6418 H 581.392 5.78298 3.09689 0
M  V30 6419 H 581.309 7.2429 2.16655 0
M  V30 6420 H 582.577 7.0437 3.33892 0
M  V30 6421 N 586.806 0.0935595 1.57322 0
M  V30 6422 C 588.217 -0.435807 1.81542 0
M  V30 6423 C 588.568 -1.68263 1.00907 0
M  V30 6424 O 587.693 -2.15087 0.237983 0
M  V30 6425 C 588.288 -0.797436 3.29282 0
M  V30 6426 C 586.847 -1.27155 3.54272 0
M  V30 6427 C 585.994 -0.267455 2.76007 0
M  V30 6428 H 588.945 0.31902 1.5546 0
M  V30 6429 H 588.966 -1.6571 3.42521 0
M  V30 6430 H 588.478 0.110206 3.87943 0
M  V30 6431 H 586.579 -2.19696 3.00939 0
M  V30 6432 H 586.692 -1.23445 4.62923 0
M  V30 6433 H 585.056 -0.749282 2.43429 0
M  V30 6434 H 585.839 0.632839 3.37417 0
M  V30 6435 N 588.284 -1.56567 -0.180126 0
M  V30 6436 C 589.247 -1.94852 -1.20686 0
M  V30 6437 C 590.247 -0.831212 -1.3765 0
M  V30 6438 O 591.437 -1.09841 -1.35206 0
M  V30 6439 C 588.569 -2.23565 -2.57355 0
M  V30 6440 H 589.762 -2.86722 -0.879225 0
M  V30 6441 H 587.315 -1.50489 -0.422237 0
M  V30 6442 H 588.05 -1.34381 -2.95148 0
M  V30 6443 H 587.835 -3.04999 -2.46411 0
M  V30 6444 H 589.325 -2.54137 -3.31367 0
M  V30 6445 N 589.762 0.448376 -1.51087 0
M  V30 6446 C 590.992 1.21965 -1.66757 0
M  V30 6447 C 591.4 1.85748 -0.359753 0
M  V30 6448 O 590.743 1.71022 0.670604 0
M  V30 6449 C 590.805 2.35284 -2.71812 0
M  V30 6450 C 590.469 1.91957 -4.1473 0
M  V30 6451 C 591.466 1.42921 -4.9987 0
M  V30 6452 C 589.151 1.99985 -4.60772 0
M  V30 6453 C 591.145 1.02485 -6.29107 0
M  V30 6454 C 588.832 1.5916 -5.90009 0
M  V30 6455 C 589.83 1.10491 -6.74004 0
M  V30 6456 O 589.518 0.702413 -8.00825 0
M  V30 6457 H 589.25 0.374125 -0.563034 0
M  V30 6458 H 591.804 0.538927 -1.98204 0
M  V30 6459 H 590.034 3.06599 -2.35657 0
M  V30 6460 H 591.723 2.97184 -2.76472 0
M  V30 6461 H 592.489 1.36123 -4.65506 0
M  V30 6462 H 588.368 2.36814 -3.95525 0
M  V30 6463 H 591.912 0.644271 -6.94619 0
M  V30 6464 H 587.809 1.65626 -6.2389 0
M  V30 6465 H 588.577 0.829248 -8.14288 0
M  V30 6466 N 591.24 1.41047 0.703093 0
M  V30 6467 C 592.486 1.41209 1.46396 0
M  V30 6468 C 592.841 0.0180188 1.92392 0
M  V30 6469 O 592.134 -0.954739 1.66118 0
M  V30 6470 C 592.328 2.34686 2.6955 0
M  V30 6471 C 592.157 3.83044 2.35601 0
M  V30 6472 C 590.927 4.51777 2.26331 0
M  V30 6473 C 593.125 4.74215 1.9906 0
M  V30 6474 N 591.107 5.85302 1.85188 0
M  V30 6475 C 592.478 5.96631 1.68616 0
M  V30 6476 C 594.533 4.61932 1.85805 0
M  V30 6477 C 593.236 7.08134 1.26249 0
M  V30 6478 C 595.262 5.73389 1.44842 0
M  V30 6479 C 594.624 6.94899 1.15304 0
M  V30 6480 H 590.723 0.571951 0.533288 0
M  V30 6481 H 593.307 1.76859 0.814179 0
M  V30 6482 H 591.478 2.01143 3.32259 0
M  V30 6483 H 593.21 2.25618 3.35974 0
M  V30 6484 H 589.965 4.05618 2.44482 0
M  V30 6485 H 590.389 6.56049 1.67119 0
M  V30 6486 H 595.031 3.68494 2.07298 0
M  V30 6487 H 592.749 8.01445 1.035 0
M  V30 6488 H 596.335 5.65886 1.35146 0
M  V30 6489 H 595.215 7.79679 0.840854 0
M  V30 6490 N 592.718 -0.936591 1.26751 0
M  V30 6491 C 593.681 -2.01752 1.08761 0
M  V30 6492 C 594.681 -1.60763 0.0344435 0
M  V30 6493 O 595.871 -1.71963 0.278258 0
M  V30 6494 C 593.003 -3.34543 0.655271 0
M  V30 6495 H 594.196 -2.19143 2.04735 0
M  V30 6496 H 591.749 -1.11618 1.09413 0
M  V30 6497 H 592.484 -3.22851 -0.30626 0
M  V30 6498 H 592.269 -3.65647 1.41578 0
M  V30 6499 H 593.759 -4.13944 0.551378 0
M  V30 6500 N 594.196 -1.08629 -1.14182 0
M  V30 6501 C 595.445 -0.812271 -1.84621 0
M  V30 6502 C 595.758 0.664313 -1.83973 0
M  V30 6503 O 596.964 1.05357 -2.50224 0
M  V30 6504 C 595.42 -1.4031 -3.31423 0
M  V30 6505 C 595.028 -2.91164 -3.40481 0
M  V30 6506 C 596.772 -1.20767 -4.06959 0
M  V30 6507 C 594.679 -3.43373 -4.81507 0
M  V30 6508 H 593.609 -0.30019 -0.691666 0
M  V30 6509 H 596.26 -1.30798 -1.28701 0
M  V30 6510 H 594.642 -0.835096 -3.87094 0
M  V30 6511 H 595.816 -3.5412 -2.94848 0
M  V30 6512 H 594.131 -3.09646 -2.78403 0
M  V30 6513 H 596.728 -1.57237 -5.11058 0
M  V30 6514 H 597.071 -0.147664 -4.16038 0
M  V30 6515 H 597.604 -1.74274 -3.57594 0
M  V30 6516 H 594.343 -4.48958 -4.77616 0
M  V30 6517 H 593.863 -2.85176 -5.27669 0
M  V30 6518 H 595.542 -3.40095 -5.50404 0
M  V30 6519 N 595.674 1.31259 -0.872281 0
M  V30 6520 C 596.923 1.95893 -0.480493 0
M  V30 6521 C 597.236 1.697 0.972688 0
M  V30 6522 O 598.442 2.28214 1.47073 0
M  V30 6523 C 596.898 3.50705 -0.808342 0
M  V30 6524 C 596.506 3.85735 -2.27844 0
M  V30 6525 C 598.25 4.21719 -0.485136 0
M  V30 6526 C 596.157 5.33668 -2.54858 0
M  V30 6527 H 595.087 0.733182 -0.175955 0
M  V30 6528 H 597.738 1.49396 -1.0655 0
M  V30 6529 H 596.12 3.95706 -0.152558 0
M  V30 6530 H 597.294 3.51686 -2.97748 0
M  V30 6531 H 595.609 3.27792 -2.56791 0
M  V30 6532 H 598.206 5.30559 -0.664166 0
M  V30 6533 H 598.549 4.12316 0.574592 0
M  V30 6534 H 599.082 3.82359 -1.09756 0
M  V30 6535 H 595.821 5.48109 -3.59523 0
M  V30 6536 H 595.341 5.69061 -1.8955 0
M  V30 6537 H 597.02 6.00958 -2.39706 0
M  V30 6538 N 597.152 0.631951 1.44375 0
M  V30 6539 C 598.429 0.067646 1.95483 0
M  V30 6540 C 598.809 -1.40683 1.57389 0
M  V30 6541 O 598.157 -2.12167 0.848375 0
M  V30 6542 C 598.367 0.291392 3.47781 0
M  V30 6543 C 599.715 0.185028 4.24197 0
M  V30 6544 O 600.739 0.222803 3.55503 0
M  V30 6545 O 599.598 0.0906642 5.46425 0
M  V30 6546 H 596.692 -0.0218379 0.826712 0
M  V30 6547 H 599.238 0.703711 1.54421 0
M  V30 6548 H 598.01 1.31449 3.68561 0
M  V30 6549 H 597.633 -0.378772 3.95792 0
M  V30 6550 N 598.631 -1.53133 0.372548 0
M  V30 6551 C 599.581 -2.22733 -0.487218 0
M  V30 6552 C 600.565 -1.22506 -1.04312 0
M  V30 6553 O 601.757 -1.47923 -0.972005 0
M  V30 6554 C 598.886 -3.02524 -1.62278 0
M  V30 6555 C 597.972 -4.10133 -1.07943 0
M  V30 6556 N 598.363 -5.05133 -0.259629 0
M  V30 6557 C 596.661 -4.24964 -1.35356 0
M  V30 6558 C 597.362 -5.81687 0.0386656 0
M  V30 6559 N 596.338 -5.40699 -0.560827 0
M  V30 6560 H 600.14 -2.93538 0.145853 0
M  V30 6561 H 597.654 -1.61389 0.180938 0
M  V30 6562 H 599.651 -3.50909 -2.25096 0
M  V30 6563 H 598.311 -2.33252 -2.25884 0
M  V30 6564 H 599.322 -5.178 0.101746 0
M  V30 6565 H 595.999 -3.66919 -1.9919 0
M  V30 6566 H 597.389 -6.68224 0.701841 0
M  V30 6567 N 600.109 -0.101901 -1.5727 0
M  V30 6568 C 601.056 0.854577 -2.14396 0
M  V30 6569 C 602.026 1.27521 -1.06432 0
M  V30 6570 O 603.211 1.35575 -1.34253 0
M  V30 6571 C 600.351 2.10576 -2.73408 0
M  V30 6572 C 599.464 1.73504 -3.95626 0
M  V30 6573 C 598.599 2.9346 -4.42781 0
M  V30 6574 C 597.638 2.52547 -5.57572 0
M  V30 6575 N 596.775 3.65359 -5.99547 0
M  V30 6576 H 601.615 0.360578 -2.9581 0
M  V30 6577 H 599.152 0.166303 -1.46157 0
M  V30 6578 H 601.11 2.83859 -3.05745 0
M  V30 6579 H 599.74 2.57463 -1.94711 0
M  V30 6580 H 598.792 0.901622 -3.6956 0
M  V30 6581 H 600.104 1.39426 -4.78917 0
M  V30 6582 H 599.258 3.74988 -4.76937 0
M  V30 6583 H 597.997 3.30753 -3.58404 0
M  V30 6584 H 597.002 1.69446 -5.23037 0
M  V30 6585 H 598.227 2.1639 -6.43702 0
M  V30 6586 H 596.173 4.02358 -5.18116 0
M  V30 6587 H 596.09 3.35148 -6.77652 0
M  V30 6588 H 597.358 4.47378 -6.38336 0
M  V30 6589 O 601.626 1.61455 0.0379495 0
M  V30 6590 H 602.317 1.82122 0.659643 0
M  V30 END ATOM
M  V30 BEGIN BOND
M  V30 END BOND
M  V30 END CTAB
M  END
$$$$
