drugbank_target|P40933 Interleukin-15 (DB01327)
 OpenBabel12092120333D

  0  0  0     0  0            999 V3000
M  V30 BEGIN CTAB
M  V30 COUNTS 2534 2554 0 0 0
M  V30 BEGIN ATOM
M  V30 1 H -0.908 1.98254 -0.117106 0
M  V30 2 N 0 1.576 0 0
M  V30 3 C 0.933 2.03868 1.02534 0
M  V30 4 C 1.911 0.928543 1.3348 0
M  V30 5 O 3.095 1.19667 1.45644 0
M  V30 6 C 0.222 2.43627 2.35294 0
M  V30 7 C -0.732 3.65373 2.2001 0
M  V30 8 S 0.101 5.13292 1.52614 0
M  V30 9 C 1.257 5.56322 2.86805 0
M  V30 10 H 1.49 2.90518 0.631377 0
M  V30 11 H -0.977 1.52953 0.210867 0
M  V30 12 H 0.981 2.67203 3.11629 0
M  V30 13 H -0.358 1.57376 2.7183 0
M  V30 14 H -1.165 3.90944 3.18086 0
M  V30 15 H -1.563 3.418 1.51819 0
M  V30 16 H 0.729 5.58782 3.83104 0
M  V30 17 H 1.672 6.56266 2.65933 0
M  V30 18 H 2.08 4.83886 2.90714 0
M  V30 19 N 1.4781 -0.272755 1.55222 0
M  V30 20 C 2.8941 -0.619959 1.47067 0
M  V30 21 C 3.0941 -1.895 0.684978 0
M  V30 22 O 2.1501 -2.51675 0.203931 0
M  V30 23 C 3.4631 -0.746693 2.91282 0
M  V30 24 C 5.0111 -0.840731 3.01497 0
M  V30 25 C 5.4861 -0.99924 4.46967 0
M  V30 26 N 6.9771 -1.06476 4.50796 0
M  V30 27 C 7.7121 -1.20621 5.6057 0
M  V30 28 N 7.2081 -1.31483 6.80209 0
M  V30 29 N 9.0011 -1.23733 5.48312 0
M  V30 30 H 1.1521 0.564606 2.04758 0
M  V30 31 H 3.4151 0.191177 0.928523 0
M  V30 32 H 3.1211 0.119753 3.51496 0
M  V30 33 H 2.9951 -1.6269 3.40311 0
M  V30 34 H 5.3821 -1.69764 2.41379 0
M  V30 35 H 5.4631 0.0640874 2.5572 0
M  V30 36 H 5.1071 -0.146984 5.07687 0
M  V30 37 H 5.0371 -1.91871 4.90401 0
M  V30 38 H 7.5281 -0.993196 3.64615 0
M  V30 39 H 7.8411 -1.42111 7.59621 0
M  V30 40 H 6.1861 -1.28487 6.8302 0
M  V30 41 H 9.3771 -1.14877 4.53785 0
M  V30 42 H 9.5501 -1.34412 6.33906 0
M  V30 43 N 2.9562 -1.48159 -0.537278 0
M  V30 44 C 4.2052 -1.5506 -1.28993 0
M  V30 45 C 4.5182 -0.226211 -1.94288 0
M  V30 46 O 5.7242 -0.173395 -2.70946 0
M  V30 47 C 4.1802 -2.73429 -2.34018 0
M  V30 48 C 3.7882 -4.1248 -1.74825 0
M  V30 49 C 5.5322 -2.89638 -3.10339 0
M  V30 50 C 3.4392 -5.22121 -2.77747 0
M  V30 51 H 2.3692 -0.577231 -0.485098 0
M  V30 52 H 5.0202 -1.74478 -0.568317 0
M  V30 53 H 3.4022 -2.47431 -3.09182 0
M  V30 54 H 4.5762 -4.48466 -1.05899 0
M  V30 55 H 2.8912 -4.01327 -1.11022 0
M  V30 56 H 5.4882 -3.68718 -3.87235 0
M  V30 57 H 5.8312 -1.9882 -3.65754 0
M  V30 58 H 6.3642 -3.15502 -2.42288 0
M  V30 59 H 3.1032 -6.1488 -2.27161 0
M  V30 60 H 2.6232 -4.90631 -3.45024 0
M  V30 61 H 4.3022 -5.49924 -3.4087 0
M  V30 62 N 4.4343 0.785586 -1.36625 0
M  V30 63 C 5.6593 1.57963 -1.34397 0
M  V30 64 C 6.0843 1.87964 0.071526 0
M  V30 65 O 5.4423 1.48182 1.0446 0
M  V30 66 C 5.4903 2.87511 -2.17646 0
M  V30 67 O 4.5943 3.81281 -1.57158 0
M  V30 68 H 3.9353 0.479014 -0.459828 0
M  V30 69 H 6.4653 0.973411 -1.79961 0
M  V30 70 H 6.4753 3.36745 -2.30362 0
M  V30 71 H 5.1503 2.65002 -3.20541 0
M  V30 72 H 3.7273 3.39885 -1.53403 0
M  V30 73 N 5.9124 1.20967 1.01018 0
M  V30 74 C 6.8594 0.964281 2.09691 0
M  V30 75 C 7.8294 -0.107853 1.65749 0
M  V30 76 O 9.0144 0.0381987 1.90762 0
M  V30 77 C 6.1544 0.52943 3.41015 0
M  V30 78 C 5.2674 1.67043 3.98398 0
M  V30 79 C 4.4024 1.18525 5.17808 0
M  V30 80 C 3.4414 2.29892 5.67288 0
M  V30 81 N 2.5784 1.82546 6.77954 0
M  V30 82 H 7.4184 1.89463 2.30017 0
M  V30 83 H 4.9554 0.944289 1.1279 0
M  V30 84 H 6.9134 0.258588 4.16398 0
M  V30 85 H 5.5434 -0.363919 3.20742 0
M  V30 86 H 4.5954 2.05603 3.20049 0
M  V30 87 H 5.9074 2.50877 4.31117 0
M  V30 88 H 5.0614 0.870762 6.00419 0
M  V30 89 H 3.8004 0.316887 4.86669 0
M  V30 90 H 2.8054 2.6215 4.83278 0
M  V30 91 H 4.0304 3.17216 6.00459 0
M  V30 92 H 1.9764 0.980454 6.48632 0
M  V30 93 H 1.8934 2.59956 7.09901 0
M  V30 94 H 3.1614 1.54115 7.64113 0
M  V30 95 N 7.3905 -1.2043 1.01659 0
M  V30 96 C 8.8015 -1.71517 0.737482 0
M  V30 97 C 9.1525 -1.81547 -0.743973 0
M  V30 98 O 8.2775 -1.47803 -1.58061 0
M  V30 99 C 8.8725 -3.11515 1.33206 0
M  V30 100 C 7.4315 -3.59912 1.10183 0
M  V30 101 C 6.5785 -2.37116 1.43776 0
M  V30 102 H 9.5295 -1.05444 1.18606 0
M  V30 103 H 9.5505 -3.73575 0.722636 0
M  V30 104 H 9.0625 -3.04182 2.41028 0
M  V30 105 H 7.1635 -3.72577 0.0412756 0
M  V30 106 H 7.2765 -4.44731 1.78188 0
M  V30 107 H 5.6405 -2.39857 0.856778 0
M  V30 108 H 6.4235 -2.32424 2.52654 0
M  V30 109 N 8.8686 -0.792821 -1.36206 0
M  V30 110 C 9.8186 -0.166598 -2.27391 0
M  V30 111 C 10.8026 0.651479 -1.47121 0
M  V30 112 O 11.9946 0.510994 -1.69463 0
M  V30 113 C 9.1236 0.695033 -3.36191 0
M  V30 114 C 8.2096 -0.132019 -4.23894 0
M  V30 115 N 8.6006 -1.18822 -4.91645 0
M  V30 116 C 6.8986 0.0885952 -4.45912 0
M  V30 117 C 7.5996 -1.69198 -5.56549 0
M  V30 118 N 6.5756 -1.00065 -5.34311 0
M  V30 119 H 10.3776 -0.974947 -2.77258 0
M  V30 120 H 7.8916 -0.632616 -1.49572 0
M  V30 121 H 9.8886 1.1596 -4.00448 0
M  V30 122 H 8.5486 1.50189 -2.87877 0
M  V30 123 H 9.5596 -1.57069 -4.93507 0
M  V30 124 H 6.2366 0.865688 -4.08426 0
M  V30 125 H 7.6266 -2.57395 -6.20643 0
M  V30 126 N 10.3467 1.47872 -0.545128 0
M  V30 127 C 11.2767 2.32661 0.197793 0
M  V30 128 C 12.2577 1.43041 0.920504 0
M  V30 129 O 13.4427 1.71912 0.90333 0
M  V30 130 C 10.5727 3.24569 1.23582 0
M  V30 131 C 9.5267 4.23333 0.630323 0
M  V30 132 C 8.8527 5.0448 1.77211 0
M  V30 133 C 10.1527 5.20704 -0.407974 0
M  V30 134 H 11.8467 2.95024 -0.510045 0
M  V30 135 H 9.3927 1.4187 -0.246731 0
M  V30 136 H 11.3457 3.8272 1.76362 0
M  V30 137 H 10.0697 2.60236 1.97344 0
M  V30 138 H 8.7287 3.6639 0.123922 0
M  V30 139 H 8.3767 4.36561 2.49847 0
M  V30 140 H 8.0767 5.71339 1.37281 0
M  V30 141 H 9.6007 5.65487 2.3034 0
M  V30 142 H 11.0147 5.7329 0.033305 0
M  V30 143 H 9.4117 5.95699 -0.725486 0
M  V30 144 H 10.4817 4.66917 -1.30828 0
M  V30 145 N 11.8248 0.280983 1.55075 0
M  V30 146 C 13.2408 -0.0729964 1.59433 0
M  V30 147 C 13.4408 -1.5411 1.29817 0
M  V30 148 O 12.4968 -2.29086 1.06187 0
M  V30 149 C 13.8098 0.306921 2.9913 0
M  V30 150 C 15.3578 0.254023 3.11968 0
M  V30 151 C 15.8328 0.608467 4.5394 0
M  V30 152 N 17.3238 0.560241 4.59799 0
M  V30 153 C 18.0588 0.80722 5.6769 0
M  V30 154 N 17.5548 1.11912 6.83701 0
M  V30 155 N 19.3478 0.735623 5.57266 0
M  V30 156 H 11.4988 1.238 1.7259 0
M  V30 157 H 13.7618 0.500547 0.805082 0
M  V30 158 H 13.4678 1.32816 3.25657 0
M  V30 159 H 13.3418 -0.349363 3.75579 0
M  V30 160 H 15.7288 -0.75794 2.852 0
M  V30 161 H 15.8098 0.944649 2.37718 0
M  V30 162 H 15.4538 1.61814 4.81434 0
M  V30 163 H 15.3838 -0.104013 5.26497 0
M  V30 164 H 17.8748 0.329288 3.76463 0
M  V30 165 H 18.1878 1.29409 7.61888 0
M  V30 166 H 16.5328 1.15695 6.85303 0
M  V30 167 H 19.7238 0.491752 4.6551 0
M  V30 168 H 19.8968 0.931482 6.4127 0
M  V30 169 N 13.3029 -1.57598 0.00835791 0
M  V30 170 C 14.5279 -1.95617 -0.689103 0
M  V30 171 C 14.9529 -0.883753 -1.66046 0
M  V30 172 O 14.3109 0.157352 -1.80616 0
M  V30 173 C 14.3589 -3.32736 -1.38994 0
M  V30 174 O 13.4629 -3.27631 -2.50463 0
M  V30 175 H 12.8039 -0.638379 -0.182668 0
M  V30 176 H 15.3339 -2.045 0.064036 0
M  V30 177 H 15.3439 -3.68494 -1.75147 0
M  V30 178 H 14.0189 -4.1034 -0.677778 0
M  V30 179 H 12.5959 -3.03561 -2.16576 0
M  V30 180 N 14.781 0.264519 -1.55364 0
M  V30 181 C 16.03 0.992812 -1.75574 0
M  V30 182 C 16.343 1.87142 -0.568979 0
M  V30 183 O 17.549 2.63513 -0.653682 0
M  V30 184 C 16.005 1.81519 -3.10771 0
M  V30 185 C 15.613 0.984839 -4.37041 0
M  V30 186 C 17.357 2.53727 -3.40327 0
M  V30 187 C 15.264 1.80209 -5.63275 0
M  V30 188 H 14.194 0.374412 -0.65447 0
M  V30 189 H 16.845 0.248138 -1.81815 0
M  V30 190 H 15.227 2.60115 -2.98591 0
M  V30 191 H 16.401 0.242455 -4.60162 0
M  V30 192 H 14.716 0.37691 -4.14691 0
M  V30 193 H 17.313 3.15292 -4.3185 0
M  V30 194 H 17.656 3.24447 -2.60845 0
M  V30 195 H 18.189 1.82156 -3.53644 0
M  V30 196 H 14.928 1.13896 -6.45529 0
M  V30 197 H 14.448 2.52022 -5.44284 0
M  V30 198 H 16.127 2.37364 -6.01887 0
M  V30 199 N 16.2591 1.48442 0.529413 0
M  V30 200 C 17.4841 1.60406 1.31471 0
M  V30 201 C 17.9091 0.264738 1.86228 0
M  V30 202 O 17.2671 -0.763668 1.64432 0
M  V30 203 C 17.3151 2.65419 2.44101 0
M  V30 204 O 16.4191 2.22618 3.47153 0
M  V30 205 H 15.7601 0.537863 0.389357 0
M  V30 206 H 18.2901 1.94432 0.636965 0
M  V30 207 H 18.3001 2.86709 2.90279 0
M  V30 208 H 16.9751 3.62652 2.03608 0
M  V30 209 H 15.5521 2.11543 3.0709 0
M  V30 210 N 17.7372 -0.778329 1.37039 0
M  V30 211 C 18.9862 -1.53189 1.3121 0
M  V30 212 C 19.2992 -1.95328 -0.103095 0
M  V30 213 O 20.5052 -2.70012 -0.283826 0
M  V30 214 C 18.9612 -2.76591 2.30272 0
M  V30 215 C 18.5692 -2.41577 3.77286 0
M  V30 216 C 20.3132 -3.5455 2.33441 0
M  V30 217 C 18.2202 -3.61441 4.68096 0
M  V30 218 H 17.1502 -0.5751 0.487622 0
M  V30 219 H 19.8012 -0.853101 1.62464 0
M  V30 220 H 18.1832 -3.46326 1.92027 0
M  V30 221 H 19.3572 -1.79668 4.2433 0
M  V30 222 H 17.6722 -1.76806 3.76999 0
M  V30 223 H 20.2692 -4.43628 2.98493 0
M  V30 224 H 20.6122 -3.93936 1.34611 0
M  V30 225 H 21.1452 -2.91805 2.7036 0
M  V30 226 H 17.8842 -3.27142 5.6803 0
M  V30 227 H 17.4042 -4.22478 4.25761 0
M  V30 228 H 19.0832 -4.28335 4.8491 0
M  V30 229 N 19.2153 -1.21501 -1.00376 0
M  V30 230 C 20.1473 -0.933174 -2.09343 0
M  V30 231 C 21.1603 0.0840896 -1.62583 0
M  V30 232 O 22.3493 -0.148563 -1.77881 0
M  V30 233 C 19.4493 -0.379869 -3.36764 0
M  V30 234 C 18.6223 -1.45176 -4.12605 0
M  V30 235 C 17.6813 -0.907476 -5.18316 0
M  V30 236 O 16.7073 -1.5912 -5.46507 0
M  V30 237 N 17.9093 0.276649 -5.7984 0
M  V30 238 H 20.6743 -1.87124 -2.34104 0
M  V30 239 H 18.2353 -1.12043 -1.16867 0
M  V30 240 H 20.2273 -0.00131488 -4.047 0
M  V30 241 H 18.7973 0.463048 -3.09151 0
M  V30 242 H 18.0173 -2.00411 -3.39454 0
M  V30 243 H 19.3053 -2.17328 -4.6005 0
M  V30 244 H 18.7033 0.849147 -5.59291 0
M  V30 245 H 17.2603 0.596702 -6.49063 0
M  V30 246 N 20.6934 1.19889 -1.02296 0
M  V30 247 C 21.9334 1.91125 -0.724602 0
M  V30 248 C 22.2974 1.77464 0.732835 0
M  V30 249 O 23.4984 2.43241 1.144 0
M  V30 250 C 21.7694 3.38187 -1.15604 0
M  V30 251 S 23.3284 4.27702 -0.980621 0
M  V30 252 H 20.1464 0.66018 -0.263976 0
M  V30 253 H 22.7484 1.44978 -1.31155 0
M  V30 254 H 21.4524 3.45653 -2.21251 0
M  V30 255 H 20.9834 3.89363 -0.562131 0
M  V30 256 H 22.9984 4.96073 0.112225 0
M  V30 257 N 22.1715 0.800033 1.35784 0
M  V30 258 C 23.4015 0.389041 2.02904 0
M  V30 259 C 23.8095 -1.0027 1.60445 0
M  V30 260 O 23.1525 -1.65633 0.794453 0
M  V30 261 C 23.2145 0.385495 3.57427 0
M  V30 262 C 22.8785 1.72662 4.23127 0
M  V30 263 C 23.8755 2.68385 4.4527 0
M  V30 264 C 21.5605 2.00883 4.60381 0
M  V30 265 C 23.5545 3.90517 5.03761 0
M  V30 266 C 21.2415 3.2328 5.18588 0
M  V30 267 C 22.2395 4.17915 5.40218 0
M  V30 268 O 21.9275 5.38153 5.97199 0
M  V30 269 H 21.6595 0.157032 0.657508 0
M  V30 270 H 24.2135 1.08311 1.74522 0
M  V30 271 H 22.4435 -0.365128 3.84972 0
M  V30 272 H 24.1325 -0.00228296 4.059 0
M  V30 273 H 24.8985 2.47872 4.16874 0
M  V30 274 H 20.7775 1.28037 4.42863 0
M  V30 275 H 24.3215 4.64395 5.2056 0
M  V30 276 H 20.2185 3.43667 5.4641 0
M  V30 277 H 20.9865 5.3936 6.15656 0
M  V30 278 N 23.6496 -1.47581 0.552962 0
M  V30 279 C 24.5796 -2.32762 -0.185451 0
M  V30 280 C 25.5606 -1.43527 -0.912905 0
M  V30 281 O 26.7456 -1.72388 -0.894201 0
M  V30 282 C 23.8756 -3.25219 -1.21859 0
M  V30 283 C 22.8296 -4.23661 -0.607864 0
M  V30 284 C 22.1556 -5.05413 -1.74533 0
M  V30 285 C 23.4556 -5.20481 0.435582 0
M  V30 286 H 25.1496 -2.94749 0.525684 0
M  V30 287 H 22.6956 -1.41738 0.254251 0
M  V30 288 H 24.6486 -3.8365 -1.7433 0
M  V30 289 H 23.3726 -2.61279 -1.95961 0
M  V30 290 H 22.0316 -3.66451 -0.104489 0
M  V30 291 H 21.6796 -4.3788 -2.47529 0
M  V30 292 H 21.3796 -5.72059 -1.34249 0
M  V30 293 H 22.9036 -5.66701 -2.27338 0
M  V30 294 H 24.3176 -5.733 -0.00290157 0
M  V30 295 H 22.7146 -5.95305 0.757067 0
M  V30 296 H 23.7846 -4.66217 1.33303 0
M  V30 297 N 25.1277 -0.289203 -1.54924 0
M  V30 298 C 26.3677 0.324536 -2.01807 0
M  V30 299 C 26.7317 1.5199 -1.17316 0
M  V30 300 O 27.9327 2.20422 -1.53843 0
M  V30 301 C 26.2037 0.683578 -3.50802 0
M  V30 302 S 27.7627 1.28185 -4.19659 0
M  V30 303 H 24.5807 0.100236 -0.703899 0
M  V30 304 H 27.1827 -0.414325 -1.91059 0
M  V30 305 H 25.8867 -0.195073 -4.09936 0
M  V30 306 H 25.4177 1.45354 -3.65562 0
M  V30 307 H 27.4327 2.57006 -4.24456 0
M  V30 308 N 26.6058 1.57591 -0.0167156 0
M  V30 309 C 27.5358 2.12496 0.967858 0
M  V30 310 C 28.5168 1.03807 1.34752 0
M  V30 311 O 29.7018 1.31577 1.42833 0
M  V30 312 C 26.8318 2.64194 2.25431 0
M  V30 313 C 25.7858 3.77559 2.01576 0
M  V30 314 C 25.1118 4.15636 3.36379 0
M  V30 315 C 26.4118 5.04151 1.36489 0
M  V30 316 H 28.1058 2.95013 0.510643 0
M  V30 317 H 25.6518 1.41915 0.244181 0
M  V30 318 H 27.6048 3.01236 2.94678 0
M  V30 319 H 26.3288 1.78821 2.73296 0
M  V30 320 H 24.9878 3.40937 1.34751 0
M  V30 321 H 24.6358 3.27263 3.81979 0
M  V30 322 H 24.3358 4.92022 3.21229 0
M  V30 323 H 25.8598 4.5525 4.06915 0
M  V30 324 H 27.2738 5.38857 1.95718 0
M  V30 325 H 25.6708 5.85453 1.31776 0
M  V30 326 H 26.7408 4.83733 0.336219 0
M  V30 327 N 28.0839 -0.256276 1.55502 0
M  V30 328 C 29.0139 -1.32102 1.92539 0
M  V30 329 C 29.9949 -1.50684 0.789194 0
M  V30 330 O 31.1799 -1.63449 1.04872 0
M  V30 331 C 28.3099 -2.67752 2.21192 0
M  V30 332 C 27.2639 -2.63878 3.36975 0
M  V30 333 C 26.5899 -4.03236 3.51147 0
M  V30 334 C 27.8899 -2.21682 4.72921 0
M  V30 335 H 29.5839 -1.01351 2.81724 0
M  V30 336 H 27.1299 -0.486105 1.35547 0
M  V30 337 H 29.0829 -3.42365 2.45691 0
M  V30 338 H 27.8069 -3.0012 1.28824 0
M  V30 339 H 26.4659 -1.91722 3.12471 0
M  V30 340 H 26.1139 -4.32854 2.56216 0
M  V30 341 H 25.8139 -4.01535 4.29003 0
M  V30 342 H 27.3379 -4.79563 3.77957 0
M  V30 343 H 28.7519 -2.86023 4.96854 0
M  V30 344 H 27.1489 -2.3111 5.53812 0
M  V30 345 H 28.2189 -1.16833 4.70615 0
M  V30 346 N 29.562 -1.4872 -0.521534 0
M  V30 347 C 30.492 -1.66771 -1.63431 0
M  V30 348 C 31.473 -0.516499 -1.62069 0
M  V30 349 O 32.658 -0.750013 -1.79132 0
M  V30 350 C 29.788 -1.71515 -3.01993 0
M  V30 351 C 28.742 -2.86222 -3.18216 0
M  V30 352 C 28.068 -2.76061 -4.57924 0
M  V30 353 C 29.368 -4.27419 -3.00184 0
M  V30 354 H 31.062 -2.59932 -1.48579 0
M  V30 355 H 28.608 -1.25089 -0.713358 0
M  V30 356 H 30.561 -1.82731 -3.7972 0
M  V30 357 H 29.285 -0.749393 -3.17886 0
M  V30 358 H 27.944 -2.74575 -2.42908 0
M  V30 359 H 27.592 -1.77437 -4.70665 0
M  V30 360 H 27.292 -3.53037 -4.69722 0
M  V30 361 H 28.816 -2.89256 -5.37739 0
M  V30 362 H 30.23 -4.39855 -3.67697 0
M  V30 363 H 28.627 -5.05458 -3.2347 0
M  V30 364 H 29.697 -4.43293 -1.96518 0
M  V30 365 N 31.0401 0.771051 -1.3745 0
M  V30 366 C 31.9881 1.90574 -1.33358 0
M  V30 367 C 32.9821 1.67936 -0.22224 0
M  V30 368 O 34.1881 1.75717 -0.390304 0
M  V30 369 H 30.5631 0.626714 -0.415612 0
M  V30 370 H 32.5341 1.91142 -2.29144 0
M  V30 371 C 31.2831 3.27845 -1.15813 0
M  V30 372 H 30.6061 3.45842 -2.00583 0
M  V30 373 H 32.0461 4.07538 -1.17 0
M  V30 374 C 30.5051 3.36625 0.136165 0
M  V30 375 O 31.0351 3.85785 1.11949 0
M  V30 376 N 29.2411 2.89997 0.187099 0
M  V30 377 H 28.7881 2.50182 -0.613753 0
M  V30 378 H 28.7461 2.96252 1.05272 0
M  V30 379 N 32.5182 1.22032 0.997298 0
M  V30 380 C 33.7432 1.06921 1.77715 0
M  V30 381 C 34.1682 -0.376226 1.84299 0
M  V30 382 O 33.5262 -1.27165 1.29223 0
M  V30 383 C 33.5742 1.67996 3.19076 0
M  V30 384 O 32.6782 0.930653 4.01762 0
M  V30 385 H 32.0192 0.375814 0.547412 0
M  V30 386 H 34.5492 1.61737 1.25309 0
M  V30 387 H 34.5592 1.72538 3.69723 0
M  V30 388 H 33.2342 2.73182 3.13599 0
M  V30 389 H 31.8112 0.960917 3.60307 0
M  V30 390 N 33.9963 -1.19345 1.0293 0
M  V30 391 C 34.9463 -2.20472 0.58104 0
M  V30 392 C 35.9303 -1.56578 -0.370442 0
M  V30 393 O 37.1223 -1.75963 -0.191344 0
M  V30 394 C 34.2513 -3.43236 -0.066306 0
M  V30 395 C 33.3373 -4.14274 0.907642 0
M  V30 396 N 33.7283 -4.61492 2.07023 0
M  V30 397 C 32.0263 -4.39966 0.731177 0
M  V30 398 C 32.7273 -5.1605 2.68454 0
M  V30 399 N 31.7033 -5.06875 1.96414 0
M  V30 400 H 35.5053 -2.54659 1.46717 0
M  V30 401 H 33.0193 -1.35423 0.896345 0
M  V30 402 H 35.0163 -4.14927 -0.405068 0
M  V30 403 H 33.6763 -3.10549 -0.948118 0
M  V30 404 H 34.6873 -4.56304 2.44963 0
M  V30 405 H 31.3643 -4.17377 -0.101507 0
M  V30 406 H 32.7543 -5.6287 3.66915 0
M  V30 407 N 35.4744 -0.807222 -1.35358 0
M  V30 408 C 36.7214 -0.387888 -1.9875 0
M  V30 409 C 37.0494 1.04509 -1.64037 0
M  V30 410 O 36.3044 1.73986 -0.895946 0
M  V30 411 C 36.6034 -0.519036 -3.53611 0
M  V30 412 C 36.2694 -1.91542 -4.08194 0
M  V30 413 C 34.9314 -2.29745 -4.22813 0
M  V30 414 C 37.2834 -2.82896 -4.37744 0
M  V30 415 C 34.6114 -3.58668 -4.643 0
M  V30 416 C 36.9634 -4.11265 -4.8067 0
M  V30 417 C 35.6274 -4.49466 -4.93494 0
M  V30 418 H 34.8974 -0.141938 -0.727279 0
M  V30 419 H 37.5444 -1.02814 -1.6156 0
M  V30 420 H 35.8494 0.204658 -3.91265 0
M  V30 421 H 37.5464 -0.175345 -4.00616 0
M  V30 422 H 34.1364 -1.60862 -3.97268 0
M  V30 423 H 38.3204 -2.54629 -4.26002 0
M  V30 424 H 33.5764 -3.88113 -4.72418 0
M  V30 425 H 37.7504 -4.82153 -5.02496 0
M  V30 426 H 35.3774 -5.49418 -5.25399 0
M  V30 427 N 36.9525 1.47285 -0.560781 0
M  V30 428 C 37.8825 2.32857 0.173105 0
M  V30 429 C 38.8635 1.44009 0.905281 0
M  V30 430 O 40.0485 1.7286 0.885046 0
M  V30 431 C 37.1785 3.25861 1.20133 0
M  V30 432 C 36.1325 4.23978 0.585388 0
M  V30 433 C 35.4585 5.06332 1.7185 0
M  V30 434 C 36.7585 5.20242 -0.463178 0
M  V30 435 H 38.4525 2.94466 -0.541307 0
M  V30 436 H 35.9985 1.41601 -0.261764 0
M  V30 437 H 37.9515 3.84569 1.72293 0
M  V30 438 H 36.6755 2.62315 1.94573 0
M  V30 439 H 35.3345 3.66501 0.085054 0
M  V30 440 H 34.9825 4.39186 2.45203 0
M  V30 441 H 34.6825 5.72762 1.31213 0
M  V30 442 H 36.2065 5.67899 2.24329 0
M  V30 443 H 37.6205 5.73293 -0.027502 0
M  V30 444 H 36.0175 5.94896 -0.788627 0
M  V30 445 H 37.0875 4.65504 -1.35773 0
M  V30 446 N 38.4306 0.297415 1.54768 0
M  V30 447 C 39.6586 -0.315623 2.04478 0
M  V30 448 C 40.0736 -1.47792 1.17486 0
M  V30 449 O 39.4306 -1.81404 0.19971 0
M  V30 450 C 39.4816 -0.7753 3.53088 0
M  V30 451 O 39.2026 0.340732 4.36773 0
M  V30 452 C 40.7036 -1.45386 4.18781 0
M  V30 453 H 37.9236 -0.0690887 0.667434 0
M  V30 454 H 40.4676 0.436003 1.99798 0
M  V30 455 H 38.6226 -1.47696 3.58141 0
M  V30 456 H 39.0366 -0.0165035 5.24497 0
M  V30 457 H 40.5106 -1.72669 5.24299 0
M  V30 458 H 40.9876 -2.39275 3.68299 0
M  V30 459 H 41.5936 -0.795475 4.17795 0
M  V30 460 N 39.9087 -1.5758 0.0250728 0
M  V30 461 C 40.8187 -2.1343 -0.973905 0
M  V30 462 C 41.8347 -1.08556 -1.35984 0
M  V30 463 O 43.0107 -1.40592 -1.44207 0
M  V30 464 C 40.0757 -2.64703 -2.23904 0
M  V30 465 C 39.1367 -3.84276 -1.91391 0
M  V30 466 C 38.3697 -4.33095 -3.11873 0
M  V30 467 O 38.5927 -3.81107 -4.24398 0
M  V30 468 O 37.5267 -5.24984 -2.94406 0
M  V30 469 H 41.3527 -2.99057 -0.529036 0
M  V30 470 H 38.9377 -1.48118 -0.195288 0
M  V30 471 H 40.8197 -2.97769 -2.98181 0
M  V30 472 H 39.4947 -1.82161 -2.6758 0
M  V30 473 H 38.4017 -3.56143 -1.14511 0
M  V30 474 H 39.7347 -4.67968 -1.52534 0
M  V30 475 N 41.3868 0.248026 -1.55636 0
M  V30 476 C 42.3498 1.29044 -1.89421 0
M  V30 477 C 43.3498 1.41134 -0.770581 0
M  V30 478 O 44.5398 1.39854 -1.03858 0
M  V30 479 C 41.6718 2.66831 -2.12165 0
M  V30 480 H 42.8648 1.00305 -2.82629 0
M  V30 481 H 40.4178 0.487265 -1.48511 0
M  V30 482 H 41.1528 3.00711 -1.21422 0
M  V30 483 H 40.9378 2.59438 -2.93997 0
M  V30 484 H 42.4278 3.42103 -2.3949 0
M  V30 485 N 42.8649 1.48995 0.513639 0
M  V30 486 C 44.1129 1.57531 1.26604 0
M  V30 487 C 44.4339 0.258236 1.93283 0
M  V30 488 O 43.7039 -0.721502 1.8213 0
M  V30 489 H 42.2839 0.580387 0.470276 0
M  V30 490 H 44.9459 1.85552 0.596373 0
M  V30 491 H 44.0419 2.36486 2.03669 0
M  V30 492 N 44.343 -0.763751 1.37857 0
M  V30 493 C 45.592 -1.51789 1.32827 0
M  V30 494 C 45.905 -1.95426 -0.0823719 0
M  V30 495 O 47.111 -2.70298 -0.255172 0
M  V30 496 C 45.567 -2.74133 2.33193 0
M  V30 497 C 45.175 -2.37562 3.79827 0
M  V30 498 C 46.919 -3.52054 2.37188 0
M  V30 499 C 44.826 -3.56456 4.71904 0
M  V30 500 H 43.756 -0.569896 0.493695 0
M  V30 501 H 46.407 -0.835822 1.63359 0
M  V30 502 H 44.789 -3.4427 1.9569 0
M  V30 503 H 45.963 -1.75157 4.26212 0
M  V30 504 H 44.278 -1.72798 3.78853 0
M  V30 505 H 46.875 -4.40437 3.03182 0
M  V30 506 H 47.218 -3.92486 1.38782 0
M  V30 507 H 47.751 -2.88921 2.7344 0
M  V30 508 H 44.49 -3.21099 5.71468 0
M  V30 509 H 44.01 -4.17938 4.30218 0
M  V30 510 H 45.689 -4.23168 4.89426 0
M  V30 511 N 45.8211 -1.22559 -0.990812 0
M  V30 512 C 46.7711 -0.964807 -2.0658 0
M  V30 513 C 47.7551 0.0853472 -1.60673 0
M  V30 514 O 48.9471 -0.125443 -1.76555 0
M  V30 515 C 46.0761 -0.546707 -3.38919 0
M  V30 516 C 45.1621 -1.6317 -3.91454 0
M  V30 517 N 45.5531 -2.85985 -4.17189 0
M  V30 518 C 43.8511 -1.50387 -4.19881 0
M  V30 519 C 44.5521 -3.56159 -4.59919 0
M  V30 520 N 43.5281 -2.83637 -4.63736 0
M  V30 521 H 47.3301 -1.89769 -2.24421 0
M  V30 522 H 44.8441 -1.12343 -1.17273 0
M  V30 523 H 46.8411 -0.34119 -4.15502 0
M  V30 524 H 45.5011 0.379254 -3.22478 0
M  V30 525 H 46.5121 -3.22392 -4.05319 0
M  V30 526 H 43.1891 -0.644254 -4.12499 0
M  V30 527 H 44.5791 -4.6139 -4.88435 0
M  V30 528 N 47.2992 1.18797 -1.03562 0
M  V30 529 C 48.5452 1.8893 -0.737113 0
M  V30 530 C 48.8782 1.79837 0.732956 0
M  V30 531 O 48.1532 1.19525 1.5344 0
M  V30 532 C 48.4362 3.39607 -1.19745 0
M  V30 533 C 48.2892 3.57537 -2.72924 0
M  V30 534 C 49.6082 4.33069 -0.783526 0
M  V30 535 H 46.7272 0.686057 -0.269249 0
M  V30 536 H 49.3692 1.39797 -1.28673 0
M  V30 537 H 47.5192 3.81583 -0.729855 0
M  V30 538 H 49.1912 3.24688 -3.27682 0
M  V30 539 H 47.4342 3.00363 -3.12993 0
M  V30 540 H 48.1052 4.63238 -3.00191 0
M  V30 541 H 50.5812 3.98846 -1.18581 0
M  V30 542 H 49.4572 5.3707 -1.13343 0
M  V30 543 H 49.7182 4.40986 0.313681 0
M  V30 544 N 48.7773 0.814389 1.34928 0
M  V30 545 C 50.0243 0.398423 1.98542 0
M  V30 546 C 50.3523 -1.03638 1.64589 0
M  V30 547 O 49.6073 -1.73509 0.90516 0
M  V30 548 C 49.9063 0.537781 3.53331 0
M  V30 549 C 49.5723 1.93704 4.07172 0
M  V30 550 C 48.2343 2.31984 4.21589 0
M  V30 551 C 50.5863 2.85213 4.36237 0
M  V30 552 C 47.9143 3.61125 4.62391 0
M  V30 553 C 50.2663 4.13809 4.78482 0
M  V30 554 C 48.9303 4.52077 4.91104 0
M  V30 555 H 48.2003 0.145793 0.726516 0
M  V30 556 H 50.8473 1.03669 1.61012 0
M  V30 557 H 49.1523 -0.183906 3.91368 0
M  V30 558 H 50.8493 0.196588 4.00518 0
M  V30 559 H 47.4393 1.62966 3.96409 0
M  V30 560 H 51.6233 2.56885 4.24645 0
M  V30 561 H 46.8793 3.90612 4.70353 0
M  V30 562 H 51.0533 4.84811 4.99932 0
M  V30 563 H 48.6803 5.52196 5.22478 0
M  V30 564 N 50.2554 -1.46986 0.568584 0
M  V30 565 C 51.5044 -2.01646 0.0465894 0
M  V30 566 C 51.8174 -1.44721 -1.31587 0
M  V30 567 O 53.0234 -1.91113 -1.92842 0
M  V30 568 C 51.4794 -3.59885 0.032752 0
M  V30 569 C 51.0874 -4.25804 1.39266 0
M  V30 570 C 52.8314 -4.22255 -0.436038 0
M  V30 571 C 50.7384 -5.76081 1.33732 0
M  V30 572 H 49.6684 -0.753876 0.013647 0
M  V30 573 H 52.3194 -1.68864 0.718131 0
M  V30 574 H 50.7014 -3.8968 -0.704669 0
M  V30 575 H 51.8754 -4.07637 2.1487 0
M  V30 576 H 50.1904 -3.7547 1.80032 0
M  V30 577 H 52.7874 -5.32394 -0.49602 0
M  V30 578 H 53.1304 -3.90212 -1.45053 0
M  V30 579 H 53.6634 -3.97033 0.246877 0
M  V30 580 H 50.4024 -6.12761 2.32817 0
M  V30 581 H 49.9224 -5.96553 0.623267 0
M  V30 582 H 51.6014 -6.38518 1.0442 0
M  V30 583 N 51.7335 -0.305618 -1.54608 0
M  V30 584 C 52.6635 0.561482 -2.26649 0
M  V30 585 C 53.6445 1.13415 -1.26772 0
M  V30 586 O 54.8295 1.16262 -1.55553 0
M  V30 587 C 51.9595 1.73122 -3.01075 0
M  V30 588 C 50.9135 1.2887 -4.08138 0
M  V30 589 C 50.2395 2.54396 -4.70305 0
M  V30 590 C 51.5395 0.416578 -5.20636 0
M  V30 591 H 53.2335 -0.0393902 -2.99374 0
M  V30 592 H 50.7795 -0.020385 -1.43986 0
M  V30 593 H 52.7325 2.34396 -3.50195 0
M  V30 594 H 51.4565 2.3584 -2.25936 0
M  V30 595 H 50.1155 0.698991 -3.59875 0
M  V30 596 H 49.7635 3.15439 -3.918 0
M  V30 597 H 49.4635 2.25486 -5.42614 0
M  V30 598 H 50.9875 3.16464 -5.2219 0
M  V30 599 H 52.4015 0.935116 -5.65622 0
M  V30 600 H 50.7985 0.221046 -5.99693 0
M  V30 601 H 51.8685 -0.557162 -4.81688 0
M  V30 602 N 53.2116 1.57565 -0.0334293 0
M  V30 603 C 54.4596 1.91598 0.642999 0
M  V30 604 C 54.7806 0.910847 1.7242 0
M  V30 605 O 54.0506 -0.0469931 1.95844 0
M  V30 606 H 52.6306 0.707228 0.240496 0
M  V30 607 H 55.2926 1.94726 -0.0822488 0
M  V30 608 H 54.3886 2.92336 1.09298 0
M  V30 609 N 54.6897 -0.239769 1.55765 0
M  V30 610 C 55.9297 -0.974076 1.79697 0
M  V30 611 C 56.2937 -1.82249 0.604088 0
M  V30 612 O 57.4947 -2.58913 0.722324 0
M  V30 613 C 55.7657 -1.80595 3.08416 0
M  V30 614 S 57.3247 -2.59838 3.53596 0
M  V30 615 H 54.1427 -0.327524 0.63107 0
M  V30 616 H 56.7447 -0.241277 1.94005 0
M  V30 617 H 55.4487 -1.17249 3.93295 0
M  V30 618 H 54.9797 -2.58137 2.96865 0
M  V30 619 H 56.9947 -3.82987 3.15492 0
M  V30 620 N 56.1678 -1.49265 -0.50573 0
M  V30 621 C 57.4148 -1.58513 -1.26015 0
M  V30 622 C 57.7428 -0.26972 -1.92621 0
M  V30 623 O 56.9978 0.741997 -1.81088 0
M  V30 624 C 57.2968 -2.69008 -2.35308 0
M  V30 625 C 56.9628 -4.10662 -1.86192 0
M  V30 626 C 55.6248 -4.49212 -1.72516 0
M  V30 627 C 57.9768 -4.99336 -1.49375 0
M  V30 628 C 55.3048 -5.74214 -1.20394 0
M  V30 629 C 57.6568 -6.24852 -0.987072 0
M  V30 630 C 56.3208 -6.62236 -0.836669 0
M  V30 631 H 55.5908 -0.580041 -0.461122 0
M  V30 632 H 58.2378 -1.83078 -0.561665 0
M  V30 633 H 56.5428 -2.38396 -3.10926 0
M  V30 634 H 58.2398 -2.73373 -2.93374 0
M  V30 635 H 54.8298 -3.8023 -1.97795 0
M  V30 636 H 59.0138 -4.70212 -1.5879 0
M  V30 637 H 54.2698 -6.01883 -1.07458 0
M  V30 638 H 58.4438 -6.92944 -0.692983 0
M  V30 639 H 56.0708 -7.58979 -0.430607 0
M  V30 640 N 57.6459 0.756429 -1.3826 0
M  V30 641 C 58.8709 1.55077 -1.37717 0
M  V30 642 C 59.2959 1.88073 0.03164 0
M  V30 643 O 58.6539 1.50364 1.01293 0
M  V30 644 C 58.7019 2.8283 -2.23695 0
M  V30 645 O 57.8059 3.77862 -1.6521 0
M  V30 646 H 57.1469 0.469152 -0.469885 0
M  V30 647 H 59.6769 0.935019 -1.81985 0
M  V30 648 H 59.6869 3.31783 -2.37453 0
M  V30 649 H 58.3619 2.58144 -3.2609 0
M  V30 650 H 56.9389 3.36555 -1.60578 0
M  V30 651 N 59.124 1.23083 0.984299 0
M  V30 652 C 60.087 1.00979 2.05757 0
M  V30 653 C 61.087 -0.0269573 1.60777 0
M  V30 654 O 62.277 0.212403 1.729 0
M  V30 655 C 59.409 0.527072 3.36801 0
M  V30 656 H 60.602 1.9622 2.26799 0
M  V30 657 H 58.155 1.05072 1.15714 0
M  V30 658 H 58.89 -0.429294 3.21446 0
M  V30 659 H 58.675 1.27515 3.70786 0
M  V30 660 H 60.165 0.392942 4.15747 0
M  V30 661 N 60.6021 -1.18246 1.0419 0
M  V30 662 C 61.8501 -1.87886 0.744543 0
M  V30 663 C 62.1711 -1.8082 -0.730006 0
M  V30 664 O 61.4411 -1.22736 -1.52685 0
M  V30 665 H 60.0211 -0.695556 0.272417 0
M  V30 666 H 62.6831 -1.43494 1.31892 0
M  V30 667 H 61.7791 -2.9389 1.05049 0
M  V30 668 N 62.0802 -0.821533 -1.34494 0
M  V30 669 C 63.0102 -0.257138 -2.3208 0
M  V30 670 C 63.9912 0.625645 -1.58176 0
M  V30 671 O 65.1762 0.552811 -1.86166 0
M  V30 672 C 62.3062 0.582958 -3.42372 0
M  V30 673 C 61.2602 -0.202571 -4.2752 0
M  V30 674 C 60.5862 0.760179 -5.29269 0
M  V30 675 C 61.8862 -1.40998 -5.02908 0
M  V30 676 H 63.5802 -1.07247 -2.79532 0
M  V30 677 H 61.1262 -0.517163 -1.34393 0
M  V30 678 H 63.0792 0.987972 -4.09655 0
M  V30 679 H 61.8032 1.43133 -2.93565 0
M  V30 680 H 60.4622 -0.588936 -3.61838 0
M  V30 681 H 60.1102 1.60447 -4.76724 0
M  V30 682 H 59.8102 0.238809 -5.87115 0
M  V30 683 H 61.3342 1.16308 -5.9942 0
M  V30 684 H 62.7482 -1.07905 -5.63054 0
M  V30 685 H 61.1452 -1.86689 -5.70322 0
M  V30 686 H 62.2152 -2.1889 -4.32684 0
M  V30 687 N 63.5583 1.46682 -0.576371 0
M  V30 688 C 64.9693 1.86112 -0.148091 0
M  V30 689 C 65.3203 1.48073 1.2872 0
M  V30 690 O 64.4453 0.892656 1.97131 0
M  V30 691 C 65.0403 3.37786 -0.261982 0
M  V30 692 C 63.5993 3.76235 0.111384 0
M  V30 693 C 62.7463 2.70713 -0.60083 0
M  V30 694 H 65.6973 1.37927 -0.78497 0
M  V30 695 H 65.7183 3.77007 0.514364 0
M  V30 696 H 65.2303 3.6544 -1.30671 0
M  V30 697 H 63.3313 3.54198 1.15649 0
M  V30 698 H 63.4443 4.78391 -0.26052 0
M  V30 699 H 61.8083 2.54666 -0.0417783 0
M  V30 700 H 62.5913 3.01208 -1.64708 0
M  V30 701 N 65.0364 0.313813 1.54444 0
M  V30 702 C 65.9834 -0.55655 2.23989 0
M  V30 703 C 66.9534 -1.11943 1.22711 0
M  V30 704 O 68.1384 -1.16158 1.51367 0
M  V30 705 C 65.2784 -1.71635 2.99392 0
M  V30 706 C 64.3914 -1.18364 4.15468 0
M  V30 707 C 63.5264 -2.30834 4.78424 0
M  V30 708 C 62.5654 -1.74762 5.86622 0
M  V30 709 N 61.7024 -2.80855 6.43479 0
M  V30 710 H 66.5424 0.0430893 2.97969 0
M  V30 711 H 64.0794 0.0330359 1.47063 0
M  V30 712 H 66.0374 -2.39868 3.41349 0
M  V30 713 H 64.6674 -2.28742 2.27765 0
M  V30 714 H 63.7194 -0.393163 3.78363 0
M  V30 715 H 65.0314 -0.733262 4.93381 0
M  V30 716 H 64.1854 -3.0699 5.23299 0
M  V30 717 H 62.9244 -2.79204 3.99871 0
M  V30 718 H 61.9294 -0.970995 5.41158 0
M  V30 719 H 63.1544 -1.2728 6.67066 0
M  V30 720 H 61.1004 -3.28535 5.67804 0
M  V30 721 H 61.0174 -2.40351 7.16776 0
M  V30 722 H 62.2854 -3.5687 6.93011 0
M  V30 723 N 66.5145 -1.57545 0.0417849 0
M  V30 724 C 67.7425 -1.96624 -0.643928 0
M  V30 725 C 68.1575 -0.918897 -1.64929 0
M  V30 726 O 67.5145 0.0979323 -1.82237 0
M  V30 727 C 67.5655 -3.35781 -1.33914 0
M  V30 728 O 67.2865 -4.365 -0.374048 0
M  V30 729 C 68.7875 -3.89566 -2.1155 0
M  V30 730 H 66.0075 -0.647316 -0.176702 0
M  V30 731 H 68.5515 -2.04229 0.105304 0
M  V30 732 H 66.7065 -3.29357 -2.03968 0
M  V30 733 H 67.1205 -5.17248 -0.869179 0
M  V30 734 H 68.5945 -4.89242 -2.55628 0
M  V30 735 H 69.0715 -3.24488 -2.9598 0
M  V30 736 H 69.6775 -3.99298 -1.46427 0
M  V30 737 N 67.9926 0.231505 -1.5589 0
M  V30 738 C 68.9026 1.308 -1.94752 0
M  V30 739 C 69.9186 1.51826 -0.849989 0
M  V30 740 O 71.0946 1.6515 -1.15271 0
M  V30 741 C 68.1596 2.63968 -2.24771 0
M  V30 742 C 67.2206 2.51331 -3.48039 0
M  V30 743 C 66.4536 3.78148 -3.76616 0
M  V30 744 O 66.6766 4.80722 -3.07022 0
M  V30 745 O 65.6106 3.75857 -4.70123 0
M  V30 746 H 69.4366 1.0083 -2.86474 0
M  V30 747 H 67.0216 0.433547 -1.42971 0
M  V30 748 H 68.9036 3.42633 -2.45318 0
M  V30 749 H 67.5786 2.9364 -1.36225 0
M  V30 750 H 66.4856 1.709 -3.32782 0
M  V30 751 H 67.8186 2.26601 -4.36936 0
M  V30 752 N 69.4707 1.49531 0.497807 0
M  V30 753 C 70.4337 1.65916 1.58128 0
M  V30 754 C 71.4337 0.530825 1.51786 0
M  V30 755 O 72.6237 0.797342 1.54881 0
M  V30 756 C 69.7557 1.65951 2.9778 0
M  V30 757 H 70.9487 2.62556 1.44929 0
M  V30 758 H 68.5017 1.38611 0.722275 0
M  V30 759 H 69.2367 0.709065 3.16453 0
M  V30 760 H 69.0217 2.47897 3.03792 0
M  V30 761 H 70.5117 1.80673 3.76493 0
M  V30 762 N 70.9488 -0.749086 1.3866 0
M  V30 763 C 71.8968 -1.88428 1.36373 0
M  V30 764 C 72.8908 -1.67561 0.248929 0
M  V30 765 O 74.0968 -1.75074 0.41821 0
M  V30 766 H 70.4718 -0.620023 0.42553 0
M  V30 767 H 72.4428 -1.87473 2.32156 0
M  V30 768 C 71.1918 -3.25961 1.21014 0
M  V30 769 H 70.5148 -3.42607 2.06059 0
M  V30 770 H 71.9548 -4.05625 1.23469 0
M  V30 771 C 70.4138 -3.36799 -0.0825941 0
M  V30 772 O 70.9438 -3.87517 -1.05797 0
M  V30 773 N 69.1498 -2.90258 -0.140939 0
M  V30 774 H 68.6968 -2.49174 0.653477 0
M  V30 775 H 68.6548 -2.97889 -1.00545 0
M  V30 776 N 72.4269 -1.23603 -0.977757 0
M  V30 777 C 73.6729 -1.08136 -1.72274 0
M  V30 778 C 74.0279 0.377453 -1.88661 0
M  V30 779 O 73.3209 1.27552 -1.42972 0
M  V30 780 C 73.5149 -1.7433 -3.11999 0
M  V30 781 C 73.3439 -3.26498 -3.0924 0
M  V30 782 C 72.1139 -3.9567 -3.14282 0
M  V30 783 C 74.3119 -4.2323 -2.92201 0
M  V30 784 N 72.2939 -5.34799 -3.01436 0
M  V30 785 C 73.6649 -5.49289 -2.87544 0
M  V30 786 C 75.7199 -4.13931 -2.76705 0
M  V30 787 C 74.4229 -6.67116 -2.68978 0
M  V30 788 C 76.4489 -5.31424 -2.59504 0
M  V30 789 C 75.8109 -6.5641 -2.55548 0
M  V30 790 H 71.9099 -0.450247 -0.639376 0
M  V30 791 H 74.4939 -1.5637 -1.16002 0
M  V30 792 H 72.6649 -1.28624 -3.66484 0
M  V30 793 H 74.3969 -1.51815 -3.75146 0
M  V30 794 H 71.1519 -3.46767 -3.22567 0
M  V30 795 H 71.5759 -6.07748 -2.98281 0
M  V30 796 H 76.2179 -3.1807 -2.78552 0
M  V30 797 H 73.9359 -7.63109 -2.65876 0
M  V30 798 H 77.5219 -5.26072 -2.48474 0
M  V30 799 H 76.4019 -7.45795 -2.42405 0
M  V30 800 N 73.905 1.17692 -1.04816 0
M  V30 801 C 75.151 1.88137 -0.75711 0
M  V30 802 C 75.484 1.80604 0.713841 0
M  V30 803 O 74.759 1.21146 1.52164 0
M  V30 804 C 75.042 3.38318 -1.2334 0
M  V30 805 C 74.895 3.54622 -2.76701 0
M  V30 806 C 76.214 4.32214 -0.829415 0
M  V30 807 H 73.333 0.683163 -0.27651 0
M  V30 808 H 75.975 1.38424 -1.30149 0
M  V30 809 H 74.125 3.80787 -0.770286 0
M  V30 810 H 75.797 3.21194 -3.31107 0
M  V30 811 H 74.04 2.97026 -3.16161 0
M  V30 812 H 74.711 4.60028 -3.05088 0
M  V30 813 H 77.187 3.97565 -1.22805 0
M  V30 814 H 76.063 5.35838 -1.19033 0
M  V30 815 H 76.324 4.41294 0.266891 0
M  V30 816 N 75.3831 0.828654 1.34056 0
M  V30 817 C 76.3311 0.242973 2.31327 0
M  V30 818 C 77.3251 -0.61944 1.57668 0
M  V30 819 O 78.5311 -0.51014 1.7262 0
M  V30 820 H 74.9061 0.059834 0.749616 0
M  V30 821 H 76.8771 1.07809 2.78244 0
M  V30 822 C 75.6261 -0.575733 3.429 0
M  V30 823 H 74.9491 0.0785582 3.99723 0
M  V30 824 H 76.3891 -0.951547 4.13185 0
M  V30 825 C 74.8481 -1.75044 2.87856 0
M  V30 826 O 75.3781 -2.84882 2.83205 0
M  V30 827 N 73.5841 -1.56903 2.44602 0
M  V30 828 H 73.1311 -0.675547 2.48584 0
M  V30 829 H 73.0891 -2.35652 2.08124 0
M  V30 830 N 76.8612 -1.46375 0.584142 0
M  V30 831 C 78.1072 -2.02678 0.0703716 0
M  V30 832 C 78.4402 -1.4545 -1.28678 0
M  V30 833 O 77.7152 -0.62014 -1.84349 0
M  V30 834 C 77.9982 -3.60099 0.00614674 0
M  V30 835 C 77.8512 -4.27709 1.3923 0
M  V30 836 C 79.1702 -4.34598 -0.693742 0
M  V30 837 H 76.2892 -0.736504 0.027047 0
M  V30 838 H 78.9312 -1.74501 0.751615 0
M  V30 839 H 77.0812 -3.84236 -0.574009 0
M  V30 840 H 78.7532 -4.14832 2.01773 0
M  V30 841 H 76.9962 -3.87016 1.95962 0
M  V30 842 H 77.6672 -5.36478 1.29982 0
M  V30 843 H 80.1432 -4.15615 -0.200869 0
M  V30 844 H 79.0192 -5.44318 -0.707714 0
M  V30 845 H 79.2802 -4.05759 -1.75533 0
M  V30 846 N 78.3393 -0.321999 -1.54275 0
M  V30 847 C 79.5883 0.281931 -1.9972 0
M  V30 848 C 79.9013 1.53369 -1.21397 0
M  V30 849 O 81.1073 2.21352 -1.57211 0
M  V30 850 C 79.5633 0.5529 -3.55628 0
M  V30 851 C 79.1713 -0.681721 -4.42783 0
M  V30 852 C 80.9153 1.11687 -4.09544 0
M  V30 853 C 78.8223 -0.382742 -5.9016 0
M  V30 854 H 77.7523 0.109124 -0.746062 0
M  V30 855 H 80.4033 -0.43398 -1.78294 0
M  V30 856 H 78.7853 1.32896 -3.73035 0
M  V30 857 H 79.9593 -1.45723 -4.37151 0
M  V30 858 H 78.2743 -1.1658 -3.99748 0
M  V30 859 H 80.8713 1.35515 -5.17242 0
M  V30 860 H 81.2143 2.06575 -3.61431 0
M  V30 861 H 81.7473 0.402032 -3.95763 0
M  V30 862 H 78.4863 -1.30076 -6.42464 0
M  V30 863 H 78.0063 0.355094 -5.98748 0
M  V30 864 H 79.6853 0.00800157 -6.47 0
M  V30 865 N 79.8174 1.5752 -0.0501392 0
M  V30 866 C 81.0424 1.97376 0.636997 0
M  V30 867 C 81.4674 0.927466 1.63645 0
M  V30 868 O 80.8254 -0.10941 1.8097 0
M  V30 869 C 80.8734 3.36304 1.30123 0
M  V30 870 O 79.9774 3.34156 2.41689 0
M  V30 871 H 79.3184 0.642998 0.165679 0
M  V30 872 H 81.8484 2.04258 -0.118233 0
M  V30 873 H 81.8584 3.73008 1.65315 0
M  V30 874 H 80.5334 4.11993 0.568746 0
M  V30 875 H 79.1104 3.09196 2.08451 0
M  V30 876 N 81.2955 -0.223234 1.56011 0
M  V30 877 C 82.5725 -0.972108 1.69733 0
M  V30 878 C 82.9525 -2.02485 0.59691 0
M  V30 879 O 82.3005 -2.25037 -0.396324 0
M  V30 880 C 82.5105 -1.58407 3.10979 0
M  V30 881 C 83.8585 -2.07696 3.70334 0
M  V30 882 O 84.8825 -1.68304 3.1393 0
M  V30 883 O 83.7415 -2.80096 4.69264 0
M  V30 884 H 80.8355 -0.453993 0.691245 0
M  V30 885 H 83.3815 -0.215149 1.68331 0
M  V30 886 H 82.1535 -0.823831 3.82529 0
M  V30 887 H 81.7765 -2.40661 3.16493 0
M  V30 888 N 82.7736 -1.49793 -0.48987 0
M  V30 889 C 83.7036 -1.70201 -1.59856 0
M  V30 890 C 84.6846 -0.55076 -1.60937 0
M  V30 891 O 85.8696 -0.787841 -1.77501 0
M  V30 892 C 82.9996 -1.77882 -2.98287 0
M  V30 893 C 81.9536 -2.92907 -3.12073 0
M  V30 894 C 81.2796 -2.85712 -4.51965 0
M  V30 895 C 82.5796 -4.3369 -2.91051 0
M  V30 896 H 84.2736 -2.63025 -1.43032 0
M  V30 897 H 81.8196 -1.26574 -0.686664 0
M  V30 898 H 83.7726 -1.90744 -3.75759 0
M  V30 899 H 82.4966 -0.816653 -3.16225 0
M  V30 900 H 81.1556 -2.79665 -2.37029 0
M  V30 901 H 80.8036 -1.8738 -4.66795 0
M  V30 902 H 80.5036 -3.62921 -4.62128 0
M  V30 903 H 82.0276 -3.00598 -5.31482 0
M  V30 904 H 83.4416 -4.47555 -3.58284 0
M  V30 905 H 81.8386 -5.12205 -3.12675 0
M  V30 906 H 82.9086 -4.47362 -1.87071 0
M  V30 907 N 84.2517 0.741722 -1.39055 0
M  V30 908 C 85.1987 1.85566 -1.37237 0
M  V30 909 C 86.1687 1.64457 -0.233072 0
M  V30 910 O 87.3537 1.85957 -0.427147 0
M  V30 911 C 84.4937 3.23004 -1.215 0
M  V30 912 C 83.6067 3.55864 -2.44918 0
M  V30 913 C 82.7417 4.82669 -2.21821 0
M  V30 914 C 81.7807 5.08351 -3.40948 0
M  V30 915 N 80.9177 6.26356 -3.17211 0
M  V30 916 H 85.7577 1.86455 -2.32462 0
M  V30 917 H 83.2947 0.911176 -1.15482 0
M  V30 918 H 85.2527 4.02331 -1.10389 0
M  V30 919 H 83.8827 3.21411 -0.29908 0
M  V30 920 H 82.9347 2.7129 -2.66657 0
M  V30 921 H 84.2467 3.70765 -3.33668 0
M  V30 922 H 83.4007 5.69962 -2.07914 0
M  V30 923 H 82.1397 4.69929 -1.30454 0
M  V30 924 H 81.1447 4.19522 -3.55361 0
M  V30 925 H 82.3697 5.22981 -4.33207 0
M  V30 926 H 80.3157 6.14917 -2.28502 0
M  V30 927 H 80.2327 6.41813 -3.99515 0
M  V30 928 H 81.5007 7.16506 -3.06984 0
M  V30 929 N 85.7298 1.2412 0.971189 0
M  V30 930 C 86.6768 1.0305 2.06517 0
M  V30 931 C 87.6468 -0.0550666 1.66009 0
M  V30 932 O 88.8318 0.0988688 1.90544 0
M  V30 933 C 85.9718 0.637653 3.39158 0
M  V30 934 C 85.0848 1.79633 3.92882 0
M  V30 935 C 84.2198 1.34939 5.13775 0
M  V30 936 C 83.2588 2.47823 5.59687 0
M  V30 937 N 82.3958 2.04022 6.71803 0
M  V30 938 H 87.2358 1.96685 2.23873 0
M  V30 939 H 84.7728 0.979694 1.09729 0
M  V30 940 H 86.7308 0.390931 4.15364 0
M  V30 941 H 85.3608 -0.261693 3.21737 0
M  V30 942 H 84.4128 2.15681 3.13346 0
M  V30 943 H 85.7248 2.64466 4.22918 0
M  V30 944 H 84.8788 1.06134 5.97345 0
M  V30 945 H 83.6178 0.471557 4.85415 0
M  V30 946 H 82.6228 2.77392 4.74693 0
M  V30 947 H 83.8478 3.36158 5.90063 0
M  V30 948 H 81.7938 1.18632 6.45184 0
M  V30 949 H 81.7108 2.82409 7.01271 0
M  V30 950 H 82.9788 1.78347 7.58823 0
M  V30 951 N 87.2079 -1.17134 1.05439 0
M  V30 952 C 88.4569 -1.86791 0.761049 0
M  V30 953 C 88.7699 -1.82072 -0.714795 0
M  V30 954 O 89.9759 -2.47223 -1.12218 0
M  V30 955 C 88.4319 -3.35166 1.31117 0
M  V30 956 C 88.0399 -3.48381 2.81664 0
M  V30 957 C 89.7839 -4.10134 1.09499 0
M  V30 958 C 87.6909 -4.90793 3.29964 0
M  V30 959 H 86.6209 -0.699681 0.281002 0
M  V30 960 H 89.2719 -1.3226 1.27199 0
M  V30 961 H 87.6539 -3.8925 0.72803 0
M  V30 962 H 88.8279 -3.04502 3.45855 0
M  V30 963 H 87.1429 -2.86836 3.01851 0
M  V30 964 H 89.7399 -5.152 1.43084 0
M  V30 965 H 90.0829 -4.16287 0.0328772 0
M  V30 966 H 90.6159 -3.62264 1.64346 0
M  V30 967 H 87.3549 -4.89816 4.35616 0
M  V30 968 H 86.8749 -5.35333 2.70516 0
M  V30 969 H 88.5539 -5.59573 3.24787 0
M  V30 970 N 88.686 -0.835752 -1.33615 0
M  V30 971 C 89.596 -0.269088 -2.33052 0
M  V30 972 C 90.612 0.603251 -1.63208 0
M  V30 973 O 91.788 0.508112 -1.94885 0
M  V30 974 C 88.853 0.549091 -3.42324 0
M  V30 975 C 87.914 -0.347156 -4.27894 0
M  V30 976 C 87.147 0.43207 -5.31948 0
M  V30 977 O 87.37 1.66409 -5.45586 0
M  V30 978 O 86.304 -0.192298 -6.01593 0
M  V30 979 H 90.13 -1.09243 -2.83372 0
M  V30 980 H 87.715 -0.598198 -1.36901 0
M  V30 981 H 89.597 1.01414 -4.09015 0
M  V30 982 H 88.272 1.34955 -2.94226 0
M  V30 983 H 87.179 -0.859979 -3.64081 0
M  V30 984 H 88.512 -1.1123 -4.79467 0
M  V30 985 N 90.1641 1.46063 -0.591896 0
M  V30 986 C 91.4411 1.95595 -0.0137119 0
M  V30 987 C 91.8211 1.5345 1.4497 0
M  V30 988 O 91.1691 0.789543 2.14426 0
M  V30 989 C 91.3791 3.48453 -0.195373 0
M  V30 990 C 92.7271 4.24546 -0.0679765 0
M  V30 991 O 93.7511 3.55982 -0.124681 0
M  V30 992 O 92.6101 5.46467 0.0600579 0
M  V30 993 H 89.7041 0.825795 0.0446279 0
M  V30 994 H 92.2501 1.56303 -0.660859 0
M  V30 995 H 91.0221 3.72045 -1.21235 0
M  V30 996 H 90.6451 3.94597 0.487775 0
M  V30 997 N 91.6422 0.330177 1.54103 0
M  V30 998 C 92.5722 -0.525353 2.27513 0
M  V30 999 C 93.5532 -1.11383 1.2856 0
M  V30 1000 O 94.7382 -1.13773 1.57383 0
M  V30 1001 C 91.8682 -1.6831 3.03791 0
M  V30 1002 C 90.8222 -1.2236 4.10137 0
M  V30 1003 C 90.1482 -2.46882 4.74293 0
M  V30 1004 C 91.4482 -0.333697 5.21233 0
M  V30 1005 H 93.1422 0.087013 2.99274 0
M  V30 1006 H 90.6882 0.0432893 1.43935 0
M  V30 1007 H 92.6412 -2.28795 3.5388 0
M  V30 1008 H 91.3652 -2.32216 2.29659 0
M  V30 1009 H 90.0242 -0.64165 3.60941 0
M  V30 1010 H 89.6722 -3.09165 3.96769 0
M  V30 1011 H 89.3722 -2.16825 5.46133 0
M  V30 1012 H 90.8962 -3.08117 5.27159 0
M  V30 1013 H 92.3102 -0.845013 5.67038 0
M  V30 1014 H 90.7072 -0.125612 5.99969 0
M  V30 1015 H 91.7772 0.633724 4.80741 0
M  V30 1016 N 93.1203 -1.57491 0.0584922 0
M  V30 1017 C 94.3693 -1.92155 -0.613146 0
M  V30 1018 C 94.6823 -0.939334 -1.71569 0
M  V30 1019 O 95.8883 -1.17829 -2.44599 0
M  V30 1020 C 94.3443 -3.41303 -1.14195 0
M  V30 1021 C 93.9523 -4.47944 -0.0711265 0
M  V30 1022 C 95.6963 -3.84988 -1.78841 0
M  V30 1023 C 93.6033 -5.88212 -0.613225 0
M  V30 1024 H 92.5333 -0.717162 -0.232796 0
M  V30 1025 H 95.1843 -1.83049 0.12857 0
M  V30 1026 H 93.5663 -3.45437 -1.93621 0
M  V30 1027 H 94.7403 -4.55408 0.702836 0
M  V30 1028 H 93.0553 -4.13644 0.478313 0
M  V30 1029 H 95.6523 -4.87159 -2.20408 0
M  V30 1030 H 95.9953 -3.21632 -2.64308 0
M  V30 1031 H 96.5283 -3.83401 -1.06059 0
M  V30 1032 H 93.2673 -6.55183 0.203978 0
M  V30 1033 H 92.7873 -5.84294 -1.35501 0
M  V30 1034 H 94.4663 -6.37687 -1.09383 0
M  V30 1035 N 94.5984 0.214957 -1.56127 0
M  V30 1036 C 95.5304 1.29004 -1.89448 0
M  V30 1037 C 96.5434 1.42716 -0.783326 0
M  V30 1038 O 97.7324 1.43496 -1.06166 0
M  V30 1039 C 94.8324 2.66482 -2.09381 0
M  V30 1040 C 94.0054 2.74633 -3.40434 0
M  V30 1041 C 93.0644 3.9317 -3.49719 0
M  V30 1042 O 92.0904 3.812 -4.227 0
M  V30 1043 N 93.2924 5.07765 -2.81346 0
M  V30 1044 H 96.0574 1.00743 -2.82261 0
M  V30 1045 H 93.6184 0.40497 -1.56753 0
M  V30 1046 H 95.6104 3.44173 -2.12901 0
M  V30 1047 H 94.1804 2.87314 -1.23163 0
M  V30 1048 H 93.4004 1.83368 -3.48955 0
M  V30 1049 H 94.6884 2.77054 -4.26754 0
M  V30 1050 H 94.0864 5.20386 -2.21843 0
M  V30 1051 H 92.6434 5.83474 -2.90519 0
M  V30 1052 N 96.0765 1.50051 0.48192 0
M  V30 1053 C 97.3015 1.64508 1.26301 0
M  V30 1054 C 97.7265 0.323851 1.85291 0
M  V30 1055 O 97.0845 -0.710969 1.66778 0
M  V30 1056 C 97.1325 2.7305 2.35533 0
M  V30 1057 O 96.2365 2.3355 3.39895 0
M  V30 1058 H 95.5775 0.549978 0.372048 0
M  V30 1059 H 98.1075 1.9636 0.574786 0
M  V30 1060 H 98.1175 2.95799 2.8101 0
M  V30 1061 H 96.7925 3.68946 1.91967 0
M  V30 1062 H 95.3695 2.21205 3.00204 0
M  V30 1063 N 97.5546 -0.734337 1.39446 0
M  V30 1064 C 98.4876 -1.85715 1.32609 0
M  V30 1065 C 99.4656 -1.6137 0.199636 0
M  V30 1066 O 100.65 -1.84626 0.380195 0
M  V30 1067 C 97.7766 -3.21709 1.05929 0
M  V30 1068 C 96.8226 -3.64913 2.20773 0
M  V30 1069 S 97.6556 -3.74203 3.83056 0
M  V30 1070 C 98.8116 -5.12986 3.58603 0
M  V30 1071 H 99.0446 -1.91232 2.27635 0
M  V30 1072 H 96.5776 -0.899263 1.25509 0
M  V30 1073 H 98.5356 -4.00236 0.912203 0
M  V30 1074 H 97.1966 -3.13848 0.125883 0
M  V30 1075 H 96.3896 -4.63606 1.97699 0
M  V30 1076 H 95.9916 -2.93593 2.31688 0
M  V30 1077 H 98.2836 -5.99339 3.15909 0
M  V30 1078 H 99.2266 -5.41088 4.5676 0
M  V30 1079 H 99.6346 -4.82694 2.9269 0
M  V30 1080 N 99.0327 -1.24633 -0.964593 0
M  V30 1081 C 99.9827 -1.00841 -2.04487 0
M  V30 1082 C 100.967 0.0512468 -1.60818 0
M  V30 1083 O 102.159 -0.162865 -1.76249 0
M  V30 1084 C 99.2877 -0.618474 -3.37683 0
M  V30 1085 C 98.3737 -1.71437 -3.87905 0
M  V30 1086 N 98.7647 -2.9477 -4.11029 0
M  V30 1087 C 97.0627 -1.5926 -4.16596 0
M  V30 1088 C 97.7637 -3.65834 -4.52261 0
M  V30 1089 N 96.7397 -2.9341 -4.57615 0
M  V30 1090 H 100.542 -1.94487 -2.20345 0
M  V30 1091 H 98.0557 -1.14805 -1.14863 0
M  V30 1092 H 100.053 -0.429247 -4.14684 0
M  V30 1093 H 98.7127 0.310766 -3.23209 0
M  V30 1094 H 99.7237 -3.30917 -3.9839 0
M  V30 1095 H 96.4007 -0.731606 -4.1104 0
M  V30 1096 H 97.7907 -4.71646 -4.78539 0
M  V30 1097 N 100.511 1.16574 -1.06058 0
M  V30 1098 C 101.76 1.86385 -0.770944 0
M  V30 1099 C 102.073 1.82448 0.705129 0
M  V30 1100 O 103.279 2.47815 1.10905 0
M  V30 1101 C 101.735 3.34466 -1.32893 0
M  V30 1102 C 101.343 3.46883 -2.83507 0
M  V30 1103 C 103.087 4.09548 -1.11672 0
M  V30 1104 C 100.994 4.89036 -3.32562 0
M  V30 1105 H 99.9238 0.698181 -0.284709 0
M  V30 1106 H 102.575 1.31583 -1.27899 0
M  V30 1107 H 100.957 3.88859 -0.748662 0
M  V30 1108 H 102.131 3.02663 -3.47465 0
M  V30 1109 H 100.446 2.85232 -3.03368 0
M  V30 1110 H 103.043 5.14434 -1.45814 0
M  V30 1111 H 103.386 4.16264 -0.0549535 0
M  V30 1112 H 103.919 3.61387 -1.66265 0
M  V30 1113 H 100.658 4.87499 -4.38207 0
M  V30 1114 H 100.178 5.3389 -2.73351 0
M  V30 1115 H 101.857 5.57843 -3.2775 0
M  V30 1116 N 101.989 0.842826 1.3317 0
M  V30 1117 C 103.266 0.362216 1.92217 0
M  V30 1118 C 103.646 -1.15289 1.76838 0
M  V30 1119 O 102.994 -1.96914 1.15919 0
M  V30 1120 C 103.204 0.813495 3.39387 0
M  V30 1121 C 104.552 0.823804 4.16532 0
M  V30 1122 O 105.576 0.757358 3.48055 0
M  V30 1123 O 104.435 0.915193 5.38782 0
M  V30 1124 H 101.529 0.103317 0.820521 0
M  V30 1125 H 104.075 0.928942 1.42017 0
M  V30 1126 H 102.847 1.85624 3.4447 0
M  V30 1127 H 102.47 0.223561 3.96971 0
M  V30 1128 N 103.467 -1.45747 0.599634 0
M  V30 1129 C 104.43 -2.28917 -0.113835 0
M  V30 1130 C 105.43 -1.3933 -0.802729 0
M  V30 1131 O 106.62 -1.61534 -0.652103 0
M  V30 1132 C 103.752 -3.20152 -1.17114 0
M  V30 1133 H 104.945 -2.93478 0.617289 0
M  V30 1134 H 102.498 -1.52137 0.358327 0
M  V30 1135 H 103.233 -2.60374 -1.93329 0
M  V30 1136 H 103.018 -3.86133 -0.681468 0
M  V30 1137 H 104.508 -3.82708 -1.67105 0
M  V30 1138 N 104.945 -0.338344 -1.53925 0
M  V30 1139 C 106.173 0.261298 -2.05243 0
M  V30 1140 C 106.588 1.44625 -1.21363 0
M  V30 1141 O 105.945 1.80811 -0.247736 0
M  V30 1142 C 105.996 0.681412 -3.5502 0
M  V30 1143 O 105.717 -0.456414 -4.35716 0
M  V30 1144 C 107.218 1.34232 -4.22489 0
M  V30 1145 H 104.438 0.0513685 -0.669031 0
M  V30 1146 H 106.982 -0.488822 -1.98572 0
M  V30 1147 H 105.137 1.38148 -3.61931 0
M  V30 1148 H 105.551 -0.122564 -5.24357 0
M  V30 1149 H 107.025 1.58708 -5.28693 0
M  V30 1150 H 107.502 2.29426 -3.74514 0
M  V30 1151 H 108.108 0.684424 -4.19757 0
M  V30 1152 N 106.423 1.57458 -0.0668435 0
M  V30 1153 C 107.353 2.15468 0.899764 0
M  V30 1154 C 108.334 1.08042 1.31381 0
M  V30 1155 O 109.519 1.36054 1.38574 0
M  V30 1156 C 106.649 2.71232 2.16911 0
M  V30 1157 C 105.603 3.83781 1.89463 0
M  V30 1158 C 104.929 4.26127 3.22986 0
M  V30 1159 C 106.229 5.08238 1.20381 0
M  V30 1160 H 107.923 2.96488 0.416529 0
M  V30 1161 H 105.469 1.4262 0.198908 0
M  V30 1162 H 107.422 3.10458 2.84945 0
M  V30 1163 H 106.146 1.87426 2.67468 0
M  V30 1164 H 104.805 3.45051 1.23836 0
M  V30 1165 H 104.453 3.39249 3.71374 0
M  V30 1166 H 104.153 5.01993 3.05413 0
M  V30 1167 H 105.677 4.67966 3.92225 0
M  V30 1168 H 107.091 5.44811 1.78475 0
M  V30 1169 H 105.488 5.89349 1.13083 0
M  V30 1170 H 106.558 4.84558 0.182153 0
M  V30 1171 N 107.901 -0.206675 1.56239 0
M  V30 1172 C 109.131 -0.943975 1.83773 0
M  V30 1173 C 109.539 -1.77841 0.645703 0
M  V30 1174 O 108.882 -1.79403 -0.395008 0
M  V30 1175 C 108.944 -1.899 3.05251 0
M  V30 1176 C 108.608 -1.24764 4.39639 0
M  V30 1177 C 109.605 -0.630216 5.16066 0
M  V30 1178 C 107.29 -1.25496 4.8637 0
M  V30 1179 C 109.284 -0.0287946 6.37393 0
M  V30 1180 C 106.971 -0.649698 6.07637 0
M  V30 1181 C 107.969 -0.0376845 6.8299 0
M  V30 1182 O 107.657 0.55812 8.0196 0
M  V30 1183 H 107.389 -0.281508 0.614597 0
M  V30 1184 H 109.943 -0.222458 2.04192 0
M  V30 1185 H 108.173 -2.6599 2.80689 0
M  V30 1186 H 109.862 -2.5031 3.1953 0
M  V30 1187 H 110.628 -0.616785 4.81062 0
M  V30 1188 H 106.507 -1.72072 4.27683 0
M  V30 1189 H 110.051 0.449518 6.9615 0
M  V30 1190 H 105.948 -0.660592 6.42111 0
M  V30 1191 H 106.716 0.453891 8.17241 0
M  V30 1192 N 109.379 -1.50304 -0.473955 0
M  V30 1193 C 110.607 -1.64902 -1.24959 0
M  V30 1194 C 111.022 -0.331198 -1.85872 0
M  V30 1195 O 110.379 0.68652 -1.69095 0
M  V30 1196 C 110.43 -2.73803 -2.36038 0
M  V30 1197 O 110.151 -4.00477 -1.77624 0
M  V30 1198 C 111.652 -2.99349 -3.26964 0
M  V30 1199 H 108.872 -0.554383 -0.378022 0
M  V30 1200 H 111.416 -1.9651 -0.566054 0
M  V30 1201 H 109.571 -2.44898 -3.00173 0
M  V30 1202 H 109.985 -4.60678 -2.5075 0
M  V30 1203 H 111.459 -3.79217 -4.01121 0
M  V30 1204 H 111.936 -2.10307 -3.85574 0
M  V30 1205 H 112.542 -3.29774 -2.68569 0
M  V30 1206 N 110.857 0.726932 -1.39834 0
M  V30 1207 C 111.767 1.87131 -1.41489 0
M  V30 1208 C 112.783 1.71239 -0.308757 0
M  V30 1209 O 113.959 1.93701 -0.551529 0
M  V30 1210 C 111.024 3.22811 -1.26468 0
M  V30 1211 C 110.085 3.51039 -2.47124 0
M  V30 1212 C 109.318 4.80245 -2.3281 0
M  V30 1213 O 109.541 5.54537 -1.33585 0
M  V30 1214 O 108.475 5.08554 -3.21957 0
M  V30 1215 H 112.301 1.8869 -2.3797 0
M  V30 1216 H 109.886 0.875837 -1.21035 0
M  V30 1217 H 111.768 4.03877 -1.20255 0
M  V30 1218 H 110.443 3.22005 -0.330862 0
M  V30 1219 H 109.35 2.70027 -2.58914 0
M  V30 1220 H 110.683 3.56632 -3.39227 0
M  V30 1221 N 112.336 1.25143 0.95797 0
M  V30 1222 C 113.561 1.12521 1.74223 0
M  V30 1223 C 113.986 -0.317402 1.85403 0
M  V30 1224 O 113.344 -1.2299 1.33204 0
M  V30 1225 C 113.392 1.78062 3.1357 0
M  V30 1226 O 112.496 1.058 3.98598 0
M  V30 1227 H 111.837 0.39304 0.535178 0
M  V30 1228 H 114.367 1.65641 1.201 0
M  V30 1229 H 114.377 1.84213 3.64046 0
M  V30 1230 H 113.052 2.83021 3.04749 0
M  V30 1231 H 111.629 1.07506 3.57067 0
M  V30 1232 N 113.814 -1.1601 1.06675 0
M  V30 1233 C 115.091 -1.82679 0.699114 0
M  V30 1234 C 115.471 -1.94559 -0.819137 0
M  V30 1235 O 114.819 -1.49169 -1.73092 0
M  V30 1236 C 115.029 -3.19445 1.40555 0
M  V30 1237 C 116.377 -3.95171 1.55323 0
M  V30 1238 O 117.401 -3.28976 1.36577 0
M  V30 1239 O 116.26 -5.13833 1.86112 0
M  V30 1240 H 113.354 -0.788954 0.247951 0
M  V30 1241 H 115.9 -1.23179 1.16726 0
M  V30 1242 H 114.672 -3.05856 2.44065 0
M  V30 1243 H 114.295 -3.86625 0.927733 0
M  V30 1244 N 115.292 -0.849877 -1.32721 0
M  V30 1245 C 116.538 -0.451591 -1.97708 0
M  V30 1246 C 116.871 0.989175 -1.6712 0
M  V30 1247 O 116.146 1.69334 -0.956891 0
M  V30 1248 C 116.429 -0.685598 -3.53513 0
M  V30 1249 C 116.282 -2.17444 -3.93749 0
M  V30 1250 C 117.601 -0.138874 -4.39881 0
M  V30 1251 H 114.72 -0.16555 -0.718166 0
M  V30 1252 H 117.362 -1.06742 -1.57182 0
M  V30 1253 H 115.512 -0.161416 -3.88165 0
M  V30 1254 H 117.184 -2.76433 -3.693 0
M  V30 1255 H 115.427 -2.65476 -3.43081 0
M  V30 1256 H 116.098 -2.28888 -5.02309 0
M  V30 1257 H 118.574 -0.587068 -4.11938 0
M  V30 1258 H 117.45 -0.332213 -5.47894 0
M  V30 1259 H 117.711 0.95806 -4.31594 0
M  V30 1260 N 116.77 1.45427 -0.607355 0
M  V30 1261 C 117.72 2.27612 0.133038 0
M  V30 1262 C 118.704 1.37307 0.838785 0
M  V30 1263 O 119.896 1.61299 0.728813 0
M  V30 1264 C 117.025 3.24173 1.12991 0
M  V30 1265 C 116.111 4.21965 0.425011 0
M  V30 1266 N 116.502 5.02982 -0.533217 0
M  V30 1267 C 114.8 4.40899 0.672593 0
M  V30 1268 C 115.501 5.73931 -0.947518 0
M  V30 1269 N 114.477 5.42819 -0.291321 0
M  V30 1270 H 118.279 2.87649 -0.602935 0
M  V30 1271 H 115.793 1.56576 -0.431006 0
M  V30 1272 H 117.79 3.81783 1.67473 0
M  V30 1273 H 116.45 2.65696 1.86644 0
M  V30 1274 H 117.461 5.09843 -0.90995 0
M  V30 1275 H 114.138 3.93547 1.39382 0
M  V30 1276 H 115.528 6.49037 -1.73782 0
M  V30 1277 N 118.248 0.346503 1.53744 0
M  V30 1278 C 119.659 -0.136779 1.86198 0
M  V30 1279 C 120.01 -1.49749 1.26766 0
M  V30 1280 O 119.135 -2.08417 0.582355 0
M  V30 1281 C 119.73 -0.254966 3.37839 0
M  V30 1282 C 118.289 -0.682482 3.70161 0
M  V30 1283 C 117.436 0.181981 2.76702 0
M  V30 1284 H 120.387 0.565994 1.48264 0
M  V30 1285 H 120.408 -1.08195 3.64793 0
M  V30 1286 H 119.92 0.735526 3.81066 0
M  V30 1287 H 118.021 -1.68189 3.3248 0
M  V30 1288 H 118.134 -0.470326 4.76786 0
M  V30 1289 H 116.498 -0.34615 2.52337 0
M  V30 1290 H 117.281 1.16966 3.2276 0
M  V30 1291 N 119.726 -1.57421 0.075193 0
M  V30 1292 C 120.951 -1.98364 -0.605515 0
M  V30 1293 C 121.376 -0.953383 -1.62149 0
M  V30 1294 O 120.734 0.0806053 -1.81121 0
M  V30 1295 C 120.782 -3.38332 -1.24756 0
M  V30 1296 O 119.886 -3.37959 -2.36342 0
M  V30 1297 H 119.227 -0.645553 -0.155428 0
M  V30 1298 H 121.757 -2.04044 0.150714 0
M  V30 1299 H 121.767 -3.75591 -1.5936 0
M  V30 1300 H 120.442 -4.12846 -0.503129 0
M  V30 1301 H 119.019 -3.12474 -2.03506 0
M  V30 1302 N 121.204 0.198386 -1.56346 0
M  V30 1303 C 122.444 0.92609 -1.82217 0
M  V30 1304 C 122.808 1.80584 -0.652195 0
M  V30 1305 O 124.009 2.56907 -0.790716 0
M  V30 1306 C 122.28 1.72354 -3.13096 0
M  V30 1307 S 123.839 2.50371 -3.6036 0
M  V30 1308 H 120.657 0.310677 -0.639532 0
M  V30 1309 H 123.259 0.189755 -1.94577 0
M  V30 1310 H 121.963 1.0678 -3.96265 0
M  V30 1311 H 121.494 2.50175 -3.03605 0
M  V30 1312 H 123.509 3.74488 -3.25535 0
M  V30 1313 N 122.682 1.50554 0.465978 0
M  V30 1314 C 123.629 1.6979 1.56333 0
M  V30 1315 C 124.599 0.539239 1.57103 0
M  V30 1316 O 125.784 0.770401 1.74555 0
M  V30 1317 C 122.924 1.80273 2.94271 0
M  V30 1318 C 122.037 3.07674 3.0325 0
M  V30 1319 C 121.172 3.08922 4.32135 0
M  V30 1320 C 120.211 4.30755 4.34875 0
M  V30 1321 N 119.348 4.29714 5.55239 0
M  V30 1322 H 124.188 2.63472 1.39235 0
M  V30 1323 H 121.725 1.30602 0.676873 0
M  V30 1324 H 123.683 1.84332 3.74269 0
M  V30 1325 H 122.313 0.900258 3.09992 0
M  V30 1326 H 121.365 3.13062 2.16094 0
M  V30 1327 H 122.677 3.97642 3.01135 0
M  V30 1328 H 121.831 3.11738 5.20485 0
M  V30 1329 H 120.57 2.16792 4.36866 0
M  V30 1330 H 119.575 4.28146 3.44922 0
M  V30 1331 H 120.8 5.24117 4.31831 0
M  V30 1332 H 118.746 3.4044 5.60746 0
M  V30 1333 H 118.663 5.13456 5.54886 0
M  V30 1334 H 119.931 4.36683 6.457 0
M  V30 1335 N 124.16 -0.719506 1.40217 0
M  V30 1336 C 125.406 -1.48152 1.38488 0
M  V30 1337 C 125.739 -1.94195 -0.0141867 0
M  V30 1338 O 125.014 -1.67884 -0.982096 0
M  V30 1339 C 125.297 -2.71035 2.37091 0
M  V30 1340 C 125.15 -2.30912 3.86005 0
M  V30 1341 C 126.469 -3.73182 2.33288 0
M  V30 1342 H 123.588 -0.537395 0.504357 0
M  V30 1343 H 126.23 -0.821472 1.71324 0
M  V30 1344 H 124.38 -3.27352 2.0922 0
M  V30 1345 H 126.052 -1.80107 4.24687 0
M  V30 1346 H 124.295 -1.62958 4.02029 0
M  V30 1347 H 124.966 -3.18978 4.50508 0
M  V30 1348 H 127.442 -3.26485 2.57966 0
M  V30 1349 H 126.318 -4.56806 3.04334 0
M  V30 1350 H 126.579 -4.21202 1.34317 0
M  V30 1351 N 125.638 -1.25649 -0.95132 0
M  V30 1352 C 126.866 -1.13343 -1.73092 0
M  V30 1353 C 127.281 0.312434 -1.86197 0
M  V30 1354 O 126.638 1.21465 -1.36207 0
M  V30 1355 C 126.689 -1.78602 -3.14299 0
M  V30 1356 O 126.41 -3.17537 -3.01831 0
M  V30 1357 C 127.911 -1.72119 -4.08522 0
M  V30 1358 H 125.131 -0.395181 -0.542285 0
M  V30 1359 H 127.675 -1.66076 -1.19328 0
M  V30 1360 H 125.83 -1.29832 -3.64996 0
M  V30 1361 H 126.244 -3.49676 -3.90931 0
M  V30 1362 H 127.718 -2.22435 -5.052 0
M  V30 1363 H 128.195 -0.685635 -4.33815 0
M  V30 1364 H 128.801 -2.20393 -3.63741 0
M  V30 1365 N 127.117 1.15442 -1.07289 0
M  V30 1366 C 128.08 2.18358 -0.696591 0
M  V30 1367 C 129.08 1.58637 0.262837 0
M  V30 1368 O 130.27 1.74145 0.0438809 0
M  V30 1369 C 127.402 3.4089 -0.0266151 0
M  V30 1370 H 128.595 2.53162 -1.60776 0
M  V30 1371 H 126.148 1.29893 -0.869342 0
M  V30 1372 H 126.883 3.11653 0.896822 0
M  V30 1373 H 126.668 3.85495 -0.716657 0
M  V30 1374 H 128.158 4.17009 0.222028 0
M  V30 1375 N 128.595 0.856903 1.32268 0
M  V30 1376 C 129.528 0.247937 2.26849 0
M  V30 1377 C 130.506 -0.615382 1.50505 0
M  V30 1378 O 131.69 -0.571689 1.79622 0
M  V30 1379 C 128.817 -0.650093 3.32403 0
M  V30 1380 C 127.863 0.140138 4.2627 0
M  V30 1381 S 128.696 1.51004 5.13769 0
M  V30 1382 C 129.852 0.61778 6.22844 0
M  V30 1383 H 130.085 1.04971 2.78152 0
M  V30 1384 H 127.618 0.654665 1.39834 0
M  V30 1385 H 129.576 -1.16256 3.93694 0
M  V30 1386 H 128.237 -1.4257 2.7988 0
M  V30 1387 H 127.43 -0.543945 5.01056 0
M  V30 1388 H 127.032 0.584267 3.69408 0
M  V30 1389 H 129.324 -0.177053 6.77269 0
M  V30 1390 H 130.267 1.33636 6.95375 0
M  V30 1391 H 130.675 0.191124 5.64176 0
M  V30 1392 N 130.073 -1.45103 0.615059 0
M  V30 1393 C 131.02 -2.30586 -0.0993978 0
M  V30 1394 C 131.99 -1.42544 -0.852669 0
M  V30 1395 O 133.175 -1.71465 -0.836917 0
M  V30 1396 C 130.315 -3.27572 -1.08583 0
M  V30 1397 C 129.428 -4.30717 -0.332656 0
M  V30 1398 C 128.563 -5.14807 -1.30947 0
M  V30 1399 C 127.602 -6.09673 -0.544538 0
M  V30 1400 N 126.739 -6.86517 -1.47101 0
M  V30 1401 H 131.579 -2.91144 0.635542 0
M  V30 1402 H 129.116 -1.4346 0.325206 0
M  V30 1403 H 131.074 -3.82276 -1.67095 0
M  V30 1404 H 129.704 -2.68751 -1.78809 0
M  V30 1405 H 128.756 -3.78615 0.368107 0
M  V30 1406 H 130.068 -4.98102 0.263842 0
M  V30 1407 H 129.222 -5.73948 -1.96643 0
M  V30 1408 H 127.961 -4.47458 -1.9399 0
M  V30 1409 H 126.966 -5.49656 0.126003 0
M  V30 1410 H 128.191 -6.79052 0.080947 0
M  V30 1411 H 126.137 -6.21851 -2.08895 0
M  V30 1412 H 126.054 -7.50281 -0.928137 0
M  V30 1413 H 127.322 -7.50194 -2.11731 0
M  V30 1414 N 131.551 -0.354651 -1.53558 0
M  V30 1415 C 132.791 0.238651 -2.03002 0
M  V30 1416 C 133.155 1.46878 -1.23656 0
M  V30 1417 O 134.356 2.13699 -1.63053 0
M  V30 1418 C 132.627 0.534175 -3.53386 0
M  V30 1419 S 134.186 1.10271 -4.24719 0
M  V30 1420 H 131.004 0.0702908 -0.707517 0
M  V30 1421 H 133.606 -0.494987 -1.8913 0
M  V30 1422 H 132.31 -0.368765 -4.0874 0
M  V30 1423 H 131.841 1.29718 -3.71398 0
M  V30 1424 H 133.856 2.38772 -4.34974 0
M  V30 1425 N 133.029 1.57378 -0.0835403 0
M  V30 1426 C 134.276 1.9393 0.58287 0
M  V30 1427 C 134.604 0.964455 1.68904 0
M  V30 1428 O 133.859 -0.0179474 1.95692 0
M  V30 1429 C 134.158 3.37063 1.1884 0
M  V30 1430 C 133.824 4.50424 0.207194 0
M  V30 1431 C 132.486 4.81159 -0.0627115 0
M  V30 1432 C 134.838 5.19136 -0.463426 0
M  V30 1433 C 132.166 5.77939 -1.01012 0
M  V30 1434 C 134.518 6.16931 -1.39924 0
M  V30 1435 C 133.182 6.46078 -1.67749 0
M  V30 1436 H 132.452 0.70964 0.213287 0
M  V30 1437 H 135.099 1.90856 -0.156916 0
M  V30 1438 H 133.404 3.3666 2.00418 0
M  V30 1439 H 135.101 3.6264 1.71153 0
M  V30 1440 H 131.691 4.2646 0.427747 0
M  V30 1441 H 135.875 4.95576 -0.268034 0
M  V30 1442 H 131.131 5.98842 -1.23283 0
M  V30 1443 H 135.305 6.69273 -1.92476 0
M  V30 1444 H 132.932 7.2088 -2.41321 0
M  V30 1445 N 134.507 -0.190092 1.56449 0
M  V30 1446 C 135.437 -1.23816 1.97969 0
M  V30 1447 C 136.418 -1.47201 0.852395 0
M  V30 1448 O 137.603 -1.58854 1.1171 0
M  V30 1449 C 134.733 -2.5813 2.3235 0
M  V30 1450 C 133.687 -2.49348 3.47864 0
M  V30 1451 C 133.013 -3.8798 3.67934 0
M  V30 1452 C 134.313 -2.01424 4.81898 0
M  V30 1453 H 136.007 -0.89311 2.85769 0
M  V30 1454 H 133.553 -0.428177 1.37487 0
M  V30 1455 H 135.506 -3.31637 2.59991 0
M  V30 1456 H 134.23 -2.94386 1.41438 0
M  V30 1457 H 132.889 -1.78297 3.20321 0
M  V30 1458 H 132.537 -4.21597 2.74344 0
M  V30 1459 H 132.237 -3.82978 4.45648 0
M  V30 1460 H 133.761 -4.63101 3.97957 0
M  V30 1461 H 135.175 -2.64693 5.08538 0
M  V30 1462 H 133.572 -2.07413 5.63116 0
M  V30 1463 H 134.642 -0.967677 4.75146 0
M  V30 1464 N 135.985 -1.50799 -0.457987 0
M  V30 1465 C 136.915 -1.73553 -1.5621 0
M  V30 1466 C 137.896 -0.584774 -1.59732 0
M  V30 1467 O 139.081 -0.825314 -1.7579 0
M  V30 1468 C 136.211 -1.84169 -2.94447 0
M  V30 1469 C 135.165 -2.99461 -3.0579 0
M  V30 1470 C 134.491 -2.95235 -4.45803 0
M  V30 1471 C 135.791 -4.39766 -2.81786 0
M  V30 1472 H 137.485 -2.66 -1.37421 0
M  V30 1473 H 135.031 -1.28002 -0.659662 0
M  V30 1474 H 136.984 -1.98672 -3.71628 0
M  V30 1475 H 135.708 -0.883545 -3.14422 0
M  V30 1476 H 134.367 -2.8463 -2.31044 0
M  V30 1477 H 134.015 -1.97239 -4.62715 0
M  V30 1478 H 133.715 -3.72642 -4.54326 0
M  V30 1479 H 135.239 -3.11803 -5.24987 0
M  V30 1480 H 136.653 -4.55054 -3.4871 0
M  V30 1481 H 135.05 -5.18722 -3.0174 0
M  V30 1482 H 136.12 -4.51229 -1.7754 0
M  V30 1483 N 137.463 0.71206 -1.40597 0
M  V30 1484 C 138.373 1.8562 -1.43466 0
M  V30 1485 C 139.389 1.70902 -0.326902 0
M  V30 1486 O 140.565 1.93105 -0.572043 0
M  V30 1487 C 137.63 3.21451 -1.29884 0
M  V30 1488 C 136.691 3.48398 -2.50833 0
M  V30 1489 C 135.924 4.77749 -2.3789 0
M  V30 1490 O 136.147 5.53089 -1.39459 0
M  V30 1491 O 135.081 5.05111 -3.27333 0
M  V30 1492 H 138.907 1.86155 -2.39958 0
M  V30 1493 H 136.492 0.86295 -1.21957 0
M  V30 1494 H 138.374 4.02579 -1.24531 0
M  V30 1495 H 137.049 3.21636 -0.364997 0
M  V30 1496 H 135.956 2.67265 -2.61763 0
M  V30 1497 H 137.289 3.53014 -3.4299 0
M  V30 1498 N 138.941 1.26152 0.944643 0
M  V30 1499 C 139.871 1.09902 2.06019 0
M  V30 1500 C 140.852 0.00519538 1.70099 0
M  V30 1501 O 142.037 0.176583 1.93396 0
M  V30 1502 C 139.167 0.727562 3.39594 0
M  V30 1503 C 138.121 1.77274 3.89561 0
M  V30 1504 C 137.447 1.25569 5.19747 0
M  V30 1505 C 138.747 3.17357 4.14827 0
M  V30 1506 H 140.441 2.03217 2.19871 0
M  V30 1507 H 137.987 0.978452 1.05652 0
M  V30 1508 H 139.94 0.600777 4.17095 0
M  V30 1509 H 138.664 -0.241287 3.25707 0
M  V30 1510 H 137.323 1.88814 3.14237 0
M  V30 1511 H 136.971 0.276783 5.02238 0
M  V30 1512 H 136.671 1.95433 5.54148 0
M  V30 1513 H 138.195 1.1415 5.99835 0
M  V30 1514 H 139.609 3.08914 4.82954 0
M  V30 1515 H 138.006 3.84781 4.60504 0
M  V30 1516 H 139.076 3.63673 3.20734 0
M  V30 1517 N 140.419 -1.14872 1.07899 0
M  V30 1518 C 141.351 -2.19425 0.662231 0
M  V30 1519 C 142.364 -1.60231 -0.288079 0
M  V30 1520 O 143.553 -1.78336 -0.076534 0
M  V30 1521 C 140.653 -3.38867 -0.0470695 0
M  V30 1522 C 139.826 -4.27597 0.920831 0
M  V30 1523 C 138.885 -5.25616 0.247805 0
M  V30 1524 O 137.911 -5.62189 0.890599 0
M  V30 1525 N 139.113 -5.71746 -1.00435 0
M  V30 1526 H 141.878 -2.55797 1.56166 0
M  V30 1527 H 139.439 -1.30042 0.964404 0
M  V30 1528 H 141.431 -4.01497 -0.50813 0
M  V30 1529 H 140.001 -3.00864 -0.848523 0
M  V30 1530 H 139.221 -3.61982 1.56087 0
M  V30 1531 H 140.509 -4.83748 1.57688 0
M  V30 1532 H 139.907 -5.44153 -1.54642 0
M  V30 1533 H 138.464 -6.36389 -1.40899 0
M  V30 1534 N 141.898 -0.863906 -1.31812 0
M  V30 1535 C 143.144 -0.472535 -1.97218 0
M  V30 1536 C 143.477 0.971394 -1.68159 0
M  V30 1537 O 142.752 1.68309 -0.974798 0
M  V30 1538 C 143.035 -0.723054 -3.52766 0
M  V30 1539 C 142.888 -2.21608 -3.91421 0
M  V30 1540 C 144.207 -0.185522 -4.39709 0
M  V30 1541 H 141.326 -0.173158 -0.71637 0
M  V30 1542 H 143.968 -1.08403 -1.56041 0
M  V30 1543 H 142.118 -0.202577 -3.87971 0
M  V30 1544 H 143.79 -2.80334 -3.66347 0
M  V30 1545 H 142.033 -2.691 -3.40246 0
M  V30 1546 H 142.704 -2.34203 -4.99853 0
M  V30 1547 H 145.18 -0.630726 -4.11292 0
M  V30 1548 H 144.056 -0.390306 -5.47511 0
M  V30 1549 H 144.317 0.912229 -4.32586 0
M  V30 1550 N 143.376 1.44774 -0.622745 0
M  V30 1551 C 144.625 2.01334 -0.121397 0
M  V30 1552 C 144.938 1.49505 1.26125 0
M  V30 1553 O 146.144 1.98139 1.85616 0
M  V30 1554 C 144.6 3.59516 -0.166298 0
M  V30 1555 C 144.208 4.20342 -1.54974 0
M  V30 1556 C 145.952 4.23582 0.279021 0
M  V30 1557 C 143.859 5.70721 -1.55021 0
M  V30 1558 H 142.789 0.752851 -0.0416172 0
M  V30 1559 H 145.44 1.66083 -0.780309 0
M  V30 1560 H 143.822 3.92027 0.559557 0
M  V30 1561 H 144.996 3.99381 -2.29851 0
M  V30 1562 H 143.311 3.68529 -1.93843 0
M  V30 1563 H 145.908 5.33868 0.298083 0
M  V30 1564 H 146.251 3.95327 1.30471 0
M  V30 1565 H 146.784 3.95843 -0.394063 0
M  V30 1566 H 143.523 6.03698 -2.55399 0
M  V30 1567 H 143.043 5.93829 -0.844245 0
M  V30 1568 H 144.722 6.34203 -1.28047 0
M  V30 1569 N 144.854 0.36279 1.53368 0
M  V30 1570 C 146.079 -0.231226 2.06107 0
M  V30 1571 C 146.504 -1.419 1.23474 0
M  V30 1572 O 145.862 -1.79524 0.253128 0
M  V30 1573 C 145.91 -0.605523 3.5548 0
M  V30 1574 O 145.014 -1.70312 3.7559 0
M  V30 1575 H 144.355 -0.034327 0.663112 0
M  V30 1576 H 146.885 0.522584 1.97814 0
M  V30 1577 H 146.895 -0.877314 3.98456 0
M  V30 1578 H 145.57 0.263004 4.15068 0
M  V30 1579 H 144.147 -1.4271 3.44512 0
M  V30 1580 N 146.332 -1.57332 0.0918853 0
M  V30 1581 C 147.262 -2.16872 -0.865371 0
M  V30 1582 C 148.243 -1.10118 -1.29646 0
M  V30 1583 O 149.428 -1.38242 -1.36392 0
M  V30 1584 C 146.558 -2.74649 -2.12569 0
M  V30 1585 C 145.512 -3.86747 -1.83333 0
M  V30 1586 C 144.838 -4.31212 -3.16166 0
M  V30 1587 C 146.138 -5.10089 -1.1228 0
M  V30 1588 H 147.832 -2.97114 -0.369307 0
M  V30 1589 H 145.378 -1.42918 -0.176194 0
M  V30 1590 H 147.331 -3.14952 -2.7997 0
M  V30 1591 H 146.055 -1.91657 -2.64452 0
M  V30 1592 H 144.714 -3.46978 -1.18331 0
M  V30 1593 H 144.362 -3.45115 -3.6593 0
M  V30 1594 H 144.062 -5.06788 -2.97388 0
M  V30 1595 H 145.586 -4.74146 -3.84731 0
M  V30 1596 H 147 -5.47582 -1.69785 0
M  V30 1597 H 145.397 -5.91073 -1.03693 0
M  V30 1598 H 146.467 -4.84786 -0.105041 0
M  V30 1599 N 147.81 0.181792 -1.56548 0
M  V30 1600 C 148.72 1.24538 -1.98815 0
M  V30 1601 C 149.736 1.49045 -0.897861 0
M  V30 1602 O 150.912 1.61399 -1.20467 0
M  V30 1603 C 147.977 2.56683 -2.33055 0
M  V30 1604 C 147.038 2.40131 -3.55859 0
M  V30 1605 C 146.271 3.65975 -3.88456 0
M  V30 1606 O 146.494 4.70711 -3.22161 0
M  V30 1607 O 145.428 3.6071 -4.81842 0
M  V30 1608 H 149.254 0.916647 -2.89536 0
M  V30 1609 H 146.839 0.387842 -1.44278 0
M  V30 1610 H 148.721 3.34655 -2.56094 0
M  V30 1611 H 147.396 2.89157 -1.45498 0
M  V30 1612 H 146.303 1.60226 -3.38051 0
M  V30 1613 H 147.636 2.12585 -4.43924 0
M  V30 1614 N 149.288 1.51039 0.449983 0
M  V30 1615 C 150.513 1.6715 1.22783 0
M  V30 1616 C 150.938 0.363081 1.84563 0
M  V30 1617 O 150.296 -0.675433 1.68249 0
M  V30 1618 C 150.344 2.77985 2.29689 0
M  V30 1619 O 149.448 2.40707 3.34864 0
M  V30 1620 H 148.789 0.557746 0.360299 0
M  V30 1621 H 151.319 1.97535 0.533005 0
M  V30 1622 H 151.329 3.01693 2.74673 0
M  V30 1623 H 150.004 3.72935 1.84098 0
M  V30 1624 H 148.581 2.27523 2.95445 0
M  V30 1625 N 150.766 -0.704594 1.40972 0
M  V30 1626 C 152.014 -1.46169 1.39568 0
M  V30 1627 C 152.335 -1.95 0.00253745 0
M  V30 1628 O 151.605 -1.71095 -0.954114 0
M  V30 1629 H 150.185 -0.542326 0.513704 0
M  V30 1630 H 152.847 -0.834553 1.76128 0
M  V30 1631 H 151.943 -2.32922 2.07735 0
M  V30 1632 N 152.244 -1.26651 -0.937939 0
M  V30 1633 C 153.521 -1.0313 -1.66204 0
M  V30 1634 C 153.901 0.437256 -2.06522 0
M  V30 1635 O 153.249 1.41831 -1.79154 0
M  V30 1636 C 153.459 -1.98314 -2.87181 0
M  V30 1637 C 154.807 -2.27107 -3.58758 0
M  V30 1638 O 155.831 -1.96205 -2.97291 0
M  V30 1639 O 154.69 -2.79736 -4.69479 0
M  V30 1640 H 151.784 -0.392384 -0.727986 0
M  V30 1641 H 154.33 -1.37874 -0.989382 0
M  V30 1642 H 153.102 -2.97399 -2.54302 0
M  V30 1643 H 152.725 -1.64068 -3.6217 0
M  V30 1644 N 153.722 1.14298 -1.08507 0
M  V30 1645 C 154.685 2.17607 -0.719711 0
M  V30 1646 C 155.685 1.58907 0.245997 0
M  V30 1647 O 156.875 1.74181 0.0254081 0
M  V30 1648 C 154.007 3.40842 -0.0627695 0
M  V30 1649 H 155.2 2.51443 -1.63452 0
M  V30 1650 H 152.753 1.28963 -0.88307 0
M  V30 1651 H 153.488 3.12587 0.863716 0
M  V30 1652 H 153.273 3.84713 -0.757504 0
M  V30 1653 H 154.763 4.17221 0.177786 0
M  V30 1654 N 155.201 0.870884 1.31352 0
M  V30 1655 C 156.426 0.495957 2.01383 0
M  V30 1656 C 156.851 -0.904324 1.64935 0
M  V30 1657 O 156.209 -1.59687 0.858466 0
M  V30 1658 C 156.257 0.661433 3.54482 0
M  V30 1659 O 155.361 -0.298851 4.11316 0
M  V30 1660 H 154.702 0.197158 0.634054 0
M  V30 1661 H 157.232 1.17455 1.67527 0
M  V30 1662 H 157.242 0.555072 4.04207 0
M  V30 1663 H 155.917 1.68246 3.8035 0
M  V30 1664 H 154.494 -0.147368 3.72609 0
M  V30 1665 N 156.679 -1.44442 0.630414 0
M  V30 1666 C 157.928 -2.01267 0.132073 0
M  V30 1667 C 158.241 -1.50172 -1.25331 0
M  V30 1668 O 159.447 -1.9912 -1.84562 0
M  V30 1669 C 157.903 -3.59422 0.185362 0
M  V30 1670 C 157.511 -4.19514 1.57201 0
M  V30 1671 C 159.255 -4.23724 -0.256553 0
M  V30 1672 C 157.162 -5.69891 1.58045 0
M  V30 1673 H 156.092 -0.752619 0.0456092 0
M  V30 1674 H 158.743 -1.65666 0.789106 0
M  V30 1675 H 157.125 -3.92318 -0.538759 0
M  V30 1676 H 158.299 -3.98156 2.31966 0
M  V30 1677 H 156.614 -3.67496 1.95795 0
M  V30 1678 H 159.211 -5.34019 -0.269767 0
M  V30 1679 H 159.554 -3.96013 -1.28372 0
M  V30 1680 H 160.087 -3.95629 0.41505 0
M  V30 1681 H 156.826 -6.02336 2.58597 0
M  V30 1682 H 156.346 -5.93373 0.875725 0
M  V30 1683 H 158.025 -6.33515 1.31408 0
M  V30 1684 N 158.157 -0.370918 -1.53173 0
M  V30 1685 C 159.107 0.489588 -2.22681 0
M  V30 1686 C 160.091 1.04442 -1.22395 0
M  V30 1687 O 161.283 0.973578 -1.47819 0
M  V30 1688 C 158.412 1.626 -3.02351 0
M  V30 1689 C 157.498 1.08379 -4.10018 0
M  V30 1690 N 157.889 0.265004 -5.05105 0
M  V30 1691 C 156.187 1.35809 -4.2482 0
M  V30 1692 C 156.888 -0.0324755 -5.81691 0
M  V30 1693 N 155.864 0.566581 -5.40639 0
M  V30 1694 H 159.666 -0.142729 -2.93553 0
M  V30 1695 H 157.18 -0.179221 -1.61408 0
M  V30 1696 H 159.177 2.2547 -3.50669 0
M  V30 1697 H 157.837 2.26132 -2.33011 0
M  V30 1698 H 158.848 -0.0962352 -5.17811 0
M  V30 1699 H 155.525 1.9958 -3.66707 0
M  V30 1700 H 156.915 -0.69473 -6.68299 0
M  V30 1701 N 159.635 1.57281 -0.100228 0
M  V30 1702 C 160.912 1.86014 0.604812 0
M  V30 1703 C 161.292 0.998025 1.86018 0
M  V30 1704 O 160.64 0.0718184 2.28387 0
M  V30 1705 C 160.85 3.36784 0.915278 0
M  V30 1706 C 162.198 4.04957 1.27651 0
M  V30 1707 O 163.222 3.41695 1.00613 0
M  V30 1708 O 162.081 5.16593 1.7831 0
M  V30 1709 H 159.175 0.76942 0.303185 0
M  V30 1710 H 161.721 1.69176 -0.133313 0
M  V30 1711 H 160.493 3.91292 0.0248896 0
M  V30 1712 H 160.116 3.58987 1.70921 0
M  V30 1713 N 161.113 -0.173488 1.56642 0
M  V30 1714 C 162.341 -0.906095 1.86004 0
M  V30 1715 C 162.756 -1.75921 0.685355 0
M  V30 1716 O 162.113 -1.79198 -0.345578 0
M  V30 1717 C 162.164 -1.78462 3.14378 0
M  V30 1718 O 161.885 -0.965914 4.27319 0
M  V30 1719 C 163.386 -2.62707 3.57071 0
M  V30 1720 H 160.606 -0.263341 0.617165 0
M  V30 1721 H 163.15 -0.174236 2.03756 0
M  V30 1722 H 161.305 -2.46984 2.98459 0
M  V30 1723 H 161.719 -1.56655 5.00559 0
M  V30 1724 H 163.193 -3.19969 4.49804 0
M  V30 1725 H 163.67 -3.37472 2.81086 0
M  V30 1726 H 164.276 -1.99521 3.75595 0
M  V30 1727 N 162.591 -1.51276 -0.441967 0
M  V30 1728 C 163.837 -1.63958 -1.19355 0
M  V30 1729 C 164.17 -0.352543 -1.90973 0
M  V30 1730 O 163.445 0.647627 -1.83401 0
M  V30 1731 C 163.728 -2.83979 -2.21422 0
M  V30 1732 C 163.581 -4.22646 -1.53918 0
M  V30 1733 C 164.9 -2.99521 -3.22451 0
M  V30 1734 H 162.019 -0.596709 -0.432559 0
M  V30 1735 H 164.661 -1.83748 -0.483398 0
M  V30 1736 H 162.811 -2.67237 -2.81987 0
M  V30 1737 H 164.483 -4.51045 -0.967256 0
M  V30 1738 H 162.726 -4.25558 -0.841615 0
M  V30 1739 H 163.397 -5.02609 -2.28229 0
M  V30 1740 H 165.873 -3.14944 -2.71937 0
M  V30 1741 H 164.749 -3.85072 -3.91166 0
M  V30 1742 H 165.01 -2.11391 -3.88287 0
M  V30 1743 N 164.069 0.697108 -1.41344 0
M  V30 1744 C 164.979 1.84088 -1.45427 0
M  V30 1745 C 165.995 1.70545 -0.34501 0
M  V30 1746 O 167.171 1.92488 -0.592492 0
M  V30 1747 C 164.236 3.20056 -1.33286 0
M  V30 1748 C 163.297 3.45718 -2.54514 0
M  V30 1749 C 162.53 4.75199 -2.42944 0
M  V30 1750 O 162.753 5.51579 -1.45318 0
M  V30 1751 O 161.687 5.0161 -3.32672 0
M  V30 1752 H 165.513 1.836 -2.41919 0
M  V30 1753 H 163.098 0.849966 -1.22866 0
M  V30 1754 H 164.98 4.01236 -1.28794 0
M  V30 1755 H 163.655 3.2123 -0.39909 0
M  V30 1756 H 162.562 2.64474 -2.64583 0
M  V30 1757 H 163.895 3.49356 -3.46715 0
M  V30 1758 N 165.547 1.27147 0.931209 0
M  V30 1759 C 166.495 1.09398 2.05268 0
M  V30 1760 C 167.489 0.0180591 1.6939 0
M  V30 1761 O 168.695 0.17551 1.79142 0
M  V30 1762 H 165.07 0.336986 0.672268 0
M  V30 1763 H 167.041 2.04416 2.17386 0
M  V30 1764 C 165.79 0.75424 3.39421 0
M  V30 1765 H 165.113 1.57404 3.67511 0
M  V30 1766 H 166.553 0.669903 4.18674 0
M  V30 1767 C 165.012 -0.541197 3.32525 0
M  V30 1768 O 165.542 -1.57664 3.69466 0
M  V30 1769 N 163.748 -0.535517 2.85623 0
M  V30 1770 H 163.295 0.307511 2.55758 0
M  V30 1771 H 163.253 -1.40236 2.81392 0
M  V30 1772 N 167.025 -1.13721 1.09112 0
M  V30 1773 C 167.955 -2.21148 0.749385 0
M  V30 1774 C 168.936 -1.6792 -0.271475 0
M  V30 1775 O 170.121 -1.93693 -0.140251 0
M  V30 1776 C 167.251 -3.46905 0.165659 0
M  V30 1777 C 166.205 -4.13203 1.11567 0
M  V30 1778 C 165.531 -5.33248 0.393809 0
M  V30 1779 C 166.831 -4.60912 2.45678 0
M  V30 1780 H 168.525 -2.4999 1.64758 0
M  V30 1781 H 166.071 -1.20156 0.793626 0
M  V30 1782 H 168.024 -4.21313 -0.085466 0
M  V30 1783 H 166.748 -3.17449 -0.767714 0
M  V30 1784 H 165.407 -3.40758 1.35202 0
M  V30 1785 H 165.055 -5.00054 -0.543599 0
M  V30 1786 H 164.755 -5.78552 1.02721 0
M  V30 1787 H 166.279 -6.10413 0.150908 0
M  V30 1788 H 167.693 -5.26759 2.26269 0
M  V30 1789 H 166.09 -5.16944 3.04776 0
M  V30 1790 H 167.16 -3.75603 3.06677 0
M  V30 1791 N 168.503 -0.877838 -1.30888 0
M  V30 1792 C 169.752 -0.488793 -1.95688 0
M  V30 1793 C 170.065 0.965485 -1.70111 0
M  V30 1794 O 171.271 1.46104 -2.28836 0
M  V30 1795 C 169.727 -0.823201 -3.50359 0
M  V30 1796 C 169.335 -2.29477 -3.84765 0
M  V30 1797 C 171.079 -0.503009 -4.21509 0
M  V30 1798 C 168.986 -2.57118 -5.32583 0
M  V30 1799 H 167.916 -0.179062 -0.732429 0
M  V30 1800 H 170.567 -1.07183 -1.48943 0
M  V30 1801 H 168.949 -0.169331 -3.95638 0
M  V30 1802 H 170.123 -2.99236 -3.5042 0
M  V30 1803 H 168.438 -2.58178 -3.267 0
M  V30 1804 H 171.035 -0.68665 -5.30273 0
M  V30 1805 H 171.378 0.557109 -4.12555 0
M  V30 1806 H 171.911 -1.11376 -3.8189 0
M  V30 1807 H 168.65 -3.61843 -5.4658 0
M  V30 1808 H 168.17 -1.91961 -5.68253 0
M  V30 1809 H 169.849 -2.42251 -5.99936 0
M  V30 1810 N 169.982 1.44106 -0.638065 0
M  V30 1811 C 171.231 2.01194 -0.142744 0
M  V30 1812 C 171.544 1.50835 1.24532 0
M  V30 1813 O 172.75 2.00096 1.83504 0
M  V30 1814 C 171.206 3.59319 -0.20442 0
M  V30 1815 C 170.814 4.18674 -1.59423 0
M  V30 1816 C 172.558 4.23854 0.234079 0
M  V30 1817 C 170.465 5.69045 -1.61065 0
M  V30 1818 H 169.395 0.752367 -0.0495998 0
M  V30 1819 H 172.046 1.65246 -0.797881 0
M  V30 1820 H 170.428 3.92598 0.517946 0
M  V30 1821 H 171.602 3.96921 -2.34074 0
M  V30 1822 H 169.917 3.66453 -1.97741 0
M  V30 1823 H 172.514 5.34155 0.241443 0
M  V30 1824 H 172.857 3.96688 1.2627 0
M  V30 1825 H 173.39 3.95403 -0.436025 0
M  V30 1826 H 170.129 6.00956 -2.61787 0
M  V30 1827 H 169.649 5.929 -0.90718 0
M  V30 1828 H 171.328 6.32809 -1.34766 0
M  V30 1829 N 171.46 0.379036 1.52974 0
M  V30 1830 C 172.39 -0.452706 2.29069 0
M  V30 1831 C 173.371 -1.07237 1.32039 0
M  V30 1832 O 174.556 -1.08708 1.60923 0
M  V30 1833 C 171.686 -1.5856 3.08992 0
M  V30 1834 C 170.64 -1.0925 4.13822 0
M  V30 1835 C 169.966 -2.31668 4.81907 0
M  V30 1836 C 171.266 -0.167702 5.22031 0
M  V30 1837 H 172.96 0.182181 2.98845 0
M  V30 1838 H 170.506 0.0890592 1.43724 0
M  V30 1839 H 172.459 -2.1742 3.6098 0
M  V30 1840 H 171.183 -2.24792 2.36931 0
M  V30 1841 H 169.842 -0.526494 3.628 0
M  V30 1842 H 169.49 -2.96386 4.06404 0
M  V30 1843 H 169.19 -1.9934 5.52754 0
M  V30 1844 H 170.714 -2.91189 5.36695 0
M  V30 1845 H 172.128 -0.664186 5.6944 0
M  V30 1846 H 170.525 0.0653265 6.00064 0
M  V30 1847 H 171.595 0.786347 4.78482 0
M  V30 1848 N 172.938 -1.57226 0.108567 0
M  V30 1849 C 173.901 -2.13602 -0.831082 0
M  V30 1850 C 174.901 -1.06841 -1.20173 0
M  V30 1851 O 176.091 -1.32666 -1.12895 0
M  V30 1852 C 173.223 -2.66769 -2.12243 0
M  V30 1853 H 174.416 -2.97951 -0.341317 0
M  V30 1854 H 171.969 -1.55667 -0.14057 0
M  V30 1855 H 172.704 -1.85977 -2.65675 0
M  V30 1856 H 172.489 -3.44839 -1.86625 0
M  V30 1857 H 173.979 -3.10332 -2.79435 0
M  V30 1858 N 174.416 0.165178 -1.56732 0
M  V30 1859 C 175.364 1.22369 -1.97809 0
M  V30 1860 C 176.358 1.45488 -0.867741 0
M  V30 1861 O 177.564 1.45995 -1.05288 0
M  V30 1862 H 173.939 0.411486 -0.629431 0
M  V30 1863 H 175.91 0.850425 -2.86025 0
M  V30 1864 C 174.659 2.55403 -2.35934 0
M  V30 1865 H 173.982 2.38438 -3.20916 0
M  V30 1866 H 175.422 3.2814 -2.68514 0
M  V30 1867 C 173.881 3.14611 -1.20506 0
M  V30 1868 O 174.411 3.98626 -0.496016 0
M  V30 1869 N 172.617 2.7379 -0.97403 0
M  V30 1870 H 172.164 2.0557 -1.55238 0
M  V30 1871 H 172.122 3.1374 -0.203573 0
M  V30 1872 N 175.894 1.51508 0.433938 0
M  V30 1873 C 176.842 1.73646 1.54757 0
M  V30 1874 C 177.836 0.602854 1.5831 0
M  V30 1875 O 179.042 0.784318 1.62014 0
M  V30 1876 H 175.417 0.548718 0.51421 0
M  V30 1877 H 177.388 2.66991 1.33261 0
M  V30 1878 C 176.137 1.88172 2.92381 0
M  V30 1879 H 175.46 2.74808 2.90381 0
M  V30 1880 H 176.9 2.07672 3.6966 0
M  V30 1881 C 175.359 0.64239 3.30719 0
M  V30 1882 O 175.889 -0.201362 4.01195 0
M  V30 1883 N 174.095 0.485489 2.86516 0
M  V30 1884 H 173.642 1.17318 2.29334 0
M  V30 1885 H 173.6 -0.342482 3.12529 0
M  V30 1886 N 177.372 -0.689602 1.41712 0
M  V30 1887 C 178.597 -1.48329 1.44959 0
M  V30 1888 C 179.022 -1.8801 0.0581283 0
M  V30 1889 O 178.38 -1.55026 -0.940035 0
M  V30 1890 C 178.428 -2.71835 2.36935 0
M  V30 1891 O 177.532 -3.69549 1.8305 0
M  V30 1892 H 176.873 -0.446199 0.491734 0
M  V30 1893 H 179.403 -0.847127 1.86239 0
M  V30 1894 H 179.413 -3.20076 2.53013 0
M  V30 1895 H 178.088 -2.42291 3.38035 0
M  V30 1896 H 176.665 -3.2851 1.76452 0
M  V30 1897 N 178.85 -1.27639 -0.924453 0
M  V30 1898 C 179.78 -1.13166 -2.04244 0
M  V30 1899 C 180.761 -0.032256 -1.70069 0
M  V30 1900 O 181.946 -0.207328 -1.9309 0
M  V30 1901 C 179.076 -0.781496 -3.38393 0
M  V30 1902 C 178.03 -1.83449 -3.86692 0
M  V30 1903 C 177.356 -1.33822 -5.17683 0
M  V30 1904 C 178.656 -3.23917 -4.09726 0
M  V30 1905 H 180.35 -2.06689 -2.1661 0
M  V30 1906 H 177.896 -0.995136 -1.04082 0
M  V30 1907 H 179.849 -0.667057 -4.16087 0
M  V30 1908 H 178.573 0.189439 -3.2605 0
M  V30 1909 H 177.232 -1.93789 -3.11193 0
M  V30 1910 H 176.88 -0.35665 -5.01734 0
M  V30 1911 H 176.58 -2.04224 -5.50968 0
M  V30 1912 H 178.104 -1.23679 -5.97943 0
M  V30 1913 H 179.518 -3.16559 -4.77978 0
M  V30 1914 H 177.915 -3.92059 -4.54324 0
M  V30 1915 H 178.985 -3.68729 -3.14908 0
M  V30 1916 N 180.328 1.1314 -1.09713 0
M  V30 1917 C 181.553 1.88862 -0.857081 0
M  V30 1918 C 181.978 1.78729 0.586304 0
M  V30 1919 O 181.336 1.13692 1.41222 0
M  V30 1920 C 181.384 3.36325 -1.30069 0
M  V30 1921 O 180.488 4.09815 -0.461007 0
M  V30 1922 H 179.829 0.587108 -0.310162 0
M  V30 1923 H 182.359 1.43129 -1.46203 0
M  V30 1924 H 182.369 3.87157 -1.28738 0
M  V30 1925 H 181.044 3.43017 -2.35185 0
M  V30 1926 H 179.621 3.68986 -0.538888 0
M  V30 1927 N 181.806 0.884767 1.30421 0
M  V30 1928 C 183.031 0.517288 2.00845 0
M  V30 1929 C 183.456 -0.886779 1.65885 0
M  V30 1930 O 182.814 -1.58768 0.875354 0
M  V30 1931 C 182.862 0.698994 3.5376 0
M  V30 1932 O 181.966 -0.255208 4.1161 0
M  V30 1933 H 181.307 0.203872 0.631927 0
M  V30 1934 H 183.837 1.19225 1.66272 0
M  V30 1935 H 183.847 0.597912 4.03595 0
M  V30 1936 H 182.522 1.72271 3.78544 0
M  V30 1937 H 181.099 -0.10784 3.72744 0
M  V30 1938 N 183.284 -1.43765 0.645699 0
M  V30 1939 C 184.232 -2.32516 -0.0624849 0
M  V30 1940 C 185.226 -1.48183 -0.820855 0
M  V30 1941 O 186.432 -1.64439 -0.732106 0
M  V30 1942 H 182.807 -0.750989 -0.0389864 0
M  V30 1943 H 184.778 -2.89979 0.703892 0
M  V30 1944 C 183.527 -3.32389 -1.02044 0
M  V30 1945 H 182.85 -3.97301 -0.446312 0
M  V30 1946 H 184.29 -3.97138 -1.48517 0
M  V30 1947 C 182.749 -2.62416 -2.11281 0
M  V30 1948 O 183.279 -2.434 -3.19561 0
M  V30 1949 N 181.485 -2.21913 -1.87624 0
M  V30 1950 H 181.032 -2.37578 -0.995703 0
M  V30 1951 H 180.99 -1.75424 -2.6091 0
M  V30 1952 N 184.763 -0.387143 -1.52771 0
M  V30 1953 C 186.011 0.195349 -2.01154 0
M  V30 1954 C 186.332 1.475 -1.27549 0
M  V30 1955 O 185.602 1.91878 -0.394924 0
M  V30 1956 H 184.182 0.075178 -0.743207 0
M  V30 1957 H 186.844 -0.518337 -1.87881 0
M  V30 1958 H 185.94 0.407096 -3.09434 0
M  V30 1959 N 186.241 1.57166 -0.116904 0
M  V30 1960 C 187.189 2.16457 0.851418 0
M  V30 1961 C 188.183 1.11323 1.27686 0
M  V30 1962 O 189.389 1.2963 1.24884 0
M  V30 1963 H 185.764 0.69271 0.292672 0
M  V30 1964 H 187.735 2.96605 0.32685 0
M  V30 1965 C 186.484 2.77689 2.09246 0
M  V30 1966 H 185.807 3.58285 1.77402 0
M  V30 1967 H 187.247 3.22716 2.7501 0
M  V30 1968 C 185.706 1.74667 2.88085 0
M  V30 1969 O 186.236 1.19877 3.83396 0
M  V30 1970 N 184.442 1.44656 2.52038 0
M  V30 1971 H 183.989 1.89402 1.74599 0
M  V30 1972 H 183.947 0.759675 3.05084 0
M  V30 1973 N 187.719 -0.156864 1.56817 0
M  V30 1974 C 188.965 -0.872416 1.83076 0
M  V30 1975 C 189.298 -1.81261 0.697001 0
M  V30 1976 O 188.573 -1.92171 -0.30008 0
M  V30 1977 C 188.856 -1.65551 3.19789 0
M  V30 1978 C 188.709 -0.737467 4.43713 0
M  V30 1979 C 190.028 -2.62012 3.53606 0
M  V30 1980 H 187.147 -0.315715 0.665953 0
M  V30 1981 H 189.789 -0.138004 1.89498 0
M  V30 1982 H 187.939 -2.28159 3.14445 0
M  V30 1983 H 189.611 -0.123143 4.61136 0
M  V30 1984 H 187.854 -0.0464067 4.33775 0
M  V30 1985 H 188.525 -1.32122 5.35955 0
M  V30 1986 H 191.001 -2.09525 3.59497 0
M  V30 1987 H 189.877 -3.13861 4.50314 0
M  V30 1988 H 190.138 -3.42902 2.79053 0
M  V30 1989 N 189.197 -1.51736 -0.425897 0
M  V30 1990 C 190.425 -1.68794 -1.1965 0
M  V30 1991 C 190.84 -0.390164 -1.84725 0
M  V30 1992 O 190.197 0.632376 -1.71194 0
M  V30 1993 C 190.248 -2.81174 -2.27208 0
M  V30 1994 O 189.969 -4.05925 -1.64793 0
M  V30 1995 C 191.47 -3.09599 -3.17275 0
M  V30 1996 H 188.69 -0.566128 -0.360194 0
M  V30 1997 H 191.234 -1.98211 -0.503249 0
M  V30 1998 H 189.389 -2.54324 -2.9223 0
M  V30 1999 H 189.803 -4.68423 -2.35967 0
M  V30 2000 H 191.277 -3.91786 -3.88854 0
M  V30 2001 H 191.754 -2.22468 -3.78688 0
M  V30 2002 H 192.36 -3.38151 -2.57941 0
M  V30 2003 N 190.675 0.682077 -1.42076 0
M  V30 2004 C 191.585 1.82535 -1.47371 0
M  V30 2005 C 192.601 1.7017 -0.363079 0
M  V30 2006 O 193.777 1.91848 -0.612875 0
M  V30 2007 C 190.842 3.18624 -1.36674 0
M  V30 2008 C 189.903 3.42999 -2.58167 0
M  V30 2009 C 189.136 4.72595 -2.4797 0
M  V30 2010 O 189.359 5.50006 -1.5116 0
M  V30 2011 O 188.293 4.98054 -3.37974 0
M  V30 2012 H 192.119 1.81023 -2.43853 0
M  V30 2013 H 189.704 0.836887 -1.2376 0
M  V30 2014 H 191.586 3.99847 -1.33043 0
M  V30 2015 H 190.261 3.20789 -0.433138 0
M  V30 2016 H 189.168 2.61653 -2.67373 0
M  V30 2017 H 190.501 3.45659 -3.50401 0
M  V30 2018 N 192.153 1.28127 0.917671 0
M  V30 2019 C 193.378 1.18007 1.70555 0
M  V30 2020 C 193.803 -0.258257 1.86319 0
M  V30 2021 O 193.161 -1.1869 1.37049 0
M  V30 2022 C 193.209 1.87948 3.07746 0
M  V30 2023 O 192.313 1.18427 3.9503 0
M  V30 2024 H 191.654 0.409867 0.522403 0
M  V30 2025 H 194.184 1.69379 1.1477 0
M  V30 2026 H 194.194 1.95701 3.58001 0
M  V30 2027 H 192.869 2.92573 2.95591 0
M  V30 2028 H 191.446 1.18811 3.53466 0
M  V30 2029 N 193.631 -1.12557 1.10312 0
M  V30 2030 C 194.879 -1.83675 0.843091 0
M  V30 2031 C 195.2 -1.84435 -0.633131 0
M  V30 2032 O 194.47 -1.30657 -1.45964 0
M  V30 2033 H 193.05 -0.680138 0.308904 0
M  V30 2034 H 195.712 -1.36301 1.39313 0
M  V30 2035 H 194.808 -2.87908 1.2048 0
M  V30 2036 N 195.109 -0.891671 -1.2995 0
M  V30 2037 C 196.349 -0.520296 -1.97667 0
M  V30 2038 C 196.713 0.914797 -1.68806 0
M  V30 2039 O 197.914 1.39263 -2.29911 0
M  V30 2040 C 196.185 -0.795222 -3.48441 0
M  V30 2041 S 197.744 -0.526953 -4.35624 0
M  V30 2042 H 194.562 -0.19333 -0.684211 0
M  V30 2043 H 197.164 -1.15238 -1.57926 0
M  V30 2044 H 195.868 -1.83805 -3.66938 0
M  V30 2045 H 195.399 -0.15095 -3.9311 0
M  V30 2046 H 197.414 0.631533 -4.92165 0
M  V30 2047 N 196.587 1.43421 -0.653314 0
M  V30 2048 C 197.534 2.30768 0.0382271 0
M  V30 2049 C 198.504 1.44755 0.814576 0
M  V30 2050 O 199.689 1.73624 0.791162 0
M  V30 2051 C 196.829 3.30336 0.998599 0
M  V30 2052 C 195.942 4.31448 0.218342 0
M  V30 2053 C 195.077 5.18098 1.17252 0
M  V30 2054 C 194.116 6.10902 0.382702 0
M  V30 2055 N 193.253 6.90176 1.28848 0
M  V30 2056 H 198.093 2.89357 -0.712511 0
M  V30 2057 H 195.63 1.42548 -0.363128 0
M  V30 2058 H 197.588 3.86572 1.56901 0
M  V30 2059 H 196.218 2.73397 1.71621 0
M  V30 2060 H 195.27 3.77506 -0.46836 0
M  V30 2061 H 196.582 4.97227 -0.395812 0
M  V30 2062 H 195.736 5.7896 1.81356 0
M  V30 2063 H 194.475 4.52444 1.82058 0
M  V30 2064 H 193.48 5.49128 -0.27169 0
M  V30 2065 H 194.705 6.78598 -0.260957 0
M  V30 2066 H 192.651 6.27171 1.92334 0
M  V30 2067 H 192.568 7.52478 0.728887 0
M  V30 2068 H 193.836 7.55543 1.91766 0
M  V30 2069 N 198.065 0.39524 1.52563 0
M  V30 2070 C 198.975 -0.444232 2.30356 0
M  V30 2071 C 199.991 -1.06615 1.37511 0
M  V30 2072 O 201.167 -1.07067 1.70583 0
M  V30 2073 C 198.232 -1.55315 3.09964 0
M  V30 2074 C 197.293 -0.955734 4.18526 0
M  V30 2075 C 196.526 -2.01181 4.9433 0
M  V30 2076 O 196.749 -3.22781 4.70285 0
M  V30 2077 O 195.683 -1.62579 5.79527 0
M  V30 2078 H 199.509 0.189667 3.03107 0
M  V30 2079 H 197.094 0.1588 1.48554 0
M  V30 2080 H 198.976 -2.19724 3.59582 0
M  V30 2081 H 197.651 -2.17191 2.4002 0
M  V30 2082 H 196.558 -0.274743 3.7309 0
M  V30 2083 H 197.891 -0.381109 4.90722 0
M  V30 2084 N 199.544 -1.57102 0.125237 0
M  V30 2085 C 200.784 -1.97294 -0.534259 0
M  V30 2086 C 201.148 -1.0074 -1.63449 0
M  V30 2087 O 202.349 -1.29893 -2.35332 0
M  V30 2088 C 200.62 -3.41705 -1.04748 0
M  V30 2089 S 202.179 -4.03913 -1.71463 0
M  V30 2090 H 198.997 -0.689517 -0.173458 0
M  V30 2091 H 201.599 -1.94349 0.211797 0
M  V30 2092 H 200.303 -4.09723 -0.235649 0
M  V30 2093 H 199.834 -3.48315 -1.82867 0
M  V30 2094 H 201.849 -3.95182 -3.00077 0
M  V30 2095 N 201.022 0.148545 -1.56898 0
M  V30 2096 C 201.932 1.20293 -2.01412 0
M  V30 2097 C 202.948 1.47107 -0.929273 0
M  V30 2098 O 204.124 1.58807 -1.23863 0
M  V30 2099 C 201.189 2.51682 -2.38447 0
M  V30 2100 C 200.25 2.32529 -3.60872 0
M  V30 2101 C 199.483 3.57653 -3.96132 0
M  V30 2102 O 199.706 4.63771 -3.32073 0
M  V30 2103 O 198.64 3.50408 -4.89385 0
M  V30 2104 H 202.466 0.855025 -2.91416 0
M  V30 2105 H 200.051 0.357151 -1.45068 0
M  V30 2106 H 201.933 3.29147 -2.63135 0
M  V30 2107 H 200.608 2.86006 -1.51599 0
M  V30 2108 H 199.515 1.53019 -3.41373 0
M  V30 2109 H 200.848 2.03121 -4.48333 0
M  V30 2110 N 202.5 1.5196 0.417844 0
M  V30 2111 C 203.41 1.77554 1.53336 0
M  V30 2112 C 204.426 0.660655 1.6097 0
M  V30 2113 O 205.602 0.945099 1.77848 0
M  V30 2114 C 202.667 1.91291 2.89152 0
M  V30 2115 C 201.728 3.15183 2.91475 0
M  V30 2116 C 200.961 3.28256 4.20813 0
M  V30 2117 O 201.184 2.46798 5.14244 0
M  V30 2118 O 200.118 4.21356 4.29817 0
M  V30 2119 H 203.944 2.7222 1.34647 0
M  V30 2120 H 201.529 1.36698 0.602828 0
M  V30 2121 H 203.411 2.02199 3.69721 0
M  V30 2122 H 202.086 0.998129 3.07927 0
M  V30 2123 H 200.993 3.09739 2.09791 0
M  V30 2124 H 202.326 4.06414 2.77648 0
M  V30 2125 N 203.978 -0.674533 1.42435 0
M  V30 2126 C 204.908 -1.80009 1.48724 0
M  V30 2127 C 205.889 -1.6659 0.343793 0
M  V30 2128 O 207.074 -1.86007 0.558137 0
M  V30 2129 C 204.204 -3.18306 1.38919 0
M  V30 2130 C 203.158 -3.46461 2.51294 0
M  V30 2131 C 202.484 -4.84335 2.26547 0
M  V30 2132 C 203.784 -3.43328 3.93603 0
M  V30 2133 H 205.478 -1.75004 2.42928 0
M  V30 2134 H 203.024 -0.840533 1.16923 0
M  V30 2135 H 204.977 -3.9678 1.41927 0
M  V30 2136 H 203.701 -3.2399 0.412094 0
M  V30 2137 H 202.36 -2.70348 2.47604 0
M  V30 2138 H 202.008 -4.86669 1.2713 0
M  V30 2139 H 201.708 -5.04136 3.01861 0
M  V30 2140 H 203.232 -5.65094 2.31304 0
M  V30 2141 H 204.646 -4.11772 3.98894 0
M  V30 2142 H 203.043 -3.74664 4.68771 0
M  V30 2143 H 204.113 -2.41897 4.20255 0
M  V30 2144 N 205.456 -1.28612 -0.910864 0
M  V30 2145 C 206.366 -1.14643 -2.0468 0
M  V30 2146 C 207.382 -0.0723121 -1.7385 0
M  V30 2147 O 208.558 -0.282178 -1.99413 0
M  V30 2148 C 205.623 -0.812561 -3.37044 0
M  V30 2149 C 204.684 -1.96935 -3.81465 0
M  V30 2150 C 203.917 -1.65131 -5.07511 0
M  V30 2151 O 204.14 -0.567013 -5.67575 0
M  V30 2152 O 203.074 -2.49585 -5.47714 0
M  V30 2153 H 206.9 -2.1001 -2.19384 0
M  V30 2154 H 204.485 -1.07958 -1.03274 0
M  V30 2155 H 206.367 -0.640441 -4.16505 0
M  V30 2156 H 205.042 0.111426 -3.23508 0
M  V30 2157 H 203.949 -2.19664 -3.02818 0
M  V30 2158 H 205.282 -2.87414 -3.99567 0
M  V30 2159 N 206.934 1.1197 -1.10907 0
M  V30 2160 C 207.844 2.21433 -0.774896 0
M  V30 2161 C 208.86 1.72478 0.229657 0
M  V30 2162 O 210.036 2.01288 0.0672008 0
M  V30 2163 C 207.101 3.4602 -0.216986 0
M  V30 2164 C 206.162 4.09791 -1.27944 0
M  V30 2165 C 205.395 5.28431 -0.748055 0
M  V30 2166 O 205.618 5.68823 0.423833 0
M  V30 2167 O 204.552 5.82644 -1.51027 0
M  V30 2168 H 208.378 2.5242 -1.68873 0
M  V30 2169 H 205.963 1.20399 -0.884555 0
M  V30 2170 H 207.845 4.21304 0.090059 0
M  V30 2171 H 206.52 3.16698 0.669633 0
M  V30 2172 H 205.427 3.36265 -1.63941 0
M  V30 2173 H 206.76 4.4328 -2.13925 0
M  V30 2174 N 208.412 0.89855 1.29475 0
M  V30 2175 C 209.359 0.373819 2.27753 0
M  V30 2176 C 210.329 -0.543444 1.56958 0
M  V30 2177 O 211.514 -0.468934 1.84948 0
M  V30 2178 C 208.654 -0.393648 3.42848 0
M  V30 2179 C 207.767 0.554379 4.28428 0
M  V30 2180 C 206.902 -0.230026 5.30702 0
M  V30 2181 C 205.941 0.712599 6.07938 0
M  V30 2182 N 205.078 -0.0373283 7.0209 0
M  V30 2183 H 209.918 1.21699 2.72017 0
M  V30 2184 H 207.455 0.611456 1.33789 0
M  V30 2185 H 209.413 -0.85466 4.08352 0
M  V30 2186 H 208.043 -1.20128 2.99615 0
M  V30 2187 H 207.095 1.13391 3.63107 0
M  V30 2188 H 208.407 1.27597 4.82204 0
M  V30 2189 H 207.561 -0.752288 6.02018 0
M  V30 2190 H 206.3 -0.984758 4.77654 0
M  V30 2191 H 205.305 1.24637 5.35486 0
M  V30 2192 H 206.53 1.46664 6.63074 0
M  V30 2193 H 204.476 -0.774348 6.51414 0
M  V30 2194 H 204.393 0.624374 7.53417 0
M  V30 2195 H 205.661 -0.539891 7.77628 0
M  V30 2196 N 209.89 -1.43072 0.660911 0
M  V30 2197 C 210.838 -2.32569 -0.0378199 0
M  V30 2198 C 211.832 -1.49046 -0.805092 0
M  V30 2199 O 213.038 -1.65206 -0.714624 0
M  V30 2200 H 209.413 -0.75136 -0.031019 0
M  V30 2201 H 211.384 -2.89216 0.734609 0
M  V30 2202 C 210.133 -3.33453 -0.985124 0
M  V30 2203 H 209.456 -3.97752 -0.404147 0
M  V30 2204 H 210.896 -3.98691 -1.44297 0
M  V30 2205 C 209.355 -2.64642 -2.08486 0
M  V30 2206 O 209.885 -2.46776 -3.16961 0
M  V30 2207 N 208.091 -2.23891 -1.8526 0
M  V30 2208 H 207.638 -2.38621 -0.970449 0
M  V30 2209 H 207.596 -1.78181 -2.59034 0
M  V30 2210 N 211.368 -0.403325 -1.52352 0
M  V30 2211 C 212.617 0.175668 -2.00934 0
M  V30 2212 C 212.93 1.46718 -1.29356 0
M  V30 2213 O 214.136 2.12708 -1.68724 0
M  V30 2214 C 212.592 0.363612 -3.58058 0
M  V30 2215 C 212.2 -0.915472 -4.38547 0
M  V30 2216 C 213.944 0.89821 -4.14888 0
M  V30 2217 C 211.851 -0.695035 -5.87302 0
M  V30 2218 H 210.781 0.0694234 -0.750797 0
M  V30 2219 H 213.432 -0.527879 -1.75743 0
M  V30 2220 H 211.814 1.12935 -3.79555 0
M  V30 2221 H 212.988 -1.68691 -4.28812 0
M  V30 2222 H 211.303 -1.37606 -3.93006 0
M  V30 2223 H 213.9 1.07907 -5.23699 0
M  V30 2224 H 214.243 1.87126 -3.71873 0
M  V30 2225 H 214.776 0.191681 -3.97338 0
M  V30 2226 H 211.515 -1.63948 -6.34666 0
M  V30 2227 H 211.035 0.0372116 -5.99788 0
M  V30 2228 H 212.714 -0.33497 -6.46132 0
M  V30 2229 N 212.846 1.57033 -0.133567 0
M  V30 2230 C 213.793 2.16074 0.811208 0
M  V30 2231 C 214.763 1.08979 1.2535 0
M  V30 2232 O 215.948 1.36958 1.32843 0
M  V30 2233 C 213.088 2.77595 2.05024 0
M  V30 2234 C 212.201 3.99042 1.65498 0
M  V30 2235 C 211.336 4.48603 2.84479 0
M  V30 2236 C 210.375 5.62547 2.41262 0
M  V30 2237 N 209.512 6.06787 3.53206 0
M  V30 2238 H 214.352 2.96477 0.300906 0
M  V30 2239 H 211.889 1.46462 0.136822 0
M  V30 2240 H 213.847 3.11402 2.77642 0
M  V30 2241 H 212.477 1.99859 2.53488 0
M  V30 2242 H 211.529 3.71302 0.826981 0
M  V30 2243 H 212.841 4.81629 1.29748 0
M  V30 2244 H 211.995 4.84395 3.65303 0
M  V30 2245 H 210.734 3.64995 3.23465 0
M  V30 2246 H 209.739 5.26345 1.58874 0
M  V30 2247 H 210.964 6.47931 2.03377 0
M  V30 2248 H 208.91 5.26117 3.91838 0
M  V30 2249 H 208.827 6.84266 3.21427 0
M  V30 2250 H 210.095 6.4722 4.34427 0
M  V30 2251 N 214.325 -0.140222 1.56975 0
M  V30 2252 C 215.235 -1.19223 2.02047 0
M  V30 2253 C 216.251 -1.46612 0.937062 0
M  V30 2254 O 217.427 -1.58148 1.24704 0
M  V30 2255 C 214.492 -2.50414 2.39778 0
M  V30 2256 C 213.553 -2.30612 3.621 0
M  V30 2257 C 212.786 -3.55547 3.98023 0
M  V30 2258 O 213.009 -4.62004 3.34528 0
M  V30 2259 O 211.943 -3.47808 4.91237 0
M  V30 2260 H 215.769 -0.839559 2.91865 0
M  V30 2261 H 213.354 -0.349453 1.45256 0
M  V30 2262 H 215.236 -3.27747 2.64877 0
M  V30 2263 H 213.911 -2.85198 1.53114 0
M  V30 2264 H 212.818 -1.51207 3.4218 0
M  V30 2265 H 214.151 -2.00741 4.49404 0
M  V30 2266 N 215.803 -1.52179 -0.40978 0
M  V30 2267 C 217.05 -1.66206 -1.15679 0
M  V30 2268 C 217.378 -0.391674 -1.90516 0
M  V30 2269 O 216.633 0.62533 -1.8544 0
M  V30 2270 C 216.932 -2.83428 -2.17723 0
M  V30 2271 C 216.598 -4.21672 -1.59699 0
M  V30 2272 C 215.26 -4.59274 -1.43599 0
M  V30 2273 C 217.612 -5.07825 -1.17317 0
M  V30 2274 C 214.94 -5.80709 -0.836328 0
M  V30 2275 C 217.292 -6.29864 -0.587691 0
M  V30 2276 C 215.956 -6.66216 -0.413818 0
M  V30 2277 H 215.226 -0.608192 -0.423301 0
M  V30 2278 H 217.873 -1.86279 -0.444097 0
M  V30 2279 H 216.178 -2.57687 -2.95135 0
M  V30 2280 H 217.875 -2.91477 -2.75394 0
M  V30 2281 H 214.465 -3.9204 -1.73213 0
M  V30 2282 H 218.649 -4.79359 -1.28565 0
M  V30 2283 H 213.905 -6.07498 -0.689626 0
M  V30 2284 H 218.079 -6.95948 -0.250894 0
M  V30 2285 H 215.706 -7.60182 0.0529471 0
M  V30 2286 N 217.281 0.66697 -1.42791 0
M  V30 2287 C 218.211 1.79218 -1.49677 0
M  V30 2288 C 219.192 1.66405 -0.352623 0
M  V30 2289 O 220.377 1.85708 -0.567993 0
M  V30 2290 C 217.507 3.17565 -1.40605 0
M  V30 2291 C 216.461 3.45124 -2.53127 0
M  V30 2292 C 215.787 4.83127 -2.29112 0
M  V30 2293 C 217.087 3.41236 -3.95418 0
M  V30 2294 H 218.781 1.73713 -2.43853 0
M  V30 2295 H 216.327 0.83432 -1.17367 0
M  V30 2296 H 218.28 3.96022 -1.44029 0
M  V30 2297 H 217.004 3.23767 -0.429271 0
M  V30 2298 H 215.663 2.69031 -2.49034 0
M  V30 2299 H 215.311 4.85988 -1.29709 0
M  V30 2300 H 215.011 5.02528 -3.04531 0
M  V30 2301 H 216.535 5.63859 -2.34297 0
M  V30 2302 H 217.949 4.09651 -4.01073 0
M  V30 2303 H 216.346 3.72173 -4.70752 0
M  V30 2304 H 217.416 2.39665 -4.21532 0
M  V30 2305 N 218.759 1.29093 0.90403 0
M  V30 2306 C 219.691 1.09658 2.01266 0
M  V30 2307 C 220.704 0.0453729 1.62737 0
M  V30 2308 O 221.893 0.289446 1.76138 0
M  V30 2309 C 218.993 0.646278 3.32681 0
M  V30 2310 C 218.166 1.77505 3.99763 0
M  V30 2311 C 217.225 1.31649 5.09465 0
M  V30 2312 O 216.251 2.02045 5.32134 0
M  V30 2313 N 217.453 0.184997 5.80205 0
M  V30 2314 H 220.218 2.05135 2.18494 0
M  V30 2315 H 217.779 1.20975 1.07594 0
M  V30 2316 H 219.771 0.322906 4.0341 0
M  V30 2317 H 218.341 -0.215916 3.11853 0
M  V30 2318 H 217.561 2.26752 3.22455 0
M  V30 2319 H 218.849 2.53198 4.41325 0
M  V30 2320 H 218.247 -0.402021 5.6427 0
M  V30 2321 H 216.804 -0.0790358 6.51752 0
M  V30 2322 N 220.237 -1.11381 1.11499 0
M  V30 2323 C 221.462 -1.87475 0.887019 0
M  V30 2324 C 221.887 -1.79639 -0.557796 0
M  V30 2325 O 221.245 -1.15924 -1.39396 0
M  V30 2326 C 221.293 -3.34213 1.35403 0
M  V30 2327 O 220.397 -4.0903 0.526146 0
M  V30 2328 H 219.738 -0.582099 0.319463 0
M  V30 2329 H 222.268 -1.40785 1.48461 0
M  V30 2330 H 222.278 -3.8506 1.34881 0
M  V30 2331 H 220.953 -3.39232 2.40612 0
M  V30 2332 H 219.53 -3.68082 0.597522 0
M  V30 2333 N 221.715 -0.905404 -1.28997 0
M  V30 2334 C 222.962 -0.534248 -1.95325 0
M  V30 2335 C 223.29 0.920535 -1.71337 0
M  V30 2336 O 222.545 1.66861 -1.02254 0
M  V30 2337 C 222.844 -0.779906 -3.48787 0
M  V30 2338 C 222.51 -2.21293 -3.92861 0
M  V30 2339 C 221.172 -2.60475 -4.04606 0
M  V30 2340 C 223.524 -3.14587 -4.15553 0
M  V30 2341 C 220.852 -3.9212 -4.36416 0
M  V30 2342 C 223.204 -4.45787 -4.48839 0
M  V30 2343 C 221.868 -4.84834 -4.58794 0
M  V30 2344 H 221.138 -0.195495 -0.714747 0
M  V30 2345 H 223.785 -1.14514 -1.53488 0
M  V30 2346 H 222.09 -0.0861365 -3.91705 0
M  V30 2347 H 223.787 -0.472029 -3.98212 0
M  V30 2348 H 220.377 -1.89887 -3.84241 0
M  V30 2349 H 224.561 -2.85528 -4.0594 0
M  V30 2350 H 219.817 -4.22086 -4.42327 0
M  V30 2351 H 223.991 -5.18098 -4.65346 0
M  V30 2352 H 221.618 -5.86877 -4.83197 0
M  V30 2353 N 223.193 1.4272 -0.668489 0
M  V30 2354 C 224.439 2.01923 -0.188419 0
M  V30 2355 C 224.772 1.52704 1.19979 0
M  V30 2356 O 224.047 0.726566 1.8042 0
M  V30 2357 C 224.33 3.59451 -0.216085 0
M  V30 2358 C 224.183 4.18864 -1.6393 0
M  V30 2359 C 225.502 4.37903 0.439179 0
M  V30 2360 H 222.621 0.733674 -0.0699412 0
M  V30 2361 H 225.263 1.69822 -0.852076 0
M  V30 2362 H 223.413 3.86929 0.349012 0
M  V30 2363 H 225.085 4.02362 -2.25616 0
M  V30 2364 H 223.328 3.74933 -2.18193 0
M  V30 2365 H 223.999 5.27987 -1.61039 0
M  V30 2366 H 226.475 4.16079 -0.0417878 0
M  V30 2367 H 225.351 5.47519 0.389157 0
M  V30 2368 H 225.612 4.15303 1.51577 0
M  V30 2369 N 224.671 0.411399 1.52136 0
M  V30 2370 C 225.621 -0.430376 2.23901 0
M  V30 2371 C 226.605 -1.0116 1.25121 0
M  V30 2372 O 227.797 -0.934044 1.50348 0
M  V30 2373 C 224.926 -1.54527 3.06556 0
M  V30 2374 C 224.012 -0.9747 4.12747 0
M  V30 2375 N 224.403 -0.130991 5.0563 0
M  V30 2376 C 222.701 -1.24497 4.28271 0
M  V30 2377 C 223.402 0.186689 5.814 0
M  V30 2378 N 222.378 -0.42304 5.41951 0
M  V30 2379 H 226.18 0.220509 2.93072 0
M  V30 2380 H 223.694 0.221952 1.60876 0
M  V30 2381 H 225.691 -2.16093 3.56524 0
M  V30 2382 H 224.351 -2.19875 2.38925 0
M  V30 2383 H 225.362 0.23349 5.17373 0
M  V30 2384 H 222.039 -1.89787 3.7187 0
M  V30 2385 H 223.429 0.871673 6.66222 0
M  V30 2386 N 226.149 -1.5696 0.141893 0
M  V30 2387 C 227.398 -1.95135 -0.510427 0
M  V30 2388 C 227.711 -1.02896 -1.66348 0
M  V30 2389 O 228.917 -1.30629 -2.38009 0
M  V30 2390 C 227.373 -3.46876 -0.959427 0
M  V30 2391 C 226.981 -4.47691 0.166419 0
M  V30 2392 C 228.725 -3.93927 -1.58183 0
M  V30 2393 C 226.632 -5.90636 -0.300565 0
M  V30 2394 H 225.562 -0.728494 -0.194454 0
M  V30 2395 H 228.213 -1.8211 0.22542 0
M  V30 2396 H 226.595 -3.55215 -1.75038 0
M  V30 2397 H 227.769 -4.51043 0.94325 0
M  V30 2398 H 226.084 -4.10527 0.696905 0
M  V30 2399 H 228.681 -4.98158 -1.94275 0
M  V30 2400 H 229.024 -3.3519 -2.46888 0
M  V30 2401 H 229.557 -3.88484 -0.855863 0
M  V30 2402 H 226.296 -6.5318 0.550989 0
M  V30 2403 H 225.816 -5.90655 -1.04338 0
M  V30 2404 H 227.495 -6.42588 -0.754265 0
M  V30 2405 N 227.627 0.131896 -1.57047 0
M  V30 2406 C 228.873 0.843179 -1.84441 0
M  V30 2407 C 229.206 1.80129 -0.725749 0
M  V30 2408 O 228.481 1.92624 0.269469 0
M  V30 2409 C 228.764 1.60442 -3.22382 0
M  V30 2410 C 228.617 0.666782 -4.4483 0
M  V30 2411 C 229.936 2.56354 -3.5773 0
M  V30 2412 H 227.055 0.305081 -0.670891 0
M  V30 2413 H 229.697 0.107839 -1.89694 0
M  V30 2414 H 227.847 2.23128 -3.18035 0
M  V30 2415 H 229.519 0.0497646 -4.61273 0
M  V30 2416 H 227.762 -0.022609 -4.33794 0
M  V30 2417 H 228.433 1.23579 -5.37989 0
M  V30 2418 H 230.909 2.0378 -3.62785 0
M  V30 2419 H 229.785 3.06657 -4.5525 0
M  V30 2420 H 230.046 3.38419 -2.84473 0
M  V30 2421 N 229.106 1.52395 0.401703 0
M  V30 2422 C 230.038 1.72505 1.50912 0
M  V30 2423 C 231.051 0.605468 1.51122 0
M  V30 2424 O 232.24 0.880828 1.55254 0
M  V30 2425 C 229.34 1.75711 2.89791 0
M  V30 2426 C 228.513 3.04824 3.1369 0
M  V30 2427 C 227.572 2.99743 4.32482 0
M  V30 2428 O 226.598 3.73635 4.29402 0
M  V30 2429 N 227.8 2.18047 5.37992 0
M  V30 2430 H 230.565 2.68049 1.34052 0
M  V30 2431 H 228.126 1.50724 0.591084 0
M  V30 2432 H 230.118 1.69834 3.6734 0
M  V30 2433 H 228.688 0.876092 3.00072 0
M  V30 2434 H 227.908 3.2429 2.24119 0
M  V30 2435 H 229.196 3.90221 3.26504 0
M  V30 2436 H 228.594 1.57456 5.43345 0
M  V30 2437 H 227.151 2.18021 6.14256 0
M  V30 2438 N 230.584 -0.659388 1.43143 0
M  V30 2439 C 231.517 -1.78425 1.42267 0
M  V30 2440 C 232.495 -1.60085 0.284894 0
M  V30 2441 O 233.679 -1.82351 0.477527 0
M  V30 2442 C 230.806 -3.15642 1.22833 0
M  V30 2443 C 229.852 -3.52698 2.39806 0
M  V30 2444 S 230.685 -3.53372 4.02353 0
M  V30 2445 C 231.841 -4.93256 3.85291 0
M  V30 2446 H 232.074 -1.78897 2.37452 0
M  V30 2447 H 229.607 -0.831469 1.301 0
M  V30 2448 H 231.565 -3.94838 1.12308 0
M  V30 2449 H 230.226 -3.12739 0.29207 0
M  V30 2450 H 229.419 -4.52475 2.21996 0
M  V30 2451 H 229.021 -2.80899 2.46925 0
M  V30 2452 H 231.313 -5.81751 3.47235 0
M  V30 2453 H 232.256 -5.16115 4.84799 0
M  V30 2454 H 232.664 -4.665 3.17865 0
M  V30 2455 N 232.062 -1.29571 -0.897171 0
M  V30 2456 C 233.309 -1.17689 -1.6479 0
M  V30 2457 C 233.637 0.27107 -1.92602 0
M  V30 2458 O 232.892 1.21193 -1.53658 0
M  V30 2459 C 233.191 -1.9382 -3.00281 0
M  V30 2460 C 232.857 -3.43522 -2.92068 0
M  V30 2461 C 231.519 -3.84348 -2.89535 0
M  V30 2462 C 233.871 -4.38906 -2.81089 0
M  V30 2463 C 231.199 -5.18869 -2.73846 0
M  V30 2464 C 233.551 -5.73521 -2.66939 0
M  V30 2465 C 232.215 -6.13601 -2.62774 0
M  V30 2466 H 231.485 -0.430654 -0.603008 0
M  V30 2467 H 234.132 -1.60536 -1.04404 0
M  V30 2468 H 232.437 -1.4357 -3.64547 0
M  V30 2469 H 234.134 -1.82028 -3.57305 0
M  V30 2470 H 230.724 -3.11072 -2.94842 0
M  V30 2471 H 234.908 -4.08315 -2.82121 0
M  V30 2472 H 230.164 -5.4903 -2.69027 0
M  V30 2473 H 234.338 -6.47078 -2.57416 0
M  V30 2474 H 231.965 -7.17786 -2.50375 0
M  V30 2475 N 233.54 1.10788 -1.12088 0
M  V30 2476 C 234.789 1.82036 -0.868659 0
M  V30 2477 C 235.102 1.85929 0.607426 0
M  V30 2478 O 236.308 2.53346 0.97613 0
M  V30 2479 C 234.764 3.26951 -1.50435 0
M  V30 2480 C 234.372 3.31367 -3.01496 0
M  V30 2481 C 236.116 4.03053 -1.33225 0
M  V30 2482 C 234.023 4.7072 -3.58017 0
M  V30 2483 H 232.953 0.682108 -0.321318 0
M  V30 2484 H 235.604 1.24618 -1.34694 0
M  V30 2485 H 233.986 3.84343 -0.953735 0
M  V30 2486 H 235.16 2.83819 -3.6302 0
M  V30 2487 H 233.475 2.6875 -3.18061 0
M  V30 2488 H 236.072 5.05981 -1.72878 0
M  V30 2489 H 236.415 4.15387 -0.275529 0
M  V30 2490 H 236.948 3.52066 -1.85188 0
M  V30 2491 H 233.687 4.63585 -4.63432 0
M  V30 2492 H 233.207 5.1865 -3.01268 0
M  V30 2493 H 234.886 5.39685 -3.56859 0
M  V30 2494 N 235.018 0.912232 1.28515 0
M  V30 2495 C 235.966 0.389597 2.29314 0
M  V30 2496 C 236.96 -0.517915 1.61289 0
M  V30 2497 O 238.166 -0.399328 1.75515 0
M  V30 2498 H 234.541 0.107386 0.744293 0
M  V30 2499 H 236.512 1.25286 2.70825 0
M  V30 2500 C 235.261 -0.356496 3.45868 0
M  V30 2501 H 234.584 0.332608 3.98414 0
M  V30 2502 H 236.024 -0.686851 4.184 0
M  V30 2503 C 234.483 -1.56383 2.98406 0
M  V30 2504 O 235.013 -2.66294 3.00749 0
M  V30 2505 N 233.219 -1.41029 2.54085 0
M  V30 2506 H 232.766 -0.516089 2.52377 0
M  V30 2507 H 232.724 -2.21939 2.22689 0
M  V30 2508 N 236.496 -1.42363 0.676048 0
M  V30 2509 C 237.724 -2.05859 0.207268 0
M  V30 2510 C 238.139 -1.50796 -1.13605 0
M  V30 2511 O 237.496 -0.648265 -1.70598 0
M  V30 2512 C 237.547 -3.61248 0.134975 0
M  V30 2513 O 237.268 -4.1427 1.42521 0
M  V30 2514 C 238.769 -4.41859 -0.357151 0
M  V30 2515 H 235.989 -0.663431 0.100503 0
M  V30 2516 H 238.533 -1.82479 0.923136 0
M  V30 2517 H 236.688 -3.83735 -0.531588 0
M  V30 2518 H 237.102 -5.0815 1.29939 0
M  V30 2519 H 238.576 -5.50847 -0.356641 0
M  V30 2520 H 239.053 -4.16536 -1.39264 0
M  V30 2521 H 239.659 -4.24392 0.27772 0
M  V30 2522 N 237.974 -0.419461 -1.51915 0
M  V30 2523 C 239.199 0.154572 -2.06823 0
M  V30 2524 C 239.624 1.3722 -1.28656 0
M  V30 2525 O 238.982 1.78461 -0.319583 0
M  V30 2526 C 239.03 0.473172 -3.57482 0
M  V30 2527 O 238.134 1.56255 -3.81652 0
M  V30 2528 H 237.475 0.0096924 -0.663929 0
M  V30 2529 H 240.005 -0.595642 -1.95738 0
M  V30 2530 H 240.015 0.728825 -4.01438 0
M  V30 2531 H 238.69 -0.416873 -4.13805 0
M  V30 2532 H 237.267 1.29825 -3.49571 0
M  V30 2533 O 239.491 1.58856 -0.291037 0
M  V30 2534 H 240.182 1.91728 0.275667 0
M  V30 END ATOM
M  V30 BEGIN BOND
M  V30 END BOND
M  V30 END CTAB
M  END
$$$$
