drugbank_target|P40939 Trifunctional enzyme subunit alpha, mitochondrial (DB00157)
 OpenBabel12092119283D

  0  0  0     0  0            999 V3000
M  V30 BEGIN CTAB
M  V30 COUNTS 11877 11969 0 0 0
M  V30 BEGIN ATOM
M  V30 1 H -0.908 1.98254 -0.117106 0
M  V30 2 N 0 1.576 0 0
M  V30 3 C 0.933 2.03868 1.02534 0
M  V30 4 C 1.911 0.928543 1.3348 0
M  V30 5 O 3.095 1.19667 1.45644 0
M  V30 6 C 0.222 2.43627 2.35294 0
M  V30 7 C -0.732 3.65373 2.2001 0
M  V30 8 S 0.101 5.13292 1.52614 0
M  V30 9 C 1.257 5.56322 2.86805 0
M  V30 10 H 1.49 2.90518 0.631377 0
M  V30 11 H -0.977 1.52953 0.210867 0
M  V30 12 H 0.981 2.67203 3.11629 0
M  V30 13 H -0.358 1.57376 2.7183 0
M  V30 14 H -1.165 3.90944 3.18086 0
M  V30 15 H -1.563 3.418 1.51819 0
M  V30 16 H 0.729 5.58782 3.83104 0
M  V30 17 H 1.672 6.56266 2.65933 0
M  V30 18 H 2.08 4.83886 2.90714 0
M  V30 19 N 1.4781 -0.272755 1.55222 0
M  V30 20 C 2.7241 -1.00581 1.761 0
M  V30 21 C 3.0571 -1.85932 0.560625 0
M  V30 22 O 2.3321 -1.89416 -0.441801 0
M  V30 23 C 2.6151 -1.88816 3.06628 0
M  V30 24 C 2.4681 -1.06457 4.37021 0
M  V30 25 C 3.7871 -2.8752 3.33197 0
M  V30 26 H 0.9061 -0.364244 0.640699 0
M  V30 27 H 3.5481 -0.278189 1.87952 0
M  V30 28 H 1.6981 -2.50856 2.96654 0
M  V30 29 H 3.3701 -0.464863 4.58952 0
M  V30 30 H 1.6131 -0.368043 4.32236 0
M  V30 31 H 2.2841 -1.71514 5.24678 0
M  V30 32 H 4.7601 -2.35615 3.42965 0
M  V30 33 H 3.6361 -3.46399 4.25792 0
M  V30 34 H 3.8971 -3.62657 2.52849 0
M  V30 35 N 2.9562 -1.48159 -0.537278 0
M  V30 36 C 3.9192 -1.61665 -1.62472 0
M  V30 37 C 4.9192 -0.490395 -1.5314 0
M  V30 38 O 6.1092 -0.755998 -1.5694 0
M  V30 39 C 3.2412 -1.57997 -3.02076 0
M  V30 40 H 4.4342 -2.58621 -1.51839 0
M  V30 41 H 1.9872 -1.36647 -0.758771 0
M  V30 42 H 2.7222 -0.624913 -3.18222 0
M  V30 43 H 2.5072 -2.39755 -3.10258 0
M  V30 44 H 3.9972 -1.70627 -3.81151 0
M  V30 45 N 4.4343 0.785586 -1.36625 0
M  V30 46 C 5.6743 1.55678 -1.32453 0
M  V30 47 C 6.0383 1.91769 0.0941089 0
M  V30 48 O 7.2393 2.67536 0.26042 0
M  V30 49 C 5.5103 2.79701 -2.22491 0
M  V30 50 S 7.0693 3.69907 -2.36038 0
M  V30 51 H 3.8873 0.533141 -0.470405 0
M  V30 52 H 6.4893 0.924953 -1.72235 0
M  V30 53 H 5.1933 2.51244 -3.24507 0
M  V30 54 H 4.7243 3.47854 -1.83742 0
M  V30 55 H 6.7393 4.71016 -1.56072 0
M  V30 56 N 5.9124 1.20967 1.01018 0
M  V30 57 C 7.3284 0.965905 1.27053 0
M  V30 58 C 7.5284 -0.350785 1.98423 0
M  V30 59 O 6.5844 -1.07773 2.28344 0
M  V30 60 C 7.8974 2.15294 2.09926 0
M  V30 61 C 9.4454 2.19463 2.23171 0
M  V30 62 C 9.9204 3.3767 3.09424 0
M  V30 63 N 11.4114 3.37724 3.17012 0
M  V30 64 C 12.1464 4.25837 3.83993 0
M  V30 65 N 11.6424 5.24138 4.53047 0
M  V30 66 N 13.4354 4.1366 3.80581 0
M  V30 67 H 5.5864 2.0565 0.531194 0
M  V30 68 H 7.8494 0.90024 0.297106 0
M  V30 69 H 7.5554 3.10684 1.64828 0
M  V30 70 H 7.4294 2.13923 3.10672 0
M  V30 71 H 9.8164 1.24632 2.6749 0
M  V30 72 H 9.8974 2.2488 1.21912 0
M  V30 73 H 9.5414 4.32791 2.65808 0
M  V30 74 H 9.4714 3.29491 4.10784 0
M  V30 75 H 11.9624 2.6658 2.6785 0
M  V30 76 H 12.2754 5.87684 5.01844 0
M  V30 77 H 10.6204 5.28068 4.5185 0
M  V30 78 H 13.8114 3.36127 3.25785 0
M  V30 79 H 13.9844 4.82538 4.32505 0
M  V30 80 N 7.3905 -1.2043 1.01659 0
M  V30 81 C 8.3535 -2.21433 0.591616 0
M  V30 82 C 9.3535 -1.57203 -0.338226 0
M  V30 83 O 10.5435 -1.73737 -0.126918 0
M  V30 84 C 7.6755 -3.40628 -0.136058 0
M  V30 85 H 8.8685 -2.60545 1.48514 0
M  V30 86 H 6.4215 -1.33893 0.806379 0
M  V30 87 H 7.1565 -3.07019 -1.04449 0
M  V30 88 H 6.9415 -3.88475 0.531917 0
M  V30 89 H 8.4315 -4.15475 -0.420735 0
M  V30 90 N 8.8686 -0.792821 -1.36206 0
M  V30 91 C 10.1176 -0.363353 -1.984 0
M  V30 92 C 10.4306 1.07172 -1.63626 0
M  V30 93 O 11.6366 1.60362 -2.19081 0
M  V30 94 C 10.0926 -0.59872 -3.54885 0
M  V30 95 C 9.7006 -2.04543 -3.9858 0
M  V30 96 C 11.4446 -0.233926 -4.23855 0
M  V30 97 C 9.3516 -2.22727 -5.47856 0
M  V30 98 H 8.2816 -0.13212 -0.742334 0
M  V30 99 H 10.9326 -0.974935 -1.55458 0
M  V30 100 H 9.3146 0.0826222 -3.95914 0
M  V30 101 H 10.4886 -2.76345 -3.68741 0
M  V30 102 H 8.8036 -2.36879 -3.42458 0
M  V30 103 H 11.4006 -0.348027 -5.33566 0
M  V30 104 H 11.7436 0.818351 -4.08177 0
M  V30 105 H 12.2766 -0.868639 -3.882 0
M  V30 106 H 9.0156 -3.2635 -5.68486 0
M  V30 107 H 8.5356 -1.55434 -5.7931 0
M  V30 108 H 10.2146 -2.03607 -6.14128 0
M  V30 109 N 10.3467 1.47872 -0.545128 0
M  V30 110 C 11.5947 2.02093 -0.016553 0
M  V30 111 C 11.9157 1.42305 1.3332 0
M  V30 112 O 11.1857 0.593853 1.86682 0
M  V30 113 H 9.7657 0.746993 -0.00313038 0
M  V30 114 H 12.4277 1.81414 -0.712397 0
M  V30 115 H 11.5237 3.11996 0.0805422 0
M  V30 116 N 11.8248 0.280983 1.55075 0
M  V30 117 C 13.0738 -0.334784 1.98902 0
M  V30 118 C 13.3868 -1.56534 1.17288 0
M  V30 119 O 14.5928 -2.25443 1.51287 0
M  V30 120 C 13.0488 -0.646994 3.54037 0
M  V30 121 C 12.6568 0.564085 4.44435 0
M  V30 122 C 14.4008 -1.22506 4.06439 0
M  V30 123 C 12.3078 0.226137 5.90967 0
M  V30 124 H 11.2378 -0.128866 0.742906 0
M  V30 125 H 13.8888 0.386556 1.79382 0
M  V30 126 H 12.2708 -1.42739 3.6938 0
M  V30 127 H 13.4448 1.34082 4.40861 0
M  V30 128 H 11.7598 1.0594 4.02698 0
M  V30 129 H 14.3568 -1.49182 5.13468 0
M  V30 130 H 14.6998 -2.16085 3.55827 0
M  V30 131 H 15.2328 -0.50682 3.94558 0
M  V30 132 H 11.9718 1.12996 6.45687 0
M  V30 133 H 11.4918 -0.513717 5.97596 0
M  V30 134 H 13.1708 -0.179539 6.46751 0
M  V30 135 N 13.3029 -1.57598 0.00835791 0
M  V30 136 C 14.2329 -2.1198 -0.979113 0
M  V30 137 C 15.2139 -1.03091 -1.35301 0
M  V30 138 O 16.3989 -1.30818 -1.43528 0
M  V30 139 C 13.5289 -2.62995 -2.26828 0
M  V30 140 C 12.4829 -3.76485 -2.03576 0
M  V30 141 C 11.8089 -4.13846 -3.38579 0
M  V30 142 C 13.1089 -5.0342 -1.39161 0
M  V30 143 H 14.8029 -2.94738 -0.526281 0
M  V30 144 H 12.3489 -1.41783 -0.251704 0
M  V30 145 H 14.3019 -2.99669 -2.96271 0
M  V30 146 H 13.0259 -1.7737 -2.7424 0
M  V30 147 H 11.6849 -3.40217 -1.36557 0
M  V30 148 H 11.3329 -3.25232 -3.83709 0
M  V30 149 H 11.0329 -4.90312 -3.23834 0
M  V30 150 H 12.5569 -4.53086 -4.09323 0
M  V30 151 H 13.9709 -5.37812 -1.98573 0
M  V30 152 H 12.3679 -5.84746 -1.34878 0
M  V30 153 H 13.4379 -4.83548 -0.361868 0
M  V30 154 N 14.781 0.264519 -1.55364 0
M  V30 155 C 16.006 1.01726 -1.80739 0
M  V30 156 C 16.431 1.78836 -0.583044 0
M  V30 157 O 15.789 1.75167 0.467566 0
M  V30 158 C 15.837 1.94482 -3.03659 0
M  V30 159 O 14.941 3.03386 -2.7934 0
M  V30 160 H 14.282 0.290395 -0.597132 0
M  V30 161 H 16.812 0.290854 -2.02522 0
M  V30 162 H 16.822 2.36278 -3.32621 0
M  V30 163 H 15.497 1.37772 -3.92418 0
M  V30 164 H 14.074 2.65844 -2.61498 0
M  V30 165 N 16.2591 1.48442 0.529413 0
M  V30 166 C 17.6751 1.34575 0.858004 0
M  V30 167 C 17.8751 0.3572 1.98309 0
M  V30 168 O 16.9311 -0.221379 2.51528 0
M  V30 169 C 18.2441 2.74617 1.22499 0
M  V30 170 C 19.7921 2.83109 1.33484 0
M  V30 171 C 20.2671 4.23854 1.73526 0
M  V30 172 N 21.7581 4.2653 1.80628 0
M  V30 173 C 22.4931 5.32372 2.12997 0
M  V30 174 N 21.9891 6.48491 2.43786 0
M  V30 175 N 23.7821 5.19766 2.14008 0
M  V30 176 H 15.9331 2.1133 -0.212925 0
M  V30 177 H 18.1961 0.947439 -0.0326199 0
M  V30 178 H 17.9021 3.4852 0.471905 0
M  V30 179 H 17.7761 3.08177 2.17501 0
M  V30 180 H 20.1631 2.09462 2.0787 0
M  V30 181 H 20.2441 2.53168 0.366027 0
M  V30 182 H 19.8881 4.98018 0.997013 0
M  V30 183 H 19.8181 4.5124 2.71459 0
M  V30 184 H 22.3091 3.42772 1.59108 0
M  V30 185 H 22.6221 7.24993 2.67592 0
M  V30 186 H 20.9671 6.51765 2.41304 0
M  V30 187 H 24.1581 4.28066 1.89412 0
M  V30 188 H 24.3311 6.02354 2.38902 0
M  V30 189 N 17.7372 -0.778329 1.37039 0
M  V30 190 C 18.9842 -1.53665 1.31884 0
M  V30 191 C 19.3122 -1.9425 -0.0986303 0
M  V30 192 O 18.5672 -1.63832 -1.07041 0
M  V30 193 C 18.8662 -2.81845 2.19768 0
M  V30 194 C 18.5322 -2.60345 3.68146 0
M  V30 195 C 17.1942 -2.5419 4.08584 0
M  V30 196 C 19.5462 -2.40923 4.62175 0
M  V30 197 C 16.8742 -2.26594 5.41177 0
M  V30 198 C 19.2262 -2.14852 5.94997 0
M  V30 199 C 17.8902 -2.07137 6.34547 0
M  V30 200 H 17.1602 -0.562299 0.482598 0
M  V30 201 H 19.8072 -0.897069 1.69189 0
M  V30 202 H 18.1122 -3.50328 1.75436 0
M  V30 203 H 19.8092 -3.39692 2.13097 0
M  V30 204 H 16.3992 -2.65996 3.36072 0
M  V30 205 H 20.5832 -2.44673 4.31797 0
M  V30 206 H 15.8392 -2.19111 5.70789 0
M  V30 207 H 20.0132 -1.98822 6.67415 0
M  V30 208 H 17.6402 -1.85518 7.37216 0
M  V30 209 N 19.2153 -1.21501 -1.00376 0
M  V30 210 C 20.4403 -1.05977 -1.78279 0
M  V30 211 C 20.8653 0.385994 -1.84097 0
M  V30 212 O 20.2233 1.27849 -1.28547 0
M  V30 213 C 20.2713 -1.66302 -3.19963 0
M  V30 214 O 19.3753 -0.909333 -4.0225 0
M  V30 215 H 18.7163 -0.372906 -0.549397 0
M  V30 216 H 21.2463 -1.6107 -1.26165 0
M  V30 217 H 21.2563 -1.70574 -3.70632 0
M  V30 218 H 19.9313 -2.71515 -3.15043 0
M  V30 219 H 18.5083 -0.941795 -3.60811 0
M  V30 220 N 20.6934 1.19889 -1.02296 0
M  V30 221 C 21.6564 2.21116 -0.603351 0
M  V30 222 C 22.6564 1.5738 0.329884 0
M  V30 223 O 23.8464 1.73802 0.117702 0
M  V30 224 C 20.9784 3.40696 0.117992 0
M  V30 225 H 22.1714 2.59754 -1.49893 0
M  V30 226 H 19.7244 1.33463 -0.813468 0
M  V30 227 H 20.4594 3.07569 1.0282 0
M  V30 228 H 20.2444 3.88188 -0.552511 0
M  V30 229 H 21.7344 4.15692 0.398696 0
M  V30 230 N 22.1715 0.800033 1.35784 0
M  V30 231 C 23.4185 0.377342 1.98953 0
M  V30 232 C 23.7465 -1.05378 1.6348 0
M  V30 233 O 23.0015 -1.74459 0.886707 0
M  V30 234 C 23.3005 0.500276 3.53881 0
M  V30 235 C 22.9665 1.89375 4.09204 0
M  V30 236 C 21.6285 2.27499 4.24025 0
M  V30 237 C 23.9805 2.8057 4.39238 0
M  V30 238 C 21.3085 3.562 4.66195 0
M  V30 239 C 23.6605 4.0871 4.82844 0
M  V30 240 C 22.3245 4.46843 4.95871 0
M  V30 241 H 21.5945 0.138079 0.728021 0
M  V30 242 H 24.2415 1.01955 1.62103 0
M  V30 243 H 22.5465 -0.225405 3.91151 0
M  V30 244 H 24.2435 0.154097 4.00704 0
M  V30 245 H 20.8335 1.58753 3.98115 0
M  V30 246 H 25.0175 2.52367 4.27346 0
M  V30 247 H 20.2735 3.85602 4.74469 0
M  V30 248 H 24.4475 4.79481 5.05046 0
M  V30 249 H 22.0745 5.46623 5.28306 0
M  V30 250 N 23.6496 -1.47581 0.552962 0
M  V30 251 C 25.0656 -1.5818 0.212424 0
M  V30 252 C 25.2656 -1.55213 -1.28496 0
M  V30 253 O 24.3216 -1.45329 -2.06484 0
M  V30 254 C 25.6346 -2.88865 0.835318 0
M  V30 255 C 27.1826 -3.0244 0.806156 0
M  V30 256 C 27.6576 -4.35819 1.40804 0
M  V30 257 N 29.1486 -4.42444 1.37103 0
M  V30 258 C 29.8836 -5.44202 1.80641 0
M  V30 259 N 29.3796 -6.52795 2.32015 0
M  V30 260 N 31.1726 -5.35222 1.71738 0
M  V30 261 H 23.3236 -1.47753 1.52587 0
M  V30 262 H 25.5866 -0.702941 0.636064 0
M  V30 263 H 25.2926 -2.9676 1.88749 0
M  V30 264 H 25.1666 -3.7579 0.325848 0
M  V30 265 H 27.5536 -2.94144 -0.237317 0
M  V30 266 H 27.6346 -2.17068 1.35334 0
M  V30 267 H 27.2786 -4.44871 2.45056 0
M  V30 268 H 27.2086 -5.19916 0.836338 0
M  V30 269 H 29.6996 -3.6456 0.995202 0
M  V30 270 H 30.0126 -7.26609 2.63171 0
M  V30 271 H 28.3576 -6.53696 2.36023 0
M  V30 272 H 31.5486 -4.49284 1.31382 0
M  V30 273 H 31.7216 -6.14389 2.05987 0
M  V30 274 N 25.1277 -0.289203 -1.54924 0
M  V30 275 C 26.3767 0.324231 -1.99077 0
M  V30 276 C 26.6897 1.5591 -1.18117 0
M  V30 277 O 27.8957 2.24637 -1.52481 0
M  V30 278 C 26.3517 0.628209 -3.54375 0
M  V30 279 C 25.9597 -0.587647 -4.44129 0
M  V30 280 C 27.7037 1.20349 -4.07083 0
M  V30 281 C 25.6107 -0.257475 -5.90839 0
M  V30 282 H 24.5407 0.124924 -0.743579 0
M  V30 283 H 27.1917 -0.396063 -1.79175 0
M  V30 284 H 25.5737 1.40778 -3.70132 0
M  V30 285 H 26.7477 -1.36418 -4.40144 0
M  V30 286 H 25.0627 -1.08074 -4.0213 0
M  V30 287 H 27.6597 1.46456 -5.14252 0
M  V30 288 H 28.0027 2.14195 -3.56968 0
M  V30 289 H 28.5357 0.485889 -3.94821 0
M  V30 290 H 25.2747 -1.16419 -6.45079 0
M  V30 291 H 24.7947 0.482018 -5.9786 0
M  V30 292 H 26.4737 0.145238 -6.46837 0
M  V30 293 N 26.6058 1.57591 -0.0167156 0
M  V30 294 C 27.5358 2.12496 0.967858 0
M  V30 295 C 28.5168 1.03807 1.34752 0
M  V30 296 O 29.7018 1.31577 1.42833 0
M  V30 297 C 26.8318 2.64194 2.25431 0
M  V30 298 C 25.7858 3.77559 2.01576 0
M  V30 299 C 25.1118 4.15636 3.36379 0
M  V30 300 C 26.4118 5.04151 1.36489 0
M  V30 301 H 28.1058 2.95013 0.510643 0
M  V30 302 H 25.6518 1.41915 0.244181 0
M  V30 303 H 27.6048 3.01236 2.94678 0
M  V30 304 H 26.3288 1.78821 2.73296 0
M  V30 305 H 24.9878 3.40937 1.34751 0
M  V30 306 H 24.6358 3.27263 3.81979 0
M  V30 307 H 24.3358 4.92022 3.21229 0
M  V30 308 H 25.8598 4.5525 4.06915 0
M  V30 309 H 27.2738 5.38857 1.95718 0
M  V30 310 H 25.6708 5.85453 1.31776 0
M  V30 311 H 26.7408 4.83733 0.336219 0
M  V30 312 N 28.0839 -0.256276 1.55502 0
M  V30 313 C 29.4999 -0.604325 1.47716 0
M  V30 314 C 29.6999 -1.88763 0.705039 0
M  V30 315 O 28.7559 -2.51445 0.230613 0
M  V30 316 C 30.0689 -0.715756 2.92057 0
M  V30 317 C 31.6169 -0.808706 3.02372 0
M  V30 318 C 32.0919 -0.951777 4.48001 0
M  V30 319 N 33.5829 -1.01688 4.519 0
M  V30 320 C 34.3179 -1.14668 5.61817 0
M  V30 321 N 33.8139 -1.24261 6.81565 0
M  V30 322 N 35.6069 -1.1791 5.49594 0
M  V30 323 H 27.7579 0.586291 2.04148 0
M  V30 324 H 30.0209 0.201015 0.926443 0
M  V30 325 H 29.7269 0.157027 3.51349 0
M  V30 326 H 29.6009 -1.59071 3.42018 0
M  V30 327 H 31.9879 -1.67195 2.43166 0
M  V30 328 H 32.0689 0.0912063 2.55637 0
M  V30 329 H 31.7129 -0.0931291 5.07815 0
M  V30 330 H 31.6429 -1.86659 4.92408 0
M  V30 331 H 34.1339 -0.954468 3.65648 0
M  V30 332 H 34.4469 -1.34046 7.61086 0
M  V30 333 H 32.7919 -1.21236 6.84344 0
M  V30 334 H 35.9829 -1.10057 4.54978 0
M  V30 335 H 36.1559 -1.27681 6.35296 0
M  V30 336 N 29.562 -1.4872 -0.521534 0
M  V30 337 C 30.787 -1.61101 -1.30618 0
M  V30 338 C 31.212 -0.274611 -1.86085 0
M  V30 339 O 30.57 0.754937 -1.64834 0
M  V30 340 C 30.618 -2.66709 -2.4269 0
M  V30 341 O 29.722 -2.24456 -3.45967 0
M  V30 342 H 29.063 -0.539921 -0.386499 0
M  V30 343 H 31.593 -1.94767 -0.626645 0
M  V30 344 H 31.603 -2.88245 -2.88754 0
M  V30 345 H 30.278 -3.63727 -2.01682 0
M  V30 346 H 28.855 -2.13168 -3.05964 0
M  V30 347 N 31.0401 0.771051 -1.3745 0
M  V30 348 C 32.4561 1.07171 -1.18265 0
M  V30 349 C 32.6561 2.01491 -0.019287 0
M  V30 350 O 31.7121 2.44244 0.640408 0
M  V30 351 C 33.0251 1.66854 -2.50161 0
M  V30 352 C 34.5731 1.79109 -2.56689 0
M  V30 353 C 35.0481 2.42205 -3.88717 0
M  V30 354 N 36.5391 2.49655 -3.90162 0
M  V30 355 C 37.2741 2.9933 -4.8907 0
M  V30 356 N 36.7701 3.49172 -5.98374 0
M  V30 357 N 38.5631 2.9821 -4.76474 0
M  V30 358 H 30.7141 0.144796 -2.11906 0
M  V30 359 H 32.9771 0.126863 -0.939473 0
M  V30 360 H 32.6831 1.05017 -3.35655 0
M  V30 361 H 32.5571 2.6614 -2.673 0
M  V30 362 H 34.9441 2.40077 -1.71601 0
M  V30 363 H 35.0251 0.785757 -2.43433 0
M  V30 364 H 34.6691 1.81875 -4.74219 0
M  V30 365 H 34.5991 3.43345 -3.99276 0
M  V30 366 H 37.0901 2.14383 -3.11205 0
M  V30 367 H 37.4031 3.8548 -6.69795 0
M  V30 368 H 35.7481 3.47275 -6.02018 0
M  V30 369 H 38.9391 2.58572 -3.90203 0
M  V30 370 H 39.1121 3.36613 -5.53711 0
M  V30 371 N 32.5182 1.22032 0.997298 0
M  V30 372 C 33.7662 1.04016 1.73278 0
M  V30 373 C 34.0872 -0.426255 1.90284 0
M  V30 374 O 33.3572 -1.30694 1.45931 0
M  V30 375 H 31.9372 0.381897 0.642 0
M  V30 376 H 34.5992 1.5347 1.20137 0
M  V30 377 H 33.6952 1.51441 2.72896 0
M  V30 378 N 33.9963 -1.19345 1.0293 0
M  V30 379 C 35.2263 -1.92717 0.744563 0
M  V30 380 C 35.6343 -1.75751 -0.700579 0
M  V30 381 O 34.9773 -1.07703 -1.48815 0
M  V30 382 C 35.0393 -3.44828 1.01657 0
M  V30 383 C 34.7033 -3.85564 2.45335 0
M  V30 384 C 35.7003 -3.90286 3.43472 0
M  V30 385 C 33.3853 -4.1719 2.79746 0
M  V30 386 C 35.3793 -4.26065 4.74075 0
M  V30 387 C 33.0663 -4.52642 4.10559 0
M  V30 388 C 34.0643 -4.57054 5.07534 0
M  V30 389 O 33.7523 -4.91685 6.36004 0
M  V30 390 H 33.4843 -0.618977 0.271742 0
M  V30 391 H 36.0383 -1.52415 1.37691 0
M  V30 392 H 34.2683 -3.85314 0.327084 0
M  V30 393 H 35.9573 -3.99437 0.721427 0
M  V30 394 H 36.7233 -3.66002 3.18225 0
M  V30 395 H 32.6023 -4.1294 2.04943 0
M  V30 396 H 36.1463 -4.29423 5.49765 0
M  V30 397 H 32.0433 -4.76383 4.35579 0
M  V30 398 H 32.8113 -5.09631 6.40483 0
M  V30 399 N 35.4744 -0.807222 -1.35358 0
M  V30 400 C 36.7234 -0.384376 -1.98004 0
M  V30 401 C 37.0364 1.0543 -1.64754 0
M  V30 402 O 38.2424 1.58029 -2.20769 0
M  V30 403 C 36.6984 -0.636326 -3.5423 0
M  V30 404 C 36.3064 -2.08759 -3.96388 0
M  V30 405 C 38.0504 -0.278869 -4.23583 0
M  V30 406 C 35.9574 -2.28525 -5.45463 0
M  V30 407 H 34.8874 -0.139986 -0.740891 0
M  V30 408 H 37.5384 -0.991369 -1.54415 0
M  V30 409 H 35.9204 0.0406256 -3.95979 0
M  V30 410 H 37.0944 -2.8024 -3.6579 0
M  V30 411 H 35.4094 -2.40497 -3.39926 0
M  V30 412 H 38.0064 -0.404599 -5.33167 0
M  V30 413 H 38.3494 0.775012 -4.09022 0
M  V30 414 H 38.8824 -0.909764 -3.87257 0
M  V30 415 H 35.6214 -3.32361 -5.64992 0
M  V30 416 H 35.1414 -1.61569 -5.77629 0
M  V30 417 H 36.8204 -2.10109 -6.11934 0
M  V30 418 N 36.9525 1.47285 -0.560781 0
M  V30 419 C 38.1925 2.0436 -0.0404627 0
M  V30 420 C 38.5565 1.42534 1.28639 0
M  V30 421 O 39.7575 1.90677 1.89462 0
M  V30 422 C 38.0285 3.57369 0.0471856 0
M  V30 423 S 39.5875 4.3579 0.513109 0
M  V30 424 H 36.4055 0.710492 -0.0268674 0
M  V30 425 H 39.0075 1.80611 -0.748323 0
M  V30 426 H 37.7115 3.9989 -0.922817 0
M  V30 427 H 37.2425 3.8562 0.778491 0
M  V30 428 H 39.2575 4.63476 1.77212 0
M  V30 429 N 38.4306 0.297415 1.54768 0
M  V30 430 C 39.8466 -0.0560823 1.59501 0
M  V30 431 C 40.0466 -1.52725 1.31444 0
M  V30 432 O 39.1026 -2.27947 1.08611 0
M  V30 433 C 40.4156 0.338631 2.98787 0
M  V30 434 C 41.9636 0.287097 3.11681 0
M  V30 435 C 42.4386 0.656579 4.53269 0
M  V30 436 N 43.9296 0.608977 4.59179 0
M  V30 437 C 44.6646 0.867385 5.66802 0
M  V30 438 N 44.1606 1.19157 6.82476 0
M  V30 439 N 45.9536 0.794687 5.56454 0
M  V30 440 H 38.1046 1.25624 1.71267 0
M  V30 441 H 40.3676 0.509057 0.799728 0
M  V30 442 H 40.0736 1.36263 3.2423 0
M  V30 443 H 39.9476 -0.309508 3.75928 0
M  V30 444 H 42.3346 -0.727649 2.85988 0
M  V30 445 H 42.4156 0.969809 2.36703 0
M  V30 446 H 42.0596 1.66912 4.7969 0
M  V30 447 H 41.9896 -0.0481649 5.26578 0
M  V30 448 H 44.4806 0.369198 3.76092 0
M  V30 449 H 44.7936 1.37482 7.60473 0
M  V30 450 H 43.1386 1.22958 6.84037 0
M  V30 451 H 46.3296 0.541098 4.64962 0
M  V30 452 H 46.5026 0.999445 6.40246 0
M  V30 453 N 39.9087 -1.5758 0.0250728 0
M  V30 454 C 40.8567 -2.11125 -0.97617 0
M  V30 455 C 41.8507 -1.03689 -1.33959 0
M  V30 456 O 43.0567 -1.22128 -1.3223 0
M  V30 457 H 39.4317 -0.674468 -0.332561 0
M  V30 458 H 41.4027 -2.94194 -0.499223 0
M  V30 459 C 40.1517 -2.65017 -2.2508 0
M  V30 460 H 39.4747 -3.47333 -1.9799 0
M  V30 461 H 40.9147 -3.06133 -2.93357 0
M  V30 462 C 39.3737 -1.57574 -2.97779 0
M  V30 463 O 39.9037 -0.973203 -3.89733 0
M  V30 464 N 38.1097 -1.29716 -2.60043 0
M  V30 465 H 37.6567 -1.789 -1.85345 0
M  V30 466 H 37.6147 -0.58051 -3.08994 0
M  V30 467 N 41.3868 0.248026 -1.55636 0
M  V30 468 C 42.6338 0.976224 -1.77415 0
M  V30 469 C 42.9618 1.85361 -0.589193 0
M  V30 470 O 42.2168 1.90973 0.427529 0
M  V30 471 C 42.5158 1.86819 -3.04686 0
M  V30 472 C 42.1818 1.14625 -4.36087 0
M  V30 473 C 40.8438 0.946723 -4.71795 0
M  V30 474 C 43.1958 0.634463 -5.17324 0
M  V30 475 C 40.5238 0.223091 -5.86276 0
M  V30 476 C 42.8758 -0.0756959 -6.32555 0
M  V30 477 C 41.5398 -0.286711 -6.66884 0
M  V30 478 H 40.8098 0.357226 -0.649208 0
M  V30 479 H 43.4568 0.246415 -1.89908 0
M  V30 480 H 41.7618 2.66502 -2.872 0
M  V30 481 H 43.4588 2.43329 -3.18735 0
M  V30 482 H 40.0488 1.3117 -4.08035 0
M  V30 483 H 44.2328 0.77616 -4.90193 0
M  V30 484 H 39.4888 0.0491185 -6.1138 0
M  V30 485 H 43.6628 -0.479899 -6.94745 0
M  V30 486 H 41.2898 -0.849389 -7.5544 0
M  V30 487 N 42.8649 1.48995 0.513639 0
M  V30 488 C 44.0929 1.61531 1.29288 0
M  V30 489 C 44.5079 0.281801 1.86685 0
M  V30 490 O 43.8649 -0.731111 1.67215 0
M  V30 491 C 43.9159 2.67449 2.43215 0
M  V30 492 O 43.6369 3.95626 1.88179 0
M  V30 493 C 45.1379 2.90575 3.34785 0
M  V30 494 H 42.3579 0.544165 0.392588 0
M  V30 495 H 44.9019 1.9494 0.617956 0
M  V30 496 H 43.0569 2.36853 3.0656 0
M  V30 497 H 43.4709 4.53868 2.62876 0
M  V30 498 H 44.9449 3.68449 4.11035 0
M  V30 499 H 45.4219 2.00011 3.91015 0
M  V30 500 H 46.0279 3.22538 2.77218 0
M  V30 501 N 44.343 -0.763751 1.37857 0
M  V30 502 C 45.591 -1.51957 1.33243 0
M  V30 503 C 45.912 -1.94835 -0.0801709 0
M  V30 504 O 45.182 -1.66894 -1.02582 0
M  V30 505 H 43.762 -0.563626 0.49024 0
M  V30 506 H 46.424 -0.908504 1.7243 0
M  V30 507 H 45.52 -2.41523 1.97669 0
M  V30 508 N 45.8211 -1.22559 -0.990812 0
M  V30 509 C 47.0461 -1.07862 -1.77145 0
M  V30 510 C 47.4711 0.366447 -1.84496 0
M  V30 511 O 46.8291 1.26478 -1.29896 0
M  V30 512 C 46.8771 -1.69686 -3.18181 0
M  V30 513 O 45.9811 -0.951946 -4.01263 0
M  V30 514 H 45.3221 -0.378712 -0.545411 0
M  V30 515 H 47.8521 -1.62399 -1.2445 0
M  V30 516 H 47.8621 -1.74496 -3.68802 0
M  V30 517 H 46.5371 -2.74841 -3.12146 0
M  V30 518 H 45.1141 -0.980011 -3.59792 0
M  V30 519 N 47.2992 1.18797 -1.03562 0
M  V30 520 C 48.5242 1.9314 -0.755764 0
M  V30 521 C 48.9492 1.7537 0.68022 0
M  V30 522 O 48.3072 1.06046 1.47051 0
M  V30 523 C 48.3552 3.42747 -1.12058 0
M  V30 524 O 47.4592 4.11683 -0.243124 0
M  V30 525 H 46.8002 0.602724 -0.278604 0
M  V30 526 H 49.3302 1.50678 -1.3841 0
M  V30 527 H 49.3402 3.93437 -1.08035 0
M  V30 528 H 48.0152 3.55002 -2.16672 0
M  V30 529 H 46.5922 3.71323 -0.342539 0
M  V30 530 N 48.7773 0.814389 1.34928 0
M  V30 531 C 49.7403 0.235759 2.27984 0
M  V30 532 C 50.7403 -0.581412 1.49921 0
M  V30 533 O 51.9303 -0.398758 1.69575 0
M  V30 534 C 49.0623 -0.670433 3.34242 0
M  V30 535 H 50.2553 1.05659 2.80671 0
M  V30 536 H 47.8083 0.585614 1.44915 0
M  V30 537 H 48.5433 -1.51466 2.86755 0
M  V30 538 H 48.3283 -0.0860822 3.92005 0
M  V30 539 H 49.8183 -1.06935 4.03676 0
M  V30 540 N 50.2554 -1.46986 0.568584 0
M  V30 541 C 51.1854 -2.32946 -0.160753 0
M  V30 542 C 52.1664 -1.44487 -0.897631 0
M  V30 543 O 53.3514 -1.73327 -0.875867 0
M  V30 544 C 50.4814 -3.26494 -1.18403 0
M  V30 545 C 49.4354 -4.24282 -0.562895 0
M  V30 546 C 48.7614 -5.07236 -1.69163 0
M  V30 547 C 50.0614 -5.19989 0.490761 0
M  V30 548 H 51.7554 -2.94175 0.556916 0
M  V30 549 H 49.3014 -1.4146 0.26927 0
M  V30 550 H 51.2544 -3.85477 -1.70251 0
M  V30 551 H 49.9784 -2.63343 -1.93179 0
M  V30 552 H 48.6374 -3.66541 -0.0656164 0
M  V30 553 H 48.2854 -4.4048 -2.42871 0
M  V30 554 H 47.9854 -5.7345 -1.28174 0
M  V30 555 H 49.5094 -5.6908 -2.21314 0
M  V30 556 H 50.9234 -5.73271 0.0579047 0
M  V30 557 H 49.3204 -5.94469 0.820165 0
M  V30 558 H 50.3904 -4.64777 1.3824 0
M  V30 559 N 51.7335 -0.305618 -1.54608 0
M  V30 560 C 52.6635 0.561482 -2.26649 0
M  V30 561 C 53.6445 1.13415 -1.26772 0
M  V30 562 O 54.8295 1.16262 -1.55553 0
M  V30 563 C 51.9595 1.73122 -3.01075 0
M  V30 564 C 50.9135 1.2887 -4.08138 0
M  V30 565 C 50.2395 2.54396 -4.70305 0
M  V30 566 C 51.5395 0.416578 -5.20636 0
M  V30 567 H 53.2335 -0.0393902 -2.99374 0
M  V30 568 H 50.7795 -0.020385 -1.43986 0
M  V30 569 H 52.7325 2.34396 -3.50195 0
M  V30 570 H 51.4565 2.3584 -2.25936 0
M  V30 571 H 50.1155 0.698991 -3.59875 0
M  V30 572 H 49.7635 3.15439 -3.918 0
M  V30 573 H 49.4635 2.25486 -5.42614 0
M  V30 574 H 50.9875 3.16464 -5.2219 0
M  V30 575 H 52.4015 0.935116 -5.65622 0
M  V30 576 H 50.7985 0.221046 -5.99693 0
M  V30 577 H 51.8685 -0.557162 -4.81688 0
M  V30 578 N 53.2116 1.57565 -0.0334293 0
M  V30 579 C 54.4396 1.9628 0.654347 0
M  V30 580 C 54.8546 0.910138 1.65414 0
M  V30 581 O 54.2116 -0.107595 1.82183 0
M  V30 582 C 54.2626 3.35067 1.35693 0
M  V30 583 O 53.9836 4.36296 0.397191 0
M  V30 584 C 55.4846 3.88439 2.13613 0
M  V30 585 H 52.7046 0.646369 0.180132 0
M  V30 586 H 55.2486 2.04282 -0.0944721 0
M  V30 587 H 53.4036 3.2827 2.05712 0
M  V30 588 H 53.8176 5.1678 0.896597 0
M  V30 589 H 55.2916 4.8788 2.58219 0
M  V30 590 H 55.7686 3.22914 2.97696 0
M  V30 591 H 56.3746 3.98516 1.48543 0
M  V30 592 N 54.6897 -0.239769 1.55765 0
M  V30 593 C 56.1057 -0.588624 1.48349 0
M  V30 594 C 56.3057 -1.88005 0.72502 0
M  V30 595 O 55.3617 -2.51186 0.257269 0
M  V30 596 C 56.6747 -0.68474 2.928 0
M  V30 597 C 58.2227 -0.77659 3.03213 0
M  V30 598 C 58.6977 -0.904207 4.48986 0
M  V30 599 N 60.1887 -0.968896 4.52953 0
M  V30 600 C 60.9237 -1.08703 5.63002 0
M  V30 601 N 60.4197 -1.17026 6.82845 0
M  V30 602 N 62.2127 -1.12074 5.50814 0
M  V30 603 H 54.3637 0.607911 2.03515 0
M  V30 604 H 56.6267 0.21083 0.924259 0
M  V30 605 H 56.3327 0.194284 3.51163 0
M  V30 606 H 56.2067 -1.55435 3.43686 0
M  V30 607 H 58.5937 -1.64606 2.44926 0
M  V30 608 H 58.6747 0.118315 2.55526 0
M  V30 609 H 58.3187 -0.0392633 5.07885 0
M  V30 610 H 58.2487 -1.81426 4.9436 0
M  V30 611 H 60.7397 -0.915633 3.6664 0
M  V30 612 H 61.0527 -1.25966 7.62465 0
M  V30 613 H 59.3977 -1.13971 6.85591 0
M  V30 614 H 62.5887 -1.05226 4.5612 0
M  V30 615 H 62.7617 -1.20936 6.36615 0
M  V30 616 N 56.1678 -1.49265 -0.50573 0
M  V30 617 C 57.3958 -1.62215 -1.28429 0
M  V30 618 C 57.8108 -0.291697 -1.86533 0
M  V30 619 O 57.1678 0.722233 -1.67601 0
M  V30 620 C 57.2188 -2.68735 -2.41793 0
M  V30 621 O 56.9398 -3.96619 -1.86078 0
M  V30 622 C 58.4408 -2.92346 -3.3324 0
M  V30 623 H 55.6608 -0.546239 -0.389697 0
M  V30 624 H 58.2048 -1.95265 -0.607609 0
M  V30 625 H 56.3598 -2.38476 -3.053 0
M  V30 626 H 56.7738 -4.55256 -2.60465 0
M  V30 627 H 58.2478 -3.70623 -4.09075 0
M  V30 628 H 58.7248 -2.02081 -3.89948 0
M  V30 629 H 59.3308 -3.24003 -2.75503 0
M  V30 630 N 57.6459 0.756429 -1.3826 0
M  V30 631 C 58.5959 1.86069 -1.31766 0
M  V30 632 C 59.5799 1.59621 -0.202483 0
M  V30 633 O 60.7719 1.7149 -0.438211 0
M  V30 634 C 57.9009 3.23742 -1.1422 0
M  V30 635 C 56.9869 3.56091 -2.30348 0
M  V30 636 N 57.3779 3.59517 -3.55783 0
M  V30 637 C 55.6759 3.86341 -2.22838 0
M  V30 638 C 56.3769 3.89052 -4.32451 0
M  V30 639 N 55.3529 4.05736 -3.61772 0
M  V30 640 H 59.1549 1.86992 -2.26741 0
M  V30 641 H 56.6689 0.953643 -1.31451 0
M  V30 642 H 58.6659 4.02761 -1.07652 0
M  V30 643 H 57.3259 3.24073 -0.201763 0
M  V30 644 H 58.3369 3.41347 -3.89491 0
M  V30 645 H 55.0139 3.94404 -1.36937 0
M  V30 646 H 56.4039 3.98349 -5.4108 0
M  V30 647 N 59.124 1.23083 0.984299 0
M  V30 648 C 60.373 1.05466 1.71929 0
M  V30 649 C 60.686 -0.409211 1.91272 0
M  V30 650 O 61.892 -0.705226 2.62181 0
M  V30 651 C 60.348 1.83874 3.09384 0
M  V30 652 C 59.956 3.34566 2.97943 0
M  V30 653 C 61.7 1.74734 3.8687 0
M  V30 654 C 59.607 4.05381 4.30605 0
M  V30 655 H 58.537 0.391039 0.644674 0
M  V30 656 H 61.188 1.47013 1.09815 0
M  V30 657 H 59.57 1.35131 3.72231 0
M  V30 658 H 60.744 3.90767 2.44209 0
M  V30 659 H 59.059 3.44476 2.33934 0
M  V30 660 H 61.656 2.24957 4.85076 0
M  V30 661 H 61.999 0.709372 4.10212 0
M  V30 662 H 62.532 2.21067 3.30717 0
M  V30 663 H 59.271 5.09467 4.1246 0
M  V30 664 H 58.791 3.53967 4.84218 0
M  V30 665 H 60.47 4.11458 4.99311 0
M  V30 666 N 60.6021 -1.18246 1.0419 0
M  V30 667 C 61.5501 -2.23968 0.627792 0
M  V30 668 C 62.5441 -1.65828 -0.346019 0
M  V30 669 O 63.7501 -1.78733 -0.213175 0
M  V30 670 H 60.1251 -0.728939 0.184802 0
M  V30 671 H 62.0961 -2.56202 1.52981 0
M  V30 672 C 60.8451 -3.47699 0.00796591 0
M  V30 673 H 60.1681 -3.92734 0.748347 0
M  V30 674 H 61.6081 -4.23294 -0.24455 0
M  V30 675 C 60.0671 -3.13153 -1.24246 0
M  V30 676 O 60.5971 -3.27003 -2.33307 0
M  V30 677 N 58.8031 -2.67467 -1.13622 0
M  V30 678 H 58.3501 -2.56396 -0.248734 0
M  V30 679 H 58.3081 -2.44724 -1.97377 0
M  V30 680 N 62.0802 -0.821533 -1.34494 0
M  V30 681 C 63.3102 -0.421272 -2.02259 0
M  V30 682 C 63.7182 0.977047 -1.6202 0
M  V30 683 O 63.0612 1.64348 -0.820703 0
M  V30 684 C 63.1232 -0.44231 -3.56769 0
M  V30 685 C 62.7872 -1.79372 -4.20327 0
M  V30 686 C 63.7842 -2.75435 -4.40944 0
M  V30 687 C 61.4692 -2.08182 -4.57127 0
M  V30 688 C 63.4632 -3.98482 -4.97484 0
M  V30 689 C 61.1502 -3.31489 -5.13379 0
M  V30 690 C 62.1482 -4.26457 -5.33501 0
M  V30 691 O 61.8362 -5.47585 -5.88562 0
M  V30 692 H 61.5682 -0.167473 -0.654927 0
M  V30 693 H 64.1222 -1.11073 -1.72777 0
M  V30 694 H 62.3522 0.303836 -3.85505 0
M  V30 695 H 64.0412 -0.0622925 -4.05852 0
M  V30 696 H 64.8072 -2.54473 -4.12878 0
M  V30 697 H 60.6862 -1.35066 -4.4077 0
M  V30 698 H 64.2302 -4.72618 -5.13106 0
M  V30 699 H 60.1272 -3.52316 -5.40873 0
M  V30 700 H 60.8952 -5.49086 -6.06998 0
M  V30 701 N 63.5583 1.46682 -0.576371 0
M  V30 702 C 64.8063 2.02013 -0.0594163 0
M  V30 703 C 65.1273 1.45101 1.30271 0
M  V30 704 O 64.3973 0.633317 1.8538 0
M  V30 705 H 62.9773 0.746759 -0.0189745 0
M  V30 706 H 65.6393 1.79862 -0.750717 0
M  V30 707 H 64.7353 3.12097 0.014345 0
M  V30 708 N 65.0364 0.313813 1.54444 0
M  V30 709 C 66.2824 -0.292108 2.00685 0
M  V30 710 C 66.6154 -1.52548 1.20177 0
M  V30 711 O 65.8904 -1.92452 0.281531 0
M  V30 712 C 66.1734 -0.635968 3.5444 0
M  V30 713 C 66.0264 0.607437 4.4568 0
M  V30 714 C 67.3454 -1.45747 4.15266 0
M  V30 715 H 64.4644 -0.104697 0.729526 0
M  V30 716 H 67.1064 0.428457 1.85106 0
M  V30 717 H 65.2564 -1.24986 3.67846 0
M  V30 718 H 66.9284 1.24581 4.44159 0
M  V30 719 H 65.1714 1.23822 4.15753 0
M  V30 720 H 65.8424 0.322515 5.51057 0
M  V30 721 H 68.3184 -0.938645 4.05375 0
M  V30 722 H 67.1944 -1.66683 5.2298 0
M  V30 723 H 67.4554 -2.45063 3.67963 0
M  V30 724 N 66.5145 -1.57545 0.0417849 0
M  V30 725 C 67.4615 -2.10977 -0.935805 0
M  V30 726 C 68.4315 -1.01486 -1.31491 0
M  V30 727 O 69.6165 -1.2898 -1.40602 0
M  V30 728 C 66.7565 -2.65169 -2.2086 0
M  V30 729 C 65.8695 -3.88714 -1.88482 0
M  V30 730 C 65.0045 -4.31254 -3.1015 0
M  V30 731 C 64.0435 -5.47524 -2.7365 0
M  V30 732 N 63.1805 -5.85162 -3.87982 0
M  V30 733 H 68.0205 -2.94218 -0.473249 0
M  V30 734 H 65.5575 -1.45415 -0.221981 0
M  V30 735 H 67.5155 -2.94685 -2.95325 0
M  V30 736 H 66.1455 -1.8474 -2.64709 0
M  V30 737 H 65.1975 -3.65849 -1.04205 0
M  V30 738 H 66.5095 -4.73245 -1.57608 0
M  V30 739 H 65.6635 -4.62273 -3.92923 0
M  V30 740 H 64.4025 -3.45516 -3.44195 0
M  V30 741 H 63.4075 -5.16187 -1.89291 0
M  V30 742 H 64.6325 -6.34971 -2.40807 0
M  V30 743 H 62.5785 -5.02377 -4.21846 0
M  V30 744 H 62.4955 -6.64362 -3.60775 0
M  V30 745 H 63.7635 -6.20791 -4.71422 0
M  V30 746 N 67.9926 0.231505 -1.5589 0
M  V30 747 C 69.2406 0.955461 -1.78088 0
M  V30 748 C 69.5616 1.85262 -0.608533 0
M  V30 749 O 68.8316 1.92277 0.375035 0
M  V30 750 H 67.4116 0.355787 -0.656829 0
M  V30 751 H 70.0736 0.245751 -1.93344 0
M  V30 752 H 69.1696 1.56814 -2.69844 0
M  V30 753 N 69.4707 1.49531 0.497807 0
M  V30 754 C 70.7477 1.49682 1.25915 0
M  V30 755 C 71.1277 0.226339 2.09883 0
M  V30 756 O 70.4757 -0.791189 2.14365 0
M  V30 757 C 70.6857 2.77755 2.11313 0
M  V30 758 C 72.0337 3.27371 2.70395 0
M  V30 759 O 73.0577 2.78894 2.21578 0
M  V30 760 O 71.9167 4.11808 3.59272 0
M  V30 761 H 69.0107 0.599228 0.56996 0
M  V30 762 H 71.5567 1.61798 0.511816 0
M  V30 763 H 70.3287 3.61713 1.49264 0
M  V30 764 H 69.9517 2.68515 2.93233 0
M  V30 765 N 70.9488 -0.749086 1.3866 0
M  V30 766 C 72.1948 -1.51056 1.35314 0
M  V30 767 C 72.5278 -1.94121 -0.0553751 0
M  V30 768 O 71.8028 -1.65763 -1.01749 0
M  V30 769 C 72.0858 -2.76003 2.31288 0
M  V30 770 C 71.9388 -2.39047 3.8102 0
M  V30 771 C 73.2578 -3.78046 2.2532 0
M  V30 772 H 70.3768 -0.547972 0.492844 0
M  V30 773 H 73.0188 -0.857628 1.69543 0
M  V30 774 H 71.1688 -3.31716 2.02229 0
M  V30 775 H 72.8408 -1.89074 4.20771 0
M  V30 776 H 71.0838 -1.71449 3.98482 0
M  V30 777 H 71.7548 -3.28462 4.4364 0
M  V30 778 H 74.2308 -3.31884 2.50983 0
M  V30 779 H 73.1068 -4.63159 2.94576 0
M  V30 780 H 73.3678 -4.23957 1.25352 0
M  V30 781 N 72.4269 -1.23603 -0.977757 0
M  V30 782 C 73.3899 -1.02069 -2.05218 0
M  V30 783 C 74.3899 0.0184305 -1.60789 0
M  V30 784 O 75.5799 -0.221569 -1.72785 0
M  V30 785 C 72.7119 -0.544926 -3.36517 0
M  V30 786 H 73.9049 -1.9742 -2.25755 0
M  V30 787 H 71.4579 -1.05684 -1.15155 0
M  V30 788 H 72.1929 0.412241 -3.21669 0
M  V30 789 H 71.9779 -1.2948 -3.70105 0
M  V30 790 H 73.4679 -0.414985 -4.15533 0
M  V30 791 N 73.905 1.17692 -1.04816 0
M  V30 792 C 75.151 1.88137 -0.75711 0
M  V30 793 C 75.484 1.80604 0.713841 0
M  V30 794 O 74.759 1.21146 1.52164 0
M  V30 795 C 75.042 3.38318 -1.2334 0
M  V30 796 C 74.895 3.54622 -2.76701 0
M  V30 797 C 76.214 4.32214 -0.829415 0
M  V30 798 H 73.333 0.683163 -0.27651 0
M  V30 799 H 75.975 1.38424 -1.30149 0
M  V30 800 H 74.125 3.80787 -0.770286 0
M  V30 801 H 75.797 3.21194 -3.31107 0
M  V30 802 H 74.04 2.97026 -3.16161 0
M  V30 803 H 74.711 4.60028 -3.05088 0
M  V30 804 H 77.187 3.97565 -1.22805 0
M  V30 805 H 76.063 5.35838 -1.19033 0
M  V30 806 H 76.324 4.41294 0.266891 0
M  V30 807 N 75.3831 0.828654 1.34056 0
M  V30 808 C 76.6291 0.42008 1.98402 0
M  V30 809 C 76.9621 -1.01564 1.65525 0
M  V30 810 O 76.2371 -1.70834 0.929831 0
M  V30 811 C 76.5201 0.62927 3.54559 0
M  V30 812 C 76.3731 2.11152 3.97159 0
M  V30 813 C 77.6921 0.0688756 4.40046 0
M  V30 814 H 74.8111 0.154104 0.720709 0
M  V30 815 H 77.4531 1.04228 1.5886 0
M  V30 816 H 75.6031 0.0996418 3.88372 0
M  V30 817 H 77.2751 2.70522 3.73651 0
M  V30 818 H 75.5181 2.59985 3.47261 0
M  V30 819 H 76.1891 2.20868 5.05887 0
M  V30 820 H 78.6651 0.521458 4.1282 0
M  V30 821 H 77.5411 0.245006 5.48353 0
M  V30 822 H 77.8021 -1.0266 4.30015 0
M  V30 823 N 76.8612 -1.46375 0.584142 0
M  V30 824 C 78.2772 -1.57694 0.245929 0
M  V30 825 C 78.4772 -1.57903 -1.25175 0
M  V30 826 O 77.5332 -1.49676 -2.03355 0
M  V30 827 C 78.8462 -2.87028 0.896402 0
M  V30 828 C 80.3942 -3.00662 0.870127 0
M  V30 829 C 80.8692 -4.32734 1.50017 0
M  V30 830 N 82.3602 -4.39436 1.46458 0
M  V30 831 C 83.0952 -5.40248 1.92144 0
M  V30 832 N 82.5912 -6.47726 2.4581 0
M  V30 833 N 84.3842 -5.31459 1.83052 0
M  V30 834 H 76.5352 -1.44483 1.55687 0
M  V30 835 H 78.7982 -0.689291 0.650831 0
M  V30 836 H 78.5042 -2.9269 1.95002 0
M  V30 837 H 78.3782 -3.75014 0.405486 0
M  V30 838 H 80.7652 -2.94581 -0.174871 0
M  V30 839 H 80.8462 -2.14148 1.39908 0
M  V30 840 H 80.4902 -4.39573 2.54437 0
M  V30 841 H 80.4202 -5.18025 0.946432 0
M  V30 842 H 82.9112 -3.62367 1.07231 0
M  V30 843 H 83.2242 -7.20863 2.78525 0
M  V30 844 H 81.5692 -6.48542 2.49836 0
M  V30 845 H 84.7602 -4.46396 1.40883 0
M  V30 846 H 84.9332 -6.09881 2.18973 0
M  V30 847 N 78.3393 -0.321999 -1.54275 0
M  V30 848 C 79.5883 0.281931 -1.9972 0
M  V30 849 C 79.9013 1.53369 -1.21397 0
M  V30 850 O 81.1073 2.21352 -1.57211 0
M  V30 851 C 79.5633 0.5529 -3.55628 0
M  V30 852 C 79.1713 -0.681721 -4.42783 0
M  V30 853 C 80.9153 1.11687 -4.09544 0
M  V30 854 C 78.8223 -0.382742 -5.9016 0
M  V30 855 H 77.7523 0.109124 -0.746062 0
M  V30 856 H 80.4033 -0.43398 -1.78294 0
M  V30 857 H 78.7853 1.32896 -3.73035 0
M  V30 858 H 79.9593 -1.45723 -4.37151 0
M  V30 859 H 78.2743 -1.1658 -3.99748 0
M  V30 860 H 80.8713 1.35515 -5.17242 0
M  V30 861 H 81.2143 2.06575 -3.61431 0
M  V30 862 H 81.7473 0.402032 -3.95763 0
M  V30 863 H 78.4863 -1.30076 -6.42464 0
M  V30 864 H 78.0063 0.355094 -5.98748 0
M  V30 865 H 79.6853 0.00800157 -6.47 0
M  V30 866 N 79.8174 1.5752 -0.0501392 0
M  V30 867 C 80.7654 2.12651 0.942459 0
M  V30 868 C 81.7594 1.05807 1.32292 0
M  V30 869 O 82.9654 1.24217 1.3027 0
M  V30 870 H 79.3404 0.679673 0.321789 0
M  V30 871 H 81.3114 2.94951 0.452356 0
M  V30 872 C 80.0604 2.68565 2.20836 0
M  V30 873 H 79.3834 3.50439 1.92439 0
M  V30 874 H 80.8234 3.10761 2.8845 0
M  V30 875 C 79.2824 1.62291 2.95234 0
M  V30 876 O 79.8124 1.03508 3.88135 0
M  V30 877 N 78.0184 1.33836 2.57946 0
M  V30 878 H 77.5654 1.81826 1.82475 0
M  V30 879 H 77.5234 0.629595 3.08032 0
M  V30 880 N 81.2955 -0.223234 1.56011 0
M  V30 881 C 82.5205 -0.968978 1.83373 0
M  V30 882 C 82.9455 -1.77227 0.630254 0
M  V30 883 O 82.3035 -1.76345 -0.420959 0
M  V30 884 C 82.3515 -1.86363 3.08709 0
M  V30 885 O 81.4555 -2.95873 2.87285 0
M  V30 886 H 80.7965 -0.274461 0.604622 0
M  V30 887 H 83.3265 -0.237056 2.03222 0
M  V30 888 H 83.3365 -2.27376 3.38768 0
M  V30 889 H 82.0115 -1.27319 3.95933 0
M  V30 890 H 80.5885 -2.58818 2.68454 0
M  V30 891 N 82.7736 -1.49793 -0.48987 0
M  V30 892 C 84.1846 -1.52914 -1.07118 0
M  V30 893 C 84.5356 -0.321738 -1.93544 0
M  V30 894 O 83.6606 0.567338 -2.08831 0
M  V30 895 C 84.2556 -2.771 -1.94938 0
M  V30 896 C 82.8146 -2.82963 -2.48212 0
M  V30 897 C 81.9616 -2.46972 -1.26096 0
M  V30 898 H 84.9126 -1.56329 -0.273289 0
M  V30 899 H 84.9336 -2.57892 -2.79771 0
M  V30 900 H 84.4456 -3.64959 -1.32009 0
M  V30 901 H 82.5466 -1.99411 -3.14748 0
M  V30 902 H 82.6596 -3.85406 -2.84603 0
M  V30 903 H 81.0236 -1.98994 -1.58976 0
M  V30 904 H 81.8066 -3.37118 -0.648581 0
M  V30 905 N 84.2517 0.741722 -1.39055 0
M  V30 906 C 85.1997 1.87702 -1.3737 0
M  V30 907 C 86.1937 1.67427 -0.257812 0
M  V30 908 O 87.3997 1.7485 -0.427489 0
M  V30 909 H 83.7747 0.617757 -0.428812 0
M  V30 910 H 85.7457 1.86239 -2.33147 0
M  V30 911 C 84.4947 3.25315 -1.22741 0
M  V30 912 H 83.8177 3.41509 -2.07873 0
M  V30 913 H 85.2577 4.04964 -1.25618 0
M  V30 914 C 83.7167 3.36838 0.0647316 0
M  V30 915 O 84.2467 3.88073 1.03741 0
M  V30 916 N 82.4527 2.90329 0.125544 0
M  V30 917 H 81.9997 2.48823 -0.666682 0
M  V30 918 H 81.9577 2.98418 0.989639 0
M  V30 919 N 85.7298 1.2412 0.971189 0
M  V30 920 C 86.9548 1.10667 1.75407 0
M  V30 921 C 87.3798 -0.337048 1.85056 0
M  V30 922 O 86.7378 -1.24396 1.31892 0
M  V30 923 C 86.7858 1.74726 3.15441 0
M  V30 924 O 85.8898 1.01566 3.99697 0
M  V30 925 H 85.2308 0.387341 0.539317 0
M  V30 926 H 87.7608 1.64358 1.2185 0
M  V30 927 H 87.7708 1.80341 3.6598 0
M  V30 928 H 86.4458 2.79773 3.07734 0
M  V30 929 H 85.0228 1.03713 3.58187 0
M  V30 930 N 87.2079 -1.17134 1.05439 0
M  V30 931 C 88.1549 -2.21235 0.657539 0
M  V30 932 C 89.1249 -1.62551 -0.341543 0
M  V30 933 O 90.3099 -1.89379 -0.232393 0
M  V30 934 C 87.4499 -3.45076 0.0410575 0
M  V30 935 C 86.5629 -4.18042 1.08927 0
M  V30 936 C 85.6979 -5.29376 0.439848 0
M  V30 937 C 84.7369 -5.94132 1.4722 0
M  V30 938 N 83.8739 -6.96975 0.846756 0
M  V30 939 H 88.7139 -2.54534 1.54972 0
M  V30 940 H 86.2509 -1.25028 0.775006 0
M  V30 941 H 88.2089 -4.15862 -0.33383 0
M  V30 942 H 86.8389 -3.12353 -0.814568 0
M  V30 943 H 85.8909 -3.45945 1.58196 0
M  V30 944 H 87.2029 -4.62306 1.87282 0
M  V30 945 H 86.3569 -6.06699 0.0115125 0
M  V30 946 H 85.0959 -4.86251 -0.375656 0
M  V30 947 H 84.1009 -5.15538 1.91052 0
M  V30 948 H 85.3259 -6.39337 2.28965 0
M  V30 949 H 83.2719 -6.5598 0.0518075 0
M  V30 950 H 83.1889 -7.39565 1.5678 0
M  V30 951 H 84.4569 -7.78239 0.443277 0
M  V30 952 N 88.686 -0.835752 -1.33615 0
M  V30 953 C 89.932 -0.430596 -1.98176 0
M  V30 954 C 90.265 1.00684 -1.66061 0
M  V30 955 O 89.54 1.70339 -0.938877 0
M  V30 956 C 89.823 -0.648065 -3.5422 0
M  V30 957 C 89.676 -2.13255 -3.96033 0
M  V30 958 C 90.995 -0.0922113 -4.40003 0
M  V30 959 H 88.114 -0.157924 -0.719881 0
M  V30 960 H 90.756 -1.05069 -1.58305 0
M  V30 961 H 88.906 -0.120237 -3.88314 0
M  V30 962 H 90.578 -2.725 -3.72211 0
M  V30 963 H 88.821 -2.61823 -3.45878 0
M  V30 964 H 89.492 -2.23547 -5.04708 0
M  V30 965 H 91.968 -0.543343 -4.12537 0
M  V30 966 H 90.844 -0.274083 -5.48215 0
M  V30 967 H 91.105 1.00378 -4.30554 0
M  V30 968 N 90.1641 1.46063 -0.591896 0
M  V30 969 C 91.1121 2.32124 0.148739 0
M  V30 970 C 92.1061 1.45035 0.875286 0
M  V30 971 O 93.3121 1.61609 0.792632 0
M  V30 972 H 89.6871 0.749024 0.066832 0
M  V30 973 H 91.6581 2.92392 -0.595783 0
M  V30 974 C 90.4071 3.28373 1.1431 0
M  V30 975 H 89.7301 3.95371 0.59346 0
M  V30 976 H 91.1701 3.91352 1.63155 0
M  V30 977 C 89.6291 2.54393 2.20875 0
M  V30 978 O 90.1591 2.31373 3.28374 0
M  V30 979 N 88.3651 2.14797 1.95731 0
M  V30 980 H 87.9121 2.33719 1.08319 0
M  V30 981 H 87.8701 1.65619 2.67241 0
M  V30 982 N 91.6422 0.330177 1.54103 0
M  V30 983 C 92.8702 -0.272179 2.05102 0
M  V30 984 C 93.2852 -1.45267 1.20595 0
M  V30 985 O 92.6422 -1.8094 0.238144 0
M  V30 986 C 92.6932 -0.70023 3.54653 0
M  V30 987 O 92.4142 0.433301 4.35952 0
M  V30 988 C 93.9152 -1.3647 4.21771 0
M  V30 989 H 91.1352 -0.0549159 0.668749 0
M  V30 990 H 93.6792 0.478285 1.98828 0
M  V30 991 H 91.8342 -1.40066 3.61193 0
M  V30 992 H 92.2482 0.0947539 5.24414 0
M  V30 993 H 93.7222 -1.61509 5.27843 0
M  V30 994 H 94.1992 -2.31409 3.73292 0
M  V30 995 H 94.8052 -0.706675 4.19388 0
M  V30 996 N 93.1203 -1.57491 0.0584922 0
M  V30 997 C 94.0503 -2.14988 -0.911178 0
M  V30 998 C 95.0313 -1.07343 -1.31952 0
M  V30 999 O 96.2163 -1.35318 -1.39294 0
M  V30 1000 C 93.3463 -2.70078 -2.18347 0
M  V30 1001 C 92.3003 -3.82771 -1.91495 0
M  V30 1002 C 91.6263 -4.24408 -3.25241 0
M  V30 1003 C 92.9263 -5.07592 -1.23075 0
M  V30 1004 H 94.6203 -2.96263 -0.432246 0
M  V30 1005 H 92.1663 -1.42512 -0.206469 0
M  V30 1006 H 94.1193 -3.08943 -2.86587 0
M  V30 1007 H 92.8433 -1.86005 -2.68458 0
M  V30 1008 H 91.5023 -3.44389 -1.25664 0
M  V30 1009 H 91.1503 -3.37275 -3.73168 0
M  V30 1010 H 90.8503 -5.00366 -3.08071 0
M  V30 1011 H 92.3743 -4.65879 -3.94701 0
M  V30 1012 H 93.7883 -5.43857 -1.81362 0
M  V30 1013 H 92.1853 -5.88741 -1.16207 0
M  V30 1014 H 93.2553 -4.84454 -0.207847 0
M  V30 1015 N 94.5984 0.214957 -1.56127 0
M  V30 1016 C 95.8234 0.95924 -1.83884 0
M  V30 1017 C 96.2484 1.7689 -0.639644 0
M  V30 1018 O 95.6064 1.76566 0.411601 0
M  V30 1019 C 95.6544 1.84723 -3.09693 0
M  V30 1020 O 94.7584 2.94346 -2.8885 0
M  V30 1021 H 94.0994 0.27125 -0.606069 0
M  V30 1022 H 96.6294 0.226276 -2.03345 0
M  V30 1023 H 96.6394 2.25576 -3.39969 0
M  V30 1024 H 95.3144 1.25218 -3.96602 0
M  V30 1025 H 93.8914 2.57391 -2.69823 0
M  V30 1026 N 96.0765 1.50051 0.48192 0
M  V30 1027 C 97.0235 1.68122 1.58125 0
M  V30 1028 C 97.9935 0.522545 1.57666 0
M  V30 1029 O 99.1785 0.751844 1.75362 0
M  V30 1030 C 96.3185 1.77142 2.96167 0
M  V30 1031 C 95.4315 3.0444 3.06497 0
M  V30 1032 C 94.5665 3.04321 4.35387 0
M  V30 1033 C 93.6055 4.26118 4.3942 0
M  V30 1034 N 92.7425 4.238 5.59766 0
M  V30 1035 H 97.5825 2.6198 1.42022 0
M  V30 1036 H 95.1195 1.29877 0.690687 0
M  V30 1037 H 97.0775 1.80352 3.76203 0
M  V30 1038 H 95.7075 0.867329 3.1093 0
M  V30 1039 H 94.7595 3.10752 2.19402 0
M  V30 1040 H 96.0715 3.94426 3.05336 0
M  V30 1041 H 95.2255 3.062 5.23762 0
M  V30 1042 H 93.9645 2.12147 4.39141 0
M  V30 1043 H 92.9695 4.24463 3.49444 0
M  V30 1044 H 94.1945 5.19507 4.37366 0
M  V30 1045 H 92.1405 3.34474 5.64326 0
M  V30 1046 H 92.0575 5.07542 5.60301 0
M  V30 1047 H 93.3255 4.2981 6.50295 0
M  V30 1048 N 97.5546 -0.734337 1.39446 0
M  V30 1049 C 98.4646 -1.87879 1.40495 0
M  V30 1050 C 99.4806 -1.714 0.299672 0
M  V30 1051 O 100.657 -1.93991 0.541249 0
M  V30 1052 C 97.7216 -3.23477 1.24754 0
M  V30 1053 C 96.7826 -3.52344 2.45259 0
M  V30 1054 C 96.0156 -4.81473 2.30259 0
M  V30 1055 O 96.2386 -5.55237 1.30643 0
M  V30 1056 O 95.1726 -5.10254 3.19256 0
M  V30 1057 H 98.9986 -1.89949 2.36966 0
M  V30 1058 H 96.5836 -0.882243 1.20569 0
M  V30 1059 H 98.4656 -4.04509 1.18111 0
M  V30 1060 H 97.1406 -3.22176 0.313781 0
M  V30 1061 H 96.0476 -2.71396 2.57478 0
M  V30 1062 H 97.3806 -3.58426 3.37331 0
M  V30 1063 N 99.0327 -1.24633 -0.964593 0
M  V30 1064 C 99.9627 -1.06611 -2.07741 0
M  V30 1065 C 100.944 0.0218666 -1.70086 0
M  V30 1066 O 102.129 -0.145793 -1.93652 0
M  V30 1067 C 99.2587 -0.673444 -3.40708 0
M  V30 1068 C 98.2127 -1.71054 -3.92332 0
M  V30 1069 C 97.5387 -1.17285 -5.21678 0
M  V30 1070 C 98.8387 -3.10718 -4.19824 0
M  V30 1071 H 100.533 -1.99693 -2.23076 0
M  V30 1072 H 98.0787 -0.96152 -1.07195 0
M  V30 1073 H 100.032 -0.534345 -4.17998 0
M  V30 1074 H 98.7557 0.293073 -3.25282 0
M  V30 1075 H 97.4147 -1.83791 -3.17201 0
M  V30 1076 H 97.0627 -0.196847 -5.02615 0
M  V30 1077 H 96.7627 -1.86592 -5.57187 0
M  V30 1078 H 98.2867 -1.04593 -6.01575 0
M  V30 1079 H 99.7007 -3.01192 -4.87808 0
M  V30 1080 H 98.0977 -3.77406 -4.66567 0
M  V30 1081 H 99.1677 -3.58524 -3.26479 0
M  V30 1082 N 100.511 1.16574 -1.06058 0
M  V30 1083 C 101.461 2.18854 -0.63929 0
M  V30 1084 C 102.445 1.57505 0.328798 0
M  V30 1085 O 103.637 1.76408 0.144623 0
M  V30 1086 C 100.766 3.43291 -0.0247203 0
M  V30 1087 C 99.8518 4.11722 -1.01716 0
M  V30 1088 N 100.243 4.55841 -2.19186 0
M  V30 1089 C 98.5408 4.37872 -0.847569 0
M  V30 1090 C 99.2418 5.08751 -2.82042 0
M  V30 1091 N 98.2178 5.01489 -2.09784 0
M  V30 1092 H 102.02 2.5068 -1.53417 0
M  V30 1093 H 99.5338 1.32999 -0.931935 0
M  V30 1094 H 101.531 4.15856 0.294915 0
M  V30 1095 H 100.191 3.12954 0.865448 0
M  V30 1096 H 101.202 4.49649 -2.56975 0
M  V30 1097 H 97.8788 4.17499 -0.00918848 0
M  V30 1098 H 99.2688 5.52944 -3.81709 0
M  V30 1099 N 101.989 0.842826 1.3317 0
M  V30 1100 C 103.214 0.453129 2.02389 0
M  V30 1101 C 103.639 -0.939105 1.6298 0
M  V30 1102 O 102.997 -1.61472 0.8244 0
M  V30 1103 C 103.045 0.586094 3.55805 0
M  V30 1104 O 102.149 -0.386029 4.10589 0
M  V30 1105 H 101.49 0.183664 0.638094 0
M  V30 1106 H 104.02 1.13875 1.69981 0
M  V30 1107 H 104.03 0.469209 4.05293 0
M  V30 1108 H 102.705 1.6014 3.83833 0
M  V30 1109 H 101.282 -0.226371 3.72212 0
M  V30 1110 N 103.467 -1.45747 0.599634 0
M  V30 1111 C 104.377 -2.34262 -0.125888 0
M  V30 1112 C 105.393 -1.50768 -0.868625 0
M  V30 1113 O 106.569 -1.83592 -0.828003 0
M  V30 1114 C 103.634 -3.28252 -1.11587 0
M  V30 1115 C 102.695 -4.27651 -0.375956 0
M  V30 1116 C 101.928 -5.1715 -1.31877 0
M  V30 1117 O 102.151 -5.09916 -2.55621 0
M  V30 1118 O 101.085 -5.96286 -0.820157 0
M  V30 1119 H 104.911 -2.97688 0.601315 0
M  V30 1120 H 102.496 -1.44999 0.359934 0
M  V30 1121 H 104.378 -3.86191 -1.68626 0
M  V30 1122 H 103.053 -2.67401 -1.82424 0
M  V30 1123 H 101.96 -3.7335 0.236698 0
M  V30 1124 H 103.293 -4.91334 0.29177 0
M  V30 1125 N 104.945 -0.338344 -1.53925 0
M  V30 1126 C 106.192 0.259758 -2.00827 0
M  V30 1127 C 106.52 1.50973 -1.22628 0
M  V30 1128 O 105.775 1.93379 -0.300509 0
M  V30 1129 C 106.074 0.62448 -3.51902 0
M  V30 1130 C 105.74 -0.528006 -4.47798 0
M  V30 1131 C 104.402 -0.844298 -4.73735 0
M  V30 1132 C 106.754 -1.30143 -5.0469 0
M  V30 1133 C 104.082 -1.93648 -5.53821 0
M  V30 1134 C 106.434 -2.38382 -5.85967 0
M  V30 1135 C 105.098 -2.70576 -6.10201 0
M  V30 1136 H 104.368 0.0950523 -0.734878 0
M  V30 1137 H 107.015 -0.465182 -1.85764 0
M  V30 1138 H 105.32 1.43006 -3.64769 0
M  V30 1139 H 107.017 1.09905 -3.85645 0
M  V30 1140 H 103.607 -0.271421 -4.2774 0
M  V30 1141 H 107.791 -1.07033 -4.84621 0
M  V30 1142 H 103.047 -2.19021 -5.70824 0
M  V30 1143 H 107.221 -2.98746 -6.29066 0
M  V30 1144 H 104.848 -3.55333 -6.72044 0
M  V30 1145 N 106.423 1.57458 -0.0668435 0
M  V30 1146 C 107.648 1.9804 0.616027 0
M  V30 1147 C 108.073 0.944771 1.62652 0
M  V30 1148 O 107.431 -0.0902094 1.81075 0
M  V30 1149 C 107.479 3.37665 1.26549 0
M  V30 1150 O 106.583 3.36701 2.38131 0
M  V30 1151 H 105.924 0.644719 0.158849 0
M  V30 1152 H 108.454 2.04121 -0.139891 0
M  V30 1153 H 108.464 3.7474 1.6135 0
M  V30 1154 H 107.139 4.12573 0.525016 0
M  V30 1155 H 105.716 3.1139 2.0516 0
M  V30 1156 N 107.901 -0.206675 1.56239 0
M  V30 1157 C 108.811 -1.27686 1.96808 0
M  V30 1158 C 109.827 -1.50455 0.874035 0
M  V30 1159 O 111.003 -1.63295 1.17884 0
M  V30 1160 C 108.068 -2.60358 2.28942 0
M  V30 1161 C 107.129 -2.45762 3.51994 0
M  V30 1162 C 106.362 -3.72108 3.82585 0
M  V30 1163 O 106.585 -4.75776 3.14631 0
M  V30 1164 O 105.519 -3.6833 4.76043 0
M  V30 1165 H 109.345 -0.962593 2.88041 0
M  V30 1166 H 106.93 -0.410746 1.43643 0
M  V30 1167 H 108.812 -3.38687 2.50737 0
M  V30 1168 H 107.487 -2.91435 1.4088 0
M  V30 1169 H 106.394 -1.65584 3.35459 0
M  V30 1170 H 107.727 -2.19621 4.40486 0
M  V30 1171 N 109.379 -1.50304 -0.473955 0
M  V30 1172 C 110.625 -1.61389 -1.22806 0
M  V30 1173 C 110.958 -0.311955 -1.91678 0
M  V30 1174 O 110.233 0.686384 -1.81986 0
M  V30 1175 C 110.516 -2.79219 -2.27396 0
M  V30 1176 C 110.369 -4.19286 -1.62848 0
M  V30 1177 C 111.688 -2.92614 -3.28732 0
M  V30 1178 H 108.807 -0.587399 -0.445119 0
M  V30 1179 H 111.449 -1.82681 -0.522265 0
M  V30 1180 H 109.599 -2.61195 -2.87592 0
M  V30 1181 H 111.271 -4.48892 -1.06271 0
M  V30 1182 H 109.514 -4.23677 -0.931693 0
M  V30 1183 H 110.185 -4.97655 -2.38838 0
M  V30 1184 H 112.661 -3.09105 -2.78556 0
M  V30 1185 H 111.537 -3.76688 -3.99246 0
M  V30 1186 H 111.798 -2.03107 -3.92683 0
M  V30 1187 N 110.857 0.726932 -1.39834 0
M  V30 1188 C 111.79 1.8501 -1.33592 0
M  V30 1189 C 112.768 1.61262 -0.208191 0
M  V30 1190 O 113.952 1.84422 -0.389981 0
M  V30 1191 C 111.079 3.21143 -1.07633 0
M  V30 1192 C 110.125 3.63737 -2.22705 0
M  V30 1193 S 110.958 3.72167 -3.85035 0
M  V30 1194 C 112.114 5.11077 -3.61318 0
M  V30 1195 H 112.347 1.90022 -2.28646 0
M  V30 1196 H 109.88 0.892595 -1.25985 0
M  V30 1197 H 111.838 3.99747 -0.933415 0
M  V30 1198 H 110.499 3.13776 -0.142526 0
M  V30 1199 H 109.692 4.62551 -2.00155 0
M  V30 1200 H 109.294 2.9236 -2.33242 0
M  V30 1201 H 111.586 5.97656 -3.19083 0
M  V30 1202 H 112.529 5.38658 -4.59623 0
M  V30 1203 H 112.937 4.81135 -2.95245 0
M  V30 1204 N 112.336 1.25143 0.95797 0
M  V30 1205 C 113.284 1.05019 2.07542 0
M  V30 1206 C 114.278 -0.0178751 1.69391 0
M  V30 1207 O 115.484 0.137472 1.79474 0
M  V30 1208 H 111.859 0.32265 0.679265 0
M  V30 1209 H 113.83 1.99759 2.21673 0
M  V30 1210 C 112.579 0.682074 3.40944 0
M  V30 1211 H 111.902 1.49573 3.70767 0
M  V30 1212 H 113.342 0.580945 4.20001 0
M  V30 1213 C 111.801 -0.611608 3.31302 0
M  V30 1214 O 112.331 -1.65465 3.66038 0
M  V30 1215 N 110.537 -0.595982 2.84423 0
M  V30 1216 H 110.084 0.253192 2.56353 0
M  V30 1217 H 110.042 -1.46173 2.78354 0
M  V30 1218 N 113.814 -1.1601 1.06675 0
M  V30 1219 C 114.724 -2.24156 0.692179 0
M  V30 1220 C 115.74 -1.71507 -0.293513 0
M  V30 1221 O 116.916 -2.009 -0.141861 0
M  V30 1222 C 113.981 -3.46587 0.0884131 0
M  V30 1223 C 113.042 -4.14257 1.12646 0
M  V30 1224 C 112.275 -5.30844 0.551416 0
M  V30 1225 O 112.498 -5.66858 -0.634656 0
M  V30 1226 O 111.432 -5.87848 1.29298 0
M  V30 1227 H 115.258 -2.58513 1.59388 0
M  V30 1228 H 112.843 -1.23599 0.83926 0
M  V30 1229 H 114.725 -4.20679 -0.246361 0
M  V30 1230 H 113.4 -3.13994 -0.786712 0
M  V30 1231 H 112.307 -3.42118 1.51348 0
M  V30 1232 H 113.64 -4.50914 1.97325 0
M  V30 1233 N 115.292 -0.849877 -1.32721 0
M  V30 1234 C 116.541 -0.447175 -1.96681 0
M  V30 1235 C 116.854 1.00135 -1.68025 0
M  V30 1236 O 118.06 1.50926 -2.25685 0
M  V30 1237 C 116.516 -0.7487 -3.52026 0
M  V30 1238 C 116.124 -2.21264 -3.89546 0
M  V30 1239 C 117.868 -0.413487 -4.22481 0
M  V30 1240 C 115.775 -2.45763 -5.37917 0
M  V30 1241 H 114.705 -0.163486 -0.736063 0
M  V30 1242 H 117.356 -1.03999 -1.51183 0
M  V30 1243 H 115.738 -0.0853727 -3.95908 0
M  V30 1244 H 116.912 -2.91736 -3.56689 0
M  V30 1245 H 115.227 -2.5119 -3.32103 0
M  V30 1246 H 117.824 -0.574017 -5.3161 0
M  V30 1247 H 118.167 0.644492 -4.11281 0
M  V30 1248 H 118.7 -1.03251 -3.84167 0
M  V30 1249 H 115.439 -3.50168 -5.54132 0
M  V30 1250 H 114.959 -1.79864 -5.72197 0
M  V30 1251 H 116.638 -2.29471 -6.0494 0
M  V30 1252 N 116.77 1.45427 -0.607355 0
M  V30 1253 C 118.016 2.03097 -0.111035 0
M  V30 1254 C 118.371 1.46735 1.24445 0
M  V30 1255 O 117.664 0.632478 1.8086 0
M  V30 1256 C 117.858 3.57398 -0.0129263 0
M  V30 1257 C 117.687 4.28726 -1.35735 0
M  V30 1258 C 116.457 4.66659 -1.93798 0
M  V30 1259 C 118.655 4.60699 -2.28607 0
M  V30 1260 N 116.637 5.22845 -3.21723 0
M  V30 1261 C 118.008 5.17716 -3.41131 0
M  V30 1262 C 120.063 4.42638 -2.27982 0
M  V30 1263 C 118.766 5.58576 -4.53194 0
M  V30 1264 C 120.792 4.84531 -3.39093 0
M  V30 1265 C 120.154 5.4164 -4.50339 0
M  V30 1266 H 116.253 0.777476 -0.083994 0
M  V30 1267 H 118.837 1.77249 -0.805655 0
M  V30 1268 H 117.008 3.82907 0.650914 0
M  V30 1269 H 118.74 4.01722 0.490033 0
M  V30 1270 H 115.495 4.50207 -1.47007 0
M  V30 1271 H 115.919 5.55438 -3.87063 0
M  V30 1272 H 120.561 3.97798 -1.43235 0
M  V30 1273 H 118.279 6.02382 -5.38667 0
M  V30 1274 H 121.865 4.72289 -3.39757 0
M  V30 1275 H 120.745 5.73461 -5.34895 0
M  V30 1276 N 118.248 0.346503 1.53744 0
M  V30 1277 C 119.211 -0.496439 2.23759 0
M  V30 1278 C 120.211 -1.0252 1.2388 0
M  V30 1279 O 121.401 -0.913974 1.48297 0
M  V30 1280 C 118.533 -1.69187 2.95954 0
M  V30 1281 H 119.726 0.115952 2.99676 0
M  V30 1282 H 117.279 0.0978939 1.55993 0
M  V30 1283 H 118.014 -2.34288 2.24231 0
M  V30 1284 H 117.799 -1.31989 3.69217 0
M  V30 1285 H 119.289 -2.28969 3.49232 0
M  V30 1286 N 119.726 -1.57421 0.075193 0
M  V30 1287 C 120.951 -1.98364 -0.605515 0
M  V30 1288 C 121.376 -0.953383 -1.62149 0
M  V30 1289 O 120.734 0.0806053 -1.81121 0
M  V30 1290 C 120.782 -3.38332 -1.24756 0
M  V30 1291 O 119.886 -3.37959 -2.36342 0
M  V30 1292 H 119.227 -0.645553 -0.155428 0
M  V30 1293 H 121.757 -2.04044 0.150714 0
M  V30 1294 H 121.767 -3.75591 -1.5936 0
M  V30 1295 H 120.442 -4.12846 -0.503129 0
M  V30 1296 H 119.019 -3.12474 -2.03506 0
M  V30 1297 N 121.204 0.198386 -1.56346 0
M  V30 1298 C 122.481 0.944982 -1.71258 0
M  V30 1299 C 122.861 2.0151 -0.629048 0
M  V30 1300 O 122.209 2.25639 0.360473 0
M  V30 1301 C 122.419 1.5344 -3.1346 0
M  V30 1302 C 123.767 2.01778 -3.73591 0
M  V30 1303 O 124.791 1.63288 -3.16568 0
M  V30 1304 O 123.65 2.72594 -4.73661 0
M  V30 1305 H 120.744 0.442939 -0.69838 0
M  V30 1306 H 123.29 0.188342 -1.68652 0
M  V30 1307 H 122.062 0.762869 -3.83792 0
M  V30 1308 H 121.685 2.35596 -3.20282 0
M  V30 1309 N 122.682 1.50554 0.465978 0
M  V30 1310 C 123.614 1.65949 1.58093 0
M  V30 1311 C 124.627 0.540827 1.53554 0
M  V30 1312 O 125.816 0.814187 1.5885 0
M  V30 1313 C 122.916 1.63261 2.96983 0
M  V30 1314 C 122.089 2.91245 3.26336 0
M  V30 1315 C 121.148 2.8113 4.44806 0
M  V30 1316 O 120.174 3.55086 4.44862 0
M  V30 1317 N 121.376 1.95032 5.46756 0
M  V30 1318 H 124.141 2.62122 1.45301 0
M  V30 1319 H 121.702 1.48082 0.65448 0
M  V30 1320 H 123.694 1.54101 3.74212 0
M  V30 1321 H 122.264 0.748032 3.03518 0
M  V30 1322 H 121.484 3.14493 2.37672 0
M  V30 1323 H 122.772 3.76022 3.42761 0
M  V30 1324 H 122.17 1.3427 5.49534 0
M  V30 1325 H 120.727 1.91772 6.2295 0
M  V30 1326 N 124.16 -0.719506 1.40217 0
M  V30 1327 C 125.409 -1.47486 1.37589 0
M  V30 1328 C 125.722 -1.9559 -0.0201568 0
M  V30 1329 O 126.928 -2.70973 -0.169049 0
M  V30 1330 C 125.384 -2.66575 2.41796 0
M  V30 1331 C 124.992 -2.25358 3.87192 0
M  V30 1332 C 126.736 -3.4433 2.48269 0
M  V30 1333 C 124.643 -3.41262 4.83005 0
M  V30 1334 H 123.573 -0.553901 0.511576 0
M  V30 1335 H 126.224 -0.783427 1.65936 0
M  V30 1336 H 124.606 -3.3787 2.06543 0
M  V30 1337 H 125.78 -1.61509 4.31569 0
M  V30 1338 H 124.095 -1.60657 3.84159 0
M  V30 1339 H 126.692 -4.30569 3.17041 0
M  V30 1340 H 127.035 -3.87872 1.51198 0
M  V30 1341 H 127.568 -2.80076 2.82493 0
M  V30 1342 H 124.307 -3.02755 5.81394 0
M  V30 1343 H 123.827 -4.0404 4.43297 0
M  V30 1344 H 125.506 -4.07383 5.02641 0
M  V30 1345 N 125.638 -1.25649 -0.95132 0
M  V30 1346 C 127.054 -1.02542 -1.223 0
M  V30 1347 C 127.254 0.255715 -1.99871 0
M  V30 1348 O 126.31 0.967558 -2.33226 0
M  V30 1349 C 127.623 -2.25065 -1.99415 0
M  V30 1350 C 129.171 -2.29861 -2.12446 0
M  V30 1351 C 129.646 -3.52048 -2.92961 0
M  V30 1352 N 131.137 -3.52465 -3.00538 0
M  V30 1353 C 131.872 -4.43672 -3.63239 0
M  V30 1354 N 131.368 -5.45157 -4.27523 0
M  V30 1355 N 133.161 -4.31346 -3.60412 0
M  V30 1356 H 125.312 -2.07951 -0.432471 0
M  V30 1357 H 127.575 -0.91339 -0.253816 0
M  V30 1358 H 127.281 -3.18194 -1.49817 0
M  V30 1359 H 127.155 -2.28502 -3.00111 0
M  V30 1360 H 129.542 -1.37252 -2.61239 0
M  V30 1361 H 129.623 -2.3044 -1.11044 0
M  V30 1362 H 129.267 -4.44981 -2.44856 0
M  V30 1363 H 129.197 -3.48715 -3.94596 0
M  V30 1364 H 131.688 -2.79056 -2.54826 0
M  V30 1365 H 132.001 -6.10958 -4.73234 0
M  V30 1366 H 130.346 -5.49025 -4.26141 0
M  V30 1367 H 133.537 -3.51288 -3.09377 0
M  V30 1368 H 133.71 -5.02624 -4.0899 0
M  V30 1369 N 127.117 1.15442 -1.07289 0
M  V30 1370 C 128.342 1.90638 -0.816828 0
M  V30 1371 C 128.767 1.77445 0.624083 0
M  V30 1372 O 128.125 1.10671 1.43602 0
M  V30 1373 C 128.173 3.39008 -1.22906 0
M  V30 1374 O 127.277 4.10701 -0.373975 0
M  V30 1375 H 126.618 0.593555 -0.297638 0
M  V30 1376 H 129.148 1.46198 -1.43134 0
M  V30 1377 H 129.158 3.89801 -1.20497 0
M  V30 1378 H 127.833 3.47929 -2.27856 0
M  V30 1379 H 126.41 3.70046 -0.460499 0
M  V30 1380 N 128.595 0.856903 1.32268 0
M  V30 1381 C 129.558 0.308171 2.27119 0
M  V30 1382 C 130.558 -0.533421 1.51695 0
M  V30 1383 O 131.748 -0.344607 1.70757 0
M  V30 1384 C 128.88 -0.563757 3.36206 0
M  V30 1385 H 130.073 1.14535 2.77167 0
M  V30 1386 H 127.626 0.631421 1.42978 0
M  V30 1387 H 128.361 -1.42266 2.91429 0
M  V30 1388 H 128.146 0.0386749 3.92081 0
M  V30 1389 H 129.636 -0.940386 4.06874 0
M  V30 1390 N 130.073 -1.45103 0.615059 0
M  V30 1391 C 131.319 -2.02483 0.113347 0
M  V30 1392 C 131.652 -1.48146 -1.25564 0
M  V30 1393 O 130.927 -0.659104 -1.82992 0
M  V30 1394 C 131.21 -3.60005 0.0825278 0
M  V30 1395 C 131.063 -4.2466 1.48271 0
M  V30 1396 C 132.382 -4.35972 -0.601401 0
M  V30 1397 H 129.501 -0.735764 0.0426632 0
M  V30 1398 H 132.143 -1.72868 0.788461 0
M  V30 1399 H 130.293 -3.85367 -0.492378 0
M  V30 1400 H 131.965 -4.10458 2.10527 0
M  V30 1401 H 130.208 -3.82772 2.04127 0
M  V30 1402 H 130.879 -5.336 1.41332 0
M  V30 1403 H 133.355 -4.15947 -0.112666 0
M  V30 1404 H 132.231 -5.45697 -0.592097 0
M  V30 1405 H 132.492 -4.09391 -1.66887 0
M  V30 1406 N 131.551 -0.354651 -1.53558 0
M  V30 1407 C 132.481 0.489091 -2.2832 0
M  V30 1408 C 133.462 1.09324 -1.30316 0
M  V30 1409 O 134.647 1.11255 -1.59173 0
M  V30 1410 C 131.777 1.63456 -3.0643 0
M  V30 1411 C 130.731 1.1582 -4.12031 0
M  V30 1412 C 130.057 2.39305 -4.7816 0
M  V30 1413 C 131.357 0.250731 -5.21698 0
M  V30 1414 H 133.051 -0.134614 -2.99097 0
M  V30 1415 H 130.597 -0.0661826 -1.43848 0
M  V30 1416 H 132.55 2.23136 -3.57475 0
M  V30 1417 H 131.274 2.28533 -2.33325 0
M  V30 1418 H 129.933 0.584146 -3.61916 0
M  V30 1419 H 129.581 3.02814 -4.01637 0
M  V30 1420 H 129.281 2.08109 -5.49513 0
M  V30 1421 H 130.805 2.99691 -5.31994 0
M  V30 1422 H 132.219 0.754695 -5.68311 0
M  V30 1423 H 130.616 0.0301468 -6.00092 0
M  V30 1424 H 131.686 -0.710125 -4.79672 0
M  V30 1425 N 133.029 1.57378 -0.0835403 0
M  V30 1426 C 134.278 1.93106 0.582498 0
M  V30 1427 C 134.591 0.96651 1.70053 0
M  V30 1428 O 135.797 1.21705 2.42693 0
M  V30 1429 C 134.253 3.43076 1.08751 0
M  V30 1430 C 133.861 4.48 -0.000146404 0
M  V30 1431 C 135.605 3.87785 1.72694 0
M  V30 1432 C 133.512 5.89113 0.519568 0
M  V30 1433 H 132.442 0.720775 0.221358 0
M  V30 1434 H 135.093 1.82821 -0.157675 0
M  V30 1435 H 133.475 3.48474 1.88101 0
M  V30 1436 H 134.649 4.54233 -0.775199 0
M  V30 1437 H 132.964 4.1283 -0.54406 0
M  V30 1438 H 135.561 4.90604 2.1263 0
M  V30 1439 H 135.904 3.25796 2.59158 0
M  V30 1440 H 136.437 3.8504 0.999457 0
M  V30 1441 H 133.176 6.54775 -0.308186 0
M  V30 1442 H 132.696 5.86376 1.26188 0
M  V30 1443 H 134.375 6.39346 0.992237 0
M  V30 1444 N 134.507 -0.190092 1.56449 0
M  V30 1445 C 135.732 -0.929864 1.85387 0
M  V30 1446 C 136.157 -1.7585 0.667704 0
M  V30 1447 O 135.515 -1.77198 -0.383459 0
M  V30 1448 C 135.563 -1.79773 3.12593 0
M  V30 1449 O 134.667 -2.89713 2.93496 0
M  V30 1450 H 134.008 -0.261574 0.610307 0
M  V30 1451 H 136.538 -0.193896 2.03679 0
M  V30 1452 H 136.548 -2.20139 3.43515 0
M  V30 1453 H 135.223 -1.18892 3.98544 0
M  V30 1454 H 133.8 -2.53065 2.73884 0
M  V30 1455 N 135.985 -1.50799 -0.457987 0
M  V30 1456 C 137.21 -1.66496 -1.23668 0
M  V30 1457 C 137.635 -0.353288 -1.84752 0
M  V30 1458 O 136.993 0.684346 -1.67888 0
M  V30 1459 C 137.041 -2.76763 -2.3116 0
M  V30 1460 O 136.145 -2.38928 -3.36136 0
M  V30 1461 H 135.486 -0.555828 -0.363252 0
M  V30 1462 H 138.016 -1.9725 -0.543474 0
M  V30 1463 H 138.026 -3.00232 -2.76269 0
M  V30 1464 H 136.701 -3.71954 -1.86073 0
M  V30 1465 H 135.278 -2.25953 -2.96647 0
M  V30 1466 N 137.463 0.71206 -1.40597 0
M  V30 1467 C 138.41 1.82613 -1.41142 0
M  V30 1468 C 139.38 1.63925 -0.267903 0
M  V30 1469 O 140.565 1.85009 -0.466495 0
M  V30 1470 C 137.705 3.20354 -1.28324 0
M  V30 1471 C 136.818 3.50589 -2.52411 0
M  V30 1472 C 135.953 4.77855 -2.32009 0
M  V30 1473 C 134.992 5.01005 -3.51654 0
M  V30 1474 N 134.129 6.19487 -3.30425 0
M  V30 1475 H 138.969 1.81482 -2.36365 0
M  V30 1476 H 136.506 0.886475 -1.17388 0
M  V30 1477 H 138.464 3.99899 -1.18899 0
M  V30 1478 H 137.094 3.20705 -0.367189 0
M  V30 1479 H 136.146 2.65573 -2.72351 0
M  V30 1480 H 137.458 3.63604 -3.41458 0
M  V30 1481 H 136.612 5.65424 -2.19956 0
M  V30 1482 H 135.351 4.67056 -1.40392 0
M  V30 1483 H 134.356 4.1189 -3.64179 0
M  V30 1484 H 135.581 5.13674 -4.44202 0
M  V30 1485 H 133.527 6.09932 -2.41494 0
M  V30 1486 H 133.444 6.33194 -4.13039 0
M  V30 1487 H 134.712 7.09834 -3.22113 0
M  V30 1488 N 138.941 1.26152 0.944643 0
M  V30 1489 C 140.352 1.10454 1.50522 0
M  V30 1490 C 140.703 -0.31635 1.93633 0
M  V30 1491 O 139.828 -1.20746 1.79581 0
M  V30 1492 C 140.423 1.99891 2.73549 0
M  V30 1493 C 138.982 1.88348 3.25886 0
M  V30 1494 C 138.129 1.93447 1.9868 0
M  V30 1495 H 141.08 1.39292 0.760489 0
M  V30 1496 H 141.101 1.54477 3.47732 0
M  V30 1497 H 140.613 3.03297 2.42141 0
M  V30 1498 H 138.714 0.878636 3.62092 0
M  V30 1499 H 138.827 2.73696 3.93227 0
M  V30 1500 H 137.191 1.37456 2.14425 0
M  V30 1501 H 137.974 2.98476 1.69607 0
M  V30 1502 N 140.419 -1.14872 1.07899 0
M  V30 1503 C 141.667 -1.85422 0.803941 0
M  V30 1504 C 141.988 -1.83051 -0.67211 0
M  V30 1505 O 141.258 -1.27532 -1.48703 0
M  V30 1506 H 139.838 -0.686537 0.294408 0
M  V30 1507 H 142.5 -1.39226 1.3639 0
M  V30 1508 H 141.596 -2.90399 1.14346 0
M  V30 1509 N 141.898 -0.863906 -1.31812 0
M  V30 1510 C 143.138 -0.47825 -1.98726 0
M  V30 1511 C 143.502 0.950397 -1.66828 0
M  V30 1512 O 144.703 1.44109 -2.26905 0
M  V30 1513 C 142.974 -0.721134 -3.50049 0
M  V30 1514 S 144.533 -0.434432 -4.36644 0
M  V30 1515 H 141.351 -0.178773 -0.688158 0
M  V30 1516 H 143.953 -1.11862 -1.60334 0
M  V30 1517 H 142.657 -1.75981 -3.70755 0
M  V30 1518 H 142.188 -0.0675315 -3.93342 0
M  V30 1519 H 144.203 0.735786 -4.90714 0
M  V30 1520 N 143.376 1.44774 -0.622745 0
M  V30 1521 C 144.623 2.02121 -0.1239 0
M  V30 1522 C 144.951 1.48915 1.25118 0
M  V30 1523 O 144.206 0.660045 1.84233 0
M  V30 1524 C 144.505 3.57364 -0.0508323 0
M  V30 1525 C 144.171 4.29787 -1.36358 0
M  V30 1526 C 142.833 4.4929 -1.72314 0
M  V30 1527 C 145.185 4.71062 -2.23048 0
M  V30 1528 C 142.513 5.07325 -2.94682 0
M  V30 1529 C 144.865 5.30452 -3.44679 0
M  V30 1530 C 143.529 5.48175 -3.80868 0
M  V30 1531 H 142.799 0.739612 -0.0453381 0
M  V30 1532 H 145.446 1.73648 -0.807389 0
M  V30 1533 H 143.751 3.85202 0.715991 0
M  V30 1534 H 145.448 3.99456 0.351533 0
M  V30 1535 H 142.038 4.14932 -1.07375 0
M  V30 1536 H 146.222 4.55715 -1.96565 0
M  V30 1537 H 141.478 5.19235 -3.22809 0
M  V30 1538 H 145.652 5.61385 -4.12092 0
M  V30 1539 H 143.279 5.92912 -4.75773 0
M  V30 1540 N 144.854 0.36279 1.53368 0
M  V30 1541 C 146.103 -0.22888 2.00397 0
M  V30 1542 C 146.416 -1.50096 1.25421 0
M  V30 1543 O 147.622 -2.17106 1.63025 0
M  V30 1544 C 146.078 -0.458417 3.56969 0
M  V30 1545 C 145.686 0.798877 4.4082 0
M  V30 1546 C 147.43 -1.00789 4.12361 0
M  V30 1547 C 145.337 0.539078 5.88938 0
M  V30 1548 H 144.267 -0.089305 0.748693 0
M  V30 1549 H 146.918 0.481099 1.77081 0
M  V30 1550 H 145.3 -1.22959 3.76427 0
M  V30 1551 H 146.474 1.57262 4.33134 0
M  V30 1552 H 144.789 1.27137 3.96516 0
M  V30 1553 H 147.386 -1.21754 5.20653 0
M  V30 1554 H 147.729 -1.9692 3.66781 0
M  V30 1555 H 148.262 -0.296961 3.9669 0
M  V30 1556 H 145.001 1.47064 6.3879 0
M  V30 1557 H 144.521 -0.196222 5.99479 0
M  V30 1558 H 146.2 0.163542 6.46793 0
M  V30 1559 N 146.332 -1.57332 0.0918853 0
M  V30 1560 C 147.295 -2.12708 -0.85369 0
M  V30 1561 C 148.295 -1.05561 -1.213 0
M  V30 1562 O 149.485 -1.31461 -1.14296 0
M  V30 1563 C 146.617 -2.64503 -2.15061 0
M  V30 1564 H 147.81 -2.97573 -0.3729 0
M  V30 1565 H 145.363 -1.55509 -0.157072 0
M  V30 1566 H 146.098 -1.83149 -2.67632 0
M  V30 1567 H 145.883 -3.4284 -1.90272 0
M  V30 1568 H 147.373 -3.07351 -2.82711 0
M  V30 1569 N 147.81 0.181792 -1.56548 0
M  V30 1570 C 149.058 0.89832 -1.81038 0
M  V30 1571 C 149.379 1.83232 -0.667164 0
M  V30 1572 O 148.649 1.93372 0.313673 0
M  V30 1573 H 147.229 0.33471 -0.667816 0
M  V30 1574 H 149.891 0.184116 -1.94028 0
M  V30 1575 H 148.987 1.4815 -2.74696 0
M  V30 1576 N 149.288 1.51039 0.449983 0
M  V30 1577 C 150.251 1.70863 1.5277 0
M  V30 1578 C 151.251 0.578846 1.5002 0
M  V30 1579 O 152.441 0.846213 1.52266 0
M  V30 1580 C 149.573 1.75341 2.9235 0
M  V30 1581 H 150.766 2.67034 1.36502 0
M  V30 1582 H 148.319 1.40838 0.677812 0
M  V30 1583 H 149.054 0.809383 3.14037 0
M  V30 1584 H 148.839 2.57436 2.95752 0
M  V30 1585 H 150.329 1.92559 3.70555 0
M  V30 1586 N 150.766 -0.704594 1.40972 0
M  V30 1587 C 152.043 -1.45847 1.30338 0
M  V30 1588 C 152.423 -2.10973 -0.0732344 0
M  V30 1589 O 151.771 -2.00997 -1.08685 0
M  V30 1590 C 151.981 -2.48525 2.45023 0
M  V30 1591 C 153.329 -3.1404 2.8577 0
M  V30 1592 O 154.353 -2.58848 2.44696 0
M  V30 1593 O 153.212 -4.13981 3.56766 0
M  V30 1594 H 150.306 -0.649092 0.512454 0
M  V30 1595 H 152.852 -0.735836 1.52917 0
M  V30 1596 H 151.624 -1.98994 3.36923 0
M  V30 1597 H 151.247 -3.2831 2.24272 0
M  V30 1598 N 152.244 -1.26651 -0.937939 0
M  V30 1599 C 153.493 -1.11775 -1.67897 0
M  V30 1600 C 153.806 0.33794 -1.92659 0
M  V30 1601 O 155.012 0.607434 -2.64618 0
M  V30 1602 C 153.468 -1.9523 -3.02346 0
M  V30 1603 C 153.076 -3.45393 -2.8532 0
M  V30 1604 C 154.82 -1.88972 -3.80118 0
M  V30 1605 C 152.727 -4.21083 -4.15263 0
M  V30 1606 H 151.657 -0.414696 -0.629717 0
M  V30 1607 H 154.308 -1.50988 -1.04283 0
M  V30 1608 H 152.69 -1.48853 -3.66959 0
M  V30 1609 H 153.864 -3.99561 -2.29537 0
M  V30 1610 H 152.179 -3.52921 -2.20988 0
M  V30 1611 H 154.776 -2.42805 -4.76392 0
M  V30 1612 H 155.119 -0.86113 -4.07296 0
M  V30 1613 H 155.652 -2.33189 -3.22285 0
M  V30 1614 H 152.391 -5.24425 -3.93267 0
M  V30 1615 H 151.911 -3.71695 -4.70747 0
M  V30 1616 H 153.59 -4.29706 -4.83696 0
M  V30 1617 N 153.722 1.14298 -1.08507 0
M  V30 1618 C 154.67 2.21483 -0.710483 0
M  V30 1619 C 155.664 1.66998 0.284234 0
M  V30 1620 O 156.87 1.79401 0.146692 0
M  V30 1621 H 153.245 0.721578 -0.211729 0
M  V30 1622 H 155.216 2.50348 -1.62384 0
M  V30 1623 C 153.965 3.4743 -0.137007 0
M  V30 1624 H 153.288 3.89686 -0.893592 0
M  V30 1625 H 154.728 4.2391 0.0872789 0
M  V30 1626 C 153.187 3.17548 1.12538 0
M  V30 1627 O 153.717 3.35437 2.21009 0
M  V30 1628 N 151.923 2.71499 1.03617 0
M  V30 1629 H 151.47 2.57143 0.153403 0
M  V30 1630 H 151.428 2.51881 1.88158 0
M  V30 1631 N 155.201 0.870884 1.31352 0
M  V30 1632 C 156.134 0.271983 2.26573 0
M  V30 1633 C 157.112 -0.599385 1.51149 0
M  V30 1634 O 158.296 -0.552605 1.80218 0
M  V30 1635 C 155.423 -0.614801 3.33073 0
M  V30 1636 C 154.469 0.185342 4.26097 0
M  V30 1637 S 155.302 1.56444 5.12138 0
M  V30 1638 C 156.458 0.683807 6.22153 0
M  V30 1639 H 156.691 1.07916 2.77023 0
M  V30 1640 H 154.224 0.669459 1.39132 0
M  V30 1641 H 156.182 -1.12074 3.94905 0
M  V30 1642 H 154.843 -1.39593 2.81376 0
M  V30 1643 H 154.036 -0.490771 5.01605 0
M  V30 1644 H 153.638 0.623415 3.68768 0
M  V30 1645 H 155.93 -0.10521 6.77418 0
M  V30 1646 H 156.873 1.41004 6.93919 0
M  V30 1647 H 157.281 0.250952 5.63942 0
M  V30 1648 N 156.679 -1.44442 0.630414 0
M  V30 1649 C 157.609 -2.33418 -0.0618083 0
M  V30 1650 C 158.59 -1.48165 -0.835541 0
M  V30 1651 O 159.775 -1.76886 -0.801564 0
M  V30 1652 C 156.905 -3.31222 -1.04449 0
M  V30 1653 C 155.859 -4.26288 -0.382436 0
M  V30 1654 C 155.185 -5.13954 -1.47497 0
M  V30 1655 C 156.485 -5.1744 0.710865 0
M  V30 1656 H 158.179 -2.91548 0.681184 0
M  V30 1657 H 155.725 -1.40191 0.329026 0
M  V30 1658 H 157.678 -3.92351 -1.53748 0
M  V30 1659 H 156.402 -2.71299 -1.81836 0
M  V30 1660 H 155.061 -3.6649 0.0899054 0
M  V30 1661 H 154.709 -4.50385 -2.2397 0
M  V30 1662 H 154.409 -5.7837 -1.03737 0
M  V30 1663 H 155.933 -5.77955 -1.96979 0
M  V30 1664 H 157.347 -5.72509 0.300996 0
M  V30 1665 H 155.744 -5.90455 1.07156 0
M  V30 1666 H 156.814 -4.58496 1.57829 0
M  V30 1667 N 158.157 -0.370918 -1.53173 0
M  V30 1668 C 159.12 0.460778 -2.24521 0
M  V30 1669 C 160.12 1.00536 -1.25496 0
M  V30 1670 O 161.31 0.890266 -1.49733 0
M  V30 1671 C 158.442 1.64457 -2.98608 0
M  V30 1672 H 159.635 -0.163613 -2.99453 0
M  V30 1673 H 157.188 -0.122699 -1.55818 0
M  V30 1674 H 157.923 2.30691 -2.2793 0
M  V30 1675 H 157.708 1.26099 -3.7127 0
M  V30 1676 H 159.198 2.23384 -3.5283 0
M  V30 1677 N 159.635 1.57281 -0.100228 0
M  V30 1678 C 160.598 2.13158 0.842398 0
M  V30 1679 C 161.598 1.06202 1.20738 0
M  V30 1680 O 162.788 1.32066 1.13597 0
M  V30 1681 C 159.92 2.65639 2.13655 0
M  V30 1682 H 161.113 2.97766 0.357114 0
M  V30 1683 H 158.666 1.5559 0.148823 0
M  V30 1684 H 159.401 1.84566 2.66657 0
M  V30 1685 H 159.186 3.43844 1.88451 0
M  V30 1686 H 160.676 3.08846 2.81077 0
M  V30 1687 N 161.113 -0.173488 1.56642 0
M  V30 1688 C 162.353 -0.896984 1.83667 0
M  V30 1689 C 162.717 -1.79523 0.680842 0
M  V30 1690 O 163.918 -2.55616 0.831488 0
M  V30 1691 C 162.189 -1.67351 3.15798 0
M  V30 1692 S 163.748 -2.44607 3.64298 0
M  V30 1693 H 160.566 -0.300464 0.644393 0
M  V30 1694 H 163.168 -0.158775 1.94854 0
M  V30 1695 H 161.872 -1.00462 3.97914 0
M  V30 1696 H 161.403 -2.45313 3.07546 0
M  V30 1697 H 163.418 -3.69261 3.31452 0
M  V30 1698 N 162.591 -1.51276 -0.441967 0
M  V30 1699 C 163.538 -1.72256 -1.53612 0
M  V30 1700 C 164.508 -0.564164 -1.56225 0
M  V30 1701 O 165.693 -0.798074 -1.73307 0
M  V30 1702 C 162.833 -1.84932 -2.91366 0
M  V30 1703 C 161.946 -3.12459 -2.98317 0
M  V30 1704 C 161.081 -3.15758 -4.27166 0
M  V30 1705 C 160.12 -4.37619 -4.27967 0
M  V30 1706 N 159.257 -4.38493 -5.48333 0
M  V30 1707 H 164.097 -2.65654 -1.35026 0
M  V30 1708 H 161.634 -1.31662 -0.656009 0
M  V30 1709 H 163.592 -1.90263 -3.7129 0
M  V30 1710 H 162.222 -0.949461 -3.08521 0
M  V30 1711 H 161.274 -3.1646 -2.11086 0
M  V30 1712 H 162.586 -4.02382 -2.94771 0
M  V30 1713 H 161.74 -3.19979 -5.15459 0
M  V30 1714 H 160.479 -2.23715 -4.33362 0
M  V30 1715 H 159.484 -4.33579 -3.38067 0
M  V30 1716 H 160.709 -5.30921 -4.23438 0
M  V30 1717 H 158.655 -3.49318 -5.55259 0
M  V30 1718 H 158.572 -5.22219 -5.46647 0
M  V30 1719 H 159.84 -4.469 -6.38671 0
M  V30 1720 N 164.069 0.697108 -1.41344 0
M  V30 1721 C 165.297 1.48593 -1.43972 0
M  V30 1722 C 165.712 1.88747 -0.0445612 0
M  V30 1723 O 165.069 1.56682 0.935785 0
M  V30 1724 C 165.12 2.74946 -2.34706 0
M  V30 1725 O 164.841 2.36484 -3.68791 0
M  V30 1726 C 166.342 3.687 -2.46121 0
M  V30 1727 H 163.562 0.457964 -0.490418 0
M  V30 1728 H 166.106 0.858429 -1.8561 0
M  V30 1729 H 164.261 3.33937 -1.9638 0
M  V30 1730 H 164.675 3.17918 -4.17167 0
M  V30 1731 H 166.149 4.54145 -3.13777 0
M  V30 1732 H 166.626 4.13081 -1.49199 0
M  V30 1733 H 167.232 3.15613 -2.85076 0
M  V30 1734 N 165.547 1.27147 0.931209 0
M  V30 1735 C 166.477 1.12081 2.04842 0
M  V30 1736 C 167.458 0.0232364 1.70084 0
M  V30 1737 O 168.643 0.197085 1.93197 0
M  V30 1738 C 165.773 0.76354 3.38803 0
M  V30 1739 C 164.727 1.81396 3.87659 0
M  V30 1740 C 164.053 1.31075 5.18385 0
M  V30 1741 C 165.353 3.21739 4.11438 0
M  V30 1742 H 167.047 2.05537 2.17703 0
M  V30 1743 H 164.593 0.989603 1.04608 0
M  V30 1744 H 166.546 0.644982 4.16435 0
M  V30 1745 H 165.27 -0.206727 3.25945 0
M  V30 1746 H 163.929 1.92136 3.12217 0
M  V30 1747 H 163.577 0.330037 5.01916 0
M  V30 1748 H 163.277 2.013 5.52044 0
M  V30 1749 H 164.801 1.20506 5.98591 0
M  V30 1750 H 166.215 3.14019 4.79651 0
M  V30 1751 H 164.612 3.89644 4.56397 0
M  V30 1752 H 165.682 3.67054 3.16859 0
M  V30 1753 N 167.025 -1.13721 1.09112 0
M  V30 1754 C 167.957 -2.1871 0.685467 0
M  V30 1755 C 168.97 -1.60527 -0.271068 0
M  V30 1756 O 170.159 -1.78407 -0.0576148 0
M  V30 1757 C 167.259 -3.38898 -0.0111255 0
M  V30 1758 C 166.432 -4.26597 0.966131 0
M  V30 1759 C 165.491 -5.25324 0.303539 0
M  V30 1760 O 164.517 -5.61213 0.950177 0
M  V30 1761 N 165.719 -5.72779 -0.943651 0
M  V30 1762 H 168.484 -2.54126 1.58871 0
M  V30 1763 H 166.045 -1.29012 0.978143 0
M  V30 1764 H 168.037 -4.02014 -0.465517 0
M  V30 1765 H 166.607 -3.01747 -0.816565 0
M  V30 1766 H 165.827 -3.60306 1.59917 0
M  V30 1767 H 167.115 -4.82048 1.6281 0
M  V30 1768 H 166.513 -5.45762 -1.48862 0
M  V30 1769 H 165.07 -6.37847 -1.34142 0
M  V30 1770 N 168.503 -0.877838 -1.30888 0
M  V30 1771 C 169.413 -0.343096 -2.32078 0
M  V30 1772 C 170.429 0.551022 -1.65045 0
M  V30 1773 O 171.605 0.445854 -1.96403 0
M  V30 1774 C 168.67 0.439905 -3.43898 0
M  V30 1775 C 167.731 -0.483111 -4.26573 0
M  V30 1776 C 166.964 0.262616 -5.33053 0
M  V30 1777 O 167.187 1.48967 -5.50604 0
M  V30 1778 O 166.121 -0.383593 -6.00676 0
M  V30 1779 H 169.947 -1.18203 -2.79753 0
M  V30 1780 H 167.532 -0.64145 -1.34929 0
M  V30 1781 H 169.414 0.883504 -4.12034 0
M  V30 1782 H 168.089 1.25526 -2.98371 0
M  V30 1783 H 166.996 -0.975374 -3.61161 0
M  V30 1784 H 168.329 -1.26427 -4.75686 0
M  V30 1785 N 169.982 1.44106 -0.638065 0
M  V30 1786 C 171.228 2.02277 -0.145546 0
M  V30 1787 C 171.561 1.50125 1.23191 0
M  V30 1788 O 170.836 0.688133 1.8192 0
M  V30 1789 C 171.119 3.59829 -0.139791 0
M  V30 1790 C 170.972 4.22247 -1.55008 0
M  V30 1791 C 172.291 4.36873 0.531966 0
M  V30 1792 H 169.41 0.734992 -0.0543632 0
M  V30 1793 H 172.052 1.71592 -0.815863 0
M  V30 1794 H 170.202 3.86102 0.431007 0
M  V30 1795 H 171.874 4.07057 -2.1703 0
M  V30 1796 H 170.117 3.79476 -2.10191 0
M  V30 1797 H 170.788 5.31284 -1.49804 0
M  V30 1798 H 173.264 4.16074 0.0464781 0
M  V30 1799 H 172.14 5.4657 0.505206 0
M  V30 1800 H 172.401 4.11995 1.60352 0
M  V30 1801 N 171.46 0.379036 1.52974 0
M  V30 1802 C 172.688 -0.20679 2.05864 0
M  V30 1803 C 173.103 -1.41356 1.25155 0
M  V30 1804 O 172.46 -1.8009 0.295588 0
M  V30 1805 C 172.511 -0.587045 3.56702 0
M  V30 1806 O 172.232 0.571776 4.34353 0
M  V30 1807 C 173.733 -1.22983 4.25899 0
M  V30 1808 H 170.953 -0.0336123 0.670158 0
M  V30 1809 H 173.497 0.541298 1.97206 0
M  V30 1810 H 171.652 -1.28504 3.65466 0
M  V30 1811 H 172.066 0.261544 5.23847 0
M  V30 1812 H 173.54 -1.44635 5.32715 0
M  V30 1813 H 174.017 -2.19416 3.80465 0
M  V30 1814 H 174.623 -0.572892 4.21424 0
M  V30 1815 N 172.938 -1.57226 0.108567 0
M  V30 1816 C 173.87 -2.11809 -0.875752 0
M  V30 1817 C 174.883 -1.05839 -1.23701 0
M  V30 1818 O 176.072 -1.33245 -1.18778 0
M  V30 1819 C 173.172 -2.59411 -2.18081 0
M  V30 1820 C 172.345 -3.89364 -1.99284 0
M  V30 1821 C 171.404 -4.22672 -3.13424 0
M  V30 1822 O 170.43 -4.91668 -2.86795 0
M  V30 1823 N 171.632 -3.79154 -4.3957 0
M  V30 1824 H 174.397 -2.9689 -0.409477 0
M  V30 1825 H 171.958 -1.61721 -0.076158 0
M  V30 1826 H 173.95 -2.7873 -2.93414 0
M  V30 1827 H 172.52 -1.79268 -2.5609 0
M  V30 1828 H 171.74 -3.79059 -1.08203 0
M  V30 1829 H 173.028 -4.74358 -1.84017 0
M  V30 1830 H 172.426 -3.23486 -4.64083 0
M  V30 1831 H 170.983 -4.03602 -5.11809 0
M  V30 1832 N 174.416 0.165178 -1.56732 0
M  V30 1833 C 175.346 1.20651 -1.99914 0
M  V30 1834 C 176.327 1.45827 -0.875705 0
M  V30 1835 O 177.512 1.57057 -1.14223 0
M  V30 1836 C 174.642 2.54401 -2.36427 0
M  V30 1837 C 173.596 2.43782 -3.51787 0
M  V30 1838 C 172.922 3.82078 -3.7406 0
M  V30 1839 C 174.222 1.93732 -4.85041 0
M  V30 1840 H 175.916 0.847534 -2.87154 0
M  V30 1841 H 173.462 0.40625 -1.38151 0
M  V30 1842 H 175.415 3.27458 -2.65234 0
M  V30 1843 H 174.139 2.92098 -1.46103 0
M  V30 1844 H 172.798 1.73178 -3.23117 0
M  V30 1845 H 172.446 4.17179 -2.81017 0
M  V30 1846 H 172.146 3.7584 -4.51684 0
M  V30 1847 H 173.67 4.56712 -4.05274 0
M  V30 1848 H 175.084 2.56569 -5.12684 0
M  V30 1849 H 173.481 1.98428 -5.66345 0
M  V30 1850 H 174.551 0.891962 -4.76626 0
M  V30 1851 N 175.894 1.51508 0.433938 0
M  V30 1852 C 177.119 1.68443 1.21003 0
M  V30 1853 C 177.544 0.382636 1.84167 0
M  V30 1854 O 176.902 -0.65755 1.68956 0
M  V30 1855 C 176.95 2.80405 2.26727 0
M  V30 1856 O 176.054 2.44245 3.32292 0
M  V30 1857 H 175.395 0.561536 0.354363 0
M  V30 1858 H 177.925 1.9809 0.512024 0
M  V30 1859 H 177.935 3.0459 2.71457 0
M  V30 1860 H 176.61 3.74867 1.80132 0
M  V30 1861 H 175.187 2.30644 2.93015 0
M  V30 1862 N 177.372 -0.689602 1.41712 0
M  V30 1863 C 178.304 -1.815 1.39966 0
M  V30 1864 C 179.317 -1.59995 0.300917 0
M  V30 1865 O 180.506 -1.69387 0.563039 0
M  V30 1866 C 177.606 -3.18364 1.16179 0
M  V30 1867 C 176.779 -3.66847 2.38206 0
M  V30 1868 C 175.838 -4.82398 2.10186 0
M  V30 1869 O 174.864 -4.93706 2.83272 0
M  V30 1870 N 176.066 -5.70064 1.0958 0
M  V30 1871 H 178.831 -1.83488 2.36965 0
M  V30 1872 H 176.392 -0.872149 1.36401 0
M  V30 1873 H 178.384 -3.93301 0.953756 0
M  V30 1874 H 176.954 -3.11365 0.27756 0
M  V30 1875 H 176.174 -2.82751 2.74673 0
M  V30 1876 H 177.462 -3.95978 3.19498 0
M  V30 1877 H 176.86 -5.63565 0.491019 0
M  V30 1878 H 175.417 -6.44874 0.947656 0
M  V30 1879 N 178.85 -1.27639 -0.924453 0
M  V30 1880 C 179.76 -1.12466 -2.05885 0
M  V30 1881 C 180.776 -0.053869 -1.73917 0
M  V30 1882 O 181.952 -0.261012 -1.99702 0
M  V30 1883 C 179.017 -0.776768 -3.37886 0
M  V30 1884 C 178.078 -1.92878 -3.83532 0
M  V30 1885 C 177.311 -1.59739 -5.09234 0
M  V30 1886 O 177.534 -0.506782 -5.68144 0
M  V30 1887 O 176.468 -2.43761 -5.50331 0
M  V30 1888 H 180.294 -2.07671 -2.21599 0
M  V30 1889 H 177.879 -1.06857 -1.04413 0
M  V30 1890 H 179.761 -0.596229 -4.17161 0
M  V30 1891 H 178.436 0.145732 -3.23372 0
M  V30 1892 H 177.343 -2.1644 -3.0513 0
M  V30 1893 H 178.676 -2.8316 -4.02593 0
M  V30 1894 N 180.328 1.1314 -1.09713 0
M  V30 1895 C 181.291 2.16831 -0.742751 0
M  V30 1896 C 182.291 1.59159 0.229129 0
M  V30 1897 O 183.481 1.74199 0.00693237 0
M  V30 1898 C 180.613 3.40756 -0.0989168 0
M  V30 1899 H 181.806 2.49695 -1.66109 0
M  V30 1900 H 179.359 1.2802 -0.896699 0
M  V30 1901 H 180.094 3.13485 0.830514 0
M  V30 1902 H 179.879 3.83888 -0.798265 0
M  V30 1903 H 181.369 4.17386 0.133524 0
M  V30 1904 N 181.806 0.884767 1.30421 0
M  V30 1905 C 182.738 0.308655 2.27112 0
M  V30 1906 C 183.751 -0.536655 1.53701 0
M  V30 1907 O 184.94 -0.35624 1.74909 0
M  V30 1908 C 182.04 -0.579782 3.33904 0
M  V30 1909 C 181.213 0.236417 4.36761 0
M  V30 1910 C 180.272 -0.582482 5.22966 0
M  V30 1911 O 179.298 -0.00525502 5.692 0
M  V30 1912 N 180.5 -1.89163 5.48815 0
M  V30 1913 H 183.265 1.13964 2.77186 0
M  V30 1914 H 180.826 0.747731 1.43599 0
M  V30 1915 H 182.818 -1.13366 3.88497 0
M  V30 1916 H 181.388 -1.31144 2.83761 0
M  V30 1917 H 180.608 0.97174 3.82035 0
M  V30 1918 H 181.896 0.795924 5.02536 0
M  V30 1919 H 181.294 -2.38352 5.13035 0
M  V30 1920 H 179.851 -2.39296 6.06284 0
M  V30 1921 N 183.284 -1.43765 0.645699 0
M  V30 1922 C 184.7 -1.56509 0.312591 0
M  V30 1923 C 184.9 -1.6307 -1.18365 0
M  V30 1924 O 183.956 -1.58167 -1.96824 0
M  V30 1925 C 185.269 -2.82968 1.01733 0
M  V30 1926 C 186.817 -2.96701 0.996865 0
M  V30 1927 C 187.292 -4.25982 1.68236 0
M  V30 1928 N 188.783 -4.32829 1.64964 0
M  V30 1929 C 189.518 -5.31613 2.14885 0
M  V30 1930 N 189.014 -6.36718 2.73061 0
M  V30 1931 N 190.807 -5.23217 2.05428 0
M  V30 1932 H 182.958 -1.3775 1.61675 0
M  V30 1933 H 185.221 -0.661067 0.679481 0
M  V30 1934 H 184.927 -2.84156 2.0724 0
M  V30 1935 H 184.801 -3.72957 0.564177 0
M  V30 1936 H 187.188 -2.95058 -0.0497719 0
M  V30 1937 H 187.269 -2.08022 1.48865 0
M  V30 1938 H 186.913 -4.28386 2.72852 0
M  V30 1939 H 186.843 -5.13545 1.16529 0
M  V30 1940 H 189.334 -3.57493 1.22503 0
M  V30 1941 H 189.647 -7.08401 3.08848 0
M  V30 1942 H 187.992 -6.37362 2.77118 0
M  V30 1943 H 191.183 -4.40019 1.59689 0
M  V30 1944 H 191.356 -6.00045 2.44643 0
M  V30 1945 N 184.763 -0.387143 -1.52771 0
M  V30 1946 C 186.012 0.19697 -2.00736 0
M  V30 1947 C 186.325 1.48082 -1.27793 0
M  V30 1948 O 187.531 2.14485 -1.66458 0
M  V30 1949 C 185.987 0.401568 -3.57653 0
M  V30 1950 C 185.595 -0.868907 -4.39493 0
M  V30 1951 C 187.339 0.942164 -4.13912 0
M  V30 1952 C 185.246 -0.632705 -5.88006 0
M  V30 1953 H 184.176 0.0773827 -0.750019 0
M  V30 1954 H 186.827 -0.50921 -1.76293 0
M  V30 1955 H 185.209 1.16954 -3.78335 0
M  V30 1956 H 186.383 -1.64133 -4.30577 0
M  V30 1957 H 184.698 -1.33429 -3.94443 0
M  V30 1958 H 187.295 1.13455 -5.22525 0
M  V30 1959 H 187.638 1.9106 -3.69867 0
M  V30 1960 H 188.171 0.233814 -3.97112 0
M  V30 1961 H 184.91 -1.57208 -6.36369 0
M  V30 1962 H 184.43 0.100825 -5.99715 0
M  V30 1963 H 186.109 -0.26642 -6.46451 0
M  V30 1964 N 186.241 1.57166 -0.116904 0
M  V30 1965 C 187.487 1.95412 0.542405 0
M  V30 1966 C 187.82 1.00019 1.66463 0
M  V30 1967 O 187.095 0.0370346 1.94465 0
M  V30 1968 C 187.378 3.43615 1.07708 0
M  V30 1969 C 187.231 4.49781 -0.0415868 0
M  V30 1970 C 188.55 3.93616 1.96861 0
M  V30 1971 H 185.669 0.710543 0.195696 0
M  V30 1972 H 188.311 1.89027 -0.192038 0
M  V30 1973 H 186.461 3.49187 1.70296 0
M  V30 1974 H 188.133 4.56308 -0.676793 0
M  V30 1975 H 186.376 4.28033 -0.705019 0
M  V30 1976 H 187.047 5.50733 0.373717 0
M  V30 1977 H 189.523 3.90335 1.44146 0
M  V30 1978 H 188.399 4.97838 2.3119 0
M  V30 1979 H 188.66 3.34188 2.89432 0
M  V30 1980 N 187.719 -0.156864 1.56817 0
M  V30 1981 C 188.629 -1.2136 2.00771 0
M  V30 1982 C 189.645 -1.47598 0.921459 0
M  V30 1983 O 190.821 -1.59462 1.2302 0
M  V30 1984 C 187.886 -2.52943 2.37109 0
M  V30 1985 C 186.947 -2.34439 3.59634 0
M  V30 1986 C 186.18 -3.59748 3.94229 0
M  V30 1987 O 186.403 -4.65526 3.29609 0
M  V30 1988 O 185.337 -3.52998 4.8752 0
M  V30 1989 H 189.163 -0.870468 2.90958 0
M  V30 1990 H 186.748 -0.36484 1.44877 0
M  V30 1991 H 188.63 -3.30538 2.61386 0
M  V30 1992 H 187.305 -2.86806 1.5008 0
M  V30 1993 H 186.212 -1.54828 3.40557 0
M  V30 1994 H 187.545 -2.05496 4.4725 0
M  V30 1995 N 189.197 -1.51736 -0.425897 0
M  V30 1996 C 190.144 -1.73875 -1.51776 0
M  V30 1997 C 191.114 -0.580702 -1.55618 0
M  V30 1998 O 192.299 -0.81641 -1.72451 0
M  V30 1999 C 189.439 -1.88012 -2.89388 0
M  V30 2000 C 188.552 -3.15606 -2.94986 0
M  V30 2001 C 187.687 -3.20271 -4.23793 0
M  V30 2002 C 186.726 -4.42134 -4.23302 0
M  V30 2003 N 185.863 -4.44284 -5.43651 0
M  V30 2004 H 190.703 -2.67071 -1.32201 0
M  V30 2005 H 188.24 -1.32351 -0.642008 0
M  V30 2006 H 190.198 -1.9419 -3.69251 0
M  V30 2007 H 188.828 -0.98213 -3.07496 0
M  V30 2008 H 187.88 -3.18681 -2.07717 0
M  V30 2009 H 189.192 -4.05486 -2.90486 0
M  V30 2010 H 188.346 -3.25428 -5.12036 0
M  V30 2011 H 187.085 -2.28299 -4.30965 0
M  V30 2012 H 186.09 -4.3714 -3.3345 0
M  V30 2013 H 187.315 -5.35382 -4.17783 0
M  V30 2014 H 185.261 -3.55188 -5.51523 0
M  V30 2015 H 185.178 -5.27988 -5.41078 0
M  V30 2016 H 186.446 -4.53649 -6.33895 0
M  V30 2017 N 190.675 0.682077 -1.42076 0
M  V30 2018 C 191.605 1.80796 -1.47767 0
M  V30 2019 C 192.586 1.6677 -0.334954 0
M  V30 2020 O 193.771 1.863 -0.548264 0
M  V30 2021 C 190.901 3.19038 -1.37229 0
M  V30 2022 C 189.855 3.47789 -2.49453 0
M  V30 2023 C 189.181 4.8553 -2.23975 0
M  V30 2024 C 190.481 3.45411 -3.91776 0
M  V30 2025 H 192.175 1.7629 -2.41997 0
M  V30 2026 H 189.721 0.846721 -1.16476 0
M  V30 2027 H 191.674 3.97528 -1.39821 0
M  V30 2028 H 190.398 3.24204 -0.394907 0
M  V30 2029 H 189.057 2.71657 -2.46166 0
M  V30 2030 H 188.705 4.87337 -1.24547 0
M  V30 2031 H 188.405 5.0573 -2.99184 0
M  V30 2032 H 189.929 5.66312 -2.28304 0
M  V30 2033 H 191.343 4.13882 -3.96705 0
M  V30 2034 H 189.74 3.77145 -4.66778 0
M  V30 2035 H 190.81 2.44122 -4.18966 0
M  V30 2036 N 192.153 1.28127 0.917671 0
M  V30 2037 C 193.063 1.13556 2.05286 0
M  V30 2038 C 194.079 0.0630914 1.73886 0
M  V30 2039 O 195.255 0.271598 1.9956 0
M  V30 2040 C 192.32 0.794676 3.3747 0
M  V30 2041 C 191.381 1.94909 3.82504 0
M  V30 2042 C 190.614 1.62437 5.0838 0
M  V30 2043 O 190.837 0.536905 5.67867 0
M  V30 2044 O 189.771 2.46677 5.4903 0
M  V30 2045 H 193.597 2.08844 2.20495 0
M  V30 2046 H 191.182 1.07409 1.03845 0
M  V30 2047 H 193.064 0.618344 4.16839 0
M  V30 2048 H 191.739 -0.128581 3.23445 0
M  V30 2049 H 190.646 2.18055 3.03978 0
M  V30 2050 H 191.979 2.85291 4.01086 0
M  V30 2051 N 193.631 -1.12557 1.10312 0
M  V30 2052 C 194.578 -2.18247 0.750781 0
M  V30 2053 C 195.548 -1.63853 -0.272293 0
M  V30 2054 O 196.733 -1.90195 -0.151862 0
M  V30 2055 C 193.873 -3.44591 0.187379 0
M  V30 2056 C 192.986 -4.13046 1.2656 0
M  V30 2057 C 192.121 -5.27034 0.663978 0
M  V30 2058 C 191.16 -5.87353 1.72287 0
M  V30 2059 N 190.297 -6.92757 1.1416 0
M  V30 2060 H 195.137 -2.47732 1.65628 0
M  V30 2061 H 192.674 -1.21629 0.827337 0
M  V30 2062 H 194.632 -4.16904 -0.157148 0
M  V30 2063 H 193.262 -3.15527 -0.681355 0
M  V30 2064 H 192.314 -3.38924 1.72727 0
M  V30 2065 H 193.626 -4.53947 2.06721 0
M  V30 2066 H 192.78 -6.06104 0.268824 0
M  V30 2067 H 191.519 -4.87407 -0.169082 0
M  V30 2068 H 190.524 -5.06971 2.12746 0
M  V30 2069 H 191.749 -6.29051 2.55875 0
M  V30 2070 H 189.695 -6.5517 0.329984 0
M  V30 2071 H 189.612 -7.3225 1.88007 0
M  V30 2072 H 190.88 -7.75658 0.772956 0
M  V30 2073 N 195.109 -0.891671 -1.2995 0
M  V30 2074 C 196.334 -0.527932 -2.00568 0
M  V30 2075 C 196.759 0.877969 -1.66353 0
M  V30 2076 O 196.117 1.58301 -0.883762 0
M  V30 2077 C 196.165 -0.717745 -3.53385 0
M  V30 2078 O 195.269 0.233376 -4.11739 0
M  V30 2079 H 194.61 -0.20722 -0.630837 0
M  V30 2080 H 197.14 -1.20105 -1.65638 0
M  V30 2081 H 197.15 -0.619307 -4.03272 0
M  V30 2082 H 195.825 -1.74276 -3.77625 0
M  V30 2083 H 194.402 0.0880706 -3.72796 0
M  V30 2084 N 196.587 1.43421 -0.653314 0
M  V30 2085 C 197.815 2.06163 -0.174491 0
M  V30 2086 C 198.23 1.48969 1.1599 0
M  V30 2087 O 197.587 0.621042 1.71608 0
M  V30 2088 C 197.638 3.61417 -0.0774865 0
M  V30 2089 O 197.359 4.16485 -1.35912 0
M  V30 2090 C 198.86 4.41235 0.427402 0
M  V30 2091 H 196.08 0.664946 -0.0899353 0
M  V30 2092 H 198.624 1.83924 -0.893988 0
M  V30 2093 H 196.779 3.82841 0.59257 0
M  V30 2094 H 197.193 5.10153 -1.21839 0
M  V30 2095 H 198.667 5.5021 0.44423 0
M  V30 2096 H 199.144 4.14268 1.45873 0
M  V30 2097 H 199.75 4.2478 -0.210167 0
M  V30 2098 N 198.065 0.39524 1.52563 0
M  V30 2099 C 199.012 -0.437036 2.26624 0
M  V30 2100 C 199.982 -1.05281 1.28472 0
M  V30 2101 O 201.167 -1.07971 1.57311 0
M  V30 2102 C 198.307 -1.55524 3.08069 0
M  V30 2103 C 197.42 -0.961745 4.21158 0
M  V30 2104 C 196.555 -2.05149 4.89987 0
M  V30 2105 C 195.594 -1.4342 5.95061 0
M  V30 2106 N 194.731 -2.46351 6.57462 0
M  V30 2107 H 199.571 0.200976 2.97322 0
M  V30 2108 H 197.108 0.110944 1.46681 0
M  V30 2109 H 199.066 -2.21437 3.53584 0
M  V30 2110 H 197.696 -2.16348 2.3957 0
M  V30 2111 H 196.748 -0.192048 3.79915 0
M  V30 2112 H 198.06 -0.470701 4.96574 0
M  V30 2113 H 197.214 -2.78819 5.38837 0
M  V30 2114 H 195.953 -2.57615 4.14109 0
M  V30 2115 H 194.958 -0.682774 5.45544 0
M  V30 2116 H 196.183 -0.917416 6.72875 0
M  V30 2117 H 194.129 -2.97975 5.8442 0
M  V30 2118 H 194.046 -2.02019 7.28508 0
M  V30 2119 H 195.314 -3.19633 7.10954 0
M  V30 2120 N 199.544 -1.57102 0.125237 0
M  V30 2121 C 200.955 -1.82384 -0.399142 0
M  V30 2122 C 201.306 -1.04276 -1.66195 0
M  V30 2123 O 200.431 -0.281269 -2.14564 0
M  V30 2124 C 201.026 -3.30821 -0.730932 0
M  V30 2125 C 199.585 -3.56762 -1.19992 0
M  V30 2126 C 198.732 -2.7649 -0.211792 0
M  V30 2127 H 201.683 -1.54786 0.350277 0
M  V30 2128 H 201.704 -3.4579 -1.58775 0
M  V30 2129 H 201.216 -3.87643 0.188345 0
M  V30 2130 H 199.317 -3.05305 -2.13588 0
M  V30 2131 H 199.43 -4.65317 -1.14093 0
M  V30 2132 H 197.794 -2.4489 -0.700085 0
M  V30 2133 H 198.577 -3.36073 0.700691 0
M  V30 2134 N 201.022 0.148545 -1.56898 0
M  V30 2135 C 202.271 0.85984 -1.82454 0
M  V30 2136 C 202.584 1.82406 -0.706229 0
M  V30 2137 O 203.79 2.57938 -0.847349 0
M  V30 2138 C 202.246 1.57967 -3.2338 0
M  V30 2139 C 201.854 0.65794 -4.43142 0
M  V30 2140 C 203.598 2.27784 -3.58211 0
M  V30 2141 C 201.505 1.3793 -5.75091 0
M  V30 2142 H 200.435 0.324834 -0.68044 0
M  V30 2143 H 203.086 0.112588 -1.83154 0
M  V30 2144 H 201.468 2.37249 -3.17063 0
M  V30 2145 H 202.642 -0.0995497 -4.60692 0
M  V30 2146 H 200.957 0.0682643 -4.16344 0
M  V30 2147 H 203.554 2.8239 -4.54048 0
M  V30 2148 H 203.897 3.04204 -2.84193 0
M  V30 2149 H 204.43 1.55421 -3.66182 0
M  V30 2150 H 201.169 0.656982 -6.52199 0
M  V30 2151 H 200.689 2.10954 -5.61479 0
M  V30 2152 H 202.368 1.92063 -6.17835 0
M  V30 2153 N 202.5 1.5196 0.417844 0
M  V30 2154 C 203.746 1.65836 1.16732 0
M  V30 2155 C 204.079 0.382881 1.90388 0
M  V30 2156 O 203.354 -0.618368 1.84408 0
M  V30 2157 C 203.637 2.87466 2.16876 0
M  V30 2158 C 203.49 4.25041 1.47174 0
M  V30 2159 C 204.809 3.04613 3.17646 0
M  V30 2160 H 201.928 0.603515 0.423011 0
M  V30 2161 H 204.57 1.84494 0.454105 0
M  V30 2162 H 202.72 2.71689 2.777 0
M  V30 2163 H 204.392 4.52527 0.895376 0
M  V30 2164 H 202.635 4.26843 0.773806 0
M  V30 2165 H 203.306 5.06176 2.20204 0
M  V30 2166 H 205.782 3.1923 2.66892 0
M  V30 2167 H 204.658 3.91247 3.8499 0
M  V30 2168 H 204.919 2.17541 3.84874 0
M  V30 2169 N 203.978 -0.674533 1.42435 0
M  V30 2170 C 204.941 -1.76986 1.45632 0
M  V30 2171 C 205.941 -1.5708 0.343871 0
M  V30 2172 O 207.131 -1.63367 0.604709 0
M  V30 2173 C 204.263 -3.15623 1.28822 0
M  V30 2174 H 205.456 -1.75539 2.43158 0
M  V30 2175 H 203.009 -0.884189 1.28887 0
M  V30 2176 H 203.744 -3.22696 0.322193 0
M  V30 2177 H 203.529 -3.31475 2.09444 0
M  V30 2178 H 205.019 -3.95537 1.33942 0
M  V30 2179 N 205.456 -1.28612 -0.910864 0
M  V30 2180 C 206.419 -1.12803 -1.9952 0
M  V30 2181 C 207.419 -0.0668264 -1.60661 0
M  V30 2182 O 208.609 -0.312847 -1.71368 0
M  V30 2183 C 205.741 -0.72254 -3.33155 0
M  V30 2184 H 206.934 -2.09109 -2.14973 0
M  V30 2185 H 204.487 -1.11639 -1.09391 0
M  V30 2186 H 205.222 0.241152 -3.23402 0
M  V30 2187 H 205.007 -1.48916 -3.62721 0
M  V30 2188 H 206.497 -0.634666 -4.12749 0
M  V30 2189 N 206.934 1.1197 -1.10907 0
M  V30 2190 C 208.183 1.82947 -0.849302 0
M  V30 2191 C 208.496 1.85275 0.627112 0
M  V30 2192 O 209.702 2.52296 1.00295 0
M  V30 2193 C 208.158 3.28529 -1.46959 0
M  V30 2194 C 207.766 3.34546 -2.97965 0
M  V30 2195 C 209.51 4.04443 -1.28942 0
M  V30 2196 C 207.417 4.74491 -3.53004 0
M  V30 2197 H 206.347 0.685477 -0.314065 0
M  V30 2198 H 208.998 1.2604 -1.33365 0
M  V30 2199 H 207.38 3.85333 -0.912917 0
M  V30 2200 H 208.554 2.87654 -3.59989 0
M  V30 2201 H 206.869 2.72108 -3.15192 0
M  V30 2202 H 209.466 5.07787 -1.67502 0
M  V30 2203 H 209.809 4.15656 -0.231456 0
M  V30 2204 H 210.342 3.5401 -1.81443 0
M  V30 2205 H 207.081 4.68474 -4.58489 0
M  V30 2206 H 206.601 5.21816 -2.9575 0
M  V30 2207 H 208.28 5.4344 -3.51115 0
M  V30 2208 N 208.412 0.89855 1.29475 0
M  V30 2209 C 209.36 0.365253 2.29714 0
M  V30 2210 C 210.354 -0.534993 1.6073 0
M  V30 2211 O 211.56 -0.417921 1.75081 0
M  V30 2212 H 207.935 0.0994853 0.74539 0
M  V30 2213 H 209.906 1.22406 2.72138 0
M  V30 2214 C 208.655 -0.393159 3.4547 0
M  V30 2215 H 207.978 0.290332 3.98744 0
M  V30 2216 H 209.418 -0.731189 4.17648 0
M  V30 2217 C 207.877 -1.59539 2.9673 0
M  V30 2218 O 208.407 -2.69469 2.97908 0
M  V30 2219 N 206.613 -1.43716 2.52575 0
M  V30 2220 H 206.16 -0.542828 2.51816 0
M  V30 2221 H 206.118 -2.24288 2.20323 0
M  V30 2222 N 209.89 -1.43072 0.660911 0
M  V30 2223 C 211.138 -2.01323 0.177094 0
M  V30 2224 C 211.459 -1.5245 -1.2159 0
M  V30 2225 O 210.729 -0.740322 -1.81373 0
M  V30 2226 H 209.309 -0.744382 0.0624804 0
M  V30 2227 H 211.971 -1.75179 0.854305 0
M  V30 2228 H 211.067 -3.11649 0.167641 0
M  V30 2229 N 211.368 -0.403325 -1.52352 0
M  V30 2230 C 212.593 0.176499 -2.06648 0
M  V30 2231 C 213.018 1.38577 -1.27193 0
M  V30 2232 O 212.376 1.7879 -0.300637 0
M  V30 2233 C 212.424 0.511061 -3.5696 0
M  V30 2234 O 211.528 1.60294 -3.79973 0
M  V30 2235 H 210.869 0.0167337 -0.663789 0
M  V30 2236 H 213.399 -0.574848 -1.96359 0
M  V30 2237 H 213.409 0.771362 -4.00642 0
M  V30 2238 H 212.084 -0.37296 -4.14224 0
M  V30 2239 H 210.661 1.33526 -3.48174 0
M  V30 2240 N 212.846 1.57033 -0.133567 0
M  V30 2241 C 214.086 1.97575 0.523789 0
M  V30 2242 C 214.45 1.01605 1.62912 0
M  V30 2243 O 215.651 1.3114 2.3464 0
M  V30 2244 C 213.922 3.42256 1.02935 0
M  V30 2245 S 215.481 4.04817 1.69319 0
M  V30 2246 H 212.299 0.690427 0.169799 0
M  V30 2247 H 214.901 1.94234 -0.222101 0
M  V30 2248 H 213.605 4.09842 0.213917 0
M  V30 2249 H 213.136 3.4928 1.81017 0
M  V30 2250 H 215.151 3.96767 2.97977 0
M  V30 2251 N 214.325 -0.140222 1.56975 0
M  V30 2252 C 215.255 -1.17456 2.01808 0
M  V30 2253 C 216.236 -1.44415 0.898794 0
M  V30 2254 O 217.421 -1.5522 1.16707 0
M  V30 2255 C 214.551 -2.50607 2.40444 0
M  V30 2256 C 213.505 -2.38155 3.55621 0
M  V30 2257 C 212.831 -3.76078 3.80091 0
M  V30 2258 C 214.131 -1.85991 4.88062 0
M  V30 2259 H 215.825 -0.801743 2.88466 0
M  V30 2260 H 213.371 -0.38422 1.38779 0
M  V30 2261 H 215.324 -3.23197 2.7041 0
M  V30 2262 H 214.048 -2.89737 1.50732 0
M  V30 2263 H 212.707 -1.68016 3.25832 0
M  V30 2264 H 212.355 -4.12656 2.87618 0
M  V30 2265 H 212.055 -3.68606 4.57606 0
M  V30 2266 H 213.579 -4.50206 4.12488 0
M  V30 2267 H 214.993 -2.4838 5.16701 0
M  V30 2268 H 213.39 -1.89393 5.6943 0
M  V30 2269 H 214.46 -0.816023 4.77984 0
M  V30 2270 N 215.803 -1.52179 -0.40978 0
M  V30 2271 C 217.051 -1.65878 -1.15451 0
M  V30 2272 C 217.372 -0.390771 -1.91044 0
M  V30 2273 O 216.642 0.594323 -1.86667 0
M  V30 2274 H 215.222 -0.611405 -0.429177 0
M  V30 2275 H 217.884 -1.89219 -0.467134 0
M  V30 2276 H 216.98 -2.49954 -1.86894 0
M  V30 2277 N 217.281 0.66697 -1.42791 0
M  V30 2278 C 218.529 1.42417 -1.43394 0
M  V30 2279 C 218.85 1.94925 -0.0542373 0
M  V30 2280 O 218.12 1.73564 0.908415 0
M  V30 2281 H 216.7 0.528515 -0.527902 0
M  V30 2282 H 219.362 0.787562 -1.78279 0
M  V30 2283 H 218.458 2.27333 -2.13837 0
M  V30 2284 N 218.759 1.29093 0.90403 0
M  V30 2285 C 220.007 1.16583 1.65085 0
M  V30 2286 C 220.328 -0.283933 1.92922 0
M  V30 2287 O 219.598 -1.19509 1.55224 0
M  V30 2288 H 218.178 0.428467 0.611903 0
M  V30 2289 H 220.84 1.61959 1.08422 0
M  V30 2290 H 219.936 1.71266 2.6091 0
M  V30 2291 N 220.237 -1.11381 1.11499 0
M  V30 2292 C 221.167 -2.19509 0.796125 0
M  V30 2293 C 222.148 -1.68458 -0.235796 0
M  V30 2294 O 223.333 -1.93947 -0.0991344 0
M  V30 2295 C 220.463 -3.46475 0.239205 0
M  V30 2296 C 219.417 -4.10744 1.20307 0
M  V30 2297 C 218.743 -5.32293 0.50683 0
M  V30 2298 C 220.043 -4.55597 2.55399 0
M  V30 2299 H 221.737 -2.46439 1.70024 0
M  V30 2300 H 219.283 -1.18446 0.818935 0
M  V30 2301 H 221.236 -4.214 0.00392006 0
M  V30 2302 H 219.96 -3.19006 -0.700206 0
M  V30 2303 H 218.619 -3.37813 1.42399 0
M  V30 2304 H 218.267 -5.01095 -0.437408 0
M  V30 2305 H 217.967 -5.76243 1.1497 0
M  V30 2306 H 219.491 -6.09956 0.280351 0
M  V30 2307 H 220.905 -5.21841 2.37391 0
M  V30 2308 H 219.302 -5.10363 3.15673 0
M  V30 2309 H 220.372 -3.69013 3.14575 0
M  V30 2310 N 221.715 -0.905404 -1.28997 0
M  V30 2311 C 222.625 -0.392246 -2.31298 0
M  V30 2312 C 223.641 0.515889 -1.66176 0
M  V30 2313 O 224.817 0.404093 -1.97304 0
M  V30 2314 C 221.882 0.36686 -3.44754 0
M  V30 2315 C 220.943 -0.573485 -4.25452 0
M  V30 2316 C 220.176 0.149488 -5.33491 0
M  V30 2317 O 220.399 1.37255 -5.5364 0
M  V30 2318 O 219.333 -0.510919 -5.99728 0
M  V30 2319 H 223.159 -1.2411 -2.77183 0
M  V30 2320 H 220.744 -0.669926 -1.33538 0
M  V30 2321 H 222.626 0.795907 -4.13816 0
M  V30 2322 H 221.301 1.19169 -3.00966 0
M  V30 2323 H 220.208 -1.05176 -3.59011 0
M  V30 2324 H 221.541 -1.36489 -4.72897 0
M  V30 2325 N 223.193 1.4272 -0.668489 0
M  V30 2326 C 224.439 2.01923 -0.188419 0
M  V30 2327 C 224.772 1.52704 1.19979 0
M  V30 2328 O 224.047 0.726566 1.8042 0
M  V30 2329 C 224.33 3.59451 -0.216085 0
M  V30 2330 C 224.183 4.18864 -1.6393 0
M  V30 2331 C 225.502 4.37903 0.439179 0
M  V30 2332 H 222.621 0.733674 -0.0699412 0
M  V30 2333 H 225.263 1.69822 -0.852076 0
M  V30 2334 H 223.413 3.86929 0.349012 0
M  V30 2335 H 225.085 4.02362 -2.25616 0
M  V30 2336 H 223.328 3.74933 -2.18193 0
M  V30 2337 H 223.999 5.27987 -1.61039 0
M  V30 2338 H 226.475 4.16079 -0.0417878 0
M  V30 2339 H 225.351 5.47519 0.389157 0
M  V30 2340 H 225.612 4.15303 1.51577 0
M  V30 2341 N 224.671 0.411399 1.52136 0
M  V30 2342 C 225.634 -0.401089 2.25663 0
M  V30 2343 C 226.634 -0.971732 1.28117 0
M  V30 2344 O 227.824 -0.850254 1.52041 0
M  V30 2345 C 224.956 -1.56483 3.02863 0
M  V30 2346 H 226.149 0.24295 2.98914 0
M  V30 2347 H 223.702 0.163968 1.55438 0
M  V30 2348 H 224.437 -2.24567 2.33967 0
M  V30 2349 H 224.222 -1.16211 3.74483 0
M  V30 2350 H 225.712 -2.13951 3.58629 0
M  V30 2351 N 226.149 -1.5696 0.141893 0
M  V30 2352 C 227.398 -1.95135 -0.510427 0
M  V30 2353 C 227.711 -1.02896 -1.66348 0
M  V30 2354 O 228.917 -1.30629 -2.38009 0
M  V30 2355 C 227.373 -3.46876 -0.959427 0
M  V30 2356 C 226.981 -4.47691 0.166419 0
M  V30 2357 C 228.725 -3.93927 -1.58183 0
M  V30 2358 C 226.632 -5.90636 -0.300565 0
M  V30 2359 H 225.562 -0.728494 -0.194454 0
M  V30 2360 H 228.213 -1.8211 0.22542 0
M  V30 2361 H 226.595 -3.55215 -1.75038 0
M  V30 2362 H 227.769 -4.51043 0.94325 0
M  V30 2363 H 226.084 -4.10527 0.696905 0
M  V30 2364 H 228.681 -4.98158 -1.94275 0
M  V30 2365 H 229.024 -3.3519 -2.46888 0
M  V30 2366 H 229.557 -3.88484 -0.855863 0
M  V30 2367 H 226.296 -6.5318 0.550989 0
M  V30 2368 H 225.816 -5.90655 -1.04338 0
M  V30 2369 H 227.495 -6.42588 -0.754265 0
M  V30 2370 N 227.627 0.131896 -1.57047 0
M  V30 2371 C 228.852 0.860418 -1.8871 0
M  V30 2372 C 229.277 1.73251 -0.73251 0
M  V30 2373 O 228.635 1.785 0.317429 0
M  V30 2374 C 228.683 1.68047 -3.19049 0
M  V30 2375 O 227.787 2.7862 -3.04047 0
M  V30 2376 H 227.128 0.238743 -0.619595 0
M  V30 2377 H 229.658 0.118169 -2.04258 0
M  V30 2378 H 229.668 2.07238 -3.51449 0
M  V30 2379 H 228.343 1.04018 -4.02682 0
M  V30 2380 H 226.92 2.42726 -2.83088 0
M  V30 2381 N 229.106 1.52395 0.401703 0
M  V30 2382 C 230.346 1.68498 1.15705 0
M  V30 2383 C 230.71 0.409748 1.87577 0
M  V30 2384 O 231.911 0.446983 2.65058 0
M  V30 2385 C 230.182 2.87789 2.11924 0
M  V30 2386 S 231.741 3.24415 2.95466 0
M  V30 2387 H 228.559 0.593267 0.391862 0
M  V30 2388 H 231.161 1.90408 0.443282 0
M  V30 2389 H 229.865 3.7884 1.57824 0
M  V30 2390 H 229.396 2.68175 2.87829 0
M  V30 2391 H 231.411 2.73614 4.13944 0
M  V30 2392 N 230.584 -0.659388 1.43143 0
M  V30 2393 C 231.516 -1.7849 1.43784 0
M  V30 2394 C 232.529 -1.5932 0.334787 0
M  V30 2395 O 233.718 -1.68155 0.598842 0
M  V30 2396 C 230.818 -3.15828 1.22906 0
M  V30 2397 C 229.991 -3.61711 2.45934 0
M  V30 2398 C 229.05 -4.77831 2.20371 0
M  V30 2399 O 228.076 -4.87586 2.93681 0
M  V30 2400 N 229.278 -5.67611 1.21647 0
M  V30 2401 H 232.043 -1.7842 2.40803 0
M  V30 2402 H 229.604 -0.84302 1.3822 0
M  V30 2403 H 231.596 -3.91189 1.03697 0
M  V30 2404 H 230.166 -3.10707 0.343542 0
M  V30 2405 H 229.386 -2.76861 2.80609 0
M  V30 2406 H 230.674 -3.89112 3.27825 0
M  V30 2407 H 230.072 -5.62397 0.610449 0
M  V30 2408 H 228.629 -6.42719 1.08423 0
M  V30 2409 N 232.062 -1.29571 -0.897171 0
M  V30 2410 C 233.292 -1.20408 -1.67886 0
M  V30 2411 C 233.7 0.237429 -1.87704 0
M  V30 2412 O 233.043 1.17048 -1.41582 0
M  V30 2413 C 233.105 -1.84887 -3.08314 0
M  V30 2414 C 232.769 -3.34189 -3.11716 0
M  V30 2415 C 233.766 -4.30374 -2.91675 0
M  V30 2416 C 231.451 -3.75431 -3.33701 0
M  V30 2417 C 233.445 -5.65776 -2.93557 0
M  V30 2418 C 231.132 -5.10955 -3.35214 0
M  V30 2419 C 232.13 -6.05938 -3.15164 0
M  V30 2420 O 231.818 -7.38987 -3.1647 0
M  V30 2421 H 231.55 -0.418289 -0.531046 0
M  V30 2422 H 234.104 -1.71514 -1.13014 0
M  V30 2423 H 232.334 -1.28295 -3.64798 0
M  V30 2424 H 234.023 -1.70011 -3.6858 0
M  V30 2425 H 234.789 -3.99844 -2.74499 0
M  V30 2426 H 230.668 -3.01953 -3.48347 0
M  V30 2427 H 234.212 -6.39889 -2.77826 0
M  V30 2428 H 230.109 -5.4113 -3.51922 0
M  V30 2429 H 230.877 -7.47823 -3.3272 0
M  V30 2430 N 233.54 1.10788 -1.12088 0
M  V30 2431 C 234.956 1.34691 -0.856186 0
M  V30 2432 C 235.156 1.94791 0.515615 0
M  V30 2433 O 234.212 2.18524 1.26505 0
M  V30 2434 C 235.525 2.27208 -1.9697 0
M  V30 2435 C 237.073 2.40755 -2.00016 0
M  V30 2436 C 237.548 3.36598 -3.1059 0
M  V30 2437 N 239.039 3.44164 -3.10008 0
M  V30 2438 C 239.774 4.18284 -3.92206 0
M  V30 2439 N 239.27 4.95322 -4.84384 0
M  V30 2440 N 241.063 4.13865 -3.80357 0
M  V30 2441 H 233.214 0.70144 -2.00483 0
M  V30 2442 H 235.477 0.371405 -0.872217 0
M  V30 2443 H 235.183 1.90251 -2.958 0
M  V30 2444 H 235.057 3.27485 -1.87172 0
M  V30 2445 H 237.444 2.76982 -1.01808 0
M  V30 2446 H 237.525 1.40305 -2.13888 0
M  V30 2447 H 237.169 3.01096 -4.09028 0
M  V30 2448 H 237.099 4.36918 -2.93956 0
M  V30 2449 H 239.59 2.8922 -2.43228 0
M  V30 2450 H 239.903 5.49267 -5.43623 0
M  V30 2451 H 238.248 4.94459 -4.884 0
M  V30 2452 H 241.439 3.52773 -3.07683 0
M  V30 2453 H 241.612 4.71372 -4.44649 0
M  V30 2454 N 235.018 0.912232 1.28515 0
M  V30 2455 C 236.267 0.540504 1.94323 0
M  V30 2456 C 236.58 -0.920044 1.72611 0
M  V30 2457 O 237.786 -1.39986 2.32629 0
M  V30 2458 C 236.242 0.915803 3.48053 0
M  V30 2459 C 235.85 2.39598 3.78546 0
M  V30 2460 C 237.594 0.614588 4.20027 0
M  V30 2461 C 235.501 2.71148 5.25578 0
M  V30 2462 H 234.431 0.198418 0.727424 0
M  V30 2463 H 237.082 1.11094 1.46049 0
M  V30 2464 H 235.464 0.274168 3.9505 0
M  V30 2465 H 236.638 3.08422 3.42364 0
M  V30 2466 H 234.953 2.66749 3.1974 0
M  V30 2467 H 237.55 0.827002 5.28266 0
M  V30 2468 H 237.893 -0.447531 4.13887 0
M  V30 2469 H 238.426 1.21462 3.78803 0
M  V30 2470 H 235.165 3.76207 5.36794 0
M  V30 2471 H 234.685 2.0696 5.62963 0
M  V30 2472 H 236.364 2.58072 5.93302 0
M  V30 2473 N 236.496 -1.42363 0.676048 0
M  V30 2474 C 237.459 -2.29199 0.00766941 0
M  V30 2475 C 238.459 -1.43389 -0.727745 0
M  V30 2476 O 239.649 -1.64764 -0.56556 0
M  V30 2477 C 236.781 -3.2591 -0.999785 0
M  V30 2478 H 237.974 -2.89794 0.771988 0
M  V30 2479 H 235.527 -1.50024 0.438468 0
M  V30 2480 H 236.262 -2.70256 -1.79255 0
M  V30 2481 H 236.047 -3.89202 -0.475829 0
M  V30 2482 H 237.537 -3.91028 -1.46583 0
M  V30 2483 N 237.974 -0.419461 -1.51915 0
M  V30 2484 C 239.202 0.152136 -2.0634 0
M  V30 2485 C 239.617 1.37988 -1.28859 0
M  V30 2486 O 238.974 1.79243 -0.343232 0
M  V30 2487 C 239.025 0.492266 -3.58133 0
M  V30 2488 O 238.746 -0.686736 -4.32684 0
M  V30 2489 C 240.247 1.11648 -4.2901 0
M  V30 2490 H 237.467 0.0158325 -0.670813 0
M  V30 2491 H 240.011 -0.593394 -1.95702 0
M  V30 2492 H 238.166 1.18769 -3.68745 0
M  V30 2493 H 238.58 -0.400341 -5.2297 0
M  V30 2494 H 240.054 1.3046 -5.36362 0
M  V30 2495 H 240.531 2.09251 -3.86148 0
M  V30 2496 H 241.137 0.460958 -4.22795 0
M  V30 2497 N 239.452 1.56882 -0.150215 0
M  V30 2498 C 240.399 2.16922 0.788244 0
M  V30 2499 C 241.369 1.10303 1.24187 0
M  V30 2500 O 242.554 1.38359 1.31383 0
M  V30 2501 C 239.694 2.79754 2.02068 0
M  V30 2502 C 238.807 4.00775 1.61257 0
M  V30 2503 C 237.942 4.51595 2.79705 0
M  V30 2504 C 236.981 5.65074 2.35282 0
M  V30 2505 N 236.118 6.10499 3.4675 0
M  V30 2506 H 240.958 2.96779 0.269444 0
M  V30 2507 H 238.495 1.46599 0.12128 0
M  V30 2508 H 240.453 3.14329 2.74323 0
M  V30 2509 H 239.083 2.02536 2.51354 0
M  V30 2510 H 238.135 3.72158 0.787553 0
M  V30 2511 H 239.447 4.82978 1.24633 0
M  V30 2512 H 238.601 4.88242 3.60145 0
M  V30 2513 H 237.34 3.68406 3.19576 0
M  V30 2514 H 236.345 5.28 1.53283 0
M  V30 2515 H 237.57 6.50052 1.96493 0
M  V30 2516 H 235.516 5.30243 3.86236 0
M  V30 2517 H 235.433 6.87637 3.14152 0
M  V30 2518 H 236.701 6.51791 4.27537 0
M  V30 2519 N 240.93 -0.123565 1.57115 0
M  V30 2520 C 242.207 -0.862196 1.75572 0
M  V30 2521 C 242.587 -1.98279 0.724475 0
M  V30 2522 O 241.935 -2.27102 -0.252407 0
M  V30 2523 C 242.145 -1.38309 3.20424 0
M  V30 2524 C 243.493 -1.83724 3.82793 0
M  V30 2525 O 244.517 -1.47999 3.23998 0
M  V30 2526 O 243.376 -2.49685 4.86127 0
M  V30 2527 H 240.47 -0.409113 0.718718 0
M  V30 2528 H 243.016 -0.107661 1.69358 0
M  V30 2529 H 241.788 -0.578889 3.86994 0
M  V30 2530 H 241.411 -2.20046 3.31158 0
M  V30 2531 N 242.408 -1.52605 -0.393616 0
M  V30 2532 C 243.824 -1.41753 -0.733357 0
M  V30 2533 C 244.024 -0.534293 -1.94287 0
M  V30 2534 O 243.08 -0.0059787 -2.52499 0
M  V30 2535 C 244.393 -2.84531 -0.972772 0
M  V30 2536 C 245.941 -2.93978 -1.07453 0
M  V30 2537 C 246.416 -4.37756 -1.3466 0
M  V30 2538 N 247.907 -4.4106 -1.41492 0
M  V30 2539 C 248.642 -5.49387 -1.642 0
M  V30 2540 N 248.138 -6.67806 -1.8441 0
M  V30 2541 N 249.931 -5.36923 -1.66342 0
M  V30 2542 H 242.082 -2.08555 0.402328 0
M  V30 2543 H 244.345 -0.940654 0.117789 0
M  V30 2544 H 244.051 -3.51353 -0.156204 0
M  V30 2545 H 243.925 -3.26508 -1.88871 0
M  V30 2546 H 246.312 -2.27326 -1.88167 0
M  V30 2547 H 246.393 -2.55435 -0.136605 0
M  V30 2548 H 246.037 -5.04972 -0.544581 0
M  V30 2549 H 245.967 -4.73848 -2.2973 0
M  V30 2550 H 248.458 -3.55705 -1.27601 0
M  V30 2551 H 248.771 -7.46141 -2.01231 0
M  V30 2552 H 247.116 -6.70843 -1.81644 0
M  V30 2553 H 250.307 -4.43381 -1.50102 0
M  V30 2554 H 250.48 -6.21416 -1.837 0
M  V30 2555 N 243.887 0.651787 -1.4349 0
M  V30 2556 C 244.834 1.76462 -1.4876 0
M  V30 2557 C 245.804 1.62641 -0.337189 0
M  V30 2558 O 246.989 1.82864 -0.544544 0
M  V30 2559 C 244.129 3.14623 -1.41796 0
M  V30 2560 C 243.242 3.39568 -2.67053 0
M  V30 2561 C 242.377 4.67585 -2.52068 0
M  V30 2562 C 241.416 4.85639 -3.72587 0
M  V30 2563 N 240.553 6.04915 -3.56402 0
M  V30 2564 H 245.393 1.71293 -2.43849 0
M  V30 2565 H 242.93 0.835889 -1.21043 0
M  V30 2566 H 244.888 3.94496 -1.35753 0
M  V30 2567 H 243.518 3.18859 -0.50288 0
M  V30 2568 H 242.57 2.53783 -2.8337 0
M  V30 2569 H 243.882 3.48795 -3.56572 0
M  V30 2570 H 243.036 5.55586 -2.4374 0
M  V30 2571 H 241.775 4.60681 -1.60075 0
M  V30 2572 H 240.78 3.96073 -3.81321 0
M  V30 2573 H 242.005 4.94372 -4.65589 0
M  V30 2574 H 239.951 5.9914 -2.67146 0
M  V30 2575 H 239.868 6.15106 -4.39524 0
M  V30 2576 H 241.136 6.95533 -3.51929 0
M  V30 2577 N 245.365 1.30045 0.890287 0
M  V30 2578 C 246.593 1.21472 1.67487 0
M  V30 2579 C 247.008 -0.223241 1.87476 0
M  V30 2580 O 246.365 -1.14828 1.41847 0
M  V30 2581 C 246.416 1.93394 3.05419 0
M  V30 2582 O 246.137 3.31576 2.86337 0
M  V30 2583 C 247.638 1.91414 3.99844 0
M  V30 2584 H 244.858 0.420604 0.522813 0
M  V30 2585 H 247.402 1.7158 1.11268 0
M  V30 2586 H 245.557 1.47099 3.58386 0
M  V30 2587 H 245.971 3.67929 3.73802 0
M  V30 2588 H 247.445 2.46285 4.94012 0
M  V30 2589 H 247.922 0.891833 4.3005 0
M  V30 2590 H 248.528 2.37496 3.52811 0
M  V30 2591 N 246.843 -1.10192 1.12674 0
M  V30 2592 C 248.089 -1.82475 0.884915 0
M  V30 2593 C 248.422 -1.85093 -0.58773 0
M  V30 2594 O 247.697 -1.3134 -1.43457 0
M  V30 2595 C 247.98 -3.29018 1.46353 0
M  V30 2596 C 247.833 -3.34718 3.00473 0
M  V30 2597 C 249.152 -4.25473 1.12519 0
M  V30 2598 H 246.271 -0.662492 0.322915 0
M  V30 2599 H 248.913 -1.2913 1.39375 0
M  V30 2600 H 247.063 -3.74576 1.03077 0
M  V30 2601 H 248.735 -2.97622 3.52447 0
M  V30 2602 H 246.978 -2.74541 3.35872 0
M  V30 2603 H 247.649 -4.37918 3.36053 0
M  V30 2604 H 250.125 -3.88161 1.499 0
M  V30 2605 H 249.001 -5.26365 1.55663 0
M  V30 2606 H 249.262 -4.42084 0.0377407 0
M  V30 2607 N 248.321 -0.919034 -1.28029 0
M  V30 2608 C 249.251 -0.428581 -2.29533 0
M  V30 2609 C 250.232 0.50659 -1.62381 0
M  V30 2610 O 251.417 0.413195 -1.89753 0
M  V30 2611 C 248.547 0.327388 -3.45753 0
M  V30 2612 C 247.501 -0.519137 -4.2484 0
M  V30 2613 C 246.827 0.365486 -5.33449 0
M  V30 2614 C 248.127 -1.77914 -4.91064 0
M  V30 2615 H 249.821 -1.27687 -2.70807 0
M  V30 2616 H 247.367 -0.615428 -1.30186 0
M  V30 2617 H 249.32 0.681378 -4.15855 0
M  V30 2618 H 248.044 1.20963 -3.03374 0
M  V30 2619 H 246.703 -0.855717 -3.56473 0
M  V30 2620 H 246.351 1.24642 -4.87312 0
M  V30 2621 H 246.051 -0.197356 -5.87268 0
M  V30 2622 H 247.575 0.715241 -6.06396 0
M  V30 2623 H 248.989 -1.49374 -5.53498 0
M  V30 2624 H 247.386 -2.2848 -5.54903 0
M  V30 2625 H 248.456 -2.50382 -4.15255 0
M  V30 2626 N 249.799 1.42003 -0.683588 0
M  V30 2627 C 251.047 2.01015 -0.209101 0
M  V30 2628 C 251.368 1.54365 1.19149 0
M  V30 2629 O 250.638 0.769083 1.80172 0
M  V30 2630 H 249.218 0.743294 -0.074315 0
M  V30 2631 H 251.88 1.73798 -0.882066 0
M  V30 2632 H 250.976 3.11343 -0.2172 0
M  V30 2633 N 251.277 0.427512 1.51691 0
M  V30 2634 C 252.505 -0.141191 2.06418 0
M  V30 2635 C 252.92 -1.37303 1.29589 0
M  V30 2636 O 252.277 -1.79059 0.352732 0
M  V30 2637 C 252.328 -0.473266 3.58389 0
M  V30 2638 O 252.049 0.709673 4.32314 0
M  V30 2639 C 253.55 -1.09371 4.29596 0
M  V30 2640 H 250.77 -0.0122747 0.670888 0
M  V30 2641 H 253.314 0.603764 1.95384 0
M  V30 2642 H 251.469 -1.16812 3.69369 0
M  V30 2643 H 251.883 0.42807 5.2275 0
M  V30 2644 H 253.357 -1.27613 5.37046 0
M  V30 2645 H 253.834 -2.072 3.87253 0
M  V30 2646 H 254.44 -0.43853 4.23033 0
M  V30 2647 N 252.755 -1.56801 0.158532 0
M  V30 2648 C 254.166 -1.83189 -0.360366 0
M  V30 2649 C 254.517 -1.07778 -1.63946 0
M  V30 2650 O 253.642 -0.326718 -2.13919 0
M  V30 2651 C 254.237 -3.32297 -0.660595 0
M  V30 2652 C 252.796 -3.59227 -1.12398 0
M  V30 2653 C 251.943 -2.76877 -0.153097 0
M  V30 2654 H 254.894 -1.54008 0.383031 0
M  V30 2655 H 254.915 -3.4908 -1.51405 0
M  V30 2656 H 254.427 -3.87156 0.270527 0
M  V30 2657 H 252.528 -3.09766 -2.07064 0
M  V30 2658 H 252.641 -4.67632 -1.04197 0
M  V30 2659 H 251.005 -2.46319 -0.647983 0
M  V30 2660 H 251.788 -3.34511 0.77182 0
M  V30 2661 N 254.233 0.115231 -1.57178 0
M  V30 2662 C 255.143 1.15994 -2.03918 0
M  V30 2663 C 256.159 1.45103 -0.960268 0
M  V30 2664 O 257.335 1.56144 -1.27204 0
M  V30 2665 C 254.4 2.46568 -2.43732 0
M  V30 2666 C 253.461 2.24822 -3.65723 0
M  V30 2667 C 252.694 3.4917 -4.03629 0
M  V30 2668 O 252.917 4.56623 -3.41835 0
M  V30 2669 O 251.851 3.39949 -4.96708 0
M  V30 2670 H 255.677 0.793019 -2.93164 0
M  V30 2671 H 253.262 0.3263 -1.45793 0
M  V30 2672 H 255.144 3.23492 -2.70057 0
M  V30 2673 H 253.819 2.82726 -1.57631 0
M  V30 2674 H 252.726 1.45744 -3.44542 0
M  V30 2675 H 254.059 1.93566 -4.52541 0
M  V30 2676 N 255.711 1.52812 0.385517 0
M  V30 2677 C 256.957 1.68275 1.13188 0
M  V30 2678 C 257.29 0.423179 1.89533 0
M  V30 2679 O 256.565 -0.579113 1.85679 0
M  V30 2680 C 256.848 2.92001 2.1073 0
M  V30 2681 C 256.701 4.28067 1.38125 0
M  V30 2682 C 258.02 3.11283 3.11113 0
M  V30 2683 H 255.139 0.612352 0.410115 0
M  V30 2684 H 257.781 1.85415 0.414869 0
M  V30 2685 H 255.931 2.77519 2.71874 0
M  V30 2686 H 257.603 4.54324 0.799187 0
M  V30 2687 H 255.846 4.28388 0.683092 0
M  V30 2688 H 256.517 5.10733 2.09417 0
M  V30 2689 H 258.993 3.2482 2.6006 0
M  V30 2690 H 257.869 3.99325 3.76605 0
M  V30 2691 H 258.13 2.25656 3.80173 0
M  V30 2692 N 257.189 -0.644168 1.43834 0
M  V30 2693 C 258.119 -1.76814 1.52509 0
M  V30 2694 C 259.1 -1.65823 0.379052 0
M  V30 2695 O 260.285 -1.84781 0.597466 0
M  V30 2696 C 257.415 -3.15288 1.4564 0
M  V30 2697 C 256.369 -3.41053 2.58586 0
M  V30 2698 C 255.695 -4.79421 2.36769 0
M  V30 2699 C 256.995 -3.34902 4.00797 0
M  V30 2700 H 258.689 -1.69812 2.46586 0
M  V30 2701 H 256.235 -0.815542 1.1868 0
M  V30 2702 H 258.188 -3.93681 1.50311 0
M  V30 2703 H 256.912 -3.23043 0.480725 0
M  V30 2704 H 255.571 -2.65035 2.53282 0
M  V30 2705 H 255.219 -4.83863 1.37424 0
M  V30 2706 H 254.919 -4.9762 3.12487 0
M  V30 2707 H 256.443 -5.6006 2.43238 0
M  V30 2708 H 257.857 -4.03218 4.07539 0
M  V30 2709 H 256.254 -3.64637 4.76613 0
M  V30 2710 H 257.324 -2.32928 4.25291 0
M  V30 2711 N 258.668 -1.30515 -0.883378 0
M  V30 2712 C 259.598 -1.19607 -2.00541 0
M  V30 2713 C 260.579 -0.086346 -1.69881 0
M  V30 2714 O 261.764 -0.268654 -1.92333 0
M  V30 2715 C 258.894 -0.888758 -3.35736 0
M  V30 2716 C 257.848 -1.95659 -3.8066 0
M  V30 2717 C 257.174 -1.50224 -5.13164 0
M  V30 2718 C 258.474 -3.36788 -3.99213 0
M  V30 2719 H 260.168 -2.13476 -2.09925 0
M  V30 2720 H 257.714 -1.02775 -1.00863 0
M  V30 2721 H 259.667 -0.799094 -4.13754 0
M  V30 2722 H 258.391 0.0856125 -3.26488 0
M  V30 2723 H 257.05 -2.03591 -3.04871 0
M  V30 2724 H 256.698 -0.516092 -5.00345 0
M  V30 2725 H 256.398 -2.2165 -5.44192 0
M  V30 2726 H 257.922 -1.42639 -5.93706 0
M  V30 2727 H 259.336 -3.31605 -4.67665 0
M  V30 2728 H 257.733 -4.06314 -4.41621 0
M  V30 2729 H 258.803 -3.78561 -3.03017 0
M  V30 2730 N 260.146 1.09593 -1.13257 0
M  V30 2731 C 261.394 1.81375 -0.891492 0
M  V30 2732 C 261.715 1.86049 0.584009 0
M  V30 2733 O 260.985 1.34481 1.42449 0
M  V30 2734 H 259.565 0.671708 -0.326828 0
M  V30 2735 H 262.227 1.3256 -1.42877 0
M  V30 2736 H 261.323 2.84612 -1.28071 0
M  V30 2737 N 261.624 0.925811 1.2754 0
M  V30 2738 C 262.587 0.428129 2.25166 0
M  V30 2739 C 263.587 -0.452261 1.54309 0
M  V30 2740 O 264.777 -0.253608 1.72344 0
M  V30 2741 C 261.909 -0.384749 3.38722 0
M  V30 2742 H 263.102 1.29066 2.70706 0
M  V30 2743 H 260.655 0.706323 1.3943 0
M  V30 2744 H 261.39 -1.26618 2.98561 0
M  V30 2745 H 261.175 0.246454 3.91325 0
M  V30 2746 H 262.665 -0.723389 4.11287 0
M  V30 2747 N 263.102 -1.41638 0.69111 0
M  V30 2748 C 264.032 -2.3347 0.037248 0
M  V30 2749 C 265.013 -1.51575 -0.771947 0
M  V30 2750 O 266.198 -1.80126 -0.72582 0
M  V30 2751 C 263.328 -3.35354 -0.903064 0
M  V30 2752 C 262.282 -4.27526 -0.201288 0
M  V30 2753 C 261.608 -5.19747 -1.25565 0
M  V30 2754 C 262.908 -5.13959 0.929689 0
M  V30 2755 H 264.602 -2.88397 0.804227 0
M  V30 2756 H 262.148 -1.38669 0.388189 0
M  V30 2757 H 264.101 -3.98519 -1.36969 0
M  V30 2758 H 262.825 -2.78767 -1.70166 0
M  V30 2759 H 261.484 -3.65779 0.245265 0
M  V30 2760 H 261.132 -4.59479 -2.04666 0
M  V30 2761 H 260.832 -5.8225 -0.791128 0
M  V30 2762 H 262.356 -5.85789 -1.72288 0
M  V30 2763 H 263.77 -5.70718 0.543546 0
M  V30 2764 H 262.167 -5.85379 1.32103 0
M  V30 2765 H 263.237 -4.51389 1.77133 0
M  V30 2766 N 264.58 -0.43555 -1.51462 0
M  V30 2767 C 265.991 0.0279871 -1.86679 0
M  V30 2768 C 266.342 1.42104 -1.35281 0
M  V30 2769 O 265.467 2.04667 -0.702878 0
M  V30 2770 C 266.062 0.0575626 -3.38751 0
M  V30 2771 C 264.621 0.465507 -3.7351 0
M  V30 2772 C 263.768 -0.342996 -2.75171 0
M  V30 2773 H 266.719 -0.651473 -1.44712 0
M  V30 2774 H 266.74 0.867421 -3.70481 0
M  V30 2775 H 266.252 -0.956448 -3.7613 0
M  V30 2776 H 264.353 1.48519 -3.41721 0
M  V30 2777 H 264.466 0.191546 -4.78717 0
M  V30 2778 H 262.83 0.198442 -2.53926 0
M  V30 2779 H 263.613 -1.35585 -3.15391 0
M  V30 2780 N 266.058 1.56714 -0.166846 0
M  V30 2781 C 267.306 1.96358 0.478305 0
M  V30 2782 C 267.627 1.0537 1.6408 0
M  V30 2783 O 266.897 0.119154 1.95537 0
M  V30 2784 H 265.477 0.725065 0.179692 0
M  V30 2785 H 268.139 1.93329 -0.246985 0
M  V30 2786 H 267.235 3.00547 0.841292 0
M  V30 2787 N 267.536 -0.106894 1.57237 0
M  V30 2788 C 268.499 -1.11466 2.0027 0
M  V30 2789 C 269.499 -1.33623 0.894519 0
M  V30 2790 O 270.689 -1.29935 1.16028 0
M  V30 2791 C 267.821 -2.46646 2.35327 0
M  V30 2792 H 269.014 -0.744516 2.90512 0
M  V30 2793 H 266.567 -0.351576 1.52295 0
M  V30 2794 H 267.302 -2.88558 1.48003 0
M  V30 2795 H 267.087 -2.31915 3.16161 0
M  V30 2796 H 268.577 -3.19151 2.69318 0
M  V30 2797 N 269.014 -1.53014 -0.377408 0
M  V30 2798 C 270.262 -1.6829 -1.11906 0
M  V30 2799 C 270.583 -0.431206 -1.90173 0
M  V30 2800 O 269.853 0.554595 -1.87886 0
M  V30 2801 H 268.433 -0.620371 -0.416112 0
M  V30 2802 H 271.095 -1.90167 -0.426893 0
M  V30 2803 H 270.191 -2.53862 -1.8155 0
M  V30 2804 N 270.492 0.636531 -1.44174 0
M  V30 2805 C 271.74 1.39343 -1.46383 0
M  V30 2806 C 272.061 1.94766 -0.0955715 0
M  V30 2807 O 271.331 1.75452 0.871395 0
M  V30 2808 H 269.911 0.517199 -0.538994 0
M  V30 2809 H 272.573 0.74957 -1.7991 0
M  V30 2810 H 271.669 2.22746 -2.18611 0
M  V30 2811 N 271.97 1.30982 0.876444 0
M  V30 2812 C 273.198 1.23242 1.6619 0
M  V30 2813 C 273.613 -0.203345 1.87702 0
M  V30 2814 O 272.97 -1.13317 1.43057 0
M  V30 2815 C 273.021 1.96623 3.03351 0
M  V30 2816 O 272.742 3.34594 2.82804 0
M  V30 2817 C 274.243 1.95644 3.97792 0
M  V30 2818 H 271.463 0.426126 0.518322 0
M  V30 2819 H 274.007 1.7275 1.09442 0
M  V30 2820 H 272.162 1.50892 3.56806 0
M  V30 2821 H 272.576 3.71873 3.69879 0
M  V30 2822 H 274.05 2.51511 4.91372 0
M  V30 2823 H 274.527 0.937395 4.2908 0
M  V30 2824 H 275.133 2.41225 3.50272 0
M  V30 2825 N 273.449 -1.08991 1.13837 0
M  V30 2826 C 274.381 -2.15606 0.777612 0
M  V30 2827 C 275.394 -1.61533 -0.202739 0
M  V30 2828 O 276.583 -1.78491 0.0181055 0
M  V30 2829 C 273.683 -3.3864 0.132623 0
M  V30 2830 C 272.856 -4.22115 1.1462 0
M  V30 2831 C 271.915 -5.23564 0.526074 0
M  V30 2832 O 270.941 -5.56678 1.18735 0
M  V30 2833 N 272.143 -5.76266 -0.699866 0
M  V30 2834 H 274.908 -2.47159 1.69506 0
M  V30 2835 H 272.469 -1.24747 1.03198 0
M  V30 2836 H 274.461 -4.03626 -0.29459 0
M  V30 2837 H 273.031 -3.04938 -0.687849 0
M  V30 2838 H 272.251 -3.53199 1.75055 0
M  V30 2839 H 273.539 -4.74709 1.83109 0
M  V30 2840 H 272.937 -5.51585 -1.25581 0
M  V30 2841 H 271.494 -6.42963 -1.06968 0
M  V30 2842 N 274.927 -0.932562 -1.27047 0
M  V30 2843 C 276.343 -0.633544 -1.46487 0
M  V30 2844 C 276.543 0.815746 -1.84249 0
M  V30 2845 O 275.599 1.59319 -1.95892 0
M  V30 2846 C 276.912 -1.58758 -2.55375 0
M  V30 2847 C 278.46 -1.59634 -2.69232 0
M  V30 2848 C 278.935 -2.53747 -3.81283 0
M  V30 2849 N 280.426 -2.51982 -3.88664 0
M  V30 2850 C 281.161 -3.21491 -4.74796 0
M  V30 2851 N 280.657 -4.00395 -5.65381 0
M  V30 2852 N 282.45 -3.10485 -4.68568 0
M  V30 2853 H 274.601 -1.86946 -1.00821 0
M  V30 2854 H 276.864 -0.802897 -0.504044 0
M  V30 2855 H 276.57 -2.62172 -2.34432 0
M  V30 2856 H 276.444 -1.33301 -3.52861 0
M  V30 2857 H 278.831 -0.569488 -2.89553 0
M  V30 2858 H 278.912 -1.89142 -1.72218 0
M  V30 2859 H 278.556 -3.56545 -3.61715 0
M  V30 2860 H 278.486 -2.21532 -4.77735 0
M  V30 2861 H 280.977 -1.94681 -3.23895 0
M  V30 2862 H 281.29 -4.50406 -6.27976 0
M  V30 2863 H 279.635 -4.04498 -5.65161 0
M  V30 2864 H 282.826 -2.48331 -3.96799 0
M  V30 2865 H 282.999 -3.64925 -5.35475 0
M  V30 2866 N 276.405 1.4127 -0.698611 0
M  V30 2867 C 277.335 2.33447 -0.049629 0
M  V30 2868 C 278.316 1.51982 0.763898 0
M  V30 2869 O 279.501 1.80509 0.716257 0
M  V30 2870 C 276.631 3.35828 0.885267 0
M  V30 2871 C 275.585 4.27627 0.178613 0
M  V30 2872 C 274.911 5.20406 1.22807 0
M  V30 2873 C 276.211 5.13459 -0.956933 0
M  V30 2874 H 277.905 2.87966 -0.81951 0
M  V30 2875 H 275.451 1.38461 -0.395538 0
M  V30 2876 H 277.404 3.9924 1.34854 0
M  V30 2877 H 276.128 2.79666 1.68685 0
M  V30 2878 H 274.787 3.65643 -0.26466 0
M  V30 2879 H 274.435 4.60558 2.02226 0
M  V30 2880 H 274.135 5.82661 0.760239 0
M  V30 2881 H 275.659 5.86695 1.69179 0
M  V30 2882 H 277.073 5.70421 -0.573805 0
M  V30 2883 H 275.47 5.8467 -1.35205 0
M  V30 2884 H 276.54 4.50443 -1.79524 0
M  V30 2885 N 277.883 0.443576 1.51229 0
M  V30 2886 C 279.294 -0.0180867 1.86691 0
M  V30 2887 C 279.645 -1.41384 1.36033 0
M  V30 2888 O 278.77 -2.04291 0.713722 0
M  V30 2889 C 279.365 -0.039597 3.38777 0
M  V30 2890 C 277.924 -0.445692 3.73752 0
M  V30 2891 C 277.071 0.357584 2.74985 0
M  V30 2892 H 280.022 0.659138 1.44364 0
M  V30 2893 H 280.043 -0.847761 3.70936 0
M  V30 2894 H 279.555 0.976382 3.75617 0
M  V30 2895 H 277.656 -1.46704 3.42503 0
M  V30 2896 H 277.769 -0.166155 4.78812 0
M  V30 2897 H 276.133 -0.184973 2.54027 0
M  V30 2898 H 276.916 1.37256 3.14668 0
M  V30 2899 N 279.361 -1.56624 0.175154 0
M  V30 2900 C 280.308 -2.18149 -0.753634 0
M  V30 2901 C 281.278 -1.12265 -1.22417 0
M  V30 2902 O 282.463 -1.40432 -1.29165 0
M  V30 2903 C 279.603 -2.82933 -1.97592 0
M  V30 2904 C 278.716 -4.03289 -1.5486 0
M  V30 2905 C 277.851 -4.55988 -2.72485 0
M  V30 2906 C 276.89 -5.68746 -2.26262 0
M  V30 2907 N 276.027 -6.15938 -3.36994 0
M  V30 2908 H 280.867 -2.9717 -0.222195 0
M  V30 2909 H 278.404 -1.46774 -0.0979422 0
M  V30 2910 H 280.362 -3.18653 -2.69288 0
M  V30 2911 H 278.992 -2.06509 -2.481 0
M  V30 2912 H 278.044 -3.73364 -0.728246 0
M  V30 2913 H 279.356 -4.849 -1.16933 0
M  V30 2914 H 278.51 -4.9391 -3.52332 0
M  V30 2915 H 277.249 -3.73443 -3.13674 0
M  V30 2916 H 276.254 -5.30372 -1.44863 0
M  V30 2917 H 277.479 -6.53095 -1.86127 0
M  V30 2918 H 275.425 -5.36321 -3.77751 0
M  V30 2919 H 275.342 -6.92548 -3.03172 0
M  V30 2920 H 276.61 -6.58511 -4.17114 0
M  V30 2921 N 280.839 0.0985539 -1.57292 0
M  V30 2922 C 281.772 1.15082 -1.97057 0
M  V30 2923 C 282.75 1.39025 -0.843255 0
M  V30 2924 O 283.934 1.52842 -1.10325 0
M  V30 2925 C 281.061 2.50069 -2.28437 0
M  V30 2926 C 280.107 2.42428 -3.509 0
M  V30 2927 S 280.94 1.84414 -5.02744 0
M  V30 2928 C 282.096 3.21032 -5.37298 0
M  V30 2929 H 282.329 0.811815 -2.86002 0
M  V30 2930 H 279.862 0.306102 -1.51335 0
M  V30 2931 H 281.82 3.27729 -2.47192 0
M  V30 2932 H 280.481 2.8114 -1.40069 0
M  V30 2933 H 279.674 3.41911 -3.70288 0
M  V30 2934 H 279.276 1.72896 -3.31637 0
M  V30 2935 H 281.568 4.17297 -5.33731 0
M  V30 2936 H 282.511 3.06452 -6.38352 0
M  V30 2937 H 282.919 3.20404 -4.64759 0
M  V30 2938 N 282.317 1.53212 0.369288 0
M  V30 2939 C 283.563 1.69466 1.11397 0
M  V30 2940 C 283.896 0.443257 1.89074 0
M  V30 2941 O 283.171 -0.559386 1.86282 0
M  V30 2942 C 283.454 2.9422 2.07621 0
M  V30 2943 C 283.307 4.29508 1.33577 0
M  V30 2944 C 284.626 3.14565 3.07794 0
M  V30 2945 H 281.745 0.616667 0.403597 0
M  V30 2946 H 284.387 1.85845 0.395179 0
M  V30 2947 H 282.537 2.80387 2.68916 0
M  V30 2948 H 284.209 4.55147 0.750955 0
M  V30 2949 H 282.452 4.29088 0.637618 0
M  V30 2950 H 283.123 5.12926 2.03989 0
M  V30 2951 H 285.599 3.2756 2.56601 0
M  V30 2952 H 284.475 4.03297 3.72348 0
M  V30 2953 H 284.736 2.29675 3.77759 0
M  V30 2954 N 283.795 -0.628877 1.44509 0
M  V30 2955 C 285.043 -1.38565 1.4712 0
M  V30 2956 C 285.364 -1.94712 0.105899 0
M  V30 2957 O 284.634 -1.75912 -0.862079 0
M  V30 2958 H 283.214 -0.514333 0.541729 0
M  V30 2959 H 285.876 -0.740018 1.80305 0
M  V30 2960 H 284.972 -2.21583 2.19789 0
M  V30 2961 N 285.273 -1.31445 -0.869486 0
M  V30 2962 C 286.519 -1.21337 -1.62496 0
M  V30 2963 C 286.852 0.227872 -1.92858 0
M  V30 2964 O 286.127 1.16094 -1.56053 0
M  V30 2965 C 286.41 -2.05814 -2.95487 0
M  V30 2966 C 286.263 -3.5824 -2.72 0
M  V30 2967 C 287.582 -1.9079 -3.96594 0
M  V30 2968 H 284.701 -0.442135 -0.589649 0
M  V30 2969 H 287.343 -1.6124 -1.00507 0
M  V30 2970 H 285.493 -1.71913 -3.48394 0
M  V30 2971 H 287.165 -4.0228 -2.25762 0
M  V30 2972 H 285.408 -3.81647 -2.06224 0
M  V30 2973 H 286.079 -4.12657 -3.66631 0
M  V30 2974 H 288.555 -2.20459 -3.52898 0
M  V30 2975 H 287.431 -2.52199 -4.87531 0
M  V30 2976 H 287.692 -0.871341 -4.33428 0
M  V30 2977 N 286.751 1.08385 -1.14413 0
M  V30 2978 C 288.162 1.62258 -0.923535 0
M  V30 2979 C 288.513 1.88691 0.537595 0
M  V30 2980 O 287.638 1.64454 1.40655 0
M  V30 2981 C 288.233 2.94781 -1.67002 0
M  V30 2982 C 286.792 3.45437 -1.495 0
M  V30 2983 C 285.939 2.19668 -1.69238 0
M  V30 2984 H 288.89 0.916086 -1.2959 0
M  V30 2985 H 288.911 3.63229 -1.13334 0
M  V30 2986 H 288.423 2.7551 -2.73342 0
M  V30 2987 H 286.524 3.6981 -0.455097 0
M  V30 2988 H 286.637 4.22173 -2.2651 0
M  V30 2989 H 285.001 2.28849 -1.11804 0
M  V30 2990 H 285.784 2.02905 -2.7692 0
M  V30 2991 N 288.23 0.939286 1.26551 0
M  V30 2992 C 289.193 0.451987 2.24699 0
M  V30 2993 C 290.193 -0.435869 1.5478 0
M  V30 2994 O 291.383 -0.235314 1.72603 0
M  V30 2995 C 288.515 -0.348801 3.39111 0
M  V30 2996 H 289.708 1.3193 2.69322 0
M  V30 2997 H 287.261 0.721072 1.38673 0
M  V30 2998 H 287.996 -1.23444 2.99887 0
M  V30 2999 H 287.781 0.287945 3.91041 0
M  V30 3000 H 289.271 -0.679726 4.12031 0
M  V30 3001 N 289.708 -1.40897 0.706093 0
M  V30 3002 C 290.671 -2.29131 0.0562841 0
M  V30 3003 C 291.671 -1.44901 -0.697166 0
M  V30 3004 O 292.861 -1.65926 -0.530484 0
M  V30 3005 C 289.993 -3.27957 -0.93043 0
M  V30 3006 H 291.186 -2.88091 0.833284 0
M  V30 3007 H 288.739 -1.4906 0.470192 0
M  V30 3008 H 289.474 -2.73997 -1.73482 0
M  V30 3009 H 289.259 -3.90124 -0.393166 0
M  V30 3010 H 290.749 -3.94049 -1.38256 0
M  V30 3011 N 291.186 -0.45159 -1.50991 0
M  V30 3012 C 292.116 0.342898 -2.30969 0
M  V30 3013 C 293.097 1.00815 -1.37005 0
M  V30 3014 O 294.282 1.00907 -1.65926 0
M  V30 3015 C 291.412 1.43637 -3.16205 0
M  V30 3016 C 290.366 0.893818 -4.18563 0
M  V30 3017 C 289.692 2.08411 -4.92411 0
M  V30 3018 C 290.992 -0.0815568 -5.22236 0
M  V30 3019 H 292.686 -0.324556 -2.97636 0
M  V30 3020 H 290.232 -0.157531 -1.43136 0
M  V30 3021 H 292.185 1.9995 -3.70942 0
M  V30 3022 H 290.909 2.13232 -2.47386 0
M  V30 3023 H 289.568 0.352798 -3.64898 0
M  V30 3024 H 289.216 2.76658 -4.20082 0
M  V30 3025 H 288.916 1.72741 -5.61636 0
M  V30 3026 H 290.44 2.65251 -5.49976 0
M  V30 3027 H 291.854 0.391742 -5.7196 0
M  V30 3028 H 290.251 -0.351551 -5.99069 0
M  V30 3029 H 291.321 -1.01374 -4.74185 0
M  V30 3030 N 292.664 1.56529 -0.183458 0
M  V30 3031 C 293.941 1.88959 0.50536 0
M  V30 3032 C 294.321 1.09523 1.80466 0
M  V30 3033 O 293.669 0.19278 2.27685 0
M  V30 3034 C 293.879 3.41162 0.73547 0
M  V30 3035 C 295.227 4.11155 1.06005 0
M  V30 3036 O 296.251 3.46548 0.823594 0
M  V30 3037 O 295.11 5.25318 1.50675 0
M  V30 3038 H 292.204 0.78441 0.261973 0
M  V30 3039 H 294.75 1.68231 -0.222802 0
M  V30 3040 H 293.522 3.90874 -0.182561 0
M  V30 3041 H 293.145 3.67543 1.51651 0
M  V30 3042 N 294.142 -0.090211 1.57342 0
M  V30 3043 C 295.075 -1.14035 1.97664 0
M  V30 3044 C 296.053 -1.38576 0.850616 0
M  V30 3045 O 297.237 -1.52255 1.11134 0
M  V30 3046 C 294.364 -2.48854 2.2976 0
M  V30 3047 C 293.41 -2.40564 3.52181 0
M  V30 3048 S 294.243 -1.81745 5.03715 0
M  V30 3049 C 295.399 -3.18178 5.38993 0
M  V30 3050 H 295.632 -0.796636 2.86428 0
M  V30 3051 H 293.165 -0.298072 1.51496 0
M  V30 3052 H 295.123 -3.26413 2.48927 0
M  V30 3053 H 293.784 -2.80393 1.41558 0
M  V30 3054 H 292.977 -3.39942 3.72096 0
M  V30 3055 H 292.579 -1.71135 3.32549 0
M  V30 3056 H 294.871 -4.14461 5.35937 0
M  V30 3057 H 295.814 -3.03062 6.39968 0
M  V30 3058 H 296.222 -3.17935 4.66452 0
M  V30 3059 N 295.62 -1.53406 -0.361157 0
M  V30 3060 C 296.553 -1.74946 -1.46524 0
M  V30 3061 C 297.531 -0.59795 -1.51206 0
M  V30 3062 O 298.715 -0.831062 -1.69191 0
M  V30 3063 C 295.842 -1.83224 -2.84863 0
M  V30 3064 C 294.888 -3.05233 -2.97885 0
M  V30 3065 S 295.721 -4.6466 -2.66179 0
M  V30 3066 C 296.877 -4.75793 -4.06659 0
M  V30 3067 H 297.11 -2.68319 -1.28033 0
M  V30 3068 H 294.643 -1.44051 -0.555764 0
M  V30 3069 H 296.601 -1.88679 -3.64569 0
M  V30 3070 H 295.262 -0.908948 -3.00661 0
M  V30 3071 H 294.455 -3.07648 -3.9921 0
M  V30 3072 H 294.057 -2.97913 -2.26106 0
M  V30 3073 H 296.349 -4.5612 -5.0096 0
M  V30 3074 H 297.292 -5.7786 -4.09247 0
M  V30 3075 H 297.7 -4.04389 -3.93865 0
M  V30 3076 N 297.098 0.621204 -1.44841 0
M  V30 3077 C 298.028 1.74366 -1.55303 0
M  V30 3078 C 299.009 1.65199 -0.405385 0
M  V30 3079 O 300.194 1.83807 -0.626787 0
M  V30 3080 C 297.324 3.12931 -1.50637 0
M  V30 3081 C 296.278 3.36896 -2.63979 0
M  V30 3082 C 295.604 4.75594 -2.44366 0
M  V30 3083 C 296.904 3.28483 -4.06074 0
M  V30 3084 H 298.598 1.65867 -2.49256 0
M  V30 3085 H 296.144 0.796558 -1.19962 0
M  V30 3086 H 298.097 3.9124 -1.56555 0
M  V30 3087 H 296.821 3.22237 -0.532057 0
M  V30 3088 H 295.48 2.60972 -2.57467 0
M  V30 3089 H 295.128 4.81616 -1.45105 0
M  V30 3090 H 294.828 4.92586 -3.20364 0
M  V30 3091 H 296.352 5.5612 -2.52117 0
M  V30 3092 H 297.766 3.96684 -4.13902 0
M  V30 3093 H 296.163 3.57008 -4.82354 0
M  V30 3094 H 297.233 2.26133 -4.28943 0
M  V30 3095 N 298.576 1.31904 0.862503 0
M  V30 3096 C 299.804 1.24998 1.64873 0
M  V30 3097 C 300.219 -0.183425 1.87907 0
M  V30 3098 O 299.576 -1.11794 1.44251 0
M  V30 3099 C 299.627 1.99829 3.01248 0
M  V30 3100 O 299.348 3.37575 2.79239 0
M  V30 3101 C 300.849 1.99852 3.95694 0
M  V30 3102 H 298.069 0.431599 0.513773 0
M  V30 3103 H 300.613 1.73901 1.07604 0
M  V30 3104 H 298.768 1.54668 3.55185 0
M  V30 3105 H 299.182 3.75776 3.65914 0
M  V30 3106 H 300.656 2.56709 4.88676 0
M  V30 3107 H 301.133 0.982852 4.28062 0
M  V30 3108 H 301.739 2.44926 3.47694 0
M  V30 3109 N 300.054 -1.07777 1.14986 0
M  V30 3110 C 301.302 -1.79934 0.920235 0
M  V30 3111 C 301.623 -1.86955 -0.554336 0
M  V30 3112 O 300.893 -1.36731 -1.40291 0
M  V30 3113 H 299.473 -0.666424 0.337473 0
M  V30 3114 H 302.135 -1.3027 1.44968 0
M  V30 3115 H 301.231 -2.82539 1.32583 0
M  V30 3116 N 301.532 -0.945985 -1.26051 0
M  V30 3117 C 302.948 -0.649045 -1.45807 0
M  V30 3118 C 303.148 0.796158 -1.85104 0
M  V30 3119 O 302.204 1.57233 -1.97571 0
M  V30 3120 C 303.517 -1.61458 -2.53677 0
M  V30 3121 C 305.065 -1.62481 -2.67524 0
M  V30 3122 C 305.54 -2.57776 -3.7857 0
M  V30 3123 N 307.031 -2.5609 -3.85969 0
M  V30 3124 C 307.766 -3.26508 -4.7136 0
M  V30 3125 N 307.262 -4.0637 -5.61102 0
M  V30 3126 N 309.055 -3.15437 -4.65248 0
M  V30 3127 H 301.206 -1.88005 -0.988328 0
M  V30 3128 H 303.469 -0.808198 -0.4955 0
M  V30 3129 H 303.175 -2.64644 -2.31638 0
M  V30 3130 H 303.049 -1.37036 -3.51427 0
M  V30 3131 H 305.436 -0.600167 -2.88933 0
M  V30 3132 H 305.517 -1.90958 -1.70202 0
M  V30 3133 H 305.161 -3.60361 -3.57913 0
M  V30 3134 H 305.091 -2.26587 -4.75359 0
M  V30 3135 H 307.582 -1.98105 -3.21812 0
M  V30 3136 H 307.895 -4.57042 -6.23164 0
M  V30 3137 H 306.24 -4.10469 -5.60839 0
M  V30 3138 H 309.431 -2.52525 -3.94143 0
M  V30 3139 H 309.604 -3.70584 -5.31575 0
M  V30 3140 N 303.011 1.40521 -0.713556 0
M  V30 3141 C 304.236 2.05759 -0.26035 0
M  V30 3142 C 304.661 1.53403 1.08854 0
M  V30 3143 O 304.019 0.668535 1.68524 0
M  V30 3144 C 304.067 3.59745 -0.248122 0
M  V30 3145 O 303.171 4.05123 0.77131 0
M  V30 3146 H 302.512 0.652564 -0.122703 0
M  V30 3147 H 305.042 1.79958 -0.973467 0
M  V30 3148 H 305.052 4.07911 -0.0851129 0
M  V30 3149 H 303.727 3.97218 -1.2325 0
M  V30 3150 H 302.304 3.68422 0.57619 0
M  V30 3151 N 304.489 0.459591 1.5075 0
M  V30 3152 C 305.738 -0.100971 2.01447 0
M  V30 3153 C 306.051 -1.41816 1.34713 0
M  V30 3154 O 307.257 -2.06299 1.76502 0
M  V30 3155 C 305.713 -0.23047 3.59161 0
M  V30 3156 C 305.321 1.0776 4.34847 0
M  V30 3157 C 307.065 -0.743608 4.17936 0
M  V30 3158 C 304.972 0.91253 5.84317 0
M  V30 3159 H 303.902 -0.0415102 0.752856 0
M  V30 3160 H 306.553 0.592742 1.73663 0
M  V30 3161 H 304.935 -0.987703 3.83485 0
M  V30 3162 H 306.109 1.8449 4.22256 0
M  V30 3163 H 304.424 1.52097 3.87628 0
M  V30 3164 H 307.021 -0.883959 5.27343 0
M  V30 3165 H 307.364 -1.73196 3.78562 0
M  V30 3166 H 307.897 -0.04408 3.97776 0
M  V30 3167 H 304.636 1.87391 6.28144 0
M  V30 3168 H 304.156 0.185422 5.99513 0
M  V30 3169 H 305.835 0.574547 6.44444 0
M  V30 3170 N 305.967 -1.56429 0.191757 0
M  V30 3171 C 307.383 -1.58754 -0.164137 0
M  V30 3172 C 307.583 -1.20782 -1.61288 0
M  V30 3173 O 306.639 -0.928999 -2.34789 0
M  V30 3174 C 307.952 -3.00396 0.135195 0
M  V30 3175 C 309.5 -3.1291 0.0750351 0
M  V30 3176 C 309.975 -4.56679 0.347632 0
M  V30 3177 N 311.466 -4.62252 0.296131 0
M  V30 3178 C 312.201 -5.71379 0.480948 0
M  V30 3179 N 311.697 -6.88986 0.725933 0
M  V30 3180 N 313.49 -5.60563 0.415435 0
M  V30 3181 H 305.641 -1.79393 1.13718 0
M  V30 3182 H 307.904 -0.832414 0.453643 0
M  V30 3183 H 307.61 -3.32726 1.13958 0
M  V30 3184 H 307.484 -3.72963 -0.563773 0
M  V30 3185 H 309.871 -2.80394 -0.919948 0
M  V30 3186 H 309.952 -2.42736 0.807029 0
M  V30 3187 H 309.596 -4.89907 1.33992 0
M  V30 3188 H 309.526 -5.25039 -0.405212 0
M  V30 3189 H 312.017 -3.7773 0.113259 0
M  V30 3190 H 312.33 -7.68046 0.855857 0
M  V30 3191 H 310.675 -6.90801 0.762788 0
M  V30 3192 H 313.866 -4.67561 0.224486 0
M  V30 3193 H 314.039 -6.45551 0.562889 0
M  V30 3194 N 307.445 0.0818655 -1.57387 0
M  V30 3195 C 308.408 1.08265 -2.02018 0
M  V30 3196 C 309.408 1.32183 -0.915664 0
M  V30 3197 O 310.598 1.28073 -1.18081 0
M  V30 3198 C 307.73 2.42871 -2.39221 0
M  V30 3199 H 308.923 0.698204 -2.91659 0
M  V30 3200 H 306.476 0.327303 -1.52835 0
M  V30 3201 H 307.211 2.86167 -1.52575 0
M  V30 3202 H 306.996 2.26855 -3.19811 0
M  V30 3203 H 308.486 3.14826 -2.74362 0
M  V30 3204 N 308.923 1.53595 0.353017 0
M  V30 3205 C 310.2 1.61002 1.11075 0
M  V30 3206 C 310.58 0.425356 2.0677 0
M  V30 3207 O 309.928 -0.583267 2.2093 0
M  V30 3208 C 310.138 2.96631 1.83877 0
M  V30 3209 C 311.486 3.51653 2.37961 0
M  V30 3210 O 312.51 2.98743 1.93987 0
M  V30 3211 O 311.369 4.44177 3.18386 0
M  V30 3212 H 308.463 0.650825 0.510251 0
M  V30 3213 H 311.009 1.6594 0.35527 0
M  V30 3214 H 309.781 3.74293 1.14108 0
M  V30 3215 H 309.404 2.95242 2.66304 0
M  V30 3216 N 310.401 -0.613514 1.45168 0
M  V30 3217 C 311.817 -0.933629 1.29443 0
M  V30 3218 C 312.017 -2.00028 0.243101 0
M  V30 3219 O 311.073 -2.49848 -0.364992 0
M  V30 3220 C 312.386 -1.38018 2.67155 0
M  V30 3221 C 313.934 -1.49471 2.75004 0
M  V30 3222 C 314.409 -1.97503 4.13227 0
M  V30 3223 N 315.9 -2.04746 4.15491 0
M  V30 3224 C 316.635 -2.43121 5.19307 0
M  V30 3225 N 316.131 -2.80506 6.33473 0
M  V30 3226 N 317.924 -2.43408 5.06664 0
M  V30 3227 H 310.075 0.0916097 2.12202 0
M  V30 3228 H 312.338 -0.0216655 0.947752 0
M  V30 3229 H 312.044 -0.670625 3.45247 0
M  V30 3230 H 311.918 -2.34784 2.95222 0
M  V30 3231 H 314.305 -2.19519 1.9722 0
M  V30 3232 H 314.386 -0.510342 2.50657 0
M  V30 3233 H 314.03 -1.28045 4.91495 0
M  V30 3234 H 313.96 -2.96843 4.34962 0
M  V30 3235 H 316.451 -1.78468 3.33103 0
M  V30 3236 H 316.764 -3.08652 7.08487 0
M  V30 3237 H 315.109 -2.78216 6.36884 0
M  V30 3238 H 318.3 -2.13604 4.16523 0
M  V30 3239 H 318.473 -2.72989 5.87691 0
M  V30 3240 N 311.879 -1.3236 -0.855495 0
M  V30 3241 C 312.842 -1.21164 -1.94556 0
M  V30 3242 C 313.842 -0.134908 -1.60233 0
M  V30 3243 O 315.032 -0.385249 -1.69887 0
M  V30 3244 C 312.164 -0.863192 -3.29791 0
M  V30 3245 H 313.357 -2.18038 -2.05911 0
M  V30 3246 H 310.91 -1.16179 -1.04557 0
M  V30 3247 H 311.645 0.103769 -3.24134 0
M  V30 3248 H 311.43 -1.64166 -3.56078 0
M  V30 3249 H 312.92 -0.809156 -4.09686 0
M  V30 3250 N 313.357 1.07166 -1.15556 0
M  V30 3251 C 314.304 2.14417 -0.854055 0
M  V30 3252 C 315.274 1.64965 0.193806 0
M  V30 3253 O 316.459 1.90703 0.0609443 0
M  V30 3254 C 313.599 3.43304 -0.351574 0
M  V30 3255 C 312.712 4.06537 -1.46123 0
M  V30 3256 C 311.847 5.23266 -0.914677 0
M  V30 3257 C 310.886 5.78464 -2.00114 0
M  V30 3258 N 310.023 6.86521 -1.47083 0
M  V30 3259 H 314.863 2.39548 -1.77259 0
M  V30 3260 H 312.4 1.17543 -0.884425 0
M  V30 3261 H 314.358 4.17179 -0.0419409 0
M  V30 3262 H 312.988 3.18419 0.530037 0
M  V30 3263 H 312.04 3.30297 -1.88701 0
M  V30 3264 H 313.352 4.43567 -2.28144 0
M  V30 3265 H 312.506 6.04131 -0.557698 0
M  V30 3266 H 311.245 4.87658 -0.0636583 0
M  V30 3267 H 310.25 4.96243 -2.36692 0
M  V30 3268 H 311.475 6.16126 -2.85597 0
M  V30 3269 H 309.421 6.52849 -0.642198 0
M  V30 3270 H 309.338 7.22446 -2.22729 0
M  V30 3271 H 310.606 7.71087 -1.14215 0
M  V30 3272 N 314.835 0.952656 1.25548 0
M  V30 3273 C 315.782 0.47008 2.25962 0
M  V30 3274 C 316.752 -0.476384 1.59122 0
M  V30 3275 O 317.937 -0.39007 1.8677 0
M  V30 3276 C 315.077 -0.247881 3.44209 0
M  V30 3277 C 314.19 0.735591 4.25691 0
M  V30 3278 C 313.325 -0.0047306 5.312 0
M  V30 3279 C 312.364 0.969805 6.04368 0
M  V30 3280 N 311.501 0.260486 7.01617 0
M  V30 3281 H 316.341 1.33126 2.66611 0
M  V30 3282 H 313.878 0.66765 1.31076 0
M  V30 3283 H 315.836 -0.680695 4.1161 0
M  V30 3284 H 314.466 -1.07312 3.0444 0
M  V30 3285 H 313.518 1.28689 3.57971 0
M  V30 3286 H 314.83 1.47934 4.76358 0
M  V30 3287 H 313.984 -0.496275 6.04667 0
M  V30 3288 H 312.723 -0.781282 4.81401 0
M  V30 3289 H 311.728 1.47237 5.29718 0
M  V30 3290 H 312.953 1.74655 6.56256 0
M  V30 3291 H 310.899 -0.497364 6.54112 0
M  V30 3292 H 310.816 0.943362 7.50091 0
M  V30 3293 H 312.084 -0.209587 7.79218 0
M  V30 3294 N 316.313 -1.40141 0.720998 0
M  V30 3295 C 317.246 -2.2819 0.020916 0
M  V30 3296 C 318.224 -1.43633 -0.762129 0
M  V30 3297 O 319.408 -1.7304 -0.747633 0
M  V30 3298 C 316.535 -3.24281 -0.977715 0
M  V30 3299 C 315.581 -4.25548 -0.284836 0
M  V30 3300 S 316.414 -5.26247 0.991169 0
M  V30 3301 C 317.57 -6.259 -0.0052214 0
M  V30 3302 H 317.803 -2.87218 0.767649 0
M  V30 3303 H 315.336 -1.45656 0.512233 0
M  V30 3304 H 317.294 -3.80167 -1.54865 0
M  V30 3305 H 315.955 -2.643 -1.69719 0
M  V30 3306 H 315.148 -4.93154 -1.03996 0
M  V30 3307 H 314.75 -3.73389 0.213684 0
M  V30 3308 H 317.042 -6.72143 -0.850279 0
M  V30 3309 H 317.985 -7.05224 0.637599 0
M  V30 3310 H 318.393 -5.63277 -0.371366 0
M  V30 3311 N 317.792 -0.46758 -1.50504 0
M  V30 3312 C 319.04 0.0884469 -2.01906 0
M  V30 3313 C 319.361 1.40532 -1.35188 0
M  V30 3314 O 318.631 1.89515 -0.496079 0
M  V30 3315 H 317.211 0.0356765 -0.746148 0
M  V30 3316 H 319.873 -0.6172 -1.84869 0
M  V30 3317 H 318.969 0.2425 -3.11156 0
M  V30 3318 N 319.27 1.56325 -0.20005 0
M  V30 3319 C 320.2 2.22318 0.713916 0
M  V30 3320 C 321.181 1.18788 1.21752 0
M  V30 3321 O 322.366 1.47309 1.26545 0
M  V30 3322 C 319.496 2.88639 1.93144 0
M  V30 3323 C 318.45 3.98457 1.56255 0
M  V30 3324 C 317.776 4.51967 2.85709 0
M  V30 3325 C 319.076 5.16612 0.768747 0
M  V30 3326 H 320.77 2.98952 0.163755 0
M  V30 3327 H 318.316 1.43792 0.0773219 0
M  V30 3328 H 320.269 3.33491 2.57608 0
M  V30 3329 H 318.993 2.09419 2.50621 0
M  V30 3330 H 317.652 3.54305 0.941471 0
M  V30 3331 H 317.3 3.69503 3.41287 0
M  V30 3332 H 317 5.26071 2.6177 0
M  V30 3333 H 318.524 4.99523 3.51154 0
M  V30 3334 H 319.938 5.57977 1.3166 0
M  V30 3335 H 318.335 5.96812 0.627286 0
M  V30 3336 H 319.405 4.84358 -0.229168 0
M  V30 3337 N 320.748 -0.0735177 1.57428 0
M  V30 3338 C 321.994 -0.774145 1.87443 0
M  V30 3339 C 322.327 -1.77311 0.792103 0
M  V30 3340 O 321.602 -1.93492 -0.197793 0
M  V30 3341 C 321.885 -1.48367 3.28115 0
M  V30 3342 C 321.738 -0.501227 4.46999 0
M  V30 3343 C 323.057 -2.429 3.66998 0
M  V30 3344 H 320.176 -0.279971 0.681752 0
M  V30 3345 H 322.818 -0.0373616 1.89963 0
M  V30 3346 H 320.968 -2.11171 3.26097 0
M  V30 3347 H 322.64 0.121468 4.6114 0
M  V30 3348 H 320.883 0.183593 4.33411 0
M  V30 3349 H 321.554 -1.03526 5.42205 0
M  V30 3350 H 324.03 -1.90175 3.70098 0
M  V30 3351 H 322.906 -2.89549 4.66318 0
M  V30 3352 H 323.167 -3.27628 2.96837 0
M  V30 3353 N 322.226 -1.5378 -0.344866 0
M  V30 3354 C 323.503 -1.61589 -1.10219 0
M  V30 3355 C 323.883 -0.436316 -2.06542 0
M  V30 3356 O 323.231 0.571543 -2.21237 0
M  V30 3357 C 323.441 -2.97602 -1.82301 0
M  V30 3358 C 324.789 -3.5291 -2.36093 0
M  V30 3359 O 325.813 -2.99768 -1.924 0
M  V30 3360 O 324.672 -4.45859 -3.16026 0
M  V30 3361 H 321.766 -0.653522 -0.506792 0
M  V30 3362 H 324.312 -1.66126 -0.346465 0
M  V30 3363 H 323.084 -3.74893 -1.12121 0
M  V30 3364 H 322.707 -2.9665 -2.64735 0
M  V30 3365 N 323.704 0.605807 -1.45491 0
M  V30 3366 C 324.636 1.73031 -1.5031 0
M  V30 3367 C 325.649 1.57968 -0.393687 0
M  V30 3368 O 326.838 1.65817 -0.660839 0
M  V30 3369 C 323.938 3.11049 -1.34543 0
M  V30 3370 C 323.111 3.52334 -2.59189 0
M  V30 3371 C 322.17 4.69323 -2.37954 0
M  V30 3372 O 321.196 4.7635 -3.11575 0
M  V30 3373 N 322.398 5.62705 -1.4263 0
M  V30 3374 H 325.163 1.6936 -2.4726 0
M  V30 3375 H 322.724 0.79114 -1.41254 0
M  V30 3376 H 324.716 3.87071 -1.18144 0
M  V30 3377 H 323.286 3.09217 -0.458623 0
M  V30 3378 H 322.506 2.66256 -2.90691 0
M  V30 3379 H 323.794 3.76677 -3.42041 0
M  V30 3380 H 323.192 5.59744 -0.818758 0
M  V30 3381 H 321.749 6.38252 -1.32202 0
M  V30 3382 N 325.182 1.32811 0.848464 0
M  V30 3383 C 326.112 1.24882 1.97299 0
M  V30 3384 C 327.093 0.131357 1.69592 0
M  V30 3385 O 328.278 0.319553 1.91553 0
M  V30 3386 C 325.408 0.97746 3.33261 0
M  V30 3387 C 324.362 2.05682 3.75338 0
M  V30 3388 C 323.688 1.63777 5.09 0
M  V30 3389 C 324.988 3.47254 3.90144 0
M  V30 3390 H 326.682 2.18966 2.04191 0
M  V30 3391 H 324.228 1.05413 0.981029 0
M  V30 3392 H 326.181 0.908513 4.1149 0
M  V30 3393 H 324.905 0.000980011 3.266 0
M  V30 3394 H 323.564 2.11603 2.99366 0
M  V30 3395 H 323.212 0.648569 4.98801 0
M  V30 3396 H 322.912 2.36 5.38124 0
M  V30 3397 H 324.436 1.5833 5.89715 0
M  V30 3398 H 325.85 3.43888 4.58709 0
M  V30 3399 H 324.247 4.1788 4.30693 0
M  V30 3400 H 325.317 3.86462 2.92874 0
M  V30 3401 N 326.66 -1.06551 1.16123 0
M  V30 3402 C 327.906 -1.79567 0.94252 0
M  V30 3403 C 328.239 -1.86869 -0.528547 0
M  V30 3404 O 327.514 -1.35838 -1.39206 0
M  V30 3405 C 327.797 -3.24195 1.56747 0
M  V30 3406 C 327.65 -3.24989 3.10969 0
M  V30 3407 C 328.969 -4.21678 1.25998 0
M  V30 3408 H 326.088 -0.651883 0.343828 0
M  V30 3409 H 328.73 -1.2463 1.43413 0
M  V30 3410 H 326.88 -3.71107 1.14942 0
M  V30 3411 H 328.552 -2.86258 3.61737 0
M  V30 3412 H 326.795 -2.63716 3.44436 0
M  V30 3413 H 327.466 -4.27005 3.49815 0
M  V30 3414 H 329.942 -3.83196 1.62174 0
M  V30 3415 H 328.818 -5.21146 1.7233 0
M  V30 3416 H 329.079 -4.4174 0.178367 0
M  V30 3417 N 328.138 -0.959301 -1.25041 0
M  V30 3418 C 329.048 -0.489994 -2.29426 0
M  V30 3419 C 330.064 0.444944 -1.68215 0
M  V30 3420 O 331.24 0.320046 -1.98841 0
M  V30 3421 C 328.305 0.220309 -3.45999 0
M  V30 3422 C 327.366 -0.753418 -4.22637 0
M  V30 3423 C 326.599 -0.076918 -5.33645 0
M  V30 3424 O 326.822 1.13649 -5.58963 0
M  V30 3425 O 325.756 -0.764824 -5.97021 0
M  V30 3426 H 329.582 -1.35755 -2.71669 0
M  V30 3427 H 327.167 -0.725961 -1.30576 0
M  V30 3428 H 329.049 0.619677 -4.16819 0
M  V30 3429 H 327.724 1.06296 -3.0575 0
M  V30 3430 H 326.631 -1.20308 -3.54227 0
M  V30 3431 H 327.964 -1.56423 -4.66683 0
M  V30 3432 N 329.616 1.39756 -0.72842 0
M  V30 3433 C 331.027 1.83498 -0.344289 0
M  V30 3434 C 331.378 1.60868 1.12321 0
M  V30 3435 O 330.503 1.09634 1.86573 0
M  V30 3436 C 331.098 3.33114 -0.618112 0
M  V30 3437 C 329.657 3.753 -0.287549 0
M  V30 3438 C 328.804 2.62831 -0.884048 0
M  V30 3439 H 331.755 1.28842 -0.926578 0
M  V30 3440 H 331.776 3.80334 0.112349 0
M  V30 3441 H 331.288 3.49553 -1.68625 0
M  V30 3442 H 329.389 3.64451 0.775012 0
M  V30 3443 H 329.502 4.72945 -0.765512 0
M  V30 3444 H 327.866 2.52792 -0.311149 0
M  V30 3445 H 328.649 2.82078 -1.95671 0
M  V30 3446 N 331.094 0.475555 1.50254 0
M  V30 3447 C 332.024 -0.30611 2.31485 0
M  V30 3448 C 333.005 -0.986228 1.38591 0
M  V30 3449 O 334.19 -0.982541 1.67511 0
M  V30 3450 C 331.32 -1.38588 3.1845 0
M  V30 3451 C 330.274 -0.827115 4.19932 0
M  V30 3452 C 329.6 -2.00551 4.95665 0
M  V30 3453 C 330.9 0.16463 5.2204 0
M  V30 3454 H 332.594 0.371866 2.97082 0
M  V30 3455 H 330.14 0.180282 1.42867 0
M  V30 3456 H 332.093 -1.94023 3.74076 0
M  V30 3457 H 330.817 -2.09269 2.50747 0
M  V30 3458 H 329.476 -0.294702 3.65414 0
M  V30 3459 H 329.124 -2.6994 4.2443 0
M  V30 3460 H 328.824 -1.63784 5.64313 0
M  V30 3461 H 330.348 -2.56468 5.54127 0
M  V30 3462 H 331.762 -0.300699 5.72511 0
M  V30 3463 H 330.159 0.446813 5.98434 0
M  V30 3464 H 331.229 1.08905 4.72512 0
M  V30 3465 N 332.573 -1.56217 0.208337 0
M  V30 3466 C 333.821 -1.97558 -0.426076 0
M  V30 3467 C 334.142 -1.09683 -1.61229 0
M  V30 3468 O 333.412 -0.170956 -1.95153 0
M  V30 3469 H 331.992 -0.729575 -0.160405 0
M  V30 3470 H 334.654 -1.92606 0.298155 0
M  V30 3471 H 333.75 -3.02672 -0.761312 0
M  V30 3472 N 334.051 0.0651679 -1.57465 0
M  V30 3473 C 335.462 0.616213 -1.76238 0
M  V30 3474 C 335.813 1.7756 -0.834689 0
M  V30 3475 O 334.938 2.1639 -0.0204156 0
M  V30 3476 C 335.533 1.12462 -3.1959 0
M  V30 3477 C 334.092 1.62147 -3.39684 0
M  V30 3478 C 333.239 0.543739 -2.71917 0
M  V30 3479 H 336.19 -0.161022 -1.57881 0
M  V30 3480 H 336.211 1.99324 -3.24114 0
M  V30 3481 H 335.723 0.280592 -3.87084 0
M  V30 3482 H 333.824 2.48854 -2.77313 0
M  V30 3483 H 333.937 1.69385 -4.48158 0
M  V30 3484 H 332.301 0.990352 -2.34657 0
M  V30 3485 H 333.084 -0.290216 -3.42071 0
M  V30 3486 N 335.529 1.53961 0.336706 0
M  V30 3487 C 336.777 1.71197 1.07405 0
M  V30 3488 C 337.098 0.481475 1.88962 0
M  V30 3489 O 336.368 -0.504585 1.8929 0
M  V30 3490 H 334.948 0.631185 0.399517 0
M  V30 3491 H 337.61 1.91232 0.376323 0
M  V30 3492 H 336.706 2.58587 1.74755 0
M  V30 3493 N 337.007 -0.598083 1.45811 0
M  V30 3494 C 337.937 -1.71873 1.58057 0
M  V30 3495 C 338.918 -1.64533 0.431615 0
M  V30 3496 O 340.103 -1.82787 0.65595 0
M  V30 3497 C 337.233 -3.10495 1.55597 0
M  V30 3498 C 336.187 -3.32654 2.69305 0
M  V30 3499 C 335.513 -4.71646 2.51902 0
M  V30 3500 C 336.813 -3.21981 4.11248 0
M  V30 3501 H 338.507 -1.61881 2.51863 0
M  V30 3502 H 336.053 -0.777372 1.21214 0
M  V30 3503 H 338.006 -3.88699 1.6276 0
M  V30 3504 H 336.73 -3.2135 0.583255 0
M  V30 3505 H 335.389 -2.56843 2.61586 0
M  V30 3506 H 335.037 -4.79246 1.52748 0
M  V30 3507 H 334.737 -4.87426 3.2816 0
M  V30 3508 H 336.261 -5.52038 2.60933 0
M  V30 3509 H 337.675 -3.90049 4.20161 0
M  V30 3510 H 336.072 -3.49289 4.87972 0
M  V30 3511 H 337.142 -2.1928 4.32486 0
M  V30 3512 N 338.485 -1.33259 -0.841409 0
M  V30 3513 C 339.432 -1.23302 -1.95103 0
M  V30 3514 C 340.402 -0.112204 -1.65721 0
M  V30 3515 O 341.587 -0.290038 -1.88583 0
M  V30 3516 C 338.727 -0.975583 -3.31023 0
M  V30 3517 C 337.84 -2.18243 -3.72819 0
M  V30 3518 C 336.975 -1.85936 -4.97595 0
M  V30 3519 C 336.014 -3.02866 -5.3192 0
M  V30 3520 N 335.151 -2.70565 -6.47873 0
M  V30 3521 H 339.991 -2.18207 -2.02952 0
M  V30 3522 H 337.528 -1.0851 -0.993173 0
M  V30 3523 H 339.486 -0.80677 -4.09325 0
M  V30 3524 H 338.116 -0.0632755 -3.22738 0
M  V30 3525 H 337.168 -2.46107 -2.90061 0
M  V30 3526 H 338.48 -3.05666 -3.94169 0
M  V30 3527 H 337.634 -1.65684 -5.83638 0
M  V30 3528 H 336.373 -0.957452 -4.78209 0
M  V30 3529 H 335.378 -3.23736 -4.44382 0
M  V30 3530 H 336.603 -3.93809 -5.53255 0
M  V30 3531 H 334.549 -1.8293 -6.29978 0
M  V30 3532 H 334.466 -3.51519 -6.69306 0
M  V30 3533 H 335.734 -2.53774 -7.37034 0
M  V30 3534 N 339.963 1.05934 -1.16686 0
M  V30 3535 C 341.374 1.60263 -0.957745 0
M  V30 3536 C 341.725 1.89789 0.49745 0
M  V30 3537 O 340.85 1.67401 1.37135 0
M  V30 3538 C 341.445 2.91172 -1.73218 0
M  V30 3539 C 340.004 3.42188 -1.56794 0
M  V30 3540 C 339.151 2.16028 -1.73859 0
M  V30 3541 H 342.102 0.888392 -1.31504 0
M  V30 3542 H 342.123 3.60744 -1.21014 0
M  V30 3543 H 341.635 2.6965 -2.79124 0
M  V30 3544 H 339.736 3.68762 -0.533437 0
M  V30 3545 H 339.849 4.17273 -2.35414 0
M  V30 3546 H 338.213 2.26426 -1.16633 0
M  V30 3547 H 338.996 1.96985 -2.81161 0
M  V30 3548 N 341.441 0.965919 1.2453 0
M  V30 3549 C 342.852 0.665929 1.7442 0
M  V30 3550 C 343.203 -0.818407 1.78316 0
M  V30 3551 O 342.328 -1.64037 1.41141 0
M  V30 3552 C 342.923 1.20211 3.16757 0
M  V30 3553 C 341.482 0.952059 3.6416 0
M  V30 3554 C 340.629 1.33848 2.42858 0
M  V30 3555 H 343.58 1.14144 1.10258 0
M  V30 3556 H 343.601 0.567544 3.76244 0
M  V30 3557 H 343.113 2.28244 3.13889 0
M  V30 3558 H 341.214 -0.112821 3.72429 0
M  V30 3559 H 341.327 1.59645 4.51719 0
M  V30 3560 H 339.691 0.756864 2.43195 0
M  V30 3561 H 340.474 2.42827 2.42673 0
M  V30 3562 N 342.919 -1.39368 0.735821 0
M  V30 3563 C 343.829 -2.34395 0.0979693 0
M  V30 3564 C 344.845 -1.58361 -0.720968 0
M  V30 3565 O 346.021 -1.90648 -0.649245 0
M  V30 3566 C 343.086 -3.37393 -0.797916 0
M  V30 3567 C 342.147 -4.29287 0.0333662 0
M  V30 3568 C 341.38 -5.27365 -0.819854 0
M  V30 3569 O 341.603 -5.31959 -2.05855 0
M  V30 3570 O 340.537 -6.01389 -0.248079 0
M  V30 3571 H 344.363 -2.90601 0.882315 0
M  V30 3572 H 341.948 -1.40909 0.4965 0
M  V30 3573 H 343.83 -4.00505 -1.31048 0
M  V30 3574 H 342.505 -2.83571 -1.56106 0
M  V30 3575 H 341.412 -3.69395 0.591475 0
M  V30 3576 H 342.745 -4.86317 0.758752 0
M  V30 3577 N 344.397 -0.483516 -1.5 0
M  V30 3578 C 345.307 0.309172 -2.32554 0
M  V30 3579 C 346.323 0.984159 -1.43493 0
M  V30 3580 O 347.499 0.969399 -1.76535 0
M  V30 3581 C 344.564 1.36979 -3.18493 0
M  V30 3582 C 343.625 0.710095 -4.23387 0
M  V30 3583 C 342.858 1.72018 -5.05218 0
M  V30 3584 O 343.081 2.94813 -4.88305 0
M  V30 3585 O 342.015 1.28515 -5.8802 0
M  V30 3586 H 345.841 -0.366064 -3.01486 0
M  V30 3587 H 343.426 -0.24514 -1.47375 0
M  V30 3588 H 345.308 1.98385 -3.71781 0
M  V30 3589 H 343.983 2.02828 -2.52275 0
M  V30 3590 H 342.89 0.0567539 -3.74057 0
M  V30 3591 H 344.223 0.0943557 -4.9211 0
M  V30 3592 N 345.875 1.56104 -0.216619 0
M  V30 3593 C 347.291 1.58995 0.13886 0
M  V30 3594 C 347.491 1.23333 1.59346 0
M  V30 3595 O 346.547 0.966234 2.33281 0
M  V30 3596 C 347.86 3.00143 -0.182968 0
M  V30 3597 C 349.408 3.12751 -0.124807 0
M  V30 3598 C 349.883 4.56068 -0.420241 0
M  V30 3599 N 351.374 4.61723 -0.369634 0
M  V30 3600 C 352.109 5.70542 -0.571789 0
M  V30 3601 N 351.605 6.87744 -0.835453 0
M  V30 3602 N 353.398 5.59831 -0.504563 0
M  V30 3603 H 345.549 1.77562 -1.16557 0
M  V30 3604 H 347.812 0.825091 -0.466828 0
M  V30 3605 H 347.518 3.30871 -1.19237 0
M  V30 3606 H 347.392 3.73813 0.504367 0
M  V30 3607 H 349.779 2.81822 0.875223 0
M  V30 3608 H 349.86 2.41421 -0.845544 0
M  V30 3609 H 349.504 4.87713 -1.41769 0
M  V30 3610 H 349.434 5.25617 0.321631 0
M  V30 3611 H 351.925 3.77502 -0.173338 0
M  V30 3612 H 352.238 7.66587 -0.977938 0
M  V30 3613 H 350.583 6.895 -0.872592 0
M  V30 3614 H 353.774 4.67145 -0.298842 0
M  V30 3615 H 353.947 6.44573 -0.665519 0
M  V30 3616 N 347.353 -0.0568162 1.57498 0
M  V30 3617 C 348.581 -0.765626 1.92213 0
M  V30 3618 C 348.996 -1.70353 0.813961 0
M  V30 3619 O 348.353 -1.81268 -0.211701 0
M  V30 3620 C 348.404 -1.5465 3.2675 0
M  V30 3621 O 348.125 -0.646278 4.33307 0
M  V30 3622 C 349.626 -2.35497 3.75574 0
M  V30 3623 H 346.846 -0.216835 0.634999 0
M  V30 3624 H 349.39 -0.0226146 2.04487 0
M  V30 3625 H 347.545 -2.24165 3.15957 0
M  V30 3626 H 347.959 -1.19093 5.108 0
M  V30 3627 H 349.433 -2.85722 4.72299 0
M  V30 3628 H 349.91 -3.15692 3.05344 0
M  V30 3629 H 350.516 -1.7111 3.8936 0
M  V30 3630 N 348.832 -1.54138 -0.328536 0
M  V30 3631 C 350.081 -1.71318 -1.06456 0
M  V30 3632 C 350.394 -0.491109 -1.89334 0
M  V30 3633 O 351.6 -0.54416 -2.65991 0
M  V30 3634 C 350.056 -3.03 -1.94214 0
M  V30 3635 C 349.664 -4.32595 -1.16471 0
M  V30 3636 C 351.408 -3.29544 -2.67583 0
M  V30 3637 C 349.315 -5.55341 -2.03347 0
M  V30 3638 H 348.245 -0.638429 -0.401155 0
M  V30 3639 H 350.896 -1.80633 -0.323106 0
M  V30 3640 H 349.278 -2.87579 -2.72239 0
M  V30 3641 H 350.452 -4.58766 -0.432525 0
M  V30 3642 H 348.767 -4.12777 -0.548063 0
M  V30 3643 H 351.364 -4.18444 -3.3288 0
M  V30 3644 H 351.707 -2.47206 -3.34955 0
M  V30 3645 H 352.24 -3.45809 -1.96623 0
M  V30 3646 H 348.979 -6.40268 -1.40491 0
M  V30 3647 H 348.499 -5.33397 -2.74313 0
M  V30 3648 H 350.178 -5.91557 -2.62049 0
M  V30 3649 N 350.31 0.590341 -1.46126 0
M  V30 3650 C 351.22 1.72793 -1.58681 0
M  V30 3651 C 352.236 1.67516 -0.470566 0
M  V30 3652 O 353.412 1.87562 -0.733642 0
M  V30 3653 C 350.477 3.09287 -1.5666 0
M  V30 3654 C 349.538 3.25886 -2.79458 0
M  V30 3655 C 348.771 4.55869 -2.77524 0
M  V30 3656 O 348.994 5.3928 -1.85832 0
M  V30 3657 O 347.928 4.75552 -3.68964 0
M  V30 3658 H 351.754 1.65149 -2.54872 0
M  V30 3659 H 349.339 0.756486 -1.28832 0
M  V30 3660 H 351.221 3.90577 -1.58202 0
M  V30 3661 H 349.896 3.17385 -0.636271 0
M  V30 3662 H 348.803 2.44119 -2.83472 0
M  V30 3663 H 350.136 3.22675 -3.71674 0
M  V30 3664 N 351.788 1.33704 0.83433 0
M  V30 3665 C 353.018 1.28281 1.6195 0
M  V30 3666 C 353.426 -0.147603 1.88623 0
M  V30 3667 O 352.769 -1.1016 1.47005 0
M  V30 3668 C 352.831 1.99386 2.99141 0
M  V30 3669 C 352.495 3.48681 2.95416 0
M  V30 3670 C 353.492 4.438 2.70809 0
M  V30 3671 C 351.177 3.90925 3.15409 0
M  V30 3672 C 353.171 5.79138 2.66229 0
M  V30 3673 C 350.858 5.26366 3.10454 0
M  V30 3674 C 351.856 6.20284 2.85895 0
M  V30 3675 O 351.544 7.53245 2.80852 0
M  V30 3676 H 351.276 0.44315 0.510484 0
M  V30 3677 H 353.83 1.76711 1.04702 0
M  V30 3678 H 352.06 1.45554 3.58261 0
M  V30 3679 H 353.749 1.87403 3.60049 0
M  V30 3680 H 354.515 4.12485 2.5511 0
M  V30 3681 H 350.394 3.18229 3.33543 0
M  V30 3682 H 353.938 6.52416 2.4698 0
M  V30 3683 H 349.835 5.57304 3.25703 0
M  V30 3684 H 350.603 7.62846 2.96661 0
M  V30 3685 N 353.266 -1.05314 1.17247 0
M  V30 3686 C 354.196 -2.1498 0.911362 0
M  V30 3687 C 355.177 -1.69471 -0.146169 0
M  V30 3688 O 356.362 -1.942 0.003812 0
M  V30 3689 C 353.492 -3.4472 0.422528 0
M  V30 3690 C 352.446 -4.03789 1.4191 0
M  V30 3691 C 351.772 -5.28858 0.788274 0
M  V30 3692 C 353.072 -4.41418 2.7919 0
M  V30 3693 H 354.766 -2.3708 1.82848 0
M  V30 3694 H 352.312 -1.13938 0.880569 0
M  V30 3695 H 354.265 -4.20787 0.227289 0
M  V30 3696 H 352.989 -3.22269 -0.530123 0
M  V30 3697 H 351.648 -3.2979 1.60106 0
M  V30 3698 H 351.296 -5.02709 -0.171173 0
M  V30 3699 H 350.996 -5.69338 1.45353 0
M  V30 3700 H 352.52 -6.07612 0.603282 0
M  V30 3701 H 353.934 -5.08524 2.64719 0
M  V30 3702 H 352.331 -4.92913 3.42282 0
M  V30 3703 H 353.401 -3.51819 3.33693 0
M  V30 3704 N 354.744 -0.972509 -1.24016 0
M  V30 3705 C 355.654 -0.5143 -2.28893 0
M  V30 3706 C 356.67 0.427078 -1.68677 0
M  V30 3707 O 357.846 0.298939 -1.99169 0
M  V30 3708 C 354.911 0.183598 -3.46214 0
M  V30 3709 C 353.972 -0.798202 -4.21814 0
M  V30 3710 C 353.205 -0.133514 -5.33533 0
M  V30 3711 O 353.428 1.07714 -5.60137 0
M  V30 3712 O 352.362 -0.828103 -5.96176 0
M  V30 3713 H 356.188 -1.38629 -2.70214 0
M  V30 3714 H 353.773 -0.739769 -1.29799 0
M  V30 3715 H 355.655 0.575433 -4.17453 0
M  V30 3716 H 354.33 1.03048 -3.0686 0
M  V30 3717 H 353.237 -1.24059 -3.52931 0
M  V30 3718 H 354.57 -1.61364 -4.64997 0
M  V30 3719 N 356.222 1.38976 -0.743202 0
M  V30 3720 C 357.132 2.3434 -0.110399 0
M  V30 3721 C 358.148 1.58741 0.712559 0
M  V30 3722 O 359.324 1.9099 0.639125 0
M  V30 3723 C 356.389 3.37812 0.780012 0
M  V30 3724 C 355.45 4.29263 -0.0561319 0
M  V30 3725 C 354.683 5.27793 0.791875 0
M  V30 3726 O 354.906 5.33043 2.03031 0
M  V30 3727 O 353.84 6.01512 0.216183 0
M  V30 3728 H 357.666 2.90129 -0.897714 0
M  V30 3729 H 355.251 1.40643 -0.503966 0
M  V30 3730 H 357.133 4.01194 1.28923 0
M  V30 3731 H 355.808 2.84395 1.546 0
M  V30 3732 H 354.715 3.69076 -0.611056 0
M  V30 3733 H 356.048 4.85907 -0.784531 0
M  V30 3734 N 357.7 0.491464 1.49741 0
M  V30 3735 C 358.946 -0.0565092 2.02721 0
M  V30 3736 C 359.279 -1.37522 1.37118 0
M  V30 3737 O 358.554 -1.87866 0.503645 0
M  V30 3738 C 358.837 -0.219051 3.59433 0
M  V30 3739 C 358.69 1.12211 4.35579 0
M  V30 3740 C 360.009 -0.964157 4.29409 0
M  V30 3741 H 357.128 -0.0190627 0.736753 0
M  V30 3742 H 359.77 0.641021 1.7886 0
M  V30 3743 H 357.92 -0.813165 3.79895 0
M  V30 3744 H 359.592 1.75437 4.26637 0
M  V30 3745 H 357.835 1.71377 3.98513 0
M  V30 3746 H 358.506 0.961794 5.43556 0
M  V30 3747 H 360.982 -0.460378 4.13545 0
M  V30 3748 H 359.858 -1.04671 5.38828 0
M  V30 3749 H 360.119 -2.00563 3.93988 0
M  V30 3750 N 359.178 -1.55987 0.224894 0
M  V30 3751 C 360.141 -2.19178 -0.670348 0
M  V30 3752 C 361.141 -1.15461 -1.11917 0
M  V30 3753 O 362.331 -1.40675 -1.02743 0
M  V30 3754 C 359.463 -2.81777 -1.9187 0
M  V30 3755 H 360.656 -2.99662 -0.119364 0
M  V30 3756 H 358.209 -1.5628 -0.0247128 0
M  V30 3757 H 358.944 -2.05172 -2.51147 0
M  V30 3758 H 358.729 -3.57732 -1.60531 0
M  V30 3759 H 360.219 -3.30205 -2.55645 0
M  V30 3760 N 360.656 0.0484629 -1.57525 0
M  V30 3761 C 361.905 0.742065 -1.87553 0
M  V30 3762 C 362.218 1.77545 -0.820802 0
M  V30 3763 O 363.424 2.52027 -1.00967 0
M  V30 3764 C 361.88 1.37081 -3.32771 0
M  V30 3765 C 361.488 0.374786 -4.4643 0
M  V30 3766 C 363.232 2.04542 -3.71972 0
M  V30 3767 C 361.139 1.01077 -5.82698 0
M  V30 3768 H 360.069 0.280903 -0.699721 0
M  V30 3769 H 362.72 -0.00411877 -1.835 0
M  V30 3770 H 361.102 2.16605 -3.31509 0
M  V30 3771 H 362.276 -0.392331 -4.59127 0
M  V30 3772 H 360.591 -0.196653 -4.15935 0
M  V30 3773 H 363.188 2.52943 -4.71088 0
M  V30 3774 H 363.531 2.85515 -3.02964 0
M  V30 3775 H 364.064 1.31819 -3.75325 0
M  V30 3776 H 360.803 0.240878 -6.55057 0
M  V30 3777 H 360.323 1.74819 -5.73758 0
M  V30 3778 H 362.002 1.52383 -6.28799 0
M  V30 3779 N 362.134 1.5431 0.320358 0
M  V30 3780 C 363.362 1.76636 1.07738 0
M  V30 3781 C 363.777 0.51649 1.81598 0
M  V30 3782 O 363.134 -0.512942 1.75143 0
M  V30 3783 C 363.185 2.96158 2.07299 0
M  V30 3784 O 362.906 4.16313 1.36438 0
M  V30 3785 C 364.407 3.3072 2.95193 0
M  V30 3786 H 361.627 0.589597 0.320339 0
M  V30 3787 H 364.171 2.01207 0.36551 0
M  V30 3788 H 362.326 2.73851 2.74016 0
M  V30 3789 H 362.74 4.83565 2.03138 0
M  V30 3790 H 364.214 4.17643 3.60941 0
M  V30 3791 H 364.691 2.48026 3.62463 0
M  V30 3792 H 365.297 3.55117 2.34034 0
M  V30 3793 N 363.613 -0.582584 1.46437 0
M  V30 3794 C 364.86 -1.34079 1.51753 0
M  V30 3795 C 365.188 -1.93762 0.169299 0
M  V30 3796 O 364.443 -1.76989 -0.835062 0
M  V30 3797 C 364.742 -2.48964 2.56421 0
M  V30 3798 C 364.408 -2.07273 4.00436 0
M  V30 3799 C 363.07 -1.95618 4.39644 0
M  V30 3800 C 365.422 -1.75111 4.90903 0
M  V30 3801 C 362.75 -1.5006 5.67185 0
M  V30 3802 C 365.102 -1.31032 6.18881 0
M  V30 3803 C 363.766 -1.17954 6.56996 0
M  V30 3804 H 363.036 -0.49063 0.555304 0
M  V30 3805 H 365.683 -0.656007 1.79913 0
M  V30 3806 H 363.988 -3.22889 2.21923 0
M  V30 3807 H 365.685 -3.07178 2.57765 0
M  V30 3808 H 362.275 -2.17279 3.69443 0
M  V30 3809 H 366.459 -1.83001 4.61329 0
M  V30 3810 H 361.715 -1.38577 5.95488 0
M  V30 3811 H 365.889 -1.052 6.88408 0
M  V30 3812 H 363.516 -0.824279 7.55718 0
M  V30 3813 N 365.091 -1.34144 -0.827227 0
M  V30 3814 C 366.054 -1.25264 -1.91942 0
M  V30 3815 C 367.054 -0.168866 -1.59911 0
M  V30 3816 O 368.244 -0.421198 -1.69031 0
M  V30 3817 C 365.376 -0.932952 -3.27885 0
M  V30 3818 H 366.569 -2.22357 -2.0124 0
M  V30 3819 H 364.122 -1.1837 -1.0207 0
M  V30 3820 H 364.857 0.0349917 -3.24281 0
M  V30 3821 H 364.642 -1.71682 -3.52516 0
M  V30 3822 H 366.132 -0.895874 -4.07877 0
M  V30 3823 N 366.569 1.04691 -1.17803 0
M  V30 3824 C 367.516 2.12557 -0.899343 0
M  V30 3825 C 368.486 1.65339 0.158771 0
M  V30 3826 O 369.671 1.90789 0.0204797 0
M  V30 3827 C 366.811 3.42481 -0.424315 0
M  V30 3828 C 365.924 4.03346 -1.54713 0
M  V30 3829 C 365.059 5.21208 -1.02546 0
M  V30 3830 C 364.098 5.74089 -2.12339 0
M  V30 3831 N 363.235 6.83247 -1.61612 0
M  V30 3832 H 368.075 2.35734 -1.823 0
M  V30 3833 H 365.612 1.1564 -0.909159 0
M  V30 3834 H 367.57 4.16996 -0.130421 0
M  V30 3835 H 366.2 3.19471 0.462377 0
M  V30 3836 H 365.252 3.2622 -1.95664 0
M  V30 3837 H 366.564 4.38628 -2.37501 0
M  V30 3838 H 365.718 6.02812 -0.685718 0
M  V30 3839 H 364.457 4.87414 -0.167084 0
M  V30 3840 H 363.462 4.91111 -2.47165 0
M  V30 3841 H 364.687 6.0993 -2.98601 0
M  V30 3842 H 362.633 6.5134 -0.780533 0
M  V30 3843 H 362.55 7.17559 -2.38003 0
M  V30 3844 H 363.818 7.68491 -1.30545 0
M  V30 3845 N 368.047 0.979072 1.23499 0
M  V30 3846 C 369.295 0.645941 1.91499 0
M  V30 3847 C 369.616 -0.822948 1.76784 0
M  V30 3848 O 368.886 -1.58854 1.14639 0
M  V30 3849 H 367.466 0.235919 0.708767 0
M  V30 3850 H 370.128 1.2426 1.50152 0
M  V30 3851 H 369.224 0.896411 2.9895 0
M  V30 3852 N 369.525 -1.3858 0.750561 0
M  V30 3853 C 370.455 -2.33102 0.136237 0
M  V30 3854 C 371.436 -1.54713 -0.706965 0
M  V30 3855 O 372.621 -1.83043 -0.648769 0
M  V30 3856 C 369.751 -3.38882 -0.760017 0
M  V30 3857 C 368.705 -4.27995 -0.0197785 0
M  V30 3858 C 368.031 -5.24605 -1.03408 0
M  V30 3859 C 369.331 -5.09554 1.14684 0
M  V30 3860 H 371.025 -2.84726 0.925822 0
M  V30 3861 H 368.571 -1.36898 0.446654 0
M  V30 3862 H 370.524 -4.0397 -1.19943 0
M  V30 3863 H 369.248 -2.85734 -1.58189 0
M  V30 3864 H 367.907 -3.64409 0.400184 0
M  V30 3865 H 367.555 -4.67746 -1.84994 0
M  V30 3866 H 367.255 -5.85081 -0.543464 0
M  V30 3867 H 368.779 -5.9257 -1.47288 0
M  V30 3868 H 370.193 -5.67899 0.785118 0
M  V30 3869 H 368.59 -5.7925 1.56812 0
M  V30 3870 H 369.66 -4.4347 1.96118 0
M  V30 3871 N 371.003 -0.499398 -1.49478 0
M  V30 3872 C 371.966 0.268838 -2.27618 0
M  V30 3873 C 372.966 0.895383 -1.33565 0
M  V30 3874 O 374.156 0.760164 -1.56739 0
M  V30 3875 C 371.288 1.38559 -3.11471 0
M  V30 3876 H 372.481 -0.416812 -2.96989 0
M  V30 3877 H 370.034 -0.254313 -1.54217 0
M  V30 3878 H 370.769 2.10544 -2.46661 0
M  V30 3879 H 370.554 0.941797 -3.80621 0
M  V30 3880 H 372.044 1.92678 -3.70493 0
M  V30 3881 N 372.481 1.55866 -0.233164 0
M  V30 3882 C 373.758 1.90471 0.444988 0
M  V30 3883 C 374.138 1.15209 1.7689 0
M  V30 3884 O 373.486 0.265119 2.26957 0
M  V30 3885 C 373.696 3.4333 0.626559 0
M  V30 3886 C 375.044 4.14319 0.92871 0
M  V30 3887 O 376.068 3.48993 0.712926 0
M  V30 3888 O 374.927 5.29846 1.33887 0
M  V30 3889 H 372.021 0.792347 0.236885 0
M  V30 3890 H 374.567 1.67437 -0.276211 0
M  V30 3891 H 373.339 3.90095 -0.306822 0
M  V30 3892 H 372.962 3.72181 1.39881 0
M  V30 3893 N 373.959 -0.0401083 1.57549 0
M  V30 3894 C 374.906 -1.04413 2.05831 0
M  V30 3895 C 375.876 -1.36585 0.945184 0
M  V30 3896 O 377.061 -1.47112 1.21502 0
M  V30 3897 C 374.201 -2.34336 2.53339 0
M  V30 3898 C 373.314 -2.08419 3.78398 0
M  V30 3899 C 372.449 -3.32133 4.14561 0
M  V30 3900 C 371.488 -3.01721 5.3257 0
M  V30 3901 N 370.625 -4.17855 5.64218 0
M  V30 3902 H 375.465 -0.625442 2.91363 0
M  V30 3903 H 373.002 -0.297218 1.44066 0
M  V30 3904 H 374.96 -3.10234 2.78946 0
M  V30 3905 H 373.59 -2.73948 1.7074 0
M  V30 3906 H 372.642 -1.23069 3.59942 0
M  V30 3907 H 373.954 -1.81978 4.64419 0
M  V30 3908 H 373.108 -4.16406 4.41238 0
M  V30 3909 H 371.847 -3.61678 3.2717 0
M  V30 3910 H 370.852 -2.15849 5.05657 0
M  V30 3911 H 372.077 -2.73466 6.21605 0
M  V30 3912 H 370.023 -4.47372 4.79786 0
M  V30 3913 H 369.94 -3.94798 6.44725 0
M  V30 3914 H 371.208 -5.03033 5.95465 0
M  V30 3915 N 375.437 -1.54477 -0.31217 0
M  V30 3916 C 376.384 -1.84655 -1.38461 0
M  V30 3917 C 377.354 -0.694536 -1.50882 0
M  V30 3918 O 378.539 -0.942081 -1.6592 0
M  V30 3919 C 375.679 -2.0896 -2.74645 0
M  V30 3920 C 374.792 -3.36618 -2.70763 0
M  V30 3921 C 373.927 -3.50824 -3.98868 0
M  V30 3922 C 372.966 -4.72315 -3.89339 0
M  V30 3923 N 372.103 -4.83387 -5.09197 0
M  V30 3924 H 376.943 -2.76142 -1.12026 0
M  V30 3925 H 374.48 -1.36748 -0.542065 0
M  V30 3926 H 376.438 -2.21045 -3.53829 0
M  V30 3927 H 375.068 -1.20752 -2.99364 0
M  V30 3928 H 374.12 -3.33211 -1.83506 0
M  V30 3929 H 375.432 -4.25917 -2.59608 0
M  V30 3930 H 374.586 -3.62513 -4.86486 0
M  V30 3931 H 373.325 -2.59638 -4.12843 0
M  V30 3932 H 372.33 -4.6067 -3.00105 0
M  V30 3933 H 373.555 -5.64897 -3.76919 0
M  V30 3934 H 371.501 -3.9512 -5.23657 0
M  V30 3935 H 371.418 -5.66669 -5.00422 0
M  V30 3936 H 372.686 -4.9942 -5.98498 0
M  V30 3937 N 376.915 0.57481 -1.46744 0
M  V30 3938 C 378.164 1.32898 -1.51727 0
M  V30 3939 C 378.477 1.948 -0.176692 0
M  V30 3940 O 379.683 2.71299 -0.104385 0
M  V30 3941 C 378.139 2.40901 -2.67385 0
M  V30 3942 C 377.747 1.85266 -4.07898 0
M  V30 3943 C 379.491 3.17609 -2.81646 0
M  V30 3944 C 377.398 2.90945 -5.14883 0
M  V30 3945 H 376.328 0.499631 -0.564699 0
M  V30 3946 H 378.979 0.612536 -1.72975 0
M  V30 3947 H 377.361 3.15379 -2.39483 0
M  V30 3948 H 378.535 1.17278 -4.45626 0
M  V30 3949 H 376.85 1.21199 -3.98371 0
M  V30 3950 H 379.447 3.96493 -3.58744 0
M  V30 3951 H 379.79 3.70696 -1.89448 0
M  V30 3952 H 380.323 2.50239 -3.09233 0
M  V30 3953 H 377.062 2.42736 -6.089 0
M  V30 3954 H 376.582 3.57398 -4.81691 0
M  V30 3955 H 378.261 3.54755 -5.41071 0
M  V30 3956 N 378.394 1.34581 0.820102 0
M  V30 3957 C 379.619 1.30333 1.61332 0
M  V30 3958 C 380.044 -0.119339 1.87721 0
M  V30 3959 O 379.402 -1.08197 1.45475 0
M  V30 3960 C 379.45 2.10258 2.92957 0
M  V30 3961 O 378.554 1.47404 3.85157 0
M  V30 3962 H 377.895 0.447488 0.490561 0
M  V30 3963 H 380.425 1.77425 1.01889 0
M  V30 3964 H 380.435 2.21718 3.42498 0
M  V30 3965 H 379.11 3.13693 2.73074 0
M  V30 3966 H 377.687 1.44703 3.43679 0
M  V30 3967 N 379.872 -1.04064 1.18357 0
M  V30 3968 C 381.283 -1.58719 0.98312 0
M  V30 3969 C 381.634 -1.90556 -0.467193 0
M  V30 3970 O 380.759 -1.69561 -1.34454 0
M  V30 3971 C 381.354 -2.88379 1.77828 0
M  V30 3972 C 379.913 -3.3965 1.62218 0
M  V30 3973 C 379.06 -2.13235 1.77274 0
M  V30 3974 H 382.011 -0.867359 1.32901 0
M  V30 3975 H 382.032 -3.58773 1.26737 0
M  V30 3976 H 381.544 -2.65176 2.83379 0
M  V30 3977 H 379.645 -3.67866 0.592036 0
M  V30 3978 H 379.758 -4.13475 2.42023 0
M  V30 3979 H 378.122 -2.24542 1.20221 0
M  V30 3980 H 378.905 -1.92487 2.8426 0
M  V30 3981 N 381.35 -0.985608 -1.22978 0
M  V30 3982 C 382.297 -0.529825 -2.24636 0
M  V30 3983 C 383.267 0.434028 -1.60329 0
M  V30 3984 O 384.452 0.340414 -1.87739 0
M  V30 3985 C 381.592 0.156533 -3.44745 0
M  V30 3986 C 380.705 -0.848197 -4.23591 0
M  V30 3987 C 379.84 -0.136109 -5.31026 0
M  V30 3988 C 378.879 -1.1297 -6.01585 0
M  V30 3989 N 378.016 -0.446415 -7.00679 0
M  V30 3990 H 382.856 -1.40148 -2.62988 0
M  V30 3991 H 380.393 -0.702168 -1.29259 0
M  V30 3992 H 382.351 0.571324 -4.1327 0
M  V30 3993 H 380.981 0.992025 -3.07179 0
M  V30 3994 H 380.033 -1.38135 -3.54433 0
M  V30 3995 H 381.345 -1.60512 -4.72268 0
M  V30 3996 H 380.499 0.335784 -6.0577 0
M  V30 3997 H 379.238 0.653373 -4.83304 0
M  V30 3998 H 378.243 -1.6123 -5.25628 0
M  V30 3999 H 379.468 -1.91993 -6.51395 0
M  V30 4000 H 377.414 0.323763 -6.55201 0
M  V30 4001 H 377.331 -1.1419 -7.47326 0
M  V30 4002 H 378.599 0.00291697 -7.795 0
M  V30 4003 N 382.828 1.3818 -0.7579 0
M  V30 4004 C 384.244 1.5353 -0.435972 0
M  V30 4005 C 384.444 1.71961 1.05032 0
M  V30 4006 O 383.5 1.73307 1.83633 0
M  V30 4007 C 384.813 2.73989 -1.23898 0
M  V30 4008 C 386.361 2.87841 -1.22949 0
M  V30 4009 C 386.836 4.11266 -2.01554 0
M  V30 4010 N 388.327 4.18352 -1.98837 0
M  V30 4011 C 389.062 5.12856 -2.5645 0
M  V30 4012 N 388.558 6.13005 -3.22794 0
M  V30 4013 N 390.351 5.05238 -2.46356 0
M  V30 4014 H 382.502 1.24467 -1.7211 0
M  V30 4015 H 384.765 0.604982 -0.729864 0
M  V30 4016 H 384.471 2.66789 -2.29165 0
M  V30 4017 H 384.345 3.67294 -0.858764 0
M  V30 4018 H 386.732 2.9452 -0.184854 0
M  V30 4019 H 386.813 1.95534 -1.64924 0
M  V30 4020 H 386.457 4.05349 -3.06031 0
M  V30 4021 H 386.387 5.02661 -1.5697 0
M  V30 4022 H 388.878 3.46628 -1.50524 0
M  V30 4023 H 389.191 6.81619 -3.64165 0
M  V30 4024 H 387.536 6.13325 -3.2689 0
M  V30 4025 H 390.727 4.25938 -1.9415 0
M  V30 4026 H 390.9 5.78707 -2.91552 0
M  V30 4027 N 384.306 0.507319 1.49211 0
M  V30 4028 C 385.583 -0.0982702 1.95353 0
M  V30 4029 C 385.963 -1.53516 1.449 0
M  V30 4030 O 385.311 -2.18594 0.66551 0
M  V30 4031 C 385.521 -0.00440283 3.49 0
M  V30 4032 C 386.869 -0.175147 4.24239 0
M  V30 4033 O 387.893 -0.0792891 3.56112 0
M  V30 4034 O 386.752 -0.37276 5.45227 0
M  V30 4035 H 383.846 -0.0918236 0.821887 0
M  V30 4036 H 386.392 0.570307 1.5983 0
M  V30 4037 H 385.164 0.997402 3.78375 0
M  V30 4038 H 384.787 -0.712845 3.91158 0
M  V30 4039 N 385.784 -1.5574 0.241426 0
M  V30 4040 C 386.731 -2.21149 -0.660432 0
M  V30 4041 C 387.701 -1.17356 -1.17545 0
M  V30 4042 O 388.886 -1.45784 -1.23093 0
M  V30 4043 C 386.026 -2.91059 -1.85414 0
M  V30 4044 C 385.139 -4.09495 -1.37616 0
M  V30 4045 C 384.274 -4.67135 -2.529 0
M  V30 4046 C 383.313 -5.77831 -2.01936 0
M  V30 4047 N 382.45 -6.29677 -3.10566 0
M  V30 4048 H 387.29 -2.97845 -0.095955 0
M  V30 4049 H 384.827 -1.47057 -0.0356024 0
M  V30 4050 H 386.785 -3.29788 -2.5553 0
M  V30 4051 H 385.415 -2.16846 -2.39118 0
M  V30 4052 H 384.467 -3.76117 -0.569235 0
M  V30 4053 H 385.779 -4.89423 -0.962618 0
M  V30 4054 H 384.933 -5.08409 -3.31067 0
M  V30 4055 H 383.672 -3.86411 -2.97553 0
M  V30 4056 H 382.677 -5.36039 -1.22238 0
M  V30 4057 H 383.902 -6.60402 -1.58259 0
M  V30 4058 H 381.848 -5.5186 -3.54664 0
M  V30 4059 H 381.765 -7.04783 -2.73526 0
M  V30 4060 H 383.033 -6.75609 -3.88809 0
M  V30 4061 N 387.262 0.0317525 -1.57568 0
M  V30 4062 C 388.51 0.721676 -1.88776 0
M  V30 4063 C 388.831 1.76039 -0.838772 0
M  V30 4064 O 388.101 1.95482 0.127935 0
M  V30 4065 H 386.681 0.269534 -0.696678 0
M  V30 4066 H 389.343 -0.00165879 -1.949 0
M  V30 4067 H 388.439 1.21293 -2.87566 0
M  V30 4068 N 388.74 1.54641 0.303973 0
M  V30 4069 C 389.67 1.88386 1.3796 0
M  V30 4070 C 390.651 0.742485 1.5304 0
M  V30 4071 O 391.836 0.997959 1.66597 0
M  V30 4072 C 388.966 2.12854 2.74427 0
M  V30 4073 C 387.92 3.28702 2.74115 0
M  V30 4074 C 387.246 3.38582 4.13844 0
M  V30 4075 C 388.546 4.65881 2.3612 0
M  V30 4076 H 390.24 2.78474 1.09966 0
M  V30 4077 H 387.786 1.33988 0.527556 0
M  V30 4078 H 389.739 2.35047 3.49758 0
M  V30 4079 H 388.463 1.19535 3.03939 0
M  V30 4080 H 387.122 3.06428 2.0124 0
M  V30 4081 H 386.77 2.42784 4.40528 0
M  V30 4082 H 386.47 4.16453 4.14537 0
M  V30 4083 H 387.994 3.63031 4.90959 0
M  V30 4084 H 389.408 4.87823 3.01167 0
M  V30 4085 H 387.805 5.46444 2.48031 0
M  V30 4086 H 388.875 4.66799 1.3125 0
M  V30 4087 N 390.218 -0.567019 1.47046 0
M  V30 4088 C 391.464 -1.32658 1.53394 0
M  V30 4089 C 391.797 -1.93254 0.19148 0
M  V30 4090 O 391.072 -1.77338 -0.798844 0
M  V30 4091 C 391.355 -2.44412 2.64452 0
M  V30 4092 C 391.208 -1.88749 4.08282 0
M  V30 4093 C 392.527 -3.46387 2.71485 0
M  V30 4094 H 389.646 -0.48098 0.558415 0
M  V30 4095 H 392.288 -0.635481 1.79058 0
M  V30 4096 H 390.438 -3.03363 2.427 0
M  V30 4097 H 392.11 -1.34134 4.41368 0
M  V30 4098 H 390.353 -1.19481 4.17021 0
M  V30 4099 H 391.024 -2.69491 4.81745 0
M  V30 4100 H 393.5 -2.9734 2.91081 0
M  V30 4101 H 392.376 -4.2202 3.50985 0
M  V30 4102 H 392.637 -4.04616 1.78153 0
M  V30 4103 N 391.696 -1.35014 -0.812953 0
M  V30 4104 C 392.606 -1.2951 -1.95613 0
M  V30 4105 C 393.622 -0.20107 -1.72834 0
M  V30 4106 O 394.798 -0.42932 -1.96771 0
M  V30 4107 C 391.863 -1.06033 -3.30088 0
M  V30 4108 C 390.924 -2.24688 -3.65805 0
M  V30 4109 C 390.157 -2.02322 -4.93864 0
M  V30 4110 O 390.38 -0.986464 -5.61805 0
M  V30 4111 O 389.314 -2.89525 -5.27692 0
M  V30 4112 H 393.14 -2.25705 -2.03202 0
M  V30 4113 H 390.725 -1.15321 -0.949811 0
M  V30 4114 H 392.607 -0.94763 -4.10607 0
M  V30 4115 H 391.282 -0.128852 -3.23443 0
M  V30 4116 H 390.189 -2.41521 -2.85689 0
M  V30 4117 H 391.522 -3.16261 -3.77147 0
M  V30 4118 N 393.175 1.03435 -1.18907 0
M  V30 4119 C 394.122 2.11591 -0.921837 0
M  V30 4120 C 395.092 1.65499 0.141226 0
M  V30 4121 O 396.277 1.908 0.000242829 0
M  V30 4122 C 393.417 3.42012 -0.460616 0
M  V30 4123 C 392.53 4.01682 -1.58982 0
M  V30 4124 C 391.665 5.20091 -1.08069 0
M  V30 4125 C 390.704 5.71805 -2.18416 0
M  V30 4126 N 389.841 6.81494 -1.68849 0
M  V30 4127 H 394.681 2.33787 -1.8479 0
M  V30 4128 H 392.218 1.1467 -0.921373 0
M  V30 4129 H 394.176 4.16834 -0.174642 0
M  V30 4130 H 392.806 3.19944 0.428467 0
M  V30 4131 H 391.858 3.24127 -1.99113 0
M  V30 4132 H 393.17 4.36084 -2.4214 0
M  V30 4133 H 392.324 6.02051 -0.749615 0
M  V30 4134 H 391.063 4.87209 -0.218771 0
M  V30 4135 H 390.068 4.88461 -2.5236 0
M  V30 4136 H 391.293 6.06728 -3.05054 0
M  V30 4137 H 389.239 6.50475 -0.849572 0
M  V30 4138 H 389.156 7.14994 -2.45601 0
M  V30 4139 H 390.424 7.67063 -1.38689 0
M  V30 4140 N 394.653 0.992116 1.22453 0
M  V30 4141 C 395.583 0.561677 2.26644 0
M  V30 4142 C 396.564 -0.411055 1.65059 0
M  V30 4143 O 397.749 -0.301861 1.9184 0
M  V30 4144 C 394.879 -0.125247 3.47074 0
M  V30 4145 C 393.833 0.765948 4.21091 0
M  V30 4146 C 393.159 -0.0538484 5.34673 0
M  V30 4147 C 394.459 2.06242 4.79856 0
M  V30 4148 H 396.153 1.43259 2.62902 0
M  V30 4149 H 393.699 0.690283 1.26377 0
M  V30 4150 H 395.652 -0.437764 4.1912 0
M  V30 4151 H 394.376 -1.03069 3.0991 0
M  V30 4152 H 393.035 1.0621 3.50878 0
M  V30 4153 H 392.683 -0.960188 4.9375 0
M  V30 4154 H 392.383 0.539415 5.85119 0
M  V30 4155 H 393.907 -0.360477 6.09535 0
M  V30 4156 H 395.321 1.8139 5.43848 0
M  V30 4157 H 393.718 2.60444 5.40638 0
M  V30 4158 H 394.788 2.74167 3.99951 0
M  V30 4159 N 396.131 -1.37776 0.765217 0
M  V30 4160 C 397.359 -2.04124 0.337767 0
M  V30 4161 C 397.774 -1.57715 -1.03785 0
M  V30 4162 O 397.131 -0.755447 -1.6613 0
M  V30 4163 C 397.182 -3.59658 0.364442 0
M  V30 4164 O 396.903 -4.04367 1.68579 0
M  V30 4165 C 398.404 -4.43236 -0.0754221 0
M  V30 4166 H 395.624 -0.655696 0.142491 0
M  V30 4167 H 398.168 -1.76238 1.03732 0
M  V30 4168 H 396.323 -3.86339 -0.286471 0
M  V30 4169 H 396.737 -4.98857 1.61993 0
M  V30 4170 H 398.211 -5.52 -0.00560067 0
M  V30 4171 H 398.688 -4.2455 -1.12491 0
M  V30 4172 H 399.294 -4.21767 0.547055 0
M  V30 4173 N 397.609 -0.515225 -1.4894 0
M  V30 4174 C 398.572 0.244681 -2.2789 0
M  V30 4175 C 399.572 0.881166 -1.34507 0
M  V30 4176 O 400.762 0.743497 -1.57537 0
M  V30 4177 C 397.894 1.35247 -3.12923 0
M  V30 4178 H 399.087 -0.448289 -2.96531 0
M  V30 4179 H 396.64 -0.270656 -1.53939 0
M  V30 4180 H 397.375 2.07916 -2.48881 0
M  V30 4181 H 397.16 0.901374 -3.81599 0
M  V30 4182 H 398.65 1.88737 -3.72516 0
M  V30 4183 N 399.087 1.5561 -0.249682 0
M  V30 4184 C 400.317 2.03116 0.377803 0
M  V30 4185 C 400.725 1.12822 1.51881 0
M  V30 4186 O 400.068 0.13562 1.83199 0
M  V30 4187 C 400.13 3.46866 0.944693 0
M  V30 4188 C 399.794 4.56955 -0.0644259 0
M  V30 4189 C 400.791 5.12485 -0.874957 0
M  V30 4190 C 398.476 5.01936 -0.19132 0
M  V30 4191 C 400.47 6.11491 -1.79881 0
M  V30 4192 C 398.157 6.00773 -1.11868 0
M  V30 4193 C 399.155 6.5543 -1.92095 0
M  V30 4194 O 398.843 7.5234 -2.83267 0
M  V30 4195 H 398.575 0.669489 0.0935961 0
M  V30 4196 H 401.129 2.02004 -0.371966 0
M  V30 4197 H 399.359 3.45136 1.74407 0
M  V30 4198 H 401.048 3.77856 1.48255 0
M  V30 4199 H 401.814 4.78564 -0.787523 0
M  V30 4200 H 397.693 4.59055 0.423072 0
M  V30 4201 H 401.237 6.54078 -2.42543 0
M  V30 4202 H 397.134 6.34114 -1.20703 0
M  V30 4203 H 397.902 7.69966 -2.7766 0
M  V30 4204 N 400.565 -0.0233959 1.57583 0
M  V30 4205 C 401.528 -1.00693 2.05897 0
M  V30 4206 C 402.528 -1.28693 0.964092 0
M  V30 4207 O 403.718 -1.23602 1.22753 0
M  V30 4208 C 400.85 -2.33825 2.4807 0
M  V30 4209 H 402.043 -0.589476 2.9405 0
M  V30 4210 H 399.596 -0.270354 1.53944 0
M  V30 4211 H 400.331 -2.80307 1.6309 0
M  V30 4212 H 400.116 -2.1483 3.2801 0
M  V30 4213 H 401.606 -3.04426 2.85857 0
M  V30 4214 N 402.043 -1.548 -0.295768 0
M  V30 4215 C 402.976 -1.81003 -1.38972 0
M  V30 4216 C 403.954 -0.661544 -1.48534 0
M  V30 4217 O 405.138 -0.902074 -1.65514 0
M  V30 4218 C 402.265 -1.95141 -2.76835 0
M  V30 4219 C 401.311 -3.17592 -2.84671 0
M  V30 4220 S 402.144 -4.75531 -2.46232 0
M  V30 4221 C 403.3 -4.92613 -3.86114 0
M  V30 4222 H 403.533 -2.73507 -1.16537 0
M  V30 4223 H 401.066 -1.46278 -0.494168 0
M  V30 4224 H 403.024 -2.03972 -3.56238 0
M  V30 4225 H 401.685 -1.03565 -2.96535 0
M  V30 4226 H 400.878 -3.24303 -3.85803 0
M  V30 4227 H 400.48 -3.07235 -2.13267 0
M  V30 4228 H 402.772 -4.76957 -4.81164 0
M  V30 4229 H 403.715 -5.94698 -3.8437 0
M  V30 4230 H 404.123 -4.2073 -3.76359 0
M  V30 4231 N 403.521 0.559213 -1.47345 0
M  V30 4232 C 404.749 1.34194 -1.57479 0
M  V30 4233 C 405.164 1.87463 -0.224261 0
M  V30 4234 O 404.521 1.64888 0.782185 0
M  V30 4235 C 404.572 2.51324 -2.59843 0
M  V30 4236 O 404.293 2.00256 -3.89653 0
M  V30 4237 C 405.794 3.43563 -2.80142 0
M  V30 4238 H 403.014 0.409136 -0.531835 0
M  V30 4239 H 405.558 0.677609 -1.92947 0
M  V30 4240 H 403.713 3.13699 -2.27314 0
M  V30 4241 H 404.127 2.76708 -4.4557 0
M  V30 4242 H 405.601 4.2217 -3.55635 0
M  V30 4243 H 406.078 3.9698 -1.87892 0
M  V30 4244 H 406.684 2.87005 -3.1386 0
M  V30 4245 N 404.999 1.35443 0.805782 0
M  V30 4246 C 406.248 1.28097 1.55801 0
M  V30 4247 C 406.561 -0.142428 1.95081 0
M  V30 4248 O 407.767 -0.33817 2.69386 0
M  V30 4249 C 406.223 2.24653 2.81174 0
M  V30 4250 C 405.831 3.72342 2.49129 0
M  V30 4251 C 407.575 2.2625 3.59181 0
M  V30 4252 C 405.482 4.60719 3.70799 0
M  V30 4253 H 404.412 0.475937 0.584808 0
M  V30 4254 H 407.063 1.60712 0.885661 0
M  V30 4255 H 405.445 1.85011 3.50124 0
M  V30 4256 H 406.619 4.20624 1.88181 0
M  V30 4257 H 404.934 3.73361 1.84366 0
M  V30 4258 H 407.531 2.89495 4.49552 0
M  V30 4259 H 407.874 1.26647 3.96568 0
M  V30 4260 H 408.407 2.64426 2.97193 0
M  V30 4261 H 405.146 5.61324 3.3852 0
M  V30 4262 H 404.666 4.17163 4.3097 0
M  V30 4263 H 406.345 4.76182 4.38018 0
M  V30 4264 N 406.477 -1.02803 1.19454 0
M  V30 4265 C 407.888 -1.57667 0.999899 0
M  V30 4266 C 408.239 -1.91041 -0.446956 0
M  V30 4267 O 407.364 -1.70978 -1.32648 0
M  V30 4268 C 407.959 -2.86477 1.80877 0
M  V30 4269 C 406.518 -3.37911 1.65811 0
M  V30 4270 C 405.665 -2.11343 1.79526 0
M  V30 4271 H 408.616 -0.853214 1.33813 0
M  V30 4272 H 408.637 -3.57408 1.30536 0
M  V30 4273 H 408.149 -2.62155 2.86175 0
M  V30 4274 H 406.25 -3.67218 0.63102 0
M  V30 4275 H 406.363 -4.10885 2.46395 0
M  V30 4276 H 404.727 -2.23254 1.22596 0
M  V30 4277 H 405.51 -1.89461 2.86285 0
M  V30 4278 N 407.956 -0.998596 -1.21925 0
M  V30 4279 C 409.203 -0.677663 -1.90824 0
M  V30 4280 C 409.531 0.790905 -1.77693 0
M  V30 4281 O 408.786 1.58817 -1.14349 0
M  V30 4282 C 409.085 -1.03648 -3.42041 0
M  V30 4283 C 408.751 -2.49825 -3.75364 0
M  V30 4284 C 407.413 -2.8977 -3.8417 0
M  V30 4285 C 409.765 -3.44545 -3.91073 0
M  V30 4286 C 407.093 -4.23412 -4.06127 0
M  V30 4287 C 409.445 -4.77853 -4.14535 0
M  V30 4288 C 408.109 -5.17531 -4.21566 0
M  V30 4289 H 407.379 -0.247975 -0.698276 0
M  V30 4290 H 410.026 -1.25584 -1.44571 0
M  V30 4291 H 408.331 -0.376457 -3.89987 0
M  V30 4292 H 410.028 -0.766113 -3.93614 0
M  V30 4293 H 406.618 -2.17866 -3.69097 0
M  V30 4294 H 410.802 -3.14853 -3.83642 0
M  V30 4295 H 406.058 -4.53734 -4.09799 0
M  V30 4296 H 410.232 -5.51189 -4.25633 0
M  V30 4297 H 407.859 -6.21102 -4.38333 0
M  V30 4298 N 409.434 1.37368 -0.772513 0
M  V30 4299 C 410.68 1.99969 -0.337681 0
M  V30 4300 C 411.013 1.61184 1.08321 0
M  V30 4301 O 410.288 0.858395 1.74533 0
M  V30 4302 C 410.571 3.56858 -0.482121 0
M  V30 4303 C 410.424 4.0555 -1.94549 0
M  V30 4304 C 411.743 4.39955 0.113143 0
M  V30 4305 H 408.862 0.726464 -0.124171 0
M  V30 4306 H 411.504 1.63034 -0.975699 0
M  V30 4307 H 409.654 3.88452 0.0610361 0
M  V30 4308 H 411.326 3.84518 -2.54841 0
M  V30 4309 H 409.569 3.57715 -2.45403 0
M  V30 4310 H 410.24 5.14587 -1.9976 0
M  V30 4311 H 412.716 4.14623 -0.35031 0
M  V30 4312 H 411.592 5.48897 -0.0180514 0
M  V30 4313 H 411.853 4.25403 1.20354 0
M  V30 4314 N 410.912 0.523116 1.48665 0
M  V30 4315 C 412.328 0.180511 1.58576 0
M  V30 4316 C 412.528 -1.31597 1.52592 0
M  V30 4317 O 411.584 -2.0937 1.4114 0
M  V30 4318 C 412.897 0.776949 2.90489 0
M  V30 4319 C 414.445 0.745058 3.04003 0
M  V30 4320 C 414.92 1.31995 4.38567 0
M  V30 4321 N 416.411 1.28162 4.45117 0
M  V30 4322 C 417.146 1.6964 5.47731 0
M  V30 4323 N 416.642 2.18816 6.57337 0
M  V30 4324 N 418.435 1.6092 5.38573 0
M  V30 4325 H 410.586 1.4958 1.50797 0
M  V30 4326 H 412.849 0.621772 0.715614 0
M  V30 4327 H 412.555 1.82732 3.00503 0
M  V30 4328 H 412.429 0.25007 3.7637 0
M  V30 4329 H 414.816 -0.296532 2.93606 0
M  V30 4330 H 414.897 1.30933 2.1975 0
M  V30 4331 H 414.541 2.36043 4.49718 0
M  V30 4332 H 414.471 0.731418 5.21496 0
M  V30 4333 H 416.962 0.92155 3.66491 0
M  V30 4334 H 417.275 2.48478 7.31764 0
M  V30 4335 H 415.62 2.22805 6.58318 0
M  V30 4336 H 418.811 1.22304 4.5184 0
M  V30 4337 H 418.984 1.93567 6.18414 0
M  V30 4338 N 412.39 -1.55475 0.257931 0
M  V30 4339 C 413.322 -2.19192 -0.669881 0
M  V30 4340 C 414.335 -1.17148 -1.1305 0
M  V30 4341 O 415.524 -1.43959 -1.05537 0
M  V30 4342 C 412.624 -2.79016 -1.92363 0
M  V30 4343 C 411.797 -4.06586 -1.61265 0
M  V30 4344 C 410.856 -4.50622 -2.7171 0
M  V30 4345 O 409.882 -5.16765 -2.38627 0
M  V30 4346 N 411.084 -4.19325 -4.01431 0
M  V30 4347 H 413.849 -2.99441 -0.124635 0
M  V30 4348 H 411.41 -1.6171 0.0783311 0
M  V30 4349 H 413.402 -3.05427 -2.65511 0
M  V30 4350 H 411.972 -2.0286 -2.37837 0
M  V30 4351 H 411.192 -3.87646 -0.715811 0
M  V30 4352 H 412.48 -4.89737 -1.37967 0
M  V30 4353 H 411.878 -3.66247 -4.31138 0
M  V30 4354 H 410.435 -4.50547 -4.7101 0
M  V30 4355 N 413.868 0.0150385 -1.57593 0
M  V30 4356 C 414.8 1.03912 -2.04291 0
M  V30 4357 C 415.813 1.31618 -0.958146 0
M  V30 4358 O 417.002 1.28859 -1.23522 0
M  V30 4359 C 414.102 2.37749 -2.41514 0
M  V30 4360 C 413.275 2.29198 -3.72541 0
M  V30 4361 C 412.334 3.45598 -3.96797 0
M  V30 4362 O 411.36 3.24461 -4.67668 0
M  V30 4363 N 412.562 4.67945 -3.43523 0
M  V30 4364 H 415.327 0.64099 -2.92765 0
M  V30 4365 H 412.888 0.20272 -1.60626 0
M  V30 4366 H 414.88 3.14364 -2.54867 0
M  V30 4367 H 413.45 2.69357 -1.58637 0
M  V30 4368 H 412.67 1.3759 -3.69408 0
M  V30 4369 H 413.958 2.20642 -4.5847 0
M  V30 4370 H 413.356 4.88017 -2.86104 0
M  V30 4371 H 411.913 5.41878 -3.62232 0
M  V30 4372 N 415.346 1.54954 0.287554 0
M  V30 4373 C 416.592 1.75132 1.02257 0
M  V30 4374 C 416.925 0.542858 1.86458 0
M  V30 4375 O 416.2 -0.459856 1.88986 0
M  V30 4376 C 416.483 3.04812 1.91733 0
M  V30 4377 C 416.336 4.35985 1.10622 0
M  V30 4378 C 417.655 3.30438 2.90687 0
M  V30 4379 H 414.774 0.637194 0.370341 0
M  V30 4380 H 417.416 1.87678 0.296111 0
M  V30 4381 H 415.566 2.94247 2.53675 0
M  V30 4382 H 417.238 4.58487 0.508636 0
M  V30 4383 H 415.481 4.31865 0.409271 0
M  V30 4384 H 416.152 5.23017 1.76513 0
M  V30 4385 H 418.628 3.40701 2.38877 0
M  V30 4386 H 417.504 4.22467 3.50447 0
M  V30 4387 H 417.765 2.49377 3.65053 0
M  V30 4388 N 416.824 -0.551391 1.4764 0
M  V30 4389 C 418.054 -1.33163 1.57959 0
M  V30 4390 C 418.462 -1.87785 0.23094 0
M  V30 4391 O 417.805 -1.65996 -0.786825 0
M  V30 4392 C 417.867 -2.53449 2.54958 0
M  V30 4393 C 417.531 -2.20071 4.00522 0
M  V30 4394 C 418.528 -1.77017 4.88836 0
M  V30 4395 C 416.213 -2.31252 4.45901 0
M  V30 4396 C 418.207 -1.4558 6.20552 0
M  V30 4397 C 415.894 -1.99427 5.77644 0
M  V30 4398 C 416.892 -1.56659 6.64791 0
M  V30 4399 O 416.58 -1.25242 7.94084 0
M  V30 4400 H 416.312 -0.412022 0.535923 0
M  V30 4401 H 418.866 -0.674186 1.9402 0
M  V30 4402 H 417.096 -3.22104 2.13976 0
M  V30 4403 H 418.785 -3.15523 2.55343 0
M  V30 4404 H 419.551 -1.67867 4.55023 0
M  V30 4405 H 415.43 -2.63498 3.78272 0
M  V30 4406 H 418.974 -1.12125 6.8853 0
M  V30 4407 H 414.871 -2.08211 6.10998 0
M  V30 4408 H 415.639 -1.38822 8.06642 0
M  V30 4409 N 418.302 -1.35869 -0.798587 0
M  V30 4410 C 419.249 -1.29446 -1.91082 0
M  V30 4411 C 420.219 -0.16487 -1.6528 0
M  V30 4412 O 421.404 -0.349888 -1.87564 0
M  V30 4413 C 418.544 -1.0804 -3.27752 0
M  V30 4414 C 417.657 -2.29993 -3.65687 0
M  V30 4415 C 416.792 -2.01673 -4.91428 0
M  V30 4416 C 415.831 -3.19636 -5.22015 0
M  V30 4417 N 414.968 -2.91039 -6.38937 0
M  V30 4418 H 419.808 -2.24553 -1.95907 0
M  V30 4419 H 417.345 -1.11615 -0.958148 0
M  V30 4420 H 419.303 -0.936586 -4.06551 0
M  V30 4421 H 417.933 -0.16592 -3.22373 0
M  V30 4422 H 416.985 -2.55211 -2.82085 0
M  V30 4423 H 418.297 -3.18052 -3.84245 0
M  V30 4424 H 417.451 -1.84168 -5.78072 0
M  V30 4425 H 416.19 -1.10911 -4.74921 0
M  V30 4426 H 415.195 -3.37709 -4.33858 0
M  V30 4427 H 416.42 -4.11211 -5.40447 0
M  V30 4428 H 414.366 -2.0288 -6.2384 0
M  V30 4429 H 414.283 -3.72635 -6.57784 0
M  V30 4430 H 415.551 -2.77093 -7.28587 0
M  V30 4431 N 419.78 1.02168 -1.19998 0
M  V30 4432 C 420.727 2.10601 -0.944228 0
M  V30 4433 C 421.697 1.65639 0.123664 0
M  V30 4434 O 422.882 1.9079 -0.0199941 0
M  V30 4435 C 420.022 3.41504 -0.496865 0
M  V30 4436 C 419.135 3.99973 -1.63234 0
M  V30 4437 C 418.27 5.18915 -1.13579 0
M  V30 4438 C 417.309 5.69456 -2.24468 0
M  V30 4439 N 416.446 6.79665 -1.76068 0
M  V30 4440 H 421.286 2.31814 -1.8726 0
M  V30 4441 H 418.823 1.13686 -0.933483 0
M  V30 4442 H 420.781 4.16626 -0.218843 0
M  V30 4443 H 419.411 3.2038 0.394508 0
M  V30 4444 H 418.463 3.21997 -2.0254 0
M  V30 4445 H 419.775 4.33492 -2.46752 0
M  V30 4446 H 418.929 6.01222 -0.813429 0
M  V30 4447 H 417.668 4.8695 -0.270434 0
M  V30 4448 H 416.673 4.85757 -2.57526 0
M  V30 4449 H 417.898 6.03459 -3.11472 0
M  V30 4450 H 415.844 6.49538 -0.918516 0
M  V30 4451 H 415.761 7.12349 -2.5317 0
M  V30 4452 H 417.029 7.65549 -1.46817 0
M  V30 4453 N 421.258 1.00505 1.21394 0
M  V30 4454 C 422.504 0.688793 1.90745 0
M  V30 4455 C 422.837 -0.778486 1.77914 0
M  V30 4456 O 422.112 -1.56433 1.15581 0
M  V30 4457 C 422.395 1.11063 3.42545 0
M  V30 4458 C 422.248 2.63737 3.64367 0
M  V30 4459 C 423.567 0.673059 4.34923 0
M  V30 4460 H 420.686 0.251702 0.692687 0
M  V30 4461 H 423.328 1.25074 1.43026 0
M  V30 4462 H 421.478 0.632508 3.83317 0
M  V30 4463 H 423.15 3.19313 3.32922 0
M  V30 4464 H 421.393 3.05248 3.08231 0
M  V30 4465 H 422.064 2.88305 4.70727 0
M  V30 4466 H 424.54 1.08392 4.01734 0
M  V30 4467 H 423.416 0.996383 5.39781 0
M  V30 4468 H 423.677 -0.425808 4.40045 0
M  V30 4469 N 422.737 -1.36956 0.779787 0
M  V30 4470 C 423.647 -2.33965 0.172491 0
M  V30 4471 C 424.663 -1.60574 -0.670222 0
M  V30 4472 O 425.839 -1.92617 -0.588263 0
M  V30 4473 C 422.904 -3.39761 -0.690173 0
M  V30 4474 C 421.965 -4.28964 0.169924 0
M  V30 4475 C 421.198 -5.29707 -0.651662 0
M  V30 4476 O 421.421 -5.38238 -1.88827 0
M  V30 4477 O 420.355 -6.01873 -0.0566264 0
M  V30 4478 H 424.181 -2.87647 0.974321 0
M  V30 4479 H 421.766 -1.39258 0.541078 0
M  V30 4480 H 423.648 -4.04471 -1.1824 0
M  V30 4481 H 422.323 -2.88394 -1.47006 0
M  V30 4482 H 421.23 -3.67326 0.708696 0
M  V30 4483 H 422.563 -4.83656 0.913085 0
M  V30 4484 N 424.215 -0.530993 -1.48385 0
M  V30 4485 C 425.125 0.23503 -2.3342 0
M  V30 4486 C 426.141 0.93801 -1.46552 0
M  V30 4487 O 427.317 0.912745 -1.7953 0
M  V30 4488 C 424.382 1.26778 -3.22689 0
M  V30 4489 C 423.443 0.575038 -4.25431 0
M  V30 4490 C 422.676 1.55858 -5.10435 0
M  V30 4491 O 422.899 2.79129 -4.97437 0
M  V30 4492 O 421.833 1.09742 -5.91811 0
M  V30 4493 H 425.659 -0.461794 -3.00169 0
M  V30 4494 H 423.244 -0.291903 -1.46521 0
M  V30 4495 H 425.126 1.86457 -3.77904 0
M  V30 4496 H 423.801 1.94699 -2.586 0
M  V30 4497 H 422.708 -0.0622782 -3.74048 0
M  V30 4498 H 424.041 -0.062253 -4.92161 0
M  V30 4499 N 425.693 1.55336 -0.266172 0
M  V30 4500 C 426.64 2.22172 0.625165 0
M  V30 4501 C 427.61 1.19211 1.15663 0
M  V30 4502 O 428.795 1.47723 1.20758 0
M  V30 4503 C 425.935 2.93972 1.8076 0
M  V30 4504 C 425.048 4.11632 1.31084 0
M  V30 4505 C 424.183 4.71099 2.45436 0
M  V30 4506 C 423.222 5.8097 1.92718 0
M  V30 4507 N 422.359 6.34538 3.00509 0
M  V30 4508 H 427.199 2.9796 0.0485582 0
M  V30 4509 H 424.736 1.47095 0.0122024 0
M  V30 4510 H 426.694 3.33811 2.50251 0
M  V30 4511 H 425.324 2.20623 2.35638 0
M  V30 4512 H 424.376 3.76975 0.509326 0
M  V30 4513 H 425.688 4.90893 0.884633 0
M  V30 4514 H 424.842 5.13612 3.22936 0
M  V30 4515 H 423.581 3.91096 2.91368 0
M  V30 4516 H 422.586 5.37916 1.13695 0
M  V30 4517 H 423.811 6.62836 1.47733 0
M  V30 4518 H 421.757 5.57433 3.45839 0
M  V30 4519 H 421.674 7.09046 2.62279 0
M  V30 4520 H 422.942 6.81709 3.78011 0
M  V30 4521 N 427.171 -0.0066808 1.57599 0
M  V30 4522 C 428.417 -0.693947 1.90558 0
M  V30 4523 C 428.75 -1.73792 0.866594 0
M  V30 4524 O 428.025 -1.94156 -0.115548 0
M  V30 4525 C 428.308 -1.34317 3.34112 0
M  V30 4526 C 428.161 -0.311189 4.48722 0
M  V30 4527 C 429.48 -2.27116 3.7697 0
M  V30 4528 H 426.599 -0.250803 0.693013 0
M  V30 4529 H 429.241 0.043242 1.89951 0
M  V30 4530 H 427.391 -1.9715 3.3476 0
M  V30 4531 H 429.063 0.316944 4.6021 0
M  V30 4532 H 427.306 0.367253 4.32243 0
M  V30 4533 H 427.977 -0.804366 5.46108 0
M  V30 4534 H 430.453 -1.74306 3.77831 0
M  V30 4535 H 429.329 -2.69511 4.78179 0
M  V30 4536 H 429.59 -3.14743 3.10466 0
M  V30 4537 N 428.649 -1.55105 -0.279332 0
M  V30 4538 C 430.065 -1.46803 -0.626187 0
M  V30 4539 C 430.265 -0.676939 -1.89789 0
M  V30 4540 O 429.321 -0.19326 -2.51759 0
M  V30 4541 C 430.634 -2.90962 -0.759034 0
M  V30 4542 C 432.182 -3.01138 -0.853504 0
M  V30 4543 C 432.657 -4.46539 -1.01818 0
M  V30 4544 N 434.148 -4.50341 -1.08386 0
M  V30 4545 C 434.883 -5.60053 -1.22996 0
M  V30 4546 N 434.379 -6.79645 -1.34366 0
M  V30 4547 N 436.172 -5.47783 -1.26056 0
M  V30 4548 H 428.323 -2.04996 0.555921 0
M  V30 4549 H 430.586 -0.929325 0.187239 0
M  V30 4550 H 430.292 -3.51544 0.104852 0
M  V30 4551 H 430.166 -3.39619 -1.64131 0
M  V30 4552 H 432.553 -2.40658 -1.70786 0
M  V30 4553 H 432.634 -2.55745 0.0532466 0
M  V30 4554 H 432.278 -5.0762 -0.168504 0
M  V30 4555 H 432.208 -4.89583 -1.93948 0
M  V30 4556 H 434.699 -3.64191 -1.00864 0
M  V30 4557 H 435.012 -7.59012 -1.4533 0
M  V30 4558 H 433.357 -6.82469 -1.31382 0
M  V30 4559 H 436.548 -4.53294 -1.168 0
M  V30 4560 H 436.721 -6.33331 -1.37098 0
M  V30 4561 N 430.127 0.543554 -1.4793 0
M  V30 4562 C 431.074 1.64942 -1.6144 0
M  V30 4563 C 432.044 1.59692 -0.456903 0
M  V30 4564 O 433.229 1.78321 -0.678688 0
M  V30 4565 C 430.369 3.03238 -1.64744 0
M  V30 4566 C 429.482 3.18823 -2.91506 0
M  V30 4567 C 428.617 4.47599 -2.86057 0
M  V30 4568 C 427.656 4.56664 -4.07584 0
M  V30 4569 N 426.793 5.76811 -4.00292 0
M  V30 4570 H 431.633 1.52733 -2.55884 0
M  V30 4571 H 429.17 0.7438 -1.2691 0
M  V30 4572 H 431.128 3.83339 -1.64641 0
M  V30 4573 H 429.758 3.1425 -0.738017 0
M  V30 4574 H 428.81 2.32064 -3.01414 0
M  V30 4575 H 430.122 3.21384 -3.81463 0
M  V30 4576 H 429.276 5.35975 -2.84281 0
M  V30 4577 H 428.015 4.47538 -1.93807 0
M  V30 4578 H 427.02 3.66697 -4.09651 0
M  V30 4579 H 428.245 4.58474 -5.00978 0
M  V30 4580 H 426.191 5.77673 -3.10853 0
M  V30 4581 H 426.108 5.80808 -4.8394 0
M  V30 4582 H 427.376 6.67512 -4.02553 0
M  V30 4583 N 431.605 1.3629 0.791371 0
M  V30 4584 C 432.537 1.26321 1.91248 0
M  V30 4585 C 433.55 0.18313 1.61767 0
M  V30 4586 O 434.739 0.437682 1.73051 0
M  V30 4587 C 431.839 0.925901 3.26007 0
M  V30 4588 C 431.012 2.10746 3.83281 0
M  V30 4589 C 430.071 1.74352 4.96475 0
M  V30 4590 O 429.097 2.46416 5.13096 0
M  V30 4591 N 430.299 0.676058 5.7655 0
M  V30 4592 H 433.064 2.22915 2.00323 0
M  V30 4593 H 430.625 1.29659 0.969546 0
M  V30 4594 H 432.617 0.663636 3.99222 0
M  V30 4595 H 431.187 0.0491581 3.12561 0
M  V30 4596 H 430.407 2.53264 3.02077 0
M  V30 4597 H 431.695 2.8969 4.18279 0
M  V30 4598 H 431.093 0.0776467 5.65647 0
M  V30 4599 H 429.65 0.473612 6.50077 0
M  V30 4600 N 433.083 -1.0153 1.20538 0
M  V30 4601 C 434.311 -1.78746 1.04199 0
M  V30 4602 C 434.726 -1.84323 -0.408733 0
M  V30 4603 O 434.083 -1.29714 -1.28377 0
M  V30 4604 C 434.134 -3.23152 1.62035 0
M  V30 4605 O 433.855 -3.17918 3.0143 0
M  V30 4606 C 435.356 -4.16911 1.50666 0
M  V30 4607 H 432.576 -0.56208 0.366479 0
M  V30 4608 H 435.12 -1.27794 1.59653 0
M  V30 4609 H 433.275 -3.71248 1.10697 0
M  V30 4610 H 433.689 -4.08567 3.28897 0
M  V30 4611 H 435.163 -5.16072 1.95892 0
M  V30 4612 H 435.64 -4.36791 0.459363 0
M  V30 4613 H 436.246 -3.74698 2.01201 0
M  V30 4614 N 434.561 -1.01147 -1.20859 0
M  V30 4615 C 435.508 -0.577354 -2.23462 0
M  V30 4616 C 436.478 0.399922 -1.61214 0
M  V30 4617 O 437.663 0.300515 -1.88419 0
M  V30 4618 C 434.803 0.083372 -3.44999 0
M  V30 4619 C 433.916 -0.937856 -4.21697 0
M  V30 4620 C 433.051 -0.248717 -5.30617 0
M  V30 4621 C 432.09 -1.25705 -5.99053 0
M  V30 4622 N 431.227 -0.594939 -6.99575 0
M  V30 4623 H 436.067 -1.45695 -2.59956 0
M  V30 4624 H 433.604 -0.729428 -1.27741 0
M  V30 4625 H 435.562 0.483535 -4.14388 0
M  V30 4626 H 434.192 0.926645 -3.09214 0
M  V30 4627 H 433.244 -1.45622 -3.51423 0
M  V30 4628 H 434.556 -1.70493 -4.68757 0
M  V30 4629 H 433.71 0.207215 -6.06346 0
M  V30 4630 H 432.449 0.55071 -4.84581 0
M  V30 4631 H 431.454 -1.72343 -5.2209 0
M  V30 4632 H 432.679 -2.05767 -6.47176 0
M  V30 4633 H 430.625 0.184713 -6.5574 0
M  V30 4634 H 430.542 -1.30017 -7.44736 0
M  V30 4635 H 431.81 -0.162427 -7.79331 0
M  V30 4636 N 436.039 1.36541 -0.78704 0
M  V30 4637 C 437.287 1.98911 -0.357633 0
M  V30 4638 C 437.608 1.62778 1.07371 0
M  V30 4639 O 436.878 0.900612 1.73971 0
M  V30 4640 H 435.458 0.735734 -0.129246 0
M  V30 4641 H 438.12 1.66776 -1.00855 0
M  V30 4642 H 437.216 3.08874 -0.447549 0
M  V30 4643 N 437.518 0.538854 1.48102 0
M  V30 4644 C 438.448 -0.207654 2.32575 0
M  V30 4645 C 439.429 -0.926559 1.4265 0
M  V30 4646 O 440.614 -0.91061 1.71527 0
M  V30 4647 C 437.744 -1.24957 3.24042 0
M  V30 4648 C 436.698 -0.648263 4.23062 0
M  V30 4649 C 436.024 -1.79348 5.03725 0
M  V30 4650 C 437.324 0.385897 5.20872 0
M  V30 4651 H 439.018 0.497534 2.95237 0
M  V30 4652 H 436.564 0.240715 1.41974 0
M  V30 4653 H 438.517 -1.77983 3.81969 0
M  V30 4654 H 437.241 -1.98446 2.59397 0
M  V30 4655 H 435.9 -0.139452 3.66335 0
M  V30 4656 H 435.548 -2.51696 4.35498 0
M  V30 4657 H 435.248 -1.39702 5.70751 0
M  V30 4658 H 436.772 -2.32735 5.64506 0
M  V30 4659 H 438.186 -0.057607 5.73271 0
M  V30 4660 H 436.583 0.700227 5.96001 0
M  V30 4661 H 437.653 1.28848 4.67468 0
M  V30 4662 N 438.996 -1.55193 0.274407 0
M  V30 4663 C 440.226 -2.03692 -0.345442 0
M  V30 4664 C 440.634 -1.15224 -1.50067 0
M  V30 4665 O 439.977 -0.164749 -1.8296 0
M  V30 4666 C 440.039 -3.48325 -0.88939 0
M  V30 4667 C 439.703 -4.56794 0.137115 0
M  V30 4668 C 440.7 -5.11028 0.956378 0
M  V30 4669 C 438.385 -5.01568 0.27115 0
M  V30 4670 C 440.379 -6.08552 1.89587 0
M  V30 4671 C 438.066 -5.98918 1.21412 0
M  V30 4672 C 439.064 -6.52291 2.02498 0
M  V30 4673 O 438.752 -7.47738 2.952 0
M  V30 4674 H 438.484 -0.670893 -0.0829332 0
M  V30 4675 H 441.038 -2.01387 0.404056 0
M  V30 4676 H 439.268 -3.47867 -1.68895 0
M  V30 4677 H 440.957 -3.80167 -1.42225 0
M  V30 4678 H 441.723 -4.7725 0.863559 0
M  V30 4679 H 437.602 -4.5967 -0.349987 0
M  V30 4680 H 441.146 -6.50137 2.52918 0
M  V30 4681 H 437.043 -6.32114 1.30776 0
M  V30 4682 H 437.811 -7.65451 2.89874 0
M  V30 4683 N 440.474 -0.00167713 -1.576 0
M  V30 4684 C 441.885 0.54091 -1.78693 0
M  V30 4685 C 442.236 1.7386 -0.909247 0
M  V30 4686 O 441.361 2.16109 -0.112176 0
M  V30 4687 C 441.956 0.98806 -3.24072 0
M  V30 4688 C 440.515 1.47594 -3.46256 0
M  V30 4689 C 439.662 0.42792 -2.73978 0
M  V30 4690 H 442.613 -0.22784 -1.57056 0
M  V30 4691 H 442.634 1.85398 -3.32277 0
M  V30 4692 H 442.146 0.116164 -3.87926 0
M  V30 4693 H 440.247 2.36868 -2.87618 0
M  V30 4694 H 440.36 1.50225 -4.54939 0
M  V30 4695 H 438.724 0.889934 -2.38647 0
M  V30 4696 H 439.507 -0.435038 -3.40532 0
M  V30 4697 N 441.952 1.55251 0.271103 0
M  V30 4698 C 442.915 1.87484 1.31842 0
M  V30 4699 C 443.915 0.749545 1.42262 0
M  V30 4700 O 445.105 1.01771 1.4138 0
M  V30 4701 C 442.237 2.0818 2.69951 0
M  V30 4702 H 443.43 2.81108 1.0449 0
M  V30 4703 H 440.983 1.47771 0.509258 0
M  V30 4704 H 441.718 1.16944 3.02481 0
M  V30 4705 H 441.503 2.90114 2.63774 0
M  V30 4706 H 442.993 2.34385 3.4562 0
M  V30 4707 N 443.43 -0.535701 1.48216 0
M  V30 4708 C 444.841 -1.11769 1.49548 0
M  V30 4709 C 445.192 -1.94442 0.26207 0
M  V30 4710 O 444.317 -2.06987 -0.631287 0
M  V30 4711 C 444.912 -2.03367 2.70975 0
M  V30 4712 C 443.471 -2.56795 2.75196 0
M  V30 4713 C 442.618 -1.33631 2.42977 0
M  V30 4714 H 445.569 -0.321232 1.55415 0
M  V30 4715 H 445.59 -2.87569 2.49167 0
M  V30 4716 H 445.102 -1.43169 3.60727 0
M  V30 4717 H 443.203 -3.20731 1.89638 0
M  V30 4718 H 443.316 -2.9632 3.76472 0
M  V30 4719 H 441.68 -1.6502 1.94012 0
M  V30 4720 H 442.463 -0.75194 3.34964 0
M  V30 4721 N 444.908 -1.36708 -0.784132 0
M  V30 4722 C 445.838 -1.34153 -1.91116 0
M  V30 4723 C 446.819 -0.212121 -1.68772 0
M  V30 4724 O 448.004 -0.410581 -1.8981 0
M  V30 4725 C 445.134 -1.13535 -3.28218 0
M  V30 4726 C 444.088 -2.23356 -3.65097 0
M  V30 4727 C 443.414 -1.87875 -5.00607 0
M  V30 4728 C 444.714 -3.65473 -3.73131 0
M  V30 4729 H 446.408 -2.28459 -1.93512 0
M  V30 4730 H 443.954 -1.09973 -0.929618 0
M  V30 4731 H 445.907 -1.10381 -4.06687 0
M  V30 4732 H 444.631 -0.156804 -3.26223 0
M  V30 4733 H 443.29 -2.25645 -2.88929 0
M  V30 4734 H 442.938 -0.885814 -4.95139 0
M  V30 4735 H 442.638 -2.61406 -5.26252 0
M  V30 4736 H 444.162 -1.86286 -5.81489 0
M  V30 4737 H 445.576 -3.65382 -4.41779 0
M  V30 4738 H 443.973 -4.37953 -4.10265 0
M  V30 4739 H 445.043 -3.99995 -2.74102 0
M  V30 4740 N 446.386 1.0089 -1.21074 0
M  V30 4741 C 447.333 2.09588 -0.966512 0
M  V30 4742 C 448.303 1.65761 0.106089 0
M  V30 4743 O 449.488 1.90758 -0.0402287 0
M  V30 4744 C 446.628 3.40958 -0.533058 0
M  V30 4745 C 445.741 3.9822 -1.67467 0
M  V30 4746 C 444.876 5.17682 -1.19076 0
M  V30 4747 C 443.915 5.67043 -2.30496 0
M  V30 4748 N 443.052 6.77759 -1.83267 0
M  V30 4749 H 447.892 2.29815 -1.89708 0
M  V30 4750 H 445.429 1.12689 -0.945489 0
M  V30 4751 H 447.387 4.1637 -0.263019 0
M  V30 4752 H 446.017 3.20781 0.360505 0
M  V30 4753 H 445.069 3.1983 -2.05944 0
M  V30 4754 H 446.381 4.3085 -2.51336 0
M  V30 4755 H 445.535 6.00326 -0.877151 0
M  V30 4756 H 444.274 4.86635 -0.322066 0
M  V30 4757 H 443.279 4.82999 -2.62664 0
M  V30 4758 H 444.504 6.00121 -3.17855 0
M  V30 4759 H 442.45 6.48527 -0.987356 0
M  V30 4760 H 442.367 7.09624 -2.60711 0
M  V30 4761 H 443.635 7.63949 -1.54928 0
M  V30 4762 N 447.864 1.01787 1.20321 0
M  V30 4763 C 449.113 0.703249 1.89043 0
M  V30 4764 C 449.426 -0.770445 1.79787 0
M  V30 4765 O 450.632 -1.19767 2.43656 0
M  V30 4766 C 449.088 1.20749 3.3904 0
M  V30 4767 C 448.696 2.70817 3.56878 0
M  V30 4768 C 450.44 0.968352 4.13308 0
M  V30 4769 C 448.347 3.14716 5.00708 0
M  V30 4770 H 447.277 0.259354 0.707991 0
M  V30 4771 H 449.928 1.23072 1.36108 0
M  V30 4772 H 448.31 0.607989 3.91305 0
M  V30 4773 H 449.484 3.36327 3.14993 0
M  V30 4774 H 447.799 2.92888 2.95983 0
M  V30 4775 H 450.396 1.27173 5.19356 0
M  V30 4776 H 450.739 -0.095149 4.16191 0
M  V30 4777 H 451.272 1.53129 3.67146 0
M  V30 4778 H 448.011 4.20347 5.02979 0
M  V30 4779 H 447.531 2.53927 5.43398 0
M  V30 4780 H 449.21 3.07426 5.69296 0
M  V30 4781 N 449.342 -1.36122 0.79427 0
M  V30 4782 C 450.591 -1.98361 0.365464 0
M  V30 4783 C 450.904 -1.6374 -1.06997 0
M  V30 4784 O 452.11 -2.19251 -1.60129 0
M  V30 4785 C 450.566 -3.54821 0.602496 0
M  V30 4786 C 450.174 -3.98362 2.04967 0
M  V30 4787 C 451.918 -4.2383 0.238437 0
M  V30 4788 C 449.825 -5.47619 2.2331 0
M  V30 4789 H 448.755 -0.742193 0.13291 0
M  V30 4790 H 451.406 -1.55354 0.976589 0
M  V30 4791 H 449.788 -3.95922 -0.078409 0
M  V30 4792 H 450.962 -3.68447 2.76737 0
M  V30 4793 H 449.277 -3.42206 2.37243 0
M  V30 4794 H 451.874 -5.33529 0.353705 0
M  V30 4795 H 452.217 -4.08264 -0.814006 0
M  V30 4796 H 452.75 -3.88108 0.872769 0
M  V30 4797 H 449.489 -5.68138 3.26955 0
M  V30 4798 H 449.009 -5.79145 1.5605 0
M  V30 4799 H 450.688 -6.13911 2.0426 0
M  V30 4800 N 450.82 -0.546701 -1.47814 0
M  V30 4801 C 452.097 0.0464413 -1.95545 0
M  V30 4802 C 452.477 1.4962 -1.48919 0
M  V30 4803 O 451.825 2.16752 -0.723232 0
M  V30 4804 C 452.035 -0.0881298 -3.48889 0
M  V30 4805 C 453.383 0.0626059 -4.24554 0
M  V30 4806 O 454.407 -0.0151555 -3.56197 0
M  V30 4807 O 453.266 0.228071 -5.46024 0
M  V30 4808 H 450.36 0.0700004 -0.824032 0
M  V30 4809 H 452.906 -0.612482 -1.58262 0
M  V30 4810 H 451.678 -1.09737 -3.75597 0
M  V30 4811 H 451.301 0.608886 -3.9291 0
M  V30 4812 N 452.299 1.55045 -0.282633 0
M  V30 4813 C 453.545 2.00056 0.332481 0
M  V30 4814 C 453.878 1.1708 1.54939 0
M  V30 4815 O 453.153 0.2427 1.9298 0
M  V30 4816 C 453.436 3.53086 0.70725 0
M  V30 4817 C 453.289 4.46813 -0.517521 0
M  V30 4818 C 454.608 4.12245 1.54084 0
M  V30 4819 H 451.727 0.727268 0.119373 0
M  V30 4820 H 454.369 1.85932 -0.391076 0
M  V30 4821 H 452.519 3.65253 1.32372 0
M  V30 4822 H 454.191 4.46579 -1.15607 0
M  V30 4823 H 452.434 4.18163 -1.1542 0
M  V30 4824 H 453.105 5.51595 -0.211426 0
M  V30 4825 H 455.581 4.03401 1.02013 0
M  V30 4826 H 454.457 5.19515 1.77186 0
M  V30 4827 H 454.718 3.62951 2.52427 0
M  V30 4828 N 453.777 0.010035 1.57597 0
M  V30 4829 C 455.023 -0.673697 1.91283 0
M  V30 4830 C 455.356 -1.72863 0.884979 0
M  V30 4831 O 454.631 -1.94268 -0.0949487 0
M  V30 4832 C 454.914 -1.30766 3.35518 0
M  V30 4833 C 454.767 -0.263578 4.49027 0
M  V30 4834 C 456.086 -2.23105 3.79358 0
M  V30 4835 H 453.205 -0.243439 0.695634 0
M  V30 4836 H 455.847 0.0633864 1.89894 0
M  V30 4837 H 453.997 -1.93588 3.36832 0
M  V30 4838 H 455.669 0.365738 4.59848 0
M  V30 4839 H 453.912 0.413077 4.31829 0
M  V30 4840 H 454.583 -0.746398 5.4693 0
M  V30 4841 H 457.059 -1.70289 3.79659 0
M  V30 4842 H 455.935 -2.64424 4.81011 0
M  V30 4843 H 456.196 -3.11433 3.13787 0
M  V30 4844 N 455.255 -1.55392 -0.262866 0
M  V30 4845 C 456.202 -1.88966 -1.32516 0
M  V30 4846 C 457.172 -0.742187 -1.48596 0
M  V30 4847 O 458.357 -0.99439 -1.62839 0
M  V30 4848 C 455.497 -2.17592 -2.67858 0
M  V30 4849 C 454.61 -3.45061 -2.59917 0
M  V30 4850 C 453.745 -3.63336 -3.87505 0
M  V30 4851 C 452.784 -4.84462 -3.74116 0
M  V30 4852 N 451.921 -4.99342 -4.93561 0
M  V30 4853 H 456.761 -2.79566 -1.03184 0
M  V30 4854 H 454.298 -1.38404 -0.498285 0
M  V30 4855 H 456.256 -2.3219 -3.46617 0
M  V30 4856 H 454.886 -1.30215 -2.95371 0
M  V30 4857 H 453.938 -3.38881 -1.72812 0
M  V30 4858 H 455.25 -4.3396 -2.45926 0
M  V30 4859 H 454.404 -3.77807 -4.74707 0
M  V30 4860 H 453.143 -2.72641 -4.04374 0
M  V30 4861 H 452.148 -4.69985 -2.85297 0
M  V30 4862 H 453.373 -5.76603 -3.58757 0
M  V30 4863 H 451.319 -4.1158 -5.10821 0
M  V30 4864 H 451.236 -5.82303 -4.82141 0
M  V30 4865 H 452.504 -5.18208 -5.82306 0
M  V30 4866 N 456.733 0.527833 -1.48498 0
M  V30 4867 C 457.961 1.30823 -1.6029 0
M  V30 4868 C 458.376 1.86945 -0.263974 0
M  V30 4869 O 457.733 1.6651 0.747034 0
M  V30 4870 C 457.784 2.45756 -2.65116 0
M  V30 4871 O 457.505 1.91946 -3.93813 0
M  V30 4872 C 459.006 3.37543 -2.87367 0
M  V30 4873 H 456.226 0.397763 -0.540394 0
M  V30 4874 H 458.77 0.636529 -1.94341 0
M  V30 4875 H 456.925 3.08806 -2.33917 0
M  V30 4876 H 457.339 2.67195 -4.51339 0
M  V30 4877 H 458.813 4.14532 -3.6451 0
M  V30 4878 H 459.29 3.92905 -1.9627 0
M  V30 4879 H 459.896 2.80283 -3.19878 0
M  V30 4880 N 458.211 1.37122 0.776871 0
M  V30 4881 C 459.459 1.31787 1.53221 0
M  V30 4882 C 459.78 -0.0987589 1.9475 0
M  V30 4883 O 459.05 -1.0417 1.65908 0
M  V30 4884 H 457.63 0.484839 0.568278 0
M  V30 4885 H 460.292 1.71556 0.924917 0
M  V30 4886 H 459.388 1.95355 2.43398 0
M  V30 4887 N 459.689 -1.00246 1.21608 0
M  V30 4888 C 460.938 -1.73476 1.02902 0
M  V30 4889 C 461.251 -1.90643 -0.437561 0
M  V30 4890 O 462.457 -2.61105 -0.74407 0
M  V30 4891 C 460.913 -3.12079 1.79261 0
M  V30 4892 C 460.521 -3.02877 3.30106 0
M  V30 4893 C 462.265 -3.89421 1.68972 0
M  V30 4894 C 460.172 -4.36575 3.98944 0
M  V30 4895 H 459.102 -0.650408 0.381425 0
M  V30 4896 H 461.753 -1.11985 1.45367 0
M  V30 4897 H 460.135 -3.74196 1.2959 0
M  V30 4898 H 461.309 -2.49983 3.87098 0
M  V30 4899 H 459.624 -2.39022 3.40965 0
M  V30 4900 H 462.221 -4.88362 2.17731 0
M  V30 4901 H 462.564 -4.1122 0.648397 0
M  V30 4902 H 463.097 -3.33963 2.16133 0
M  V30 4903 H 459.836 -4.19978 5.03288 0
M  V30 4904 H 459.356 -4.8942 3.4674 0
M  V30 4905 H 461.035 -5.05364 4.04 0
M  V30 4906 N 461.167 -1.02423 -1.1978 0
M  V30 4907 C 462.077 -0.610919 -2.26506 0
M  V30 4908 C 463.093 0.355152 -1.70337 0
M  V30 4909 O 464.269 0.214195 -2.00258 0
M  V30 4910 C 461.334 0.0365921 -3.46681 0
M  V30 4911 C 460.395 -0.976389 -4.18049 0
M  V30 4912 C 459.628 -0.359683 -5.32487 0
M  V30 4913 O 459.851 0.838601 -5.64202 0
M  V30 4914 O 458.785 -1.08022 -5.92127 0
M  V30 4915 H 462.611 -1.49965 -2.64091 0
M  V30 4916 H 460.196 -0.794156 -1.26545 0
M  V30 4917 H 462.078 0.39786 -4.19518 0
M  V30 4918 H 460.753 0.899398 -3.10954 0
M  V30 4919 H 459.66 -1.38916 -3.47352 0
M  V30 4920 H 460.993 -1.80941 -4.57735 0
M  V30 4921 N 462.645 1.35699 -0.801477 0
M  V30 4922 C 463.577 2.28598 -0.166028 0
M  V30 4923 C 464.59 1.50044 0.631721 0
M  V30 4924 O 465.779 1.72339 0.464921 0
M  V30 4925 C 462.879 3.29625 0.787451 0
M  V30 4926 C 462.052 4.37384 0.037171 0
M  V30 4927 C 461.111 5.183 0.908375 0
M  V30 4928 O 460.137 5.68053 0.361189 0
M  V30 4929 N 461.339 5.35912 2.23112 0
M  V30 4930 H 464.104 2.83771 -0.964071 0
M  V30 4931 H 461.665 1.47994 -0.656469 0
M  V30 4932 H 463.657 3.80648 1.37439 0
M  V30 4933 H 462.227 2.75004 1.48632 0
M  V30 4934 H 461.447 3.87364 -0.730935 0
M  V30 4935 H 462.735 5.0653 -0.480109 0
M  V30 4936 H 462.133 4.97125 2.69968 0
M  V30 4937 H 460.69 5.90133 2.76741 0
M  V30 4938 N 464.123 0.554532 1.47522 0
M  V30 4939 C 465.371 0.0294208 2.02079 0
M  V30 4940 C 465.692 -1.32411 1.43151 0
M  V30 4941 O 464.962 -1.863 0.605728 0
M  V30 4942 H 463.542 0.00788672 0.746958 0
M  V30 4943 H 466.204 0.723934 1.80956 0
M  V30 4944 H 465.3 -0.0606745 3.12041 0
M  V30 4945 N 465.601 -1.54893 0.290851 0
M  V30 4946 C 466.826 -2.04804 -0.32712 0
M  V30 4947 C 467.251 -1.16721 -1.47506 0
M  V30 4948 O 466.609 -0.169107 -1.8051 0
M  V30 4949 C 466.657 -3.52268 -0.770689 0
M  V30 4950 O 465.761 -3.67236 -1.87647 0
M  V30 4951 H 465.102 -0.660789 -0.0652227 0
M  V30 4952 H 467.632 -2.00036 0.429739 0
M  V30 4953 H 467.642 -3.9393 -1.06223 0
M  V30 4954 H 466.317 -4.15843 0.069096 0
M  V30 4955 H 464.894 -3.37479 -1.58626 0
M  V30 4956 N 467.08 -0.0183926 -1.57589 0
M  V30 4957 C 468.357 0.700621 -1.82622 0
M  V30 4958 C 468.737 1.90951 -0.90005 0
M  V30 4959 O 468.085 2.28452 0.0469145 0
M  V30 4960 C 468.295 1.08899 -3.31575 0
M  V30 4961 C 469.643 1.48514 -3.9778 0
M  V30 4962 O 470.667 1.18227 -3.36007 0
M  V30 4963 O 469.526 2.04903 -5.06633 0
M  V30 4964 H 466.62 0.342743 -0.752633 0
M  V30 4965 H 469.166 -0.0452548 -1.6964 0
M  V30 4966 H 467.938 0.228113 -3.90635 0
M  V30 4967 H 467.561 1.89338 -3.49624 0
M  V30 4968 N 468.558 1.5553 0.254621 0
M  V30 4969 C 469.521 1.88872 1.29846 0
M  V30 4970 C 470.521 0.764591 1.41459 0
M  V30 4971 O 471.711 1.03265 1.40293 0
M  V30 4972 C 468.843 2.11032 2.67728 0
M  V30 4973 H 470.036 2.82201 1.01502 0
M  V30 4974 H 467.589 1.48303 0.493556 0
M  V30 4975 H 468.324 1.20146 3.01223 0
M  V30 4976 H 468.109 2.92895 2.60682 0
M  V30 4977 H 469.599 2.38038 3.43115 0
M  V30 4978 N 470.036 -0.519951 1.48776 0
M  V30 4979 C 471.284 -1.2727 1.56993 0
M  V30 4980 C 471.605 -1.9339 0.25004 0
M  V30 4981 O 470.875 -1.81822 -0.729216 0
M  V30 4982 H 469.455 -0.472732 0.578389 0
M  V30 4983 H 472.117 -0.604234 1.85297 0
M  V30 4984 H 471.213 -2.04669 2.3562 0
M  V30 4985 N 471.514 -1.37532 -0.769588 0
M  V30 4986 C 472.744 -1.35861 -1.55645 0
M  V30 4987 C 473.152 0.0574398 -1.89113 0
M  V30 4988 O 472.495 1.03021 -1.52093 0
M  V30 4989 C 472.557 -2.13431 -2.89288 0
M  V30 4990 C 472.221 -3.62378 -2.78444 0
M  V30 4991 C 473.218 -4.56215 -2.49326 0
M  V30 4992 C 470.903 -4.05529 -2.96398 0
M  V30 4993 C 472.897 -5.91181 -2.38294 0
M  V30 4994 C 470.584 -5.40579 -2.84987 0
M  V30 4995 C 471.582 -6.33218 -2.55975 0
M  V30 4996 O 471.27 -7.65787 -2.44594 0
M  V30 4997 H 471.002 -0.467001 -0.48876 0
M  V30 4998 H 473.556 -1.81505 -0.961515 0
M  V30 4999 H 471.786 -1.62481 -3.50909 0
M  V30 5000 H 473.475 -2.04368 -3.50697 0
M  V30 5001 H 474.241 -4.24187 -2.35139 0
M  V30 5002 H 470.12 -3.33781 -3.1798 0
M  V30 5003 H 473.664 -6.63457 -2.15571 0
M  V30 5004 H 469.561 -5.72209 -2.98743 0
M  V30 5005 H 470.329 -7.76132 -2.59927 0
M  V30 5006 N 472.992 0.995999 -1.22138 0
M  V30 5007 C 473.922 2.10387 -1.01289 0
M  V30 5008 C 474.903 1.69975 0.0651454 0
M  V30 5009 O 476.088 1.9396 -0.0964628 0
M  V30 5010 C 473.218 3.42312 -0.586517 0
M  V30 5011 C 472.172 3.96558 -1.61014 0
M  V30 5012 C 471.498 5.24494 -1.0397 0
M  V30 5013 C 472.798 4.27595 -2.99933 0
M  V30 5014 H 474.492 2.28086 -1.93951 0
M  V30 5015 H 472.038 1.09607 -0.933928 0
M  V30 5016 H 473.991 4.19223 -0.427793 0
M  V30 5017 H 472.715 3.24431 0.375761 0
M  V30 5018 H 471.374 3.21776 -1.75658 0
M  V30 5019 H 471.022 5.02953 -0.0688703 0
M  V30 5020 H 470.722 5.61755 -1.72352 0
M  V30 5021 H 472.246 6.04042 -0.892494 0
M  V30 5022 H 473.66 4.95315 -2.8868 0
M  V30 5023 H 472.057 4.76021 -3.6541 0
M  V30 5024 H 473.127 3.35498 -3.50099 0
M  V30 5025 N 474.47 1.03057 1.19235 0
M  V30 5026 C 475.71 0.736757 1.9066 0
M  V30 5027 C 476.074 -0.721521 1.77927 0
M  V30 5028 O 477.275 -1.12849 2.43964 0
M  V30 5029 C 475.546 1.17755 3.37444 0
M  V30 5030 S 477.105 1.00783 4.27069 0
M  V30 5031 H 473.923 0.268174 0.658486 0
M  V30 5032 H 476.525 1.32076 1.4414 0
M  V30 5033 H 475.229 2.23448 3.44237 0
M  V30 5034 H 474.76 0.586912 3.88997 0
M  V30 5035 H 476.775 -0.0806356 4.96134 0
M  V30 5036 N 475.948 -1.35272 0.808662 0
M  V30 5037 C 476.858 -2.33546 0.222079 0
M  V30 5038 C 477.874 -1.6196 -0.636011 0
M  V30 5039 O 479.05 -1.93822 -0.547274 0
M  V30 5040 C 476.115 -3.41148 -0.61795 0
M  V30 5041 C 475.176 -4.28507 0.260875 0
M  V30 5042 C 474.409 -5.3097 -0.539156 0
M  V30 5043 O 474.632 -5.42123 -1.77367 0
M  V30 5044 O 473.566 -6.01858 0.0710526 0
M  V30 5045 H 477.392 -2.85515 1.03512 0
M  V30 5046 H 474.977 -1.38079 0.570495 0
M  V30 5047 H 476.859 -4.06889 -1.09634 0
M  V30 5048 H 475.534 -2.91447 -1.40855 0
M  V30 5049 H 474.441 -3.6574 0.786451 0
M  V30 5050 H 475.774 -4.81611 1.01547 0
M  V30 5051 N 477.426 -0.562348 -1.47226 0
M  V30 5052 C 478.651 -0.0432632 -2.07355 0
M  V30 5053 C 479.076 1.24332 -1.41149 0
M  V30 5054 O 478.434 1.74603 -0.488226 0
M  V30 5055 C 478.482 0.130288 -3.60365 0
M  V30 5056 O 477.586 1.19166 -3.94808 0
M  V30 5057 H 476.927 -0.0536334 -0.66183 0
M  V30 5058 H 479.457 -0.779495 -1.89169 0
M  V30 5059 H 479.467 0.342881 -4.06557 0
M  V30 5060 H 478.142 -0.809389 -4.07948 0
M  V30 5061 H 476.719 0.959153 -3.60354 0
M  V30 5062 N 478.904 1.54736 -0.299062 0
M  V30 5063 C 479.836 2.20891 0.61153 0
M  V30 5064 C 480.849 1.20104 1.09904 0
M  V30 5065 O 482.038 1.46707 1.01683 0
M  V30 5066 C 479.138 2.84018 1.84897 0
M  V30 5067 C 478.311 4.10719 1.50428 0
M  V30 5068 C 477.37 4.57667 2.59667 0
M  V30 5069 O 476.396 5.2291 2.24842 0
M  V30 5070 N 477.598 4.29821 3.90172 0
M  V30 5071 H 480.363 2.99666 0.0452001 0
M  V30 5072 H 477.924 1.61446 -0.121178 0
M  V30 5073 H 479.916 3.1236 2.5732 0
M  V30 5074 H 478.486 2.09095 2.32375 0
M  V30 5075 H 477.706 3.89408 0.612781 0
M  V30 5076 H 478.994 4.93223 1.24934 0
M  V30 5077 H 478.392 3.77549 4.21276 0
M  V30 5078 H 476.949 4.62877 4.58899 0
M  V30 5079 N 480.382 0.0267497 1.57577 0
M  V30 5080 C 481.329 -0.955894 2.10075 0
M  V30 5081 C 482.299 -1.32453 1.00226 0
M  V30 5082 O 483.484 -1.41826 1.27632 0
M  V30 5083 C 480.624 -2.2338 2.6305 0
M  V30 5084 C 479.737 -1.92183 3.86898 0
M  V30 5085 C 478.872 -3.14251 4.28275 0
M  V30 5086 C 477.911 -2.78862 5.44888 0
M  V30 5087 N 477.048 -3.93548 5.81433 0
M  V30 5088 H 481.888 -0.501303 2.93753 0
M  V30 5089 H 479.425 -0.235847 1.45197 0
M  V30 5090 H 481.383 -2.98124 2.91853 0
M  V30 5091 H 480.013 -2.6646 1.82205 0
M  V30 5092 H 479.065 -1.07692 3.64838 0
M  V30 5093 H 480.377 -1.62117 4.7172 0
M  V30 5094 H 479.531 -3.97317 4.58502 0
M  V30 5095 H 478.27 -3.47476 3.42215 0
M  V30 5096 H 477.275 -1.94208 5.14357 0
M  V30 5097 H 478.5 -2.46855 6.32645 0
M  V30 5098 H 476.446 -4.2662 4.98328 0
M  V30 5099 H 476.363 -3.67098 6.6089 0
M  V30 5100 H 477.631 -4.77325 6.16264 0
M  V30 5101 N 481.861 -1.55662 -0.24637 0
M  V30 5102 C 483.108 -1.77519 -0.974335 0
M  V30 5103 C 483.436 -0.591165 -1.85298 0
M  V30 5104 O 482.691 0.425497 -1.91018 0
M  V30 5105 C 482.99 -3.04885 -1.86494 0
M  V30 5106 C 482.656 -4.36209 -1.14161 0
M  V30 5107 C 481.318 -4.71896 -0.941701 0
M  V30 5108 C 483.67 -5.17391 -0.628957 0
M  V30 5109 C 480.998 -5.86299 -0.216852 0
M  V30 5110 C 483.35 -6.32546 0.0824273 0
M  V30 5111 C 482.014 -6.66853 0.293807 0
M  V30 5112 H 481.284 -0.649588 -0.356535 0
M  V30 5113 H 483.931 -1.89934 -0.244394 0
M  V30 5114 H 482.236 -2.87484 -2.66196 0
M  V30 5115 H 483.933 -3.18994 -2.42989 0
M  V30 5116 H 480.523 -4.08174 -1.30736 0
M  V30 5117 H 484.707 -4.90276 -0.770943 0
M  V30 5118 H 479.963 -6.11385 -0.0426124 0
M  V30 5119 H 484.137 -6.94693 0.487292 0
M  V30 5120 H 481.764 -7.55349 0.857428 0
M  V30 5121 N 483.339 0.512053 -1.4905 0
M  V30 5122 C 484.587 1.26436 -1.57665 0
M  V30 5123 C 484.908 1.93255 -0.260293 0
M  V30 5124 O 484.178 1.82206 0.719564 0
M  V30 5125 H 482.758 0.469658 -0.580888 0
M  V30 5126 H 485.42 0.594398 -1.85615 0
M  V30 5127 H 484.516 2.03417 -2.36702 0
M  V30 5128 N 484.817 1.37938 0.762283 0
M  V30 5129 C 485.727 1.36681 1.90671 0
M  V30 5130 C 486.743 0.265078 1.71969 0
M  V30 5131 O 487.919 0.502055 1.95042 0
M  V30 5132 C 484.984 1.18211 3.25925 0
M  V30 5133 C 484.045 2.3811 3.57214 0
M  V30 5134 C 483.278 2.20512 4.86014 0
M  V30 5135 O 483.501 1.19429 5.57757 0
M  V30 5136 O 482.435 3.08911 5.16583 0
M  V30 5137 H 486.261 2.33091 1.94685 0
M  V30 5138 H 483.846 1.18767 0.906356 0
M  V30 5139 H 485.728 1.09937 4.06807 0
M  V30 5140 H 484.403 0.248807 3.22742 0
M  V30 5141 H 483.31 2.51958 2.76529 0
M  V30 5142 H 484.643 3.30041 3.65149 0
M  V30 5143 N 486.295 -0.989507 1.22664 0
M  V30 5144 C 487.225 -2.09847 1.02404 0
M  V30 5145 C 488.206 -1.70007 -0.0561303 0
M  V30 5146 O 489.391 -1.93906 0.106748 0
M  V30 5147 C 486.521 -3.41996 0.604663 0
M  V30 5148 C 485.475 -3.95699 1.63115 0
M  V30 5149 C 484.801 -5.23936 1.0675 0
M  V30 5150 C 486.101 -4.25999 3.02196 0
M  V30 5151 H 487.795 -2.27054 1.95158 0
M  V30 5152 H 485.341 -1.09111 0.939727 0
M  V30 5153 H 487.294 -4.1899 0.45002 0
M  V30 5154 H 486.018 -3.24626 -0.35855 0
M  V30 5155 H 484.677 -3.2084 1.77362 0
M  V30 5156 H 484.325 -5.02909 0.0955422 0
M  V30 5157 H 484.025 -5.60833 1.75328 0
M  V30 5158 H 485.549 -6.0356 0.924516 0
M  V30 5159 H 486.963 -4.93777 2.91303 0
M  V30 5160 H 485.36 -4.74076 3.67929 0
M  V30 5161 H 486.43 -3.33636 3.51873 0
M  V30 5162 N 487.773 -1.03688 -1.18687 0
M  V30 5163 C 489.019 -0.739123 -1.88851 0
M  V30 5164 C 489.352 0.731042 -1.79915 0
M  V30 5165 O 488.627 1.53313 -1.19688 0
M  V30 5166 C 488.91 -1.20106 -3.3948 0
M  V30 5167 C 488.763 -2.73304 -3.57246 0
M  V30 5168 C 490.082 -0.788134 -4.32986 0
M  V30 5169 H 487.201 -0.269978 -0.68577 0
M  V30 5170 H 489.843 -1.28822 -1.3966 0
M  V30 5171 H 487.993 -0.733915 -3.81505 0
M  V30 5172 H 489.665 -3.28027 -3.24339 0
M  V30 5173 H 487.908 -3.13313 -3.00029 0
M  V30 5174 H 488.579 -3.00684 -4.62918 0
M  V30 5175 H 491.055 -1.19005 -3.98719 0
M  V30 5176 H 489.931 -1.13915 -5.36949 0
M  V30 5177 H 490.192 0.308988 -4.41019 0
M  V30 5178 N 489.251 1.34841 -0.815825 0
M  V30 5179 C 490.184 2.27504 -0.178062 0
M  V30 5180 C 491.162 1.48542 0.661373 0
M  V30 5181 O 492.346 1.77779 0.626653 0
M  V30 5182 C 489.473 3.30246 0.752002 0
M  V30 5183 C 488.519 4.26499 -0.00899172 0
M  V30 5184 S 489.352 5.18169 -1.35134 0
M  V30 5185 C 490.508 6.24449 -0.42596 0
M  V30 5186 H 490.741 2.81248 -0.963684 0
M  V30 5187 H 488.274 1.41781 -0.611355 0
M  V30 5188 H 490.232 3.89933 1.28308 0
M  V30 5189 H 488.893 2.75363 1.51109 0
M  V30 5190 H 488.086 4.99146 0.697766 0
M  V30 5191 H 487.688 3.7103 -0.470396 0
M  V30 5192 H 489.98 6.76404 0.385234 0
M  V30 5193 H 490.923 6.99156 -1.1219 0
M  V30 5194 H 491.331 5.64497 -0.0175461 0
M  V30 5195 N 490.729 0.570148 1.46925 0
M  V30 5196 C 491.957 0.0561966 2.06824 0
M  V30 5197 C 492.372 -1.24326 1.42086 0
M  V30 5198 O 491.729 -1.74882 0.521794 0
M  V30 5199 C 491.78 -0.129517 3.61268 0
M  V30 5200 O 491.501 1.1185 4.23581 0
M  V30 5201 C 493.002 -0.679266 4.38065 0
M  V30 5202 H 490.222 0.0517261 0.669003 0
M  V30 5203 H 492.766 0.787243 1.8874 0
M  V30 5204 H 490.921 -0.810739 3.78822 0
M  V30 5205 H 491.335 0.924375 5.1629 0
M  V30 5206 H 492.809 -0.758445 5.46765 0
M  V30 5207 H 493.286 -1.69346 4.05239 0
M  V30 5208 H 493.892 -0.0333237 4.25287 0
M  V30 5209 N 492.207 -1.54576 0.307264 0
M  V30 5210 C 493.154 -2.23751 -0.56604 0
M  V30 5211 C 494.124 -1.22235 -1.12462 0
M  V30 5212 O 495.309 -1.50873 -1.16799 0
M  V30 5213 C 492.449 -2.98661 -1.72903 0
M  V30 5214 C 491.562 -4.14963 -1.20124 0
M  V30 5215 C 490.697 -4.77441 -2.3286 0
M  V30 5216 C 489.736 -5.85875 -1.77247 0
M  V30 5217 N 488.873 -6.42282 -2.8358 0
M  V30 5218 H 493.713 -2.97984 0.0304578 0
M  V30 5219 H 491.25 -1.47076 0.0268015 0
M  V30 5220 H 493.208 -3.40329 -2.41313 0
M  V30 5221 H 491.838 -2.26793 -2.29706 0
M  V30 5222 H 490.89 -3.78193 -0.409198 0
M  V30 5223 H 492.202 -4.93066 -0.754171 0
M  V30 5224 H 491.356 -5.21993 -3.09205 0
M  V30 5225 H 490.095 -3.98684 -2.80896 0
M  V30 5226 H 489.1 -5.40741 -0.993926 0
M  V30 5227 H 490.325 -6.6652 -1.30107 0
M  V30 5228 H 488.271 -5.66406 -3.30939 0
M  V30 5229 H 488.188 -7.1575 -2.43388 0
M  V30 5230 H 489.456 -6.91492 -3.59804 0
M  V30 5231 N 493.685 -0.035106 -1.57561 0
M  V30 5232 C 494.595 0.960295 -2.14046 0
M  V30 5233 C 495.611 1.3529 -1.0942 0
M  V30 5234 O 496.787 1.43309 -1.41508 0
M  V30 5235 C 493.852 2.22214 -2.66124 0
M  V30 5236 C 492.913 1.8894 -3.85487 0
M  V30 5237 C 492.146 3.09109 -4.35072 0
M  V30 5238 O 492.369 4.21963 -3.83802 0
M  V30 5239 O 491.303 2.91058 -5.26848 0
M  V30 5240 H 495.129 0.509983 -2.99387 0
M  V30 5241 H 492.714 0.185853 -1.48239 0
M  V30 5242 H 494.596 2.96279 -2.99661 0
M  V30 5243 H 493.271 2.66414 -1.83862 0
M  V30 5244 H 492.178 1.12241 -3.56865 0
M  V30 5245 H 493.511 1.49551 -4.6893 0
M  V30 5246 N 495.163 1.55791 0.238111 0
M  V30 5247 C 496.388 1.8244 0.986432 0
M  V30 5248 C 496.813 0.613314 1.7782 0
M  V30 5249 O 496.171 -0.437767 1.75935 0
M  V30 5250 C 496.219 3.06917 1.893 0
M  V30 5251 O 495.323 2.84449 2.98601 0
M  V30 5252 H 494.664 0.601975 0.280218 0
M  V30 5253 H 497.194 2.02987 0.256437 0
M  V30 5254 H 497.204 3.36583 2.30598 0
M  V30 5255 H 495.879 3.947 1.31091 0
M  V30 5256 H 494.456 2.65972 2.61368 0
M  V30 5257 N 496.642 -0.504142 1.49319 0
M  V30 5258 C 497.589 -1.60603 1.65756 0
M  V30 5259 C 498.559 -1.58425 0.499082 0
M  V30 5260 O 499.744 -1.76459 0.725728 0
M  V30 5261 C 496.884 -2.98764 1.72726 0
M  V30 5262 C 495.997 -3.10982 2.99857 0
M  V30 5263 C 495.132 -4.39857 2.97824 0
M  V30 5264 C 494.171 -4.45697 4.19548 0
M  V30 5265 N 493.308 -5.65995 4.15444 0
M  V30 5266 H 498.148 -1.45895 2.59843 0
M  V30 5267 H 495.685 -0.709891 1.28837 0
M  V30 5268 H 497.643 -3.78839 1.74747 0
M  V30 5269 H 496.273 -3.12183 0.821075 0
M  V30 5270 H 495.325 -2.23991 3.07461 0
M  V30 5271 H 496.637 -3.11157 3.89849 0
M  V30 5272 H 495.791 -5.2825 2.98391 0
M  V30 5273 H 494.53 -4.42242 2.05604 0
M  V30 5274 H 493.535 -3.55707 4.19229 0
M  V30 5275 H 494.76 -4.4503 5.12957 0
M  V30 5276 H 492.706 -5.69229 3.26059 0
M  V30 5277 H 492.623 -5.67773 4.99169 0
M  V30 5278 H 493.891 -6.56604 4.20109 0
M  V30 5279 N 498.12 -1.38341 -0.754957 0
M  V30 5280 C 499.083 -1.35262 -1.85032 0
M  V30 5281 C 500.083 -0.253393 -1.58791 0
M  V30 5282 O 501.273 -0.510205 -1.66561 0
M  V30 5283 C 498.405 -1.10544 -3.22479 0
M  V30 5284 H 499.598 -2.32712 -1.8917 0
M  V30 5285 H 497.151 -1.23614 -0.956515 0
M  V30 5286 H 497.886 -0.136952 -3.24011 0
M  V30 5287 H 497.671 -1.90127 -3.4292 0
M  V30 5288 H 499.161 -1.11082 -4.02555 0
M  V30 5289 N 499.598 0.982988 -1.23187 0
M  V30 5290 C 500.528 2.09301 -1.03515 0
M  V30 5291 C 501.509 1.70035 0.0471136 0
M  V30 5292 O 502.694 1.93847 -0.117029 0
M  V30 5293 C 499.824 3.4167 -0.622791 0
M  V30 5294 C 498.778 3.94828 -1.65211 0
M  V30 5295 C 498.104 5.23362 -1.09527 0
M  V30 5296 C 499.404 4.2439 -3.04451 0
M  V30 5297 H 501.098 2.26016 -1.96359 0
M  V30 5298 H 498.644 1.08611 -0.945501 0
M  V30 5299 H 500.597 4.18746 -0.472233 0
M  V30 5300 H 499.321 3.24811 0.341329 0
M  V30 5301 H 497.98 3.19895 -1.79061 0
M  V30 5302 H 497.628 5.02852 -0.122211 0
M  V30 5303 H 497.328 5.59895 -1.783 0
M  V30 5304 H 498.852 6.03062 -0.956511 0
M  V30 5305 H 500.266 4.92225 -2.93917 0
M  V30 5306 H 498.663 4.72118 -3.70438 0
M  V30 5307 H 499.733 3.31765 -3.53638 0
M  V30 5308 N 501.076 1.04316 1.18135 0
M  V30 5309 C 502.009 0.580823 2.20685 0
M  V30 5310 C 502.987 -0.385943 1.57953 0
M  V30 5311 O 504.171 -0.299654 1.86103 0
M  V30 5312 C 501.298 -0.151162 3.38363 0
M  V30 5313 C 500.344 0.769247 4.19505 0
M  V30 5314 S 501.177 2.25352 4.85774 0
M  V30 5315 C 502.333 1.53246 6.0685 0
M  V30 5316 H 502.566 1.44968 2.5956 0
M  V30 5317 H 500.099 0.85434 1.28609 0
M  V30 5318 H 502.057 -0.567315 4.06561 0
M  V30 5319 H 500.718 -0.995936 2.97892 0
M  V30 5320 H 499.911 0.203335 5.0359 0
M  V30 5321 H 499.513 1.12436 3.56699 0
M  V30 5322 H 501.805 0.82689 6.72435 0
M  V30 5323 H 502.748 2.35044 6.67952 0
M  V30 5324 H 503.156 1.0237 5.5514 0
M  V30 5325 N 502.554 -1.34406 0.822964 0
M  V30 5326 C 503.802 -1.97892 0.410245 0
M  V30 5327 C 504.123 -1.65567 -1.03017 0
M  V30 5328 O 503.393 -0.94642 -1.71522 0
M  V30 5329 H 501.973 -0.732049 0.148707 0
M  V30 5330 H 504.635 -1.64043 1.05242 0
M  V30 5331 H 503.731 -3.07579 0.529284 0
M  V30 5332 N 504.032 -0.577932 -1.46621 0
M  V30 5333 C 504.962 0.145917 -2.33044 0
M  V30 5334 C 505.943 0.888412 -1.45056 0
M  V30 5335 O 507.128 0.864812 -1.73881 0
M  V30 5336 C 504.258 1.16322 -3.27241 0
M  V30 5337 C 503.212 0.535868 -4.24632 0
M  V30 5338 C 502.538 1.65929 -5.08303 0
M  V30 5339 C 503.838 -0.523861 -5.19666 0
M  V30 5340 H 505.532 -0.575636 -2.93814 0
M  V30 5341 H 503.078 -0.278272 -1.41286 0
M  V30 5342 H 505.031 1.67793 -3.86553 0
M  V30 5343 H 503.755 1.91498 -2.64567 0
M  V30 5344 H 502.414 0.0422759 -3.66576 0
M  V30 5345 H 502.062 2.40061 -4.42018 0
M  V30 5346 H 501.762 1.2452 -5.74255 0
M  V30 5347 H 503.286 2.17686 -5.70478 0
M  V30 5348 H 504.7 -0.0944059 -5.73222 0
M  V30 5349 H 503.097 -0.858 -5.93935 0
M  V30 5350 H 504.167 -1.41197 -4.63887 0
M  V30 5351 N 505.51 1.54411 -0.315457 0
M  V30 5352 C 506.74 2.04536 0.291315 0
M  V30 5353 C 507.148 1.19162 1.4696 0
M  V30 5354 O 506.491 0.213199 1.82459 0
M  V30 5355 C 506.553 3.5056 0.796725 0
M  V30 5356 C 506.217 4.5627 -0.258178 0
M  V30 5357 C 507.214 5.08312 -1.09153 0
M  V30 5358 C 504.899 5.00672 -0.404036 0
M  V30 5359 C 506.893 6.03312 -2.05655 0
M  V30 5360 C 504.58 5.95488 -1.37248 0
M  V30 5361 C 505.578 6.46693 -2.19721 0
M  V30 5362 O 505.266 7.39648 -3.14921 0
M  V30 5363 H 504.998 0.672856 0.0651165 0
M  V30 5364 H 507.552 2.00244 -0.457308 0
M  V30 5365 H 505.782 3.52223 1.59612 0
M  V30 5366 H 507.471 3.83804 1.32096 0
M  V30 5367 H 508.237 4.74793 -0.98979 0
M  V30 5368 H 504.116 4.60436 0.22799 0
M  V30 5369 H 507.66 6.43203 -2.70067 0
M  V30 5370 H 503.557 6.28424 -1.47489 0
M  V30 5371 H 504.325 7.57496 -3.10067 0
M  V30 5372 N 506.988 0.0434614 1.5754 0
M  V30 5373 C 507.938 -0.943039 2.07583 0
M  V30 5374 C 508.922 -1.27662 0.979342 0
M  V30 5375 O 510.114 -1.26034 1.24276 0
M  V30 5376 C 507.243 -2.22056 2.61813 0
M  V30 5377 C 506.329 -1.91471 3.78417 0
M  V30 5378 N 506.72 -1.31214 4.88484 0
M  V30 5379 C 505.018 -2.21384 3.87176 0
M  V30 5380 C 505.719 -1.18084 5.69588 0
M  V30 5381 N 504.695 -1.68116 5.16951 0
M  V30 5382 H 508.497 -0.472354 2.90079 0
M  V30 5383 H 506.011 -0.161191 1.61598 0
M  V30 5384 H 508.008 -2.93618 2.95963 0
M  V30 5385 H 506.668 -2.69738 1.80752 0
M  V30 5386 H 507.679 -0.985318 5.08441 0
M  V30 5387 H 504.356 -2.7164 3.17046 0
M  V30 5388 H 505.746 -0.713684 6.68099 0
M  V30 5389 N 508.466 -1.55915 -0.229846 0
M  V30 5390 C 509.714 -1.7819 -0.953565 0
M  V30 5391 C 510.035 -0.610504 -1.85197 0
M  V30 5392 O 509.305 0.372988 -1.92316 0
M  V30 5393 H 507.885 -0.657208 -0.355087 0
M  V30 5394 H 510.547 -1.9337 -0.243693 0
M  V30 5395 H 509.643 -2.70011 -1.56527 0
M  V30 5396 N 509.944 0.496216 -1.49584 0
M  V30 5397 C 510.876 1.61404 -1.62731 0
M  V30 5398 C 511.889 1.54613 -0.50978 0
M  V30 5399 O 513.078 1.60458 -0.782017 0
M  V30 5400 C 510.178 3.00212 -1.57245 0
M  V30 5401 C 509.351 3.32138 -2.84611 0
M  V30 5402 C 508.41 4.5038 -2.72112 0
M  V30 5403 O 507.436 4.51926 -3.46051 0
M  V30 5404 N 508.638 5.50575 -1.83977 0
M  V30 5405 H 511.403 1.50552 -2.59141 0
M  V30 5406 H 508.964 0.684182 -1.46733 0
M  V30 5407 H 510.956 3.77241 -1.4653 0
M  V30 5408 H 509.526 3.04964 -0.686729 0
M  V30 5409 H 508.746 2.4396 -3.09641 0
M  V30 5410 H 510.034 3.50268 -3.69039 0
M  V30 5411 H 509.432 5.52128 -1.23171 0
M  V30 5412 H 507.989 6.26687 -1.79182 0
M  V30 5413 N 511.423 1.38739 0.74761 0
M  V30 5414 C 512.669 1.35475 1.50912 0
M  V30 5415 C 513.002 -0.0533093 1.94127 0
M  V30 5416 O 512.277 -1.01572 1.65871 0
M  V30 5417 C 512.56 2.31582 2.75757 0
M  V30 5418 C 512.413 3.81274 2.38642 0
M  V30 5419 C 513.732 2.25722 3.77806 0
M  V30 5420 H 510.851 0.493427 0.547447 0
M  V30 5421 H 513.493 1.69634 0.855823 0
M  V30 5422 H 511.643 2.02582 3.31501 0
M  V30 5423 H 513.315 4.20972 1.88626 0
M  V30 5424 H 511.558 3.98664 1.71025 0
M  V30 5425 H 512.229 4.4399 3.27989 0
M  V30 5426 H 514.705 2.51336 3.31616 0
M  V30 5427 H 513.581 2.95069 4.62845 0
M  V30 5428 H 513.842 1.25803 4.23823 0
M  V30 5429 N 512.901 -0.976442 1.23707 0
M  V30 5430 C 513.831 -2.08749 1.04624 0
M  V30 5431 C 514.812 -1.70057 -0.0380956 0
M  V30 5432 O 515.997 -1.93782 0.127308 0
M  V30 5433 C 513.127 -3.41335 0.640902 0
M  V30 5434 C 512.081 -3.93947 1.67302 0
M  V30 5435 C 511.407 -5.22774 1.12301 0
M  V30 5436 C 512.707 -4.22769 3.06697 0
M  V30 5437 H 514.401 -2.24972 1.97555 0
M  V30 5438 H 511.947 -1.08108 0.951247 0
M  V30 5439 H 513.9 -4.18489 0.494434 0
M  V30 5440 H 512.624 -3.24988 -0.324099 0
M  V30 5441 H 511.283 -3.18941 1.80755 0
M  V30 5442 H 510.931 -5.0278 0.148877 0
M  V30 5443 H 510.631 -5.58942 1.81267 0
M  V30 5444 H 512.155 -6.02546 0.988479 0
M  V30 5445 H 513.569 -4.90659 2.96524 0
M  V30 5446 H 511.966 -4.70147 3.72937 0
M  V30 5447 H 513.036 -3.29885 3.55392 0
M  V30 5448 N 514.379 -1.04941 -1.1758 0
M  V30 5449 C 515.619 -0.766996 -1.89464 0
M  V30 5450 C 515.983 0.693123 -1.79053 0
M  V30 5451 O 517.184 1.08953 -2.45729 0
M  V30 5452 C 515.455 -1.23108 -3.35528 0
M  V30 5453 S 517.014 -1.07565 -4.25412 0
M  V30 5454 H 513.832 -0.278616 -0.654136 0
M  V30 5455 H 516.434 -1.34352 -1.4202 0
M  V30 5456 H 515.138 -2.28896 -3.40639 0
M  V30 5457 H 514.669 -0.648724 -3.88014 0
M  V30 5458 H 516.684 0.00169467 -4.962 0
M  V30 5459 N 515.857 1.33968 -0.830081 0
M  V30 5460 C 516.804 2.29387 -0.255008 0
M  V30 5461 C 517.774 1.53923 0.624243 0
M  V30 5462 O 518.959 1.82262 0.564372 0
M  V30 5463 C 516.099 3.4034 0.571209 0
M  V30 5464 C 515.212 4.30729 -0.331083 0
M  V30 5465 C 514.347 5.2879 0.505389 0
M  V30 5466 C 513.386 6.10819 -0.395843 0
M  V30 5467 N 512.523 7.00948 0.401979 0
M  V30 5468 H 517.363 2.77972 -1.07404 0
M  V30 5469 H 514.9 1.36785 -0.541133 0
M  V30 5470 H 516.858 4.03361 1.06562 0
M  V30 5471 H 515.488 2.9297 1.35529 0
M  V30 5472 H 514.54 3.68507 -0.943759 0
M  V30 5473 H 515.852 4.88181 -1.02377 0
M  V30 5474 H 515.006 5.97297 1.06399 0
M  V30 5475 H 513.745 4.71894 1.23155 0
M  V30 5476 H 512.75 5.41238 -0.966529 0
M  V30 5477 H 513.975 6.69797 -1.12023 0
M  V30 5478 H 511.921 6.46512 1.11168 0
M  V30 5479 H 511.838 7.55643 -0.232167 0
M  V30 5480 H 513.106 7.73774 0.943102 0
M  V30 5481 N 517.335 0.585699 1.46312 0
M  V30 5482 C 518.282 -0.145835 2.30339 0
M  V30 5483 C 519.252 -0.881215 1.40797 0
M  V30 5484 O 520.437 -0.871293 1.69744 0
M  V30 5485 C 517.577 -1.15161 3.25318 0
M  V30 5486 C 516.69 -0.419367 4.2996 0
M  V30 5487 C 515.825 -1.41293 5.12064 0
M  V30 5488 C 514.864 -0.667261 6.08452 0
M  V30 5489 N 514.001 -1.60903 6.83414 0
M  V30 5490 H 518.841 0.576755 2.92365 0
M  V30 5491 H 516.378 0.296237 1.44086 0
M  V30 5492 H 518.336 -1.74763 3.78832 0
M  V30 5493 H 516.966 -1.84188 2.65094 0
M  V30 5494 H 516.018 0.291751 3.7928 0
M  V30 5495 H 517.33 0.163433 4.98532 0
M  V30 5496 H 516.484 -2.08167 5.6987 0
M  V30 5497 H 515.223 -2.02966 4.43459 0
M  V30 5498 H 514.228 0.0152356 5.49798 0
M  V30 5499 H 515.453 -0.0558817 6.79077 0
M  V30 5500 H 513.399 -2.21381 6.17516 0
M  V30 5501 H 513.316 -1.07911 7.48259 0
M  V30 5502 H 514.584 -2.26802 7.45775 0
M  V30 5503 N 518.813 -1.54241 0.323641 0
M  V30 5504 C 519.761 -2.25813 -0.557804 0
M  V30 5505 C 520.755 -1.27225 -1.11849 0
M  V30 5506 O 521.961 -1.45001 -1.06652 0
M  V30 5507 H 518.336 -0.72532 -0.198532 0
M  V30 5508 H 520.307 -2.98322 0.0681112 0
M  V30 5509 C 519.056 -3.02913 -1.70701 0
M  V30 5510 H 518.379 -3.78593 -1.28482 0
M  V30 5511 H 519.819 -3.56238 -2.29935 0
M  V30 5512 C 518.278 -2.11217 -2.62467 0
M  V30 5513 O 518.808 -1.69508 -3.64184 0
M  V30 5514 N 517.014 -1.76704 -2.30703 0
M  V30 5515 H 516.561 -2.1082 -1.48029 0
M  V30 5516 H 516.519 -1.15631 -2.92364 0
M  V30 5517 N 520.291 -0.0518155 -1.57515 0
M  V30 5518 C 521.238 0.922352 -2.11569 0
M  V30 5519 C 522.208 1.30842 -1.02321 0
M  V30 5520 O 523.393 1.39778 -1.29872 0
M  V30 5521 C 520.533 2.19167 -2.6657 0
M  V30 5522 C 519.646 1.86003 -3.89906 0
M  V30 5523 C 518.781 3.07398 -4.33221 0
M  V30 5524 C 517.82 2.70158 -5.49255 0
M  V30 5525 N 516.957 3.84248 -5.8762 0
M  V30 5526 H 521.797 0.454506 -2.94514 0
M  V30 5527 H 519.334 0.212718 -1.45554 0
M  V30 5528 H 521.292 2.93443 -2.96559 0
M  V30 5529 H 519.922 2.63528 -1.86421 0
M  V30 5530 H 518.974 1.01874 -3.66505 0
M  V30 5531 H 520.286 1.54592 -4.74239 0
M  V30 5532 H 519.44 3.89972 -4.64765 0
M  V30 5533 H 518.179 3.41988 -3.477 0
M  V30 5534 H 517.184 1.86001 -5.17382 0
M  V30 5535 H 518.409 2.36759 -6.36492 0
M  V30 5536 H 516.355 4.18638 -5.05053 0
M  V30 5537 H 516.272 3.56538 -6.66646 0
M  V30 5538 H 517.54 4.6746 -6.2378 0
M  V30 5539 N 521.769 1.56035 0.221574 0
M  V30 5540 C 523.016 1.79047 0.94597 0
M  V30 5541 C 523.344 0.62057 1.84334 0
M  V30 5542 O 522.599 -0.395053 1.91671 0
M  V30 5543 C 522.898 3.07813 1.8162 0
M  V30 5544 C 522.564 4.3797 1.07206 0
M  V30 5545 C 521.226 4.73334 0.866508 0
M  V30 5546 C 523.578 5.18326 0.546565 0
M  V30 5547 C 520.906 5.8657 0.123549 0
M  V30 5548 C 523.258 6.32335 -0.18305 0
M  V30 5549 C 521.922 6.66301 -0.399861 0
M  V30 5550 H 521.192 0.655178 0.346155 0
M  V30 5551 H 523.839 1.90299 0.214146 0
M  V30 5552 H 522.144 2.91682 2.61589 0
M  V30 5553 H 523.841 3.2282 2.37884 0
M  V30 5554 H 520.431 4.10202 1.24226 0
M  V30 5555 H 524.615 4.9144 0.692847 0
M  V30 5556 H 519.871 6.11376 -0.0546591 0
M  V30 5557 H 524.045 6.9383 -0.59775 0
M  V30 5558 H 521.672 7.53889 -0.977489 0
M  V30 5559 N 523.247 -0.488276 1.49845 0
M  V30 5560 C 524.495 -1.23911 1.59657 0
M  V30 5561 C 524.816 -1.92816 0.291005 0
M  V30 5562 O 524.086 -1.83328 -0.690485 0
M  V30 5563 H 522.666 -0.460357 0.588286 0
M  V30 5564 H 525.328 -0.564794 1.86537 0
M  V30 5565 H 524.424 -1.99625 2.39909 0
M  V30 5566 N 524.725 -1.39134 -0.740242 0
M  V30 5567 C 525.688 -1.37217 -1.83587 0
M  V30 5568 C 526.688 -0.270221 -1.58513 0
M  V30 5569 O 527.878 -0.527843 -1.6601 0
M  V30 5570 C 525.01 -1.13959 -3.21288 0
M  V30 5571 H 526.203 -2.34705 -1.86691 0
M  V30 5572 H 523.756 -1.24622 -0.94335 0
M  V30 5573 H 524.491 -0.17131 -3.23847 0
M  V30 5574 H 524.276 -1.93754 -3.40884 0
M  V30 5575 H 525.766 -1.15346 -4.01354 0
M  V30 5576 N 526.204 0.969867 -1.24223 0
M  V30 5577 C 527.615 1.52717 -1.07399 0
M  V30 5578 C 527.966 1.92956 0.355298 0
M  V30 5579 O 527.091 1.77112 1.2434 0
M  V30 5580 C 527.686 2.77521 -1.94339 0
M  V30 5581 C 526.245 3.29615 -1.81744 0
M  V30 5582 C 525.392 2.02537 -1.89405 0
M  V30 5583 H 528.343 0.788399 -1.37732 0
M  V30 5584 H 528.364 3.50773 -1.47439 0
M  V30 5585 H 527.876 2.48203 -2.98357 0
M  V30 5586 H 525.977 3.63789 -0.805505 0
M  V30 5587 H 526.09 3.98661 -2.65718 0
M  V30 5588 H 524.454 2.17151 -1.33108 0
M  V30 5589 H 525.237 1.75587 -2.94999 0
M  V30 5590 N 527.682 1.05563 1.17022 0
M  V30 5591 C 528.614 0.617888 2.20714 0
M  V30 5592 C 529.627 -0.320303 1.59618 0
M  V30 5593 O 530.816 -0.112449 1.78145 0
M  V30 5594 C 527.916 -0.115333 3.38704 0
M  V30 5595 C 527.089 0.834493 4.29366 0
M  V30 5596 C 526.148 0.141855 5.26009 0
M  V30 5597 O 525.174 0.777151 5.6387 0
M  V30 5598 N 526.376 -1.11934 5.69606 0
M  V30 5599 H 529.141 1.50981 2.58892 0
M  V30 5600 H 526.702 0.938008 1.31958 0
M  V30 5601 H 528.694 -0.588918 4.00392 0
M  V30 5602 H 527.264 -0.908967 2.99093 0
M  V30 5603 H 526.484 1.48762 3.65053 0
M  V30 5604 H 527.772 1.4791 4.86827 0
M  V30 5605 H 527.17 -1.65574 5.40927 0
M  V30 5606 H 525.727 -1.53692 6.33421 0
M  V30 5607 N 529.16 -1.33526 0.837174 0
M  V30 5608 C 530.107 -2.29248 0.267169 0
M  V30 5609 C 531.077 -1.54252 -0.616071 0
M  V30 5610 O 532.262 -1.82559 -0.554699 0
M  V30 5611 C 529.402 -3.40638 -0.553152 0
M  V30 5612 C 528.515 -4.30548 0.353921 0
M  V30 5613 C 527.65 -5.29051 -0.477339 0
M  V30 5614 C 526.689 -6.106 0.42823 0
M  V30 5615 N 525.826 -7.01152 -0.364801 0
M  V30 5616 H 530.666 -2.77398 1.08877 0
M  V30 5617 H 528.203 -1.36496 0.54838 0
M  V30 5618 H 530.161 -4.03921 -1.04422 0
M  V30 5619 H 528.791 -2.93685 -1.33973 0
M  V30 5620 H 527.843 -3.68001 0.963289 0
M  V30 5621 H 529.155 -4.87631 1.04964 0
M  V30 5622 H 528.309 -5.97853 -1.0323 0
M  V30 5623 H 527.048 -4.72541 -1.2065 0
M  V30 5624 H 526.053 -5.40718 0.995219 0
M  V30 5625 H 527.278 -6.69193 1.15573 0
M  V30 5626 H 525.224 -6.47092 -1.07738 0
M  V30 5627 H 525.141 -7.5551 0.272238 0
M  V30 5628 H 526.409 -7.74263 -0.902054 0
M  V30 5629 N 530.638 -0.59345 -1.46 0
M  V30 5630 C 531.915 -0.0157933 -1.95594 0
M  V30 5631 C 532.295 1.44807 -1.53604 0
M  V30 5632 O 531.643 2.14342 -0.791824 0
M  V30 5633 C 531.853 -0.199081 -3.48432 0
M  V30 5634 C 533.201 -0.0724943 -4.24538 0
M  V30 5635 O 534.225 -0.128469 -3.55968 0
M  V30 5636 O 533.084 0.0542426 -5.46473 0
M  V30 5637 H 530.178 0.043749 -0.825842 0
M  V30 5638 H 532.724 -0.662522 -1.56233 0
M  V30 5639 H 531.496 -1.21631 -3.71916 0
M  V30 5640 H 531.119 0.483576 -3.94648 0
M  V30 5641 N 532.116 1.54067 -0.331816 0
M  V30 5642 C 533.362 2.01012 0.268667 0
M  V30 5643 C 533.695 1.2195 1.51136 0
M  V30 5644 O 532.97 0.303972 1.9211 0
M  V30 5645 C 533.253 3.55158 0.59456 0
M  V30 5646 C 533.106 4.4494 -0.659409 0
M  V30 5647 C 534.425 4.16939 1.4089 0
M  V30 5648 H 531.544 0.730698 0.0961756 0
M  V30 5649 H 534.186 1.84593 -0.450031 0
M  V30 5650 H 532.336 3.6928 1.20685 0
M  V30 5651 H 534.008 4.42675 -1.29756 0
M  V30 5652 H 532.251 4.1428 -1.28665 0
M  V30 5653 H 532.922 5.50643 -0.386804 0
M  V30 5654 H 535.398 4.06443 0.891272 0
M  V30 5655 H 534.274 5.24889 1.60569 0
M  V30 5656 H 534.535 3.70798 2.40752 0
M  V30 5657 N 533.594 0.0601682 1.57485 0
M  V30 5658 C 534.541 -0.91112 2.12055 0
M  V30 5659 C 535.511 -1.30298 1.03013 0
M  V30 5660 O 536.696 -1.39087 1.30612 0
M  V30 5661 C 533.836 -2.1775 2.67729 0
M  V30 5662 C 532.949 -1.83933 3.90887 0
M  V30 5663 C 532.084 -3.05096 4.34845 0
M  V30 5664 C 531.123 -2.67241 5.5068 0
M  V30 5665 N 530.26 -3.81127 5.8965 0
M  V30 5666 H 535.1 -0.43888 2.9475 0
M  V30 5667 H 532.637 -0.204995 1.45665 0
M  V30 5668 H 534.595 -2.91866 2.98111 0
M  V30 5669 H 533.225 -2.62535 1.87816 0
M  V30 5670 H 532.277 -0.999287 3.6704 0
M  V30 5671 H 533.589 -1.52074 4.75052 0
M  V30 5672 H 532.743 -3.87502 4.66827 0
M  V30 5673 H 531.482 -3.40139 3.49509 0
M  V30 5674 H 530.487 -1.83254 5.18361 0
M  V30 5675 H 531.712 -2.3338 6.37738 0
M  V30 5676 H 529.658 -4.15954 5.07266 0
M  V30 5677 H 529.575 -3.52997 6.68528 0
M  V30 5678 H 530.843 -4.64145 6.2625 0
M  V30 5679 N 535.072 -1.5615 -0.213296 0
M  V30 5680 C 536.022 -1.89485 -1.26804 0
M  V30 5681 C 537.006 -0.758713 -1.41889 0
M  V30 5682 O 538.198 -1.02127 -1.44565 0
M  V30 5683 C 535.327 -2.22219 -2.61675 0
M  V30 5684 C 534.413 -3.42245 -2.50458 0
M  V30 5685 N 534.804 -4.60645 -2.089 0
M  V30 5686 C 533.102 -3.46023 -2.81397 0
M  V30 5687 C 533.803 -5.42805 -2.09135 0
M  V30 5688 N 532.779 -4.82732 -2.49941 0
M  V30 5689 H 536.581 -2.78537 -0.937771 0
M  V30 5690 H 534.095 -1.56826 -0.421824 0
M  V30 5691 H 536.092 -2.44278 -3.37837 0
M  V30 5692 H 534.752 -1.34484 -2.95541 0
M  V30 5693 H 535.763 -4.85651 -1.79899 0
M  V30 5694 H 532.44 -2.68654 -3.1958 0
M  V30 5695 H 533.83 -6.47601 -1.79059 0
M  V30 5696 N 536.55 0.480323 -1.50102 0
M  V30 5697 C 537.48 1.58769 -1.71215 0
M  V30 5698 C 538.461 1.60583 -0.560997 0
M  V30 5699 O 539.646 1.76996 -0.799127 0
M  V30 5700 C 536.776 2.97148 -1.79778 0
M  V30 5701 C 535.73 3.10201 -2.94888 0
M  V30 5702 C 535.056 4.50137 -2.88584 0
M  V30 5703 C 536.356 2.88283 -4.35534 0
M  V30 5704 H 538.05 1.41354 -2.6393 0
M  V30 5705 H 535.596 0.678591 -1.27008 0
M  V30 5706 H 537.549 3.74536 -1.93133 0
M  V30 5707 H 536.273 3.15699 -0.836772 0
M  V30 5708 H 534.932 2.35244 -2.81169 0
M  V30 5709 H 534.58 4.65593 -1.90349 0
M  V30 5710 H 534.28 4.59808 -3.65856 0
M  V30 5711 H 535.804 5.29558 -3.03976 0
M  V30 5712 H 537.218 3.55427 -4.49827 0
M  V30 5713 H 535.615 3.09408 -5.14186 0
M  V30 5714 H 536.685 1.84219 -4.48544 0
M  V30 5715 N 538.028 1.39524 0.732853 0
M  V30 5716 C 538.991 1.38189 1.82857 0
M  V30 5717 C 539.991 0.278624 1.58368 0
M  V30 5718 O 541.181 0.536639 1.65728 0
M  V30 5719 C 538.313 1.15661 3.2068 0
M  V30 5720 H 539.506 2.35692 1.85444 0
M  V30 5721 H 537.059 1.2512 0.936728 0
M  V30 5722 H 537.794 0.188482 3.23752 0
M  V30 5723 H 537.579 1.95559 3.39852 0
M  V30 5724 H 539.069 1.17472 4.00737 0
M  V30 5725 N 539.506 -0.963266 1.24736 0
M  V30 5726 C 540.755 -1.70115 1.08369 0
M  V30 5727 C 541.068 -1.91939 -0.376688 0
M  V30 5728 O 542.274 -2.6334 -0.660624 0
M  V30 5729 C 540.73 -3.06218 1.89099 0
M  V30 5730 C 540.338 -2.92221 3.39574 0
M  V30 5731 C 542.082 -3.83848 1.81275 0
M  V30 5732 C 539.989 -4.23662 4.12631 0
M  V30 5733 H 538.919 -0.637944 0.401924 0
M  V30 5734 H 541.57 -1.07304 1.48856 0
M  V30 5735 H 539.952 -3.69884 1.41429 0
M  V30 5736 H 541.126 -2.37541 3.94856 0
M  V30 5737 H 539.441 -2.28054 3.48397 0
M  V30 5738 H 542.038 -4.81188 2.33158 0
M  V30 5739 H 542.381 -4.08949 0.778895 0
M  V30 5740 H 542.914 -3.26918 2.26649 0
M  V30 5741 H 539.653 -4.03753 5.16395 0
M  V30 5742 H 539.173 -4.78141 3.62135 0
M  V30 5743 H 540.852 -4.92256 4.19873 0
M  V30 5744 N 540.985 -1.06182 -1.16461 0
M  V30 5745 C 541.915 -0.692861 -2.22984 0
M  V30 5746 C 542.896 0.314122 -1.67174 0
M  V30 5747 O 544.081 0.189499 -1.93273 0
M  V30 5748 C 541.211 -0.07732 -3.47214 0
M  V30 5749 C 540.165 -1.01015 -4.15909 0
M  V30 5750 C 539.491 -0.257973 -5.34077 0
M  V30 5751 C 540.791 -2.33868 -4.67015 0
M  V30 5752 H 542.485 -1.58343 -2.54102 0
M  V30 5753 H 540.031 -0.76279 -1.22137 0
M  V30 5754 H 541.984 0.19266 -4.20959 0
M  V30 5755 H 540.708 0.848254 -3.15392 0
M  V30 5756 H 539.367 -1.26486 -3.44088 0
M  V30 5757 H 539.015 0.670684 -4.98509 0
M  V30 5758 H 538.715 -0.879638 -5.80979 0
M  V30 5759 H 540.239 0.00448788 -6.106 0
M  V30 5760 H 541.653 -2.1279 -5.32347 0
M  V30 5761 H 540.05 -2.91522 -5.24533 0
M  V30 5762 H 541.12 -2.97019 -3.83286 0
M  V30 5763 N 542.463 1.3308 -0.844243 0
M  V30 5764 C 543.711 1.97215 -0.441676 0
M  V30 5765 C 544.032 1.67185 1.0037 0
M  V30 5766 O 543.302 0.973588 1.69994 0
M  V30 5767 H 541.882 0.72959 -0.160335 0
M  V30 5768 H 544.544 1.62348 -1.07838 0
M  V30 5769 H 543.64 3.06698 -0.57815 0
M  V30 5770 N 543.941 0.601185 1.45683 0
M  V30 5771 C 544.904 -0.111398 2.28929 0
M  V30 5772 C 545.904 -0.801246 1.39416 0
M  V30 5773 O 547.094 -0.650383 1.61603 0
M  V30 5774 C 544.226 -1.16773 3.20276 0
M  V30 5775 H 545.419 0.620412 2.93413 0
M  V30 5776 H 542.972 0.359946 1.52099 0
M  V30 5777 H 543.707 -1.93051 2.60579 0
M  V30 5778 H 543.492 -0.677358 3.86205 0
M  V30 5779 H 544.982 -1.66698 3.82886 0
M  V30 5780 N 545.419 -1.53889 0.339982 0
M  V30 5781 C 546.667 -2.00458 -0.257112 0
M  V30 5782 C 546.988 -1.22953 -1.51353 0
M  V30 5783 O 546.258 -0.335734 -1.93002 0
M  V30 5784 H 544.838 -0.740544 -0.0979965 0
M  V30 5785 H 547.5 -1.89386 0.460317 0
M  V30 5786 H 546.596 -3.08035 -0.502057 0
M  V30 5787 N 546.897 -0.0685191 -1.57451 0
M  V30 5788 C 547.827 0.89747 -2.15564 0
M  V30 5789 C 548.808 1.31266 -1.08181 0
M  V30 5790 O 549.993 1.38429 -1.36202 0
M  V30 5791 C 547.123 2.16623 -2.71463 0
M  V30 5792 C 546.077 1.89054 -3.83982 0
M  V30 5793 C 545.403 3.22532 -4.26471 0
M  V30 5794 C 546.703 1.1984 -5.08366 0
M  V30 5795 H 548.397 0.413373 -2.96533 0
M  V30 5796 H 545.943 0.197391 -1.42641 0
M  V30 5797 H 547.896 2.84614 -3.10761 0
M  V30 5798 H 546.62 2.67269 -1.8771 0
M  V30 5799 H 545.279 1.23469 -3.45183 0
M  V30 5800 H 544.927 3.71013 -3.39644 0
M  V30 5801 H 544.627 3.04879 -5.02317 0
M  V30 5802 H 546.151 3.91727 -4.68383 0
M  V30 5803 H 547.565 1.77896 -5.45001 0
M  V30 5804 H 545.962 1.12456 -5.89469 0
M  V30 5805 H 547.032 0.176996 -4.84577 0
M  V30 5806 N 548.375 1.56261 0.205012 0
M  V30 5807 C 549.308 1.88797 1.28183 0
M  V30 5808 C 550.286 0.747018 1.44424 0
M  V30 5809 O 551.47 0.997039 1.59973 0
M  V30 5810 C 548.597 2.10949 2.64987 0
M  V30 5811 C 547.643 3.33649 2.6567 0
M  V30 5812 S 548.476 4.89078 2.18088 0
M  V30 5813 C 549.632 5.14286 3.56736 0
M  V30 5814 H 549.865 2.79837 1.00393 0
M  V30 5815 H 547.398 1.48911 0.408042 0
M  V30 5816 H 549.356 2.24395 3.4374 0
M  V30 5817 H 548.017 1.20678 2.89993 0
M  V30 5818 H 547.21 3.46245 3.66239 0
M  V30 5819 H 546.812 3.19146 1.94992 0
M  V30 5820 H 549.104 5.04198 4.52537 0
M  V30 5821 H 550.047 6.16096 3.49043 0
M  V30 5822 H 550.455 4.41957 3.51189 0
M  V30 5823 N 549.853 -0.472356 1.50355 0
M  V30 5824 C 551.101 -1.22211 1.60962 0
M  V30 5825 C 551.422 -1.92497 0.311439 0
M  V30 5826 O 550.692 -1.8405 -0.671002 0
M  V30 5827 H 549.272 -0.454092 0.593135 0
M  V30 5828 H 551.934 -0.544977 1.87126 0
M  V30 5829 H 551.03 -1.9707 2.42012 0
M  V30 5830 N 551.331 -1.39911 -0.725443 0
M  V30 5831 C 552.294 -1.39156 -1.82121 0
M  V30 5832 C 553.294 -0.287018 -1.58218 0
M  V30 5833 O 554.484 -0.545421 -1.65441 0
M  V30 5834 C 551.616 -1.1736 -3.20062 0
M  V30 5835 H 552.809 -2.36672 -1.84191 0
M  V30 5836 H 550.362 -1.25615 -0.930079 0
M  V30 5837 H 551.097 -0.205648 -3.23647 0
M  V30 5838 H 550.882 -1.97358 -3.3881 0
M  V30 5839 H 552.372 -1.19596 -4.00108 0
M  V30 5840 N 552.809 0.956637 -1.25245 0
M  V30 5841 C 554.057 1.69764 -1.09657 0
M  V30 5842 C 554.378 1.91583 0.363464 0
M  V30 5843 O 553.648 1.50149 1.25825 0
M  V30 5844 H 552.228 0.629097 -0.402798 0
M  V30 5845 H 554.89 1.15026 -1.57337 0
M  V30 5846 H 553.986 2.67769 -1.60331 0
M  V30 5847 N 554.287 1.06798 1.15896 0
M  V30 5848 C 555.536 0.782796 1.8589 0
M  V30 5849 C 555.849 -0.693498 1.82893 0
M  V30 5850 O 557.055 -1.09325 2.48516 0
M  V30 5851 C 555.511 1.3502 3.33613 0
M  V30 5852 C 555.119 2.8571 3.45071 0
M  V30 5853 C 556.863 1.14278 4.08829 0
M  V30 5854 C 554.77 3.35669 4.86909 0
M  V30 5855 H 553.7 0.289149 0.696354 0
M  V30 5856 H 556.351 1.28734 1.30766 0
M  V30 5857 H 554.733 0.773407 3.88374 0
M  V30 5858 H 555.907 3.49385 3.00445 0
M  V30 5859 H 554.222 3.05178 2.83294 0
M  V30 5860 H 556.819 1.49087 5.13495 0
M  V30 5861 H 557.162 0.0814575 4.1622 0
M  V30 5862 H 557.695 1.68563 3.60321 0
M  V30 5863 H 554.434 4.41302 4.84698 0
M  V30 5864 H 553.954 2.76745 5.32139 0
M  V30 5865 H 555.633 3.31296 5.55745 0
M  V30 5866 N 555.766 -1.3263 0.851289 0
M  V30 5867 C 556.729 -2.27247 0.298541 0
M  V30 5868 C 557.729 -1.51467 -0.539847 0
M  V30 5869 O 558.919 -1.7061 -0.351843 0
M  V30 5870 C 556.051 -3.35964 -0.578004 0
M  V30 5871 H 557.244 -2.7765 1.13359 0
M  V30 5872 H 554.797 -1.43245 0.625354 0
M  V30 5873 H 555.532 -2.90823 -1.435 0
M  V30 5874 H 555.317 -3.92094 0.0220539 0
M  V30 5875 H 556.807 -4.06472 -0.957626 0
M  V30 5876 N 557.244 -0.608902 -1.45362 0
M  V30 5877 C 558.176 0.147318 -2.28726 0
M  V30 5878 C 559.189 0.830468 -1.40025 0
M  V30 5879 O 560.378 0.695636 -1.64387 0
M  V30 5880 C 557.478 1.22968 -3.15804 0
M  V30 5881 C 556.651 0.633391 -4.3279 0
M  V30 5882 C 555.71 1.60682 -5.01067 0
M  V30 5883 O 554.736 1.13261 -5.57818 0
M  V30 5884 N 555.938 2.94123 -5.00472 0
M  V30 5885 H 558.703 -0.568014 -2.94268 0
M  V30 5886 H 556.264 -0.448479 -1.55564 0
M  V30 5887 H 558.256 1.88072 -3.58345 0
M  V30 5888 H 556.826 1.84752 -2.52162 0
M  V30 5889 H 556.046 -0.195762 -3.93714 0
M  V30 5890 H 557.334 0.215255 -5.08344 0
M  V30 5891 H 556.732 3.3525 -4.55657 0
M  V30 5892 H 555.289 3.54646 -5.46872 0
M  V30 5893 N 558.722 1.53707 -0.348139 0
M  V30 5894 C 559.968 2.01286 0.247332 0
M  V30 5895 C 560.301 1.23546 1.49834 0
M  V30 5896 O 559.576 0.324331 1.91777 0
M  V30 5897 C 559.859 3.55768 0.556858 0
M  V30 5898 C 559.712 4.44216 -0.706564 0
M  V30 5899 C 561.031 4.1841 1.3646 0
M  V30 5900 H 558.15 0.731677 0.0884201 0
M  V30 5901 H 560.792 1.84106 -0.469584 0
M  V30 5902 H 558.942 3.70539 1.16761 0
M  V30 5903 H 560.614 4.41274 -1.34444 0
M  V30 5904 H 558.857 4.12892 -1.33052 0
M  V30 5905 H 559.528 5.50202 -0.445186 0
M  V30 5906 H 562.004 4.07365 0.848113 0
M  V30 5907 H 560.88 5.26563 1.54992 0
M  V30 5908 H 561.141 3.7333 2.36805 0
M  V30 5909 N 560.2 0.0768682 1.57412 0
M  V30 5910 C 561.425 -0.603404 1.98428 0
M  V30 5911 C 561.85 -1.62047 0.955108 0
M  V30 5912 O 561.208 -1.81129 -0.0786778 0
M  V30 5913 C 561.256 -1.24396 3.38464 0
M  V30 5914 O 560.36 -2.35982 3.3821 0
M  V30 5915 H 559.701 -0.154741 0.645718 0
M  V30 5916 H 562.231 0.152885 2.04028 0
M  V30 5917 H 562.241 -1.5896 3.7576 0
M  V30 5918 H 560.916 -0.498735 4.12899 0
M  V30 5919 H 559.493 -2.03173 3.1269 0
M  V30 5920 N 561.678 -1.56367 -0.196722 0
M  V30 5921 C 562.924 -1.80796 -0.918725 0
M  V30 5922 C 563.257 -0.650645 -1.82976 0
M  V30 5923 O 562.532 0.348889 -1.91345 0
M  V30 5924 C 562.815 -3.15472 -1.73636 0
M  V30 5925 C 562.668 -4.41693 -0.85015 0
M  V30 5926 C 563.987 -3.46824 -2.70927 0
M  V30 5927 H 561.106 -0.657702 -0.332561 0
M  V30 5928 H 563.748 -1.89086 -0.186186 0
M  V30 5929 H 561.898 -3.08536 -2.36088 0
M  V30 5930 H 563.57 -4.60673 -0.240459 0
M  V30 5931 H 561.813 -4.33517 -0.156785 0
M  V30 5932 H 562.484 -5.32419 -1.45719 0
M  V30 5933 H 564.96 -3.54049 -2.18607 0
M  V30 5934 H 563.836 -4.4218 -3.25219 0
M  V30 5935 H 564.097 -2.70236 -3.49893 0
M  V30 5936 N 563.156 0.464375 -1.50603 0
M  V30 5937 C 564.433 1.22549 -1.5245 0
M  V30 5938 C 564.813 2.09327 -0.273035 0
M  V30 5939 O 564.161 2.16074 0.743242 0
M  V30 5940 C 564.371 2.05074 -2.82393 0
M  V30 5941 C 565.719 2.63036 -3.33313 0
M  V30 5942 O 566.743 2.1531 -2.8376 0
M  V30 5943 O 565.602 3.5001 -4.19709 0
M  V30 5944 H 562.696 0.556471 -0.611775 0
M  V30 5945 H 565.242 0.475648 -1.62898 0
M  V30 5946 H 564.014 1.41169 -3.64948 0
M  V30 5947 H 563.637 2.87179 -2.7498 0
M  V30 5948 N 564.634 1.40294 0.718013 0
M  V30 5949 C 565.581 1.40367 1.8321 0
M  V30 5950 C 566.551 0.260952 1.64037 0
M  V30 5951 O 567.736 0.458648 1.85205 0
M  V30 5952 C 564.876 1.26965 3.20895 0
M  V30 5953 C 563.989 2.50922 3.51656 0
M  V30 5954 C 563.124 2.29981 4.78834 0
M  V30 5955 C 562.163 3.49527 5.02491 0
M  V30 5956 N 561.3 3.27796 6.20882 0
M  V30 5957 H 566.14 2.35593 1.82482 0
M  V30 5958 H 563.677 1.17012 0.891444 0
M  V30 5959 H 565.635 1.17202 4.00399 0
M  V30 5960 H 564.265 0.353591 3.20858 0
M  V30 5961 H 563.317 2.71223 2.66725 0
M  V30 5962 H 564.629 3.39913 3.65048 0
M  V30 5963 H 563.783 2.17558 5.66351 0
M  V30 5964 H 562.522 1.38411 4.67647 0
M  V30 5965 H 561.527 3.6243 4.1343 0
M  V30 5966 H 562.752 4.42021 5.15553 0
M  V30 5967 H 560.698 2.38906 6.1095 0
M  V30 5968 H 560.615 4.10351 6.34939 0
M  V30 5969 H 561.883 3.19101 7.11193 0
M  V30 5970 N 566.112 -0.949982 1.2575 0
M  V30 5971 C 567.36 -1.6918 1.10555 0
M  V30 5972 C 567.681 -1.91773 -0.353298 0
M  V30 5973 O 566.951 -1.50814 -1.25027 0
M  V30 5974 H 565.531 -0.626952 0.406129 0
M  V30 5975 H 568.193 -1.1419 1.57945 0
M  V30 5976 H 567.289 -2.66915 1.61749 0
M  V30 5977 N 567.59 -1.07411 -1.15328 0
M  V30 5978 C 568.52 -0.716472 -2.22236 0
M  V30 5979 C 569.501 0.296373 -1.67498 0
M  V30 5980 O 570.686 0.168989 -1.93463 0
M  V30 5981 C 567.816 -0.114142 -3.47112 0
M  V30 5982 C 566.77 -1.05421 -4.14814 0
M  V30 5983 C 566.096 -0.314604 -5.33774 0
M  V30 5984 C 567.396 -2.38808 -4.64508 0
M  V30 5985 H 569.09 -1.61029 -2.52408 0
M  V30 5986 H 566.636 -0.775702 -1.21321 0
M  V30 5987 H 568.589 0.148001 -4.2114 0
M  V30 5988 H 567.313 0.814755 -3.16274 0
M  V30 5989 H 565.972 -1.30128 -3.42728 0
M  V30 5990 H 565.62 0.617772 -4.99192 0
M  V30 5991 H 565.32 -0.941209 -5.80013 0
M  V30 5992 H 566.844 -0.0602747 -6.1057 0
M  V30 5993 H 568.258 -2.18424 -5.3006 0
M  V30 5994 H 566.655 -2.97069 -5.21412 0
M  V30 5995 H 567.725 -3.01067 -3.80114 0
M  V30 5996 N 569.068 1.32177 -0.85831 0
M  V30 5997 C 570.015 2.28794 -0.303607 0
M  V30 5998 C 570.985 1.55213 0.591453 0
M  V30 5999 O 572.17 1.83418 0.525585 0
M  V30 6000 C 569.31 3.41475 0.49889 0
M  V30 6001 C 568.423 4.2993 -0.422373 0
M  V30 6002 C 567.558 5.29743 0.393111 0
M  V30 6003 C 566.597 6.09842 -0.525317 0
M  V30 6004 N 565.734 7.01643 0.253208 0
M  V30 6005 H 570.574 2.75631 -1.13276 0
M  V30 6006 H 568.111 1.35606 -0.570026 0
M  V30 6007 H 570.069 4.05531 0.979826 0
M  V30 6008 H 568.699 2.95779 1.29284 0
M  V30 6009 H 567.751 3.66422 -1.02171 0
M  V30 6010 H 569.063 4.85899 -1.12709 0
M  V30 6011 H 568.217 5.9942 0.937056 0
M  V30 6012 H 566.956 4.744 1.13117 0
M  V30 6013 H 565.961 5.39066 -1.08112 0
M  V30 6014 H 567.186 6.6727 -1.26205 0
M  V30 6015 H 565.132 6.48725 0.974295 0
M  V30 6016 H 565.049 7.54981 -0.392398 0
M  V30 6017 H 566.317 7.756 0.778761 0
M  V30 6018 N 570.547 0.616602 1.45037 0
M  V30 6019 C 571.775 0.121968 2.0654 0
M  V30 6020 C 572.19 -1.19743 1.45969 0
M  V30 6021 O 571.547 -1.73133 0.577168 0
M  V30 6022 C 571.598 -0.0145171 3.61497 0
M  V30 6023 O 571.319 1.25269 4.19809 0
M  V30 6024 C 572.82 -0.539555 4.40004 0
M  V30 6025 H 570.04 0.0729837 0.667019 0
M  V30 6026 H 572.584 0.846891 1.8614 0
M  V30 6027 H 570.739 -0.689809 3.81209 0
M  V30 6028 H 571.153 1.08816 5.13088 0
M  V30 6029 H 572.627 -0.584112 5.48901 0
M  V30 6030 H 573.104 -1.56368 4.10421 0
M  V30 6031 H 573.71 0.101995 4.25178 0
M  V30 6032 N 572.025 -1.5352 0.356285 0
M  V30 6033 C 573.274 -2.00298 -0.237373 0
M  V30 6034 C 573.587 -1.24784 -1.50627 0
M  V30 6035 O 574.793 -1.62103 -2.17795 0
M  V30 6036 C 573.249 -3.56771 -0.473545 0
M  V30 6037 C 572.857 -4.41154 0.780183 0
M  V30 6038 C 574.601 -4.1193 -1.02537 0
M  V30 6039 C 572.508 -5.89161 0.514108 0
M  V30 6040 H 571.438 -0.748307 -0.092478 0
M  V30 6041 H 574.089 -1.77283 0.473588 0
M  V30 6042 H 572.471 -3.75902 -1.24553 0
M  V30 6043 H 573.645 -4.33797 1.55425 0
M  V30 6044 H 571.96 -3.97052 1.25455 0
M  V30 6045 H 574.557 -5.20133 -1.2396 0
M  V30 6046 H 574.9 -3.65943 -1.98473 0
M  V30 6047 H 575.433 -3.96561 -0.313775 0
M  V30 6048 H 572.172 -6.39408 1.44355 0
M  V30 6049 H 571.692 -5.9939 -0.221632 0
M  V30 6050 H 573.371 -6.46857 0.136122 0
M  V30 6051 N 573.503 -0.0852151 -1.57369 0
M  V30 6052 C 574.433 0.874556 -2.16503 0
M  V30 6053 C 575.414 1.30111 -1.09568 0
M  V30 6054 O 576.599 1.36977 -1.37662 0
M  V30 6055 C 573.729 2.13731 -2.73745 0
M  V30 6056 C 572.683 1.84971 -3.85966 0
M  V30 6057 C 572.009 3.17991 -4.29867 0
M  V30 6058 C 573.309 1.14442 -5.09608 0
M  V30 6059 H 575.003 0.381899 -2.96954 0
M  V30 6060 H 572.549 0.18225 -1.42842 0
M  V30 6061 H 574.502 2.81302 -3.13763 0
M  V30 6062 H 573.226 2.65263 -1.90534 0
M  V30 6063 H 571.885 1.19801 -3.46473 0
M  V30 6064 H 571.533 3.6739 -3.4356 0
M  V30 6065 H 571.233 2.99534 -5.05523 0
M  V30 6066 H 572.757 3.86737 -4.72511 0
M  V30 6067 H 574.171 1.72105 -5.46857 0
M  V30 6068 H 572.568 1.06197 -5.90629 0
M  V30 6069 H 573.638 0.12559 -4.84737 0
M  V30 6070 N 574.981 1.5647 0.188427 0
M  V30 6071 C 575.928 1.95073 1.23349 0
M  V30 6072 C 576.898 0.812238 1.44886 0
M  V30 6073 O 578.083 1.07095 1.57909 0
M  V30 6074 C 575.223 2.30124 2.57171 0
M  V30 6075 C 574.336 3.57069 2.43157 0
M  V30 6076 C 573.471 3.81411 3.69729 0
M  V30 6077 C 572.51 5.0176 3.50575 0
M  V30 6078 N 571.647 5.22321 4.69175 0
M  V30 6079 H 576.487 2.84171 0.89728 0
M  V30 6080 H 574.024 1.40623 0.431683 0
M  V30 6081 H 575.982 2.48463 3.35145 0
M  V30 6082 H 574.612 1.44159 2.88822 0
M  V30 6083 H 573.664 3.4674 1.56447 0
M  V30 6084 H 574.976 4.452 2.24942 0
M  V30 6085 H 574.13 4.00026 4.56141 0
M  V30 6086 H 572.869 2.91624 3.90905 0
M  V30 6087 H 571.874 4.83061 2.62549 0
M  V30 6088 H 573.099 5.93063 3.30837 0
M  V30 6089 H 571.045 4.35483 4.90602 0
M  V30 6090 H 570.962 6.04643 4.53809 0
M  V30 6091 H 572.23 5.45401 5.56919 0
M  V30 6092 N 576.459 -0.456382 1.50847 0
M  V30 6093 C 577.736 -1.21739 1.53098 0
M  V30 6094 C 578.116 -2.09179 0.284132 0
M  V30 6095 O 577.464 -2.16466 -0.731773 0
M  V30 6096 C 577.674 -2.03573 2.83477 0
M  V30 6097 C 579.022 -2.61264 3.34703 0
M  V30 6098 O 580.046 -2.13802 2.84898 0
M  V30 6099 O 578.905 -3.47779 4.21559 0
M  V30 6100 H 575.999 -0.553219 0.614718 0
M  V30 6101 H 578.545 -0.467003 1.63148 0
M  V30 6102 H 577.317 -1.39232 3.65691 0
M  V30 6103 H 576.94 -2.85716 2.76499 0
M  V30 6104 N 577.937 -1.40673 -0.710563 0
M  V30 6105 C 578.9 -1.4108 -1.80635 0
M  V30 6106 C 579.9 -0.303783 -1.57904 0
M  V30 6107 O 581.09 -0.562937 -1.64853 0
M  V30 6108 C 578.222 -1.20748 -3.18799 0
M  V30 6109 H 579.415 -2.38612 -1.81671 0
M  V30 6110 H 576.968 -1.26595 -0.916704 0
M  V30 6111 H 577.703 -0.239964 -3.23411 0
M  V30 6112 H 577.488 -2.00941 -3.36698 0
M  V30 6113 H 578.978 -1.23833 -3.98817 0
M  V30 6114 N 579.415 0.9433 -1.26252 0
M  V30 6115 C 580.643 1.72367 -1.14443 0
M  V30 6116 C 581.058 1.86392 0.300572 0
M  V30 6117 O 580.415 1.36978 1.20596 0
M  V30 6118 C 580.466 3.13155 -1.806 0
M  V30 6119 O 580.187 2.99803 -3.19452 0
M  V30 6120 C 581.688 4.07417 -1.74717 0
M  V30 6121 H 578.908 0.539758 -0.398626 0
M  V30 6122 H 581.452 1.18268 -1.66832 0
M  V30 6123 H 579.607 3.64162 -1.32154 0
M  V30 6124 H 580.021 3.88697 -3.52158 0
M  V30 6125 H 581.495 5.03773 -2.25647 0
M  V30 6126 H 581.972 4.3337 -0.713244 0
M  V30 6127 H 582.578 3.6233 -2.22704 0
M  V30 6128 N 580.893 1.08022 1.14757 0
M  V30 6129 C 581.823 0.728248 2.21853 0
M  V30 6130 C 582.804 -0.287486 1.67653 0
M  V30 6131 O 583.989 -0.158727 1.9355 0
M  V30 6132 C 581.119 0.132549 3.47047 0
M  V30 6133 C 580.073 1.07619 4.14249 0
M  V30 6134 C 579.399 0.342907 5.33599 0
M  V30 6135 C 580.699 2.41268 4.63235 0
M  V30 6136 H 582.393 1.62365 2.51551 0
M  V30 6137 H 579.939 0.782125 1.20908 0
M  V30 6138 H 581.892 -0.125665 4.21213 0
M  V30 6139 H 580.616 -0.797971 3.16702 0
M  V30 6140 H 579.275 1.31944 3.42033 0
M  V30 6141 H 578.923 -0.59129 4.99513 0
M  V30 6142 H 578.623 0.971955 5.79506 0
M  V30 6143 H 580.147 0.0926538 6.1053 0
M  V30 6144 H 581.561 2.21232 5.28894 0
M  V30 6145 H 579.958 2.9983 5.19829 0
M  V30 6146 H 581.028 3.03079 3.78512 0
M  V30 6147 N 582.371 -1.3172 0.865308 0
M  V30 6148 C 583.599 -2.01057 0.488251 0
M  V30 6149 C 584.014 -1.64979 -0.918 0
M  V30 6150 O 583.371 -0.876597 -1.60069 0
M  V30 6151 C 583.422 -3.55964 0.630224 0
M  V30 6152 O 583.143 -3.90749 1.98109 0
M  V30 6153 C 584.644 -4.42574 0.253567 0
M  V30 6154 H 581.864 -0.64332 0.190736 0
M  V30 6155 H 584.408 -1.68058 1.16519 0
M  V30 6156 H 582.563 -3.874 0.000895422 0
M  V30 6157 H 582.977 -4.85467 1.9855 0
M  V30 6158 H 584.451 -5.50521 0.403875 0
M  V30 6159 H 584.928 -4.31724 -0.806895 0
M  V30 6160 H 585.534 -4.16547 0.858404 0
M  V30 6161 N 583.85 -0.624285 -1.44708 0
M  V30 6162 C 584.812 0.0749638 -2.29077 0
M  V30 6163 C 585.812 0.778965 -1.40673 0
M  V30 6164 O 587.003 0.624591 -1.62618 0
M  V30 6165 C 584.135 1.11663 -3.22094 0
M  V30 6166 H 585.327 -0.667013 -2.92388 0
M  V30 6167 H 582.88 -0.384098 -1.51507 0
M  V30 6168 H 583.615 1.88881 -2.63618 0
M  V30 6169 H 583.401 0.61583 -3.87234 0
M  V30 6170 H 584.891 1.60585 -3.8549 0
M  V30 6171 N 585.328 1.53329 -0.364422 0
M  V30 6172 C 586.258 2.28627 0.474543 0
M  V30 6173 C 587.239 1.31009 1.08492 0
M  V30 6174 O 588.424 1.59878 1.10239 0
M  V30 6175 C 585.554 3.07465 1.61501 0
M  V30 6176 C 584.508 4.1276 1.13194 0
M  V30 6177 C 583.834 4.79674 2.36255 0
M  V30 6178 C 585.134 5.21847 0.217507 0
M  V30 6179 H 586.828 2.99005 -0.153656 0
M  V30 6180 H 584.374 1.43803 -0.0753406 0
M  V30 6181 H 586.327 3.58889 2.20855 0
M  V30 6182 H 585.051 2.34775 2.27042 0
M  V30 6183 H 583.71 3.62281 0.56109 0
M  V30 6184 H 583.358 4.03557 3.00251 0
M  V30 6185 H 583.058 5.50827 2.04606 0
M  V30 6186 H 584.582 5.33892 2.96297 0
M  V30 6187 H 585.996 5.6878 0.718493 0
M  V30 6188 H 584.393 6.00099 -0.00806408 0
M  V30 6189 H 585.463 4.7921 -0.740653 0
M  V30 6190 N 586.806 0.0935595 1.57322 0
M  V30 6191 C 588.083 -0.612692 1.85756 0
M  V30 6192 C 588.463 -1.86439 0.99013 0
M  V30 6193 O 587.811 -2.28416 0.0621362 0
M  V30 6194 C 588.021 -0.929547 3.36393 0
M  V30 6195 C 589.369 -1.29366 4.04413 0
M  V30 6196 O 590.393 -1.02061 3.41265 0
M  V30 6197 O 589.252 -1.80498 5.15832 0
M  V30 6198 H 586.346 -0.306444 0.768128 0
M  V30 6199 H 588.892 0.126141 1.69231 0
M  V30 6200 H 587.664 -0.0414766 3.91278 0
M  V30 6201 H 587.287 -1.72441 3.5826 0
M  V30 6202 N 588.284 -1.56567 -0.180126 0
M  V30 6203 C 589.7 -1.50488 -0.531559 0
M  V30 6204 C 589.9 -0.796267 -1.851 0
M  V30 6205 O 588.956 -0.352978 -2.50021 0
M  V30 6206 C 590.269 -2.95201 -0.572456 0
M  V30 6207 C 591.817 -3.05957 -0.660264 0
M  V30 6208 C 592.292 -4.5211 -0.732135 0
M  V30 6209 N 593.783 -4.56322 -0.795262 0
M  V30 6210 C 594.518 -5.66742 -0.871296 0
M  V30 6211 N 594.014 -6.86815 -0.908708 0
M  V30 6212 N 595.807 -5.54691 -0.909639 0
M  V30 6213 H 587.958 -2.01045 0.685165 0
M  V30 6214 H 590.221 -0.915536 0.245962 0
M  V30 6215 H 589.927 -3.50165 0.328208 0
M  V30 6216 H 589.801 -3.49369 -1.422 0
M  V30 6217 H 592.188 -2.51032 -1.55136 0
M  V30 6218 H 592.269 -2.54888 0.215783 0
M  V30 6219 H 591.913 -5.07664 0.154664 0
M  V30 6220 H 591.843 -5.00926 -1.6242 0
M  V30 6221 H 594.334 -3.69868 -0.77499 0
M  V30 6222 H 594.647 -7.66718 -0.967654 0
M  V30 6223 H 592.992 -6.89443 -0.877132 0
M  V30 6224 H 596.183 -4.59804 -0.877353 0
M  V30 6225 H 596.356 -6.40768 -0.965434 0
M  V30 6226 N 589.762 0.448376 -1.51087 0
M  V30 6227 C 591.01 1.19635 -1.62886 0
M  V30 6228 C 591.331 1.91977 -0.342024 0
M  V30 6229 O 590.601 1.85094 0.641636 0
M  V30 6230 H 589.181 0.444598 -0.600285 0
M  V30 6231 H 591.843 0.515138 -1.87969 0
M  V30 6232 H 590.939 1.93194 -2.45117 0
M  V30 6233 N 591.24 1.41047 0.703093 0
M  V30 6234 C 592.172 1.38228 1.82827 0
M  V30 6235 C 593.185 0.285637 1.60275 0
M  V30 6236 O 594.374 0.54685 1.69917 0
M  V30 6237 C 591.474 1.13136 3.19458 0
M  V30 6238 C 590.647 2.34695 3.69103 0
M  V30 6239 C 589.706 2.05574 4.84382 0
M  V30 6240 O 588.732 2.78549 4.96386 0
M  V30 6241 N 589.934 1.04135 5.71083 0
M  V30 6242 H 592.699 2.35203 1.85741 0
M  V30 6243 H 590.26 1.35562 0.885125 0
M  V30 6244 H 592.252 0.916183 3.94193 0
M  V30 6245 H 590.822 0.247836 3.11616 0
M  V30 6246 H 590.042 2.71963 2.85359 0
M  V30 6247 H 591.33 3.15705 3.99009 0
M  V30 6248 H 590.728 0.43722 5.64008 0
M  V30 6249 H 589.285 0.886078 6.45749 0
M  V30 6250 N 592.718 -0.936591 1.26751 0
M  V30 6251 C 593.65 -2.03991 1.045 0
M  V30 6252 C 594.663 -1.628 0.00394261 0
M  V30 6253 O 595.852 -1.76817 0.244526 0
M  V30 6254 C 592.952 -3.34218 0.561403 0
M  V30 6255 C 592.125 -4.04151 1.67274 0
M  V30 6256 C 591.184 -5.12651 1.1864 0
M  V30 6257 O 590.21 -5.37104 1.88437 0
M  V30 6258 N 591.412 -5.80488 0.037278 0
M  V30 6259 H 594.177 -2.23644 1.99508 0
M  V30 6260 H 591.738 -1.10638 1.18198 0
M  V30 6261 H 593.73 -4.04101 0.220136 0
M  V30 6262 H 592.3 -3.11203 -0.295211 0
M  V30 6263 H 591.52 -3.28121 2.18472 0
M  V30 6264 H 592.808 -4.47626 2.41885 0
M  V30 6265 H 592.206 -5.63064 -0.545494 0
M  V30 6266 H 590.763 -6.5134 -0.244877 0
M  V30 6267 N 594.196 -1.08629 -1.14182 0
M  V30 6268 C 595.128 -0.676189 -2.18998 0
M  V30 6269 C 596.141 0.277871 -1.60411 0
M  V30 6270 O 597.33 0.0651771 -1.78381 0
M  V30 6271 C 594.43 0.0254916 -3.3889 0
M  V30 6272 C 593.603 -0.948039 -4.27002 0
M  V30 6273 C 592.662 -0.281268 -5.25448 0
M  V30 6274 O 591.688 -0.926378 -5.61611 0
M  V30 6275 N 592.89 0.967923 -5.72374 0
M  V30 6276 H 595.655 -1.57792 -2.54798 0
M  V30 6277 H 593.216 -0.972665 -1.29425 0
M  V30 6278 H 595.208 0.482554 -4.01813 0
M  V30 6279 H 593.778 0.829348 -3.01398 0
M  V30 6280 H 592.998 -1.58388 -3.6098 0
M  V30 6281 H 594.286 -1.60765 -4.82734 0
M  V30 6282 H 593.684 1.51175 -5.45126 0
M  V30 6283 H 592.241 1.36844 -6.37273 0
M  V30 6284 N 595.674 1.31259 -0.872281 0
M  V30 6285 C 596.92 1.96913 -0.485083 0
M  V30 6286 C 597.253 1.68774 0.960667 0
M  V30 6287 O 596.528 0.985495 1.67685 0
M  V30 6288 C 596.811 3.52299 -0.745502 0
M  V30 6289 C 596.664 3.90002 -2.24095 0
M  V30 6290 C 597.983 4.39582 -0.213516 0
M  V30 6291 H 595.102 0.715252 -0.177716 0
M  V30 6292 H 597.744 1.55347 -1.09395 0
M  V30 6293 H 595.894 3.87835 -0.227276 0
M  V30 6294 H 597.566 3.64555 -2.82661 0
M  V30 6295 H 595.809 3.38526 -2.71261 0
M  V30 6296 H 596.48 4.98352 -2.37381 0
M  V30 6297 H 598.956 4.10882 -0.656902 0
M  V30 6298 H 597.832 5.47251 -0.42516 0
M  V30 6299 H 598.093 4.33158 0.884666 0
M  V30 6300 N 597.152 0.631951 1.44375 0
M  V30 6301 C 598.399 0.136767 2.02038 0
M  V30 6302 C 598.727 -1.24168 1.49709 0
M  V30 6303 O 597.982 -1.83809 0.671763 0
M  V30 6304 C 598.281 0.0735861 3.57324 0
M  V30 6305 C 597.947 1.39092 4.28911 0
M  V30 6306 C 596.609 1.75171 4.48184 0
M  V30 6307 C 598.961 2.26042 4.69632 0
M  V30 6308 C 596.289 2.97907 5.05439 0
M  V30 6309 C 598.641 3.4805 5.28246 0
M  V30 6310 C 597.305 3.84351 5.45738 0
M  V30 6311 H 596.575 0.0500466 0.739308 0
M  V30 6312 H 599.222 0.818429 1.7313 0
M  V30 6313 H 597.527 -0.691449 3.8565 0
M  V30 6314 H 599.224 -0.326091 3.99672 0
M  V30 6315 H 595.814 1.10015 4.1424 0
M  V30 6316 H 599.998 1.99463 4.54454 0
M  V30 6317 H 595.254 3.26108 5.17169 0
M  V30 6318 H 599.428 4.15658 5.5875 0
M  V30 6319 H 597.055 4.79538 5.8987 0
M  V30 6320 N 598.631 -1.53133 0.372548 0
M  V30 6321 C 599.578 -2.25951 -0.470631 0
M  V30 6322 C 600.548 -1.26895 -1.07176 0
M  V30 6323 O 601.733 -1.55691 -1.10294 0
M  V30 6324 C 598.873 -3.05726 -1.6008 0
M  V30 6325 C 597.986 -4.19684 -1.02416 0
M  V30 6326 C 597.121 -4.86888 -2.124 0
M  V30 6327 C 596.16 -5.92866 -1.52238 0
M  V30 6328 N 595.297 -6.53732 -2.56084 0
M  V30 6329 H 600.137 -2.97587 0.156816 0
M  V30 6330 H 597.674 -1.4683 0.0891571 0
M  V30 6331 H 599.632 -3.50258 -2.26661 0
M  V30 6332 H 598.262 -2.36331 -2.1988 0
M  V30 6333 H 597.314 -3.79588 -0.248426 0
M  V30 6334 H 598.626 -4.95821 -0.544366 0
M  V30 6335 H 597.78 -5.34638 -2.86787 0
M  V30 6336 H 596.519 -4.10239 -2.63734 0
M  V30 6337 H 595.524 -5.4447 -0.763685 0
M  V30 6338 H 596.749 -6.71439 -1.0172 0
M  V30 6339 H 594.695 -5.79932 -3.06618 0
M  V30 6340 H 594.612 -7.25429 -2.12811 0
M  V30 6341 H 595.88 -7.0613 -3.30152 0
M  V30 6342 N 600.109 -0.101901 -1.5727 0
M  V30 6343 C 601.357 0.559091 -1.94213 0
M  V30 6344 C 601.678 1.68297 -0.984948 0
M  V30 6345 O 600.948 1.95863 -0.0381975 0
M  V30 6346 H 599.528 0.20952 -0.717015 0
M  V30 6347 H 602.19 -0.166831 -1.94185 0
M  V30 6348 H 601.286 0.96485 -2.96811 0
M  V30 6349 N 601.587 1.56661 0.17182 0
M  V30 6350 C 602.517 1.99401 1.21498 0
M  V30 6351 C 603.498 0.869516 1.46197 0
M  V30 6352 O 604.683 1.13556 1.57539 0
M  V30 6353 C 601.813 2.35346 2.55401 0
M  V30 6354 C 600.767 3.5075 2.45272 0
M  V30 6355 C 600.093 3.72437 3.8366 0
M  V30 6356 C 601.393 4.84216 1.95787 0
M  V30 6357 H 603.087 2.86792 0.859699 0
M  V30 6358 H 600.633 1.37977 0.412103 0
M  V30 6359 H 602.586 2.63843 3.2858 0
M  V30 6360 H 601.31 1.44864 2.92715 0
M  V30 6361 H 599.969 3.2238 1.74547 0
M  V30 6362 H 599.617 2.79246 4.18367 0
M  V30 6363 H 599.317 4.50087 3.77751 0
M  V30 6364 H 600.841 4.03334 4.58426 0
M  V30 6365 H 602.255 5.11592 2.5874 0
M  V30 6366 H 600.652 5.65498 2.00827 0
M  V30 6367 H 601.722 4.76243 0.912159 0
M  V30 6368 N 603.065 -0.440357 1.51323 0
M  V30 6369 C 604.013 -1.55492 1.72988 0
M  V30 6370 C 605.007 -1.58564 0.596138 0
M  V30 6371 O 606.213 -1.62345 0.777443 0
M  V30 6372 H 602.588 -0.516532 0.546533 0
M  V30 6373 H 604.559 -1.34392 2.66423 0
M  V30 6374 C 603.308 -2.93176 1.86931 0
M  V30 6375 H 602.631 -2.91543 2.73574 0
M  V30 6376 H 604.071 -3.70537 2.06103 0
M  V30 6377 C 602.53 -3.30988 0.628365 0
M  V30 6378 O 603.06 -4.01106 -0.218367 0
M  V30 6379 N 601.266 -2.86719 0.473339 0
M  V30 6380 H 600.813 -2.2983 1.16345 0
M  V30 6381 H 600.771 -3.12381 -0.355727 0
M  V30 6382 N 604.543 -1.41418 -0.695603 0
M  V30 6383 C 605.82 -1.31264 -1.45014 0
M  V30 6384 C 606.2 0.0597994 -2.11015 0
M  V30 6385 O 605.548 1.07403 -2.01685 0
M  V30 6386 C 605.758 -2.466 -2.4696 0
M  V30 6387 C 607.106 -2.87763 -3.12214 0
M  V30 6388 O 608.13 -2.46339 -2.57285 0
M  V30 6389 O 606.989 -3.59395 -4.11701 0
M  V30 6390 H 604.083 -0.516576 -0.645816 0
M  V30 6391 H 606.629 -1.53382 -0.726084 0
M  V30 6392 H 605.401 -3.38183 -1.96845 0
M  V30 6393 H 605.024 -2.26358 -3.26876 0
M  V30 6394 N 606.021 0.929856 -1.27246 0
M  V30 6395 C 606.968 2.03017 -1.09785 0
M  V30 6396 C 607.938 1.661 0.000456744 0
M  V30 6397 O 609.123 1.90116 -0.161462 0
M  V30 6398 C 606.263 3.36878 -0.748816 0
M  V30 6399 C 605.376 3.86763 -1.92453 0
M  V30 6400 C 604.511 5.09061 -1.51758 0
M  V30 6401 C 603.55 5.51237 -2.66091 0
M  V30 6402 N 602.687 6.64732 -2.25999 0
M  V30 6403 H 607.527 2.17285 -2.03939 0
M  V30 6404 H 605.064 1.06448 -1.01524 0
M  V30 6405 H 607.022 4.13855 -0.527283 0
M  V30 6406 H 605.652 3.22424 0.155771 0
M  V30 6407 H 604.704 3.06086 -2.25867 0
M  V30 6408 H 606.016 4.13994 -2.78227 0
M  V30 6409 H 605.17 5.93532 -1.25716 0
M  V30 6410 H 603.909 4.83602 -0.630896 0
M  V30 6411 H 602.914 4.65316 -2.92849 0
M  V30 6412 H 604.139 5.78692 -3.55377 0
M  V30 6413 H 602.085 6.40935 -1.3978 0
M  V30 6414 H 602.002 6.91607 -3.05313 0
M  V30 6415 H 603.27 7.52549 -2.03199 0
M  V30 6416 N 607.499 1.09233 1.13605 0
M  V30 6417 C 608.745 0.828385 1.8511 0
M  V30 6418 C 609.078 -0.64437 1.83198 0
M  V30 6419 O 608.353 -1.47428 1.26867 0
M  V30 6420 C 608.636 1.36167 3.33363 0
M  V30 6421 C 608.489 2.90038 3.438 0
M  V30 6422 C 609.808 0.993819 4.28732 0
M  V30 6423 H 606.927 0.30239 0.672108 0
M  V30 6424 H 609.569 1.35339 1.33355 0
M  V30 6425 H 607.719 0.9151 3.77569 0
M  V30 6426 H 609.391 3.43128 3.08319 0
M  V30 6427 H 607.634 3.27271 2.84739 0
M  V30 6428 H 608.305 3.22428 4.48045 0
M  V30 6429 H 610.781 1.37893 3.92587 0
M  V30 6430 H 609.657 1.39403 5.30903 0
M  V30 6431 H 609.918 -0.0982206 4.41991 0
M  V30 6432 N 608.977 -1.30795 0.87923 0
M  V30 6433 C 609.924 -2.28282 0.339968 0
M  V30 6434 C 610.894 -1.56134 -0.566685 0
M  V30 6435 O 612.079 -1.84231 -0.496338 0
M  V30 6436 C 609.219 -3.42225 -0.444501 0
M  V30 6437 C 608.332 -4.29204 0.490717 0
M  V30 6438 C 607.467 -5.30302 -0.308784 0
M  V30 6439 C 606.506 -6.08929 0.622272 0
M  V30 6440 N 605.643 -7.01957 -0.14155 0
M  V30 6441 H 610.483 -2.73794 1.17647 0
M  V30 6442 H 608.02 -1.34682 0.591527 0
M  V30 6443 H 609.978 -4.07038 -0.915186 0
M  V30 6444 H 608.608 -2.97799 -1.24562 0
M  V30 6445 H 607.66 -3.6475 1.07988 0
M  V30 6446 H 608.972 -4.84045 1.20425 0
M  V30 6447 H 608.126 -6.00835 -0.841575 0
M  V30 6448 H 606.865 -4.7614 -1.05556 0
M  V30 6449 H 605.87 -5.37278 1.16674 0
M  V30 6450 H 607.095 -6.65178 1.36804 0
M  V30 6451 H 605.041 -6.50192 -0.870966 0
M  V30 6452 H 604.958 -7.54261 0.51246 0
M  V30 6453 H 606.226 -7.76741 -0.655271 0
M  V30 6454 N 610.455 -0.639598 -1.44038 0
M  V30 6455 C 611.402 0.0602458 -2.30721 0
M  V30 6456 C 612.372 0.828352 -1.43971 0
M  V30 6457 O 613.557 0.807693 -1.72861 0
M  V30 6458 C 610.697 1.03008 -3.29368 0
M  V30 6459 C 609.81 0.259502 -4.3122 0
M  V30 6460 C 608.945 1.22191 -5.16955 0
M  V30 6461 C 607.984 0.440978 -6.10509 0
M  V30 6462 N 607.121 1.35428 -6.88915 0
M  V30 6463 H 611.961 -0.684867 -2.90023 0
M  V30 6464 H 609.498 -0.349509 -1.42888 0
M  V30 6465 H 611.456 1.60583 -3.85057 0
M  V30 6466 H 610.086 1.74222 -2.71747 0
M  V30 6467 H 609.138 -0.432317 -3.77935 0
M  V30 6468 H 610.45 -0.348347 -4.97582 0
M  V30 6469 H 609.604 1.86873 -5.77203 0
M  V30 6470 H 608.343 1.86367 -4.50687 0
M  V30 6471 H 607.348 -0.219279 -5.49363 0
M  V30 6472 H 608.573 -0.196192 -6.78817 0
M  V30 6473 H 606.519 1.9831 -6.25307 0
M  V30 6474 H 606.436 0.800657 -7.51748 0
M  V30 6475 H 607.704 1.98967 -7.53679 0
M  V30 6476 N 611.933 1.52934 -0.380664 0
M  V30 6477 C 612.88 2.26197 0.458641 0
M  V30 6478 C 613.85 1.27462 1.06502 0
M  V30 6479 O 615.035 1.56274 1.09467 0
M  V30 6480 C 612.175 3.06571 1.58456 0
M  V30 6481 C 611.288 4.20222 1.00189 0
M  V30 6482 C 610.423 4.88007 2.09815 0
M  V30 6483 C 609.462 5.93665 1.49092 0
M  V30 6484 N 608.599 6.55081 2.52613 0
M  V30 6485 H 613.439 2.975 -0.172595 0
M  V30 6486 H 610.976 1.4678 -0.0969426 0
M  V30 6487 H 612.934 3.51455 2.24801 0
M  V30 6488 H 611.564 2.37494 2.18624 0
M  V30 6489 H 610.616 3.79714 0.228292 0
M  V30 6490 H 611.928 4.96102 0.518064 0
M  V30 6491 H 611.082 5.36151 2.83948 0
M  V30 6492 H 609.821 4.11632 2.61555 0
M  V30 6493 H 608.826 5.44868 0.7348 0
M  V30 6494 H 610.051 6.71969 0.981582 0
M  V30 6495 H 607.997 5.8155 3.03538 0
M  V30 6496 H 607.914 7.26548 2.08961 0
M  V30 6497 H 609.182 7.07871 3.26402 0
M  V30 6498 N 613.412 0.11024 1.57214 0
M  V30 6499 C 614.375 -0.828808 2.1369 0
M  V30 6500 C 615.375 -1.20059 1.06969 0
M  V30 6501 O 616.565 -1.12754 1.32786 0
M  V30 6502 C 613.697 -2.11959 2.66994 0
M  V30 6503 H 614.89 -0.338146 2.97988 0
M  V30 6504 H 612.443 -0.138913 1.55681 0
M  V30 6505 H 613.178 -2.65476 1.8626 0
M  V30 6506 H 612.963 -1.86258 3.45037 0
M  V30 6507 H 614.453 -2.79105 3.10629 0
M  V30 6508 N 614.89 -1.56749 -0.16351 0
M  V30 6509 C 615.82 -2.00042 -1.20438 0
M  V30 6510 C 616.801 -0.877256 -1.45733 0
M  V30 6511 O 617.986 -1.1439 -1.56935 0
M  V30 6512 C 615.116 -2.36697 -2.54149 0
M  V30 6513 C 614.07 -3.52046 -2.43408 0
M  V30 6514 C 613.396 -3.74466 -3.81679 0
M  V30 6515 C 614.696 -4.85247 -1.93216 0
M  V30 6516 H 616.39 -2.87244 -0.844477 0
M  V30 6517 H 613.936 -1.38194 -0.40478 0
M  V30 6518 H 615.889 -2.65582 -3.27176 0
M  V30 6519 H 614.613 -1.46414 -2.91943 0
M  V30 6520 H 613.272 -3.23301 -1.72834 0
M  V30 6521 H 612.92 -2.81461 -4.1688 0
M  V30 6522 H 612.62 -4.52084 -3.75359 0
M  V30 6523 H 614.144 -4.0576 -4.5628 0
M  V30 6524 H 615.558 -5.12957 -2.56023 0
M  V30 6525 H 613.955 -5.66556 -1.97825 0
M  V30 6526 H 615.025 -4.7672 -0.88689 0
M  V30 6527 N 616.368 0.432326 -1.51554 0
M  V30 6528 C 617.596 1.20364 -1.68286 0
M  V30 6529 C 618.011 1.84888 -0.38233 0
M  V30 6530 O 617.368 1.70924 0.639627 0
M  V30 6531 C 617.419 2.28398 -2.80208 0
M  V30 6532 O 617.14 1.66512 -4.05223 0
M  V30 6533 C 618.641 3.18584 -3.08251 0
M  V30 6534 H 615.861 0.36259 -0.564596 0
M  V30 6535 H 618.405 0.511647 -1.97996 0
M  V30 6536 H 616.56 2.93305 -2.53083 0
M  V30 6537 H 616.974 2.37951 -4.67418 0
M  V30 6538 H 618.448 3.90511 -3.90135 0
M  V30 6539 H 618.925 3.79628 -2.2086 0
M  V30 6540 H 619.531 2.59372 -3.37055 0
M  V30 6541 N 617.846 1.41785 0.688094 0
M  V30 6542 C 619.071 1.45117 1.48175 0
M  V30 6543 C 619.496 0.060129 1.88004 0
M  V30 6544 O 618.854 -0.938385 1.55126 0
M  V30 6545 C 618.902 2.37224 2.71583 0
M  V30 6546 O 618.006 1.83443 3.69354 0
M  V30 6547 H 617.347 0.492208 0.445676 0
M  V30 6548 H 619.877 1.86329 0.845145 0
M  V30 6549 H 619.887 2.53353 3.19806 0
M  V30 6550 H 618.562 3.38293 2.41931 0
M  V30 6551 H 617.139 1.76802 3.28322 0
M  V30 6552 N 619.324 -0.923095 1.27737 0
M  V30 6553 C 620.571 -1.67127 1.14345 0
M  V30 6554 C 620.899 -1.92017 -0.30982 0
M  V30 6555 O 620.154 -1.51185 -1.24264 0
M  V30 6556 C 620.453 -3.04125 1.8773 0
M  V30 6557 C 620.119 -2.98929 3.37568 0
M  V30 6558 C 618.781 -2.9722 3.78436 0
M  V30 6559 C 621.133 -2.89875 4.33154 0
M  V30 6560 C 618.461 -2.84244 5.13247 0
M  V30 6561 C 620.813 -2.7844 5.68026 0
M  V30 6562 C 619.477 -2.75083 6.08182 0
M  V30 6563 H 618.747 -0.611562 0.418417 0
M  V30 6564 H 621.394 -1.07618 1.584 0
M  V30 6565 H 619.699 -3.67366 1.36196 0
M  V30 6566 H 621.396 -3.609 1.74792 0
M  V30 6567 H 617.986 -3.0105 3.05069 0
M  V30 6568 H 622.17 -2.9029 4.02548 0
M  V30 6569 H 617.426 -2.80034 5.43499 0
M  V30 6570 H 621.6 -2.70401 6.4176 0
M  V30 6571 H 619.227 -2.64786 7.12596 0
M  V30 6572 N 620.802 -1.09834 -1.13024 0
M  V30 6573 C 621.712 -0.753731 -2.22162 0
M  V30 6574 C 622.728 0.246105 -1.72251 0
M  V30 6575 O 623.904 0.0864051 -2.01215 0
M  V30 6576 C 620.969 -0.183958 -3.46212 0
M  V30 6577 C 620.03 -1.24028 -4.10993 0
M  V30 6578 C 619.263 -0.697597 -5.29121 0
M  V30 6579 O 619.486 0.478092 -5.68393 0
M  V30 6580 O 618.42 -1.4546 -5.84059 0
M  V30 6581 H 622.246 -1.66456 -2.5402 0
M  V30 6582 H 619.831 -0.873026 -1.21238 0
M  V30 6583 H 621.713 0.130257 -4.21199 0
M  V30 6584 H 620.388 0.699823 -3.16045 0
M  V30 6585 H 619.295 -1.60725 -3.37814 0
M  V30 6586 H 620.628 -2.09685 -4.45301 0
M  V30 6587 N 622.28 1.30327 -0.886154 0
M  V30 6588 C 623.696 1.48676 -0.580323 0
M  V30 6589 C 623.896 1.81189 0.881639 0
M  V30 6590 O 622.952 1.90021 1.66278 0
M  V30 6591 C 624.265 2.60932 -1.49449 0
M  V30 6592 C 625.813 2.74812 -1.49824 0
M  V30 6593 C 626.288 3.90183 -2.39836 0
M  V30 6594 N 627.779 3.97495 -2.37806 0
M  V30 6595 C 628.514 4.86078 -3.04165 0
M  V30 6596 N 628.01 5.79448 -3.79753 0
M  V30 6597 N 629.803 4.79456 -2.93391 0
M  V30 6598 H 621.954 1.07495 -1.8319 0
M  V30 6599 H 624.217 0.532661 -0.784204 0
M  V30 6600 H 623.923 2.43731 -2.5355 0
M  V30 6601 H 623.797 3.57437 -1.20494 0
M  V30 6602 H 626.184 2.91418 -0.464731 0
M  V30 6603 H 626.265 1.78924 -1.82811 0
M  V30 6604 H 625.909 3.74334 -3.43273 0
M  V30 6605 H 625.839 4.85411 -2.04166 0
M  V30 6606 H 628.33 3.30703 -1.82877 0
M  V30 6607 H 628.643 6.43805 -4.27475 0
M  V30 6608 H 626.988 5.79376 -3.8386 0
M  V30 6609 H 630.179 4.05494 -2.33864 0
M  V30 6610 H 630.352 5.48283 -3.45383 0
M  V30 6611 N 623.758 0.647228 1.43697 0
M  V30 6612 C 625.035 0.0883758 1.954 0
M  V30 6613 C 625.415 -1.39006 1.58873 0
M  V30 6614 O 624.763 -2.11255 0.87083 0
M  V30 6615 C 624.973 0.328263 3.47453 0
M  V30 6616 C 626.321 0.230009 4.23977 0
M  V30 6617 O 627.345 0.260496 3.55246 0
M  V30 6618 O 626.204 0.148615 5.46298 0
M  V30 6619 H 623.298 -0.0130683 0.826897 0
M  V30 6620 H 625.844 0.72005 1.53666 0
M  V30 6621 H 624.616 1.3535 3.67146 0
M  V30 6622 H 624.239 -0.336772 3.96171 0
M  V30 6623 N 625.236 -1.5273 0.388769 0
M  V30 6624 C 626.461 -2.0647 -0.19621 0
M  V30 6625 C 626.886 -1.25865 -1.39784 0
M  V30 6626 O 626.244 -0.283562 -1.79069 0
M  V30 6627 C 626.292 -3.56456 -0.5451 0
M  V30 6628 O 625.396 -3.78426 -1.63912 0
M  V30 6629 H 624.737 -0.663599 -0.023067 0
M  V30 6630 H 627.267 -1.96898 0.556084 0
M  V30 6631 H 627.277 -3.99888 -0.809557 0
M  V30 6632 H 625.952 -4.14561 0.333417 0
M  V30 6633 H 624.529 -3.46884 -1.36842 0
M  V30 6634 N 626.714 -0.118576 -1.57153 0
M  V30 6635 C 627.963 0.539339 -1.94355 0
M  V30 6636 C 628.276 1.67858 -1.00415 0
M  V30 6637 O 629.482 2.39922 -1.27081 0
M  V30 6638 C 627.938 1.01082 -3.45414 0
M  V30 6639 C 627.546 -0.0999402 -4.47889 0
M  V30 6640 C 629.29 1.64013 -3.91535 0
M  V30 6641 C 627.197 0.388212 -5.90124 0
M  V30 6642 H 626.127 0.205247 -0.725527 0
M  V30 6643 H 628.778 -0.19836 -1.82425 0
M  V30 6644 H 627.16 1.80292 -3.52577 0
M  V30 6645 H 628.334 -0.876189 -4.52393 0
M  V30 6646 H 626.649 -0.635885 -4.11516 0
M  V30 6647 H 629.246 2.01649 -4.95219 0
M  V30 6648 H 629.589 2.51836 -3.31488 0
M  V30 6649 H 630.122 0.913439 -3.87171 0
M  V30 6650 H 626.861 -0.453963 -6.53926 0
M  V30 6651 H 626.381 1.13095 -5.89041 0
M  V30 6652 H 628.06 0.849574 -6.41398 0
M  V30 6653 N 628.193 1.56834 0.155195 0
M  V30 6654 C 629.44 1.82898 0.869179 0
M  V30 6655 C 629.768 0.698194 1.81537 0
M  V30 6656 O 629.023 -0.313404 1.93174 0
M  V30 6657 C 629.322 3.15239 1.68402 0
M  V30 6658 C 628.988 4.42123 0.885341 0
M  V30 6659 C 627.65 4.76583 0.664971 0
M  V30 6660 C 630.002 5.20178 0.326234 0
M  V30 6661 C 627.33 5.86566 -0.125346 0
M  V30 6662 C 629.682 6.3099 -0.45108 0
M  V30 6663 C 628.346 6.64006 -0.682102 0
M  V30 6664 H 627.616 0.66927 0.318055 0
M  V30 6665 H 630.263 1.91036 0.133241 0
M  V30 6666 H 628.568 3.02515 2.48982 0
M  V30 6667 H 630.265 3.32618 2.23978 0
M  V30 6668 H 626.855 4.15102 1.06716 0
M  V30 6669 H 631.039 4.93936 0.483787 0
M  V30 6670 H 626.295 6.10594 -0.313915 0
M  V30 6671 H 630.469 6.9067 -0.89149 0
M  V30 6672 H 628.096 7.49065 -1.29636 0
M  V30 6673 N 629.671 -0.424282 1.51781 0
M  V30 6674 C 630.896 -1.19928 1.6921 0
M  V30 6675 C 631.321 -1.8392 0.394355 0
M  V30 6676 O 630.679 -1.69371 -0.646778 0
M  V30 6677 C 630.727 -2.24937 2.81843 0
M  V30 6678 O 629.831 -3.3073 2.46356 0
M  V30 6679 H 629.172 -0.35078 0.563781 0
M  V30 6680 H 631.702 -0.499401 1.98412 0
M  V30 6681 H 631.712 -2.69512 3.06312 0
M  V30 6682 H 630.387 -1.77742 3.76006 0
M  V30 6683 H 628.964 -2.9154 2.32505 0
M  V30 6684 N 631.149 -1.42148 -0.680565 0
M  V30 6685 C 632.097 -1.45401 -1.81552 0
M  V30 6686 C 633.091 -0.33036 -1.66147 0
M  V30 6687 O 634.297 -0.503103 -1.72826 0
M  V30 6688 H 630.672 -0.455265 -0.59853 0
M  V30 6689 H 632.643 -2.41024 -1.75926 0
M  V30 6690 C 631.392 -1.36769 -3.19671 0
M  V30 6691 H 630.715 -2.22525 -3.32149 0
M  V30 6692 H 632.155 -1.43106 -3.9912 0
M  V30 6693 C 630.614 -0.0817752 -3.36801 0
M  V30 6694 O 631.144 0.867707 -3.92216 0
M  V30 6695 N 629.35 -0.000799811 -2.906 0
M  V30 6696 H 628.897 -0.774231 -2.4569 0
M  V30 6697 H 628.855 0.858961 -3.02439 0
M  V30 6698 N 632.627 0.916307 -1.28225 0
M  V30 6699 C 633.557 2.0352 -1.14464 0
M  V30 6700 C 634.538 1.70045 -0.0430844 0
M  V30 6701 O 635.723 1.92954 -0.219619 0
M  V30 6702 C 632.853 3.37889 -0.803027 0
M  V30 6703 C 631.807 3.85516 -1.85908 0
M  V30 6704 C 631.133 5.1682 -1.37116 0
M  V30 6705 C 632.433 4.07655 -3.26519 0
M  V30 6706 H 634.127 2.1529 -2.08064 0
M  V30 6707 H 631.673 1.03446 -1.00174 0
M  V30 6708 H 633.626 4.15654 -0.693537 0
M  V30 6709 H 632.35 3.26164 0.168674 0
M  V30 6710 H 631.009 3.09953 -1.95767 0
M  V30 6711 H 630.657 5.01497 -0.38859 0
M  V30 6712 H 630.357 5.49657 -2.07728 0
M  V30 6713 H 631.881 5.97143 -1.27484 0
M  V30 6714 H 633.295 4.75953 -3.19596 0
M  V30 6715 H 631.692 4.51818 -3.94943 0
M  V30 6716 H 632.762 3.12553 -3.70727 0
M  V30 6717 N 634.105 1.10431 1.1244 0
M  V30 6718 C 635.333 0.868872 1.87772 0
M  V30 6719 C 635.748 -0.580645 1.7965 0
M  V30 6720 O 635.105 -1.40031 1.17036 0
M  V30 6721 C 635.156 1.30855 3.36986 0
M  V30 6722 O 634.877 2.70123 3.44914 0
M  V30 6723 C 636.378 1.107 4.29256 0
M  V30 6724 H 633.598 0.311868 0.59412 0
M  V30 6725 H 636.142 1.46897 1.42273 0
M  V30 6726 H 634.297 0.752126 3.80029 0
M  V30 6727 H 634.711 2.88923 4.37748 0
M  V30 6728 H 636.185 1.46378 5.32238 0
M  V30 6729 H 636.662 0.0456228 4.39176 0
M  V30 6730 H 637.268 1.64988 3.91994 0
M  V30 6731 N 635.583 -1.29855 0.893053 0
M  V30 6732 C 636.831 -1.9544 0.514566 0
M  V30 6733 C 637.152 -1.70795 -0.940959 0
M  V30 6734 O 636.422 -1.03601 -1.66264 0
M  V30 6735 H 635.002 -0.723137 0.187302 0
M  V30 6736 H 637.664 -1.58234 1.13789 0
M  V30 6737 H 636.76 -3.04341 0.691581 0
M  V30 6738 N 637.061 -0.65484 -1.43351 0
M  V30 6739 C 637.993 0.0744757 -2.29079 0
M  V30 6740 C 639.006 0.7855 -1.42596 0
M  V30 6741 O 640.195 0.642986 -1.66517 0
M  V30 6742 C 637.295 1.12859 -3.19556 0
M  V30 6743 C 636.468 0.495381 -4.34586 0
M  V30 6744 C 635.527 1.44659 -5.05925 0
M  V30 6745 O 634.553 0.954567 -5.61139 0
M  V30 6746 N 635.755 2.78051 -5.09576 0
M  V30 6747 H 638.52 -0.661346 -2.92312 0
M  V30 6748 H 636.081 -0.497744 -1.54059 0
M  V30 6749 H 638.073 1.76577 -3.64147 0
M  V30 6750 H 636.643 1.76636 -2.57912 0
M  V30 6751 H 635.863 -0.32092 -3.92892 0
M  V30 6752 H 637.151 0.0534203 -5.08772 0
M  V30 6753 H 636.549 3.20584 -4.66093 0
M  V30 6754 H 635.106 3.37068 -5.57878 0
M  V30 6755 N 638.539 1.52521 -0.396863 0
M  V30 6756 C 639.469 2.29582 0.425941 0
M  V30 6757 C 640.45 1.33281 1.05689 0
M  V30 6758 O 641.635 1.62181 1.06823 0
M  V30 6759 C 638.765 3.10821 1.54943 0
M  V30 6760 C 637.719 4.15069 1.04413 0
M  V30 6761 C 637.045 4.84578 2.26028 0
M  V30 6762 C 638.345 5.22191 0.106767 0
M  V30 6763 H 640.039 2.98612 -0.217045 0
M  V30 6764 H 637.585 1.43611 -0.105826 0
M  V30 6765 H 639.538 3.63492 2.13193 0
M  V30 6766 H 638.262 2.39538 2.22011 0
M  V30 6767 H 636.921 3.63389 0.484118 0
M  V30 6768 H 636.569 4.09835 2.91623 0
M  V30 6769 H 636.269 5.55043 1.92876 0
M  V30 6770 H 637.793 5.40056 2.84906 0
M  V30 6771 H 639.207 5.70176 0.597685 0
M  V30 6772 H 637.604 5.99947 -0.135352 0
M  V30 6773 H 638.674 4.77531 -0.842134 0
M  V30 6774 N 640.017 0.126909 1.57088 0
M  V30 6775 C 641.294 -0.573152 1.87014 0
M  V30 6776 C 641.674 -1.84297 1.02945 0
M  V30 6777 O 641.022 -2.28232 0.110573 0
M  V30 6778 C 641.232 -0.857984 3.38289 0
M  V30 6779 C 642.58 -1.20759 4.07066 0
M  V30 6780 O 643.604 -0.947992 3.43353 0
M  V30 6781 O 642.463 -1.69516 5.19545 0
M  V30 6782 H 639.557 -0.290082 0.774456 0
M  V30 6783 H 642.103 0.162008 1.68925 0
M  V30 6784 H 640.875 0.0415286 3.91278 0
M  V30 6785 H 640.498 -1.64803 3.61837 0
M  V30 6786 N 641.495 -1.56914 -0.146875 0
M  V30 6787 C 642.725 -1.87243 -0.873126 0
M  V30 6788 C 643.133 -0.713127 -1.75246 0
M  V30 6789 O 642.476 0.326228 -1.8078 0
M  V30 6790 C 642.538 -3.12279 -1.78107 0
M  V30 6791 C 642.202 -4.44082 -1.07889 0
M  V30 6792 C 643.199 -5.18096 -0.432734 0
M  V30 6793 C 640.884 -4.90807 -1.06836 0
M  V30 6794 C 642.878 -6.37039 0.214569 0
M  V30 6795 C 640.565 -6.09674 -0.417243 0
M  V30 6796 C 641.563 -6.82636 0.223093 0
M  V30 6797 O 641.251 -7.99245 0.863884 0
M  V30 6798 H 640.983 -0.624896 -0.257839 0
M  V30 6799 H 643.537 -2.04892 -0.14434 0
M  V30 6800 H 641.767 -2.90639 -2.5508 0
M  V30 6801 H 643.456 -3.28854 -2.37929 0
M  V30 6802 H 644.222 -4.83066 -0.432677 0
M  V30 6803 H 640.101 -4.3394 -1.55618 0
M  V30 6804 H 643.645 -6.93927 0.714965 0
M  V30 6805 H 639.542 -6.44165 -0.414967 0
M  V30 6806 H 640.31 -8.14912 0.765564 0
M  V30 6807 N 642.974 0.416227 -1.52004 0
M  V30 6808 C 643.906 1.52552 -1.71058 0
M  V30 6809 C 644.919 1.51693 -0.59102 0
M  V30 6810 O 646.108 1.56087 -0.865973 0
M  V30 6811 C 643.208 2.91455 -1.72937 0
M  V30 6812 C 642.381 3.16584 -3.01816 0
M  V30 6813 C 641.44 4.35322 -2.95603 0
M  V30 6814 O 640.466 4.32947 -3.6952 0
M  V30 6815 N 641.668 5.40049 -2.12903 0
M  V30 6816 H 644.433 1.36604 -2.66757 0
M  V30 6817 H 641.994 0.60544 -1.50153 0
M  V30 6818 H 643.986 3.68944 -1.66321 0
M  V30 6819 H 642.556 3.00895 -0.847418 0
M  V30 6820 H 641.776 2.27203 -3.22137 0
M  V30 6821 H 643.064 3.30213 -3.87088 0
M  V30 6822 H 642.462 5.44823 -1.52265 0
M  V30 6823 H 641.019 6.16308 -2.1215 0
M  V30 6824 N 644.452 1.42507 0.673017 0
M  V30 6825 C 645.7 1.42789 1.43023 0
M  V30 6826 C 646.021 0.0459738 1.94946 0
M  V30 6827 O 645.291 -0.915765 1.73178 0
M  V30 6828 H 643.871 0.525657 0.530748 0
M  V30 6829 H 646.533 1.77944 0.795113 0
M  V30 6830 H 645.629 2.12872 2.28237 0
M  V30 6831 N 645.93 -0.909495 1.28709 0
M  V30 6832 C 647.177 -1.65905 1.16111 0
M  V30 6833 C 647.505 -1.92334 -0.289436 0
M  V30 6834 O 646.76 -1.52495 -1.22653 0
M  V30 6835 C 647.059 -3.02117 1.90945 0
M  V30 6836 C 646.725 -2.95332 3.40719 0
M  V30 6837 C 645.387 -2.93189 3.81567 0
M  V30 6838 C 647.739 -2.85264 4.36204 0
M  V30 6839 C 645.067 -2.78784 5.16233 0
M  V30 6840 C 647.419 -2.724 5.70948 0
M  V30 6841 C 646.083 -2.68617 6.11066 0
M  V30 6842 H 645.353 -0.60709 0.42488 0
M  V30 6843 H 648 -1.05932 1.59533 0
M  V30 6844 H 646.305 -3.65901 1.40085 0
M  V30 6845 H 648.002 -3.59026 1.7861 0
M  V30 6846 H 644.592 -2.97797 3.08245 0
M  V30 6847 H 648.776 -2.86005 4.05605 0
M  V30 6848 H 644.032 -2.74254 5.46438 0
M  V30 6849 H 648.206 -2.63579 6.44592 0
M  V30 6850 H 645.833 -2.57213 7.15364 0
M  V30 6851 N 647.408 -1.11026 -1.11852 0
M  V30 6852 C 648.318 -0.777252 -2.2135 0
M  V30 6853 C 649.334 0.227821 -1.72502 0
M  V30 6854 O 650.51 0.0650587 -2.01295 0
M  V30 6855 C 647.575 -0.220668 -3.45997 0
M  V30 6856 C 646.636 -1.2838 -4.09655 0
M  V30 6857 C 645.869 -0.753678 -5.28352 0
M  V30 6858 O 646.092 0.417779 -5.68868 0
M  V30 6859 O 645.026 -1.51647 -5.82483 0
M  V30 6860 H 648.852 -1.69141 -2.5224 0
M  V30 6861 H 646.437 -0.885836 -1.20305 0
M  V30 6862 H 648.319 0.0855756 -4.21313 0
M  V30 6863 H 646.994 0.666262 -3.16769 0
M  V30 6864 H 645.901 -1.64299 -3.3609 0
M  V30 6865 H 647.234 -2.14396 -4.43052 0
M  V30 6866 N 648.886 1.2938 -0.899927 0
M  V30 6867 C 649.833 2.27713 -0.376243 0
M  V30 6868 C 650.803 1.57016 0.541774 0
M  V30 6869 O 651.988 1.84997 0.466966 0
M  V30 6870 C 649.128 3.42889 0.39 0
M  V30 6871 C 648.241 4.28369 -0.558938 0
M  V30 6872 C 647.376 5.30726 0.224379 0
M  V30 6873 C 646.415 6.07862 -0.719068 0
M  V30 6874 N 645.552 7.02094 0.0298569 0
M  V30 6875 H 650.392 2.71888 -1.21988 0
M  V30 6876 H 647.929 1.33724 -0.612879 0
M  V30 6877 H 649.887 4.08443 0.850314 0
M  V30 6878 H 648.517 2.99743 1.19809 0
M  V30 6879 H 647.569 3.62986 -1.13777 0
M  V30 6880 H 648.881 4.82068 -1.2811 0
M  V30 6881 H 648.035 6.02098 0.745881 0
M  V30 6882 H 646.774 4.77759 0.979674 0
M  V30 6883 H 645.779 5.35353 -1.25207 0
M  V30 6884 H 647.004 6.62917 -1.4737 0
M  V30 6885 H 644.95 6.51496 0.767415 0
M  V30 6886 H 644.867 7.5335 -0.632391 0
M  V30 6887 H 646.135 7.77685 0.531615 0
M  V30 6888 N 650.364 0.662433 1.43002 0
M  V30 6889 C 651.327 -0.0142016 2.29196 0
M  V30 6890 C 652.327 -0.741394 1.42688 0
M  V30 6891 O 653.517 -0.581257 1.64216 0
M  V30 6892 C 650.649 -1.03084 3.24941 0
M  V30 6893 H 651.842 0.7443 2.90517 0
M  V30 6894 H 649.395 0.424133 1.50435 0
M  V30 6895 H 650.13 -1.81826 2.68533 0
M  V30 6896 H 649.915 -0.512946 3.8873 0
M  V30 6897 H 651.405 -1.50308 3.89612 0
M  V30 6898 N 651.842 -1.52309 0.404946 0
M  V30 6899 C 653.119 -1.94237 -0.230544 0
M  V30 6900 C 653.499 -1.34154 -1.6299 0
M  V30 6901 O 652.847 -0.515713 -2.22604 0
M  V30 6902 C 653.057 -3.48166 -0.241106 0
M  V30 6903 C 654.405 -4.22074 -0.462488 0
M  V30 6904 O 655.429 -3.54754 -0.320644 0
M  V30 6905 O 654.288 -5.41443 -0.741708 0
M  V30 6906 H 651.382 -0.813766 -0.147358 0
M  V30 6907 H 653.928 -1.6333 0.460587 0
M  V30 6908 H 652.7 -3.84269 0.738467 0
M  V30 6909 H 652.323 -3.85422 -0.97651 0
M  V30 6910 N 653.32 -0.135238 -1.57019 0
M  V30 6911 C 654.253 0.846618 -2.11914 0
M  V30 6912 C 655.231 1.25019 -1.03966 0
M  V30 6913 O 656.415 1.34838 -1.31723 0
M  V30 6914 C 653.542 2.1352 -2.6292 0
M  V30 6915 C 652.588 1.87846 -3.82905 0
M  V30 6916 S 653.421 1.08005 -5.24495 0
M  V30 6917 C 654.577 2.38008 -5.78881 0
M  V30 6918 H 654.81 0.379752 -2.94865 0
M  V30 6919 H 652.343 0.0788387 -1.54199 0
M  V30 6920 H 654.301 2.87551 -2.92958 0
M  V30 6921 H 652.962 2.57323 -1.80121 0
M  V30 6922 H 652.155 2.83365 -4.16797 0
M  V30 6923 H 651.757 1.21929 -3.53567 0
M  V30 6924 H 654.049 3.33742 -5.89595 0
M  V30 6925 H 654.992 2.08638 -6.76665 0
M  V30 6926 H 655.4 2.48119 -5.07048 0
M  V30 6927 N 654.798 1.5699 0.138552 0
M  V30 6928 C 656.044 1.84081 0.85099 0
M  V30 6929 C 656.377 0.718107 1.80435 0
M  V30 6930 O 655.652 -0.277633 1.92508 0
M  V30 6931 C 655.935 3.21699 1.61808 0
M  V30 6932 C 655.788 4.44544 0.685633 0
M  V30 6933 C 657.107 3.5664 2.57868 0
M  V30 6934 H 654.226 0.669592 0.307922 0
M  V30 6935 H 656.868 1.89646 0.11588 0
M  V30 6936 H 655.018 3.17086 2.24474 0
M  V30 6937 H 656.69 4.61248 0.0693179 0
M  V30 6938 H 654.933 4.338 -0.00421993 0
M  V30 6939 H 655.604 5.3746 1.25858 0
M  V30 6940 H 658.08 3.61918 2.05316 0
M  V30 6941 H 656.956 4.53946 3.08584 0
M  V30 6942 H 657.217 2.83036 3.39622 0
M  V30 6943 N 656.276 -0.40816 1.52223 0
M  V30 6944 C 657.525 -1.15212 1.65557 0
M  V30 6945 C 657.838 -1.9163 0.392096 0
M  V30 6946 O 659.044 -2.68458 0.405256 0
M  V30 6947 C 657.5 -2.09691 2.92502 0
M  V30 6948 C 657.108 -1.38785 4.25961 0
M  V30 6949 C 658.852 -2.8434 3.152 0
M  V30 6950 C 656.759 -2.31919 5.44029 0
M  V30 6951 H 655.689 -0.433776 0.616729 0
M  V30 6952 H 658.34 -0.4165 1.78711 0
M  V30 6953 H 656.722 -2.8681 2.7305 0
M  V30 6954 H 657.896 -0.670248 4.55899 0
M  V30 6955 H 656.211 -0.761741 4.09373 0
M  V30 6956 H 658.808 -3.54166 4.00587 0
M  V30 6957 H 659.151 -3.47344 2.29473 0
M  V30 6958 H 659.684 -2.14321 3.35129 0
M  V30 6959 H 656.423 -1.7356 6.32105 0
M  V30 6960 H 655.943 -3.0165 5.18428 0
M  V30 6961 H 657.622 -2.92424 5.77146 0
M  V30 6962 N 657.755 -1.42862 -0.66545 0
M  V30 6963 C 658.665 -1.49491 -1.80803 0
M  V30 6964 C 659.681 -0.382914 -1.69734 0
M  V30 6965 O 660.857 -0.635223 -1.9112 0
M  V30 6966 C 657.922 -1.40383 -3.17007 0
M  V30 6967 C 656.983 -2.62152 -3.39963 0
M  V30 6968 C 656.216 -2.53469 -4.69669 0
M  V30 6969 O 656.439 -1.57568 -5.48205 0
M  V30 6970 O 655.373 -3.43763 -4.94075 0
M  V30 6971 H 659.199 -2.45949 -1.78165 0
M  V30 6972 H 656.784 -1.24728 -0.822387 0
M  V30 6973 H 658.666 -1.377 -3.98267 0
M  V30 6974 H 657.341 -0.470546 -3.20262 0
M  V30 6975 H 656.248 -2.70409 -2.58515 0
M  V30 6976 H 657.581 -3.54411 -3.41546 0
M  V30 6977 N 659.233 0.902656 -1.29189 0
M  V30 6978 C 660.196 1.98797 -1.14071 0
M  V30 6979 C 661.196 1.60615 -0.0770549 0
M  V30 6980 O 662.386 1.71165 -0.323753 0
M  V30 6981 C 659.518 3.32688 -0.743739 0
M  V30 6982 H 660.711 2.13637 -2.10473 0
M  V30 6983 H 658.264 1.08678 -1.12334 0
M  V30 6984 H 658.999 3.23549 0.220554 0
M  V30 6985 H 658.784 3.61765 -1.51223 0
M  V30 6986 H 660.274 4.12337 -0.660935 0
M  V30 6987 N 660.711 1.11618 1.11262 0
M  V30 6988 C 661.957 0.867463 1.83311 0
M  V30 6989 C 662.29 -0.605366 1.84524 0
M  V30 6990 O 661.565 -1.44704 1.29965 0
M  V30 6991 C 661.848 1.43207 3.30399 0
M  V30 6992 C 661.701 2.97265 3.3757 0
M  V30 6993 C 663.02 1.08454 4.26528 0
M  V30 6994 H 660.139 0.316578 0.665543 0
M  V30 6995 H 662.781 1.38137 1.30454 0
M  V30 6996 H 660.931 0.994982 3.75543 0
M  V30 6997 H 662.603 3.49591 3.00971 0
M  V30 6998 H 660.846 3.33237 2.77733 0
M  V30 6999 H 661.517 3.31859 4.41105 0
M  V30 7000 H 663.993 1.4619 3.89574 0
M  V30 7001 H 662.869 1.50633 5.27826 0
M  V30 7002 H 663.13 -0.00444568 4.421 0
M  V30 7003 N 662.189 -1.289 0.906776 0
M  V30 7004 C 663.436 -1.95269 0.536326 0
M  V30 7005 C 663.764 -1.71435 -0.918711 0
M  V30 7006 O 663.019 -1.02431 -1.66752 0
M  V30 7007 C 663.318 -3.48704 0.783617 0
M  V30 7008 C 662.984 -3.92626 2.21711 0
M  V30 7009 C 661.646 -4.04329 2.60906 0
M  V30 7010 C 663.998 -4.15218 3.15029 0
M  V30 7011 C 661.326 -4.35998 3.92584 0
M  V30 7012 C 663.678 -4.48365 4.46264 0
M  V30 7013 C 662.342 -4.58278 4.85322 0
M  V30 7014 H 661.612 -0.714538 0.196256 0
M  V30 7015 H 664.259 -1.53366 1.14678 0
M  V30 7016 H 662.564 -3.91696 0.0903048 0
M  V30 7017 H 664.261 -3.98162 0.476267 0
M  V30 7018 H 660.851 -3.84038 1.90296 0
M  V30 7019 H 665.035 -4.05636 2.8596 0
M  V30 7020 H 660.291 -4.41878 4.22557 0
M  V30 7021 H 664.465 -4.64795 5.18593 0
M  V30 7022 H 662.092 -4.82573 5.87391 0
M  V30 7023 N 663.667 -0.670007 -1.42649 0
M  V30 7024 C 664.577 0.0114788 -2.34597 0
M  V30 7025 C 665.593 0.794055 -1.54825 0
M  V30 7026 O 666.769 0.737472 -1.87412 0
M  V30 7027 C 663.834 0.954436 -3.33304 0
M  V30 7028 C 662.895 0.166925 -4.28975 0
M  V30 7029 C 662.128 1.06497 -5.22967 0
M  V30 7030 O 662.351 2.30446 -5.21777 0
M  V30 7031 O 661.285 0.528347 -5.99577 0
M  V30 7032 H 665.111 -0.745794 -2.944 0
M  V30 7033 H 662.696 -0.430228 -1.43071 0
M  V30 7034 H 664.578 1.49589 -3.93956 0
M  V30 7035 H 663.253 1.69164 -2.7598 0
M  V30 7036 H 662.16 -0.418515 -3.71752 0
M  V30 7037 H 663.493 -0.531067 -4.89327 0
M  V30 7038 N 665.145 1.52092 -0.413018 0
M  V30 7039 C 666.422 1.94356 0.22024 0
M  V30 7040 C 666.802 1.35017 1.62277 0
M  V30 7041 O 666.15 0.527511 2.22328 0
M  V30 7042 C 666.36 3.48289 0.222638 0
M  V30 7043 C 667.708 4.22313 0.440098 0
M  V30 7044 O 668.732 3.54919 0.301826 0
M  V30 7045 O 667.591 5.41829 0.712984 0
M  V30 7046 H 664.685 0.814536 0.14304 0
M  V30 7047 H 667.231 1.63083 -0.469242 0
M  V30 7048 H 666.003 3.83872 -0.758836 0
M  V30 7049 H 665.626 3.85934 0.956057 0
M  V30 7050 N 666.623 0.143563 1.56945 0
M  V30 7051 C 667.553 -0.7936 2.196 0
M  V30 7052 C 668.534 -1.25955 1.14321 0
M  V30 7053 O 669.719 -1.31773 1.42651 0
M  V30 7054 C 666.849 -2.03424 2.81489 0
M  V30 7055 C 665.803 -1.70519 3.92565 0
M  V30 7056 C 665.129 -3.01817 4.41373 0
M  V30 7057 C 666.429 -0.95449 5.13504 0
M  V30 7058 H 668.123 -0.271423 2.98167 0
M  V30 7059 H 665.669 -0.12911 1.4342 0
M  V30 7060 H 667.622 -2.69463 3.23987 0
M  V30 7061 H 666.346 -2.58008 2.00248 0
M  V30 7062 H 665.005 -1.06859 3.5068 0
M  V30 7063 H 664.653 -3.54386 3.56959 0
M  V30 7064 H 664.353 -2.80565 5.16292 0
M  V30 7065 H 665.877 -3.68934 4.86539 0
M  V30 7066 H 667.291 -1.5169 5.52868 0
M  V30 7067 H 665.688 -0.842035 5.94163 0
M  V30 7068 H 666.758 0.0544033 4.84869 0
M  V30 7069 N 668.101 -1.57061 -0.130224 0
M  V30 7070 C 669.326 -1.88802 -0.858409 0
M  V30 7071 C 669.751 -0.734353 -1.73173 0
M  V30 7072 O 669.109 0.315529 -1.78533 0
M  V30 7073 C 669.157 -3.19228 -1.67708 0
M  V30 7074 O 668.261 -3.04343 -2.78297 0
M  V30 7075 H 667.602 -0.619849 -0.238083 0
M  V30 7076 H 670.132 -2.04271 -0.115995 0
M  V30 7077 H 670.142 -3.51669 -2.06864 0
M  V30 7078 H 668.817 -4.02793 -1.0359 0
M  V30 7079 H 667.394 -2.83346 -2.42425 0
M  V30 7080 N 669.579 0.400081 -1.52437 0
M  V30 7081 C 670.509 1.4947 -1.7939 0
M  V30 7082 C 671.49 1.57383 -0.645329 0
M  V30 7083 O 672.675 1.72511 -0.891826 0
M  V30 7084 C 669.805 2.87201 -1.95276 0
M  V30 7085 C 668.759 2.94134 -3.10917 0
M  V30 7086 C 668.085 4.34207 -3.1204 0
M  V30 7087 C 669.385 2.64791 -4.50203 0
M  V30 7088 H 671.079 1.27165 -2.71052 0
M  V30 7089 H 668.625 0.610312 -1.30427 0
M  V30 7090 H 670.578 3.63772 -2.12715 0
M  V30 7091 H 669.302 3.10819 -1.00294 0
M  V30 7092 H 667.961 2.20009 -2.93243 0
M  V30 7093 H 667.609 4.54848 -2.14761 0
M  V30 7094 H 667.309 4.39768 -3.89715 0
M  V30 7095 H 668.833 5.127 -3.31619 0
M  V30 7096 H 670.247 3.31083 -4.68035 0
M  V30 7097 H 668.644 2.81717 -5.29864 0
M  V30 7098 H 669.714 1.60184 -4.57678 0
M  V30 7099 N 671.057 1.43213 0.657864 0
M  V30 7100 C 672.004 1.48011 1.77092 0
M  V30 7101 C 672.974 0.330291 1.62783 0
M  V30 7102 O 674.159 0.536787 1.83094 0
M  V30 7103 C 671.299 1.40461 3.15222 0
M  V30 7104 C 670.412 2.65612 3.40697 0
M  V30 7105 C 669.547 2.50083 4.68649 0
M  V30 7106 C 668.586 3.70525 4.87214 0
M  V30 7107 N 667.723 3.53835 6.0642 0
M  V30 7108 H 672.563 2.43121 1.72326 0
M  V30 7109 H 670.1 1.20687 0.841013 0
M  V30 7110 H 672.058 1.34079 3.95068 0
M  V30 7111 H 670.688 0.489359 3.19069 0
M  V30 7112 H 669.74 2.82292 2.54982 0
M  V30 7113 H 671.052 3.5509 3.50303 0
M  V30 7114 H 670.206 2.41383 5.56614 0
M  V30 7115 H 668.945 1.58121 4.61356 0
M  V30 7116 H 667.95 3.79639 3.97686 0
M  V30 7117 H 669.175 4.63489 4.96341 0
M  V30 7118 H 667.121 2.64604 6.00267 0
M  V30 7119 H 667.038 4.36912 6.16963 0
M  V30 7120 H 668.306 3.48978 6.97019 0
M  V30 7121 N 672.536 -0.895792 1.29666 0
M  V30 7122 C 673.486 -1.98736 1.1175 0
M  V30 7123 C 674.47 -1.6086 0.0357834 0
M  V30 7124 O 675.662 -1.75111 0.257926 0
M  V30 7125 C 672.791 -3.33845 0.800156 0
M  V30 7126 C 671.877 -3.78068 1.9216 0
M  V30 7127 N 672.268 -3.94489 3.16563 0
M  V30 7128 C 670.566 -4.07376 1.81552 0
M  V30 7129 C 671.267 -4.31819 3.89753 0
M  V30 7130 N 670.243 -4.41081 3.17724 0
M  V30 7131 H 674.045 -2.09507 2.06117 0
M  V30 7132 H 671.559 -1.08488 1.20848 0
M  V30 7133 H 673.556 -4.11757 0.652841 0
M  V30 7134 H 672.216 -3.24417 -0.135551 0
M  V30 7135 H 673.227 -3.79914 3.51974 0
M  V30 7136 H 669.904 -4.06483 0.952787 0
M  V30 7137 H 671.294 -4.52337 4.96831 0
M  V30 7138 N 674.014 -1.12206 -1.10668 0
M  V30 7139 C 675.43 -0.857619 -1.346 0
M  V30 7140 C 675.63 0.513542 -1.94846 0
M  V30 7141 O 674.686 1.26273 -2.18658 0
M  V30 7142 C 675.999 -1.97212 -2.26998 0
M  V30 7143 C 677.547 -2.00272 -2.40542 0
M  V30 7144 C 678.022 -3.10948 -3.36267 0
M  V30 7145 N 679.513 -3.10375 -3.43834 0
M  V30 7146 C 680.248 -3.92651 -4.17867 0
M  V30 7147 N 679.744 -4.84911 -4.94807 0
M  V30 7148 N 681.537 -3.80798 -4.1346 0
M  V30 7149 H 673.688 -2.00558 -0.699306 0
M  V30 7150 H 675.951 -0.872612 -0.370477 0
M  V30 7151 H 675.657 -2.96002 -1.89936 0
M  V30 7152 H 675.531 -1.87521 -3.27286 0
M  V30 7153 H 677.918 -1.02103 -2.76874 0
M  V30 7154 H 677.999 -2.14037 -1.40077 0
M  V30 7155 H 677.643 -4.09348 -3.00661 0
M  V30 7156 H 677.573 -2.94421 -4.36605 0
M  V30 7157 H 680.064 -2.43536 -2.88961 0
M  V30 7158 H 680.377 -5.44207 -5.48688 0
M  V30 7159 H 678.722 -4.88926 -4.93939 0
M  V30 7160 H 681.913 -3.08058 -3.52445 0
M  V30 7161 H 682.086 -4.4515 -4.70898 0
M  V30 7162 N 675.492 1.28418 -0.913599 0
M  V30 7163 C 676.738 1.9527 -0.547484 0
M  V30 7164 C 677.071 1.71745 0.906486 0
M  V30 7165 O 676.346 1.03834 1.64465 0
M  V30 7166 C 676.629 3.49748 -0.857205 0
M  V30 7167 C 676.482 3.82675 -2.3639 0
M  V30 7168 C 677.801 4.3868 -0.353258 0
M  V30 7169 H 674.92 0.709236 -0.200381 0
M  V30 7170 H 677.562 1.51789 -1.14281 0
M  V30 7171 H 675.712 3.86915 -0.350548 0
M  V30 7172 H 677.384 3.55378 -2.94116 0
M  V30 7173 H 675.627 3.29724 -2.81894 0
M  V30 7174 H 676.298 4.90547 -2.53115 0
M  V30 7175 H 678.774 4.08584 -0.787288 0
M  V30 7176 H 677.65 5.45621 -0.599049 0
M  V30 7177 H 677.911 4.35753 0.746413 0
M  V30 7178 N 676.97 0.677563 1.42291 0
M  V30 7179 C 677.9 0.014968 2.33495 0
M  V30 7180 C 678.881 -0.786376 1.50831 0
M  V30 7181 O 680.066 -0.742975 1.79426 0
M  V30 7182 C 677.196 -0.935023 3.34477 0
M  V30 7183 C 676.15 -0.242074 4.27315 0
M  V30 7184 C 675.476 -1.30519 5.18526 0
M  V30 7185 C 676.776 0.880604 5.14823 0
M  V30 7186 H 678.47 0.776671 2.89151 0
M  V30 7187 H 676.016 0.37494 1.39033 0
M  V30 7188 H 677.969 -1.40766 3.97194 0
M  V30 7189 H 676.693 -1.72818 2.77131 0
M  V30 7190 H 675.352 0.210351 3.65996 0
M  V30 7191 H 675 -2.09041 4.57505 0
M  V30 7192 H 674.7 -0.846652 5.81468 0
M  V30 7193 H 676.224 -1.7787 5.84119 0
M  V30 7194 H 677.638 0.489062 5.7121 0
M  V30 7195 H 676.035 1.26511 5.86613 0
M  V30 7196 H 677.105 1.72818 4.53059 0
M  V30 7197 N 678.448 -1.51871 0.421078 0
M  V30 7198 C 679.395 -2.27334 -0.398508 0
M  V30 7199 C 680.365 -1.30241 -1.03085 0
M  V30 7200 O 681.55 -1.59121 -1.05285 0
M  V30 7201 C 678.69 -3.10664 -1.50272 0
M  V30 7202 C 677.803 -4.2273 -0.890122 0
M  V30 7203 C 676.938 -4.93399 -1.96803 0
M  V30 7204 C 675.977 -5.97409 -1.333 0
M  V30 7205 N 675.114 -6.61548 -2.35156 0
M  V30 7206 H 679.954 -2.96938 0.251411 0
M  V30 7207 H 677.491 -1.46472 0.135825 0
M  V30 7208 H 679.449 -3.57292 -2.15403 0
M  V30 7209 H 678.079 -2.43207 -2.1225 0
M  V30 7210 H 677.131 -3.80186 -0.127537 0
M  V30 7211 H 678.443 -4.97302 -0.386349 0
M  V30 7212 H 677.597 -5.43491 -2.69633 0
M  V30 7213 H 676.336 -4.18421 -2.50549 0
M  V30 7214 H 675.341 -5.46624 -0.59008 0
M  V30 7215 H 676.566 -6.74335 -0.803076 0
M  V30 7216 H 674.512 -5.89394 -2.88012 0
M  V30 7217 H 674.429 -7.31832 -1.89624 0
M  V30 7218 H 675.697 -7.16276 -3.0752 0
M  V30 7219 N 679.926 -0.151884 -1.56866 0
M  V30 7220 C 680.836 0.798876 -2.20579 0
M  V30 7221 C 681.852 1.268 -1.19154 0
M  V30 7222 O 683.028 1.32418 -1.51748 0
M  V30 7223 C 680.093 2.01861 -2.81874 0
M  V30 7224 C 679.154 1.59825 -3.9844 0
M  V30 7225 C 678.387 2.75984 -4.56802 0
M  V30 7226 O 678.61 3.92331 -4.14044 0
M  V30 7227 O 677.544 2.51175 -5.46987 0
M  V30 7228 H 681.37 0.2865 -3.02346 0
M  V30 7229 H 678.955 0.0753806 -1.4921 0
M  V30 7230 H 680.837 2.73235 -3.20813 0
M  V30 7231 H 679.512 2.52042 -2.03117 0
M  V30 7232 H 678.419 0.854601 -3.64208 0
M  V30 7233 H 679.752 1.14355 -4.78731 0
M  V30 7234 N 681.404 1.57128 0.121893 0
M  V30 7235 C 682.65 1.84974 0.831418 0
M  V30 7236 C 682.983 0.737204 1.79663 0
M  V30 7237 O 682.258 -0.257199 1.92792 0
M  V30 7238 C 682.541 3.23397 1.58386 0
M  V30 7239 C 682.394 4.45246 0.638445 0
M  V30 7240 C 683.713 3.59355 2.54071 0
M  V30 7241 H 680.832 0.67282 0.300803 0
M  V30 7242 H 683.474 1.89759 0.0957587 0
M  V30 7243 H 681.624 3.19449 2.21098 0
M  V30 7244 H 683.296 4.61295 0.0203925 0
M  V30 7245 H 681.539 4.33771 -0.05023 0
M  V30 7246 H 682.21 5.38765 1.20151 0
M  V30 7247 H 684.686 3.64075 2.01465 0
M  V30 7248 H 683.562 4.57193 3.03752 0
M  V30 7249 H 683.823 2.86622 3.36601 0
M  V30 7250 N 682.882 -0.391992 1.52647 0
M  V30 7251 C 683.792 -1.503 1.80131 0
M  V30 7252 C 684.808 -1.59825 0.687882 0
M  V30 7253 O 685.984 -1.76218 0.975149 0
M  V30 7254 C 683.049 -2.85863 1.96171 0
M  V30 7255 C 682.11 -2.86084 3.20085 0
M  V30 7256 C 681.343 -4.15181 3.35351 0
M  V30 7257 O 681.566 -5.09981 2.55491 0
M  V30 7258 O 680.5 -4.22603 4.28591 0
M  V30 7259 H 684.326 -1.30007 2.74466 0
M  V30 7260 H 681.911 -0.579539 1.37701 0
M  V30 7261 H 683.793 -3.66236 2.08445 0
M  V30 7262 H 682.468 -3.06189 1.05025 0
M  V30 7263 H 681.375 -2.04504 3.13256 0
M  V30 7264 H 682.708 -2.7071 4.11068 0
M  V30 7265 N 684.36 -1.4356 -0.65026 0
M  V30 7266 C 685.323 -1.48615 -1.74489 0
M  V30 7267 C 686.323 -0.370483 -1.56474 0
M  V30 7268 O 687.513 -0.632351 -1.62317 0
M  V30 7269 C 684.645 -1.34161 -3.13391 0
M  V30 7270 H 685.838 -2.46103 -1.71387 0
M  V30 7271 H 683.391 -1.30369 -0.862186 0
M  V30 7272 H 684.126 -0.376918 -3.22102 0
M  V30 7273 H 683.911 -2.1504 -3.27872 0
M  V30 7274 H 685.401 -1.40637 -3.93206 0
M  V30 7275 N 685.838 0.888903 -1.30139 0
M  V30 7276 C 687.084 1.6428 -1.18912 0
M  V30 7277 C 687.417 1.92499 0.256477 0
M  V30 7278 O 686.692 1.54312 1.18397 0
M  V30 7279 C 686.975 2.9851 -2.01405 0
M  V30 7280 C 686.828 2.77288 -3.54163 0
M  V30 7281 C 688.147 3.99383 -1.84882 0
M  V30 7282 H 685.266 0.596148 -0.433333 0
M  V30 7283 H 687.908 1.0289 -1.5973 0
M  V30 7284 H 686.058 3.50907 -1.66722 0
M  V30 7285 H 687.73 2.31709 -3.98884 0
M  V30 7286 H 685.973 2.11867 -3.78543 0
M  V30 7287 H 686.644 3.72717 -4.07168 0
M  V30 7288 H 689.12 3.56132 -2.15196 0
M  V30 7289 H 687.996 4.91222 -2.44934 0
M  V30 7290 H 688.257 4.34674 -0.806902 0
M  V30 7291 N 687.317 1.12792 1.10072 0
M  V30 7292 C 688.566 0.880232 1.81479 0
M  V30 7293 C 688.879 -0.595575 1.86312 0
M  V30 7294 O 690.085 -0.959979 2.53962 0
M  V30 7295 C 688.541 1.52514 3.25987 0
M  V30 7296 C 688.149 3.036 3.29441 0
M  V30 7297 C 689.893 1.35788 4.02196 0
M  V30 7298 C 687.8 3.61007 4.68431 0
M  V30 7299 H 686.73 0.325654 0.680048 0
M  V30 7300 H 689.381 1.35485 1.23758 0
M  V30 7301 H 687.763 0.978188 3.83728 0
M  V30 7302 H 688.937 3.64819 2.81502 0
M  V30 7303 H 687.252 3.19765 2.66719 0
M  V30 7304 H 689.849 1.76096 5.0487 0
M  V30 7305 H 690.192 0.301972 4.15203 0
M  V30 7306 H 690.725 1.87426 3.50879 0
M  V30 7307 H 687.464 4.66375 4.60625 0
M  V30 7308 H 686.984 3.04564 5.16721 0
M  V30 7309 H 688.663 3.60289 5.37402 0
M  V30 7310 N 688.795 -1.27931 0.920396 0
M  V30 7311 C 690.206 -1.76707 0.602616 0
M  V30 7312 C 690.557 -1.75249 -0.882159 0
M  V30 7313 O 689.682 -1.35135 -1.69019 0
M  V30 7314 C 690.277 -3.20884 1.08714 0
M  V30 7315 C 688.836 -3.67356 0.820157 0
M  V30 7316 C 687.983 -2.47525 1.25006 0
M  V30 7317 H 690.934 -1.14301 1.10095 0
M  V30 7318 H 690.955 -3.78045 0.431535 0
M  V30 7319 H 690.467 -3.21913 2.1678 0
M  V30 7320 H 688.568 -3.7178 -0.247012 0
M  V30 7321 H 688.681 -4.57181 1.43257 0
M  V30 7322 H 687.045 -2.45765 0.668698 0
M  V30 7323 H 687.828 -2.51269 2.3392 0
M  V30 7324 N 690.273 -0.685099 -1.4193 0
M  V30 7325 C 691.55 -0.140152 -1.95097 0
M  V30 7326 C 691.93 1.34745 -1.62502 0
M  V30 7327 O 691.278 2.08872 -0.926534 0
M  V30 7328 C 691.488 -0.420268 -3.4646 0
M  V30 7329 C 692.836 -0.342338 -4.23218 0
M  V30 7330 O 693.86 -0.354592 -3.54431 0
M  V30 7331 O 692.719 -0.293404 -5.45712 0
M  V30 7332 H 689.813 -0.00885998 -0.826953 0
M  V30 7333 H 692.359 -0.760539 -1.51703 0
M  V30 7334 H 691.131 -1.45037 -3.63428 0
M  V30 7335 H 690.754 0.231616 -3.96925 0
M  V30 7336 N 691.751 1.51645 -0.429126 0
M  V30 7337 C 692.701 2.24388 0.404217 0
M  V30 7338 C 693.685 1.26294 0.996933 0
M  V30 7339 O 694.877 1.51428 0.916434 0
M  V30 7340 C 692.006 3.08338 1.50938 0
M  V30 7341 C 691.092 4.13857 0.926464 0
M  V30 7342 N 691.483 5.05749 0.0719732 0
M  V30 7343 C 689.781 4.29695 1.19491 0
M  V30 7344 C 690.482 5.81143 -0.254528 0
M  V30 7345 N 689.458 5.42408 0.359763 0
M  V30 7346 H 693.26 2.92794 -0.254697 0
M  V30 7347 H 690.774 1.60606 -0.240712 0
M  V30 7348 H 692.771 3.59022 2.11918 0
M  V30 7349 H 691.431 2.41475 2.17072 0
M  V30 7350 H 692.442 5.17066 -0.293854 0
M  V30 7351 H 689.119 3.74059 1.85434 0
M  V30 7352 H 690.509 6.65159 -0.949365 0
M  V30 7353 N 693.229 0.160201 1.56784 0
M  V30 7354 C 694.469 -0.490179 1.98435 0
M  V30 7355 C 694.833 -1.61164 1.04355 0
M  V30 7356 O 696.034 -2.3238 1.35103 0
M  V30 7357 C 694.305 -0.971106 3.43954 0
M  V30 7358 S 695.864 -1.62423 4.07632 0
M  V30 7359 H 692.682 -0.158056 0.693209 0
M  V30 7360 H 695.284 0.255036 1.93829 0
M  V30 7361 H 693.988 -0.144323 4.10146 0
M  V30 7362 H 693.519 -1.75063 3.52302 0
M  V30 7363 H 695.534 -2.91199 4.01768 0
M  V30 7364 N 694.707 -1.5719 -0.113559 0
M  V30 7365 C 695.956 -1.84325 -0.818984 0
M  V30 7366 C 696.269 -0.746685 -1.80787 0
M  V30 7367 O 697.475 -0.904596 -2.55987 0
M  V30 7368 C 695.931 -3.26818 -1.50724 0
M  V30 7369 C 695.539 -4.44498 -0.559065 0
M  V30 7370 C 697.283 -3.63196 -2.19748 0
M  V30 7371 C 695.19 -5.7802 -1.25086 0
M  V30 7372 H 694.12 -0.687507 -0.309596 0
M  V30 7373 H 696.771 -1.8336 -0.0717621 0
M  V30 7374 H 695.153 -3.22269 -2.30128 0
M  V30 7375 H 696.327 -4.60356 0.202146 0
M  V30 7376 H 694.642 -4.16393 0.024495 0
M  V30 7377 H 697.239 -4.60226 -2.72206 0
M  V30 7378 H 697.582 -2.90899 -2.97798 0
M  V30 7379 H 698.115 -3.69553 -1.47226 0
M  V30 7380 H 694.854 -6.53501 -0.511539 0
M  V30 7381 H 694.374 -5.66038 -1.98395 0
M  V30 7382 H 696.053 -6.2196 -1.78253 0
M  V30 7383 N 696.185 0.383891 -1.52853 0
M  V30 7384 C 697.432 1.12842 -1.68146 0
M  V30 7385 C 697.76 1.89823 -0.423954 0
M  V30 7386 O 697.015 1.86475 0.593765 0
M  V30 7387 C 697.314 2.12881 -2.87082 0
M  V30 7388 C 696.98 1.52519 -4.24322 0
M  V30 7389 C 695.642 1.35783 -4.61645 0
M  V30 7390 C 697.994 1.0868 -5.09743 0
M  V30 7391 C 695.322 0.737643 -5.82044 0
M  V30 7392 C 697.674 0.480699 -6.30771 0
M  V30 7393 C 696.338 0.300681 -6.66822 0
M  V30 7394 H 695.608 0.412917 -0.615289 0
M  V30 7395 H 698.255 0.412416 -1.87006 0
M  V30 7396 H 696.56 2.90719 -2.62659 0
M  V30 7397 H 698.257 2.70408 -2.96109 0
M  V30 7398 H 694.847 1.66534 -3.94923 0
M  V30 7399 H 699.031 1.2041 -4.81472 0
M  V30 7400 H 694.287 0.586415 -6.08581 0
M  V30 7401 H 698.461 0.132733 -6.96273 0
M  V30 7402 H 696.088 -0.181966 -7.59982 0
M  V30 7403 N 697.663 1.43903 0.642637 0
M  V30 7404 C 698.626 1.49538 1.73698 0
M  V30 7405 C 699.626 0.378776 1.56275 0
M  V30 7406 O 700.816 0.64095 1.6198 0
M  V30 7407 C 697.948 1.35821 3.12675 0
M  V30 7408 H 699.141 2.47008 1.70079 0
M  V30 7409 H 696.694 1.30824 0.85526 0
M  V30 7410 H 697.429 0.393994 3.21898 0
M  V30 7411 H 697.214 2.16776 3.26727 0
M  V30 7412 H 698.704 1.4272 3.92455 0
M  V30 7413 N 699.141 -0.881989 1.30609 0
M  V30 7414 C 700.366 -1.67236 1.22665 0
M  V30 7415 C 700.791 -1.8696 -0.206777 0
M  V30 7416 O 700.149 -1.4027 -1.14865 0
M  V30 7417 C 700.197 -3.02446 1.96363 0
M  V30 7418 O 699.301 -3.91614 1.29276 0
M  V30 7419 H 698.642 -0.510902 0.424117 0
M  V30 7420 H 701.172 -1.10055 1.72479 0
M  V30 7421 H 701.182 -3.52468 2.055 0
M  V30 7422 H 699.857 -2.8741 3.00613 0
M  V30 7423 H 698.434 -3.50055 1.28514 0
M  V30 7424 N 700.619 -1.13374 -1.09472 0
M  V30 7425 C 701.567 -0.806105 -2.18185 0
M  V30 7426 C 702.561 0.21136 -1.68076 0
M  V30 7427 O 703.767 0.0685558 -1.79869 0
M  V30 7428 H 700.142 -0.242901 -0.71169 0
M  V30 7429 H 702.113 -1.73115 -2.43051 0
M  V30 7430 C 700.862 -0.287928 -3.46506 0
M  V30 7431 H 700.185 -1.06217 -3.85432 0
M  V30 7432 H 701.625 -0.0971054 -4.23889 0
M  V30 7433 C 700.084 0.986256 -3.22141 0
M  V30 7434 O 700.614 2.06217 -3.44728 0
M  V30 7435 N 698.82 0.917153 -2.75747 0
M  V30 7436 H 698.367 0.0414609 -2.57567 0
M  V30 7437 H 698.325 1.77029 -2.59823 0
M  V30 7438 N 702.098 1.27442 -0.927168 0
M  V30 7439 C 703.326 1.98498 -0.583622 0
M  V30 7440 C 703.741 1.69171 0.838241 0
M  V30 7441 O 703.098 0.951969 1.55704 0
M  V30 7442 C 703.149 3.52552 -0.799341 0
M  V30 7443 O 702.87 3.80851 -2.16527 0
M  V30 7444 C 704.371 4.4086 -0.464436 0
M  V30 7445 H 701.591 0.633487 -0.221213 0
M  V30 7446 H 704.135 1.62308 -1.24404 0
M  V30 7447 H 702.29 3.86955 -0.185728 0
M  V30 7448 H 702.704 4.75441 -2.21487 0
M  V30 7449 H 704.178 5.47967 -0.666075 0
M  V30 7450 H 704.655 4.35082 0.599995 0
M  V30 7451 H 705.261 4.11977 -1.05617 0
M  V30 7452 N 703.576 0.692616 1.41565 0
M  V30 7453 C 704.801 0.229776 2.06123 0
M  V30 7454 C 705.226 -1.11119 1.5177 0
M  V30 7455 O 704.584 -1.69498 0.643444 0
M  V30 7456 C 704.632 0.19469 3.60074 0
M  V30 7457 O 703.736 -0.831366 4.03933 0
M  V30 7458 H 703.077 0.113002 0.654314 0
M  V30 7459 H 705.607 0.946645 1.81383 0
M  V30 7460 H 705.617 0.0245487 4.07993 0
M  V30 7461 H 704.292 1.17339 3.99004 0
M  V30 7462 H 702.869 -0.630819 3.67526 0
M  V30 7463 N 705.054 -1.51416 0.437162 0
M  V30 7464 C 706.017 -2.26312 -0.362729 0
M  V30 7465 C 707.017 -1.29748 -0.949847 0
M  V30 7466 O 708.207 -1.53462 -0.824325 0
M  V30 7467 C 705.339 -3.05475 -1.5132 0
M  V30 7468 H 706.532 -2.98459 0.29365 0
M  V30 7469 H 704.085 -1.55137 0.190327 0
M  V30 7470 H 704.82 -2.37744 -2.20563 0
M  V30 7471 H 704.605 -3.76401 -1.09838 0
M  V30 7472 H 706.095 -3.62209 -2.07833 0
M  V30 7473 N 706.532 -0.168513 -1.56696 0
M  V30 7474 C 707.462 0.758563 -2.20835 0
M  V30 7475 C 708.443 1.24121 -1.1631 0
M  V30 7476 O 709.628 1.29487 -1.4473 0
M  V30 7477 C 706.758 1.9892 -2.8469 0
M  V30 7478 C 705.712 1.64252 -3.95228 0
M  V30 7479 C 705.038 2.94757 -4.46119 0
M  V30 7480 C 706.338 0.872675 -5.14958 0
M  V30 7481 H 708.032 0.223953 -2.98561 0
M  V30 7482 H 705.578 0.106277 -1.43607 0
M  V30 7483 H 707.531 2.64275 -3.28233 0
M  V30 7484 H 706.255 2.5479 -2.04327 0
M  V30 7485 H 704.914 1.01266 -3.52336 0
M  V30 7486 H 704.562 3.48662 -3.62552 0
M  V30 7487 H 704.262 2.72316 -5.2069 0
M  V30 7488 H 705.786 3.61147 -4.92347 0
M  V30 7489 H 707.2 1.42875 -5.55211 0
M  V30 7490 H 705.597 0.747402 -5.95428 0
M  V30 7491 H 706.667 -0.131535 -4.84722 0
M  V30 7492 N 708.01 1.57248 0.105221 0
M  V30 7493 C 709.421 1.74612 0.660865 0
M  V30 7494 C 709.772 0.789231 1.79626 0
M  V30 7495 O 708.897 -0.0346611 2.16372 0
M  V30 7496 C 709.492 3.16624 1.20559 0
M  V30 7497 C 708.051 3.35447 1.7074 0
M  V30 7498 C 707.198 2.70445 0.612764 0
M  V30 7499 H 710.149 1.5824 -0.12079 0
M  V30 7500 H 710.17 3.18937 2.07508 0
M  V30 7501 H 709.682 3.86245 0.379012 0
M  V30 7502 H 707.783 2.7089 2.5583 0
M  V30 7503 H 707.896 4.43702 1.80736 0
M  V30 7504 H 706.26 2.32061 1.04975 0
M  V30 7505 H 707.043 3.42699 -0.203066 0
M  V30 7506 N 709.488 -0.375779 1.53054 0
M  V30 7507 C 710.737 -1.11674 1.67964 0
M  V30 7508 C 711.05 -1.90755 0.432655 0
M  V30 7509 O 712.256 -2.67538 0.462109 0
M  V30 7510 C 710.712 -2.0344 2.96884 0
M  V30 7511 C 710.32 -1.29719 4.28809 0
M  V30 7512 C 712.064 -2.7759 3.2116 0
M  V30 7513 C 709.971 -2.20327 5.48826 0
M  V30 7514 H 708.901 -0.420597 0.625791 0
M  V30 7515 H 711.552 -0.378499 1.79554 0
M  V30 7516 H 709.934 -2.80953 2.79072 0
M  V30 7517 H 711.108 -0.573394 4.57219 0
M  V30 7518 H 709.423 -0.674735 4.10897 0
M  V30 7519 H 712.02 -3.4559 4.0801 0
M  V30 7520 H 712.363 -3.42399 2.36789 0
M  V30 7521 H 712.896 -2.07164 3.396 0
M  V30 7522 H 709.635 -1.60113 6.35645 0
M  V30 7523 H 709.155 -2.90585 5.2471 0
M  V30 7524 H 710.834 -2.80116 5.83219 0
M  V30 7525 N 710.966 -1.44241 -0.634997 0
M  V30 7526 C 712.191 -1.50516 -1.42687 0
M  V30 7527 C 712.616 -0.129864 -1.87651 0
M  V30 7528 O 711.974 0.880164 -1.58502 0
M  V30 7529 C 712.022 -2.4714 -2.62591 0
M  V30 7530 O 711.126 -1.97025 -3.62291 0
M  V30 7531 H 710.467 -0.50841 -0.427101 0
M  V30 7532 H 712.997 -1.89337 -0.775408 0
M  V30 7533 H 713.007 -2.65048 -3.10183 0
M  V30 7534 H 711.682 -3.47039 -2.29209 0
M  V30 7535 H 710.259 -1.88866 -3.21534 0
M  V30 7536 N 712.444 0.87505 -1.31075 0
M  V30 7537 C 713.354 2.01441 -1.20244 0
M  V30 7538 C 714.37 1.73584 -0.120227 0
M  V30 7539 O 715.546 1.98559 -0.337063 0
M  V30 7540 C 712.611 3.34675 -0.905199 0
M  V30 7541 C 711.672 3.75889 -2.0738 0
M  V30 7542 C 710.905 5.02764 -1.79064 0
M  V30 7543 O 711.128 5.65795 -0.723318 0
M  V30 7544 O 710.062 5.40623 -2.64594 0
M  V30 7545 H 713.888 2.13509 -2.1598 0
M  V30 7546 H 711.473 1.00257 -1.10765 0
M  V30 7547 H 713.355 4.1458 -0.755057 0
M  V30 7548 H 712.03 3.23692 0.0221695 0
M  V30 7549 H 710.937 2.96645 -2.27931 0
M  V30 7550 H 712.27 3.91489 -2.98324 0
M  V30 7551 N 713.922 1.13953 1.08869 0
M  V30 7552 C 715.171 0.899431 1.80536 0
M  V30 7553 C 715.484 -0.575781 1.86933 0
M  V30 7554 O 716.69 -0.932988 2.54966 0
M  V30 7555 C 715.146 1.55963 3.24351 0
M  V30 7556 C 714.754 3.07077 3.26202 0
M  V30 7557 C 716.498 1.40046 4.00733 0
M  V30 7558 C 714.405 3.65955 4.64576 0
M  V30 7559 H 713.335 0.332849 0.676556 0
M  V30 7560 H 715.986 1.3679 1.22314 0
M  V30 7561 H 714.368 1.01883 3.82669 0
M  V30 7562 H 715.542 3.67785 2.77617 0
M  V30 7563 H 713.857 3.22576 2.63312 0
M  V30 7564 H 716.454 1.81441 5.02974 0
M  V30 7565 H 716.797 0.345993 4.1486 0
M  V30 7566 H 717.33 1.91137 3.48872 0
M  V30 7567 H 714.069 4.71234 4.55652 0
M  V30 7568 H 713.589 3.10027 5.13462 0
M  V30 7569 H 715.268 3.65968 5.33551 0
M  V30 7570 N 715.4 -1.26948 0.933913 0
M  V30 7571 C 716.363 -2.24889 0.442457 0
M  V30 7572 C 717.363 -1.54594 -0.442426 0
M  V30 7573 O 718.553 -1.72502 -0.242629 0
M  V30 7574 C 715.685 -3.3896 -0.363173 0
M  V30 7575 H 716.878 -2.69879 1.30787 0
M  V30 7576 H 714.431 -1.38978 0.715187 0
M  V30 7577 H 715.166 -2.99361 -1.24714 0
M  V30 7578 H 714.951 -3.9116 0.271366 0
M  V30 7579 H 716.441 -4.11739 -0.697186 0
M  V30 7580 N 716.879 -0.700114 -1.41195 0
M  V30 7581 C 717.842 -0.0465706 -2.29153 0
M  V30 7582 C 718.842 0.703302 -1.44604 0
M  V30 7583 O 720.032 0.537513 -1.657 0
M  V30 7584 C 717.164 0.944324 -3.2756 0
M  V30 7585 H 718.357 -0.821064 -2.88442 0
M  V30 7586 H 715.91 -0.463869 -1.49258 0
M  V30 7587 H 716.645 1.74642 -2.73259 0
M  V30 7588 H 716.43 0.409701 -3.89954 0
M  V30 7589 H 717.92 1.39925 -3.9346 0
M  V30 7590 N 718.357 1.51182 -0.445186 0
M  V30 7591 C 719.603 2.02452 0.11882 0
M  V30 7592 C 719.936 1.32824 1.41673 0
M  V30 7593 O 719.211 0.445637 1.89326 0
M  V30 7594 C 719.494 3.5859 0.329475 0
M  V30 7595 C 719.347 4.38823 -0.987638 0
M  V30 7596 C 720.666 4.26241 1.09575 0
M  V30 7597 H 717.785 0.735819 0.0417092 0
M  V30 7598 H 720.427 1.80747 -0.585718 0
M  V30 7599 H 718.577 3.77214 0.9296 0
M  V30 7600 H 720.249 4.3183 -1.62235 0
M  V30 7601 H 718.492 4.03594 -1.59041 0
M  V30 7602 H 719.163 5.46257 -0.794192 0
M  V30 7603 H 721.639 4.11934 0.587328 0
M  V30 7604 H 720.515 5.35354 1.21191 0
M  V30 7605 H 720.776 3.87635 2.12584 0
M  V30 7606 N 719.835 0.176821 1.56605 0
M  V30 7607 C 721.06 -0.47599 2.01864 0
M  V30 7608 C 721.485 -1.55645 1.05623 0
M  V30 7609 O 720.843 -1.81263 0.0366729 0
M  V30 7610 C 720.891 -1.02619 3.4569 0
M  V30 7611 O 719.995 -2.13996 3.52533 0
M  V30 7612 H 719.336 -0.113363 0.654251 0
M  V30 7613 H 721.866 0.28233 2.02643 0
M  V30 7614 H 721.876 -1.34742 3.85109 0
M  V30 7615 H 720.551 -0.235138 4.15235 0
M  V30 7616 H 719.128 -1.82876 3.24978 0
M  V30 7617 N 721.313 -1.57302 -0.09688 0
M  V30 7618 C 722.26 -2.01933 -1.11766 0
M  V30 7619 C 723.23 -0.895329 -1.39904 0
M  V30 7620 O 724.415 -1.16119 -1.51397 0
M  V30 7621 C 721.555 -2.44726 -2.43317 0
M  V30 7622 C 720.668 -3.70639 -2.21925 0
M  V30 7623 C 719.803 -4.02318 -3.46862 0
M  V30 7624 C 718.842 -5.21346 -3.20725 0
M  V30 7625 N 717.979 -5.48787 -4.37924 0
M  V30 7626 H 722.819 -2.88919 -0.730075 0
M  V30 7627 H 720.356 -1.42901 -0.348962 0
M  V30 7628 H 722.314 -2.6758 -3.20088 0
M  V30 7629 H 720.944 -1.60753 -2.79926 0
M  V30 7630 H 719.996 -3.55271 -1.35965 0
M  V30 7631 H 721.308 -4.57557 -1.98603 0
M  V30 7632 H 720.462 -4.25939 -4.32042 0
M  V30 7633 H 719.201 -3.13918 -3.73238 0
M  V30 7634 H 718.206 -4.97547 -2.33938 0
M  V30 7635 H 719.431 -6.11343 -2.95697 0
M  V30 7636 H 717.377 -4.63346 -4.64378 0
M  V30 7637 H 717.294 -6.30073 -4.17785 0
M  V30 7638 H 718.562 -5.76943 -5.24173 0
M  V30 7639 N 722.791 0.367657 -1.53252 0
M  V30 7640 C 724.207 0.709191 -1.42978 0
M  V30 7641 C 724.407 1.93352 -0.567193 0
M  V30 7642 O 723.463 2.52453 -0.0488349 0
M  V30 7643 C 724.776 0.924338 -2.86141 0
M  V30 7644 C 726.324 1.02448 -2.95759 0
M  V30 7645 C 726.799 1.27211 -4.39979 0
M  V30 7646 N 728.29 1.33986 -4.43398 0
M  V30 7647 C 729.025 1.54852 -5.52095 0
M  V30 7648 N 728.521 1.73049 -6.7084 0
M  V30 7649 N 730.314 1.57205 -5.39669 0
M  V30 7650 H 722.465 -0.437669 -2.07842 0
M  V30 7651 H 724.728 -0.133737 -0.938519 0
M  V30 7652 H 724.434 0.0965455 -3.51567 0
M  V30 7653 H 724.308 1.83302 -3.29667 0
M  V30 7654 H 726.695 1.84282 -2.30487 0
M  V30 7655 H 726.776 0.0932301 -2.5563 0
M  V30 7656 H 726.42 0.458792 -5.05824 0
M  V30 7657 H 726.35 2.21654 -4.77679 0
M  V30 7658 H 728.841 1.21545 -3.5782 0
M  V30 7659 H 729.154 1.88538 -7.49449 0
M  V30 7660 H 727.499 1.70231 -6.7383 0
M  V30 7661 H 730.69 1.42555 -4.45865 0
M  V30 7662 H 730.863 1.73126 -6.24445 0
M  V30 7663 N 724.269 1.44576 0.627338 0
M  V30 7664 C 725.68 1.42266 1.20902 0
M  V30 7665 C 726.031 0.139964 1.957 0
M  V30 7666 O 725.156 -0.759489 2.02634 0
M  V30 7667 C 725.751 2.57727 2.19914 0
M  V30 7668 C 724.31 2.58599 2.73502 0
M  V30 7669 C 723.457 2.34145 1.48564 0
M  V30 7670 H 726.408 1.53102 0.417791 0
M  V30 7671 H 726.429 2.30697 3.02588 0
M  V30 7672 H 725.941 3.51068 1.65447 0
M  V30 7673 H 724.042 1.6921 3.31962 0
M  V30 7674 H 724.155 3.57205 3.19282 0
M  V30 7675 H 722.519 1.83313 1.76829 0
M  V30 7676 H 723.302 3.29606 0.959935 0
M  V30 7677 N 725.747 -0.868086 1.31537 0
M  V30 7678 C 726.657 -2.00801 1.21311 0
M  V30 7679 C 727.673 -1.73518 0.129431 0
M  V30 7680 O 728.849 -1.98378 0.347588 0
M  V30 7681 C 725.914 -3.3419 0.922935 0
M  V30 7682 C 724.975 -3.74783 2.0937 0
M  V30 7683 C 724.208 -5.01807 1.81728 0
M  V30 7684 O 724.431 -5.65404 0.753313 0
M  V30 7685 O 723.365 -5.39213 2.67457 0
M  V30 7686 H 727.191 -2.12361 2.17109 0
M  V30 7687 H 724.776 -0.996684 1.11295 0
M  V30 7688 H 726.658 -4.14174 0.777033 0
M  V30 7689 H 725.333 -3.237 -0.00500301 0
M  V30 7690 H 724.24 -2.95432 2.29501 0
M  V30 7691 H 725.573 -3.89902 3.00396 0
M  V30 7692 N 727.225 -1.14528 -1.08264 0
M  V30 7693 C 728.172 -0.833556 -2.15222 0
M  V30 7694 C 729.142 0.209539 -1.64773 0
M  V30 7695 O 730.327 0.0791388 -1.90636 0
M  V30 7696 C 727.467 -0.318799 -3.43624 0
M  V30 7697 C 726.58 -1.42237 -4.07913 0
M  V30 7698 C 725.715 -0.864704 -5.24115 0
M  V30 7699 C 724.754 -1.94585 -5.80347 0
M  V30 7700 N 723.891 -1.40525 -6.87893 0
M  V30 7701 H 728.731 -1.74965 -2.41228 0
M  V30 7702 H 726.268 -0.873169 -1.18381 0
M  V30 7703 H 728.226 -0.00213088 -4.172 0
M  V30 7704 H 726.856 0.560397 -3.17898 0
M  V30 7705 H 725.908 -1.8554 -3.32083 0
M  V30 7706 H 727.22 -2.23901 -4.45724 0
M  V30 7707 H 726.374 -0.500025 -6.04636 0
M  V30 7708 H 725.113 -0.0171219 -4.87697 0
M  V30 7709 H 724.118 -2.31946 -4.98479 0
M  V30 7710 H 725.343 -2.79704 -6.18823 0
M  V30 7711 H 723.289 -0.579873 -6.53432 0
M  V30 7712 H 723.206 -2.15825 -7.24538 0
M  V30 7713 H 724.474 -1.06852 -7.72142 0
M  V30 7714 N 728.703 1.26451 -0.940633 0
M  V30 7715 C 729.949 1.94065 -0.58878 0
M  V30 7716 C 730.282 1.7363 0.869853 0
M  V30 7717 O 729.557 1.073 1.62225 0
M  V30 7718 C 729.84 3.47852 -0.931199 0
M  V30 7719 C 729.693 3.77575 -2.44453 0
M  V30 7720 C 731.012 4.37832 -0.446229 0
M  V30 7721 H 728.131 0.704827 -0.21538 0
M  V30 7722 H 730.773 1.4933 -1.17475 0
M  V30 7723 H 728.923 3.86085 -0.432539 0
M  V30 7724 H 730.595 3.49059 -3.01588 0
M  V30 7725 H 728.838 3.23671 -2.88825 0
M  V30 7726 H 729.509 4.85068 -2.63464 0
M  V30 7727 H 731.985 4.06822 -0.873778 0
M  V30 7728 H 730.861 5.44228 -0.714648 0
M  V30 7729 H 731.122 4.37239 0.653815 0
M  V30 7730 N 730.181 0.707592 1.40822 0
M  V30 7731 C 731.43 0.240705 2.00259 0
M  V30 7732 C 731.743 -1.17027 1.56729 0
M  V30 7733 O 732.949 -1.73526 2.08809 0
M  V30 7734 C 731.405 0.379432 3.57894 0
M  V30 7735 C 731.013 1.79654 4.104 0
M  V30 7736 C 732.757 -0.0270684 4.24491 0
M  V30 7737 C 730.664 1.88628 5.60512 0
M  V30 7738 H 729.594 0.0862369 0.749052 0
M  V30 7739 H 732.245 0.877528 1.61157 0
M  V30 7740 H 730.627 -0.325842 3.94657 0
M  V30 7741 H 731.801 2.53155 3.85032 0
M  V30 7742 H 730.116 2.15379 3.56372 0
M  V30 7743 H 732.713 0.0193743 5.34696 0
M  V30 7744 H 733.056 -1.06772 4.02375 0
M  V30 7745 H 733.589 0.628361 3.92806 0
M  V30 7746 H 730.328 2.90787 5.87472 0
M  V30 7747 H 729.848 1.19528 5.8777 0
M  V30 7748 H 731.527 1.6547 6.25483 0
M  V30 7749 N 731.66 -1.50943 0.453197 0
M  V30 7750 C 732.908 -2.01813 -0.107709 0
M  V30 7751 C 733.229 -1.33841 -1.41816 0
M  V30 7752 O 732.499 -0.477973 -1.8998 0
M  V30 7753 H 731.079 -0.745773 -0.0427948 0
M  V30 7754 H 733.741 -1.8545 0.599531 0
M  V30 7755 H 732.837 -3.10911 -0.27218 0
M  V30 7756 N 733.138 -0.185124 -1.56509 0
M  V30 7757 C 734.071 0.77877 -2.145 0
M  V30 7758 C 735.049 1.21649 -1.07891 0
M  V30 7759 O 736.233 1.30579 -1.35946 0
M  V30 7760 C 733.36 2.05048 -2.69579 0
M  V30 7761 C 732.406 1.75569 -3.88687 0
M  V30 7762 S 733.239 0.912642 -5.27666 0
M  V30 7763 C 734.395 2.19471 -5.8616 0
M  V30 7764 H 734.628 0.285751 -2.95924 0
M  V30 7765 H 732.161 0.0297417 -1.54371 0
M  V30 7766 H 734.119 2.78085 -3.01958 0
M  V30 7767 H 732.78 2.51462 -1.88216 0
M  V30 7768 H 731.973 2.69962 -4.25601 0
M  V30 7769 H 731.575 1.10619 -3.57267 0
M  V30 7770 H 733.867 3.14815 -5.99915 0
M  V30 7771 H 734.81 1.87005 -6.8296 0
M  V30 7772 H 735.218 2.31862 -5.14685 0
M  V30 7773 N 734.616 1.57351 0.0885366 0
M  V30 7774 C 735.566 1.98963 1.11346 0
M  V30 7775 C 736.55 0.869065 1.35411 0
M  V30 7776 O 737.742 1.13292 1.35992 0
M  V30 7777 C 734.871 2.4231 2.43189 0
M  V30 7778 C 733.957 3.61065 2.22469 0
M  V30 7779 N 734.348 4.75789 1.71635 0
M  V30 7780 C 732.646 3.6729 2.5301 0
M  V30 7781 C 733.347 5.57708 1.65339 0
M  V30 7782 N 732.323 5.01067 2.1079 0
M  V30 7783 H 736.125 2.85109 0.713465 0
M  V30 7784 H 733.639 1.59682 0.295868 0
M  V30 7785 H 735.636 2.70352 3.17357 0
M  V30 7786 H 734.296 1.57544 2.83919 0
M  V30 7787 H 735.307 4.98411 1.40738 0
M  V30 7788 H 731.984 2.932 2.9722 0
M  V30 7789 H 733.374 6.59782 1.27031 0
M  V30 7790 N 736.094 -0.359525 1.53444 0
M  V30 7791 C 737.324 -1.12036 1.73585 0
M  V30 7792 C 737.732 -1.83335 0.467438 0
M  V30 7793 O 737.075 -1.74641 -0.569753 0
M  V30 7794 C 737.137 -2.19036 2.85068 0
M  V30 7795 C 736.801 -1.67451 4.25217 0
M  V30 7796 C 737.798 -1.13534 5.07352 0
M  V30 7797 C 735.483 -1.72781 4.71648 0
M  V30 7798 C 737.477 -0.656321 6.34012 0
M  V30 7799 C 735.164 -1.2449 5.98285 0
M  V30 7800 C 736.162 -0.710068 6.79299 0
M  V30 7801 O 735.85 -0.234314 8.03558 0
M  V30 7802 H 735.582 -0.340662 0.583888 0
M  V30 7803 H 738.136 -0.422452 2.01009 0
M  V30 7804 H 736.366 -2.92338 2.53131 0
M  V30 7805 H 738.055 -2.80559 2.93328 0
M  V30 7806 H 738.821 -1.08751 4.7265 0
M  V30 7807 H 734.7 -2.13351 4.08659 0
M  V30 7808 H 738.244 -0.238193 6.97193 0
M  V30 7809 H 734.141 -1.28969 6.32485 0
M  V30 7810 H 734.909 -0.353084 8.17738 0
M  V30 7811 N 737.572 -1.44907 -0.619662 0
M  V30 7812 C 738.819 -1.48292 -1.37898 0
M  V30 7813 C 739.147 -0.119933 -1.9413 0
M  V30 7814 O 738.402 0.879834 -1.74807 0
M  V30 7815 C 738.701 -2.50002 -2.55409 0
M  V30 7816 C 738.367 -3.95031 -2.17397 0
M  V30 7817 C 737.029 -4.34524 -2.06743 0
M  V30 7818 C 739.381 -4.86287 -1.87548 0
M  V30 7819 C 736.709 -5.63183 -1.64445 0
M  V30 7820 C 739.061 -6.15346 -1.4674 0
M  V30 7821 C 737.725 -6.53781 -1.34636 0
M  V30 7822 H 736.995 -0.542638 -0.504603 0
M  V30 7823 H 739.642 -1.78186 -0.701581 0
M  V30 7824 H 737.947 -2.13634 -3.28433 0
M  V30 7825 H 739.644 -2.49864 -3.13639 0
M  V30 7826 H 736.234 -3.63793 -2.26611 0
M  V30 7827 H 740.418 -4.56522 -1.94682 0
M  V30 7828 H 735.674 -5.91769 -1.53687 0
M  V30 7829 H 739.848 -6.85508 -1.22685 0
M  V30 7830 H 737.475 -7.53375 -1.01634 0
M  V30 7831 N 739.05 0.861098 -1.31996 0
M  V30 7832 C 740.275 1.65264 -1.2531 0
M  V30 7833 C 740.7 1.87265 0.177007 0
M  V30 7834 O 740.058 1.4208 1.12619 0
M  V30 7835 C 740.106 2.99284 -2.0115 0
M  V30 7836 O 739.21 3.89508 -1.3549 0
M  V30 7837 H 738.551 0.50409 -0.432192 0
M  V30 7838 H 741.081 1.07297 -1.74208 0
M  V30 7839 H 741.091 3.49154 -2.11081 0
M  V30 7840 H 739.766 2.82591 -3.05148 0
M  V30 7841 H 738.343 3.47966 -1.34066 0
M  V30 7842 N 740.528 1.15101 1.07655 0
M  V30 7843 C 741.939 0.933848 1.61667 0
M  V30 7844 C 742.29 -0.525569 1.8903 0
M  V30 7845 O 741.415 -1.39605 1.65346 0
M  V30 7846 C 742.01 1.68876 2.93711 0
M  V30 7847 C 740.569 1.51697 3.44478 0
M  V30 7848 C 739.716 1.70633 2.18586 0
M  V30 7849 H 742.667 1.30171 0.907816 0
M  V30 7850 H 742.688 1.15645 3.625 0
M  V30 7851 H 742.2 2.7509 2.73764 0
M  V30 7852 H 740.301 0.478635 3.69513 0
M  V30 7853 H 740.414 2.29194 4.20722 0
M  V30 7854 H 738.778 1.13259 2.28132 0
M  V30 7855 H 739.561 2.78206 2.01137 0
M  V30 7856 N 742.006 -1.2595 0.947325 0
M  V30 7857 C 743.252 -1.9375 0.599064 0
M  V30 7858 C 743.585 -1.74088 -0.860632 0
M  V30 7859 O 742.86 -1.08158 -1.61654 0
M  V30 7860 C 743.143 -3.47353 0.949634 0
M  V30 7861 C 742.996 -3.76273 2.46452 0
M  V30 7862 C 744.315 -4.37589 0.469442 0
M  V30 7863 H 741.434 -0.703674 0.219115 0
M  V30 7864 H 744.076 -1.48705 1.18266 0
M  V30 7865 H 742.226 -3.8585 0.453008 0
M  V30 7866 H 743.898 -3.47455 3.03435 0
M  V30 7867 H 742.141 -3.22135 2.90537 0
M  V30 7868 H 742.812 -4.83664 2.66032 0
M  V30 7869 H 745.288 -4.06353 0.89534 0
M  V30 7870 H 744.164 -5.43841 0.7435 0
M  V30 7871 H 744.425 -4.37579 -0.630618 0
M  V30 7872 N 743.484 -0.715051 -1.40445 0
M  V30 7873 C 744.761 -0.181503 -1.94756 0
M  V30 7874 C 745.141 1.31268 -1.65324 0
M  V30 7875 O 744.489 2.0686 -0.970631 0
M  V30 7876 C 744.699 -0.493663 -3.45491 0
M  V30 7877 C 746.047 -0.432032 -4.22396 0
M  V30 7878 O 747.071 -0.429692 -3.53599 0
M  V30 7879 O 745.93 -0.409091 -5.44967 0
M  V30 7880 H 743.024 -0.0263989 -0.826579 0
M  V30 7881 H 745.57 -0.792546 -1.50056 0
M  V30 7882 H 744.342 -1.52713 -3.6027 0
M  V30 7883 H 743.965 0.14737 -3.97327 0
M  V30 7884 N 744.962 1.50701 -0.461195 0
M  V30 7885 C 745.909 2.2831 0.338094 0
M  V30 7886 C 746.879 1.32928 0.995957 0
M  V30 7887 O 748.064 1.61857 1.0103 0
M  V30 7888 C 745.204 3.14539 1.41983 0
M  V30 7889 C 744.317 4.24942 0.77773 0
M  V30 7890 C 743.452 4.98443 1.83652 0
M  V30 7891 C 742.491 6.00733 1.17413 0
M  V30 7892 N 741.628 6.6755 2.17533 0
M  V30 7893 H 746.468 2.96167 -0.330051 0
M  V30 7894 H 744.005 1.4606 -0.174611 0
M  V30 7895 H 745.963 3.62877 2.05855 0
M  V30 7896 H 744.593 2.48749 2.05727 0
M  V30 7897 H 743.645 3.80391 0.0266924 0
M  V30 7898 H 744.957 4.98151 0.254362 0
M  V30 7899 H 744.111 5.50449 2.55129 0
M  V30 7900 H 742.85 4.24917 2.39367 0
M  V30 7901 H 741.855 5.47997 0.444944 0
M  V30 7902 H 743.08 6.76227 0.624006 0
M  V30 7903 H 741.026 5.96823 2.72284 0
M  V30 7904 H 740.943 7.36603 1.70154 0
M  V30 7905 H 742.211 7.24178 2.88421 0
M  V30 7906 N 746.441 0.193421 1.56409 0
M  V30 7907 C 747.374 -0.767384 2.1491 0
M  V30 7908 C 748.352 -1.21075 1.08534 0
M  V30 7909 O 749.536 -1.29856 1.36637 0
M  V30 7910 C 746.663 -2.03615 2.70663 0
M  V30 7911 C 745.709 -1.73505 3.89613 0
M  V30 7912 S 746.542 -0.884645 5.28142 0
M  V30 7913 C 747.698 -2.1636 5.87315 0
M  V30 7914 H 747.931 -0.270053 2.96071 0
M  V30 7915 H 745.464 -0.0215546 1.54385 0
M  V30 7916 H 747.422 -2.7648 3.03429 0
M  V30 7917 H 746.083 -2.50461 1.89547 0
M  V30 7918 H 745.276 -2.67701 4.27027 0
M  V30 7919 H 744.878 -1.08723 3.57848 0
M  V30 7920 H 747.17 -3.11629 6.01576 0
M  V30 7921 H 748.113 -1.8338 6.83943 0
M  V30 7922 H 748.521 -2.29129 5.15907 0
M  V30 7923 N 747.919 -1.57396 -0.0801906 0
M  V30 7924 C 748.851 -1.9982 -1.12271 0
M  V30 7925 C 749.864 -0.902902 -1.35468 0
M  V30 7926 O 751.053 -1.18088 -1.33856 0
M  V30 7927 C 748.153 -2.31476 -2.47532 0
M  V30 7928 C 747.326 -3.62745 -2.44407 0
M  V30 7929 C 746.385 -3.82168 -3.6171 0
M  V30 7930 O 745.411 -4.53852 -3.43522 0
M  V30 7931 N 746.613 -3.2388 -4.81749 0
M  V30 7932 H 749.378 -2.89864 -0.761501 0
M  V30 7933 H 746.939 -1.5965 -0.268965 0
M  V30 7934 H 748.931 -2.4165 -3.24634 0
M  V30 7935 H 747.501 -1.47364 -2.75686 0
M  V30 7936 H 746.721 -3.63403 -1.52747 0
M  V30 7937 H 748.009 -4.48954 -2.39412 0
M  V30 7938 H 747.407 -2.6568 -4.9943 0
M  V30 7939 H 745.964 -3.39515 -5.56392 0
M  V30 7940 N 749.397 0.351382 -1.53633 0
M  V30 7941 C 750.327 1.43688 -1.84055 0
M  V30 7942 C 751.308 1.55251 -0.695073 0
M  V30 7943 O 752.493 1.69587 -0.946257 0
M  V30 7944 C 749.623 2.80843 -2.04315 0
M  V30 7945 C 748.577 2.84094 -3.20117 0
M  V30 7946 C 747.903 4.2406 -3.25696 0
M  V30 7947 C 749.203 2.50334 -4.58399 0
M  V30 7948 H 750.897 1.18478 -2.74961 0
M  V30 7949 H 748.443 0.568509 -1.32303 0
M  V30 7950 H 750.396 3.56821 -2.2418 0
M  V30 7951 H 749.12 3.07471 -1.10132 0
M  V30 7952 H 747.779 2.10568 -3.00094 0
M  V30 7953 H 747.427 4.47785 -2.29123 0
M  V30 7954 H 747.127 4.27147 -4.03509 0
M  V30 7955 H 748.651 5.0189 -3.47762 0
M  V30 7956 H 750.065 3.16025 -4.78332 0
M  V30 7957 H 748.462 2.64717 -5.38558 0
M  V30 7958 H 749.532 1.45542 -4.62543 0
M  V30 7959 N 750.875 1.45233 0.611969 0
M  V30 7960 C 751.805 1.5641 1.73373 0
M  V30 7961 C 752.786 0.415896 1.64937 0
M  V30 7962 O 753.971 0.638478 1.83404 0
M  V30 7963 C 751.101 1.52627 3.11965 0
M  V30 7964 C 750.055 2.66119 3.35208 0
M  V30 7965 C 749.381 2.4739 4.74028 0
M  V30 7966 C 750.681 4.08157 3.25891 0
M  V30 7967 H 752.375 2.50307 1.64277 0
M  V30 7968 H 749.921 1.20467 0.788904 0
M  V30 7969 H 751.874 1.59043 3.90235 0
M  V30 7970 H 750.598 0.552564 3.21892 0
M  V30 7971 H 749.257 2.59123 2.59327 0
M  V30 7972 H 748.905 1.48168 4.80682 0
M  V30 7973 H 748.605 3.23494 4.90536 0
M  V30 7974 H 750.129 2.55653 5.54503 0
M  V30 7975 H 751.543 4.1642 3.9404 0
M  V30 7976 H 749.94 4.84617 3.5393 0
M  V30 7977 H 751.01 4.30374 2.23397 0
M  V30 7978 N 752.353 -0.854086 1.3245 0
M  V30 7979 C 753.263 -1.99503 1.23434 0
M  V30 7980 C 754.279 -1.73371 0.147828 0
M  V30 7981 O 755.455 -1.97998 0.368609 0
M  V30 7982 C 752.52 -3.33192 0.958328 0
M  V30 7983 C 751.581 -3.72542 2.13333 0
M  V30 7984 C 750.814 -4.99852 1.8704 0
M  V30 7985 O 751.037 -5.64573 0.813239 0
M  V30 7986 O 749.971 -5.36345 2.73161 0
M  V30 7987 H 753.797 -2.10046 2.1935 0
M  V30 7988 H 751.382 -0.984823 1.12346 0
M  V30 7989 H 753.264 -4.13327 0.820918 0
M  V30 7990 H 751.939 -3.23687 0.0293299 0
M  V30 7991 H 750.846 -2.92981 2.32622 0
M  V30 7992 H 752.179 -3.86694 3.04514 0
M  V30 7993 N 753.831 -1.1567 -1.07043 0
M  V30 7994 C 755.08 -0.928039 -1.79082 0
M  V30 7995 C 755.393 0.545968 -1.87826 0
M  V30 7996 O 756.599 0.892308 -2.56418 0
M  V30 7997 C 755.055 -1.61103 -3.21829 0
M  V30 7998 C 754.663 -3.12228 -3.21275 0
M  V30 7999 C 756.407 -1.46404 -3.98455 0
M  V30 8000 C 754.314 -3.733 -4.58695 0
M  V30 8001 H 753.244 -0.34357 -0.671175 0
M  V30 8002 H 755.895 -1.38718 -1.20123 0
M  V30 8003 H 754.277 -1.07958 -3.81 0
M  V30 8004 H 755.451 -3.72155 -2.71731 0
M  V30 8005 H 753.766 -3.26725 -2.58147 0
M  V30 8006 H 756.363 -1.8942 -5.00024 0
M  V30 8007 H 756.706 -0.41195 -4.14257 0
M  V30 8008 H 757.239 -1.96663 -3.45787 0
M  V30 8009 H 753.978 -4.78423 -4.48098 0
M  V30 8010 H 753.498 -3.18157 -5.08465 0
M  V30 8011 H 755.177 -3.7441 -5.27661 0
M  V30 8012 N 755.309 1.25446 -0.953992 0
M  V30 8013 C 756.558 1.92441 -0.604101 0
M  V30 8014 C 756.871 1.75543 0.862796 0
M  V30 8015 O 758.077 2.37106 1.32262 0
M  V30 8016 C 756.533 3.44854 -1.02974 0
M  V30 8017 C 756.141 3.70464 -2.51914 0
M  V30 8018 C 757.885 4.1778 -0.752352 0
M  V30 8019 C 755.792 5.1638 -2.88281 0
M  V30 8020 H 754.722 0.720508 -0.222227 0
M  V30 8021 H 757.373 1.42318 -1.15836 0
M  V30 8022 H 755.755 3.93935 -0.403904 0
M  V30 8023 H 756.929 3.32038 -3.19511 0
M  V30 8024 H 755.244 3.10797 -2.77117 0
M  V30 8025 H 757.841 5.25261 -1.00024 0
M  V30 8026 H 758.184 4.15135 0.311212 0
M  V30 8027 H 758.717 3.74605 -1.33851 0
M  V30 8028 H 755.456 5.24135 -3.93653 0
M  V30 8029 H 754.976 5.55855 -2.25357 0
M  V30 8030 H 756.655 5.84497 -2.77439 0
M  V30 8031 N 756.787 0.722489 1.40064 0
M  V30 8032 C 758.015 0.274838 2.05066 0
M  V30 8033 C 758.43 -1.08586 1.54449 0
M  V30 8034 O 757.787 -1.68375 0.704003 0
M  V30 8035 C 757.838 0.253673 3.60609 0
M  V30 8036 O 757.559 1.56064 4.0936 0
M  V30 8037 C 759.06 -0.211684 4.42794 0
M  V30 8038 H 756.28 0.12226 0.659768 0
M  V30 8039 H 758.824 0.982632 1.79345 0
M  V30 8040 H 756.979 -0.405137 3.85276 0
M  V30 8041 H 757.393 1.46576 5.03603 0
M  V30 8042 H 758.867 -0.175341 5.51721 0
M  V30 8043 H 759.344 -1.25493 4.2089 0
M  V30 8044 H 759.95 0.4171 4.2325 0
M  V30 8045 N 758.265 -1.50454 0.469181 0
M  V30 8046 C 759.493 -2.06729 -0.0842134 0
M  V30 8047 C 759.908 -1.33326 -1.33677 0
M  V30 8048 O 759.265 -0.401977 -1.78018 0
M  V30 8049 C 759.316 -3.59557 -0.374253 0
M  V30 8050 O 759.037 -4.30192 0.828622 0
M  V30 8051 C 760.538 -4.32449 -0.974824 0
M  V30 8052 H 757.758 -0.670971 0.006231 0
M  V30 8053 H 760.302 -1.93645 0.657415 0
M  V30 8054 H 758.457 -3.7245 -1.06581 0
M  V30 8055 H 758.871 -5.21371 0.572066 0
M  V30 8056 H 760.345 -5.40361 -1.12755 0
M  V30 8057 H 760.822 -3.92819 -1.96442 0
M  V30 8058 H 761.428 -4.24082 -0.321703 0
M  V30 8059 N 759.743 -0.201713 -1.56304 0
M  V30 8060 C 760.653 0.728296 -2.23009 0
M  V30 8061 C 761.669 1.22945 -1.23128 0
M  V30 8062 O 762.845 1.27523 -1.55884 0
M  V30 8063 C 759.91 1.92792 -2.88153 0
M  V30 8064 C 758.971 1.47068 -4.03323 0
M  V30 8065 C 758.204 2.61312 -4.65351 0
M  V30 8066 O 758.427 3.7896 -4.26317 0
M  V30 8067 O 757.361 2.33646 -5.54701 0
M  V30 8068 H 761.187 0.190166 -3.03104 0
M  V30 8069 H 758.772 0.0278725 -1.49374 0
M  V30 8070 H 760.654 2.6289 -3.29343 0
M  V30 8071 H 759.329 2.45452 -2.11033 0
M  V30 8072 H 758.236 0.738299 -3.66742 0
M  V30 8073 H 759.569 0.990666 -4.82127 0
M  V30 8074 N 761.222 1.57436 0.0718424 0
M  V30 8075 C 762.169 2.03686 1.08539 0
M  V30 8076 C 763.139 0.917474 1.38462 0
M  V30 8077 O 764.324 1.18513 1.4953 0
M  V30 8078 C 761.464 2.48566 2.39393 0
M  V30 8079 C 760.577 3.74122 2.16001 0
M  V30 8080 C 759.712 4.07786 3.40418 0
M  V30 8081 C 758.751 5.26383 3.1239 0
M  V30 8082 N 757.888 5.55685 4.29138 0
M  V30 8083 H 762.728 2.90043 0.684018 0
M  V30 8084 H 760.265 1.43438 0.326183 0
M  V30 8085 H 762.223 2.72639 3.15791 0
M  V30 8086 H 760.853 1.65186 2.77333 0
M  V30 8087 H 759.905 3.57389 1.30296 0
M  V30 8088 H 761.217 4.60659 1.91298 0
M  V30 8089 H 760.371 4.32759 4.25211 0
M  V30 8090 H 759.11 3.19817 3.68197 0
M  V30 8091 H 758.115 5.01206 2.25993 0
M  V30 8092 H 759.34 6.1597 2.85934 0
M  V30 8093 H 757.286 4.70675 4.56948 0
M  V30 8094 H 757.203 6.3664 4.07708 0
M  V30 8095 H 758.471 5.85209 5.14928 0
M  V30 8096 N 762.7 -0.34323 1.53817 0
M  V30 8097 C 763.928 -1.10348 1.75017 0
M  V30 8098 C 764.343 -1.82345 0.489475 0
M  V30 8099 O 763.7 -1.74362 -0.538886 0
M  V30 8100 C 763.751 -2.11672 2.93048 0
M  V30 8101 O 763.472 -1.42603 4.14241 0
M  V30 8102 C 764.973 -3.0007 3.26301 0
M  V30 8103 H 762.193 -0.329056 0.584776 0
M  V30 8104 H 764.737 -0.395339 2.00642 0
M  V30 8105 H 762.892 -2.78051 2.69753 0
M  V30 8106 H 763.306 -2.10294 4.80496 0
M  V30 8107 H 764.78 -3.67101 4.12239 0
M  V30 8108 H 765.257 -3.66105 2.42618 0
M  V30 8109 H 765.863 -2.3928 3.51604 0
M  V30 8110 N 764.178 -1.45556 -0.604258 0
M  V30 8111 C 765.403 -1.53509 -1.39462 0
M  V30 8112 C 765.828 -0.169638 -1.87333 0
M  V30 8113 O 765.186 0.846346 -1.60333 0
M  V30 8114 C 765.234 -2.52654 -2.5729 0
M  V30 8115 O 764.338 -2.04666 -3.5803 0
M  V30 8116 H 763.679 -0.517355 -0.416221 0
M  V30 8117 H 766.209 -1.90939 -0.735072 0
M  V30 8118 H 766.219 -2.71568 -3.04491 0
M  V30 8119 H 764.894 -3.51823 -2.21797 0
M  V30 8120 H 763.471 -1.95643 -3.17456 0
M  V30 8121 N 765.656 0.84705 -1.32902 0
M  V30 8122 C 766.603 1.95624 -1.22473 0
M  V30 8123 C 767.573 1.65767 -0.105178 0
M  V30 8124 O 768.758 1.88704 -0.282042 0
M  V30 8125 C 765.898 3.31434 -0.961542 0
M  V30 8126 C 765.011 3.73741 -2.1666 0
M  V30 8127 C 764.146 4.98379 -1.83825 0
M  V30 8128 C 763.185 5.33199 -3.00609 0
M  V30 8129 N 762.322 6.49014 -2.67816 0
M  V30 8130 H 767.162 2.03875 -2.17345 0
M  V30 8131 H 764.699 0.997764 -1.08088 0
M  V30 8132 H 766.657 4.09663 -0.789411 0
M  V30 8133 H 765.287 3.22762 -0.0495938 0
M  V30 8134 H 764.339 2.91102 -2.44875 0
M  V30 8135 H 765.651 3.95462 -3.03993 0
M  V30 8136 H 764.805 5.84336 -1.63208 0
M  V30 8137 H 763.544 4.78611 -0.937172 0
M  V30 8138 H 762.549 4.4575 -3.21849 0
M  V30 8139 H 763.774 5.5492 -3.9146 0
M  V30 8140 H 761.72 6.30748 -1.80258 0
M  V30 8141 H 761.637 6.7079 -3.48679 0
M  V30 8142 H 762.905 7.38103 -2.50647 0
M  V30 8143 N 767.134 1.16236 1.06428 0
M  V30 8144 C 768.411 0.853294 1.76006 0
M  V30 8145 C 768.791 -0.649162 2.00871 0
M  V30 8146 O 768.139 -1.59653 1.63472 0
M  V30 8147 C 768.349 1.67448 3.06206 0
M  V30 8148 C 769.697 1.8866 3.80385 0
M  V30 8149 O 770.721 1.64303 3.16043 0
M  V30 8150 O 769.58 2.29518 4.95968 0
M  V30 8151 H 766.674 0.314737 0.764767 0
M  V30 8152 H 769.22 1.26865 1.12709 0
M  V30 8153 H 767.992 2.69411 2.83784 0
M  V30 8154 H 767.615 1.25608 3.77238 0
M  V30 8155 N 768.612 -1.24939 0.960631 0
M  V30 8156 C 769.84 -1.96881 0.636045 0
M  V30 8157 C 770.255 -1.71334 -0.793093 0
M  V30 8158 O 769.612 -0.992917 -1.53125 0
M  V30 8159 C 769.663 -3.50309 0.892533 0
M  V30 8160 O 769.384 -3.74977 2.26548 0
M  V30 8161 C 770.885 -4.39474 0.581159 0
M  V30 8162 H 768.105 -0.627399 0.237931 0
M  V30 8163 H 770.649 -1.58952 1.28664 0
M  V30 8164 H 768.804 -3.86326 0.288257 0
M  V30 8165 H 769.218 -4.69401 2.34014 0
M  V30 8166 H 770.692 -5.46008 0.811125 0
M  V30 8167 H 771.169 -4.3652 -0.48443 0
M  V30 8168 H 771.775 -4.09032 1.16502 0
M  V30 8169 N 770.09 -0.729906 -1.39679 0
M  V30 8170 C 771.315 -0.284345 -2.05442 0
M  V30 8171 C 771.74 1.07056 -1.54663 0
M  V30 8172 O 771.098 1.67732 -0.688157 0
M  V30 8173 C 771.146 -0.290089 -3.59431 0
M  V30 8174 O 770.25 0.723978 -4.05995 0
M  V30 8175 H 769.591 -0.130311 -0.651088 0
M  V30 8176 H 772.121 -0.994403 -1.78809 0
M  V30 8177 H 772.131 -0.132712 -4.07784 0
M  V30 8178 H 770.806 -1.27877 -3.95753 0
M  V30 8179 H 769.383 0.533154 -3.69069 0
M  V30 8180 N 771.568 1.50203 -0.477153 0
M  V30 8181 C 772.531 2.27194 0.302599 0
M  V30 8182 C 773.531 1.32221 0.915112 0
M  V30 8183 O 774.721 1.55593 0.783348 0
M  V30 8184 C 771.853 3.0938 1.43167 0
M  V30 8185 H 773.046 2.97575 -0.372678 0
M  V30 8186 H 770.599 1.54578 -0.231392 0
M  V30 8187 H 771.334 2.43509 2.14182 0
M  V30 8188 H 771.119 3.79181 0.998197 0
M  V30 8189 H 772.609 3.67592 1.98157 0
M  V30 8190 N 773.046 0.209999 1.56195 0
M  V30 8191 C 774.271 -0.433064 2.02828 0
M  V30 8192 C 774.696 -1.5337 1.08901 0
M  V30 8193 O 774.054 -1.81144 0.0751132 0
M  V30 8194 C 774.102 -0.952635 3.47789 0
M  V30 8195 O 773.206 -2.0647 3.56993 0
M  V30 8196 H 772.547 -0.0994594 0.656509 0
M  V30 8197 H 775.077 0.32525 2.01998 0
M  V30 8198 H 775.087 -1.26542 3.8788 0
M  V30 8199 H 773.762 -0.147007 4.1564 0
M  V30 8200 H 772.339 -1.75942 3.28784 0
M  V30 8201 N 774.524 -1.57472 -0.0634922 0
M  V30 8202 C 775.487 -2.03268 -1.059 0
M  V30 8203 C 776.487 -0.931028 -1.31105 0
M  V30 8204 O 777.677 -1.19567 -1.26686 0
M  V30 8205 C 774.809 -2.42039 -2.40062 0
M  V30 8206 H 776.002 -2.92454 -0.664119 0
M  V30 8207 H 773.555 -1.53206 -0.309444 0
M  V30 8208 H 774.29 -1.55904 -2.84367 0
M  V30 8209 H 774.075 -3.22437 -2.23108 0
M  V30 8210 H 775.565 -2.78017 -3.11603 0
M  V30 8211 N 776.003 0.335068 -1.53997 0
M  V30 8212 C 777.249 1.07594 -1.71905 0
M  V30 8213 C 777.582 1.88039 -0.485264 0
M  V30 8214 O 776.857 1.87482 0.517752 0
M  V30 8215 C 777.14 2.01016 -2.98772 0
M  V30 8216 C 776.993 1.23977 -4.32377 0
M  V30 8217 C 778.312 3.0071 -3.21343 0
M  V30 8218 H 775.431 0.38976 -0.625505 0
M  V30 8219 H 778.073 0.353684 -1.86679 0
M  V30 8220 H 776.223 2.62603 -2.86307 0
M  V30 8221 H 777.895 0.649383 -4.56706 0
M  V30 8222 H 776.138 0.541878 -4.30402 0
M  V30 8223 H 776.809 1.92512 -5.17342 0
M  V30 8224 H 779.285 2.4924 -3.33194 0
M  V30 8225 H 778.161 3.63272 -4.11491 0
M  V30 8226 H 778.422 3.72549 -2.38033 0
M  V30 8227 N 777.481 1.45874 0.596531 0
M  V30 8228 C 778.444 1.54988 1.68853 0
M  V30 8229 C 779.444 0.428302 1.54991 0
M  V30 8230 O 780.634 0.692158 1.59859 0
M  V30 8231 C 777.766 1.457 3.08195 0
M  V30 8232 H 778.959 2.52294 1.62135 0
M  V30 8233 H 776.512 1.33479 0.813206 0
M  V30 8234 H 777.247 0.496204 3.20481 0
M  V30 8235 H 777.032 2.27061 3.19665 0
M  V30 8236 H 778.522 1.55133 3.87716 0
M  V30 8237 N 778.959 -0.83999 1.33349 0
M  V30 8238 C 780.205 -1.59753 1.24927 0
M  V30 8239 C 780.538 -1.93318 -0.184855 0
M  V30 8240 O 779.813 -1.586 -1.12589 0
M  V30 8241 C 780.096 -2.90829 2.12345 0
M  V30 8242 C 779.949 -2.63953 3.6421 0
M  V30 8243 C 781.268 -3.92246 1.99577 0
M  V30 8244 H 778.387 -0.579654 0.45516 0
M  V30 8245 H 781.029 -0.968909 1.63439 0
M  V30 8246 H 779.179 -3.44478 1.79631 0
M  V30 8247 H 780.851 -2.16745 4.07209 0
M  V30 8248 H 779.094 -1.97671 3.86146 0
M  V30 8249 H 779.765 -3.57348 4.20721 0
M  V30 8250 H 782.241 -3.479 2.28265 0
M  V30 8251 H 781.117 -4.81793 2.62996 0
M  V30 8252 H 781.378 -4.3138 0.967673 0
M  V30 8253 N 780.437 -1.16799 -1.0581 0
M  V30 8254 C 781.685 -0.950642 -1.78346 0
M  V30 8255 C 782.006 0.522524 -1.87869 0
M  V30 8256 O 781.276 1.3795 -1.39092 0
M  V30 8257 H 779.856 -0.348736 -0.6606 0
M  V30 8258 H 782.518 -1.47158 -1.27791 0
M  V30 8259 H 781.614 -1.37359 -2.80248 0
M  V30 8260 N 781.915 1.24427 -0.967243 0
M  V30 8261 C 782.845 2.2773 -0.515899 0
M  V30 8262 C 783.826 1.64197 0.444227 0
M  V30 8263 O 785.011 1.91193 0.340451 0
M  V30 8264 C 782.141 3.46751 0.195149 0
M  V30 8265 C 781.095 4.22548 -0.680953 0
M  V30 8266 C 780.421 5.34456 0.161561 0
M  V30 8267 C 781.721 4.83914 -1.96532 0
M  V30 8268 H 783.415 2.65735 -1.37933 0
M  V30 8269 H 780.961 1.27742 -0.664681 0
M  V30 8270 H 782.914 4.18153 0.522117 0
M  V30 8271 H 781.638 3.07771 1.09292 0
M  V30 8272 H 780.297 3.52946 -0.991186 0
M  V30 8273 H 779.945 4.91716 1.05947 0
M  V30 8274 H 779.645 5.86087 -0.421418 0
M  V30 8275 H 781.169 6.08685 0.483211 0
M  V30 8276 H 782.583 5.47392 -1.70396 0
M  V30 8277 H 780.98 5.45775 -2.49499 0
M  V30 8278 H 782.05 4.05393 -2.66053 0
M  V30 8279 N 783.393 0.737304 1.3929 0
M  V30 8280 C 784.34 0.0988364 2.30588 0
M  V30 8281 C 785.31 -0.727206 1.49335 0
M  V30 8282 O 786.495 -0.686694 1.78014 0
M  V30 8283 C 783.635 -0.800734 3.35682 0
M  V30 8284 C 782.748 0.0381731 4.31983 0
M  V30 8285 C 781.883 -0.862884 5.24145 0
M  V30 8286 C 780.922 -0.0193639 6.12097 0
M  V30 8287 N 780.059 -0.87648 6.96608 0
M  V30 8288 H 784.899 0.883031 2.84617 0
M  V30 8289 H 782.436 0.447111 1.4014 0
M  V30 8290 H 784.394 -1.33676 3.95205 0
M  V30 8291 H 783.024 -1.55088 2.83103 0
M  V30 8292 H 782.076 0.691641 3.74059 0
M  V30 8293 H 783.388 0.690294 4.94 0
M  V30 8294 H 782.542 -1.46667 5.88705 0
M  V30 8295 H 781.281 -1.54878 4.62454 0
M  V30 8296 H 780.286 0.597202 5.46547 0
M  V30 8297 H 781.511 0.663348 6.75852 0
M  V30 8298 H 779.457 -1.54762 6.37483 0
M  V30 8299 H 779.374 -0.280892 7.55478 0
M  V30 8300 H 780.642 -1.46575 7.65595 0
M  V30 8301 N 784.871 -1.49948 0.485112 0
M  V30 8302 C 785.803 -2.26691 -0.338222 0
M  V30 8303 C 786.816 -1.32584 -0.944742 0
M  V30 8304 O 788.005 -1.57989 -0.830772 0
M  V30 8305 C 785.105 -3.04405 -1.48966 0
M  V30 8306 C 784.278 -4.25971 -0.993371 0
M  V30 8307 C 783.337 -4.85861 -2.02052 0
M  V30 8308 O 782.363 -5.46382 -1.59547 0
M  V30 8309 N 783.565 -4.74101 -3.34975 0
M  V30 8310 H 786.33 -2.97989 0.319748 0
M  V30 8311 H 783.891 -1.58772 0.316714 0
M  V30 8312 H 785.883 -3.41348 -2.17403 0
M  V30 8313 H 784.453 -2.35815 -2.05207 0
M  V30 8314 H 783.673 -3.93971 -0.134424 0
M  V30 8315 H 784.961 -5.0476 -0.639934 0
M  V30 8316 H 784.359 -4.26002 -3.72208 0
M  V30 8317 H 782.916 -5.15274 -3.9917 0
M  V30 8318 N 786.349 -0.21828 -1.56081 0
M  V30 8319 C 787.597 0.413488 -1.97825 0
M  V30 8320 C 787.918 1.60527 -1.10707 0
M  V30 8321 O 787.188 1.9504 -0.183378 0
M  V30 8322 H 785.768 0.155757 -0.730581 0
M  V30 8323 H 788.43 -0.310413 -1.92412 0
M  V30 8324 H 787.526 0.742024 -3.03151 0
M  V30 8325 N 787.827 1.57504 0.0551401 0
M  V30 8326 C 788.774 2.04825 1.06373 0
M  V30 8327 C 789.744 0.932108 1.37481 0
M  V30 8328 O 790.929 1.20093 1.48265 0
M  V30 8329 C 788.069 2.51091 2.36743 0
M  V30 8330 C 787.182 3.76392 2.12021 0
M  V30 8331 C 786.317 4.11373 3.36074 0
M  V30 8332 C 785.356 5.29666 3.0679 0
M  V30 8333 N 784.493 5.60205 4.2322 0
M  V30 8334 H 789.333 2.90753 0.653216 0
M  V30 8335 H 786.87 1.43776 0.310951 0
M  V30 8336 H 788.828 2.75973 3.12881 0
M  V30 8337 H 787.458 1.68118 2.75565 0
M  V30 8338 H 786.51 3.58751 1.26498 0
M  V30 8339 H 787.822 4.62662 1.86401 0
M  V30 8340 H 786.976 4.37245 4.20597 0
M  V30 8341 H 785.715 3.23704 3.64784 0
M  V30 8342 H 784.72 5.03574 2.20664 0
M  V30 8343 H 785.945 6.18968 2.79385 0
M  V30 8344 H 783.891 4.75495 4.5193 0
M  V30 8345 H 783.808 6.40928 4.00933 0
M  V30 8346 H 785.076 5.90637 5.08692 0
M  V30 8347 N 789.305 -0.326896 1.54172 0
M  V30 8348 C 790.551 -1.06681 1.72473 0
M  V30 8349 C 790.884 -1.87779 0.49523 0
M  V30 8350 O 790.159 -1.87754 -0.507803 0
M  V30 8351 C 790.442 -1.99429 2.99834 0
M  V30 8352 C 790.295 -1.21682 4.33028 0
M  V30 8353 C 791.614 -2.99002 3.22933 0
M  V30 8354 H 788.733 -0.386438 0.627563 0
M  V30 8355 H 791.375 -0.343779 1.86864 0
M  V30 8356 H 789.525 -2.61081 2.87696 0
M  V30 8357 H 791.197 -0.625153 4.57044 0
M  V30 8358 H 789.44 -0.519045 4.30684 0
M  V30 8359 H 790.111 -1.89766 5.18356 0
M  V30 8360 H 792.587 -2.4747 3.34511 0
M  V30 8361 H 791.463 -3.61085 4.13412 0
M  V30 8362 H 791.724 -3.71281 2.40006 0
M  V30 8363 N 790.784 -1.46188 -0.588786 0
M  V30 8364 C 792.033 -1.50452 -1.34339 0
M  V30 8365 C 792.346 -0.158096 -1.9496 0
M  V30 8366 O 793.552 -0.0784918 -2.71387 0
M  V30 8367 C 792.008 -2.65074 -2.43441 0
M  V30 8368 C 791.616 -4.06111 -1.8915 0
M  V30 8369 C 793.36 -2.78603 -3.20282 0
M  V30 8370 C 791.267 -5.12084 -2.95845 0
M  V30 8371 H 790.197 -0.559905 -0.504997 0
M  V30 8372 H 792.848 -1.72382 -0.629014 0
M  V30 8373 H 791.23 -2.36462 -3.1765 0
M  V30 8374 H 792.404 -4.44487 -1.21524 0
M  V30 8375 H 790.719 -3.97197 -1.24995 0
M  V30 8376 H 793.316 -3.54944 -3.99898 0
M  V30 8377 H 793.659 -1.85902 -3.72486 0
M  V30 8378 H 794.192 -3.06832 -2.53178 0
M  V30 8379 H 790.931 -6.06556 -2.48535 0
M  V30 8380 H 790.451 -4.78259 -3.61979 0
M  V30 8381 H 792.13 -5.37661 -3.59902 0
M  V30 8382 N 792.262 0.832906 -1.33792 0
M  V30 8383 C 793.511 1.58351 -1.24932 0
M  V30 8384 C 793.824 1.94754 0.181703 0
M  V30 8385 O 795.03 2.6865 0.392375 0
M  V30 8386 C 793.486 2.85643 -2.18943 0
M  V30 8387 C 793.094 2.56581 -3.67247 0
M  V30 8388 C 794.838 3.63667 -2.18968 0
M  V30 8389 C 792.745 3.80006 -4.53155 0
M  V30 8390 H 791.675 0.594278 -0.464058 0
M  V30 8391 H 794.326 0.91786 -1.58895 0
M  V30 8392 H 792.708 3.53781 -1.77919 0
M  V30 8393 H 793.882 1.96617 -4.16747 0
M  V30 8394 H 792.197 1.91851 -3.6957 0
M  V30 8395 H 794.794 4.55293 -2.80379 0
M  V30 8396 H 795.137 3.99039 -1.18631 0
M  V30 8397 H 795.67 3.0246 -2.58384 0
M  V30 8398 H 792.409 3.4976 -5.5439 0
M  V30 8399 H 791.929 4.39288 -4.08395 0
M  V30 8400 H 793.608 4.47523 -4.6726 0
M  V30 8401 N 793.74 1.17359 1.05189 0
M  V30 8402 C 794.986 0.963413 1.78455 0
M  V30 8403 C 795.319 -0.506703 1.87473 0
M  V30 8404 O 794.594 -1.37611 1.37453 0
M  V30 8405 C 794.877 1.60519 3.22344 0
M  V30 8406 C 794.73 3.14741 3.21338 0
M  V30 8407 C 796.049 1.3091 4.20179 0
M  V30 8408 H 793.168 0.351412 0.647826 0
M  V30 8409 H 795.81 1.44858 1.22948 0
M  V30 8410 H 793.96 1.19265 3.69741 0
M  V30 8411 H 795.632 3.65053 2.82017 0
M  V30 8412 H 793.875 3.4749 2.59679 0
M  V30 8413 H 794.546 3.54775 4.22894 0
M  V30 8414 H 797.022 1.66635 3.81277 0
M  V30 8415 H 795.898 1.784 5.191 0
M  V30 8416 H 796.159 0.229908 4.41502 0
M  V30 8417 N 795.218 -1.23913 0.973828 0
M  V30 8418 C 796.464 -1.92436 0.640026 0
M  V30 8419 C 796.797 -1.75875 -0.823512 0
M  V30 8420 O 796.072 -1.11563 -1.59323 0
M  V30 8421 C 796.355 -3.4526 1.0231 0
M  V30 8422 C 796.208 -3.70961 2.54378 0
M  V30 8423 C 797.527 -4.36495 0.562155 0
M  V30 8424 H 794.646 -0.698868 0.233992 0
M  V30 8425 H 797.288 -1.46163 1.21393 0
M  V30 8426 H 795.438 -3.84802 0.534751 0
M  V30 8427 H 797.11 -3.40941 3.10737 0
M  V30 8428 H 795.353 -3.15899 2.97305 0
M  V30 8429 H 796.024 -4.77912 2.76232 0
M  V30 8430 H 798.5 -4.04363 0.981333 0
M  V30 8431 H 797.376 -5.42142 0.858689 0
M  V30 8432 H 797.637 -4.38818 -0.537659 0
M  V30 8433 N 796.696 -0.74468 -1.38897 0
M  V30 8434 C 797.643 -0.111064 -2.30533 0
M  V30 8435 C 798.613 0.719276 -1.49719 0
M  V30 8436 O 799.798 0.677244 -1.78376 0
M  V30 8437 C 796.938 0.78292 -3.36102 0
M  V30 8438 C 796.051 -0.0610817 -4.31957 0
M  V30 8439 C 795.186 0.835075 -5.24595 0
M  V30 8440 C 794.225 -0.0130974 -6.12099 0
M  V30 8441 N 793.362 0.839525 -6.97063 0
M  V30 8442 H 798.202 -0.898113 -2.84144 0
M  V30 8443 H 795.739 -0.454537 -1.39901 0
M  V30 8444 H 797.697 1.31578 -3.95908 0
M  V30 8445 H 796.327 1.53585 -2.83922 0
M  V30 8446 H 795.379 -0.711469 -3.73687 0
M  V30 8447 H 796.691 -0.716482 -4.93627 0
M  V30 8448 H 795.845 1.43542 -5.89475 0
M  V30 8449 H 794.584 1.52423 -4.63269 0
M  V30 8450 H 793.589 -0.626179 -5.46223 0
M  V30 8451 H 794.814 -0.699181 -6.75491 0
M  V30 8452 H 792.76 1.5138 -6.38295 0
M  V30 8453 H 792.677 0.240823 -7.55616 0
M  V30 8454 H 793.945 1.42513 -7.66362 0
M  V30 8455 N 798.174 1.49689 -0.493057 0
M  V30 8456 C 799.451 1.9525 0.116907 0
M  V30 8457 C 799.831 1.43429 1.54892 0
M  V30 8458 O 799.179 0.644621 2.19219 0
M  V30 8459 C 799.389 3.4898 0.037705 0
M  V30 8460 C 800.737 4.24052 0.215621 0
M  V30 8461 O 801.761 3.5602 0.113266 0
M  V30 8462 O 800.62 5.44847 0.42477 0
M  V30 8463 H 797.714 0.820973 0.099662 0
M  V30 8464 H 800.26 1.60367 -0.555029 0
M  V30 8465 H 799.032 3.79309 -0.961251 0
M  V30 8466 H 798.655 3.9046 0.750137 0
M  V30 8467 N 799.652 0.226554 1.55963 0
M  V30 8468 C 800.9 -0.402991 1.98041 0
M  V30 8469 C 801.221 -1.59938 1.11557 0
M  V30 8470 O 800.491 -1.9494 0.193719 0
M  V30 8471 H 799.071 -0.15188 0.731397 0
M  V30 8472 H 801.733 0.320613 1.92245 0
M  V30 8473 H 800.829 -0.725937 3.0354 0
M  V30 8474 N 801.13 -1.57531 -0.0467866 0
M  V30 8475 C 802.541 -1.76945 -0.595603 0
M  V30 8476 C 802.892 -0.855354 -1.76573 0
M  V30 8477 O 802.017 -0.045668 -2.16352 0
M  V30 8478 C 802.612 -3.20881 -1.08725 0
M  V30 8479 C 801.171 -3.41553 -1.58172 0
M  V30 8480 C 800.318 -2.72533 -0.511968 0
M  V30 8481 H 803.269 -1.57682 0.179436 0
M  V30 8482 H 803.29 -3.26419 -1.95528 0
M  V30 8483 H 802.802 -3.87385 -0.235398 0
M  V30 8484 H 800.903 -2.80199 -2.456 0
M  V30 8485 H 801.016 -4.50104 -1.64143 0
M  V30 8486 H 799.38 -2.35797 -0.962899 0
M  V30 8487 H 800.163 -3.41709 0.330117 0
M  V30 8488 N 802.608 0.318715 -1.54344 0
M  V30 8489 C 803.856 1.054 -1.72439 0
M  V30 8490 C 804.177 1.88388 -0.503495 0
M  V30 8491 O 803.447 1.89866 0.48246 0
M  V30 8492 H 802.027 0.392124 -0.635805 0
M  V30 8493 H 804.689 0.35398 -1.91659 0
M  V30 8494 H 803.785 1.71726 -2.60608 0
M  V30 8495 N 804.086 1.46499 0.581025 0
M  V30 8496 C 805.333 1.51896 1.33918 0
M  V30 8497 C 805.661 0.171361 1.93744 0
M  V30 8498 O 804.916 -0.833178 1.77078 0
M  V30 8499 C 805.215 2.56686 2.48691 0
M  V30 8500 C 804.881 4.00656 2.06847 0
M  V30 8501 C 803.543 4.39852 1.9515 0
M  V30 8502 C 805.895 4.91089 1.74589 0
M  V30 8503 C 803.223 5.67345 1.49456 0
M  V30 8504 C 805.575 6.1902 1.30373 0
M  V30 8505 C 804.239 6.57121 1.17255 0
M  V30 8506 H 803.509 0.555826 0.490039 0
M  V30 8507 H 806.156 1.79983 0.654092 0
M  V30 8508 H 804.461 2.22266 3.22653 0
M  V30 8509 H 806.158 2.58091 3.06904 0
M  V30 8510 H 802.748 3.69674 2.16886 0
M  V30 8511 H 806.932 4.61523 1.8251 0
M  V30 8512 H 802.188 5.95635 1.37944 0
M  V30 8513 H 806.362 6.8852 1.04467 0
M  V30 8514 H 803.989 7.55805 0.816236 0
M  V30 8515 N 805.565 -0.825799 1.34232 0
M  V30 8516 C 806.795 -1.61129 1.29309 0
M  V30 8517 C 807.203 -1.88714 -0.135589 0
M  V30 8518 O 806.546 -1.47703 -1.09222 0
M  V30 8519 C 806.608 -2.97866 2.01287 0
M  V30 8520 C 806.272 -2.9319 3.50555 0
M  V30 8521 C 807.269 -2.67978 4.45515 0
M  V30 8522 C 804.954 -3.12913 3.92926 0
M  V30 8523 C 806.948 -2.62536 5.80822 0
M  V30 8524 C 804.635 -3.07096 5.28333 0
M  V30 8525 C 805.633 -2.8194 6.22092 0
M  V30 8526 O 805.321 -2.7605 7.55018 0
M  V30 8527 H 805.053 -0.507652 0.446391 0
M  V30 8528 H 807.607 -1.03575 1.77374 0
M  V30 8529 H 805.837 -3.57327 1.47832 0
M  V30 8530 H 807.526 -3.58848 1.89691 0
M  V30 8531 H 808.292 -2.52478 4.14101 0
M  V30 8532 H 804.171 -3.3151 3.20347 0
M  V30 8533 H 807.715 -2.42821 6.53975 0
M  V30 8534 H 803.612 -3.22148 5.59367 0
M  V30 8535 H 804.38 -2.91798 7.6472 0
M  V30 8536 N 807.043 -1.17915 -1.04565 0
M  V30 8537 C 808.271 -0.99616 -1.8134 0
M  V30 8538 C 808.686 0.455509 -1.83223 0
M  V30 8539 O 808.043 1.31636 -1.26405 0
M  V30 8540 C 808.094 -1.53758 -3.27171 0
M  V30 8541 O 807.815 -2.93241 -3.25486 0
M  V30 8542 C 809.316 -1.40007 -4.2061 0
M  V30 8543 H 806.536 -0.352055 -0.571225 0
M  V30 8544 H 809.08 -1.56349 -1.31815 0
M  V30 8545 H 807.235 -1.01213 -3.73945 0
M  V30 8546 H 807.649 -3.18392 -4.16805 0
M  V30 8547 H 809.123 -1.82695 -5.2089 0
M  V30 8548 H 809.6 -0.348054 -4.37819 0
M  V30 8549 H 810.206 -1.916 -3.79697 0
M  V30 8550 N 808.521 1.23394 -0.980386 0
M  V30 8551 C 809.749 1.95844 -0.667286 0
M  V30 8552 C 810.164 1.72574 0.765735 0
M  V30 8553 O 809.521 1.01715 1.51526 0
M  V30 8554 C 809.572 3.48844 -0.948151 0
M  V30 8555 O 809.293 3.71325 -2.32485 0
M  V30 8556 C 810.794 4.38494 -0.651002 0
M  V30 8557 H 808.014 0.623535 -0.247882 0
M  V30 8558 H 810.558 1.56885 -1.31176 0
M  V30 8559 H 808.713 3.85819 -0.349681 0
M  V30 8560 H 809.127 4.65619 -2.41452 0
M  V30 8561 H 810.601 5.44648 -0.897887 0
M  V30 8562 H 811.078 4.37236 0.414922 0
M  V30 8563 H 811.684 4.07127 -1.22995 0
M  V30 8564 N 809.999 0.752036 1.385 0
M  V30 8565 C 811.415 0.42946 1.53713 0
M  V30 8566 C 811.615 -1.0576 1.71514 0
M  V30 8567 O 810.671 -1.84366 1.72527 0
M  V30 8568 C 811.984 1.22735 2.74511 0
M  V30 8569 C 813.532 1.21727 2.8836 0
M  V30 8570 C 814.007 1.99809 4.12117 0
M  V30 8571 N 815.498 1.97062 4.19191 0
M  V30 8572 C 816.233 2.54274 5.13938 0
M  V30 8573 N 815.729 3.20193 6.14368 0
M  V30 8574 N 817.522 2.44212 5.06277 0
M  V30 8575 H 809.673 1.71581 1.25195 0
M  V30 8576 H 811.936 0.727293 0.60807 0
M  V30 8577 H 811.642 2.28032 2.67758 0
M  V30 8578 H 811.516 0.843186 3.67655 0
M  V30 8579 H 813.903 0.172367 2.94596 0
M  V30 8580 H 813.984 1.64094 1.96232 0
M  V30 8581 H 813.628 3.0431 4.06642 0
M  V30 8582 H 813.558 1.54837 5.03322 0
M  V30 8583 H 816.049 1.49054 3.47263 0
M  V30 8584 H 816.362 3.61272 6.83156 0
M  V30 8585 H 814.707 3.24287 6.14705 0
M  V30 8586 H 817.898 1.92343 4.26757 0
M  V30 8587 H 818.071 2.89096 5.79937 0
M  V30 8588 N 811.477 -1.49425 0.500989 0
M  V30 8589 C 812.717 -2.04357 -0.0419004 0
M  V30 8590 C 813.081 -1.37236 -1.34277 0
M  V30 8591 O 814.282 -1.82889 -1.9699 0
M  V30 8592 C 812.553 -3.56889 -0.19112 0
M  V30 8593 S 814.112 -4.33369 -0.688259 0
M  V30 8594 H 810.93 -0.710998 -0.00177796 0
M  V30 8595 H 813.532 -1.83479 0.674953 0
M  V30 8596 H 812.236 -4.03283 0.760964 0
M  V30 8597 H 811.767 -3.82171 -0.933214 0
M  V30 8598 H 813.782 -4.55961 -1.9574 0
M  V30 8599 N 812.955 -0.234822 -1.55841 0
M  V30 8600 C 813.885 0.664217 -2.23854 0
M  V30 8601 C 814.866 1.19076 -1.2147 0
M  V30 8602 O 816.051 1.23232 -1.50091 0
M  V30 8603 C 813.181 1.86666 -2.9287 0
M  V30 8604 C 812.135 1.47341 -4.01839 0
M  V30 8605 C 811.461 2.75571 -4.58219 0
M  V30 8606 C 812.761 0.653479 -5.18196 0
M  V30 8607 H 814.455 0.0971213 -2.99242 0
M  V30 8608 H 812.001 0.0452724 -1.43929 0
M  V30 8609 H 813.954 2.50116 -3.39146 0
M  V30 8610 H 812.678 2.45894 -2.1495 0
M  V30 8611 H 811.337 0.862314 -3.56314 0
M  V30 8612 H 810.985 3.32971 -3.77014 0
M  V30 8613 H 810.685 2.49987 -5.31771 0
M  V30 8614 H 812.209 3.39939 -5.07221 0
M  V30 8615 H 813.623 1.19198 -5.60771 0
M  V30 8616 H 812.02 0.494188 -5.98062 0
M  V30 8617 H 813.09 -0.337004 -4.83728 0
M  V30 8618 N 814.433 1.57553 0.0384317 0
M  V30 8619 C 815.396 2.04927 1.02653 0
M  V30 8620 C 816.396 0.951768 1.29607 0
M  V30 8621 O 817.586 1.21568 1.24768 0
M  V30 8622 C 814.718 2.45828 2.36181 0
M  V30 8623 H 815.911 2.93474 0.617508 0
M  V30 8624 H 813.464 1.53679 0.285031 0
M  V30 8625 H 814.199 1.60408 2.8185 0
M  V30 8626 H 813.984 3.25945 2.1795 0
M  V30 8627 H 815.474 2.82939 3.0714 0
M  V30 8628 N 815.911 -0.310526 1.54511 0
M  V30 8629 C 817.322 -0.884142 1.64438 0
M  V30 8630 C 817.673 -1.88425 0.546855 0
M  V30 8631 O 816.798 -2.14049 -0.31811 0
M  V30 8632 C 817.393 -1.6104 2.9808 0
M  V30 8633 C 815.952 -2.13255 3.1016 0
M  V30 8634 C 815.099 -0.96213 2.60074 0
M  V30 8635 H 818.05 -0.0877666 1.58457 0
M  V30 8636 H 818.071 -2.47541 2.8897 0
M  V30 8637 H 817.583 -0.882255 3.77939 0
M  V30 8638 H 815.684 -2.89145 2.35002 0
M  V30 8639 H 815.797 -2.37361 4.16169 0
M  V30 8640 H 814.161 -1.34501 2.16291 0
M  V30 8641 H 814.944 -0.248098 3.42402 0
M  V30 8642 N 817.389 -1.46805 -0.573248 0
M  V30 8643 C 818.322 -1.52608 -1.69665 0
M  V30 8644 C 819.3 -0.379426 -1.58111 0
M  V30 8645 O 820.484 -0.584938 -1.79195 0
M  V30 8646 C 817.611 -1.41355 -3.07793 0
M  V30 8647 C 816.657 -2.60321 -3.37839 0
M  V30 8648 S 817.49 -4.22622 -3.28863 0
M  V30 8649 C 818.646 -4.13894 -4.69513 0
M  V30 8650 H 818.879 -2.47653 -1.64485 0
M  V30 8651 H 816.412 -1.34806 -0.752769 0
M  V30 8652 H 818.37 -1.35549 -3.87475 0
M  V30 8653 H 817.031 -0.477213 -3.10454 0
M  V30 8654 H 816.224 -2.48466 -4.38498 0
M  V30 8655 H 815.826 -2.63165 -2.65745 0
M  V30 8656 H 818.118 -3.81158 -5.60111 0
M  V30 8657 H 819.061 -5.14584 -4.86425 0
M  V30 8658 H 819.469 -3.44998 -4.46807 0
M  V30 8659 N 818.867 0.818669 -1.34668 0
M  V30 8660 C 819.8 1.93516 -1.20941 0
M  V30 8661 C 820.778 1.62292 -0.100061 0
M  V30 8662 O 821.962 1.86614 -0.265983 0
M  V30 8663 C 819.089 3.27612 -0.859524 0
M  V30 8664 C 818.135 3.77794 -1.97923 0
M  V30 8665 S 818.968 3.97043 -3.59329 0
M  V30 8666 C 820.124 5.3406 -3.2639 0
M  V30 8667 H 820.357 2.04864 -2.15449 0
M  V30 8668 H 817.89 0.974716 -1.19744 0
M  V30 8669 H 819.848 4.05087 -0.664444 0
M  V30 8670 H 818.509 3.14028 0.0672835 0
M  V30 8671 H 817.702 4.74883 -1.68827 0
M  V30 8672 H 817.304 3.0728 -2.13202 0
M  V30 8673 H 819.596 6.17626 -2.78469 0
M  V30 8674 H 820.539 5.68143 -4.22634 0
M  V30 8675 H 820.947 4.99773 -2.62464 0
M  V30 8676 N 820.346 1.18468 1.03938 0
M  V30 8677 C 821.571 1.00638 1.81347 0
M  V30 8678 C 821.996 -0.440477 1.8287 0
M  V30 8679 O 821.354 -1.31609 1.24695 0
M  V30 8680 C 821.402 1.5673 3.24759 0
M  V30 8681 O 820.506 0.789517 4.04772 0
M  V30 8682 H 819.847 0.356432 0.560225 0
M  V30 8683 H 822.377 1.57253 1.30891 0
M  V30 8684 H 822.387 1.59496 3.75533 0
M  V30 8685 H 821.062 2.62043 3.22965 0
M  V30 8686 H 819.639 0.834267 3.63448 0
M  V30 8687 N 821.824 -1.22873 0.986916 0
M  V30 8688 C 822.734 -2.28277 0.540978 0
M  V30 8689 C 823.75 -1.69164 -0.407363 0
M  V30 8690 O 824.926 -1.99504 -0.275674 0
M  V30 8691 C 821.991 -3.46404 -0.143181 0
M  V30 8692 C 821.052 -4.20854 0.847375 0
M  V30 8693 C 820.285 -5.33341 0.19577 0
M  V30 8694 O 820.508 -5.61356 -1.0117 0
M  V30 8695 O 819.442 -5.95169 0.897623 0
M  V30 8696 H 823.268 -2.68578 1.41773 0
M  V30 8697 H 820.853 -1.28927 0.754867 0
M  V30 8698 H 822.735 -4.18096 -0.526676 0
M  V30 8699 H 821.41 -3.08041 -0.994593 0
M  V30 8700 H 820.317 -3.51459 1.28169 0
M  V30 8701 H 821.65 -4.63082 1.6678 0
M  V30 8702 N 823.302 -0.75937 -1.38099 0
M  V30 8703 C 824.548 -0.318584 -2.00282 0
M  V30 8704 C 824.881 1.09854 -1.60143 0
M  V30 8705 O 824.156 1.75344 -0.841702 0
M  V30 8706 C 824.439 -0.448047 -3.57302 0
M  V30 8707 C 824.292 -1.9067 -4.07388 0
M  V30 8708 C 825.611 0.155119 -4.39827 0
M  V30 8709 H 822.73 -0.117233 -0.727616 0
M  V30 8710 H 825.372 -0.960097 -1.63958 0
M  V30 8711 H 823.522 0.0981003 -3.88376 0
M  V30 8712 H 825.194 -2.5116 -3.86932 0
M  V30 8713 H 823.437 -2.41979 -3.6004 0
M  V30 8714 H 824.108 -1.94841 -5.1647 0
M  V30 8715 H 826.584 -0.31073 -4.14938 0
M  V30 8716 H 825.46 0.0343264 -5.48889 0
M  V30 8717 H 825.721 1.24407 -4.24235 0
M  V30 8718 N 824.78 1.49157 -0.508906 0
M  V30 8719 C 826.029 2.0167 0.0346854 0
M  V30 8720 C 826.342 1.39302 1.37311 0
M  V30 8721 O 827.548 1.83189 2.00385 0
M  V30 8722 C 826.004 3.59725 0.112261 0
M  V30 8723 C 825.612 4.31069 -1.21999 0
M  V30 8724 C 827.356 4.20155 0.605798 0
M  V30 8725 C 825.263 5.81001 -1.10415 0
M  V30 8726 H 824.193 0.753814 0.0167355 0
M  V30 8727 H 826.844 1.7162 -0.649518 0
M  V30 8728 H 825.226 3.86525 0.861087 0
M  V30 8729 H 826.4 4.15962 -1.98273 0
M  V30 8730 H 824.715 3.82418 -1.64759 0
M  V30 8731 H 827.312 5.29964 0.710102 0
M  V30 8732 H 827.655 3.84051 1.60656 0
M  V30 8733 H 828.188 3.97705 -0.0867239 0
M  V30 8734 H 824.927 6.21643 -2.07941 0
M  V30 8735 H 824.447 5.9858 -0.382428 0
M  V30 8736 H 826.126 6.42207 -0.786116 0
M  V30 8737 N 826.258 0.243083 1.55714 0
M  V30 8738 C 827.674 -0.111853 1.59208 0
M  V30 8739 C 827.874 -1.5723 1.2602 0
M  V30 8740 O 826.93 -2.31608 1.00569 0
M  V30 8741 C 828.243 0.233885 2.99789 0
M  V30 8742 C 829.791 0.177873 3.12494 0
M  V30 8743 C 830.266 0.49759 4.55289 0
M  V30 8744 N 831.757 0.447949 4.61029 0
M  V30 8745 C 832.492 0.668545 5.69489 0
M  V30 8746 N 831.988 0.952064 6.86227 0
M  V30 8747 N 833.781 0.599512 5.58894 0
M  V30 8748 H 825.932 1.19554 1.75558 0
M  V30 8749 H 828.195 0.480765 0.817049 0
M  V30 8750 H 827.901 1.24835 3.28799 0
M  V30 8751 H 827.775 -0.440846 3.74615 0
M  V30 8752 H 830.162 -0.827263 2.83267 0
M  V30 8753 H 830.243 0.886399 2.39951 0
M  V30 8754 H 829.887 1.50026 4.85237 0
M  V30 8755 H 829.817 -0.232371 5.26087 0
M  V30 8756 H 832.308 0.237388 3.77154 0
M  V30 8757 H 832.621 1.10791 7.64817 0
M  V30 8758 H 830.966 0.989496 6.8792 0
M  V30 8759 H 834.157 0.378088 4.66571 0
M  V30 8760 H 834.33 0.774828 6.43351 0
M  V30 8761 N 827.736 -1.57571 -0.0300757 0
M  V30 8762 C 828.985 -1.88407 -0.720126 0
M  V30 8763 C 829.298 -0.841466 -1.76575 0
M  V30 8764 O 830.504 -1.03902 -2.50832 0
M  V30 8765 C 828.96 -3.34348 -1.33188 0
M  V30 8766 C 828.568 -4.46837 -0.32266 0
M  V30 8767 C 830.312 -3.74333 -2.00187 0
M  V30 8768 C 828.219 -5.83838 -0.942703 0
M  V30 8769 H 827.149 -0.702952 -0.272718 0
M  V30 8770 H 829.8 -1.83482 0.0255337 0
M  V30 8771 H 828.182 -3.34014 -2.12721 0
M  V30 8772 H 829.356 -4.58638 0.445887 0
M  V30 8773 H 827.671 -4.15678 0.245181 0
M  V30 8774 H 830.268 -4.74008 -2.47428 0
M  V30 8775 H 830.611 -3.06275 -2.81959 0
M  V30 8776 H 831.144 -3.76837 -1.2743 0
M  V30 8777 H 827.883 -6.55294 -0.164413 0
M  V30 8778 H 827.403 -5.75759 -1.68111 0
M  V30 8779 H 829.082 -6.30535 -1.45034 0
M  V30 8780 N 829.214 0.302327 -1.54673 0
M  V30 8781 C 830.144 1.37759 -1.88533 0
M  V30 8782 C 831.125 1.52961 -0.744113 0
M  V30 8783 O 832.31 1.6649 -0.999731 0
M  V30 8784 C 829.44 2.74201 -2.13146 0
M  V30 8785 C 828.394 2.73765 -3.28993 0
M  V30 8786 C 827.72 4.13483 -3.39022 0
M  V30 8787 C 829.02 2.35624 -4.66132 0
M  V30 8788 H 830.714 1.0967 -2.78591 0
M  V30 8789 H 828.26 0.52613 -1.34044 0
M  V30 8790 H 830.213 3.49508 -2.35419 0
M  V30 8791 H 828.937 3.03812 -1.19858 0
M  V30 8792 H 827.596 2.00914 -3.06642 0
M  V30 8793 H 827.244 4.40269 -2.43253 0
M  V30 8794 H 826.944 4.14093 -4.16894 0
M  V30 8795 H 828.468 4.90572 -3.63553 0
M  V30 8796 H 829.882 3.00647 -4.88143 0
M  V30 8797 H 828.279 2.47449 -5.46707 0
M  V30 8798 H 829.349 1.30753 -4.66939 0
M  V30 8799 N 830.692 1.47107 0.565454 0
M  V30 8800 C 831.624 1.55024 1.6882 0
M  V30 8801 C 832.637 0.4371 1.56822 0
M  V30 8802 O 833.826 0.706315 1.63931 0
M  V30 8803 C 830.926 1.43069 3.0722 0
M  V30 8804 C 830.099 2.68807 3.45053 0
M  V30 8805 C 829.158 2.50806 4.62583 0
M  V30 8806 O 828.184 3.24593 4.67577 0
M  V30 8807 N 829.386 1.58093 5.58558 0
M  V30 8808 H 832.151 2.51836 1.62477 0
M  V30 8809 H 829.712 1.43382 0.751885 0
M  V30 8810 H 831.704 1.28773 3.83666 0
M  V30 8811 H 830.274 0.543721 3.07835 0
M  V30 8812 H 829.494 2.97923 2.58138 0
M  V30 8813 H 830.782 3.52298 3.67101 0
M  V30 8814 H 830.18 0.972807 5.57273 0
M  V30 8815 H 828.737 1.49753 6.34364 0
M  V30 8816 N 832.17 -0.811516 1.35101 0
M  V30 8817 C 833.08 -1.95475 1.29718 0
M  V30 8818 C 834.096 -1.72813 0.202909 0
M  V30 8819 O 835.272 -1.96725 0.431414 0
M  V30 8820 C 832.337 -3.29975 1.06385 0
M  V30 8821 C 831.398 -3.65566 2.25077 0
M  V30 8822 C 830.631 -4.93648 2.02848 0
M  V30 8823 O 830.854 -5.617 0.992442 0
M  V30 8824 O 829.788 -5.27384 2.90087 0
M  V30 8825 H 833.614 -2.02961 2.25921 0
M  V30 8826 H 831.199 -0.948583 1.15422 0
M  V30 8827 H 833.081 -4.10506 0.951999 0
M  V30 8828 H 831.756 -3.2343 0.132294 0
M  V30 8829 H 830.663 -2.85432 2.41825 0
M  V30 8830 H 831.996 -3.7681 3.16662 0
M  V30 8831 N 833.648 -1.19017 -1.03309 0
M  V30 8832 C 834.896 -0.988258 -1.76289 0
M  V30 8833 C 835.217 0.482557 -1.88935 0
M  V30 8834 O 834.487 1.34969 -1.41987 0
M  V30 8835 H 833.067 -0.36267 -0.653054 0
M  V30 8836 H 835.729 -1.49836 -1.2464 0
M  V30 8837 H 834.825 -1.43273 -2.77271 0
M  V30 8838 N 835.127 1.22348 -0.993418 0
M  V30 8839 C 836.373 1.91393 -0.67056 0
M  V30 8840 C 836.706 1.77163 0.795428 0
M  V30 8841 O 835.981 1.14084 1.57528 0
M  V30 8842 C 836.264 3.43589 -1.0779 0
M  V30 8843 C 836.117 3.66867 -2.60248 0
M  V30 8844 C 837.436 4.35545 -0.631527 0
M  V30 8845 H 834.555 0.695057 -0.24508 0
M  V30 8846 H 837.197 1.44213 -1.23703 0
M  V30 8847 H 835.347 3.83903 -0.595902 0
M  V30 8848 H 837.019 3.35954 -3.16121 0
M  V30 8849 H 835.262 3.1113 -3.02293 0
M  V30 8850 H 835.933 4.73457 -2.838 0
M  V30 8851 H 838.409 4.0275 -1.04554 0
M  V30 8852 H 837.285 5.40707 -0.944831 0
M  V30 8853 H 837.546 4.39618 0.467779 0
M  V30 8854 N 836.605 0.766683 1.37694 0
M  V30 8855 C 837.882 0.25366 1.93948 0
M  V30 8856 C 838.262 -1.25041 1.70082 0
M  V30 8857 O 837.61 -2.03115 1.04674 0
M  V30 8858 C 837.82 0.621549 3.43421 0
M  V30 8859 C 839.168 0.588504 4.20502 0
M  V30 8860 O 840.192 0.560632 3.5176 0
M  V30 8861 O 839.051 0.61107 5.43073 0
M  V30 8862 H 836.145 0.0570586 0.825029 0
M  V30 8863 H 838.691 0.847693 1.47011 0
M  V30 8864 H 837.463 1.65979 3.54354 0
M  V30 8865 H 837.086 0.000197027 3.976 0
M  V30 8866 N 838.083 -1.48885 0.516809 0
M  V30 8867 C 839.494 -1.86557 0.0729921 0
M  V30 8868 C 839.845 -1.42767 -1.34581 0
M  V30 8869 O 838.97 -0.812514 -2.00567 0
M  V30 8870 C 839.565 -3.38567 0.125686 0
M  V30 8871 C 838.124 -3.75481 -0.262867 0
M  V30 8872 C 837.271 -2.72913 0.491281 0
M  V30 8873 H 840.222 -1.40978 0.728767 0
M  V30 8874 H 840.243 -3.74629 -0.665831 0
M  V30 8875 H 839.755 -3.70408 1.15842 0
M  V30 8876 H 837.856 -3.49251 -1.29824 0
M  V30 8877 H 837.969 -4.79052 0.067579 0
M  V30 8878 H 836.333 -2.54627 -0.0608525 0
M  V30 8879 H 837.116 -3.07599 1.5244 0
M  V30 8880 N 839.561 -0.251338 -1.55583 0
M  V30 8881 C 840.508 0.646337 -2.21565 0
M  V30 8882 C 841.478 1.16796 -1.18102 0
M  V30 8883 O 842.663 1.22162 -1.46564 0
M  V30 8884 C 839.803 1.83557 -2.92234 0
M  V30 8885 C 838.916 1.35006 -4.10363 0
M  V30 8886 C 838.051 2.4992 -4.68736 0
M  V30 8887 C 837.09 1.98253 -5.79105 0
M  V30 8888 N 836.227 3.06551 -6.31642 0
M  V30 8889 H 841.067 0.0769881 -2.97901 0
M  V30 8890 H 838.604 0.026238 -1.47077 0
M  V30 8891 H 840.562 2.53425 -3.31408 0
M  V30 8892 H 839.192 2.37733 -2.18364 0
M  V30 8893 H 838.244 0.545274 -3.76472 0
M  V30 8894 H 839.556 0.931435 -4.90026 0
M  V30 8895 H 838.71 3.27823 -5.10507 0
M  V30 8896 H 837.449 2.95086 -3.88298 0
M  V30 8897 H 836.454 1.18822 -5.36807 0
M  V30 8898 H 837.679 1.54051 -6.61396 0
M  V30 8899 H 835.625 3.51143 -5.54107 0
M  V30 8900 H 835.542 2.69033 -7.06511 0
M  V30 8901 H 836.81 3.84499 -6.78071 0
M  V30 8902 N 841.039 1.57585 0.0217189 0
M  V30 8903 C 841.986 2.07036 1.02004 0
M  V30 8904 C 842.956 0.96106 1.35473 0
M  V30 8905 O 844.141 1.23211 1.45684 0
M  V30 8906 C 841.281 2.56056 2.31364 0
M  V30 8907 C 840.394 3.80805 2.03989 0
M  V30 8908 C 839.529 4.18409 3.27272 0
M  V30 8909 C 838.568 5.36055 2.95486 0
M  V30 8910 N 837.705 5.69056 4.11242 0
M  V30 8911 H 842.545 2.92073 0.591396 0
M  V30 8912 H 840.082 1.44403 0.280384 0
M  V30 8913 H 842.04 2.82548 3.06957 0
M  V30 8914 H 840.67 1.73925 2.71937 0
M  V30 8915 H 839.722 3.61354 1.1886 0
M  V30 8916 H 841.034 4.66512 1.76546 0
M  V30 8917 H 840.188 4.46068 4.11228 0
M  V30 8918 H 838.927 3.31369 3.57835 0
M  V30 8919 H 837.932 5.08142 2.09933 0
M  V30 8920 H 839.157 6.24755 2.66193 0
M  V30 8921 H 837.103 4.84974 4.41742 0
M  V30 8922 H 837.02 6.49288 3.87247 0
M  V30 8923 H 838.288 6.01295 4.96049 0
M  V30 8924 N 842.517 -0.29412 1.54831 0
M  V30 8925 C 843.447 -1.36757 1.89261 0
M  V30 8926 C 844.428 -1.52564 0.752214 0
M  V30 8927 O 845.613 -1.65958 1.00855 0
M  V30 8928 C 842.743 -2.73066 2.14597 0
M  V30 8929 C 841.697 -2.72017 3.3044 0
M  V30 8930 C 841.023 -4.11679 3.4121 0
M  V30 8931 C 842.323 -2.33149 4.67375 0
M  V30 8932 H 844.017 -1.08191 2.79169 0
M  V30 8933 H 841.563 -0.519014 1.34321 0
M  V30 8934 H 843.516 -3.48255 2.37269 0
M  V30 8935 H 842.24 -3.03172 1.21467 0
M  V30 8936 H 840.899 -1.99285 3.07703 0
M  V30 8937 H 840.547 -4.38973 2.45584 0
M  V30 8938 H 840.247 -4.11877 4.19084 0
M  V30 8939 H 841.771 -4.88637 3.6615 0
M  V30 8940 H 843.185 -2.98054 4.89731 0
M  V30 8941 H 841.582 -2.44546 5.48012 0
M  V30 8942 H 842.652 -1.28275 4.67626 0
M  V30 8943 N 843.995 -1.47404 -0.557645 0
M  V30 8944 C 845.272 -1.44488 -1.31843 0
M  V30 8945 C 845.652 -0.1416 -2.10625 0
M  V30 8946 O 845 0.876908 -2.11004 0
M  V30 8947 C 845.21 -2.69016 -2.22331 0
M  V30 8948 C 846.558 -3.16212 -2.83364 0
M  V30 8949 O 847.582 -2.69741 -2.32634 0
M  V30 8950 O 846.441 -3.96999 -3.75571 0
M  V30 8951 H 843.535 -0.57578 -0.593639 0
M  V30 8952 H 846.081 -1.59605 -0.576584 0
M  V30 8953 H 844.853 -3.55406 -1.63715 0
M  V30 8954 H 844.476 -2.56484 -3.03812 0
M  V30 8955 N 845.473 0.80434 -1.35529 0
M  V30 8956 C 846.698 1.598 -1.32207 0
M  V30 8957 C 847.123 1.87848 0.0974226 0
M  V30 8958 O 846.481 1.46728 1.06492 0
M  V30 8959 C 846.529 2.90483 -2.13663 0
M  V30 8960 O 845.633 3.83411 -1.51888 0
M  V30 8961 H 844.974 0.485305 -0.453183 0
M  V30 8962 H 847.504 0.998119 -1.78602 0
M  V30 8963 H 847.514 3.39888 -2.257 0
M  V30 8964 H 846.189 2.69395 -3.16859 0
M  V30 8965 H 844.766 3.41967 -1.48704 0
M  V30 8966 N 846.951 1.19563 1.02676 0
M  V30 8967 C 847.881 0.959024 2.12897 0
M  V30 8968 C 848.862 -0.108382 1.69754 0
M  V30 8969 O 850.047 0.0470698 1.94143 0
M  V30 8970 C 847.177 0.499211 3.43693 0
M  V30 8971 C 846.131 1.5087 4.00528 0
M  V30 8972 C 845.457 0.905884 5.2697 0
M  V30 8973 C 846.757 2.88954 4.3509 0
M  V30 8974 H 848.451 1.88084 2.32948 0
M  V30 8975 H 845.997 0.905731 1.11949 0
M  V30 8976 H 847.95 0.320965 4.20176 0
M  V30 8977 H 846.674 -0.458205 3.2337 0
M  V30 8978 H 845.333 1.67413 3.26142 0
M  V30 8979 H 844.981 -0.0591506 5.02965 0
M  V30 8980 H 844.681 1.58 5.65959 0
M  V30 8981 H 846.205 0.73848 6.06118 0
M  V30 8982 H 847.619 2.75981 5.02501 0
M  V30 8983 H 846.016 3.53177 4.85166 0
M  V30 8984 H 847.086 3.41447 3.44299 0
M  V30 8985 N 848.429 -1.21819 0.999893 0
M  V30 8986 C 849.657 -1.94758 0.698359 0
M  V30 8987 C 850.072 -1.73771 -0.738183 0
M  V30 8988 O 849.429 -1.04113 -1.49889 0
M  V30 8989 C 849.48 -3.47292 1.00353 0
M  V30 8990 O 849.201 -3.67579 2.38363 0
M  V30 8991 C 850.702 -4.37403 0.72068 0
M  V30 8992 H 847.922 -0.619512 0.257771 0
M  V30 8993 H 850.466 -1.54778 1.33656 0
M  V30 8994 H 848.621 -3.85213 0.411018 0
M  V30 8995 H 849.035 -4.61719 2.48829 0
M  V30 8996 H 850.509 -5.43151 0.984422 0
M  V30 8997 H 850.986 -4.3784 -0.345309 0
M  V30 8998 H 851.592 -4.05119 1.29456 0
M  V30 8999 N 849.908 -0.773975 -1.37286 0
M  V30 9000 C 851.136 -0.350758 -2.03905 0
M  V30 9001 C 851.551 1.02779 -1.58373 0
M  V30 9002 O 850.908 1.65646 -0.766009 0
M  V30 9003 C 850.959 -0.387335 -3.59419 0
M  V30 9004 O 850.68 -1.7115 -4.03286 0
M  V30 9005 C 852.181 0.047198 -4.43275 0
M  V30 9006 H 849.401 -0.146663 -0.654775 0
M  V30 9007 H 851.945 -1.04852 -1.75574 0
M  V30 9008 H 850.1 0.261865 -3.86514 0
M  V30 9009 H 850.514 -1.65166 -4.97816 0
M  V30 9010 H 851.988 -0.0295474 -5.51992 0
M  V30 9011 H 852.465 1.09786 -4.25257 0
M  V30 9012 H 853.071 -0.573899 -4.2141 0
M  V30 9013 N 851.386 1.48609 -0.524698 0
M  V30 9014 C 852.611 2.07398 0.00952139 0
M  V30 9015 C 853.036 1.37939 1.27884 0
M  V30 9016 O 852.394 0.443633 1.75788 0
M  V30 9017 C 852.442 3.59916 0.221956 0
M  V30 9018 O 851.546 3.91647 1.29175 0
M  V30 9019 H 850.887 0.662981 -0.0367729 0
M  V30 9020 H 853.417 1.91092 -0.7311 0
M  V30 9021 H 853.427 4.05552 0.446236 0
M  V30 9022 H 852.102 4.09876 -0.705306 0
M  V30 9023 H 850.679 3.57796 1.05055 0
M  V30 9024 N 852.864 0.259585 1.55447 0
M  V30 9025 C 854.111 -0.361607 1.99245 0
M  V30 9026 C 854.439 -1.57017 1.14787 0
M  V30 9027 O 853.694 -1.94658 0.201724 0
M  V30 9028 C 853.993 -0.802727 3.48269 0
M  V30 9029 C 853.659 0.299472 4.49904 0
M  V30 9030 C 852.321 0.602157 4.77418 0
M  V30 9031 C 854.673 1.04295 5.10658 0
M  V30 9032 C 852.001 1.65217 5.62957 0
M  V30 9033 C 854.353 2.08257 5.97337 0
M  V30 9034 C 853.017 2.39177 6.23178 0
M  V30 9035 H 852.287 -0.132322 0.72909 0
M  V30 9036 H 854.934 0.370059 1.8789 0
M  V30 9037 H 853.239 -1.61381 3.5702 0
M  V30 9038 H 854.936 -1.29385 3.79553 0
M  V30 9039 H 851.526 0.0534256 4.28567 0
M  V30 9040 H 855.71 0.822358 4.89439 0
M  V30 9041 H 850.966 1.89692 5.81229 0
M  V30 9042 H 855.14 2.6635 6.43452 0
M  V30 9043 H 852.767 3.20677 6.89253 0
M  V30 9044 N 854.342 -1.57594 -0.0133615 0
M  V30 9045 C 855.59 -1.89605 -0.699596 0
M  V30 9046 C 855.911 -0.85926 -1.75048 0
M  V30 9047 O 855.181 0.105112 -1.95618 0
M  V30 9048 H 853.761 -0.699776 -0.261385 0
M  V30 9049 H 856.423 -1.94885 0.0244044 0
M  V30 9050 H 855.519 -2.88962 -1.17928 0
M  V30 9051 N 855.82 0.285905 -1.54985 0
M  V30 9052 C 857.067 1.0192 -1.74982 0
M  V30 9053 C 857.395 1.86743 -0.543816 0
M  V30 9054 O 856.65 1.89874 0.473972 0
M  V30 9055 C 856.949 1.94193 -3.0004 0
M  V30 9056 C 856.615 1.25225 -4.33162 0
M  V30 9057 C 855.277 1.06149 -4.69346 0
M  V30 9058 C 857.629 0.760427 -5.15623 0
M  V30 9059 C 854.957 0.365991 -5.85557 0
M  V30 9060 C 857.309 0.0785787 -6.32551 0
M  V30 9061 C 855.973 -0.124002 -6.67385 0
M  V30 9062 H 855.243 0.372951 -0.640304 0
M  V30 9063 H 857.89 0.292652 -1.89251 0
M  V30 9064 H 856.195 2.73426 -2.80616 0
M  V30 9065 H 857.892 2.51029 -3.12707 0
M  V30 9066 H 854.482 1.41081 -4.04715 0
M  V30 9067 H 858.666 0.895466 -4.88155 0
M  V30 9068 H 853.922 0.198193 -6.11079 0
M  V30 9069 H 858.096 -0.310339 -6.95708 0
M  V30 9070 H 855.723 -0.664918 -7.57287 0
M  V30 9071 N 857.298 1.47698 0.54982 0
M  V30 9072 C 858.709 1.48474 1.13191 0
M  V30 9073 C 859.06 0.243504 1.94683 0
M  V30 9074 O 858.185 -0.651009 2.06375 0
M  V30 9075 C 858.78 2.69022 2.05944 0
M  V30 9076 C 857.339 2.72733 2.5941 0
M  V30 9077 C 856.486 2.41691 1.35944 0
M  V30 9078 H 859.437 1.55101 0.336048 0
M  V30 9079 H 859.458 2.46412 2.89934 0
M  V30 9080 H 858.97 3.59345 1.46605 0
M  V30 9081 H 857.071 1.86568 3.22526 0
M  V30 9082 H 857.184 3.73628 2.99899 0
M  V30 9083 H 855.548 1.92428 1.66864 0
M  V30 9084 H 856.331 3.34231 0.783869 0
M  V30 9085 N 858.776 -0.797141 1.35954 0
M  V30 9086 C 860.022 -1.55698 1.29946 0
M  V30 9087 C 860.355 -1.93808 -0.123259 0
M  V30 9088 O 859.63 -1.62102 -1.07486 0
M  V30 9089 C 859.913 -2.83926 2.2149 0
M  V30 9090 C 859.766 -2.52232 3.72423 0
M  V30 9091 C 861.085 -3.85698 2.11955 0
M  V30 9092 H 858.204 -0.56488 0.47337 0
M  V30 9093 H 860.846 -0.916421 1.66438 0
M  V30 9094 H 858.996 -3.38588 1.905 0
M  V30 9095 H 860.668 -2.0368 4.13899 0
M  V30 9096 H 858.911 -1.85286 3.92239 0
M  V30 9097 H 859.582 -3.43782 4.31877 0
M  V30 9098 H 862.058 -3.40462 2.39218 0
M  V30 9099 H 860.934 -4.73182 2.78191 0
M  V30 9100 H 861.195 -4.28083 1.10442 0
M  V30 9101 N 860.254 -1.20106 -1.0204 0
M  V30 9102 C 861.502 -1.0069 -1.75231 0
M  V30 9103 C 861.823 0.462491 -1.89436 0
M  V30 9104 O 861.093 1.33455 -1.4341 0
M  V30 9105 H 859.673 -0.369576 -0.649171 0
M  V30 9106 H 862.335 -1.51149 -1.23044 0
M  V30 9107 H 861.431 -1.46205 -2.75736 0
M  V30 9108 N 861.732 1.21287 -1.00634 0
M  V30 9109 C 862.695 2.21927 -0.572821 0
M  V30 9110 C 863.695 1.5691 0.351541 0
M  V30 9111 O 864.885 1.73623 0.141643 0
M  V30 9112 C 862.017 3.40501 0.164932 0
M  V30 9113 H 863.21 2.61795 -1.463 0
M  V30 9114 H 860.763 1.34571 -0.794998 0
M  V30 9115 H 861.498 3.06123 1.07049 0
M  V30 9116 H 861.283 3.88912 -0.498962 0
M  V30 9117 H 862.773 4.15103 0.455945 0
M  V30 9118 N 863.21 0.781244 1.36873 0
M  V30 9119 C 864.173 0.180094 2.28491 0
M  V30 9120 C 865.173 -0.617798 1.48458 0
M  V30 9121 O 866.363 -0.439991 1.68552 0
M  V30 9122 C 863.495 -0.751741 3.32508 0
M  V30 9123 H 864.688 0.987837 2.83164 0
M  V30 9124 H 862.241 0.550102 1.463 0
M  V30 9125 H 862.976 -1.58413 2.82977 0
M  V30 9126 H 862.761 -0.181649 3.91679 0
M  V30 9127 H 864.251 -1.16748 4.00949 0
M  V30 9128 N 864.689 -1.48329 0.532571 0
M  V30 9129 C 865.917 -2.069 0.00354299 0
M  V30 9130 C 866.332 -1.38876 -1.27902 0
M  V30 9131 O 865.689 -0.477119 -1.76153 0
M  V30 9132 C 865.74 -3.60821 -0.221416 0
M  V30 9133 O 865.461 -4.26291 1.01034 0
M  V30 9134 C 866.962 -4.36194 -0.790531 0
M  V30 9135 H 864.182 -0.670103 0.0346836 0
M  V30 9136 H 866.726 -1.90682 0.738955 0
M  V30 9137 H 864.881 -3.76636 -0.906884 0
M  V30 9138 H 865.295 -5.18475 0.792683 0
M  V30 9139 H 866.769 -5.44657 -0.897347 0
M  V30 9140 H 867.246 -4.00798 -1.79605 0
M  V30 9141 H 867.852 -4.25064 -0.141546 0
M  V30 9142 N 866.167 -0.267825 -1.55308 0
M  V30 9143 C 867.097 0.616585 -2.25212 0
M  V30 9144 C 868.078 1.16472 -1.23969 0
M  V30 9145 O 869.263 1.20021 -1.52672 0
M  V30 9146 C 866.393 1.80412 -2.96764 0
M  V30 9147 C 865.347 1.38784 -4.04874 0
M  V30 9148 C 864.673 2.65789 -4.63961 0
M  V30 9149 C 865.973 0.543415 -5.19465 0
M  V30 9150 H 867.667 0.0336257 -2.99381 0
M  V30 9151 H 865.213 0.0147328 -1.43992 0
M  V30 9152 H 867.166 2.42866 -3.44375 0
M  V30 9153 H 865.89 2.4128 -2.20118 0
M  V30 9154 H 864.549 0.786541 -3.58063 0
M  V30 9155 H 864.197 3.24899 -3.83992 0
M  V30 9156 H 863.897 2.38651 -5.36954 0
M  V30 9157 H 865.421 3.29104 -5.14318 0
M  V30 9158 H 866.835 1.07277 -5.63174 0
M  V30 9159 H 865.232 0.367219 -5.98975 0
M  V30 9160 H 866.302 -0.439534 -4.82904 0
M  V30 9161 N 867.645 1.57599 0.00500368 0
M  V30 9162 C 868.891 1.90631 0.691919 0
M  V30 9163 C 869.224 0.868443 1.737 0
M  V30 9164 O 868.499 -0.113482 1.94169 0
M  V30 9165 C 868.782 3.34255 1.33961 0
M  V30 9166 C 868.635 4.48755 0.306413 0
M  V30 9167 C 869.954 3.77211 2.26715 0
M  V30 9168 H 867.073 0.693279 0.250066 0
M  V30 9169 H 869.715 1.89946 -0.0452634 0
M  V30 9170 H 867.865 3.3497 1.96793 0
M  V30 9171 H 869.537 4.60176 -0.321841 0
M  V30 9172 H 867.78 4.32203 -0.371852 0
M  V30 9173 H 868.451 5.46193 0.798554 0
M  V30 9174 H 870.927 3.78017 1.73904 0
M  V30 9175 H 869.803 4.78466 2.69002 0
M  V30 9176 H 870.064 3.10801 3.14413 0
M  V30 9177 N 869.123 -0.277682 1.55134 0
M  V30 9178 C 870.4 -1.0309 1.66228 0
M  V30 9179 C 870.78 -2.0445 0.525701 0
M  V30 9180 O 870.128 -2.23512 -0.474816 0
M  V30 9181 C 870.338 -1.6919 3.05247 0
M  V30 9182 C 871.686 -2.20526 3.62841 0
M  V30 9183 O 872.71 -1.79185 3.07849 0
M  V30 9184 O 871.569 -2.96342 4.59177 0
M  V30 9185 H 868.663 -0.4779 0.674937 0
M  V30 9186 H 871.209 -0.273912 1.67475 0
M  V30 9187 H 869.981 -0.957163 3.79413 0
M  V30 9188 H 869.604 -2.51587 3.07879 0
M  V30 9189 N 870.601 -1.47988 -0.541979 0
M  V30 9190 C 871.511 -1.64276 -1.67483 0
M  V30 9191 C 872.527 -0.525387 -1.65879 0
M  V30 9192 O 873.703 -0.794912 -1.85049 0
M  V30 9193 C 870.768 -1.66744 -3.03969 0
M  V30 9194 C 869.829 -2.90021 -3.16522 0
M  V30 9195 C 869.062 -2.92362 -4.46498 0
M  V30 9196 O 869.285 -2.03462 -5.32878 0
M  V30 9197 O 868.219 -3.84399 -4.63164 0
M  V30 9198 H 872.045 -2.60164 -1.5668 0
M  V30 9199 H 869.63 -1.31249 -0.71372 0
M  V30 9200 H 871.512 -1.70958 -3.85164 0
M  V30 9201 H 870.187 -0.740277 -3.15122 0
M  V30 9202 H 869.094 -2.91345 -2.34667 0
M  V30 9203 H 870.427 -3.82082 -3.10281 0
M  V30 9204 N 872.079 0.78992 -1.36375 0
M  V30 9205 C 873.325 1.55007 -1.3077 0
M  V30 9206 C 873.658 1.93871 0.112979 0
M  V30 9207 O 872.933 1.6267 1.06625 0
M  V30 9208 C 873.216 2.82748 -2.22993 0
M  V30 9209 C 873.069 2.50253 -3.73756 0
M  V30 9210 C 874.388 3.84569 -2.13998 0
M  V30 9211 H 871.507 0.562362 -0.476359 0
M  V30 9212 H 874.149 0.907582 -1.66922 0
M  V30 9213 H 872.299 3.37573 -1.92292 0
M  V30 9214 H 873.971 2.01482 -4.14973 0
M  V30 9215 H 872.214 1.83203 -3.93216 0
M  V30 9216 H 872.885 3.41487 -4.33694 0
M  V30 9217 H 875.361 3.39188 -2.4102 0
M  V30 9218 H 874.237 4.717 -2.80697 0
M  V30 9219 H 874.498 4.27491 -1.12711 0
M  V30 9220 N 873.557 1.20646 1.01402 0
M  V30 9221 C 874.805 1.01618 1.74695 0
M  V30 9222 C 875.126 -0.452438 1.89679 0
M  V30 9223 O 874.396 -1.32693 1.44116 0
M  V30 9224 H 872.976 0.373013 0.647202 0
M  V30 9225 H 875.638 1.518 1.22241 0
M  V30 9226 H 874.734 1.47666 2.74957 0
M  V30 9227 N 875.035 -1.20752 1.01276 0
M  V30 9228 C 876.281 -1.90302 0.700924 0
M  V30 9229 C 876.614 -1.78406 -0.767142 0
M  V30 9230 O 875.889 -1.16575 -1.55694 0
M  V30 9231 C 876.172 -3.41831 1.13242 0
M  V30 9232 C 876.025 -3.6268 2.66051 0
M  V30 9233 C 877.344 -4.34486 0.700738 0
M  V30 9234 H 874.463 -0.69107 0.256107 0
M  V30 9235 H 877.105 -1.42227 1.25982 0
M  V30 9236 H 875.255 -3.82906 0.656902 0
M  V30 9237 H 876.927 -3.30882 3.21426 0
M  V30 9238 H 875.17 -3.06281 3.07204 0
M  V30 9239 H 875.841 -4.68882 2.91296 0
M  V30 9240 H 878.317 -4.01036 1.10948 0
M  V30 9241 H 877.193 -5.39136 1.03073 0
M  V30 9242 H 877.454 -4.40307 -0.39778 0
M  V30 9243 N 876.513 -0.788492 -1.36457 0
M  V30 9244 C 877.79 -0.284484 -1.9352 0
M  V30 9245 C 878.17 1.2232 -1.7205 0
M  V30 9246 O 877.518 2.01424 -1.07892 0
M  V30 9247 C 877.728 -0.676106 -3.42388 0
M  V30 9248 C 879.076 -0.655327 -4.19512 0
M  V30 9249 O 880.1 -0.616523 -3.50824 0
M  V30 9250 O 878.959 -0.697391 -5.42032 0
M  V30 9251 H 876.053 -0.0701769 -0.824017 0
M  V30 9252 H 878.599 -0.870974 -1.45644 0
M  V30 9253 H 877.371 -1.71596 -3.51668 0
M  V30 9254 H 876.994 -0.0634517 -3.97549 0
M  V30 9255 N 877.991 1.48044 -0.54043 0
M  V30 9256 C 879.237 2.02797 -0.0101718 0
M  V30 9257 C 879.57 1.41565 1.32939 0
M  V30 9258 O 878.845 0.565139 1.86109 0
M  V30 9259 C 879.128 3.59959 0.100758 0
M  V30 9260 C 878.981 4.31654 -1.26471 0
M  V30 9261 C 880.3 4.32347 0.822455 0
M  V30 9262 H 877.419 0.736982 -0.00517052 0
M  V30 9263 H 880.061 1.76656 -0.69948 0
M  V30 9264 H 878.211 3.82363 0.687824 0
M  V30 9265 H 879.883 4.20639 -1.89369 0
M  V30 9266 H 878.126 3.92663 -1.84386 0
M  V30 9267 H 878.797 5.401 -1.13998 0
M  V30 9268 H 881.273 4.14835 0.324164 0
M  V30 9269 H 880.149 5.41978 0.868993 0
M  V30 9270 H 880.41 4.00369 1.87501 0
M  V30 9271 N 879.47 0.276058 1.55163 0
M  V30 9272 C 880.433 -0.597924 2.21263 0
M  V30 9273 C 881.433 -1.0806 1.19078 0
M  V30 9274 O 882.623 -0.980626 1.43977 0
M  V30 9275 C 879.755 -1.82503 2.87933 0
M  V30 9276 H 880.948 -0.0207769 2.99893 0
M  V30 9277 H 878.501 0.0266823 1.56277 0
M  V30 9278 H 879.236 -2.44266 2.13318 0
M  V30 9279 H 879.021 -1.48683 3.62816 0
M  V30 9280 H 880.511 -2.44651 3.38431 0
M  V30 9281 N 880.948 -1.576 0.00335426 0
M  V30 9282 C 881.895 -2.08632 -0.986975 0
M  V30 9283 C 882.865 -0.982491 -1.33927 0
M  V30 9284 O 884.05 -1.25513 -1.43705 0
M  V30 9285 C 881.19 -2.59705 -2.27261 0
M  V30 9286 C 880.303 -3.84002 -1.97905 0
M  V30 9287 C 879.438 -4.23563 -3.20574 0
M  V30 9288 C 878.477 -5.40688 -2.8692 0
M  V30 9289 N 877.614 -5.75526 -4.02136 0
M  V30 9290 H 882.454 -2.92977 -0.544855 0
M  V30 9291 H 879.991 -1.44831 -0.257376 0
M  V30 9292 H 881.949 -2.87395 -3.02423 0
M  V30 9293 H 880.579 -1.7823 -2.69136 0
M  V30 9294 H 879.631 -3.63199 -1.13096 0
M  V30 9295 H 880.943 -4.69261 -1.69102 0
M  V30 9296 H 880.097 -4.52554 -4.04079 0
M  V30 9297 H 878.836 -3.37019 -3.52518 0
M  V30 9298 H 877.841 -5.11417 -2.01822 0
M  V30 9299 H 879.066 -6.2891 -2.5622 0
M  V30 9300 H 877.012 -4.9194 -4.33971 0
M  V30 9301 H 876.929 -6.55367 -3.76869 0
M  V30 9302 H 878.197 -6.0911 -4.8642 0
M  V30 9303 N 882.426 0.269451 -1.5528 0
M  V30 9304 C 883.376 1.33553 -1.84791 0
M  V30 9305 C 884.36 1.44532 -0.707067 0
M  V30 9306 O 885.552 1.48153 -0.968493 0
M  V30 9307 C 882.681 2.69516 -2.12641 0
M  V30 9308 C 881.767 2.62633 -3.32993 0
M  V30 9309 N 882.158 2.25371 -4.52815 0
M  V30 9310 C 880.456 2.93688 -3.35654 0
M  V30 9311 C 881.157 2.28567 -5.34913 0
M  V30 9312 N 880.133 2.67181 -4.73408 0
M  V30 9313 H 883.935 1.03758 -2.74976 0
M  V30 9314 H 881.449 0.478087 -1.55203 0
M  V30 9315 H 883.446 3.46424 -2.3194 0
M  V30 9316 H 882.106 3.00197 -1.23742 0
M  V30 9317 H 883.117 1.9729 -4.7885 0
M  V30 9318 H 879.794 3.29057 -2.56958 0
M  V30 9319 H 881.184 2.02289 -6.40725 0
M  V30 9320 N 883.904 1.48273 0.534124 0
M  V30 9321 C 885.15 1.56311 1.29208 0
M  V30 9322 C 885.483 0.234481 1.92779 0
M  V30 9323 O 884.758 -0.759143 1.79073 0
M  V30 9324 C 885.041 2.69831 2.3846 0
M  V30 9325 C 884.894 4.12385 1.79608 0
M  V30 9326 C 886.213 2.79133 3.40254 0
M  V30 9327 H 883.332 0.56899 0.468422 0
M  V30 9328 H 885.974 1.80429 0.595438 0
M  V30 9329 H 884.124 2.49397 2.97881 0
M  V30 9330 H 885.796 4.44246 1.24269 0
M  V30 9331 H 884.039 4.19579 1.10162 0
M  V30 9332 H 884.71 4.87629 2.58693 0
M  V30 9333 H 887.186 2.97632 2.90783 0
M  V30 9334 H 886.062 3.60298 4.14097 0
M  V30 9335 H 886.323 1.87122 4.00547 0
M  V30 9336 N 885.382 -0.782676 1.36792 0
M  V30 9337 C 886.345 -1.8772 1.31507 0
M  V30 9338 C 887.345 -1.59269 0.221349 0
M  V30 9339 O 888.535 -1.67555 0.476544 0
M  V30 9340 C 885.667 -3.24641 1.04025 0
M  V30 9341 H 886.86 -1.9382 2.28853 0
M  V30 9342 H 884.413 -0.981226 1.21662 0
M  V30 9343 H 885.148 -3.24221 0.0716439 0
M  V30 9344 H 884.933 -3.46681 1.8318 0
M  V30 9345 H 886.423 -4.04711 1.02949 0
M  V30 9346 N 886.86 -1.21182 -1.00761 0
M  V30 9347 C 887.77 -0.984691 -2.12934 0
M  V30 9348 C 888.786 0.0623657 -1.73888 0
M  V30 9349 O 889.962 -0.1271 -2.00999 0
M  V30 9350 C 887.027 -0.549447 -3.42319 0
M  V30 9351 C 886.088 -1.66841 -3.95553 0
M  V30 9352 C 885.321 -1.25384 -5.18763 0
M  V30 9353 O 885.544 -0.126333 -5.7026 0
M  V30 9354 O 884.478 -2.06475 -5.65377 0
M  V30 9355 H 888.304 -1.92413 -2.3497 0
M  V30 9356 H 885.889 -0.99647 -1.11314 0
M  V30 9357 H 887.771 -0.316384 -4.20211 0
M  V30 9358 H 886.446 0.361304 -3.21677 0
M  V30 9359 H 885.353 -1.95585 -3.189 0
M  V30 9360 H 886.686 -2.55649 -4.206 0
M  V30 9361 N 888.338 1.20213 -1.01915 0
M  V30 9362 C 889.615 1.85348 -0.62495 0
M  V30 9363 C 889.995 1.91101 0.896854 0
M  V30 9364 O 889.343 1.42075 1.78961 0
M  V30 9365 C 889.553 3.24849 -1.27571 0
M  V30 9366 C 890.901 4.01107 -1.39277 0
M  V30 9367 O 891.925 3.34211 -1.23212 0
M  V30 9368 O 890.784 5.20914 -1.6526 0
M  V30 9369 H 887.878 0.798303 -0.215965 0
M  V30 9370 H 890.424 1.27782 -1.11669 0
M  V30 9371 H 889.196 3.1544 -2.31545 0
M  V30 9372 H 888.819 3.90049 -0.77122 0
M  V30 9373 N 889.816 0.795718 1.36037 0
M  V30 9374 C 890.746 0.212803 2.32528 0
M  V30 9375 C 891.727 -0.655716 1.56953 0
M  V30 9376 O 892.912 -0.588238 1.85077 0
M  V30 9377 C 890.042 -0.648189 3.41198 0
M  V30 9378 C 888.996 0.120948 4.27829 0
M  V30 9379 C 888.322 -0.861044 5.27722 0
M  V30 9380 C 889.622 1.31375 5.05508 0
M  V30 9381 H 891.316 1.01893 2.81528 0
M  V30 9382 H 888.862 0.491422 1.35355 0
M  V30 9383 H 890.815 -1.06597 4.07695 0
M  V30 9384 H 889.539 -1.48709 2.9078 0
M  V30 9385 H 888.198 0.519777 3.62897 0
M  V30 9386 H 887.846 -1.69515 4.73575 0
M  V30 9387 H 887.546 -0.350808 5.86552 0
M  V30 9388 H 889.07 -1.27726 5.97092 0
M  V30 9389 H 890.484 0.971406 5.6501 0
M  V30 9390 H 888.881 1.75772 5.73781 0
M  V30 9391 H 889.951 2.10593 4.36782 0
M  V30 9392 N 891.294 -1.47756 0.548274 0
M  V30 9393 C 892.542 -2.02089 0.0208542 0
M  V30 9394 C 892.863 -1.42589 -1.33017 0
M  V30 9395 O 892.133 -0.597825 -1.86555 0
M  V30 9396 H 890.713 -0.746985 0.00472023 0
M  V30 9397 H 893.375 -1.81262 0.716257 0
M  V30 9398 H 892.471 -3.12012 -0.0739016 0
M  V30 9399 N 892.772 -0.284283 -1.55015 0
M  V30 9400 C 893.719 0.599194 -2.22886 0
M  V30 9401 C 894.689 1.14264 -1.20553 0
M  V30 9402 O 895.874 1.19025 -1.49123 0
M  V30 9403 C 893.014 1.77317 -2.96062 0
M  V30 9404 C 892.127 1.26271 -4.13134 0
M  V30 9405 C 891.262 2.39922 -4.73931 0
M  V30 9406 C 890.301 1.85925 -5.8318 0
M  V30 9407 N 889.438 2.93084 -6.38002 0
M  V30 9408 H 894.278 0.0137816 -2.97997 0
M  V30 9409 H 891.815 -0.00496503 -1.47099 0
M  V30 9410 H 893.773 2.46339 -3.36709 0
M  V30 9411 H 892.403 2.33047 -2.23358 0
M  V30 9412 H 891.455 0.465296 -3.77544 0
M  V30 9413 H 892.767 0.827284 -4.91892 0
M  V30 9414 H 891.921 3.1692 -5.17346 0
M  V30 9415 H 890.66 2.86784 -3.9447 0
M  V30 9416 H 889.665 1.07409 -5.39206 0
M  V30 9417 H 890.89 1.39987 -6.64515 0
M  V30 9418 H 888.836 3.3931 -5.61431 0
M  V30 9419 H 888.753 2.53986 -7.12058 0
M  V30 9420 H 890.021 3.7003 -6.86075 0
M  V30 9421 N 894.251 1.57596 -0.0117121 0
M  V30 9422 C 895.497 1.91355 0.671661 0
M  V30 9423 C 895.83 0.886818 1.72769 0
M  V30 9424 O 895.105 -0.0928813 1.94278 0
M  V30 9425 C 895.388 3.35657 1.30409 0
M  V30 9426 C 895.241 4.49055 0.2588 0
M  V30 9427 C 896.56 3.79595 2.22701 0
M  V30 9428 H 893.679 0.695893 0.242698 0
M  V30 9429 H 896.321 1.89887 -0.0654071 0
M  V30 9430 H 894.471 3.37038 1.9323 0
M  V30 9431 H 896.143 4.59809 -0.370631 0
M  V30 9432 H 894.386 4.31785 -0.417672 0
M  V30 9433 H 895.057 5.4701 0.740578 0
M  V30 9434 H 897.533 3.7984 1.69885 0
M  V30 9435 H 896.409 4.81292 2.63912 0
M  V30 9436 H 896.67 3.14118 3.11098 0
M  V30 9437 N 895.729 -0.261212 1.5542 0
M  V30 9438 C 896.976 -0.99123 1.76581 0
M  V30 9439 C 897.304 -1.85854 0.573457 0
M  V30 9440 O 896.559 -1.90604 -0.443705 0
M  V30 9441 C 896.858 -1.89395 3.03091 0
M  V30 9442 C 896.524 -1.18318 4.351 0
M  V30 9443 C 895.186 -0.986688 4.70975 0
M  V30 9444 C 897.538 -0.678299 5.16767 0
M  V30 9445 C 894.866 -0.272788 5.86065 0
M  V30 9446 C 897.218 0.0220646 6.32596 0
M  V30 9447 C 895.882 0.230161 6.67103 0
M  V30 9448 H 895.152 -0.362717 0.646156 0
M  V30 9449 H 897.799 -0.262506 1.89692 0
M  V30 9450 H 896.104 -2.68927 2.8493 0
M  V30 9451 H 897.801 -2.46022 3.16661 0
M  V30 9452 H 894.391 -1.34625 4.06908 0
M  V30 9453 H 898.575 -0.817691 4.89518 0
M  V30 9454 H 893.831 -0.10095 6.11317 0
M  V30 9455 H 898.005 0.420981 6.95126 0
M  V30 9456 H 895.632 0.785312 7.56133 0
M  V30 9457 N 897.207 -1.48554 -0.526253 0
M  V30 9458 C 898.455 -1.56452 -1.27935 0
M  V30 9459 C 898.776 -0.24184 -1.93495 0
M  V30 9460 O 898.046 0.736917 -1.81511 0
M  V30 9461 H 896.626 -0.576379 -0.47518 0
M  V30 9462 H 899.288 -1.85039 -0.612083 0
M  V30 9463 H 898.384 -2.34751 -2.05666 0
M  V30 9464 N 898.685 0.775411 -1.37205 0
M  V30 9465 C 899.595 1.91967 -1.34855 0
M  V30 9466 C 900.611 1.72214 -0.248656 0
M  V30 9467 O 901.787 1.95512 -0.483421 0
M  V30 9468 C 898.852 3.27038 -1.15096 0
M  V30 9469 C 897.913 3.5947 -2.34691 0
M  V30 9470 C 897.146 4.88097 -2.15865 0
M  V30 9471 O 897.369 5.58871 -1.14102 0
M  V30 9472 O 896.303 5.19507 -3.03967 0
M  V30 9473 H 900.129 1.969 -2.31223 0
M  V30 9474 H 897.714 0.917647 -1.17897 0
M  V30 9475 H 899.596 4.07837 -1.0605 0
M  V30 9476 H 898.271 3.22965 -0.217999 0
M  V30 9477 H 897.178 2.7892 -2.49308 0
M  V30 9478 H 898.511 3.68282 -3.26541 0
M  V30 9479 N 900.163 1.21714 1.00117 0
M  V30 9480 C 901.579 0.97532 1.26332 0
M  V30 9481 C 901.779 -0.336029 1.98678 0
M  V30 9482 O 900.835 -1.06073 2.29139 0
M  V30 9483 C 902.148 2.16848 2.0832 0
M  V30 9484 C 903.696 2.21115 2.21533 0
M  V30 9485 C 904.171 3.3996 3.06906 0
M  V30 9486 N 905.662 3.40071 3.14494 0
M  V30 9487 C 906.397 4.28678 3.80818 0
M  V30 9488 N 905.893 5.2749 4.49139 0
M  V30 9489 N 907.686 4.16476 3.77497 0
M  V30 9490 H 899.837 2.06039 0.515897 0
M  V30 9491 H 902.1 0.902423 0.290408 0
M  V30 9492 H 901.806 3.119 1.62515 0
M  V30 9493 H 901.68 2.16226 3.09073 0
M  V30 9494 H 904.067 1.26616 2.66557 0
M  V30 9495 H 904.148 2.2578 1.20238 0
M  V30 9496 H 903.792 4.34755 2.62585 0
M  V30 9497 H 903.722 3.32534 4.08324 0
M  V30 9498 H 906.213 2.68563 2.65861 0
M  V30 9499 H 906.526 5.91397 4.97463 0
M  V30 9500 H 904.871 5.31412 4.47914 0
M  V30 9501 H 908.062 3.38539 3.23278 0
M  V30 9502 H 908.235 4.85739 4.28908 0
M  V30 9503 N 901.641 -1.19671 1.02551 0
M  V30 9504 C 902.888 -1.89268 0.720002 0
M  V30 9505 C 903.216 -1.79411 -0.751127 0
M  V30 9506 O 902.471 -1.17859 -1.5623 0
M  V30 9507 C 902.77 -3.39647 1.11241 0
M  V30 9508 C 902.436 -3.69706 2.58125 0
M  V30 9509 C 901.098 -3.7762 2.98256 0
M  V30 9510 C 903.45 -3.83301 3.53171 0
M  V30 9511 C 900.778 -3.96594 4.32354 0
M  V30 9512 C 903.13 -4.03788 4.86968 0
M  V30 9513 C 901.794 -4.09934 5.26793 0
M  V30 9514 H 901.064 -0.692579 0.263467 0
M  V30 9515 H 903.711 -1.41738 1.28774 0
M  V30 9516 H 902.016 -3.89052 0.463234 0
M  V30 9517 H 903.713 -3.91809 0.853602 0
M  V30 9518 H 900.303 -3.64152 2.26033 0
M  V30 9519 H 904.487 -3.76534 3.2332 0
M  V30 9520 H 899.743 -3.9959 4.6275 0
M  V30 9521 H 903.917 -4.1325 5.60533 0
M  V30 9522 H 901.544 -4.24389 6.30712 0
M  V30 9523 N 903.119 -0.802921 -1.35613 0
M  V30 9524 C 904.367 -0.380822 -1.9848 0
M  V30 9525 C 904.688 1.05464 -1.6402 0
M  V30 9526 O 903.958 1.72908 -0.920854 0
M  V30 9527 H 902.538 -0.137824 -0.734176 0
M  V30 9528 H 905.2 -1.02795 -1.65587 0
M  V30 9529 H 904.296 -0.483565 -3.08331 0
M  V30 9530 N 904.597 1.47463 -0.556102 0
M  V30 9531 C 905.845 2.02075 -0.0315712 0
M  V30 9532 C 906.166 1.43292 1.32259 0
M  V30 9533 O 905.436 0.60771 1.86236 0
M  V30 9534 H 904.016 0.74695 -0.0086816 0
M  V30 9535 H 906.678 1.80879 -0.725859 0
M  V30 9536 H 905.774 3.12047 0.0573538 0
M  V30 9537 N 906.075 0.2925 1.54862 0
M  V30 9538 C 907.323 -0.318633 1.99572 0
M  V30 9539 C 907.644 -1.55062 1.1824 0
M  V30 9540 O 906.914 -1.93943 0.276226 0
M  V30 9541 H 905.494 -0.120722 0.737181 0
M  V30 9542 H 908.156 0.401862 1.90712 0
M  V30 9543 H 907.252 -0.596542 3.06346 0
M  V30 9544 N 907.553 -1.57587 0.0200696 0
M  V30 9545 C 908.501 -2.10814 -0.982868 0
M  V30 9546 C 909.495 -1.03263 -1.34287 0
M  V30 9547 O 910.701 -1.21708 -1.32617 0
M  V30 9548 H 907.076 -0.673409 -0.334701 0
M  V30 9549 H 909.047 -2.94034 -0.50856 0
M  V30 9550 C 907.796 -2.64301 -2.25921 0
M  V30 9551 H 907.119 -3.46703 -1.99091 0
M  V30 9552 H 908.559 -3.052 -2.94328 0
M  V30 9553 C 907.018 -1.56628 -2.98277 0
M  V30 9554 O 907.548 -0.960825 -3.9004 0
M  V30 9555 N 905.754 -1.28889 -2.60453 0
M  V30 9556 H 905.301 -1.7831 -1.85912 0
M  V30 9557 H 905.259 -0.570697 -3.09177 0
M  V30 9558 N 909.032 0.252966 -1.55557 0
M  V30 9559 C 910.443 0.822503 -1.67606 0
M  V30 9560 C 910.794 1.86265 -0.616411 0
M  V30 9561 O 909.919 2.15082 0.238447 0
M  V30 9562 C 910.514 1.49866 -3.03852 0
M  V30 9563 C 909.073 2.01597 -3.17861 0
M  V30 9564 C 908.22 0.864943 -2.63465 0
M  V30 9565 H 911.171 0.0288958 -1.58674 0
M  V30 9566 H 911.192 2.36646 -2.97958 0
M  V30 9567 H 910.704 0.741378 -3.80953 0
M  V30 9568 H 908.805 2.80224 -2.45571 0
M  V30 9569 H 908.918 2.21752 -4.24692 0
M  V30 9570 H 907.282 1.2638 -2.21134 0
M  V30 9571 H 908.065 0.120847 -3.43087 0
M  V30 9572 N 910.51 1.48831 0.518367 0
M  V30 9573 C 911.42 1.6692 1.64848 0
M  V30 9574 C 912.436 0.551711 1.65022 0
M  V30 9575 O 913.612 0.824251 1.83761 0
M  V30 9576 C 910.677 1.71559 3.01278 0
M  V30 9577 C 909.738 2.9502 3.11868 0
M  V30 9578 C 908.971 2.99428 4.4179 0
M  V30 9579 O 909.194 2.11914 5.29574 0
M  V30 9580 O 908.128 3.91719 4.5699 0
M  V30 9581 H 911.954 2.62623 1.52521 0
M  V30 9582 H 909.539 1.32368 0.692749 0
M  V30 9583 H 911.421 1.77064 3.82396 0
M  V30 9584 H 910.096 0.790316 3.13904 0
M  V30 9585 H 909.003 2.95042 2.30003 0
M  V30 9586 H 910.336 3.8697 3.04163 0
M  V30 9587 N 911.988 -0.768124 1.37614 0
M  V30 9588 C 912.918 -1.89537 1.36374 0
M  V30 9589 C 913.899 -1.68513 0.231803 0
M  V30 9590 O 915.084 -1.89318 0.432705 0
M  V30 9591 C 912.214 -3.26871 1.17358 0
M  V30 9592 C 911.168 -3.62466 2.27602 0
M  V30 9593 C 910.494 -4.9838 1.93705 0
M  V30 9594 C 911.794 -3.68841 3.69802 0
M  V30 9595 H 913.488 -1.90832 2.30702 0
M  V30 9596 H 911.034 -0.91672 1.11051 0
M  V30 9597 H 912.987 -4.05371 1.15119 0
M  V30 9598 H 911.711 -3.26018 0.194865 0
M  V30 9599 H 910.37 -2.86276 2.29002 0
M  V30 9600 H 910.018 -4.94071 0.943539 0
M  V30 9601 H 909.718 -5.23165 2.6753 0
M  V30 9602 H 911.242 -5.79276 1.93059 0
M  V30 9603 H 912.656 -4.37485 3.70513 0
M  V30 9604 H 911.053 -4.05126 4.42711 0
M  V30 9605 H 912.123 -2.69415 4.03167 0
M  V30 9606 N 913.466 -1.22244 -0.994698 0
M  V30 9607 C 914.396 -1.01513 -2.10279 0
M  V30 9608 C 915.377 0.0633365 -1.69982 0
M  V30 9609 O 916.562 -0.0985268 -1.9395 0
M  V30 9610 C 913.692 -0.59016 -3.42249 0
M  V30 9611 C 912.646 -1.61436 -3.96387 0
M  V30 9612 C 911.972 -1.04528 -5.24383 0
M  V30 9613 C 913.272 -3.00388 -4.27276 0
M  V30 9614 H 914.966 -1.94194 -2.2788 0
M  V30 9615 H 912.512 -0.935094 -1.09508 0
M  V30 9616 H 914.465 -0.432254 -4.19177 0
M  V30 9617 H 913.189 0.372308 -3.24471 0
M  V30 9618 H 911.848 -1.76001 -3.21589 0
M  V30 9619 H 911.496 -0.0742225 -5.02945 0
M  V30 9620 H 911.196 -1.72949 -5.61571 0
M  V30 9621 H 912.72 -0.898922 -6.03947 0
M  V30 9622 H 914.134 -2.89207 -4.95007 0
M  V30 9623 H 912.531 -3.65916 -4.75631 0
M  V30 9624 H 913.601 -3.50456 -3.35125 0
M  V30 9625 N 914.944 1.19125 -1.03184 0
M  V30 9626 C 916.172 1.92838 -0.74975 0
M  V30 9627 C 916.587 1.75667 0.691851 0
M  V30 9628 O 915.944 1.0805 1.47076 0
M  V30 9629 C 915.995 3.44509 -1.09525 0
M  V30 9630 O 915.716 3.6113 -2.48025 0
M  V30 9631 C 917.217 4.35338 -0.836397 0
M  V30 9632 H 914.437 0.61246 -0.274105 0
M  V30 9633 H 916.981 1.5118 -1.37712 0
M  V30 9634 H 915.136 3.83988 -0.513006 0
M  V30 9635 H 915.55 4.54959 -2.60984 0
M  V30 9636 H 917.024 5.4035 -1.12808 0
M  V30 9637 H 917.501 4.38602 0.229102 0
M  V30 9638 H 918.107 4.01544 -1.40152 0
M  V30 9639 N 916.422 0.810101 1.35185 0
M  V30 9640 C 917.354 0.180581 2.28488 0
M  V30 9641 C 918.367 -0.622154 1.50443 0
M  V30 9642 O 919.556 -0.453938 1.72632 0
M  V30 9643 C 916.656 -0.766447 3.30119 0
M  V30 9644 C 915.829 -0.00932028 4.37399 0
M  V30 9645 C 914.888 -0.875354 5.18868 0
M  V30 9646 O 913.914 -0.325012 5.68271 0
M  V30 9647 N 915.116 -2.19695 5.37321 0
M  V30 9648 H 917.881 0.98212 2.83151 0
M  V30 9649 H 915.442 0.665879 1.47573 0
M  V30 9650 H 917.434 -1.35012 3.81515 0
M  V30 9651 H 916.004 -1.46878 2.75945 0
M  V30 9652 H 915.224 0.755585 3.86891 0
M  V30 9653 H 916.512 0.512352 5.06214 0
M  V30 9654 H 915.91 -2.66797 4.98834 0
M  V30 9655 H 914.467 -2.72978 5.91884 0
M  V30 9656 N 917.9 -1.47166 0.563914 0
M  V30 9657 C 918.833 -2.27058 -0.227989 0
M  V30 9658 C 919.811 -1.34468 -0.914179 0
M  V30 9659 O 920.995 -1.63857 -0.931829 0
M  V30 9660 C 918.122 -3.11689 -1.32543 0
M  V30 9661 C 917.168 -4.19906 -0.747084 0
M  V30 9662 S 918.001 -5.33916 0.41153 0
M  V30 9663 C 919.157 -6.22112 -0.687566 0
M  V30 9664 H 919.39 -2.93876 0.449939 0
M  V30 9665 H 916.923 -1.50372 0.350382 0
M  V30 9666 H 918.881 -3.61017 -1.95389 0
M  V30 9667 H 917.542 -2.44221 -1.97522 0
M  V30 9668 H 916.735 -4.78876 -1.57141 0
M  V30 9669 H 916.337 -3.73493 -0.194671 0
M  V30 9670 H 918.629 -6.58867 -1.578 0
M  V30 9671 H 919.572 -7.07971 -0.135058 0
M  V30 9672 H 919.98 -5.55871 -0.983255 0
M  V30 9673 N 919.378 -0.300708 -1.54705 0
M  V30 9674 C 920.624 0.309111 -2.0043 0
M  V30 9675 C 920.957 1.53562 -1.1888 0
M  V30 9676 O 920.232 1.92683 -0.265205 0
M  V30 9677 C 920.515 0.665995 -3.53888 0
M  V30 9678 C 920.368 -0.56963 -4.46178 0
M  V30 9679 C 921.687 1.49262 -4.14016 0
M  V30 9680 H 918.806 0.110878 -0.728612 0
M  V30 9681 H 921.448 -0.412748 -1.85463 0
M  V30 9682 H 919.598 1.281 -3.66773 0
M  V30 9683 H 921.27 -1.20811 -4.45199 0
M  V30 9684 H 919.513 -1.20292 -4.16788 0
M  V30 9685 H 920.184 -0.275785 -5.51311 0
M  V30 9686 H 922.66 0.972979 -4.04564 0
M  V30 9687 H 921.536 1.71111 -5.21548 0
M  V30 9688 H 921.797 2.48174 -3.65872 0
M  V30 9689 N 920.856 1.57574 -0.0284266 0
M  V30 9690 C 922.081 1.96479 0.664137 0
M  V30 9691 C 922.506 0.904826 1.64908 0
M  V30 9692 O 921.864 -0.134339 1.80802 0
M  V30 9693 C 921.912 3.34479 1.34745 0
M  V30 9694 O 921.016 3.30794 2.46271 0
M  V30 9695 H 920.357 0.640654 0.174524 0
M  V30 9696 H 922.887 2.04402 -0.0900729 0
M  V30 9697 H 922.897 3.70694 1.7044 0
M  V30 9698 H 921.572 4.1117 0.625468 0
M  V30 9699 H 920.149 3.06294 2.12693 0
M  V30 9700 N 922.334 -0.244713 1.55689 0
M  V30 9701 C 923.281 -1.30301 1.905 0
M  V30 9702 C 924.251 -1.4772 0.759478 0
M  V30 9703 O 925.436 -1.61667 1.01333 0
M  V30 9704 C 922.576 -2.653 2.20703 0
M  V30 9705 C 921.689 -2.55872 3.48071 0
M  V30 9706 C 920.824 -3.83238 3.67834 0
M  V30 9707 C 919.863 -3.68436 4.88796 0
M  V30 9708 N 919 -4.877 5.05068 0
M  V30 9709 H 923.84 -0.999143 2.80751 0
M  V30 9710 H 921.377 -0.482099 1.38976 0
M  V30 9711 H 923.335 -3.43884 2.36219 0
M  V30 9712 H 921.965 -2.93831 1.33653 0
M  V30 9713 H 921.017 -1.68846 3.40874 0
M  V30 9714 H 922.329 -2.40845 4.36801 0
M  V30 9715 H 921.483 -4.70266 3.83321 0
M  V30 9716 H 920.222 -4.01165 2.77341 0
M  V30 9717 H 919.227 -2.79793 4.73282 0
M  V30 9718 H 920.452 -3.52003 5.8075 0
M  V30 9719 H 918.398 -5.05983 4.17513 0
M  V30 9720 H 918.315 -4.75312 5.8789 0
M  V30 9721 H 919.583 -5.76219 5.24969 0
M  V30 9722 N 923.813 -1.49104 -0.510467 0
M  V30 9723 C 925.061 -1.578 -1.26268 0
M  V30 9724 C 925.382 -0.262349 -1.93227 0
M  V30 9725 O 924.652 0.717624 -1.82283 0
M  V30 9726 H 923.232 -0.581387 -0.46904 0
M  V30 9727 H 925.894 -1.85678 -0.592423 0
M  V30 9728 H 924.99 -2.36919 -2.03165 0
M  V30 9729 N 925.291 0.760815 -1.38019 0
M  V30 9730 C 926.538 1.51973 -1.3383 0
M  V30 9731 C 926.866 1.9436 0.0738855 0
M  V30 9732 O 926.121 1.65181 1.04946 0
M  V30 9733 C 926.42 2.79024 -2.23339 0
M  V30 9734 C 926.086 2.55636 -3.71431 0
M  V30 9735 C 924.748 2.48966 -4.11788 0
M  V30 9736 C 927.1 2.35018 -4.65205 0
M  V30 9737 C 924.428 2.19684 -5.44018 0
M  V30 9738 C 926.78 2.07258 -5.97685 0
M  V30 9739 C 925.444 1.9904 -6.37134 0
M  V30 9740 H 924.714 0.556108 -0.489719 0
M  V30 9741 H 927.361 0.87545 -1.70318 0
M  V30 9742 H 925.666 3.48065 -1.79883 0
M  V30 9743 H 927.363 3.36951 -2.17405 0
M  V30 9744 H 923.953 2.61695 -3.39432 0
M  V30 9745 H 928.137 2.39154 -4.34878 0
M  V30 9746 H 923.393 2.11825 -5.73533 0
M  V30 9747 H 927.567 1.90307 -6.69893 0
M  V30 9748 H 925.194 1.76115 -7.39519 0
M  V30 9749 N 926.769 1.22769 0.988202 0
M  V30 9750 C 927.699 1.02627 2.09738 0
M  V30 9751 C 928.68 -0.0543211 1.70013 0
M  V30 9752 O 929.865 0.108811 1.93895 0
M  V30 9753 C 926.995 0.608302 3.41931 0
M  V30 9754 C 925.949 1.63536 3.95525 0
M  V30 9755 C 925.275 1.07308 5.23822 0
M  V30 9756 C 926.575 3.02649 4.25677 0
M  V30 9757 H 928.269 1.954 2.26847 0
M  V30 9758 H 925.815 0.940888 1.09011 0
M  V30 9759 H 927.768 0.454478 4.18942 0
M  V30 9760 H 926.492 -0.355095 3.24664 0
M  V30 9761 H 925.151 1.77704 3.20651 0
M  V30 9762 H 924.799 0.100894 5.02899 0
M  V30 9763 H 924.499 1.75925 5.60646 0
M  V30 9764 H 926.023 0.930938 6.03462 0
M  V30 9765 H 927.437 2.91828 4.93467 0
M  V30 9766 H 925.834 3.68434 4.73684 0
M  V30 9767 H 926.904 3.52228 3.33262 0
M  V30 9768 N 928.247 -1.18576 1.03814 0
M  V30 9769 C 929.495 -1.88121 0.738574 0
M  V30 9770 C 929.816 -1.80587 -0.735744 0
M  V30 9771 O 929.086 -1.22251 -1.53074 0
M  V30 9772 H 927.666 -0.696417 0.270208 0
M  V30 9773 H 930.328 -1.43912 1.31435 0
M  V30 9774 H 929.424 -2.94222 1.04115 0
M  V30 9775 N 929.725 -0.817259 -1.34754 0
M  V30 9776 C 931.141 -0.502309 -1.51489 0
M  V30 9777 C 931.341 0.974568 -1.76364 0
M  V30 9778 O 930.397 1.75924 -1.81127 0
M  V30 9779 C 931.71 -1.35693 -2.68343 0
M  V30 9780 C 933.258 -1.35347 -2.82224 0
M  V30 9781 C 933.733 -2.19244 -4.02114 0
M  V30 9782 N 935.224 -2.16837 -4.09311 0
M  V30 9783 C 935.959 -2.78505 -5.01221 0
M  V30 9784 N 935.455 -3.4914 -5.98392 0
M  V30 9785 N 937.248 -2.68089 -4.94049 0
M  V30 9786 H 929.399 -1.77359 -1.16866 0
M  V30 9787 H 931.662 -0.755476 -0.572678 0
M  V30 9788 H 931.368 -2.40548 -2.56573 0
M  V30 9789 H 931.242 -1.01764 -3.63213 0
M  V30 9790 H 933.629 -0.312727 -2.93438 0
M  V30 9791 H 933.71 -1.7327 -1.88179 0
M  V30 9792 H 933.354 -3.23365 -3.9166 0
M  V30 9793 H 933.284 -1.78675 -4.95361 0
M  V30 9794 H 935.775 -1.65452 -3.39756 0
M  V30 9795 H 936.088 -3.93455 -6.65141 0
M  V30 9796 H 934.433 -3.53246 -5.98533 0
M  V30 9797 H 937.624 -2.12485 -4.17094 0
M  V30 9798 H 937.797 -3.16436 -5.65484 0
M  V30 9799 N 931.203 1.46865 -0.571711 0
M  V30 9800 C 932.15 2.30189 0.167808 0
M  V30 9801 C 933.12 1.3995 0.89461 0
M  V30 9802 O 934.305 1.68905 0.887451 0
M  V30 9803 C 931.445 3.24205 1.1826 0
M  V30 9804 C 930.558 4.2954 0.460376 0
M  V30 9805 C 929.693 5.10693 1.46173 0
M  V30 9806 C 928.732 6.07788 0.725291 0
M  V30 9807 N 927.869 6.81847 1.67417 0
M  V30 9808 H 932.709 2.92902 -0.548831 0
M  V30 9809 H 930.246 1.44362 -0.282474 0
M  V30 9810 H 932.204 3.77147 1.7837 0
M  V30 9811 H 930.834 2.63324 1.86709 0
M  V30 9812 H 929.886 3.79541 -0.255546 0
M  V30 9813 H 931.198 4.98665 -0.115855 0
M  V30 9814 H 930.352 5.67857 2.13595 0
M  V30 9815 H 929.091 4.41502 2.07188 0
M  V30 9816 H 928.096 5.49787 0.037228 0
M  V30 9817 H 929.321 6.78993 0.120678 0
M  V30 9818 H 927.267 6.15376 2.27263 0
M  V30 9819 H 927.184 7.47195 1.15046 0
M  V30 9820 H 928.452 7.43577 2.33908 0
M  V30 9821 N 932.681 0.308908 1.54543 0
M  V30 9822 C 933.906 -0.303196 2.05172 0
M  V30 9823 C 934.331 -1.46133 1.18434 0
M  V30 9824 O 933.689 -1.803 0.190162 0
M  V30 9825 C 933.737 -0.729526 3.53143 0
M  V30 9826 O 932.841 -1.83348 3.69401 0
M  V30 9827 H 932.182 -0.0575066 0.661505 0
M  V30 9828 H 934.712 0.453055 1.99521 0
M  V30 9829 H 934.722 -1.01619 3.95143 0
M  V30 9830 H 933.397 0.117622 4.15734 0
M  V30 9831 H 931.974 -1.54676 3.39308 0
M  V30 9832 N 934.159 -1.57557 0.0367827 0
M  V30 9833 C 935.407 -1.91735 -0.63892 0
M  V30 9834 C 935.728 -0.914515 -1.72226 0
M  V30 9835 O 934.998 0.0428248 -1.95853 0
M  V30 9836 H 933.578 -0.707738 -0.23899 0
M  V30 9837 H 936.24 -1.94708 0.0863931 0
M  V30 9838 H 935.336 -2.92568 -1.08676 0
M  V30 9839 N 935.637 0.236453 -1.55816 0
M  V30 9840 C 936.584 1.29289 -1.91188 0
M  V30 9841 C 937.554 1.47315 -0.767301 0
M  V30 9842 O 938.739 1.61128 -1.02189 0
M  V30 9843 C 935.879 2.64126 -2.22107 0
M  V30 9844 C 934.992 2.54022 -3.49423 0
M  V30 9845 C 934.127 3.81282 -3.69861 0
M  V30 9846 C 933.166 3.65839 -4.90743 0
M  V30 9847 N 932.303 4.85014 -5.07647 0
M  V30 9848 H 937.143 0.98424 -2.81277 0
M  V30 9849 H 934.68 0.474722 -1.39229 0
M  V30 9850 H 936.638 3.42626 -2.3804 0
M  V30 9851 H 935.268 2.93118 -1.35209 0
M  V30 9852 H 934.32 1.67036 -3.41765 0
M  V30 9853 H 935.632 2.38525 -4.38072 0
M  V30 9854 H 934.786 4.68226 -3.8581 0
M  V30 9855 H 933.525 3.99688 -2.79465 0
M  V30 9856 H 932.53 2.77279 -4.74759 0
M  V30 9857 H 933.755 3.48918 -5.82609 0
M  V30 9858 H 931.701 5.03762 -4.20191 0
M  V30 9859 H 931.618 4.72188 -5.90402 0
M  V30 9860 H 932.886 5.73427 -5.28017 0
M  V30 9861 N 937.115 1.49373 0.502552 0
M  V30 9862 C 938.363 1.58467 1.25429 0
M  V30 9863 C 938.684 0.272593 1.93085 0
M  V30 9864 O 937.954 -0.707947 1.82661 0
M  V30 9865 H 936.534 0.583866 0.46595 0
M  V30 9866 H 939.196 1.8599 0.582568 0
M  V30 9867 H 938.292 2.37993 2.01906 0
M  V30 9868 N 938.594 -0.753485 1.38421 0
M  V30 9869 C 939.841 -1.51261 1.34634 0
M  V30 9870 C 940.169 -1.94396 -0.0635771 0
M  V30 9871 O 939.424 -1.65736 -1.04068 0
M  V30 9872 C 939.723 -2.77836 2.24816 0
M  V30 9873 C 939.389 -2.53662 3.72782 0
M  V30 9874 C 938.051 -2.46779 4.13103 0
M  V30 9875 C 940.403 -2.32548 4.66445 0
M  V30 9876 C 937.731 -2.16796 5.45176 0
M  V30 9877 C 940.083 -2.04085 5.98775 0
M  V30 9878 C 938.747 -1.95658 6.3818 0
M  V30 9879 H 938.017 -0.553503 0.492661 0
M  V30 9880 H 940.664 -0.866406 1.7078 0
M  V30 9881 H 938.969 -3.47106 1.81726 0
M  V30 9882 H 940.666 -3.35793 2.19189 0
M  V30 9883 H 937.256 -2.59891 3.40815 0
M  V30 9884 H 941.44 -2.36845 4.3614 0
M  V30 9885 H 936.696 -2.0878 5.74648 0
M  V30 9886 H 940.87 -1.86751 6.70893 0
M  V30 9887 H 938.497 -1.7219 7.40442 0
M  V30 9888 N 940.072 -1.23292 -0.981677 0
M  V30 9889 C 941.302 -1.0893 -1.7555 0
M  V30 9890 C 941.71 0.362219 -1.857 0
M  V30 9891 O 941.053 1.2624 -1.33451 0
M  V30 9892 C 941.115 -1.6389 -3.19969 0
M  V30 9893 C 940.779 -3.12632 -3.33332 0
M  V30 9894 C 941.776 -4.0994 -3.19758 0
M  V30 9895 C 939.461 -3.52314 -3.58022 0
M  V30 9896 C 941.455 -5.44915 -3.30676 0
M  V30 9897 C 939.142 -4.87434 -3.6858 0
M  V30 9898 C 940.14 -5.83544 -3.54916 0
M  V30 9899 O 939.828 -7.16209 -3.65102 0
M  V30 9900 H 939.56 -0.381901 -0.557788 0
M  V30 9901 H 942.114 -1.63586 -1.24213 0
M  V30 9902 H 940.344 -1.03653 -3.72549 0
M  V30 9903 H 942.033 -1.45023 -3.79108 0
M  V30 9904 H 942.799 -3.80625 -3.00582 0
M  V30 9905 H 938.678 -2.78022 -3.67729 0
M  V30 9906 H 942.222 -6.19913 -3.19928 0
M  V30 9907 H 938.119 -5.16426 -3.87265 0
M  V30 9908 H 938.887 -7.23941 -3.81905 0
M  V30 9909 N 941.55 1.18024 -1.04442 0
M  V30 9910 C 942.799 1.8743 -0.745185 0
M  V30 9911 C 943.112 1.81459 0.730206 0
M  V30 9912 O 944.318 2.46263 1.1431 0
M  V30 9913 C 942.774 3.36266 -1.28271 0
M  V30 9914 C 942.382 3.50757 -2.787 0
M  V30 9915 C 944.126 4.11048 -1.06018 0
M  V30 9916 C 942.033 4.93573 -3.25791 0
M  V30 9917 H 940.963 0.702038 -0.27506 0
M  V30 9918 H 943.614 1.33333 -1.26073 0
M  V30 9919 H 941.996 3.89853 -0.695002 0
M  V30 9920 H 943.17 3.07423 -3.43261 0
M  V30 9921 H 941.485 2.89385 -2.99408 0
M  V30 9922 H 944.082 5.16395 -1.38711 0
M  V30 9923 H 944.425 4.163 0.00241716 0
M  V30 9924 H 944.958 3.63644 -1.61269 0
M  V30 9925 H 941.697 4.93491 -4.31447 0
M  V30 9926 H 941.217 5.37607 -2.65968 0
M  V30 9927 H 942.896 5.62307 -3.20031 0
M  V30 9928 N 943.028 0.824394 1.34319 0
M  V30 9929 C 944.258 0.425576 2.02169 0
M  V30 9930 C 944.666 -0.973596 1.62227 0
M  V30 9931 O 944.009 -1.64173 0.824199 0
M  V30 9932 C 944.071 0.449902 3.56674 0
M  V30 9933 C 943.735 1.80266 4.19944 0
M  V30 9934 C 944.732 2.76373 4.40357 0
M  V30 9935 C 942.417 2.09155 4.56683 0
M  V30 9936 C 944.411 3.9954 4.96635 0
M  V30 9937 C 942.098 3.32581 5.12672 0
M  V30 9938 C 943.096 4.27591 5.32592 0
M  V30 9939 O 942.784 5.48837 5.87395 0
M  V30 9940 H 942.516 0.168866 0.654569 0
M  V30 9941 H 945.07 1.11441 1.7254 0
M  V30 9942 H 943.3 -0.295631 3.85568 0
M  V30 9943 H 944.989 0.0709302 4.05838 0
M  V30 9944 H 945.755 2.55351 4.12336 0
M  V30 9945 H 941.634 1.36004 4.40481 0
M  V30 9946 H 945.178 4.73709 5.12099 0
M  V30 9947 H 941.075 3.53466 5.40122 0
M  V30 9948 H 941.843 5.50377 6.05828 0
M  V30 9949 N 944.506 -1.46559 0.579492 0
M  V30 9950 C 945.438 -2.28383 -0.19337 0
M  V30 9951 C 946.451 -1.38324 -0.858511 0
M  V30 9952 O 947.64 -1.62952 -0.728615 0
M  V30 9953 C 944.74 -3.13262 -1.29306 0
M  V30 9954 C 943.913 -4.31426 -0.720459 0
M  V30 9955 C 942.972 -4.97728 -1.70744 0
M  V30 9956 O 941.998 -5.55423 -1.24476 0
M  V30 9957 N 943.2 -4.94445 -3.04146 0
M  V30 9958 H 945.965 -2.95353 0.508611 0
M  V30 9959 H 943.526 -1.56436 0.417046 0
M  V30 9960 H 945.518 -3.54483 -1.95254 0
M  V30 9961 H 944.088 -2.48388 -1.89795 0
M  V30 9962 H 943.308 -3.94028 0.116398 0
M  V30 9963 H 944.596 -5.07808 -0.31763 0
M  V30 9964 H 943.994 -4.4881 -3.44363 0
M  V30 9965 H 942.551 -5.39616 -3.65592 0
M  V30 9966 N 945.984 -0.3171 -1.54377 0
M  V30 9967 C 946.894 0.560867 -2.27797 0
M  V30 9968 C 947.91 1.13473 -1.31908 0
M  V30 9969 O 949.086 1.15608 -1.64914 0
M  V30 9970 C 946.151 1.70886 -3.0166 0
M  V30 9971 C 945.212 1.16745 -4.13121 0
M  V30 9972 C 944.445 2.26073 -4.83453 0
M  V30 9973 O 944.668 3.46292 -4.53252 0
M  V30 9974 O 943.602 1.91856 -5.70504 0
M  V30 9975 H 947.428 -0.035193 -3.0368 0
M  V30 9976 H 945.013 -0.0830062 -1.49169 0
M  V30 9977 H 946.895 2.37736 -3.47936 0
M  V30 9978 H 945.57 2.29122 -2.28658 0
M  V30 9979 H 944.477 0.464224 -3.71209 0
M  V30 9980 H 945.81 0.630307 -4.88147 0
M  V30 9981 N 947.462 1.57535 -0.0451378 0
M  V30 9982 C 948.71 1.92071 0.628743 0
M  V30 9983 C 949.031 0.923635 1.71738 0
M  V30 9984 O 948.301 -0.0324376 1.95873 0
M  V30 9985 H 946.881 0.708995 0.235233 0
M  V30 9986 H 949.543 1.9466 -0.0967177 0
M  V30 9987 H 948.639 2.9314 1.07123 0
M  V30 9988 N 948.94 -0.228186 1.55939 0
M  V30 9989 C 950.186 -0.954964 1.78909 0
M  V30 9990 C 950.519 -1.8425 0.613648 0
M  V30 9991 O 949.794 -1.90604 -0.38737 0
M  V30 9992 C 950.077 -1.79957 3.1191 0
M  V30 9993 C 949.93 -0.938968 4.3989 0
M  V30 9994 C 951.249 -2.77859 3.41295 0
M  V30 9995 H 948.368 -0.345745 0.650868 0
M  V30 9996 H 951.01 -0.224244 1.88672 0
M  V30 9997 H 949.16 -2.42256 3.03717 0
M  V30 9998 H 950.832 -0.333225 4.60095 0
M  V30 9999 H 949.075 -0.244096 4.33113 0
M  V30 10000 H 949.746 -1.56416 5.29375 0
M  V30 10001 H 952.222 -2.25695 3.49572 0
M  V30 10002 H 951.098 -3.34062 4.35538 0
M  V30 10003 H 951.359 -3.55266 2.63132 0
M  V30 10004 N 950.418 -1.49637 -0.494624 0
M  V30 10005 C 951.365 -1.66776 -1.59545 0
M  V30 10006 C 952.335 -0.509159 -1.58104 0
M  V30 10007 O 953.52 -0.736949 -1.75993 0
M  V30 10008 C 950.66 -1.74624 -2.97658 0
M  V30 10009 C 949.773 -3.01831 -3.09067 0
M  V30 10010 C 948.908 -3.00619 -4.37952 0
M  V30 10011 C 947.947 -4.22378 -4.43016 0
M  V30 10012 N 947.084 -4.1904 -5.63339 0
M  V30 10013 H 951.924 -2.60767 -1.44238 0
M  V30 10014 H 949.461 -1.29286 -0.701673 0
M  V30 10015 H 951.419 -1.77156 -3.77719 0
M  V30 10016 H 950.049 -0.840936 -3.11654 0
M  V30 10017 H 949.101 -3.08881 -2.22029 0
M  V30 10018 H 950.413 -3.91823 -3.08669 0
M  V30 10019 H 949.567 -3.01749 -5.26339 0
M  V30 10020 H 948.306 -2.08416 -4.40924 0
M  V30 10021 H 947.311 -4.21485 -3.5303 0
M  V30 10022 H 948.536 -5.15781 -4.41755 0
M  V30 10023 H 946.482 -3.29677 -5.67141 0
M  V30 10024 H 946.399 -5.02774 -5.64583 0
M  V30 10025 H 947.667 -4.24281 -6.53916 0
M  V30 10026 N 951.896 0.746133 -1.38819 0
M  V30 10027 C 953.312 1.0502 -1.20179 0
M  V30 10028 C 953.512 2.01423 -0.0556271 0
M  V30 10029 O 952.568 2.45359 0.59625 0
M  V30 10030 C 953.881 1.62315 -2.53129 0
M  V30 10031 C 955.429 1.74449 -2.59878 0
M  V30 10032 C 955.904 2.35155 -3.93022 0
M  V30 10033 N 957.395 2.42577 -3.94602 0
M  V30 10034 C 958.13 2.9046 -4.94389 0
M  V30 10035 N 957.626 3.38322 -6.04574 0
M  V30 10036 N 959.419 2.89568 -4.81775 0
M  V30 10037 H 951.57 0.106551 -2.12133 0
M  V30 10038 H 953.833 0.109897 -0.941609 0
M  V30 10039 H 953.539 0.98946 -3.37495 0
M  V30 10040 H 953.413 2.61276 -2.72057 0
M  V30 10041 H 955.8 2.36943 -1.75903 0
M  V30 10042 H 955.881 0.741721 -2.4481 0
M  V30 10043 H 955.525 1.73292 -4.77422 0
M  V30 10044 H 955.455 3.36088 -4.05404 0
M  V30 10045 H 957.946 2.08735 -3.15021 0
M  V30 10046 H 958.259 3.73336 -6.76639 0
M  V30 10047 H 956.604 3.3636 -6.08184 0
M  V30 10048 H 959.795 2.51492 -3.94803 0
M  V30 10049 H 959.968 3.26571 -5.59692 0
M  V30 10050 N 953.375 1.23811 0.975125 0
M  V30 10051 C 954.322 1.02394 2.06843 0
M  V30 10052 C 955.292 -0.060337 1.6599 0
M  V30 10053 O 956.477 0.0928187 1.90574 0
M  V30 10054 C 953.617 0.626882 3.39359 0
M  V30 10055 C 952.73 1.78385 3.9345 0
M  V30 10056 C 951.865 1.33307 5.14201 0
M  V30 10057 C 950.904 2.46045 5.60471 0
M  V30 10058 N 950.041 2.01888 6.72448 0
M  V30 10059 H 954.881 1.95973 2.24496 0
M  V30 10060 H 952.418 0.976206 1.10039 0
M  V30 10061 H 954.376 0.377742 4.15486 0
M  V30 10062 H 953.006 -0.271907 3.21653 0
M  V30 10063 H 952.058 2.14685 3.14029 0
M  V30 10064 H 953.37 2.63122 4.23755 0
M  V30 10065 H 952.524 1.04237 5.97678 0
M  V30 10066 H 951.263 0.456143 4.85562 0
M  V30 10067 H 950.268 2.75884 4.75571 0
M  V30 10068 H 951.493 3.34283 5.91127 0
M  V30 10069 H 949.439 1.16583 6.45558 0
M  V30 10070 H 949.356 2.80182 7.02164 0
M  V30 10071 H 950.624 1.75937 7.59386 0
M  V30 10072 N 954.853 -1.17469 1.05066 0
M  V30 10073 C 956.13 -1.83625 0.673872 0
M  V30 10074 C 956.51 -1.93412 -0.845871 0
M  V30 10075 O 955.858 -1.4677 -1.75131 0
M  V30 10076 C 956.068 -3.21352 1.36139 0
M  V30 10077 C 957.416 -3.97274 1.49863 0
M  V30 10078 O 958.44 -3.30827 1.3203 0
M  V30 10079 O 957.299 -5.16349 1.79013 0
M  V30 10080 H 954.393 -0.792297 0.237055 0
M  V30 10081 H 956.939 -1.24776 1.15017 0
M  V30 10082 H 955.711 -3.0919 2.39827 0
M  V30 10083 H 955.334 -3.87867 0.874364 0
M  V30 10084 N 956.331 -0.831506 -1.3388 0
M  V30 10085 C 957.261 -0.274378 -2.31882 0
M  V30 10086 C 958.242 0.613872 -1.58637 0
M  V30 10087 O 959.427 0.538961 -1.86571 0
M  V30 10088 C 956.557 0.557498 -3.42796 0
M  V30 10089 C 955.511 -0.234337 -4.27358 0
M  V30 10090 C 954.837 0.720825 -5.29819 0
M  V30 10091 C 956.137 -1.44732 -5.01847 0
M  V30 10092 H 957.831 -1.09322 -2.78728 0
M  V30 10093 H 955.377 -0.527136 -1.34005 0
M  V30 10094 H 957.33 0.957501 -4.10378 0
M  V30 10095 H 956.054 1.40947 -2.94621 0
M  V30 10096 H 954.713 -0.61581 -3.61391 0
M  V30 10097 H 954.361 1.569 -4.77903 0
M  V30 10098 H 954.061 0.195171 -5.87276 0
M  V30 10099 H 955.585 1.1185 -6.00268 0
M  V30 10100 H 956.999 -1.12087 -5.62236 0
M  V30 10101 H 955.396 -1.90923 -5.68919 0
M  V30 10102 H 956.466 -2.22099 -4.31045 0
M  V30 10103 N 957.809 1.4625 -0.587256 0
M  V30 10104 C 958.757 2.32076 0.156108 0
M  V30 10105 C 959.751 1.44756 0.879887 0
M  V30 10106 O 960.957 1.61356 0.797759 0
M  V30 10107 H 957.332 0.748808 0.0692098 0
M  V30 10108 H 959.303 2.9258 -0.586497 0
M  V30 10109 C 958.052 3.28008 1.15352 0
M  V30 10110 H 957.375 3.9518 0.60601 0
M  V30 10111 H 958.815 3.90832 1.64396 0
M  V30 10112 C 957.274 2.53691 2.21681 0
M  V30 10113 O 957.804 2.30329 3.29107 0
M  V30 10114 N 956.01 2.14174 1.96412 0
M  V30 10115 H 955.557 2.33374 1.09061 0
M  V30 10116 H 955.515 1.6477 2.67765 0
M  V30 10117 N 959.287 0.325282 1.54207 0
M  V30 10118 C 960.512 -0.281418 2.05482 0
M  V30 10119 C 960.937 -1.44869 1.19977 0
M  V30 10120 O 960.295 -1.80088 0.209275 0
M  V30 10121 C 960.343 -0.692029 3.53897 0
M  V30 10122 O 959.447 -1.7942 3.71325 0
M  V30 10123 H 958.788 -0.0504872 0.662078 0
M  V30 10124 H 961.318 0.474191 1.99029 0
M  V30 10125 H 961.328 -0.974219 3.96198 0
M  V30 10126 H 960.003 0.161709 4.15586 0
M  V30 10127 H 958.58 -1.51069 3.40929 0
M  V30 10128 N 960.765 -1.57509 0.0534917 0
M  V30 10129 C 962.042 -1.84137 -0.659767 0
M  V30 10130 C 962.422 -0.942362 -1.88899 0
M  V30 10131 O 961.77 -0.00398566 -2.285 0
M  V30 10132 C 961.98 -3.33919 -1.01486 0
M  V30 10133 C 963.328 -4.00989 -1.39616 0
M  V30 10134 O 964.352 -3.38557 -1.10713 0
M  V30 10135 O 963.211 -5.11071 -1.93567 0
M  V30 10136 H 960.305 -0.760081 -0.325893 0
M  V30 10137 H 962.851 -1.69497 0.0830315 0
M  V30 10138 H 961.623 -3.91046 -0.141041 0
M  V30 10139 H 961.246 -3.53755 -1.81503 0
M  V30 10140 N 962.243 0.219913 -1.56058 0
M  V30 10141 C 963.176 1.29978 -1.87566 0
M  V30 10142 C 964.154 1.45131 -0.733203 0
M  V30 10143 O 965.338 1.60917 -0.981729 0
M  V30 10144 C 962.465 2.66988 -2.08411 0
M  V30 10145 C 961.511 2.68842 -3.31099 0
M  V30 10146 S 962.344 2.22745 -4.86975 0
M  V30 10147 C 963.5 3.61627 -5.10859 0
M  V30 10148 H 963.733 1.03059 -2.78866 0
M  V30 10149 H 961.266 0.422233 -1.48514 0
M  V30 10150 H 963.224 3.45866 -2.21104 0
M  V30 10151 H 961.885 2.91131 -1.17905 0
M  V30 10152 H 961.078 3.69526 -3.42734 0
M  V30 10153 H 960.68 1.98028 -3.17271 0
M  V30 10154 H 962.972 4.57328 -4.99857 0
M  V30 10155 H 963.915 3.54906 -6.12737 0
M  V30 10156 H 964.323 3.55391 -4.38586 0
M  V30 10157 N 963.721 1.49897 0.486681 0
M  V30 10158 C 964.998 1.50614 1.24799 0
M  V30 10159 C 965.378 0.24193 2.09709 0
M  V30 10160 O 964.726 -0.775237 2.14947 0
M  V30 10161 C 964.936 2.79318 2.09243 0
M  V30 10162 C 966.284 3.29371 2.67955 0
M  V30 10163 O 967.308 2.80533 2.19499 0
M  V30 10164 O 966.167 4.14466 3.56202 0
M  V30 10165 H 963.261 0.603447 0.565491 0
M  V30 10166 H 965.807 1.62174 0.499778 0
M  V30 10167 H 964.579 3.62812 1.46572 0
M  V30 10168 H 964.202 2.70687 2.91229 0
M  V30 10169 N 965.199 -0.738761 1.39212 0
M  V30 10170 C 966.424 -1.5331 1.39681 0
M  V30 10171 C 966.849 -1.88098 -0.00768715 0
M  V30 10172 O 966.207 -1.51642 -0.993699 0
M  V30 10173 C 966.255 -2.79958 2.27279 0
M  V30 10174 O 965.359 -3.75727 1.70008 0
M  V30 10175 H 964.7 -0.463131 0.475821 0
M  V30 10176 H 967.23 -0.911768 1.83161 0
M  V30 10177 H 967.24 -3.28732 2.41659 0
M  V30 10178 H 965.915 -2.5397 3.29351 0
M  V30 10179 H 964.492 -3.34483 1.64851 0
M  V30 10180 N 966.677 -1.24326 -0.968545 0
M  V30 10181 C 967.926 -1.07647 -1.70572 0
M  V30 10182 C 968.239 0.384821 -1.91777 0
M  V30 10183 O 969.445 0.671782 -2.63058 0
M  V30 10184 C 967.901 -1.87799 -3.07017 0
M  V30 10185 C 967.509 -3.38333 -2.93658 0
M  V30 10186 C 969.253 -1.79647 -3.84613 0
M  V30 10187 C 967.16 -4.10831 -4.25407 0
M  V30 10188 H 966.09 -0.399216 -0.639642 0
M  V30 10189 H 968.741 -1.484 -1.07934 0
M  V30 10190 H 967.123 -1.3986 -3.7048 0
M  V30 10191 H 968.297 -3.93845 -2.39213 0
M  V30 10192 H 966.612 -3.47427 -2.29528 0
M  V30 10193 H 969.209 -2.31116 -4.82172 0
M  V30 10194 H 969.552 -0.761553 -4.09275 0
M  V30 10195 H 970.085 -2.25261 -3.27875 0
M  V30 10196 H 966.824 -5.14679 -4.05939 0
M  V30 10197 H 966.344 -3.60105 -4.79671 0
M  V30 10198 H 968.023 -4.17783 -4.94031 0
M  V30 10199 N 968.156 1.1691 -1.05688 0
M  V30 10200 C 969.086 2.23275 -0.683402 0
M  V30 10201 C 970.067 1.6704 0.321206 0
M  V30 10202 O 971.252 1.93191 0.197691 0
M  V30 10203 C 968.382 3.47244 -0.0626006 0
M  V30 10204 C 967.336 4.16333 -0.992513 0
M  V30 10205 C 966.662 5.34182 -0.23533 0
M  V30 10206 C 967.962 4.68002 -2.31886 0
M  V30 10207 H 969.656 2.54771 -1.57264 0
M  V30 10208 H 967.202 1.2246 -0.757606 0
M  V30 10209 H 969.155 4.20874 0.210503 0
M  V30 10210 H 967.879 3.1503 0.861616 0
M  V30 10211 H 966.538 3.44622 -1.25026 0
M  V30 10212 H 966.186 4.9822 0.69181 0
M  V30 10213 H 965.886 5.81346 -0.855002 0
M  V30 10214 H 967.41 6.10592 0.0303717 0
M  V30 10215 H 968.824 5.33244 -2.10531 0
M  V30 10216 H 967.221 5.25764 -2.89296 0
M  V30 10217 H 968.291 3.84541 -2.95391 0
M  V30 10218 N 969.634 0.838594 1.33437 0
M  V30 10219 C 970.597 0.276843 2.27522 0
M  V30 10220 C 971.597 -0.554275 1.50945 0
M  V30 10221 O 972.787 -0.368107 1.70266 0
M  V30 10222 C 969.919 -0.610036 3.35397 0
M  V30 10223 H 971.112 1.10705 2.78719 0
M  V30 10224 H 968.665 0.611657 1.43835 0
M  V30 10225 H 969.4 -1.46269 2.89441 0
M  V30 10226 H 969.185 -0.0153615 3.92097 0
M  V30 10227 H 970.675 -0.996368 4.05539 0
M  V30 10228 N 971.112 -1.45937 0.595003 0
M  V30 10229 C 972.337 -2.07207 0.0894416 0
M  V30 10230 C 972.762 -1.43884 -1.21157 0
M  V30 10231 O 972.12 -0.526998 -1.73472 0
M  V30 10232 C 972.168 -3.60565 -0.0499828 0
M  V30 10233 O 971.272 -3.97364 -1.10342 0
M  V30 10234 H 970.613 -0.660471 0.0683627 0
M  V30 10235 H 973.143 -1.87386 0.82144 0
M  V30 10236 H 973.153 -4.0722 -0.252234 0
M  V30 10237 H 971.828 -4.06044 0.90006 0
M  V30 10238 H 970.405 -3.62401 -0.878645 0
M  V30 10239 N 972.59 -0.333456 -1.54032 0
M  V30 10240 C 973.52 0.52051 -2.27625 0
M  V30 10241 C 974.501 1.1111 -1.28797 0
M  V30 10242 O 975.686 1.13438 -1.57625 0
M  V30 10243 C 972.816 1.67663 -3.04149 0
M  V30 10244 C 971.77 1.21487 -4.10396 0
M  V30 10245 C 971.096 2.45872 -4.74817 0
M  V30 10246 C 972.396 0.322603 -5.21303 0
M  V30 10247 H 974.09 -0.0933823 -2.99254 0
M  V30 10248 H 971.636 -0.0463526 -1.43925 0
M  V30 10249 H 973.589 2.28041 -3.54366 0
M  V30 10250 H 972.313 2.31727 -2.30153 0
M  V30 10251 H 970.972 0.633966 -3.61077 0
M  V30 10252 H 970.62 3.0832 -3.97426 0
M  V30 10253 H 970.32 2.15662 -5.46593 0
M  V30 10254 H 971.844 3.06994 -5.27814 0
M  V30 10255 H 973.258 0.832942 -5.67217 0
M  V30 10256 H 971.655 0.112843 -5.99994 0
M  V30 10257 H 972.725 -0.643954 -4.80605 0
M  V30 10258 N 974.068 1.57479 -0.061844 0
M  V30 10259 C 975.015 2.12152 0.908862 0
M  V30 10260 C 975.985 1.03152 1.30188 0
M  V30 10261 O 977.17 1.3076 1.38948 0
M  V30 10262 C 974.31 2.6796 2.17465 0
M  V30 10263 C 973.423 3.91083 1.83517 0
M  V30 10264 C 972.558 4.35169 3.04633 0
M  V30 10265 C 971.597 5.50964 2.66655 0
M  V30 10266 N 970.734 5.90055 3.80499 0
M  V30 10267 H 975.574 2.94797 0.435743 0
M  V30 10268 H 973.111 1.45686 0.203445 0
M  V30 10269 H 975.069 2.98421 2.91548 0
M  V30 10270 H 973.699 1.88096 2.62335 0
M  V30 10271 H 972.751 3.67146 0.995381 0
M  V30 10272 H 974.063 4.75214 1.51569 0
M  V30 10273 H 973.217 4.67239 3.87005 0
M  V30 10274 H 971.956 3.49871 3.39767 0
M  V30 10275 H 970.961 5.18556 1.82703 0
M  V30 10276 H 972.186 6.37986 2.32702 0
M  V30 10277 H 970.132 5.07708 4.15414 0
M  V30 10278 H 970.049 6.68903 3.52285 0
M  V30 10279 H 971.317 6.26744 4.63479 0
M  V30 10280 N 975.546 -0.211634 1.56173 0
M  V30 10281 C 976.476 -1.26533 1.96244 0
M  V30 10282 C 977.457 -1.48362 0.832028 0
M  V30 10283 O 978.642 -1.60378 1.0951 0
M  V30 10284 C 975.772 -2.61307 2.2877 0
M  V30 10285 C 974.726 -2.54119 3.44395 0
M  V30 10286 C 974.052 -3.93014 3.62552 0
M  V30 10287 C 975.352 -2.08046 4.79076 0
M  V30 10288 H 977.046 -0.932407 2.84511 0
M  V30 10289 H 974.592 -0.447084 1.36884 0
M  V30 10290 H 976.545 -3.35188 2.55396 0
M  V30 10291 H 975.269 -2.96307 1.37367 0
M  V30 10292 H 973.928 -1.82694 3.17834 0
M  V30 10293 H 973.576 -4.25338 2.68508 0
M  V30 10294 H 973.276 -3.89083 4.40327 0
M  V30 10295 H 974.8 -4.68542 3.91537 0
M  V30 10296 H 976.214 -2.71676 5.04842 0
M  V30 10297 H 974.611 -2.15154 5.60204 0
M  V30 10298 H 975.681 -1.03306 4.73768 0
M  V30 10299 N 977.024 -1.50153 -0.478725 0
M  V30 10300 C 978.435 -1.53706 -1.05978 0
M  V30 10301 C 978.786 -0.336112 -1.933 0
M  V30 10302 O 977.911 0.551803 -2.09246 0
M  V30 10303 C 978.506 -2.78541 -1.92874 0
M  V30 10304 C 977.065 -2.848 -2.46102 0
M  V30 10305 C 976.212 -2.47902 -1.24257 0
M  V30 10306 H 979.163 -1.56528 -0.261664 0
M  V30 10307 H 979.184 -2.59964 -2.77847 0
M  V30 10308 H 978.696 -3.6593 -1.29293 0
M  V30 10309 H 976.797 -2.01744 -3.13257 0
M  V30 10310 H 976.91 -3.87511 -2.81731 0
M  V30 10311 H 975.274 -2.0017 -1.57493 0
M  V30 10312 H 976.057 -3.3759 -0.62351 0
M  V30 10313 N 978.502 0.731368 -1.39602 0
M  V30 10314 C 979.913 1.30981 -1.33045 0
M  V30 10315 C 980.264 1.962 0.00349918 0
M  V30 10316 O 979.389 1.96539 0.905615 0
M  V30 10317 C 979.984 2.3817 -2.40958 0
M  V30 10318 C 978.543 2.91678 -2.3791 0
M  V30 10319 C 977.69 1.65286 -2.22656 0
M  V30 10320 H 980.641 0.528615 -1.49637 0
M  V30 10321 H 980.662 3.18645 -2.07955 0
M  V30 10322 H 980.174 1.90673 -3.38032 0
M  V30 10323 H 978.275 3.43446 -1.44485 0
M  V30 10324 H 978.388 3.44545 -3.32904 0
M  V30 10325 H 976.752 1.89759 -1.69893 0
M  V30 10326 H 977.535 1.19836 -3.21705 0
M  V30 10327 N 979.98 1.24838 0.961938 0
M  V30 10328 C 980.927 1.04582 2.05745 0
M  V30 10329 C 981.897 -0.0427281 1.66045 0
M  V30 10330 O 983.082 0.113026 1.90465 0
M  V30 10331 C 980.222 0.66284 3.38675 0
M  V30 10332 C 979.335 1.82548 3.91536 0
M  V30 10333 C 978.47 1.38753 5.12758 0
M  V30 10334 C 977.509 2.51976 5.5783 0
M  V30 10335 N 976.646 2.09009 6.70268 0
M  V30 10336 H 981.486 1.98343 2.22405 0
M  V30 10337 H 979.023 0.987822 1.08998 0
M  V30 10338 H 980.981 0.421788 4.15062 0
M  V30 10339 H 979.611 -0.237776 3.21923 0
M  V30 10340 H 978.663 2.18004 3.11735 0
M  V30 10341 H 979.975 2.67601 4.20941 0
M  V30 10342 H 979.129 1.1057 5.96539 0
M  V30 10343 H 977.868 0.507618 4.85051 0
M  V30 10344 H 976.873 2.80912 4.72619 0
M  V30 10345 H 978.098 3.40534 5.87549 0
M  V30 10346 H 976.044 1.23423 6.44285 0
M  V30 10347 H 975.961 2.87613 6.99153 0
M  V30 10348 H 977.229 1.83981 7.57477 0
M  V30 10349 N 981.458 -1.16348 1.06306 0
M  V30 10350 C 982.683 -1.91323 0.800636 0
M  V30 10351 C 983.108 -1.7691 -0.639105 0
M  V30 10352 O 982.466 -1.0945 -1.44535 0
M  V30 10353 C 982.514 -3.40038 1.20027 0
M  V30 10354 O 981.618 -4.11003 0.339142 0
M  V30 10355 H 980.959 -0.596057 0.292595 0
M  V30 10356 H 983.489 -1.47406 1.41889 0
M  V30 10357 H 983.499 -3.90808 1.17188 0
M  V30 10358 H 982.174 -3.49848 2.24898 0
M  V30 10359 H 980.751 -3.70423 0.42911 0
M  V30 10360 N 982.937 -0.845659 -1.3299 0
M  V30 10361 C 983.847 -0.2864 -2.32845 0
M  V30 10362 C 984.863 0.591105 -1.63652 0
M  V30 10363 O 986.039 0.493615 -1.95257 0
M  V30 10364 C 983.104 0.523636 -3.42723 0
M  V30 10365 C 982.165 -0.378945 -4.27624 0
M  V30 10366 C 981.398 0.392526 -5.32255 0
M  V30 10367 O 981.621 1.6235 -5.46808 0
M  V30 10368 O 980.555 -0.237 -6.01433 0
M  V30 10369 H 984.381 -1.11346 -2.82552 0
M  V30 10370 H 981.966 -0.608356 -1.36453 0
M  V30 10371 H 983.848 0.983718 -4.09757 0
M  V30 10372 H 982.523 1.32764 -2.95221 0
M  V30 10373 H 981.43 -0.887012 -3.63432 0
M  V30 10374 H 982.763 -1.1479 -4.78627 0
M  V30 10375 N 984.415 1.45619 -0.602734 0
M  V30 10376 C 985.661 2.02572 -0.0961759 0
M  V30 10377 C 985.994 1.47076 1.26815 0
M  V30 10378 O 985.269 0.643566 1.83544 0
M  V30 10379 C 985.552 3.60062 -0.0520032 0
M  V30 10380 C 985.405 4.25901 -1.44665 0
M  V30 10381 C 986.724 4.35446 0.638342 0
M  V30 10382 H 983.843 0.736099 -0.0364238 0
M  V30 10383 H 986.485 1.7353 -0.773776 0
M  V30 10384 H 984.635 3.84936 0.525032 0
M  V30 10385 H 986.307 4.12228 -2.0704 0
M  V30 10386 H 984.55 3.84489 -2.00874 0
M  V30 10387 H 985.221 5.34779 -1.36803 0
M  V30 10388 H 987.697 4.15837 0.147926 0
M  V30 10389 H 986.573 5.45176 0.63834 0
M  V30 10390 H 986.834 4.07962 1.70351 0
M  V30 10391 N 985.893 0.34162 1.53853 0
M  V30 10392 C 987.118 -0.259608 2.05769 0
M  V30 10393 C 987.543 -1.43588 1.21507 0
M  V30 10394 O 986.901 -1.79856 0.228364 0
M  V30 10395 C 986.949 -0.654455 3.54611 0
M  V30 10396 O 986.053 -1.75472 3.73207 0
M  V30 10397 H 985.394 -0.0434621 0.662576 0
M  V30 10398 H 987.924 0.495274 1.98515 0
M  V30 10399 H 987.934 -0.932142 3.97209 0
M  V30 10400 H 986.609 0.205779 4.15391 0
M  V30 10401 H 985.186 -1.47444 3.42512 0
M  V30 10402 N 987.371 -1.57444 0.0701946 0
M  V30 10403 C 988.596 -1.98171 -0.61181 0
M  V30 10404 C 989.021 -0.94823 -1.62451 0
M  V30 10405 O 988.379 0.0863553 -1.81094 0
M  V30 10406 C 988.427 -3.37934 -1.2583 0
M  V30 10407 O 987.531 -3.37207 -2.37414 0
M  V30 10408 H 986.872 -0.645056 -0.157477 0
M  V30 10409 H 989.402 -2.04091 0.144235 0
M  V30 10410 H 989.412 -3.75083 -1.60552 0
M  V30 10411 H 988.087 -4.12684 -0.516234 0
M  V30 10412 H 986.664 -3.11826 -2.04497 0
M  V30 10413 N 988.849 0.203349 -1.56283 0
M  V30 10414 C 990.126 0.950415 -1.70958 0
M  V30 10415 C 990.506 2.01708 -0.622647 0
M  V30 10416 O 989.854 2.25523 0.367635 0
M  V30 10417 C 990.064 1.54434 -3.12971 0
M  V30 10418 C 991.412 2.02964 -3.72949 0
M  V30 10419 O 992.436 1.64293 -3.16048 0
M  V30 10420 O 991.295 2.74097 -4.72793 0
M  V30 10421 H 988.389 0.445154 -0.69697 0
M  V30 10422 H 990.935 0.193695 -1.68591 0
M  V30 10423 H 989.707 0.77505 -3.83547 0
M  V30 10424 H 989.33 2.36611 -3.19532 0
M  V30 10425 N 990.327 1.50405 0.470755 0
M  V30 10426 C 991.237 1.7208 1.59454 0
M  V30 10427 C 992.253 0.603932 1.63183 0
M  V30 10428 O 993.429 0.882296 1.81046 0
M  V30 10429 C 990.494 1.81057 2.95667 0
M  V30 10430 C 989.555 3.04792 3.02324 0
M  V30 10431 C 988.788 3.13332 4.3204 0
M  V30 10432 O 989.011 2.28655 5.22564 0
M  V30 10433 O 987.945 4.0606 4.44296 0
M  V30 10434 H 991.771 2.67343 1.44089 0
M  V30 10435 H 989.356 1.34505 0.650286 0
M  V30 10436 H 991.238 1.8914 3.76569 0
M  V30 10437 H 989.913 0.889782 3.11231 0
M  V30 10438 H 988.82 3.0221 2.205 0
M  V30 10439 H 990.153 3.96451 2.91698 0
M  V30 10440 N 991.805 -0.723954 1.39988 0
M  V30 10441 C 993.082 -1.4763 1.28316 0
M  V30 10442 C 993.462 -2.10852 -0.102302 0
M  V30 10443 O 992.81 -1.9948 -1.11445 0
M  V30 10444 C 993.02 -2.51878 2.41574 0
M  V30 10445 C 994.368 -3.17948 2.81415 0
M  V30 10446 O 995.392 -2.62195 2.41106 0
M  V30 10447 O 994.251 -4.18858 3.51027 0
M  V30 10448 H 991.345 -0.656092 0.50346 0
M  V30 10449 H 993.891 -0.75684 1.51888 0
M  V30 10450 H 992.663 -2.03618 3.34149 0
M  V30 10451 H 992.286 -3.3137 2.19727 0
M  V30 10452 N 993.283 -1.25346 -0.955304 0
M  V30 10453 C 994.532 -1.0945 -1.69421 0
M  V30 10454 C 994.845 0.364459 -1.92175 0
M  V30 10455 O 996.051 0.643843 -2.63755 0
M  V30 10456 C 994.507 -1.91045 -3.05008 0
M  V30 10457 C 994.115 -3.41428 -2.90053 0
M  V30 10458 C 995.859 -1.83716 -3.82686 0
M  V30 10459 C 993.766 -4.1532 -4.21026 0
M  V30 10460 H 992.696 -0.405978 -0.635372 0
M  V30 10461 H 995.347 -1.49536 -1.06354 0
M  V30 10462 H 993.729 -1.43781 -3.68975 0
M  V30 10463 H 994.903 -3.9636 -2.35022 0
M  V30 10464 H 993.218 -3.49842 -2.25831 0
M  V30 10465 H 995.815 -2.36217 -4.79693 0
M  V30 10466 H 996.158 -0.804919 -4.08444 0
M  V30 10467 H 996.691 -2.28726 -3.25468 0
M  V30 10468 H 993.43 -5.18955 -4.00457 0
M  V30 10469 H 992.95 -3.65172 -4.75825 0
M  V30 10470 H 994.629 -4.22999 -4.89572 0
M  V30 10471 N 994.761 1.15782 -1.06922 0
M  V30 10472 C 995.693 2.19978 -0.643604 0
M  V30 10473 C 996.706 1.59981 0.301653 0
M  V30 10474 O 997.895 1.78265 0.0916508 0
M  V30 10475 C 994.995 3.38815 0.0757973 0
M  V30 10476 C 994.168 4.28363 -0.884545 0
M  V30 10477 C 993.227 5.25807 -0.203233 0
M  V30 10478 O 992.253 5.62924 -0.842904 0
M  V30 10479 N 993.455 5.70874 1.05279 0
M  V30 10480 H 996.22 2.57112 -1.53992 0
M  V30 10481 H 993.781 1.30855 -0.953344 0
M  V30 10482 H 995.773 4.01052 0.542151 0
M  V30 10483 H 994.343 3.00133 0.874 0
M  V30 10484 H 993.563 3.63292 -1.53012 0
M  V30 10485 H 994.851 4.85067 -1.53581 0
M  V30 10486 H 994.249 5.42822 1.5925 0
M  V30 10487 H 992.806 6.35171 1.46289 0
M  V30 10488 N 996.239 0.8527 1.3254 0
M  V30 10489 C 997.486 0.455123 1.97319 0
M  V30 10490 C 997.814 -0.988814 1.67489 0
M  V30 10491 O 997.069 -1.70845 0.954483 0
M  V30 10492 C 997.368 0.638757 3.51646 0
M  V30 10493 C 997.034 2.05287 4.01458 0
M  V30 10494 C 995.696 2.43963 4.14771 0
M  V30 10495 C 998.048 2.9759 4.27889 0
M  V30 10496 C 995.376 3.7422 4.51859 0
M  V30 10497 C 997.728 4.27343 4.66434 0
M  V30 10498 C 996.392 4.65957 4.77954 0
M  V30 10499 H 995.662 0.166541 0.722042 0
M  V30 10500 H 998.309 1.08238 1.57977 0
M  V30 10501 H 996.614 -0.0717394 3.91734 0
M  V30 10502 H 998.311 0.311219 3.9979 0
M  V30 10503 H 994.901 1.74253 3.91579 0
M  V30 10504 H 999.085 2.68942 4.17114 0
M  V30 10505 H 994.341 4.03923 4.58973 0
M  V30 10506 H 998.515 4.9893 4.85841 0
M  V30 10507 H 996.142 5.66934 5.06449 0
M  V30 10508 N 997.718 -1.45297 0.610449 0
M  V30 10509 C 999.134 -1.57225 0.274332 0
M  V30 10510 C 999.334 -1.60136 -1.22306 0
M  V30 10511 O 998.39 -1.5332 -2.00622 0
M  V30 10512 C 999.703 -2.85365 0.948028 0
M  V30 10513 C 1001.25 -2.99044 0.924216 0
M  V30 10514 C 1001.73 -4.29958 1.57798 0
M  V30 10515 N 1003.22 -4.36723 1.5436 0
M  V30 10516 C 1003.95 -5.36695 2.01857 0
M  V30 10517 N 1003.45 -6.43187 2.57453 0
M  V30 10518 N 1005.24 -5.28071 1.92608 0
M  V30 10519 H 997.392 -1.41651 1.58268 0
M  V30 10520 H 999.655 -0.67744 0.663158 0
M  V30 10521 H 999.361 -2.89125 2.00249 0
M  V30 10522 H 999.235 -3.74222 0.473062 0
M  V30 10523 H 1001.62 -2.94849 -0.121709 0
M  V30 10524 H 1001.7 -2.1159 1.43748 0
M  V30 10525 H 1001.35 -4.34912 2.62325 0
M  V30 10526 H 1001.28 -5.16234 1.03972 0
M  V30 10527 H 1003.77 -3.60374 1.13749 0
M  V30 10528 H 1004.08 -7.15722 2.91482 0
M  V30 10529 H 1002.43 -6.4393 2.61493 0
M  V30 10530 H 1005.62 -4.43783 1.48912 0
M  V30 10531 H 1005.79 -6.05832 2.29938 0
M  V30 10532 N 999.196 -0.349774 -1.5367 0
M  V30 10533 C 1000.13 0.496338 -2.28164 0
M  V30 10534 C 1001.11 1.09737 -1.29968 0
M  V30 10535 O 1002.29 1.11759 -1.58819 0
M  V30 10536 C 999.422 1.64428 -3.0591 0
M  V30 10537 C 998.376 1.17127 -4.11661 0
M  V30 10538 C 997.702 2.40822 -4.77398 0
M  V30 10539 C 999.002 0.267293 -5.21616 0
M  V30 10540 H 1000.7 -0.125117 -2.99138 0
M  V30 10541 H 998.242 -0.0616152 -1.43868 0
M  V30 10542 H 1000.19 2.2427 -3.56765 0
M  V30 10543 H 998.919 2.29272 -2.32598 0
M  V30 10544 H 997.578 0.595634 -3.61729 0
M  V30 10545 H 997.226 3.04088 -4.00674 0
M  V30 10546 H 996.926 2.09852 -5.48849 0
M  V30 10547 H 998.45 3.01378 -5.3104 0
M  V30 10548 H 999.864 0.772734 -5.68068 0
M  V30 10549 H 998.261 0.0491991 -6.0008 0
M  V30 10550 H 999.331 -0.694892 -4.79895 0
M  V30 10551 N 1000.67 1.57404 -0.0785433 0
M  V30 10552 C 1001.92 1.94031 0.589896 0
M  V30 10553 C 1002.25 0.959297 1.68852 0
M  V30 10554 O 1001.53 -0.0103978 1.94497 0
M  V30 10555 C 1001.81 3.40886 1.16055 0
M  V30 10556 C 1001.66 4.49748 0.0681072 0
M  V30 10557 C 1002.98 3.88699 2.06401 0
M  V30 10558 H 1000.1 0.70556 0.212965 0
M  V30 10559 H 1002.74 1.89439 -0.145886 0
M  V30 10560 H 1000.89 3.4493 1.78761 0
M  V30 10561 H 1002.57 4.57823 -0.565318 0
M  V30 10562 H 1000.81 4.29625 -0.600431 0
M  V30 10563 H 1001.48 5.49658 0.507906 0
M  V30 10564 H 1003.96 3.86703 1.53622 0
M  V30 10565 H 1002.83 4.92052 2.43261 0
M  V30 10566 H 1003.09 3.2703 2.97496 0
M  V30 10567 N 1002.15 -0.195058 1.56388 0
M  V30 10568 C 1003.38 -0.931642 1.84738 0
M  V30 10569 C 1003.79 -1.76849 0.661046 0
M  V30 10570 O 1003.15 -1.78705 -0.370241 0
M  V30 10571 C 1003.2 -1.82777 3.11889 0
M  V30 10572 O 1002.92 -1.02471 4.25948 0
M  V30 10573 C 1004.42 -2.67603 3.53417 0
M  V30 10574 H 1001.64 -0.271821 0.613477 0
M  V30 10575 H 1004.19 -0.202299 2.03497 0
M  V30 10576 H 1002.34 -2.51074 2.95027 0
M  V30 10577 H 1002.76 -1.63539 4.98353 0
M  V30 10578 H 1004.23 -3.26138 4.45352 0
M  V30 10579 H 1004.71 -3.41314 2.76408 0
M  V30 10580 H 1005.31 -2.04678 3.7281 0
M  V30 10581 N 1003.63 -1.50653 -0.462772 0
M  V30 10582 C 1005.05 -1.38263 -0.797213 0
M  V30 10583 C 1005.25 -0.445172 -1.96521 0
M  V30 10584 O 1004.3 0.10913 -2.52264 0
M  V30 10585 C 1005.61 -2.798 -1.10146 0
M  V30 10586 C 1007.16 -2.88774 -1.20742 0
M  V30 10587 C 1007.64 -4.31163 -1.54476 0
M  V30 10588 N 1009.13 -4.34152 -1.61451 0
M  V30 10589 C 1009.86 -5.4133 -1.89074 0
M  V30 10590 N 1009.36 -6.58705 -2.1466 0
M  V30 10591 N 1011.15 -5.28783 -1.90645 0
M  V30 10592 H 1003.3 -2.10172 0.30684 0
M  V30 10593 H 1005.57 -0.945046 0.0747862 0
M  V30 10594 H 1005.27 -3.50276 -0.316207 0
M  V30 10595 H 1005.15 -3.17559 -2.03559 0
M  V30 10596 H 1007.53 -2.18512 -1.98334 0
M  V30 10597 H 1007.61 -2.54547 -0.252904 0
M  V30 10598 H 1007.26 -5.01965 -0.774207 0
M  V30 10599 H 1007.19 -4.62883 -2.51092 0
M  V30 10600 H 1009.68 -3.49519 -1.43684 0
M  V30 10601 H 1009.99 -7.36192 -2.35035 0
M  V30 10602 H 1008.34 -6.61866 -2.12035 0
M  V30 10603 H 1011.53 -4.36078 -1.70158 0
M  V30 10604 H 1011.7 -6.12396 -2.11836 0
M  V30 10605 N 1005.11 0.71652 -1.4037 0
M  V30 10606 C 1006.36 1.47638 -1.38597 0
M  V30 10607 C 1006.68 1.94496 0.0120141 0
M  V30 10608 O 1005.94 1.68437 0.996373 0
M  V30 10609 C 1006.24 2.71777 -2.32103 0
M  V30 10610 C 1005.9 2.43689 -3.79376 0
M  V30 10611 C 1004.57 2.35739 -4.195 0
M  V30 10612 C 1006.92 2.20099 -4.72447 0
M  V30 10613 C 1004.25 2.02265 -5.50732 0
M  V30 10614 C 1006.6 1.88138 -6.03976 0
M  V30 10615 C 1005.26 1.78669 -6.43143 0
M  V30 10616 H 1004.53 0.540246 -0.507163 0
M  V30 10617 H 1007.18 0.820822 -1.73017 0
M  V30 10618 H 1005.48 3.42166 -1.90865 0
M  V30 10619 H 1007.18 3.29864 -2.28015 0
M  V30 10620 H 1003.77 2.50763 -3.47585 0
M  V30 10621 H 1007.95 2.25198 -4.42266 0
M  V30 10622 H 1003.21 1.93471 -5.79982 0
M  V30 10623 H 1007.38 1.68898 -6.75608 0
M  V30 10624 H 1005.01 1.52498 -7.44747 0
M  V30 10625 N 1006.59 1.25851 0.948643 0
M  V30 10626 C 1007.83 1.11119 1.69648 0
M  V30 10627 C 1008.17 -0.345995 1.91093 0
M  V30 10628 O 1007.44 -1.25467 1.48621 0
M  V30 10629 C 1007.72 1.87261 3.0758 0
M  V30 10630 C 1007.58 3.40842 2.93507 0
M  V30 10631 C 1008.9 1.6605 4.07573 0
M  V30 10632 H 1006.01 0.405052 0.615713 0
M  V30 10633 H 1008.66 1.54756 1.10229 0
M  V30 10634 H 1006.81 1.50172 3.58303 0
M  V30 10635 H 1008.48 3.87641 2.50064 0
M  V30 10636 H 1006.72 3.68248 2.29294 0
M  V30 10637 H 1007.39 3.89339 3.91305 0
M  V30 10638 H 1009.87 1.98348 3.65783 0
M  V30 10639 H 1008.74 2.21753 5.02113 0
M  V30 10640 H 1009.01 0.603256 4.37965 0
M  V30 10641 N 1008.06 -1.15214 1.07534 0
M  V30 10642 C 1009.01 -2.22078 0.69168 0
M  V30 10643 C 1010.01 -1.66751 -0.298382 0
M  V30 10644 O 1011.21 -1.7927 -0.161897 0
M  V30 10645 H 1007.59 -0.723347 0.205604 0
M  V30 10646 H 1009.56 -2.51716 1.60256 0
M  V30 10647 C 1008.31 -3.47534 0.107546 0
M  V30 10648 H 1007.63 -3.90429 0.860522 0
M  V30 10649 H 1009.07 -4.23821 -0.123215 0
M  V30 10650 C 1007.53 -3.16583 -1.15226 0
M  V30 10651 O 1008.06 -3.33551 -2.23845 0
M  V30 10652 N 1006.27 -2.70611 -1.05915 0
M  V30 10653 H 1005.81 -2.57004 -0.175198 0
M  V30 10654 H 1005.77 -2.50277 -1.90287 0
M  V30 10655 N 1009.54 -0.859717 -1.32086 0
M  V30 10656 C 1010.45 -0.31108 -2.32528 0
M  V30 10657 C 1011.47 0.573714 -1.6427 0
M  V30 10658 O 1012.64 0.472878 -1.9577 0
M  V30 10659 C 1009.71 0.487256 -3.43259 0
M  V30 10660 C 1008.77 -0.424279 -4.27198 0
M  V30 10661 C 1008 0.336051 -5.32641 0
M  V30 10662 O 1008.23 1.56541 -5.48499 0
M  V30 10663 O 1007.16 -0.300777 -6.01148 0
M  V30 10664 H 1010.99 -1.14336 -2.81355 0
M  V30 10665 H 1008.57 -0.622794 -1.358 0
M  V30 10666 H 1010.45 0.940203 -4.10777 0
M  V30 10667 H 1009.13 1.29626 -2.96612 0
M  V30 10668 H 1008.04 -0.925509 -3.62471 0
M  V30 10669 H 1009.37 -1.1986 -4.77383 0
M  V30 10670 N 1011.02 1.44971 -0.618145 0
M  V30 10671 C 1011.98 2.29044 0.0846739 0
M  V30 10672 C 1012.98 1.40341 0.784921 0
M  V30 10673 O 1014.17 1.62351 0.631479 0
M  V30 10674 C 1011.31 3.21617 1.13027 0
M  V30 10675 H 1012.5 2.92668 -0.654612 0
M  V30 10676 H 1010.05 1.51668 -0.377672 0
M  V30 10677 H 1010.79 2.62815 1.89997 0
M  V30 10678 H 1010.57 3.86969 0.63224 0
M  V30 10679 H 1012.06 3.84805 1.62218 0
M  V30 10680 N 1012.5 0.357919 1.53482 0
M  V30 10681 C 1013.74 -0.23451 2.0144 0
M  V30 10682 C 1014.08 -1.49044 1.24497 0
M  V30 10683 O 1013.35 -1.91566 0.336535 0
M  V30 10684 C 1013.64 -0.534193 3.56116 0
M  V30 10685 C 1013.49 0.734834 4.43757 0
M  V30 10686 C 1014.81 -1.33793 4.1927 0
M  V30 10687 H 1011.93 -0.0837595 0.732225 0
M  V30 10688 H 1014.57 0.481297 1.83803 0
M  V30 10689 H 1012.72 -1.144 3.71275 0
M  V30 10690 H 1014.39 1.37251 4.40409 0
M  V30 10691 H 1012.63 1.35678 4.12036 0
M  V30 10692 H 1013.3 0.48021 5.49907 0
M  V30 10693 H 1015.78 -0.822158 4.07897 0
M  V30 10694 H 1014.66 -1.51636 5.27539 0
M  V30 10695 H 1014.92 -2.34423 3.74831 0
M  V30 10696 N 1013.98 -1.5736 0.0868897 0
M  V30 10697 C 1014.91 -2.09211 -0.911382 0
M  V30 10698 C 1015.89 -1.00072 -1.28157 0
M  V30 10699 O 1017.07 -1.27514 -1.38825 0
M  V30 10700 C 1014.2 -2.56229 -2.21504 0
M  V30 10701 C 1013.24 -3.76948 -1.99531 0
M  V30 10702 S 1014.08 -5.20926 -1.24083 0
M  V30 10703 C 1015.23 -5.71288 -2.55697 0
M  V30 10704 H 1015.47 -2.93557 -0.470245 0
M  V30 10705 H 1013 -1.53883 -0.126218 0
M  V30 10706 H 1014.96 -2.83978 -2.96424 0
M  V30 10707 H 1013.62 -1.72123 -2.6274 0
M  V30 10708 H 1012.81 -4.07887 -2.96048 0
M  V30 10709 H 1012.41 -3.4965 -1.32744 0
M  V30 10710 H 1014.71 -5.79054 -3.51714 0
M  V30 10711 H 1015.65 -6.6993 -2.29347 0
M  V30 10712 H 1016.06 -4.99178 -2.63594 0
M  V30 10713 N 1015.45 0.186762 -1.56489 0
M  V30 10714 C 1016.69 0.912523 -1.829 0
M  V30 10715 C 1017.06 1.80094 -0.665598 0
M  V30 10716 O 1018.26 2.56312 -0.809787 0
M  V30 10717 C 1016.53 1.70022 -3.14368 0
M  V30 10718 S 1018.09 2.47686 -3.62211 0
M  V30 10719 H 1014.91 0.305916 -0.641823 0
M  V30 10720 H 1017.51 0.175289 -1.94713 0
M  V30 10721 H 1016.21 1.03832 -3.97048 0
M  V30 10722 H 1015.74 2.47912 -3.05456 0
M  V30 10723 H 1017.76 3.72058 -3.28309 0
M  V30 10724 N 1016.93 1.50896 0.454776 0
M  V30 10725 C 1017.86 1.73885 1.5584 0
M  V30 10726 C 1018.84 0.588172 1.59607 0
M  V30 10727 O 1020.03 0.829054 1.75614 0
M  V30 10728 C 1017.16 1.84796 2.94054 0
M  V30 10729 C 1016.11 3.00111 3.05152 0
M  V30 10730 C 1015.44 2.96183 4.45174 0
M  V30 10731 C 1016.74 4.40365 2.80849 0
M  V30 10732 H 1018.43 2.66292 1.36854 0
M  V30 10733 H 1015.98 1.28142 0.656936 0
M  V30 10734 H 1017.93 1.99462 3.71204 0
M  V30 10735 H 1016.66 0.890235 3.14233 0
M  V30 10736 H 1015.31 2.85121 2.30438 0
M  V30 10737 H 1014.96 1.98224 4.62295 0
M  V30 10738 H 1014.66 3.73608 4.53532 0
M  V30 10739 H 1016.19 3.1292 5.24322 0
M  V30 10740 H 1017.6 4.55795 3.47741 0
M  V30 10741 H 1016 5.19363 3.00636 0
M  V30 10742 H 1017.07 4.51606 1.76579 0
M  V30 10743 N 1018.41 -0.709066 1.40748 0
M  V30 10744 C 1019.34 -1.83412 1.37451 0
M  V30 10745 C 1020.36 -1.60394 0.27884 0
M  V30 10746 O 1021.54 -1.70147 0.539642 0
M  V30 10747 C 1018.64 -3.19935 1.1178 0
M  V30 10748 C 1017.82 -3.70095 2.33128 0
M  V30 10749 C 1016.88 -4.85249 2.03518 0
M  V30 10750 O 1015.9 -4.97563 2.76442 0
M  V30 10751 N 1017.1 -5.7152 1.01714 0
M  V30 10752 H 1019.87 -1.86736 2.34414 0
M  V30 10753 H 1017.43 -0.890863 1.35186 0
M  V30 10754 H 1019.42 -3.94578 0.899464 0
M  V30 10755 H 1017.99 -3.11718 0.234624 0
M  V30 10756 H 1017.21 -2.8651 2.70751 0
M  V30 10757 H 1018.5 -4.00344 3.1401 0
M  V30 10758 H 1017.9 -5.64188 0.413307 0
M  V30 10759 H 1016.46 -6.46119 0.858696 0
M  V30 10760 N 1019.89 -1.26353 -0.941956 0
M  V30 10761 C 1020.8 -1.09618 -2.07415 0
M  V30 10762 C 1021.82 -0.0298963 -1.73974 0
M  V30 10763 O 1022.99 -0.233466 -2.00042 0
M  V30 10764 C 1020.06 -0.73013 -3.38925 0
M  V30 10765 C 1019.12 -1.87574 -3.86153 0
M  V30 10766 C 1018.35 -1.52706 -5.11387 0
M  V30 10767 O 1018.57 -0.428438 -5.68789 0
M  V30 10768 O 1017.51 -2.36154 -5.53638 0
M  V30 10769 H 1021.33 -2.04598 -2.2444 0
M  V30 10770 H 1018.92 -1.05407 -1.05876 0
M  V30 10771 H 1020.8 -0.538684 -4.17943 0
M  V30 10772 H 1019.48 0.190282 -3.2314 0
M  V30 10773 H 1018.38 -2.12214 -3.08084 0
M  V30 10774 H 1019.72 -2.77585 -4.06457 0
M  V30 10775 N 1021.37 1.14642 -1.08144 0
M  V30 10776 C 1022.62 1.8525 -0.807885 0
M  V30 10777 C 1022.94 1.83194 0.668213 0
M  V30 10778 O 1022.21 1.27848 1.48431 0
M  V30 10779 H 1020.79 0.685909 -0.295868 0
M  V30 10780 H 1023.45 1.38935 -1.36686 0
M  V30 10781 H 1022.54 2.90155 -1.14964 0
M  V30 10782 N 1022.85 0.866709 1.31628 0
M  V30 10783 C 1024.09 0.472185 1.96095 0
M  V30 10784 C 1024.41 -0.979873 1.69286 0
M  V30 10785 O 1025.61 -1.48039 2.27589 0
M  V30 10786 C 1024.07 0.793468 3.51044 0
M  V30 10787 C 1023.68 2.26206 3.86697 0
M  V30 10788 C 1025.42 0.467255 4.21921 0
M  V30 10789 C 1023.33 2.52593 5.34743 0
M  V30 10790 H 1022.26 0.172846 0.733921 0
M  V30 10791 H 1024.91 1.05916 1.49847 0
M  V30 10792 H 1023.29 0.135783 3.95767 0
M  V30 10793 H 1024.47 2.96254 3.52945 0
M  V30 10794 H 1022.78 2.55399 3.28877 0
M  V30 10795 H 1025.38 0.641669 5.30836 0
M  V30 10796 H 1025.72 -0.592065 4.12068 0
M  V30 10797 H 1026.25 1.08134 3.82821 0
M  V30 10798 H 1022.99 3.57196 5.49628 0
M  V30 10799 H 1022.51 1.87136 5.6986 0
M  V30 10800 H 1024.19 2.37156 6.01968 0
M  V30 10801 N 1024.32 -1.44642 0.625825 0
M  V30 10802 C 1025.25 -2.33397 -0.0692188 0
M  V30 10803 C 1026.23 -1.47898 -0.840241 0
M  V30 10804 O 1027.42 -1.7663 -0.807176 0
M  V30 10805 C 1024.55 -3.30888 -1.055 0
M  V30 10806 C 1023.5 -4.26164 -0.395968 0
M  V30 10807 C 1022.83 -5.13483 -1.49128 0
M  V30 10808 C 1024.13 -5.17663 0.694433 0
M  V30 10809 H 1025.82 -2.91763 0.671925 0
M  V30 10810 H 1023.37 -1.40294 0.324573 0
M  V30 10811 H 1025.32 -3.91861 -1.54993 0
M  V30 10812 H 1024.05 -2.7072 -1.82696 0
M  V30 10813 H 1022.71 -3.66516 0.0782691 0
M  V30 10814 H 1022.35 -4.49672 -2.25399 0
M  V30 10815 H 1022.05 -5.78038 -1.05573 0
M  V30 10816 H 1023.58 -5.77327 -1.98813 0
M  V30 10817 H 1024.99 -5.72602 0.282818 0
M  V30 10818 H 1023.39 -5.90793 1.05281 0
M  V30 10819 H 1024.46 -4.58994 1.56372 0
M  V30 10820 N 1025.8 -0.366053 -1.5329 0
M  V30 10821 C 1026.76 0.467904 -2.24373 0
M  V30 10822 C 1027.76 1.00934 -1.25176 0
M  V30 10823 O 1028.95 0.895015 -1.49449 0
M  V30 10824 C 1026.09 1.65405 -2.98084 0
M  V30 10825 H 1027.28 -0.154105 -2.99504 0
M  V30 10826 H 1024.83 -0.117751 -1.55856 0
M  V30 10827 H 1025.57 2.31413 -2.27197 0
M  V30 10828 H 1025.35 1.27277 -3.70868 0
M  V30 10829 H 1026.84 2.24503 -3.52119 0
M  V30 10830 N 1027.28 1.57312 -0.0952337 0
M  V30 10831 C 1028.51 1.98697 0.57682 0
M  V30 10832 C 1028.92 0.974347 1.61716 0
M  V30 10833 O 1028.28 -0.036022 1.82464 0
M  V30 10834 C 1028.33 3.40133 1.2244 0
M  V30 10835 O 1028.05 4.37518 0.225678 0
M  V30 10836 C 1029.55 3.96522 1.98205 0
M  V30 10837 H 1026.77 0.65294 0.154629 0
M  V30 10838 H 1029.32 2.03754 -0.174562 0
M  V30 10839 H 1027.47 3.3609 1.92671 0
M  V30 10840 H 1027.89 5.199 0.693116 0
M  V30 10841 H 1029.36 4.97637 2.38875 0
M  V30 10842 H 1029.84 3.34347 2.84796 0
M  V30 10843 H 1030.44 4.04038 1.3279 0
M  V30 10844 N 1028.76 -0.17846 1.56586 0
M  V30 10845 C 1030.17 -0.741599 1.71339 0
M  V30 10846 C 1030.52 -1.83112 0.704579 0
M  V30 10847 O 1029.64 -2.15975 -0.135557 0
M  V30 10848 C 1030.24 -1.35198 3.10656 0
M  V30 10849 C 1028.8 -1.86202 3.27118 0
M  V30 10850 C 1027.95 -0.738255 2.67292 0
M  V30 10851 H 1030.9 0.0468424 1.58631 0
M  V30 10852 H 1030.92 -2.2216 3.0891 0
M  V30 10853 H 1030.43 -0.558776 3.84056 0
M  V30 10854 H 1028.53 -2.68188 2.58661 0
M  V30 10855 H 1028.64 -2.01237 4.34788 0
M  V30 10856 H 1027.01 -1.15686 2.26912 0
M  V30 10857 H 1027.79 0.0429821 3.43273 0
M  V30 10858 N 1030.24 -1.51135 -0.446768 0
M  V30 10859 C 1031.2 -1.71187 -1.52406 0
M  V30 10860 C 1032.2 -0.582037 -1.49897 0
M  V30 10861 O 1033.39 -0.849452 -1.52085 0
M  V30 10862 C 1030.52 -1.75962 -2.91976 0
M  V30 10863 H 1031.71 -2.67324 -1.35934 0
M  V30 10864 H 1029.27 -1.40982 -0.674813 0
M  V30 10865 H 1030 -0.816065 -3.13864 0
M  V30 10866 H 1029.79 -2.58065 -2.95203 0
M  V30 10867 H 1031.28 -1.93347 -3.70144 0
M  V30 10868 N 1031.71 0.701592 -1.41122 0
M  V30 10869 C 1032.62 1.84548 -1.44841 0
M  V30 10870 C 1033.64 1.70654 -0.339594 0
M  V30 10871 O 1034.82 1.92675 -0.586378 0
M  V30 10872 C 1031.88 3.20477 -1.3227 0
M  V30 10873 C 1030.94 3.46524 -2.53415 0
M  V30 10874 C 1030.17 4.75968 -2.41434 0
M  V30 10875 O 1030.4 5.52037 -1.43566 0
M  V30 10876 O 1029.33 5.02664 -3.31078 0
M  V30 10877 H 1033.16 1.84367 -2.41335 0
M  V30 10878 H 1030.74 0.853863 -1.22595 0
M  V30 10879 H 1032.62 4.01642 -1.2752 0
M  V30 10880 H 1031.3 3.21355 -0.388889 0
M  V30 10881 H 1030.21 2.65313 -2.63742 0
M  V30 10882 H 1031.54 3.50455 -3.45604 0
M  V30 10883 N 1033.19 1.2685 0.935242 0
M  V30 10884 C 1034.44 1.12522 1.67878 0
M  V30 10885 C 1034.76 -0.330894 1.92172 0
M  V30 10886 O 1034.03 -1.23259 1.52263 0
M  V30 10887 H 1032.61 0.413418 0.622169 0
M  V30 10888 H 1035.27 1.59267 1.12339 0
M  V30 10889 H 1034.37 1.64853 2.65009 0
M  V30 10890 N 1034.67 -1.14067 1.0875 0
M  V30 10891 C 1035.95 -1.81389 0.73195 0
M  V30 10892 C 1036.33 -1.96005 -0.78391 0
M  V30 10893 O 1035.68 -1.52267 -1.70373 0
M  V30 10894 C 1035.89 -3.16858 1.46294 0
M  V30 10895 C 1037.23 -3.92305 1.62426 0
M  V30 10896 O 1038.26 -3.26459 1.42488 0
M  V30 10897 O 1037.12 -5.10393 1.9535 0
M  V30 10898 H 1034.21 -0.784354 0.262141 0
M  V30 10899 H 1036.76 -1.21054 1.18929 0
M  V30 10900 H 1035.53 -3.01404 2.49542 0
M  V30 10901 H 1035.15 -3.84889 0.997318 0
M  V30 10902 N 1036.15 -0.873678 -1.31166 0
M  V30 10903 C 1037.4 -0.482577 -1.95842 0
M  V30 10904 C 1037.71 0.970881 -1.69804 0
M  V30 10905 O 1038.92 1.4683 -2.28371 0
M  V30 10906 C 1037.37 -0.812074 -3.50619 0
M  V30 10907 C 1036.98 -2.28254 -3.85492 0
M  V30 10908 C 1038.72 -0.489624 -4.21667 0
M  V30 10909 C 1036.63 -2.55426 -5.33396 0
M  V30 10910 H 1035.56 -0.176736 -0.732994 0
M  V30 10911 H 1038.21 -1.06709 -1.49283 0
M  V30 10912 H 1036.59 -0.156769 -3.9569 0
M  V30 10913 H 1037.77 -2.98122 -3.51369 0
M  V30 10914 H 1036.08 -2.5714 -3.27518 0
M  V30 10915 H 1038.68 -0.669811 -5.30488 0
M  V30 10916 H 1039.02 0.570204 -4.12376 0
M  V30 10917 H 1039.56 -1.10163 -3.82242 0
M  V30 10918 H 1036.3 -3.60106 -5.47726 0
M  V30 10919 H 1035.82 -1.90156 -5.68859 0
M  V30 10920 H 1037.49 -2.40345 -6.00702 0
M  V30 10921 N 1037.63 1.44308 -0.633487 0
M  V30 10922 C 1038.87 2.01624 -0.138643 0
M  V30 10923 C 1039.2 1.50101 1.24477 0
M  V30 10924 O 1038.47 0.705575 1.82752 0
M  V30 10925 H 1037.05 0.745439 -0.0482636 0
M  V30 10926 H 1039.71 1.76777 -0.820719 0
M  V30 10927 H 1038.8 3.11913 -0.108136 0
M  V30 10928 N 1039.1 0.374177 1.53094 0
M  V30 10929 C 1040.07 -0.455999 2.24618 0
M  V30 10930 C 1041.07 -1.00269 1.25709 0
M  V30 10931 O 1042.26 -0.887077 1.49922 0
M  V30 10932 C 1039.39 -1.63822 2.98957 0
M  V30 10933 H 1040.58 0.169986 2.99418 0
M  V30 10934 H 1038.14 0.126015 1.55791 0
M  V30 10935 H 1038.87 -2.30205 2.28421 0
M  V30 10936 H 1038.66 -1.25308 3.71538 0
M  V30 10937 H 1040.15 -2.22633 3.53305 0
M  V30 10938 N 1040.58 -1.57259 0.103575 0
M  V30 10939 C 1041.83 -1.94945 -0.558953 0
M  V30 10940 C 1042.16 -0.986038 -1.67305 0
M  V30 10941 O 1041.44 -0.0205464 -1.94489 0
M  V30 10942 C 1041.72 -3.42689 -1.10617 0
M  V30 10943 C 1041.57 -4.498 0.00345246 0
M  V30 10944 C 1042.89 -3.91933 -2.00191 0
M  V30 10945 H 1040.01 -0.708859 -0.201713 0
M  V30 10946 H 1042.65 -1.89183 0.176006 0
M  V30 10947 H 1040.8 -3.4773 -1.73251 0
M  V30 10948 H 1042.47 -4.56866 0.638082 0
M  V30 10949 H 1040.72 -4.28615 0.668705 0
M  V30 10950 H 1041.39 -5.50397 -0.420396 0
M  V30 10951 H 1043.86 -3.89098 -1.4745 0
M  V30 10952 H 1042.74 -4.9586 -2.35402 0
M  V30 10953 H 1043 -3.31722 -2.92255 0
M  V30 10954 N 1042.06 0.170153 -1.56679 0
M  V30 10955 C 1043.31 0.886592 -1.8206 0
M  V30 10956 C 1043.64 1.82194 -0.680839 0
M  V30 10957 O 1042.89 1.92866 0.331822 0
M  V30 10958 C 1043.19 1.71402 -3.13618 0
M  V30 10959 C 1042.86 0.927489 -4.41258 0
M  V30 10960 C 1041.52 0.710417 -4.75927 0
M  V30 10961 C 1043.87 0.375855 -5.19843 0
M  V30 10962 C 1041.2 -0.0693691 -5.86659 0
M  V30 10963 C 1043.55 -0.390849 -6.31391 0
M  V30 10964 C 1042.21 -0.61871 -6.64626 0
M  V30 10965 H 1041.48 0.324427 -0.666204 0
M  V30 10966 H 1044.13 0.151464 -1.909 0
M  V30 10967 H 1042.44 2.51858 -3.00125 0
M  V30 10968 H 1044.13 2.27141 -3.30466 0
M  V30 10969 H 1040.72 1.10672 -4.14065 0
M  V30 10970 H 1044.91 0.530897 -4.93452 0
M  V30 10971 H 1040.16 -0.255637 -6.10865 0
M  V30 10972 H 1044.34 -0.825544 -6.9149 0
M  V30 10973 H 1041.96 -1.22482 -7.50268 0
M  V30 10974 N 1043.54 1.5137 0.438746 0
M  V30 10975 C 1044.79 1.63645 1.18595 0
M  V30 10976 C 1045.11 0.354241 1.91755 0
M  V30 10977 O 1044.38 -0.629838 1.85499 0
M  V30 10978 H 1042.96 0.603103 0.440767 0
M  V30 10979 H 1045.62 1.88293 0.503159 0
M  V30 10980 H 1044.72 2.46342 1.9163 0
M  V30 10981 N 1045.02 -0.694098 1.41492 0
M  V30 10982 C 1045.95 -1.82042 1.46229 0
M  V30 10983 C 1046.93 -1.67047 0.320803 0
M  V30 10984 O 1048.11 -1.86758 0.53245 0
M  V30 10985 C 1045.24 -3.2019 1.34519 0
M  V30 10986 C 1044.2 -3.49892 2.46495 0
M  V30 10987 C 1043.52 -4.87411 2.1985 0
M  V30 10988 C 1044.82 -3.4872 3.88834 0
M  V30 10989 H 1046.52 -1.78335 2.40493 0
M  V30 10990 H 1044.06 -0.856566 1.15754 0
M  V30 10991 H 1046.02 -3.98699 1.36445 0
M  V30 10992 H 1044.74 -3.24527 0.367406 0
M  V30 10993 H 1043.4 -2.73734 2.43854 0
M  V30 10994 H 1043.05 -4.88375 1.20411 0
M  V30 10995 H 1042.75 -5.08248 2.94885 0
M  V30 10996 H 1044.27 -5.68228 2.23494 0
M  V30 10997 H 1045.68 -4.1723 3.93182 0
M  V30 10998 H 1044.08 -3.81089 4.63564 0
M  V30 10999 H 1045.15 -2.47665 4.16881 0
M  V30 11000 N 1046.49 -1.27344 -0.928501 0
M  V30 11001 C 1047.74 -1.13411 -1.67279 0
M  V30 11002 C 1048.06 0.320698 -1.92345 0
M  V30 11003 O 1047.33 1.2245 -1.52915 0
M  V30 11004 H 1045.91 -0.416712 -0.619968 0
M  V30 11005 H 1048.58 -1.5986 -1.11493 0
M  V30 11006 H 1047.67 -1.66256 -2.64131 0
M  V30 11007 N 1047.97 1.13488 -1.09353 0
M  V30 11008 C 1049.22 1.84748 -0.829126 0
M  V30 11009 C 1049.55 1.83485 0.645247 0
M  V30 11010 O 1048.8 1.26767 1.49093 0
M  V30 11011 C 1049.1 3.32584 -1.30854 0
M  V30 11012 C 1048.77 3.54028 -2.7924 0
M  V30 11013 C 1047.43 3.59588 -3.19765 0
M  V30 11014 C 1049.78 3.62058 -3.74918 0
M  V30 11015 C 1047.11 3.70712 -4.54741 0
M  V30 11016 C 1049.46 3.7471 -5.09682 0
M  V30 11017 C 1048.13 3.78523 -5.49797 0
M  V30 11018 H 1047.4 0.67604 -0.303399 0
M  V30 11019 H 1050.04 1.33989 -1.36818 0
M  V30 11020 H 1048.35 3.85689 -0.689275 0
M  V30 11021 H 1050.04 3.86166 -1.08059 0
M  V30 11022 H 1046.63 3.50354 -2.4688 0
M  V30 11023 H 1050.82 3.57043 -3.44723 0
M  V30 11024 H 1046.07 3.71931 -4.8526 0
M  V30 11025 H 1050.25 3.79866 -5.83674 0
M  V30 11026 H 1047.88 3.86895 -6.54382 0
M  V30 11027 N 1049.45 0.880621 1.30701 0
M  V30 11028 C 1050.86 0.547993 1.78477 0
M  V30 11029 C 1051.21 -0.935633 1.72454 0
M  V30 11030 O 1050.34 -1.73094 1.29874 0
M  V30 11031 C 1050.93 0.98795 3.24076 0
M  V30 11032 C 1049.49 0.706805 3.69704 0
M  V30 11033 C 1048.64 1.17335 2.51252 0
M  V30 11034 H 1051.59 1.06528 1.17633 0
M  V30 11035 H 1051.61 0.31508 3.79193 0
M  V30 11036 H 1051.12 2.06778 3.28427 0
M  V30 11037 H 1049.22 -0.36122 3.70845 0
M  V30 11038 H 1049.34 1.2913 4.6137 0
M  V30 11039 H 1047.7 0.592808 2.47705 0
M  V30 11040 H 1048.48 2.26083 2.58343 0
M  V30 11041 N 1050.93 -1.4397 0.641131 0
M  V30 11042 C 1052.34 -1.85267 0.230838 0
M  V30 11043 C 1052.69 -1.53659 -1.21998 0
M  V30 11044 O 1051.82 -0.979572 -1.92959 0
M  V30 11045 C 1052.41 -3.36284 0.412171 0
M  V30 11046 C 1050.97 -3.76358 0.0563004 0
M  V30 11047 C 1050.12 -2.67768 0.720809 0
M  V30 11048 H 1053.07 -1.34294 0.845624 0
M  V30 11049 H 1053.09 -3.78924 -0.345936 0
M  V30 11050 H 1052.6 -3.59258 1.46818 0
M  V30 11051 H 1050.7 -3.58997 -0.997582 0
M  V30 11052 H 1050.82 -4.76756 0.473335 0
M  V30 11053 H 1049.18 -2.54227 0.155164 0
M  V30 11054 H 1049.96 -2.93573 1.77961 0
M  V30 11055 N 1052.41 -0.382291 -1.52893 0
M  V30 11056 C 1053.65 0.201996 -2.03399 0
M  V30 11057 C 1054.01 1.44624 -1.26286 0
M  V30 11058 O 1055.21 2.10723 -1.66881 0
M  V30 11059 C 1053.48 0.470348 -3.54292 0
M  V30 11060 S 1055.04 1.02592 -4.26638 0
M  V30 11061 H 1051.86 0.0575178 -0.70867 0
M  V30 11062 H 1054.46 -0.52902 -1.88206 0
M  V30 11063 H 1053.17 -0.44243 -4.08008 0
M  V30 11064 H 1052.7 1.22998 -3.73678 0
M  V30 11065 H 1054.71 2.30887 -4.3921 0
M  V30 11066 N 1053.89 1.57202 -0.111913 0
M  V30 11067 C 1054.82 2.17957 0.837683 0
M  V30 11068 C 1055.8 1.1176 1.28233 0
M  V30 11069 O 1056.98 1.39967 1.34621 0
M  V30 11070 C 1054.11 2.77333 2.09054 0
M  V30 11071 C 1053.07 3.8905 1.78393 0
M  V30 11072 C 1052.39 4.35203 3.10649 0
M  V30 11073 C 1053.69 5.11477 1.05775 0
M  V30 11074 H 1055.39 2.9756 0.331441 0
M  V30 11075 H 1052.93 1.43131 0.157979 0
M  V30 11076 H 1054.88 3.18492 2.75936 0
M  V30 11077 H 1053.61 1.95009 2.6199 0
M  V30 11078 H 1052.27 3.48456 1.13903 0
M  V30 11079 H 1051.92 3.49747 3.61506 0
M  V30 11080 H 1051.62 5.10534 2.9091 0
M  V30 11081 H 1053.14 4.79007 3.78661 0
M  V30 11082 H 1054.55 5.497 1.62798 0
M  V30 11083 H 1052.95 5.92346 0.961573 0
M  V30 11084 H 1054.02 4.84881 0.043297 0
M  V30 11085 N 1055.36 -0.161842 1.56767 0
M  V30 11086 C 1056.61 -0.875192 1.82167 0
M  V30 11087 C 1056.93 -1.82367 0.690444 0
M  V30 11088 O 1056.2 -1.93756 -0.289023 0
M  V30 11089 H 1054.78 -0.326178 0.672024 0
M  V30 11090 H 1057.44 -0.159392 1.94247 0
M  V30 11091 H 1056.54 -1.44639 2.76561 0
M  V30 11092 N 1056.84 -1.516 -0.430713 0
M  V30 11093 C 1058.09 -1.64271 -1.17726 0
M  V30 11094 C 1058.41 -0.364406 -1.91565 0
M  V30 11095 O 1057.68 0.619991 -1.8583 0
M  V30 11096 H 1056.26 -0.605432 -0.437562 0
M  V30 11097 H 1058.92 -1.88557 -0.493166 0
M  V30 11098 H 1058.02 -2.47355 -1.90321 0
M  V30 11099 N 1058.32 0.686584 -1.41858 0
M  V30 11100 C 1059.73 1.26682 -1.37145 0
M  V30 11101 C 1060.08 1.96112 -0.058922 0
M  V30 11102 O 1059.21 1.99321 0.842629 0
M  V30 11103 C 1059.8 2.30383 -2.48413 0
M  V30 11104 C 1058.36 2.83961 -2.47069 0
M  V30 11105 C 1057.51 1.58119 -2.27802 0
M  V30 11106 H 1060.46 0.480742 -1.51243 0
M  V30 11107 H 1060.48 3.11868 -2.17987 0
M  V30 11108 H 1059.99 1.79822 -3.43927 0
M  V30 11109 H 1058.09 3.38675 -1.55338 0
M  V30 11110 H 1058.21 3.3378 -3.43697 0
M  V30 11111 H 1056.57 1.84258 -1.75844 0
M  V30 11112 H 1057.35 1.09541 -3.25355 0
M  V30 11113 N 1059.8 1.27835 0.921735 0
M  V30 11114 C 1061.04 1.14523 1.67005 0
M  V30 11115 C 1061.37 -0.307776 1.92049 0
M  V30 11116 O 1060.63 -1.24103 1.51317 0
M  V30 11117 C 1060.93 1.88054 3.03925 0
M  V30 11118 C 1060.59 3.37886 2.9857 0
M  V30 11119 C 1059.25 3.78752 2.96817 0
M  V30 11120 C 1061.61 4.33462 2.89414 0
M  V30 11121 C 1058.93 5.13549 2.83698 0
M  V30 11122 C 1061.29 5.68322 2.77836 0
M  V30 11123 C 1059.95 6.08475 2.74436 0
M  V30 11124 H 1059.22 0.419068 0.611116 0
M  V30 11125 H 1061.87 1.58515 1.07449 0
M  V30 11126 H 1060.17 1.36587 3.67221 0
M  V30 11127 H 1061.87 1.75176 3.60714 0
M  V30 11128 H 1058.46 3.05389 3.00725 0
M  V30 11129 H 1062.64 4.02857 2.89862 0
M  V30 11130 H 1057.9 5.43796 2.79456 0
M  V30 11131 H 1062.07 6.42048 2.69717 0
M  V30 11132 H 1059.7 7.12877 2.64027 0
M  V30 11133 N 1061.28 -1.12907 1.09954 0
M  V30 11134 C 1062.69 -1.363 0.830326 0
M  V30 11135 C 1062.89 -1.93772 -0.552694 0
M  V30 11136 O 1061.95 -2.1607 -1.30652 0
M  V30 11137 C 1063.26 -2.30925 1.92598 0
M  V30 11138 C 1064.81 -2.44528 1.95385 0
M  V30 11139 C 1065.28 -3.42464 3.0411 0
M  V30 11140 N 1066.77 -3.50018 3.03384 0
M  V30 11141 C 1067.51 -4.25693 3.84152 0
M  V30 11142 N 1067.01 -5.04476 4.74843 0
M  V30 11143 N 1068.8 -4.21049 3.7239 0
M  V30 11144 H 1060.95 -0.739571 1.99108 0
M  V30 11145 H 1063.21 -0.387983 0.86497 0
M  V30 11146 H 1062.92 -1.95861 2.92115 0
M  V30 11147 H 1062.79 -3.30997 1.80889 0
M  V30 11148 H 1065.18 -2.78875 0.965037 0
M  V30 11149 H 1065.26 -1.44361 2.11172 0
M  V30 11150 H 1064.9 -3.08847 4.03207 0
M  V30 11151 H 1064.83 -4.42448 2.85565 0
M  V30 11152 H 1067.33 -2.93809 2.37665 0
M  V30 11153 H 1067.64 -5.59541 5.33042 0
M  V30 11154 H 1065.98 -5.0369 4.78875 0
M  V30 11155 H 1069.17 -3.5858 3.00895 0
M  V30 11156 H 1069.35 -4.79771 4.35572 0
M  V30 11157 N 1062.75 -0.88754 -1.30232 0
M  V30 11158 C 1064 -0.507279 -1.96043 0
M  V30 11159 C 1064.33 0.944059 -1.70052 0
M  V30 11160 O 1063.58 1.68255 -0.999444 0
M  V30 11161 C 1063.88 -0.731765 -3.49828 0
M  V30 11162 C 1063.55 -2.15858 -3.95874 0
M  V30 11163 C 1062.21 -2.54875 -4.08157 0
M  V30 11164 C 1064.56 -3.0883 -4.19849 0
M  V30 11165 C 1061.89 -3.86069 -4.41778 0
M  V30 11166 C 1064.24 -4.39559 -4.5494 0
M  V30 11167 C 1062.91 -4.78465 -4.65432 0
M  V30 11168 H 1062.18 -0.185627 -0.717373 0
M  V30 11169 H 1064.82 -1.12388 -1.55052 0
M  V30 11170 H 1063.13 -0.0321473 -3.91787 0
M  V30 11171 H 1064.83 -0.417107 -3.98825 0
M  V30 11172 H 1061.42 -1.84574 -3.86821 0
M  V30 11173 H 1065.6 -2.79906 -4.09837 0
M  V30 11174 H 1060.86 -4.1595 -4.48102 0
M  V30 11175 H 1065.03 -5.11636 -4.72442 0
M  V30 11176 H 1062.66 -5.80162 -4.91239 0
M  V30 11177 N 1064.23 1.43628 -0.648757 0
M  V30 11178 C 1065.48 2.02163 -0.160574 0
M  V30 11179 C 1065.81 1.51037 1.22072 0
M  V30 11180 O 1065.09 0.701633 1.81404 0
M  V30 11181 C 1065.37 3.59715 -0.166528 0
M  V30 11182 C 1065.22 4.21083 -1.58142 0
M  V30 11183 C 1066.54 4.37256 0.499485 0
M  V30 11184 H 1063.66 0.734568 -0.0598238 0
M  V30 11185 H 1066.3 1.70981 -0.828592 0
M  V30 11186 H 1064.45 3.86411 0.402302 0
M  V30 11187 H 1066.12 4.05433 -2.2005 0
M  V30 11188 H 1064.37 3.77904 -2.13005 0
M  V30 11189 H 1065.04 5.30156 -1.53748 0
M  V30 11190 H 1067.51 4.16097 0.0155561 0
M  V30 11191 H 1066.39 5.4693 0.464574 0
M  V30 11192 H 1066.65 4.13175 1.57286 0
M  V30 11193 N 1065.71 0.390394 1.52688 0
M  V30 11194 C 1066.99 -0.249068 1.94008 0
M  V30 11195 C 1067.37 -1.64263 1.32593 0
M  V30 11196 O 1066.72 -2.23086 0.494448 0
M  V30 11197 C 1066.93 -0.274318 3.4792 0
M  V30 11198 C 1068.27 -0.502743 4.21613 0
M  V30 11199 O 1069.3 -0.35448 3.54432 0
M  V30 11200 O 1068.16 -0.79334 5.40711 0
M  V30 11201 H 1065.25 -0.155116 0.812323 0
M  V30 11202 H 1067.8 0.44498 1.63762 0
M  V30 11203 H 1066.57 0.701766 3.84956 0
M  V30 11204 H 1066.19 -1.01324 3.84473 0
M  V30 11205 N 1067.19 -1.57141 0.120249 0
M  V30 11206 C 1068.12 -2.18398 -0.826112 0
M  V30 11207 C 1069.1 -1.12439 -1.27638 0
M  V30 11208 O 1070.28 -1.40679 -1.33877 0
M  V30 11209 C 1067.41 -2.78438 -2.0758 0
M  V30 11210 C 1066.37 -3.89991 -1.76327 0
M  V30 11211 C 1065.69 -4.36844 -3.08336 0
M  V30 11212 C 1066.99 -5.12031 -1.03062 0
M  V30 11213 H 1068.69 -2.97731 -0.315656 0
M  V30 11214 H 1066.23 -1.43213 -0.150387 0
M  V30 11215 H 1068.19 -3.19951 -2.74243 0
M  V30 11216 H 1066.91 -1.96396 -2.60953 0
M  V30 11217 H 1065.57 -3.49055 -1.12053 0
M  V30 11218 H 1065.22 -3.51659 -3.59646 0
M  V30 11219 H 1064.92 -5.1207 -2.88199 0
M  V30 11220 H 1066.44 -4.81009 -3.76116 0
M  V30 11221 H 1067.86 -5.50555 -1.59881 0
M  V30 11222 H 1066.25 -5.92848 -0.930146 0
M  V30 11223 H 1067.32 -4.84897 -0.017582 0
M  V30 11224 N 1068.67 0.153526 -1.5685 0
M  V30 11225 C 1069.9 0.881055 -1.86872 0
M  V30 11226 C 1070.3 1.75547 -0.705692 0
M  V30 11227 O 1069.65 1.8064 0.333888 0
M  V30 11228 C 1069.71 1.79429 -3.11521 0
M  V30 11229 C 1069.37 1.0977 -4.43621 0
M  V30 11230 C 1070.37 0.454693 -5.17908 0
M  V30 11231 C 1068.06 1.08915 -4.9035 0
M  V30 11232 C 1070.05 -0.187562 -6.37124 0
M  V30 11233 C 1067.74 0.443084 -6.09492 0
M  V30 11234 C 1068.73 -0.194154 -6.82724 0
M  V30 11235 O 1068.42 -0.829995 -7.99604 0
M  V30 11236 H 1068.15 0.260486 -0.623797 0
M  V30 11237 H 1070.71 0.153024 -2.04829 0
M  V30 11238 H 1068.94 2.5631 -2.89555 0
M  V30 11239 H 1070.63 2.39321 -3.27842 0
M  V30 11240 H 1071.39 0.453151 -4.82878 0
M  V30 11241 H 1067.27 1.57456 -4.33276 0
M  V30 11242 H 1070.82 -0.685542 -6.94223 0
M  V30 11243 H 1066.71 0.44227 -6.43983 0
M  V30 11244 H 1067.48 -0.731013 -8.15229 0
M  V30 11245 N 1070.14 1.51827 0.422667 0
M  V30 11246 C 1071.39 1.64893 1.16853 0
M  V30 11247 C 1071.71 0.37456 1.91369 0
M  V30 11248 O 1070.98 -0.610128 1.86157 0
M  V30 11249 H 1069.56 0.607744 0.434345 0
M  V30 11250 H 1072.23 1.88816 0.483159 0
M  V30 11251 H 1071.32 2.48361 1.89006 0
M  V30 11252 N 1071.62 -0.679052 1.4222 0
M  V30 11253 C 1072.59 -1.77448 1.45069 0
M  V30 11254 C 1073.59 -1.57189 0.338882 0
M  V30 11255 O 1074.78 -1.63559 0.599519 0
M  V30 11256 C 1071.91 -3.1603 1.27819 0
M  V30 11257 H 1073.1 -1.7631 2.426 0
M  V30 11258 H 1070.65 -0.888277 1.28605 0
M  V30 11259 H 1071.39 -3.22796 0.311946 0
M  V30 11260 H 1071.17 -3.32138 2.08391 0
M  V30 11261 H 1072.66 -3.9596 1.32686 0
M  V30 11262 N 1073.1 -1.28322 -0.914942 0
M  V30 11263 C 1074.03 -1.07947 -2.02188 0
M  V30 11264 C 1075.05 -0.0315743 -1.62769 0
M  V30 11265 O 1076.23 -0.274503 -1.76377 0
M  V30 11266 C 1073.33 -0.61805 -3.33217 0
M  V30 11267 C 1072.51 -1.74109 -4.01254 0
M  V30 11268 C 1071.57 -1.27325 -5.10563 0
M  V30 11269 O 1070.59 -1.97526 -5.33828 0
M  V30 11270 N 1071.79 -0.1358 -5.80341 0
M  V30 11271 H 1074.56 -2.03275 -2.20225 0
M  V30 11272 H 1072.12 -1.20059 -1.08616 0
M  V30 11273 H 1074.11 -0.288693 -4.03669 0
M  V30 11274 H 1072.68 0.242348 -3.11659 0
M  V30 11275 H 1071.9 -2.2401 -3.24366 0
M  V30 11276 H 1073.19 -2.49448 -4.43456 0
M  V30 11277 H 1072.59 0.449846 -5.63909 0
M  V30 11278 H 1071.15 0.134289 -6.51662 0
M  V30 11279 N 1074.58 1.12322 -1.10551 0
M  V30 11280 C 1075.53 2.18087 -0.755424 0
M  V30 11281 C 1076.5 1.6391 0.268805 0
M  V30 11282 O 1077.68 1.90227 0.147813 0
M  V30 11283 C 1074.82 3.4455 -0.194713 0
M  V30 11284 C 1073.93 4.12775 -1.27439 0
M  V30 11285 C 1073.07 5.26891 -0.675194 0
M  V30 11286 C 1072.11 5.86985 -1.73536 0
M  V30 11287 N 1071.24 6.92512 -1.15635 0
M  V30 11288 H 1076.08 2.47379 -1.66155 0
M  V30 11289 H 1073.62 1.21452 -0.829924 0
M  V30 11290 H 1075.58 4.16936 0.148275 0
M  V30 11291 H 1074.21 3.15671 0.674638 0
M  V30 11292 H 1073.26 3.38556 -1.73448 0
M  V30 11293 H 1074.57 4.53506 -2.07687 0
M  V30 11294 H 1073.73 6.06046 -0.281723 0
M  V30 11295 H 1072.47 4.87442 0.158708 0
M  V30 11296 H 1071.47 5.06517 -2.13825 0
M  V30 11297 H 1072.7 6.28505 -2.57213 0
M  V30 11298 H 1070.64 6.55098 -0.343928 0
M  V30 11299 H 1070.56 7.31848 -1.89565 0
M  V30 11300 H 1071.83 7.75492 -0.789463 0
M  V30 11301 N 1076.06 0.894434 1.2976 0
M  V30 11302 C 1077.31 0.513673 1.95049 0
M  V30 11303 C 1077.62 -0.943744 1.71327 0
M  V30 11304 O 1078.82 -1.43179 2.30678 0
M  V30 11305 C 1077.28 0.867751 3.49282 0
M  V30 11306 C 1076.89 2.34358 3.81812 0
M  V30 11307 C 1078.63 0.556645 4.20835 0
M  V30 11308 C 1076.54 2.63879 5.29265 0
M  V30 11309 H 1075.47 0.188375 0.73009 0
M  V30 11310 H 1078.12 1.09071 1.47566 0
M  V30 11311 H 1076.5 0.2197 3.9539 0
M  V30 11312 H 1077.68 3.03674 3.46581 0
M  V30 11313 H 1075.99 2.62318 3.23386 0
M  V30 11314 H 1078.59 0.754123 5.29355 0
M  V30 11315 H 1078.93 -0.504526 4.13231 0
M  V30 11316 H 1079.46 1.1623 3.80441 0
M  V30 11317 H 1076.2 3.68774 5.41928 0
M  V30 11318 H 1075.72 1.99182 5.65762 0
M  V30 11319 H 1077.4 2.49871 5.96803 0
M  V30 11320 N 1077.53 -1.43282 0.656365 0
M  V30 11321 C 1078.78 -2.02075 0.171293 0
M  V30 11322 C 1079.11 -1.51682 -1.21269 0
M  V30 11323 O 1078.39 -0.711243 -1.81029 0
M  V30 11324 C 1078.67 -3.59621 0.185602 0
M  V30 11325 C 1078.52 -4.20239 1.60373 0
M  V30 11326 C 1079.84 -4.37515 -0.476289 0
M  V30 11327 H 1076.96 -0.73424 0.0637185 0
M  V30 11328 H 1079.6 -1.70539 0.837648 0
M  V30 11329 H 1077.75 -3.86619 -0.381804 0
M  V30 11330 H 1079.43 -4.0426 2.22197 0
M  V30 11331 H 1077.67 -3.76769 2.15006 0
M  V30 11332 H 1078.34 -5.29333 1.56557 0
M  V30 11333 H 1080.82 -4.16099 0.00651073 0
M  V30 11334 H 1079.69 -5.47169 -0.435562 0
M  V30 11335 H 1079.95 -4.14003 -1.55093 0
M  V30 11336 N 1079.01 -0.398486 -1.52479 0
M  V30 11337 C 1080.29 0.238776 -1.94137 0
M  V30 11338 C 1080.67 1.63558 -1.33462 0
M  V30 11339 O 1080.02 2.22821 -0.506272 0
M  V30 11340 C 1080.23 0.255863 -3.48061 0
M  V30 11341 C 1081.58 0.480376 -4.21874 0
M  V30 11342 O 1082.6 0.335679 -3.54615 0
M  V30 11343 O 1081.46 0.764654 -5.41124 0
M  V30 11344 H 1078.55 0.150806 -0.813134 0
M  V30 11345 H 1081.1 -0.453659 -1.63524 0
M  V30 11346 H 1079.87 -0.722171 -3.84578 0
M  V30 11347 H 1079.49 0.99284 -3.85004 0
M  V30 11348 N 1080.49 1.57075 -0.12858 0
M  V30 11349 C 1081.91 1.57964 0.227961 0
M  V30 11350 C 1082.11 1.14186 1.66023 0
M  V30 11351 O 1081.16 0.833655 2.38341 0
M  V30 11352 C 1082.48 3.00697 -0.0140648 0
M  V30 11353 C 1084.02 3.12958 0.0510876 0
M  V30 11354 C 1084.5 4.57709 -0.163368 0
M  V30 11355 N 1085.99 4.6307 -0.109663 0
M  V30 11356 C 1086.73 5.72853 -0.250366 0
M  V30 11357 N 1086.22 6.91351 -0.447772 0
M  V30 11358 N 1088.01 5.61781 -0.189265 0
M  V30 11359 H 1080.17 1.83829 -1.06398 0
M  V30 11360 H 1082.43 0.850014 -0.419739 0
M  V30 11361 H 1082.13 3.37047 -1.00461 0
M  V30 11362 H 1082.01 3.70389 0.713571 0
M  V30 11363 H 1084.4 2.7646 1.03216 0
M  V30 11364 H 1084.48 2.4579 -0.708583 0
M  V30 11365 H 1084.12 4.94907 -1.14146 0
M  V30 11366 H 1084.05 5.2298 0.616405 0
M  V30 11367 H 1086.54 3.7788 0.0390086 0
M  V30 11368 H 1086.85 7.70871 -0.54574 0
M  V30 11369 H 1085.2 6.93314 -0.483866 0
M  V30 11370 H 1088.39 4.68086 -0.0359374 0
M  V30 11371 H 1088.56 6.47294 -0.302359 0
M  V30 11372 N 1081.97 -0.145205 1.5693 0
M  V30 11373 C 1082.9 -1.18096 2.01434 0
M  V30 11374 C 1083.88 -1.447 0.894204 0
M  V30 11375 O 1085.07 -1.55589 1.16214 0
M  V30 11376 C 1082.2 -2.51369 2.39647 0
M  V30 11377 C 1081.15 -2.39283 3.54863 0
M  V30 11378 C 1080.48 -3.77283 3.78895 0
M  V30 11379 C 1081.78 -1.8754 4.87469 0
M  V30 11380 H 1083.47 -0.810897 2.8821 0
M  V30 11381 H 1081.02 -0.388624 1.38657 0
M  V30 11382 H 1082.97 -3.24054 2.69382 0
M  V30 11383 H 1081.69 -2.90214 1.49811 0
M  V30 11384 H 1080.35 -1.6905 3.25296 0
M  V30 11385 H 1080 -4.13567 2.86307 0
M  V30 11386 H 1079.7 -3.70057 4.56433 0
M  V30 11387 H 1081.22 -4.51514 4.11057 0
M  V30 11388 H 1082.64 -2.50019 5.1591 0
M  V30 11389 H 1081.03 -1.912 5.68826 0
M  V30 11390 H 1082.1 -0.831194 4.77723 0
M  V30 11391 N 1083.45 -1.52049 -0.414609 0
M  V30 11392 C 1084.39 -1.74998 -1.5048 0
M  V30 11393 C 1085.36 -0.592251 -1.55182 0
M  V30 11394 O 1086.55 -0.829203 -1.7184 0
M  V30 11395 C 1083.69 -1.90157 -2.87983 0
M  V30 11396 C 1082.8 -3.17789 -2.92633 0
M  V30 11397 C 1081.94 -3.23411 -4.21401 0
M  V30 11398 C 1080.98 -4.45267 -4.20004 0
M  V30 11399 N 1080.11 -4.48312 -5.40334 0
M  V30 11400 H 1084.95 -2.68046 -1.30212 0
M  V30 11401 H 1082.49 -1.32824 -0.632154 0
M  V30 11402 H 1084.45 -1.96929 -3.67797 0
M  V30 11403 H 1083.08 -1.00496 -3.06758 0
M  V30 11404 H 1082.13 -3.20216 -2.05343 0
M  V30 11405 H 1083.44 -4.07634 -2.87465 0
M  V30 11406 H 1082.6 -3.29224 -5.09604 0
M  V30 11407 H 1081.34 -2.31495 -4.29257 0
M  V30 11408 H 1080.34 -4.39606 -3.30192 0
M  V30 11409 H 1081.57 -5.38472 -4.13793 0
M  V30 11410 H 1079.51 -3.59277 -5.48868 0
M  V30 11411 H 1079.43 -5.31994 -5.37139 0
M  V30 11412 H 1080.7 -4.58347 -6.30506 0
M  V30 11413 N 1084.93 0.6715 -1.42579 0
M  V30 11414 C 1085.87 1.78496 -1.46314 0
M  V30 11415 C 1086.84 1.63091 -0.314743 0
M  V30 11416 O 1088.03 1.83597 -0.519292 0
M  V30 11417 C 1085.17 3.16548 -1.37447 0
M  V30 11418 C 1084.28 3.43216 -2.62348 0
M  V30 11419 C 1083.42 4.71014 -2.456 0
M  V30 11420 C 1082.45 4.90728 -3.65859 0
M  V30 11421 N 1081.59 6.09769 -3.48032 0
M  V30 11422 H 1086.43 1.74638 -2.41466 0
M  V30 11423 H 1083.97 0.852491 -1.19879 0
M  V30 11424 H 1085.93 3.96329 -1.30303 0
M  V30 11425 H 1084.56 3.19522 -0.458891 0
M  V30 11426 H 1083.61 2.57664 -2.79846 0
M  V30 11427 H 1084.92 3.53675 -3.51732 0
M  V30 11428 H 1084.07 5.58892 -2.3606 0
M  V30 11429 H 1082.81 4.62843 -1.53712 0
M  V30 11430 H 1081.82 4.01291 -3.75827 0
M  V30 11431 H 1083.04 5.00741 -4.58732 0
M  V30 11432 H 1080.99 6.02765 -2.58864 0
M  V30 11433 H 1080.91 6.21104 -4.31005 0
M  V30 11434 H 1082.17 7.00317 -3.42311 0
M  V30 11435 N 1086.4 1.28806 0.908124 0
M  V30 11436 C 1087.63 1.1898 1.689 0
M  V30 11437 C 1088.04 -0.253334 1.87496 0
M  V30 11438 O 1087.38 -1.18245 1.40584 0
M  V30 11439 C 1087.45 1.82266 3.0987 0
M  V30 11440 C 1087.11 3.31534 3.14538 0
M  V30 11441 C 1088.11 4.27886 2.95313 0
M  V30 11442 C 1085.79 3.72589 3.36872 0
M  V30 11443 C 1087.79 5.63267 2.98343 0
M  V30 11444 C 1085.47 5.08095 3.39534 0
M  V30 11445 C 1086.47 6.03244 3.2029 0
M  V30 11446 O 1086.16 7.36277 3.22724 0
M  V30 11447 H 1085.89 0.413772 0.534574 0
M  V30 11448 H 1088.45 1.7055 1.14464 0
M  V30 11449 H 1086.68 1.25197 3.65872 0
M  V30 11450 H 1088.36 1.6688 3.70008 0
M  V30 11451 H 1089.13 3.97502 2.77879 0
M  V30 11452 H 1085.01 2.98989 3.50894 0
M  V30 11453 H 1088.55 6.37511 2.83241 0
M  V30 11454 H 1084.45 5.38126 3.56497 0
M  V30 11455 H 1085.22 7.44976 3.39048 0
M  V30 11456 N 1087.88 -1.11734 1.11145 0
M  V30 11457 C 1088.79 -2.21267 0.779607 0
M  V30 11458 C 1089.81 -1.72526 -0.225986 0
M  V30 11459 O 1090.98 -2.01302 -0.0629166 0
M  V30 11460 C 1088.05 -3.45973 0.22435 0
M  V30 11461 C 1087.11 -4.09518 1.28816 0
M  V30 11462 C 1086.34 -5.28271 0.7593 0
M  V30 11463 O 1086.57 -5.68912 -0.411725 0
M  V30 11464 O 1085.5 -5.82322 1.52266 0
M  V30 11465 H 1089.33 -2.5206 1.6941 0
M  V30 11466 H 1086.91 -1.20211 0.887115 0
M  V30 11467 H 1088.79 -4.21322 -0.0810921 0
M  V30 11468 H 1087.47 -3.1684 -0.662891 0
M  V30 11469 H 1086.37 -3.35915 1.64657 0
M  V30 11470 H 1087.71 -4.42824 2.14868 0
M  V30 11471 N 1089.36 -0.901303 -1.29284 0
M  V30 11472 C 1090.32 -0.385081 -2.25942 0
M  V30 11473 C 1091.32 0.481626 -1.53418 0
M  V30 11474 O 1092.51 0.286451 -1.71829 0
M  V30 11475 C 1089.64 0.449319 -3.37926 0
M  V30 11476 H 1090.84 -1.23877 -2.7312 0
M  V30 11477 H 1088.39 -0.679586 -1.40753 0
M  V30 11478 H 1089.13 1.32292 -2.9609 0
M  V30 11479 H 1088.91 -0.171731 -3.91724 0
M  V30 11480 H 1090.4 0.801746 -4.09831 0
M  V30 11481 N 1090.84 1.42931 -0.663954 0
M  V30 11482 C 1091.8 2.29197 0.0117626 0
M  V30 11483 C 1092.8 1.42767 0.739875 0
M  V30 11484 O 1093.99 1.64278 0.579509 0
M  V30 11485 C 1091.12 3.2505 1.02738 0
M  V30 11486 H 1092.32 2.90438 -0.747391 0
M  V30 11487 H 1089.87 1.5039 -0.425733 0
M  V30 11488 H 1090.6 2.68726 1.8154 0
M  V30 11489 H 1090.39 3.88785 0.508809 0
M  V30 11490 H 1091.88 3.89771 1.49893 0
M  V30 11491 N 1092.32 0.406567 1.52266 0
M  V30 11492 C 1093.55 -0.169378 2.05905 0
M  V30 11493 C 1093.95 -1.39626 1.27676 0
M  V30 11494 O 1093.3 -1.80871 0.32114 0
M  V30 11495 C 1093.36 -0.587209 3.54672 0
M  V30 11496 C 1093.02 0.528588 4.53933 0
M  V30 11497 C 1094.02 1.39137 5.00936 0
M  V30 11498 C 1091.7 0.700549 4.97391 0
M  V30 11499 C 1093.7 2.41108 5.90039 0
M  V30 11500 C 1091.39 1.72357 5.8629 0
M  V30 11501 C 1092.38 2.57725 6.32509 0
M  V30 11502 O 1092.07 3.58275 7.19649 0
M  V30 11503 H 1091.8 -0.0250574 0.675535 0
M  V30 11504 H 1094.36 0.575377 1.97177 0
M  V30 11505 H 1092.59 -1.38421 3.61077 0
M  V30 11506 H 1094.28 -1.09078 3.90969 0
M  V30 11507 H 1095.04 1.26991 4.68079 0
M  V30 11508 H 1090.92 0.0457503 4.60977 0
M  V30 11509 H 1094.47 3.07774 6.26036 0
M  V30 11510 H 1090.36 1.84535 6.1856 0
M  V30 11511 H 1091.13 3.54489 7.37753 0
M  V30 11512 N 1093.79 -1.57004 0.136909 0
M  V30 11513 C 1095.04 -1.9541 -0.51569 0
M  V30 11514 C 1095.36 -1.02219 -1.66061 0
M  V30 11515 O 1094.63 -0.0818172 -1.95729 0
M  V30 11516 H 1093.21 -0.721504 -0.193497 0
M  V30 11517 H 1095.88 -1.93765 0.210046 0
M  V30 11518 H 1094.97 -2.98887 -0.898494 0
M  V30 11519 N 1095.27 0.136881 -1.57004 0
M  V30 11520 C 1096.22 1.16869 -1.99023 0
M  V30 11521 C 1097.19 1.42137 -0.859435 0
M  V30 11522 O 1098.37 1.54303 -1.12229 0
M  V30 11523 C 1095.51 2.49466 -2.38455 0
M  V30 11524 C 1094.63 2.31286 -3.64871 0
M  V30 11525 C 1093.76 3.56989 -3.9336 0
M  V30 11526 C 1092.8 3.33889 -5.13015 0
M  V30 11527 N 1091.94 4.51748 -5.37464 0
M  V30 11528 H 1096.78 0.803366 -2.86967 0
M  V30 11529 H 1094.32 0.385216 -1.41967 0
M  V30 11530 H 1096.27 3.26794 -2.59348 0
M  V30 11531 H 1094.9 2.83926 -1.53577 0
M  V30 11532 H 1093.96 1.44962 -3.51696 0
M  V30 11533 H 1095.27 2.10183 -4.52355 0
M  V30 11534 H 1094.42 4.42742 -4.14806 0
M  V30 11535 H 1093.16 3.81106 -3.04318 0
M  V30 11536 H 1092.17 2.46525 -4.91432 0
M  V30 11537 H 1093.39 3.1116 -6.03619 0
M  V30 11538 H 1091.34 4.76019 -4.51377 0
M  V30 11539 H 1091.25 4.33684 -6.19237 0
M  V30 11540 H 1092.52 5.38686 -5.63416 0
M  V30 11541 N 1096.75 1.52266 0.40654 0
M  V30 11542 C 1097.68 1.72025 1.51459 0
M  V30 11543 C 1098.7 0.600667 1.51314 0
M  V30 11544 O 1099.88 0.875894 1.55532 0
M  V30 11545 C 1096.98 1.7479 2.90348 0
M  V30 11546 C 1096.16 3.03826 3.14656 0
M  V30 11547 C 1095.22 2.98369 4.33431 0
M  V30 11548 O 1094.24 3.7227 4.30586 0
M  V30 11549 N 1095.44 2.16338 5.38682 0
M  V30 11550 H 1098.21 2.67622 1.34903 0
M  V30 11551 H 1095.77 1.50536 0.595867 0
M  V30 11552 H 1097.76 1.68667 3.67877 0
M  V30 11553 H 1096.33 0.86656 3.00349 0
M  V30 11554 H 1095.55 3.23577 2.25148 0
M  V30 11555 H 1096.84 3.89182 3.27742 0
M  V30 11556 H 1096.24 1.55731 5.43842 0
M  V30 11557 H 1094.8 2.1607 6.14945 0
M  V30 11558 N 1098.23 -0.663929 1.42933 0
M  V30 11559 C 1099.48 -1.42393 1.43981 0
M  V30 11560 C 1099.8 -1.94407 0.0601802 0
M  V30 11561 O 1099.06 -1.72019 -0.933172 0
M  V30 11562 C 1099.36 -2.62976 2.4203 0
M  V30 11563 C 1099.02 -2.29441 3.88159 0
M  V30 11564 C 1097.69 -2.20007 4.27961 0
M  V30 11565 C 1100.04 -2.02413 4.8029 0
M  V30 11566 C 1097.37 -1.81686 5.57859 0
M  V30 11567 C 1099.72 -1.65592 6.10542 0
M  V30 11568 C 1098.38 -1.54676 6.49332 0
M  V30 11569 H 1097.65 -0.521051 0.526865 0
M  V30 11570 H 1100.3 -0.756042 1.75944 0
M  V30 11571 H 1098.6 -3.34847 2.03433 0
M  V30 11572 H 1100.3 -3.21174 2.40101 0
M  V30 11573 H 1096.89 -2.3769 3.56653 0
M  V30 11574 H 1101.07 -2.08628 4.5032 0
M  V30 11575 H 1096.33 -1.71812 5.86763 0
M  V30 11576 H 1100.5 -1.43707 6.81411 0
M  V30 11577 H 1098.13 -1.24752 7.49894 0
M  V30 11578 N 1099.71 -1.29285 -0.901281 0
M  V30 11579 C 1100.93 -1.20048 -1.68511 0
M  V30 11580 C 1101.35 0.239128 -1.8728 0
M  V30 11581 O 1100.71 1.16027 -1.40869 0
M  V30 11582 C 1100.76 -1.90798 -3.07048 0
M  V30 11583 O 1100.48 -3.29137 -2.89138 0
M  V30 11584 C 1101.98 -1.88017 -4.01453 0
M  V30 11585 H 1099.2 -0.416157 -0.52636 0
M  V30 11586 H 1101.74 -1.7063 -1.12719 0
M  V30 11587 H 1099.9 -1.44055 -3.5962 0
M  V30 11588 H 1100.31 -3.64747 -3.76908 0
M  V30 11589 H 1101.79 -2.42088 -4.96082 0
M  V30 11590 H 1102.26 -0.855341 -4.30791 0
M  V30 11591 H 1102.87 -2.34497 -3.54812 0
M  V30 11592 N 1101.18 1.11143 -1.11736 0
M  V30 11593 C 1102.6 1.64462 -0.883693 0
M  V30 11594 C 1102.95 1.87324 0.583448 0
M  V30 11595 O 1102.07 1.60975 1.44623 0
M  V30 11596 C 1102.67 2.98765 -1.59764 0
M  V30 11597 C 1101.23 3.4898 -1.41032 0
M  V30 11598 C 1100.37 2.23729 -1.63831 0
M  V30 11599 H 1103.32 0.947415 -1.27317 0
M  V30 11600 H 1103.34 3.65885 -1.04443 0
M  V30 11601 H 1102.86 2.82094 -2.66542 0
M  V30 11602 H 1100.96 3.7081 -0.364781 0
M  V30 11603 H 1101.07 4.27571 -2.16148 0
M  V30 11604 H 1099.43 2.31507 -1.06191 0
M  V30 11605 H 1100.22 2.09597 -2.7189 0
M  V30 11606 N 1102.66 0.908147 1.28804 0
M  V30 11607 C 1103.9 0.545425 1.96989 0
M  V30 11608 C 1104.27 -0.893226 1.69957 0
M  V30 11609 O 1105.47 -1.36324 2.31666 0
M  V30 11610 C 1103.74 0.83953 3.474 0
M  V30 11611 S 1105.3 0.582385 4.34918 0
M  V30 11612 H 1102.12 0.202027 0.681693 0
M  V30 11613 H 1104.72 1.1724 1.56445 0
M  V30 11614 H 1103.42 1.88463 3.64568 0
M  V30 11615 H 1102.95 0.200999 3.92886 0
M  V30 11616 H 1104.97 -0.568807 4.92929 0
M  V30 11617 N 1104.14 -1.42577 0.671525 0
M  V30 11618 C 1105.07 -2.2915 -0.0477361 0
M  V30 11619 C 1106.09 -1.43503 -0.768805 0
M  V30 11620 O 1107.27 -1.67256 -0.623509 0
M  V30 11621 C 1104.37 -3.20851 -1.09122 0
M  V30 11622 C 1103.55 -4.35134 -0.44463 0
M  V30 11623 C 1102.61 -5.07579 -1.38745 0
M  V30 11624 O 1101.63 -5.62215 -0.889015 0
M  V30 11625 N 1102.83 -5.12786 -2.72086 0
M  V30 11626 H 1105.6 -2.9152 0.695415 0
M  V30 11627 H 1103.16 -1.53467 0.515689 0
M  V30 11628 H 1105.15 -3.66183 -1.72315 0
M  V30 11629 H 1103.72 -2.59956 -1.73614 0
M  V30 11630 H 1102.94 -3.9249 0.36675 0
M  V30 11631 H 1104.23 -5.088 0.00595927 0
M  V30 11632 H 1103.63 -4.69802 -3.15123 0
M  V30 11633 H 1102.19 -5.61774 -3.30535 0
M  V30 11634 N 1105.62 -0.414636 -1.52048 0
M  V30 11635 C 1106.55 0.399119 -2.30064 0
M  V30 11636 C 1107.53 1.04126 -1.34506 0
M  V30 11637 O 1108.71 1.04923 -1.63416 0
M  V30 11638 C 1105.84 1.51305 -3.12608 0
M  V30 11639 C 1104.8 0.995621 -4.16259 0
M  V30 11640 C 1104.12 2.20357 -4.87183 0
M  V30 11641 C 1105.42 0.0458178 -5.2228 0
M  V30 11642 H 1107.12 -0.251879 -2.98339 0
M  V30 11643 H 1104.66 -0.122579 -1.43477 0
M  V30 11644 H 1106.62 2.08936 -3.65956 0
M  V30 11645 H 1105.34 2.19201 -2.42113 0
M  V30 11646 H 1104 0.441676 -3.6393 0
M  V30 11647 H 1103.65 2.8682 -4.13211 0
M  V30 11648 H 1103.35 1.86385 -5.57256 0
M  V30 11649 H 1104.87 2.78584 -5.43345 0
M  V30 11650 H 1106.29 0.531102 -5.70835 0
M  V30 11651 H 1104.68 -0.20536 -5.99749 0
M  V30 11652 H 1105.75 -0.897807 -4.76516 0
M  V30 11653 N 1107.1 1.56929 -0.145233 0
M  V30 11654 C 1108.03 2.19685 0.791263 0
M  V30 11655 C 1109.01 1.14455 1.25833 0
M  V30 11656 O 1110.19 1.42791 1.31622 0
M  V30 11657 C 1107.32 2.81705 2.03124 0
M  V30 11658 C 1106.28 3.92746 1.70101 0
M  V30 11659 C 1105.6 4.41694 3.01347 0
M  V30 11660 C 1106.9 5.13606 0.949025 0
M  V30 11661 H 1108.6 2.98196 0.26825 0
M  V30 11662 H 1106.14 1.43434 0.127584 0
M  V30 11663 H 1108.1 3.24273 2.69119 0
M  V30 11664 H 1106.82 2.00523 2.57795 0
M  V30 11665 H 1105.48 3.50794 1.06486 0
M  V30 11666 H 1105.13 3.57336 3.54006 0
M  V30 11667 H 1104.83 5.1659 2.80016 0
M  V30 11668 H 1106.35 4.86931 3.68416 0
M  V30 11669 H 1107.76 5.53029 1.51102 0
M  V30 11670 H 1106.16 5.94252 0.835711 0
M  V30 11671 H 1107.23 4.84863 -0.0595631 0
M  V30 11672 N 1108.58 -0.128553 1.57075 0
M  V30 11673 C 1109.54 -1.14215 1.98715 0
M  V30 11674 C 1110.54 -1.34843 0.876019 0
M  V30 11675 O 1111.73 -1.31522 1.14227 0
M  V30 11676 C 1108.86 -2.49865 2.31905 0
M  V30 11677 H 1110.05 -0.784481 2.89458 0
M  V30 11678 H 1107.61 -0.372531 1.51796 0
M  V30 11679 H 1108.34 -2.9057 1.44012 0
M  V30 11680 H 1108.13 -2.3625 3.12935 0
M  V30 11681 H 1109.62 -3.22832 2.64895 0
M  V30 11682 N 1110.05 -1.5248 -0.398459 0
M  V30 11683 C 1111.33 -1.57634 -1.15805 0
M  V30 11684 C 1111.71 -0.363785 -2.07942 0
M  V30 11685 O 1111.06 0.648598 -2.19101 0
M  V30 11686 C 1111.27 -2.91042 -1.92602 0
M  V30 11687 C 1112.62 -3.44433 -2.48296 0
M  V30 11688 O 1113.64 -2.92853 -2.0277 0
M  V30 11689 O 1112.5 -4.34529 -3.31432 0
M  V30 11690 H 1109.59 -0.63539 -0.529347 0
M  V30 11691 H 1112.14 -1.64812 -0.404376 0
M  V30 11692 H 1110.91 -3.7074 -1.25169 0
M  V30 11693 H 1110.53 -2.87206 -2.74952 0
M  V30 11694 N 1111.53 0.65634 -1.43283 0
M  V30 11695 C 1112.48 1.76243 -1.44646 0
M  V30 11696 C 1113.47 1.5778 -0.31532 0
M  V30 11697 O 1114.66 1.67945 -0.558881 0
M  V30 11698 C 1111.79 3.14813 -1.36921 0
M  V30 11699 C 1110.87 3.38835 -2.55053 0
M  V30 11700 N 1111.26 3.33345 -3.80414 0
M  V30 11701 C 1109.56 3.69542 -2.4971 0
M  V30 11702 C 1110.26 3.57361 -4.58986 0
M  V30 11703 N 1109.24 3.79022 -3.8967 0
M  V30 11704 H 1113.04 1.70419 -2.39447 0
M  V30 11705 H 1110.55 0.85789 -1.37891 0
M  V30 11706 H 1112.55 3.941 -1.3598 0
M  V30 11707 H 1111.21 3.21822 -0.431381 0
M  V30 11708 H 1112.22 3.12827 -4.12747 0
M  V30 11709 H 1108.9 3.83684 -1.64598 0
M  V30 11710 H 1110.29 3.58921 -5.68001 0
M  V30 11711 N 1113.01 1.29761 0.894412 0
M  V30 11712 C 1113.97 1.15335 1.98067 0
M  V30 11713 C 1114.97 0.0872804 1.60563 0
M  V30 11714 O 1116.16 0.334645 1.70955 0
M  V30 11715 C 1113.29 0.764907 3.32208 0
M  V30 11716 H 1114.49 2.11829 2.12293 0
M  V30 11717 H 1112.04 1.13023 1.0796 0
M  V30 11718 H 1112.78 -0.199948 3.23683 0
M  V30 11719 H 1112.56 1.53523 3.60795 0
M  V30 11720 H 1114.05 0.687176 4.11907 0
M  V30 11721 N 1114.49 -1.10549 1.12324 0
M  V30 11722 C 1115.44 -2.18944 0.785248 0
M  V30 11723 C 1116.43 -1.67867 -0.227389 0
M  V30 11724 O 1117.64 -1.79796 -0.0857162 0
M  V30 11725 H 1114.01 -0.713976 0.236098 0
M  V30 11726 H 1115.98 -2.44692 1.70788 0
M  V30 11727 C 1114.73 -3.46765 0.25485 0
M  V30 11728 H 1114.05 -3.86428 1.02534 0
M  V30 11729 H 1115.49 -4.23962 0.0566526 0
M  V30 11730 C 1113.95 -3.21185 -1.01695 0
M  V30 11731 O 1114.48 -3.42745 -2.09497 0
M  V30 11732 N 1112.69 -2.7486 -0.943423 0
M  V30 11733 H 1112.24 -2.57515 -0.0660366 0
M  V30 11734 H 1112.19 -2.58122 -1.795 0
M  V30 11735 N 1115.97 -0.914965 -1.28321 0
M  V30 11736 C 1117.19 -0.564023 -1.99583 0
M  V30 11737 C 1117.62 0.847821 -1.6791 0
M  V30 11738 O 1116.97 1.56682 -0.912171 0
M  V30 11739 C 1117.02 -0.781368 -3.52033 0
M  V30 11740 O 1116.13 0.159072 -4.12093 0
M  V30 11741 H 1115.47 -0.218565 -0.626997 0
M  V30 11742 H 1118 -1.23074 -1.63444 0
M  V30 11743 H 1118.01 -0.691946 -4.0209 0
M  V30 11744 H 1116.68 -1.81059 -3.7442 0
M  V30 11745 H 1115.26 0.0208145 -3.72894 0
M  V30 11746 N 1117.44 1.42219 -0.679077 0
M  V30 11747 C 1118.85 1.8459 -0.279877 0
M  V30 11748 C 1119.21 1.56839 1.17881 0
M  V30 11749 O 1118.33 1.03039 1.90294 0
M  V30 11750 C 1118.93 3.35072 -0.501185 0
M  V30 11751 C 1117.48 3.76076 -0.156065 0
M  V30 11752 C 1116.63 2.65763 -0.791549 0
M  V30 11753 H 1119.58 1.32005 -0.880932 0
M  V30 11754 H 1119.6 3.79708 0.245349 0
M  V30 11755 H 1119.12 3.55239 -1.56291 0
M  V30 11756 H 1117.22 3.61516 0.90205 0
M  V30 11757 H 1117.33 4.75334 -0.599572 0
M  V30 11758 H 1115.69 2.53726 -0.222514 0
M  V30 11759 H 1116.48 2.88751 -1.85682 0
M  V30 11760 N 1118.92 0.422693 1.51826 0
M  V30 11761 C 1119.87 -0.41063 2.28947 0
M  V30 11762 C 1120.86 -1.03389 1.34191 0
M  V30 11763 O 1122.07 -0.970533 1.51594 0
M  V30 11764 H 1118.44 -0.151219 0.736639 0
M  V30 11765 H 1120.42 0.260859 2.97258 0
M  V30 11766 C 1119.16 -1.50758 3.13317 0
M  V30 11767 H 1118.49 -1.03734 3.86108 0
M  V30 11768 H 1119.93 -2.0642 3.7036 0
M  V30 11769 C 1118.39 -2.48261 2.27746 0
M  V30 11770 O 1118.92 -3.52462 1.92701 0
M  V30 11771 N 1117.12 -2.18795 1.91251 0
M  V30 11772 H 1116.67 -1.34088 2.1995 0
M  V30 11773 H 1116.63 -2.84276 1.34293 0
M  V30 11774 N 1120.4 -1.5685 0.153553 0
M  V30 11775 C 1121.35 -2.1709 -0.783626 0
M  V30 11776 C 1122.32 -1.10567 -1.23952 0
M  V30 11777 O 1123.5 -1.38638 -1.31088 0
M  V30 11778 C 1120.64 -2.80183 -2.01473 0
M  V30 11779 C 1119.75 -4.01117 -1.60403 0
M  V30 11780 C 1118.89 -4.5219 -2.78743 0
M  V30 11781 C 1117.93 -5.65574 -2.34079 0
M  V30 11782 N 1117.07 -6.11235 -3.4545 0
M  V30 11783 H 1121.91 -2.96836 -0.263127 0
M  V30 11784 H 1119.44 -1.46625 -0.11816 0
M  V30 11785 H 1121.4 -3.14912 -2.73654 0
M  V30 11786 H 1120.03 -2.03071 -2.50923 0
M  V30 11787 H 1119.08 -3.72325 -0.779631 0
M  V30 11788 H 1120.39 -4.83243 -1.23605 0
M  V30 11789 H 1119.55 -4.89008 -3.59105 0
M  V30 11790 H 1118.29 -3.69085 -3.18791 0
M  V30 11791 H 1117.29 -5.28326 -1.52158 0
M  V30 11792 H 1118.52 -6.50468 -1.95109 0
M  V30 11793 H 1116.46 -5.31064 -3.85106 0
M  V30 11794 H 1116.38 -6.88304 -3.12687 0
M  V30 11795 H 1117.65 -6.527 -4.26149 0
M  V30 11796 N 1121.88 0.120221 -1.57141 0
M  V30 11797 C 1122.82 1.14751 -2.00252 0
M  V30 11798 C 1123.79 1.41217 -0.874462 0
M  V30 11799 O 1124.98 1.53104 -1.13859 0
M  V30 11800 C 1122.12 2.46923 -2.41087 0
M  V30 11801 C 1121.23 2.27403 -3.67303 0
M  V30 11802 C 1120.37 3.52797 -3.97125 0
M  V30 11803 C 1119.41 3.28429 -5.16528 0
M  V30 11804 N 1118.54 4.46022 -5.42226 0
M  V30 11805 H 1123.38 0.772884 -2.87803 0
M  V30 11806 H 1120.92 0.370137 -1.42367 0
M  V30 11807 H 1122.88 3.24025 -2.62799 0
M  V30 11808 H 1121.51 2.82281 -1.5658 0
M  V30 11809 H 1120.56 1.41224 -3.53214 0
M  V30 11810 H 1121.87 2.05373 -4.54558 0
M  V30 11811 H 1121.03 4.38318 -4.19479 0
M  V30 11812 H 1119.77 3.77857 -3.08343 0
M  V30 11813 H 1118.77 2.41299 -4.94019 0
M  V30 11814 H 1120 3.0474 -6.06886 0
M  V30 11815 H 1117.94 4.71205 -4.56401 0
M  V30 11816 H 1117.86 4.27092 -6.23802 0
M  V30 11817 H 1119.13 5.3268 -5.69098 0
M  V30 11818 N 1123.36 1.52689 0.390367 0
M  V30 11819 C 1124.6 1.67666 1.13553 0
M  V30 11820 C 1124.93 0.415903 1.90001 0
M  V30 11821 O 1124.19 -0.601664 1.86222 0
M  V30 11822 C 1124.49 2.86177 2.14096 0
M  V30 11823 C 1124.15 4.23671 1.54316 0
M  V30 11824 C 1122.81 4.61066 1.37739 0
M  V30 11825 C 1125.17 5.09278 1.1084 0
M  V30 11826 C 1122.49 5.81727 0.76231 0
M  V30 11827 C 1124.85 6.30562 0.507433 0
M  V30 11828 C 1123.51 6.66689 0.328945 0
M  V30 11829 H 1122.78 0.613533 0.415521 0
M  V30 11830 H 1125.43 1.8683 0.420339 0
M  V30 11831 H 1123.73 2.61424 2.9183 0
M  V30 11832 H 1125.43 2.9496 2.7166 0
M  V30 11833 H 1122.02 3.94214 1.68207 0
M  V30 11834 H 1126.2 4.80957 1.2245 0
M  V30 11835 H 1121.46 6.08327 0.612208 0
M  V30 11836 H 1125.63 6.96211 0.162248 0
M  V30 11837 H 1123.26 7.60052 -0.149748 0
M  V30 11838 N 1124.83 -0.648732 1.43629 0
M  V30 11839 C 1126.06 -1.43412 1.48716 0
M  V30 11840 C 1126.47 -1.88908 0.105051 0
M  V30 11841 O 1125.82 -1.60373 -0.895896 0
M  V30 11842 C 1125.88 -2.69906 2.37468 0
M  V30 11843 C 1125.54 -2.46321 3.84935 0
M  V30 11844 C 1126.54 -2.09259 4.75927 0
M  V30 11845 C 1124.22 -2.60506 4.29467 0
M  V30 11846 C 1126.22 -1.86686 6.09448 0
M  V30 11847 C 1123.9 -2.37548 5.6304 0
M  V30 11848 C 1124.9 -2.00694 6.52848 0
M  V30 11849 O 1124.59 -1.77979 7.83951 0
M  V30 11850 H 1124.32 -0.446883 0.507219 0
M  V30 11851 H 1126.88 -0.802218 1.89086 0
M  V30 11852 H 1125.11 -3.35672 1.91993 0
M  V30 11853 H 1126.8 -3.31867 2.33707 0
M  V30 11854 H 1127.56 -1.97872 4.428 0
M  V30 11855 H 1123.44 -2.88165 3.59836 0
M  V30 11856 H 1126.98 -1.57844 6.79508 0
M  V30 11857 H 1122.88 -2.48539 5.95734 0
M  V30 11858 H 1123.65 -1.92368 7.95573 0
M  V30 11859 N 1126.31 -1.30234 -0.887518 0
M  V30 11860 C 1127.24 -1.12212 -1.99853 0
M  V30 11861 C 1128.26 -0.0660929 -1.62666 0
M  V30 11862 O 1129.45 -0.311853 -1.75755 0
M  V30 11863 C 1126.55 -0.688591 -3.31831 0
M  V30 11864 C 1125.72 -1.82581 -3.97471 0
M  V30 11865 C 1124.78 -1.38126 -5.07748 0
M  V30 11866 O 1123.8 -2.08805 -5.29518 0
M  V30 11867 N 1125.01 -0.258868 -5.79923 0
M  V30 11868 H 1127.77 -2.07901 -2.15864 0
M  V30 11869 H 1125.33 -1.22336 -1.06045 0
M  V30 11870 H 1127.32 -0.374252 -4.02966 0
M  V30 11871 H 1125.89 0.176185 -3.12103 0
M  V30 11872 H 1125.11 -2.3084 -3.19541 0
M  V30 11873 H 1126.4 -2.58798 -4.38065 0
M  V30 11874 H 1125.8 0.330131 -5.64736 0
M  V30 11875 H 1124.36 -0.00396813 -6.518 0
M  V30 11876 O 1127.83 1.02351 -1.24926 0
M  V30 11877 H 1128.52 1.64072 -1.02957 0
M  V30 END ATOM
M  V30 BEGIN BOND
M  V30 END BOND
M  V30 END CTAB
M  END
$$$$
