drugbank_target|P41022 Urease subunit gamma (DB02899)
 OpenBabel12092120443D

  0  0  0     0  0            999 V3000
M  V30 BEGIN CTAB
M  V30 COUNTS 1582 1593 0 0 0
M  V30 BEGIN ATOM
M  V30 1 H -0.908 1.98254 -0.117106 0
M  V30 2 N 0 1.576 0 0
M  V30 3 C 0.933 2.03868 1.02534 0
M  V30 4 C 1.911 0.928543 1.3348 0
M  V30 5 O 3.095 1.19667 1.45644 0
M  V30 6 C 0.222 2.43627 2.35294 0
M  V30 7 C -0.732 3.65373 2.2001 0
M  V30 8 S 0.101 5.13292 1.52614 0
M  V30 9 C 1.257 5.56322 2.86805 0
M  V30 10 H 1.49 2.90518 0.631377 0
M  V30 11 H -0.977 1.52953 0.210867 0
M  V30 12 H 0.981 2.67203 3.11629 0
M  V30 13 H -0.358 1.57376 2.7183 0
M  V30 14 H -1.165 3.90944 3.18086 0
M  V30 15 H -1.563 3.418 1.51819 0
M  V30 16 H 0.729 5.58782 3.83104 0
M  V30 17 H 1.672 6.56266 2.65933 0
M  V30 18 H 2.08 4.83886 2.90714 0
M  V30 19 N 1.4781 -0.272755 1.55222 0
M  V30 20 C 2.4281 -1.33946 1.84506 0
M  V30 21 C 3.4121 -1.44682 0.70399 0
M  V30 22 O 4.6041 -1.48358 0.965338 0
M  V30 23 C 1.7331 -2.69968 2.12067 0
M  V30 24 C 0.8191 -2.63341 3.32434 0
M  V30 25 N 1.2101 -2.26335 4.52334 0
M  V30 26 C -0.4919 -2.94402 3.35028 0
M  V30 27 C 0.2091 -2.29705 5.34425 0
M  V30 28 N -0.8149 -2.68188 4.72838 0
M  V30 29 H 2.9871 -1.04343 2.74754 0
M  V30 30 H 0.5011 -0.481389 1.55101 0
M  V30 31 H 2.4981 -3.46916 2.31202 0
M  V30 32 H 1.1581 -3.00459 1.23103 0
M  V30 33 H 2.1691 -1.98309 4.78429 0
M  V30 34 H -1.1539 -3.29603 2.56257 0
M  V30 35 H 0.2361 -2.03653 6.40293 0
M  V30 36 N 2.9562 -1.48159 -0.537278 0
M  V30 37 C 3.8862 -1.65029 -1.6519 0
M  V30 38 C 4.8672 -0.499281 -1.62607 0
M  V30 39 O 6.0522 -0.730972 -1.79918 0
M  V30 40 C 3.1822 -1.68303 -3.03795 0
M  V30 41 C 2.1362 -2.8283 -3.21234 0
M  V30 42 C 1.4622 -2.71189 -4.60826 0
M  V30 43 C 2.7622 -4.24211 -3.04701 0
M  V30 44 H 4.4562 -2.58341 -1.51328 0
M  V30 45 H 2.0022 -1.24325 -0.726585 0
M  V30 46 H 3.9552 -1.78693 -3.81637 0
M  V30 47 H 2.6792 -0.715635 -3.18663 0
M  V30 48 H 1.3382 -2.71983 -2.45807 0
M  V30 49 H 0.9862 -1.72435 -4.7252 0
M  V30 50 H 0.6862 -3.48035 -4.7344 0
M  V30 51 H 2.2102 -2.83537 -5.40777 0
M  V30 52 H 3.6242 -4.3593 -3.72341 0
M  V30 53 H 2.0212 -5.01998 -3.28813 0
M  V30 54 H 3.0912 -4.41184 -2.01209 0
M  V30 55 N 4.4343 0.785586 -1.36625 0
M  V30 56 C 5.3823 1.91978 -1.31329 0
M  V30 57 C 6.3763 1.68162 -0.204416 0
M  V30 58 O 7.5823 1.76122 -0.371645 0
M  V30 59 H 3.9573 0.631087 -0.408942 0
M  V30 60 H 5.9283 1.93562 -2.27104 0
M  V30 61 C 4.6773 3.29055 -1.12329 0
M  V30 62 H 4.0003 3.4795 -1.96903 0
M  V30 63 H 5.4403 4.08756 -1.12671 0
M  V30 64 C 3.8993 3.36461 0.171861 0
M  V30 65 O 4.4293 3.84576 1.16035 0
M  V30 66 N 2.6353 2.89782 0.217846 0
M  V30 67 H 2.1823 2.50819 -0.587183 0
M  V30 68 H 2.1403 2.95119 1.08408 0
M  V30 69 N 5.9124 1.20967 1.01018 0
M  V30 70 C 7.3234 1.02319 1.56165 0
M  V30 71 C 7.6744 -0.418546 1.91684 0
M  V30 72 O 6.7994 -1.30096 1.72928 0
M  V30 73 C 7.3944 1.85109 2.8376 0
M  V30 74 C 5.9534 1.70809 3.35412 0
M  V30 75 C 5.1004 1.82643 2.08655 0
M  V30 76 H 8.0514 1.35065 0.833255 0
M  V30 77 H 8.0724 1.35827 3.55431 0
M  V30 78 H 7.5844 2.90035 2.57878 0
M  V30 79 H 5.6854 0.685464 3.66241 0
M  V30 80 H 5.7984 2.52467 4.07182 0
M  V30 81 H 4.1624 1.25896 2.21409 0
M  V30 82 H 4.9454 2.89066 1.85191 0
M  V30 83 N 7.3905 -1.2043 1.01659 0
M  V30 84 C 8.3535 -2.21433 0.591616 0
M  V30 85 C 9.3535 -1.57203 -0.338226 0
M  V30 86 O 10.5435 -1.73737 -0.126918 0
M  V30 87 C 7.6755 -3.40628 -0.136058 0
M  V30 88 H 8.8685 -2.60545 1.48514 0
M  V30 89 H 6.4215 -1.33893 0.806379 0
M  V30 90 H 7.1565 -3.07019 -1.04449 0
M  V30 91 H 6.9415 -3.88475 0.531917 0
M  V30 92 H 8.4315 -4.15475 -0.420735 0
M  V30 93 N 8.8686 -0.792821 -1.36206 0
M  V30 94 C 9.7786 -0.194808 -2.3379 0
M  V30 95 C 10.7946 0.654869 -1.61206 0
M  V30 96 O 11.9706 0.569856 -1.9317 0
M  V30 97 C 9.0356 0.657721 -3.40404 0
M  V30 98 C 8.0966 -0.210849 -4.28782 0
M  V30 99 C 7.3296 0.601086 -5.30304 0
M  V30 100 O 7.5526 1.83682 -5.40016 0
M  V30 101 O 6.4866 -0.000808277 -6.019 0
M  V30 102 H 10.3126 -1.00172 -2.86704 0
M  V30 103 H 7.8976 -0.554341 -1.38735 0
M  V30 104 H 9.7796 1.14375 -4.05581 0
M  V30 105 H 8.4546 1.44247 -2.89784 0
M  V30 106 H 7.3616 -0.743714 -3.66633 0
M  V30 107 H 8.6946 -0.959195 -4.82763 0
M  V30 108 N 10.3467 1.47872 -0.545128 0
M  V30 109 C 11.2937 2.29849 0.2093 0
M  V30 110 C 12.2637 1.38313 0.919707 0
M  V30 111 O 13.4487 1.67277 0.917772 0
M  V30 112 C 10.5887 3.22019 1.24088 0
M  V30 113 C 9.7017 4.2864 0.537778 0
M  V30 114 C 8.8367 5.07973 1.5536 0
M  V30 115 C 7.8757 6.06381 0.8348 0
M  V30 116 N 7.0127 6.78717 1.79688 0
M  V30 117 H 11.8527 2.93845 -0.49591 0
M  V30 118 H 9.3897 1.44848 -0.256389 0
M  V30 119 H 11.3477 3.73868 1.85144 0
M  V30 120 H 9.9777 2.59914 1.91428 0
M  V30 121 H 9.0297 3.7994 -0.187046 0
M  V30 122 H 10.3417 4.98793 -0.0258907 0
M  V30 123 H 9.4957 5.63912 2.23803 0
M  V30 124 H 8.2347 4.37693 2.15118 0
M  V30 125 H 7.2397 5.49631 0.136388 0
M  V30 126 H 8.4647 6.78665 0.24313 0
M  V30 127 H 6.4107 6.11177 2.38326 0
M  V30 128 H 6.3277 7.44998 1.28505 0
M  V30 129 H 7.5957 7.39237 2.47282 0
M  V30 130 N 11.8248 0.280983 1.55075 0
M  V30 131 C 12.7348 -0.61388 2.26426 0
M  V30 132 C 13.7508 -1.16521 1.29224 0
M  V30 133 O 14.9268 -1.19426 1.62171 0
M  V30 134 C 11.9918 -1.7788 2.9759 0
M  V30 135 C 11.0528 -1.26355 4.10284 0
M  V30 136 C 10.2858 -2.37295 4.78045 0
M  V30 137 O 10.5088 -3.56777 4.45047 0
M  V30 138 O 9.4428 -2.05119 5.65871 0
M  V30 139 H 13.2688 -0.0356932 3.03679 0
M  V30 140 H 10.8538 0.0481686 1.49322 0
M  V30 141 H 12.7358 -2.45791 3.42293 0
M  V30 142 H 11.4108 -2.34397 2.23249 0
M  V30 143 H 10.3178 -0.550735 3.70024 0
M  V30 144 H 11.6508 -0.744065 4.86543 0
M  V30 145 N 13.3029 -1.57598 0.00835791 0
M  V30 146 C 14.2499 -2.08945 -0.980346 0
M  V30 147 C 15.2199 -0.986738 -1.33614 0
M  V30 148 O 16.4049 -1.25968 -1.43306 0
M  V30 149 C 13.5449 -2.60425 -2.26435 0
M  V30 150 C 12.6579 -3.84628 -1.96685 0
M  V30 151 C 11.7929 -4.24579 -3.19228 0
M  V30 152 C 10.8319 -5.41596 -2.85202 0
M  V30 153 N 9.9689 -5.768 -4.00307 0
M  V30 154 H 14.8089 -2.93148 -0.535551 0
M  V30 155 H 12.3459 -1.44912 -0.252776 0
M  V30 156 H 14.3039 -2.88354 -3.01509 0
M  V30 157 H 12.9339 -1.79083 -2.68568 0
M  V30 158 H 11.9859 -3.63556 -1.11942 0
M  V30 159 H 13.2979 -4.69796 -1.67611 0
M  V30 160 H 12.4519 -4.53834 -4.02641 0
M  V30 161 H 11.1909 -3.38137 -3.51447 0
M  V30 162 H 10.1959 -5.12056 -2.00198 0
M  V30 163 H 11.4209 -6.29721 -2.54222 0
M  V30 164 H 9.3669 -4.93316 -4.32407 0
M  V30 165 H 9.2839 -6.5656 -3.74786 0
M  V30 166 H 10.5519 -6.10652 -4.84484 0
M  V30 167 N 14.781 0.264519 -1.55364 0
M  V30 168 C 15.711 1.33121 -1.91836 0
M  V30 169 C 16.692 1.51101 -0.781192 0
M  V30 170 O 17.877 1.64003 -1.04003 0
M  V30 171 C 15.007 2.68921 -2.19769 0
M  V30 172 C 13.961 2.65661 -3.35571 0
M  V30 173 C 13.287 4.05093 -3.49004 0
M  V30 174 C 14.587 2.24187 -4.71739 0
M  V30 175 H 16.281 1.02844 -2.81182 0
M  V30 176 H 13.827 0.493286 -1.35287 0
M  V30 177 H 15.78 3.43663 -2.43872 0
M  V30 178 H 14.504 3.00799 -1.27231 0
M  V30 179 H 13.163 1.93377 -3.1145 0
M  V30 180 H 12.811 4.34206 -2.53917 0
M  V30 181 H 12.511 4.03804 -4.26868 0
M  V30 182 H 14.035 4.81561 -3.75408 0
M  V30 183 H 15.449 2.88654 -4.9533 0
M  V30 184 H 13.846 2.34044 -5.52579 0
M  V30 185 H 14.916 1.19327 -4.69988 0
M  V30 186 N 16.2591 1.48442 0.529413 0
M  V30 187 C 17.1911 1.59095 1.64989 0
M  V30 188 C 18.2041 0.475212 1.5571 0
M  V30 189 O 19.3931 0.746081 1.6216 0
M  V30 190 C 16.4931 1.50518 3.0364 0
M  V30 191 C 15.6661 2.77142 3.38395 0
M  V30 192 C 14.7251 2.62012 4.56329 0
M  V30 193 O 13.7511 3.35898 4.59522 0
M  V30 194 N 14.9531 1.71667 5.54536 0
M  V30 195 H 17.7181 2.55723 1.56287 0
M  V30 196 H 15.2791 1.45173 0.716697 0
M  V30 197 H 17.2711 1.38091 3.80412 0
M  V30 198 H 15.8411 0.618627 3.06418 0
M  V30 199 H 15.0611 3.0413 2.50796 0
M  V30 200 H 16.3491 3.61146 3.58401 0
M  V30 201 H 15.7471 1.10841 5.54735 0
M  V30 202 H 14.3041 1.65178 6.30523 0
M  V30 203 N 17.7372 -0.778329 1.37039 0
M  V30 204 C 18.9862 -1.53189 1.3121 0
M  V30 205 C 19.2992 -1.95328 -0.103095 0
M  V30 206 O 20.5052 -2.70012 -0.283826 0
M  V30 207 C 18.9612 -2.76591 2.30272 0
M  V30 208 C 18.5692 -2.41577 3.77286 0
M  V30 209 C 20.3132 -3.5455 2.33441 0
M  V30 210 C 18.2202 -3.61441 4.68096 0
M  V30 211 H 17.1502 -0.5751 0.487622 0
M  V30 212 H 19.8012 -0.853101 1.62464 0
M  V30 213 H 18.1832 -3.46326 1.92027 0
M  V30 214 H 19.3572 -1.79668 4.2433 0
M  V30 215 H 17.6722 -1.76806 3.76999 0
M  V30 216 H 20.2692 -4.43628 2.98493 0
M  V30 217 H 20.6122 -3.93936 1.34611 0
M  V30 218 H 21.1452 -2.91805 2.7036 0
M  V30 219 H 17.8842 -3.27142 5.6803 0
M  V30 220 H 17.4042 -4.22478 4.25761 0
M  V30 221 H 19.0832 -4.28335 4.8491 0
M  V30 222 N 19.2153 -1.21501 -1.00376 0
M  V30 223 C 20.4623 -1.03299 -1.74171 0
M  V30 224 C 20.7903 0.433326 -1.89612 0
M  V30 225 O 20.0453 1.33779 -1.42834 0
M  V30 226 C 20.3443 -1.67673 -3.15627 0
M  V30 227 C 20.0103 -3.17533 -3.2013 0
M  V30 228 C 18.6723 -3.58427 -3.21067 0
M  V30 229 C 21.0243 -4.13504 -3.17275 0
M  V30 230 C 18.3523 -4.93794 -3.16835 0
M  V30 231 C 20.7043 -5.48834 -3.14585 0
M  V30 232 C 19.3683 -5.89123 -3.13831 0
M  V30 233 H 18.6383 -0.377999 -0.637336 0
M  V30 234 H 21.2853 -1.51111 -1.17634 0
M  V30 235 H 19.5903 -1.12158 -3.75404 0
M  V30 236 H 21.2873 -1.51091 -3.71446 0
M  V30 237 H 17.8773 -2.84965 -3.20145 0
M  V30 238 H 22.0613 -3.82936 -3.15711 0
M  V30 239 H 17.3173 -5.24255 -3.1459 0
M  V30 240 H 21.4913 -6.22934 -3.1133 0
M  V30 241 H 19.1183 -6.93984 -3.10307 0
M  V30 242 N 20.6934 1.19889 -1.02296 0
M  V30 243 C 21.6234 2.25141 -0.619174 0
M  V30 244 C 22.6044 1.66051 0.368915 0
M  V30 245 O 23.7894 1.92546 0.252941 0
M  V30 246 C 20.9194 3.4728 0.0368783 0
M  V30 247 C 19.8734 4.19005 -0.872865 0
M  V30 248 C 19.1994 5.34637 -0.0822402 0
M  V30 249 C 20.4994 4.74452 -2.18387 0
M  V30 250 H 22.1934 2.59171 -1.49903 0
M  V30 251 H 19.7394 1.24579 -0.722222 0
M  V30 252 H 21.6924 4.20098 0.330958 0
M  V30 253 H 20.4164 3.12433 0.95149 0
M  V30 254 H 19.0754 3.48061 -1.15105 0
M  V30 255 H 18.7234 4.96034 0.83422 0
M  V30 256 H 18.4234 5.83557 -0.688149 0
M  V30 257 H 19.9474 6.10255 0.205238 0
M  V30 258 H 21.3614 5.39055 -1.95172 0
M  V30 259 H 19.7584 5.33834 -2.74119 0
M  V30 260 H 20.8284 3.92844 -2.84257 0
M  V30 261 N 22.1715 0.800033 1.35784 0
M  V30 262 C 23.1345 0.211565 2.28221 0
M  V30 263 C 24.1345 -0.59728 1.49296 0
M  V30 264 O 25.3245 -0.416721 1.69142 0
M  V30 265 C 22.4565 -0.705846 3.33513 0
M  V30 266 H 23.6495 1.02677 2.81776 0
M  V30 267 H 21.2025 0.570211 1.45528 0
M  V30 268 H 21.9375 -1.54498 2.85133 0
M  V30 269 H 21.7225 -0.127655 3.91892 0
M  V30 270 H 23.2125 -1.11211 4.02519 0
M  V30 271 N 23.6496 -1.47581 0.552962 0
M  V30 272 C 24.8746 -2.07378 0.0300593 0
M  V30 273 C 25.2996 -1.40355 -1.25229 0
M  V30 274 O 24.6576 -0.477099 -1.7491 0
M  V30 275 C 24.7056 -3.60274 -0.153231 0
M  V30 276 O 23.8096 -3.94041 -1.21678 0
M  V30 277 H 23.1506 -0.662158 0.0494182 0
M  V30 278 H 25.6806 -1.89662 0.767434 0
M  V30 279 H 25.6906 -4.0633 -0.368761 0
M  V30 280 H 24.3656 -4.08455 0.783397 0
M  V30 281 H 22.9426 -3.59735 -0.982079 0
M  V30 282 N 25.1277 -0.289203 -1.54924 0
M  V30 283 C 26.0377 0.601863 -2.26748 0
M  V30 284 C 27.0537 1.15834 -1.2984 0
M  V30 285 O 28.2297 1.18564 -1.62802 0
M  V30 286 C 25.2947 1.76299 -2.98529 0
M  V30 287 C 24.3557 1.24178 -4.10948 0
M  V30 288 C 23.5887 2.34757 -4.79296 0
M  V30 289 O 23.8117 3.54411 -4.46933 0
M  V30 290 O 22.7457 2.02115 -5.66951 0
M  V30 291 H 26.5717 0.0195879 -3.03694 0
M  V30 292 H 24.1567 -0.0560868 -1.49295 0
M  V30 293 H 26.0387 2.43973 -3.43592 0
M  V30 294 H 24.7137 2.33209 -2.24488 0
M  V30 295 H 23.6207 0.531104 -3.70311 0
M  V30 296 H 24.9537 0.718252 -4.86931 0
M  V30 297 N 26.6058 1.57591 -0.0167156 0
M  V30 298 C 27.5358 2.12496 0.967858 0
M  V30 299 C 28.5168 1.03807 1.34752 0
M  V30 300 O 29.7018 1.31577 1.42833 0
M  V30 301 C 26.8318 2.64194 2.25431 0
M  V30 302 C 25.7858 3.77559 2.01576 0
M  V30 303 C 25.1118 4.15636 3.36379 0
M  V30 304 C 26.4118 5.04151 1.36489 0
M  V30 305 H 28.1058 2.95013 0.510643 0
M  V30 306 H 25.6518 1.41915 0.244181 0
M  V30 307 H 27.6048 3.01236 2.94678 0
M  V30 308 H 26.3288 1.78821 2.73296 0
M  V30 309 H 24.9878 3.40937 1.34751 0
M  V30 310 H 24.6358 3.27263 3.81979 0
M  V30 311 H 24.3358 4.92022 3.21229 0
M  V30 312 H 25.8598 4.5525 4.06915 0
M  V30 313 H 27.2738 5.38857 1.95718 0
M  V30 314 H 25.6708 5.85453 1.31776 0
M  V30 315 H 26.7408 4.83733 0.336219 0
M  V30 316 N 28.0839 -0.256276 1.55502 0
M  V30 317 C 29.0139 -1.32102 1.92539 0
M  V30 318 C 29.9949 -1.50684 0.789194 0
M  V30 319 O 31.1799 -1.63449 1.04872 0
M  V30 320 C 28.3099 -2.67752 2.21192 0
M  V30 321 C 27.2639 -2.63878 3.36975 0
M  V30 322 C 26.5899 -4.03236 3.51147 0
M  V30 323 C 27.8899 -2.21682 4.72921 0
M  V30 324 H 29.5839 -1.01351 2.81724 0
M  V30 325 H 27.1299 -0.486105 1.35547 0
M  V30 326 H 29.0829 -3.42365 2.45691 0
M  V30 327 H 27.8069 -3.0012 1.28824 0
M  V30 328 H 26.4659 -1.91722 3.12471 0
M  V30 329 H 26.1139 -4.32854 2.56216 0
M  V30 330 H 25.8139 -4.01535 4.29003 0
M  V30 331 H 27.3379 -4.79563 3.77957 0
M  V30 332 H 28.7519 -2.86023 4.96854 0
M  V30 333 H 27.1489 -2.3111 5.53812 0
M  V30 334 H 28.2189 -1.16833 4.70615 0
M  V30 335 N 29.562 -1.4872 -0.521534 0
M  V30 336 C 30.492 -1.66771 -1.63431 0
M  V30 337 C 31.473 -0.516499 -1.62069 0
M  V30 338 O 32.658 -0.750013 -1.79132 0
M  V30 339 C 29.788 -1.71515 -3.01993 0
M  V30 340 C 28.742 -2.86222 -3.18216 0
M  V30 341 C 28.068 -2.76061 -4.57924 0
M  V30 342 C 29.368 -4.27419 -3.00184 0
M  V30 343 H 31.062 -2.59932 -1.48579 0
M  V30 344 H 28.608 -1.25089 -0.713358 0
M  V30 345 H 30.561 -1.82731 -3.7972 0
M  V30 346 H 29.285 -0.749393 -3.17886 0
M  V30 347 H 27.944 -2.74575 -2.42908 0
M  V30 348 H 27.592 -1.77437 -4.70665 0
M  V30 349 H 27.292 -3.53037 -4.69722 0
M  V30 350 H 28.816 -2.89256 -5.37739 0
M  V30 351 H 30.23 -4.39855 -3.67697 0
M  V30 352 H 28.627 -5.05458 -3.2347 0
M  V30 353 H 29.697 -4.43293 -1.96518 0
M  V30 354 N 31.0401 0.771051 -1.3745 0
M  V30 355 C 32.4561 1.07171 -1.18265 0
M  V30 356 C 32.6561 2.01491 -0.019287 0
M  V30 357 O 31.7121 2.44244 0.640408 0
M  V30 358 C 33.0251 1.66854 -2.50161 0
M  V30 359 C 34.5731 1.79109 -2.56689 0
M  V30 360 C 35.0481 2.42205 -3.88717 0
M  V30 361 N 36.5391 2.49655 -3.90162 0
M  V30 362 C 37.2741 2.9933 -4.8907 0
M  V30 363 N 36.7701 3.49172 -5.98374 0
M  V30 364 N 38.5631 2.9821 -4.76474 0
M  V30 365 H 30.7141 0.144796 -2.11906 0
M  V30 366 H 32.9771 0.126863 -0.939473 0
M  V30 367 H 32.6831 1.05017 -3.35655 0
M  V30 368 H 32.5571 2.6614 -2.673 0
M  V30 369 H 34.9441 2.40077 -1.71601 0
M  V30 370 H 35.0251 0.785757 -2.43433 0
M  V30 371 H 34.6691 1.81875 -4.74219 0
M  V30 372 H 34.5991 3.43345 -3.99276 0
M  V30 373 H 37.0901 2.14383 -3.11205 0
M  V30 374 H 37.4031 3.8548 -6.69795 0
M  V30 375 H 35.7481 3.47275 -6.02018 0
M  V30 376 H 38.9391 2.58572 -3.90203 0
M  V30 377 H 39.1121 3.36613 -5.53711 0
M  V30 378 N 32.5182 1.22032 0.997298 0
M  V30 379 C 33.9342 0.979326 1.26021 0
M  V30 380 C 34.1342 -0.32972 1.98784 0
M  V30 381 O 33.1902 -1.05345 2.29475 0
M  V30 382 C 34.5032 2.17509 2.07631 0
M  V30 383 C 36.0512 2.21817 2.2083 0
M  V30 384 C 36.5262 3.40933 3.05825 0
M  V30 385 N 38.0172 3.41067 3.13412 0
M  V30 386 C 38.7522 4.29885 3.79455 0
M  V30 387 N 38.2482 5.28914 4.47462 0
M  V30 388 N 40.0412 4.17673 3.76173 0
M  V30 389 H 32.1922 2.06202 0.509352 0
M  V30 390 H 34.4552 0.90334 0.287541 0
M  V30 391 H 34.1612 3.12415 1.61524 0
M  V30 392 H 34.0352 2.17206 3.08385 0
M  V30 393 H 36.4222 1.27462 2.66153 0
M  V30 394 H 36.5032 2.2616 1.1952 0
M  V30 395 H 36.1472 4.35586 2.61203 0
M  V30 396 H 36.0772 3.33829 4.07266 0
M  V30 397 H 38.5682 2.69406 2.65007 0
M  V30 398 H 38.8812 5.92973 4.95583 0
M  V30 399 H 37.2262 5.32831 4.46224 0
M  V30 400 H 40.4172 3.39564 3.22202 0
M  V30 401 H 40.5902 4.87098 4.27363 0
M  V30 402 N 33.9963 -1.19345 1.0293 0
M  V30 403 C 34.9433 -2.2258 0.610464 0
M  V30 404 C 35.9133 -1.6179 -0.375946 0
M  V30 405 O 37.0983 -1.88844 -0.272511 0
M  V30 406 C 34.2383 -3.45085 -0.0321473 0
M  V30 407 C 33.3513 -4.20258 1.00035 0
M  V30 408 C 32.4863 -5.3019 0.32746 0
M  V30 409 C 31.5253 -5.97121 1.34584 0
M  V30 410 N 30.6623 -6.98615 0.698726 0
M  V30 411 H 35.5023 -2.57764 1.49538 0
M  V30 412 H 33.0393 -1.26644 0.748311 0
M  V30 413 H 34.9973 -4.15061 -0.421966 0
M  V30 414 H 33.6273 -3.10555 -0.88064 0
M  V30 415 H 32.6793 -3.49223 1.50823 0
M  V30 416 H 33.9913 -4.66175 1.77433 0
M  V30 417 H 33.1453 -6.06587 -0.11718 0
M  V30 418 H 31.8843 -4.85345 -0.478713 0
M  V30 419 H 30.8893 -5.19474 1.80074 0
M  V30 420 H 32.1143 -6.4405 2.15352 0
M  V30 421 H 30.0603 -6.55942 -0.0873471 0
M  V30 422 H 29.9773 -7.42724 1.41058 0
M  V30 423 H 31.2453 -7.79004 0.278102 0
M  V30 424 N 35.4744 -0.807222 -1.35358 0
M  V30 425 C 36.4374 -0.223665 -2.28106 0
M  V30 426 C 37.4374 0.589354 -1.4961 0
M  V30 427 O 38.6274 0.407745 -1.69361 0
M  V30 428 C 35.7594 0.688149 -3.33882 0
M  V30 429 H 36.9524 -1.04169 -2.81227 0
M  V30 430 H 34.5054 -0.577921 -1.45223 0
M  V30 431 H 35.2404 1.52984 -2.85948 0
M  V30 432 H 35.0254 0.10687 -3.91954 0
M  V30 433 H 36.5154 1.09075 -4.03104 0
M  V30 434 N 36.9525 1.47285 -0.560781 0
M  V30 435 C 38.3685 1.58065 -0.22081 0
M  V30 436 C 38.5685 1.55892 1.27671 0
M  V30 437 O 37.6245 1.46422 2.0571 0
M  V30 438 C 38.9375 2.88418 -0.850625 0
M  V30 439 C 40.4855 3.02009 -0.822184 0
M  V30 440 C 40.9605 4.35066 -1.43113 0
M  V30 441 N 42.4515 4.41711 -1.39448 0
M  V30 442 C 43.1865 5.43237 -1.83525 0
M  V30 443 N 42.6825 6.51555 -2.35474 0
M  V30 444 N 44.4755 5.34304 -1.74574 0
M  V30 445 H 36.6265 1.46941 -1.53369 0
M  V30 446 H 38.8895 0.699558 -0.639783 0
M  V30 447 H 38.5955 2.95755 -1.9032 0
M  V30 448 H 38.4695 3.75612 -0.345773 0
M  V30 449 H 40.8565 2.94266 0.221714 0
M  V30 450 H 40.9375 2.16347 -1.36483 0
M  V30 451 H 40.5815 4.43565 -2.47412 0
M  V30 452 H 40.5115 5.19465 -0.863899 0
M  V30 453 H 43.0025 3.64027 -1.01452 0
M  V30 454 H 43.3155 7.25203 -2.67021 0
M  V30 455 H 41.6605 6.52435 -2.39487 0
M  V30 456 H 44.8515 4.48581 -1.33763 0
M  V30 457 H 45.0245 6.13288 -2.09242 0
M  V30 458 N 38.4306 0.297415 1.54768 0
M  V30 459 C 39.6786 -0.312295 1.99673 0
M  V30 460 C 39.9996 -1.54686 1.18732 0
M  V30 461 O 39.2696 -1.93854 0.282382 0
M  V30 462 H 37.8496 -0.118381 0.73756 0
M  V30 463 H 40.5116 0.407915 1.90583 0
M  V30 464 H 39.6076 -0.586813 3.06534 0
M  V30 465 N 39.9087 -1.5758 0.0250728 0
M  V30 466 C 40.8387 -2.13007 -0.956575 0
M  V30 467 C 41.8197 -1.0452 -1.342 0
M  V30 468 O 43.0047 -1.32332 -1.42133 0
M  V30 469 C 40.1347 -2.65386 -2.24026 0
M  V30 470 C 39.0887 -3.78623 -1.99571 0
M  V30 471 C 38.4147 -4.17414 -3.3417 0
M  V30 472 C 39.7147 -5.04867 -1.33814 0
M  V30 473 H 41.4087 -2.9528 -0.494991 0
M  V30 474 H 38.9547 -1.42042 -0.236651 0
M  V30 475 H 40.9077 -3.02794 -2.93076 0
M  V30 476 H 39.6317 -1.80268 -2.72343 0
M  V30 477 H 38.2907 -3.41646 -1.32941 0
M  V30 478 H 37.9387 -3.29284 -3.80238 0
M  V30 479 H 37.6387 -4.93719 -3.18615 0
M  V30 480 H 39.1627 -4.57402 -4.04495 0
M  V30 481 H 40.5767 -5.39888 -1.92857 0
M  V30 482 H 38.9737 -5.86144 -1.28669 0
M  V30 483 H 40.0437 -4.83904 -0.310561 0
M  V30 484 N 41.3868 0.248026 -1.55636 0
M  V30 485 C 42.3338 1.30707 -1.90222 0
M  V30 486 C 43.3038 1.47881 -0.756332 0
M  V30 487 O 44.4888 1.61883 -1.00988 0
M  V30 488 C 41.6288 2.65769 -2.20138 0
M  V30 489 C 40.7418 2.56612 -3.47526 0
M  V30 490 C 39.8768 3.8402 -3.67017 0
M  V30 491 C 38.9158 3.69476 -4.8801 0
M  V30 492 N 38.0528 4.88774 -5.04029 0
M  V30 493 H 42.8928 1.00512 -2.80538 0
M  V30 494 H 40.4298 0.485055 -1.38873 0
M  V30 495 H 42.3878 3.44386 -2.35487 0
M  V30 496 H 41.0178 2.94115 -1.33027 0
M  V30 497 H 40.0698 1.69571 -3.40514 0
M  V30 498 H 41.3818 2.41774 -4.36287 0
M  V30 499 H 40.5358 4.7108 -3.8232 0
M  V30 500 H 39.2748 4.01754 -2.76487 0
M  V30 501 H 38.2798 2.80799 -4.72686 0
M  V30 502 H 39.5048 3.53238 -5.8 0
M  V30 503 H 37.4508 5.0687 -4.16435 0
M  V30 504 H 37.3678 4.76562 -5.86877 0
M  V30 505 H 38.6358 5.77335 -5.23741 0
M  V30 506 N 42.8649 1.48995 0.513639 0
M  V30 507 C 43.7949 1.67636 1.62544 0
M  V30 508 C 44.7759 0.525087 1.61793 0
M  V30 509 O 45.9609 0.759502 1.78732 0
M  V30 510 C 43.0909 1.73114 3.01079 0
M  V30 511 C 42.0449 2.87905 3.16693 0
M  V30 512 C 41.3709 2.78486 4.56453 0
M  V30 513 C 42.6709 4.29005 2.97913 0
M  V30 514 H 44.3649 2.60716 1.47198 0
M  V30 515 H 41.9109 1.25465 0.706714 0
M  V30 516 H 43.8639 1.84742 3.78746 0
M  V30 517 H 42.5879 0.766241 3.17484 0
M  V30 518 H 41.2469 2.75859 2.41448 0
M  V30 519 H 40.8949 1.7993 4.69717 0
M  V30 520 H 40.5949 3.55523 4.67843 0
M  V30 521 H 42.1189 2.92104 5.36197 0
M  V30 522 H 43.5329 4.41798 3.65359 0
M  V30 523 H 41.9299 5.07166 3.20785 0
M  V30 524 H 42.9999 4.44329 1.94165 0
M  V30 525 N 44.343 -0.763751 1.37857 0
M  V30 526 C 45.291 -1.89864 1.34367 0
M  V30 527 C 46.285 -1.67816 0.231143 0
M  V30 528 O 47.491 -1.75508 0.399617 0
M  V30 529 H 43.866 -0.624501 0.41893 0
M  V30 530 H 45.837 -1.89925 2.30155 0
M  V30 531 C 44.586 -3.27227 1.1755 0
M  V30 532 H 43.909 -3.44773 2.02414 0
M  V30 533 H 45.349 -4.06911 1.1916 0
M  V30 534 C 43.808 -3.36692 -0.118311 0
M  V30 535 O 44.338 -3.86374 -1.09902 0
M  V30 536 N 42.544 -2.90092 -0.171717 0
M  V30 537 H 42.091 -2.49853 0.627012 0
M  V30 538 H 42.049 -2.96806 -1.03699 0
M  V30 539 N 45.8211 -1.22559 -0.990812 0
M  V30 540 C 47.0511 -1.07623 -1.76355 0
M  V30 541 C 47.4591 0.37601 -1.85426 0
M  V30 542 O 46.8021 1.27228 -1.32509 0
M  V30 543 C 46.8641 -1.61507 -3.21179 0
M  V30 544 C 46.5281 -3.10146 -3.35646 0
M  V30 545 C 47.5251 -4.07553 -3.22796 0
M  V30 546 C 45.2101 -3.49644 -3.60631 0
M  V30 547 C 47.2041 -5.42442 -3.34716 0
M  V30 548 C 44.8911 -4.84682 -3.72192 0
M  V30 549 C 45.8891 -5.8089 -3.59243 0
M  V30 550 O 45.5771 -7.13476 -3.70415 0
M  V30 551 H 45.3091 -0.377745 -0.560611 0
M  V30 552 H 47.8631 -1.62658 -1.25425 0
M  V30 553 H 46.0931 -1.00881 -3.73309 0
M  V30 554 H 47.7821 -1.42202 -3.80175 0
M  V30 555 H 48.5481 -3.78381 -3.03403 0
M  V30 556 H 44.4271 -2.75282 -3.69785 0
M  V30 557 H 47.9711 -6.17518 -3.24526 0
M  V30 558 H 43.8681 -5.13534 -3.91092 0
M  V30 559 H 44.6361 -7.21083 -3.87275 0
M  V30 560 N 47.2992 1.18797 -1.03562 0
M  V30 561 C 48.7102 1.70322 -0.764676 0
M  V30 562 C 49.0612 1.82708 0.714996 0
M  V30 563 O 48.1862 1.50299 1.55689 0
M  V30 564 C 48.7812 3.09356 -1.38145 0
M  V30 565 C 47.3402 3.58114 -1.15895 0
M  V30 566 C 46.4872 2.34798 -1.4753 0
M  V30 567 H 49.4382 1.03543 -1.20268 0
M  V30 568 H 49.4592 3.72378 -0.781977 0
M  V30 569 H 48.9712 3.00309 -2.45837 0
M  V30 570 H 47.0722 3.72464 -0.100544 0
M  V30 571 H 47.1852 4.4184 -1.8524 0
M  V30 572 H 45.5492 2.38464 -0.894829 0
M  V30 573 H 46.3322 2.28375 -2.56319 0
M  V30 574 N 48.7773 0.814389 1.34928 0
M  V30 575 C 49.6873 0.231978 2.3345 0
M  V30 576 C 50.7033 -0.629139 1.62228 0
M  V30 577 O 51.8793 -0.539052 1.94052 0
M  V30 578 C 48.9443 -0.603482 3.41407 0
M  V30 579 C 48.0053 0.279037 4.28392 0
M  V30 580 C 47.2383 -0.516643 5.31193 0
M  V30 581 O 47.4613 -1.75068 5.4287 0
M  V30 582 O 46.3953 0.0965652 6.01823 0
M  V30 583 H 50.2213 1.04721 2.85074 0
M  V30 584 H 47.8063 0.576343 1.37836 0
M  V30 585 H 49.6883 -1.07908 4.0735 0
M  V30 586 H 48.3633 -1.39618 2.92042 0
M  V30 587 H 47.2703 0.801948 3.65403 0
M  V30 588 H 48.6033 1.03588 4.81176 0
M  V30 589 N 50.2554 -1.46986 0.568584 0
M  V30 590 C 51.2184 -2.28624 -0.162366 0
M  V30 591 C 52.2184 -1.37596 -0.832103 0
M  V30 592 O 53.4084 -1.60115 -0.68622 0
M  V30 593 C 50.5404 -3.17596 -1.23878 0
M  V30 594 H 51.7334 -2.94722 0.554899 0
M  V30 595 H 49.2864 -1.52863 0.325976 0
M  V30 596 H 50.0214 -2.56214 -1.98808 0
M  V30 597 H 49.8064 -3.846 -0.763219 0
M  V30 598 H 51.2964 -3.79078 -1.75185 0
M  V30 599 N 51.7335 -0.305618 -1.54608 0
M  V30 600 C 52.9795 0.302746 -2.00528 0
M  V30 601 C 53.3125 1.53184 -1.19367 0
M  V30 602 O 52.5875 1.92598 -0.271321 0
M  V30 603 C 52.8705 0.654756 -3.54097 0
M  V30 604 C 52.7235 -0.583793 -4.45995 0
M  V30 605 C 54.0425 1.47947 -4.14487 0
M  V30 606 H 51.1615 0.108564 -0.72896 0
M  V30 607 H 53.8035 -0.418634 -1.85331 0
M  V30 608 H 51.9535 1.26935 -3.67178 0
M  V30 609 H 53.6255 -1.22224 -4.44814 0
M  V30 610 H 51.8685 -1.21615 -4.16404 0
M  V30 611 H 52.5395 -0.293287 -5.5122 0
M  V30 612 H 55.0155 0.96013 -4.04871 0
M  V30 613 H 53.8915 1.69454 -5.22088 0
M  V30 614 H 54.1525 2.47011 -3.66658 0
M  V30 615 N 53.2116 1.57565 -0.0334293 0
M  V30 616 C 54.1746 2.09393 0.932048 0
M  V30 617 C 55.1746 1.00986 1.25134 0
M  V30 618 O 56.3646 1.27129 1.19096 0
M  V30 619 C 53.4966 2.56338 2.2473 0
M  V30 620 H 54.6896 2.95984 0.483085 0
M  V30 621 H 52.2426 1.54819 0.21468 0
M  V30 622 H 52.9776 1.7309 2.74245 0
M  V30 623 H 52.7626 3.35542 2.02865 0
M  V30 624 H 54.2526 2.96646 2.93923 0
M  V30 625 N 54.6897 -0.239769 1.55765 0
M  V30 626 C 55.9387 -0.964754 1.77131 0
M  V30 627 C 56.2517 -1.86213 0.59868 0
M  V30 628 O 57.4577 -2.6244 0.695522 0
M  V30 629 C 55.9137 -1.76552 3.1362 0
M  V30 630 C 55.5217 -0.915185 4.38553 0
M  V30 631 C 57.2657 -2.48281 3.44321 0
M  V30 632 C 55.1727 -1.71225 5.66071 0
M  V30 633 H 54.1027 -0.363953 0.660344 0
M  V30 634 H 56.7537 -0.219181 1.82186 0
M  V30 635 H 55.1357 -2.55331 3.02691 0
M  V30 636 H 56.3097 -0.169217 4.60489 0
M  V30 637 H 54.6247 -0.310889 4.15238 0
M  V30 638 H 57.2217 -3.08382 4.36812 0
M  V30 639 H 57.5647 -3.20256 2.65973 0
M  V30 640 H 58.0977 -1.76507 3.56497 0
M  V30 641 H 54.8367 -1.03612 6.4726 0
M  V30 642 H 54.3567 -2.43331 5.48224 0
M  V30 643 H 56.0357 -2.27758 6.05587 0
M  V30 644 N 56.1678 -1.49265 -0.50573 0
M  V30 645 C 57.4168 -1.57761 -1.25675 0
M  V30 646 C 57.7298 -0.267371 -1.93764 0
M  V30 647 O 58.9358 -0.230827 -2.70517 0
M  V30 648 C 57.3918 -2.78332 -2.28165 0
M  V30 649 C 56.9998 -4.16096 -1.66037 0
M  V30 650 C 58.7438 -2.96155 -3.04125 0
M  V30 651 C 56.6508 -5.27895 -2.6661 0
M  V30 652 H 55.5808 -0.587391 -0.472745 0
M  V30 653 H 58.2318 -1.75644 -0.53118 0
M  V30 654 H 56.6138 -2.53934 -3.03865 0
M  V30 655 H 57.7878 -4.50612 -0.963622 0
M  V30 656 H 56.1028 -4.03591 -1.02484 0
M  V30 657 H 58.6998 -3.76849 -3.79327 0
M  V30 658 H 59.0428 -2.06534 -3.61455 0
M  V30 659 H 59.5758 -3.2057 -2.35541 0
M  V30 660 H 56.3148 -6.1956 -2.14068 0
M  V30 661 H 55.8348 -4.97839 -3.34539 0
M  V30 662 H 57.5138 -5.57031 -3.29129 0
M  V30 663 N 57.6459 0.756429 -1.3826 0
M  V30 664 C 58.8739 1.54565 -1.3754 0
M  V30 665 C 59.2889 1.88767 0.0355331 0
M  V30 666 O 58.6459 1.52572 1.0014 0
M  V30 667 C 58.6969 2.84654 -2.22833 0
M  V30 668 O 58.4179 2.51912 -3.5843 0
M  V30 669 C 59.9189 3.78807 -2.30261 0
M  V30 670 H 57.1389 0.478353 -0.470553 0
M  V30 671 H 59.6829 0.936381 -1.81803 0
M  V30 672 H 57.8379 3.41965 -1.8204 0
M  V30 673 H 58.2519 3.35325 -4.03308 0
M  V30 674 H 59.7259 4.67045 -2.94233 0
M  V30 675 H 60.2029 4.19038 -1.31545 0
M  V30 676 H 60.8089 3.2742 -2.71433 0
M  V30 677 N 59.124 1.23083 0.984299 0
M  V30 678 C 60.349 1.088 1.76571 0
M  V30 679 C 60.774 -0.356657 1.84688 0
M  V30 680 O 60.132 -1.25788 1.30565 0
M  V30 681 C 60.18 1.71371 3.17277 0
M  V30 682 O 59.284 0.973213 4.00752 0
M  V30 683 H 58.625 0.381599 0.543395 0
M  V30 684 H 61.155 1.63057 1.23587 0
M  V30 685 H 61.165 1.76449 3.67872 0
M  V30 686 H 59.84 2.76493 3.10684 0
M  V30 687 H 58.417 0.999078 3.59267 0
M  V30 688 N 60.6021 -1.18246 1.0419 0
M  V30 689 C 61.8491 -1.88257 0.746017 0
M  V30 690 C 62.1771 -1.80429 -0.726331 0
M  V30 691 O 61.4321 -1.2 -1.54591 0
M  V30 692 C 61.7311 -3.38082 1.15911 0
M  V30 693 C 61.3971 -3.66114 2.63195 0
M  V30 694 C 60.0591 -3.73474 3.03432 0
M  V30 695 C 62.4111 -3.78398 3.5842 0
M  V30 696 C 59.7391 -3.90599 4.37778 0
M  V30 697 C 62.0911 -3.97039 4.92487 0
M  V30 698 C 60.7551 -4.02635 5.32392 0
M  V30 699 H 60.0251 -0.688883 0.272987 0
M  V30 700 H 62.6721 -1.3995 1.30715 0
M  V30 701 H 60.9771 -3.88377 0.516806 0
M  V30 702 H 62.6741 -3.90596 0.907516 0
M  V30 703 H 59.2641 -3.61003 2.3103 0
M  V30 704 H 63.4481 -3.72042 3.28479 0
M  V30 705 H 58.7041 -3.93175 4.68213 0
M  V30 706 H 62.8781 -4.05486 5.66175 0
M  V30 707 H 60.5051 -4.15657 6.36501 0
M  V30 708 N 62.0802 -0.821533 -1.34494 0
M  V30 709 C 63.3292 -0.405355 -1.97585 0
M  V30 710 C 63.6422 1.03677 -1.65863 0
M  V30 711 O 64.8482 1.55679 -2.22433 0
M  V30 712 C 63.3042 -0.673861 -3.53535 0
M  V30 713 C 62.9122 -2.12951 -3.94152 0
M  V30 714 C 64.6562 -0.32378 -4.23263 0
M  V30 715 C 62.5632 -2.34298 -5.43009 0
M  V30 716 H 61.4932 -0.147836 -0.739365 0
M  V30 717 H 64.1442 -1.00769 -1.53355 0
M  V30 718 H 62.5262 -0.00137554 -3.96 0
M  V30 719 H 63.7002 -2.84104 -3.62797 0
M  V30 720 H 62.0152 -2.44089 -3.37356 0
M  V30 721 H 64.6122 -0.461126 -5.32708 0
M  V30 722 H 64.9552 0.731586 -4.09821 0
M  V30 723 H 65.4882 -0.950786 -3.8627 0
M  V30 724 H 62.2272 -3.38335 -5.61435 0
M  V30 725 H 61.7472 -1.67687 -5.75883 0
M  V30 726 H 63.4262 -2.16588 -6.09671 0
M  V30 727 N 63.5583 1.46682 -0.576371 0
M  V30 728 C 64.4913 2.27243 0.208731 0
M  V30 729 C 65.4693 1.35238 0.902746 0
M  V30 730 O 66.6533 1.64641 0.917904 0
M  V30 731 C 63.7803 3.12802 1.29896 0
M  V30 732 C 62.8263 4.20524 0.711457 0
M  V30 733 S 63.6593 5.33548 -0.456781 0
M  V30 734 C 64.8153 6.22673 0.634798 0
M  V30 735 H 65.0483 2.93484 -0.474838 0
M  V30 736 H 62.5813 1.50069 -0.363118 0
M  V30 737 H 64.5393 3.62661 1.92321 0
M  V30 738 H 63.2003 2.45887 1.95444 0
M  V30 739 H 62.3933 4.80191 1.53076 0
M  V30 740 H 61.9953 3.73645 0.162999 0
M  V30 741 H 64.2873 6.60181 1.52209 0
M  V30 742 H 65.2303 7.0806 0.0750311 0
M  V30 743 H 65.6383 5.56684 0.936092 0
M  V30 744 N 65.0364 0.313813 1.54444 0
M  V30 745 C 65.9464 -0.565714 2.27677 0
M  V30 746 C 66.9624 -1.13754 1.31666 0
M  V30 747 O 68.1384 -1.15959 1.64668 0
M  V30 748 C 65.2034 -1.71528 3.01296 0
M  V30 749 C 64.2644 -1.17624 4.12872 0
M  V30 750 C 63.4974 -2.27102 4.8297 0
M  V30 751 O 63.7204 -3.47256 4.52514 0
M  V30 752 O 62.6544 -1.9307 5.70094 0
M  V30 753 H 66.4804 0.0287296 3.03686 0
M  V30 754 H 64.0654 0.0798312 1.49187 0
M  V30 755 H 65.9474 -2.38476 3.4743 0
M  V30 756 H 64.6224 -2.29608 2.2817 0
M  V30 757 H 63.5294 -0.472124 3.71109 0
M  V30 758 H 64.8624 -0.640695 4.88012 0
M  V30 759 N 66.5145 -1.57545 0.0417849 0
M  V30 760 C 67.7625 -1.91937 -0.632829 0
M  V30 761 C 68.0835 -0.919978 -1.71934 0
M  V30 762 O 67.3535 0.0366064 -1.95866 0
M  V30 763 H 65.9335 -0.708493 -0.236742 0
M  V30 764 H 68.5955 -1.9468 0.0925745 0
M  V30 765 H 67.6915 -2.92912 -1.07746 0
M  V30 766 N 67.9926 0.231505 -1.5589 0
M  V30 767 C 68.9556 1.27028 -1.90779 0
M  V30 768 C 69.9556 1.40308 -0.785507 0
M  V30 769 O 71.1456 1.38744 -1.05336 0
M  V30 770 C 68.2776 2.64566 -2.14983 0
M  V30 771 H 69.4706 0.973017 -2.83677 0
M  V30 772 H 67.0236 0.471486 -1.49019 0
M  V30 773 H 67.7586 2.99406 -1.24604 0
M  V30 774 H 67.5436 2.56305 -2.96732 0
M  V30 775 H 69.0336 3.39543 -2.43105 0
M  V30 776 N 69.4707 1.49531 0.497807 0
M  V30 777 C 70.8867 1.36365 0.829266 0
M  V30 778 C 71.0867 0.399184 1.97506 0
M  V30 779 O 70.1427 -0.167977 2.51941 0
M  V30 780 C 71.4557 2.77153 1.16647 0
M  V30 781 C 73.0037 2.85877 1.27449 0
M  V30 782 C 73.4787 4.2744 1.64497 0
M  V30 783 N 74.9697 4.30265 1.7154 0
M  V30 784 C 75.7047 5.3677 2.01656 0
M  V30 785 N 75.2007 6.53516 2.29976 0
M  V30 786 N 76.9937 5.24189 2.02934 0
M  V30 787 H 69.1447 2.10831 -0.257703 0
M  V30 788 H 71.4077 0.946534 -0.0527091 0
M  V30 789 H 71.1137 3.49442 0.397872 0
M  V30 790 H 70.9877 3.12722 2.10915 0
M  V30 791 H 73.3747 2.13824 2.0338 0
M  V30 792 H 73.4557 2.53887 0.312244 0
M  V30 793 H 73.0997 5.00021 0.891151 0
M  V30 794 H 73.0297 4.56896 2.61827 0
M  V30 795 H 75.5207 3.4607 1.51802 0
M  V30 796 H 75.8337 7.30506 2.52153 0
M  V30 797 H 74.1787 6.56737 2.27425 0
M  V30 798 H 77.3697 4.31988 1.80289 0
M  V30 799 H 77.5427 6.07286 2.26071 0
M  V30 800 N 70.9488 -0.749086 1.3866 0
M  V30 801 C 72.2258 -1.4992 1.25632 0
M  V30 802 C 72.6058 -2.10633 -0.140317 0
M  V30 803 O 71.9538 -1.97437 -1.15025 0
M  V30 804 C 72.1638 -2.56195 2.36992 0
M  V30 805 C 73.5118 -3.22972 2.75634 0
M  V30 806 O 74.5358 -2.66502 2.36337 0
M  V30 807 O 73.3948 -4.25122 3.43415 0
M  V30 808 H 70.4888 -0.665067 0.491544 0
M  V30 809 H 73.0348 -0.784113 1.50498 0
M  V30 810 H 71.8068 -2.09612 3.30422 0
M  V30 811 H 71.4298 -3.35279 2.13714 0
M  V30 812 N 72.4269 -1.23603 -0.977757 0
M  V30 813 C 73.6749 -1.06759 -1.71601 0
M  V30 814 C 73.9959 0.395929 -1.90938 0
M  V30 815 O 73.2659 1.28356 -1.47992 0
M  V30 816 H 71.8459 -0.392062 -0.635843 0
M  V30 817 H 74.5079 -1.55362 -1.1768 0
M  V30 818 H 73.6039 -1.55763 -2.70452 0
M  V30 819 N 73.905 1.17692 -1.04816 0
M  V30 820 C 74.852 2.21581 -0.645797 0
M  V30 821 C 75.822 1.62367 0.350159 0
M  V30 822 O 77.007 1.89254 0.242433 0
M  V30 823 C 74.147 3.45092 -0.0227568 0
M  V30 824 C 73.26 4.18613 -1.06709 0
M  V30 825 C 72.395 5.29602 -0.411767 0
M  V30 826 C 71.434 5.94904 -1.44067 0
M  V30 827 N 70.571 6.97414 -0.809781 0
M  V30 828 H 75.411 2.55353 -1.5362 0
M  V30 829 H 72.948 1.25438 -0.768364 0
M  V30 830 H 74.906 4.15679 0.35588 0
M  V30 831 H 73.536 3.11917 0.831122 0
M  V30 832 H 72.588 3.46779 -1.5636 0
M  V30 833 H 73.9 4.63293 -1.84827 0
M  V30 834 H 73.054 6.06696 0.0206623 0
M  V30 835 H 71.793 4.86045 0.401438 0
M  V30 836 H 70.798 5.16544 -1.88316 0
M  V30 837 H 72.023 6.40542 -2.25571 0
M  V30 838 H 69.969 6.55998 -0.0170186 0
M  V30 839 H 69.886 7.40386 -1.52856 0
M  V30 840 H 71.154 7.78463 -0.401999 0
M  V30 841 N 75.3831 0.828654 1.34056 0
M  V30 842 C 76.6111 0.43262 2.02326 0
M  V30 843 C 77.0261 -0.963147 1.62385 0
M  V30 844 O 76.3831 -1.62425 0.832121 0
M  V30 845 C 76.4341 0.53182 3.57567 0
M  V30 846 O 76.1551 1.87258 3.96063 0
M  V30 847 C 77.6561 0.131422 4.43105 0
M  V30 848 H 74.8761 0.172923 0.648335 0
M  V30 849 H 77.4201 1.1184 1.71208 0
M  V30 850 H 75.5751 -0.105938 3.87255 0
M  V30 851 H 75.9891 1.85087 4.90758 0
M  V30 852 H 77.4631 0.251904 5.51425 0
M  V30 853 H 77.9401 -0.925645 4.29335 0
M  V30 854 H 78.5461 0.743207 4.18756 0
M  V30 855 N 76.8612 -1.46375 0.584142 0
M  V30 856 C 78.1072 -2.02678 0.0703716 0
M  V30 857 C 78.4402 -1.4545 -1.28678 0
M  V30 858 O 77.7152 -0.62014 -1.84349 0
M  V30 859 C 77.9982 -3.60099 0.00614674 0
M  V30 860 C 77.8512 -4.27709 1.3923 0
M  V30 861 C 79.1702 -4.34598 -0.693742 0
M  V30 862 H 76.2892 -0.736504 0.027047 0
M  V30 863 H 78.9312 -1.74501 0.751615 0
M  V30 864 H 77.0812 -3.84236 -0.574009 0
M  V30 865 H 78.7532 -4.14832 2.01773 0
M  V30 866 H 76.9962 -3.87016 1.95962 0
M  V30 867 H 77.6672 -5.36478 1.29982 0
M  V30 868 H 80.1432 -4.15615 -0.200869 0
M  V30 869 H 79.0192 -5.44318 -0.707714 0
M  V30 870 H 79.2802 -4.05759 -1.75533 0
M  V30 871 N 78.3393 -0.321999 -1.54275 0
M  V30 872 C 79.3023 0.531975 -2.22941 0
M  V30 873 C 80.3023 1.04478 -1.22234 0
M  V30 874 O 81.4923 0.937452 -1.46825 0
M  V30 875 C 78.6243 1.73874 -2.93224 0
M  V30 876 H 79.8173 -0.0682612 -2.99822 0
M  V30 877 H 77.3703 -0.0730644 -1.56129 0
M  V30 878 H 78.1053 2.37825 -2.20476 0
M  V30 879 H 77.8903 1.37847 -3.6707 0
M  V30 880 H 79.3803 2.34496 -3.45545 0
M  V30 881 N 79.8174 1.5752 -0.0501392 0
M  V30 882 C 80.7504 2.07026 0.959962 0
M  V30 883 C 81.7284 0.970539 1.30458 0
M  V30 884 O 82.9124 1.2424 1.41763 0
M  V30 885 C 80.0394 2.5099 2.27424 0
M  V30 886 C 79.0854 3.72188 2.08275 0
M  V30 887 S 79.9184 5.17888 1.36207 0
M  V30 888 C 81.0744 5.65165 2.6896 0
M  V30 889 H 81.3074 2.9238 0.538631 0
M  V30 890 H 78.8404 1.53547 0.162099 0
M  V30 891 H 80.7984 2.76982 3.02971 0
M  V30 892 H 79.4594 1.65944 2.66686 0
M  V30 893 H 78.6524 4.00866 3.05487 0
M  V30 894 H 78.2544 3.46457 1.40868 0
M  V30 895 H 80.5464 5.70687 3.65133 0
M  V30 896 H 81.4894 6.64394 2.4492 0
M  V30 897 H 81.8974 4.9289 2.75172 0
M  V30 898 N 81.2955 -0.223234 1.56011 0
M  V30 899 C 82.2255 -1.27988 1.95298 0
M  V30 900 C 83.2065 -1.48976 0.820979 0
M  V30 901 O 84.3915 -1.61188 1.08315 0
M  V30 902 C 81.5215 -2.63 2.26822 0
M  V30 903 C 80.4755 -2.56671 3.42497 0
M  V30 904 C 79.8015 -3.95697 3.59622 0
M  V30 905 C 81.1015 -2.11601 4.77517 0
M  V30 906 H 82.7955 -0.953525 2.8381 0
M  V30 907 H 80.3415 -0.457244 1.36548 0
M  V30 908 H 82.2945 -3.37077 2.52898 0
M  V30 909 H 81.0185 -2.9732 1.35161 0
M  V30 910 H 79.6775 -1.85051 3.16467 0
M  V30 911 H 79.3255 -4.27322 2.6534 0
M  V30 912 H 79.0255 -3.92345 4.37424 0
M  V30 913 H 80.5495 -4.71438 3.88044 0
M  V30 914 H 81.9635 -2.7542 5.02809 0
M  V30 915 H 80.3605 -2.19311 5.5859 0
M  V30 916 H 81.4305 -1.06824 4.72987 0
M  V30 917 N 82.7736 -1.49793 -0.48987 0
M  V30 918 C 83.7066 -1.61898 -1.60823 0
M  V30 919 C 84.6846 -0.467651 -1.5573 0
M  V30 920 O 85.8686 -0.684682 -1.75626 0
M  V30 921 C 82.9956 -1.58422 -2.99366 0
M  V30 922 C 82.0416 -2.78889 -3.22682 0
M  V30 923 S 82.8746 -4.40429 -3.04602 0
M  V30 924 C 84.0306 -4.39617 -4.4552 0
M  V30 925 H 84.2636 -2.56502 -1.50312 0
M  V30 926 H 81.7966 -1.38822 -0.675849 0
M  V30 927 H 83.7546 -1.57103 -3.79248 0
M  V30 928 H 82.4156 -0.650866 -3.07283 0
M  V30 929 H 81.6086 -2.72708 -4.23847 0
M  V30 930 H 81.2106 -2.77678 -2.50541 0
M  V30 931 H 83.5026 -4.12022 -5.37814 0
M  V30 932 H 84.4456 -5.41097 -4.56749 0
M  V30 933 H 84.8536 -3.69554 -4.2672 0
M  V30 934 N 84.2517 0.741722 -1.39055 0
M  V30 935 C 85.1617 1.88621 -1.39496 0
M  V30 936 C 86.1777 1.71557 -0.290578 0
M  V30 937 O 87.3537 1.94275 -0.530954 0
M  V30 938 C 84.4187 3.24134 -1.23037 0
M  V30 939 C 83.4797 3.5364 -2.43387 0
M  V30 940 C 82.7127 4.82687 -2.27703 0
M  V30 941 O 82.9357 5.55922 -1.27696 0
M  V30 942 O 81.8697 5.1194 -3.16545 0
M  V30 943 H 85.6957 1.91203 -2.35956 0
M  V30 944 H 83.2807 0.888625 -1.20099 0
M  V30 945 H 85.1627 4.0513 -1.15964 0
M  V30 946 H 83.8377 3.22337 -0.296691 0
M  V30 947 H 82.7447 2.72758 -2.56035 0
M  V30 948 H 84.0777 3.60209 -3.35425 0
M  V30 949 N 85.7298 1.2412 0.971189 0
M  V30 950 C 86.6398 1.04747 2.09917 0
M  V30 951 C 87.6558 -0.0107162 1.73997 0
M  V30 952 O 88.8318 0.186714 2.00533 0
M  V30 953 C 85.8968 0.650828 3.40537 0
M  V30 954 C 84.9578 1.7851 3.90426 0
M  V30 955 C 84.1908 1.40729 5.14812 0
M  V30 956 O 84.4138 0.29557 5.69634 0
M  V30 957 O 83.3478 2.23168 5.58999 0
M  V30 958 H 87.1738 1.99304 2.29154 0
M  V30 959 H 84.7588 1.02908 1.08307 0
M  V30 960 H 86.6408 0.440992 4.19086 0
M  V30 961 H 85.3158 -0.265649 3.22608 0
M  V30 962 H 84.2228 2.04966 3.12953 0
M  V30 963 H 85.5558 2.68023 4.12825 0
M  V30 964 N 87.2079 -1.17134 1.05439 0
M  V30 965 C 88.4559 -1.87085 0.764429 0
M  V30 966 C 88.7769 -1.81584 -0.710787 0
M  V30 967 O 88.0469 -1.24349 -1.51374 0
M  V30 968 H 86.6269 -0.692627 0.279779 0
M  V30 969 H 89.2889 -1.42087 1.33406 0
M  V30 970 H 88.3849 -2.92759 1.0816 0
M  V30 971 N 88.686 -0.835752 -1.33615 0
M  V30 972 C 89.633 -0.26473 -2.29277 0
M  V30 973 C 90.603 0.617712 -1.54187 0
M  V30 974 O 91.788 0.556641 -1.825 0
M  V30 975 C 88.928 0.556777 -3.40579 0
M  V30 976 C 88.041 -0.349339 -4.30585 0
M  V30 977 C 87.176 0.482969 -5.29 0
M  V30 978 C 86.215 -0.421732 -6.10645 0
M  V30 979 N 85.352 0.372262 -7.01112 0
M  V30 980 H 90.192 -1.08582 -2.77514 0
M  V30 981 H 87.729 -0.546927 -1.36554 0
M  V30 982 H 89.687 1.04852 -4.03809 0
M  V30 983 H 88.317 1.34286 -2.93542 0
M  V30 984 H 87.369 -0.959372 -3.68104 0
M  V30 985 H 88.681 -1.04445 -4.87742 0
M  V30 986 H 87.835 1.03866 -5.97743 0
M  V30 987 H 86.574 1.21153 -4.72412 0
M  V30 988 H 85.579 -0.989464 -5.40823 0
M  V30 989 H 86.804 -1.14861 -6.69316 0
M  V30 990 H 84.75 1.08426 -6.46977 0
M  V30 991 H 84.667 -0.264198 -7.55538 0
M  V30 992 H 85.935 0.910293 -7.74167 0
M  V30 993 N 90.1641 1.46063 -0.591896 0
M  V30 994 C 91.1141 2.27458 0.157172 0
M  V30 995 C 92.0981 1.3641 0.853301 0
M  V30 996 O 93.2901 1.60517 0.74588 0
M  V30 997 C 90.4191 3.22956 1.16423 0
M  V30 998 C 89.5051 4.2149 0.469742 0
M  V30 999 N 89.8961 5.03519 -0.479839 0
M  V30 1000 C 88.1941 4.40161 0.719319 0
M  V30 1001 C 88.8951 5.74904 -0.886591 0
M  V30 1002 N 87.8711 5.43097 -0.233731 0
M  V30 1003 H 91.6731 2.88272 -0.572392 0
M  V30 1004 H 89.1871 1.57024 -0.414375 0
M  V30 1005 H 91.1841 3.79986 1.71513 0
M  V30 1006 H 89.8441 2.63701 1.89451 0
M  V30 1007 H 90.8551 5.1078 -0.855823 0
M  V30 1008 H 87.5321 3.92046 1.43548 0
M  V30 1009 H 88.9221 6.50844 -1.66888 0
M  V30 1010 N 91.6422 0.330177 1.54103 0
M  V30 1011 C 92.8882 -0.270806 2.00984 0
M  V30 1012 C 93.2212 -1.51265 1.21789 0
M  V30 1013 O 92.4962 -1.92142 0.301927 0
M  V30 1014 C 92.7792 -0.598339 3.55094 0
M  V30 1015 C 92.6322 0.654674 4.4501 0
M  V30 1016 C 93.9512 -1.41334 4.16789 0
M  V30 1017 H 91.0702 -0.0969531 0.730595 0
M  V30 1018 H 93.7122 0.448066 1.84641 0
M  V30 1019 H 91.8622 -1.21078 3.69151 0
M  V30 1020 H 93.5342 1.29285 4.42813 0
M  V30 1021 H 91.7772 1.28224 4.14416 0
M  V30 1022 H 92.4482 0.380944 5.50684 0
M  V30 1023 H 94.9242 -0.895597 4.06347 0
M  V30 1024 H 93.8002 -1.61127 5.24718 0
M  V30 1025 H 94.0612 -2.41146 3.70541 0
M  V30 1026 N 93.1203 -1.57491 0.0584922 0
M  V30 1027 C 94.0503 -2.14988 -0.911178 0
M  V30 1028 C 95.0313 -1.07343 -1.31952 0
M  V30 1029 O 96.2163 -1.35318 -1.39294 0
M  V30 1030 C 93.3463 -2.70078 -2.18347 0
M  V30 1031 C 92.3003 -3.82771 -1.91495 0
M  V30 1032 C 91.6263 -4.24408 -3.25241 0
M  V30 1033 C 92.9263 -5.07592 -1.23075 0
M  V30 1034 H 94.6203 -2.96263 -0.432246 0
M  V30 1035 H 92.1663 -1.42512 -0.206469 0
M  V30 1036 H 94.1193 -3.08943 -2.86587 0
M  V30 1037 H 92.8433 -1.86005 -2.68458 0
M  V30 1038 H 91.5023 -3.44389 -1.25664 0
M  V30 1039 H 91.1503 -3.37275 -3.73168 0
M  V30 1040 H 90.8503 -5.00366 -3.08071 0
M  V30 1041 H 92.3743 -4.65879 -3.94701 0
M  V30 1042 H 93.7883 -5.43857 -1.81362 0
M  V30 1043 H 92.1853 -5.88741 -1.16207 0
M  V30 1044 H 93.2553 -4.84454 -0.207847 0
M  V30 1045 N 94.5984 0.214957 -1.56127 0
M  V30 1046 C 95.8264 0.955092 -1.83536 0
M  V30 1047 C 96.2414 1.77677 -0.638472 0
M  V30 1048 O 95.5984 1.78219 0.392968 0
M  V30 1049 C 95.6494 1.86734 -3.09536 0
M  V30 1050 O 95.3704 1.07887 -4.24608 0
M  V30 1051 C 96.8714 2.72082 -3.4998 0
M  V30 1052 H 94.0914 0.279611 -0.609966 0
M  V30 1053 H 96.6354 0.228197 -2.03223 0
M  V30 1054 H 94.7904 2.5481 -2.91806 0
M  V30 1055 H 95.2044 1.69872 -4.9623 0
M  V30 1056 H 96.6784 3.31782 -4.41163 0
M  V30 1057 H 97.1554 3.44806 -2.7204 0
M  V30 1058 H 97.7614 2.09409 -3.70173 0
M  V30 1059 N 96.0765 1.50051 0.48192 0
M  V30 1060 C 97.4925 1.37237 0.814756 0
M  V30 1061 C 97.6925 0.420109 1.97072 0
M  V30 1062 O 96.7485 -0.141246 2.52105 0
M  V30 1063 C 98.0615 2.78375 1.13701 0
M  V30 1064 C 99.6095 2.87213 1.2441 0
M  V30 1065 C 100.084 4.29161 1.59954 0
M  V30 1066 N 101.575 4.32061 1.66967 0
M  V30 1067 C 102.31 5.38879 1.95952 0
M  V30 1068 N 101.806 6.55918 2.23031 0
M  V30 1069 N 103.599 5.26312 1.97363 0
M  V30 1070 H 95.7505 2.10546 -0.28005 0
M  V30 1071 H 98.0135 0.945921 -0.0627454 0
M  V30 1072 H 97.7195 3.49845 0.360787 0
M  V30 1073 H 97.5935 3.14941 2.07586 0
M  V30 1074 H 99.9805 2.15969 2.01101 0
M  V30 1075 H 100.061 2.54204 0.285299 0
M  V30 1076 H 99.7055 5.00938 0.838067 0
M  V30 1077 H 99.6355 4.59648 2.56966 0
M  V30 1078 H 102.126 3.47661 1.48123 0
M  V30 1079 H 102.439 7.33139 2.44391 0
M  V30 1080 H 100.784 6.59112 2.20447 0
M  V30 1081 H 103.975 4.33876 1.75697 0
M  V30 1082 H 104.148 6.09649 2.19618 0
M  V30 1083 N 97.5546 -0.734337 1.39446 0
M  V30 1084 C 98.8316 -1.48579 1.27215 0
M  V30 1085 C 99.2116 -2.1077 -0.117968 0
M  V30 1086 O 98.5596 -1.98646 -1.12924 0
M  V30 1087 C 98.7696 -2.53667 2.39696 0
M  V30 1088 C 100.118 -3.20031 2.79044 0
M  V30 1089 O 101.142 -2.6398 2.39151 0
M  V30 1090 O 100.001 -4.21455 3.47905 0
M  V30 1091 H 97.0946 -0.659816 0.49857 0
M  V30 1092 H 99.6406 -0.768106 1.51322 0
M  V30 1093 H 98.4126 -2.06096 3.32626 0
M  V30 1094 H 98.0356 -3.32994 2.17258 0
M  V30 1095 N 99.0327 -1.24633 -0.964593 0
M  V30 1096 C 100.31 -0.995809 -1.68354 0
M  V30 1097 C 100.69 0.480964 -2.05548 0
M  V30 1098 O 100.038 1.45599 -1.76105 0
M  V30 1099 C 100.248 -1.92177 -2.91323 0
M  V30 1100 C 101.596 -2.19446 -3.63495 0
M  V30 1101 O 102.62 -1.89855 -3.01386 0
M  V30 1102 O 101.479 -2.69714 -4.75307 0
M  V30 1103 H 98.5727 -0.376854 -0.736146 0
M  V30 1104 H 101.119 -1.35745 -1.0184 0
M  V30 1105 H 99.8907 -2.91938 -2.60553 0
M  V30 1106 H 99.5137 -1.56349 -3.65569 0
M  V30 1107 N 100.511 1.16574 -1.06058 0
M  V30 1108 C 101.757 1.87324 -0.777022 0
M  V30 1109 C 102.09 1.81351 0.694645 0
M  V30 1110 O 101.365 1.22753 1.50871 0
M  V30 1111 C 101.648 3.36991 -1.26922 0
M  V30 1112 C 101.501 3.51667 -2.80447 0
M  V30 1113 C 102.82 4.3131 -0.87521 0
M  V30 1114 H 99.9388 0.680191 -0.28374 0
M  V30 1115 H 102.581 1.37036 -1.3161 0
M  V30 1116 H 100.731 3.79949 -0.81063 0
M  V30 1117 H 102.403 3.17664 -3.34495 0
M  V30 1118 H 100.646 2.93656 -3.19294 0
M  V30 1119 H 101.317 4.56766 -3.0995 0
M  V30 1120 H 103.793 3.9624 -1.27014 0
M  V30 1121 H 102.669 5.34545 -1.2471 0
M  V30 1122 H 102.93 4.41552 0.220071 0
M  V30 1123 N 101.989 0.842826 1.3317 0
M  V30 1124 C 102.922 0.223862 2.27099 0
M  V30 1125 C 103.9 -0.631311 1.49844 0
M  V30 1126 O 105.084 -0.590708 1.79005 0
M  V30 1127 C 102.211 -0.685313 3.31694 0
M  V30 1128 C 101.257 0.094919 4.26394 0
M  V30 1129 S 102.09 1.45546 5.15341 0
M  V30 1130 C 103.246 0.551685 6.23464 0
M  V30 1131 H 103.479 1.02015 2.79249 0
M  V30 1132 H 101.012 0.639797 1.4052 0
M  V30 1133 H 102.97 -1.20426 3.92438 0
M  V30 1134 H 101.631 -1.4553 2.78352 0
M  V30 1135 H 100.824 -0.597059 5.00451 0
M  V30 1136 H 100.426 0.545054 3.70007 0
M  V30 1137 H 102.718 -0.248877 6.77043 0
M  V30 1138 H 103.661 1.26253 6.96754 0
M  V30 1139 H 104.069 0.131275 5.64347 0
M  V30 1140 N 103.467 -1.45747 0.599634 0
M  V30 1141 C 104.377 -2.34262 -0.125888 0
M  V30 1142 C 105.393 -1.50768 -0.868625 0
M  V30 1143 O 106.569 -1.83592 -0.828003 0
M  V30 1144 C 103.634 -3.28252 -1.11587 0
M  V30 1145 C 102.695 -4.27651 -0.375956 0
M  V30 1146 C 101.928 -5.1715 -1.31877 0
M  V30 1147 O 102.151 -5.09916 -2.55621 0
M  V30 1148 O 101.085 -5.96286 -0.820157 0
M  V30 1149 H 104.911 -2.97688 0.601315 0
M  V30 1150 H 102.496 -1.44999 0.359934 0
M  V30 1151 H 104.378 -3.86191 -1.68626 0
M  V30 1152 H 103.053 -2.67401 -1.82424 0
M  V30 1153 H 101.96 -3.7335 0.236698 0
M  V30 1154 H 103.293 -4.91334 0.29177 0
M  V30 1155 N 104.945 -0.338344 -1.53925 0
M  V30 1156 C 106.193 0.259245 -2.0043 0
M  V30 1157 C 106.514 1.51484 -1.22791 0
M  V30 1158 O 105.784 1.93037 -0.33368 0
M  V30 1159 H 104.364 0.0987845 -0.740439 0
M  V30 1160 H 107.026 -0.458302 -1.89435 0
M  V30 1161 H 106.122 0.505334 -3.07982 0
M  V30 1162 N 106.423 1.57458 -0.0668435 0
M  V30 1163 C 107.669 1.93587 0.6043 0
M  V30 1164 C 108.002 0.946722 1.69561 0
M  V30 1165 O 107.277 -0.0248516 1.94484 0
M  V30 1166 C 107.56 3.40014 1.18585 0
M  V30 1167 C 107.413 4.49685 0.101529 0
M  V30 1168 C 108.732 3.87154 2.09284 0
M  V30 1169 H 105.851 0.703958 0.218202 0
M  V30 1170 H 108.493 1.89542 -0.131804 0
M  V30 1171 H 106.643 3.43592 1.81319 0
M  V30 1172 H 108.315 4.5823 -0.531279 0
M  V30 1173 H 106.558 4.30059 -0.568487 0
M  V30 1174 H 107.229 5.49266 0.54874 0
M  V30 1175 H 109.705 3.85551 1.56491 0
M  V30 1176 H 108.581 4.90231 2.46911 0
M  V30 1177 H 108.842 3.2481 2.99918 0
M  V30 1178 N 107.901 -0.206675 1.56239 0
M  V30 1179 C 109.312 -0.772383 1.69974 0
M  V30 1180 C 109.663 -1.84353 0.671436 0
M  V30 1181 O 108.788 -2.15695 -0.174491 0
M  V30 1182 C 109.383 -1.40779 3.08167 0
M  V30 1183 C 107.942 -1.92072 3.23706 0
M  V30 1184 C 107.089 -0.786347 2.65917 0
M  V30 1185 H 110.04 0.0182223 1.5869 0
M  V30 1186 H 110.061 -2.27696 3.04852 0
M  V30 1187 H 109.573 -0.627958 3.82986 0
M  V30 1188 H 107.674 -2.7281 2.53782 0
M  V30 1189 H 107.787 -2.09046 4.31087 0
M  V30 1190 H 106.151 -1.1976 2.24788 0
M  V30 1191 H 106.934 -0.0189416 3.43295 0
M  V30 1192 N 109.379 -1.50304 -0.473955 0
M  V30 1193 C 110.289 -1.7174 -1.5982 0
M  V30 1194 C 111.305 -0.600457 -1.63311 0
M  V30 1195 O 112.481 -0.878441 -1.81233 0
M  V30 1196 C 109.546 -1.80427 -2.96052 0
M  V30 1197 C 108.607 -3.04148 -3.02972 0
M  V30 1198 C 107.84 -3.12411 -4.32706 0
M  V30 1199 O 108.063 -2.27542 -5.23049 0
M  V30 1200 O 106.997 -4.05113 -4.45159 0
M  V30 1201 H 110.823 -2.67035 -1.44657 0
M  V30 1202 H 108.408 -1.34366 -0.653148 0
M  V30 1203 H 110.29 -1.88338 -3.7697 0
M  V30 1204 H 108.965 -0.883156 -3.11419 0
M  V30 1205 H 107.872 -3.0174 -2.21142 0
M  V30 1206 H 109.205 -3.95829 -2.92541 0
M  V30 1207 N 110.857 0.726932 -1.39834 0
M  V30 1208 C 111.79 1.8501 -1.33592 0
M  V30 1209 C 112.768 1.61262 -0.208191 0
M  V30 1210 O 113.952 1.84422 -0.389981 0
M  V30 1211 C 111.079 3.21143 -1.07633 0
M  V30 1212 C 110.125 3.63737 -2.22705 0
M  V30 1213 S 110.958 3.72167 -3.85035 0
M  V30 1214 C 112.114 5.11077 -3.61318 0
M  V30 1215 H 112.347 1.90022 -2.28646 0
M  V30 1216 H 109.88 0.892595 -1.25985 0
M  V30 1217 H 111.838 3.99747 -0.933415 0
M  V30 1218 H 110.499 3.13776 -0.142526 0
M  V30 1219 H 109.692 4.62551 -2.00155 0
M  V30 1220 H 109.294 2.9236 -2.33242 0
M  V30 1221 H 111.586 5.97656 -3.19083 0
M  V30 1222 H 112.529 5.38658 -4.59623 0
M  V30 1223 H 112.937 4.81135 -2.95245 0
M  V30 1224 N 112.336 1.25143 0.95797 0
M  V30 1225 C 113.585 1.0909 1.69654 0
M  V30 1226 C 113.898 -0.368548 1.92097 0
M  V30 1227 O 115.104 -0.649455 2.63618 0
M  V30 1228 C 113.56 1.90395 3.05414 0
M  V30 1229 C 113.168 3.4081 2.90779 0
M  V30 1230 C 114.912 1.82901 3.83076 0
M  V30 1231 C 112.819 4.14423 4.21909 0
M  V30 1232 H 111.749 0.404625 0.636235 0
M  V30 1233 H 114.4 1.4931 1.06672 0
M  V30 1234 H 112.782 1.42996 3.69281 0
M  V30 1235 H 113.956 3.95859 2.35865 0
M  V30 1236 H 112.271 3.49361 2.26575 0
M  V30 1237 H 114.868 2.35196 4.80195 0
M  V30 1238 H 115.211 0.796224 4.08615 0
M  V30 1239 H 115.744 2.28033 3.25954 0
M  V30 1240 H 112.483 5.18102 4.01561 0
M  V30 1241 H 112.003 3.64159 4.76601 0
M  V30 1242 H 113.682 4.21956 4.90471 0
M  V30 1243 N 113.814 -1.1601 1.06675 0
M  V30 1244 C 115.091 -1.82679 0.699114 0
M  V30 1245 C 115.471 -1.94559 -0.819137 0
M  V30 1246 O 114.819 -1.49169 -1.73092 0
M  V30 1247 C 115.029 -3.19445 1.40555 0
M  V30 1248 C 116.377 -3.95171 1.55323 0
M  V30 1249 O 117.401 -3.28976 1.36577 0
M  V30 1250 O 116.26 -5.13833 1.86112 0
M  V30 1251 H 113.354 -0.788954 0.247951 0
M  V30 1252 H 115.9 -1.23179 1.16726 0
M  V30 1253 H 114.672 -3.05856 2.44065 0
M  V30 1254 H 114.295 -3.86625 0.927733 0
M  V30 1255 N 115.292 -0.849877 -1.32721 0
M  V30 1256 C 116.569 -0.372405 -1.92022 0
M  V30 1257 C 116.949 1.1435 -1.77447 0
M  V30 1258 O 116.297 1.96296 -1.16962 0
M  V30 1259 C 116.507 -0.831482 -3.3895 0
M  V30 1260 C 117.855 -0.845882 -4.16089 0
M  V30 1261 O 118.879 -0.775806 -3.47649 0
M  V30 1262 O 117.738 -0.943753 -5.38289 0
M  V30 1263 H 114.832 -0.107667 -0.819961 0
M  V30 1264 H 117.378 -0.93646 -1.41522 0
M  V30 1265 H 116.15 -1.87448 -3.4348 0
M  V30 1266 H 115.773 -0.24461 -3.96847 0
M  V30 1267 N 116.77 1.45427 -0.607355 0
M  V30 1268 C 118.019 2.01452 -0.100036 0
M  V30 1269 C 118.332 1.48159 1.27704 0
M  V30 1270 O 119.538 1.96159 1.87707 0
M  V30 1271 C 117.994 3.59672 -0.128158 0
M  V30 1272 C 117.602 4.21962 -1.50507 0
M  V30 1273 C 119.346 4.23262 0.323932 0
M  V30 1274 C 117.253 5.72333 -1.48959 0
M  V30 1275 H 116.183 0.75325 -0.0336299 0
M  V30 1276 H 118.834 1.66901 -0.76265 0
M  V30 1277 H 117.216 3.91411 0.601105 0
M  V30 1278 H 118.39 4.01796 -2.25602 0
M  V30 1279 H 116.705 3.70565 -1.89923 0
M  V30 1280 H 119.302 5.33522 0.354691 0
M  V30 1281 H 119.645 3.93921 1.34656 0
M  V30 1282 H 120.178 3.96239 -0.352056 0
M  V30 1283 H 116.917 6.06373 -2.48981 0
M  V30 1284 H 116.437 5.94691 -0.781214 0
M  V30 1285 H 118.116 6.35525 -1.21313 0
M  V30 1286 N 118.248 0.346503 1.53744 0
M  V30 1287 C 119.18 -0.543316 2.22667 0
M  V30 1288 C 120.193 -1.06159 1.23427 0
M  V30 1289 O 121.382 -0.971235 1.49764 0
M  V30 1290 C 118.482 -1.76076 2.89569 0
M  V30 1291 C 117.655 -1.37727 4.15151 0
M  V30 1292 C 116.714 -2.45471 4.65436 0
M  V30 1293 O 115.74 -2.08655 5.29577 0
M  V30 1294 N 116.942 -3.7677 4.41616 0
M  V30 1295 H 119.707 0.0469703 2.99663 0
M  V30 1296 H 117.268 0.170766 1.60997 0
M  V30 1297 H 119.26 -2.47593 3.20125 0
M  V30 1298 H 117.83 -2.25835 2.16142 0
M  V30 1299 H 117.05 -0.492746 3.91108 0
M  V30 1300 H 118.338 -1.09708 4.96832 0
M  V30 1301 H 117.736 -4.09467 3.90325 0
M  V30 1302 H 116.293 -4.44448 4.7677 0
M  V30 1303 N 119.726 -1.57421 0.075193 0
M  V30 1304 C 120.689 -2.11791 -0.876203 0
M  V30 1305 C 121.689 -1.04268 -1.22412 0
M  V30 1306 O 122.879 -1.30242 -1.15684 0
M  V30 1307 C 120.011 -2.62207 -2.17854 0
M  V30 1308 H 121.204 -2.9716 -0.40444 0
M  V30 1309 H 118.757 -1.55333 -0.173557 0
M  V30 1310 H 119.492 -1.803 -2.6956 0
M  V30 1311 H 119.277 -3.40802 -1.93897 0
M  V30 1312 H 120.767 -3.04335 -2.85955 0
M  V30 1313 N 121.204 0.198386 -1.56346 0
M  V30 1314 C 122.114 1.2664 -1.97483 0
M  V30 1315 C 123.13 1.49989 -0.882002 0
M  V30 1316 O 124.306 1.62668 -1.18748 0
M  V30 1317 C 121.371 2.59141 -2.30319 0
M  V30 1318 C 120.432 2.43892 -3.53292 0
M  V30 1319 C 119.665 3.70074 -3.84553 0
M  V30 1320 O 119.888 4.74101 -3.1715 0
M  V30 1321 O 118.822 3.658 -4.7799 0
M  V30 1322 H 122.648 0.947304 -2.88548 0
M  V30 1323 H 120.233 0.403123 -1.43859 0
M  V30 1324 H 122.115 3.37352 -2.5253 0
M  V30 1325 H 120.79 2.90684 -1.42423 0
M  V30 1326 H 119.697 1.63803 -3.36332 0
M  V30 1327 H 121.03 2.17282 -4.41644 0
M  V30 1328 N 122.682 1.50554 0.465978 0
M  V30 1329 C 123.645 1.69233 1.54574 0
M  V30 1330 C 124.645 0.562901 1.50626 0
M  V30 1331 O 125.835 0.830016 1.53155 0
M  V30 1332 C 122.967 1.7223 2.94193 0
M  V30 1333 H 124.16 2.65571 1.39327 0
M  V30 1334 H 121.713 1.40111 0.692711 0
M  V30 1335 H 122.448 0.77603 3.14878 0
M  V30 1336 H 122.233 2.54285 2.98466 0
M  V30 1337 H 123.723 1.88618 3.72576 0
M  V30 1338 N 124.16 -0.719506 1.40217 0
M  V30 1339 C 125.388 -1.50864 1.41589 0
M  V30 1340 C 125.803 -1.88794 0.0145275 0
M  V30 1341 O 125.16 -1.55174 -0.960594 0
M  V30 1342 C 125.211 -2.78646 2.30302 0
M  V30 1343 O 124.932 -2.42321 3.64983 0
M  V30 1344 C 126.433 -3.72569 2.40224 0
M  V30 1345 H 123.653 -0.465709 0.48307 0
M  V30 1346 H 126.197 -0.88785 1.84221 0
M  V30 1347 H 124.352 -3.37019 1.91042 0
M  V30 1348 H 124.766 -3.24514 4.12057 0
M  V30 1349 H 126.24 -4.5908 3.06512 0
M  V30 1350 H 126.717 -4.15403 1.42608 0
M  V30 1351 H 127.323 -3.20109 2.80019 0
M  V30 1352 N 125.638 -1.25649 -0.95132 0
M  V30 1353 C 126.885 -1.10594 -1.69633 0
M  V30 1354 C 127.213 0.352515 -1.91279 0
M  V30 1355 O 126.468 1.27601 -1.4838 0
M  V30 1356 C 126.767 -1.80909 -3.08231 0
M  V30 1357 C 126.433 -3.30825 -3.06375 0
M  V30 1358 C 125.095 -3.71722 -3.05576 0
M  V30 1359 C 127.447 -4.26589 -2.99452 0
M  V30 1360 C 124.775 -5.06788 -2.95606 0
M  V30 1361 C 127.127 -5.61683 -2.91024 0
M  V30 1362 C 125.791 -6.01904 -2.88562 0
M  V30 1363 H 125.061 -0.404691 -0.620731 0
M  V30 1364 H 127.708 -1.55964 -1.11119 0
M  V30 1365 H 126.013 -1.27979 -3.70309 0
M  V30 1366 H 127.71 -1.6671 -3.64704 0
M  V30 1367 H 124.3 -2.98287 -3.07771 0
M  V30 1368 H 128.484 -3.95982 -2.99185 0
M  V30 1369 H 123.74 -5.37126 -2.92071 0
M  V30 1370 H 127.914 -6.35578 -2.84629 0
M  V30 1371 H 125.541 -7.06521 -2.80593 0
M  V30 1372 N 127.117 1.15442 -1.07289 0
M  V30 1373 C 128.528 1.67803 -0.818475 0
M  V30 1374 C 128.879 1.8489 0.656507 0
M  V30 1375 O 128.004 1.55176 1.50829 0
M  V30 1376 C 128.599 3.04805 -1.47917 0
M  V30 1377 C 127.158 3.54245 -1.27229 0
M  V30 1378 C 126.305 2.29986 -1.54925 0
M  V30 1379 H 129.256 0.996646 -1.23502 0
M  V30 1380 H 129.277 3.69702 -0.90005 0
M  V30 1381 H 128.789 2.92336 -2.55267 0
M  V30 1382 H 126.89 3.71956 -0.21899 0
M  V30 1383 H 127.003 4.35723 -1.99203 0
M  V30 1384 H 125.367 2.35496 -0.970242 0
M  V30 1385 H 126.15 2.20105 -2.63455 0
M  V30 1386 N 128.595 0.856903 1.32268 0
M  V30 1387 C 129.872 0.382583 1.91822 0
M  V30 1388 C 130.252 -1.13407 1.78051 0
M  V30 1389 O 129.6 -1.95673 1.18001 0
M  V30 1390 C 129.81 0.849446 3.38505 0
M  V30 1391 C 131.158 0.867936 4.15634 0
M  V30 1392 O 132.182 0.794232 3.47232 0
M  V30 1393 O 131.041 0.972286 5.37781 0
M  V30 1394 H 128.135 0.112014 0.819379 0
M  V30 1395 H 130.681 0.943952 1.41024 0
M  V30 1396 H 129.453 1.89267 3.42482 0
M  V30 1397 H 129.076 0.265652 3.96712 0
M  V30 1398 N 130.073 -1.45103 0.615059 0
M  V30 1399 C 131.321 -2.01784 0.112955 0
M  V30 1400 C 131.642 -1.48504 -1.26378 0
M  V30 1401 O 130.912 -0.682245 -1.83636 0
M  V30 1402 H 129.492 -0.745993 0.0387668 0
M  V30 1403 H 132.154 -1.77808 0.798141 0
M  V30 1404 H 131.25 -3.12025 0.0684069 0
M  V30 1405 N 131.551 -0.354651 -1.53558 0
M  V30 1406 C 132.779 0.239515 -2.05509 0
M  V30 1407 C 133.194 1.4333 -1.2289 0
M  V30 1408 O 132.551 1.80538 -0.266899 0
M  V30 1409 C 132.602 0.643719 -3.55723 0
M  V30 1410 O 132.323 -0.502602 -4.35207 0
M  V30 1411 C 133.824 1.29743 -4.23889 0
M  V30 1412 H 131.044 0.0442697 -0.669538 0
M  V30 1413 H 133.588 -0.509856 -1.98042 0
M  V30 1414 H 131.743 1.34302 -3.63376 0
M  V30 1415 H 132.157 -0.178172 -5.24197 0
M  V30 1416 H 133.631 1.53091 -5.30346 0
M  V30 1417 H 134.108 2.25441 -3.76926 0
M  V30 1418 H 134.714 0.639865 -4.20459 0
M  V30 1419 N 133.029 1.57378 -0.0835403 0
M  V30 1420 C 133.976 2.13384 0.879539 0
M  V30 1421 C 134.946 1.04936 1.28754 0
M  V30 1422 O 136.131 1.32662 1.37133 0
M  V30 1423 C 133.271 2.70932 2.13752 0
M  V30 1424 C 132.384 3.93575 1.7811 0
M  V30 1425 C 131.519 4.39326 2.98607 0
M  V30 1426 C 130.558 5.54587 2.59037 0
M  V30 1427 N 129.695 5.95243 3.72331 0
M  V30 1428 H 134.535 2.9537 0.395076 0
M  V30 1429 H 132.072 1.45953 0.183349 0
M  V30 1430 H 134.03 3.02411 2.87408 0
M  V30 1431 H 132.66 1.91693 2.59718 0
M  V30 1432 H 131.712 3.68483 0.94469 0
M  V30 1433 H 133.024 4.77258 1.45005 0
M  V30 1434 H 132.178 4.72528 3.80529 0
M  V30 1435 H 130.917 3.5452 3.34913 0
M  V30 1436 H 129.922 5.21024 1.75539 0
M  V30 1437 H 131.147 6.41133 2.23887 0
M  V30 1438 H 129.093 5.13385 4.08378 0
M  V30 1439 H 129.01 6.73694 3.43034 0
M  V30 1440 H 130.278 6.33072 4.54797 0
M  V30 1441 N 134.507 -0.190092 1.56449 0
M  V30 1442 C 135.437 -1.23816 1.97969 0
M  V30 1443 C 136.418 -1.47201 0.852395 0
M  V30 1444 O 137.603 -1.58854 1.1171 0
M  V30 1445 C 134.733 -2.5813 2.3235 0
M  V30 1446 C 133.687 -2.49348 3.47864 0
M  V30 1447 C 133.013 -3.8798 3.67934 0
M  V30 1448 C 134.313 -2.01424 4.81898 0
M  V30 1449 H 136.007 -0.89311 2.85769 0
M  V30 1450 H 133.553 -0.428177 1.37487 0
M  V30 1451 H 135.506 -3.31637 2.59991 0
M  V30 1452 H 134.23 -2.94386 1.41438 0
M  V30 1453 H 132.889 -1.78297 3.20321 0
M  V30 1454 H 132.537 -4.21597 2.74344 0
M  V30 1455 H 132.237 -3.82978 4.45648 0
M  V30 1456 H 133.761 -4.63101 3.97957 0
M  V30 1457 H 135.175 -2.64693 5.08538 0
M  V30 1458 H 133.572 -2.07413 5.63116 0
M  V30 1459 H 134.642 -0.967677 4.75146 0
M  V30 1460 N 135.985 -1.50799 -0.457987 0
M  V30 1461 C 137.231 -1.62683 -1.21088 0
M  V30 1462 C 137.564 -0.332268 -1.91336 0
M  V30 1463 O 136.839 0.667043 -1.82704 0
M  V30 1464 C 137.122 -2.81615 -2.24422 0
M  V30 1465 C 136.975 -4.20989 -1.58392 0
M  V30 1466 C 138.294 -2.96085 -3.2561 0
M  V30 1467 H 135.413 -0.592087 -0.438864 0
M  V30 1468 H 138.055 -1.83225 -0.50286 0
M  V30 1469 H 136.205 -2.64231 -2.84806 0
M  V30 1470 H 137.877 -4.49994 -1.01504 0
M  V30 1471 H 136.12 -4.24641 -0.886704 0
M  V30 1472 H 136.791 -5.0016 -2.33547 0
M  V30 1473 H 139.267 -3.12042 -2.75262 0
M  V30 1474 H 138.143 -3.80902 -3.95228 0
M  V30 1475 H 138.404 -2.0726 -3.90507 0
M  V30 1476 N 137.463 0.71206 -1.40597 0
M  V30 1477 C 138.691 1.50111 -1.42388 0
M  V30 1478 C 139.106 1.88784 -0.0245395 0
M  V30 1479 O 138.463 1.55681 0.952351 0
M  V30 1480 C 138.514 2.7742 -2.31776 0
M  V30 1481 O 138.235 2.40382 -3.66262 0
M  V30 1482 C 139.736 3.7129 -2.42196 0
M  V30 1483 H 136.956 0.46314 -0.485533 0
M  V30 1484 H 139.5 0.878068 -1.8469 0
M  V30 1485 H 137.655 3.36001 -1.92827 0
M  V30 1486 H 138.069 3.22324 -4.13772 0
M  V30 1487 H 139.543 4.57448 -3.08943 0
M  V30 1488 H 140.02 4.14641 -1.44809 0
M  V30 1489 H 140.626 3.18619 -2.81712 0
M  V30 1490 N 138.941 1.26152 0.944643 0
M  V30 1491 C 140.187 1.11657 1.69294 0
M  V30 1492 C 140.52 -0.339926 1.91202 0
M  V30 1493 O 139.795 -1.24994 1.49019 0
M  V30 1494 C 140.078 1.88236 3.06984 0
M  V30 1495 C 139.931 3.41772 2.92424 0
M  V30 1496 C 141.25 1.67343 4.07043 0
M  V30 1497 H 138.369 0.407004 0.614424 0
M  V30 1498 H 141.011 1.55106 1.09737 0
M  V30 1499 H 139.161 1.51308 3.57824 0
M  V30 1500 H 140.833 3.88433 2.48832 0
M  V30 1501 H 139.076 3.68974 2.28124 0
M  V30 1502 H 139.747 3.90579 3.90067 0
M  V30 1503 H 142.223 1.99509 3.65151 0
M  V30 1504 H 141.099 2.23346 5.01406 0
M  V30 1505 H 141.36 0.617158 4.37771 0
M  V30 1506 N 140.419 -1.14872 1.07899 0
M  V30 1507 C 141.369 -2.17809 0.674027 0
M  V30 1508 C 142.353 -1.58008 -0.303699 0
M  V30 1509 O 143.545 -1.76616 -0.11654 0
M  V30 1510 C 140.674 -3.43208 0.0793318 0
M  V30 1511 C 139.76 -4.10051 1.08253 0
M  V30 1512 N 140.151 -4.52296 2.2641 0
M  V30 1513 C 138.449 -4.36469 0.917124 0
M  V30 1514 C 139.15 -5.04199 2.901 0
M  V30 1515 N 138.126 -4.98088 2.17736 0
M  V30 1516 H 141.928 -2.48207 1.57386 0
M  V30 1517 H 139.442 -1.315 0.952976 0
M  V30 1518 H 141.439 -4.16272 -0.228719 0
M  V30 1519 H 140.099 -3.14291 -0.815551 0
M  V30 1520 H 141.11 -4.45504 2.64096 0
M  V30 1521 H 137.787 -4.17432 0.0756078 0
M  V30 1522 H 139.177 -5.46802 3.90458 0
M  V30 1523 N 141.898 -0.863906 -1.31812 0
M  V30 1524 C 142.846 -0.30422 -2.30602 0
M  V30 1525 C 143.84 0.577419 -1.59255 0
M  V30 1526 O 145.046 0.464194 -1.73912 0
M  V30 1527 H 141.421 -0.0796877 -0.747766 0
M  V30 1528 H 143.392 -1.15148 -2.75288 0
M  V30 1529 C 142.141 0.484617 -3.44306 0
M  V30 1530 H 141.464 -0.18451 -3.99374 0
M  V30 1531 H 142.904 0.841664 -4.15562 0
M  V30 1532 C 141.363 1.6735 -2.92396 0
M  V30 1533 O 141.893 2.77273 -2.90659 0
M  V30 1534 N 140.099 1.50362 -2.48676 0
M  V30 1535 H 139.646 0.609402 -2.50288 0
M  V30 1536 H 139.604 2.30051 -2.14299 0
M  V30 1537 N 143.376 1.44774 -0.622745 0
M  V30 1538 C 144.787 1.85546 -0.207226 0
M  V30 1539 C 145.138 1.52093 1.23944 0
M  V30 1540 O 144.263 0.95492 1.94191 0
M  V30 1541 C 144.858 3.36781 -0.369313 0
M  V30 1542 C 143.417 3.76399 -0.00836847 0
M  V30 1543 C 142.564 2.68664 -0.686651 0
M  V30 1544 H 145.515 1.3536 -0.828454 0
M  V30 1545 H 145.536 3.78453 0.394162 0
M  V30 1546 H 145.048 3.61098 -1.42231 0
M  V30 1547 H 143.149 3.57698 1.04322 0
M  V30 1548 H 143.262 4.7732 -0.412584 0
M  V30 1549 H 141.626 2.54404 -0.122777 0
M  V30 1550 H 142.409 2.95815 -1.74208 0
M  V30 1551 N 144.854 0.36279 1.53368 0
M  V30 1552 C 146.103 -0.22888 2.00397 0
M  V30 1553 C 146.416 -1.50096 1.25421 0
M  V30 1554 O 147.622 -2.17106 1.63025 0
M  V30 1555 C 146.078 -0.458417 3.56969 0
M  V30 1556 C 145.686 0.798877 4.4082 0
M  V30 1557 C 147.43 -1.00789 4.12361 0
M  V30 1558 C 145.337 0.539078 5.88938 0
M  V30 1559 H 144.267 -0.089305 0.748693 0
M  V30 1560 H 146.918 0.481099 1.77081 0
M  V30 1561 H 145.3 -1.22959 3.76427 0
M  V30 1562 H 146.474 1.57262 4.33134 0
M  V30 1563 H 144.789 1.27137 3.96516 0
M  V30 1564 H 147.386 -1.21754 5.20653 0
M  V30 1565 H 147.729 -1.9692 3.66781 0
M  V30 1566 H 148.262 -0.296961 3.9669 0
M  V30 1567 H 145.001 1.47064 6.3879 0
M  V30 1568 H 144.521 -0.196222 5.99479 0
M  V30 1569 H 146.2 0.163542 6.46793 0
M  V30 1570 N 146.332 -1.57332 0.0918853 0
M  V30 1571 C 147.557 -1.98995 -0.584442 0
M  V30 1572 C 147.982 -0.970528 -1.61128 0
M  V30 1573 O 147.34 0.0613904 -1.81196 0
M  V30 1574 C 147.388 -3.39636 -1.21161 0
M  V30 1575 O 146.492 -3.40447 -2.32744 0
M  V30 1576 H 145.833 -0.647165 -0.148572 0
M  V30 1577 H 148.363 -2.03873 0.172347 0
M  V30 1578 H 148.373 -3.7726 -1.55367 0
M  V30 1579 H 147.048 -4.13356 -0.459313 0
M  V30 1580 H 145.625 -3.14614 -2.0018 0
M  V30 1581 O 147.849 0.0482292 -1.61428 0
M  V30 1582 H 148.54 0.671226 -1.81698 0
M  V30 END ATOM
M  V30 BEGIN BOND
M  V30 END BOND
M  V30 END CTAB
M  END
$$$$
