drugbank_target|P41091 Eukaryotic translation initiation factor 2 subunit 3 (DB04315)
 OpenBabel12092120563D

  0  0  0     0  0            999 V3000
M  V30 BEGIN CTAB
M  V30 COUNTS 7322 7380 0 0 0
M  V30 BEGIN ATOM
M  V30 1 H -0.908 1.98254 -0.117106 0
M  V30 2 N 0 1.576 0 0
M  V30 3 C 0.933 2.03868 1.02534 0
M  V30 4 C 1.911 0.928543 1.3348 0
M  V30 5 O 3.095 1.19667 1.45644 0
M  V30 6 C 0.222 2.43627 2.35294 0
M  V30 7 C -0.732 3.65373 2.2001 0
M  V30 8 S 0.101 5.13292 1.52614 0
M  V30 9 C 1.257 5.56322 2.86805 0
M  V30 10 H 1.49 2.90518 0.631377 0
M  V30 11 H -0.977 1.52953 0.210867 0
M  V30 12 H 0.981 2.67203 3.11629 0
M  V30 13 H -0.358 1.57376 2.7183 0
M  V30 14 H -1.165 3.90944 3.18086 0
M  V30 15 H -1.563 3.418 1.51819 0
M  V30 16 H 0.729 5.58782 3.83104 0
M  V30 17 H 1.672 6.56266 2.65933 0
M  V30 18 H 2.08 4.83886 2.90714 0
M  V30 19 N 1.4781 -0.272755 1.55222 0
M  V30 20 C 2.4411 -1.32041 1.87344 0
M  V30 21 C 3.4411 -1.42342 0.74803 0
M  V30 22 O 4.6311 -1.41488 1.0162 0
M  V30 23 C 1.7631 -2.70173 2.07893 0
M  V30 24 H 2.9561 -1.04789 2.80997 0
M  V30 25 H 0.5091 -0.51083 1.47717 0
M  V30 26 H 1.2441 -3.02605 1.16622 0
M  V30 27 H 1.0291 -2.64082 2.89833 0
M  V30 28 H 2.5191 -3.45869 2.34017 0
M  V30 29 N 2.9562 -1.48159 -0.537278 0
M  V30 30 C 4.2042 -1.55497 -1.29094 0
M  V30 31 C 4.5252 -0.227454 -1.93669 0
M  V30 32 O 3.7952 0.750386 -1.80959 0
M  V30 33 H 2.3752 -0.572832 -0.47945 0
M  V30 34 H 5.0372 -1.84579 -0.625818 0
M  V30 35 H 4.1332 -2.33216 -2.07405 0
M  V30 36 N 4.4343 0.785586 -1.36625 0
M  V30 37 C 5.6823 1.54057 -1.30808 0
M  V30 38 C 6.0033 1.94683 0.111157 0
M  V30 39 O 5.2733 1.65241 1.05224 0
M  V30 40 H 3.8533 0.571354 -0.481211 0
M  V30 41 H 6.5153 0.935821 -1.70963 0
M  V30 42 H 5.6113 2.44637 -1.93801 0
M  V30 43 N 5.9124 1.20967 1.01018 0
M  V30 44 C 6.8224 0.980157 2.13143 0
M  V30 45 C 7.8384 -0.0660665 1.73875 0
M  V30 46 O 9.0144 0.122821 2.01025 0
M  V30 47 C 6.0794 0.54216 3.42435 0
M  V30 48 C 5.1404 1.65999 3.95908 0
M  V30 49 C 4.3734 1.2428 5.19028 0
M  V30 50 O 4.5964 0.114196 5.70286 0
M  V30 51 O 3.5304 2.05271 5.65816 0
M  V30 52 H 7.3564 1.91913 2.35379 0
M  V30 53 H 4.9414 0.994099 1.11526 0
M  V30 54 H 6.8234 0.30744 4.20277 0
M  V30 55 H 5.4984 -0.36815 3.216 0
M  V30 56 H 4.4054 1.94906 3.19316 0
M  V30 57 H 5.7384 2.54753 4.21143 0
M  V30 58 N 7.3905 -1.2043 1.01659 0
M  V30 59 C 8.3535 -2.21433 0.591616 0
M  V30 60 C 9.3535 -1.57203 -0.338226 0
M  V30 61 O 10.5435 -1.73737 -0.126918 0
M  V30 62 C 7.6755 -3.40628 -0.136058 0
M  V30 63 H 8.8685 -2.60545 1.48514 0
M  V30 64 H 6.4215 -1.33893 0.806379 0
M  V30 65 H 7.1565 -3.07019 -1.04449 0
M  V30 66 H 6.9415 -3.88475 0.531917 0
M  V30 67 H 8.4315 -4.15475 -0.420735 0
M  V30 68 N 8.8686 -0.792821 -1.36206 0
M  V30 69 C 10.1166 -0.366062 -1.98757 0
M  V30 70 C 10.4376 1.0668 -1.63231 0
M  V30 71 O 9.7076 1.73587 -0.907978 0
M  V30 72 H 8.2876 -0.132364 -0.735179 0
M  V30 73 H 10.9496 -1.01562 -1.66347 0
M  V30 74 H 10.0456 -0.460638 -3.08682 0
M  V30 75 N 10.3467 1.47872 -0.545128 0
M  V30 76 C 11.5927 2.02793 -0.0166104 0
M  V30 77 C 11.9257 1.41987 1.32489 0
M  V30 78 O 11.2007 0.571045 1.85928 0
M  V30 79 C 11.4837 3.59989 0.0893294 0
M  V30 80 C 11.3367 4.3125 -1.27841 0
M  V30 81 C 12.6557 4.32606 0.808724 0
M  V30 82 H 9.7747 0.736962 -0.00751035 0
M  V30 83 H 12.4167 1.76433 -0.705085 0
M  V30 84 H 10.5667 3.82579 0.675681 0
M  V30 85 H 12.2387 4.20035 -1.90704 0
M  V30 86 H 10.4817 3.92076 -1.85632 0
M  V30 87 H 11.1527 5.39736 -1.15713 0
M  V30 88 H 13.6287 4.14936 0.310992 0
M  V30 89 H 12.5047 5.42251 0.851782 0
M  V30 90 H 12.7657 4.00963 1.86229 0
M  V30 91 N 11.8248 0.280983 1.55075 0
M  V30 92 C 13.0528 -0.337293 2.04132 0
M  V30 93 C 13.4678 -1.4903 1.15912 0
M  V30 94 O 12.8248 -1.81606 0.180459 0
M  V30 95 C 12.8758 -0.812706 3.52246 0
M  V30 96 O 12.5968 0.294387 4.3711 0
M  V30 97 C 14.0978 -1.4982 4.17216 0
M  V30 98 H 11.3178 -0.0761638 0.666663 0
M  V30 99 H 13.8618 0.414787 2.00249 0
M  V30 100 H 12.0168 -1.51486 3.56554 0
M  V30 101 H 12.4308 -0.0721325 5.2445 0
M  V30 102 H 13.9048 -1.7822 5.22438 0
M  V30 103 H 14.3818 -2.43168 3.65741 0
M  V30 104 H 14.9878 -0.839742 4.16927 0
M  V30 105 N 13.3029 -1.57598 0.00835791 0
M  V30 106 C 14.2329 -2.1198 -0.979113 0
M  V30 107 C 15.2139 -1.03091 -1.35301 0
M  V30 108 O 16.3989 -1.30818 -1.43528 0
M  V30 109 C 13.5289 -2.62995 -2.26828 0
M  V30 110 C 12.4829 -3.76485 -2.03576 0
M  V30 111 C 11.8089 -4.13846 -3.38579 0
M  V30 112 C 13.1089 -5.0342 -1.39161 0
M  V30 113 H 14.8029 -2.94738 -0.526281 0
M  V30 114 H 12.3489 -1.41783 -0.251704 0
M  V30 115 H 14.3019 -2.99669 -2.96271 0
M  V30 116 H 13.0259 -1.7737 -2.7424 0
M  V30 117 H 11.6849 -3.40217 -1.36557 0
M  V30 118 H 11.3329 -3.25232 -3.83709 0
M  V30 119 H 11.0329 -4.90312 -3.23834 0
M  V30 120 H 12.5569 -4.53086 -4.09323 0
M  V30 121 H 13.9709 -5.37812 -1.98573 0
M  V30 122 H 12.3679 -5.84746 -1.34878 0
M  V30 123 H 13.4379 -4.83548 -0.361868 0
M  V30 124 N 14.781 0.264519 -1.55364 0
M  V30 125 C 16.029 0.993021 -1.76021 0
M  V30 126 C 16.35 1.86511 -0.569099 0
M  V30 127 O 15.62 1.91438 0.415735 0
M  V30 128 H 14.2 0.369639 -0.649135 0
M  V30 129 H 16.862 0.286707 -1.9278 0
M  V30 130 H 15.958 1.62502 -2.66457 0
M  V30 131 N 16.2591 1.48442 0.529413 0
M  V30 132 C 17.1911 1.59095 1.64989 0
M  V30 133 C 18.2041 0.475212 1.5571 0
M  V30 134 O 19.3931 0.746081 1.6216 0
M  V30 135 C 16.4931 1.50518 3.0364 0
M  V30 136 C 15.6661 2.77142 3.38395 0
M  V30 137 C 14.7251 2.62012 4.56329 0
M  V30 138 O 13.7511 3.35898 4.59522 0
M  V30 139 N 14.9531 1.71667 5.54536 0
M  V30 140 H 17.7181 2.55723 1.56287 0
M  V30 141 H 15.2791 1.45173 0.716697 0
M  V30 142 H 17.2711 1.38091 3.80412 0
M  V30 143 H 15.8411 0.618627 3.06418 0
M  V30 144 H 15.0611 3.0413 2.50796 0
M  V30 145 H 16.3491 3.61146 3.58401 0
M  V30 146 H 15.7471 1.10841 5.54735 0
M  V30 147 H 14.3041 1.65178 6.30523 0
M  V30 148 N 17.7372 -0.778329 1.37039 0
M  V30 149 C 19.1482 -1.35421 1.28523 0
M  V30 150 C 19.4992 -1.96075 -0.0700901 0
M  V30 151 O 18.6242 -1.93352 -0.971801 0
M  V30 152 C 19.2192 -2.46211 2.32735 0
M  V30 153 C 17.7782 -2.99585 2.27873 0
M  V30 154 C 16.9252 -1.72748 2.16918 0
M  V30 155 H 19.8762 -0.5791 1.47757 0
M  V30 156 H 19.8972 -3.2552 1.9702 0
M  V30 157 H 19.4092 -2.02036 3.31365 0
M  V30 158 H 17.5102 -3.48152 1.32745 0
M  V30 159 H 17.6232 -3.55646 3.21018 0
M  V30 160 H 15.9872 -1.95416 1.63354 0
M  V30 161 H 16.7702 -1.30686 3.17452 0
M  V30 162 N 19.2153 -1.21501 -1.00376 0
M  V30 163 C 20.1653 -0.942843 -2.07592 0
M  V30 164 C 21.1493 0.102384 -1.60574 0
M  V30 165 O 22.3413 -0.10671 -1.76678 0
M  V30 166 C 19.4703 -0.510729 -3.3948 0
M  V30 167 C 18.5563 -1.59009 -3.93163 0
M  V30 168 N 18.9473 -2.81544 -4.20198 0
M  V30 169 C 17.2453 -1.45925 -4.21452 0
M  V30 170 C 17.9463 -3.51261 -4.63671 0
M  V30 171 N 16.9223 -2.78703 -4.66718 0
M  V30 172 H 20.7243 -1.87378 -2.26421 0
M  V30 173 H 18.2383 -1.11093 -1.18458 0
M  V30 174 H 20.2353 -0.297101 -4.1584 0
M  V30 175 H 18.8953 0.413436 -3.22057 0
M  V30 176 H 19.9063 -3.18075 -4.08716 0
M  V30 177 H 16.5833 -0.600467 -4.13159 0
M  V30 178 H 17.9733 -4.56183 -4.93302 0
M  V30 179 N 20.6934 1.19889 -1.02296 0
M  V30 180 C 21.6234 2.25141 -0.619174 0
M  V30 181 C 22.6044 1.66051 0.368915 0
M  V30 182 O 23.7894 1.92546 0.252941 0
M  V30 183 C 20.9194 3.4728 0.0368783 0
M  V30 184 C 19.8734 4.19005 -0.872865 0
M  V30 185 C 19.1994 5.34637 -0.0822402 0
M  V30 186 C 20.4994 4.74452 -2.18387 0
M  V30 187 H 22.1934 2.59171 -1.49903 0
M  V30 188 H 19.7394 1.24579 -0.722222 0
M  V30 189 H 21.6924 4.20098 0.330958 0
M  V30 190 H 20.4164 3.12433 0.95149 0
M  V30 191 H 19.0754 3.48061 -1.15105 0
M  V30 192 H 18.7234 4.96034 0.83422 0
M  V30 193 H 18.4234 5.83557 -0.688149 0
M  V30 194 H 19.9474 6.10255 0.205238 0
M  V30 195 H 21.3614 5.39055 -1.95172 0
M  V30 196 H 19.7584 5.33834 -2.74119 0
M  V30 197 H 20.8284 3.92844 -2.84257 0
M  V30 198 N 22.1715 0.800033 1.35784 0
M  V30 199 C 23.3965 0.388511 2.03729 0
M  V30 200 C 23.8215 -0.990481 1.5991 0
M  V30 201 O 23.1795 -1.64013 0.772612 0
M  V30 202 C 23.2275 0.4726 3.5749 0
M  V30 203 O 22.3315 -0.51646 4.09153 0
M  V30 204 H 21.6725 0.163271 0.643614 0
M  V30 205 H 24.2025 1.0841 1.73518 0
M  V30 206 H 24.2125 0.34003 4.06581 0
M  V30 207 H 22.8875 1.47848 3.88734 0
M  V30 208 H 21.4645 -0.344673 3.71304 0
M  V30 209 N 23.6496 -1.47581 0.552962 0
M  V30 210 C 25.0656 -1.5818 0.212424 0
M  V30 211 C 25.2656 -1.55213 -1.28496 0
M  V30 212 O 24.3216 -1.45329 -2.06484 0
M  V30 213 C 25.6346 -2.88865 0.835318 0
M  V30 214 C 27.1826 -3.0244 0.806156 0
M  V30 215 C 27.6576 -4.35819 1.40804 0
M  V30 216 N 29.1486 -4.42444 1.37103 0
M  V30 217 C 29.8836 -5.44202 1.80641 0
M  V30 218 N 29.3796 -6.52795 2.32015 0
M  V30 219 N 31.1726 -5.35222 1.71738 0
M  V30 220 H 23.3236 -1.47753 1.52587 0
M  V30 221 H 25.5866 -0.702941 0.636064 0
M  V30 222 H 25.2926 -2.9676 1.88749 0
M  V30 223 H 25.1666 -3.7579 0.325848 0
M  V30 224 H 27.5536 -2.94144 -0.237317 0
M  V30 225 H 27.6346 -2.17068 1.35334 0
M  V30 226 H 27.2786 -4.44871 2.45056 0
M  V30 227 H 27.2086 -5.19916 0.836338 0
M  V30 228 H 29.6996 -3.6456 0.995202 0
M  V30 229 H 30.0126 -7.26609 2.63171 0
M  V30 230 H 28.3576 -6.53696 2.36023 0
M  V30 231 H 31.5486 -4.49284 1.31382 0
M  V30 232 H 31.7216 -6.14389 2.05987 0
M  V30 233 N 25.1277 -0.289203 -1.54924 0
M  V30 234 C 26.0597 0.625583 -2.20497 0
M  V30 235 C 27.0727 1.10667 -1.19402 0
M  V30 236 O 28.2617 1.02615 -1.46056 0
M  V30 237 C 25.3617 1.86702 -2.82835 0
M  V30 238 C 24.5347 1.5304 -4.09753 0
M  V30 239 C 23.5937 2.62576 -4.56005 0
M  V30 240 O 22.6197 2.28167 -5.21468 0
M  V30 241 N 23.8217 3.92901 -4.27328 0
M  V30 242 H 26.5867 0.0642801 -2.99631 0
M  V30 243 H 24.1477 -0.110896 -1.6152 0
M  V30 244 H 26.1397 2.59304 -3.10715 0
M  V30 245 H 24.7097 2.33702 -2.07611 0
M  V30 246 H 23.9297 0.637564 -3.8901 0
M  V30 247 H 25.2177 1.28072 -4.92418 0
M  V30 248 H 24.6157 4.23671 -3.74859 0
M  V30 249 H 23.1727 4.61837 -4.59946 0
M  V30 250 N 26.6058 1.57591 -0.0167156 0
M  V30 251 C 27.8828 1.82547 0.702564 0
M  V30 252 C 28.2628 0.898018 1.91047 0
M  V30 253 O 27.6108 -0.0493456 2.28447 0
M  V30 254 C 27.8208 3.31459 1.09251 0
M  V30 255 C 29.1688 3.97622 1.48937 0
M  V30 256 O 30.1928 3.35881 1.18584 0
M  V30 257 O 29.0518 5.06415 2.05442 0
M  V30 258 H 26.1458 0.752268 0.343544 0
M  V30 259 H 28.6918 1.69644 -0.0434495 0
M  V30 260 H 27.4638 3.9061 0.23227 0
M  V30 261 H 27.0868 3.49422 1.89709 0
M  V30 262 N 28.0839 -0.256276 1.55502 0
M  V30 263 C 29.0139 -1.32102 1.92539 0
M  V30 264 C 29.9949 -1.50684 0.789194 0
M  V30 265 O 31.1799 -1.63449 1.04872 0
M  V30 266 C 28.3099 -2.67752 2.21192 0
M  V30 267 C 27.2639 -2.63878 3.36975 0
M  V30 268 C 26.5899 -4.03236 3.51147 0
M  V30 269 C 27.8899 -2.21682 4.72921 0
M  V30 270 H 29.5839 -1.01351 2.81724 0
M  V30 271 H 27.1299 -0.486105 1.35547 0
M  V30 272 H 29.0829 -3.42365 2.45691 0
M  V30 273 H 27.8069 -3.0012 1.28824 0
M  V30 274 H 26.4659 -1.91722 3.12471 0
M  V30 275 H 26.1139 -4.32854 2.56216 0
M  V30 276 H 25.8139 -4.01535 4.29003 0
M  V30 277 H 27.3379 -4.79563 3.77957 0
M  V30 278 H 28.7519 -2.86023 4.96854 0
M  V30 279 H 27.1489 -2.3111 5.53812 0
M  V30 280 H 28.2189 -1.16833 4.70615 0
M  V30 281 N 29.562 -1.4872 -0.521534 0
M  V30 282 C 30.79 -1.60843 -1.30142 0
M  V30 283 C 31.205 -0.271897 -1.86832 0
M  V30 284 O 30.562 0.739969 -1.66825 0
M  V30 285 C 30.613 -2.66155 -2.4463 0
M  V30 286 O 30.334 -3.94623 -1.90275 0
M  V30 287 C 31.835 -2.88795 -3.36322 0
M  V30 288 H 29.055 -0.542075 -0.395468 0
M  V30 289 H 31.599 -1.94609 -0.628285 0
M  V30 290 H 29.754 -2.35224 -3.07812 0
M  V30 291 H 30.168 -4.52468 -2.65279 0
M  V30 292 H 31.642 -3.66264 -4.12983 0
M  V30 293 H 32.119 -1.97934 -3.9207 0
M  V30 294 H 32.725 -3.21063 -2.78924 0
M  V30 295 N 31.0401 0.771051 -1.3745 0
M  V30 296 C 32.2681 1.56015 -1.35893 0
M  V30 297 C 32.6831 1.88718 0.0555523 0
M  V30 298 O 32.0401 1.51502 1.01752 0
M  V30 299 C 32.0911 2.87001 -2.19801 0
M  V30 300 O 31.8121 2.557 -3.55738 0
M  V30 301 C 33.3131 3.81228 -2.26231 0
M  V30 302 H 30.5331 0.483317 -0.465453 0
M  V30 303 H 33.0771 0.955611 -1.80799 0
M  V30 304 H 31.2321 3.43877 -1.78402 0
M  V30 305 H 31.6461 3.39584 -3.99729 0
M  V30 306 H 33.1201 4.70139 -2.89263 0
M  V30 307 H 33.5971 4.20409 -1.27093 0
M  V30 308 H 34.2031 3.30281 -2.67945 0
M  V30 309 N 32.5182 1.22032 0.997298 0
M  V30 310 C 33.4482 1.01065 2.10495 0
M  V30 311 C 34.4292 -0.0669542 1.69968 0
M  V30 312 O 35.6142 0.0943987 1.9397 0
M  V30 313 C 32.7442 0.582874 3.42374 0
M  V30 314 C 31.6982 1.60592 3.96729 0
M  V30 315 C 31.0242 1.03412 5.24605 0
M  V30 316 C 32.3242 2.99478 4.27914 0
M  V30 317 H 34.0182 1.93708 2.28292 0
M  V30 318 H 31.5642 0.932761 1.09707 0
M  V30 319 H 33.5172 0.423332 4.19268 0
M  V30 320 H 32.2412 -0.379213 3.24391 0
M  V30 321 H 30.9002 1.75316 3.21963 0
M  V30 322 H 30.5482 0.063518 5.0296 0
M  V30 323 H 30.2482 1.71754 5.61938 0
M  V30 324 H 31.7722 0.886066 6.04137 0
M  V30 325 H 33.1862 2.88153 4.95622 0
M  V30 326 H 31.5832 3.64903 4.76409 0
M  V30 327 H 32.6532 3.49742 3.3587 0
M  V30 328 N 33.9963 -1.19345 1.0293 0
M  V30 329 C 35.2733 -1.84811 0.640642 0
M  V30 330 C 35.6533 -1.91855 -0.88062 0
M  V30 331 O 35.0013 -1.43587 -1.7775 0
M  V30 332 C 35.2113 -3.23755 1.30321 0
M  V30 333 C 36.5593 -3.99912 1.42673 0
M  V30 334 O 37.5833 -3.33155 1.26041 0
M  V30 335 O 36.4423 -5.19494 1.6967 0
M  V30 336 H 33.5363 -0.796443 0.222726 0
M  V30 337 H 36.0823 -1.26831 1.12748 0
M  V30 338 H 34.8543 -3.13466 2.34211 0
M  V30 339 H 34.4773 -3.89381 0.804261 0
M  V30 340 N 35.4744 -0.807222 -1.35358 0
M  V30 341 C 36.7204 -0.388463 -1.99045 0
M  V30 342 C 37.0534 1.04184 -1.63888 0
M  V30 343 O 36.3284 1.72292 -0.902535 0
M  V30 344 C 36.6114 -0.572783 -3.55515 0
M  V30 345 C 36.4644 -2.04807 -4.00468 0
M  V30 346 C 37.7834 0.00114064 -4.401 0
M  V30 347 H 34.9024 -0.142619 -0.723069 0
M  V30 348 H 37.5444 -1.01687 -1.60498 0
M  V30 349 H 35.6944 -0.0378425 -3.88482 0
M  V30 350 H 37.3664 -2.64544 -3.77908 0
M  V30 351 H 35.6094 -2.54427 -3.51353 0
M  V30 352 H 36.2804 -2.12792 -5.09337 0
M  V30 353 H 38.7564 -0.455716 -4.13597 0
M  V30 354 H 37.6324 -0.157737 -5.48673 0
M  V30 355 H 37.8934 1.09488 -4.28328 0
M  V30 356 N 36.9525 1.47285 -0.560781 0
M  V30 357 C 38.1805 2.06855 -0.0430262 0
M  V30 358 C 38.5955 1.41291 1.25229 0
M  V30 359 O 37.9525 0.510648 1.7521 0
M  V30 360 C 38.0035 3.61178 0.152518 0
M  V30 361 O 37.7245 4.24285 -1.0915 0
M  V30 362 C 39.2255 4.37624 0.707145 0
M  V30 363 H 36.4455 0.669319 -0.0474652 0
M  V30 364 H 38.9895 1.89237 -0.77521 0
M  V30 365 H 37.1445 3.78298 0.834843 0
M  V30 366 H 37.5585 5.16868 -0.891482 0
M  V30 367 H 39.0325 5.46271 0.793244 0
M  V30 368 H 39.5095 4.04152 1.71923 0
M  V30 369 H 40.1155 4.25257 0.0604027 0
M  V30 370 N 38.4306 0.297415 1.54768 0
M  V30 371 C 39.3776 -0.580276 2.23386 0
M  V30 372 C 40.3476 -1.13238 1.21517 0
M  V30 373 O 41.5326 -1.17757 1.50126 0
M  V30 374 C 38.6726 -1.74801 2.97555 0
M  V30 375 C 37.7856 -1.22764 4.1419 0
M  V30 376 C 36.9206 -2.35895 4.75949 0
M  V30 377 C 35.9596 -1.80974 5.84735 0
M  V30 378 N 35.0966 -2.87664 6.40464 0
M  V30 379 H 39.9366 0.0114833 2.97998 0
M  V30 380 H 37.4736 0.0174361 1.4709 0
M  V30 381 H 39.4316 -2.43475 3.38786 0
M  V30 382 H 38.0616 -2.31145 2.25326 0
M  V30 383 H 37.1136 -0.433271 3.77924 0
M  V30 384 H 38.4256 -0.785551 4.92575 0
M  V30 385 H 37.5796 -3.12523 5.20014 0
M  V30 386 H 36.3186 -2.83429 3.96887 0
M  V30 387 H 35.3236 -1.02834 5.40097 0
M  V30 388 H 36.5486 -1.34348 6.65678 0
M  V30 389 H 34.4946 -3.34538 5.64287 0
M  V30 390 H 34.4116 -2.4794 7.14186 0
M  V30 391 H 35.6796 -3.642 6.89187 0
M  V30 392 N 39.9087 -1.5758 0.0250728 0
M  V30 393 C 40.8387 -2.13007 -0.956575 0
M  V30 394 C 41.8197 -1.0452 -1.342 0
M  V30 395 O 43.0047 -1.32332 -1.42133 0
M  V30 396 C 40.1347 -2.65386 -2.24026 0
M  V30 397 C 39.0887 -3.78623 -1.99571 0
M  V30 398 C 38.4147 -4.17414 -3.3417 0
M  V30 399 C 39.7147 -5.04867 -1.33814 0
M  V30 400 H 41.4087 -2.9528 -0.494991 0
M  V30 401 H 38.9547 -1.42042 -0.236651 0
M  V30 402 H 40.9077 -3.02794 -2.93076 0
M  V30 403 H 39.6317 -1.80268 -2.72343 0
M  V30 404 H 38.2907 -3.41646 -1.32941 0
M  V30 405 H 37.9387 -3.29284 -3.80238 0
M  V30 406 H 37.6387 -4.93719 -3.18615 0
M  V30 407 H 39.1627 -4.57402 -4.04495 0
M  V30 408 H 40.5767 -5.39888 -1.92857 0
M  V30 409 H 38.9737 -5.86144 -1.28669 0
M  V30 410 H 40.0437 -4.83904 -0.310561 0
M  V30 411 N 41.3868 0.248026 -1.55636 0
M  V30 412 C 42.6148 0.993808 -1.81469 0
M  V30 413 C 43.0298 1.78991 -0.60064 0
M  V30 414 O 42.3868 1.77345 0.430682 0
M  V30 415 C 42.4378 1.93258 -3.05506 0
M  V30 416 O 42.1588 1.16869 -4.22224 0
M  V30 417 C 43.6598 2.79444 -3.4413 0
M  V30 418 H 40.8798 0.292486 -0.603898 0
M  V30 419 H 43.4238 0.271253 -2.02693 0
M  V30 420 H 41.5788 2.60943 -2.86335 0
M  V30 421 H 41.9928 1.80359 -4.92515 0
M  V30 422 H 43.4668 3.41066 -4.34026 0
M  V30 423 H 43.9438 3.50499 -2.64665 0
M  V30 424 H 44.5498 2.17214 -3.65648 0
M  V30 425 N 42.8649 1.48995 0.513639 0
M  V30 426 C 44.2759 1.5119 1.09537 0
M  V30 427 C 44.6269 0.290906 1.94031 0
M  V30 428 O 43.7519 -0.60049 2.07902 0
M  V30 429 C 44.3469 2.73964 1.99322 0
M  V30 430 C 42.9059 2.78978 2.52682 0
M  V30 431 C 42.0529 2.44934 1.30009 0
M  V30 432 H 45.0039 1.55875 0.298125 0
M  V30 433 H 45.0249 2.53409 2.83838 0
M  V30 434 H 44.5369 3.62813 1.37799 0
M  V30 435 H 42.6379 1.94378 3.1788 0
M  V30 436 H 42.7509 3.8083 2.90698 0
M  V30 437 H 41.1149 1.9644 1.62122 0
M  V30 438 H 41.8979 3.36043 0.702131 0
M  V30 439 N 44.343 -0.763751 1.37857 0
M  V30 440 C 45.273 -1.89103 1.36975 0
M  V30 441 C 46.254 -1.68439 0.237152 0
M  V30 442 O 47.439 -1.8918 0.438713 0
M  V30 443 C 44.569 -3.26496 1.18395 0
M  V30 444 C 43.523 -3.61741 2.28751 0
M  V30 445 C 42.849 -4.97762 1.95286 0
M  V30 446 C 44.149 -3.67665 3.70972 0
M  V30 447 H 45.843 -1.90099 2.31307 0
M  V30 448 H 43.389 -0.91319 1.11341 0
M  V30 449 H 45.342 -4.05003 1.16406 0
M  V30 450 H 44.066 -3.25955 0.205215 0
M  V30 451 H 42.725 -2.85547 2.29909 0
M  V30 452 H 42.373 -4.93769 0.959221 0
M  V30 453 H 42.073 -5.22313 2.69189 0
M  V30 454 H 43.597 -5.7866 1.94898 0
M  V30 455 H 45.011 -4.36307 3.719 0
M  V30 456 H 43.408 -4.03718 4.43995 0
M  V30 457 H 44.478 -2.68134 4.0402 0
M  V30 458 N 45.8211 -1.22559 -0.990812 0
M  V30 459 C 47.0461 -1.07862 -1.77145 0
M  V30 460 C 47.4711 0.366447 -1.84496 0
M  V30 461 O 46.8291 1.26478 -1.29896 0
M  V30 462 C 46.8771 -1.69686 -3.18181 0
M  V30 463 O 45.9811 -0.951946 -4.01263 0
M  V30 464 H 45.3221 -0.378712 -0.545411 0
M  V30 465 H 47.8521 -1.62399 -1.2445 0
M  V30 466 H 47.8621 -1.74496 -3.68802 0
M  V30 467 H 46.5371 -2.74841 -3.12146 0
M  V30 468 H 45.1141 -0.980011 -3.59792 0
M  V30 469 N 47.2992 1.18797 -1.03562 0
M  V30 470 C 48.2492 2.20161 -0.592724 0
M  V30 471 C 49.2332 1.56772 0.362133 0
M  V30 472 O 50.4252 1.76062 0.182009 0
M  V30 473 C 47.5542 3.43266 0.0481024 0
M  V30 474 C 46.6402 4.13786 -0.9296 0
M  V30 475 N 47.0312 4.60388 -2.09467 0
M  V30 476 C 45.3292 4.39572 -0.754499 0
M  V30 477 C 46.0302 5.14619 -2.71187 0
M  V30 478 N 45.0062 5.05826 -1.991 0
M  V30 479 H 48.8082 2.53877 -1.48066 0
M  V30 480 H 46.3222 1.34946 -0.903514 0
M  V30 481 H 48.3192 4.15136 0.383058 0
M  V30 482 H 46.9792 3.11048 0.931636 0
M  V30 483 H 47.9902 4.54999 -2.47379 0
M  V30 484 H 44.6672 4.17425 0.0793713 0
M  V30 485 H 46.0572 5.60917 -3.69895 0
M  V30 486 N 48.7773 0.814389 1.34928 0
M  V30 487 C 49.6873 0.231978 2.3345 0
M  V30 488 C 50.7033 -0.629139 1.62228 0
M  V30 489 O 51.8793 -0.539052 1.94052 0
M  V30 490 C 48.9443 -0.603482 3.41407 0
M  V30 491 C 48.0053 0.279037 4.28392 0
M  V30 492 C 47.2383 -0.516643 5.31193 0
M  V30 493 O 47.4613 -1.75068 5.4287 0
M  V30 494 O 46.3953 0.0965652 6.01823 0
M  V30 495 H 50.2213 1.04721 2.85074 0
M  V30 496 H 47.8063 0.576343 1.37836 0
M  V30 497 H 49.6883 -1.07908 4.0735 0
M  V30 498 H 48.3633 -1.39618 2.92042 0
M  V30 499 H 47.2703 0.801948 3.65403 0
M  V30 500 H 48.6033 1.03588 4.81176 0
M  V30 501 N 50.2554 -1.46986 0.568584 0
M  V30 502 C 51.5014 -2.02741 0.0488709 0
M  V30 503 C 51.8344 -1.44077 -1.30214 0
M  V30 504 O 51.1094 -0.600552 -1.84996 0
M  V30 505 C 51.3924 -3.60086 -0.032047 0
M  V30 506 C 51.2454 -4.29162 1.34686 0
M  V30 507 C 52.5644 -4.33838 -0.739798 0
M  V30 508 H 49.6834 -0.736749 0.0192338 0
M  V30 509 H 52.3254 -1.75289 0.733065 0
M  V30 510 H 50.4754 -3.83606 -0.61473 0
M  V30 511 H 52.1474 -4.16948 1.97362 0
M  V30 512 H 50.3904 -3.89073 1.91846 0
M  V30 513 H 51.0614 -5.37826 1.24285 0
M  V30 514 H 53.5374 -4.15378 -0.244939 0
M  V30 515 H 52.4134 -5.43537 -0.765406 0
M  V30 516 H 52.6744 -4.03875 -1.79827 0
M  V30 517 N 51.7335 -0.305618 -1.54608 0
M  V30 518 C 52.9825 0.303098 -1.9941 0
M  V30 519 C 53.2955 1.54648 -1.19764 0
M  V30 520 O 54.5015 2.23007 -1.54855 0
M  V30 521 C 52.9575 0.590588 -3.55021 0
M  V30 522 C 52.5655 -0.634719 -4.43481 0
M  V30 523 C 54.3095 1.16025 -4.08336 0
M  V30 524 C 52.2165 -0.320126 -5.90533 0
M  V30 525 H 51.1465 0.117031 -0.744862 0
M  V30 526 H 53.7975 -0.415045 -1.78745 0
M  V30 527 H 52.1795 1.36845 -3.71604 0
M  V30 528 H 53.3535 -1.41079 -4.38672 0
M  V30 529 H 51.6685 -1.12333 -4.00962 0
M  V30 530 H 54.2655 1.40994 -5.15776 0
M  V30 531 H 54.6085 2.10397 -3.5922 0
M  V30 532 H 55.1415 0.443985 -3.95315 0
M  V30 533 H 51.8805 -1.23254 -6.43808 0
M  V30 534 H 51.4005 0.418579 -5.98338 0
M  V30 535 H 53.0795 0.0766241 -6.46955 0
M  V30 536 N 53.2116 1.57565 -0.0334293 0
M  V30 537 C 54.4366 1.96689 0.657895 0
M  V30 538 C 54.8616 0.910057 1.64619 0
M  V30 539 O 54.2196 -0.128598 1.80843 0
M  V30 540 C 54.2676 3.34905 1.33683 0
M  V30 541 O 53.3716 3.31574 2.45219 0
M  V30 542 H 52.7126 0.641205 0.172489 0
M  V30 543 H 55.2426 2.04372 -0.0965621 0
M  V30 544 H 55.2526 3.71234 1.69262 0
M  V30 545 H 53.9276 4.11366 0.612411 0
M  V30 546 H 52.5046 3.06968 2.11719 0
M  V30 547 N 54.6897 -0.239769 1.55765 0
M  V30 548 C 56.1057 -0.588624 1.48349 0
M  V30 549 C 56.3057 -1.88005 0.72502 0
M  V30 550 O 55.3617 -2.51186 0.257269 0
M  V30 551 C 56.6747 -0.68474 2.928 0
M  V30 552 C 58.2227 -0.77659 3.03213 0
M  V30 553 C 58.6977 -0.904207 4.48986 0
M  V30 554 N 60.1887 -0.968896 4.52953 0
M  V30 555 C 60.9237 -1.08703 5.63002 0
M  V30 556 N 60.4197 -1.17026 6.82845 0
M  V30 557 N 62.2127 -1.12074 5.50814 0
M  V30 558 H 54.3637 0.607911 2.03515 0
M  V30 559 H 56.6267 0.21083 0.924259 0
M  V30 560 H 56.3327 0.194284 3.51163 0
M  V30 561 H 56.2067 -1.55435 3.43686 0
M  V30 562 H 58.5937 -1.64606 2.44926 0
M  V30 563 H 58.6747 0.118315 2.55526 0
M  V30 564 H 58.3187 -0.0392633 5.07885 0
M  V30 565 H 58.2487 -1.81426 4.9436 0
M  V30 566 H 60.7397 -0.915633 3.6664 0
M  V30 567 H 61.0527 -1.25966 7.62465 0
M  V30 568 H 59.3977 -1.13971 6.85591 0
M  V30 569 H 62.5887 -1.05226 4.5612 0
M  V30 570 H 62.7617 -1.20936 6.36615 0
M  V30 571 N 56.1678 -1.49265 -0.50573 0
M  V30 572 C 57.0998 -1.617 -1.62437 0
M  V30 573 C 58.1128 -0.499924 -1.54934 0
M  V30 574 O 59.3018 -0.771785 -1.60953 0
M  V30 575 C 56.4018 -1.5533 -3.01207 0
M  V30 576 C 55.5748 -2.8249 -3.33943 0
M  V30 577 C 54.6338 -2.69238 -4.52103 0
M  V30 578 O 53.6598 -3.43167 -4.5412 0
M  V30 579 N 54.8618 -1.80468 -5.51735 0
M  V30 580 H 57.6268 -2.58177 -1.52199 0
M  V30 581 H 55.1878 -1.46294 -0.693511 0
M  V30 582 H 57.1798 -1.44125 -3.78167 0
M  V30 583 H 55.7498 -0.667297 -3.05395 0
M  V30 584 H 54.9698 -3.08081 -2.45926 0
M  V30 585 H 56.2578 -3.66802 -3.5261 0
M  V30 586 H 55.6558 -1.19653 -5.52901 0
M  V30 587 H 54.2128 -1.75188 -6.27816 0
M  V30 588 N 57.6459 0.756429 -1.3826 0
M  V30 589 C 58.6089 1.85176 -1.35065 0
M  V30 590 C 59.6089 1.58818 -0.251703 0
M  V30 591 O 60.7989 1.66615 -0.508433 0
M  V30 592 C 57.9309 3.22596 -1.10201 0
M  V30 593 H 59.1239 1.89417 -2.3251 0
M  V30 594 H 56.6769 0.95783 -1.23512 0
M  V30 595 H 57.4119 3.24025 -0.133504 0
M  V30 596 H 57.1969 3.43122 -1.89762 0
M  V30 597 H 58.6869 4.02673 -1.10654 0
M  V30 598 N 59.124 1.23083 0.984299 0
M  V30 599 C 60.352 1.08714 1.76037 0
M  V30 600 C 60.767 -0.361691 1.85303 0
M  V30 601 O 60.124 -1.25034 1.32939 0
M  V30 602 C 60.175 1.70206 3.18923 0
M  V30 603 O 59.896 3.09423 3.10144 0
M  V30 604 C 61.397 1.61227 4.12941 0
M  V30 605 H 58.617 0.380664 0.552572 0
M  V30 606 H 61.161 1.62853 1.23689 0
M  V30 607 H 59.316 1.20109 3.6831 0
M  V30 608 H 59.73 3.39188 4.00065 0
M  V30 609 H 61.204 2.08962 5.10919 0
M  V30 610 H 61.681 0.570375 4.35481 0
M  V30 611 H 62.287 2.10671 3.69456 0
M  V30 612 N 60.6021 -1.18246 1.0419 0
M  V30 613 C 61.8511 -1.87588 0.741194 0
M  V30 614 C 62.1641 -1.81303 -0.734066 0
M  V30 615 O 63.3701 -2.46019 -1.14834 0
M  V30 616 C 61.8261 -3.36538 1.27555 0
M  V30 617 C 61.4341 -3.51349 2.77953 0
M  V30 618 C 63.1781 -4.11273 1.05143 0
M  V30 619 C 61.0851 -4.94265 3.2474 0
M  V30 620 H 60.0151 -0.702622 0.273565 0
M  V30 621 H 62.6661 -1.33601 1.25789 0
M  V30 622 H 61.0481 -3.9 0.686703 0
M  V30 623 H 62.2221 -3.08153 3.42605 0
M  V30 624 H 60.5371 -2.90022 2.98791 0
M  V30 625 H 63.1341 -5.16689 1.37611 0
M  V30 626 H 63.4771 -4.16298 -0.0112774 0
M  V30 627 H 64.0101 -3.63987 1.60495 0
M  V30 628 H 60.7491 -4.94408 4.30396 0
M  V30 629 H 60.2691 -5.38172 2.64823 0
M  V30 630 H 61.9481 -5.62987 3.18834 0
M  V30 631 N 62.0802 -0.821533 -1.34494 0
M  V30 632 C 63.0282 -0.230702 -2.31453 0
M  V30 633 C 64.0222 0.627793 -1.57338 0
M  V30 634 O 65.2282 0.519288 -1.72347 0
M  V30 635 H 61.6032 -0.0558577 -0.749923 0
M  V30 636 H 63.5742 -1.06332 -2.78812 0
M  V30 637 C 62.3232 0.59391 -3.4259 0
M  V30 638 H 61.6462 -0.0573588 -3.99759 0
M  V30 639 H 63.0862 0.973446 -4.12674 0
M  V30 640 C 61.5452 1.76568 -2.86924 0
M  V30 641 O 62.0752 2.8638 -2.81691 0
M  V30 642 N 60.2812 1.58198 -2.43766 0
M  V30 643 H 59.8282 0.68872 -2.48222 0
M  V30 644 H 59.7862 2.36752 -2.06871 0
M  V30 645 N 63.5583 1.46682 -0.576371 0
M  V30 646 C 64.8073 2.01619 -0.0572825 0
M  V30 647 C 65.1203 1.45417 1.30818 0
M  V30 648 O 66.3263 1.92133 1.91825 0
M  V30 649 C 64.7823 3.59863 -0.0518371 0
M  V30 650 C 64.3903 4.25059 -1.41523 0
M  V30 651 C 66.1343 4.2248 0.413639 0
M  V30 652 C 64.0413 5.75364 -1.36785 0
M  V30 653 H 62.9713 0.753794 -0.0176448 0
M  V30 654 H 65.6223 1.68481 -0.727076 0
M  V30 655 H 64.0043 3.90048 0.683994 0
M  V30 656 H 65.1783 4.06491 -2.17029 0
M  V30 657 H 63.4933 3.7451 -1.8202 0
M  V30 658 H 66.0903 5.3265 0.467779 0
M  V30 659 H 66.4333 3.90976 1.42982 0
M  V30 660 H 66.9663 3.96897 -0.267929 0
M  V30 661 H 63.7053 6.11518 -2.36063 0
M  V30 662 H 63.2253 5.96214 -0.654895 0
M  V30 663 H 64.9043 6.37955 -1.07805 0
M  V30 664 N 65.0364 0.313813 1.54444 0
M  V30 665 C 66.2844 -0.291099 1.99993 0
M  V30 666 C 66.6054 -1.53418 1.20366 0
M  V30 667 O 65.8754 -1.93544 0.302927 0
M  V30 668 H 64.4554 -0.110552 0.738774 0
M  V30 669 H 67.1174 0.428106 1.9014 0
M  V30 670 H 66.2134 -0.554268 3.07139 0
M  V30 671 N 66.5145 -1.57545 0.0417849 0
M  V30 672 C 67.7425 -1.96624 -0.643928 0
M  V30 673 C 68.1575 -0.918897 -1.64929 0
M  V30 674 O 67.5145 0.0979323 -1.82237 0
M  V30 675 C 67.5655 -3.35781 -1.33914 0
M  V30 676 O 67.2865 -4.365 -0.374048 0
M  V30 677 C 68.7875 -3.89566 -2.1155 0
M  V30 678 H 66.0075 -0.647316 -0.176702 0
M  V30 679 H 68.5515 -2.04229 0.105304 0
M  V30 680 H 66.7065 -3.29357 -2.03968 0
M  V30 681 H 67.1205 -5.17248 -0.869179 0
M  V30 682 H 68.5945 -4.89242 -2.55628 0
M  V30 683 H 69.0715 -3.24488 -2.9598 0
M  V30 684 H 69.6775 -3.99298 -1.46427 0
M  V30 685 N 67.9926 0.231505 -1.5589 0
M  V30 686 C 69.2416 0.955346 -1.7764 0
M  V30 687 C 69.5546 1.85893 -0.608546 0
M  V30 688 O 70.7606 2.62067 -0.70943 0
M  V30 689 C 69.2166 1.74886 -3.14552 0
M  V30 690 C 68.8246 0.891915 -4.39032 0
M  V30 691 C 70.5686 2.46452 -3.45633 0
M  V30 692 C 68.4756 1.68221 -5.66971 0
M  V30 693 H 67.4056 0.360446 -0.662265 0
M  V30 694 H 70.0566 0.209516 -1.823 0
M  V30 695 H 68.4386 2.53723 -3.04041 0
M  V30 696 H 69.6126 0.144793 -4.60572 0
M  V30 697 H 67.9276 0.288863 -4.15397 0
M  V30 698 H 70.5246 3.06061 -4.38441 0
M  V30 699 H 70.8676 3.18841 -2.67668 0
M  V30 700 H 71.4006 1.74613 -3.57428 0
M  V30 701 H 68.1396 1.00178 -6.478 0
M  V30 702 H 67.6596 2.4042 -5.49507 0
M  V30 703 H 69.3386 2.24544 -6.06786 0
M  V30 704 N 69.4707 1.49531 0.497807 0
M  V30 705 C 70.7187 1.58865 1.24926 0
M  V30 706 C 71.0397 0.278721 1.92998 0
M  V30 707 O 70.3097 -0.702144 1.82885 0
M  V30 708 H 68.8897 0.585343 0.464094 0
M  V30 709 H 71.5517 1.86174 0.57666 0
M  V30 710 H 70.6477 2.38633 2.01149 0
M  V30 711 N 70.9488 -0.749086 1.3866 0
M  V30 712 C 71.8988 -1.85368 1.32751 0
M  V30 713 C 72.8828 -1.59511 0.210945 0
M  V30 714 O 74.0748 -1.71255 0.447299 0
M  V30 715 C 71.2038 -3.23131 1.15935 0
M  V30 716 C 70.2898 -3.54864 2.32233 0
M  V30 717 N 70.6808 -3.57625 3.57684 0
M  V30 718 C 68.9788 -3.85154 2.24883 0
M  V30 719 C 69.6798 -3.86753 4.34508 0
M  V30 720 N 68.6558 -4.03812 3.63918 0
M  V30 721 H 72.4578 -1.85787 2.27729 0
M  V30 722 H 69.9718 -0.946658 1.31955 0
M  V30 723 H 71.9688 -4.02185 1.09786 0
M  V30 724 H 70.6288 -3.23961 0.218947 0
M  V30 725 H 71.6398 -3.39276 3.91295 0
M  V30 726 H 68.3168 -3.93672 1.39027 0
M  V30 727 H 69.7068 -3.95474 5.43185 0
M  V30 728 N 72.4269 -1.23603 -0.977757 0
M  V30 729 C 73.6729 -1.07129 -1.72195 0
M  V30 730 C 74.0059 0.390501 -1.90233 0
M  V30 731 O 73.2809 1.28902 -1.45653 0
M  V30 732 C 73.5639 -1.80031 -3.11867 0
M  V30 733 C 73.4169 -3.33899 -3.01383 0
M  V30 734 C 74.7359 -1.56492 -4.11337 0
M  V30 735 H 71.8549 -0.390571 -0.624999 0
M  V30 736 H 74.4969 -1.52142 -1.13811 0
M  V30 737 H 72.6469 -1.41768 -3.6171 0
M  V30 738 H 74.3189 -3.81699 -2.59043 0
M  V30 739 H 72.5619 -3.62796 -2.37827 0
M  V30 740 H 73.2329 -3.801 -4.00285 0
M  V30 741 H 75.7089 -1.89757 -3.70313 0
M  V30 742 H 74.5849 -2.09973 -5.07151 0
M  V30 743 H 74.8459 -0.500874 -4.39254 0
M  V30 744 N 73.905 1.17692 -1.04816 0
M  V30 745 C 74.868 2.19787 -0.650117 0
M  V30 746 C 75.868 1.58044 0.296427 0
M  V30 747 O 77.058 1.74012 0.0808097 0
M  V30 748 C 74.19 3.40869 0.0456987 0
M  V30 749 H 75.383 2.56516 -1.5537 0
M  V30 750 H 72.936 1.31708 -0.841594 0
M  V30 751 H 73.671 3.09681 0.962726 0
M  V30 752 H 73.456 3.86928 -0.634727 0
M  V30 753 H 74.946 4.16445 0.310432 0
M  V30 754 N 75.3831 0.828654 1.34056 0
M  V30 755 C 76.3331 0.226828 2.26869 0
M  V30 756 C 77.3171 -0.612243 1.48796 0
M  V30 757 O 78.5091 -0.465884 1.70759 0
M  V30 758 C 75.6381 -0.605654 3.37915 0
M  V30 759 C 74.7241 0.244361 4.23395 0
M  V30 760 N 75.1151 1.31815 4.88322 0
M  V30 761 C 73.4131 0.0296616 4.4599 0
M  V30 762 C 74.1141 1.83895 5.51867 0
M  V30 763 N 73.0901 1.14196 5.3147 0
M  V30 764 H 76.8921 1.04811 2.74576 0
M  V30 765 H 74.4061 0.67205 1.47842 0
M  V30 766 H 76.4031 -1.05302 4.03382 0
M  V30 767 H 75.0631 -1.42504 2.91758 0
M  V30 768 H 76.0741 1.70099 4.8917 0
M  V30 769 H 72.7511 -0.757097 4.10578 0
M  V30 770 H 74.1411 2.7376 6.136 0
M  V30 771 N 76.8612 -1.46375 0.584142 0
M  V30 772 C 78.1092 -2.01978 0.0701287 0
M  V30 773 C 78.4302 -1.4579 -1.295 0
M  V30 774 O 77.7002 -0.64314 -1.85042 0
M  V30 775 H 76.2802 -0.746648 0.0229345 0
M  V30 776 H 78.9422 -1.79461 0.760245 0
M  V30 777 H 78.0382 -3.121 0.0022064 0
M  V30 778 N 78.3393 -0.321999 -1.54275 0
M  V30 779 C 79.2863 0.544664 -2.24281 0
M  V30 780 C 80.2563 1.1129 -1.23303 0
M  V30 781 O 81.4413 1.15354 -1.51981 0
M  V30 782 C 78.5813 1.70045 -3.00298 0
M  V30 783 C 77.6943 1.16159 -4.1609 0
M  V30 784 C 76.8293 2.28293 -4.79641 0
M  V30 785 C 75.8683 1.71648 -5.8754 0
M  V30 786 N 75.0053 2.77438 -6.44959 0
M  V30 787 H 79.8453 -0.0588907 -2.97942 0
M  V30 788 H 77.3823 -0.0408345 -1.47043 0
M  V30 789 H 79.3403 2.38054 -3.42616 0
M  V30 790 H 77.9703 2.27531 -2.28975 0
M  V30 791 H 77.0223 0.373092 -3.78566 0
M  V30 792 H 78.3343 0.707087 -4.93763 0
M  V30 793 H 77.4883 3.0421 -5.2492 0
M  V30 794 H 76.2273 2.77079 -4.01346 0
M  V30 795 H 75.2323 0.942282 -5.41665 0
M  V30 796 H 76.4573 1.23741 -6.67731 0
M  V30 797 H 74.4033 3.25519 -5.69538 0
M  V30 798 H 74.3203 2.36547 -7.1804 0
M  V30 799 H 75.5883 3.53189 -6.94894 0
M  V30 800 N 79.8174 1.5752 -0.0501392 0
M  V30 801 C 81.0424 1.97376 0.636997 0
M  V30 802 C 81.4674 0.927466 1.63645 0
M  V30 803 O 80.8254 -0.10941 1.8097 0
M  V30 804 C 80.8734 3.36304 1.30123 0
M  V30 805 O 79.9774 3.34156 2.41689 0
M  V30 806 H 79.3184 0.642998 0.165679 0
M  V30 807 H 81.8484 2.04258 -0.118233 0
M  V30 808 H 81.8584 3.73008 1.65315 0
M  V30 809 H 80.5334 4.11993 0.568746 0
M  V30 810 H 79.1104 3.09196 2.08451 0
M  V30 811 N 81.2955 -0.223234 1.56011 0
M  V30 812 C 82.5235 -0.964812 1.83027 0
M  V30 813 C 82.9385 -1.78013 0.62904 0
M  V30 814 O 82.2955 -1.78008 -0.402414 0
M  V30 815 C 82.3465 -1.88373 3.08542 0
M  V30 816 O 82.0675 -1.10137 4.2403 0
M  V30 817 C 83.5685 -2.73934 3.48533 0
M  V30 818 H 80.7885 -0.282842 0.608475 0
M  V30 819 H 83.3325 -0.238971 2.03099 0
M  V30 820 H 81.4875 -2.56354 2.9045 0
M  V30 821 H 81.9015 -1.72501 4.95322 0
M  V30 822 H 83.3755 -3.34117 4.39397 0
M  V30 823 H 83.8525 -3.46244 2.70207 0
M  V30 824 H 84.4585 -2.11369 3.69057 0
M  V30 825 N 82.7736 -1.49793 -0.48987 0
M  V30 826 C 84.0196 -1.60078 -1.24511 0
M  V30 827 C 84.3526 -0.291608 -1.91998 0
M  V30 828 O 83.6276 0.705647 -1.81248 0
M  V30 829 C 83.9106 -2.76791 -2.30345 0
M  V30 830 C 83.7636 -4.17535 -1.67286 0
M  V30 831 C 85.0826 -2.89111 -3.31817 0
M  V30 832 H 82.2016 -0.582645 -0.451324 0
M  V30 833 H 84.8436 -1.82117 -0.541612 0
M  V30 834 H 82.9936 -2.5813 -2.90346 0
M  V30 835 H 84.6656 -4.4774 -1.11026 0
M  V30 836 H 82.9086 -4.22665 -0.976577 0
M  V30 837 H 83.5796 -4.95094 -2.44103 0
M  V30 838 H 86.0556 -3.06133 -2.81819 0
M  V30 839 H 84.9316 -3.72433 -4.03219 0
M  V30 840 H 85.1926 -1.9893 -3.94815 0
M  V30 841 N 84.2517 0.741722 -1.39055 0
M  V30 842 C 85.4977 1.50336 -1.36113 0
M  V30 843 C 85.8307 1.94148 0.0450796 0
M  V30 844 O 85.1057 1.66301 1.00868 0
M  V30 845 C 85.3887 2.74773 -2.32749 0
M  V30 846 C 85.2417 2.37023 -3.82283 0
M  V30 847 C 86.5607 3.76846 -2.27322 0
M  V30 848 H 83.6797 0.545351 -0.495743 0
M  V30 849 H 86.3217 0.848624 -1.69995 0
M  V30 850 H 84.4717 3.30639 -2.03986 0
M  V30 851 H 86.1437 1.8684 -4.21768 0
M  V30 852 H 84.3867 1.69334 -3.99385 0
M  V30 853 H 85.0577 3.26104 -4.45376 0
M  V30 854 H 87.5337 3.30548 -2.5274 0
M  V30 855 H 86.4097 4.6159 -2.97028 0
M  V30 856 H 86.6707 4.23286 -1.27599 0
M  V30 857 N 85.7298 1.2412 0.971189 0
M  V30 858 C 86.6768 1.0305 2.06517 0
M  V30 859 C 87.6468 -0.0550666 1.66009 0
M  V30 860 O 88.8318 0.0988688 1.90544 0
M  V30 861 C 85.9718 0.637653 3.39158 0
M  V30 862 C 85.0848 1.79633 3.92882 0
M  V30 863 C 84.2198 1.34939 5.13775 0
M  V30 864 C 83.2588 2.47823 5.59687 0
M  V30 865 N 82.3958 2.04022 6.71803 0
M  V30 866 H 87.2358 1.96685 2.23873 0
M  V30 867 H 84.7728 0.979694 1.09729 0
M  V30 868 H 86.7308 0.390931 4.15364 0
M  V30 869 H 85.3608 -0.261693 3.21737 0
M  V30 870 H 84.4128 2.15681 3.13346 0
M  V30 871 H 85.7248 2.64466 4.22918 0
M  V30 872 H 84.8788 1.06134 5.97345 0
M  V30 873 H 83.6178 0.471557 4.85415 0
M  V30 874 H 82.6228 2.77392 4.74693 0
M  V30 875 H 83.8478 3.36158 5.90063 0
M  V30 876 H 81.7938 1.18632 6.45184 0
M  V30 877 H 81.7108 2.82409 7.01271 0
M  V30 878 H 82.9788 1.78347 7.58823 0
M  V30 879 N 87.2079 -1.17134 1.05439 0
M  V30 880 C 88.1709 -2.19439 0.661764 0
M  V30 881 C 89.1709 -1.58199 -0.288042 0
M  V30 882 O 90.3609 -1.74053 -0.0715803 0
M  V30 883 C 87.4929 -3.40889 -0.0276209 0
M  V30 884 H 88.6859 -2.55688 1.56728 0
M  V30 885 H 86.2389 -1.31259 0.848567 0
M  V30 886 H 86.9739 -3.10187 -0.94629 0
M  V30 887 H 86.7589 -3.86586 0.655238 0
M  V30 888 H 88.2489 -4.16603 -0.288342 0
M  V30 889 N 88.686 -0.835752 -1.33615 0
M  V30 890 C 89.935 -0.426289 -1.97144 0
M  V30 891 C 90.248 1.01912 -1.66953 0
M  V30 892 O 91.454 1.53311 -2.24072 0
M  V30 893 C 89.91 -0.711321 -3.52801 0
M  V30 894 C 89.518 -2.1712 -3.91871 0
M  V30 895 C 91.262 -0.368654 -4.22896 0
M  V30 896 C 89.169 -2.40044 -5.40493 0
M  V30 897 H 88.099 -0.15567 -0.737755 0
M  V30 898 H 90.75 -1.0239 -1.52278 0
M  V30 899 H 89.132 -0.0433766 -3.95976 0
M  V30 900 H 90.306 -2.87936 -3.59763 0
M  V30 901 H 88.621 -2.47654 -3.34749 0
M  V30 902 H 91.218 -0.517601 -5.32189 0
M  V30 903 H 91.561 0.688078 -4.10574 0
M  V30 904 H 92.094 -0.991702 -3.8524 0
M  V30 905 H 88.833 -3.44271 -5.57815 0
M  V30 906 H 88.353 -1.73785 -5.74072 0
M  V30 907 H 90.032 -2.23042 -6.0734 0
M  V30 908 N 90.1641 1.46063 -0.591896 0
M  V30 909 C 91.3891 2.07226 -0.0850314 0
M  V30 910 C 91.8141 1.43625 1.21463 0
M  V30 911 O 91.1721 0.523305 1.73583 0
M  V30 912 C 91.2201 3.60554 0.0576567 0
M  V30 913 O 90.3241 3.97128 1.11188 0
M  V30 914 H 89.6651 0.660615 -0.0669568 0
M  V30 915 H 92.1951 1.8756 -0.81745 0
M  V30 916 H 92.2051 4.07165 0.2609 0
M  V30 917 H 90.8801 4.06235 -0.891416 0
M  V30 918 H 89.4571 3.62213 0.886356 0
M  V30 919 N 91.6422 0.330177 1.54103 0
M  V30 920 C 92.8902 -0.269871 2.0029 0
M  V30 921 C 93.2112 -1.52133 1.21986 0
M  V30 922 O 92.4812 -1.93212 0.323438 0
M  V30 923 H 91.0612 -0.10271 0.739905 0
M  V30 924 H 93.7232 0.448249 1.89675 0
M  V30 925 H 92.8192 -0.52166 3.07709 0
M  V30 926 N 93.1203 -1.57491 0.0584922 0
M  V30 927 C 94.3663 -1.93264 -0.614558 0
M  V30 928 C 94.6993 -0.937717 -1.7006 0
M  V30 929 O 93.9743 0.0351652 -1.94468 0
M  V30 930 C 94.2573 -3.3938 -1.20386 0
M  V30 931 C 94.1103 -4.49625 -0.125375 0
M  V30 932 C 95.4293 -3.86039 -2.11334 0
M  V30 933 H 92.5483 -0.702791 -0.221933 0
M  V30 934 H 95.1903 -1.8961 0.12175 0
M  V30 935 H 93.3403 -3.42626 -1.83139 0
M  V30 936 H 95.0123 -4.58506 0.506971 0
M  V30 937 H 93.2553 -4.30354 0.545672 0
M  V30 938 H 93.9263 -5.48967 -0.577861 0
M  V30 939 H 96.4023 -3.84716 -1.58534 0
M  V30 940 H 95.2783 -4.88914 -2.49507 0
M  V30 941 H 95.5393 -3.23215 -3.01636 0
M  V30 942 N 94.5984 0.214957 -1.56127 0
M  V30 943 C 95.5484 1.27006 -1.8935 0
M  V30 944 C 96.5324 1.41969 -0.757202 0
M  V30 945 O 97.7244 1.44673 -1.01973 0
M  V30 946 C 94.8534 2.61911 -2.2194 0
M  V30 947 C 93.9394 2.50822 -3.41978 0
M  V30 948 N 94.3304 2.09391 -4.60423 0
M  V30 949 C 92.6284 2.81765 -3.45723 0
M  V30 950 C 93.3294 2.09712 -5.42582 0
M  V30 951 N 92.3054 2.50454 -4.82466 0
M  V30 952 H 96.1074 0.940734 -2.78437 0
M  V30 953 H 93.6214 0.423492 -1.56781 0
M  V30 954 H 95.6184 3.38096 -2.43919 0
M  V30 955 H 94.2784 2.95684 -1.34169 0
M  V30 956 H 95.2894 1.80416 -4.85459 0
M  V30 957 H 91.9664 3.19865 -2.68314 0
M  V30 958 H 93.3564 1.79748 -6.4741 0
M  V30 959 N 96.0765 1.50051 0.48192 0
M  V30 960 C 97.3045 1.64237 1.25832 0
M  V30 961 C 97.7195 0.321336 1.86045 0
M  V30 962 O 97.0765 -0.695478 1.68729 0
M  V30 963 C 97.1275 2.72548 2.37487 0
M  V30 964 O 96.8485 3.99529 1.79745 0
M  V30 965 C 98.3495 2.9761 3.28547 0
M  V30 966 H 95.5695 0.55237 0.380957 0
M  V30 967 H 98.1135 1.96207 0.576467 0
M  V30 968 H 96.2685 2.43303 3.01467 0
M  V30 969 H 96.6825 4.59342 2.5319 0
M  V30 970 H 98.1565 3.77084 4.03127 0
M  V30 971 H 98.6335 2.0826 3.86684 0
M  V30 972 H 99.2395 3.28345 2.70314 0
M  V30 973 N 97.5546 -0.734337 1.39446 0
M  V30 974 C 98.8006 -1.49613 1.36908 0
M  V30 975 C 99.1336 -1.94169 -0.0347829 0
M  V30 976 O 98.4086 -1.66833 -0.999847 0
M  V30 977 C 98.6916 -2.73534 2.34203 0
M  V30 978 C 98.5446 -2.34993 3.83534 0
M  V30 979 C 99.8636 -3.75635 2.29317 0
M  V30 980 H 96.9826 -0.542714 0.498629 0
M  V30 981 H 99.6246 -0.839597 1.70443 0
M  V30 982 H 97.7746 -3.29553 2.05736 0
M  V30 983 H 99.4466 -1.84601 4.22753 0
M  V30 984 H 97.6896 -1.67213 4.00278 0
M  V30 985 H 98.3606 -3.23738 4.47099 0
M  V30 986 H 100.837 -3.29203 2.54489 0
M  V30 987 H 99.7126 -4.60008 2.99472 0
M  V30 988 H 99.9736 -4.22603 1.29842 0
M  V30 989 N 99.0327 -1.24633 -0.964593 0
M  V30 990 C 100.449 -1.01239 -1.2338 0
M  V30 991 C 100.649 0.2769 -1.99588 0
M  V30 992 O 99.7047 0.992241 -2.32187 0
M  V30 993 C 101.018 -2.22937 -2.01791 0
M  V30 994 C 102.566 -2.27594 -2.14872 0
M  V30 995 C 103.041 -3.48921 -2.96678 0
M  V30 996 N 104.532 -3.49257 -3.04259 0
M  V30 997 C 105.267 -4.39795 -3.67924 0
M  V30 998 N 104.763 -5.40591 -4.33281 0
M  V30 999 N 106.556 -4.275 -3.64966 0
M  V30 1000 H 98.7067 -2.0748 -0.454502 0
M  V30 1001 H 100.97 -0.910647 -0.26349 0
M  V30 1002 H 100.676 -3.16587 -1.53184 0
M  V30 1003 H 100.55 -2.25306 -3.02518 0
M  V30 1004 H 102.937 -1.34473 -2.6268 0
M  V30 1005 H 103.018 -2.2925 -1.13482 0
M  V30 1006 H 102.662 -4.42359 -2.49562 0
M  V30 1007 H 102.592 -3.4451 -3.98272 0
M  V30 1008 H 105.083 -2.76337 -2.57771 0
M  V30 1009 H 105.396 -6.05904 -4.79687 0
M  V30 1010 H 103.741 -5.44475 -4.3194 0
M  V30 1011 H 106.932 -3.47987 -3.13086 0
M  V30 1012 H 107.105 -4.98258 -4.14298 0
M  V30 1013 N 100.511 1.16574 -1.06058 0
M  V30 1014 C 101.758 1.87047 -0.775873 0
M  V30 1015 C 102.086 1.81562 0.697534 0
M  V30 1016 O 101.341 1.22445 1.52662 0
M  V30 1017 C 101.64 3.36195 -1.21275 0
M  V30 1018 C 101.306 3.6188 -2.68986 0
M  V30 1019 C 99.9678 3.68599 -3.09335 0
M  V30 1020 C 102.32 3.72648 -3.64394 0
M  V30 1021 C 99.6478 3.83584 -4.43937 0
M  V30 1022 C 102 3.89154 -4.98741 0
M  V30 1023 C 100.664 3.94114 -5.3873 0
M  V30 1024 H 99.9338 0.684452 -0.283912 0
M  V30 1025 H 102.581 1.37853 -1.32925 0
M  V30 1026 H 100.886 3.87505 -0.578528 0
M  V30 1027 H 102.583 3.89103 -0.969542 0
M  V30 1028 H 99.1728 3.57281 -2.36744 0
M  V30 1029 H 103.357 3.66769 -3.34356 0
M  V30 1030 H 98.6128 3.85677 -4.74409 0
M  V30 1031 H 102.787 3.96427 -5.72554 0
M  V30 1032 H 100.414 4.05478 -6.43033 0
M  V30 1033 N 101.989 0.842826 1.3317 0
M  V30 1034 C 102.936 0.276885 2.29133 0
M  V30 1035 C 103.906 -0.609527 1.54512 0
M  V30 1036 O 105.091 -0.546955 1.82792 0
M  V30 1037 C 102.231 -0.538707 3.40869 0
M  V30 1038 C 101.344 0.372169 4.30394 0
M  V30 1039 C 100.479 -0.454908 5.29249 0
M  V30 1040 C 99.5179 0.45411 6.10413 0
M  V30 1041 N 98.6549 -0.335075 7.013 0
M  V30 1042 H 103.495 1.10052 2.76934 0
M  V30 1043 H 101.032 0.554161 1.36262 0
M  V30 1044 H 102.99 -1.02709 4.0436 0
M  V30 1045 H 101.62 -1.32727 2.9425 0
M  V30 1046 H 100.672 0.97888 3.6759 0
M  V30 1047 H 101.984 1.0703 4.87182 0
M  V30 1048 H 101.138 -1.00695 5.98285 0
M  V30 1049 H 99.8769 -1.18646 4.73048 0
M  V30 1050 H 98.8819 1.01813 5.40291 0
M  V30 1051 H 100.107 1.18409 6.68697 0
M  V30 1052 H 98.0529 -1.04994 6.47543 0
M  V30 1053 H 97.9699 0.304262 7.55387 0
M  V30 1054 H 99.2379 -0.869224 7.74638 0
M  V30 1055 N 103.467 -1.45747 0.599634 0
M  V30 1056 C 104.415 -2.322 -0.136426 0
M  V30 1057 C 105.409 -1.45497 -0.867583 0
M  V30 1058 O 106.615 -1.62027 -0.78405 0
M  V30 1059 H 102.99 -0.749368 -0.0628588 0
M  V30 1060 H 104.961 -2.92072 0.611281 0
M  V30 1061 C 103.71 -3.28974 -1.12567 0
M  V30 1062 H 103.033 -3.9568 -0.572484 0
M  V30 1063 H 104.473 -3.92212 -1.61077 0
M  V30 1064 C 102.932 -2.55561 -2.19523 0
M  V30 1065 O 103.462 -2.33111 -3.27143 0
M  V30 1066 N 101.668 -2.15832 -1.94589 0
M  V30 1067 H 101.215 -2.3429 -1.07078 0
M  V30 1068 H 101.173 -1.67034 -2.66359 0
M  V30 1069 N 104.945 -0.338344 -1.53925 0
M  V30 1070 C 105.855 0.529421 -2.28548 0
M  V30 1071 C 106.871 1.11645 -1.3346 0
M  V30 1072 O 108.047 1.13325 -1.66492 0
M  V30 1073 C 105.112 1.66713 -3.03987 0
M  V30 1074 C 104.173 1.11041 -4.14691 0
M  V30 1075 C 103.406 2.19389 -4.86522 0
M  V30 1076 O 103.629 3.40013 -4.57982 0
M  V30 1077 O 102.563 1.83976 -5.73094 0
M  V30 1078 H 106.389 -0.0770399 -3.03602 0
M  V30 1079 H 103.974 -0.103555 -1.49041 0
M  V30 1080 H 105.856 2.32918 -3.5118 0
M  V30 1081 H 104.531 2.25949 -2.31794 0
M  V30 1082 H 103.438 0.413024 -3.71813 0
M  V30 1083 H 104.771 0.562975 -4.8897 0
M  V30 1084 N 106.423 1.57458 -0.0668435 0
M  V30 1085 C 107.353 2.15468 0.899764 0
M  V30 1086 C 108.334 1.08042 1.31381 0
M  V30 1087 O 109.519 1.36054 1.38574 0
M  V30 1088 C 106.649 2.71232 2.16911 0
M  V30 1089 C 105.603 3.83781 1.89463 0
M  V30 1090 C 104.929 4.26127 3.22986 0
M  V30 1091 C 106.229 5.08238 1.20381 0
M  V30 1092 H 107.923 2.96488 0.416529 0
M  V30 1093 H 105.469 1.4262 0.198908 0
M  V30 1094 H 107.422 3.10458 2.84945 0
M  V30 1095 H 106.146 1.87426 2.67468 0
M  V30 1096 H 104.805 3.45051 1.23836 0
M  V30 1097 H 104.453 3.39249 3.71374 0
M  V30 1098 H 104.153 5.01993 3.05413 0
M  V30 1099 H 105.677 4.67966 3.92225 0
M  V30 1100 H 107.091 5.44811 1.78475 0
M  V30 1101 H 105.488 5.89349 1.13083 0
M  V30 1102 H 106.558 4.84558 0.182153 0
M  V30 1103 N 107.901 -0.206675 1.56239 0
M  V30 1104 C 108.811 -1.27686 1.96808 0
M  V30 1105 C 109.827 -1.50455 0.874035 0
M  V30 1106 O 111.003 -1.63295 1.17884 0
M  V30 1107 C 108.068 -2.60358 2.28942 0
M  V30 1108 C 107.129 -2.45762 3.51994 0
M  V30 1109 C 106.362 -3.72108 3.82585 0
M  V30 1110 O 106.585 -4.75776 3.14631 0
M  V30 1111 O 105.519 -3.6833 4.76043 0
M  V30 1112 H 109.345 -0.962593 2.88041 0
M  V30 1113 H 106.93 -0.410746 1.43643 0
M  V30 1114 H 108.812 -3.38687 2.50737 0
M  V30 1115 H 107.487 -2.91435 1.4088 0
M  V30 1116 H 106.394 -1.65584 3.35459 0
M  V30 1117 H 107.727 -2.19621 4.40486 0
M  V30 1118 N 109.379 -1.50304 -0.473955 0
M  V30 1119 C 110.795 -1.37667 -0.807466 0
M  V30 1120 C 110.995 -0.430555 -1.96846 0
M  V30 1121 O 110.051 0.127874 -2.52176 0
M  V30 1122 C 111.364 -2.78974 -1.12223 0
M  V30 1123 C 112.912 -2.87868 -1.22885 0
M  V30 1124 C 113.387 -4.30003 -1.57676 0
M  V30 1125 N 114.878 -4.3294 -1.64673 0
M  V30 1126 C 115.613 -5.3991 -1.93091 0
M  V30 1127 N 115.109 -6.57092 -2.1955 0
M  V30 1128 N 116.902 -5.27351 -1.94569 0
M  V30 1129 H 109.053 -2.10394 0.291212 0
M  V30 1130 H 111.316 -0.945575 0.0677609 0
M  V30 1131 H 111.022 -3.50031 -0.342229 0
M  V30 1132 H 110.896 -3.16038 -2.05913 0
M  V30 1133 H 113.283 -2.17032 -1.99953 0
M  V30 1134 H 113.364 -2.54352 -0.271814 0
M  V30 1135 H 113.008 -5.01375 -0.81149 0
M  V30 1136 H 112.938 -4.61004 -2.54525 0
M  V30 1137 H 115.429 -3.48441 -1.46277 0
M  V30 1138 H 115.742 -7.34425 -2.405 0
M  V30 1139 H 114.087 -6.60272 -2.16948 0
M  V30 1140 H 117.278 -4.34801 -1.73394 0
M  V30 1141 H 117.451 -6.10805 -2.16381 0
M  V30 1142 N 110.857 0.726932 -1.39834 0
M  V30 1143 C 111.805 1.86235 -1.39353 0
M  V30 1144 C 112.799 1.67144 -0.275555 0
M  V30 1145 O 114.005 1.74387 -0.44601 0
M  V30 1146 H 110.38 0.613174 -0.43534 0
M  V30 1147 H 112.351 1.83756 -2.35109 0
M  V30 1148 C 111.1 3.23995 -1.26185 0
M  V30 1149 H 110.423 3.39285 -2.11484 0
M  V30 1150 H 111.863 4.03609 -1.29907 0
M  V30 1151 C 110.322 3.36888 0.0290018 0
M  V30 1152 O 110.852 3.89152 0.99619 0
M  V30 1153 N 109.058 2.90446 0.0947437 0
M  V30 1154 H 108.605 2.48102 -0.693035 0
M  V30 1155 H 108.563 2.99451 0.957932 0
M  V30 1156 N 112.336 1.25143 0.95797 0
M  V30 1157 C 113.585 1.0909 1.69654 0
M  V30 1158 C 113.898 -0.368548 1.92097 0
M  V30 1159 O 115.104 -0.649455 2.63618 0
M  V30 1160 C 113.56 1.90395 3.05414 0
M  V30 1161 C 113.168 3.4081 2.90779 0
M  V30 1162 C 114.912 1.82901 3.83076 0
M  V30 1163 C 112.819 4.14423 4.21909 0
M  V30 1164 H 111.749 0.404625 0.636235 0
M  V30 1165 H 114.4 1.4931 1.06672 0
M  V30 1166 H 112.782 1.42996 3.69281 0
M  V30 1167 H 113.956 3.95859 2.35865 0
M  V30 1168 H 112.271 3.49361 2.26575 0
M  V30 1169 H 114.868 2.35196 4.80195 0
M  V30 1170 H 115.211 0.796224 4.08615 0
M  V30 1171 H 115.744 2.28033 3.25954 0
M  V30 1172 H 112.483 5.18102 4.01561 0
M  V30 1173 H 112.003 3.64159 4.76601 0
M  V30 1174 H 113.682 4.21956 4.90471 0
M  V30 1175 N 113.814 -1.1601 1.06675 0
M  V30 1176 C 115.042 -1.90527 0.806667 0
M  V30 1177 C 115.457 -1.77643 -0.639396 0
M  V30 1178 O 114.814 -1.12369 -1.43803 0
M  V30 1179 C 114.865 -3.41106 1.19705 0
M  V30 1180 O 114.586 -3.53608 2.58636 0
M  V30 1181 C 116.087 -4.32663 0.965266 0
M  V30 1182 H 113.307 -0.604053 0.292166 0
M  V30 1183 H 115.851 -1.47026 1.4214 0
M  V30 1184 H 114.006 -3.82296 0.626774 0
M  V30 1185 H 114.42 -4.47011 2.74375 0
M  V30 1186 H 115.894 -5.36763 1.288 0
M  V30 1187 H 116.371 -4.39089 -0.0987936 0
M  V30 1188 H 116.977 -3.97206 1.52011 0
M  V30 1189 N 115.292 -0.849877 -1.32721 0
M  V30 1190 C 116.541 -0.447175 -1.96681 0
M  V30 1191 C 116.854 1.00135 -1.68025 0
M  V30 1192 O 118.06 1.50926 -2.25685 0
M  V30 1193 C 116.516 -0.7487 -3.52026 0
M  V30 1194 C 116.124 -2.21264 -3.89546 0
M  V30 1195 C 117.868 -0.413487 -4.22481 0
M  V30 1196 C 115.775 -2.45763 -5.37917 0
M  V30 1197 H 114.705 -0.163486 -0.736063 0
M  V30 1198 H 117.356 -1.03999 -1.51183 0
M  V30 1199 H 115.738 -0.0853727 -3.95908 0
M  V30 1200 H 116.912 -2.91736 -3.56689 0
M  V30 1201 H 115.227 -2.5119 -3.32103 0
M  V30 1202 H 117.824 -0.574017 -5.3161 0
M  V30 1203 H 118.167 0.644492 -4.11281 0
M  V30 1204 H 118.7 -1.03251 -3.84167 0
M  V30 1205 H 115.439 -3.50168 -5.54132 0
M  V30 1206 H 114.959 -1.79864 -5.72197 0
M  V30 1207 H 116.638 -2.29471 -6.0494 0
M  V30 1208 N 116.77 1.45427 -0.607355 0
M  V30 1209 C 117.717 2.3053 0.111625 0
M  V30 1210 C 118.687 1.4209 0.860216 0
M  V30 1211 O 119.872 1.71019 0.845998 0
M  V30 1212 C 117.012 3.26992 1.10319 0
M  V30 1213 C 116.125 4.30535 0.355493 0
M  V30 1214 C 115.26 5.14105 1.33676 0
M  V30 1215 C 114.299 6.09376 0.576862 0
M  V30 1216 N 113.436 6.85727 1.5074 0
M  V30 1217 H 118.276 2.91477 -0.620093 0
M  V30 1218 H 115.813 1.43631 -0.317594 0
M  V30 1219 H 117.771 3.81385 1.6912 0
M  V30 1220 H 116.401 2.67799 1.80232 0
M  V30 1221 H 115.453 3.78805 -0.348023 0
M  V30 1222 H 116.765 4.98235 -0.237423 0
M  V30 1223 H 115.919 5.72897 1.99684 0
M  V30 1224 H 114.658 4.46423 1.9636 0
M  V30 1225 H 113.663 5.49715 -0.0968519 0
M  V30 1226 H 114.888 6.79085 -0.0449341 0
M  V30 1227 H 112.834 6.20735 2.12189 0
M  V30 1228 H 112.751 7.49778 0.967913 0
M  V30 1229 H 114.019 7.4906 2.15706 0
M  V30 1230 N 118.248 0.346503 1.53744 0
M  V30 1231 C 119.178 -0.501193 2.28058 0
M  V30 1232 C 120.159 -1.10014 1.29734 0
M  V30 1233 O 121.344 -1.12097 1.58581 0
M  V30 1234 C 118.474 -1.65078 3.05559 0
M  V30 1235 C 117.428 -1.18003 4.11411 0
M  V30 1236 C 116.754 -2.41837 4.76884 0
M  V30 1237 C 118.054 -0.278394 5.21558 0
M  V30 1238 H 119.748 0.11875 2.99164 0
M  V30 1239 H 117.294 0.0585531 1.43881 0
M  V30 1240 H 119.247 -2.25028 3.56287 0
M  V30 1241 H 117.971 -2.29767 2.32109 0
M  V30 1242 H 116.63 -0.603331 3.61601 0
M  V30 1243 H 116.278 -3.0494 4.00026 0
M  V30 1244 H 115.978 -2.1102 5.48402 0
M  V30 1245 H 117.502 -3.02508 5.30397 0
M  V30 1246 H 118.916 -0.784823 5.67903 0
M  V30 1247 H 117.313 -0.0619707 6.00068 0
M  V30 1248 H 118.383 0.684677 4.80042 0
M  V30 1249 N 119.726 -1.57421 0.075193 0
M  V30 1250 C 120.974 -1.93236 -0.591974 0
M  V30 1251 C 121.295 -0.956241 -1.69944 0
M  V30 1252 O 120.565 -0.00494792 -1.95899 0
M  V30 1253 H 119.145 -0.713355 -0.22166 0
M  V30 1254 H 121.807 -1.9444 0.133848 0
M  V30 1255 H 120.903 -2.95131 -1.01509 0
M  V30 1256 N 121.204 0.198386 -1.56346 0
M  V30 1257 C 122.434 0.934215 -1.84271 0
M  V30 1258 C 122.842 1.77496 -0.655125 0
M  V30 1259 O 122.185 1.7961 0.385488 0
M  V30 1260 C 122.247 1.88278 -3.06254 0
M  V30 1261 C 121.911 1.22431 -4.40295 0
M  V30 1262 C 122.908 0.602839 -5.16393 0
M  V30 1263 C 120.593 1.22915 -4.87029 0
M  V30 1264 C 122.587 -0.0050083 -6.374 0
M  V30 1265 C 120.274 0.617465 -6.07973 0
M  V30 1266 C 121.272 0.00146341 -6.83 0
M  V30 1267 O 120.96 -0.600642 -8.01653 0
M  V30 1268 H 120.692 0.278245 -0.616081 0
M  V30 1269 H 123.246 0.211626 -2.04307 0
M  V30 1270 H 121.476 2.64498 -2.82095 0
M  V30 1271 H 123.165 2.48612 -3.20853 0
M  V30 1272 H 123.931 0.591265 -4.81382 0
M  V30 1273 H 119.81 1.69801 -4.28589 0
M  V30 1274 H 123.354 -0.48643 -6.95902 0
M  V30 1275 H 119.251 0.62653 -6.42452 0
M  V30 1276 H 120.019 -0.497225 -8.16988 0
M  V30 1277 N 122.682 1.50554 0.465978 0
M  V30 1278 C 123.645 1.69233 1.54574 0
M  V30 1279 C 124.645 0.562901 1.50626 0
M  V30 1280 O 125.835 0.830016 1.53155 0
M  V30 1281 C 122.967 1.7223 2.94193 0
M  V30 1282 H 124.16 2.65571 1.39327 0
M  V30 1283 H 121.713 1.40111 0.692711 0
M  V30 1284 H 122.448 0.77603 3.14878 0
M  V30 1285 H 122.233 2.54285 2.98466 0
M  V30 1286 H 123.723 1.88618 3.72576 0
M  V30 1287 N 124.16 -0.719506 1.40217 0
M  V30 1288 C 125.108 -1.85493 1.40339 0
M  V30 1289 C 126.102 -1.66995 0.284415 0
M  V30 1290 O 127.308 -1.74148 0.455252 0
M  V30 1291 H 123.683 -0.610857 0.438586 0
M  V30 1292 H 125.654 -1.82506 2.36081 0
M  V30 1293 C 124.403 -3.23321 1.27901 0
M  V30 1294 H 123.726 -3.38159 2.1328 0
M  V30 1295 H 125.166 -4.02914 1.32045 0
M  V30 1296 C 123.625 -3.36898 -0.0111355 0
M  V30 1297 O 124.155 -3.89674 -0.975538 0
M  V30 1298 N 122.361 -2.90492 -0.0793393 0
M  V30 1299 H 121.908 -2.47731 0.706183 0
M  V30 1300 H 121.866 -2.99955 -0.942038 0
M  V30 1301 N 125.638 -1.25649 -0.95132 0
M  V30 1302 C 126.601 -1.06399 -2.03007 0
M  V30 1303 C 127.601 -0.0156794 -1.60792 0
M  V30 1304 O 128.791 -0.25817 -1.72276 0
M  V30 1305 C 125.923 -0.616184 -3.35285 0
M  V30 1306 H 127.116 -2.02164 -2.21517 0
M  V30 1307 H 124.669 -1.08103 -1.12887 0
M  V30 1308 H 125.404 0.343917 -3.22471 0
M  V30 1309 H 125.189 -1.37301 -3.67275 0
M  V30 1310 H 126.679 -0.503032 -4.14559 0
M  V30 1311 N 127.117 1.15442 -1.07289 0
M  V30 1312 C 128.064 2.20161 -0.692653 0
M  V30 1313 C 129.034 1.63073 0.31564 0
M  V30 1314 O 130.219 1.89725 0.202235 0
M  V30 1315 C 127.359 3.44967 -0.0959509 0
M  V30 1316 C 126.472 4.16256 -1.15564 0
M  V30 1317 C 125.607 5.28609 -0.524011 0
M  V30 1318 C 124.646 5.91715 -1.56653 0
M  V30 1319 N 123.783 6.9554 -0.957531 0
M  V30 1320 H 128.623 2.52037 -1.59002 0
M  V30 1321 H 126.16 1.2378 -0.794798 0
M  V30 1322 H 128.118 4.16341 0.267628 0
M  V30 1323 H 126.748 3.1361 0.764772 0
M  V30 1324 H 125.8 3.43385 -1.6368 0
M  V30 1325 H 127.112 4.59268 -1.94613 0
M  V30 1326 H 126.266 6.06604 -0.108032 0
M  V30 1327 H 125.005 4.86787 0.29825 0
M  V30 1328 H 124.01 5.12433 -1.9923 0
M  V30 1329 H 125.235 6.35614 -2.39107 0
M  V30 1330 H 123.181 6.55814 -0.156162 0
M  V30 1331 H 123.098 7.36977 -1.68526 0
M  V30 1332 H 124.366 7.77435 -0.567032 0
M  V30 1333 N 128.595 0.856903 1.32268 0
M  V30 1334 C 129.844 0.457599 1.96441 0
M  V30 1335 C 130.157 -0.992426 1.68553 0
M  V30 1336 O 131.363 -1.49727 2.26482 0
M  V30 1337 C 129.819 0.767358 3.51624 0
M  V30 1338 C 129.427 2.23326 3.88367 0
M  V30 1339 C 131.171 0.435887 4.22256 0
M  V30 1340 C 129.078 2.48613 5.36606 0
M  V30 1341 H 128.008 0.167387 0.735185 0
M  V30 1342 H 130.659 1.048 1.5063 0
M  V30 1343 H 129.041 0.106367 3.95857 0
M  V30 1344 H 130.215 2.93623 3.55137 0
M  V30 1345 H 128.53 2.52948 3.30766 0
M  V30 1346 H 131.127 0.602202 5.31298 0
M  V30 1347 H 131.47 -0.622672 4.11617 0
M  V30 1348 H 132.003 1.05286 3.83614 0
M  V30 1349 H 128.742 3.53101 5.52268 0
M  V30 1350 H 128.262 1.82896 5.71235 0
M  V30 1351 H 129.941 2.32676 6.03714 0
M  V30 1352 N 130.073 -1.45103 0.615059 0
M  V30 1353 C 131.303 -2.06254 0.119596 0
M  V30 1354 C 131.711 -1.4591 -1.20445 0
M  V30 1355 O 131.054 -0.570384 -1.7462 0
M  V30 1356 C 131.116 -3.59396 -0.0865591 0
M  V30 1357 C 130.78 -4.42116 1.15683 0
M  V30 1358 C 131.777 -4.7662 2.07676 0
M  V30 1359 C 129.462 -4.82749 1.38775 0
M  V30 1360 C 131.456 -5.50622 3.21082 0
M  V30 1361 C 129.143 -5.56504 2.52481 0
M  V30 1362 C 130.141 -5.90358 3.43463 0
M  V30 1363 O 129.829 -6.62615 4.55189 0
M  V30 1364 H 129.561 -0.672423 0.0694512 0
M  V30 1365 H 132.115 -1.87219 0.844885 0
M  V30 1366 H 130.345 -3.76859 -0.866823 0
M  V30 1367 H 132.034 -4.02365 -0.534555 0
M  V30 1368 H 132.8 -4.4578 1.91063 0
M  V30 1369 H 128.679 -4.55829 0.688545 0
M  V30 1370 H 132.223 -5.76965 3.92119 0
M  V30 1371 H 128.12 -5.86759 2.69043 0
M  V30 1372 H 128.888 -6.81071 4.53966 0
M  V30 1373 N 131.551 -0.354651 -1.53558 0
M  V30 1374 C 132.498 0.496968 -2.25386 0
M  V30 1375 C 133.468 1.0865 -1.25636 0
M  V30 1376 O 134.653 1.12104 -1.54394 0
M  V30 1377 C 131.793 1.63637 -3.03837 0
M  V30 1378 C 130.906 1.07307 -4.18461 0
M  V30 1379 C 130.041 2.18068 -4.84376 0
M  V30 1380 C 129.08 1.59147 -5.91049 0
M  V30 1381 N 128.217 2.63695 -6.50699 0
M  V30 1382 H 133.057 -0.122075 -2.9775 0
M  V30 1383 H 130.594 -0.0720154 -1.46924 0
M  V30 1384 H 132.552 2.30734 -3.47589 0
M  V30 1385 H 131.182 2.22623 -2.33749 0
M  V30 1386 H 130.234 0.292708 -3.79272 0
M  V30 1387 H 131.546 0.602193 -4.95152 0
M  V30 1388 H 130.7 2.93007 -5.31255 0
M  V30 1389 H 129.439 2.68504 -4.07133 0
M  V30 1390 H 128.444 0.827175 -5.43542 0
M  V30 1391 H 129.669 1.09549 -6.70206 0
M  V30 1392 H 127.615 3.13365 -5.76315 0
M  V30 1393 H 127.532 2.21263 -7.22896 0
M  V30 1394 H 128.8 3.3837 -7.02229 0
M  V30 1395 N 133.029 1.57378 -0.0835403 0
M  V30 1396 C 133.959 2.1641 0.87686 0
M  V30 1397 C 134.94 1.09429 1.30228 0
M  V30 1398 O 136.125 1.37516 1.37124 0
M  V30 1399 C 133.255 2.73517 2.14022 0
M  V30 1400 C 132.209 3.85769 1.85381 0
M  V30 1401 C 131.535 4.29529 3.18448 0
M  V30 1402 C 132.835 5.09486 1.14984 0
M  V30 1403 H 134.529 2.96914 0.385059 0
M  V30 1404 H 132.075 1.42823 0.18377 0
M  V30 1405 H 134.028 3.13463 2.81636 0
M  V30 1406 H 132.752 1.90252 2.65465 0
M  V30 1407 H 131.411 3.46345 1.20169 0
M  V30 1408 H 131.059 3.43169 3.67755 0
M  V30 1409 H 130.759 5.05204 3.00071 0
M  V30 1410 H 132.283 4.72099 3.8724 0
M  V30 1411 H 133.697 5.46674 1.72687 0
M  V30 1412 H 132.094 5.90515 1.06826 0
M  V30 1413 H 133.164 4.84724 0.130749 0
M  V30 1414 N 134.507 -0.190092 1.56449 0
M  V30 1415 C 135.784 -0.935886 1.71757 0
M  V30 1416 C 136.164 -2.01173 0.639726 0
M  V30 1417 O 135.512 -2.25827 -0.348502 0
M  V30 1418 C 135.722 -1.51775 3.1427 0
M  V30 1419 C 137.07 -1.99794 3.74656 0
M  V30 1420 O 138.094 -1.61607 3.1743 0
M  V30 1421 O 136.953 -2.70079 4.751 0
M  V30 1422 H 134.047 -0.439229 0.700719 0
M  V30 1423 H 136.593 -0.179395 1.68749 0
M  V30 1424 H 135.365 -0.742505 3.84191 0
M  V30 1425 H 134.988 -2.33894 3.21527 0
M  V30 1426 N 135.985 -1.50799 -0.457987 0
M  V30 1427 C 137.262 -1.52968 -1.21902 0
M  V30 1428 C 137.642 -0.281906 -2.09209 0
M  V30 1429 O 136.99 0.734076 -2.16388 0
M  V30 1430 C 137.2 -2.8326 -2.03875 0
M  V30 1431 C 138.548 -3.34425 -2.6162 0
M  V30 1432 O 139.572 -2.8467 -2.14106 0
M  V30 1433 O 138.431 -4.21188 -3.48228 0
M  V30 1434 H 135.525 -0.614129 -0.553873 0
M  V30 1435 H 138.071 -1.63098 -0.468739 0
M  V30 1436 H 136.843 -3.65543 -1.39621 0
M  V30 1437 H 136.466 -2.76195 -2.8601 0
M  V30 1438 N 137.463 0.71206 -1.40597 0
M  V30 1439 C 138.874 1.29135 -1.34837 0
M  V30 1440 C 139.225 1.96186 -0.0235395 0
M  V30 1441 O 138.35 1.97768 0.878444 0
M  V30 1442 C 138.945 2.34827 -2.44217 0
M  V30 1443 C 137.504 2.88371 -2.41907 0
M  V30 1444 C 136.651 1.62202 -2.24913 0
M  V30 1445 H 139.602 0.507944 -1.50352 0
M  V30 1446 H 139.623 3.15749 -2.12327 0
M  V30 1447 H 139.135 1.85996 -3.40627 0
M  V30 1448 H 137.236 3.41422 -1.49204 0
M  V30 1449 H 137.349 3.39925 -3.37621 0
M  V30 1450 H 135.713 1.874 -1.72492 0
M  V30 1451 H 136.496 1.15391 -3.23326 0
M  V30 1452 N 138.941 1.26152 0.944643 0
M  V30 1453 C 140.166 1.14363 1.7302 0
M  V30 1454 C 140.591 -0.29772 1.85729 0
M  V30 1455 O 139.949 -1.2157 1.34501 0
M  V30 1456 C 139.997 1.81378 3.11664 0
M  V30 1457 O 139.101 1.10022 3.97453 0
M  V30 1458 H 138.442 0.398694 0.53098 0
M  V30 1459 H 140.972 1.66906 1.18337 0
M  V30 1460 H 140.982 1.88064 3.62072 0
M  V30 1461 H 139.657 2.86237 3.0173 0
M  V30 1462 H 138.234 1.11287 3.55907 0
M  V30 1463 N 140.419 -1.14872 1.07899 0
M  V30 1464 C 141.659 -1.8745 0.814965 0
M  V30 1465 C 142.023 -1.80758 -0.64733 0
M  V30 1466 O 143.224 -2.48422 -1.02664 0
M  V30 1467 C 141.495 -3.32286 1.31607 0
M  V30 1468 S 143.054 -4.22537 1.18357 0
M  V30 1469 H 139.872 -0.646833 0.295174 0
M  V30 1470 H 142.474 -1.38555 1.37923 0
M  V30 1471 H 141.178 -3.34703 2.37491 0
M  V30 1472 H 140.709 -3.86238 0.747261 0
M  V30 1473 H 142.724 -4.96044 0.124586 0
M  V30 1474 N 141.898 -0.863906 -1.31812 0
M  V30 1475 C 143.309 -0.52522 -1.7916 0
M  V30 1476 C 143.66 0.957518 -1.71248 0
M  V30 1477 O 142.785 1.74734 -1.27659 0
M  V30 1478 C 143.38 -0.9466 -3.25307 0
M  V30 1479 C 141.939 -0.659668 -3.70574 0
M  V30 1480 C 141.086 -1.14126 -2.52726 0
M  V30 1481 H 144.037 -1.05022 -1.1898 0
M  V30 1482 H 144.058 -0.266766 -3.79564 0
M  V30 1483 H 143.57 -2.02579 -3.31034 0
M  V30 1484 H 141.671 0.408416 -3.70355 0
M  V30 1485 H 141.784 -1.23245 -4.62977 0
M  V30 1486 H 140.148 -0.561216 -2.4844 0
M  V30 1487 H 140.931 -2.22775 -2.61201 0
M  V30 1488 N 143.376 1.44774 -0.622745 0
M  V30 1489 C 144.792 1.56986 -0.287652 0
M  V30 1490 C 144.992 1.61167 1.20944 0
M  V30 1491 O 144.048 1.55015 1.99315 0
M  V30 1492 C 145.361 2.84551 -0.972188 0
M  V30 1493 C 146.909 2.9825 -0.949536 0
M  V30 1494 C 147.384 4.28605 -1.61437 0
M  V30 1495 N 148.875 4.35399 -1.58057 0
M  V30 1496 C 149.61 5.34964 -2.064 0
M  V30 1497 N 149.106 6.40981 -2.62897 0
M  V30 1498 N 150.899 5.26419 -1.97078 0
M  V30 1499 H 143.05 1.40304 -1.59463 0
M  V30 1500 H 145.313 0.671794 -0.668878 0
M  V30 1501 H 145.019 2.87417 -2.02693 0
M  V30 1502 H 144.893 3.73807 -0.504771 0
M  V30 1503 H 147.28 2.94941 0.0967067 0
M  V30 1504 H 147.361 2.10364 -1.45536 0
M  V30 1505 H 147.005 4.32672 -2.66002 0
M  V30 1506 H 146.935 5.15334 -1.08344 0
M  V30 1507 H 149.426 3.59397 -1.16801 0
M  V30 1508 H 149.739 7.13225 -2.97539 0
M  V30 1509 H 148.084 6.4169 -2.66943 0
M  V30 1510 H 151.275 4.42504 -1.52669 0
M  V30 1511 H 151.448 6.03861 -2.35066 0
M  V30 1512 N 144.854 0.36279 1.53368 0
M  V30 1513 C 146.265 -0.117022 1.86333 0
M  V30 1514 C 146.616 -1.48397 1.28347 0
M  V30 1515 O 145.741 -2.07787 0.604428 0
M  V30 1516 C 146.336 -0.21912 3.38091 0
M  V30 1517 C 144.895 -0.643184 3.70864 0
M  V30 1518 C 144.042 0.211318 2.76494 0
M  V30 1519 H 146.993 0.581687 1.47655 0
M  V30 1520 H 147.014 -1.04319 3.6592 0
M  V30 1521 H 146.526 0.775902 3.80265 0
M  V30 1522 H 144.627 -1.64654 3.34245 0
M  V30 1523 H 144.74 -0.41973 4.77258 0
M  V30 1524 H 143.104 -0.319367 2.5269 0
M  V30 1525 H 143.887 1.20383 3.21501 0
M  V30 1526 N 146.332 -1.57332 0.0918853 0
M  V30 1527 C 147.242 -2.17368 -0.882505 0
M  V30 1528 C 148.258 -1.14226 -1.31257 0
M  V30 1529 O 149.434 -1.46582 -1.38115 0
M  V30 1530 C 146.499 -2.73962 -2.12476 0
M  V30 1531 C 145.56 -3.92048 -1.7492 0
M  V30 1532 C 144.793 -4.45933 -2.93223 0
M  V30 1533 O 145.016 -3.98764 -4.07852 0
M  V30 1534 O 143.95 -5.36999 -2.71875 0
M  V30 1535 H 147.776 -3.01031 -0.40172 0
M  V30 1536 H 145.361 -1.48813 -0.132291 0
M  V30 1537 H 147.243 -3.10147 -2.85283 0
M  V30 1538 H 145.918 -1.93347 -2.59613 0
M  V30 1539 H 144.825 -3.6068 -0.993025 0
M  V30 1540 H 146.158 -4.74017 -1.32548 0
M  V30 1541 N 147.81 0.181792 -1.56548 0
M  V30 1542 C 149.05 0.906711 -1.83189 0
M  V30 1543 C 149.414 1.79882 -0.671312 0
M  V30 1544 O 150.615 2.56054 -0.81792 0
M  V30 1545 C 148.886 1.69023 -3.14906 0
M  V30 1546 S 150.445 2.46535 -3.62996 0
M  V30 1547 H 147.263 0.303877 -0.642791 0
M  V30 1548 H 149.865 0.169107 -1.94767 0
M  V30 1549 H 148.569 1.02571 -3.97376 0
M  V30 1550 H 148.1 2.46941 -3.06241 0
M  V30 1551 H 150.115 3.71014 -3.29489 0
M  V30 1552 N 149.288 1.51039 0.449983 0
M  V30 1553 C 150.518 1.66627 1.22143 0
M  V30 1554 C 150.926 0.357776 1.85786 0
M  V30 1555 O 150.269 -0.672424 1.70951 0
M  V30 1556 C 150.331 2.71562 2.35573 0
M  V30 1557 C 149.995 4.14526 1.92399 0
M  V30 1558 C 150.992 4.99717 1.43453 0
M  V30 1559 C 148.677 4.60559 2.00475 0
M  V30 1560 C 150.671 6.28998 1.03155 0
M  V30 1561 C 148.358 5.8984 1.59788 0
M  V30 1562 C 149.356 6.73886 1.11208 0
M  V30 1563 O 149.044 8.0075 0.710935 0
M  V30 1564 H 148.776 0.562635 0.374724 0
M  V30 1565 H 151.33 1.98146 0.541036 0
M  V30 1566 H 149.56 2.3533 3.06849 0
M  V30 1567 H 151.249 2.76156 2.97478 0
M  V30 1568 H 152.015 4.65361 1.36618 0
M  V30 1569 H 147.894 3.95273 2.37235 0
M  V30 1570 H 151.438 6.9455 0.651663 0
M  V30 1571 H 147.335 6.23713 1.66289 0
M  V30 1572 H 148.103 8.142 0.837913 0
M  V30 1573 N 150.766 -0.704594 1.40972 0
M  V30 1574 C 152.182 -1.01406 1.23244 0
M  V30 1575 C 152.382 -2.01169 0.115399 0
M  V30 1576 O 151.438 -2.47021 -0.523147 0
M  V30 1577 C 152.751 -1.54728 2.57836 0
M  V30 1578 C 154.299 -1.66658 2.64942 0
M  V30 1579 C 154.774 -2.23383 3.9983 0
M  V30 1580 N 156.265 -2.30756 4.01629 0
M  V30 1581 C 157 -2.75655 5.02794 0
M  V30 1582 N 156.496 -3.20225 6.14352 0
M  V30 1583 N 158.289 -2.75138 4.90159 0
M  V30 1584 H 150.44 -0.0435285 2.12355 0
M  V30 1585 H 152.703 -0.0818951 0.944456 0
M  V30 1586 H 152.409 -0.888832 3.40283 0
M  V30 1587 H 152.283 -2.53084 2.79693 0
M  V30 1588 H 154.67 -2.31617 1.8286 0
M  V30 1589 H 154.751 -0.668717 2.46904 0
M  V30 1590 H 154.395 -1.59043 4.82357 0
M  V30 1591 H 154.325 -3.23904 4.15203 0
M  V30 1592 H 156.816 -1.99291 3.21079 0
M  V30 1593 H 157.129 -3.53084 6.87424 0
M  V30 1594 H 155.474 -3.18156 6.17901 0
M  V30 1595 H 158.665 -2.39661 4.02095 0
M  V30 1596 H 158.838 -3.09812 5.6914 0
M  V30 1597 N 152.244 -1.26651 -0.937939 0
M  V30 1598 C 153.469 -1.15279 -1.72411 0
M  V30 1599 C 153.894 0.287866 -1.85884 0
M  V30 1600 O 153.252 1.20855 -1.35143 0
M  V30 1601 C 153.3 -1.83028 -3.10698 0
M  V30 1602 O 152.404 -1.12128 -3.96864 0
M  V30 1603 H 151.745 -0.401504 -0.528858 0
M  V30 1604 H 154.275 -1.67531 -1.1745 0
M  V30 1605 H 154.285 -1.89981 -3.6107 0
M  V30 1606 H 152.96 -2.87833 -3.00208 0
M  V30 1607 H 151.537 -1.13173 -3.55312 0
M  V30 1608 N 153.722 1.14298 -1.08507 0
M  V30 1609 C 154.962 1.87016 -0.824894 0
M  V30 1610 C 155.326 1.81099 0.637735 0
M  V30 1611 O 156.527 2.48963 1.01345 0
M  V30 1612 C 154.798 3.31584 -1.33368 0
M  V30 1613 S 156.357 4.21903 -1.20596 0
M  V30 1614 H 153.175 0.645259 -0.2986 0
M  V30 1615 H 155.777 1.37822 -1.38656 0
M  V30 1616 H 154.481 3.33439 -2.39262 0
M  V30 1617 H 154.012 3.85836 -0.767734 0
M  V30 1618 H 156.027 4.95971 -0.150891 0
M  V30 1619 N 155.201 0.870884 1.31352 0
M  V30 1620 C 156.449 0.48132 1.96285 0
M  V30 1621 C 156.77 -0.969813 1.69173 0
M  V30 1622 O 156.04 -1.67998 1.00764 0
M  V30 1623 H 154.62 0.175002 0.726212 0
M  V30 1624 H 157.282 1.11087 1.60143 0
M  V30 1625 H 156.378 0.639825 3.05471 0
M  V30 1626 N 156.679 -1.44442 0.630414 0
M  V30 1627 C 157.904 -2.06927 0.139944 0
M  V30 1628 C 158.329 -1.46795 -1.17613 0
M  V30 1629 O 157.687 -0.569144 -1.72135 0
M  V30 1630 C 157.735 -3.6058 0.0379581 0
M  V30 1631 O 156.839 -3.99937 -1.0062 0
M  V30 1632 H 156.18 -0.658608 0.0844483 0
M  V30 1633 H 158.71 -1.85327 0.866891 0
M  V30 1634 H 158.72 -4.07714 -0.152856 0
M  V30 1635 H 157.395 -4.03728 0.998809 0
M  V30 1636 H 155.972 -3.64436 -0.79001 0
M  V30 1637 N 158.157 -0.370918 -1.53173 0
M  V30 1638 C 159.382 0.220293 -2.06227 0
M  V30 1639 C 159.807 1.41243 -1.24225 0
M  V30 1640 O 159.165 1.79387 -0.262645 0
M  V30 1641 C 159.213 0.586663 -3.55796 0
M  V30 1642 O 158.317 1.68317 -3.76488 0
M  V30 1643 H 157.658 0.0308099 -0.663285 0
M  V30 1644 H 160.188 -0.533068 -1.97534 0
M  V30 1645 H 160.198 0.85617 -3.98916 0
M  V30 1646 H 158.873 -0.285013 -4.14922 0
M  V30 1647 H 157.45 1.40881 -3.45264 0
M  V30 1648 N 159.635 1.57281 -0.100228 0
M  V30 1649 C 160.863 1.98879 0.570509 0
M  V30 1650 C 161.278 0.979476 1.61405 0
M  V30 1651 O 160.635 -0.0302288 1.82475 0
M  V30 1652 C 160.686 3.4052 1.2136 0
M  V30 1653 O 160.407 4.37588 0.211786 0
M  V30 1654 C 161.908 3.97149 1.96945 0
M  V30 1655 H 159.128 0.653428 0.152555 0
M  V30 1656 H 161.672 2.03697 -0.18103 0
M  V30 1657 H 159.827 3.367 1.91603 0
M  V30 1658 H 160.241 5.20118 0.676607 0
M  V30 1659 H 161.715 4.98393 2.37294 0
M  V30 1660 H 162.192 3.3525 2.83733 0
M  V30 1661 H 162.798 4.04458 1.31506 0
M  V30 1662 N 161.113 -0.173488 1.56642 0
M  V30 1663 C 162.524 -0.736155 1.71574 0
M  V30 1664 C 162.875 -1.82888 0.710389 0
M  V30 1665 O 162 -2.16017 -0.1287 0
M  V30 1666 C 162.595 -1.34211 3.11083 0
M  V30 1667 C 161.154 -1.85162 3.27707 0
M  V30 1668 C 160.301 -0.729765 2.67525 0
M  V30 1669 H 163.252 0.0518786 1.58615 0
M  V30 1670 H 163.273 -2.21178 3.09613 0
M  V30 1671 H 162.785 -0.546579 3.84232 0
M  V30 1672 H 160.886 -2.67366 2.59512 0
M  V30 1673 H 160.999 -1.99855 4.35425 0
M  V30 1674 H 159.363 -1.14965 2.27278 0
M  V30 1675 H 160.146 0.0538806 3.43258 0
M  V30 1676 N 162.591 -1.51276 -0.441967 0
M  V30 1677 C 163.868 -1.54252 -1.20273 0
M  V30 1678 C 164.248 -0.30408 -2.08898 0
M  V30 1679 O 163.596 0.711084 -2.17154 0
M  V30 1680 C 163.806 -2.85406 -2.00859 0
M  V30 1681 C 165.154 -3.37181 -2.58059 0
M  V30 1682 O 166.178 -2.86925 -2.11074 0
M  V30 1683 O 165.037 -4.24858 -3.43741 0
M  V30 1684 H 162.131 -0.619969 -0.547328 0
M  V30 1685 H 164.677 -1.63586 -0.451413 0
M  V30 1686 H 163.449 -3.67003 -1.35736 0
M  V30 1687 H 163.072 -2.79213 -2.83065 0
M  V30 1688 N 164.069 0.697108 -1.41344 0
M  V30 1689 C 164.979 1.84088 -1.45427 0
M  V30 1690 C 165.995 1.70545 -0.34501 0
M  V30 1691 O 167.171 1.92488 -0.592492 0
M  V30 1692 C 164.236 3.20056 -1.33286 0
M  V30 1693 C 163.297 3.45718 -2.54514 0
M  V30 1694 C 162.53 4.75199 -2.42944 0
M  V30 1695 O 162.753 5.51579 -1.45318 0
M  V30 1696 O 161.687 5.0161 -3.32672 0
M  V30 1697 H 165.513 1.836 -2.41919 0
M  V30 1698 H 163.098 0.849966 -1.22866 0
M  V30 1699 H 164.98 4.01236 -1.28794 0
M  V30 1700 H 163.655 3.2123 -0.39909 0
M  V30 1701 H 162.562 2.64474 -2.64583 0
M  V30 1702 H 163.895 3.49356 -3.46715 0
M  V30 1703 N 165.547 1.27147 0.931209 0
M  V30 1704 C 166.794 1.13278 1.67852 0
M  V30 1705 C 167.122 -0.32204 1.91815 0
M  V30 1706 O 166.377 -1.25224 1.50391 0
M  V30 1707 C 166.676 1.8579 3.05314 0
M  V30 1708 C 166.342 3.35657 3.01073 0
M  V30 1709 C 165.004 3.76536 2.99623 0
M  V30 1710 C 167.356 4.31299 2.92627 0
M  V30 1711 C 164.684 5.11426 2.87506 0
M  V30 1712 C 167.036 5.66242 2.82051 0
M  V30 1713 C 165.7 6.06418 2.7895 0
M  V30 1714 H 164.97 0.414515 0.614214 0
M  V30 1715 H 167.617 1.57712 1.08624 0
M  V30 1716 H 165.922 1.33854 3.68226 0
M  V30 1717 H 167.619 1.72491 3.62005 0
M  V30 1718 H 164.209 3.03146 3.02986 0
M  V30 1719 H 168.393 4.00692 2.92848 0
M  V30 1720 H 163.649 5.41705 2.83489 0
M  V30 1721 H 167.823 6.40026 2.74481 0
M  V30 1722 H 165.45 7.10895 2.69318 0
M  V30 1723 N 167.025 -1.13721 1.09112 0
M  V30 1724 C 168.436 -1.6648 0.845068 0
M  V30 1725 C 168.787 -1.85911 -0.62701 0
M  V30 1726 O 167.912 -1.57556 -1.48341 0
M  V30 1727 C 168.507 -3.02413 1.52748 0
M  V30 1728 C 167.066 -3.52176 1.32849 0
M  V30 1729 C 166.213 -2.27492 1.58564 0
M  V30 1730 H 169.164 -0.976872 1.25072 0
M  V30 1731 H 169.185 -3.68223 0.958752 0
M  V30 1732 H 168.697 -2.88238 2.59885 0
M  V30 1733 H 166.798 -3.7156 0.278137 0
M  V30 1734 H 166.911 -4.32499 2.0611 0
M  V30 1735 H 165.275 -2.33923 1.00758 0
M  V30 1736 H 166.058 -2.15886 2.66924 0
M  V30 1737 N 168.503 -0.877838 -1.30888 0
M  V30 1738 C 169.731 -0.507414 -2.00581 0
M  V30 1739 C 170.146 0.902216 -1.65848 0
M  V30 1740 O 169.503 1.59225 -0.891831 0
M  V30 1741 C 169.554 -0.664162 -3.55347 0
M  V30 1742 O 169.275 -2.01829 -3.8884 0
M  V30 1743 C 170.776 -0.295787 -4.42312 0
M  V30 1744 H 167.996 -0.196866 -0.641471 0
M  V30 1745 H 170.54 -1.18117 -1.66939 0
M  V30 1746 H 168.695 -0.0378619 -3.87381 0
M  V30 1747 H 169.109 -2.03174 -4.8355 0
M  V30 1748 H 170.583 -0.456388 -5.5011 0
M  V30 1749 H 171.06 0.765663 -4.32475 0
M  V30 1750 H 171.666 -0.898113 -4.15709 0
M  V30 1751 N 169.982 1.44106 -0.638065 0
M  V30 1752 C 171.259 1.95453 -0.0759321 0
M  V30 1753 C 171.639 1.57984 1.40015 0
M  V30 1754 O 170.987 0.857361 2.11806 0
M  V30 1755 C 171.197 3.47655 -0.306132 0
M  V30 1756 C 172.545 4.24114 -0.203008 0
M  V30 1757 O 173.569 3.55405 -0.237871 0
M  V30 1758 O 172.428 5.46381 -0.113827 0
M  V30 1759 H 169.522 0.826797 0.0183332 0
M  V30 1760 H 172.068 1.54122 -0.710251 0
M  V30 1761 H 170.84 3.68 -1.3301 0
M  V30 1762 H 170.463 3.95949 0.361991 0
M  V30 1763 N 171.46 0.379036 1.52974 0
M  V30 1764 C 172.709 -0.207612 2.00629 0
M  V30 1765 C 173.022 -1.48758 1.27006 0
M  V30 1766 O 174.228 -2.15365 1.65318 0
M  V30 1767 C 172.684 -0.42053 3.57435 0
M  V30 1768 C 172.292 0.845587 4.39948 0
M  V30 1769 C 174.036 -0.964102 4.13407 0
M  V30 1770 C 171.943 0.601513 5.88333 0
M  V30 1771 H 170.873 -0.0813591 0.749598 0
M  V30 1772 H 173.524 0.499853 1.76561 0
M  V30 1773 H 171.906 -1.18959 3.7771 0
M  V30 1774 H 173.08 1.61848 4.31442 0
M  V30 1775 H 171.395 1.31336 3.95145 0
M  V30 1776 H 173.992 -1.16225 5.21916 0
M  V30 1777 H 174.335 -1.93019 3.68849 0
M  V30 1778 H 174.868 -0.25487 3.96983 0
M  V30 1779 H 171.607 1.53831 6.37194 0
M  V30 1780 H 171.127 -0.132628 5.99653 0
M  V30 1781 H 172.806 0.232134 6.46583 0
M  V30 1782 N 172.938 -1.57226 0.108567 0
M  V30 1783 C 174.349 -1.8195 -0.418464 0
M  V30 1784 C 174.7 -1.02508 -1.67292 0
M  V30 1785 O 173.825 -0.258496 -2.14851 0
M  V30 1786 C 174.42 -3.30028 -0.765979 0
M  V30 1787 C 172.979 -3.55469 -1.23769 0
M  V30 1788 C 172.126 -2.7625 -0.241106 0
M  V30 1789 H 175.077 -1.55149 0.33384 0
M  V30 1790 H 175.098 -3.44086 -1.62434 0
M  V30 1791 H 174.61 -3.87821 0.147219 0
M  V30 1792 H 172.711 -3.03022 -2.16814 0
M  V30 1793 H 172.824 -4.6408 -1.19022 0
M  V30 1794 H 171.188 -2.44133 -0.72602 0
M  V30 1795 H 171.971 -3.36797 0.665007 0
M  V30 1796 N 174.416 0.165178 -1.56732 0
M  V30 1797 C 175.664 0.879068 -1.8198 0
M  V30 1798 C 175.985 1.82514 -0.686561 0
M  V30 1799 O 175.255 1.93694 0.293146 0
M  V30 1800 H 173.835 0.327608 -0.671329 0
M  V30 1801 H 176.497 0.163526 -1.94213 0
M  V30 1802 H 175.593 1.45228 -2.76252 0
M  V30 1803 N 175.894 1.51508 0.433938 0
M  V30 1804 C 177.122 1.68157 1.20543 0
M  V30 1805 C 177.537 0.380362 1.84929 0
M  V30 1806 O 176.894 -0.641446 1.70856 0
M  V30 1807 C 176.945 2.79965 2.28696 0
M  V30 1808 O 176.666 4.05045 1.66943 0
M  V30 1809 C 178.167 3.07912 3.18912 0
M  V30 1810 H 175.387 0.56421 0.363191 0
M  V30 1811 H 177.931 1.97941 0.513754 0
M  V30 1812 H 176.086 2.5277 2.93574 0
M  V30 1813 H 176.5 4.67165 2.38448 0
M  V30 1814 H 177.974 3.89719 3.90926 0
M  V30 1815 H 178.451 2.20456 3.79863 0
M  V30 1816 H 179.057 3.36779 2.59731 0
M  V30 1817 N 177.372 -0.689602 1.41712 0
M  V30 1818 C 178.319 -1.80345 1.44029 0
M  V30 1819 C 179.289 -1.63478 0.293948 0
M  V30 1820 O 180.474 -1.84244 0.495869 0
M  V30 1821 C 177.614 -3.18272 1.33405 0
M  V30 1822 C 176.727 -3.46529 2.57956 0
M  V30 1823 C 175.862 -4.74103 2.39582 0
M  V30 1824 C 174.901 -4.95347 3.5958 0
M  V30 1825 N 174.038 -6.14151 3.40239 0
M  V30 1826 H 178.878 -1.77698 2.39222 0
M  V30 1827 H 176.415 -0.867688 1.18784 0
M  V30 1828 H 178.373 -3.97956 1.25246 0
M  V30 1829 H 177.003 -3.2008 0.418164 0
M  V30 1830 H 176.055 -2.61207 2.76542 0
M  V30 1831 H 177.367 -3.58126 3.47199 0
M  V30 1832 H 176.521 -5.61853 2.28924 0
M  V30 1833 H 175.26 -4.64763 1.47805 0
M  V30 1834 H 174.265 -4.06044 3.70686 0
M  V30 1835 H 175.49 -5.06542 4.52318 0
M  V30 1836 H 173.436 -6.06013 2.51167 0
M  V30 1837 H 173.353 -6.26543 4.23061 0
M  V30 1838 H 174.621 -7.04619 3.33365 0
M  V30 1839 N 178.85 -1.27639 -0.924453 0
M  V30 1840 C 180.098 -1.13941 -1.66918 0
M  V30 1841 C 180.419 0.314589 -1.92446 0
M  V30 1842 O 179.689 1.21964 -1.53303 0
M  V30 1843 H 178.269 -0.418678 -0.618642 0
M  V30 1844 H 180.931 -1.60213 -1.10985 0
M  V30 1845 H 180.027 -1.67094 -2.63602 0
M  V30 1846 N 180.328 1.1314 -1.09713 0
M  V30 1847 C 181.276 2.20717 -0.733934 0
M  V30 1848 C 182.27 1.6729 0.266506 0
M  V30 1849 O 183.476 1.79547 0.127656 0
M  V30 1850 H 179.851 0.719292 -0.21937 0
M  V30 1851 H 181.822 2.48611 -1.6503 0
M  V30 1852 C 180.571 3.47265 -0.173849 0
M  V30 1853 H 179.894 3.88716 -0.934873 0
M  V30 1854 H 181.334 4.23979 0.0423126 0
M  V30 1855 C 179.793 3.18724 1.09164 0
M  V30 1856 O 180.323 3.37762 2.17439 0
M  V30 1857 N 178.529 2.72583 1.00732 0
M  V30 1858 H 178.076 2.57291 0.126121 0
M  V30 1859 H 178.034 2.53862 1.85476 0
M  V30 1860 N 181.806 0.884767 1.30421 0
M  V30 1861 C 183.053 0.503105 1.96151 0
M  V30 1862 C 183.381 -0.947676 1.69851 0
M  V30 1863 O 182.636 -1.68467 0.995861 0
M  V30 1864 C 182.935 0.724318 3.49983 0
M  V30 1865 C 182.601 2.15015 3.96332 0
M  V30 1866 C 181.263 2.54005 4.08699 0
M  V30 1867 C 183.615 3.07936 4.20505 0
M  V30 1868 C 180.943 3.85128 4.42599 0
M  V30 1869 C 183.295 4.3859 4.55874 0
M  V30 1870 C 181.959 4.77474 4.66449 0
M  V30 1871 H 181.229 0.184099 0.717766 0
M  V30 1872 H 183.876 1.12058 1.55291 0
M  V30 1873 H 182.181 0.0238086 3.91793 0
M  V30 1874 H 183.878 0.408617 3.98913 0
M  V30 1875 H 180.468 1.8375 3.87213 0
M  V30 1876 H 184.652 2.79033 4.10431 0
M  V30 1877 H 179.908 4.14996 4.48986 0
M  V30 1878 H 184.082 5.10629 4.7353 0
M  V30 1879 H 181.709 5.79115 4.92473 0
M  V30 1880 N 183.284 -1.43765 0.645699 0
M  V30 1881 C 184.231 -2.30745 -0.0504648 0
M  V30 1882 C 185.201 -1.4432 -0.822241 0
M  V30 1883 O 186.386 -1.73202 -0.800358 0
M  V30 1884 C 183.526 -3.29802 -1.0161 0
M  V30 1885 C 182.639 -4.31326 -0.241219 0
M  V30 1886 C 181.774 -5.17469 -1.19998 0
M  V30 1887 C 180.813 -6.10691 -0.415094 0
M  V30 1888 N 179.95 -6.89483 -1.32506 0
M  V30 1889 H 184.79 -2.8973 0.697155 0
M  V30 1890 H 182.327 -1.42738 0.355563 0
M  V30 1891 H 184.285 -3.85734 -1.58949 0
M  V30 1892 H 182.915 -2.72483 -1.73069 0
M  V30 1893 H 181.967 -3.77749 0.448334 0
M  V30 1894 H 183.279 -4.9743 0.369437 0
M  V30 1895 H 182.433 -5.7799 -1.84424 0
M  V30 1896 H 181.172 -4.51473 -1.84455 0
M  V30 1897 H 180.177 -5.49265 0.242565 0
M  V30 1898 H 181.402 -6.78727 0.224966 0
M  V30 1899 H 179.348 -6.26142 -1.95657 0
M  V30 1900 H 179.265 -7.52081 -0.768783 0
M  V30 1901 H 180.533 -7.54516 -1.9577 0
M  V30 1902 N 184.763 -0.387143 -1.52771 0
M  V30 1903 C 185.693 0.440551 -2.29306 0
M  V30 1904 C 186.674 1.06535 -1.32606 0
M  V30 1905 O 187.859 1.07853 -1.61497 0
M  V30 1906 C 184.989 1.56919 -3.09829 0
M  V30 1907 C 183.943 1.07054 -4.14395 0
M  V30 1908 C 183.269 2.29109 -4.83129 0
M  V30 1909 C 184.569 0.140015 -5.22112 0
M  V30 1910 H 186.263 -0.198026 -2.98744 0
M  V30 1911 H 183.809 -0.09668 -1.43675 0
M  V30 1912 H 185.762 2.15503 -3.62128 0
M  V30 1913 H 184.486 2.23532 -2.3812 0
M  V30 1914 H 183.145 0.507247 -3.63074 0
M  V30 1915 H 182.793 2.94227 -4.0797 0
M  V30 1916 H 182.493 1.96406 -5.53804 0
M  V30 1917 H 184.017 2.88339 -5.38231 0
M  V30 1918 H 185.431 0.633978 -5.69784 0
M  V30 1919 H 183.828 -0.0971485 -6.00021 0
M  V30 1920 H 184.898 -0.811711 -4.78058 0
M  V30 1921 N 186.241 1.57166 -0.116904 0
M  V30 1922 C 187.487 1.95412 0.542405 0
M  V30 1923 C 187.82 1.00019 1.66463 0
M  V30 1924 O 187.095 0.0370346 1.94465 0
M  V30 1925 C 187.378 3.43615 1.07708 0
M  V30 1926 C 187.231 4.49781 -0.0415868 0
M  V30 1927 C 188.55 3.93616 1.96861 0
M  V30 1928 H 185.669 0.710543 0.195696 0
M  V30 1929 H 188.311 1.89027 -0.192038 0
M  V30 1930 H 186.461 3.49187 1.70296 0
M  V30 1931 H 188.133 4.56308 -0.676793 0
M  V30 1932 H 186.376 4.28033 -0.705019 0
M  V30 1933 H 187.047 5.50733 0.373717 0
M  V30 1934 H 189.523 3.90335 1.44146 0
M  V30 1935 H 188.399 4.97838 2.3119 0
M  V30 1936 H 188.66 3.34188 2.89432 0
M  V30 1937 N 187.719 -0.156864 1.56817 0
M  V30 1938 C 189.135 -0.50916 1.5126 0
M  V30 1939 C 189.335 -1.83897 0.823658 0
M  V30 1940 O 188.391 -2.49469 0.390055 0
M  V30 1941 C 189.704 -0.52857 2.96018 0
M  V30 1942 C 191.252 -0.614771 3.06903 0
M  V30 1943 C 191.727 -0.664938 4.53147 0
M  V30 1944 N 193.218 -0.727433 4.57452 0
M  V30 1945 C 193.953 -0.787067 5.67973 0
M  V30 1946 N 193.449 -0.806649 6.88088 0
M  V30 1947 N 195.242 -0.827195 5.5598 0
M  V30 1948 H 187.393 0.714935 2.00006 0
M  V30 1949 H 189.656 0.259526 0.911784 0
M  V30 1950 H 189.362 0.380154 3.49639 0
M  V30 1951 H 189.236 -1.36998 3.51442 0
M  V30 1952 H 191.623 -1.51392 2.53307 0
M  V30 1953 H 191.704 0.253597 2.5454 0
M  V30 1954 H 191.348 0.230011 5.07379 0
M  V30 1955 H 191.278 -1.54966 5.03282 0
M  V30 1956 H 193.769 -0.719998 3.70978 0
M  V30 1957 H 194.082 -0.853727 7.6807 0
M  V30 1958 H 192.427 -0.774687 6.90669 0
M  V30 1959 H 195.618 -0.808998 4.61056 0
M  V30 1960 H 195.791 -0.870206 6.4213 0
M  V30 1961 N 189.197 -1.51736 -0.425897 0
M  V30 1962 C 190.147 -1.70258 -1.51645 0
M  V30 1963 C 191.131 -0.556488 -1.5097 0
M  V30 1964 O 192.323 -0.812879 -1.5723 0
M  V30 1965 C 189.452 -1.84143 -2.89735 0
M  V30 1966 C 188.538 -3.04572 -2.95122 0
M  V30 1967 N 188.929 -4.2756 -2.70233 0
M  V30 1968 C 187.227 -3.04061 -3.26286 0
M  V30 1969 C 187.928 -5.08908 -2.81757 0
M  V30 1970 N 186.904 -4.43797 -3.13919 0
M  V30 1971 H 190.706 -2.63004 -1.31172 0
M  V30 1972 H 188.22 -1.4954 -0.633375 0
M  V30 1973 H 190.217 -1.95525 -3.68206 0
M  V30 1974 H 188.877 -0.925857 -3.1122 0
M  V30 1975 H 189.888 -4.56315 -2.44943 0
M  V30 1976 H 186.565 -2.22179 -3.53473 0
M  V30 1977 H 187.955 -6.16843 -2.66372 0
M  V30 1978 N 190.675 0.682077 -1.42076 0
M  V30 1979 C 191.921 1.44428 -1.42367 0
M  V30 1980 C 192.254 1.94164 -0.0373056 0
M  V30 1981 O 191.529 1.70429 0.937239 0
M  V30 1982 C 191.812 2.64654 -2.44194 0
M  V30 1983 C 191.665 2.20596 -3.91991 0
M  V30 1984 C 192.984 3.66865 -2.431 0
M  V30 1985 H 190.103 0.523834 -0.518428 0
M  V30 1986 H 192.745 0.77576 -1.73442 0
M  V30 1987 H 190.895 3.2169 -2.17826 0
M  V30 1988 H 192.567 1.68783 -4.29313 0
M  V30 1989 H 190.81 1.52242 -4.06208 0
M  V30 1990 H 191.481 3.06921 -4.58807 0
M  V30 1991 H 193.957 3.19531 -2.66532 0
M  V30 1992 H 192.833 4.48577 -3.16339 0
M  V30 1993 H 193.094 4.17493 -1.45437 0
M  V30 1994 N 192.153 1.28127 0.917671 0
M  V30 1995 C 193.378 1.18007 1.70555 0
M  V30 1996 C 193.803 -0.258257 1.86319 0
M  V30 1997 O 193.161 -1.1869 1.37049 0
M  V30 1998 C 193.209 1.87948 3.07746 0
M  V30 1999 O 192.313 1.18427 3.9503 0
M  V30 2000 H 191.654 0.409867 0.522403 0
M  V30 2001 H 194.184 1.69379 1.1477 0
M  V30 2002 H 194.194 1.95701 3.58001 0
M  V30 2003 H 192.869 2.92573 2.95591 0
M  V30 2004 H 191.446 1.18811 3.53466 0
M  V30 2005 N 193.631 -1.12557 1.10312 0
M  V30 2006 C 194.878 -1.84038 0.844759 0
M  V30 2007 C 195.206 -1.84026 -0.629668 0
M  V30 2008 O 194.461 -1.28026 -1.48013 0
M  V30 2009 C 194.76 -3.31462 1.33669 0
M  V30 2010 C 194.426 -3.51647 2.82232 0
M  V30 2011 C 193.088 -3.56864 3.22802 0
M  V30 2012 C 195.44 -3.58867 3.77974 0
M  V30 2013 C 192.768 -3.66844 4.57867 0
M  V30 2014 C 195.12 -3.70375 5.1284 0
M  V30 2015 C 193.784 -3.73848 5.52986 0
M  V30 2016 H 193.054 -0.673444 0.309119 0
M  V30 2017 H 195.701 -1.32824 1.37949 0
M  V30 2018 H 194.006 -3.85091 0.721949 0
M  V30 2019 H 195.703 -3.85236 1.11329 0
M  V30 2020 H 192.293 -3.48249 2.49842 0
M  V30 2021 H 196.477 -3.54107 3.47738 0
M  V30 2022 H 191.733 -3.67804 4.88396 0
M  V30 2023 H 195.907 -3.74904 5.86873 0
M  V30 2024 H 193.534 -3.81333 6.57639 0
M  V30 2025 N 195.109 -0.891671 -1.2995 0
M  V30 2026 C 196.355 -0.514261 -1.96171 0
M  V30 2027 C 196.688 0.935506 -1.70182 0
M  V30 2028 O 195.963 1.66204 -1.01028 0
M  V30 2029 C 196.246 -0.797719 -3.51153 0
M  V30 2030 C 196.099 -2.2986 -3.86632 0
M  V30 2031 C 197.418 -0.278749 -4.39216 0
M  V30 2032 H 194.537 -0.188314 -0.712535 0
M  V30 2033 H 197.179 -1.11689 -1.53706 0
M  V30 2034 H 195.329 -0.284826 -3.87455 0
M  V30 2035 H 197.001 -2.88042 -3.60319 0
M  V30 2036 H 195.244 -2.76257 -3.34462 0
M  V30 2037 H 195.915 -2.44753 -4.94773 0
M  V30 2038 H 198.391 -0.717825 -4.09862 0
M  V30 2039 H 197.267 -0.506353 -5.46559 0
M  V30 2040 H 197.528 0.820266 -4.34424 0
M  V30 2041 N 196.587 1.43421 -0.653314 0
M  V30 2042 C 197.864 1.95361 -0.0966581 0
M  V30 2043 C 198.244 1.59461 1.38331 0
M  V30 2044 O 197.592 0.879777 2.10884 0
M  V30 2045 C 197.802 3.47311 -0.342988 0
M  V30 2046 C 199.15 4.23875 -0.24798 0
M  V30 2047 O 200.174 3.55133 -0.275553 0
M  V30 2048 O 199.033 5.4623 -0.171771 0
M  V30 2049 H 196.127 0.826945 0.00956291 0
M  V30 2050 H 198.673 1.5336 -0.726558 0
M  V30 2051 H 197.445 3.66569 -1.36906 0
M  V30 2052 H 197.068 3.9631 0.319975 0
M  V30 2053 N 198.065 0.39524 1.52563 0
M  V30 2054 C 199.305 -0.184744 2.03563 0
M  V30 2055 C 199.669 -1.43548 1.27507 0
M  V30 2056 O 200.87 -2.093 1.68662 0
M  V30 2057 C 199.141 -0.440294 3.54678 0
M  V30 2058 S 200.7 -0.989712 4.27493 0
M  V30 2059 H 197.518 -0.0515075 0.709132 0
M  V30 2060 H 200.12 0.544957 1.87751 0
M  V30 2061 H 198.824 0.477005 4.07618 0
M  V30 2062 H 198.355 -1.19825 3.74707 0
M  V30 2063 H 200.37 -2.27155 4.41152 0
M  V30 2064 N 199.544 -1.57102 0.125237 0
M  V30 2065 C 200.955 -1.82384 -0.399142 0
M  V30 2066 C 201.306 -1.04276 -1.66195 0
M  V30 2067 O 200.431 -0.281269 -2.14564 0
M  V30 2068 C 201.026 -3.30821 -0.730932 0
M  V30 2069 C 199.585 -3.56762 -1.19992 0
M  V30 2070 C 198.732 -2.7649 -0.211792 0
M  V30 2071 H 201.683 -1.54786 0.350277 0
M  V30 2072 H 201.704 -3.4579 -1.58775 0
M  V30 2073 H 201.216 -3.87643 0.188345 0
M  V30 2074 H 199.317 -3.05305 -2.13588 0
M  V30 2075 H 199.43 -4.65317 -1.14093 0
M  V30 2076 H 197.794 -2.4489 -0.700085 0
M  V30 2077 H 198.577 -3.36073 0.700691 0
M  V30 2078 N 201.022 0.148545 -1.56898 0
M  V30 2079 C 202.27 0.859717 -1.82902 0
M  V30 2080 C 202.591 1.81775 -0.70588 0
M  V30 2081 O 201.861 1.93994 0.272586 0
M  V30 2082 H 200.441 0.320469 -0.674766 0
M  V30 2083 H 203.103 0.142918 -1.94375 0
M  V30 2084 H 202.199 1.4229 -2.77777 0
M  V30 2085 N 202.5 1.5196 0.417844 0
M  V30 2086 C 203.45 1.7106 1.5074 0
M  V30 2087 C 204.434 0.564487 1.50673 0
M  V30 2088 O 205.626 0.821206 1.56797 0
M  V30 2089 C 202.755 1.85677 2.88754 0
M  V30 2090 C 201.841 3.06133 2.93502 0
M  V30 2091 N 202.232 4.28987 2.67962 0
M  V30 2092 C 200.53 3.05787 3.24669 0
M  V30 2093 C 201.231 5.10395 2.79055 0
M  V30 2094 N 200.207 4.45455 3.11561 0
M  V30 2095 H 204.009 2.63696 1.29775 0
M  V30 2096 H 201.523 1.49873 0.625436 0
M  V30 2097 H 203.52 1.97475 3.67164 0
M  V30 2098 H 202.18 0.942348 3.10725 0
M  V30 2099 H 203.191 4.57607 2.4252 0
M  V30 2100 H 199.868 2.2405 3.52289 0
M  V30 2101 H 201.258 6.18247 2.63097 0
M  V30 2102 N 203.978 -0.674533 1.42435 0
M  V30 2103 C 205.255 -1.4305 1.33402 0
M  V30 2104 C 205.635 -2.11081 -0.0284674 0
M  V30 2105 O 204.983 -2.03257 -1.04397 0
M  V30 2106 C 205.193 -2.43272 2.50239 0
M  V30 2107 C 206.541 -3.07907 2.92367 0
M  V30 2108 O 207.565 -2.53599 2.50132 0
M  V30 2109 O 206.424 -4.0632 3.65467 0
M  V30 2110 H 203.518 -0.638076 0.526106 0
M  V30 2111 H 206.064 -0.703235 1.54443 0
M  V30 2112 H 204.836 -1.91803 3.41068 0
M  V30 2113 H 204.459 -3.23479 2.31186 0
M  V30 2114 N 205.456 -1.28612 -0.910864 0
M  V30 2115 C 206.705 -1.15311 -1.65488 0
M  V30 2116 C 207.018 0.296999 -1.93332 0
M  V30 2117 O 208.224 0.551168 -2.65847 0
M  V30 2118 C 206.68 -2.01599 -2.98137 0
M  V30 2119 C 206.288 -3.51367 -2.7793 0
M  V30 2120 C 208.032 -1.96993 -3.76024 0
M  V30 2121 C 205.939 -4.29797 -4.06237 0
M  V30 2122 H 204.869 -0.42796 -0.620779 0
M  V30 2123 H 207.52 -1.53166 -1.01057 0
M  V30 2124 H 205.902 -1.56603 -3.63719 0
M  V30 2125 H 207.076 -4.0434 -2.21011 0
M  V30 2126 H 205.391 -3.57529 -2.13452 0
M  V30 2127 H 207.988 -2.52856 -4.71135 0
M  V30 2128 H 208.331 -0.94733 -4.05378 0
M  V30 2129 H 208.864 -2.39973 -3.17266 0
M  V30 2130 H 205.603 -5.32648 -3.82055 0
M  V30 2131 H 205.123 -3.81596 -4.62757 0
M  V30 2132 H 206.802 -4.39869 -4.74473 0
M  V30 2133 N 206.934 1.1197 -1.10907 0
M  V30 2134 C 207.864 2.19928 -0.784473 0
M  V30 2135 C 208.845 1.6833 0.244726 0
M  V30 2136 O 210.03 1.93892 0.109418 0
M  V30 2137 C 207.16 3.46597 -0.220827 0
M  V30 2138 C 206.114 4.11376 -1.18127 0
M  V30 2139 C 205.44 5.32554 -0.478594 0
M  V30 2140 C 206.74 4.56945 -2.52979 0
M  V30 2141 H 208.434 2.47337 -1.68715 0
M  V30 2142 H 205.98 1.18879 -0.812642 0
M  V30 2143 H 207.933 4.21396 0.0184278 0
M  V30 2144 H 206.657 3.1863 0.717113 0
M  V30 2145 H 205.316 3.38564 -1.40606 0
M  V30 2146 H 204.964 5.00856 0.463976 0
M  V30 2147 H 204.664 5.76844 -1.11912 0
M  V30 2148 H 206.188 6.10096 -0.248 0
M  V30 2149 H 207.602 5.23093 -2.3462 0
M  V30 2150 H 205.999 5.1203 -3.12962 0
M  V30 2151 H 207.069 3.70676 -3.12614 0
M  V30 2152 N 208.412 0.89855 1.29475 0
M  V30 2153 C 209.345 0.319981 2.25945 0
M  V30 2154 C 210.323 -0.567189 1.52387 0
M  V30 2155 O 211.507 -0.514254 1.8135 0
M  V30 2156 C 208.634 -0.544013 3.34303 0
M  V30 2157 C 207.68 0.275682 4.25608 0
M  V30 2158 S 208.513 1.67272 5.08704 0
M  V30 2159 C 209.669 0.815621 6.20563 0
M  V30 2160 H 209.902 1.13767 2.74671 0
M  V30 2161 H 207.435 0.69882 1.3768 0
M  V30 2162 H 209.393 -1.03673 3.97193 0
M  V30 2163 H 208.054 -1.33593 2.84274 0
M  V30 2164 H 207.247 -0.384263 5.02533 0
M  V30 2165 H 206.849 0.701496 3.67362 0
M  V30 2166 H 209.141 0.0385042 6.77489 0
M  V30 2167 H 210.084 1.55691 6.90772 0
M  V30 2168 H 210.492 0.370516 5.63283 0
M  V30 2169 N 209.89 -1.43072 0.660911 0
M  V30 2170 C 210.853 -2.29194 -0.0166406 0
M  V30 2171 C 211.853 -1.42609 -0.742912 0
M  V30 2172 O 213.043 -1.64155 -0.583004 0
M  V30 2173 C 210.175 -3.24831 -1.0343 0
M  V30 2174 H 211.368 -2.90596 0.741208 0
M  V30 2175 H 208.921 -1.5048 0.422532 0
M  V30 2176 H 209.656 -2.68339 -1.82111 0
M  V30 2177 H 209.441 -3.88676 -0.517082 0
M  V30 2178 H 210.931 -3.89451 -1.50723 0
M  V30 2179 N 211.368 -0.403325 -1.52352 0
M  V30 2180 C 212.596 0.174012 -2.06167 0
M  V30 2181 C 213.011 1.39347 -1.27388 0
M  V30 2182 O 212.368 1.79597 -0.324201 0
M  V30 2183 C 212.419 0.530223 -3.5759 0
M  V30 2184 O 212.14 -0.640806 -4.33388 0
M  V30 2185 C 213.641 1.16192 -4.27802 0
M  V30 2186 H 210.861 0.0229464 -0.670608 0
M  V30 2187 H 213.405 -0.572604 -1.9632 0
M  V30 2188 H 211.56 1.22673 -3.67464 0
M  V30 2189 H 211.974 -0.344851 -5.23365 0
M  V30 2190 H 213.448 1.36141 -5.34948 0
M  V30 2191 H 213.925 2.13335 -3.83907 0
M  V30 2192 H 214.531 0.505775 -4.22282 0
M  V30 2193 N 212.846 1.57033 -0.133567 0
M  V30 2194 C 213.779 2.11824 0.848872 0
M  V30 2195 C 214.757 1.03833 1.2513 0
M  V30 2196 O 215.941 1.31579 1.34978 0
M  V30 2197 C 213.068 2.62692 2.138 0
M  V30 2198 C 212.114 3.82705 1.88253 0
M  V30 2199 S 212.947 5.2438 1.08563 0
M  V30 2200 C 214.103 5.78627 2.38624 0
M  V30 2201 H 214.336 2.94824 0.38289 0
M  V30 2202 H 211.869 1.5419 0.0804796 0
M  V30 2203 H 213.827 2.92652 2.87863 0
M  V30 2204 H 212.488 1.79847 2.57515 0
M  V30 2205 H 211.681 4.16496 2.83809 0
M  V30 2206 H 211.283 3.53437 1.22305 0
M  V30 2207 H 213.575 5.8924 3.34369 0
M  V30 2208 H 214.518 6.76443 2.09358 0
M  V30 2209 H 214.926 5.06783 2.48658 0
M  V30 2210 N 214.325 -0.140222 1.56975 0
M  V30 2211 C 215.255 -1.17456 2.01808 0
M  V30 2212 C 216.236 -1.44415 0.898794 0
M  V30 2213 O 217.421 -1.5522 1.16707 0
M  V30 2214 C 214.551 -2.50607 2.40444 0
M  V30 2215 C 213.505 -2.38155 3.55621 0
M  V30 2216 C 212.831 -3.76078 3.80091 0
M  V30 2217 C 214.131 -1.85991 4.88062 0
M  V30 2218 H 215.825 -0.801743 2.88466 0
M  V30 2219 H 213.371 -0.38422 1.38779 0
M  V30 2220 H 215.324 -3.23197 2.7041 0
M  V30 2221 H 214.048 -2.89737 1.50732 0
M  V30 2222 H 212.707 -1.68016 3.25832 0
M  V30 2223 H 212.355 -4.12656 2.87618 0
M  V30 2224 H 212.055 -3.68606 4.57606 0
M  V30 2225 H 213.579 -4.50206 4.12488 0
M  V30 2226 H 214.993 -2.4838 5.16701 0
M  V30 2227 H 213.39 -1.89393 5.6943 0
M  V30 2228 H 214.46 -0.816023 4.77984 0
M  V30 2229 N 215.803 -1.52179 -0.40978 0
M  V30 2230 C 216.751 -1.76086 -1.51975 0
M  V30 2231 C 217.745 -0.627964 -1.57331 0
M  V30 2232 O 218.951 -0.809993 -1.60745 0
M  V30 2233 H 215.326 -0.556829 -0.505416 0
M  V30 2234 H 217.297 -2.69077 -1.28996 0
M  V30 2235 C 216.046 -1.92799 -2.8935 0
M  V30 2236 H 215.369 -2.79392 -2.85972 0
M  V30 2237 H 216.809 -2.13527 -3.66309 0
M  V30 2238 C 215.268 -0.694923 -3.29655 0
M  V30 2239 O 215.798 0.13751 -4.01465 0
M  V30 2240 N 214.004 -0.53101 -2.85707 0
M  V30 2241 H 213.551 -1.20952 -2.27439 0
M  V30 2242 H 213.509 0.292718 -3.13034 0
M  V30 2243 N 217.281 0.66697 -1.42791 0
M  V30 2244 C 218.529 1.42417 -1.43394 0
M  V30 2245 C 218.85 1.94925 -0.0542373 0
M  V30 2246 O 218.12 1.73564 0.908415 0
M  V30 2247 H 216.7 0.528515 -0.527902 0
M  V30 2248 H 219.362 0.787562 -1.78279 0
M  V30 2249 H 218.458 2.27333 -2.13837 0
M  V30 2250 N 218.759 1.29093 0.90403 0
M  V30 2251 C 219.722 1.1386 1.98919 0
M  V30 2252 C 220.722 0.0753457 1.60623 0
M  V30 2253 O 221.912 0.321931 1.71199 0
M  V30 2254 C 219.044 0.740198 3.32767 0
M  V30 2255 H 220.237 2.10246 2.13861 0
M  V30 2256 H 217.79 1.12218 1.08797 0
M  V30 2257 H 218.525 -0.223997 3.23525 0
M  V30 2258 H 218.31 1.50838 3.61926 0
M  V30 2259 H 219.8 0.656546 4.12407 0
M  V30 2260 N 220.237 -1.11381 1.11499 0
M  V30 2261 C 221.2 -2.15622 0.777153 0
M  V30 2262 C 222.2 -1.59504 -0.203779 0
M  V30 2263 O 223.39 -1.74188 0.020782 0
M  V30 2264 C 220.522 -3.40556 0.153116 0
M  V30 2265 H 221.715 -2.47021 1.70061 0
M  V30 2266 H 219.268 -1.26577 0.916952 0
M  V30 2267 H 220.003 -3.14767 -0.780536 0
M  V30 2268 H 219.788 -3.8257 0.859238 0
M  V30 2269 H 221.278 -4.17546 -0.0671044 0
M  V30 2270 N 221.715 -0.905404 -1.28997 0
M  V30 2271 C 222.961 -0.535039 -1.95615 0
M  V30 2272 C 223.294 0.917404 -1.71165 0
M  V30 2273 O 222.569 1.65123 -1.02785 0
M  V30 2274 C 222.852 -0.834918 -3.50287 0
M  V30 2275 C 222.705 -2.33948 -3.84172 0
M  V30 2276 C 224.024 -0.325318 -4.38896 0
M  V30 2277 H 221.143 -0.195861 -0.710498 0
M  V30 2278 H 223.785 -1.13313 -1.52513 0
M  V30 2279 H 221.935 -0.325904 -3.87131 0
M  V30 2280 H 223.607 -2.91847 -3.57243 0
M  V30 2281 H 221.85 -2.79789 -3.31513 0
M  V30 2282 H 222.521 -2.49987 -4.92149 0
M  V30 2283 H 224.997 -0.761256 -4.09077 0
M  V30 2284 H 223.873 -0.564295 -5.45992 0
M  V30 2285 H 224.134 0.774144 -4.35269 0
M  V30 2286 N 223.193 1.4272 -0.668489 0
M  V30 2287 C 224.126 2.28111 0.0637898 0
M  V30 2288 C 225.104 1.40705 0.814912 0
M  V30 2289 O 226.288 1.70146 0.81134 0
M  V30 2290 C 223.415 3.20429 1.0974 0
M  V30 2291 C 222.461 4.24197 0.442579 0
M  V30 2292 S 223.294 5.29563 -0.795173 0
M  V30 2293 C 224.45 6.25449 0.237516 0
M  V30 2294 H 224.683 2.8987 -0.660521 0
M  V30 2295 H 222.216 1.47456 -0.457821 0
M  V30 2296 H 224.174 3.74158 1.68868 0
M  V30 2297 H 222.835 2.57818 1.79411 0
M  V30 2298 H 222.028 4.88954 1.22227 0
M  V30 2299 H 221.63 3.73925 -0.0749554 0
M  V30 2300 H 223.922 6.68524 1.09915 0
M  V30 2301 H 224.865 7.07104 -0.375421 0
M  V30 2302 H 225.273 5.61511 0.580167 0
M  V30 2303 N 224.671 0.411399 1.52136 0
M  V30 2304 C 225.948 -0.222308 1.94333 0
M  V30 2305 C 226.328 -1.6242 1.34844 0
M  V30 2306 O 225.676 -2.22384 0.525145 0
M  V30 2307 C 225.886 -0.226345 3.48265 0
M  V30 2308 C 227.234 -0.444592 4.22266 0
M  V30 2309 O 228.258 -0.305602 3.54887 0
M  V30 2310 O 227.117 -0.718749 5.41753 0
M  V30 2311 H 224.211 -0.143907 0.814383 0
M  V30 2312 H 226.757 0.467506 1.63133 0
M  V30 2313 H 225.529 0.75475 3.83952 0
M  V30 2314 H 225.152 -0.960163 3.85832 0
M  V30 2315 N 226.149 -1.5696 0.141893 0
M  V30 2316 C 227.112 -2.15316 -0.785587 0
M  V30 2317 C 228.112 -1.09366 -1.1788 0
M  V30 2318 O 229.302 -1.35031 -1.10056 0
M  V30 2319 C 226.434 -2.71211 -2.06537 0
M  V30 2320 H 227.627 -2.98608 -0.278041 0
M  V30 2321 H 225.18 -1.5593 -0.107519 0
M  V30 2322 H 225.915 -1.91571 -2.6167 0
M  V30 2323 H 225.7 -3.4872 -1.79268 0
M  V30 2324 H 227.19 -3.16189 -2.72789 0
M  V30 2325 N 227.627 0.131896 -1.57047 0
M  V30 2326 C 228.59 1.14638 -1.98471 0
M  V30 2327 C 229.59 1.35029 -0.873148 0
M  V30 2328 O 230.78 1.31764 -1.13946 0
M  V30 2329 C 227.912 2.50358 -2.31373 0
M  V30 2330 H 229.105 0.79064 -2.8929 0
M  V30 2331 H 226.658 0.375761 -1.51716 0
M  V30 2332 H 227.393 2.90876 -1.43393 0
M  V30 2333 H 227.178 2.36915 -3.12432 0
M  V30 2334 H 228.668 3.23395 -2.64207 0
M  V30 2335 N 229.106 1.52395 0.401703 0
M  V30 2336 C 230.036 1.79231 1.49661 0
M  V30 2337 C 231.017 0.643654 1.57452 0
M  V30 2338 O 232.202 0.889989 1.72606 0
M  V30 2339 C 229.332 1.94971 2.87409 0
M  V30 2340 C 228.286 3.10604 2.94465 0
M  V30 2341 C 227.612 3.11577 4.34538 0
M  V30 2342 C 228.912 4.49921 2.6527 0
M  V30 2343 H 230.606 2.70917 1.27454 0
M  V30 2344 H 228.152 1.30362 0.6117 0
M  V30 2345 H 230.105 2.12328 3.63999 0
M  V30 2346 H 228.829 0.999632 3.10926 0
M  V30 2347 H 227.488 2.93009 2.20321 0
M  V30 2348 H 227.136 2.14277 4.55076 0
M  V30 2349 H 226.836 3.89247 4.40183 0
M  V30 2350 H 228.36 3.31073 5.13053 0
M  V30 2351 H 229.774 4.67683 3.31581 0
M  V30 2352 H 228.171 5.29564 2.82281 0
M  V30 2353 H 229.241 4.57507 1.60671 0
M  V30 2354 N 230.584 -0.659388 1.43143 0
M  V30 2355 C 231.514 -1.78422 1.50625 0
M  V30 2356 C 232.495 -1.66216 0.361443 0
M  V30 2357 O 233.68 -1.85404 0.577834 0
M  V30 2358 C 230.81 -3.16815 1.42287 0
M  V30 2359 C 229.764 -3.43777 2.54954 0
M  V30 2360 C 229.09 -4.81905 2.31671 0
M  V30 2361 C 230.39 -3.39134 3.97222 0
M  V30 2362 H 232.084 -1.72417 2.44771 0
M  V30 2363 H 229.63 -0.828084 1.17808 0
M  V30 2364 H 231.583 -3.95253 1.46127 0
M  V30 2365 H 230.307 -3.23534 0.446435 0
M  V30 2366 H 228.966 -2.67707 2.50457 0
M  V30 2367 H 228.614 -4.85294 1.32284 0
M  V30 2368 H 228.314 -5.00906 3.07192 0
M  V30 2369 H 229.838 -5.62609 2.37284 0
M  V30 2370 H 231.252 -4.07518 4.03239 0
M  V30 2371 H 229.649 -3.69671 4.72719 0
M  V30 2372 H 230.719 -2.37426 4.22797 0
M  V30 2373 N 232.062 -1.29571 -0.897171 0
M  V30 2374 C 232.992 -1.17473 -2.01798 0
M  V30 2375 C 233.973 -0.068323 -1.69963 0
M  V30 2376 O 235.158 -0.248239 -1.92607 0
M  V30 2377 C 232.288 -0.853099 -3.36659 0
M  V30 2378 C 231.242 -1.9161 -3.82713 0
M  V30 2379 C 230.568 -1.44773 -5.14728 0
M  V30 2380 C 231.868 -3.32535 -4.02763 0
M  V30 2381 H 233.562 -2.11237 -2.12177 0
M  V30 2382 H 231.108 -1.01699 -1.01948 0
M  V30 2383 H 233.061 -0.755165 -4.14578 0
M  V30 2384 H 231.785 0.120236 -3.26379 0
M  V30 2385 H 230.444 -2.00346 -3.07013 0
M  V30 2386 H 230.092 -0.462995 -5.00865 0
M  V30 2387 H 229.792 -2.15865 -5.46513 0
M  V30 2388 H 231.316 -1.36334 -5.95185 0
M  V30 2389 H 232.73 -3.26626 -4.71156 0
M  V30 2390 H 231.127 -4.01607 -4.45905 0
M  V30 2391 H 232.197 -3.75326 -3.07016 0
M  V30 2392 N 233.54 1.10788 -1.12088 0
M  V30 2393 C 234.789 1.82036 -0.868659 0
M  V30 2394 C 235.102 1.85929 0.607426 0
M  V30 2395 O 236.308 2.53346 0.97613 0
M  V30 2396 C 234.764 3.26951 -1.50435 0
M  V30 2397 C 234.372 3.31367 -3.01496 0
M  V30 2398 C 236.116 4.03053 -1.33225 0
M  V30 2399 C 234.023 4.7072 -3.58017 0
M  V30 2400 H 232.953 0.682108 -0.321318 0
M  V30 2401 H 235.604 1.24618 -1.34694 0
M  V30 2402 H 233.986 3.84343 -0.953735 0
M  V30 2403 H 235.16 2.83819 -3.6302 0
M  V30 2404 H 233.475 2.6875 -3.18061 0
M  V30 2405 H 236.072 5.05981 -1.72878 0
M  V30 2406 H 236.415 4.15387 -0.275529 0
M  V30 2407 H 236.948 3.52066 -1.85188 0
M  V30 2408 H 233.687 4.63585 -4.63432 0
M  V30 2409 H 233.207 5.1865 -3.01268 0
M  V30 2410 H 234.886 5.39685 -3.56859 0
M  V30 2411 N 235.018 0.912232 1.28515 0
M  V30 2412 C 235.981 0.404223 2.25607 0
M  V30 2413 C 236.981 -0.468602 1.53821 0
M  V30 2414 O 238.171 -0.271873 1.72065 0
M  V30 2415 C 235.303 -0.420653 3.38295 0
M  V30 2416 H 236.496 1.26188 2.7206 0
M  V30 2417 H 234.049 0.691495 1.40171 0
M  V30 2418 H 234.784 -1.29777 2.97201 0
M  V30 2419 H 234.569 0.204935 3.91564 0
M  V30 2420 H 236.059 -0.766971 4.10496 0
M  V30 2421 N 236.496 -1.42363 0.676048 0
M  V30 2422 C 237.744 -2.01123 0.198437 0
M  V30 2423 C 238.065 -1.53731 -1.19966 0
M  V30 2424 O 237.335 -0.759518 -1.80577 0
M  V30 2425 H 235.915 -0.743678 0.0703721 0
M  V30 2426 H 238.577 -1.74263 0.872837 0
M  V30 2427 H 237.673 -3.11454 0.200686 0
M  V30 2428 N 237.974 -0.419461 -1.51915 0
M  V30 2429 C 238.922 0.415502 -2.28859 0
M  V30 2430 C 239.916 1.03674 -1.3397 0
M  V30 2431 O 241.122 0.973757 -1.51387 0
M  V30 2432 H 237.497 0.152786 -0.736315 0
M  V30 2433 H 239.468 -0.254531 -2.97312 0
M  V30 2434 C 238.217 1.51425 -3.12995 0
M  V30 2435 H 237.54 1.04556 -3.85886 0
M  V30 2436 H 238.98 2.07208 -3.6992 0
M  V30 2437 C 237.439 2.48745 -2.27217 0
M  V30 2438 O 237.969 3.52871 -1.9195 0
M  V30 2439 N 236.175 2.19202 -1.90785 0
M  V30 2440 H 235.722 1.34556 -2.19664 0
M  V30 2441 H 235.68 2.84561 -1.33687 0
M  V30 2442 N 239.452 1.56882 -0.150215 0
M  V30 2443 C 240.362 2.20494 0.801222 0
M  V30 2444 C 241.378 1.19019 1.26927 0
M  V30 2445 O 242.554 1.51607 1.32579 0
M  V30 2446 C 239.619 2.81659 2.02161 0
M  V30 2447 C 238.68 3.9827 1.60249 0
M  V30 2448 C 237.913 4.56508 2.7647 0
M  V30 2449 O 238.136 4.13627 3.92771 0
M  V30 2450 O 237.07 5.46719 2.51757 0
M  V30 2451 H 240.896 3.02315 0.289717 0
M  V30 2452 H 238.481 1.49202 0.0769684 0
M  V30 2453 H 240.363 3.20522 2.73576 0
M  V30 2454 H 239.038 2.02849 2.52258 0
M  V30 2455 H 237.945 3.64117 0.858477 0
M  V30 2456 H 239.278 4.78609 1.14864 0
M  V30 2457 N 240.93 -0.123565 1.57115 0
M  V30 2458 C 242.155 -0.850398 1.89164 0
M  V30 2459 C 242.58 -1.7286 0.741688 0
M  V30 2460 O 241.938 -1.78665 -0.307958 0
M  V30 2461 C 241.986 -1.66353 3.19936 0
M  V30 2462 O 241.09 -2.77004 3.0552 0
M  V30 2463 H 240.431 -0.235454 0.620852 0
M  V30 2464 H 242.961 -0.107335 2.04318 0
M  V30 2465 H 242.971 -2.05372 3.52543 0
M  V30 2466 H 241.646 -1.01881 4.03228 0
M  V30 2467 H 240.223 -2.41221 2.84371 0
M  V30 2468 N 242.408 -1.52605 -0.393616 0
M  V30 2469 C 243.648 -1.6911 -1.1481 0
M  V30 2470 C 244.012 -0.41969 -1.87357 0
M  V30 2471 O 245.213 -0.461034 -2.64817 0
M  V30 2472 C 243.484 -2.88909 -2.10395 0
M  V30 2473 S 245.043 -3.25977 -2.93742 0
M  V30 2474 H 241.861 -0.595337 -0.38871 0
M  V30 2475 H 244.463 -1.90641 -0.433178 0
M  V30 2476 H 243.167 -3.79672 -1.55812 0
M  V30 2477 H 242.698 -2.69698 -2.86403 0
M  V30 2478 H 244.713 -2.75806 -4.12487 0
M  V30 2479 N 243.887 0.651787 -1.4349 0
M  V30 2480 C 245.298 1.233 -1.40193 0
M  V30 2481 C 245.649 1.9591 -0.106727 0
M  V30 2482 O 244.774 2.01316 0.793773 0
M  V30 2483 C 245.369 2.24257 -2.53957 0
M  V30 2484 C 243.928 2.77852 -2.5392 0
M  V30 2485 C 243.075 1.52517 -2.3159 0
M  V30 2486 H 246.026 0.443717 -1.52371 0
M  V30 2487 H 246.047 3.0646 -2.25528 0
M  V30 2488 H 245.559 1.71382 -3.4821 0
M  V30 2489 H 243.66 3.34786 -1.63551 0
M  V30 2490 H 243.773 3.25299 -3.51735 0
M  V30 2491 H 242.137 1.79915 -1.80285 0
M  V30 2492 H 242.92 1.01574 -3.27929 0
M  V30 2493 N 245.365 1.30045 0.890287 0
M  V30 2494 C 246.297 1.11786 2.00091 0
M  V30 2495 C 247.31 0.0626307 1.62679 0
M  V30 2496 O 248.499 0.308112 1.75821 0
M  V30 2497 C 245.599 0.681527 3.31977 0
M  V30 2498 C 244.772 1.81735 3.97858 0
M  V30 2499 C 243.831 1.37045 5.08041 0
M  V30 2500 O 242.857 2.07677 5.29961 0
M  V30 2501 N 244.059 0.246525 5.79976 0
M  V30 2502 H 246.824 2.07441 2.16306 0
M  V30 2503 H 244.385 1.2211 1.06305 0
M  V30 2504 H 246.377 0.365675 4.03045 0
M  V30 2505 H 244.947 -0.182828 3.12065 0
M  V30 2506 H 244.167 2.30159 3.20032 0
M  V30 2507 H 245.455 2.57865 4.38615 0
M  V30 2508 H 244.853 -0.34215 5.64664 0
M  V30 2509 H 243.41 -0.00990438 6.51799 0
M  V30 2510 N 246.843 -1.10192 1.12674 0
M  V30 2511 C 248.254 -1.63707 0.897604 0
M  V30 2512 C 248.605 -1.87812 -0.567546 0
M  V30 2513 O 247.73 -1.62196 -1.43253 0
M  V30 2514 C 248.325 -2.974 1.62292 0
M  V30 2515 C 246.884 -3.47772 1.43986 0
M  V30 2516 C 246.031 -2.22332 1.65722 0
M  V30 2517 H 248.982 -0.936587 1.28116 0
M  V30 2518 H 249.003 -3.64986 1.07541 0
M  V30 2519 H 248.515 -2.79824 2.68924 0
M  V30 2520 H 246.616 -3.70487 0.396206 0
M  V30 2521 H 246.729 -4.25723 2.19765 0
M  V30 2522 H 245.093 -2.30599 1.08149 0
M  V30 2523 H 245.876 -2.07285 2.73657 0
M  V30 2524 N 248.321 -0.919034 -1.28029 0
M  V30 2525 C 249.253 -0.368762 -2.26214 0
M  V30 2526 C 250.266 0.495716 -1.55069 0
M  V30 2527 O 251.455 0.30974 -1.75792 0
M  V30 2528 C 248.555 0.491049 -3.35324 0
M  V30 2529 C 247.728 -0.352133 -4.3598 0
M  V30 2530 C 246.787 0.443622 -5.24327 0
M  V30 2531 O 245.813 -0.14566 -5.69014 0
M  V30 2532 N 247.015 1.74545 -5.53637 0
M  V30 2533 H 249.78 -1.21273 -2.74068 0
M  V30 2534 H 247.341 -0.785541 -1.41566 0
M  V30 2535 H 249.333 1.03026 -3.91366 0
M  V30 2536 H 247.903 1.23574 -2.87138 0
M  V30 2537 H 247.123 -1.07269 -3.79324 0
M  V30 2538 H 248.411 -0.928883 -5.00249 0
M  V30 2539 H 247.809 2.24666 -5.19174 0
M  V30 2540 H 246.366 2.23138 -6.12416 0
M  V30 2541 N 249.799 1.42003 -0.683588 0
M  V30 2542 C 251.027 2.05746 -0.218182 0
M  V30 2543 C 251.442 1.51396 1.12804 0
M  V30 2544 O 250.799 0.657303 1.70252 0
M  V30 2545 C 250.85 3.61171 -0.154131 0
M  V30 2546 O 250.571 4.13508 -1.44716 0
M  V30 2547 C 252.072 4.42042 0.333713 0
M  V30 2548 H 249.292 0.662888 -0.10402 0
M  V30 2549 H 251.836 1.81987 -0.9328 0
M  V30 2550 H 249.991 3.84012 0.511231 0
M  V30 2551 H 250.405 5.07453 -1.32632 0
M  V30 2552 H 251.879 5.51028 0.327423 0
M  V30 2553 H 252.356 4.17269 1.37053 0
M  V30 2554 H 252.962 4.24239 -0.300222 0
M  V30 2555 N 251.277 0.427512 1.51691 0
M  V30 2556 C 252.502 -0.143601 2.06902 0
M  V30 2557 C 252.927 -1.36536 1.29382 0
M  V30 2558 O 252.285 -1.78289 0.329043 0
M  V30 2559 C 252.333 -0.454207 3.57728 0
M  V30 2560 O 251.437 -1.54228 3.82475 0
M  V30 2561 H 250.778 -0.00617128 0.663971 0
M  V30 2562 H 253.308 0.606014 1.95419 0
M  V30 2563 H 253.318 -0.707525 4.01818 0
M  V30 2564 H 251.993 0.438812 4.13579 0
M  V30 2565 H 250.57 -1.2797 3.50254 0
M  V30 2566 N 252.755 -1.56801 0.158532 0
M  V30 2567 C 253.665 -2.20916 -0.789518 0
M  V30 2568 C 254.681 -1.1969 -1.26294 0
M  V30 2569 O 255.857 -1.52308 -1.31773 0
M  V30 2570 C 252.922 -2.82727 -2.00665 0
M  V30 2571 C 251.983 -3.99114 -1.58134 0
M  V30 2572 C 251.216 -4.57968 -2.74045 0
M  V30 2573 O 251.439 -4.15704 -3.90572 0
M  V30 2574 O 250.373 -5.48047 -2.48855 0
M  V30 2575 H 254.199 -3.02464 -0.273681 0
M  V30 2576 H 251.784 -1.4924 -0.0690548 0
M  V30 2577 H 253.666 -3.21968 -2.71872 0
M  V30 2578 H 252.341 -2.04184 -2.51179 0
M  V30 2579 H 251.248 -3.64567 -0.839155 0
M  V30 2580 H 252.581 -4.79212 -1.12325 0
M  V30 2581 N 254.233 0.115231 -1.57178 0
M  V30 2582 C 255.183 1.14707 -1.97044 0
M  V30 2583 C 256.167 1.36866 -0.845957 0
M  V30 2584 O 257.359 1.37895 -1.10968 0
M  V30 2585 C 254.488 2.47266 -2.38148 0
M  V30 2586 C 253.574 2.28566 -3.57237 0
M  V30 2587 N 253.965 1.79685 -4.72807 0
M  V30 2588 C 252.263 2.59208 -3.62943 0
M  V30 2589 C 252.964 1.74781 -5.54821 0
M  V30 2590 N 251.94 2.19264 -4.97417 0
M  V30 2591 H 255.742 0.761754 -2.83857 0
M  V30 2592 H 253.256 0.322928 -1.59157 0
M  V30 2593 H 255.253 3.219 -2.64927 0
M  V30 2594 H 253.913 2.86552 -1.52702 0
M  V30 2595 H 254.924 1.49177 -4.9595 0
M  V30 2596 H 251.601 3.02154 -2.88113 0
M  V30 2597 H 252.991 1.38212 -6.57531 0
M  V30 2598 N 255.711 1.52812 0.385517 0
M  V30 2599 C 256.641 1.80808 1.47752 0
M  V30 2600 C 257.622 0.660318 1.5676 0
M  V30 2601 O 258.807 0.908246 1.71652 0
M  V30 2602 C 255.937 1.98008 2.85324 0
M  V30 2603 C 254.891 3.13709 2.91154 0
M  V30 2604 C 254.217 3.16169 4.31209 0
M  V30 2605 C 255.517 4.52709 2.60483 0
M  V30 2606 H 257.211 2.72253 1.24573 0
M  V30 2607 H 254.757 1.31003 0.597839 0
M  V30 2608 H 256.71 2.16176 3.61726 0
M  V30 2609 H 255.434 1.03255 3.09848 0
M  V30 2610 H 254.093 2.95329 2.17201 0
M  V30 2611 H 253.741 2.19092 4.52778 0
M  V30 2612 H 253.441 3.93894 4.36029 0
M  V30 2613 H 254.965 3.36496 5.09512 0
M  V30 2614 H 256.379 4.71173 3.26602 0
M  V30 2615 H 254.776 5.32528 2.76648 0
M  V30 2616 H 255.846 4.59186 1.55809 0
M  V30 2617 N 257.189 -0.644168 1.43834 0
M  V30 2618 C 258.152 -1.73857 1.49353 0
M  V30 2619 C 259.152 -1.56315 0.377112 0
M  V30 2620 O 260.342 -1.62048 0.639226 0
M  V30 2621 C 257.474 -3.12819 1.35488 0
M  V30 2622 H 258.667 -1.70342 2.46827 0
M  V30 2623 H 256.22 -0.856652 1.30733 0
M  V30 2624 H 256.955 -3.2194 0.390569 0
M  V30 2625 H 256.74 -3.26958 2.16428 0
M  V30 2626 H 258.23 -3.92606 1.42302 0
M  V30 2627 N 258.668 -1.30515 -0.883378 0
M  V30 2628 C 259.631 -1.1701 -1.97082 0
M  V30 2629 C 260.631 -0.10089 -1.60483 0
M  V30 2630 O 261.821 -0.349127 -1.70666 0
M  V30 2631 C 258.953 -0.793045 -3.31547 0
M  V30 2632 H 260.146 -2.13622 -2.10489 0
M  V30 2633 H 257.699 -1.13935 -1.06998 0
M  V30 2634 H 258.434 0.172499 -3.23841 0
M  V30 2635 H 258.219 -1.56576 -3.5948 0
M  V30 2636 H 259.709 -0.722073 -4.1131 0
M  V30 2637 N 260.146 1.09593 -1.13257 0
M  V30 2638 C 261.395 1.81105 -0.887917 0
M  V30 2639 C 261.708 1.86563 0.587672 0
M  V30 2640 O 262.914 2.54367 0.949204 0
M  V30 2641 C 261.37 3.25338 -1.53895 0
M  V30 2642 C 260.978 3.28151 -3.04994 0
M  V30 2643 C 262.722 4.01617 -1.37492 0
M  V30 2644 C 260.629 4.66897 -3.6299 0
M  V30 2645 H 259.559 0.678661 -0.328534 0
M  V30 2646 H 262.21 1.23183 -1.36008 0
M  V30 2647 H 260.592 3.8331 -0.994446 0
M  V30 2648 H 261.766 2.79953 -3.66009 0
M  V30 2649 H 260.081 2.65361 -3.20893 0
M  V30 2650 H 262.678 5.04119 -1.78235 0
M  V30 2651 H 263.021 4.15072 -0.31957 0
M  V30 2652 H 263.554 3.50082 -1.88912 0
M  V30 2653 H 260.293 4.58643 -4.68323 0
M  V30 2654 H 259.813 5.15426 -3.06752 0
M  V30 2655 H 261.492 5.3587 -3.62563 0
M  V30 2656 N 261.624 0.925811 1.2754 0
M  V30 2657 C 262.534 0.428993 2.30644 0
M  V30 2658 C 263.55 -0.489387 1.66976 0
M  V30 2659 O 264.726 -0.372653 1.97922 0
M  V30 2660 C 261.791 -0.311967 3.45294 0
M  V30 2661 C 260.852 0.641098 4.24486 0
M  V30 2662 C 260.085 -0.0645955 5.33661 0
M  V30 2663 O 260.308 -1.28429 5.55754 0
M  V30 2664 O 259.242 0.606265 5.98839 0
M  V30 2665 H 263.068 1.28504 2.75173 0
M  V30 2666 H 260.653 0.691086 1.32455 0
M  V30 2667 H 262.535 -0.729972 4.15029 0
M  V30 2668 H 261.21 -1.14365 3.02824 0
M  V30 2669 H 260.117 1.10874 3.57292 0
M  V30 2670 H 261.45 1.43995 4.70666 0
M  V30 2671 N 263.102 -1.41638 0.69111 0
M  V30 2672 C 264.351 -2.00526 0.217318 0
M  V30 2673 C 264.664 -1.55353 -1.18848 0
M  V30 2674 O 265.87 -2.06769 -1.75951 0
M  V30 2675 C 264.326 -3.58313 0.337639 0
M  V30 2676 C 263.934 -4.12469 1.74852 0
M  V30 2677 C 265.678 -4.24431 -0.0766066 0
M  V30 2678 C 263.585 -5.62675 1.82074 0
M  V30 2679 H 262.515 -0.750008 0.0774893 0
M  V30 2680 H 265.166 -1.6217 0.858661 0
M  V30 2681 H 263.548 -3.9425 -0.371879 0
M  V30 2682 H 264.722 -3.8796 2.48644 0
M  V30 2683 H 263.037 -3.58861 2.11205 0
M  V30 2684 H 265.634 -5.34683 -0.0430284 0
M  V30 2685 H 265.977 -4.01101 -1.1146 0
M  V30 2686 H 266.51 -3.93512 0.582476 0
M  V30 2687 H 263.249 -5.90826 2.83911 0
M  V30 2688 H 262.769 -5.89124 1.12661 0
M  V30 2689 H 264.448 -6.27371 1.58159 0
M  V30 2690 N 264.58 -0.43555 -1.51462 0
M  V30 2691 C 265.513 0.421989 -2.24264 0
M  V30 2692 C 266.491 1.02619 -1.26127 0
M  V30 2693 O 267.675 1.069 -1.55257 0
M  V30 2694 C 264.802 1.588 -2.99166 0
M  V30 2695 C 263.848 1.10465 -4.11946 0
M  V30 2696 S 264.681 0.048146 -5.35478 0
M  V30 2697 C 265.837 1.21887 -6.13917 0
M  V30 2698 H 266.07 -0.196102 -2.96653 0
M  V30 2699 H 263.603 -0.220054 -1.52824 0
M  V30 2700 H 265.561 2.25647 -3.42919 0
M  V30 2701 H 264.222 2.1775 -2.26371 0
M  V30 2702 H 263.415 1.97654 -4.63626 0
M  V30 2703 H 263.017 0.51445 -3.70445 0
M  V30 2704 H 265.309 2.13756 -6.42895 0
M  V30 2705 H 266.252 0.742076 -7.04201 0
M  V30 2706 H 266.66 1.45663 -5.45383 0
M  V30 2707 N 266.058 1.56714 -0.166846 0
M  V30 2708 C 267.005 2.17746 0.765193 0
M  V30 2709 C 267.975 1.11614 1.23011 0
M  V30 2710 O 269.16 1.39745 1.29908 0
M  V30 2711 C 266.3 2.81882 1.9909 0
M  V30 2712 C 265.413 4.02462 1.56997 0
M  V30 2713 C 264.548 4.54537 2.749 0
M  V30 2714 C 263.587 5.67538 2.29275 0
M  V30 2715 N 262.724 6.14142 3.40255 0
M  V30 2716 H 267.564 2.97048 0.237952 0
M  V30 2717 H 265.101 1.4672 0.105725 0
M  V30 2718 H 267.059 3.17221 2.70974 0
M  V30 2719 H 265.689 2.05191 2.49192 0
M  V30 2720 H 264.741 3.72973 0.748037 0
M  V30 2721 H 266.053 4.84273 1.19503 0
M  V30 2722 H 265.207 4.92035 3.54946 0
M  V30 2723 H 263.946 3.71774 3.1565 0
M  V30 2724 H 262.951 5.29597 1.47674 0
M  V30 2725 H 264.176 6.52099 1.89588 0
M  V30 2726 H 262.122 5.3431 3.8059 0
M  V30 2727 H 262.039 6.9093 3.06841 0
M  V30 2728 H 263.307 6.56289 4.206 0
M  V30 2729 N 267.536 -0.106894 1.57237 0
M  V30 2730 C 268.466 -1.13148 2.04254 0
M  V30 2731 C 269.447 -1.42476 0.929224 0
M  V30 2732 O 270.632 -1.52709 1.19973 0
M  V30 2733 C 267.762 -2.4545 2.45706 0
M  V30 2734 C 266.716 -2.30558 3.60592 0
M  V30 2735 C 266.042 -3.67931 3.87983 0
M  V30 2736 C 267.342 -1.75597 4.91897 0
M  V30 2737 H 269.036 -0.740374 2.90101 0
M  V30 2738 H 266.582 -0.354696 1.39563 0
M  V30 2739 H 268.535 -3.17389 2.77205 0
M  V30 2740 H 267.259 -2.86475 1.56843 0
M  V30 2741 H 265.918 -1.61067 3.29322 0
M  V30 2742 H 265.566 -4.06462 2.96306 0
M  V30 2743 H 265.266 -3.58817 4.65322 0
M  V30 2744 H 266.79 -4.41356 4.21945 0
M  V30 2745 H 268.204 -2.37364 5.21854 0
M  V30 2746 H 266.601 -1.77272 5.73319 0
M  V30 2747 H 267.671 -0.714451 4.79608 0
M  V30 2748 N 269.014 -1.53014 -0.377408 0
M  V30 2749 C 269.961 -1.78616 -1.46168 0
M  V30 2750 C 270.931 -0.629917 -1.53692 0
M  V30 2751 O 272.116 -0.870861 -1.69766 0
M  V30 2752 C 269.256 -1.97123 -2.8326 0
M  V30 2753 C 268.369 -3.24831 -2.84796 0
M  V30 2754 C 267.504 -3.33591 -4.13389 0
M  V30 2755 C 266.543 -4.55377 -4.09021 0
M  V30 2756 N 265.68 -4.61355 -5.29241 0
M  V30 2757 H 270.52 -2.71142 -1.23637 0
M  V30 2758 H 268.057 -1.34326 -0.599577 0
M  V30 2759 H 270.015 -2.05839 -3.62886 0
M  V30 2760 H 268.645 -1.07946 -3.04216 0
M  V30 2761 H 267.697 -3.25128 -1.97474 0
M  V30 2762 H 269.009 -4.14523 -2.77439 0
M  V30 2763 H 268.163 -3.41554 -5.01424 0
M  V30 2764 H 266.902 -2.41894 -4.23484 0
M  V30 2765 H 265.907 -4.47527 -3.19373 0
M  V30 2766 H 267.132 -5.48402 -4.00539 0
M  V30 2767 H 265.078 -3.72554 -5.39944 0
M  V30 2768 H 264.995 -5.44935 -5.24006 0
M  V30 2769 H 266.263 -4.73586 -6.19141 0
M  V30 2770 N 270.492 0.636531 -1.44174 0
M  V30 2771 C 271.442 1.74233 -1.47061 0
M  V30 2772 C 272.426 1.57331 -0.337034 0
M  V30 2773 O 273.618 1.67159 -0.581973 0
M  V30 2774 C 270.747 3.12897 -1.41246 0
M  V30 2775 C 269.833 3.35288 -2.59698 0
M  V30 2776 N 270.224 3.2807 -3.84972 0
M  V30 2777 C 268.522 3.66065 -2.54778 0
M  V30 2778 C 269.223 3.51001 -4.63867 0
M  V30 2779 N 268.199 3.73616 -3.94857 0
M  V30 2780 H 272.001 1.67103 -2.41773 0
M  V30 2781 H 269.515 0.838806 -1.3906 0
M  V30 2782 H 271.512 3.92189 -1.41398 0
M  V30 2783 H 270.172 3.21197 -0.47569 0
M  V30 2784 H 271.183 3.07109 -4.17019 0
M  V30 2785 H 267.86 3.81379 -1.6987 0
M  V30 2786 H 269.25 3.51059 -5.72894 0
M  V30 2787 N 271.97 1.30982 0.876444 0
M  V30 2788 C 273.219 1.19658 1.62373 0
M  V30 2789 C 273.532 -0.245636 1.94052 0
M  V30 2790 O 274.738 -0.48049 2.67214 0
M  V30 2791 C 273.194 2.09433 2.92687 0
M  V30 2792 C 272.802 3.58613 2.68516 0
M  V30 2793 C 274.546 2.06893 3.70669 0
M  V30 2794 C 272.453 4.40416 3.94699 0
M  V30 2795 H 271.383 0.444268 0.609214 0
M  V30 2796 H 274.034 1.55791 0.969605 0
M  V30 2797 H 272.416 1.66191 3.59439 0
M  V30 2798 H 273.59 4.10058 2.10212 0
M  V30 2799 H 271.905 3.63063 2.03898 0
M  V30 2800 H 274.502 2.65258 4.64265 0
M  V30 2801 H 274.845 1.05448 4.02724 0
M  V30 2802 H 275.378 2.48301 3.10792 0
M  V30 2803 H 272.117 5.42591 3.67798 0
M  V30 2804 H 271.637 3.93731 4.52477 0
M  V30 2805 H 273.316 4.52294 4.62644 0
M  V30 2806 N 273.449 -1.08991 1.13837 0
M  V30 2807 C 274.379 -2.17771 0.842507 0
M  V30 2808 C 275.36 -1.6892 -0.20001 0
M  V30 2809 O 276.545 -1.94113 -0.0579731 0
M  V30 2810 C 273.675 -3.4589 0.312644 0
M  V30 2811 C 272.629 -4.08099 1.28992 0
M  V30 2812 C 271.955 -5.31098 0.619623 0
M  V30 2813 C 273.255 -4.50077 2.65005 0
M  V30 2814 H 274.949 -2.42777 1.75213 0
M  V30 2815 H 272.495 -1.16682 0.843875 0
M  V30 2816 H 274.448 -4.21297 0.0933043 0
M  V30 2817 H 273.172 -3.20419 -0.632382 0
M  V30 2818 H 271.831 -3.34717 1.49533 0
M  V30 2819 H 271.479 -5.0191 -0.33102 0
M  V30 2820 H 271.179 -5.73674 1.27167 0
M  V30 2821 H 272.703 -6.09224 0.409669 0
M  V30 2822 H 274.117 -5.16688 2.48407 0
M  V30 2823 H 272.514 -5.03553 3.26427 0
M  V30 2824 H 273.584 -3.62257 3.22332 0
M  V30 2825 N 274.927 -0.932562 -1.27047 0
M  V30 2826 C 276.176 -0.571351 -1.93439 0
M  V30 2827 C 276.489 0.892467 -1.74053 0
M  V30 2828 O 277.695 1.36267 -2.34826 0
M  V30 2829 C 276.151 -0.97106 -3.46552 0
M  V30 2830 C 275.759 -2.4559 -3.74686 0
M  V30 2831 C 277.503 -0.681333 -4.18997 0
M  V30 2832 C 275.41 -2.79475 -5.21198 0
M  V30 2833 H 274.34 -0.209966 -0.724176 0
M  V30 2834 H 276.991 -1.13403 -1.44263 0
M  V30 2835 H 275.373 -0.336983 -3.94564 0
M  V30 2836 H 276.547 -3.13829 -3.37414 0
M  V30 2837 H 274.862 -2.71802 -3.15456 0
M  V30 2838 H 277.459 -0.910939 -5.26883 0
M  V30 2839 H 277.802 0.381628 -4.14547 0
M  V30 2840 H 278.335 -1.27473 -3.76823 0
M  V30 2841 H 275.074 -3.847 -5.30741 0
M  V30 2842 H 274.594 -2.1589 -5.596 0
M  V30 2843 H 276.273 -2.67478 -5.89122 0
M  V30 2844 N 276.405 1.4127 -0.698611 0
M  V30 2845 C 277.335 2.33447 -0.049629 0
M  V30 2846 C 278.316 1.51982 0.763898 0
M  V30 2847 O 279.501 1.80509 0.716257 0
M  V30 2848 C 276.631 3.35828 0.885267 0
M  V30 2849 C 275.585 4.27627 0.178613 0
M  V30 2850 C 274.911 5.20406 1.22807 0
M  V30 2851 C 276.211 5.13459 -0.956933 0
M  V30 2852 H 277.905 2.87966 -0.81951 0
M  V30 2853 H 275.451 1.38461 -0.395538 0
M  V30 2854 H 277.404 3.9924 1.34854 0
M  V30 2855 H 276.128 2.79666 1.68685 0
M  V30 2856 H 274.787 3.65643 -0.26466 0
M  V30 2857 H 274.435 4.60558 2.02226 0
M  V30 2858 H 274.135 5.82661 0.760239 0
M  V30 2859 H 275.659 5.86695 1.69179 0
M  V30 2860 H 277.073 5.70421 -0.573805 0
M  V30 2861 H 275.47 5.8467 -1.35205 0
M  V30 2862 H 276.54 4.50443 -1.79524 0
M  V30 2863 N 277.883 0.443576 1.51229 0
M  V30 2864 C 278.815 -0.400608 2.25672 0
M  V30 2865 C 279.828 -0.980945 1.29928 0
M  V30 2866 O 281.017 -0.874024 1.55638 0
M  V30 2867 C 278.117 -1.57304 3.00181 0
M  V30 2868 C 277.29 -1.11046 4.23069 0
M  V30 2869 C 276.349 -2.15374 4.80105 0
M  V30 2870 O 275.375 -1.74554 5.41774 0
M  V30 2871 N 276.577 -3.47922 4.64683 0
M  V30 2872 H 279.342 0.23745 2.98758 0
M  V30 2873 H 276.903 0.272809 1.59585 0
M  V30 2874 H 278.895 -2.26733 3.35223 0
M  V30 2875 H 277.465 -2.11632 2.30066 0
M  V30 2876 H 276.685 -0.243019 3.9345 0
M  V30 2877 H 277.973 -0.778888 5.02803 0
M  V30 2878 H 277.371 -3.83815 4.15575 0
M  V30 2879 H 275.928 -4.13228 5.0407 0
M  V30 2880 N 279.361 -1.56624 0.175154 0
M  V30 2881 C 280.309 -2.19468 -0.770495 0
M  V30 2882 C 281.303 -1.15985 -1.23466 0
M  V30 2883 O 282.509 -1.34176 -1.19987 0
M  V30 2884 H 278.884 -0.703095 -0.266761 0
M  V30 2885 H 280.855 -2.97613 -0.216542 0
M  V30 2886 C 279.604 -2.85264 -1.98796 0
M  V30 2887 H 278.927 -3.64623 -1.63983 0
M  V30 2888 H 280.367 -3.327 -2.62843 0
M  V30 2889 C 278.826 -1.85239 -2.81404 0
M  V30 2890 O 279.356 -1.34024 -3.78682 0
M  V30 2891 N 277.562 -1.53911 -2.46495 0
M  V30 2892 H 277.109 -1.95751 -1.67449 0
M  V30 2893 H 277.067 -0.872382 -3.02054 0
M  V30 2894 N 280.839 0.0985539 -1.57292 0
M  V30 2895 C 281.786 1.11981 -2.01814 0
M  V30 2896 C 282.756 1.39999 -0.89384 0
M  V30 2897 O 283.941 1.5152 -1.15958 0
M  V30 2898 C 281.081 2.43577 -2.44467 0
M  V30 2899 C 280.194 2.2232 -3.70402 0
M  V30 2900 C 279.329 3.4729 -4.01949 0
M  V30 2901 C 278.368 3.2128 -5.21005 0
M  V30 2902 N 277.505 4.38507 -5.48321 0
M  V30 2903 H 282.345 0.733149 -2.88841 0
M  V30 2904 H 279.882 0.350482 -1.42864 0
M  V30 2905 H 281.84 3.20373 -2.6724 0
M  V30 2906 H 280.47 2.80097 -1.60455 0
M  V30 2907 H 279.522 1.36343 -3.55126 0
M  V30 2908 H 280.834 1.99089 -4.57345 0
M  V30 2909 H 279.988 4.32495 -4.25479 0
M  V30 2910 H 278.727 3.73572 -3.13521 0
M  V30 2911 H 277.732 2.34468 -4.97298 0
M  V30 2912 H 278.957 2.96348 -6.11028 0
M  V30 2913 H 276.903 4.64871 -4.62851 0
M  V30 2914 H 276.82 4.18455 -6.29628 0
M  V30 2915 H 278.088 5.24787 -5.76385 0
M  V30 2916 N 282.317 1.53212 0.369288 0
M  V30 2917 C 283.566 1.68436 1.10961 0
M  V30 2918 C 283.879 0.440738 1.9057 0
M  V30 2919 O 285.085 0.473446 2.6734 0
M  V30 2920 C 283.541 2.97744 2.0218 0
M  V30 2921 C 283.149 4.29355 1.279 0
M  V30 2922 C 284.893 3.22334 2.76226 0
M  V30 2923 C 282.8 5.49755 2.17999 0
M  V30 2924 H 281.73 0.627568 0.41794 0
M  V30 2925 H 284.381 1.79713 0.370884 0
M  V30 2926 H 282.763 2.8026 2.79768 0
M  V30 2927 H 283.937 4.57458 0.554007 0
M  V30 2928 H 282.252 4.11179 0.657311 0
M  V30 2929 H 284.849 4.09471 3.43857 0
M  V30 2930 H 285.192 2.38238 3.41392 0
M  V30 2931 H 285.725 3.40475 2.05723 0
M  V30 2932 H 282.464 6.36318 1.57417 0
M  V30 2933 H 281.984 5.25937 2.88359 0
M  V30 2934 H 283.663 5.84401 2.77641 0
M  V30 2935 N 283.795 -0.628877 1.44509 0
M  V30 2936 C 285.072 -1.38733 1.37886 0
M  V30 2937 C 285.452 -2.11065 0.0387008 0
M  V30 2938 O 284.8 -2.06476 -0.97878 0
M  V30 2939 C 285.01 -2.35188 2.57852 0
M  V30 2940 C 286.358 -2.9845 3.02014 0
M  V30 2941 O 287.382 -2.45513 2.58073 0
M  V30 2942 O 286.241 -3.94487 3.78209 0
M  V30 2943 H 283.335 -0.621015 0.54614 0
M  V30 2944 H 285.881 -0.653744 1.56602 0
M  V30 2945 H 284.653 -1.80855 3.46998 0
M  V30 2946 H 284.276 -3.1596 2.4136 0
M  V30 2947 N 285.273 -1.31445 -0.869486 0
M  V30 2948 C 286.203 -1.21727 -1.99261 0
M  V30 2949 C 287.184 -0.104359 -1.6978 0
M  V30 2950 O 288.369 -0.289038 -1.92037 0
M  V30 2951 C 285.499 -0.924317 -3.34774 0
M  V30 2952 C 284.453 -1.99685 -3.78563 0
M  V30 2953 C 283.779 -1.55658 -5.11541 0
M  V30 2954 C 285.079 -3.41003 -3.95619 0
M  V30 2955 H 286.773 -2.1569 -2.07649 0
M  V30 2956 H 284.319 -1.03839 -0.997675 0
M  V30 2957 H 286.272 -0.842934 -4.12883 0
M  V30 2958 H 284.996 0.0509793 -3.2656 0
M  V30 2959 H 283.655 -2.06813 -3.02694 0
M  V30 2960 H 283.303 -0.569132 -4.9977 0
M  V30 2961 H 283.003 -2.27409 -5.41811 0
M  V30 2962 H 284.527 -1.48928 -5.92159 0
M  V30 2963 H 285.941 -3.36547 -4.64122 0
M  V30 2964 H 284.338 -4.10975 -4.37286 0
M  V30 2965 H 285.408 -3.81754 -2.98985 0
M  V30 2966 N 286.751 1.08385 -1.14413 0
M  V30 2967 C 287.997 1.81044 -0.913834 0
M  V30 2968 C 288.33 1.86004 0.558209 0
M  V30 2969 O 287.605 1.33606 1.4135 0
M  V30 2970 C 287.888 3.26648 -1.51569 0
M  V30 2971 C 287.741 3.29895 -3.0576 0
M  V30 2972 C 289.06 4.23629 -1.19273 0
M  V30 2973 H 286.179 0.65727 -0.333414 0
M  V30 2974 H 288.821 1.26896 -1.41412 0
M  V30 2975 H 286.971 3.72889 -1.09023 0
M  V30 2976 H 288.643 2.91977 -3.57137 0
M  V30 2977 H 286.886 2.69163 -3.40197 0
M  V30 2978 H 287.557 4.32516 -3.42977 0
M  V30 2979 H 290.033 3.85727 -1.56057 0
M  V30 2980 H 288.909 5.23822 -1.64017 0
M  V30 2981 H 289.17 4.41968 -0.108068 0
M  V30 2982 N 288.23 0.939286 1.26551 0
M  V30 2983 C 289.177 0.446088 2.26448 0
M  V30 2984 C 290.147 -0.493234 1.58608 0
M  V30 2985 O 291.332 -0.409857 1.86346 0
M  V30 2986 C 288.472 -0.284375 3.43926 0
M  V30 2987 C 287.585 0.690399 4.26448 0
M  V30 2988 C 286.72 -0.0610712 5.31165 0
M  V30 2989 C 285.759 0.905649 6.05363 0
M  V30 2990 N 284.896 0.186055 7.01853 0
M  V30 2991 H 289.736 1.30291 2.68008 0
M  V30 2992 H 287.273 0.65371 1.31776 0
M  V30 2993 H 289.231 -0.724313 4.10864 0
M  V30 2994 H 287.861 -1.10535 3.03285 0
M  V30 2995 H 286.913 1.24885 3.59316 0
M  V30 2996 H 288.225 1.42873 4.779 0
M  V30 2997 H 287.379 -0.56038 6.04106 0
M  V30 2998 H 286.118 -0.832297 4.80546 0
M  V30 2999 H 285.123 1.4161 5.3125 0
M  V30 3000 H 286.348 1.67685 6.58072 0
M  V30 3001 H 284.294 -0.566714 6.53548 0
M  V30 3002 H 284.211 0.863752 7.51049 0
M  V30 3003 H 285.479 -0.292221 7.78952 0
M  V30 3004 N 289.708 -1.40897 0.706093 0
M  V30 3005 C 290.618 -2.3455 0.0482286 0
M  V30 3006 C 291.634 -1.56796 -0.754396 0
M  V30 3007 O 292.81 -1.89228 -0.689538 0
M  V30 3008 C 289.875 -3.35625 -0.869303 0
M  V30 3009 C 288.936 -4.29261 -0.0576994 0
M  V30 3010 C 288.169 -5.25508 -0.931531 0
M  V30 3011 O 288.392 -5.27472 -2.17092 0
M  V30 3012 O 287.326 -6.00727 -0.375587 0
M  V30 3013 H 291.152 -2.92407 0.820476 0
M  V30 3014 H 288.737 -1.4193 0.4665 0
M  V30 3015 H 290.619 -3.97635 -1.39514 0
M  V30 3016 H 289.294 -2.80196 -1.62086 0
M  V30 3017 H 288.201 -3.70566 0.512988 0
M  V30 3018 H 289.534 -4.87817 0.655426 0
M  V30 3019 N 291.186 -0.45159 -1.50991 0
M  V30 3020 C 292.411 0.110667 -2.07105 0
M  V30 3021 C 292.836 1.3446 -1.31538 0
M  V30 3022 O 292.194 1.77743 -0.357365 0
M  V30 3023 C 292.242 0.397238 -3.58405 0
M  V30 3024 O 291.346 1.48124 -3.84881 0
M  V30 3025 H 290.687 -0.00439271 -0.663985 0
M  V30 3026 H 293.217 -0.637026 -1.9443 0
M  V30 3027 H 293.227 0.64351 -4.02893 0
M  V30 3028 H 291.902 -0.504553 -4.12828 0
M  V30 3029 H 290.479 1.22381 -3.52246 0
M  V30 3030 N 292.664 1.56529 -0.183458 0
M  V30 3031 C 293.596 2.15747 0.773697 0
M  V30 3032 C 294.609 1.1162 1.1851 0
M  V30 3033 O 295.798 1.3876 1.12285 0
M  V30 3034 C 292.898 2.6952 2.05456 0
M  V30 3035 C 292.071 3.98429 1.8048 0
M  V30 3036 C 291.13 4.37145 2.92901 0
M  V30 3037 O 290.156 5.04791 2.6301 0
M  V30 3038 N 291.358 3.99695 4.2098 0
M  V30 3039 H 294.123 2.98505 0.26736 0
M  V30 3040 H 291.684 1.619 -0.0010878 0
M  V30 3041 H 293.676 2.92412 2.79781 0
M  V30 3042 H 292.246 1.91282 2.47245 0
M  V30 3043 H 291.466 3.8379 0.899947 0
M  V30 3044 H 292.754 4.82597 1.61175 0
M  V30 3045 H 292.152 3.4526 4.48121 0
M  V30 3046 H 290.709 4.27562 4.9197 0
M  V30 3047 N 294.142 -0.090211 1.57342 0
M  V30 3048 C 295.105 -1.09335 2.01441 0
M  V30 3049 C 296.105 -1.32666 0.908641 0
M  V30 3050 O 297.295 -1.28697 1.174 0
M  V30 3051 C 294.427 -2.44136 2.3793 0
M  V30 3052 H 295.62 -0.713662 2.91285 0
M  V30 3053 H 293.173 -0.335404 1.52659 0
M  V30 3054 H 293.908 -2.86972 1.51055 0
M  V30 3055 H 293.693 -2.28548 3.18603 0
M  V30 3056 H 295.183 -3.16277 2.72688 0
M  V30 3057 N 295.62 -1.53406 -0.361157 0
M  V30 3058 C 296.567 -1.80156 -1.44265 0
M  V30 3059 C 297.537 -0.646183 -1.53015 0
M  V30 3060 O 298.722 -0.888818 -1.68833 0
M  V30 3061 C 295.862 -2.00116 -2.81154 0
M  V30 3062 C 294.975 -3.27833 -2.81335 0
M  V30 3063 C 294.11 -3.37957 -4.09828 0
M  V30 3064 C 293.149 -4.59689 -4.04168 0
M  V30 3065 N 292.286 -4.66942 -5.24318 0
M  V30 3066 H 297.126 -2.72438 -1.20754 0
M  V30 3067 H 294.663 -1.34954 -0.585296 0
M  V30 3068 H 296.621 -2.09677 -3.60682 0
M  V30 3069 H 295.251 -1.11167 -3.03054 0
M  V30 3070 H 294.303 -3.27204 -1.94014 0
M  V30 3071 H 295.615 -4.17442 -2.73027 0
M  V30 3072 H 294.769 -3.46853 -4.97773 0
M  V30 3073 H 293.508 -2.46372 -4.20894 0
M  V30 3074 H 292.513 -4.50889 -3.14609 0
M  V30 3075 H 293.738 -5.5262 -3.947 0
M  V30 3076 H 291.684 -3.7826 -5.35962 0
M  V30 3077 H 291.601 -5.50462 -5.18197 0
M  V30 3078 H 292.869 -4.80127 -6.14084 0
M  V30 3079 N 297.098 0.621204 -1.44841 0
M  V30 3080 C 298.008 1.7612 -1.5498 0
M  V30 3081 C 299.024 1.68477 -0.434927 0
M  V30 3082 O 300.2 1.89076 -0.693693 0
M  V30 3083 C 297.265 3.1254 -1.50065 0
M  V30 3084 C 296.326 3.31741 -2.72482 0
M  V30 3085 C 295.559 4.61653 -2.67792 0
M  V30 3086 O 295.782 5.431 -1.74352 0
M  V30 3087 O 294.716 4.83271 -3.58794 0
M  V30 3088 H 298.542 1.70518 -2.51311 0
M  V30 3089 H 296.127 0.783643 -1.27198 0
M  V30 3090 H 298.009 3.93844 -1.49882 0
M  V30 3091 H 296.684 3.18663 -0.568806 0
M  V30 3092 H 295.591 2.50077 -2.7823 0
M  V30 3093 H 296.924 3.30486 -3.64746 0
M  V30 3094 N 298.576 1.31904 0.862503 0
M  V30 3095 C 299.508 1.16005 1.97675 0
M  V30 3096 C 300.521 0.0971234 1.6251 0
M  V30 3097 O 301.71 0.345337 1.75128 0
M  V30 3098 C 298.81 0.751791 3.30456 0
M  V30 3099 C 297.983 1.90133 3.93914 0
M  V30 3100 C 297.042 1.4779 5.05019 0
M  V30 3101 O 296.068 2.18872 5.25437 0
M  V30 3102 N 297.27 0.369491 5.79323 0
M  V30 3103 H 300.035 2.11982 2.11857 0
M  V30 3104 H 297.596 1.24337 1.03691 0
M  V30 3105 H 299.588 0.451084 4.02178 0
M  V30 3106 H 298.158 -0.116593 3.12382 0
M  V30 3107 H 297.378 2.36896 3.15078 0
M  V30 3108 H 298.666 2.67111 4.33047 0
M  V30 3109 H 298.064 -0.222299 5.65263 0
M  V30 3110 H 296.621 0.128354 6.51674 0
M  V30 3111 N 300.054 -1.07777 1.14986 0
M  V30 3112 C 301.284 -1.83752 0.944402 0
M  V30 3113 C 301.692 -1.8218 -0.51058 0
M  V30 3114 O 301.035 -1.22852 -1.36576 0
M  V30 3115 C 301.097 -3.32128 1.37592 0
M  V30 3116 C 300.761 -3.57425 2.84775 0
M  V30 3117 C 301.758 -3.5173 3.8286 0
M  V30 3118 C 299.443 -3.8523 3.2234 0
M  V30 3119 C 301.437 -3.73482 5.16517 0
M  V30 3120 C 299.124 -4.06634 4.56171 0
M  V30 3121 C 300.122 -4.00754 5.53069 0
M  V30 3122 O 299.81 -4.2159 6.84483 0
M  V30 3123 H 299.542 -0.58673 0.335744 0
M  V30 3124 H 302.096 -1.36982 1.53052 0
M  V30 3125 H 300.326 -3.79686 0.733165 0
M  V30 3126 H 302.015 -3.89555 1.14024 0
M  V30 3127 H 302.781 -3.30256 3.55184 0
M  V30 3128 H 298.66 -3.88923 2.47508 0
M  V30 3129 H 302.204 -3.68808 5.92137 0
M  V30 3130 H 298.101 -4.27593 4.83564 0
M  V30 3131 H 298.869 -4.38961 6.90837 0
M  V30 3132 N 301.532 -0.945985 -1.26051 0
M  V30 3133 C 302.442 -0.465633 -2.29933 0
M  V30 3134 C 303.458 0.462761 -1.67733 0
M  V30 3135 O 304.634 0.341118 -1.9849 0
M  V30 3136 C 301.699 0.256994 -3.45746 0
M  V30 3137 C 300.76 -0.708549 -4.23412 0
M  V30 3138 C 299.993 -0.0203135 -5.33696 0
M  V30 3139 O 300.216 1.19571 -5.57726 0
M  V30 3140 O 299.15 -0.701459 -5.97799 0
M  V30 3141 H 302.976 -1.32866 -2.73094 0
M  V30 3142 H 300.561 -0.712071 -1.31339 0
M  V30 3143 H 302.443 0.663852 -4.16138 0
M  V30 3144 H 301.118 1.09533 -3.04605 0
M  V30 3145 H 300.025 -1.16545 -3.55483 0
M  V30 3146 H 301.358 -1.51465 -4.68315 0
M  V30 3147 N 303.011 1.40521 -0.713556 0
M  V30 3148 C 303.943 2.29191 -0.0203126 0
M  V30 3149 C 304.956 1.45723 0.725864 0
M  V30 3150 O 306.145 1.69033 0.573581 0
M  V30 3151 C 303.245 3.2395 0.995486 0
M  V30 3152 C 302.418 4.36262 0.315256 0
M  V30 3153 C 301.477 5.11474 1.23616 0
M  V30 3154 O 300.503 5.64606 0.721719 0
M  V30 3155 N 301.705 5.20638 2.56743 0
M  V30 3156 H 304.47 2.89327 -0.781652 0
M  V30 3157 H 302.031 1.51869 -0.561022 0
M  V30 3158 H 304.023 3.71137 1.61368 0
M  V30 3159 H 302.593 2.64995 1.6582 0
M  V30 3160 H 301.813 3.91228 -0.483106 0
M  V30 3161 H 303.101 5.08558 -0.157004 0
M  V30 3162 H 302.499 4.7895 3.01037 0
M  V30 3163 H 301.056 5.71339 3.13712 0
M  V30 3164 N 304.489 0.459591 1.5075 0
M  V30 3165 C 305.738 -0.100971 2.01447 0
M  V30 3166 C 306.051 -1.41816 1.34713 0
M  V30 3167 O 307.257 -2.06299 1.76502 0
M  V30 3168 C 305.713 -0.23047 3.59161 0
M  V30 3169 C 305.321 1.0776 4.34847 0
M  V30 3170 C 307.065 -0.743608 4.17936 0
M  V30 3171 C 304.972 0.91253 5.84317 0
M  V30 3172 H 303.902 -0.0415102 0.752856 0
M  V30 3173 H 306.553 0.592742 1.73663 0
M  V30 3174 H 304.935 -0.987703 3.83485 0
M  V30 3175 H 306.109 1.8449 4.22256 0
M  V30 3176 H 304.424 1.52097 3.87628 0
M  V30 3177 H 307.021 -0.883959 5.27343 0
M  V30 3178 H 307.364 -1.73196 3.78562 0
M  V30 3179 H 307.897 -0.04408 3.97776 0
M  V30 3180 H 304.636 1.87391 6.28144 0
M  V30 3181 H 304.156 0.185422 5.99513 0
M  V30 3182 H 305.835 0.574547 6.44444 0
M  V30 3183 N 305.967 -1.56429 0.191757 0
M  V30 3184 C 306.897 -2.21937 -0.725696 0
M  V30 3185 C 307.878 -1.1814 -1.2238 0
M  V30 3186 O 309.063 -1.46636 -1.27325 0
M  V30 3187 C 306.193 -2.87611 -1.94672 0
M  V30 3188 C 305.147 -3.97623 -1.58366 0
M  V30 3189 C 304.473 -4.50446 -2.88102 0
M  V30 3190 C 305.773 -5.16197 -0.796133 0
M  V30 3191 H 307.467 -2.98861 -0.179606 0
M  V30 3192 H 305.013 -1.43749 -0.0849464 0
M  V30 3193 H 306.966 -3.3212 -2.59373 0
M  V30 3194 H 305.69 -2.08087 -2.51728 0
M  V30 3195 H 304.349 -3.53801 -0.960247 0
M  V30 3196 H 303.997 -3.67688 -3.43241 0
M  V30 3197 H 303.697 -5.24675 -2.64556 0
M  V30 3198 H 305.221 -4.97654 -3.53798 0
M  V30 3199 H 306.635 -5.57271 -1.34618 0
M  V30 3200 H 305.032 -5.96471 -0.658928 0
M  V30 3201 H 306.102 -4.84473 0.203478 0
M  V30 3202 N 307.445 0.0818655 -1.57387 0
M  V30 3203 C 308.408 1.08265 -2.02018 0
M  V30 3204 C 309.408 1.32183 -0.915664 0
M  V30 3205 O 310.598 1.28073 -1.18081 0
M  V30 3206 C 307.73 2.42871 -2.39221 0
M  V30 3207 H 308.923 0.698204 -2.91659 0
M  V30 3208 H 306.476 0.327303 -1.52835 0
M  V30 3209 H 307.211 2.86167 -1.52575 0
M  V30 3210 H 306.996 2.26855 -3.19811 0
M  V30 3211 H 308.486 3.14826 -2.74362 0
M  V30 3212 N 308.923 1.53595 0.353017 0
M  V30 3213 C 310.17 1.70385 1.09431 0
M  V30 3214 C 310.498 0.462113 1.88931 0
M  V30 3215 O 309.753 -0.556074 1.87633 0
M  V30 3216 C 310.052 2.91313 2.07054 0
M  V30 3217 C 309.718 4.27308 1.43939 0
M  V30 3218 C 308.38 4.64287 1.26454 0
M  V30 3219 C 310.732 5.11829 0.983883 0
M  V30 3220 C 308.06 5.83412 0.620226 0
M  V30 3221 C 310.412 6.31611 0.353516 0
M  V30 3222 C 309.076 6.67293 0.166272 0
M  V30 3223 H 308.346 0.623484 0.400436 0
M  V30 3224 H 310.993 1.87799 0.374655 0
M  V30 3225 H 309.298 2.68463 2.85368 0
M  V30 3226 H 310.995 3.01497 2.64387 0
M  V30 3227 H 307.585 3.98198 1.58543 0
M  V30 3228 H 311.769 4.838 1.10685 0
M  V30 3229 H 307.025 6.09639 0.463681 0
M  V30 3230 H 311.199 6.964 -0.00757555 0
M  V30 3231 H 308.826 7.59461 -0.335047 0
M  V30 3232 N 310.401 -0.613514 1.45168 0
M  V30 3233 C 311.647 -1.37471 1.49096 0
M  V30 3234 C 311.98 -1.93765 0.129901 0
M  V30 3235 O 311.255 -1.74707 -0.854858 0
M  V30 3236 C 311.538 -2.52701 2.56542 0
M  V30 3237 C 311.391 -2.01643 4.0207 0
M  V30 3238 C 312.71 -3.54849 2.60327 0
M  V30 3239 H 309.829 -0.498502 0.54283 0
M  V30 3240 H 312.471 -0.692125 1.76945 0
M  V30 3241 H 310.621 -3.10931 2.32926 0
M  V30 3242 H 312.293 -1.48108 4.36877 0
M  V30 3243 H 310.536 -1.32688 4.13009 0
M  V30 3244 H 311.207 -2.84681 4.72928 0
M  V30 3245 H 313.683 -3.0645 2.81474 0
M  V30 3246 H 312.559 -4.32973 3.37381 0
M  V30 3247 H 312.82 -4.10079 1.6519 0
M  V30 3248 N 311.879 -1.3236 -0.855495 0
M  V30 3249 C 312.811 -1.17052 -1.97057 0
M  V30 3250 C 313.824 -0.10574 -1.62456 0
M  V30 3251 O 315.013 -0.354619 -1.74942 0
M  V30 3252 C 312.113 -0.769305 -3.30053 0
M  V30 3253 C 311.286 -1.9222 -3.929 0
M  V30 3254 C 310.345 -1.50466 -5.04228 0
M  V30 3255 O 309.371 -2.21655 -5.24269 0
M  V30 3256 N 310.573 -0.400209 -5.79119 0
M  V30 3257 H 313.338 -2.13103 -2.1073 0
M  V30 3258 H 310.899 -1.24885 -1.0303 0
M  V30 3259 H 312.891 -0.472407 -4.01933 0
M  V30 3260 H 311.461 0.100025 -3.1244 0
M  V30 3261 H 310.681 -2.38563 -3.13817 0
M  V30 3262 H 311.969 -2.69403 -4.31624 0
M  V30 3263 H 311.367 0.192319 -5.65373 0
M  V30 3264 H 309.924 -0.162912 -6.51596 0
M  V30 3265 N 313.357 1.07166 -1.15556 0
M  V30 3266 C 314.605 1.79443 -0.929764 0
M  V30 3267 C 314.926 1.87246 0.544414 0
M  V30 3268 O 314.196 1.37473 1.39564 0
M  V30 3269 H 312.776 0.664625 -0.341003 0
M  V30 3270 H 315.438 1.29499 -1.45657 0
M  V30 3271 H 314.534 2.81832 -1.34079 0
M  V30 3272 N 314.835 0.952656 1.25548 0
M  V30 3273 C 316.063 0.623496 1.97282 0
M  V30 3274 C 316.478 -0.803987 1.70826 0
M  V30 3275 O 315.835 -1.53755 0.983147 0
M  V30 3276 C 315.886 0.870209 3.5087 0
M  V30 3277 O 315.607 2.24156 3.76412 0
M  V30 3278 C 317.108 0.553164 4.39835 0
M  V30 3279 H 314.328 0.233931 0.628902 0
M  V30 3280 H 316.872 1.27649 1.59768 0
M  V30 3281 H 315.027 0.263652 3.86502 0
M  V30 3282 H 315.441 2.31021 4.70882 0
M  V30 3283 H 316.915 0.776342 5.46513 0
M  V30 3284 H 317.392 -0.512215 4.36203 0
M  V30 3285 H 317.998 1.13896 4.09766 0
M  V30 3286 N 316.313 -1.40141 0.720998 0
M  V30 3287 C 317.559 -2.01084 0.263231 0
M  V30 3288 C 317.892 -1.57052 -1.14229 0
M  V30 3289 O 317.167 -0.793027 -1.77599 0
M  V30 3290 C 317.45 -3.58401 0.349344 0
M  V30 3291 C 317.303 -4.12491 1.79363 0
M  V30 3292 C 318.622 -4.39231 -0.276351 0
M  V30 3293 H 315.741 -0.730572 0.0971228 0
M  V30 3294 H 318.383 -1.66543 0.914518 0
M  V30 3295 H 316.533 -3.87958 -0.205165 0
M  V30 3296 H 318.205 -3.93711 2.40394 0
M  V30 3297 H 316.448 -3.66576 2.31958 0
M  V30 3298 H 317.119 -5.21646 1.80524 0
M  V30 3299 H 319.595 -4.15637 0.196184 0
M  V30 3300 H 318.471 -5.48586 -0.185681 0
M  V30 3301 H 318.732 -4.20643 -1.36059 0
M  V30 3302 N 317.792 -0.46758 -1.50504 0
M  V30 3303 C 318.755 0.317059 -2.26996 0
M  V30 3304 C 319.755 0.923513 -1.31635 0
M  V30 3305 O 320.945 0.793239 -1.55091 0
M  V30 3306 C 318.077 1.45134 -3.08462 0
M  V30 3307 H 319.27 -0.353723 -2.97807 0
M  V30 3308 H 316.823 -0.221545 -1.54722 0
M  V30 3309 H 317.558 2.15728 -2.4214 0
M  V30 3310 H 317.343 1.02232 -3.78538 0
M  V30 3311 H 318.833 2.00493 -3.66323 0
M  V30 3312 N 319.27 1.56325 -0.20005 0
M  V30 3313 C 320.18 2.22931 0.730668 0
M  V30 3314 C 321.196 1.22997 1.23076 0
M  V30 3315 O 322.372 1.55748 1.27689 0
M  V30 3316 C 319.437 2.87948 1.93098 0
M  V30 3317 C 318.498 4.03166 1.47497 0
M  V30 3318 C 317.731 4.65073 2.61807 0
M  V30 3319 O 317.954 4.25913 3.79413 0
M  V30 3320 O 316.888 5.54452 2.34237 0
M  V30 3321 H 320.714 3.03084 0.193391 0
M  V30 3322 H 318.299 1.49371 0.0294621 0
M  V30 3323 H 320.181 3.29063 2.6324 0
M  V30 3324 H 318.856 2.10771 2.45677 0
M  V30 3325 H 317.763 3.66664 0.742201 0
M  V30 3326 H 319.096 4.82022 0.995796 0
M  V30 3327 N 320.748 -0.0735177 1.57428 0
M  V30 3328 C 321.996 -0.771472 1.86796 0
M  V30 3329 C 322.317 -1.78201 0.791804 0
M  V30 3330 O 321.587 -1.95074 -0.179718 0
M  V30 3331 H 320.167 -0.28791 0.689287 0
M  V30 3332 H 322.829 -0.0500161 1.94836 0
M  V30 3333 H 321.925 -1.28874 2.8425 0
M  V30 3334 N 322.226 -1.5378 -0.344866 0
M  V30 3335 C 323.189 -1.80981 -1.40637 0
M  V30 3336 C 324.189 -0.680816 -1.45676 0
M  V30 3337 O 325.379 -0.949095 -1.46075 0
M  V30 3338 C 322.511 -1.95063 -2.79577 0
M  V30 3339 H 323.704 -2.75803 -1.17783 0
M  V30 3340 H 321.257 -1.45173 -0.579181 0
M  V30 3341 H 321.992 -1.02379 -3.07716 0
M  V30 3342 H 321.777 -2.77198 -2.77315 0
M  V30 3343 H 323.267 -2.17629 -3.56409 0
M  V30 3344 N 323.704 0.605807 -1.45491 0
M  V30 3345 C 325.115 1.18777 -1.44045 0
M  V30 3346 C 325.466 1.95471 -0.169001 0
M  V30 3347 O 324.591 2.0374 0.729324 0
M  V30 3348 C 325.186 2.16064 -2.60963 0
M  V30 3349 C 323.745 2.69633 -2.62631 0
M  V30 3350 C 322.892 1.45072 -2.36325 0
M  V30 3351 H 325.843 0.395017 -1.53705 0
M  V30 3352 H 325.864 2.9913 -2.35163 0
M  V30 3353 H 325.376 1.60217 -3.53486 0
M  V30 3354 H 323.477 3.29414 -1.74119 0
M  V30 3355 H 323.59 3.13944 -3.61906 0
M  V30 3356 H 321.954 1.74089 -1.85917 0
M  V30 3357 H 322.737 0.910899 -3.30995 0
M  V30 3358 N 325.182 1.32811 0.848464 0
M  V30 3359 C 326.431 1.23075 1.59798 0
M  V30 3360 C 326.744 -0.204419 1.94529 0
M  V30 3361 O 327.95 -0.423701 2.68173 0
M  V30 3362 C 326.406 2.15594 2.88179 0
M  V30 3363 C 326.014 3.64228 2.60849 0
M  V30 3364 C 327.758 2.14709 3.66197 0
M  V30 3365 C 325.665 4.48689 3.85269 0
M  V30 3366 H 324.595 0.457091 0.599653 0
M  V30 3367 H 327.246 1.57813 0.936342 0
M  V30 3368 H 325.628 1.73778 3.55833 0
M  V30 3369 H 326.802 4.14424 2.01467 0
M  V30 3370 H 325.117 3.67306 1.96151 0
M  V30 3371 H 327.714 2.75046 4.58534 0
M  V30 3372 H 328.057 1.13966 4.00397 0
M  V30 3373 H 328.59 2.54837 3.05455 0
M  V30 3374 H 325.329 5.5027 3.56207 0
M  V30 3375 H 324.849 4.03241 4.44024 0
M  V30 3376 H 326.528 4.62006 4.52946 0
M  V30 3377 N 326.66 -1.06551 1.16123 0
M  V30 3378 C 327.909 -1.78687 0.935622 0
M  V30 3379 C 328.222 -1.88056 -0.538001 0
M  V30 3380 O 329.428 -2.56794 -0.88143 0
M  V30 3381 C 327.884 -3.21143 1.62466 0
M  V30 3382 C 327.492 -3.19949 3.13587 0
M  V30 3383 C 329.236 -3.9783 1.48092 0
M  V30 3384 C 327.143 -4.57108 3.75241 0
M  V30 3385 H 326.073 -0.669712 0.346412 0
M  V30 3386 H 328.724 -1.19534 1.39226 0
M  V30 3387 H 327.106 -3.80539 1.09572 0
M  V30 3388 H 328.28 -2.70151 3.73303 0
M  V30 3389 H 326.595 -2.5676 3.27816 0
M  V30 3390 H 329.192 -4.99217 1.91538 0
M  V30 3391 H 329.535 -4.14078 0.429507 0
M  V30 3392 H 330.068 -3.4495 1.98127 0
M  V30 3393 H 326.807 -4.46065 4.80319 0
M  V30 3394 H 326.327 -5.07111 3.20309 0
M  V30 3395 H 328.006 -5.26069 3.76644 0
M  V30 3396 N 328.138 -0.959301 -1.25041 0
M  V30 3397 C 329.549 -0.65667 -1.74771 0
M  V30 3398 C 329.9 0.827852 -1.77879 0
M  V30 3399 O 329.025 1.64783 -1.40269 0
M  V30 3400 C 329.62 -1.1853 -3.1739 0
M  V30 3401 C 328.179 -0.932734 -3.6466 0
M  V30 3402 C 327.326 -1.32558 -2.43564 0
M  V30 3403 H 330.277 -1.13558 -1.10862 0
M  V30 3404 H 330.298 -0.547582 -3.76539 0
M  V30 3405 H 329.81 -2.26576 -3.15095 0
M  V30 3406 H 327.911 0.13257 -3.72364 0
M  V30 3407 H 328.024 -1.57248 -4.52559 0
M  V30 3408 H 326.388 -0.743956 -2.43593 0
M  V30 3409 H 327.171 -2.41537 -2.43957 0
M  V30 3410 N 329.616 1.39756 -0.72842 0
M  V30 3411 C 330.865 1.99879 -0.270407 0
M  V30 3412 C 331.178 1.58449 1.14688 0
M  V30 3413 O 332.384 2.11362 1.70407 0
M  V30 3414 C 330.84 3.57292 -0.43252 0
M  V30 3415 C 330.448 4.07688 -1.85727 0
M  V30 3416 C 332.192 4.24485 -0.0359507 0
M  V30 3417 C 330.099 5.5765 -1.96928 0
M  V30 3418 H 329.029 0.747689 -0.0973472 0
M  V30 3419 H 331.68 1.59837 -0.901355 0
M  V30 3420 H 330.062 3.95097 0.267219 0
M  V30 3421 H 331.236 3.81231 -2.58843 0
M  V30 3422 H 329.551 3.53135 -2.20646 0
M  V30 3423 H 332.148 5.34609 -0.0987484 0
M  V30 3424 H 332.491 4.03915 1.00787 0
M  V30 3425 H 333.024 3.9183 -0.686604 0
M  V30 3426 H 329.763 5.8309 -2.99476 0
M  V30 3427 H 329.283 5.8593 -1.28241 0
M  V30 3428 H 330.962 6.22957 -1.74737 0
M  V30 3429 N 331.094 0.475555 1.50254 0
M  V30 3430 C 332.319 -0.0777042 2.07254 0
M  V30 3431 C 332.744 -1.3235 1.3366 0
M  V30 3432 O 332.102 -1.77152 0.385597 0
M  V30 3433 C 332.15 -0.340169 3.58992 0
M  V30 3434 O 331.254 -1.41982 3.87188 0
M  V30 3435 H 330.595 0.0149556 0.663832 0
M  V30 3436 H 333.125 0.667878 1.93392 0
M  V30 3437 H 333.135 -0.579332 4.03866 0
M  V30 3438 H 331.81 0.570167 4.11973 0
M  V30 3439 H 330.387 -1.16762 3.54148 0
M  V30 3440 N 332.573 -1.56217 0.208337 0
M  V30 3441 C 333.536 -2.18455 -0.693557 0
M  V30 3442 C 334.536 -1.14268 -1.13135 0
M  V30 3443 O 335.726 -1.39577 -1.0423 0
M  V30 3444 C 332.858 -2.79727 -1.94848 0
M  V30 3445 H 334.051 -2.99519 -0.15114 0
M  V30 3446 H 331.604 -1.56245 -0.041287 0
M  V30 3447 H 332.339 -2.02497 -2.53309 0
M  V30 3448 H 332.124 -3.56009 -1.64316 0
M  V30 3449 H 333.614 -3.27475 -2.59133 0
M  V30 3450 N 334.051 0.0651679 -1.57465 0
M  V30 3451 C 334.983 1.10359 -2.00882 0
M  V30 3452 C 335.996 1.346 -0.915788 0
M  V30 3453 O 337.185 1.32723 -1.1936 0
M  V30 3454 C 334.285 2.45312 -2.33828 0
M  V30 3455 C 333.458 2.40934 -3.65061 0
M  V30 3456 C 332.517 3.58047 -3.85602 0
M  V30 3457 O 331.543 3.39175 -4.57109 0
M  V30 3458 N 332.745 4.78637 -3.28462 0
M  V30 3459 H 335.51 0.733807 -2.90578 0
M  V30 3460 H 333.071 0.253719 -1.599 0
M  V30 3461 H 335.063 3.22314 -2.44737 0
M  V30 3462 H 333.633 2.74267 -1.49988 0
M  V30 3463 H 332.853 1.49273 -3.64844 0
M  V30 3464 H 334.141 2.35117 -4.51218 0
M  V30 3465 H 333.539 4.96872 -2.70433 0
M  V30 3466 H 332.096 5.53127 -3.44809 0
M  V30 3467 N 335.529 1.53961 0.336706 0
M  V30 3468 C 336.459 1.85417 1.41925 0
M  V30 3469 C 337.44 0.709856 1.5458 0
M  V30 3470 O 338.625 0.962396 1.68676 0
M  V30 3471 C 335.755 2.06985 2.78881 0
M  V30 3472 C 334.709 3.22813 2.81026 0
M  V30 3473 C 334.035 3.29727 4.20932 0
M  V30 3474 C 335.335 4.60767 2.45949 0
M  V30 3475 H 337.029 2.76079 1.15848 0
M  V30 3476 H 334.575 1.32839 0.555859 0
M  V30 3477 H 336.528 2.27575 3.54665 0
M  V30 3478 H 335.252 1.13061 3.06406 0
M  V30 3479 H 333.911 3.0209 2.07695 0
M  V30 3480 H 333.559 2.33385 4.45579 0
M  V30 3481 H 333.259 4.07566 4.23277 0
M  V30 3482 H 334.783 3.52536 4.98549 0
M  V30 3483 H 336.197 4.81325 3.11446 0
M  V30 3484 H 334.594 5.4106 2.59566 0
M  V30 3485 H 335.664 4.6391 1.41122 0
M  V30 3486 N 337.007 -0.598083 1.45811 0
M  V30 3487 C 337.954 -1.7082 1.55207 0
M  V30 3488 C 338.924 -1.61278 0.39732 0
M  V30 3489 O 340.109 -1.80717 0.612038 0
M  V30 3490 C 337.249 -3.09144 1.53376 0
M  V30 3491 C 336.362 -3.29423 2.79472 0
M  V30 3492 C 335.497 -4.57907 2.69248 0
M  V30 3493 C 334.536 -4.71476 3.90354 0
M  V30 3494 N 333.673 -5.9127 3.78608 0
M  V30 3495 H 338.513 -1.62125 2.50039 0
M  V30 3496 H 336.05 -0.790389 1.24062 0
M  V30 3497 H 338.008 -3.89186 1.50301 0
M  V30 3498 H 336.638 -3.16773 0.620876 0
M  V30 3499 H 335.69 -2.43091 2.92594 0
M  V30 3500 H 337.002 -3.3532 3.69272 0
M  V30 3501 H 336.156 -5.46157 2.64192 0
M  V30 3502 H 334.895 -4.54423 1.77063 0
M  V30 3503 H 333.9 -3.81648 3.95759 0
M  V30 3504 H 335.125 -4.76751 4.83617 0
M  V30 3505 H 333.071 -5.88813 2.89199 0
M  V30 3506 H 332.988 -5.98369 4.6205 0
M  V30 3507 H 334.256 -6.81992 3.77501 0
M  V30 3508 N 338.485 -1.33259 -0.841409 0
M  V30 3509 C 339.715 -1.2742 -1.62628 0
M  V30 3510 C 340.123 0.157604 -1.88542 0
M  V30 3511 O 339.466 1.10938 -1.46419 0
M  V30 3512 C 339.528 -1.97797 -3.00194 0
M  V30 3513 C 339.192 -3.47109 -2.97261 0
M  V30 3514 C 340.189 -4.42358 -2.73159 0
M  V30 3515 C 337.874 -3.89247 -3.17478 0
M  V30 3516 C 339.868 -5.77718 -2.69296 0
M  V30 3517 C 337.555 -5.24713 -3.13241 0
M  V30 3518 C 338.553 -6.1876 -2.89181 0
M  V30 3519 O 338.241 -7.51745 -2.84843 0
M  V30 3520 H 337.973 -0.440436 -0.512827 0
M  V30 3521 H 340.527 -1.76153 -1.05638 0
M  V30 3522 H 338.757 -1.43652 -3.59028 0
M  V30 3523 H 340.446 -1.8549 -3.61038 0
M  V30 3524 H 341.212 -4.11127 -2.57294 0
M  V30 3525 H 337.091 -3.16456 -3.35226 0
M  V30 3526 H 340.635 -6.51097 -2.50436 0
M  V30 3527 H 336.532 -5.55569 -3.28654 0
M  V30 3528 H 337.3 -7.61262 -3.00702 0
M  V30 3529 N 339.963 1.05934 -1.16686 0
M  V30 3530 C 340.911 2.15603 -0.872817 0
M  V30 3531 C 341.905 1.68647 0.159576 0
M  V30 3532 O 343.111 1.79995 0.0132125 0
M  V30 3533 H 339.486 0.703885 -0.264671 0
M  V30 3534 H 341.457 2.37613 -1.80507 0
M  V30 3535 C 340.206 3.45457 -0.394344 0
M  V30 3536 H 339.529 3.81984 -1.18019 0
M  V30 3537 H 340.969 4.2339 -0.227408 0
M  V30 3538 C 339.428 3.25021 0.88673 0
M  V30 3539 O 339.958 3.50906 1.95519 0
M  V30 3540 N 338.164 2.78437 0.831925 0
M  V30 3541 H 337.711 2.57572 -0.0377619 0
M  V30 3542 H 337.669 2.65144 1.68956 0
M  V30 3543 N 341.441 0.965919 1.2453 0
M  V30 3544 C 342.69 0.622437 1.91856 0
M  V30 3545 C 343.003 -0.846006 1.76358 0
M  V30 3546 O 344.209 -1.29993 2.38357 0
M  V30 3547 C 342.665 1.0626 3.43856 0
M  V30 3548 C 342.273 2.55437 3.68043 0
M  V30 3549 C 344.017 0.792183 4.17043 0
M  V30 3550 C 341.924 2.93196 5.13605 0
M  V30 3551 H 340.854 0.229092 0.718354 0
M  V30 3552 H 343.505 1.17189 1.41206 0
M  V30 3553 H 341.887 0.441476 3.93531 0
M  V30 3554 H 343.061 3.22665 3.28974 0
M  V30 3555 H 341.376 2.8007 3.08139 0
M  V30 3556 H 343.973 1.05031 5.24283 0
M  V30 3557 H 344.316 -0.271584 4.15413 0
M  V30 3558 H 344.849 1.37419 3.73311 0
M  V30 3559 H 341.588 3.98636 5.20355 0
M  V30 3560 H 341.108 2.30651 5.53679 0
M  V30 3561 H 342.787 2.83004 5.81823 0
M  V30 3562 N 342.919 -1.39368 0.735821 0
M  V30 3563 C 343.829 -2.34395 0.0979693 0
M  V30 3564 C 344.845 -1.58361 -0.720968 0
M  V30 3565 O 346.021 -1.90648 -0.649245 0
M  V30 3566 C 343.086 -3.37393 -0.797916 0
M  V30 3567 C 342.147 -4.29287 0.0333662 0
M  V30 3568 C 341.38 -5.27365 -0.819854 0
M  V30 3569 O 341.603 -5.31959 -2.05855 0
M  V30 3570 O 340.537 -6.01389 -0.248079 0
M  V30 3571 H 344.363 -2.90601 0.882315 0
M  V30 3572 H 341.948 -1.40909 0.4965 0
M  V30 3573 H 343.83 -4.00505 -1.31048 0
M  V30 3574 H 342.505 -2.83571 -1.56106 0
M  V30 3575 H 341.412 -3.69395 0.591475 0
M  V30 3576 H 342.745 -4.86317 0.758752 0
M  V30 3577 N 344.397 -0.483516 -1.5 0
M  V30 3578 C 345.643 0.0672592 -2.02688 0
M  V30 3579 C 345.976 1.38247 -1.36387 0
M  V30 3580 O 345.251 1.88131 -0.493675 0
M  V30 3581 C 345.534 0.238109 -3.59312 0
M  V30 3582 C 345.387 -1.099 -4.36168 0
M  V30 3583 C 346.706 0.986916 -4.28892 0
M  V30 3584 H 343.825 0.0229696 -0.736642 0
M  V30 3585 H 346.467 -0.631527 -1.79197 0
M  V30 3586 H 344.617 0.8333 -3.79458 0
M  V30 3587 H 346.289 -1.73172 -4.27562 0
M  V30 3588 H 344.532 -1.69261 -3.99416 0
M  V30 3589 H 345.203 -0.932954 -5.44059 0
M  V30 3590 H 347.679 0.482302 -4.13295 0
M  V30 3591 H 346.555 1.07527 -5.38265 0
M  V30 3592 H 346.816 2.0265 -3.92919 0
M  V30 3593 N 345.875 1.56104 -0.216619 0
M  V30 3594 C 347.121 1.98466 0.417033 0
M  V30 3595 C 347.454 1.10403 1.59765 0
M  V30 3596 O 346.729 0.160632 1.93836 0
M  V30 3597 C 347.012 3.49769 0.85637 0
M  V30 3598 C 346.865 4.48606 -0.327546 0
M  V30 3599 C 348.184 4.05339 1.7143 0
M  V30 3600 H 345.303 0.721551 0.150112 0
M  V30 3601 H 347.945 1.87423 -0.311864 0
M  V30 3602 H 346.095 3.5931 1.47745 0
M  V30 3603 H 347.767 4.5108 -0.965618 0
M  V30 3604 H 346.01 4.22682 -0.975805 0
M  V30 3605 H 346.681 5.51995 0.0227149 0
M  V30 3606 H 349.157 3.98712 1.19031 0
M  V30 3607 H 348.033 5.11533 1.99061 0
M  V30 3608 H 348.294 3.51918 2.67593 0
M  V30 3609 N 347.353 -0.0568162 1.57498 0
M  V30 3610 C 348.593 -0.758273 1.89815 0
M  V30 3611 C 348.957 -1.73978 0.812132 0
M  V30 3612 O 350.158 -2.48744 1.01881 0
M  V30 3613 C 348.429 -1.43465 3.27342 0
M  V30 3614 S 349.988 -2.1691 3.81439 0
M  V30 3615 H 346.806 -0.251836 0.664906 0
M  V30 3616 H 349.408 -0.0137997 1.95495 0
M  V30 3617 H 348.112 -0.706693 4.0427 0
M  V30 3618 H 347.643 -2.21825 3.24896 0
M  V30 3619 H 349.658 -3.43658 3.5793 0
M  V30 3620 N 348.832 -1.54138 -0.328536 0
M  V30 3621 C 349.742 -1.86192 -1.42723 0
M  V30 3622 C 350.758 -0.753382 -1.56844 0
M  V30 3623 O 351.934 -1.04718 -1.72035 0
M  V30 3624 C 348.999 -2.07824 -2.77507 0
M  V30 3625 C 348.06 -3.31641 -2.72603 0
M  V30 3626 C 347.293 -3.52232 -4.00959 0
M  V30 3627 O 347.516 -2.7636 -4.9898 0
M  V30 3628 O 346.45 -4.45699 -4.0452 0
M  V30 3629 H 350.276 -2.79608 -1.18547 0
M  V30 3630 H 347.861 -1.3998 -0.522104 0
M  V30 3631 H 349.743 -2.23411 -3.57303 0
M  V30 3632 H 348.418 -1.17596 -3.01584 0
M  V30 3633 H 347.325 -3.21444 -1.91376 0
M  V30 3634 H 348.658 -4.2191 -2.53481 0
M  V30 3635 N 350.31 0.590341 -1.46126 0
M  V30 3636 C 351.54 1.37304 -1.54373 0
M  V30 3637 C 351.948 1.88332 -0.181071 0
M  V30 3638 O 351.291 1.63852 0.830559 0
M  V30 3639 C 351.353 2.6012 -2.48149 0
M  V30 3640 C 351.017 2.30613 -3.94546 0
M  V30 3641 C 352.014 1.89915 -4.83971 0
M  V30 3642 C 349.699 2.42993 -4.39613 0
M  V30 3643 C 351.693 1.61981 -6.16475 0
M  V30 3644 C 349.38 2.14672 -5.72153 0
M  V30 3645 C 350.378 1.7423 -6.60404 0
M  V30 3646 O 350.066 1.46251 -7.90485 0
M  V30 3647 H 349.798 0.426086 -0.524811 0
M  V30 3648 H 352.352 0.72539 -1.92165 0
M  V30 3649 H 350.582 3.27664 -2.05361 0
M  V30 3650 H 352.271 3.22182 -2.46887 0
M  V30 3651 H 353.037 1.79872 -4.50412 0
M  V30 3652 H 348.916 2.73435 -3.71153 0
M  V30 3653 H 352.46 1.30341 -6.85315 0
M  V30 3654 H 348.357 2.24337 -6.05263 0
M  V30 3655 H 349.125 1.6016 -8.02677 0
M  V30 3656 N 351.788 1.33704 0.83433 0
M  V30 3657 C 353.037 1.24763 1.58484 0
M  V30 3658 C 353.35 -0.183775 1.94735 0
M  V30 3659 O 354.556 -0.395234 2.68608 0
M  V30 3660 C 353.012 2.18638 2.85876 0
M  V30 3661 C 352.62 3.66974 2.56971 0
M  V30 3662 C 354.364 2.18581 3.63899 0
M  V30 3663 C 352.271 4.5275 3.80488 0
M  V30 3664 H 351.201 0.463425 0.594772 0
M  V30 3665 H 353.852 1.58797 0.919551 0
M  V30 3666 H 352.234 1.77542 3.5397 0
M  V30 3667 H 353.408 4.16538 1.9706 0
M  V30 3668 H 351.723 3.69366 1.92244 0
M  V30 3669 H 354.32 2.79894 4.55591 0
M  V30 3670 H 354.663 1.18207 3.99165 0
M  V30 3671 H 355.196 2.58062 3.02735 0
M  V30 3672 H 351.935 5.54017 3.5035 0
M  V30 3673 H 351.455 4.07927 4.39722 0
M  V30 3674 H 353.134 4.66784 4.4802 0
M  V30 3675 N 353.266 -1.05314 1.17247 0
M  V30 3676 C 354.512 -1.78557 0.961513 0
M  V30 3677 C 354.845 -1.87419 -0.508697 0
M  V30 3678 O 354.12 -1.37307 -1.37757 0
M  V30 3679 C 354.403 -3.22514 1.60176 0
M  V30 3680 C 354.256 -3.21673 3.14399 0
M  V30 3681 C 355.575 -4.20318 1.30463 0
M  V30 3682 H 352.694 -0.6482 0.350723 0
M  V30 3683 H 355.336 -1.23102 1.44727 0
M  V30 3684 H 353.486 -3.69867 1.18871 0
M  V30 3685 H 355.158 -2.82405 3.64753 0
M  V30 3686 H 353.401 -2.60048 3.47214 0
M  V30 3687 H 354.072 -4.23271 3.54324 0
M  V30 3688 H 356.548 -3.81454 1.66229 0
M  V30 3689 H 355.424 -5.19289 1.77848 0
M  V30 3690 H 355.685 -4.41526 0.22521 0
M  V30 3691 N 354.744 -0.972509 -1.24016 0
M  V30 3692 C 355.691 -0.505969 -2.25186 0
M  V30 3693 C 356.661 0.451009 -1.5986 0
M  V30 3694 O 357.846 0.360307 -1.87367 0
M  V30 3695 C 354.986 0.193089 -3.44559 0
M  V30 3696 C 354.099 -0.803222 -4.24467 0
M  V30 3697 C 353.234 -0.0797793 -5.3114 0
M  V30 3698 C 352.273 -1.06583 -6.02749 0
M  V30 3699 N 351.41 -0.372074 -7.01113 0
M  V30 3700 H 356.25 -1.37351 -2.64459 0
M  V30 3701 H 353.787 -0.688419 -1.29997 0
M  V30 3702 H 355.745 0.615125 -4.1264 0
M  V30 3703 H 354.375 1.02455 -3.06109 0
M  V30 3704 H 353.427 -1.34368 -3.55878 0
M  V30 3705 H 354.739 -1.55494 -4.73944 0
M  V30 3706 H 353.893 0.400015 -6.0538 0
M  V30 3707 H 352.632 0.704597 -4.82583 0
M  V30 3708 H 351.637 -1.55645 -5.27309 0
M  V30 3709 H 352.862 -1.85074 -6.53395 0
M  V30 3710 H 350.808 0.393238 -6.5482 0
M  V30 3711 H 350.725 -1.06258 -7.48495 0
M  V30 3712 H 351.993 0.0855932 -7.79453 0
M  V30 3713 N 356.222 1.38976 -0.743202 0
M  V30 3714 C 357.169 2.30544 -0.10861 0
M  V30 3715 C 358.139 1.49642 0.720869 0
M  V30 3716 O 359.324 1.78304 0.679142 0
M  V30 3717 C 356.464 3.36018 0.786496 0
M  V30 3718 C 355.577 4.31963 -0.0564849 0
M  V30 3719 C 354.712 5.24506 0.840657 0
M  V30 3720 C 353.751 6.121 -0.00658363 0
M  V30 3721 N 352.888 6.96973 0.846943 0
M  V30 3722 H 357.728 2.8424 -0.895088 0
M  V30 3723 H 355.265 1.3995 -0.453048 0
M  V30 3724 H 357.223 3.95768 1.31999 0
M  V30 3725 H 355.853 2.83758 1.53887 0
M  V30 3726 H 354.905 3.73763 -0.707492 0
M  V30 3727 H 356.217 4.93703 -0.711229 0
M  V30 3728 H 355.371 5.89322 1.4417 0
M  V30 3729 H 354.11 4.63107 1.52916 0
M  V30 3730 H 353.115 5.46289 -0.620366 0
M  V30 3731 H 354.34 6.75565 -0.691992 0
M  V30 3732 H 352.286 6.38133 1.52059 0
M  V30 3733 H 352.203 7.5559 0.248864 0
M  V30 3734 H 353.471 7.6621 1.43328 0
M  V30 3735 N 357.7 0.491464 1.49741 0
M  V30 3736 C 358.949 -0.0582189 2.01616 0
M  V30 3737 C 359.262 -1.38927 1.3769 0
M  V30 3738 O 360.468 -2.02509 1.80838 0
M  V30 3739 C 358.924 -0.154235 3.59569 0
M  V30 3740 C 358.532 1.1696 4.32463 0
M  V30 3741 C 360.276 -0.65479 4.1942 0
M  V30 3742 C 358.183 1.03627 5.8225 0
M  V30 3743 H 357.113 -0.0255317 0.753568 0
M  V30 3744 H 359.764 0.629445 1.72367 0
M  V30 3745 H 358.146 -0.906138 3.85493 0
M  V30 3746 H 359.32 1.93405 4.18248 0
M  V30 3747 H 357.635 1.60285 3.84315 0
M  V30 3748 H 360.232 -0.771903 5.29099 0
M  V30 3749 H 360.575 -1.65127 3.8215 0
M  V30 3750 H 361.108 0.040304 3.9778 0
M  V30 3751 H 357.847 2.00672 6.24028 0
M  V30 3752 H 357.367 0.312546 5.98985 0
M  V30 3753 H 359.046 0.711114 6.4308 0
M  V30 3754 N 359.178 -1.55987 0.224894 0
M  V30 3755 C 360.589 -1.84553 -0.282345 0
M  V30 3756 C 360.94 -1.14634 -1.59227 0
M  V30 3757 O 360.065 -0.417155 -2.12341 0
M  V30 3758 C 360.66 -3.348 -0.519062 0
M  V30 3759 C 359.219 -3.63671 -0.970604 0
M  V30 3760 C 358.366 -2.77277 -0.0355261 0
M  V30 3761 H 361.317 -1.52245 0.448006 0
M  V30 3762 H 361.338 -3.55187 -1.36463 0
M  V30 3763 H 360.85 -3.8566 0.43449 0
M  V30 3764 H 358.951 -3.1827 -1.9374 0
M  V30 3765 H 359.064 -4.71631 -0.842698 0
M  V30 3766 H 357.428 -2.48846 -0.542927 0
M  V30 3767 H 358.211 -3.30937 0.913003 0
M  V30 3768 N 360.656 0.0484629 -1.57525 0
M  V30 3769 C 361.902 0.744226 -1.88651 0
M  V30 3770 C 362.235 1.76029 -0.820212 0
M  V30 3771 O 361.51 1.93782 0.166985 0
M  V30 3772 C 361.793 1.43128 -3.30434 0
M  V30 3773 C 361.646 0.43005 -4.47739 0
M  V30 3774 C 362.965 2.37031 -3.70816 0
M  V30 3775 H 360.084 0.269089 -0.68612 0
M  V30 3776 H 362.726 0.00713532 -1.89999 0
M  V30 3777 H 360.876 2.05956 -3.29415 0
M  V30 3778 H 362.548 -0.194816 -4.60888 0
M  V30 3779 H 360.791 -0.252522 -4.33064 0
M  V30 3780 H 361.462 0.948874 -5.43783 0
M  V30 3781 H 363.938 1.84263 -3.73077 0
M  V30 3782 H 362.814 2.82094 -4.70865 0
M  V30 3783 H 363.075 3.22864 -3.02012 0
M  V30 3784 N 362.134 1.5431 0.320358 0
M  V30 3785 C 363.545 1.63872 0.894594 0
M  V30 3786 C 363.896 0.534847 1.88769 0
M  V30 3787 O 363.021 -0.331732 2.13842 0
M  V30 3788 C 363.616 2.97049 1.62934 0
M  V30 3789 C 362.175 3.08796 2.15226 0
M  V30 3790 C 361.322 2.59456 0.978671 0
M  V30 3791 H 364.273 1.58398 0.0978544 0
M  V30 3792 H 364.294 2.87388 2.49376 0
M  V30 3793 H 363.806 3.7737 0.906302 0
M  V30 3794 H 361.907 2.33156 2.90636 0
M  V30 3795 H 362.02 4.14649 2.40006 0
M  V30 3796 H 360.384 2.1543 1.35875 0
M  V30 3797 H 361.167 3.42237 0.269895 0
M  V30 3798 N 363.613 -0.582584 1.46437 0
M  V30 3799 C 365.024 -1.1647 1.45916 0
M  V30 3800 C 365.375 -1.95177 0.200077 0
M  V30 3801 O 364.5 -2.04874 -0.696819 0
M  V30 3802 C 365.095 -2.11885 2.64367 0
M  V30 3803 C 363.654 -2.65421 2.66887 0
M  V30 3804 C 362.801 -1.41294 2.38603 0
M  V30 3805 H 365.752 -0.370514 1.54314 0
M  V30 3806 H 365.773 -2.9535 2.39892 0
M  V30 3807 H 365.285 -1.54573 3.5599 0
M  V30 3808 H 363.386 -3.26602 1.79338 0
M  V30 3809 H 363.499 -3.08147 3.66854 0
M  V30 3810 H 361.863 -1.71109 1.88663 0
M  V30 3811 H 362.646 -0.858125 3.32402 0
M  V30 3812 N 365.091 -1.34144 -0.827227 0
M  V30 3813 C 366.507 -1.13732 -1.11969 0
M  V30 3814 C 366.707 0.0640463 -2.01398 0
M  V30 3815 O 365.763 0.740856 -2.41387 0
M  V30 3816 C 367.076 -2.43047 -1.77055 0
M  V30 3817 C 368.624 -2.49063 -1.89569 0
M  V30 3818 C 369.099 -3.78369 -2.58072 0
M  V30 3819 N 370.59 -3.79505 -2.65575 0
M  V30 3820 C 371.325 -4.76274 -3.19297 0
M  V30 3821 N 370.821 -5.83424 -3.73616 0
M  V30 3822 N 372.614 -4.63735 -3.17658 0
M  V30 3823 H 364.765 -2.11126 -0.232296 0
M  V30 3824 H 367.028 -0.933424 -0.165602 0
M  V30 3825 H 366.734 -3.31025 -1.18807 0
M  V30 3826 H 366.608 -2.56066 -2.76966 0
M  V30 3827 H 368.995 -1.61527 -2.46968 0
M  V30 3828 H 369.076 -2.39975 -0.885745 0
M  V30 3829 H 368.72 -4.66293 -2.01329 0
M  V30 3830 H 368.65 -3.84737 -3.59562 0
M  V30 3831 H 371.141 -3.02074 -2.27068 0
M  V30 3832 H 371.454 -6.53282 -4.12846 0
M  V30 3833 H 369.799 -5.87143 -3.71871 0
M  V30 3834 H 372.99 -3.79177 -2.74486 0
M  V30 3835 H 373.163 -5.39318 -3.59221 0
M  V30 3836 N 366.569 1.04691 -1.17803 0
M  V30 3837 C 367.846 1.7472 -0.879328 0
M  V30 3838 C 368.226 2.01812 0.619271 0
M  V30 3839 O 367.574 1.65824 1.57209 0
M  V30 3840 C 367.784 3.03686 -1.71976 0
M  V30 3841 C 369.132 3.77542 -1.94286 0
M  V30 3842 O 370.156 3.13569 -1.68976 0
M  V30 3843 O 369.015 4.92506 -2.36855 0
M  V30 3844 H 366.109 0.760011 -0.326056 0
M  V30 3845 H 368.655 1.10813 -1.28525 0
M  V30 3846 H 367.427 2.79754 -2.73594 0
M  V30 3847 H 367.05 3.75332 -1.31194 0
M  V30 3848 N 368.047 0.979072 1.23499 0
M  V30 3849 C 369.294 0.647219 1.91878 0
M  V30 3850 C 369.622 -0.819074 1.76413 0
M  V30 3851 O 368.877 -1.60616 1.11808 0
M  V30 3852 C 369.176 0.981932 3.43646 0
M  V30 3853 C 368.842 2.43822 3.79291 0
M  V30 3854 C 367.504 2.83622 3.88731 0
M  V30 3855 C 369.856 3.3828 3.96505 0
M  V30 3856 C 367.184 4.16897 4.12812 0
M  V30 3857 C 369.536 4.71197 4.22085 0
M  V30 3858 C 368.2 5.10758 4.29747 0
M  V30 3859 H 367.47 0.236834 0.702133 0
M  V30 3860 H 370.117 1.23268 1.46551 0
M  V30 3861 H 368.422 0.314365 3.90537 0
M  V30 3862 H 370.119 0.703395 3.94783 0
M  V30 3863 H 366.709 2.11966 3.72516 0
M  V30 3864 H 370.893 3.0871 3.88603 0
M  V30 3865 H 366.149 4.47157 4.16966 0
M  V30 3866 H 370.323 5.44348 4.34348 0
M  V30 3867 H 367.95 6.1405 4.48159 0
M  V30 3868 N 369.525 -1.3858 0.750561 0
M  V30 3869 C 370.753 -2.04471 0.316098 0
M  V30 3870 C 371.168 -1.56606 -1.05452 0
M  V30 3871 O 370.525 -0.737784 -1.66922 0
M  V30 3872 C 370.576 -3.60025 0.326275 0
M  V30 3873 O 370.297 -4.06133 1.6428 0
M  V30 3874 C 371.798 -4.43131 -0.122429 0
M  V30 3875 H 369.018 -0.65717 0.135528 0
M  V30 3876 H 371.562 -1.77329 1.01857 0
M  V30 3877 H 369.717 -3.86014 -0.327431 0
M  V30 3878 H 370.131 -5.00547 1.56693 0
M  V30 3879 H 371.605 -5.51963 -0.0641473 0
M  V30 3880 H 372.082 -4.23333 -1.16988 0
M  V30 3881 H 372.688 -4.22323 0.50229 0
M  V30 3882 N 371.003 -0.499398 -1.49478 0
M  V30 3883 C 372.228 0.044722 -2.07352 0
M  V30 3884 C 372.653 1.30207 -1.35749 0
M  V30 3885 O 372.011 1.76516 -0.413732 0
M  V30 3886 C 372.059 0.283013 -3.59488 0
M  V30 3887 O 371.163 1.35804 -3.89398 0
M  V30 3888 H 370.504 -0.0255147 -0.66351 0
M  V30 3889 H 373.034 -0.698561 -1.92305 0
M  V30 3890 H 373.044 0.515007 -4.04737 0
M  V30 3891 H 371.719 -0.635636 -4.11014 0
M  V30 3892 H 370.296 1.11113 -3.55961 0
M  V30 3893 N 372.481 1.55866 -0.233164 0
M  V30 3894 C 373.391 2.24431 0.683217 0
M  V30 3895 C 374.407 1.2558 1.2044 0
M  V30 3896 O 375.583 1.58422 1.24356 0
M  V30 3897 C 372.648 2.91979 1.86947 0
M  V30 3898 C 371.709 4.06204 1.38912 0
M  V30 3899 C 370.942 4.70522 2.51883 0
M  V30 3900 O 371.165 4.33865 3.70293 0
M  V30 3901 O 370.099 5.59296 2.22423 0
M  V30 3902 H 373.925 3.03426 0.129059 0
M  V30 3903 H 371.51 1.494 -0.0022283 0
M  V30 3904 H 373.392 3.34573 2.56201 0
M  V30 3905 H 372.067 2.15935 2.41151 0
M  V30 3906 H 370.974 3.68155 0.664259 0
M  V30 3907 H 372.307 4.84025 0.893328 0
M  V30 3908 N 373.959 -0.0401083 1.57549 0
M  V30 3909 C 375.37 -0.588097 1.77196 0
M  V30 3910 C 375.721 -1.76209 0.862832 0
M  V30 3911 O 374.846 -2.16331 0.0548389 0
M  V30 3912 C 375.441 -1.07363 3.21339 0
M  V30 3913 C 374 -1.56723 3.42221 0
M  V30 3914 C 373.147 -0.50041 2.72747 0
M  V30 3915 H 376.098 0.186119 1.57605 0
M  V30 3916 H 376.119 -1.94143 3.27244 0
M  V30 3917 H 375.631 -0.218975 3.87482 0
M  V30 3918 H 373.732 -2.4441 2.81237 0
M  V30 3919 H 373.845 -1.62234 4.50796 0
M  V30 3920 H 372.209 -0.952894 2.36203 0
M  V30 3921 H 372.992 0.344599 3.41566 0
M  V30 3922 N 375.437 -1.54477 -0.31217 0
M  V30 3923 C 376.853 -1.45442 -0.657185 0
M  V30 3924 C 377.053 -0.63653 -1.91182 0
M  V30 3925 O 376.109 -0.139815 -2.52113 0
M  V30 3926 C 377.422 -2.89287 -0.82058 0
M  V30 3927 C 378.97 -2.9926 -0.917188 0
M  V30 3928 C 379.445 -4.44279 -1.11267 0
M  V30 3929 N 380.936 -4.4794 -1.17914 0
M  V30 3930 C 381.671 -5.57318 -1.34848 0
M  V30 3931 N 381.167 -6.76642 -1.48752 0
M  V30 3932 N 382.96 -5.44986 -1.37647 0
M  V30 3933 H 375.111 -2.06129 0.512313 0
M  V30 3934 H 377.374 -0.933088 0.167485 0
M  V30 3935 H 377.08 -3.51687 0.0302604 0
M  V30 3936 H 376.954 -3.36061 -1.71298 0
M  V30 3937 H 379.341 -2.36981 -1.75852 0
M  V30 3938 H 379.422 -2.558 -0.00101257 0
M  V30 3939 H 379.066 -5.07149 -0.27614 0
M  V30 3940 H 378.996 -4.85359 -2.04289 0
M  V30 3941 H 381.487 -3.61969 -1.08567 0
M  V30 3942 H 381.8 -7.55758 -1.61397 0
M  V30 3943 H 380.145 -6.79529 -1.45828 0
M  V30 3944 H 383.336 -4.50715 -1.26388 0
M  V30 3945 H 383.509 -6.3028 -1.50501 0
M  V30 3946 N 376.915 0.57481 -1.46744 0
M  V30 3947 C 377.845 1.69337 -1.60771 0
M  V30 3948 C 378.826 1.63825 -0.457736 0
M  V30 3949 O 380.011 1.8172 -0.684947 0
M  V30 3950 C 377.141 3.0798 -1.60517 0
M  V30 3951 C 376.095 3.28327 -2.74564 0
M  V30 3952 C 375.421 4.67578 -2.59373 0
M  V30 3953 C 376.721 3.15398 -4.16319 0
M  V30 3954 H 378.415 1.57853 -2.54407 0
M  V30 3955 H 375.961 0.75799 -1.22436 0
M  V30 3956 H 377.914 3.86061 -1.68923 0
M  V30 3957 H 376.638 3.20381 -0.634305 0
M  V30 3958 H 375.297 2.52649 -2.65639 0
M  V30 3959 H 374.945 4.76755 -1.60353 0
M  V30 3960 H 374.645 4.82144 -3.35873 0
M  V30 3961 H 376.169 5.47817 -2.69682 0
M  V30 3962 H 377.583 3.83315 -4.26313 0
M  V30 3963 H 375.98 3.41482 -4.93468 0
M  V30 3964 H 377.05 2.12372 -4.3592 0
M  V30 3965 N 378.394 1.34581 0.820102 0
M  V30 3966 C 379.643 1.26437 1.57151 0
M  V30 3967 C 379.956 -0.163111 1.94919 0
M  V30 3968 O 381.162 -0.366722 2.69012 0
M  V30 3969 C 379.618 2.21658 2.83541 0
M  V30 3970 C 379.226 3.69679 2.53065 0
M  V30 3971 C 380.97 2.22428 3.61561 0
M  V30 3972 C 378.877 4.56761 3.75664 0
M  V30 3973 H 377.807 0.469707 0.589823 0
M  V30 3974 H 380.458 1.59763 0.902656 0
M  V30 3975 H 378.84 1.81287 3.52067 0
M  V30 3976 H 380.014 4.18605 1.92631 0
M  V30 3977 H 378.329 3.71384 1.88316 0
M  V30 3978 H 380.926 2.8471 4.52597 0
M  V30 3979 H 381.269 1.22434 3.97889 0
M  V30 3980 H 381.802 2.61259 2.99981 0
M  V30 3981 H 378.541 5.57702 3.44454 0
M  V30 3982 H 378.061 4.12568 4.35371 0
M  V30 3983 H 379.74 4.71509 4.43044 0
M  V30 3984 N 379.872 -1.04064 1.18357 0
M  V30 3985 C 381.118 -1.77528 0.980397 0
M  V30 3986 C 381.451 -1.87948 -0.48879 0
M  V30 3987 O 380.726 -1.3876 -1.36293 0
M  V30 3988 C 381.009 -3.20797 1.63588 0
M  V30 3989 C 380.862 -3.1832 3.17793 0
M  V30 3990 C 382.181 -4.18911 1.34914 0
M  V30 3991 H 379.3 -0.644443 0.357578 0
M  V30 3992 H 381.942 -1.2156 1.46024 0
M  V30 3993 H 380.092 -3.68586 1.22788 0
M  V30 3994 H 381.764 -2.78521 3.67728 0
M  V30 3995 H 380.007 -2.56351 3.49952 0
M  V30 3996 H 380.678 -4.19489 3.58794 0
M  V30 3997 H 383.154 -3.7967 1.70265 0
M  V30 3998 H 382.03 -5.17374 1.83346 0
M  V30 3999 H 382.291 -4.41262 0.272027 0
M  V30 4000 N 381.35 -0.985608 -1.22978 0
M  V30 4001 C 382.599 -0.652881 -1.90841 0
M  V30 4002 C 382.912 0.817842 -1.77681 0
M  V30 4003 O 384.118 1.26185 -2.40395 0
M  V30 4004 C 382.574 -1.11717 -3.42122 0
M  V30 4005 C 382.182 -2.6126 -3.63933 0
M  V30 4006 C 383.926 -0.85843 -4.1573 0
M  V30 4007 C 381.833 -3.0133 -5.08876 0
M  V30 4008 H 380.763 -0.240491 -0.714619 0
M  V30 4009 H 383.414 -1.1942 -1.39324 0
M  V30 4010 H 381.796 -0.504027 -3.92779 0
M  V30 4011 H 382.97 -3.27858 -3.23799 0
M  V30 4012 H 381.285 -2.84937 -3.03644 0
M  V30 4013 H 383.882 -1.13359 -5.22546 0
M  V30 4014 H 384.225 0.205461 -4.15793 0
M  V30 4015 H 384.758 -1.43341 -3.71077 0
M  V30 4016 H 381.497 -4.06864 -5.13947 0
M  V30 4017 H 381.017 -2.3943 -5.49939 0
M  V30 4018 H 382.696 -2.92224 -5.77247 0
M  V30 4019 N 382.828 1.3818 -0.7579 0
M  V30 4020 C 384.244 1.5353 -0.435972 0
M  V30 4021 C 384.444 1.71961 1.05032 0
M  V30 4022 O 383.5 1.73307 1.83633 0
M  V30 4023 C 384.813 2.73989 -1.23898 0
M  V30 4024 C 386.361 2.87841 -1.22949 0
M  V30 4025 C 386.836 4.11266 -2.01554 0
M  V30 4026 N 388.327 4.18352 -1.98837 0
M  V30 4027 C 389.062 5.12856 -2.5645 0
M  V30 4028 N 388.558 6.13005 -3.22794 0
M  V30 4029 N 390.351 5.05238 -2.46356 0
M  V30 4030 H 382.502 1.24467 -1.7211 0
M  V30 4031 H 384.765 0.604982 -0.729864 0
M  V30 4032 H 384.471 2.66789 -2.29165 0
M  V30 4033 H 384.345 3.67294 -0.858764 0
M  V30 4034 H 386.732 2.9452 -0.184854 0
M  V30 4035 H 386.813 1.95534 -1.64924 0
M  V30 4036 H 386.457 4.05349 -3.06031 0
M  V30 4037 H 386.387 5.02661 -1.5697 0
M  V30 4038 H 388.878 3.46628 -1.50524 0
M  V30 4039 H 389.191 6.81619 -3.64165 0
M  V30 4040 H 387.536 6.13325 -3.2689 0
M  V30 4041 H 390.727 4.25938 -1.9415 0
M  V30 4042 H 390.9 5.78707 -2.91552 0
M  V30 4043 N 384.306 0.507319 1.49211 0
M  V30 4044 C 385.531 -0.033725 2.07373 0
M  V30 4045 C 385.956 -1.29485 1.36437 0
M  V30 4046 O 385.314 -1.76294 0.423087 0
M  V30 4047 C 385.362 -0.263945 3.59633 0
M  V30 4048 O 384.466 -1.33737 3.90113 0
M  V30 4049 H 383.807 0.0290331 0.663365 0
M  V30 4050 H 386.337 0.708749 1.91932 0
M  V30 4051 H 386.347 -0.493536 4.05004 0
M  V30 4052 H 385.022 0.657424 4.10671 0
M  V30 4053 H 383.599 -1.09224 3.56545 0
M  V30 4054 N 385.784 -1.5574 0.241426 0
M  V30 4055 C 387.031 -1.9881 -0.384836 0
M  V30 4056 C 387.359 -1.12947 -1.58346 0
M  V30 4057 O 386.614 -0.178993 -1.9488 0
M  V30 4058 C 386.913 -3.47308 -0.843317 0
M  V30 4059 C 386.579 -4.50223 0.246946 0
M  V30 4060 C 385.241 -4.78088 0.546399 0
M  V30 4061 C 387.593 -5.11841 0.983282 0
M  V30 4062 C 384.921 -5.64846 1.58636 0
M  V30 4063 C 387.273 -5.99727 2.01272 0
M  V30 4064 C 385.937 -6.25927 2.31888 0
M  V30 4065 H 385.207 -0.727496 -0.140821 0
M  V30 4066 H 387.854 -1.8831 0.348106 0
M  V30 4067 H 386.159 -3.55112 -1.65537 0
M  V30 4068 H 387.856 -3.78017 -1.33806 0
M  V30 4069 H 384.446 -4.286 0.00340639 0
M  V30 4070 H 388.63 -4.90366 0.765182 0
M  V30 4071 H 383.886 -5.83403 1.82896 0
M  V30 4072 H 388.06 -6.46517 2.58823 0
M  V30 4073 H 385.687 -6.92949 3.12611 0
M  V30 4074 N 387.262 0.0317525 -1.57568 0
M  V30 4075 C 388.539 0.758366 -1.803 0
M  V30 4076 C 388.919 1.93718 -0.838845 0
M  V30 4077 O 388.267 2.28187 0.119571 0
M  V30 4078 C 388.477 1.19392 -3.27943 0
M  V30 4079 C 389.825 1.61094 -3.92854 0
M  V30 4080 O 390.849 1.28857 -3.32076 0
M  V30 4081 O 389.708 2.20918 -4.99858 0
M  V30 4082 H 386.802 0.366514 -0.741348 0
M  V30 4083 H 389.348 0.00873765 -1.69698 0
M  V30 4084 H 388.12 0.352275 -3.89711 0
M  V30 4085 H 387.743 2.00365 -3.43424 0
M  V30 4086 N 388.74 1.54641 0.303973 0
M  V30 4087 C 389.986 1.74038 1.04109 0
M  V30 4088 C 390.319 0.523051 1.87024 0
M  V30 4089 O 389.594 -0.479874 1.88487 0
M  V30 4090 C 389.877 3.02761 1.94955 0
M  V30 4091 C 389.73 4.34787 1.1524 0
M  V30 4092 C 391.049 3.27336 2.94175 0
M  V30 4093 H 388.168 0.63323 0.377079 0
M  V30 4094 H 390.81 1.87354 0.316001 0
M  V30 4095 H 388.96 2.9154 2.56782 0
M  V30 4096 H 390.632 4.57922 0.557236 0
M  V30 4097 H 388.875 4.31407 0.455053 0
M  V30 4098 H 389.546 5.21116 1.8205 0
M  V30 4099 H 392.022 3.38148 2.42477 0
M  V30 4100 H 390.898 4.18726 3.54908 0
M  V30 4101 H 391.159 2.45491 3.67677 0
M  V30 4102 N 390.218 -0.567019 1.47046 0
M  V30 4103 C 391.166 -1.69593 1.59188 0
M  V30 4104 C 392.16 -1.63046 0.459609 0
M  V30 4105 O 393.366 -1.6835 0.637058 0
M  V30 4106 H 389.741 -0.560993 0.500791 0
M  V30 4107 H 391.712 -1.56488 2.54075 0
M  V30 4108 C 390.461 -3.07964 1.61411 0
M  V30 4109 H 389.784 -3.13679 2.47881 0
M  V30 4110 H 391.224 -3.86671 1.73958 0
M  V30 4111 C 389.683 -3.35123 0.34559 0
M  V30 4112 O 390.213 -3.97812 -0.557521 0
M  V30 4113 N 388.419 -2.89699 0.22864 0
M  V30 4114 H 387.966 -2.38863 0.964479 0
M  V30 4115 H 387.924 -3.08242 -0.619192 0
M  V30 4116 N 391.696 -1.35014 -0.812953 0
M  V30 4117 C 392.643 -1.27412 -1.92444 0
M  V30 4118 C 393.613 -0.14733 -1.65445 0
M  V30 4119 O 394.798 -0.329974 -1.87925 0
M  V30 4120 C 391.938 -1.04558 -3.28879 0
M  V30 4121 C 391.051 -2.26101 -3.68106 0
M  V30 4122 C 390.186 -1.96449 -4.9354 0
M  V30 4123 C 389.225 -3.14081 -5.25376 0
M  V30 4124 N 388.362 -2.84246 -6.41988 0
M  V30 4125 H 393.202 -2.22463 -1.98278 0
M  V30 4126 H 390.739 -1.10593 -0.969933 0
M  V30 4127 H 392.697 -0.893413 -4.07522 0
M  V30 4128 H 391.327 -0.131719 -3.22531 0
M  V30 4129 H 390.379 -2.52204 -2.84775 0
M  V30 4130 H 391.691 -3.13959 -3.87597 0
M  V30 4131 H 390.845 -1.78026 -5.79993 0
M  V30 4132 H 389.584 -1.05867 -4.76071 0
M  V30 4133 H 388.589 -3.33089 -4.37415 0
M  V30 4134 H 389.814 -4.05455 -5.44778 0
M  V30 4135 H 387.76 -1.96252 -6.25956 0
M  V30 4136 H 387.677 -3.65637 -6.61699 0
M  V30 4137 H 388.945 -2.6935 -7.31485 0
M  V30 4138 N 393.175 1.03435 -1.18907 0
M  V30 4139 C 394.586 1.58195 -0.991523 0
M  V30 4140 C 394.937 1.90801 0.457081 0
M  V30 4141 O 394.062 1.70272 1.33553 0
M  V30 4142 C 394.657 2.87432 -1.79355 0
M  V30 4143 C 393.216 3.38785 -1.64017 0
M  V30 4144 C 392.363 2.12292 -1.78402 0
M  V30 4145 H 395.314 0.860299 -1.33359 0
M  V30 4146 H 395.335 3.58096 -1.28638 0
M  V30 4147 H 394.847 2.63669 -2.84781 0
M  V30 4148 H 392.948 3.67547 -0.611536 0
M  V30 4149 H 393.061 4.12186 -2.44212 0
M  V30 4150 H 391.425 2.23901 -1.2141 0
M  V30 4151 H 392.208 1.90977 -2.85277 0
M  V30 4152 N 394.653 0.992116 1.22453 0
M  V30 4153 C 395.901 0.666215 1.90804 0
M  V30 4154 C 396.222 -0.804152 1.77647 0
M  V30 4155 O 395.492 -1.57629 1.16318 0
M  V30 4156 H 394.072 0.243423 0.706225 0
M  V30 4157 H 396.734 1.25845 1.48825 0
M  V30 4158 H 395.83 0.928069 2.97982 0
M  V30 4159 N 396.131 -1.37776 0.765217 0
M  V30 4160 C 397.371 -2.01691 0.331669 0
M  V30 4161 C 397.735 -1.59432 -1.06983 0
M  V30 4162 O 398.936 -2.15761 -1.60314 0
M  V30 4163 C 397.207 -3.54385 0.463261 0
M  V30 4164 S 398.766 -4.38652 0.114011 0
M  V30 4165 H 395.584 -0.699387 0.127979 0
M  V30 4166 H 398.186 -1.68084 0.998396 0
M  V30 4167 H 396.89 -3.82629 1.48401 0
M  V30 4168 H 396.421 -3.92783 -0.220246 0
M  V30 4169 H 398.436 -4.84021 -1.09261 0
M  V30 4170 N 397.609 -0.515225 -1.4894 0
M  V30 4171 C 398.519 0.259774 -2.33157 0
M  V30 4172 C 399.535 0.953501 -1.45548 0
M  V30 4173 O 400.711 0.931735 -1.78552 0
M  V30 4174 C 397.776 1.30193 -3.21326 0
M  V30 4175 C 396.837 0.620129 -4.24797 0
M  V30 4176 C 396.07 1.61263 -5.08753 0
M  V30 4177 O 396.293 2.84389 -4.94448 0
M  V30 4178 O 395.227 1.16013 -5.90614 0
M  V30 4179 H 399.053 -0.429932 -3.00641 0
M  V30 4180 H 396.638 -0.276346 -1.46822 0
M  V30 4181 H 398.52 1.90455 -3.75905 0
M  V30 4182 H 397.195 1.97431 -2.56521 0
M  V30 4183 H 396.102 -0.0226019 -3.74093 0
M  V30 4184 H 397.435 -0.0100493 -4.92199 0
M  V30 4185 N 399.087 1.5561 -0.249682 0
M  V30 4186 C 400.333 1.99306 0.374841 0
M  V30 4187 C 400.666 1.13767 1.57387 0
M  V30 4188 O 399.941 0.201711 1.93451 0
M  V30 4189 C 400.224 3.51507 0.781986 0
M  V30 4190 C 400.077 4.4781 -0.422629 0
M  V30 4191 C 401.396 4.08884 1.62793 0
M  V30 4192 H 398.515 0.724572 0.134773 0
M  V30 4193 H 401.157 1.86719 -0.351549 0
M  V30 4194 H 399.307 3.62363 1.4009 0
M  V30 4195 H 400.979 4.48931 -1.06108 0
M  V30 4196 H 399.222 4.20518 -1.06524 0
M  V30 4197 H 399.893 5.51919 -0.0943766 0
M  V30 4198 H 402.369 4.01147 1.10547 0
M  V30 4199 H 401.245 5.1564 1.88166 0
M  V30 4200 H 401.506 3.57515 2.60068 0
M  V30 4201 N 400.565 -0.0233959 1.57583 0
M  V30 4202 C 401.842 -0.748794 1.807 0
M  V30 4203 C 402.222 -1.9327 0.849106 0
M  V30 4204 O 401.57 -2.28247 -0.107468 0
M  V30 4205 C 401.78 -1.17651 3.28571 0
M  V30 4206 C 403.128 -1.59008 3.93702 0
M  V30 4207 O 404.152 -1.27094 3.32755 0
M  V30 4208 O 403.011 -2.18264 5.01022 0
M  V30 4209 H 400.105 -0.362578 0.743281 0
M  V30 4210 H 402.651 0.000261958 1.697 0
M  V30 4211 H 401.423 -0.331603 3.89892 0
M  V30 4212 H 401.046 -1.98541 3.44481 0
M  V30 4213 N 402.043 -1.548 -0.295768 0
M  V30 4214 C 403.32 -1.65014 -1.05023 0
M  V30 4215 C 403.7 -0.501805 -2.05049 0
M  V30 4216 O 403.048 0.500869 -2.22943 0
M  V30 4217 C 403.258 -3.03252 -1.72741 0
M  V30 4218 C 404.606 -3.60242 -2.24746 0
M  V30 4219 O 405.63 -3.05737 -1.82765 0
M  V30 4220 O 404.489 -4.55687 -3.01681 0
M  V30 4221 H 401.583 -0.669314 -0.485744 0
M  V30 4222 H 404.129 -1.67144 -0.293438 0
M  V30 4223 H 402.901 -3.7827 -1.00138 0
M  V30 4224 H 402.524 -3.04922 -2.55163 0
M  V30 4225 N 403.521 0.559213 -1.47345 0
M  V30 4226 C 404.451 1.67622 -1.62558 0
M  V30 4227 C 405.432 1.63331 -0.475087 0
M  V30 4228 O 406.617 1.80983 -0.704182 0
M  V30 4229 C 403.747 3.0626 -1.63774 0
M  V30 4230 C 402.701 3.25397 -2.7803 0
M  V30 4231 C 402.027 4.64801 -2.64318 0
M  V30 4232 C 403.327 3.10965 -4.19641 0
M  V30 4233 H 405.021 1.55146 -2.56067 0
M  V30 4234 H 402.567 0.744961 -1.23233 0
M  V30 4235 H 404.52 3.84247 -1.73008 0
M  V30 4236 H 403.244 3.1969 -0.66825 0
M  V30 4237 H 401.903 2.49817 -2.68304 0
M  V30 4238 H 401.551 4.75028 -1.65401 0
M  V30 4239 H 401.251 4.78555 -3.40968 0
M  V30 4240 H 402.775 5.44926 -2.75478 0
M  V30 4241 H 404.189 3.78772 -4.30354 0
M  V30 4242 H 402.586 3.36229 -4.97062 0
M  V30 4243 H 403.656 2.07736 -4.38148 0
M  V30 4244 N 404.999 1.35443 0.805782 0
M  V30 4245 C 405.946 1.28431 1.91766 0
M  V30 4246 C 406.916 0.156102 1.65365 0
M  V30 4247 O 408.101 0.339936 1.87747 0
M  V30 4248 C 405.241 1.06301 3.2832 0
M  V30 4249 C 404.354 2.2805 3.66902 0
M  V30 4250 C 403.489 1.99064 4.92491 0
M  V30 4251 C 402.528 3.16863 5.23703 0
M  V30 4252 N 401.665 2.87647 6.40471 0
M  V30 4253 H 406.505 2.23511 1.97096 0
M  V30 4254 H 404.042 1.11105 0.964054 0
M  V30 4255 H 406 0.915012 4.07042 0
M  V30 4256 H 404.63 0.148822 3.22457 0
M  V30 4257 H 403.682 2.53711 2.83434 0
M  V30 4258 H 404.994 3.1601 3.85927 0
M  V30 4259 H 404.148 1.81099 5.7904 0
M  V30 4260 H 402.887 1.0839 4.75503 0
M  V30 4261 H 401.892 3.35404 4.35642 0
M  V30 4262 H 403.117 4.08339 5.4262 0
M  V30 4263 H 401.063 1.99568 6.24907 0
M  V30 4264 H 400.98 3.69141 6.59751 0
M  V30 4265 H 402.248 2.73226 7.30047 0
M  V30 4266 N 406.477 -1.02803 1.19454 0
M  V30 4267 C 407.725 -1.75869 0.995722 0
M  V30 4268 C 408.046 -1.89138 -0.474543 0
M  V30 4269 O 407.316 -1.42558 -1.34366 0
M  V30 4270 H 405.896 -0.651511 0.365435 0
M  V30 4271 H 408.558 -1.24004 1.50363 0
M  V30 4272 H 407.654 -2.76661 1.44447 0
M  V30 4273 N 407.956 -0.998596 -1.21925 0
M  V30 4274 C 409.204 -0.676325 -1.90448 0
M  V30 4275 C 409.525 0.794719 -1.78071 0
M  V30 4276 O 408.795 1.5701 -1.17152 0
M  V30 4277 H 407.375 -0.247165 -0.704925 0
M  V30 4278 H 410.037 -1.26633 -1.48156 0
M  V30 4279 H 409.133 -0.943858 -2.97486 0
M  V30 4280 N 409.434 1.37368 -0.772513 0
M  V30 4281 C 410.68 1.99969 -0.337681 0
M  V30 4282 C 411.013 1.61184 1.08321 0
M  V30 4283 O 410.288 0.858395 1.74533 0
M  V30 4284 C 410.571 3.56858 -0.482121 0
M  V30 4285 C 410.424 4.0555 -1.94549 0
M  V30 4286 C 411.743 4.39955 0.113143 0
M  V30 4287 H 408.862 0.726464 -0.124171 0
M  V30 4288 H 411.504 1.63034 -0.975699 0
M  V30 4289 H 409.654 3.88452 0.0610361 0
M  V30 4290 H 411.326 3.84518 -2.54841 0
M  V30 4291 H 409.569 3.57715 -2.45403 0
M  V30 4292 H 410.24 5.14587 -1.9976 0
M  V30 4293 H 412.716 4.14623 -0.35031 0
M  V30 4294 H 411.592 5.48897 -0.0180514 0
M  V30 4295 H 411.853 4.25403 1.20354 0
M  V30 4296 N 410.912 0.523116 1.48665 0
M  V30 4297 C 411.875 -0.232592 2.28017 0
M  V30 4298 C 412.875 -0.874021 1.34972 0
M  V30 4299 O 414.065 -0.735132 1.57929 0
M  V30 4300 C 411.197 -1.33586 3.13636 0
M  V30 4301 H 412.39 0.464008 2.96289 0
M  V30 4302 H 409.943 0.278816 1.53793 0
M  V30 4303 H 410.678 -2.06593 2.4998 0
M  V30 4304 H 410.463 -0.881125 3.82071 0
M  V30 4305 H 411.953 -1.86759 3.73511 0
M  V30 4306 N 412.39 -1.55475 0.257931 0
M  V30 4307 C 413.638 -1.98813 -0.363009 0
M  V30 4308 C 413.959 -1.14757 -1.57657 0
M  V30 4309 O 413.229 -0.232956 -1.9451 0
M  V30 4310 H 411.809 -0.734308 -0.137113 0
M  V30 4311 H 414.471 -1.9156 0.359281 0
M  V30 4312 H 413.567 -3.04941 -0.664634 0
M  V30 4313 N 413.868 0.0150385 -1.57593 0
M  V30 4314 C 415.116 0.701613 -1.8953 0
M  V30 4315 C 415.437 1.75139 -0.857396 0
M  V30 4316 O 414.707 1.95607 0.107194 0
M  V30 4317 H 413.287 0.26213 -0.699498 0
M  V30 4318 H 415.949 -0.0223304 -1.94887 0
M  V30 4319 H 415.045 1.18236 -2.88837 0
M  V30 4320 N 415.346 1.54954 0.287554 0
M  V30 4321 C 416.571 1.79209 1.04397 0
M  V30 4322 C 416.996 0.556431 1.79682 0
M  V30 4323 O 416.354 -0.493518 1.74454 0
M  V30 4324 C 416.402 3.00739 1.98969 0
M  V30 4325 O 415.506 2.74805 3.075 0
M  V30 4326 H 414.847 0.592755 0.299227 0
M  V30 4327 H 417.377 2.02068 0.320886 0
M  V30 4328 H 417.387 3.29077 2.4119 0
M  V30 4329 H 416.062 3.90329 1.43582 0
M  V30 4330 H 414.639 2.57523 2.69697 0
M  V30 4331 N 416.824 -0.551391 1.4764 0
M  V30 4332 C 418.073 -1.30467 1.53822 0
M  V30 4333 C 418.386 -1.94495 0.207661 0
M  V30 4334 O 419.592 -2.71099 0.147533 0
M  V30 4335 C 418.048 -2.36616 2.71184 0
M  V30 4336 C 417.656 -1.78754 4.10793 0
M  V30 4337 C 419.4 -3.13088 2.86663 0
M  V30 4338 C 417.307 -2.82717 5.19447 0
M  V30 4339 H 416.237 -0.490584 0.572576 0
M  V30 4340 H 418.888 -0.58494 1.73927 0
M  V30 4341 H 417.27 -3.11529 2.4447 0
M  V30 4342 H 418.444 -1.10173 4.47435 0
M  V30 4343 H 416.759 -1.14846 4.00249 0
M  V30 4344 H 419.356 -3.90736 3.65007 0
M  V30 4345 H 419.699 -3.67635 1.95321 0
M  V30 4346 H 420.232 -2.45288 3.13175 0
M  V30 4347 H 416.971 -2.33018 6.12685 0
M  V30 4348 H 416.491 -3.4969 4.87316 0
M  V30 4349 H 418.17 -3.46102 5.46646 0
M  V30 4350 N 418.302 -1.35869 -0.798587 0
M  V30 4351 C 419.232 -1.32118 -1.92528 0
M  V30 4352 C 420.213 -0.194209 -1.68988 0
M  V30 4353 O 421.398 -0.390426 -1.90235 0
M  V30 4354 C 418.528 -1.10047 -3.29404 0
M  V30 4355 C 417.482 -2.19471 -3.67446 0
M  V30 4356 C 416.808 -1.82555 -5.02571 0
M  V30 4357 C 418.108 -3.61495 -3.76987 0
M  V30 4358 H 419.802 -2.26394 -1.95924 0
M  V30 4359 H 417.348 -1.08981 -0.94123 0
M  V30 4360 H 419.301 -1.06061 -4.07835 0
M  V30 4361 H 418.025 -0.122195 -3.26371 0
M  V30 4362 H 416.684 -2.22568 -2.91306 0
M  V30 4363 H 416.332 -0.833249 -4.9605 0
M  V30 4364 H 416.032 -2.5581 -5.28995 0
M  V30 4365 H 417.556 -1.80108 -5.83432 0
M  V30 4366 H 418.97 -3.60676 -4.4563 0
M  V30 4367 H 417.367 -4.33577 -4.14887 0
M  V30 4368 H 418.437 -3.97065 -2.78329 0
M  V30 4369 N 419.78 1.02168 -1.19998 0
M  V30 4370 C 420.727 2.10601 -0.944228 0
M  V30 4371 C 421.697 1.65639 0.123664 0
M  V30 4372 O 422.882 1.9079 -0.0199941 0
M  V30 4373 C 420.022 3.41504 -0.496865 0
M  V30 4374 C 419.135 3.99973 -1.63234 0
M  V30 4375 C 418.27 5.18915 -1.13579 0
M  V30 4376 C 417.309 5.69456 -2.24468 0
M  V30 4377 N 416.446 6.79665 -1.76068 0
M  V30 4378 H 421.286 2.31814 -1.8726 0
M  V30 4379 H 418.823 1.13686 -0.933483 0
M  V30 4380 H 420.781 4.16626 -0.218843 0
M  V30 4381 H 419.411 3.2038 0.394508 0
M  V30 4382 H 418.463 3.21997 -2.0254 0
M  V30 4383 H 419.775 4.33492 -2.46752 0
M  V30 4384 H 418.929 6.01222 -0.813429 0
M  V30 4385 H 417.668 4.8695 -0.270434 0
M  V30 4386 H 416.673 4.85757 -2.57526 0
M  V30 4387 H 417.898 6.03459 -3.11472 0
M  V30 4388 H 415.844 6.49538 -0.918516 0
M  V30 4389 H 415.761 7.12349 -2.5317 0
M  V30 4390 H 417.029 7.65549 -1.46817 0
M  V30 4391 N 421.258 1.00505 1.21394 0
M  V30 4392 C 422.506 0.686415 1.90086 0
M  V30 4393 C 422.827 -0.785264 1.7849 0
M  V30 4394 O 422.097 -1.56387 1.17983 0
M  V30 4395 H 420.677 0.2509 0.703604 0
M  V30 4396 H 423.339 1.27417 1.47482 0
M  V30 4397 H 422.435 0.959621 2.96981 0
M  V30 4398 N 422.737 -1.36956 0.779787 0
M  V30 4399 C 423.983 -1.99787 0.348281 0
M  V30 4400 C 424.316 -1.61756 -1.07465 0
M  V30 4401 O 423.591 -0.867639 -1.74075 0
M  V30 4402 C 423.874 -3.56597 0.50104 0
M  V30 4403 C 423.727 -4.04513 1.96697 0
M  V30 4404 C 425.046 -4.40008 -0.0898097 0
M  V30 4405 H 422.165 -0.725796 0.128022 0
M  V30 4406 H 424.807 -1.62514 0.984331 0
M  V30 4407 H 422.957 -3.88479 -0.0404347 0
M  V30 4408 H 424.629 -3.83161 2.56876 0
M  V30 4409 H 422.872 -3.56408 2.47297 0
M  V30 4410 H 423.543 -5.1352 2.02486 0
M  V30 4411 H 426.019 -4.14431 0.372293 0
M  V30 4412 H 424.895 -5.4888 0.0471605 0
M  V30 4413 H 425.156 -4.26035 -1.18096 0
M  V30 4414 N 424.215 -0.530993 -1.48385 0
M  V30 4415 C 425.145 0.219985 -2.32461 0
M  V30 4416 C 426.126 0.934111 -1.42156 0
M  V30 4417 O 427.311 0.919694 -1.71042 0
M  V30 4418 C 424.441 1.26674 -3.23375 0
M  V30 4419 C 423.395 0.67069 -4.22712 0
M  V30 4420 C 422.721 1.82017 -5.02766 0
M  V30 4421 C 424.021 -0.358268 -5.2107 0
M  V30 4422 H 425.715 -0.48187 -2.95497 0
M  V30 4423 H 423.261 -0.233182 -1.42099 0
M  V30 4424 H 425.214 1.80006 -3.81019 0
M  V30 4425 H 423.938 1.99818 -2.58341 0
M  V30 4426 H 422.597 0.158878 -3.66256 0
M  V30 4427 H 422.245 2.54002 -4.34157 0
M  V30 4428 H 421.945 1.42727 -5.70003 0
M  V30 4429 H 423.469 2.35725 -5.63264 0
M  V30 4430 H 424.883 0.0880081 -5.73232 0
M  V30 4431 H 423.28 -0.66861 -5.96364 0
M  V30 4432 H 424.35 -1.26367 -4.68145 0
M  V30 4433 N 425.693 1.55336 -0.266172 0
M  V30 4434 C 426.64 2.22172 0.625165 0
M  V30 4435 C 427.61 1.19211 1.15663 0
M  V30 4436 O 428.795 1.47723 1.20758 0
M  V30 4437 C 425.935 2.93972 1.8076 0
M  V30 4438 C 425.048 4.11632 1.31084 0
M  V30 4439 C 424.183 4.71099 2.45436 0
M  V30 4440 C 423.222 5.8097 1.92718 0
M  V30 4441 N 422.359 6.34538 3.00509 0
M  V30 4442 H 427.199 2.9796 0.0485582 0
M  V30 4443 H 424.736 1.47095 0.0122024 0
M  V30 4444 H 426.694 3.33811 2.50251 0
M  V30 4445 H 425.324 2.20623 2.35638 0
M  V30 4446 H 424.376 3.76975 0.509326 0
M  V30 4447 H 425.688 4.90893 0.884633 0
M  V30 4448 H 424.842 5.13612 3.22936 0
M  V30 4449 H 423.581 3.91096 2.91368 0
M  V30 4450 H 422.586 5.37916 1.13695 0
M  V30 4451 H 423.811 6.62836 1.47733 0
M  V30 4452 H 421.757 5.57433 3.45839 0
M  V30 4453 H 421.674 7.09046 2.62279 0
M  V30 4454 H 422.942 6.81709 3.78011 0
M  V30 4455 N 427.171 -0.0066808 1.57599 0
M  V30 4456 C 428.417 -0.693947 1.90558 0
M  V30 4457 C 428.75 -1.73792 0.866594 0
M  V30 4458 O 428.025 -1.94156 -0.115548 0
M  V30 4459 C 428.308 -1.34317 3.34112 0
M  V30 4460 C 428.161 -0.311189 4.48722 0
M  V30 4461 C 429.48 -2.27116 3.7697 0
M  V30 4462 H 426.599 -0.250803 0.693013 0
M  V30 4463 H 429.241 0.043242 1.89951 0
M  V30 4464 H 427.391 -1.9715 3.3476 0
M  V30 4465 H 429.063 0.316944 4.6021 0
M  V30 4466 H 427.306 0.367253 4.32243 0
M  V30 4467 H 427.977 -0.804366 5.46108 0
M  V30 4468 H 430.453 -1.74306 3.77831 0
M  V30 4469 H 429.329 -2.69511 4.78179 0
M  V30 4470 H 429.59 -3.14743 3.10466 0
M  V30 4471 N 428.649 -1.55105 -0.279332 0
M  V30 4472 C 429.897 -1.75066 -1.00977 0
M  V30 4473 C 430.218 -0.551276 -1.87045 0
M  V30 4474 O 429.488 0.433984 -1.91032 0
M  V30 4475 H 428.068 -0.645578 -0.375816 0
M  V30 4476 H 430.73 -1.92497 -0.305089 0
M  V30 4477 H 429.826 -2.64894 -1.65038 0
M  V30 4478 N 430.127 0.543554 -1.4793 0
M  V30 4479 C 431.059 1.665 -1.57513 0
M  V30 4480 C 432.072 1.56156 -0.460333 0
M  V30 4481 O 433.261 1.62865 -0.730573 0
M  V30 4482 C 430.361 3.05063 -1.47614 0
M  V30 4483 C 429.534 3.41024 -2.739 0
M  V30 4484 C 428.593 4.58809 -2.57645 0
M  V30 4485 O 427.619 4.62707 -3.31498 0
M  V30 4486 N 428.821 5.56149 -1.66368 0
M  V30 4487 H 431.586 1.5872 -2.5422 0
M  V30 4488 H 429.147 0.730517 -1.44482 0
M  V30 4489 H 431.139 3.81712 -1.34455 0
M  V30 4490 H 429.709 3.06994 -0.589359 0
M  V30 4491 H 428.929 2.53687 -3.01723 0
M  V30 4492 H 430.217 3.61831 -3.57709 0
M  V30 4493 H 429.615 5.55767 -1.05543 0
M  V30 4494 H 428.172 6.32071 -1.59154 0
M  V30 4495 N 431.605 1.3629 0.791371 0
M  V30 4496 C 432.515 1.32606 1.93527 0
M  V30 4497 C 433.531 0.228541 1.72493 0
M  V30 4498 O 434.707 0.460571 1.96063 0
M  V30 4499 C 431.772 1.11271 3.28359 0
M  V30 4500 C 430.833 2.3048 3.62185 0
M  V30 4501 C 430.066 2.10154 4.90583 0
M  V30 4502 O 430.289 1.07572 5.60165 0
M  V30 4503 O 429.223 2.97884 5.23019 0
M  V30 4504 H 433.049 2.28909 1.99585 0
M  V30 4505 H 430.634 1.16818 0.931344 0
M  V30 4506 H 432.516 1.01283 4.09047 0
M  V30 4507 H 431.191 0.180292 3.23198 0
M  V30 4508 H 430.098 2.46036 2.81811 0
M  V30 4509 H 431.431 3.22221 3.72068 0
M  V30 4510 N 433.083 -1.0153 1.20538 0
M  V30 4511 C 434.332 -1.74558 1.01057 0
M  V30 4512 C 434.645 -1.90168 -0.457756 0
M  V30 4513 O 435.851 -2.60301 -0.771722 0
M  V30 4514 C 434.307 -3.13963 1.75941 0
M  V30 4515 C 433.915 -3.06361 3.26875 0
M  V30 4516 C 435.659 -3.91191 1.64832 0
M  V30 4517 C 433.566 -4.40782 3.94291 0
M  V30 4518 H 432.496 -0.654417 0.374505 0
M  V30 4519 H 435.147 -1.13521 1.44171 0
M  V30 4520 H 433.529 -3.75549 1.25614 0
M  V30 4521 H 434.703 -2.54074 3.84425 0
M  V30 4522 H 433.018 -2.42625 3.38411 0
M  V30 4523 H 435.615 -4.90644 2.12539 0
M  V30 4524 H 435.958 -4.11884 0.604745 0
M  V30 4525 H 436.491 -3.36236 2.12579 0
M  V30 4526 H 433.23 -4.25292 4.98805 0
M  V30 4527 H 432.75 -4.9307 3.41529 0
M  V30 4528 H 434.429 -5.09621 3.98617 0
M  V30 4529 N 434.561 -1.01147 -1.20859 0
M  V30 4530 C 435.471 -0.58686 -2.27141 0
M  V30 4531 C 436.487 0.373198 -1.69951 0
M  V30 4532 O 437.663 0.235423 -2.00019 0
M  V30 4533 C 434.728 0.0733602 -3.46622 0
M  V30 4534 C 433.789 -0.931995 -4.19061 0
M  V30 4535 C 433.022 -0.303186 -5.32838 0
M  V30 4536 O 433.245 0.898395 -5.63281 0
M  V30 4537 O 432.179 -1.01735 -5.9324 0
M  V30 4538 H 436.005 -1.47155 -2.65667 0
M  V30 4539 H 433.59 -0.780689 -1.2738 0
M  V30 4540 H 435.472 0.442333 -4.19072 0
M  V30 4541 H 434.147 0.932329 -3.09983 0
M  V30 4542 H 433.054 -1.35224 -3.48805 0
M  V30 4543 H 434.387 -1.76076 -4.59628 0
M  V30 4544 N 436.039 1.36541 -0.78704 0
M  V30 4545 C 437.285 1.99599 -0.358872 0
M  V30 4546 C 437.618 1.62323 1.06606 0
M  V30 4547 O 436.893 0.876858 1.73613 0
M  V30 4548 C 437.176 3.56327 -0.519944 0
M  V30 4549 C 437.029 4.03464 -1.98839 0
M  V30 4550 C 438.348 4.4005 0.0664737 0
M  V30 4551 H 435.467 0.725107 -0.131869 0
M  V30 4552 H 438.109 1.6199 -0.992936 0
M  V30 4553 H 436.259 3.88495 0.0198321 0
M  V30 4554 H 437.931 3.81793 -2.58905 0
M  V30 4555 H 436.174 3.55092 -2.49183 0
M  V30 4556 H 436.845 5.12439 -2.05207 0
M  V30 4557 H 439.321 4.14228 -0.394267 0
M  V30 4558 H 438.197 5.48847 -0.0762682 0
M  V30 4559 H 438.458 4.26655 1.15835 0
M  V30 4560 N 437.518 0.538854 1.48102 0
M  V30 4561 C 438.934 0.19732 1.58376 0
M  V30 4562 C 439.134 -1.29971 1.5398 0
M  V30 4563 O 438.19 -2.07861 1.43352 0
M  V30 4564 C 439.503 0.807716 2.89649 0
M  V30 4565 C 441.051 0.77726 3.03196 0
M  V30 4566 C 441.526 1.36639 4.37143 0
M  V30 4567 N 443.017 1.32875 4.43732 0
M  V30 4568 C 443.752 1.7544 5.45901 0
M  V30 4569 N 443.248 2.25776 6.54979 0
M  V30 4570 N 445.041 1.66623 5.36836 0
M  V30 4571 H 437.192 1.5117 1.49202 0
M  V30 4572 H 439.455 0.629327 0.708979 0
M  V30 4573 H 439.161 1.85909 2.98548 0
M  V30 4574 H 439.035 0.289975 3.76084 0
M  V30 4575 H 441.422 -0.265374 2.93904 0
M  V30 4576 H 441.503 1.33256 2.18349 0
M  V30 4577 H 441.147 2.408 4.47189 0
M  V30 4578 H 441.077 0.786689 5.20691 0
M  V30 4579 H 443.568 0.96037 3.65493 0
M  V30 4580 H 443.881 2.56226 7.29087 0
M  V30 4581 H 442.226 2.29775 6.55918 0
M  V30 4582 H 445.417 1.27089 4.50517 0
M  V30 4583 H 445.59 2.00115 6.16326 0
M  V30 4584 N 438.996 -1.55193 0.274407 0
M  V30 4585 C 440.407 -1.85358 -0.223488 0
M  V30 4586 C 440.758 -1.19642 -1.555 0
M  V30 4587 O 439.883 -0.484498 -2.10907 0
M  V30 4588 C 440.478 -3.36282 -0.412285 0
M  V30 4589 C 439.037 -3.66574 -0.854413 0
M  V30 4590 C 438.184 -2.7725 0.0527056 0
M  V30 4591 H 441.135 -1.50743 0.496215 0
M  V30 4592 H 441.156 -3.59349 -1.25094 0
M  V30 4593 H 440.668 -3.84083 0.556965 0
M  V30 4594 H 438.769 -3.24273 -1.83516 0
M  V30 4595 H 438.882 -4.74073 -0.692226 0
M  V30 4596 H 437.246 -2.50447 -0.463484 0
M  V30 4597 H 438.029 -3.27865 1.01783 0
M  V30 4598 N 440.474 -0.00167713 -1.576 0
M  V30 4599 C 441.722 0.681471 -1.90264 0
M  V30 4600 C 442.043 1.7422 -0.875924 0
M  V30 4601 O 441.313 1.95709 0.0864412 0
M  V30 4602 H 439.893 0.254696 -0.702239 0
M  V30 4603 H 442.555 -0.0429996 -1.94853 0
M  V30 4604 H 441.651 1.15166 -2.90075 0
M  V30 4605 N 441.952 1.55251 0.271103 0
M  V30 4606 C 443.201 1.75151 1.00025 0
M  V30 4607 C 443.514 0.561041 1.87381 0
M  V30 4608 O 444.72 0.642506 2.63788 0
M  V30 4609 C 443.176 3.09999 1.82835 0
M  V30 4610 C 442.784 4.3662 1.00336 0
M  V30 4611 C 444.528 3.39249 2.55168 0
M  V30 4612 C 442.435 5.62506 1.82595 0
M  V30 4613 H 441.365 0.652877 0.377183 0
M  V30 4614 H 444.016 1.81708 0.255843 0
M  V30 4615 H 442.398 2.97485 2.61378 0
M  V30 4616 H 443.572 4.60055 0.261959 0
M  V30 4617 H 441.887 4.14527 0.394486 0
M  V30 4618 H 444.484 4.3051 3.1712 0
M  V30 4619 H 444.827 2.59467 3.2555 0
M  V30 4620 H 445.36 3.52869 1.83653 0
M  V30 4621 H 442.099 6.45041 1.16631 0
M  V30 4622 H 441.619 5.43211 2.54327 0
M  V30 4623 H 443.298 6.00875 2.39913 0
M  V30 4624 N 443.43 -0.535701 1.48216 0
M  V30 4625 C 444.676 -1.29375 1.56173 0
M  V30 4626 C 445.009 -1.92804 0.232429 0
M  V30 4627 O 444.284 -1.78992 -0.761048 0
M  V30 4628 C 444.567 -2.38747 2.69577 0
M  V30 4629 C 444.42 -1.80046 4.12193 0
M  V30 4630 C 445.739 -3.40551 2.78771 0
M  V30 4631 H 442.858 -0.469027 0.568491 0
M  V30 4632 H 445.5 -0.597358 1.80365 0
M  V30 4633 H 443.65 -2.98147 2.4908 0
M  V30 4634 H 445.322 -1.24742 4.44114 0
M  V30 4635 H 443.565 -1.10609 4.19462 0
M  V30 4636 H 444.236 -2.59212 4.87353 0
M  V30 4637 H 446.712 -2.91099 2.97322 0
M  V30 4638 H 445.588 -4.1448 3.59857 0
M  V30 4639 H 445.849 -4.00746 1.86696 0
M  V30 4640 N 444.908 -1.36708 -0.784132 0
M  V30 4641 C 446.133 -1.34565 -1.5782 0
M  V30 4642 C 446.558 0.0695257 -1.87971 0
M  V30 4643 O 445.916 1.04302 -1.48293 0
M  V30 4644 C 445.964 -2.17952 -2.87279 0
M  V30 4645 O 445.068 -1.57563 -3.81114 0
M  V30 4646 H 444.409 -0.460337 -0.478524 0
M  V30 4647 H 446.939 -1.80064 -0.971495 0
M  V30 4648 H 446.949 -2.30721 -3.365 0
M  V30 4649 H 445.624 -3.20823 -2.64661 0
M  V30 4650 H 444.201 -1.53764 -3.39722 0
M  V30 4651 N 446.386 1.0089 -1.21074 0
M  V30 4652 C 447.333 2.09588 -0.966512 0
M  V30 4653 C 448.303 1.65761 0.106089 0
M  V30 4654 O 449.488 1.90758 -0.0402287 0
M  V30 4655 C 446.628 3.40958 -0.533058 0
M  V30 4656 C 445.741 3.9822 -1.67467 0
M  V30 4657 C 444.876 5.17682 -1.19076 0
M  V30 4658 C 443.915 5.67043 -2.30496 0
M  V30 4659 N 443.052 6.77759 -1.83267 0
M  V30 4660 H 447.892 2.29815 -1.89708 0
M  V30 4661 H 445.429 1.12689 -0.945489 0
M  V30 4662 H 447.387 4.1637 -0.263019 0
M  V30 4663 H 446.017 3.20781 0.360505 0
M  V30 4664 H 445.069 3.1983 -2.05944 0
M  V30 4665 H 446.381 4.3085 -2.51336 0
M  V30 4666 H 445.535 6.00326 -0.877151 0
M  V30 4667 H 444.274 4.86635 -0.322066 0
M  V30 4668 H 443.279 4.82999 -2.62664 0
M  V30 4669 H 444.504 6.00121 -3.17855 0
M  V30 4670 H 442.45 6.48527 -0.987356 0
M  V30 4671 H 442.367 7.09624 -2.60711 0
M  V30 4672 H 443.635 7.63949 -1.54928 0
M  V30 4673 N 447.864 1.01787 1.20321 0
M  V30 4674 C 449.141 0.622978 1.85414 0
M  V30 4675 C 449.521 -0.898887 1.91006 0
M  V30 4676 O 448.869 -1.79112 1.41884 0
M  V30 4677 C 449.079 1.27226 3.24984 0
M  V30 4678 C 450.427 1.3885 4.01255 0
M  V30 4679 O 451.451 1.22857 3.34342 0
M  V30 4680 O 450.31 1.64705 5.2109 0
M  V30 4681 H 447.404 0.215116 0.798533 0
M  V30 4682 H 449.95 1.11533 1.27901 0
M  V30 4683 H 448.722 2.31209 3.15687 0
M  V30 4684 H 448.345 0.767069 3.90131 0
M  V30 4685 N 449.342 -1.36122 0.79427 0
M  V30 4686 C 450.567 -2.03891 0.379871 0
M  V30 4687 C 450.992 -1.59488 -0.997251 0
M  V30 4688 O 450.35 -0.765652 -1.64339 0
M  V30 4689 C 450.398 -3.57687 0.457442 0
M  V30 4690 O 449.502 -4.08931 -0.5338 0
M  V30 4691 H 448.843 -0.6443 0.160541 0
M  V30 4692 H 451.373 -1.73976 1.07673 0
M  V30 4693 H 451.383 -4.06721 0.322792 0
M  V30 4694 H 450.058 -3.89357 1.46199 0
M  V30 4695 H 448.635 -3.71154 -0.360409 0
M  V30 4696 N 450.82 -0.546701 -1.47814 0
M  V30 4697 C 451.73 0.21026 -2.33656 0
M  V30 4698 C 452.746 0.922413 -1.47538 0
M  V30 4699 O 453.922 0.893652 -1.80488 0
M  V30 4700 C 450.987 1.23348 -3.24016 0
M  V30 4701 C 450.048 0.529883 -4.26017 0
M  V30 4702 C 449.281 1.50435 -5.12059 0
M  V30 4703 O 449.504 2.73837 -5.00369 0
M  V30 4704 O 448.438 1.03459 -5.92942 0
M  V30 4705 H 452.264 -0.493605 -2.99662 0
M  V30 4706 H 449.849 -0.307427 -1.46203 0
M  V30 4707 H 451.731 1.82438 -3.79861 0
M  V30 4708 H 450.406 1.91945 -2.60651 0
M  V30 4709 H 449.313 -0.101948 -3.73961 0
M  V30 4710 H 450.646 -0.11445 -4.92067 0
M  V30 4711 N 452.299 1.55045 -0.282633 0
M  V30 4712 C 453.547 1.99365 0.331334 0
M  V30 4713 C 453.868 1.1725 1.55812 0
M  V30 4714 O 453.138 0.263871 1.94115 0
M  V30 4715 H 451.718 0.736397 0.125414 0
M  V30 4716 H 454.38 1.90964 -0.389711 0
M  V30 4717 H 453.476 3.0596 0.616036 0
M  V30 4718 N 453.777 0.010035 1.57597 0
M  V30 4719 C 454.724 -0.978122 2.09049 0
M  V30 4720 C 455.694 -1.33509 0.988159 0
M  V30 4721 O 456.879 -1.43172 1.26121 0
M  V30 4722 C 454.019 -2.26158 2.60666 0
M  V30 4723 C 453.132 -1.96275 3.84838 0
M  V30 4724 C 452.267 -3.18776 4.24918 0
M  V30 4725 C 451.306 -2.84625 5.41899 0
M  V30 4726 N 450.443 -3.99693 5.77226 0
M  V30 4727 H 455.283 -0.532431 2.93205 0
M  V30 4728 H 452.82 -0.251234 1.44939 0
M  V30 4729 H 454.778 -3.01202 2.88675 0
M  V30 4730 H 453.408 -2.68378 1.79369 0
M  V30 4731 H 452.46 -1.11555 3.63675 0
M  V30 4732 H 453.772 -1.67111 4.69974 0
M  V30 4733 H 452.926 -4.02157 4.54262 0
M  V30 4734 H 451.665 -3.51087 3.38511 0
M  V30 4735 H 450.67 -1.99653 5.12268 0
M  V30 4736 H 451.895 -2.53551 6.29991 0
M  V30 4737 H 449.841 -4.31882 4.93776 0
M  V30 4738 H 449.758 -3.74087 6.56959 0
M  V30 4739 H 451.026 -4.83834 6.11167 0
M  V30 4740 N 455.255 -1.55392 -0.262866 0
M  V30 4741 C 456.185 -1.91978 -1.32917 0
M  V30 4742 C 457.166 -0.7828 -1.51017 0
M  V30 4743 O 458.351 -1.04178 -1.63892 0
M  V30 4744 C 455.481 -2.20055 -2.68687 0
M  V30 4745 C 454.435 -3.35854 -2.65304 0
M  V30 4746 C 453.761 -3.49435 -4.04721 0
M  V30 4747 C 455.061 -4.71977 -2.23685 0
M  V30 4748 H 456.755 -2.81292 -1.02544 0
M  V30 4749 H 454.301 -1.3534 -0.491846 0
M  V30 4750 H 456.254 -2.44237 -3.43404 0
M  V30 4751 H 454.978 -1.27551 -3.00663 0
M  V30 4752 H 453.637 -3.11655 -1.93045 0
M  V30 4753 H 453.285 -2.54379 -4.33936 0
M  V30 4754 H 452.985 -4.27297 -4.0335 0
M  V30 4755 H 454.509 -3.7592 -4.81161 0
M  V30 4756 H 455.923 -4.95637 -2.88127 0
M  V30 4757 H 454.32 -5.52828 -2.33456 0
M  V30 4758 H 455.39 -4.70115 -1.18827 0
M  V30 4759 N 456.733 0.527833 -1.48498 0
M  V30 4760 C 457.666 1.64892 -1.57753 0
M  V30 4761 C 458.644 1.5687 -0.427867 0
M  V30 4762 O 459.828 1.77311 -0.639764 0
M  V30 4763 C 456.955 3.03301 -1.50752 0
M  V30 4764 C 456.001 3.29675 -2.70586 0
M  V30 4765 S 456.834 3.15712 -4.32535 0
M  V30 4766 C 457.99 4.56564 -4.28136 0
M  V30 4767 H 458.223 1.56792 -2.52594 0
M  V30 4768 H 455.756 0.710959 -1.37057 0
M  V30 4769 H 457.714 3.83123 -1.474 0
M  V30 4770 H 456.375 3.08839 -0.572454 0
M  V30 4771 H 455.568 4.3065 -2.61833 0
M  V30 4772 H 455.17 2.57526 -2.71212 0
M  V30 4773 H 457.462 5.48126 -3.98201 0
M  V30 4774 H 458.405 4.70371 -5.29298 0
M  V30 4775 H 458.813 4.35987 -3.58574 0
M  V30 4776 N 458.211 1.37122 0.776871 0
M  V30 4777 C 459.451 1.33441 1.54831 0
M  V30 4778 C 459.815 -0.0818963 1.91825 0
M  V30 4779 O 461.016 -0.24338 2.67696 0
M  V30 4780 C 459.287 2.24267 2.78279 0
M  V30 4781 S 460.846 2.38389 3.68397 0
M  V30 4782 H 457.664 0.473791 0.530135 0
M  V30 4783 H 460.266 1.7282 0.913968 0
M  V30 4784 H 458.97 3.261 2.49173 0
M  V30 4785 H 458.501 1.85953 3.46677 0
M  V30 4786 H 460.516 1.59068 4.70013 0
M  V30 4787 N 459.689 -1.00246 1.21608 0
M  V30 4788 C 460.636 -2.09073 0.977613 0
M  V30 4789 C 461.606 -1.65815 -0.097297 0
M  V30 4790 O 462.791 -1.90734 0.0503445 0
M  V30 4791 C 459.931 -3.40671 0.551133 0
M  V30 4792 C 459.044 -3.97326 1.69576 0
M  V30 4793 C 458.179 -5.17043 1.2182 0
M  V30 4794 C 457.218 -5.65813 2.335 0
M  V30 4795 N 456.355 -6.76778 1.86859 0
M  V30 4796 H 461.195 -2.28806 1.90924 0
M  V30 4797 H 458.732 -1.12186 0.951452 0
M  V30 4798 H 460.69 -4.16225 0.285097 0
M  V30 4799 H 459.32 -3.20967 -0.343489 0
M  V30 4800 H 458.372 -3.18734 2.07637 0
M  V30 4801 H 459.684 -4.29511 2.53617 0
M  V30 4802 H 458.838 -5.99852 0.908975 0
M  V30 4803 H 457.577 -4.86458 0.347869 0
M  V30 4804 H 456.582 -4.81599 2.65222 0
M  V30 4805 H 457.807 -5.98427 3.21033 0
M  V30 4806 H 455.753 -6.47994 1.02174 0
M  V30 4807 H 455.67 -7.08231 2.64471 0
M  V30 4808 H 456.938 -7.63116 1.58978 0
M  V30 4809 N 461.167 -1.02423 -1.1978 0
M  V30 4810 C 462.578 -0.748389 -1.71044 0
M  V30 4811 C 462.929 0.732398 -1.82017 0
M  V30 4812 O 462.054 1.57116 -1.48807 0
M  V30 4813 C 462.649 -1.35187 -3.1066 0
M  V30 4814 C 461.208 -1.12472 -3.59203 0
M  V30 4815 C 460.355 -1.45283 -2.36195 0
M  V30 4816 H 463.306 -1.19275 -1.04686 0
M  V30 4817 H 463.327 -0.746408 -3.73107 0
M  V30 4818 H 462.839 -2.4296 -3.02642 0
M  V30 4819 H 460.94 -0.0649983 -3.72543 0
M  V30 4820 H 461.053 -1.81016 -4.43588 0
M  V30 4821 H 459.417 -0.872034 -2.39307 0
M  V30 4822 H 460.2 -2.54129 -2.30811 0
M  V30 4823 N 462.645 1.35699 -0.801477 0
M  V30 4824 C 463.894 1.98165 -0.375979 0
M  V30 4825 C 464.207 1.64306 1.06127 0
M  V30 4826 O 465.413 2.20097 1.58964 0
M  V30 4827 C 463.869 3.54497 -0.621305 0
M  V30 4828 C 463.477 3.9727 -2.07076 0
M  V30 4829 C 465.221 4.23697 -0.26091 0
M  V30 4830 C 463.128 5.46427 -2.26211 0
M  V30 4831 H 462.058 0.741478 -0.136844 0
M  V30 4832 H 464.709 1.54834 -0.984814 0
M  V30 4833 H 463.091 3.95958 0.0574112 0
M  V30 4834 H 464.265 3.66974 -2.78687 0
M  V30 4835 H 462.58 3.40943 -2.39054 0
M  V30 4836 H 465.177 5.33334 -0.381994 0
M  V30 4837 H 465.52 4.0869 0.792344 0
M  V30 4838 H 466.053 3.87639 -0.893339 0
M  V30 4839 H 462.792 5.66396 -3.29963 0
M  V30 4840 H 462.312 5.78309 -1.59119 0
M  V30 4841 H 463.991 6.12819 -2.07513 0
M  V30 4842 N 464.123 0.554532 1.47522 0
M  V30 4843 C 465.37 0.029479 2.02479 0
M  V30 4844 C 465.698 -1.31929 1.42916 0
M  V30 4845 O 464.953 -1.87112 0.573385 0
M  V30 4846 C 465.252 -0.115927 3.57212 0
M  V30 4847 C 464.918 1.16161 4.3568 0
M  V30 4848 C 463.58 1.51168 4.56839 0
M  V30 4849 C 465.932 2.0083 4.80954 0
M  V30 4850 C 463.26 2.70696 5.2052 0
M  V30 4851 C 465.612 3.19559 5.45953 0
M  V30 4852 C 464.276 3.54882 5.65345 0
M  V30 4853 H 463.546 0.0107871 0.740921 0
M  V30 4854 H 466.193 0.725506 1.77225 0
M  V30 4855 H 464.498 -0.894902 3.81443 0
M  V30 4856 H 466.195 -0.53749 3.97381 0
M  V30 4857 H 462.785 0.879026 4.19489 0
M  V30 4858 H 466.969 1.75093 4.64388 0
M  V30 4859 H 462.225 2.98236 5.33728 0
M  V30 4860 H 466.399 3.85456 5.79997 0
M  V30 4861 H 464.026 4.47596 6.1446 0
M  V30 4862 N 465.601 -1.54893 0.290851 0
M  V30 4863 C 466.826 -2.04804 -0.32712 0
M  V30 4864 C 467.251 -1.16721 -1.47506 0
M  V30 4865 O 466.609 -0.169107 -1.8051 0
M  V30 4866 C 466.657 -3.52268 -0.770689 0
M  V30 4867 O 465.761 -3.67236 -1.87647 0
M  V30 4868 H 465.102 -0.660789 -0.0652227 0
M  V30 4869 H 467.632 -2.00036 0.429739 0
M  V30 4870 H 467.642 -3.9393 -1.06223 0
M  V30 4871 H 466.317 -4.15843 0.069096 0
M  V30 4872 H 464.894 -3.37479 -1.58626 0
M  V30 4873 N 467.08 -0.0183926 -1.57589 0
M  V30 4874 C 468.027 0.967022 -2.09565 0
M  V30 4875 C 468.997 1.32983 -0.995225 0
M  V30 4876 O 470.182 1.42501 -1.26878 0
M  V30 4877 C 467.322 2.24772 -2.61861 0
M  V30 4878 C 466.435 1.94232 -3.85873 0
M  V30 4879 C 465.57 3.16518 -4.26603 0
M  V30 4880 C 464.609 2.81748 -5.43401 0
M  V30 4881 N 463.746 3.96626 -5.79338 0
M  V30 4882 H 468.586 0.516874 -2.93483 0
M  V30 4883 H 466.123 0.243544 -1.4507 0
M  V30 4884 H 468.081 2.99667 -2.90268 0
M  V30 4885 H 466.711 2.67423 -1.8079 0
M  V30 4886 H 465.763 1.09625 -3.64262 0
M  V30 4887 H 467.075 1.64616 -4.70853 0
M  V30 4888 H 466.229 3.99743 -4.56389 0
M  V30 4889 H 464.968 3.49286 -3.40368 0
M  V30 4890 H 463.973 1.96933 -5.1332 0
M  V30 4891 H 465.198 2.50207 -6.31327 0
M  V30 4892 H 463.144 4.29257 -4.96059 0
M  V30 4893 H 463.061 3.70598 -6.58933 0
M  V30 4894 H 464.329 4.80586 -6.13724 0
M  V30 4895 N 468.558 1.5553 0.254621 0
M  V30 4896 C 469.807 1.76202 0.981612 0
M  V30 4897 C 470.12 0.580883 1.86776 0
M  V30 4898 O 471.326 0.670448 2.63092 0
M  V30 4899 C 469.782 3.11921 1.79537 0
M  V30 4900 C 469.39 4.37659 0.956991 0
M  V30 4901 C 471.134 3.41936 2.51555 0
M  V30 4902 C 469.041 5.64411 1.76619 0
M  V30 4903 H 467.971 0.656841 0.370237 0
M  V30 4904 H 470.622 1.81969 0.236556 0
M  V30 4905 H 469.004 3.00241 2.58208 0
M  V30 4906 H 470.178 4.60307 0.21315 0
M  V30 4907 H 468.493 4.14922 0.350497 0
M  V30 4908 H 471.09 4.33849 3.12536 0
M  V30 4909 H 471.433 2.62905 3.22779 0
M  V30 4910 H 471.966 3.54797 1.799 0
M  V30 4911 H 468.705 6.46241 1.09783 0
M  V30 4912 H 468.225 5.45877 2.48551 0
M  V30 4913 H 469.904 6.03386 2.33527 0
M  V30 4914 N 470.036 -0.519951 1.48776 0
M  V30 4915 C 471.282 -1.27711 1.57536 0
M  V30 4916 C 471.615 -1.92547 0.252866 0
M  V30 4917 O 470.89 -1.7979 -0.742021 0
M  V30 4918 C 471.173 -2.35875 2.72094 0
M  V30 4919 C 471.026 -1.75664 4.1408 0
M  V30 4920 C 472.345 -3.37575 2.82367 0
M  V30 4921 H 469.464 -0.462971 0.573434 0
M  V30 4922 H 472.106 -0.578194 1.80989 0
M  V30 4923 H 470.256 -2.95488 2.52228 0
M  V30 4924 H 471.928 -1.20025 4.45412 0
M  V30 4925 H 470.171 -1.06154 4.20611 0
M  V30 4926 H 470.842 -2.54029 4.90075 0
M  V30 4927 H 473.318 -2.87929 3.00393 0
M  V30 4928 H 472.194 -4.1064 3.64233 0
M  V30 4929 H 472.455 -3.98743 1.90936 0
M  V30 4930 N 471.514 -1.37532 -0.769588 0
M  V30 4931 C 472.739 -1.36231 -1.56384 0
M  V30 4932 C 473.164 0.0495849 -1.88035 0
M  V30 4933 O 472.522 1.02723 -1.49391 0
M  V30 4934 C 472.57 -2.20986 -2.84952 0
M  V30 4935 O 471.674 -1.61597 -3.79421 0
M  V30 4936 H 471.015 -0.465387 -0.473615 0
M  V30 4937 H 473.545 -1.81085 -0.952342 0
M  V30 4938 H 473.555 -2.34277 -3.34034 0
M  V30 4939 H 472.23 -3.23612 -2.61243 0
M  V30 4940 H 470.807 -1.57359 -3.38072 0
M  V30 4941 N 472.992 0.995999 -1.22138 0
M  V30 4942 C 473.922 2.10387 -1.01289 0
M  V30 4943 C 474.903 1.69975 0.0651454 0
M  V30 4944 O 476.088 1.9396 -0.0964628 0
M  V30 4945 C 473.218 3.42312 -0.586517 0
M  V30 4946 C 472.172 3.96558 -1.61014 0
M  V30 4947 C 471.498 5.24494 -1.0397 0
M  V30 4948 C 472.798 4.27595 -2.99933 0
M  V30 4949 H 474.492 2.28086 -1.93951 0
M  V30 4950 H 472.038 1.09607 -0.933928 0
M  V30 4951 H 473.991 4.19223 -0.427793 0
M  V30 4952 H 472.715 3.24431 0.375761 0
M  V30 4953 H 471.374 3.21776 -1.75658 0
M  V30 4954 H 471.022 5.02953 -0.0688703 0
M  V30 4955 H 470.722 5.61755 -1.72352 0
M  V30 4956 H 472.246 6.04042 -0.892494 0
M  V30 4957 H 473.66 4.95315 -2.8868 0
M  V30 4958 H 472.057 4.76021 -3.6541 0
M  V30 4959 H 473.127 3.35498 -3.50099 0
M  V30 4960 N 474.47 1.03057 1.19235 0
M  V30 4961 C 475.717 0.728019 1.88961 0
M  V30 4962 C 476.045 -0.743515 1.79728 0
M  V30 4963 O 475.3 -1.55729 1.1852 0
M  V30 4964 C 475.599 1.1268 3.39172 0
M  V30 4965 C 475.265 2.5969 3.68608 0
M  V30 4966 C 473.927 2.99854 3.76352 0
M  V30 4967 C 476.279 3.54793 3.81801 0
M  V30 4968 C 473.607 4.34031 3.94758 0
M  V30 4969 C 475.959 4.88675 4.0172 0
M  V30 4970 C 474.623 5.28526 4.07697 0
M  V30 4971 H 473.893 0.266401 0.691456 0
M  V30 4972 H 476.54 1.29373 1.41191 0
M  V30 4973 H 474.845 0.479722 3.88852 0
M  V30 4974 H 476.542 0.870203 3.91444 0
M  V30 4975 H 473.132 2.27575 3.63191 0
M  V30 4976 H 477.316 3.24914 3.7516 0
M  V30 4977 H 472.572 4.6444 3.97625 0
M  V30 4978 H 476.746 5.6228 4.1087 0
M  V30 4979 H 474.373 6.32506 4.21712 0
M  V30 4980 N 475.948 -1.35272 0.808662 0
M  V30 4981 C 476.911 -2.28082 0.226093 0
M  V30 4982 C 477.911 -1.49673 -0.587762 0
M  V30 4983 O 479.101 -1.69404 -0.405943 0
M  V30 4984 C 476.233 -3.33955 -0.684596 0
M  V30 4985 H 477.426 -2.81116 1.04469 0
M  V30 4986 H 474.979 -1.45162 0.579466 0
M  V30 4987 H 475.714 -2.86111 -1.5268 0
M  V30 4988 H 475.499 -3.91965 -0.102699 0
M  V30 4989 H 476.989 -4.03219 -1.08646 0
M  V30 4990 N 477.426 -0.562348 -1.47226 0
M  V30 4991 C 478.336 0.185466 -2.33866 0
M  V30 4992 C 479.352 0.906713 -1.48508 0
M  V30 4993 O 480.528 0.874458 -1.81425 0
M  V30 4994 C 477.593 1.19904 -3.25306 0
M  V30 4995 C 476.654 0.484669 -4.26555 0
M  V30 4996 C 475.887 1.44996 -5.13626 0
M  V30 4997 O 476.11 2.68515 -5.03245 0
M  V30 4998 O 475.044 0.971642 -5.94006 0
M  V30 4999 H 478.87 -0.525361 -2.99121 0
M  V30 5000 H 476.455 -0.322916 -1.45868 0
M  V30 5001 H 478.337 1.78399 -3.81774 0
M  V30 5002 H 477.012 1.8917 -2.62672 0
M  V30 5003 H 475.919 -0.141605 -3.73832 0
M  V30 5004 H 477.252 -0.166634 -4.91918 0
M  V30 5005 N 478.904 1.54736 -0.299062 0
M  V30 5006 C 479.854 2.20155 0.592932 0
M  V30 5007 C 480.838 1.1739 1.10038 0
M  V30 5008 O 482.03 1.43116 1.04147 0
M  V30 5009 C 479.159 2.94437 1.76527 0
M  V30 5010 C 478.245 4.04516 1.27388 0
M  V30 5011 N 478.636 5.03319 0.500339 0
M  V30 5012 C 476.934 4.18022 1.55478 0
M  V30 5013 C 477.635 5.81209 0.238909 0
M  V30 5014 N 476.611 5.37408 0.818163 0
M  V30 5015 H 480.413 2.93899 -0.00563596 0
M  V30 5016 H 477.927 1.62068 -0.103732 0
M  V30 5017 H 479.924 3.3977 2.41582 0
M  V30 5018 H 478.584 2.22209 2.36756 0
M  V30 5019 H 479.595 5.17696 0.145419 0
M  V30 5020 H 476.272 3.56998 2.16469 0
M  V30 5021 H 477.662 6.70812 -0.382223 0
M  V30 5022 N 480.382 0.0267497 1.57577 0
M  V30 5023 C 481.33 -0.973923 2.11229 0
M  V30 5024 C 482.324 -1.33849 1.03831 0
M  V30 5025 O 483.53 -1.321 1.22269 0
M  V30 5026 H 479.905 -0.331844 0.674821 0
M  V30 5027 H 481.876 -0.496092 2.94247 0
M  V30 5028 C 480.625 -2.24798 2.65257 0
M  V30 5029 H 479.948 -1.9762 3.47543 0
M  V30 5030 H 481.388 -2.93031 3.06445 0
M  V30 5031 C 479.847 -2.97611 1.57891 0
M  V30 5032 O 480.377 -3.89629 0.97735 0
M  V30 5033 N 478.583 -2.59905 1.29992 0
M  V30 5034 H 478.13 -1.85154 1.79097 0
M  V30 5035 H 478.088 -3.08932 0.583798 0
M  V30 5036 N 481.861 -1.55662 -0.24637 0
M  V30 5037 C 483.138 -1.68272 -0.997198 0
M  V30 5038 C 483.518 -0.566785 -2.03349 0
M  V30 5039 O 482.866 0.429688 -2.24424 0
M  V30 5040 C 483.076 -3.08594 -1.63006 0
M  V30 5041 C 484.424 -3.6721 -2.13171 0
M  V30 5042 O 485.448 -3.11397 -1.72946 0
M  V30 5043 O 484.307 -4.65054 -2.87031 0
M  V30 5044 H 481.401 -0.684429 -0.464205 0
M  V30 5045 H 483.947 -1.67993 -0.240114 0
M  V30 5046 H 482.719 -3.81264 -0.880527 0
M  V30 5047 H 482.342 -3.12886 -2.45333 0
M  V30 5048 N 483.339 0.512053 -1.4905 0
M  V30 5049 C 484.269 1.62365 -1.67809 0
M  V30 5050 C 485.25 1.61737 -0.526809 0
M  V30 5051 O 486.435 1.78651 -0.761404 0
M  V30 5052 C 483.565 3.00895 -1.73435 0
M  V30 5053 C 482.519 3.16387 -2.88242 0
M  V30 5054 C 481.845 4.56157 -2.78971 0
M  V30 5055 C 483.145 2.97457 -4.29321 0
M  V30 5056 H 484.839 1.46921 -2.60873 0
M  V30 5057 H 482.385 0.705379 -1.2554 0
M  V30 5058 H 484.338 3.78549 -1.85145 0
M  V30 5059 H 483.062 3.17403 -0.769619 0
M  V30 5060 H 481.721 2.41155 -2.76116 0
M  V30 5061 H 481.369 4.69525 -1.8043 0
M  V30 5062 H 481.069 4.67465 -3.5602 0
M  V30 5063 H 482.593 5.35886 -2.92675 0
M  V30 5064 H 484.007 3.64888 -4.42187 0
M  V30 5065 H 482.404 3.20245 -5.07507 0
M  V30 5066 H 483.474 1.93692 -4.44535 0
M  V30 5067 N 484.817 1.37938 0.762283 0
M  V30 5068 C 485.749 1.30349 1.88525 0
M  V30 5069 C 486.762 0.217402 1.61342 0
M  V30 5070 O 487.951 0.474291 1.72084 0
M  V30 5071 C 485.051 0.994844 3.23969 0
M  V30 5072 C 484.224 2.18829 3.78725 0
M  V30 5073 C 483.283 1.84844 4.92665 0
M  V30 5074 O 482.309 2.57244 5.07754 0
M  V30 5075 N 483.511 0.798201 5.74986 0
M  V30 5076 H 486.276 2.27114 1.95549 0
M  V30 5077 H 483.837 1.31686 0.941825 0
M  V30 5078 H 485.829 0.748168 3.97724 0
M  V30 5079 H 484.399 0.115446 3.12387 0
M  V30 5080 H 483.619 2.59615 2.96637 0
M  V30 5081 H 484.907 2.98497 4.1204 0
M  V30 5082 H 484.305 0.197611 5.65355 0
M  V30 5083 H 482.862 0.611396 6.48926 0
M  V30 5084 N 486.295 -0.989507 1.22664 0
M  V30 5085 C 487.525 -1.7624 1.0781 0
M  V30 5086 C 487.933 -1.85466 -0.374036 0
M  V30 5087 O 487.276 -1.32645 -1.27087 0
M  V30 5088 C 487.338 -3.21007 1.61849 0
M  V30 5089 C 487.002 -3.35316 3.10503 0
M  V30 5090 C 487.999 -3.22362 4.07896 0
M  V30 5091 C 485.684 -3.60258 3.50028 0
M  V30 5092 C 487.678 -3.34139 5.42798 0
M  V30 5093 C 485.365 -3.71676 4.85078 0
M  V30 5094 C 486.363 -3.58625 5.81272 0
M  V30 5095 O 486.051 -3.69655 7.1387 0
M  V30 5096 H 485.783 -0.560209 0.378341 0
M  V30 5097 H 488.337 -1.25252 1.62792 0
M  V30 5098 H 486.567 -3.73202 1.01279 0
M  V30 5099 H 488.256 -3.80024 1.42606 0
M  V30 5100 H 489.022 -3.03 3.78703 0
M  V30 5101 H 484.901 -3.69492 2.75675 0
M  V30 5102 H 488.445 -3.23869 6.17863 0
M  V30 5103 H 484.342 -3.90545 5.1395 0
M  V30 5104 H 485.11 -3.86507 7.21495 0
M  V30 5105 N 487.773 -1.03688 -1.18687 0
M  V30 5106 C 488.736 -0.629115 -2.20397 0
M  V30 5107 C 489.736 0.311495 -1.57754 0
M  V30 5108 O 490.926 0.0974107 -1.73927 0
M  V30 5109 C 488.058 0.0782231 -3.4081 0
M  V30 5110 H 489.251 -1.52915 -2.57987 0
M  V30 5111 H 486.804 -0.828988 -1.32505 0
M  V30 5112 H 487.539 0.992233 -3.08748 0
M  V30 5113 H 487.324 -0.597776 -3.87517 0
M  V30 5114 H 488.814 0.350156 -4.16129 0
M  V30 5115 N 489.251 1.34841 -0.815825 0
M  V30 5116 C 490.214 2.27959 -0.238185 0
M  V30 5117 C 491.214 1.49983 0.579816 0
M  V30 5118 O 492.404 1.69617 0.396953 0
M  V30 5119 C 489.536 3.34314 0.666876 0
M  V30 5120 H 490.729 2.80558 -1.05958 0
M  V30 5121 H 488.282 1.44852 -0.587156 0
M  V30 5122 H 489.017 2.86916 1.5116 0
M  V30 5123 H 488.802 3.92014 0.0819106 0
M  V30 5124 H 490.292 4.0379 1.06506 0
M  V30 5125 N 490.729 0.570148 1.46925 0
M  V30 5126 C 492.14 0.1402 1.86173 0
M  V30 5127 C 492.491 -1.29347 1.47526 0
M  V30 5128 O 491.616 -1.97508 0.884292 0
M  V30 5129 C 492.211 0.247661 3.37894 0
M  V30 5130 C 490.77 -0.127332 3.76185 0
M  V30 5131 C 489.917 0.589349 2.70965 0
M  V30 5132 H 492.868 0.779117 1.38259 0
M  V30 5133 H 492.889 -0.530341 3.76786 0
M  V30 5134 H 492.401 1.29121 3.65991 0
M  V30 5135 H 490.502 -1.17149 3.53704 0
M  V30 5136 H 490.615 0.240238 4.78497 0
M  V30 5137 H 488.979 0.0309824 2.54681 0
M  V30 5138 H 489.762 1.6343 3.01903 0
M  V30 5139 N 492.207 -1.54576 0.307264 0
M  V30 5140 C 493.455 -1.99867 -0.299574 0
M  V30 5141 C 493.776 -1.19714 -1.53927 0
M  V30 5142 O 493.046 -0.29472 -1.9367 0
M  V30 5143 H 491.626 -0.738299 -0.113683 0
M  V30 5144 H 494.288 -1.9032 0.420042 0
M  V30 5145 H 493.384 -3.06901 -0.567283 0
M  V30 5146 N 493.685 -0.035106 -1.57561 0
M  V30 5147 C 494.933 0.64096 -1.91667 0
M  V30 5148 C 495.254 1.72323 -0.912681 0
M  V30 5149 O 494.524 1.95849 0.0449089 0
M  V30 5150 H 493.104 0.239743 -0.707483 0
M  V30 5151 H 495.766 -0.084321 -1.94718 0
M  V30 5152 H 494.862 1.08987 -2.92452 0
M  V30 5153 N 495.163 1.55791 0.238111 0
M  V30 5154 C 496.093 1.94068 1.29846 0
M  V30 5155 C 497.074 0.806726 1.49753 0
M  V30 5156 O 498.259 1.06772 1.62214 0
M  V30 5157 C 495.389 2.24302 2.65153 0
M  V30 5158 C 494.343 3.40032 2.59927 0
M  V30 5159 C 493.669 3.55829 3.99111 0
M  V30 5160 C 494.969 4.75476 2.16148 0
M  V30 5161 H 496.663 2.82887 0.980563 0
M  V30 5162 H 494.209 1.36105 0.470253 0
M  V30 5163 H 496.162 2.4967 3.39475 0
M  V30 5164 H 494.886 1.32318 2.98596 0
M  V30 5165 H 493.545 3.14687 1.88063 0
M  V30 5166 H 493.193 2.6125 4.29834 0
M  V30 5167 H 492.893 4.3366 3.96501 0
M  V30 5168 H 494.417 3.83528 4.7512 0
M  V30 5169 H 495.831 5.00158 2.80205 0
M  V30 5170 H 494.228 5.56472 2.24631 0
M  V30 5171 H 495.298 4.71946 1.11333 0
M  V30 5172 N 496.642 -0.504142 1.49319 0
M  V30 5173 C 497.891 -1.25507 1.57895 0
M  V30 5174 C 498.204 -1.93735 0.269433 0
M  V30 5175 O 499.41 -2.70492 0.233706 0
M  V30 5176 C 497.866 -2.27869 2.78574 0
M  V30 5177 C 497.474 -1.65594 4.16272 0
M  V30 5178 C 499.218 -3.0381 2.96479 0
M  V30 5179 C 497.125 -2.66048 5.28178 0
M  V30 5180 H 496.055 -0.47212 0.587894 0
M  V30 5181 H 498.706 -0.52931 1.757 0
M  V30 5182 H 497.088 -3.03594 2.54257 0
M  V30 5183 H 498.262 -0.958826 4.50714 0
M  V30 5184 H 496.577 -1.02055 4.037 0
M  V30 5185 H 499.174 -3.78925 3.77253 0
M  V30 5186 H 499.517 -3.61235 2.06918 0
M  V30 5187 H 500.05 -2.352 3.20821 0
M  V30 5188 H 496.789 -2.13408 6.19788 0
M  V30 5189 H 496.309 -3.34009 4.98195 0
M  V30 5190 H 497.988 -3.28536 5.57381 0
M  V30 5191 N 498.12 -1.38341 -0.754957 0
M  V30 5192 C 499.368 -1.34208 -1.51105 0
M  V30 5193 C 499.689 0.0677634 -1.94882 0
M  V30 5194 O 498.959 1.01517 -1.67544 0
M  V30 5195 H 497.539 -0.493819 -0.560493 0
M  V30 5196 H 500.201 -1.73005 -0.897507 0
M  V30 5197 H 499.297 -1.99203 -2.4026 0
M  V30 5198 N 499.598 0.982988 -1.23187 0
M  V30 5199 C 500.844 1.72648 -1.06398 0
M  V30 5200 C 501.177 1.90066 0.398561 0
M  V30 5201 O 500.452 1.45105 1.29518 0
M  V30 5202 C 500.735 3.12627 -1.78707 0
M  V30 5203 C 500.588 3.02795 -3.32618 0
M  V30 5204 C 501.907 4.11997 -1.54747 0
M  V30 5205 H 499.026 0.626649 -0.387918 0
M  V30 5206 H 501.668 1.14455 -1.51658 0
M  V30 5207 H 499.818 3.62308 -1.40234 0
M  V30 5208 H 501.49 2.60659 -3.80598 0
M  V30 5209 H 499.733 2.39362 -3.61785 0
M  V30 5210 H 500.404 4.01893 -3.78399 0
M  V30 5211 H 502.88 3.71114 -1.88186 0
M  V30 5212 H 501.756 5.08037 -2.07821 0
M  V30 5213 H 502.017 4.39462 -0.482249 0
M  V30 5214 N 501.076 1.04316 1.18135 0
M  V30 5215 C 502.324 0.746542 1.87806 0
M  V30 5216 C 502.645 -0.728082 1.80898 0
M  V30 5217 O 501.915 -1.52554 1.22899 0
M  V30 5218 H 500.495 0.273157 0.695265 0
M  V30 5219 H 503.157 1.32044 1.43354 0
M  V30 5220 H 502.253 1.05362 2.93778 0
M  V30 5221 N 502.554 -1.34406 0.822964 0
M  V30 5222 C 503.782 -2.02508 0.424039 0
M  V30 5223 C 504.197 -1.61975 -0.970022 0
M  V30 5224 O 503.554 -0.825228 -1.62777 0
M  V30 5225 C 503.605 -3.57789 0.516657 0
M  V30 5226 O 503.326 -3.96853 1.85577 0
M  V30 5227 C 504.827 -4.43157 0.112637 0
M  V30 5228 H 502.047 -0.649063 0.170173 0
M  V30 5229 H 504.591 -1.7168 1.11113 0
M  V30 5230 H 502.746 -3.87207 -0.122353 0
M  V30 5231 H 503.16 -4.91538 1.83005 0
M  V30 5232 H 504.634 -5.51527 0.228526 0
M  V30 5233 H 505.111 -4.28939 -0.943837 0
M  V30 5234 H 505.717 -4.19067 0.725449 0
M  V30 5235 N 504.032 -0.577932 -1.46621 0
M  V30 5236 C 504.979 0.158048 -2.30258 0
M  V30 5237 C 505.949 0.888669 -1.40328 0
M  V30 5238 O 507.134 0.880283 -1.6928 0
M  V30 5239 C 504.274 1.16884 -3.24703 0
M  V30 5240 C 503.387 0.442163 -4.29731 0
M  V30 5241 C 502.522 1.44007 -5.11308 0
M  V30 5242 C 501.561 0.69952 -6.0809 0
M  V30 5243 N 500.698 1.64525 -6.82551 0
M  V30 5244 H 505.538 -0.561242 -2.92667 0
M  V30 5245 H 503.075 -0.288591 -1.44241 0
M  V30 5246 H 505.033 1.7677 -3.779 0
M  V30 5247 H 503.663 1.85591 -2.64113 0
M  V30 5248 H 502.715 -0.271632 -3.79429 0
M  V30 5249 H 504.027 -0.136992 -4.98612 0
M  V30 5250 H 503.181 2.11186 -5.68758 0
M  V30 5251 H 501.92 2.05315 -4.42377 0
M  V30 5252 H 500.925 0.0139217 -5.49798 0
M  V30 5253 H 502.15 0.091894 -6.79038 0
M  V30 5254 H 500.096 2.24653 -6.16334 0
M  V30 5255 H 500.013 1.11878 -7.47676 0
M  V30 5256 H 501.281 2.30754 -7.44562 0
M  V30 5257 N 505.51 1.54411 -0.315457 0
M  V30 5258 C 506.759 1.99599 0.290395 0
M  V30 5259 C 507.072 1.20746 1.53882 0
M  V30 5260 O 508.278 1.56272 2.22017 0
M  V30 5261 C 506.734 3.5539 0.56797 0
M  V30 5262 C 506.342 4.43068 -0.662945 0
M  V30 5263 C 508.086 4.09067 1.13422 0
M  V30 5264 C 505.993 5.90317 -0.357722 0
M  V30 5265 H 504.923 0.745592 0.112286 0
M  V30 5266 H 507.574 1.78477 -0.426418 0
M  V30 5267 H 505.956 3.72468 1.34476 0
M  V30 5268 H 507.13 4.37765 -1.43869 0
M  V30 5269 H 505.445 4.00238 -1.14884 0
M  V30 5270 H 508.042 5.16663 1.37707 0
M  V30 5271 H 508.385 3.60552 2.08106 0
M  V30 5272 H 508.918 3.95589 0.418805 0
M  V30 5273 H 505.657 6.4301 -1.27351 0
M  V30 5274 H 505.177 5.98592 0.380472 0
M  V30 5275 H 506.856 6.4699 0.0354284 0
M  V30 5276 N 506.988 0.0434614 1.5754 0
M  V30 5277 C 508.265 -0.671479 1.83713 0
M  V30 5278 C 508.645 -1.89495 0.930315 0
M  V30 5279 O 507.993 -2.28498 -0.0105639 0
M  V30 5280 C 508.203 -1.0361 3.33266 0
M  V30 5281 C 509.551 -1.42167 4.00092 0
M  V30 5282 O 510.575 -1.12866 3.37846 0
M  V30 5283 O 509.434 -1.96817 5.09829 0
M  V30 5284 H 506.528 -0.330726 0.75799 0
M  V30 5285 H 509.074 0.0722373 1.69546 0
M  V30 5286 H 507.846 -0.165938 3.90948 0
M  V30 5287 H 507.469 -1.83751 3.52592 0
M  V30 5288 N 508.466 -1.55915 -0.229846 0
M  V30 5289 C 509.877 -1.68809 -0.797531 0
M  V30 5290 C 510.228 -0.643995 -1.8533 0
M  V30 5291 O 509.353 0.206492 -2.15413 0
M  V30 5292 C 509.948 -3.06043 -1.45338 0
M  V30 5293 C 508.507 -3.20819 -1.96856 0
M  V30 5294 C 507.654 -2.6472 -0.825736 0
M  V30 5295 H 510.605 -1.58699 -0.00533733 0
M  V30 5296 H 510.626 -3.01438 -2.32196 0
M  V30 5297 H 510.138 -3.82012 -0.684743 0
M  V30 5298 H 508.239 -2.49704 -2.76548 0
M  V30 5299 H 508.352 -4.27937 -2.15423 0
M  V30 5300 H 506.716 -2.22985 -1.23084 0
M  V30 5301 H 507.499 -3.43229 -0.0699019 0
M  V30 5302 N 509.944 0.496216 -1.49584 0
M  V30 5303 C 511.172 1.27394 -1.63029 0
M  V30 5304 C 511.587 1.86344 -0.303569 0
M  V30 5305 O 510.944 1.68057 0.711547 0
M  V30 5306 C 510.995 2.40077 -2.70269 0
M  V30 5307 O 510.716 1.83549 -3.97796 0
M  V30 5308 C 512.217 3.31372 -2.94462 0
M  V30 5309 H 509.437 0.386211 -0.54871 0
M  V30 5310 H 511.981 0.595163 -1.95648 0
M  V30 5311 H 510.136 3.03775 -2.40415 0
M  V30 5312 H 510.55 2.57561 -4.56905 0
M  V30 5313 H 512.024 4.06707 -3.73221 0
M  V30 5314 H 512.501 3.88654 -2.0456 0
M  V30 5315 H 513.107 2.73435 -3.25751 0
M  V30 5316 N 511.423 1.38739 0.74761 0
M  V30 5317 C 512.353 1.39173 1.87492 0
M  V30 5318 C 513.334 0.256794 1.6815 0
M  V30 5319 O 514.519 0.460762 1.88655 0
M  V30 5320 C 511.649 1.22197 3.25093 0
M  V30 5321 C 510.603 2.32957 3.59047 0
M  V30 5322 C 509.929 2.01082 4.95449 0
M  V30 5323 C 511.229 3.75237 3.6331 0
M  V30 5324 H 512.923 2.3351 1.87386 0
M  V30 5325 H 510.469 1.12399 0.900134 0
M  V30 5326 H 512.422 1.21124 4.03617 0
M  V30 5327 H 511.146 0.243241 3.25693 0
M  V30 5328 H 509.805 2.33226 2.82845 0
M  V30 5329 H 509.453 1.01678 4.92616 0
M  V30 5330 H 509.153 2.75267 5.19136 0
M  V30 5331 H 510.677 2.01638 5.76346 0
M  V30 5332 H 512.091 3.76966 4.31937 0
M  V30 5333 H 510.488 4.48677 3.98509 0
M  V30 5334 H 511.558 4.07122 2.634 0
M  V30 5335 N 512.901 -0.976442 1.23707 0
M  V30 5336 C 514.141 -1.73331 1.08332 0
M  V30 5337 C 514.505 -1.88346 -0.372781 0
M  V30 5338 O 515.706 -2.60877 -0.647813 0
M  V30 5339 C 513.977 -3.09159 1.7932 0
M  V30 5340 S 515.536 -4.00376 1.79567 0
M  V30 5341 H 512.354 -0.596045 0.387622 0
M  V30 5342 H 514.956 -1.16625 1.56904 0
M  V30 5343 H 513.66 -2.95884 2.84395 0
M  V30 5344 H 513.191 -3.70932 1.31046 0
M  V30 5345 H 515.206 -4.88742 0.857094 0
M  V30 5346 N 514.379 -1.04941 -1.1758 0
M  V30 5347 C 515.795 -0.770282 -1.39781 0
M  V30 5348 C 515.995 0.636417 -1.91186 0
M  V30 5349 O 515.051 1.39923 -2.10185 0
M  V30 5350 C 516.364 -1.82376 -2.3908 0
M  V30 5351 C 517.912 -1.84569 -2.52791 0
M  V30 5352 C 518.387 -2.88933 -3.55361 0
M  V30 5353 N 519.878 -2.8788 -3.62877 0
M  V30 5354 C 520.613 -3.65282 -4.41992 0
M  V30 5355 N 520.109 -4.52461 -5.24643 0
M  V30 5356 N 521.902 -3.53732 -4.36841 0
M  V30 5357 H 514.053 -1.95705 -0.825438 0
M  V30 5358 H 516.316 -0.847284 -0.425222 0
M  V30 5359 H 516.022 -2.83323 -2.08376 0
M  V30 5360 H 515.896 -1.66327 -3.38549 0
M  V30 5361 H 518.283 -0.842879 -2.82807 0
M  V30 5362 H 518.364 -2.04696 -1.53406 0
M  V30 5363 H 518.008 -3.89398 -3.26085 0
M  V30 5364 H 517.938 -2.66059 -4.54445 0
M  V30 5365 H 520.429 -2.24666 -3.03864 0
M  V30 5366 H 520.742 -5.08211 -5.82187 0
M  V30 5367 H 519.087 -4.56524 -5.24033 0
M  V30 5368 H 522.278 -2.85021 -3.71323 0
M  V30 5369 H 522.451 -4.14302 -4.98255 0
M  V30 5370 N 515.857 1.33968 -0.830081 0
M  V30 5371 C 516.82 2.27694 -0.26235 0
M  V30 5372 C 517.82 1.50589 0.563876 0
M  V30 5373 O 519.01 1.70028 0.378941 0
M  V30 5374 C 516.142 3.35002 0.63138 0
M  V30 5375 H 517.335 2.79419 -1.08928 0
M  V30 5376 H 514.888 1.44221 -0.602486 0
M  V30 5377 H 515.623 2.88504 1.48109 0
M  V30 5378 H 515.408 3.92079 0.0403276 0
M  V30 5379 H 516.898 4.04897 1.02217 0
M  V30 5380 N 517.335 0.585699 1.46312 0
M  V30 5381 C 518.612 0.00542031 1.95599 0
M  V30 5382 C 518.992 -1.45619 1.52834 0
M  V30 5383 O 518.34 -2.14759 0.780446 0
M  V30 5384 C 518.55 0.180601 3.48532 0
M  V30 5385 C 519.898 0.049979 4.24571 0
M  V30 5386 O 520.922 0.109589 3.56031 0
M  V30 5387 O 519.781 -0.0832226 5.46437 0
M  V30 5388 H 516.875 -0.0481281 0.825598 0
M  V30 5389 H 519.421 0.654227 1.56582 0
M  V30 5390 H 518.193 1.19657 3.72556 0
M  V30 5391 H 517.816 -0.504498 3.94386 0
M  V30 5392 N 518.813 -1.54241 0.323641 0
M  V30 5393 C 520.229 -1.59574 -0.0290018 0
M  V30 5394 C 520.429 -1.34017 -1.50472 0
M  V30 5395 O 519.485 -1.12464 -2.26071 0
M  V30 5396 C 520.798 -2.98169 0.389295 0
M  V30 5397 C 522.346 -3.11148 0.339958 0
M  V30 5398 C 522.821 -4.5209 0.733418 0
M  V30 5399 N 524.312 -4.5808 0.686827 0
M  V30 5400 C 525.047 -5.65248 0.963464 0
M  V30 5401 N 524.543 -6.80355 1.30724 0
M  V30 5402 N 526.336 -5.55025 0.88902 0
M  V30 5403 H 518.487 -1.6911 1.28512 0
M  V30 5404 H 520.75 -0.790972 0.522558 0
M  V30 5405 H 520.456 -3.21871 1.41746 0
M  V30 5406 H 520.33 -3.76399 -0.245657 0
M  V30 5407 H 522.717 -2.87182 -0.679002 0
M  V30 5408 H 522.798 -2.35023 1.00985 0
M  V30 5409 H 522.442 -4.76788 1.75029 0
M  V30 5410 H 522.372 -5.26584 0.0412189 0
M  V30 5411 H 524.863 -3.75411 0.43298 0
M  V30 5412 H 525.176 -7.58029 1.5037 0
M  V30 5413 H 523.521 -6.81851 1.3455 0
M  V30 5414 H 526.712 -4.63977 0.619939 0
M  V30 5415 H 526.885 -6.38458 1.10797 0
M  V30 5416 N 520.291 -0.0518155 -1.57515 0
M  V30 5417 C 521.224 0.957758 -2.07129 0
M  V30 5418 C 522.202 1.30355 -0.971927 0
M  V30 5419 O 523.386 1.41631 -1.2439 0
M  V30 5420 C 520.513 2.27157 -2.51232 0
M  V30 5421 C 519.559 2.07879 -3.72409 0
M  V30 5422 S 520.392 1.35656 -5.18033 0
M  V30 5423 C 521.548 2.68359 -5.65451 0
M  V30 5424 H 521.781 0.53552 -2.92437 0
M  V30 5425 H 519.314 0.160465 -1.53564 0
M  V30 5426 H 521.272 3.02676 -2.77304 0
M  V30 5427 H 519.933 2.66509 -1.66228 0
M  V30 5428 H 519.126 3.05061 -4.01191 0
M  V30 5429 H 518.728 1.40499 -3.46606 0
M  V30 5430 H 521.02 3.64526 -5.71076 0
M  V30 5431 H 521.963 2.44213 -6.64654 0
M  V30 5432 H 522.371 2.74647 -4.93183 0
M  V30 5433 N 521.769 1.56035 0.221574 0
M  V30 5434 C 523.015 1.79312 0.947372 0
M  V30 5435 C 523.348 0.621453 1.83988 0
M  V30 5436 O 522.623 -0.379287 1.90766 0
M  V30 5437 C 522.906 3.1267 1.78633 0
M  V30 5438 C 522.759 4.40284 0.920312 0
M  V30 5439 C 524.078 3.4247 2.7641 0
M  V30 5440 H 521.197 0.652328 0.342982 0
M  V30 5441 H 523.839 1.88765 0.216244 0
M  V30 5442 H 521.989 3.04741 2.40967 0
M  V30 5443 H 523.661 4.60232 0.313718 0
M  V30 5444 H 521.904 4.33212 0.225734 0
M  V30 5445 H 522.575 5.30033 1.54171 0
M  V30 5446 H 525.051 3.50526 2.24211 0
M  V30 5447 H 523.927 4.3695 3.32213 0
M  V30 5448 H 524.188 2.64635 3.54148 0
M  V30 5449 N 523.247 -0.488276 1.49845 0
M  V30 5450 C 524.495 -1.23911 1.59657 0
M  V30 5451 C 524.816 -1.92816 0.291005 0
M  V30 5452 O 524.086 -1.83328 -0.690485 0
M  V30 5453 H 522.666 -0.460357 0.588286 0
M  V30 5454 H 525.328 -0.564794 1.86537 0
M  V30 5455 H 524.424 -1.99625 2.39909 0
M  V30 5456 N 524.725 -1.39134 -0.740242 0
M  V30 5457 C 525.657 -1.33332 -1.86428 0
M  V30 5458 C 526.67 -0.243042 -1.60976 0
M  V30 5459 O 527.859 -0.501608 -1.71307 0
M  V30 5460 C 524.959 -1.04626 -3.22346 0
M  V30 5461 C 524.132 -2.24826 -3.75196 0
M  V30 5462 C 523.191 -1.92659 -4.89662 0
M  V30 5463 O 522.217 -2.6529 -5.03597 0
M  V30 5464 N 523.419 -0.889575 -5.73643 0
M  V30 5465 H 526.184 -2.30196 -1.91911 0
M  V30 5466 H 523.745 -1.33168 -0.920756 0
M  V30 5467 H 525.737 -0.811347 -3.96484 0
M  V30 5468 H 524.307 -0.165129 -3.12164 0
M  V30 5469 H 523.527 -2.64301 -2.9247 0
M  V30 5470 H 524.815 -3.05015 -4.07239 0
M  V30 5471 H 524.213 -0.287529 -5.64969 0
M  V30 5472 H 522.77 -0.714557 -6.47871 0
M  V30 5473 N 526.204 0.969867 -1.24223 0
M  V30 5474 C 527.45 1.7151 -1.08223 0
M  V30 5475 C 527.783 1.90478 0.37838 0
M  V30 5476 O 527.058 1.4647 1.27971 0
M  V30 5477 C 527.341 3.10714 -1.82013 0
M  V30 5478 C 527.194 2.9925 -3.35811 0
M  V30 5479 C 528.513 4.10332 -1.59108 0
M  V30 5480 H 525.632 0.622499 -0.394543 0
M  V30 5481 H 528.274 1.1284 -1.52863 0
M  V30 5482 H 526.424 3.608 -1.44068 0
M  V30 5483 H 528.096 2.56608 -3.83341 0
M  V30 5484 H 526.339 2.35512 -3.64303 0
M  V30 5485 H 527.01 3.97857 -3.82641 0
M  V30 5486 H 529.486 3.69097 -1.92111 0
M  V30 5487 H 528.362 5.05804 -2.13198 0
M  V30 5488 H 528.623 4.38926 -0.528832 0
M  V30 5489 N 527.682 1.05563 1.17022 0
M  V30 5490 C 528.612 0.681026 2.23348 0
M  V30 5491 C 529.593 -0.322983 1.67005 0
M  V30 5492 O 530.778 -0.199746 1.9317 0
M  V30 5493 C 527.908 0.0589053 3.4725 0
M  V30 5494 C 526.862 0.988082 4.16438 0
M  V30 5495 C 526.188 0.229646 5.34207 0
M  V30 5496 C 527.488 2.31388 4.68249 0
M  V30 5497 H 529.182 1.56993 2.54938 0
M  V30 5498 H 526.728 0.756302 1.2254 0
M  V30 5499 H 528.681 -0.214982 4.20851 0
M  V30 5500 H 527.405 -0.864968 3.14938 0
M  V30 5501 H 526.064 1.24659 3.44754 0
M  V30 5502 H 525.712 -0.697111 4.98146 0
M  V30 5503 H 525.412 0.848815 5.81437 0
M  V30 5504 H 526.936 -0.0368694 6.10589 0
M  V30 5505 H 528.35 2.09964 5.33468 0
M  V30 5506 H 526.747 2.88736 5.26072 0
M  V30 5507 H 527.817 2.94982 3.84855 0
M  V30 5508 N 529.16 -1.33526 0.837174 0
M  V30 5509 C 530.408 -1.97446 0.431211 0
M  V30 5510 C 530.729 -1.6665 -1.01255 0
M  V30 5511 O 529.999 -0.964559 -1.70508 0
M  V30 5512 H 528.579 -0.73043 0.156463 0
M  V30 5513 H 531.241 -1.62918 1.06976 0
M  V30 5514 H 530.337 -3.07001 0.561877 0
M  V30 5515 N 530.638 -0.59345 -1.46 0
M  V30 5516 C 531.601 0.123538 -2.28867 0
M  V30 5517 C 532.601 0.808628 -1.38989 0
M  V30 5518 O 533.791 0.658945 -1.61256 0
M  V30 5519 C 530.923 1.1847 -3.19653 0
M  V30 5520 H 532.116 -0.604843 -2.93737 0
M  V30 5521 H 529.669 -0.351875 -1.52288 0
M  V30 5522 H 530.404 1.94431 -2.59552 0
M  V30 5523 H 530.189 0.69783 -3.8584 0
M  V30 5524 H 531.679 1.68726 -3.81997 0
M  V30 5525 N 532.116 1.54067 -0.331816 0
M  V30 5526 C 533.362 2.01012 0.268667 0
M  V30 5527 C 533.695 1.2195 1.51136 0
M  V30 5528 O 532.97 0.303972 1.9211 0
M  V30 5529 C 533.253 3.55158 0.59456 0
M  V30 5530 C 533.106 4.4494 -0.659409 0
M  V30 5531 C 534.425 4.16939 1.4089 0
M  V30 5532 H 531.544 0.730698 0.0961756 0
M  V30 5533 H 534.186 1.84593 -0.450031 0
M  V30 5534 H 532.336 3.6928 1.20685 0
M  V30 5535 H 534.008 4.42675 -1.29756 0
M  V30 5536 H 532.251 4.1428 -1.28665 0
M  V30 5537 H 532.922 5.50643 -0.386804 0
M  V30 5538 H 535.398 4.06443 0.891272 0
M  V30 5539 H 534.274 5.24889 1.60569 0
M  V30 5540 H 534.535 3.70798 2.40752 0
M  V30 5541 N 533.594 0.0601682 1.57485 0
M  V30 5542 C 534.842 -0.610386 1.92662 0
M  V30 5543 C 535.163 -1.70849 0.939981 0
M  V30 5544 O 534.433 -1.95895 -0.0137455 0
M  V30 5545 H 533.013 -0.228457 0.711208 0
M  V30 5546 H 535.675 0.115288 1.94559 0
M  V30 5547 H 534.771 -1.0432 2.94149 0
M  V30 5548 N 535.072 -1.5615 -0.213296 0
M  V30 5549 C 536.035 -1.92249 -1.24792 0
M  V30 5550 C 537.035 -0.801828 -1.39382 0
M  V30 5551 O 538.225 -1.06948 -1.37506 0
M  V30 5552 C 535.357 -2.18056 -2.62039 0
M  V30 5553 H 536.55 -2.84793 -0.939845 0
M  V30 5554 H 534.103 -1.49559 -0.454062 0
M  V30 5555 H 534.838 -1.2809 -2.97932 0
M  V30 5556 H 534.623 -2.99703 -2.52825 0
M  V30 5557 H 536.113 -2.47051 -3.36683 0
M  V30 5558 N 536.55 0.480323 -1.50102 0
M  V30 5559 C 537.48 1.58769 -1.71215 0
M  V30 5560 C 538.461 1.60583 -0.560997 0
M  V30 5561 O 539.646 1.76996 -0.799127 0
M  V30 5562 C 536.776 2.97148 -1.79778 0
M  V30 5563 C 535.73 3.10201 -2.94888 0
M  V30 5564 C 535.056 4.50137 -2.88584 0
M  V30 5565 C 536.356 2.88283 -4.35534 0
M  V30 5566 H 538.05 1.41354 -2.6393 0
M  V30 5567 H 535.596 0.678591 -1.27008 0
M  V30 5568 H 537.549 3.74536 -1.93133 0
M  V30 5569 H 536.273 3.15699 -0.836772 0
M  V30 5570 H 534.932 2.35244 -2.81169 0
M  V30 5571 H 534.58 4.65593 -1.90349 0
M  V30 5572 H 534.28 4.59808 -3.65856 0
M  V30 5573 H 535.804 5.29558 -3.03976 0
M  V30 5574 H 537.218 3.55427 -4.49827 0
M  V30 5575 H 535.615 3.09408 -5.14186 0
M  V30 5576 H 536.685 1.84219 -4.48544 0
M  V30 5577 N 538.028 1.39524 0.732853 0
M  V30 5578 C 539.439 1.32905 1.31122 0
M  V30 5579 C 539.79 -0.00558708 1.96199 0
M  V30 5580 O 538.915 -0.907706 1.96443 0
M  V30 5581 C 539.51 2.40704 2.38426 0
M  V30 5582 C 538.069 2.37599 2.91931 0
M  V30 5583 C 537.216 2.2248 1.65523 0
M  V30 5584 H 540.167 1.49581 0.530207 0
M  V30 5585 H 540.188 2.07616 3.18867 0
M  V30 5586 H 539.7 3.37829 1.91033 0
M  V30 5587 H 537.801 1.44119 3.43599 0
M  V30 5588 H 537.914 3.32538 3.44899 0
M  V30 5589 H 536.278 1.69691 1.8994 0
M  V30 5590 H 537.061 3.21577 1.20178 0
M  V30 5591 N 539.506 -0.963266 1.24736 0
M  V30 5592 C 540.416 -2.09246 1.06082 0
M  V30 5593 C 541.432 -1.74 0.000363101 0
M  V30 5594 O 542.608 -2.0041 0.199479 0
M  V30 5595 C 539.673 -3.40115 0.672498 0
M  V30 5596 C 538.734 -3.89282 1.80993 0
M  V30 5597 C 537.967 -5.13905 1.44004 0
M  V30 5598 O 538.19 -5.69434 0.331835 0
M  V30 5599 O 537.124 -5.57566 2.26723 0
M  V30 5600 H 540.95 -2.27881 2.00759 0
M  V30 5601 H 538.535 -1.07649 1.03595 0
M  V30 5602 H 540.417 -4.18797 0.467668 0
M  V30 5603 H 539.092 -3.22771 -0.245102 0
M  V30 5604 H 537.999 -3.11642 2.06955 0
M  V30 5605 H 539.332 -4.1111 2.70646 0
M  V30 5606 N 540.985 -1.06182 -1.16461 0
M  V30 5607 C 542.234 -0.772927 -1.86303 0
M  V30 5608 C 542.547 0.703187 -1.82523 0
M  V30 5609 O 543.753 1.10641 -2.47933 0
M  V30 5610 C 542.209 -1.33249 -3.34324 0
M  V30 5611 C 541.817 -2.83876 -3.46581 0
M  V30 5612 C 543.561 -1.12108 -4.09429 0
M  V30 5613 C 541.468 -3.33082 -4.88682 0
M  V30 5614 H 540.398 -0.285452 -0.697878 0
M  V30 5615 H 543.049 -1.28039 -1.31447 0
M  V30 5616 H 541.431 -0.7528 -3.88779 0
M  V30 5617 H 542.605 -3.47786 -3.02293 0
M  V30 5618 H 540.92 -3.03671 -2.84909 0
M  V30 5619 H 543.517 -1.46361 -5.14279 0
M  V30 5620 H 543.86 -0.0593832 -4.16258 0
M  V30 5621 H 544.393 -1.6665 -3.6121 0
M  V30 5622 H 541.132 -4.38726 -4.87032 0
M  V30 5623 H 540.652 -2.73919 -5.33599 0
M  V30 5624 H 542.331 -3.28344 -5.57494 0
M  V30 5625 N 542.463 1.3308 -0.844243 0
M  V30 5626 C 543.71 1.97605 -0.44255 0
M  V30 5627 C 544.038 1.66856 0.999458 0
M  V30 5628 O 543.293 0.943586 1.7145 0
M  V30 5629 C 543.592 3.52045 -0.616354 0
M  V30 5630 C 543.258 4.02757 -2.02726 0
M  V30 5631 C 541.92 4.16316 -2.41317 0
M  V30 5632 C 544.272 4.29776 -2.9486 0
M  V30 5633 C 541.6 4.54232 -3.71335 0
M  V30 5634 C 543.952 4.69146 -4.24364 0
M  V30 5635 C 542.616 4.80911 -4.62904 0
M  V30 5636 H 541.886 0.723088 -0.161941 0
M  V30 5637 H 544.533 1.58663 -1.0723 0
M  V30 5638 H 542.838 3.91681 0.0966812 0
M  V30 5639 H 544.535 3.99981 -0.285756 0
M  V30 5640 H 541.125 3.9268 -1.71756 0
M  V30 5641 H 545.309 4.18818 -2.6628 0
M  V30 5642 H 540.565 4.61535 -4.00993 0
M  V30 5643 H 544.739 4.89008 -4.95827 0
M  V30 5644 H 542.366 5.10048 -5.63698 0
M  V30 5645 N 543.941 0.601185 1.45683 0
M  V30 5646 C 545.169 0.100054 2.06658 0
M  V30 5647 C 545.584 -1.21285 1.44691 0
M  V30 5648 O 544.941 -1.73735 0.558772 0
M  V30 5649 C 544.992 -0.0528579 3.61461 0
M  V30 5650 O 544.713 1.20809 4.21114 0
M  V30 5651 C 546.214 -0.586193 4.39407 0
M  V30 5652 H 543.434 0.065905 0.667756 0
M  V30 5653 H 545.978 0.827101 1.87028 0
M  V30 5654 H 544.133 -0.730203 3.80456 0
M  V30 5655 H 544.547 1.03368 5.14213 0
M  V30 5656 H 546.021 -0.642297 5.4825 0
M  V30 5657 H 546.498 -1.60713 4.0874 0
M  V30 5658 H 547.104 0.0568935 4.25262 0
M  V30 5659 N 545.419 -1.53889 0.339982 0
M  V30 5660 C 546.329 -2.28604 -0.526988 0
M  V30 5661 C 547.345 -1.33578 -1.11503 0
M  V30 5662 O 548.521 -1.66612 -1.13148 0
M  V30 5663 C 545.586 -3.04164 -1.66389 0
M  V30 5664 C 544.647 -4.14809 -1.10599 0
M  V30 5665 C 543.88 -4.86756 -2.18871 0
M  V30 5666 O 544.103 -4.58343 -3.39526 0
M  V30 5667 O 543.037 -5.73289 -1.83366 0
M  V30 5668 H 546.863 -3.03594 0.0802707 0
M  V30 5669 H 544.448 -1.4903 0.105141 0
M  V30 5670 H 546.33 -3.51427 -2.32544 0
M  V30 5671 H 545.005 -2.32035 -2.25703 0
M  V30 5672 H 543.912 -3.71857 -0.409067 0
M  V30 5673 H 545.245 -4.89029 -0.557771 0
M  V30 5674 N 546.897 -0.0685191 -1.57451 0
M  V30 5675 C 547.827 0.89747 -2.15564 0
M  V30 5676 C 548.808 1.31266 -1.08181 0
M  V30 5677 O 549.993 1.38429 -1.36202 0
M  V30 5678 C 547.123 2.16623 -2.71463 0
M  V30 5679 C 546.077 1.89054 -3.83982 0
M  V30 5680 C 545.403 3.22532 -4.26471 0
M  V30 5681 C 546.703 1.1984 -5.08366 0
M  V30 5682 H 548.397 0.413373 -2.96533 0
M  V30 5683 H 545.943 0.197391 -1.42641 0
M  V30 5684 H 547.896 2.84614 -3.10761 0
M  V30 5685 H 546.62 2.67269 -1.8771 0
M  V30 5686 H 545.279 1.23469 -3.45183 0
M  V30 5687 H 544.927 3.71013 -3.39644 0
M  V30 5688 H 544.627 3.04879 -5.02317 0
M  V30 5689 H 546.151 3.91727 -4.68383 0
M  V30 5690 H 547.565 1.77896 -5.45001 0
M  V30 5691 H 545.962 1.12456 -5.89469 0
M  V30 5692 H 547.032 0.176996 -4.84577 0
M  V30 5693 N 548.375 1.56261 0.205012 0
M  V30 5694 C 549.285 1.96944 1.27476 0
M  V30 5695 C 550.301 0.875636 1.50362 0
M  V30 5696 O 551.477 1.18058 1.6317 0
M  V30 5697 C 548.542 2.29219 2.60115 0
M  V30 5698 C 547.603 3.52255 2.45387 0
M  V30 5699 C 546.836 3.8298 3.71701 0
M  V30 5700 O 547.059 3.15138 4.75441 0
M  V30 5701 O 545.993 4.76435 3.67823 0
M  V30 5702 H 549.819 2.88144 0.959527 0
M  V30 5703 H 547.404 1.43686 0.409217 0
M  V30 5704 H 549.286 2.51098 3.3842 0
M  V30 5705 H 547.961 1.4119 2.91285 0
M  V30 5706 H 546.868 3.35635 1.65227 0
M  V30 5707 H 548.201 4.40719 2.19152 0
M  V30 5708 N 549.853 -0.472356 1.50355 0
M  V30 5709 C 551.102 -1.2213 1.60522 0
M  V30 5710 C 551.415 -1.9312 0.310466 0
M  V30 5711 O 552.621 -2.69936 0.291029 0
M  V30 5712 C 551.077 -2.21909 2.83345 0
M  V30 5713 C 550.685 -1.56727 4.19691 0
M  V30 5714 C 552.429 -2.97453 3.02856 0
M  V30 5715 C 550.336 -2.54785 5.33703 0
M  V30 5716 H 549.266 -0.459543 0.597776 0
M  V30 5717 H 551.917 -0.491922 1.76783 0
M  V30 5718 H 550.299 -2.98133 2.60639 0
M  V30 5719 H 551.473 -0.863007 4.52646 0
M  V30 5720 H 549.788 -0.934685 4.05774 0
M  V30 5721 H 552.385 -3.70838 3.85205 0
M  V30 5722 H 552.728 -3.56764 2.14534 0
M  V30 5723 H 553.261 -2.28342 3.25737 0
M  V30 5724 H 550 -2.00214 6.24175 0
M  V30 5725 H 549.52 -3.23367 5.05167 0
M  V30 5726 H 551.199 -3.16639 5.64224 0
M  V30 5727 N 551.331 -1.39911 -0.725443 0
M  V30 5728 C 552.556 -1.41137 -1.5197 0
M  V30 5729 C 552.981 -0.010262 -1.88097 0
M  V30 5730 O 552.339 0.979184 -1.52583 0
M  V30 5731 C 552.387 -2.2994 -2.77777 0
M  V30 5732 O 551.491 -1.73586 -3.74088 0
M  V30 5733 H 550.832 -0.480219 -0.458569 0
M  V30 5734 H 553.362 -1.84023 -0.894249 0
M  V30 5735 H 553.372 -2.44785 -3.26411 0
M  V30 5736 H 552.047 -3.31759 -2.50816 0
M  V30 5737 H 550.624 -1.68035 -3.32894 0
M  V30 5738 N 552.809 0.956637 -1.25245 0
M  V30 5739 C 554.039 1.7332 -1.12445 0
M  V30 5740 C 554.447 1.86392 0.324732 0
M  V30 5741 O 553.79 1.35967 1.23526 0
M  V30 5742 C 553.852 3.16603 -1.70303 0
M  V30 5743 C 553.516 3.26966 -3.19284 0
M  V30 5744 C 554.513 3.11434 -4.16299 0
M  V30 5745 C 552.198 3.50851 -3.59456 0
M  V30 5746 C 554.192 3.1963 -5.51467 0
M  V30 5747 C 551.879 3.58684 -4.94761 0
M  V30 5748 C 552.877 3.43087 -5.90576 0
M  V30 5749 O 552.565 3.50598 -7.2342 0
M  V30 5750 H 552.297 0.549981 -0.393061 0
M  V30 5751 H 554.851 1.20892 -1.66055 0
M  V30 5752 H 553.081 3.70385 -1.11138 0
M  V30 5753 H 554.77 3.76109 -1.52632 0
M  V30 5754 H 555.536 2.92853 -3.86604 0
M  V30 5755 H 551.415 3.62053 -2.85375 0
M  V30 5756 H 554.959 3.07373 -6.26233 0
M  V30 5757 H 550.856 3.76782 -5.24124 0
M  V30 5758 H 551.624 3.67242 -7.31489 0
M  V30 5759 N 554.287 1.06798 1.15896 0
M  V30 5760 C 555.534 0.787767 1.86549 0
M  V30 5761 C 555.862 -0.685959 1.82002 0
M  V30 5762 O 555.117 -1.5188 1.23414 0
M  V30 5763 C 555.416 1.23414 3.35416 0
M  V30 5764 C 555.082 2.71285 3.6016 0
M  V30 5765 C 553.744 3.11676 3.66622 0
M  V30 5766 C 556.096 3.6676 3.7032 0
M  V30 5767 C 553.424 4.4637 3.8075 0
M  V30 5768 C 555.776 5.01209 3.8597 0
M  V30 5769 C 554.44 5.41229 3.90676 0
M  V30 5770 H 553.71 0.288264 0.682631 0
M  V30 5771 H 556.357 1.338 1.37003 0
M  V30 5772 H 554.662 0.60319 3.87129 0
M  V30 5773 H 556.359 0.994298 3.88477 0
M  V30 5774 H 552.949 2.39015 3.55767 0
M  V30 5775 H 557.133 3.36685 3.64633 0
M  V30 5776 H 552.389 4.76855 3.82648 0
M  V30 5777 H 556.563 5.75067 3.92773 0
M  V30 5778 H 554.19 6.45602 4.01375 0
M  V30 5779 N 555.766 -1.3263 0.851289 0
M  V30 5780 C 556.696 -2.31449 0.308771 0
M  V30 5781 C 557.677 -1.59531 -0.590255 0
M  V30 5782 O 558.862 -1.87351 -0.511205 0
M  V30 5783 C 555.992 -3.43586 -0.506548 0
M  V30 5784 C 554.946 -4.26963 0.297753 0
M  V30 5785 C 554.272 -5.30831 -0.642094 0
M  V30 5786 C 555.572 -4.99643 1.52166 0
M  V30 5787 H 557.266 -2.77074 1.13447 0
M  V30 5788 H 554.812 -1.33207 0.546971 0
M  V30 5789 H 556.765 -4.11754 -0.896474 0
M  V30 5790 H 555.489 -2.96681 -1.36558 0
M  V30 5791 H 554.148 -3.60437 0.669391 0
M  V30 5792 H 553.796 -4.8018 -1.49788 0
M  V30 5793 H 553.496 -5.87501 -0.107968 0
M  V30 5794 H 555.02 -6.01862 -1.02927 0
M  V30 5795 H 556.434 -5.6051 1.20421 0
M  V30 5796 H 554.831 -5.66022 1.99347 0
M  V30 5797 H 555.901 -4.27701 2.28474 0
M  V30 5798 N 557.244 -0.608902 -1.45362 0
M  V30 5799 C 558.174 0.0964526 -2.33301 0
M  V30 5800 C 559.155 0.857444 -1.46908 0
M  V30 5801 O 560.34 0.827735 -1.75676 0
M  V30 5802 C 557.47 1.09354 -3.29635 0
M  V30 5803 C 556.424 0.445676 -4.25673 0
M  V30 5804 C 555.75 1.5511 -5.11708 0
M  V30 5805 C 557.05 -0.633972 -5.18438 0
M  V30 5806 H 558.744 -0.637829 -2.92527 0
M  V30 5807 H 556.29 -0.308178 -1.40664 0
M  V30 5808 H 558.243 1.59556 -3.90025 0
M  V30 5809 H 556.967 1.85843 -2.6857 0
M  V30 5810 H 555.626 -0.0354897 -3.66583 0
M  V30 5811 H 555.274 2.30631 -4.4701 0
M  V30 5812 H 554.974 1.12311 -5.76767 0
M  V30 5813 H 556.498 2.05537 -5.74967 0
M  V30 5814 H 557.912 -0.215974 -5.72893 0
M  V30 5815 H 556.309 -0.983789 -5.91981 0
M  V30 5816 H 557.379 -1.51005 -4.60788 0
M  V30 5817 N 558.722 1.53707 -0.348139 0
M  V30 5818 C 560.138 1.596 0.00361134 0
M  V30 5819 C 560.338 1.36394 1.4832 0
M  V30 5820 O 559.394 1.16046 2.24253 0
M  V30 5821 C 560.707 2.97512 -0.436682 0
M  V30 5822 C 562.255 3.10568 -0.389416 0
M  V30 5823 C 562.73 4.50866 -0.805249 0
M  V30 5824 N 564.221 4.56929 -0.759616 0
M  V30 5825 C 564.956 5.63643 -1.05327 0
M  V30 5826 N 564.452 6.78189 -1.41531 0
M  V30 5827 N 566.245 5.5354 -0.977207 0
M  V30 5828 H 558.396 1.67044 -1.31187 0
M  V30 5829 H 560.659 0.782559 -0.535075 0
M  V30 5830 H 560.365 3.19575 -1.46849 0
M  V30 5831 H 560.239 3.76742 0.185744 0
M  V30 5832 H 562.626 2.88226 0.633228 0
M  V30 5833 H 562.707 2.33387 -1.04711 0
M  V30 5834 H 562.351 4.73943 -1.82593 0
M  V30 5835 H 562.281 5.26452 -0.124989 0
M  V30 5836 H 564.772 3.74675 -0.49265 0
M  V30 5837 H 565.085 7.55541 -1.62411 0
M  V30 5838 H 563.43 6.79624 -1.45381 0
M  V30 5839 H 566.621 4.62932 -0.693675 0
M  V30 5840 H 566.794 6.36614 -1.2094 0
M  V30 5841 N 560.2 0.0768682 1.57412 0
M  V30 5842 C 561.616 -0.279772 1.57129 0
M  V30 5843 C 561.816 -1.69688 1.08666 0
M  V30 5844 O 560.872 -2.40953 0.754843 0
M  V30 5845 C 562.185 -0.0848055 3.0058 0
M  V30 5846 C 563.733 -0.153954 3.12621 0
M  V30 5847 C 564.208 0.0127946 4.57998 0
M  V30 5848 N 565.699 -0.0426435 4.6318 0
M  V30 5849 C 566.434 0.0618892 5.73367 0
M  V30 5850 N 565.93 0.220229 6.9245 0
M  V30 5851 N 567.723 0.00446072 5.621 0
M  V30 5852 H 559.874 1.00297 1.87228 0
M  V30 5853 H 562.137 0.391565 0.863354 0
M  V30 5854 H 561.843 0.89325 3.40168 0
M  V30 5855 H 561.717 -0.834961 3.67843 0
M  V30 5856 H 564.104 -1.1225 2.72917 0
M  V30 5857 H 564.185 0.627389 2.47987 0
M  V30 5858 H 563.829 0.978128 4.98392 0
M  V30 5859 H 563.759 -0.788016 5.20671 0
M  V30 5860 H 566.25 -0.163226 3.77547 0
M  V30 5861 H 566.563 0.291999 7.72248 0
M  V30 5862 H 564.908 0.255658 6.9453 0
M  V30 5863 H 568.099 -0.117979 4.67951 0
M  V30 5864 H 568.272 0.0893796 6.47938 0
M  V30 5865 N 561.678 -1.56367 -0.196722 0
M  V30 5866 C 562.608 -1.97442 -1.24655 0
M  V30 5867 C 563.589 -0.846147 -1.47561 0
M  V30 5868 O 564.774 -1.11035 -1.59326 0
M  V30 5869 C 561.904 -2.31253 -2.59112 0
M  V30 5870 C 560.858 -3.46804 -2.50821 0
M  V30 5871 C 560.184 -3.66286 -3.89536 0
M  V30 5872 C 561.484 -4.8104 -2.03465 0
M  V30 5873 H 563.178 -2.85388 -0.905216 0
M  V30 5874 H 560.724 -1.37304 -0.434002 0
M  V30 5875 H 562.677 -2.58583 -3.32736 0
M  V30 5876 H 561.401 -1.40188 -2.94983 0
M  V30 5877 H 560.06 -3.19563 -1.79653 0
M  V30 5878 H 559.708 -2.72555 -4.22756 0
M  V30 5879 H 559.408 -4.4402 -3.84864 0
M  V30 5880 H 560.932 -3.9599 -4.64784 0
M  V30 5881 H 562.346 -5.07411 -2.66846 0
M  V30 5882 H 560.743 -5.62232 -2.09798 0
M  V30 5883 H 561.813 -4.74732 -0.98781 0
M  V30 5884 N 563.156 0.464375 -1.50603 0
M  V30 5885 C 564.086 1.56944 -1.72889 0
M  V30 5886 C 565.067 1.59979 -0.577997 0
M  V30 5887 O 566.252 1.76138 -0.817855 0
M  V30 5888 C 563.382 2.95225 -1.8292 0
M  V30 5889 C 562.336 3.07056 -2.98162 0
M  V30 5890 C 561.662 4.47051 -2.93343 0
M  V30 5891 C 562.962 2.83648 -4.38567 0
M  V30 5892 H 564.656 1.38547 -2.65415 0
M  V30 5893 H 562.202 0.665082 -1.27721 0
M  V30 5894 H 564.155 3.72467 -1.97095 0
M  V30 5895 H 562.879 3.14793 -0.870209 0
M  V30 5896 H 561.538 2.32248 -2.83648 0
M  V30 5897 H 561.186 4.63547 -1.95276 0
M  V30 5898 H 560.886 4.55902 -3.70712 0
M  V30 5899 H 562.41 5.26304 -3.09575 0
M  V30 5900 H 563.824 3.50636 -4.53572 0
M  V30 5901 H 562.221 3.03937 -5.17438 0
M  V30 5902 H 563.291 1.79451 -4.50472 0
M  V30 5903 N 564.634 1.40294 0.718013 0
M  V30 5904 C 565.882 1.38167 1.47494 0
M  V30 5905 C 566.203 -0.01607 1.94993 0
M  V30 5906 O 565.473 -0.970396 1.70177 0
M  V30 5907 H 564.053 0.508505 0.547203 0
M  V30 5908 H 566.715 1.75324 0.851322 0
M  V30 5909 H 565.811 2.05503 2.34894 0
M  V30 5910 N 566.112 -0.949982 1.2575 0
M  V30 5911 C 567.358 -1.69766 1.10938 0
M  V30 5912 C 567.691 -1.91056 -0.348028 0
M  V30 5913 O 566.966 -1.48488 -1.25625 0
M  V30 5914 C 567.249 -3.07779 1.86933 0
M  V30 5915 C 567.102 -2.9387 3.4053 0
M  V30 5916 C 568.421 -4.07749 1.65616 0
M  V30 5917 H 565.54 -0.616144 0.404396 0
M  V30 5918 H 568.182 -1.10394 1.54639 0
M  V30 5919 H 566.332 -3.58462 1.4979 0
M  V30 5920 H 568.004 -2.50476 3.87375 0
M  V30 5921 H 566.247 -2.29686 3.68004 0
M  V30 5922 H 566.918 -3.91719 3.88922 0
M  V30 5923 H 569.394 -3.65994 1.97959 0
M  V30 5924 H 568.27 -5.02348 2.21218 0
M  V30 5925 H 568.531 -4.38029 0.598595 0
M  V30 5926 N 567.59 -1.07411 -1.15328 0
M  V30 5927 C 569.006 -0.799759 -1.38116 0
M  V30 5928 C 569.206 0.59572 -1.92493 0
M  V30 5929 O 568.262 1.35433 -2.13106 0
M  V30 5930 C 569.575 -1.87407 -2.35158 0
M  V30 5931 C 571.123 -1.89889 -2.48819 0
M  V30 5932 C 571.598 -2.96406 -3.49153 0
M  V30 5933 N 573.089 -2.95512 -3.56689 0
M  V30 5934 C 573.824 -3.74575 -4.34144 0
M  V30 5935 N 573.32 -4.63488 -5.14928 0
M  V30 5936 N 575.113 -3.62919 -4.29239 0
M  V30 5937 H 567.264 -1.97411 -0.78374 0
M  V30 5938 H 569.527 -0.856113 -0.407154 0
M  V30 5939 H 569.233 -2.8768 -2.0232 0
M  V30 5940 H 569.107 -1.73471 -3.34944 0
M  V30 5941 H 571.494 -0.902677 -2.80955 0
M  V30 5942 H 571.575 -2.07904 -1.49029 0
M  V30 5943 H 571.219 -3.96227 -3.17752 0
M  V30 5944 H 571.149 -2.75638 -4.48699 0
M  V30 5945 H 573.64 -2.31061 -2.99031 0
M  V30 5946 H 573.953 -5.20445 -5.71276 0
M  V30 5947 H 572.298 -4.67537 -5.14232 0
M  V30 5948 H 575.489 -2.92833 -3.65194 0
M  V30 5949 H 575.662 -4.24777 -4.89355 0
M  V30 5950 N 569.068 1.32177 -0.85831 0
M  V30 5951 C 570.296 2.01313 -0.477582 0
M  V30 5952 C 570.711 1.6449 0.926736 0
M  V30 5953 O 570.068 0.868096 1.60531 0
M  V30 5954 C 570.119 3.56293 -0.611337 0
M  V30 5955 O 569.84 3.91794 -1.96034 0
M  V30 5956 C 571.341 4.42702 -0.230093 0
M  V30 5957 H 568.561 0.644323 -0.187322 0
M  V30 5958 H 571.105 1.68674 -1.15626 0
M  V30 5959 H 569.26 3.87395 0.0196494 0
M  V30 5960 H 569.674 4.86513 -1.95973 0
M  V30 5961 H 571.148 5.50727 -0.374674 0
M  V30 5962 H 571.625 4.3129 0.829779 0
M  V30 5963 H 572.231 4.16997 -0.836302 0
M  V30 5964 N 570.547 0.616602 1.45037 0
M  V30 5965 C 571.457 -0.0985401 2.34393 0
M  V30 5966 C 572.473 -0.850971 1.51771 0
M  V30 5967 O 573.649 -0.806521 1.84546 0
M  V30 5968 C 570.714 -1.07748 3.29532 0
M  V30 5969 C 569.775 -0.326022 4.2806 0
M  V30 5970 C 569.008 -1.25833 5.18654 0
M  V30 5971 O 569.231 -2.49652 5.12864 0
M  V30 5972 O 568.165 -0.750512 5.97203 0
M  V30 5973 H 571.991 0.636016 2.96966 0
M  V30 5974 H 569.576 0.376832 1.44569 0
M  V30 5975 H 571.458 -1.64107 3.88133 0
M  V30 5976 H 570.133 -1.79291 2.69512 0
M  V30 5977 H 569.04 0.280253 3.73049 0
M  V30 5978 H 570.373 0.349091 4.9096 0
M  V30 5979 N 572.025 -1.5352 0.356285 0
M  V30 5980 C 573.273 -2.00719 -0.235837 0
M  V30 5981 C 573.594 -1.24551 -1.5004 0
M  V30 5982 O 572.864 -0.356185 -1.92635 0
M  V30 5983 H 571.444 -0.741542 -0.0901366 0
M  V30 5984 H 574.106 -1.88887 0.480378 0
M  V30 5985 H 573.202 -3.08551 -0.469357 0
M  V30 5986 N 573.503 -0.0852151 -1.57369 0
M  V30 5987 C 574.78 0.622534 -1.85429 0
M  V30 5988 C 575.16 1.86962 -0.980229 0
M  V30 5989 O 574.508 2.28445 -0.0500219 0
M  V30 5990 C 574.718 0.947374 -3.35896 0
M  V30 5991 C 576.066 1.31509 -4.03721 0
M  V30 5992 O 577.09 1.03869 -3.40719 0
M  V30 5993 O 575.949 1.83231 -5.14868 0
M  V30 5994 H 573.043 0.310513 -0.766492 0
M  V30 5995 H 575.589 -0.117164 -1.69295 0
M  V30 5996 H 574.361 0.0622264 -3.91251 0
M  V30 5997 H 573.984 1.74338 -3.5734 0
M  V30 5998 N 574.981 1.5647 0.188427 0
M  V30 5999 C 575.928 1.95073 1.23349 0
M  V30 6000 C 576.898 0.812238 1.44886 0
M  V30 6001 O 578.083 1.07095 1.57909 0
M  V30 6002 C 575.223 2.30124 2.57171 0
M  V30 6003 C 574.336 3.57069 2.43157 0
M  V30 6004 C 573.471 3.81411 3.69729 0
M  V30 6005 C 572.51 5.0176 3.50575 0
M  V30 6006 N 571.647 5.22321 4.69175 0
M  V30 6007 H 576.487 2.84171 0.89728 0
M  V30 6008 H 574.024 1.40623 0.431683 0
M  V30 6009 H 575.982 2.48463 3.35145 0
M  V30 6010 H 574.612 1.44159 2.88822 0
M  V30 6011 H 573.664 3.4674 1.56447 0
M  V30 6012 H 574.976 4.452 2.24942 0
M  V30 6013 H 574.13 4.00026 4.56141 0
M  V30 6014 H 572.869 2.91624 3.90905 0
M  V30 6015 H 571.874 4.83061 2.62549 0
M  V30 6016 H 573.099 5.93063 3.30837 0
M  V30 6017 H 571.045 4.35483 4.90602 0
M  V30 6018 H 570.962 6.04643 4.53809 0
M  V30 6019 H 572.23 5.45401 5.56919 0
M  V30 6020 N 576.459 -0.456382 1.50847 0
M  V30 6021 C 577.406 -1.55249 1.70782 0
M  V30 6022 C 578.376 -1.56757 0.549231 0
M  V30 6023 O 579.561 -1.74061 0.7815 0
M  V30 6024 C 576.701 -2.93118 1.82143 0
M  V30 6025 C 575.814 -3.01285 3.09598 0
M  V30 6026 C 574.949 -4.30159 3.11667 0
M  V30 6027 C 573.988 -4.32124 4.33515 0
M  V30 6028 N 573.125 -5.52492 4.3324 0
M  V30 6029 H 577.965 -1.37555 2.64353 0
M  V30 6030 H 575.502 -0.668543 1.3103 0
M  V30 6031 H 577.46 -3.73088 1.86711 0
M  V30 6032 H 576.09 -3.09413 0.919978 0
M  V30 6033 H 575.142 -2.14096 3.14431 0
M  V30 6034 H 576.454 -2.98597 3.99551 0
M  V30 6035 H 575.608 -5.18489 3.15046 0
M  V30 6036 H 574.347 -4.35477 2.1957 0
M  V30 6037 H 573.352 -3.42189 4.30333 0
M  V30 6038 H 574.577 -4.28485 5.26856 0
M  V30 6039 H 572.523 -5.58567 3.44004 0
M  V30 6040 H 572.44 -5.51605 5.16979 0
M  V30 6041 H 573.708 -6.42906 4.40786 0
M  V30 6042 N 577.937 -1.40673 -0.710563 0
M  V30 6043 C 578.9 -1.4108 -1.80635 0
M  V30 6044 C 579.9 -0.303783 -1.57904 0
M  V30 6045 O 581.09 -0.562937 -1.64853 0
M  V30 6046 C 578.222 -1.20748 -3.18799 0
M  V30 6047 H 579.415 -2.38612 -1.81671 0
M  V30 6048 H 576.968 -1.26595 -0.916704 0
M  V30 6049 H 577.703 -0.239964 -3.23411 0
M  V30 6050 H 577.488 -2.00941 -3.36698 0
M  V30 6051 H 578.978 -1.23833 -3.98817 0
M  V30 6052 N 579.415 0.9433 -1.26252 0
M  V30 6053 C 580.378 2.02326 -1.07689 0
M  V30 6054 C 581.378 1.60779 -0.0259174 0
M  V30 6055 O 582.568 1.72108 -0.269134 0
M  V30 6056 C 579.7 3.34886 -0.63752 0
M  V30 6057 H 580.893 2.20225 -2.0357 0
M  V30 6058 H 578.446 1.12197 -1.08819 0
M  V30 6059 H 579.181 3.22684 0.323377 0
M  V30 6060 H 578.966 3.66393 -1.39637 0
M  V30 6061 H 580.456 4.14231 -0.529418 0
M  V30 6062 N 580.893 1.08022 1.14757 0
M  V30 6063 C 581.84 0.706657 2.19716 0
M  V30 6064 C 582.81 -0.30525 1.63271 0
M  V30 6065 O 583.995 -0.19015 1.8985 0
M  V30 6066 C 581.135 0.117914 3.44898 0
M  V30 6067 C 580.248 1.18212 4.15512 0
M  V30 6068 C 579.383 0.557659 5.28265 0
M  V30 6069 C 578.422 1.60418 5.90705 0
M  V30 6070 N 577.559 1.0018 6.94916 0
M  V30 6071 H 582.399 1.60603 2.51019 0
M  V30 6072 H 579.936 0.802664 1.23271 0
M  V30 6073 H 581.894 -0.241112 4.16503 0
M  V30 6074 H 580.524 -0.744788 3.1409 0
M  V30 6075 H 579.576 1.65863 3.42335 0
M  V30 6076 H 580.888 1.97533 4.5802 0
M  V30 6077 H 580.042 0.146654 6.06523 0
M  V30 6078 H 578.781 -0.267249 4.86967 0
M  V30 6079 H 577.786 2.02489 5.11154 0
M  V30 6080 H 579.011 2.43149 6.34078 0
M  V30 6081 H 576.957 0.197917 6.55701 0
M  V30 6082 H 576.874 1.73216 7.35889 0
M  V30 6083 H 578.142 0.616523 7.77058 0
M  V30 6084 N 582.371 -1.3172 0.865308 0
M  V30 6085 C 583.617 -1.97168 0.474633 0
M  V30 6086 C 583.95 -1.68263 -0.969604 0
M  V30 6087 O 583.225 -0.976588 -1.68205 0
M  V30 6088 C 583.508 -3.52689 0.726808 0
M  V30 6089 C 583.361 -3.91185 2.22024 0
M  V30 6090 C 584.68 -4.39689 0.190201 0
M  V30 6091 H 581.799 -0.716185 0.17392 0
M  V30 6092 H 584.441 -1.55925 1.08569 0
M  V30 6093 H 582.591 -3.8795 0.206705 0
M  V30 6094 H 584.263 -3.66049 2.80724 0
M  V30 6095 H 582.506 -3.3996 2.69462 0
M  V30 6096 H 583.177 -4.99604 2.34735 0
M  V30 6097 H 585.653 -4.11225 0.635103 0
M  V30 6098 H 584.529 -5.47469 0.396132 0
M  V30 6099 H 584.79 -4.32683 -0.907625 0
M  V30 6100 N 583.85 -0.624285 -1.44708 0
M  V30 6101 C 584.782 0.12305 -2.28869 0
M  V30 6102 C 585.795 0.81557 -1.40898 0
M  V30 6103 O 586.984 0.678162 -1.65116 0
M  V30 6104 C 584.084 1.19612 -3.1709 0
M  V30 6105 C 583.257 0.587452 -4.33437 0
M  V30 6106 C 582.316 1.55358 -5.02743 0
M  V30 6107 O 581.341 1.07338 -5.58988 0
M  V30 6108 N 582.543 2.88798 -5.03563 0
M  V30 6109 H 585.308 -0.599193 -2.93649 0
M  V30 6110 H 582.87 -0.464954 -1.5508 0
M  V30 6111 H 584.861 1.84261 -3.60319 0
M  V30 6112 H 583.432 1.82067 -2.54107 0
M  V30 6113 H 582.652 -0.237509 -3.93484 0
M  V30 6114 H 583.94 0.161326 -5.08544 0
M  V30 6115 H 583.338 3.30399 -4.59188 0
M  V30 6116 H 581.894 3.48826 -5.50603 0
M  V30 6117 N 585.328 1.53329 -0.364422 0
M  V30 6118 C 586.275 2.25698 0.482607 0
M  V30 6119 C 587.245 1.26325 1.07848 0
M  V30 6120 O 588.43 1.55104 1.11119 0
M  V30 6121 C 585.57 3.04873 1.61699 0
M  V30 6122 C 584.683 4.19135 1.0464 0
M  V30 6123 C 583.818 4.85754 2.14979 0
M  V30 6124 C 582.857 5.9205 1.5538 0
M  V30 6125 N 581.994 6.52365 2.59547 0
M  V30 6126 H 586.834 2.97666 -0.141032 0
M  V30 6127 H 584.371 1.46875 -0.0813692 0
M  V30 6128 H 586.329 3.49051 2.28516 0
M  V30 6129 H 584.959 2.35162 2.2113 0
M  V30 6130 H 584.011 3.79451 0.268553 0
M  V30 6131 H 585.323 4.95525 0.570653 0
M  V30 6132 H 584.477 5.3311 2.89619 0
M  V30 6133 H 583.216 4.08834 2.65906 0
M  V30 6134 H 582.221 5.44058 0.792549 0
M  V30 6135 H 583.446 6.7089 1.0528 0
M  V30 6136 H 581.392 5.78298 3.09689 0
M  V30 6137 H 581.309 7.2429 2.16655 0
M  V30 6138 H 582.577 7.0437 3.33892 0
M  V30 6139 N 586.806 0.0935595 1.57322 0
M  V30 6140 C 587.736 -0.863062 2.16964 0
M  V30 6141 C 588.717 -1.29528 1.10256 0
M  V30 6142 O 589.902 -1.36245 1.38387 0
M  V30 6143 C 587.032 -2.12276 2.74875 0
M  V30 6144 C 585.986 -1.82921 3.86942 0
M  V30 6145 C 585.312 -3.15707 4.31548 0
M  V30 6146 C 586.612 -1.11737 5.10208 0
M  V30 6147 H 588.306 -0.366145 2.97153 0
M  V30 6148 H 585.852 -0.174673 1.42937 0
M  V30 6149 H 587.805 -2.79634 3.1525 0
M  V30 6150 H 586.529 -2.64248 1.91938 0
M  V30 6151 H 585.188 -1.17961 3.47103 0
M  V30 6152 H 584.836 -3.65563 3.45504 0
M  V30 6153 H 584.536 -2.96849 5.07104 0
M  V30 6154 H 586.06 -3.84226 4.74555 0
M  V30 6155 H 587.474 -1.69203 5.47762 0
M  V30 6156 H 585.871 -1.03064 5.91183 0
M  V30 6157 H 586.941 -0.0998818 4.84797 0
M  V30 6158 N 588.284 -1.56567 -0.180126 0
M  V30 6159 C 589.509 -1.85975 -0.918041 0
M  V30 6160 C 589.934 -0.678888 -1.75422 0
M  V30 6161 O 589.292 0.372168 -1.77439 0
M  V30 6162 C 589.34 -3.13731 -1.77779 0
M  V30 6163 O 588.444 -2.95335 -2.87838 0
M  V30 6164 H 587.785 -0.61196 -0.257683 0
M  V30 6165 H 590.315 -2.03798 -0.180923 0
M  V30 6166 H 590.325 -3.4491 -2.17948 0
M  V30 6167 H 589 -3.99293 -1.16352 0
M  V30 6168 H 587.577 -2.7549 -2.51316 0
M  V30 6169 N 589.762 0.448376 -1.51087 0
M  V30 6170 C 590.709 1.54341 -1.71603 0
M  V30 6171 C 591.679 1.56463 -0.557536 0
M  V30 6172 O 592.864 1.73644 -0.79072 0
M  V30 6173 C 590.004 2.92148 -1.83695 0
M  V30 6174 C 589.117 2.99639 -3.11192 0
M  V30 6175 C 588.252 4.285 -3.13944 0
M  V30 6176 C 587.291 4.29819 -4.35801 0
M  V30 6177 N 586.428 5.50186 -4.36164 0
M  V30 6178 H 591.268 1.36151 -2.65079 0
M  V30 6179 H 588.805 0.661585 -1.31383 0
M  V30 6180 H 590.763 3.72093 -1.88687 0
M  V30 6181 H 589.393 3.0892 -0.936374 0
M  V30 6182 H 588.445 2.12425 -3.15562 0
M  V30 6183 H 589.757 2.96474 -4.01129 0
M  V30 6184 H 588.911 5.16811 -3.17791 0
M  V30 6185 H 587.65 4.34307 -2.21876 0
M  V30 6186 H 586.655 3.39902 -4.32142 0
M  V30 6187 H 587.88 4.25685 -5.29121 0
M  V30 6188 H 585.826 5.56735 -3.46961 0
M  V30 6189 H 585.743 5.48856 -5.19897 0
M  V30 6190 H 587.011 6.40559 -4.44189 0
M  V30 6191 N 591.24 1.41047 0.703093 0
M  V30 6192 C 592.188 1.42494 1.83843 0
M  V30 6193 C 593.182 0.303885 1.66652 0
M  V30 6194 O 594.388 0.475544 1.73605 0
M  V30 6195 H 590.763 0.445685 0.605697 0
M  V30 6196 H 592.734 2.38194 1.79739 0
M  V30 6197 C 591.483 1.31666 3.21807 0
M  V30 6198 H 590.806 2.17212 3.35647 0
M  V30 6199 H 592.246 1.36738 4.01346 0
M  V30 6200 C 590.705 0.0281828 3.36888 0
M  V30 6201 O 591.235 -0.929995 3.90786 0
M  V30 6202 N 589.441 -0.0454322 2.90564 0
M  V30 6203 H 588.988 0.735046 2.4689 0
M  V30 6204 H 588.946 -0.906968 3.01034 0
M  V30 6205 N 592.718 -0.936591 1.26751 0
M  V30 6206 C 593.628 -2.06949 1.10496 0
M  V30 6207 C 594.644 -1.7396 0.037271 0
M  V30 6208 O 595.82 -1.99941 0.241944 0
M  V30 6209 C 592.885 -3.38612 0.744491 0
M  V30 6210 C 591.946 -3.85355 1.89209 0
M  V30 6211 C 591.179 -5.10735 1.54873 0
M  V30 6212 O 591.402 -5.68602 0.452546 0
M  V30 6213 O 590.336 -5.52632 2.38499 0
M  V30 6214 H 594.162 -2.23571 2.05547 0
M  V30 6215 H 591.747 -1.05428 1.05855 0
M  V30 6216 H 593.629 -4.17711 0.556396 0
M  V30 6217 H 592.304 -3.23218 -0.176582 0
M  V30 6218 H 591.211 -3.07182 2.13518 0
M  V30 6219 H 592.544 -4.05277 2.79305 0
M  V30 6220 N 594.196 -1.08629 -1.14182 0
M  V30 6221 C 595.442 -0.818556 -1.85546 0
M  V30 6222 C 595.775 0.654076 -1.82854 0
M  V30 6223 O 595.05 1.48099 -1.26083 0
M  V30 6224 C 595.333 -1.34397 -3.3408 0
M  V30 6225 C 595.186 -2.8821 -3.45333 0
M  V30 6226 C 596.505 -0.971069 -4.29253 0
M  V30 6227 H 593.624 -0.298821 -0.673702 0
M  V30 6228 H 596.266 -1.34629 -1.34071 0
M  V30 6229 H 594.416 -0.895064 -3.78049 0
M  V30 6230 H 596.088 -3.41488 -3.10134 0
M  V30 6231 H 594.331 -3.25756 -2.86471 0
M  V30 6232 H 595.002 -3.20047 -4.49749 0
M  V30 6233 H 597.478 -1.35809 -3.93313 0
M  V30 6234 H 596.354 -1.36586 -5.31635 0
M  V30 6235 H 596.615 0.121659 -4.41933 0
M  V30 6236 N 595.674 1.31259 -0.872281 0
M  V30 6237 C 596.604 2.30929 -0.345554 0
M  V30 6238 C 597.585 1.60449 0.5648 0
M  V30 6239 O 598.77 1.8814 0.481335 0
M  V30 6240 C 595.9 3.44348 0.451823 0
M  V30 6241 C 594.854 4.26435 -0.365641 0
M  V30 6242 C 594.18 5.31785 0.557562 0
M  V30 6243 C 595.48 4.97159 -1.60095 0
M  V30 6244 H 597.174 2.75234 -1.17841 0
M  V30 6245 H 594.72 1.3232 -0.568094 0
M  V30 6246 H 596.673 4.13128 0.830854 0
M  V30 6247 H 595.397 2.98816 1.31821 0
M  V30 6248 H 594.056 3.59326 -0.726649 0
M  V30 6249 H 593.704 4.82502 1.4213 0
M  V30 6250 H 593.404 5.87598 0.0144878 0
M  V30 6251 H 594.928 6.03424 0.933387 0
M  V30 6252 H 596.342 5.58523 -1.29323 0
M  V30 6253 H 594.739 5.62779 -2.08327 0
M  V30 6254 H 595.809 4.24012 -2.35249 0
M  V30 6255 N 597.152 0.631951 1.44375 0
M  V30 6256 C 598.085 -0.121822 2.27875 0
M  V30 6257 C 599.063 -0.850457 1.38586 0
M  V30 6258 O 600.247 -0.854378 1.68026 0
M  V30 6259 C 597.374 -1.17859 3.17533 0
M  V30 6260 C 596.42 -0.550391 4.22934 0
M  V30 6261 S 597.253 0.660145 5.31415 0
M  V30 6262 C 598.409 -0.396613 6.24642 0
M  V30 6263 H 598.642 0.586537 2.91457 0
M  V30 6264 H 596.175 0.420146 1.48574 0
M  V30 6265 H 598.133 -1.78335 3.69739 0
M  V30 6266 H 596.794 -1.85915 2.53169 0
M  V30 6267 H 595.987 -1.34631 4.85685 0
M  V30 6268 H 595.589 -0.0202306 3.73995 0
M  V30 6269 H 597.881 -1.26893 6.65511 0
M  V30 6270 H 598.824 0.195345 7.0783 0
M  V30 6271 H 599.232 -0.72288 5.59852 0
M  V30 6272 N 598.631 -1.53133 0.372548 0
M  V30 6273 C 599.877 -2.01654 -0.215277 0
M  V30 6274 C 600.21 -1.25914 -1.47849 0
M  V30 6275 O 599.485 -0.3548 -1.91237 0
M  V30 6276 C 599.768 -3.56609 -0.500187 0
M  V30 6277 C 599.621 -4.43036 0.777145 0
M  V30 6278 C 600.94 -4.20528 -1.29786 0
M  V30 6279 H 598.059 -0.732991 -0.0767686 0
M  V30 6280 H 600.701 -1.83335 0.498814 0
M  V30 6281 H 598.851 -3.7235 -1.10852 0
M  V30 6282 H 600.523 -4.39079 1.41447 0
M  V30 6283 H 598.766 -4.10723 1.39604 0
M  V30 6284 H 599.437 -5.49424 0.532662 0
M  V30 6285 H 601.913 -4.08663 -0.783198 0
M  V30 6286 H 600.789 -5.28962 -1.46596 0
M  V30 6287 H 601.05 -3.77051 -2.30836 0
M  V30 6288 N 600.109 -0.101901 -1.5727 0
M  V30 6289 C 601.057 0.872034 -2.15635 0
M  V30 6290 C 602.051 1.28742 -1.10099 0
M  V30 6291 O 603.257 1.26116 -1.28432 0
M  V30 6292 H 599.632 0.299269 -0.689886 0
M  V30 6293 H 601.603 0.355137 -2.96279 0
M  V30 6294 C 600.352 2.11886 -2.7568 0
M  V30 6295 H 599.675 1.80813 -3.56576 0
M  V30 6296 H 601.115 2.78077 -3.20077 0
M  V30 6297 C 599.574 2.89739 -1.7191 0
M  V30 6298 O 600.104 3.84522 -1.16213 0
M  V30 6299 N 598.31 2.53407 -1.42245 0
M  V30 6300 H 597.857 1.76398 -1.87727 0
M  V30 6301 H 597.815 3.05795 -0.730529 0
M  V30 6302 N 601.587 1.56661 0.17182 0
M  V30 6303 C 602.836 1.81158 0.886831 0
M  V30 6304 C 603.149 0.679072 1.83434 0
M  V30 6305 O 604.355 0.808964 2.59168 0
M  V30 6306 C 602.811 3.20999 1.6275 0
M  V30 6307 C 602.419 4.42117 0.723652 0
M  V30 6308 C 604.163 3.5479 2.33076 0
M  V30 6309 C 602.07 5.7298 1.46452 0
M  V30 6310 H 601 0.675543 0.334899 0
M  V30 6311 H 603.651 1.82967 0.139765 0
M  V30 6312 H 602.033 3.13506 2.4193 0
M  V30 6313 H 603.207 4.60789 -0.0311485 0
M  V30 6314 H 601.522 4.16197 0.130063 0
M  V30 6315 H 604.119 4.49806 2.89099 0
M  V30 6316 H 604.462 2.79646 3.08389 0
M  V30 6317 H 604.995 3.63834 1.6084 0
M  V30 6318 H 601.734 6.51152 0.753729 0
M  V30 6319 H 601.254 5.58285 2.19266 0
M  V30 6320 H 602.933 6.14916 2.01214 0
M  V30 6321 N 603.065 -0.440357 1.51323 0
M  V30 6322 C 604.313 -1.18769 1.63518 0
M  V30 6323 C 604.634 -1.91793 0.352201 0
M  V30 6324 O 603.904 -1.85432 -0.631811 0
M  V30 6325 H 602.484 -0.441408 0.602634 0
M  V30 6326 H 605.146 -0.505162 1.8824 0
M  V30 6327 H 604.242 -1.91892 2.46138 0
M  V30 6328 N 604.543 -1.41418 -0.695603 0
M  V30 6329 C 605.768 -1.44329 -1.48942 0
M  V30 6330 C 606.193 -0.0501579 -1.88033 0
M  V30 6331 O 605.551 0.946598 -1.54626 0
M  V30 6332 C 605.599 -2.3578 -2.72837 0
M  V30 6333 O 604.703 -1.81482 -3.70322 0
M  V30 6334 H 604.044 -0.489838 -0.44828 0
M  V30 6335 H 606.574 -1.85878 -0.855014 0
M  V30 6336 H 606.584 -2.51654 -3.21145 0
M  V30 6337 H 605.259 -3.37005 -2.43722 0
M  V30 6338 H 603.836 -1.75058 -3.29255 0
M  V30 6339 N 606.021 0.929856 -1.27246 0
M  V30 6340 C 606.951 2.04722 -1.12299 0
M  V30 6341 C 607.932 1.70082 -0.0250464 0
M  V30 6342 O 609.117 1.93176 -0.199141 0
M  V30 6343 C 606.247 3.38721 -0.767145 0
M  V30 6344 C 605.201 3.87466 -1.81808 0
M  V30 6345 C 604.527 5.18246 -1.31626 0
M  V30 6346 C 605.827 4.11095 -3.22177 0
M  V30 6347 H 607.521 2.17485 -2.05769 0
M  V30 6348 H 605.067 1.04503 -0.990715 0
M  V30 6349 H 607.02 4.16366 -0.649413 0
M  V30 6350 H 605.744 3.25967 0.203259 0
M  V30 6351 H 604.403 3.12012 -1.92468 0
M  V30 6352 H 604.051 5.01881 -0.335378 0
M  V30 6353 H 603.751 5.51829 -2.01887 0
M  V30 6354 H 605.275 5.98462 -1.21143 0
M  V30 6355 H 606.689 4.79316 -3.1453 0
M  V30 6356 H 605.086 4.55982 -3.90129 0
M  V30 6357 H 606.156 3.16468 -3.67391 0
M  V30 6358 N 607.499 1.09233 1.13605 0
M  V30 6359 C 608.724 0.849067 1.89224 0
M  V30 6360 C 609.149 -0.593875 1.78479 0
M  V30 6361 O 608.507 -1.41703 1.13092 0
M  V30 6362 C 608.555 1.28642 3.36873 0
M  V30 6363 O 607.659 0.44363 4.10007 0
M  V30 6364 H 607 0.30767 0.588417 0
M  V30 6365 H 609.53 1.45595 1.43748 0
M  V30 6366 H 609.54 1.27096 3.87699 0
M  V30 6367 H 608.215 2.33729 3.44011 0
M  V30 6368 H 606.792 0.523241 3.69211 0
M  V30 6369 N 608.977 -1.30795 0.87923 0
M  V30 6370 C 610.205 -2.00527 0.509548 0
M  V30 6371 C 610.62 -1.65944 -0.90045 0
M  V30 6372 O 609.977 -0.893525 -1.5913 0
M  V30 6373 C 610.028 -3.55276 0.667943 0
M  V30 6374 O 609.749 -3.88625 2.02242 0
M  V30 6375 C 611.25 -4.4228 0.300494 0
M  V30 6376 H 608.47 -0.641261 0.197549 0
M  V30 6377 H 611.014 -1.66813 1.18295 0
M  V30 6378 H 609.169 -3.87377 0.0419843 0
M  V30 6379 H 609.583 -4.83334 2.03688 0
M  V30 6380 H 611.057 -5.50061 0.462242 0
M  V30 6381 H 611.534 -4.32556 -0.76106 0
M  V30 6382 H 612.14 -4.15613 0.902536 0
M  V30 6383 N 610.455 -0.639598 -1.44038 0
M  V30 6384 C 611.703 -0.147188 -2.01563 0
M  V30 6385 C 612.024 1.2384 -1.50628 0
M  V30 6386 O 611.294 1.82452 -0.713316 0
M  V30 6387 H 609.874 -0.0514231 -0.745228 0
M  V30 6388 H 612.536 -0.828205 -1.76428 0
M  V30 6389 H 611.632 -0.121358 -3.11864 0
M  V30 6390 N 611.933 1.52934 -0.380664 0
M  V30 6391 C 613.181 2.01069 0.203874 0
M  V30 6392 C 613.502 1.26922 1.4804 0
M  V30 6393 O 612.772 0.386787 1.92044 0
M  V30 6394 H 611.352 0.742882 0.0783279 0
M  V30 6395 H 614.014 1.88099 -0.510368 0
M  V30 6396 H 613.11 3.09258 0.42021 0
M  V30 6397 N 613.412 0.11024 1.57214 0
M  V30 6398 C 614.828 -0.24638 1.57687 0
M  V30 6399 C 615.028 -1.67344 1.12241 0
M  V30 6400 O 614.084 -2.39298 0.805783 0
M  V30 6401 C 615.397 -0.0210288 3.00693 0
M  V30 6402 C 616.945 -0.0876077 3.12877 0
M  V30 6403 C 617.42 0.10994 4.57868 0
M  V30 6404 N 618.911 0.0556135 4.63167 0
M  V30 6405 C 619.646 0.183495 5.73106 0
M  V30 6406 N 619.142 0.367058 6.91827 0
M  V30 6407 N 620.935 0.123689 5.61964 0
M  V30 6408 H 613.086 1.04246 1.85058 0
M  V30 6409 H 615.349 0.40979 0.854854 0
M  V30 6410 H 615.055 0.965203 3.38196 0
M  V30 6411 H 614.929 -0.756748 3.69531 0
M  V30 6412 H 617.316 -1.06436 2.75237 0
M  V30 6413 H 617.397 0.67985 2.466 0
M  V30 6414 H 617.041 1.08362 4.96206 0
M  V30 6415 H 616.971 -0.677397 5.22225 0
M  V30 6416 H 619.462 -0.0831062 3.77809 0
M  V30 6417 H 619.775 0.455739 7.71455 0
M  V30 6418 H 618.12 0.40292 6.93831 0
M  V30 6419 H 621.311 -0.0186928 4.68096 0
M  V30 6420 H 621.484 0.226797 6.47603 0
M  V30 6421 N 614.89 -1.56749 -0.16351 0
M  V30 6422 C 616.136 -1.82704 -0.880168 0
M  V30 6423 C 616.469 -0.689311 -1.81555 0
M  V30 6424 O 615.744 0.308224 -1.92042 0
M  V30 6425 C 616.027 -3.19084 -1.66905 0
M  V30 6426 C 615.88 -4.43397 -0.756269 0
M  V30 6427 C 617.199 -3.52493 -2.63509 0
M  V30 6428 H 614.318 -0.664608 -0.318535 0
M  V30 6429 H 616.96 -1.89438 -0.146036 0
M  V30 6430 H 615.11 -3.13475 -2.2949 0
M  V30 6431 H 616.782 -4.61079 -0.14269 0
M  V30 6432 H 615.025 -4.33752 -0.0647944 0
M  V30 6433 H 615.696 -5.3539 -1.34393 0
M  V30 6434 H 618.172 -3.58606 -2.11047 0
M  V30 6435 H 617.048 -4.48979 -3.15767 0
M  V30 6436 H 617.309 -2.77597 -3.44082 0
M  V30 6437 N 616.368 0.432326 -1.51554 0
M  V30 6438 C 617.593 1.20824 -1.68571 0
M  V30 6439 C 618.018 1.84126 -0.384596 0
M  V30 6440 O 617.376 1.69025 0.655751 0
M  V30 6441 C 617.424 2.26429 -2.80646 0
M  V30 6442 O 616.528 3.32032 -2.44598 0
M  V30 6443 H 615.869 0.353765 -0.561913 0
M  V30 6444 H 618.399 0.509916 -1.98144 0
M  V30 6445 H 618.409 2.71133 -3.04878 0
M  V30 6446 H 617.084 1.79733 -3.75058 0
M  V30 6447 H 615.661 2.92769 -2.30956 0
M  V30 6448 N 617.846 1.41785 0.688094 0
M  V30 6449 C 618.809 1.43936 1.78368 0
M  V30 6450 C 619.809 0.328866 1.57401 0
M  V30 6451 O 620.999 0.589093 1.63937 0
M  V30 6452 C 618.131 1.25804 3.16838 0
M  V30 6453 H 619.324 2.41472 1.77852 0
M  V30 6454 H 616.877 1.28037 0.896448 0
M  V30 6455 H 617.612 0.291386 3.22988 0
M  V30 6456 H 617.397 2.06272 3.33458 0
M  V30 6457 H 618.887 1.30162 3.96797 0
M  V30 6458 N 619.324 -0.923095 1.27737 0
M  V30 6459 C 620.57 -1.67375 1.14514 0
M  V30 6460 C 620.903 -1.91751 -0.307424 0
M  V30 6461 O 620.178 -1.51119 -1.22447 0
M  V30 6462 C 620.461 -3.03745 1.9342 0
M  V30 6463 C 620.314 -2.86581 3.46686 0
M  V30 6464 C 621.633 -4.04144 1.74228 0
M  V30 6465 H 618.752 -0.607427 0.417374 0
M  V30 6466 H 621.394 -1.07089 1.56946 0
M  V30 6467 H 619.544 -3.55204 1.5736 0
M  V30 6468 H 621.216 -2.42203 3.92601 0
M  V30 6469 H 619.459 -2.21829 3.72793 0
M  V30 6470 H 620.13 -3.83381 3.97143 0
M  V30 6471 H 622.606 -3.61712 2.05678 0
M  V30 6472 H 621.482 -4.97543 2.31824 0
M  V30 6473 H 621.743 -4.36661 0.691373 0
M  V30 6474 N 620.802 -1.09834 -1.13024 0
M  V30 6475 C 621.749 -0.741522 -2.18564 0
M  V30 6476 C 622.719 0.279236 -1.63736 0
M  V30 6477 O 623.904 0.159923 -1.90129 0
M  V30 6478 C 621.044 -0.17277 -3.44667 0
M  V30 6479 C 620.157 -1.24808 -4.13578 0
M  V30 6480 C 619.292 -0.641631 -5.27311 0
M  V30 6481 C 618.331 -1.69795 -5.88078 0
M  V30 6482 N 617.468 -1.11223 -6.93234 0
M  V30 6483 H 622.308 -1.64576 -2.48432 0
M  V30 6484 H 619.845 -0.822174 -1.21978 0
M  V30 6485 H 621.803 0.17482 -4.16834 0
M  V30 6486 H 620.433 0.694725 -3.15235 0
M  V30 6487 H 619.485 -1.71288 -3.39653 0
M  V30 6488 H 620.797 -2.04795 -4.54819 0
M  V30 6489 H 619.951 -0.243128 -6.06213 0
M  V30 6490 H 618.69 0.189742 -4.87331 0
M  V30 6491 H 617.695 -2.10595 -5.07868 0
M  V30 6492 H 618.92 -2.53206 -6.3013 0
M  V30 6493 H 616.866 -0.302208 -6.55304 0
M  V30 6494 H 616.783 -1.84901 -7.3304 0
M  V30 6495 H 618.051 -0.740068 -7.75979 0
M  V30 6496 N 622.28 1.30327 -0.886154 0
M  V30 6497 C 623.243 2.26376 -0.358687 0
M  V30 6498 C 624.243 1.52845 0.499498 0
M  V30 6499 O 625.433 1.71483 0.306485 0
M  V30 6500 C 622.565 3.37379 0.488726 0
M  V30 6501 H 623.758 2.74547 -1.20681 0
M  V30 6502 H 621.311 1.41536 -0.663113 0
M  V30 6503 H 622.046 2.94526 1.35739 0
M  V30 6504 H 621.831 3.91897 -0.126003 0
M  V30 6505 H 623.321 4.08868 0.84952 0
M  V30 6506 N 623.758 0.647228 1.43697 0
M  V30 6507 C 625.035 0.0883758 1.954 0
M  V30 6508 C 625.415 -1.39006 1.58873 0
M  V30 6509 O 624.763 -2.11255 0.87083 0
M  V30 6510 C 624.973 0.328263 3.47453 0
M  V30 6511 C 626.321 0.230009 4.23977 0
M  V30 6512 O 627.345 0.260496 3.55246 0
M  V30 6513 O 626.204 0.148615 5.46298 0
M  V30 6514 H 623.298 -0.0130683 0.826897 0
M  V30 6515 H 625.844 0.72005 1.53666 0
M  V30 6516 H 624.616 1.3535 3.67146 0
M  V30 6517 H 624.239 -0.336772 3.96171 0
M  V30 6518 N 625.236 -1.5273 0.388769 0
M  V30 6519 C 626.166 -2.29353 -0.438111 0
M  V30 6520 C 627.147 -1.32719 -1.06394 0
M  V30 6521 O 628.332 -1.61612 -1.07681 0
M  V30 6522 C 625.462 -3.09995 -1.56589 0
M  V30 6523 C 624.416 -4.14509 -1.06613 0
M  V30 6524 C 623.742 -4.83372 -2.28594 0
M  V30 6525 C 625.042 -5.22127 -0.134459 0
M  V30 6526 H 626.736 -2.98723 0.201206 0
M  V30 6527 H 624.282 -1.43665 0.0982089 0
M  V30 6528 H 626.235 -3.62357 -2.15118 0
M  V30 6529 H 624.959 -2.38357 -2.23279 0
M  V30 6530 H 623.618 -3.63128 -0.503383 0
M  V30 6531 H 623.266 -4.08283 -2.93792 0
M  V30 6532 H 622.966 -5.54012 -1.95817 0
M  V30 6533 H 624.49 -5.38538 -2.87766 0
M  V30 6534 H 625.904 -5.69851 -0.627914 0
M  V30 6535 H 624.301 -6.00011 0.103534 0
M  V30 6536 H 625.371 -4.77971 0.816798 0
M  V30 6537 N 626.714 -0.118576 -1.57153 0
M  V30 6538 C 627.962 0.538461 -1.94795 0
M  V30 6539 C 628.283 1.67243 -1.00274 0
M  V30 6540 O 627.553 1.95811 -0.0589692 0
M  V30 6541 H 626.133 0.201904 -0.719197 0
M  V30 6542 H 628.795 -0.187418 -1.93997 0
M  V30 6543 H 627.891 0.933315 -2.97818 0
M  V30 6544 N 628.193 1.56834 0.155195 0
M  V30 6545 C 629.14 1.97646 1.19184 0
M  V30 6546 C 630.11 0.842788 1.4313 0
M  V30 6547 O 631.295 1.1042 1.55602 0
M  V30 6548 C 628.435 2.35527 2.52232 0
M  V30 6549 C 627.548 3.62147 2.35529 0
M  V30 6550 C 626.683 3.89167 3.61555 0
M  V30 6551 C 625.722 5.09084 3.39853 0
M  V30 6552 N 624.859 5.32156 4.5799 0
M  V30 6553 H 629.699 2.8601 0.836802 0
M  V30 6554 H 627.236 1.41507 0.401758 0
M  V30 6555 H 629.194 2.55516 3.29799 0
M  V30 6556 H 627.824 1.50253 2.85699 0
M  V30 6557 H 626.876 3.4998 1.49057 0
M  V30 6558 H 628.188 4.49871 2.15448 0
M  V30 6559 H 627.342 4.09611 4.47553 0
M  V30 6560 H 626.081 2.9985 3.84632 0
M  V30 6561 H 625.086 4.88522 2.52243 0
M  V30 6562 H 626.311 5.99947 3.18183 0
M  V30 6563 H 624.257 4.45791 4.81255 0
M  V30 6564 H 624.174 6.14133 4.40882 0
M  V30 6565 H 625.442 5.57091 5.45225 0
M  V30 6566 N 629.671 -0.424282 1.51781 0
M  V30 6567 C 630.92 -1.16961 1.64326 0
M  V30 6568 C 631.233 -1.92035 0.371749 0
M  V30 6569 O 632.439 -2.68873 0.37676 0
M  V30 6570 C 630.895 -2.12782 2.90262 0
M  V30 6571 C 630.503 -1.43295 4.24465 0
M  V30 6572 C 632.247 -2.87667 3.12166 0
M  V30 6573 C 630.154 -2.37676 5.41538 0
M  V30 6574 H 629.084 -0.440293 0.612093 0
M  V30 6575 H 631.735 -0.435431 1.78259 0
M  V30 6576 H 630.117 -2.8969 2.69992 0
M  V30 6577 H 631.291 -0.718564 4.55163 0
M  V30 6578 H 629.606 -0.805118 4.08542 0
M  V30 6579 H 632.203 -3.58395 3.96808 0
M  V30 6580 H 632.546 -3.49758 2.25776 0
M  V30 6581 H 633.079 -2.17863 3.32837 0
M  V30 6582 H 629.818 -1.80255 6.30229 0
M  V30 6583 H 629.338 -3.07132 5.15199 0
M  V30 6584 H 631.017 -2.98529 5.74012 0
M  V30 6585 N 631.149 -1.42148 -0.680565 0
M  V30 6586 C 632.395 -1.42521 -1.44277 0
M  V30 6587 C 632.728 -0.0393718 -1.9416 0
M  V30 6588 O 632.003 0.935425 -1.70529 0
M  V30 6589 C 632.286 -2.44475 -2.64394 0
M  V30 6590 C 632.139 -3.92226 -2.20179 0
M  V30 6591 C 633.458 -2.43491 -3.66606 0
M  V30 6592 H 630.577 -0.518985 -0.523282 0
M  V30 6593 H 633.219 -1.73524 -0.773914 0
M  V30 6594 H 631.369 -2.18168 -3.21458 0
M  V30 6595 H 633.041 -4.29493 -1.68327 0
M  V30 6596 H 631.284 -4.0637 -1.5181 0
M  V30 6597 H 631.955 -4.59133 -3.06433 0
M  V30 6598 H 634.431 -2.66872 -3.19247 0
M  V30 6599 H 633.307 -3.16816 -4.4824 0
M  V30 6600 H 633.568 -1.45881 -4.17338 0
M  V30 6601 N 632.627 0.916307 -1.28225 0
M  V30 6602 C 633.557 2.0352 -1.14464 0
M  V30 6603 C 634.538 1.70045 -0.0430844 0
M  V30 6604 O 635.723 1.92954 -0.219619 0
M  V30 6605 C 632.853 3.37889 -0.803027 0
M  V30 6606 C 631.807 3.85516 -1.85908 0
M  V30 6607 C 631.133 5.1682 -1.37116 0
M  V30 6608 C 632.433 4.07655 -3.26519 0
M  V30 6609 H 634.127 2.1529 -2.08064 0
M  V30 6610 H 631.673 1.03446 -1.00174 0
M  V30 6611 H 633.626 4.15654 -0.693537 0
M  V30 6612 H 632.35 3.26164 0.168674 0
M  V30 6613 H 631.009 3.09953 -1.95767 0
M  V30 6614 H 630.657 5.01497 -0.38859 0
M  V30 6615 H 630.357 5.49657 -2.07728 0
M  V30 6616 H 631.881 5.97143 -1.27484 0
M  V30 6617 H 633.295 4.75953 -3.19596 0
M  V30 6618 H 631.692 4.51818 -3.94943 0
M  V30 6619 H 632.762 3.12553 -3.70727 0
M  V30 6620 N 634.105 1.10431 1.1244 0
M  V30 6621 C 635.333 0.868872 1.87772 0
M  V30 6622 C 635.748 -0.580645 1.7965 0
M  V30 6623 O 635.105 -1.40031 1.17036 0
M  V30 6624 C 635.156 1.30855 3.36986 0
M  V30 6625 O 634.877 2.70123 3.44914 0
M  V30 6626 C 636.378 1.107 4.29256 0
M  V30 6627 H 633.598 0.311868 0.59412 0
M  V30 6628 H 636.142 1.46897 1.42273 0
M  V30 6629 H 634.297 0.752126 3.80029 0
M  V30 6630 H 634.711 2.88923 4.37748 0
M  V30 6631 H 636.185 1.46378 5.32238 0
M  V30 6632 H 636.662 0.0456228 4.39176 0
M  V30 6633 H 637.268 1.64988 3.91994 0
M  V30 6634 N 635.583 -1.29855 0.893053 0
M  V30 6635 C 636.531 -2.29867 0.355512 0
M  V30 6636 C 637.525 -1.60502 -0.541801 0
M  V30 6637 O 638.731 -1.74902 -0.425339 0
M  V30 6638 H 635.106 -0.745805 0.0963247 0
M  V30 6639 H 637.077 -2.72655 1.21252 0
M  V30 6640 C 635.826 -3.453 -0.407801 0
M  V30 6641 H 635.149 -3.98864 0.273426 0
M  V30 6642 H 636.589 -4.17334 -0.748887 0
M  V30 6643 C 635.048 -2.96051 -1.60795 0
M  V30 6644 O 635.578 -2.96763 -2.7073 0
M  V30 6645 N 633.784 -2.51963 -1.44786 0
M  V30 6646 H 633.331 -2.51583 -0.553498 0
M  V30 6647 H 633.289 -2.1937 -2.2522 0
M  V30 6648 N 637.061 -0.65484 -1.43351 0
M  V30 6649 C 638.472 -0.248506 -1.85039 0
M  V30 6650 C 638.823 1.20526 -1.54816 0
M  V30 6651 O 637.948 1.92016 -0.99794 0
M  V30 6652 C 638.543 -0.444241 -3.35875 0
M  V30 6653 C 637.102 -0.0922108 -3.76287 0
M  V30 6654 C 636.249 -0.746327 -2.67068 0
M  V30 6655 H 639.2 -0.8584 -1.33481 0
M  V30 6656 H 639.221 0.309762 -3.79237 0
M  V30 6657 H 638.733 -1.50239 -3.5784 0
M  V30 6658 H 636.834 0.96328 -3.59933 0
M  V30 6659 H 636.947 -0.518807 -4.76283 0
M  V30 6660 H 635.311 -0.179416 -2.54067 0
M  V30 6661 H 636.094 -1.80754 -2.91861 0
M  V30 6662 N 638.539 1.52521 -0.396863 0
M  V30 6663 C 639.785 2.01971 0.183169 0
M  V30 6664 C 640.118 1.2825 1.45827 0
M  V30 6665 O 639.393 0.385179 1.90648 0
M  V30 6666 C 639.676 3.5736 0.443391 0
M  V30 6667 C 639.529 4.41743 -0.84753 0
M  V30 6668 C 640.848 4.22539 1.2308 0
M  V30 6669 H 637.967 0.734119 0.0650976 0
M  V30 6670 H 640.609 1.82519 -0.527918 0
M  V30 6671 H 638.759 3.74066 1.04914 0
M  V30 6672 H 640.431 4.36773 -1.48414 0
M  V30 6673 H 638.674 4.0845 -1.4612 0
M  V30 6674 H 639.345 5.48507 -0.620003 0
M  V30 6675 H 641.821 4.09857 0.718084 0
M  V30 6676 H 640.697 5.31227 1.38162 0
M  V30 6677 H 640.958 3.80675 2.24808 0
M  V30 6678 N 640.017 0.126909 1.57088 0
M  V30 6679 C 641.257 -0.53216 1.97351 0
M  V30 6680 C 641.621 -1.63342 1.00913 0
M  V30 6681 O 642.822 -2.35194 1.30144 0
M  V30 6682 C 641.093 -1.04385 3.41817 0
M  V30 6683 S 642.652 -1.71033 4.04095 0
M  V30 6684 H 639.47 -0.172724 0.689701 0
M  V30 6685 H 642.072 0.213865 1.94327 0
M  V30 6686 H 640.776 -0.231289 4.09748 0
M  V30 6687 H 640.307 -1.82496 3.48509 0
M  V30 6688 H 642.322 -2.99656 3.95501 0
M  V30 6689 N 641.495 -1.56914 -0.146875 0
M  V30 6690 C 642.723 -1.87515 -0.874394 0
M  V30 6691 C 643.138 -0.715116 -1.74733 0
M  V30 6692 O 642.495 0.315113 -1.79759 0
M  V30 6693 C 642.546 -3.17362 -1.731 0
M  V30 6694 O 642.267 -4.28897 -0.893245 0
M  V30 6695 C 643.768 -3.61479 -2.56609 0
M  V30 6696 H 640.988 -0.621546 -0.252827 0
M  V30 6697 H 643.532 -2.04023 -0.139627 0
M  V30 6698 H 641.687 -3.02608 -2.41883 0
M  V30 6699 H 642.101 -5.03146 -1.48137 0
M  V30 6700 H 643.575 -4.5517 -3.12289 0
M  V30 6701 H 644.052 -2.86773 -3.32653 0
M  V30 6702 H 644.658 -3.78927 -1.93117 0
M  V30 6703 N 642.974 0.416227 -1.52004 0
M  V30 6704 C 643.884 1.53147 -1.77717 0
M  V30 6705 C 644.9 1.609 -0.662368 0
M  V30 6706 O 646.076 1.77747 -0.946991 0
M  V30 6707 C 643.141 2.88948 -1.91598 0
M  V30 6708 C 642.202 2.9114 -3.15493 0
M  V30 6709 C 641.435 4.20464 -3.28703 0
M  V30 6710 O 641.658 5.13981 -2.47345 0
M  V30 6711 O 640.592 4.29368 -4.21813 0
M  V30 6712 H 644.418 1.34357 -2.72363 0
M  V30 6713 H 642.003 0.601373 -1.36762 0
M  V30 6714 H 643.885 3.69505 -2.02593 0
M  V30 6715 H 642.56 3.07821 -1.00141 0
M  V30 6716 H 641.467 2.09461 -3.09962 0
M  V30 6717 H 642.8 2.77216 -4.06709 0
M  V30 6718 N 644.452 1.42507 0.673017 0
M  V30 6719 C 645.698 1.43284 1.43519 0
M  V30 6720 C 646.031 0.049668 1.94136 0
M  V30 6721 O 645.306 -0.926369 1.71022 0
M  V30 6722 C 645.589 2.45874 2.63093 0
M  V30 6723 C 645.442 3.93388 2.18096 0
M  V30 6724 C 646.761 2.45431 3.6531 0
M  V30 6725 H 643.88 0.521752 0.520522 0
M  V30 6726 H 646.522 1.73932 0.764701 0
M  V30 6727 H 644.672 2.19869 3.20296 0
M  V30 6728 H 646.344 4.30379 1.66046 0
M  V30 6729 H 644.587 4.07169 1.49652 0
M  V30 6730 H 645.258 4.60752 3.03993 0
M  V30 6731 H 647.734 2.68561 3.17827 0
M  V30 6732 H 646.61 3.19189 4.46553 0
M  V30 6733 H 646.871 1.48092 4.16559 0
M  V30 6734 N 645.93 -0.909495 1.28709 0
M  V30 6735 C 647.178 -1.65577 1.15882 0
M  V30 6736 C 647.499 -1.928 -0.292108 0
M  V30 6737 O 646.769 -1.54716 -1.20166 0
M  V30 6738 H 645.349 -0.613714 0.425869 0
M  V30 6739 H 648.011 -1.09108 1.61498 0
M  V30 6740 H 647.107 -2.61634 1.70159 0
M  V30 6741 N 647.408 -1.11026 -1.11852 0
M  V30 6742 C 648.318 -0.777252 -2.2135 0
M  V30 6743 C 649.334 0.227821 -1.72502 0
M  V30 6744 O 650.51 0.0650587 -2.01295 0
M  V30 6745 C 647.575 -0.220668 -3.45997 0
M  V30 6746 C 646.636 -1.2838 -4.09655 0
M  V30 6747 C 645.869 -0.753678 -5.28352 0
M  V30 6748 O 646.092 0.417779 -5.68868 0
M  V30 6749 O 645.026 -1.51647 -5.82483 0
M  V30 6750 H 648.852 -1.69141 -2.5224 0
M  V30 6751 H 646.437 -0.885836 -1.20305 0
M  V30 6752 H 648.319 0.0855756 -4.21313 0
M  V30 6753 H 646.994 0.666262 -3.16769 0
M  V30 6754 H 645.901 -1.64299 -3.3609 0
M  V30 6755 H 647.234 -2.14396 -4.43052 0
M  V30 6756 N 648.886 1.2938 -0.899927 0
M  V30 6757 C 649.833 2.27713 -0.376243 0
M  V30 6758 C 650.803 1.57016 0.541774 0
M  V30 6759 O 651.988 1.84997 0.466966 0
M  V30 6760 C 649.128 3.42889 0.39 0
M  V30 6761 C 648.241 4.28369 -0.558938 0
M  V30 6762 C 647.376 5.30726 0.224379 0
M  V30 6763 C 646.415 6.07862 -0.719068 0
M  V30 6764 N 645.552 7.02094 0.0298569 0
M  V30 6765 H 650.392 2.71888 -1.21988 0
M  V30 6766 H 647.929 1.33724 -0.612879 0
M  V30 6767 H 649.887 4.08443 0.850314 0
M  V30 6768 H 648.517 2.99743 1.19809 0
M  V30 6769 H 647.569 3.62986 -1.13777 0
M  V30 6770 H 648.881 4.82068 -1.2811 0
M  V30 6771 H 648.035 6.02098 0.745881 0
M  V30 6772 H 646.774 4.77759 0.979674 0
M  V30 6773 H 645.779 5.35353 -1.25207 0
M  V30 6774 H 647.004 6.62917 -1.4737 0
M  V30 6775 H 644.95 6.51496 0.767415 0
M  V30 6776 H 644.867 7.5335 -0.632391 0
M  V30 6777 H 646.135 7.77685 0.531615 0
M  V30 6778 N 650.364 0.662433 1.43002 0
M  V30 6779 C 651.613 0.176873 2.00923 0
M  V30 6780 C 651.926 -1.21954 1.52927 0
M  V30 6781 O 653.132 -1.80081 2.03182 0
M  V30 6782 C 651.588 0.265379 3.5892 0
M  V30 6783 C 651.196 1.66507 4.15908 0
M  V30 6784 C 652.94 -0.162103 4.2419 0
M  V30 6785 C 650.847 1.707 5.66229 0
M  V30 6786 H 649.777 0.0623627 0.751417 0
M  V30 6787 H 652.428 0.825813 1.63868 0
M  V30 6788 H 650.81 -0.451235 3.93421 0
M  V30 6789 H 651.984 2.40777 3.92891 0
M  V30 6790 H 650.299 2.03932 3.63044 0
M  V30 6791 H 652.896 -0.150745 5.34487 0
M  V30 6792 H 653.239 -1.19519 3.98774 0
M  V30 6793 H 653.772 0.503075 3.94606 0
M  V30 6794 H 650.511 2.7195 5.96426 0
M  V30 6795 H 650.031 1.00768 5.91275 0
M  V30 6796 H 651.71 1.45487 6.3043 0
M  V30 6797 N 651.842 -1.52309 0.404946 0
M  V30 6798 C 652.805 -2.25491 -0.410651 0
M  V30 6799 C 653.805 -1.27704 -0.977154 0
M  V30 6800 O 654.995 -1.51679 -0.856691 0
M  V30 6801 C 652.127 -3.02197 -1.57765 0
M  V30 6802 H 653.32 -2.99015 0.230277 0
M  V30 6803 H 650.873 -1.55506 0.157377 0
M  V30 6804 H 651.608 -2.33013 -2.25556 0
M  V30 6805 H 651.393 -3.73987 -1.17797 0
M  V30 6806 H 652.883 -3.57719 -2.15469 0
M  V30 6807 N 653.32 -0.135238 -1.57019 0
M  V30 6808 C 654.25 0.805235 -2.19176 0
M  V30 6809 C 655.231 1.2656 -1.13651 0
M  V30 6810 O 656.416 1.32528 -1.4195 0
M  V30 6811 C 653.546 2.04914 -2.80406 0
M  V30 6812 C 652.5 1.72598 -3.91655 0
M  V30 6813 C 651.826 3.04154 -4.39766 0
M  V30 6814 C 653.126 0.981709 -5.12991 0
M  V30 6815 H 654.82 0.287232 -2.98019 0
M  V30 6816 H 652.366 0.136714 -1.4335 0
M  V30 6817 H 654.319 2.71178 -3.22553 0
M  V30 6818 H 653.043 2.59067 -1.98877 0
M  V30 6819 H 651.702 1.08717 -3.50109 0
M  V30 6820 H 651.35 3.56274 -3.55075 0
M  V30 6821 H 651.05 2.83299 -5.14796 0
M  V30 6822 H 652.574 3.71509 -4.84576 0
M  V30 6823 H 653.988 1.5462 -5.52056 0
M  V30 6824 H 652.385 0.873533 -5.93708 0
M  V30 6825 H 653.455 -0.0286887 -4.84892 0
M  V30 6826 N 654.798 1.5699 0.138552 0
M  V30 6827 C 656.023 1.88344 0.86841 0
M  V30 6828 C 656.448 0.725159 1.7356 0
M  V30 6829 O 655.806 -0.324992 1.78363 0
M  V30 6830 C 655.854 3.18334 1.69398 0
M  V30 6831 O 654.958 3.02863 2.79907 0
M  V30 6832 H 654.299 0.618577 0.241367 0
M  V30 6833 H 656.829 2.04207 0.126826 0
M  V30 6834 H 656.839 3.50567 2.08726 0
M  V30 6835 H 655.514 4.02238 1.05725 0
M  V30 6836 H 654.091 2.82056 2.43924 0
M  V30 6837 N 656.276 -0.40816 1.52223 0
M  V30 6838 C 657.692 -0.74685 1.41047 0
M  V30 6839 C 657.892 -1.94788 0.51573 0
M  V30 6840 O 656.948 -2.52494 -0.0181156 0
M  V30 6841 C 658.261 -0.999878 2.83589 0
M  V30 6842 C 659.809 -1.10253 2.92939 0
M  V30 6843 C 660.284 -1.38832 4.36451 0
M  V30 6844 N 661.775 -1.45694 4.3969 0
M  V30 6845 C 662.51 -1.69435 5.47795 0
M  V30 6846 N 662.006 -1.90774 6.66016 0
M  V30 6847 N 663.799 -1.71458 5.35312 0
M  V30 6848 H 655.95 0.382409 2.08929 0
M  V30 6849 H 658.213 0.108807 0.941735 0
M  V30 6850 H 657.919 -0.189723 3.51188 0
M  V30 6851 H 657.793 -1.91978 3.24691 0
M  V30 6852 H 660.18 -1.90328 2.2552 0
M  V30 6853 H 660.261 -0.160973 2.55293 0
M  V30 6854 H 659.905 -0.592741 5.04429 0
M  V30 6855 H 659.835 -2.34241 4.71634 0
M  V30 6856 H 662.326 -1.3099 3.54472 0
M  V30 6857 H 662.639 -2.08342 7.44186 0
M  V30 6858 H 660.984 -1.88037 6.69079 0
M  V30 6859 H 664.175 -1.54326 4.41929 0
M  V30 6860 H 664.348 -1.89621 6.19635 0
M  V30 6861 N 657.755 -1.42862 -0.66545 0
M  V30 6862 C 659.171 -1.25993 -0.979687 0
M  V30 6863 C 659.371 -0.170831 -2.00775 0
M  V30 6864 O 658.427 0.454827 -2.4837 0
M  V30 6865 C 659.74 -2.62005 -1.47559 0
M  V30 6866 C 661.288 -2.69437 -1.59288 0
M  V30 6867 C 661.763 -4.05838 -2.12272 0
M  V30 6868 N 663.254 -4.0784 -2.19592 0
M  V30 6869 C 663.989 -5.10205 -2.61684 0
M  V30 6870 N 663.485 -6.22949 -3.03161 0
M  V30 6871 N 665.278 -4.9756 -2.61516 0
M  V30 6872 H 657.429 -2.12395 0.0150493 0
M  V30 6873 H 659.692 -0.946355 -0.0558187 0
M  V30 6874 H 659.398 -3.42605 -0.794654 0
M  V30 6875 H 659.272 -2.86566 -2.45275 0
M  V30 6876 H 661.659 -1.89178 -2.26486 0
M  V30 6877 H 661.74 -2.48655 -0.600374 0
M  V30 6878 H 661.384 -4.86559 -1.4568 0
M  V30 6879 H 661.314 -4.23977 -3.12331 0
M  V30 6880 H 663.805 -3.26452 -1.90361 0
M  V30 6881 H 664.118 -6.96899 -3.33993 0
M  V30 6882 H 662.463 -6.2644 -3.00995 0
M  V30 6883 H 665.654 -4.08551 -2.28481 0
M  V30 6884 H 665.827 -5.77468 -2.93999 0
M  V30 6885 N 659.233 0.902656 -1.29189 0
M  V30 6886 C 660.479 1.65532 -1.17163 0
M  V30 6887 C 660.812 1.92216 0.276879 0
M  V30 6888 O 660.087 1.53048 1.20027 0
M  V30 6889 C 660.37 3.00629 -1.98228 0
M  V30 6890 C 660.223 2.81029 -3.51202 0
M  V30 6891 C 661.542 4.01321 -1.80635 0
M  V30 6892 H 658.661 0.60071 -0.426985 0
M  V30 6893 H 661.303 1.04578 -1.5863 0
M  V30 6894 H 659.453 3.52656 -1.62991 0
M  V30 6895 H 661.125 2.35927 -3.96404 0
M  V30 6896 H 659.368 2.1587 -3.76275 0
M  V30 6897 H 660.039 3.77014 -4.03192 0
M  V30 6898 H 662.515 3.58394 -2.11406 0
M  V30 6899 H 661.391 4.93792 -2.3971 0
M  V30 6900 H 661.652 4.35505 -0.760754 0
M  V30 6901 N 660.711 1.11618 1.11262 0
M  V30 6902 C 661.621 0.78898 2.20935 0
M  V30 6903 C 662.637 -0.21867 1.7262 0
M  V30 6904 O 663.813 -0.0543826 2.01327 0
M  V30 6905 C 660.878 0.239014 3.45875 0
M  V30 6906 C 659.939 1.3055 4.08968 0
M  V30 6907 C 659.172 0.781687 5.27944 0
M  V30 6908 O 659.395 -0.387605 5.69082 0
M  V30 6909 O 658.329 1.54734 5.81671 0
M  V30 6910 H 662.155 1.70477 2.51339 0
M  V30 6911 H 659.74 0.892203 1.19834 0
M  V30 6912 H 661.622 -0.0632312 4.21353 0
M  V30 6913 H 660.297 -0.649454 3.17118 0
M  V30 6914 H 659.204 1.66079 3.35214 0
M  V30 6915 H 660.537 2.16743 4.41909 0
M  V30 6916 N 662.189 -1.289 0.906776 0
M  V30 6917 C 663.136 -2.2751 0.388313 0
M  V30 6918 C 664.106 -1.57301 -0.533439 0
M  V30 6919 O 665.291 -1.85243 -0.457148 0
M  V30 6920 C 662.431 -3.43091 -0.37181 0
M  V30 6921 C 661.544 -4.28066 0.581647 0
M  V30 6922 C 660.679 -5.30837 -0.19623 0
M  V30 6923 C 659.718 -6.07472 0.751294 0
M  V30 6924 N 658.855 -7.021 0.00737727 0
M  V30 6925 H 663.695 -2.71237 1.23428 0
M  V30 6926 H 661.232 -1.33397 0.619962 0
M  V30 6927 H 663.19 -4.08888 -0.828641 0
M  V30 6928 H 661.82 -3.00374 -1.18218 0
M  V30 6929 H 660.872 -3.62378 1.157 0
M  V30 6930 H 662.184 -4.81382 1.30665 0
M  V30 6931 H 661.338 -6.02485 -0.71394 0
M  V30 6932 H 660.077 -4.78272 -0.954324 0
M  V30 6933 H 659.082 -5.34682 1.28044 0
M  V30 6934 H 660.307 -6.62126 1.50883 0
M  V30 6935 H 658.253 -6.51894 -0.732854 0
M  V30 6936 H 658.17 -7.53004 0.672334 0
M  V30 6937 H 659.438 -7.77956 -0.490365 0
M  V30 6938 N 663.667 -0.670007 -1.42649 0
M  V30 6939 C 664.617 0.0339546 -2.27975 0
M  V30 6940 C 665.601 0.778295 -1.40824 0
M  V30 6941 O 666.793 0.657997 -1.64315 0
M  V30 6942 C 663.922 0.987899 -3.28779 0
M  V30 6943 C 663.008 0.241153 -4.23414 0
M  V30 6944 N 663.399 -0.751392 -5.00188 0
M  V30 6945 C 661.697 0.480269 -4.43407 0
M  V30 6946 C 662.398 -1.19615 -5.69269 0
M  V30 6947 N 661.374 -0.527045 -5.41039 0
M  V30 6948 H 665.176 -0.727425 -2.84756 0
M  V30 6949 H 662.69 -0.498673 -1.54554 0
M  V30 6950 H 664.687 1.50716 -3.88703 0
M  V30 6951 H 663.347 1.74916 -2.73559 0
M  V30 6952 H 664.358 -1.13075 -5.05405 0
M  V30 6953 H 661.035 1.2214 -3.99234 0
M  V30 6954 H 662.425 -2.01836 -6.40868 0
M  V30 6955 N 665.145 1.52092 -0.413018 0
M  V30 6956 C 666.391 2.02815 0.154104 0
M  V30 6957 C 666.746 1.293 1.42475 0
M  V30 6958 O 666.039 0.391835 1.87551 0
M  V30 6959 C 666.233 3.54529 0.4521 0
M  V30 6960 C 666.062 4.4274 -0.788116 0
M  V30 6961 C 664.832 4.87903 -1.31447 0
M  V30 6962 C 667.03 4.86522 -1.66735 0
M  V30 6963 N 665.012 5.60254 -2.50976 0
M  V30 6964 C 666.383 5.57692 -2.70886 0
M  V30 6965 C 668.438 4.68534 -1.68465 0
M  V30 6966 C 667.141 6.12783 -3.76682 0
M  V30 6967 C 669.167 5.24524 -2.73182 0
M  V30 6968 C 668.529 5.9562 -3.76054 0
M  V30 6969 H 664.628 0.781796 0.0178567 0
M  V30 6970 H 667.212 1.86223 -0.568237 0
M  V30 6971 H 665.383 3.71186 1.14348 0
M  V30 6972 H 667.115 3.91934 1.00844 0
M  V30 6973 H 663.87 4.65504 -0.871931 0
M  V30 6974 H 664.294 6.01069 -3.11521 0
M  V30 6975 H 668.936 4.13051 -0.902708 0
M  V30 6976 H 666.654 6.67335 -4.55729 0
M  V30 6977 H 670.24 5.12473 -2.75433 0
M  V30 6978 H 669.12 6.38169 -4.55752 0
M  V30 6979 N 666.623 0.143563 1.56945 0
M  V30 6980 C 668.039 -0.212877 1.58174 0
M  V30 6981 C 668.239 -1.64926 1.15766 0
M  V30 6982 O 667.295 -2.37535 0.856361 0
M  V30 6983 C 668.608 0.0427573 3.0067 0
M  V30 6984 C 670.156 -0.0212221 3.12993 0
M  V30 6985 C 670.631 0.207036 4.57532 0
M  V30 6986 N 672.122 0.153845 4.62944 0
M  V30 6987 C 672.857 0.305018 5.72588 0
M  V30 6988 N 672.353 0.513722 6.90893 0
M  V30 6989 N 674.146 0.242862 5.61575 0
M  V30 6990 H 666.297 1.08148 1.82805 0
M  V30 6991 H 668.56 0.427831 0.84597 0
M  V30 6992 H 668.266 1.03672 3.36073 0
M  V30 6993 H 668.14 -0.678195 3.71053 0
M  V30 6994 H 670.527 -1.00574 2.77433 0
M  V30 6995 H 670.608 0.732004 2.45103 0
M  V30 6996 H 670.252 1.18863 4.93795 0
M  V30 6997 H 670.182 -0.566473 5.23544 0
M  V30 6998 H 672.673 -0.00294866 3.779 0
M  V30 6999 H 672.986 0.619273 7.70315 0
M  V30 7000 H 671.331 0.550001 6.9282 0
M  V30 7001 H 674.522 0.0806015 4.68031 0
M  V30 7002 H 674.695 0.364112 6.46976 0
M  V30 7003 N 668.101 -1.57061 -0.130224 0
M  V30 7004 C 669.031 -2.02552 -1.16168 0
M  V30 7005 C 670.012 -0.907971 -1.4384 0
M  V30 7006 O 671.197 -1.17693 -1.54473 0
M  V30 7007 C 668.327 -2.42035 -2.49071 0
M  V30 7008 C 667.281 -3.5713 -2.35886 0
M  V30 7009 C 666.607 -3.82478 -3.7365 0
M  V30 7010 C 667.907 -4.89236 -1.8288 0
M  V30 7011 H 669.601 -2.8897 -0.783359 0
M  V30 7012 H 667.147 -1.39021 -0.375376 0
M  V30 7013 H 669.1 -2.72462 -3.21469 0
M  V30 7014 H 667.824 -1.52573 -2.88771 0
M  V30 7015 H 666.483 -3.26895 -1.65938 0
M  V30 7016 H 666.131 -2.9024 -4.10816 0
M  V30 7017 H 665.831 -4.59944 -3.65685 0
M  V30 7018 H 667.355 -4.15347 -4.47571 0
M  V30 7019 H 668.769 -5.18272 -2.45085 0
M  V30 7020 H 667.166 -5.70624 -1.85763 0
M  V30 7021 H 668.236 -4.78494 -0.785571 0
M  V30 7022 N 669.579 0.400081 -1.52437 0
M  V30 7023 C 670.828 1.14332 -1.66166 0
M  V30 7024 C 671.141 1.91419 -0.402253 0
M  V30 7025 O 672.347 2.6824 -0.419487 0
M  V30 7026 C 670.803 2.08137 -2.9361 0
M  V30 7027 C 670.411 1.36524 -4.26691 0
M  V30 7028 C 672.155 2.82664 -3.16703 0
M  V30 7029 C 670.062 2.29031 -5.45251 0
M  V30 7030 H 668.992 0.430499 -0.61902 0
M  V30 7031 H 671.643 0.407017 -1.78929 0
M  V30 7032 H 670.025 2.85358 -2.74567 0
M  V30 7033 H 671.199 0.646061 -4.56249 0
M  V30 7034 H 669.514 0.74002 -4.09771 0
M  V30 7035 H 672.111 3.52037 -4.0246 0
M  V30 7036 H 672.454 3.46122 -2.31312 0
M  V30 7037 H 672.987 2.12541 -3.36261 0
M  V30 7038 H 669.726 1.70206 -6.33017 0
M  V30 7039 H 669.246 2.98896 -5.2002 0
M  V30 7040 H 670.925 2.89359 -5.78689 0
M  V30 7041 N 671.057 1.43213 0.657864 0
M  V30 7042 C 672.305 1.44298 1.41501 0
M  V30 7043 C 672.626 0.0666478 1.94886 0
M  V30 7044 O 671.896 -0.897345 1.74139 0
M  V30 7045 H 670.476 0.531257 0.525143 0
M  V30 7046 H 673.138 1.78777 0.776195 0
M  V30 7047 H 672.234 2.1528 2.25966 0
M  V30 7048 N 672.536 -0.895792 1.29666 0
M  V30 7049 C 673.782 -1.64921 1.19049 0
M  V30 7050 C 674.137 -1.90707 -0.254678 0
M  V30 7051 O 673.43 -1.5092 -1.18041 0
M  V30 7052 C 673.624 -3.00075 1.94139 0
M  V30 7053 C 673.453 -2.87482 3.4581 0
M  V30 7054 C 672.223 -2.88041 4.15163 0
M  V30 7055 C 674.421 -2.64224 4.41237 0
M  V30 7056 N 672.403 -2.66226 5.5317 0
M  V30 7057 C 673.774 -2.51427 5.66732 0
M  V30 7058 C 675.829 -2.49362 4.30956 0
M  V30 7059 C 674.532 -2.25281 6.83111 0
M  V30 7060 C 676.558 -2.246 5.47091 0
M  V30 7061 C 675.92 -2.12571 6.7156 0
M  V30 7062 H 672.019 -0.608926 0.490646 0
M  V30 7063 H 674.603 -1.05648 1.63544 0
M  V30 7064 H 672.774 -3.574 1.52052 0
M  V30 7065 H 674.506 -3.64544 1.75754 0
M  V30 7066 H 671.261 -2.99471 3.66898 0
M  V30 7067 H 671.685 -2.58361 6.25762 0
M  V30 7068 H 676.327 -2.57403 3.35415 0
M  V30 7069 H 674.045 -2.15978 7.78704 0
M  V30 7070 H 677.631 -2.13939 5.41037 0
M  V30 7071 H 676.511 -1.93676 7.59907 0
M  V30 7072 N 674.014 -1.12206 -1.10668 0
M  V30 7073 C 675.262 -0.874144 -1.82217 0
M  V30 7074 C 675.583 0.601736 -1.85484 0
M  V30 7075 O 674.853 1.43725 -1.33116 0
M  V30 7076 H 673.433 -0.320404 -0.674797 0
M  V30 7077 H 676.095 -1.41606 -1.33917 0
M  V30 7078 H 675.191 -1.25349 -2.85822 0
M  V30 7079 N 675.492 1.28418 -0.913599 0
M  V30 7080 C 676.424 2.26368 -0.359169 0
M  V30 7081 C 677.437 1.54858 0.502285 0
M  V30 7082 O 678.626 1.75659 0.31719 0
M  V30 7083 C 675.726 3.35112 0.50526 0
M  V30 7084 C 674.899 4.36126 -0.333648 0
M  V30 7085 C 673.958 5.24134 0.465845 0
M  V30 7086 O 672.984 5.6907 -0.121538 0
M  V30 7087 N 674.186 5.52892 1.76891 0
M  V30 7088 H 676.951 2.74579 -1.2011 0
M  V30 7089 H 674.512 1.41898 -0.779532 0
M  V30 7090 H 676.504 3.90926 1.04684 0
M  V30 7091 H 675.074 2.86611 1.2479 0
M  V30 7092 H 674.294 3.79776 -1.0566 0
M  V30 7093 H 675.582 5.00638 -0.907669 0
M  V30 7094 H 674.98 5.18217 2.26865 0
M  V30 7095 H 673.537 6.11464 2.25732 0
M  V30 7096 N 676.97 0.677563 1.42291 0
M  V30 7097 C 678.219 0.198173 2.00724 0
M  V30 7098 C 678.532 -1.20325 1.54211 0
M  V30 7099 O 679.738 -1.77916 2.05081 0
M  V30 7100 C 678.194 0.303432 3.58619 0
M  V30 7101 C 677.802 1.70909 4.14119 0
M  V30 7102 C 679.546 -0.117103 4.24338 0
M  V30 7103 C 677.453 1.76696 5.64387 0
M  V30 7104 H 676.383 0.070329 0.750713 0
M  V30 7105 H 679.034 0.843147 1.62982 0
M  V30 7106 H 677.416 -0.409482 3.93877 0
M  V30 7107 H 678.59 2.44931 3.90315 0
M  V30 7108 H 676.905 2.07771 3.6086 0
M  V30 7109 H 679.502 -0.0940471 5.34617 0
M  V30 7110 H 679.845 -1.15283 4.00019 0
M  V30 7111 H 680.378 0.5449 3.9405 0
M  V30 7112 H 677.117 2.7826 5.93508 0
M  V30 7113 H 676.637 1.07034 5.90173 0
M  V30 7114 H 678.316 1.52166 6.28852 0
M  V30 7115 N 678.448 -1.51871 0.421078 0
M  V30 7116 C 679.864 -1.59435 0.0725398 0
M  V30 7117 C 680.064 -1.43315 -1.41644 0
M  V30 7118 O 679.12 -1.26614 -2.18461 0
M  V30 7119 C 680.433 -2.9509 0.578132 0
M  V30 7120 C 681.981 -3.08356 0.537149 0
M  V30 7121 C 682.456 -4.4651 1.01945 0
M  V30 7122 N 683.947 -4.52784 0.976758 0
M  V30 7123 C 684.682 -5.57976 1.32099 0
M  V30 7124 N 684.178 -6.70664 1.73727 0
M  V30 7125 N 685.971 -5.48248 1.2402 0
M  V30 7126 H 678.122 -1.60595 1.39007 0
M  V30 7127 H 680.385 -0.756138 0.571803 0
M  V30 7128 H 680.091 -3.12205 1.61929 0
M  V30 7129 H 679.965 -3.772 -0.00578374 0
M  V30 7130 H 682.352 -2.90919 -0.494991 0
M  V30 7131 H 682.433 -2.28125 1.15727 0
M  V30 7132 H 682.077 -4.64692 2.04997 0
M  V30 7133 H 682.007 -5.25256 0.376023 0
M  V30 7134 H 684.498 -3.71898 0.670851 0
M  V30 7135 H 684.811 -7.46932 1.98274 0
M  V30 7136 H 683.156 -6.71914 1.77641 0
M  V30 7137 H 686.347 -4.59095 0.913756 0
M  V30 7138 H 686.52 -6.30119 1.51176 0
M  V30 7139 N 679.926 -0.151884 -1.56866 0
M  V30 7140 C 681.342 0.204486 -1.58285 0
M  V30 7141 C 681.542 1.6431 -1.16639 0
M  V30 7142 O 680.598 2.37077 -0.868946 0
M  V30 7143 C 681.911 -0.0587019 -3.00643 0
M  V30 7144 C 683.459 0.00462303 -3.13 0
M  V30 7145 C 683.934 -0.231297 -4.57416 0
M  V30 7146 N 685.425 -0.178394 -4.62856 0
M  V30 7147 C 686.16 -0.335379 -5.72418 0
M  V30 7148 N 685.656 -0.550355 -6.90611 0
M  V30 7149 N 687.449 -0.272641 -5.61438 0
M  V30 7150 H 679.6 -1.09116 -1.82229 0
M  V30 7151 H 681.863 -0.432311 -0.843689 0
M  V30 7152 H 681.569 -1.05453 -3.35518 0
M  V30 7153 H 681.443 0.658508 -3.71407 0
M  V30 7154 H 683.83 0.991009 -2.77962 0
M  V30 7155 H 683.911 -0.744992 -2.44711 0
M  V30 7156 H 683.555 -1.2148 -4.93158 0
M  V30 7157 H 683.485 0.5387 -5.23837 0
M  V30 7158 H 685.976 -0.0170923 -3.77896 0
M  V30 7159 H 686.289 -0.660116 -7.69976 0
M  V30 7160 H 684.634 -0.586736 -6.92519 0
M  V30 7161 H 687.825 -0.105421 -4.67981 0
M  V30 7162 H 687.998 -0.398418 -6.46774 0
M  V30 7163 N 681.404 1.57128 0.121893 0
M  V30 7164 C 682.652 1.84335 0.828548 0
M  V30 7165 C 682.973 0.736632 1.80551 0
M  V30 7166 O 682.243 -0.23962 1.94429 0
M  V30 7167 H 680.823 0.680108 0.30897 0
M  V30 7168 H 683.485 1.9459 0.109906 0
M  V30 7169 H 682.581 2.80152 1.37554 0
M  V30 7170 N 682.882 -0.391992 1.52647 0
M  V30 7171 C 684.128 -1.139 1.67793 0
M  V30 7172 C 684.461 -1.89711 0.41514 0
M  V30 7173 O 683.736 -1.85431 -0.586979 0
M  V30 7174 C 684.019 -2.11966 2.91105 0
M  V30 7175 C 683.872 -1.39939 4.27478 0
M  V30 7176 C 685.191 -3.1243 3.09961 0
M  V30 7177 H 682.31 -0.412707 0.610608 0
M  V30 7178 H 684.952 -0.422725 1.85238 0
M  V30 7179 H 683.102 -2.73048 2.76364 0
M  V30 7180 H 684.774 -0.818439 4.53982 0
M  V30 7181 H 683.017 -0.701246 4.28095 0
M  V30 7182 H 683.688 -2.1158 5.09841 0
M  V30 7183 H 686.164 -2.61435 3.23714 0
M  V30 7184 H 685.04 -3.78294 3.97725 0
M  V30 7185 H 685.301 -3.81127 2.24042 0
M  V30 7186 N 684.36 -1.4356 -0.65026 0
M  V30 7187 C 685.588 -1.48779 -1.43779 0
M  V30 7188 C 686.003 -0.106593 -1.88499 0
M  V30 7189 O 685.36 0.883766 -1.59674 0
M  V30 7190 C 685.411 -2.43618 -2.67081 0
M  V30 7191 O 685.132 -3.76367 -2.24231 0
M  V30 7192 C 686.633 -2.5811 -3.60409 0
M  V30 7193 H 683.853 -0.50521 -0.441593 0
M  V30 7194 H 686.397 -1.88332 -0.796941 0
M  V30 7195 H 684.552 -2.07253 -3.273 0
M  V30 7196 H 684.966 -4.27394 -3.0403 0
M  V30 7197 H 686.44 -3.28539 -4.43583 0
M  V30 7198 H 686.917 -1.627 -4.07953 0
M  V30 7199 H 687.523 -2.95298 -3.0607 0
M  V30 7200 N 685.838 0.888903 -1.30139 0
M  V30 7201 C 687.087 1.63507 -1.18103 0
M  V30 7202 C 687.4 1.93808 0.264141 0
M  V30 7203 O 688.606 2.66744 0.505966 0
M  V30 7204 C 687.062 2.94673 -2.0663 0
M  V30 7205 C 686.67 2.71926 -3.56034 0
M  V30 7206 C 688.414 3.72626 -2.03346 0
M  V30 7207 C 686.321 3.98884 -4.3663 0
M  V30 7208 H 685.251 0.613426 -0.438435 0
M  V30 7209 H 687.902 0.984427 -1.54859 0
M  V30 7210 H 686.284 3.61009 -1.62754 0
M  V30 7211 H 687.458 2.14116 -4.08033 0
M  V30 7212 H 685.773 2.07353 -3.61101 0
M  V30 7213 H 688.37 4.66775 -2.60816 0
M  V30 7214 H 688.713 4.03712 -1.016 0
M  V30 7215 H 689.246 3.13147 -2.45324 0
M  V30 7216 H 685.985 3.72959 -5.39056 0
M  V30 7217 H 685.505 4.56214 -3.89396 0
M  V30 7218 H 687.184 4.66938 -4.47859 0
M  V30 7219 N 687.317 1.12792 1.10072 0
M  V30 7220 C 688.264 0.79921 2.16521 0
M  V30 7221 C 689.234 -0.235726 1.64419 0
M  V30 7222 O 690.419 -0.109457 1.90486 0
M  V30 7223 C 687.559 0.264091 3.44088 0
M  V30 7224 C 686.672 1.35729 4.10124 0
M  V30 7225 C 685.807 0.781212 5.25424 0
M  V30 7226 C 684.846 1.85327 5.8337 0
M  V30 7227 N 683.983 1.29564 6.90042 0
M  V30 7228 H 688.823 1.71105 2.43981 0
M  V30 7229 H 686.36 0.854225 1.19756 0
M  V30 7230 H 688.318 -0.0642423 4.17151 0
M  V30 7231 H 686.948 -0.610901 3.16967 0
M  V30 7232 H 686 1.80234 3.34993 0
M  V30 7233 H 687.312 2.16782 4.4923 0
M  V30 7234 H 686.466 0.403769 6.05355 0
M  V30 7235 H 685.205 -0.0604686 4.87663 0
M  V30 7236 H 684.21 2.23986 5.02106 0
M  V30 7237 H 685.435 2.69824 6.23195 0
M  V30 7238 H 683.381 0.475844 6.54272 0
M  V30 7239 H 683.298 2.04271 7.2788 0
M  V30 7240 H 684.566 0.945545 7.73744 0
M  V30 7241 N 688.795 -1.27931 0.920396 0
M  V30 7242 C 690.206 -1.76707 0.602616 0
M  V30 7243 C 690.557 -1.75249 -0.882159 0
M  V30 7244 O 689.682 -1.35135 -1.69019 0
M  V30 7245 C 690.277 -3.20884 1.08714 0
M  V30 7246 C 688.836 -3.67356 0.820157 0
M  V30 7247 C 687.983 -2.47525 1.25006 0
M  V30 7248 H 690.934 -1.14301 1.10095 0
M  V30 7249 H 690.955 -3.78045 0.431535 0
M  V30 7250 H 690.467 -3.21913 2.1678 0
M  V30 7251 H 688.568 -3.7178 -0.247012 0
M  V30 7252 H 688.681 -4.57181 1.43257 0
M  V30 7253 H 687.045 -2.45765 0.668698 0
M  V30 7254 H 687.828 -2.51269 2.3392 0
M  V30 7255 N 690.273 -0.685099 -1.4193 0
M  V30 7256 C 691.501 -0.220372 -2.05723 0
M  V30 7257 C 691.916 1.12642 -1.51516 0
M  V30 7258 O 691.273 1.70182 -0.659114 0
M  V30 7259 C 691.324 -0.157974 -3.61155 0
M  V30 7260 O 691.045 -1.45156 -4.13354 0
M  V30 7261 C 692.546 0.329009 -4.42077 0
M  V30 7262 H 689.766 -0.104725 -0.662777 0
M  V30 7263 H 692.31 -0.934736 -1.81887 0
M  V30 7264 H 690.465 0.507144 -3.84066 0
M  V30 7265 H 690.879 -1.33172 -5.07312 0
M  V30 7266 H 692.353 0.321559 -5.51063 0
M  V30 7267 H 692.83 1.36608 -4.17414 0
M  V30 7268 H 693.436 -0.304737 -4.24207 0
M  V30 7269 N 691.751 1.51645 -0.429126 0
M  V30 7270 C 692.997 2.02314 0.140286 0
M  V30 7271 C 693.33 1.31314 1.43074 0
M  V30 7272 O 692.605 0.425531 1.89788 0
M  V30 7273 C 692.888 3.5822 0.36749 0
M  V30 7274 C 692.741 4.39846 -0.941039 0
M  V30 7275 C 694.06 4.25055 1.14089 0
M  V30 7276 H 691.179 0.735335 0.0495112 0
M  V30 7277 H 693.821 1.81358 -0.566514 0
M  V30 7278 H 691.971 3.76207 0.969556 0
M  V30 7279 H 693.643 4.33527 -1.57646 0
M  V30 7280 H 691.886 4.05259 -1.54751 0
M  V30 7281 H 692.557 5.47069 -0.73621 0
M  V30 7282 H 695.033 4.11288 0.630986 0
M  V30 7283 H 693.909 5.34038 1.26863 0
M  V30 7284 H 694.17 3.85358 2.16683 0
M  V30 7285 N 693.229 0.160201 1.56784 0
M  V30 7286 C 694.506 -0.533355 1.88188 0
M  V30 7287 C 694.886 -1.82072 1.06831 0
M  V30 7288 O 694.234 -2.27946 0.158959 0
M  V30 7289 C 694.444 -0.786034 3.40033 0
M  V30 7290 C 695.792 -1.12097 4.09536 0
M  V30 7291 O 696.816 -0.874949 3.45287 0
M  V30 7292 O 695.675 -1.58457 5.23023 0
M  V30 7293 H 692.769 -0.273589 0.780434 0
M  V30 7294 H 695.315 0.197803 1.68543 0
M  V30 7295 H 694.087 0.124515 3.91102 0
M  V30 7296 H 693.71 -1.57091 3.65251 0
M  V30 7297 N 694.707 -1.5719 -0.113559 0
M  V30 7298 C 695.984 -1.76117 -0.850999 0
M  V30 7299 C 696.364 -0.737085 -1.97814 0
M  V30 7300 O 695.712 0.237942 -2.27258 0
M  V30 7301 C 695.922 -3.21298 -1.36266 0
M  V30 7302 C 697.27 -3.83955 -1.81283 0
M  V30 7303 O 698.294 -3.24934 -1.45933 0
M  V30 7304 O 697.153 -4.87707 -2.46585 0
M  V30 7305 H 694.247 -0.721308 -0.404529 0
M  V30 7306 H 696.793 -1.69423 -0.0968756 0
M  V30 7307 H 695.565 -3.87355 -0.554235 0
M  V30 7308 H 695.188 -3.32552 -2.17933 0
M  V30 7309 N 696.185 0.383891 -1.52853 0
M  V30 7310 C 697.462 1.14296 -1.58732 0
M  V30 7311 C 697.842 2.07585 -0.383611 0
M  V30 7312 O 697.19 2.1971 0.627661 0
M  V30 7313 C 697.4 1.89816 -2.92867 0
M  V30 7314 C 698.748 2.44998 -3.46787 0
M  V30 7315 O 699.772 1.99966 -2.94774 0
M  V30 7316 O 698.631 3.2727 -4.37672 0
M  V30 7317 H 695.725 0.52326 -0.640413 0
M  V30 7318 H 698.271 0.388631 -1.6519 0
M  V30 7319 H 697.043 1.21626 -3.71918 0
M  V30 7320 H 696.666 2.72199 -2.89816 0
M  V30 7321 O 697.702 1.52561 0.529841 0
M  V30 7322 H 698.393 1.53227 1.18495 0
M  V30 END ATOM
M  V30 BEGIN BOND
M  V30 END BOND
M  V30 END CTAB
M  END
$$$$
