drugbank_target|P41222 Prostaglandin-H2 D-isomerase (DB00162)
 OpenBabel12092121223D

  0  0  0     0  0            999 V3000
M  V30 BEGIN CTAB
M  V30 COUNTS 2921 2955 0 0 0
M  V30 BEGIN ATOM
M  V30 1 H -0.908 1.98254 -0.117106 0
M  V30 2 N 0 1.576 0 0
M  V30 3 C 0.933 2.03868 1.02534 0
M  V30 4 C 1.911 0.928543 1.3348 0
M  V30 5 O 3.095 1.19667 1.45644 0
M  V30 6 C 0.222 2.43627 2.35294 0
M  V30 7 C -0.732 3.65373 2.2001 0
M  V30 8 S 0.101 5.13292 1.52614 0
M  V30 9 C 1.257 5.56322 2.86805 0
M  V30 10 H 1.49 2.90518 0.631377 0
M  V30 11 H -0.977 1.52953 0.210867 0
M  V30 12 H 0.981 2.67203 3.11629 0
M  V30 13 H -0.358 1.57376 2.7183 0
M  V30 14 H -1.165 3.90944 3.18086 0
M  V30 15 H -1.563 3.418 1.51819 0
M  V30 16 H 0.729 5.58782 3.83104 0
M  V30 17 H 1.672 6.56266 2.65933 0
M  V30 18 H 2.08 4.83886 2.90714 0
M  V30 19 N 1.4781 -0.272755 1.55222 0
M  V30 20 C 2.4411 -1.32041 1.87344 0
M  V30 21 C 3.4411 -1.42342 0.74803 0
M  V30 22 O 4.6311 -1.41488 1.0162 0
M  V30 23 C 1.7631 -2.70173 2.07893 0
M  V30 24 H 2.9561 -1.04789 2.80997 0
M  V30 25 H 0.5091 -0.51083 1.47717 0
M  V30 26 H 1.2441 -3.02605 1.16622 0
M  V30 27 H 1.0291 -2.64082 2.89833 0
M  V30 28 H 2.5191 -3.45869 2.34017 0
M  V30 29 N 2.9562 -1.48159 -0.537278 0
M  V30 30 C 4.1842 -1.59454 -1.31841 0
M  V30 31 C 4.5992 -0.252065 -1.8711 0
M  V30 32 O 3.9562 0.757621 -1.66031 0
M  V30 33 C 4.0072 -2.63546 -2.47439 0
M  V30 34 O 3.7282 -3.92583 -1.94449 0
M  V30 35 C 5.2292 -2.85212 -3.39366 0
M  V30 36 H 2.4492 -0.53785 -0.401196 0
M  V30 37 H 4.9932 -1.93932 -0.648891 0
M  V30 38 H 3.1482 -2.31946 -3.1029 0
M  V30 39 H 3.5622 -4.49629 -2.70063 0
M  V30 40 H 5.0362 -3.61863 -4.16844 0
M  V30 41 H 5.5132 -1.93765 -3.94147 0
M  V30 42 H 6.1192 -3.18086 -2.82314 0
M  V30 43 N 4.4343 0.785586 -1.36625 0
M  V30 44 C 5.3843 1.88822 -1.27789 0
M  V30 45 C 6.3683 1.60014 -0.168579 0
M  V30 46 O 7.5603 1.72381 -0.401737 0
M  V30 47 C 4.6893 3.26092 -1.07327 0
M  V30 48 C 3.7753 3.60897 -2.22743 0
M  V30 49 N 4.1663 3.66982 -3.48077 0
M  V30 50 C 2.4643 3.90981 -2.14593 0
M  V30 51 C 3.1653 3.98137 -4.24101 0
M  V30 52 N 2.1413 4.13319 -3.53084 0
M  V30 53 H 5.9433 1.91759 -2.22723 0
M  V30 54 H 3.4573 0.981311 -1.29399 0
M  V30 55 H 5.4543 4.04954 -0.990842 0
M  V30 56 H 4.1143 3.24428 -0.132977 0
M  V30 57 H 5.1253 3.49531 -3.82163 0
M  V30 58 H 1.8023 3.9722 -1.2854 0
M  V30 59 H 3.1923 4.09737 -5.32509 0
M  V30 60 N 5.9124 1.20967 1.01018 0
M  V30 61 C 6.8624 0.93182 2.08089 0
M  V30 62 C 7.8464 -0.110898 1.60517 0
M  V30 63 O 9.0384 0.0973392 1.76732 0
M  V30 64 C 6.1674 0.492719 3.39746 0
M  V30 65 C 5.2534 1.56922 3.94 0
M  V30 66 N 5.6444 2.79312 4.21686 0
M  V30 67 C 3.9424 1.43688 4.2222 0
M  V30 68 C 4.6434 3.48797 4.65527 0
M  V30 69 N 3.6194 2.76224 4.68189 0
M  V30 70 H 7.4214 1.86175 2.27412 0
M  V30 71 H 4.9354 1.10463 1.19045 0
M  V30 72 H 6.9324 0.275044 4.15992 0
M  V30 73 H 5.5924 -0.430509 3.21833 0
M  V30 74 H 6.6034 3.15903 4.10397 0
M  V30 75 H 3.2804 0.578548 4.13472 0
M  V30 76 H 4.6704 4.53561 4.95714 0
M  V30 77 N 7.3905 -1.2043 1.01659 0
M  V30 78 C 8.6185 -1.93777 0.725132 0
M  V30 79 C 9.0335 -1.74772 -0.714166 0
M  V30 80 O 8.3905 -1.06169 -1.4844 0
M  V30 81 C 8.4415 -3.45876 1.05129 0
M  V30 82 O 8.1625 -3.6426 2.43406 0
M  V30 83 C 9.6635 -4.36368 0.780891 0
M  V30 84 H 6.8835 -0.615901 0.266284 0
M  V30 85 H 9.4275 -1.52922 1.35776 0
M  V30 86 H 7.5825 -3.8461 0.464065 0
M  V30 87 H 7.9965 -4.58246 2.55169 0
M  V30 88 H 9.4705 -5.41743 1.05918 0
M  V30 89 H 9.9475 -4.38275 -0.284937 0
M  V30 90 H 10.5535 -4.03296 1.35027 0
M  V30 91 N 8.8686 -0.792821 -1.36206 0
M  V30 92 C 9.7986 -0.207853 -2.32573 0
M  V30 93 C 10.7796 0.659055 -1.56813 0
M  V30 94 O 11.9646 0.592176 -1.84951 0
M  V30 95 C 9.0946 0.655449 -3.41059 0
M  V30 96 C 8.0486 -0.111842 -4.27854 0
M  V30 97 C 7.3746 0.872274 -5.27537 0
M  V30 98 C 8.6746 -1.30299 -5.05786 0
M  V30 99 H 10.3686 -1.01294 -2.81744 0
M  V30 100 H 7.9146 -0.48854 -1.3546 0
M  V30 101 H 9.8676 1.07464 -4.07467 0
M  V30 102 H 8.5916 1.49328 -2.90463 0
M  V30 103 H 7.2506 -0.512053 -3.63006 0
M  V30 104 H 6.8986 1.70523 -4.73214 0
M  V30 105 H 6.5986 0.363291 -5.86476 0
M  V30 106 H 8.1226 1.28996 -5.96818 0
M  V30 107 H 9.5366 -0.959379 -5.65216 0
M  V30 108 H 7.9336 -1.7455 -5.74154 0
M  V30 109 H 9.0036 -2.09663 -4.37229 0
M  V30 110 N 10.3467 1.47872 -0.545128 0
M  V30 111 C 11.5927 2.03385 -0.0247951 0
M  V30 112 C 11.9477 1.41325 1.30556 0
M  V30 113 O 11.2407 0.5552 1.8338 0
M  V30 114 C 11.4347 3.57131 0.13867 0
M  V30 115 C 11.2637 4.34097 -1.17429 0
M  V30 116 C 10.0337 4.74458 -1.73831 0
M  V30 117 C 12.2317 4.6998 -2.08861 0
M  V30 118 N 10.2137 5.3602 -2.99258 0
M  V30 119 C 11.5847 5.31719 -3.18866 0
M  V30 120 C 13.6397 4.5191 -2.09003 0
M  V30 121 C 12.3427 5.77295 -4.29096 0
M  V30 122 C 14.3687 4.98477 -3.18237 0
M  V30 123 C 13.7307 5.60253 -4.26961 0
M  V30 124 H 9.8297 0.780339 -0.050943 0
M  V30 125 H 12.4137 1.80507 -0.729753 0
M  V30 126 H 10.5847 3.79802 0.812733 0
M  V30 127 H 12.3167 3.99282 0.659976 0
M  V30 128 H 9.0717 4.56037 -1.2778 0
M  V30 129 H 9.4957 5.71355 -3.63157 0
M  V30 130 H 14.1377 4.03516 -1.26234 0
M  V30 131 H 11.8557 6.24687 -5.12633 0
M  V30 132 H 15.4417 4.86274 -3.1942 0
M  V30 133 H 14.3217 5.95631 -5.10091 0
M  V30 134 N 11.8248 0.280983 1.55075 0
M  V30 135 C 12.7578 -0.645439 2.18882 0
M  V30 136 C 13.7358 -1.14786 1.15165 0
M  V30 137 O 14.9198 -1.21975 1.43716 0
M  V30 138 C 12.0468 -1.88088 2.81674 0
M  V30 139 C 11.0928 -1.51343 3.98745 0
M  V30 140 S 11.9258 -0.586548 5.32278 0
M  V30 141 C 13.0818 -1.83024 5.98543 0
M  V30 142 H 13.3148 -0.1033 2.9712 0
M  V30 143 H 10.8478 0.0652099 1.54262 0
M  V30 144 H 12.8058 -2.58997 3.18482 0
M  V30 145 H 11.4668 -2.39417 2.03318 0
M  V30 146 H 10.6598 -2.43289 4.41392 0
M  V30 147 H 10.2618 -0.884477 3.63391 0
M  V30 148 H 12.5538 -2.77342 6.18133 0
M  V30 149 H 13.4968 -1.44668 6.93164 0
M  V30 150 H 13.9048 -1.99785 5.27964 0
M  V30 151 N 13.3029 -1.57598 0.00835791 0
M  V30 152 C 14.5509 -1.90551 -0.6734 0
M  V30 153 C 14.8719 -0.883301 -1.73847 0
M  V30 154 O 14.1419 0.0781442 -1.95744 0
M  V30 155 H 12.7219 -0.703312 -0.251717 0
M  V30 156 H 15.3839 -1.94833 0.0512592 0
M  V30 157 H 14.4799 -2.9056 -1.13935 0
M  V30 158 N 14.781 0.264519 -1.55364 0
M  V30 159 C 15.711 1.33121 -1.91836 0
M  V30 160 C 16.692 1.51101 -0.781192 0
M  V30 161 O 17.877 1.64003 -1.04003 0
M  V30 162 C 15.007 2.68921 -2.19769 0
M  V30 163 C 13.961 2.65661 -3.35571 0
M  V30 164 C 13.287 4.05093 -3.49004 0
M  V30 165 C 14.587 2.24187 -4.71739 0
M  V30 166 H 16.281 1.02844 -2.81182 0
M  V30 167 H 13.827 0.493286 -1.35287 0
M  V30 168 H 15.78 3.43663 -2.43872 0
M  V30 169 H 14.504 3.00799 -1.27231 0
M  V30 170 H 13.163 1.93377 -3.1145 0
M  V30 171 H 12.811 4.34206 -2.53917 0
M  V30 172 H 12.511 4.03804 -4.26868 0
M  V30 173 H 14.035 4.81561 -3.75408 0
M  V30 174 H 15.449 2.88654 -4.9533 0
M  V30 175 H 13.846 2.34044 -5.52579 0
M  V30 176 H 14.916 1.19327 -4.69988 0
M  V30 177 N 16.2591 1.48442 0.529413 0
M  V30 178 C 17.2221 1.62524 1.61612 0
M  V30 179 C 18.2221 0.498509 1.52877 0
M  V30 180 O 19.4121 0.76431 1.56537 0
M  V30 181 C 16.5441 1.59597 3.01233 0
M  V30 182 H 17.7371 2.59423 1.50465 0
M  V30 183 H 15.2901 1.37047 0.751514 0
M  V30 184 H 16.0251 0.641781 3.17886 0
M  V30 185 H 15.8101 2.41397 3.08982 0
M  V30 186 H 17.3001 1.72646 3.80241 0
M  V30 187 N 17.7372 -0.778329 1.37039 0
M  V30 188 C 18.6672 -1.90546 1.34962 0
M  V30 189 C 19.6482 -1.68681 0.219274 0
M  V30 190 O 20.8332 -1.89634 0.418624 0
M  V30 191 C 17.9632 -3.27734 1.14925 0
M  V30 192 C 16.9172 -3.64147 2.24902 0
M  V30 193 C 16.2432 -4.99806 1.89996 0
M  V30 194 C 17.5432 -3.71579 3.67051 0
M  V30 195 H 19.2372 -1.92541 2.29277 0
M  V30 196 H 16.7832 -0.924948 1.10366 0
M  V30 197 H 18.7362 -4.06215 1.12104 0
M  V30 198 H 17.4602 -3.26154 0.170631 0
M  V30 199 H 16.1192 -2.8797 2.26868 0
M  V30 200 H 15.7672 -4.94759 0.906796 0
M  V30 201 H 15.4672 -5.25139 2.63634 0
M  V30 202 H 16.9912 -5.80694 1.88749 0
M  V30 203 H 18.4052 -4.40227 3.67251 0
M  V30 204 H 16.8022 -4.08405 4.39688 0
M  V30 205 H 17.8722 -2.72404 4.01154 0
M  V30 206 N 19.2153 -1.21501 -1.00376 0
M  V30 207 C 20.1453 -0.999478 -2.11028 0
M  V30 208 C 21.1263 0.0759671 -1.6993 0
M  V30 209 O 22.3113 -0.0841106 -1.94018 0
M  V30 210 C 19.4413 -0.564709 -3.42678 0
M  V30 211 C 18.3953 -1.58486 -3.97576 0
M  V30 212 C 17.7213 -1.00628 -5.25146 0
M  V30 213 C 19.0213 -2.97204 -4.29496 0
M  V30 214 H 20.7153 -1.92495 -2.29317 0
M  V30 215 H 18.2613 -0.92693 -1.102 0
M  V30 216 H 20.2143 -0.401091 -4.19487 0
M  V30 217 H 18.9383 0.396411 -3.24185 0
M  V30 218 H 17.5973 -1.73606 -3.22888 0
M  V30 219 H 17.2453 -0.0368439 -5.02987 0
M  V30 220 H 16.9453 -1.68771 -5.62841 0
M  V30 221 H 18.4693 -0.854015 -6.04598 0
M  V30 222 H 19.8833 -2.8552 -4.97143 0
M  V30 223 H 18.2803 -3.62372 -4.78338 0
M  V30 224 H 19.3503 -3.47956 -3.3772 0
M  V30 225 N 20.6934 1.19889 -1.02296 0
M  V30 226 C 21.9414 1.89046 -0.714558 0
M  V30 227 C 22.2624 1.79636 0.758681 0
M  V30 228 O 21.5324 1.20292 1.54618 0
M  V30 229 H 20.1124 0.699802 -0.261317 0
M  V30 230 H 22.7744 1.45574 -1.29592 0
M  V30 231 H 21.8704 2.95524 -1.0036 0
M  V30 232 N 22.1715 0.800033 1.35784 0
M  V30 233 C 23.4175 0.377901 1.99248 0
M  V30 234 C 23.7505 -1.05052 1.63333 0
M  V30 235 O 23.0255 -1.72768 0.893385 0
M  V30 236 C 23.3085 0.553922 3.55814 0
M  V30 237 C 23.1615 2.0268 4.01548 0
M  V30 238 C 24.4805 -0.0244802 4.40093 0
M  V30 239 H 21.5995 0.138782 0.723815 0
M  V30 240 H 24.2415 1.00835 1.61035 0
M  V30 241 H 22.3915 0.0172398 3.88496 0
M  V30 242 H 24.0635 2.62536 3.79305 0
M  V30 243 H 22.3065 2.5256 3.52698 0
M  V30 244 H 22.9775 2.10087 5.10458 0
M  V30 245 H 25.4535 0.433775 4.13833 0
M  V30 246 H 24.3295 0.128637 5.48749 0
M  V30 247 H 24.5905 -1.11758 4.27741 0
M  V30 248 N 23.6496 -1.47581 0.552962 0
M  V30 249 C 24.5796 -2.32762 -0.185451 0
M  V30 250 C 25.5606 -1.43527 -0.912905 0
M  V30 251 O 26.7456 -1.72388 -0.894201 0
M  V30 252 C 23.8756 -3.25219 -1.21859 0
M  V30 253 C 22.8296 -4.23661 -0.607864 0
M  V30 254 C 22.1556 -5.05413 -1.74533 0
M  V30 255 C 23.4556 -5.20481 0.435582 0
M  V30 256 H 25.1496 -2.94749 0.525684 0
M  V30 257 H 22.6956 -1.41738 0.254251 0
M  V30 258 H 24.6486 -3.8365 -1.7433 0
M  V30 259 H 23.3726 -2.61279 -1.95961 0
M  V30 260 H 22.0316 -3.66451 -0.104489 0
M  V30 261 H 21.6796 -4.3788 -2.47529 0
M  V30 262 H 21.3796 -5.72059 -1.34249 0
M  V30 263 H 22.9036 -5.66701 -2.27338 0
M  V30 264 H 24.3176 -5.733 -0.00290157 0
M  V30 265 H 22.7146 -5.95305 0.757067 0
M  V30 266 H 23.7846 -4.66217 1.33303 0
M  V30 267 N 25.1277 -0.289203 -1.54924 0
M  V30 268 C 26.3757 0.322879 -1.99504 0
M  V30 269 C 26.6967 1.55313 -1.1791 0
M  V30 270 O 25.9667 1.94001 -0.272097 0
M  V30 271 H 24.5467 0.122291 -0.736922 0
M  V30 272 H 27.2087 -0.397802 -1.90797 0
M  V30 273 H 26.3047 0.603061 -3.06218 0
M  V30 274 N 26.6058 1.57591 -0.0167156 0
M  V30 275 C 27.8828 1.82547 0.702564 0
M  V30 276 C 28.2628 0.898018 1.91047 0
M  V30 277 O 27.6108 -0.0493456 2.28447 0
M  V30 278 C 27.8208 3.31459 1.09251 0
M  V30 279 C 29.1688 3.97622 1.48937 0
M  V30 280 O 30.1928 3.35881 1.18584 0
M  V30 281 O 29.0518 5.06415 2.05442 0
M  V30 282 H 26.1458 0.752268 0.343544 0
M  V30 283 H 28.6918 1.69644 -0.0434495 0
M  V30 284 H 27.4638 3.9061 0.23227 0
M  V30 285 H 27.0868 3.49422 1.89709 0
M  V30 286 N 28.0839 -0.256276 1.55502 0
M  V30 287 C 29.0139 -1.32102 1.92539 0
M  V30 288 C 29.9949 -1.50684 0.789194 0
M  V30 289 O 31.1799 -1.63449 1.04872 0
M  V30 290 C 28.3099 -2.67752 2.21192 0
M  V30 291 C 27.2639 -2.63878 3.36975 0
M  V30 292 C 26.5899 -4.03236 3.51147 0
M  V30 293 C 27.8899 -2.21682 4.72921 0
M  V30 294 H 29.5839 -1.01351 2.81724 0
M  V30 295 H 27.1299 -0.486105 1.35547 0
M  V30 296 H 29.0829 -3.42365 2.45691 0
M  V30 297 H 27.8069 -3.0012 1.28824 0
M  V30 298 H 26.4659 -1.91722 3.12471 0
M  V30 299 H 26.1139 -4.32854 2.56216 0
M  V30 300 H 25.8139 -4.01535 4.29003 0
M  V30 301 H 27.3379 -4.79563 3.77957 0
M  V30 302 H 28.7519 -2.86023 4.96854 0
M  V30 303 H 27.1489 -2.3111 5.53812 0
M  V30 304 H 28.2189 -1.16833 4.70615 0
M  V30 305 N 29.562 -1.4872 -0.521534 0
M  V30 306 C 30.494 -1.59968 -1.64143 0
M  V30 307 C 31.507 -0.483463 -1.55456 0
M  V30 308 O 32.696 -0.75467 -1.61762 0
M  V30 309 C 29.796 -1.52127 -3.02838 0
M  V30 310 C 28.969 -2.78932 -3.36921 0
M  V30 311 C 28.028 -2.64428 -4.54933 0
M  V30 312 O 27.054 -3.38331 -4.57735 0
M  V30 313 N 28.256 -1.74606 -5.53618 0
M  V30 314 H 31.021 -2.56548 -1.54929 0
M  V30 315 H 28.582 -1.45551 -0.708988 0
M  V30 316 H 30.574 -1.40106 -3.79674 0
M  V30 317 H 29.144 -0.634868 -3.06085 0
M  V30 318 H 28.364 -3.05455 -2.4918 0
M  V30 319 H 29.652 -3.63041 -3.56481 0
M  V30 320 H 29.05 -1.13782 -5.54139 0
M  V30 321 H 27.607 -1.6852 -6.29638 0
M  V30 322 N 31.0401 0.771051 -1.3745 0
M  V30 323 C 32.0031 1.86598 -1.33093 0
M  V30 324 C 33.0031 1.59076 -0.234845 0
M  V30 325 O 34.1931 1.67145 -0.490732 0
M  V30 326 C 31.3251 3.23747 -1.06773 0
M  V30 327 H 32.5181 1.91873 -2.30488 0
M  V30 328 H 30.0711 0.970876 -1.2249 0
M  V30 329 H 30.8061 3.24148 -0.099129 0
M  V30 330 H 30.5911 3.45115 -1.86112 0
M  V30 331 H 32.0811 4.03824 -1.06377 0
M  V30 332 N 32.5182 1.22032 0.997298 0
M  V30 333 C 33.4812 0.987909 2.06816 0
M  V30 334 C 34.4812 -0.0440084 1.6074 0
M  V30 335 O 35.6712 0.194053 1.73116 0
M  V30 336 C 32.8032 0.49132 3.37341 0
M  V30 337 H 33.9962 1.93803 2.28868 0
M  V30 338 H 31.5492 1.03838 1.16822 0
M  V30 339 H 32.2842 -0.463364 3.20973 0
M  V30 340 H 32.0692 1.23575 3.72118 0
M  V30 341 H 33.5592 0.348824 4.16141 0
M  V30 342 N 33.9963 -1.19345 1.0293 0
M  V30 343 C 35.4073 -1.70725 0.755633 0
M  V30 344 C 35.7583 -1.82326 -0.724676 0
M  V30 345 O 34.8833 -1.49471 -1.56484 0
M  V30 346 C 35.4783 -3.10084 1.36503 0
M  V30 347 C 34.0373 -3.58723 1.13994 0
M  V30 348 C 33.1843 -2.35577 1.46283 0
M  V30 349 H 36.1353 -1.0418 1.19718 0
M  V30 350 H 36.1563 -3.72787 0.762217 0
M  V30 351 H 35.6683 -3.01609 2.44241 0
M  V30 352 H 33.7693 -3.72512 0.0807901 0
M  V30 353 H 33.8823 -4.42816 1.82894 0
M  V30 354 H 32.2463 -2.38935 0.88217 0
M  V30 355 H 33.0293 -2.29731 2.55105 0
M  V30 356 N 35.4744 -0.807222 -1.35358 0
M  V30 357 C 36.3844 -0.219594 -2.3357 0
M  V30 358 C 37.4004 0.637734 -1.61892 0
M  V30 359 O 38.5764 0.549336 -1.93763 0
M  V30 360 C 35.6414 0.62158 -3.41083 0
M  V30 361 C 34.7024 -0.256315 -4.28534 0
M  V30 362 C 33.9354 0.544807 -5.30912 0
M  V30 363 O 34.1584 1.77944 -5.41934 0
M  V30 364 O 33.0924 -0.0646478 -6.01865 0
M  V30 365 H 36.9184 -1.03208 -2.85625 0
M  V30 366 H 34.5034 -0.569025 -1.38139 0
M  V30 367 H 36.3854 1.10067 -4.06772 0
M  V30 368 H 35.0604 1.41165 -2.91297 0
M  V30 369 H 33.9674 -0.782559 -3.65823 0
M  V30 370 H 35.3004 -1.01034 -4.81719 0
M  V30 371 N 36.9525 1.47285 -0.560781 0
M  V30 372 C 37.9155 2.28535 0.174488 0
M  V30 373 C 38.9155 1.37153 0.839388 0
M  V30 374 O 40.1055 1.59748 0.694702 0
M  V30 375 C 37.2375 3.16934 1.25561 0
M  V30 376 H 38.4305 2.95012 -0.539262 0
M  V30 377 H 35.9835 1.53034 -0.317865 0
M  V30 378 H 36.7185 2.55157 2.00164 0
M  V30 379 H 36.5035 3.8419 0.783604 0
M  V30 380 H 37.9935 3.78143 1.77193 0
M  V30 381 N 38.4306 0.297415 1.54768 0
M  V30 382 C 39.3626 -0.613881 2.20826 0
M  V30 383 C 40.3756 -1.10032 1.19987 0
M  V30 384 O 41.5646 -1.01839 1.46598 0
M  V30 385 C 38.6646 -1.852 2.83821 0
M  V30 386 C 37.8376 -1.50865 4.10559 0
M  V30 387 C 36.8966 -2.60154 4.57391 0
M  V30 388 O 35.9226 -2.25398 5.2267 0
M  V30 389 N 37.1246 -3.90629 4.29406 0
M  V30 390 H 39.8896 -0.048389 2.99661 0
M  V30 391 H 37.4506 0.11946 1.61459 0
M  V30 392 H 39.4426 -2.57652 3.12086 0
M  V30 393 H 38.0126 -2.32597 2.08847 0
M  V30 394 H 37.2326 -0.616925 3.89343 0
M  V30 395 H 38.5206 -1.25458 4.9309 0
M  V30 396 H 37.9186 -4.21677 3.77101 0
M  V30 397 H 36.4756 -4.59391 4.62388 0
M  V30 398 N 39.9087 -1.5758 0.0250728 0
M  V30 399 C 41.1547 -1.91917 -0.655413 0
M  V30 400 C 41.4877 -0.901433 -1.72011 0
M  V30 401 O 40.7627 0.0764069 -1.9435 0
M  V30 402 C 41.0457 -3.36751 -1.27558 0
M  V30 403 C 40.8987 -4.49258 -0.220719 0
M  V30 404 C 42.2177 -3.81469 -2.19475 0
M  V30 405 H 39.3367 -0.697925 -0.23679 0
M  V30 406 H 41.9787 -1.89825 0.0815036 0
M  V30 407 H 40.1287 -3.38664 -1.90365 0
M  V30 408 H 41.8007 -4.59478 0.409601 0
M  V30 409 H 40.0437 -4.31415 0.454264 0
M  V30 410 H 40.7147 -5.47618 -0.694175 0
M  V30 411 H 43.1907 -3.81266 -1.66659 0
M  V30 412 H 42.0667 -4.83512 -2.59822 0
M  V30 413 H 42.3277 -3.16744 -3.08424 0
M  V30 414 N 41.3868 0.248026 -1.55636 0
M  V30 415 C 42.6118 0.998028 -1.81808 0
M  V30 416 C 43.0368 1.78207 -0.601979 0
M  V30 417 O 42.3948 1.75653 0.448961 0
M  V30 418 C 42.4428 1.9125 -3.05705 0
M  V30 419 O 41.5468 3.00406 -2.82542 0
M  V30 420 H 40.8878 0.284045 -0.600179 0
M  V30 421 H 43.4178 0.269357 -2.02819 0
M  V30 422 H 43.4278 2.32737 -3.35108 0
M  V30 423 H 42.1028 1.33602 -3.93857 0
M  V30 424 H 40.6798 2.63056 -2.64303 0
M  V30 425 N 42.8649 1.48995 0.513639 0
M  V30 426 C 44.1109 1.58076 1.27042 0
M  V30 427 C 44.4439 0.261026 1.92438 0
M  V30 428 O 43.7189 -0.734393 1.80103 0
M  V30 429 C 44.0019 2.73091 2.34719 0
M  V30 430 C 43.8549 4.14821 1.73907 0
M  V30 431 C 45.1739 2.83796 3.36375 0
M  V30 432 H 42.2929 0.575391 0.460536 0
M  V30 433 H 44.9349 1.81232 0.570516 0
M  V30 434 H 43.0849 2.53479 2.94416 0
M  V30 435 H 44.7569 4.45917 1.18135 0
M  V30 436 H 42.9999 4.21058 1.0437 0
M  V30 437 H 43.6709 4.91147 2.51949 0
M  V30 438 H 46.1469 3.01611 2.86653 0
M  V30 439 H 45.0229 3.65971 4.09093 0
M  V30 440 H 45.2839 1.92624 3.9793 0
M  V30 441 N 44.343 -0.763751 1.37857 0
M  V30 442 C 45.275 -1.88664 1.30148 0
M  V30 443 C 46.288 -1.61365 0.215685 0
M  V30 444 O 47.477 -1.72134 0.472459 0
M  V30 445 C 44.577 -3.24075 0.991396 0
M  V30 446 C 43.75 -3.78958 2.18426 0
M  V30 447 C 42.809 -4.92862 1.8432 0
M  V30 448 O 41.835 -5.08027 2.56704 0
M  V30 449 N 43.037 -5.75071 0.792081 0
M  V30 450 H 45.802 -1.95791 2.26905 0
M  V30 451 H 43.363 -0.943226 1.31586 0
M  V30 452 H 45.355 -3.97804 0.743935 0
M  V30 453 H 43.925 -3.12399 0.112122 0
M  V30 454 H 43.145 -2.96913 2.59299 0
M  V30 455 H 44.433 -4.12357 2.98058 0
M  V30 456 H 43.831 -5.65375 0.191595 0
M  V30 457 H 42.388 -6.48991 0.60449 0
M  V30 458 N 45.8211 -1.22559 -0.990812 0
M  V30 459 C 47.2321 -1.04791 -1.54518 0
M  V30 460 C 47.5831 0.387998 -1.92325 0
M  V30 461 O 46.7081 1.27328 -1.74976 0
M  V30 462 C 47.3031 -1.896 -2.80779 0
M  V30 463 C 45.8621 -1.76124 -3.32652 0
M  V30 464 C 45.0091 -1.8594 -2.05722 0
M  V30 465 H 47.9601 -1.36374 -0.811662 0
M  V30 466 H 47.9811 -1.41464 -3.53225 0
M  V30 467 H 47.4931 -2.94101 -2.53231 0
M  V30 468 H 45.5941 -0.743643 -3.65104 0
M  V30 469 H 45.7071 -2.58913 -4.03114 0
M  V30 470 H 44.0711 -1.29403 -2.19379 0
M  V30 471 H 44.8541 -2.91976 -1.80568 0
M  V30 472 N 47.2992 1.18797 -1.03562 0
M  V30 473 C 48.2472 2.24297 -0.615905 0
M  V30 474 C 49.2412 1.65643 0.354808 0
M  V30 475 O 50.4472 1.78618 0.22265 0
M  V30 476 H 46.8222 0.729909 -0.180934 0
M  V30 477 H 48.7932 2.5701 -1.5162 0
M  V30 478 C 47.5422 3.47698 0.0104735 0
M  V30 479 H 46.8652 3.93125 -0.727509 0
M  V30 480 H 48.3052 4.23159 0.266995 0
M  V30 481 C 46.7642 3.12489 1.25905 0
M  V30 482 O 47.2942 3.25761 2.35038 0
M  V30 483 N 45.5002 2.6686 1.15039 0
M  V30 484 H 45.0472 2.56261 0.262328 0
M  V30 485 H 45.0052 2.43674 1.98672 0
M  V30 486 N 48.7773 0.814389 1.34928 0
M  V30 487 C 50.0243 0.398423 1.98542 0
M  V30 488 C 50.3523 -1.03638 1.64589 0
M  V30 489 O 49.6073 -1.73509 0.90516 0
M  V30 490 C 49.9063 0.537781 3.53331 0
M  V30 491 C 49.5723 1.93704 4.07172 0
M  V30 492 C 48.2343 2.31984 4.21589 0
M  V30 493 C 50.5863 2.85213 4.36237 0
M  V30 494 C 47.9143 3.61125 4.62391 0
M  V30 495 C 50.2663 4.13809 4.78482 0
M  V30 496 C 48.9303 4.52077 4.91104 0
M  V30 497 H 48.2003 0.145793 0.726516 0
M  V30 498 H 50.8473 1.03669 1.61012 0
M  V30 499 H 49.1523 -0.183906 3.91368 0
M  V30 500 H 50.8493 0.196588 4.00518 0
M  V30 501 H 47.4393 1.62966 3.96409 0
M  V30 502 H 51.6233 2.56885 4.24645 0
M  V30 503 H 46.8793 3.90612 4.70353 0
M  V30 504 H 51.0533 4.84811 4.99932 0
M  V30 505 H 48.6803 5.52196 5.22478 0
M  V30 506 N 50.2554 -1.46986 0.568584 0
M  V30 507 C 51.1874 -2.28233 -0.210337 0
M  V30 508 C 52.2004 -1.37682 -0.868767 0
M  V30 509 O 53.3894 -1.62406 -0.740705 0
M  V30 510 C 50.4894 -3.12293 -1.3163 0
M  V30 511 C 49.6624 -4.30878 -0.7525 0
M  V30 512 C 48.7214 -4.96445 -1.74439 0
M  V30 513 O 47.7474 -5.54482 -1.286 0
M  V30 514 N 48.9494 -4.92171 -3.07812 0
M  V30 515 H 51.7144 -2.95723 0.486648 0
M  V30 516 H 49.2754 -1.56742 0.405409 0
M  V30 517 H 51.2674 -3.53022 -1.97883 0
M  V30 518 H 49.8374 -2.46971 -1.91636 0
M  V30 519 H 49.0574 -3.94104 0.0871128 0
M  V30 520 H 50.3454 -5.07558 -0.35536 0
M  V30 521 H 49.7434 -4.46239 -3.47688 0
M  V30 522 H 48.3004 -5.36884 -3.69592 0
M  V30 523 N 51.7335 -0.305618 -1.54608 0
M  V30 524 C 52.6655 0.602161 -2.21149 0
M  V30 525 C 53.6785 1.09394 -1.20569 0
M  V30 526 O 54.8675 1.0106 -1.47136 0
M  V30 527 C 51.9675 1.83692 -2.84799 0
M  V30 528 C 51.1405 1.48686 -4.11353 0
M  V30 529 C 50.1995 2.57725 -4.58764 0
M  V30 530 O 49.2255 2.22623 -5.23858 0
M  V30 531 N 50.4275 3.88346 -4.31471 0
M  V30 532 H 53.1925 0.0324966 -2.99682 0
M  V30 533 H 50.7535 -0.128021 -1.61393 0
M  V30 534 H 52.7455 2.55994 -3.13448 0
M  V30 535 H 51.3155 2.31486 -2.10078 0
M  V30 536 H 50.5355 0.596269 -3.89664 0
M  V30 537 H 51.8235 1.22842 -4.93748 0
M  V30 538 H 51.2215 4.19671 -3.79331 0
M  V30 539 H 49.7785 4.56932 -4.64818 0
M  V30 540 N 53.2116 1.57565 -0.0334293 0
M  V30 541 C 54.4886 1.83282 0.683163 0
M  V30 542 C 54.8686 0.91823 1.90084 0
M  V30 543 O 54.2166 -0.025113 2.28486 0
M  V30 544 C 54.4266 3.32599 1.0573 0
M  V30 545 C 55.7746 3.99179 1.44711 0
M  V30 546 O 56.7986 3.3712 1.15015 0
M  V30 547 O 55.6576 5.08565 2.0006 0
M  V30 548 H 52.7516 0.755869 0.335546 0
M  V30 549 H 55.2976 1.69589 -0.0614402 0
M  V30 550 H 54.0696 3.90834 0.190828 0
M  V30 551 H 53.6926 3.51415 1.85993 0
M  V30 552 N 54.6897 -0.239769 1.55765 0
M  V30 553 C 55.6367 -1.29696 1.90913 0
M  V30 554 C 56.6067 -1.47478 0.764164 0
M  V30 555 O 57.7917 -1.61345 1.01845 0
M  V30 556 C 54.9317 -2.64598 2.21544 0
M  V30 557 C 54.0447 -2.54765 3.48882 0
M  V30 558 C 53.1797 -3.82069 3.69049 0
M  V30 559 C 52.2187 -3.66883 4.89963 0
M  V30 560 N 51.3557 -4.86094 5.06614 0
M  V30 561 H 56.1957 -0.990224 2.81067 0
M  V30 562 H 53.7327 -0.477684 1.39128 0
M  V30 563 H 55.6907 -3.43132 2.3731 0
M  V30 564 H 54.3207 -2.93405 1.34585 0
M  V30 565 H 53.3727 -1.67763 3.41409 0
M  V30 566 H 54.6847 -2.39457 4.37563 0
M  V30 567 H 53.8387 -4.69046 3.84812 0
M  V30 568 H 52.5777 -4.00282 2.78614 0
M  V30 569 H 51.5827 -2.78289 4.74168 0
M  V30 570 H 52.8077 -3.50157 5.81865 0
M  V30 571 H 50.7537 -5.04655 4.19117 0
M  V30 572 H 50.6707 -4.73443 5.89396 0
M  V30 573 H 51.9387 -5.74549 5.26795 0
M  V30 574 N 56.1678 -1.49265 -0.50573 0
M  V30 575 C 57.4148 -1.58513 -1.26015 0
M  V30 576 C 57.7428 -0.26972 -1.92621 0
M  V30 577 O 56.9978 0.741997 -1.81088 0
M  V30 578 C 57.2968 -2.69008 -2.35308 0
M  V30 579 C 56.9628 -4.10662 -1.86192 0
M  V30 580 C 55.6248 -4.49212 -1.72516 0
M  V30 581 C 57.9768 -4.99336 -1.49375 0
M  V30 582 C 55.3048 -5.74214 -1.20394 0
M  V30 583 C 57.6568 -6.24852 -0.987072 0
M  V30 584 C 56.3208 -6.62236 -0.836669 0
M  V30 585 H 55.5908 -0.580041 -0.461122 0
M  V30 586 H 58.2378 -1.83078 -0.561665 0
M  V30 587 H 56.5428 -2.38396 -3.10926 0
M  V30 588 H 58.2398 -2.73373 -2.93374 0
M  V30 589 H 54.8298 -3.8023 -1.97795 0
M  V30 590 H 59.0138 -4.70212 -1.5879 0
M  V30 591 H 54.2698 -6.01883 -1.07458 0
M  V30 592 H 58.4438 -6.92944 -0.692983 0
M  V30 593 H 56.0708 -7.58979 -0.430607 0
M  V30 594 N 57.6459 0.756429 -1.3826 0
M  V30 595 C 58.5759 1.88374 -1.37976 0
M  V30 596 C 59.5569 1.68311 -0.246082 0
M  V30 597 O 60.7419 1.88944 -0.44874 0
M  V30 598 C 57.8719 3.25864 -1.20125 0
M  V30 599 C 56.8259 3.60523 -2.30666 0
M  V30 600 C 56.1519 4.9672 -1.97923 0
M  V30 601 C 57.4519 3.65692 -3.72916 0
M  V30 602 H 59.1459 1.88869 -2.32312 0
M  V30 603 H 56.6919 0.907272 -1.11824 0
M  V30 604 H 58.6449 4.0438 -1.18552 0
M  V30 605 H 57.3689 3.25841 -0.222498 0
M  V30 606 H 56.0279 2.84324 -2.3142 0
M  V30 607 H 55.6759 4.93253 -0.985393 0
M  V30 608 H 55.3759 5.20878 -2.71955 0
M  V30 609 H 56.8999 5.77618 -1.97964 0
M  V30 610 H 58.3139 4.34328 -3.74208 0
M  V30 611 H 56.7109 4.01358 -4.4613 0
M  V30 612 H 57.7809 2.65987 -4.05436 0
M  V30 613 N 59.124 1.23083 0.984299 0
M  V30 614 C 60.372 1.05848 1.72165 0
M  V30 615 C 60.693 -0.406049 1.90726 0
M  V30 616 O 59.963 -1.29139 1.47309 0
M  V30 617 H 58.543 0.388685 0.637913 0
M  V30 618 H 61.205 1.54736 1.18503 0
M  V30 619 H 60.301 1.54327 2.71274 0
M  V30 620 N 60.6021 -1.18246 1.0419 0
M  V30 621 C 62.0181 -1.40269 0.761366 0
M  V30 622 C 62.2181 -1.90777 -0.648578 0
M  V30 623 O 61.2741 -2.0929 -1.41258 0
M  V30 624 C 62.5871 -2.40237 1.8085 0
M  V30 625 C 64.1351 -2.53961 1.82955 0
M  V30 626 C 64.6101 -3.57194 2.86664 0
M  V30 627 N 66.1011 -3.64702 2.85563 0
M  V30 628 C 66.8361 -4.44309 3.6246 0
M  V30 629 N 66.3321 -5.27514 4.49111 0
M  V30 630 N 68.1251 -4.39084 3.50944 0
M  V30 631 H 60.2761 -0.837882 1.95175 0
M  V30 632 H 62.5391 -0.430608 0.84456 0
M  V30 633 H 62.2451 -2.10176 2.81991 0
M  V30 634 H 62.1191 -3.39601 1.64168 0
M  V30 635 H 64.5061 -2.83338 0.824855 0
M  V30 636 H 64.5871 -1.54706 2.03715 0
M  V30 637 H 64.2311 -3.28558 3.87314 0
M  V30 638 H 64.1611 -4.5613 2.6316 0
M  V30 639 H 66.6521 -3.05289 2.22727 0
M  V30 640 H 66.9651 -5.85411 5.04493 0
M  V30 641 H 65.3101 -5.2693 4.53178 0
M  V30 642 H 68.5011 -3.7313 2.82651 0
M  V30 643 H 68.6741 -5.00883 4.11121 0
M  V30 644 N 62.0802 -0.821533 -1.34494 0
M  V30 645 C 63.3262 -0.418729 -1.99043 0
M  V30 646 C 63.6812 1.00672 -1.6396 0
M  V30 647 O 62.9742 1.69132 -0.900271 0
M  V30 648 C 63.1682 -0.556512 -3.53041 0
M  V30 649 C 62.9972 -1.9938 -4.03085 0
M  V30 650 C 61.7672 -2.62539 -4.31742 0
M  V30 651 C 63.9652 -2.96035 -4.20556 0
M  V30 652 N 61.9472 -3.97523 -4.67813 0
M  V30 653 C 63.3182 -4.15924 -4.59791 0
M  V30 654 C 65.3732 -2.9267 -4.02801 0
M  V30 655 C 64.0762 -5.32899 -4.83126 0
M  V30 656 C 66.1022 -4.08861 -4.27302 0
M  V30 657 C 65.4642 -5.275 -4.66822 0
M  V30 658 H 61.5632 -0.201299 -0.755647 0
M  V30 659 H 64.1472 -1.06594 -1.62929 0
M  V30 660 H 62.3182 0.0607924 -3.88352 0
M  V30 661 H 64.0502 -0.126842 -4.04501 0
M  V30 662 H 60.8052 -2.13789 -4.22601 0
M  V30 663 H 61.2292 -4.67061 -4.90085 0
M  V30 664 H 65.8712 -2.02088 -3.71376 0
M  V30 665 H 63.5892 -6.24041 -5.13418 0
M  V30 666 H 67.1752 -4.07654 -4.15101 0
M  V30 667 H 66.0552 -6.15913 -4.85408 0
M  V30 668 N 63.5583 1.46682 -0.576371 0
M  V30 669 C 64.8053 2.02412 -0.0595339 0
M  V30 670 C 65.1333 1.44859 1.29793 0
M  V30 671 O 64.3883 0.601099 1.8624 0
M  V30 672 C 64.6873 3.57345 0.062886 0
M  V30 673 C 64.3533 4.33908 -1.22616 0
M  V30 674 C 63.0153 4.54544 -1.57933 0
M  V30 675 C 65.3673 4.77919 -2.07948 0
M  V30 676 C 62.6953 5.16444 -2.78393 0
M  V30 677 C 65.0473 5.41149 -3.27629 0
M  V30 678 C 63.7113 5.60014 -3.63236 0
M  V30 679 H 62.9813 0.74068 -0.021785 0
M  V30 680 H 65.6283 1.76128 -0.751735 0
M  V30 681 H 63.9333 3.82729 0.838178 0
M  V30 682 H 65.6303 3.98136 0.478439 0
M  V30 683 H 62.2203 4.18138 -0.941202 0
M  V30 684 H 66.4043 4.61738 -1.81967 0
M  V30 685 H 61.6603 5.29242 -3.06126 0
M  V30 686 H 65.8343 5.74211 -3.94023 0
M  V30 687 H 63.4613 6.07748 -4.56669 0
M  V30 688 N 65.0364 0.313813 1.54444 0
M  V30 689 C 66.2614 -0.296681 2.05267 0
M  V30 690 C 66.6864 -1.45757 1.18897 0
M  V30 691 O 66.0444 -1.80239 0.195886 0
M  V30 692 C 66.0924 -0.71831 3.53373 0
M  V30 693 O 65.1964 -1.82175 3.69981 0
M  V30 694 H 64.5374 -0.0554061 0.661684 0
M  V30 695 H 67.0674 0.459387 1.99376 0
M  V30 696 H 67.0774 -1.00364 3.95463 0
M  V30 697 H 65.7524 0.130821 4.15694 0
M  V30 698 H 64.3294 -1.53598 3.39797 0
M  V30 699 N 66.5145 -1.57545 0.0417849 0
M  V30 700 C 67.4775 -2.09885 -0.92093 0
M  V30 701 C 68.4775 -1.01648 -1.24596 0
M  V30 702 O 69.6675 -1.27759 -1.1842 0
M  V30 703 C 66.7995 -2.57527 -2.23367 0
M  V30 704 H 67.9925 -2.96236 -0.467382 0
M  V30 705 H 65.5455 -1.5493 -0.206467 0
M  V30 706 H 66.2805 -1.74542 -2.73323 0
M  V30 707 H 66.0655 -3.36613 -2.01083 0
M  V30 708 H 67.5555 -2.98201 -2.92346 0
M  V30 709 N 67.9926 0.231505 -1.5589 0
M  V30 710 C 69.2406 0.955461 -1.78088 0
M  V30 711 C 69.5616 1.85262 -0.608533 0
M  V30 712 O 68.8316 1.92277 0.375035 0
M  V30 713 H 67.4116 0.355787 -0.656829 0
M  V30 714 H 70.0736 0.245751 -1.93344 0
M  V30 715 H 69.1696 1.56814 -2.69844 0
M  V30 716 N 69.4707 1.49531 0.497807 0
M  V30 717 C 70.4007 1.6935 1.60757 0
M  V30 718 C 71.3817 0.542218 1.61227 0
M  V30 719 O 72.5667 0.778417 1.77917 0
M  V30 720 C 69.6967 1.76298 2.99226 0
M  V30 721 C 68.6507 2.91248 3.13622 0
M  V30 722 C 67.9767 2.83312 4.53474 0
M  V30 723 C 69.2767 4.3214 2.93346 0
M  V30 724 H 70.9707 2.62263 1.44425 0
M  V30 725 H 68.5167 1.26208 0.693367 0
M  V30 726 H 70.4697 1.88749 3.76765 0
M  V30 727 H 69.1937 0.799871 3.16654 0
M  V30 728 H 67.8527 2.78404 2.38509 0
M  V30 729 H 67.5007 1.84902 4.67782 0
M  V30 730 H 67.2007 3.60465 4.64046 0
M  V30 731 H 68.7247 2.97775 5.33069 0
M  V30 732 H 70.1387 4.45649 3.60652 0
M  V30 733 H 68.5357 5.1054 3.15387 0
M  V30 734 H 69.6057 4.46363 1.89441 0
M  V30 735 N 70.9488 -0.749086 1.3866 0
M  V30 736 C 71.9118 -1.84457 1.36045 0
M  V30 737 C 72.9118 -1.58682 0.260122 0
M  V30 738 O 74.1018 -1.66343 0.517261 0
M  V30 739 C 71.2338 -3.22008 1.11911 0
M  V30 740 H 72.4268 -1.88182 2.33512 0
M  V30 741 H 69.9798 -0.951266 1.24019 0
M  V30 742 H 70.7148 -3.2395 0.150686 0
M  V30 743 H 70.4998 -3.42111 1.91579 0
M  V30 744 H 71.9898 -4.0208 1.12788 0
M  V30 745 N 72.4269 -1.23603 -0.977757 0
M  V30 746 C 73.6519 -1.09735 -1.75991 0
M  V30 747 C 74.0769 0.346858 -1.84874 0
M  V30 748 O 73.4349 1.25093 -1.3123 0
M  V30 749 C 73.4829 -1.73051 -3.16363 0
M  V30 750 O 72.5869 -0.994452 -4.0023 0
M  V30 751 H 71.9279 -0.384476 -0.541364 0
M  V30 752 H 74.4579 -1.6371 -1.2272 0
M  V30 753 H 74.4679 -1.78398 -3.66931 0
M  V30 754 H 73.1429 -2.78137 -3.09213 0
M  V30 755 H 71.7199 -1.01812 -3.58732 0
M  V30 756 N 73.905 1.17692 -1.04816 0
M  V30 757 C 74.853 2.23632 -0.63966 0
M  V30 758 C 75.847 1.6601 0.337219 0
M  V30 759 O 77.053 1.78844 0.203693 0
M  V30 760 H 73.428 0.727949 -0.188665 0
M  V30 761 H 75.399 2.55387 -1.54337 0
M  V30 762 C 74.148 3.4769 -0.0264051 0
M  V30 763 H 73.471 3.92331 -0.769164 0
M  V30 764 H 74.911 4.23418 0.222098 0
M  V30 765 C 73.37 3.13807 1.22584 0
M  V30 766 O 73.9 3.28236 2.31569 0
M  V30 767 N 72.106 2.68065 1.12202 0
M  V30 768 H 71.653 2.56525 0.235133 0
M  V30 769 H 71.611 2.45767 1.96076 0
M  V30 770 N 75.3831 0.828654 1.34056 0
M  V30 771 C 76.6081 0.431637 2.02859 0
M  V30 772 C 77.0331 -0.956339 1.61975 0
M  V30 773 O 76.3911 -1.62338 0.807228 0
M  V30 774 C 76.4391 0.548323 3.56407 0
M  V30 775 O 75.5431 -0.429556 4.10157 0
M  V30 776 H 74.8841 0.176886 0.640006 0
M  V30 777 H 77.4141 1.12066 1.71179 0
M  V30 778 H 77.4241 0.426196 4.05768 0
M  V30 779 H 76.0991 1.5606 3.8551 0
M  V30 780 H 74.6761 -0.265836 3.71951 0
M  V30 781 N 76.8612 -1.46375 0.584142 0
M  V30 782 C 78.0862 -2.07268 0.0740405 0
M  V30 783 C 78.5112 -1.42979 -1.22223 0
M  V30 784 O 77.8692 -0.514092 -1.73859 0
M  V30 785 C 77.9172 -3.60518 -0.0767769 0
M  V30 786 O 77.0212 -3.96533 -1.13292 0
M  V30 787 H 76.3622 -0.660961 0.0634524 0
M  V30 788 H 78.8922 -1.87991 0.807492 0
M  V30 789 H 78.9022 -4.07021 -0.282489 0
M  V30 790 H 77.5772 -4.06702 0.86986 0
M  V30 791 H 76.1542 -3.61738 -0.905553 0
M  V30 792 N 78.3393 -0.321999 -1.54275 0
M  V30 793 C 79.5853 0.274234 -2.01543 0
M  V30 794 C 79.9403 1.499 -1.20614 0
M  V30 795 O 79.2333 1.89546 -0.279804 0
M  V30 796 C 79.4273 0.661769 -3.5122 0
M  V30 797 C 79.2563 -0.523892 -4.46638 0
M  V30 798 C 78.0263 -1.02251 -4.94846 0
M  V30 799 C 80.2243 -1.37558 -4.95563 0
M  V30 800 N 78.2063 -2.17274 -5.74165 0
M  V30 801 C 79.5773 -2.37301 -5.7279 0
M  V30 802 C 81.6323 -1.40353 -4.77709 0
M  V30 803 C 80.3353 -3.3964 -6.34064 0
M  V30 804 C 82.3613 -2.41562 -5.39817 0
M  V30 805 C 81.7233 -3.40031 -6.16894 0
M  V30 806 H 77.8223 0.0642367 -0.779357 0
M  V30 807 H 80.4063 -0.456683 -1.89268 0
M  V30 808 H 78.5773 1.36182 -3.63743 0
M  V30 809 H 80.3093 1.23934 -3.85256 0
M  V30 810 H 77.0643 -0.594046 -4.6986 0
M  V30 811 H 77.4883 -2.75289 -6.18502 0
M  V30 812 H 82.1303 -0.655907 -4.17681 0
M  V30 813 H 79.8483 -4.15309 -6.93213 0
M  V30 814 H 83.4343 -2.44524 -5.2792 0
M  V30 815 H 82.3143 -4.17063 -6.64099 0
M  V30 816 N 79.8174 1.5752 -0.0501392 0
M  V30 817 C 80.7474 2.14502 0.922566 0
M  V30 818 C 81.7284 1.06642 1.3252 0
M  V30 819 O 82.9134 1.34577 1.4001 0
M  V30 820 C 80.0434 2.68916 2.19776 0
M  V30 821 C 78.9974 3.8175 1.93523 0
M  V30 822 C 78.3234 4.22677 3.27487 0
M  V30 823 C 79.6234 5.06932 1.25765 0
M  V30 824 H 81.3174 2.9603 0.447952 0
M  V30 825 H 78.8634 1.42401 0.214024 0
M  V30 826 H 80.8164 3.07419 2.88222 0
M  V30 827 H 79.5404 1.84578 2.69441 0
M  V30 828 H 78.1994 3.43718 1.27489 0
M  V30 829 H 77.8474 3.35291 3.74952 0
M  V30 830 H 77.5474 4.98725 3.1072 0
M  V30 831 H 79.0714 4.63779 3.97166 0
M  V30 832 H 80.4854 5.42888 1.84244 0
M  V30 833 H 78.8824 5.88116 1.19328 0
M  V30 834 H 79.9524 4.84337 0.233536 0
M  V30 835 N 81.2955 -0.223234 1.56011 0
M  V30 836 C 82.7115 -0.572856 1.48965 0
M  V30 837 C 82.9115 -1.87225 0.74492 0
M  V30 838 O 81.9675 -2.50899 0.283896 0
M  V30 839 C 83.2805 -0.653646 2.9351 0
M  V30 840 C 84.8285 -0.744386 3.0402 0
M  V30 841 C 85.3035 -0.856535 4.49919 0
M  V30 842 N 86.7945 -0.9208 4.53955 0
M  V30 843 C 87.5295 -1.02726 5.64123 0
M  V30 844 N 87.0255 -1.09777 6.84047 0
M  V30 845 N 88.8185 -1.06226 5.51971 0
M  V30 846 H 80.9695 0.629462 2.02858 0
M  V30 847 H 83.2325 0.220621 0.921971 0
M  V30 848 H 82.9385 0.231518 3.50937 0
M  V30 849 H 82.8125 -1.51781 3.45315 0
M  V30 850 H 85.1995 -1.61999 2.46658 0
M  V30 851 H 85.2805 0.14541 2.55386 0
M  V30 852 H 84.9245 0.0146069 5.07898 0
M  V30 853 H 84.8545 -1.76172 4.96257 0
M  V30 854 H 87.3455 -0.876694 3.6759 0
M  V30 855 H 87.6585 -1.17872 7.63758 0
M  V30 856 H 86.0035 -1.06693 6.86762 0
M  V30 857 H 89.1945 -1.00382 4.5721 0
M  V30 858 H 89.3675 -1.14177 6.37862 0
M  V30 859 N 82.7736 -1.49793 -0.48987 0
M  V30 860 C 83.6836 -1.70036 -1.61632 0
M  V30 861 C 84.6996 -0.583102 -1.63939 0
M  V30 862 O 85.8756 -0.859169 -1.82154 0
M  V30 863 C 82.9406 -1.77277 -2.97949 0
M  V30 864 C 82.0016 -3.00918 -3.06181 0
M  V30 865 C 81.2346 -3.07804 -4.35996 0
M  V30 866 O 81.4576 -2.21982 -5.25433 0
M  V30 867 O 80.3916 -4.00369 -4.49431 0
M  V30 868 H 84.2176 -2.65486 -1.47482 0
M  V30 869 H 81.8026 -1.33666 -0.667362 0
M  V30 870 H 83.6846 -1.84329 -3.78947 0
M  V30 871 H 82.3596 -0.850076 -3.12339 0
M  V30 872 H 81.2666 -2.99377 -2.2433 0
M  V30 873 H 82.5996 -3.92704 -2.96723 0
M  V30 874 N 84.2517 0.741722 -1.39055 0
M  V30 875 C 85.1987 1.85566 -1.37237 0
M  V30 876 C 86.1687 1.64457 -0.233072 0
M  V30 877 O 87.3537 1.85957 -0.427147 0
M  V30 878 C 84.4937 3.23004 -1.215 0
M  V30 879 C 83.6067 3.55864 -2.44918 0
M  V30 880 C 82.7417 4.82669 -2.21821 0
M  V30 881 C 81.7807 5.08351 -3.40948 0
M  V30 882 N 80.9177 6.26356 -3.17211 0
M  V30 883 H 85.7577 1.86455 -2.32462 0
M  V30 884 H 83.2947 0.911176 -1.15482 0
M  V30 885 H 85.2527 4.02331 -1.10389 0
M  V30 886 H 83.8827 3.21411 -0.29908 0
M  V30 887 H 82.9347 2.7129 -2.66657 0
M  V30 888 H 84.2467 3.70765 -3.33668 0
M  V30 889 H 83.4007 5.69962 -2.07914 0
M  V30 890 H 82.1397 4.69929 -1.30454 0
M  V30 891 H 81.1447 4.19522 -3.55361 0
M  V30 892 H 82.3697 5.22981 -4.33207 0
M  V30 893 H 80.3157 6.14917 -2.28502 0
M  V30 894 H 80.2327 6.41813 -3.99515 0
M  V30 895 H 81.5007 7.16506 -3.06984 0
M  V30 896 N 85.7298 1.2412 0.971189 0
M  V30 897 C 86.6768 1.0305 2.06517 0
M  V30 898 C 87.6468 -0.0550666 1.66009 0
M  V30 899 O 88.8318 0.0988688 1.90544 0
M  V30 900 C 85.9718 0.637653 3.39158 0
M  V30 901 C 85.0848 1.79633 3.92882 0
M  V30 902 C 84.2198 1.34939 5.13775 0
M  V30 903 C 83.2588 2.47823 5.59687 0
M  V30 904 N 82.3958 2.04022 6.71803 0
M  V30 905 H 87.2358 1.96685 2.23873 0
M  V30 906 H 84.7728 0.979694 1.09729 0
M  V30 907 H 86.7308 0.390931 4.15364 0
M  V30 908 H 85.3608 -0.261693 3.21737 0
M  V30 909 H 84.4128 2.15681 3.13346 0
M  V30 910 H 85.7248 2.64466 4.22918 0
M  V30 911 H 84.8788 1.06134 5.97345 0
M  V30 912 H 83.6178 0.471557 4.85415 0
M  V30 913 H 82.6228 2.77392 4.74693 0
M  V30 914 H 83.8478 3.36158 5.90063 0
M  V30 915 H 81.7938 1.18632 6.45184 0
M  V30 916 H 81.7108 2.82409 7.01271 0
M  V30 917 H 82.9788 1.78347 7.58823 0
M  V30 918 N 87.2079 -1.17134 1.05439 0
M  V30 919 C 88.1709 -2.19439 0.661764 0
M  V30 920 C 89.1709 -1.58199 -0.288042 0
M  V30 921 O 90.3609 -1.74053 -0.0715803 0
M  V30 922 C 87.4929 -3.40889 -0.0276209 0
M  V30 923 H 88.6859 -2.55688 1.56728 0
M  V30 924 H 86.2389 -1.31259 0.848567 0
M  V30 925 H 86.9739 -3.10187 -0.94629 0
M  V30 926 H 86.7589 -3.86586 0.655238 0
M  V30 927 H 88.2489 -4.16603 -0.288342 0
M  V30 928 N 88.686 -0.835752 -1.33615 0
M  V30 929 C 89.649 -0.272 -2.2758 0
M  V30 930 C 90.649 0.557487 -1.50827 0
M  V30 931 O 91.839 0.37173 -1.70188 0
M  V30 932 C 88.971 0.617173 -3.35267 0
M  V30 933 H 90.164 -1.10111 -2.78954 0
M  V30 934 H 87.717 -0.608594 -1.43965 0
M  V30 935 H 88.452 1.46884 -2.89129 0
M  V30 936 H 88.237 0.0237066 -3.92093 0
M  V30 937 H 89.727 1.005 -4.05326 0
M  V30 938 N 90.1641 1.46063 -0.591896 0
M  V30 939 C 91.0941 2.33172 0.123673 0
M  V30 940 C 92.0751 1.45897 0.87453 0
M  V30 941 O 93.2601 1.74698 0.848181 0
M  V30 942 C 90.3901 3.28336 1.13194 0
M  V30 943 C 89.3441 4.25124 0.495324 0
M  V30 944 C 88.6701 5.09863 1.61071 0
M  V30 945 C 89.9701 5.19143 -0.573425 0
M  V30 946 H 91.6641 2.93252 -0.603646 0
M  V30 947 H 89.2101 1.41014 -0.291741 0
M  V30 948 H 91.1631 3.88137 1.64097 0
M  V30 949 H 89.8871 2.66383 1.88965 0
M  V30 950 H 88.5461 3.66599 0.00729452 0
M  V30 951 H 88.1941 4.44288 2.35832 0
M  V30 952 H 87.8941 5.75417 1.19035 0
M  V30 953 H 89.4181 5.72529 2.12233 0
M  V30 954 H 90.8321 5.73106 -0.1491 0
M  V30 955 H 89.2291 5.93089 -0.914636 0
M  V30 956 H 90.2991 4.62519 -1.45617 0
M  V30 957 N 91.6422 0.330177 1.54103 0
M  V30 958 C 92.8672 -0.274893 2.0557 0
M  V30 959 C 93.2922 -1.44487 1.20437 0
M  V30 960 O 92.6502 -1.80021 0.214991 0
M  V30 961 C 92.6982 -0.68079 3.54115 0
M  V30 962 O 91.8022 -1.7824 3.71893 0
M  V30 963 H 91.1432 -0.0483849 0.662235 0
M  V30 964 H 93.6732 0.480508 1.98878 0
M  V30 965 H 93.6832 -0.961635 3.96505 0
M  V30 966 H 92.3582 0.174903 4.15532 0
M  V30 967 H 90.9352 -1.49985 3.41407 0
M  V30 968 N 93.1203 -1.57491 0.0584922 0
M  V30 969 C 94.0533 -2.07533 -0.948969 0
M  V30 970 C 95.0313 -0.977444 -1.29942 0
M  V30 971 O 96.2153 -1.2499 -1.41102 0
M  V30 972 C 93.3423 -2.52192 -2.2609 0
M  V30 973 C 92.3883 -3.73287 -2.06298 0
M  V30 974 S 93.2213 -5.18603 -1.33459 0
M  V30 975 C 94.3773 -5.66583 -2.65959 0
M  V30 976 H 94.6103 -2.92662 -0.523118 0
M  V30 977 H 92.1433 -1.53631 -0.153954 0
M  V30 978 H 94.1013 -2.78585 -3.01498 0
M  V30 979 H 92.7623 -1.67356 -2.65802 0
M  V30 980 H 91.9553 -4.0248 -3.03357 0
M  V30 981 H 91.5573 -3.47199 -1.39029 0
M  V30 982 H 93.8493 -5.72616 -3.62101 0
M  V30 983 H 94.7923 -6.65684 -2.41393 0
M  V30 984 H 95.2003 -4.94342 -2.72554 0
M  V30 985 N 94.5984 0.214957 -1.56127 0
M  V30 986 C 95.8384 0.945364 -1.81224 0
M  V30 987 C 96.2024 1.81265 -0.633005 0
M  V30 988 O 97.4034 2.57731 -0.763423 0
M  V30 989 C 95.6744 1.75665 -3.1125 0
M  V30 990 S 97.2334 2.54179 -3.57685 0
M  V30 991 H 94.0514 0.317443 -0.6362 0
M  V30 992 H 96.6534 0.210381 -1.94365 0
M  V30 993 H 95.3574 1.10977 -3.9511 0
M  V30 994 H 94.8884 2.53381 -3.00934 0
M  V30 995 H 96.9034 3.7792 -3.21545 0
M  V30 996 N 96.0765 1.50051 0.48192 0
M  V30 997 C 97.0235 1.68122 1.58125 0
M  V30 998 C 97.9935 0.522545 1.57666 0
M  V30 999 O 99.1785 0.751844 1.75362 0
M  V30 1000 C 96.3185 1.77142 2.96167 0
M  V30 1001 C 95.4315 3.0444 3.06497 0
M  V30 1002 C 94.5665 3.04321 4.35387 0
M  V30 1003 C 93.6055 4.26118 4.3942 0
M  V30 1004 N 92.7425 4.238 5.59766 0
M  V30 1005 H 97.5825 2.6198 1.42022 0
M  V30 1006 H 95.1195 1.29877 0.690687 0
M  V30 1007 H 97.0775 1.80352 3.76203 0
M  V30 1008 H 95.7075 0.867329 3.1093 0
M  V30 1009 H 94.7595 3.10752 2.19402 0
M  V30 1010 H 96.0715 3.94426 3.05336 0
M  V30 1011 H 95.2255 3.062 5.23762 0
M  V30 1012 H 93.9645 2.12147 4.39141 0
M  V30 1013 H 92.9695 4.24463 3.49444 0
M  V30 1014 H 94.1945 5.19507 4.37366 0
M  V30 1015 H 92.1405 3.34474 5.64326 0
M  V30 1016 H 92.0575 5.07542 5.60301 0
M  V30 1017 H 93.3255 4.2981 6.50295 0
M  V30 1018 N 97.5546 -0.734337 1.39446 0
M  V30 1019 C 98.7796 -1.52866 1.40167 0
M  V30 1020 C 99.2046 -1.881 -0.00171513 0
M  V30 1021 O 98.5626 -1.51957 -0.988879 0
M  V30 1022 C 98.6106 -2.79235 2.28167 0
M  V30 1023 O 97.7146 -3.75185 1.71201 0
M  V30 1024 H 97.0556 -0.461618 0.477289 0
M  V30 1025 H 99.5856 -0.905949 1.8345 0
M  V30 1026 H 99.5956 -3.27963 2.42702 0
M  V30 1027 H 98.2706 -2.52923 3.30156 0
M  V30 1028 H 96.8476 -3.33958 1.65912 0
M  V30 1029 N 99.0327 -1.24633 -0.964593 0
M  V30 1030 C 100.279 -1.08949 -1.71049 0
M  V30 1031 C 100.612 0.370302 -1.90637 0
M  V30 1032 O 99.8867 1.27349 -1.47011 0
M  V30 1033 C 100.17 -1.83329 -3.0994 0
M  V30 1034 C 100.023 -3.37077 -2.97824 0
M  V30 1035 C 101.342 -1.60846 -4.09654 0
M  V30 1036 H 98.4607 -0.397178 -0.620821 0
M  V30 1037 H 101.103 -1.5334 -1.12191 0
M  V30 1038 H 99.2527 -1.45597 -3.60186 0
M  V30 1039 H 100.925 -3.84425 -2.5498 0
M  V30 1040 H 99.1677 -3.65298 -2.33965 0
M  V30 1041 H 99.8387 -3.84324 -3.96231 0
M  V30 1042 H 102.315 -1.93674 -3.68279 0
M  V30 1043 H 101.191 -2.1534 -5.04896 0
M  V30 1044 H 101.452 -0.547434 -4.38698 0
M  V30 1045 N 100.511 1.16574 -1.06058 0
M  V30 1046 C 101.757 1.87324 -0.777022 0
M  V30 1047 C 102.09 1.81351 0.694645 0
M  V30 1048 O 101.365 1.22753 1.50871 0
M  V30 1049 C 101.648 3.36991 -1.26922 0
M  V30 1050 C 101.501 3.51667 -2.80447 0
M  V30 1051 C 102.82 4.3131 -0.87521 0
M  V30 1052 H 99.9388 0.680191 -0.28374 0
M  V30 1053 H 102.581 1.37036 -1.3161 0
M  V30 1054 H 100.731 3.79949 -0.81063 0
M  V30 1055 H 102.403 3.17664 -3.34495 0
M  V30 1056 H 100.646 2.93656 -3.19294 0
M  V30 1057 H 101.317 4.56766 -3.0995 0
M  V30 1058 H 103.793 3.9624 -1.27014 0
M  V30 1059 H 102.669 5.34545 -1.2471 0
M  V30 1060 H 102.93 4.41552 0.220071 0
M  V30 1061 N 101.989 0.842826 1.3317 0
M  V30 1062 C 102.952 0.284065 2.27433 0
M  V30 1063 C 103.952 -0.54948 1.5112 0
M  V30 1064 O 105.142 -0.362699 1.70382 0
M  V30 1065 C 102.274 -0.599384 3.35589 0
M  V30 1066 H 103.467 1.11589 2.78366 0
M  V30 1067 H 101.02 0.616221 1.4364 0
M  V30 1068 H 101.755 -1.45349 2.89904 0
M  V30 1069 H 101.54 -0.00291266 3.921 0
M  V30 1070 H 103.03 -0.983488 4.05854 0
M  V30 1071 N 103.467 -1.45747 0.599634 0
M  V30 1072 C 104.878 -1.85853 0.177681 0
M  V30 1073 C 105.229 -1.50102 -1.26348 0
M  V30 1074 O 104.354 -0.923905 -1.95686 0
M  V30 1075 C 104.949 -3.37326 0.315688 0
M  V30 1076 C 103.508 -3.76365 -0.0515144 0
M  V30 1077 C 102.655 -2.69722 0.643822 0
M  V30 1078 H 105.606 -1.36661 0.806814 0
M  V30 1079 H 105.627 -3.77778 -0.454321 0
M  V30 1080 H 105.139 -3.63315 1.36468 0
M  V30 1081 H 103.24 -3.55993 -1.09999 0
M  V30 1082 H 103.353 -4.77916 0.336594 0
M  V30 1083 H 101.717 -2.54567 0.0822881 0
M  V30 1084 H 102.5 -2.98549 1.6948 0
M  V30 1085 N 104.945 -0.338344 -1.53925 0
M  V30 1086 C 105.908 0.508299 -2.23493 0
M  V30 1087 C 106.908 1.03175 -1.23335 0
M  V30 1088 O 108.098 0.921826 -1.47811 0
M  V30 1089 C 105.23 1.70754 -2.95052 0
M  V30 1090 H 106.423 -0.100058 -2.99733 0
M  V30 1091 H 103.976 -0.0896198 -1.56043 0
M  V30 1092 H 104.711 2.35474 -2.22986 0
M  V30 1093 H 104.496 1.33946 -3.68512 0
M  V30 1094 H 105.986 2.30818 -3.48013 0
M  V30 1095 N 106.423 1.57458 -0.0668435 0
M  V30 1096 C 107.651 1.97624 0.612565 0
M  V30 1097 C 108.066 0.94502 1.63447 0
M  V30 1098 O 107.423 -0.0689276 1.8237 0
M  V30 1099 C 107.474 3.37869 1.28555 0
M  V30 1100 O 107.195 4.3704 0.304557 0
M  V30 1101 C 108.696 3.92882 2.05325 0
M  V30 1102 H 105.916 0.650045 0.166381 0
M  V30 1103 H 108.46 2.04035 -0.137782 0
M  V30 1104 H 106.615 3.3256 1.98702 0
M  V30 1105 H 107.029 5.18565 0.786779 0
M  V30 1106 H 108.503 4.93247 2.47812 0
M  V30 1107 H 108.98 3.29156 2.9078 0
M  V30 1108 H 109.586 4.01577 1.40056 0
M  V30 1109 N 107.901 -0.206675 1.56239 0
M  V30 1110 C 109.178 -0.954051 1.70755 0
M  V30 1111 C 109.558 -2.01841 0.618353 0
M  V30 1112 O 108.906 -2.25444 -0.372434 0
M  V30 1113 C 109.116 -1.551 3.12642 0
M  V30 1114 C 110.464 -2.03757 3.72516 0
M  V30 1115 O 111.488 -1.64965 3.15698 0
M  V30 1116 O 110.347 -2.75103 4.72208 0
M  V30 1117 H 107.441 -0.446636 0.696021 0
M  V30 1118 H 109.987 -0.197283 1.68549 0
M  V30 1119 H 108.759 -0.783212 3.83382 0
M  V30 1120 H 108.382 -2.37291 3.19028 0
M  V30 1121 N 109.379 -1.50304 -0.473955 0
M  V30 1122 C 110.627 -1.60832 -1.22382 0
M  V30 1123 C 110.948 -0.30939 -1.9253 0
M  V30 1124 O 110.218 0.67296 -1.83978 0
M  V30 1125 H 108.798 -0.592652 -0.454723 0
M  V30 1126 H 111.46 -1.87068 -0.546968 0
M  V30 1127 H 110.556 -2.41803 -1.97327 0
M  V30 1128 N 110.857 0.726932 -1.39834 0
M  V30 1129 C 112.105 1.4837 -1.37225 0
M  V30 1130 C 112.426 1.94979 0.0284857 0
M  V30 1131 O 111.696 1.69555 0.981213 0
M  V30 1132 H 110.276 0.55043 -0.505011 0
M  V30 1133 H 112.938 0.862468 -1.74778 0
M  V30 1134 H 112.034 2.36198 -2.04003 0
M  V30 1135 N 112.336 1.25143 0.95797 0
M  V30 1136 C 113.266 1.07711 2.07173 0
M  V30 1137 C 114.247 -0.0128462 1.70095 0
M  V30 1138 O 115.432 0.156061 1.93572 0
M  V30 1139 C 112.562 0.691503 3.40346 0
M  V30 1140 C 111.516 1.73132 3.9142 0
M  V30 1141 C 110.842 1.20049 5.21049 0
M  V30 1142 C 112.142 3.1294 4.1817 0
M  V30 1143 H 113.836 2.00873 2.22014 0
M  V30 1144 H 111.382 0.967191 1.06684 0
M  V30 1145 H 113.335 0.556505 4.17709 0
M  V30 1146 H 112.059 -0.275819 3.25433 0
M  V30 1147 H 110.718 1.8547 3.16222 0
M  V30 1148 H 110.366 0.223499 5.02503 0
M  V30 1149 H 110.066 1.89545 5.56189 0
M  V30 1150 H 111.59 1.07782 6.01012 0
M  V30 1151 H 113.004 3.03775 4.86203 0
M  V30 1152 H 111.401 3.79875 4.64559 0
M  V30 1153 H 112.471 3.6025 3.24573 0
M  V30 1154 N 113.814 -1.1601 1.06675 0
M  V30 1155 C 114.762 -2.22586 0.675157 0
M  V30 1156 C 115.756 -1.66525 -0.310766 0
M  V30 1157 O 116.962 -1.79145 -0.175215 0
M  V30 1158 H 113.337 -0.724855 0.200223 0
M  V30 1159 H 115.308 -2.52899 1.58381 0
M  V30 1160 C 114.057 -3.47604 0.0817162 0
M  V30 1161 H 113.38 -3.91058 0.831484 0
M  V30 1162 H 114.82 -4.23718 -0.154708 0
M  V30 1163 C 113.279 -3.15718 -1.17576 0
M  V30 1164 O 113.809 -3.31878 -2.26318 0
M  V30 1165 N 112.015 -2.69816 -1.07923 0
M  V30 1166 H 111.562 -2.56866 -0.194293 0
M  V30 1167 H 111.52 -2.48855 -1.92141 0
M  V30 1168 N 115.292 -0.849877 -1.32721 0
M  V30 1169 C 116.222 -0.306308 -2.31482 0
M  V30 1170 C 117.203 0.591952 -1.59468 0
M  V30 1171 O 118.388 0.513199 -1.87296 0
M  V30 1172 C 115.518 0.510204 -3.43532 0
M  V30 1173 C 114.472 -0.293209 -4.26994 0
M  V30 1174 C 113.798 0.647743 -5.30762 0
M  V30 1175 C 115.098 -1.51634 -4.99804 0
M  V30 1176 H 116.792 -1.13153 -2.77195 0
M  V30 1177 H 114.338 -0.545553 -1.33266 0
M  V30 1178 H 116.291 0.900856 -4.11658 0
M  V30 1179 H 115.015 1.36874 -2.96535 0
M  V30 1180 H 113.674 -0.665555 -3.60508 0
M  V30 1181 H 113.322 1.50299 -4.8002 0
M  V30 1182 H 113.022 0.11422 -5.87489 0
M  V30 1183 H 114.546 1.03567 -6.01753 0
M  V30 1184 H 115.96 -1.19824 -5.60638 0
M  V30 1185 H 114.357 -1.98745 -5.66234 0
M  V30 1186 H 115.427 -2.28018 -4.27943 0
M  V30 1187 N 116.77 1.45427 -0.607355 0
M  V30 1188 C 117.998 2.06614 -0.108814 0
M  V30 1189 C 118.413 1.45204 1.2067 0
M  V30 1190 O 117.77 0.566132 1.73497 0
M  V30 1191 C 117.821 3.61481 0.0375347 0
M  V30 1192 O 117.542 4.20598 -1.22593 0
M  V30 1193 C 119.043 4.39652 0.567561 0
M  V30 1194 H 116.263 0.66747 -0.0687351 0
M  V30 1195 H 118.807 1.86675 -0.835022 0
M  V30 1196 H 116.962 3.80762 0.714068 0
M  V30 1197 H 117.376 5.1377 -1.05547 0
M  V30 1198 H 118.85 5.48518 0.61905 0
M  V30 1199 H 119.327 4.09417 1.58978 0
M  V30 1200 H 119.933 4.25234 -0.0749202 0
M  V30 1201 N 118.248 0.346503 1.53744 0
M  V30 1202 C 119.473 -0.253074 2.0585 0
M  V30 1203 C 119.898 -1.43202 1.21962 0
M  V30 1204 O 119.256 -1.79783 0.234073 0
M  V30 1205 C 119.304 -0.643193 3.54817 0
M  V30 1206 O 118.408 -1.74286 3.73762 0
M  V30 1207 H 117.749 -0.0413583 0.662711 0
M  V30 1208 H 120.279 0.501574 1.98357 0
M  V30 1209 H 120.289 -0.919526 3.97503 0
M  V30 1210 H 118.964 0.218966 4.15323 0
M  V30 1211 H 117.541 -1.46356 3.42979 0
M  V30 1212 N 119.726 -1.57421 0.075193 0
M  V30 1213 C 120.954 -1.97946 -0.602076 0
M  V30 1214 C 121.369 -0.953674 -1.62943 0
M  V30 1215 O 120.726 0.0592551 -1.82404 0
M  V30 1216 C 120.777 -3.38546 -1.26762 0
M  V30 1217 O 120.498 -4.37195 -0.281376 0
M  V30 1218 C 121.999 -3.93966 -2.03239 0
M  V30 1219 H 119.219 -0.650918 -0.162931 0
M  V30 1220 H 121.763 -2.03959 0.148601 0
M  V30 1221 H 119.918 -3.33609 -1.96936 0
M  V30 1222 H 120.332 -5.18975 -0.759267 0
M  V30 1223 H 121.806 -4.94555 -2.45193 0
M  V30 1224 H 122.283 -3.30693 -2.8903 0
M  V30 1225 H 122.889 -4.02315 -1.37924 0
M  V30 1226 N 121.204 0.198386 -1.56346 0
M  V30 1227 C 122.451 0.919286 -1.80431 0
M  V30 1228 C 122.779 1.83393 -0.647866 0
M  V30 1229 O 122.034 1.92236 0.366556 0
M  V30 1230 C 122.333 1.77031 -3.10475 0
M  V30 1231 C 121.999 1.00693 -4.39513 0
M  V30 1232 C 120.661 0.796145 -4.74568 0
M  V30 1233 C 123.013 0.469559 -5.19081 0
M  V30 1234 C 120.341 0.0364588 -5.86689 0
M  V30 1235 C 122.693 -0.2769 -6.31994 0
M  V30 1236 C 121.357 -0.49873 -6.65634 0
M  V30 1237 H 120.627 0.336391 -0.660244 0
M  V30 1238 H 123.274 0.185872 -1.90596 0
M  V30 1239 H 121.579 2.5723 -2.95533 0
M  V30 1240 H 123.276 2.33065 -3.26315 0
M  V30 1241 H 119.866 1.18122 -4.12001 0
M  V30 1242 H 124.05 0.619816 -4.92414 0
M  V30 1243 H 119.306 -0.145412 -6.11227 0
M  V30 1244 H 123.48 -0.700684 -6.92866 0
M  V30 1245 H 121.107 -1.0893 -7.52355 0
M  V30 1246 N 122.682 1.50554 0.465978 0
M  V30 1247 C 123.612 1.72722 1.57128 0
M  V30 1248 C 124.593 0.576294 1.6004 0
M  V30 1249 O 125.778 0.81598 1.76225 0
M  V30 1250 C 122.908 1.82605 2.95419 0
M  V30 1251 C 121.862 2.97835 3.07373 0
M  V30 1252 C 121.188 2.92867 4.47363 0
M  V30 1253 C 122.488 4.38265 2.84114 0
M  V30 1254 H 124.182 2.65267 1.38829 0
M  V30 1255 H 121.728 1.2765 0.666441 0
M  V30 1256 H 123.681 1.96698 3.72677 0
M  V30 1257 H 122.405 0.866858 3.14886 0
M  V30 1258 H 121.064 2.83401 2.3255 0
M  V30 1259 H 120.712 1.94783 4.63755 0
M  V30 1260 H 120.412 3.70227 4.56296 0
M  V30 1261 H 121.936 3.09015 5.26633 0
M  V30 1262 H 123.35 4.53198 3.51118 0
M  V30 1263 H 121.747 5.17115 3.04487 0
M  V30 1264 H 122.817 4.50281 1.7993 0
M  V30 1265 N 124.16 -0.719506 1.40217 0
M  V30 1266 C 125.576 -1.02707 1.22161 0
M  V30 1267 C 125.776 -2.0128 0.0940557 0
M  V30 1268 O 124.832 -2.46452 -0.549318 0
M  V30 1269 C 126.145 -1.57454 2.56181 0
M  V30 1270 C 127.693 -1.69458 2.63159 0
M  V30 1271 C 128.168 -2.27611 3.97438 0
M  V30 1272 N 129.659 -2.35002 3.99159 0
M  V30 1273 C 130.394 -2.80972 4.99842 0
M  V30 1274 N 129.89 -3.26723 6.10921 0
M  V30 1275 N 131.683 -2.80321 4.87213 0
M  V30 1276 H 123.834 -0.0660492 2.12297 0
M  V30 1277 H 126.097 -0.0919077 0.943534 0
M  V30 1278 H 125.803 -0.924873 3.39321 0
M  V30 1279 H 125.677 -2.56036 2.76993 0
M  V30 1280 H 128.064 -2.33543 1.80393 0
M  V30 1281 H 128.145 -0.694867 2.46181 0
M  V30 1282 H 127.789 -1.6415 4.80643 0
M  V30 1283 H 127.719 -3.2829 4.11744 0
M  V30 1284 H 130.21 -2.02685 3.18947 0
M  V30 1285 H 130.523 -3.60355 6.8364 0
M  V30 1286 H 128.868 -3.24692 6.14492 0
M  V30 1287 H 132.059 -2.43912 3.9953 0
M  V30 1288 H 132.232 -3.15831 5.65822 0
M  V30 1289 N 125.638 -1.25649 -0.95132 0
M  V30 1290 C 126.585 -1.06323 -2.04851 0
M  V30 1291 C 127.555 0.0286491 -1.66075 0
M  V30 1292 O 128.74 -0.12917 -1.90362 0
M  V30 1293 C 125.88 -0.691529 -3.381 0
M  V30 1294 C 124.993 -1.85861 -3.89974 0
M  V30 1295 C 124.128 -1.43096 -5.11563 0
M  V30 1296 C 123.167 -2.56696 -5.55674 0
M  V30 1297 N 122.304 -2.14684 -6.68472 0
M  V30 1298 H 127.144 -2.00222 -2.20715 0
M  V30 1299 H 124.681 -0.997027 -1.08156 0
M  V30 1300 H 126.639 -0.456963 -4.1469 0
M  V30 1301 H 125.269 0.210474 -3.22113 0
M  V30 1302 H 124.321 -2.20639 -3.09875 0
M  V30 1303 H 125.633 -2.71161 -4.18657 0
M  V30 1304 H 124.787 -1.15624 -5.9558 0
M  V30 1305 H 123.526 -0.548722 -4.84603 0
M  V30 1306 H 122.531 -2.84909 -4.7022 0
M  V30 1307 H 123.756 -3.45503 -5.8464 0
M  V30 1308 H 121.702 -1.28881 -6.43215 0
M  V30 1309 H 121.619 -2.9353 -6.96689 0
M  V30 1310 H 122.887 -1.90397 -7.5589 0
M  V30 1311 N 127.117 1.15442 -1.07289 0
M  V30 1312 C 128.065 2.22225 -0.686952 0
M  V30 1313 C 129.059 1.66688 0.30193 0
M  V30 1314 O 130.265 1.79236 0.165712 0
M  V30 1315 H 126.64 0.723783 -0.204064 0
M  V30 1316 H 128.611 2.52056 -1.5972 0
M  V30 1317 C 127.36 3.47556 -0.100149 0
M  V30 1318 H 126.683 3.90612 -0.852211 0
M  V30 1319 H 128.123 4.23794 0.132235 0
M  V30 1320 C 126.582 3.16337 1.159 0
M  V30 1321 O 127.112 3.33074 2.24555 0
M  V30 1322 N 125.318 2.70385 1.06491 0
M  V30 1323 H 124.865 2.56966 0.180668 0
M  V30 1324 H 124.823 2.49871 1.90819 0
M  V30 1325 N 128.595 0.856903 1.32268 0
M  V30 1326 C 129.527 0.260412 2.27716 0
M  V30 1327 C 130.54 -0.569137 1.52528 0
M  V30 1328 O 131.729 -0.39326 1.74114 0
M  V30 1329 C 128.829 -0.650477 3.32599 0
M  V30 1330 C 128.002 0.14372 4.37164 0
M  V30 1331 C 127.061 -0.69328 5.21613 0
M  V30 1332 O 126.087 -0.12599 5.69061 0
M  V30 1333 N 127.289 -2.00761 5.44679 0
M  V30 1334 H 130.054 1.08059 2.79541 0
M  V30 1335 H 127.615 0.717103 1.45152 0
M  V30 1336 H 129.607 -1.21581 3.86005 0
M  V30 1337 H 128.177 -1.37133 2.80915 0
M  V30 1338 H 127.397 0.890486 3.8401 0
M  V30 1339 H 128.685 0.68915 5.04111 0
M  V30 1340 H 128.083 -2.49181 5.07863 0
M  V30 1341 H 126.64 -2.52103 6.01072 0
M  V30 1342 N 130.073 -1.45103 0.615059 0
M  V30 1343 C 131.313 -2.04069 0.116282 0
M  V30 1344 C 131.677 -1.4721 -1.2326 0
M  V30 1345 O 132.878 -1.97577 -1.82255 0
M  V30 1346 C 131.149 -3.57298 0.085482 0
M  V30 1347 S 132.708 -4.37394 -0.351015 0
M  V30 1348 H 129.526 -0.709006 0.0532183 0
M  V30 1349 H 132.128 -1.77709 0.81484 0
M  V30 1350 H 130.832 -3.9619 1.0706 0
M  V30 1351 H 130.363 -3.88244 -0.634835 0
M  V30 1352 H 132.378 -4.69734 -1.59889 0
M  V30 1353 N 131.551 -0.354651 -1.53558 0
M  V30 1354 C 132.461 0.50515 -2.29097 0
M  V30 1355 C 133.477 1.10223 -1.34636 0
M  V30 1356 O 134.653 1.11553 -1.67684 0
M  V30 1357 C 131.718 1.63479 -3.05738 0
M  V30 1358 C 130.779 1.06636 -4.15845 0
M  V30 1359 C 130.012 2.14217 -4.88822 0
M  V30 1360 O 130.235 3.35137 -4.61562 0
M  V30 1361 O 129.169 1.77887 -5.75013 0
M  V30 1362 H 132.995 -0.109237 -3.03503 0
M  V30 1363 H 130.58 -0.119357 -1.48922 0
M  V30 1364 H 132.462 2.2918 -3.5363 0
M  V30 1365 H 131.137 2.23478 -2.34178 0
M  V30 1366 H 130.044 0.373565 -3.7223 0
M  V30 1367 H 131.377 0.511081 -4.89539 0
M  V30 1368 N 133.029 1.57378 -0.0835403 0
M  V30 1369 C 134.257 1.98263 0.59157 0
M  V30 1370 C 134.672 0.962302 1.62435 0
M  V30 1371 O 134.029 -0.049581 1.82433 0
M  V30 1372 C 134.08 3.39214 1.24965 0
M  V30 1373 O 133.801 4.37339 0.258186 0
M  V30 1374 C 135.302 3.95038 2.01147 0
M  V30 1375 H 132.522 0.651773 0.159477 0
M  V30 1376 H 135.066 2.03878 -0.159415 0
M  V30 1377 H 133.221 3.34649 1.95164 0
M  V30 1378 H 133.635 5.19371 0.731734 0
M  V30 1379 H 135.109 4.95848 2.42567 0
M  V30 1380 H 135.586 3.32222 2.87272 0
M  V30 1381 H 136.192 4.0304 1.35789 0
M  V30 1382 N 134.507 -0.190092 1.56449 0
M  V30 1383 C 135.923 -0.54113 1.50146 0
M  V30 1384 C 136.123 -1.85603 0.784465 0
M  V30 1385 O 135.179 -2.5024 0.337051 0
M  V30 1386 C 136.492 -0.591241 2.9483 0
M  V30 1387 C 138.04 -0.679732 3.0553 0
M  V30 1388 C 138.515 -0.760908 4.51635 0
M  V30 1389 N 140.006 -0.824302 4.55806 0
M  V30 1390 C 140.741 -0.907365 5.66175 0
M  V30 1391 N 140.237 -0.952422 6.86222 0
M  V30 1392 N 142.03 -0.94494 5.541 0
M  V30 1393 H 134.181 0.67235 2.01478 0
M  V30 1394 H 136.444 0.240127 0.917084 0
M  V30 1395 H 136.15 0.305905 3.50367 0
M  V30 1396 H 136.024 -1.44422 3.48457 0
M  V30 1397 H 138.411 -1.56731 2.50039 0
M  V30 1398 H 138.492 0.199549 2.5502 0
M  V30 1399 H 138.136 0.122336 5.07753 0
M  V30 1400 H 138.066 -1.65606 4.99882 0
M  V30 1401 H 140.557 -0.798526 3.69367 0
M  V30 1402 H 140.87 -1.01645 7.66086 0
M  V30 1403 H 139.215 -0.921014 6.8887 0
M  V30 1404 H 142.406 -0.906612 4.59236 0
M  V30 1405 H 142.579 -1.00622 6.4014 0
M  V30 1406 N 135.985 -1.50799 -0.457987 0
M  V30 1407 C 137.213 -1.66218 -1.23203 0
M  V30 1408 C 137.628 -0.350894 -1.85511 0
M  V30 1409 O 136.985 0.668546 -1.69814 0
M  V30 1410 C 137.036 -2.76291 -2.33121 0
M  V30 1411 O 136.757 -4.02338 -1.73366 0
M  V30 1412 C 138.258 -3.028 -3.2377 0
M  V30 1413 H 135.478 -0.558361 -0.372121 0
M  V30 1414 H 138.022 -1.97099 -0.545179 0
M  V30 1415 H 136.177 -2.48068 -2.97558 0
M  V30 1416 H 136.591 -4.63312 -2.4585 0
M  V30 1417 H 138.065 -3.8345 -3.97077 0
M  V30 1418 H 138.542 -2.14385 -3.83322 0
M  V30 1419 H 139.148 -3.32604 -2.65056 0
M  V30 1420 N 137.463 0.71206 -1.40597 0
M  V30 1421 C 138.396 1.83582 -1.35546 0
M  V30 1422 C 139.374 1.61032 -0.225284 0
M  V30 1423 O 140.558 1.83998 -0.409519 0
M  V30 1424 C 137.685 3.19983 -1.11034 0
M  V30 1425 C 136.731 3.61355 -2.2655 0
M  V30 1426 S 137.564 3.68062 -3.88961 0
M  V30 1427 C 138.72 5.07216 -3.66719 0
M  V30 1428 H 138.953 1.87586 -2.30648 0
M  V30 1429 H 136.486 0.879182 -1.26924 0
M  V30 1430 H 138.444 3.98734 -0.975761 0
M  V30 1431 H 137.105 3.13608 -0.175798 0
M  V30 1432 H 136.298 4.60403 -2.0505 0
M  V30 1433 H 135.9 2.8987 -2.36329 0
M  V30 1434 H 138.192 5.94238 -3.25404 0
M  V30 1435 H 139.135 5.33753 -4.6531 0
M  V30 1436 H 139.543 4.77976 -3.00332 0
M  V30 1437 N 138.941 1.26152 0.944643 0
M  V30 1438 C 139.871 1.09902 2.06019 0
M  V30 1439 C 140.852 0.00519538 1.70099 0
M  V30 1440 O 142.037 0.176583 1.93396 0
M  V30 1441 C 139.167 0.727562 3.39594 0
M  V30 1442 C 138.121 1.77274 3.89561 0
M  V30 1443 C 137.447 1.25569 5.19747 0
M  V30 1444 C 138.747 3.17357 4.14827 0
M  V30 1445 H 140.441 2.03217 2.19871 0
M  V30 1446 H 137.987 0.978452 1.05652 0
M  V30 1447 H 139.94 0.600777 4.17095 0
M  V30 1448 H 138.664 -0.241287 3.25707 0
M  V30 1449 H 137.323 1.88814 3.14237 0
M  V30 1450 H 136.971 0.276783 5.02238 0
M  V30 1451 H 136.671 1.95433 5.54148 0
M  V30 1452 H 138.195 1.1415 5.99835 0
M  V30 1453 H 139.609 3.08914 4.82954 0
M  V30 1454 H 138.006 3.84781 4.60504 0
M  V30 1455 H 139.076 3.63673 3.20734 0
M  V30 1456 N 140.419 -1.14872 1.07899 0
M  V30 1457 C 141.349 -2.2193 0.725887 0
M  V30 1458 C 142.33 -1.67622 -0.28927 0
M  V30 1459 O 143.515 -1.93533 -0.160787 0
M  V30 1460 C 140.645 -3.47061 0.128856 0
M  V30 1461 C 139.599 -4.14363 1.07178 0
M  V30 1462 C 138.925 -5.33636 0.337229 0
M  V30 1463 C 140.225 -4.63492 2.40775 0
M  V30 1464 H 141.919 -2.51724 1.62097 0
M  V30 1465 H 139.465 -1.20991 0.780838 0
M  V30 1466 H 141.418 -4.21199 -0.130147 0
M  V30 1467 H 140.142 -3.16617 -0.80134 0
M  V30 1468 H 138.801 -3.42173 1.3158 0
M  V30 1469 H 138.449 -4.99449 -0.596606 0
M  V30 1470 H 138.149 -5.79609 0.965788 0
M  V30 1471 H 139.673 -6.10539 0.0861567 0
M  V30 1472 H 141.087 -5.2913 2.20669 0
M  V30 1473 H 139.484 -5.20148 2.99276 0
M  V30 1474 H 140.554 -3.78834 3.02676 0
M  V30 1475 N 141.898 -0.863906 -1.31812 0
M  V30 1476 C 142.83 -0.272485 -2.27575 0
M  V30 1477 C 143.843 0.56104 -1.52827 0
M  V30 1478 O 145.032 0.384021 -1.7432 0
M  V30 1479 C 142.132 0.63283 -3.32939 0
M  V30 1480 C 141.305 -0.166902 -4.37081 0
M  V30 1481 C 140.364 0.665608 -5.21973 0
M  V30 1482 O 139.39 0.0958091 -5.69119 0
M  V30 1483 N 140.592 1.9787 -5.45736 0
M  V30 1484 H 143.357 -1.0954 -2.78964 0
M  V30 1485 H 140.918 -0.724791 -1.4477 0
M  V30 1486 H 142.91 1.19532 -3.86645 0
M  V30 1487 H 141.48 1.35642 -2.81638 0
M  V30 1488 H 140.7 -0.910838 -3.83533 0
M  V30 1489 H 141.988 -0.715874 -5.03739 0
M  V30 1490 H 141.386 2.46484 -5.09178 0
M  V30 1491 H 139.943 2.48911 -6.024 0
M  V30 1492 N 143.376 1.44774 -0.622745 0
M  V30 1493 C 144.787 1.85546 -0.207226 0
M  V30 1494 C 145.138 1.52093 1.23944 0
M  V30 1495 O 144.263 0.95492 1.94191 0
M  V30 1496 C 144.858 3.36781 -0.369313 0
M  V30 1497 C 143.417 3.76399 -0.00836847 0
M  V30 1498 C 142.564 2.68664 -0.686651 0
M  V30 1499 H 145.515 1.3536 -0.828454 0
M  V30 1500 H 145.536 3.78453 0.394162 0
M  V30 1501 H 145.048 3.61098 -1.42231 0
M  V30 1502 H 143.149 3.57698 1.04322 0
M  V30 1503 H 143.262 4.7732 -0.412584 0
M  V30 1504 H 141.626 2.54404 -0.122777 0
M  V30 1505 H 142.409 2.95815 -1.74208 0
M  V30 1506 N 144.854 0.36279 1.53368 0
M  V30 1507 C 145.817 -0.472679 2.24273 0
M  V30 1508 C 146.817 -1.012 1.24961 0
M  V30 1509 O 148.007 -0.898194 1.49259 0
M  V30 1510 C 145.139 -1.66039 2.97731 0
M  V30 1511 H 146.332 0.14773 2.99536 0
M  V30 1512 H 143.885 0.114434 1.55881 0
M  V30 1513 H 144.62 -2.31896 2.26704 0
M  V30 1514 H 144.405 -1.28066 3.70596 0
M  V30 1515 H 145.895 -2.25252 3.51641 0
M  V30 1516 N 146.332 -1.57332 0.0918853 0
M  V30 1517 C 147.58 -1.93853 -0.571446 0
M  V30 1518 C 147.901 -0.974212 -1.6892 0
M  V30 1519 O 147.171 -0.0257254 -1.95883 0
M  V30 1520 H 145.751 -0.715666 -0.214082 0
M  V30 1521 H 148.413 -1.94287 0.154464 0
M  V30 1522 H 147.509 -2.96191 -0.983729 0
M  V30 1523 N 147.81 0.181792 -1.56548 0
M  V30 1524 C 149.035 0.920019 -1.85877 0
M  V30 1525 C 149.46 1.75494 -0.677021 0
M  V30 1526 O 148.818 1.77399 0.374056 0
M  V30 1527 C 148.866 1.78112 -3.13542 0
M  V30 1528 O 147.97 2.88152 -2.95029 0
M  V30 1529 H 147.311 0.258334 -0.611686 0
M  V30 1530 H 149.841 0.183092 -2.03779 0
M  V30 1531 H 149.851 2.18314 -3.44678 0
M  V30 1532 H 148.526 1.16777 -3.99169 0
M  V30 1533 H 147.103 2.51609 -2.75222 0
M  V30 1534 N 149.288 1.51039 0.449983 0
M  V30 1535 C 150.218 1.74379 1.55288 0
M  V30 1536 C 151.199 0.593236 1.5942 0
M  V30 1537 O 152.384 0.834625 1.7535 0
M  V30 1538 C 149.514 1.85728 2.93466 0
M  V30 1539 C 148.468 3.01078 3.04197 0
M  V30 1540 C 147.794 2.97595 4.44231 0
M  V30 1541 C 149.094 4.41254 2.7945 0
M  V30 1542 H 150.788 2.66725 1.36008 0
M  V30 1543 H 148.334 1.2835 0.652864 0
M  V30 1544 H 150.287 2.0064 3.70569 0
M  V30 1545 H 149.011 0.900207 3.13949 0
M  V30 1546 H 147.67 2.85851 2.29531 0
M  V30 1547 H 147.318 1.99691 4.61663 0
M  V30 1548 H 147.018 3.75046 4.52343 0
M  V30 1549 H 148.542 3.14583 5.23326 0
M  V30 1550 H 149.956 4.56897 3.46292 0
M  V30 1551 H 148.353 5.20315 2.98985 0
M  V30 1552 H 149.423 4.52164 1.75144 0
M  V30 1553 N 150.766 -0.704594 1.40972 0
M  V30 1554 C 152.014 -1.46169 1.39568 0
M  V30 1555 C 152.335 -1.95 0.00253745 0
M  V30 1556 O 151.605 -1.71095 -0.954114 0
M  V30 1557 H 150.185 -0.542326 0.513704 0
M  V30 1558 H 152.847 -0.834553 1.76128 0
M  V30 1559 H 151.943 -2.32922 2.07735 0
M  V30 1560 N 152.244 -1.26651 -0.937939 0
M  V30 1561 C 153.469 -1.15279 -1.72411 0
M  V30 1562 C 153.894 0.287866 -1.85884 0
M  V30 1563 O 153.252 1.20855 -1.35143 0
M  V30 1564 C 153.3 -1.83028 -3.10698 0
M  V30 1565 O 152.404 -1.12128 -3.96864 0
M  V30 1566 H 151.745 -0.401504 -0.528858 0
M  V30 1567 H 154.275 -1.67531 -1.1745 0
M  V30 1568 H 154.285 -1.89981 -3.6107 0
M  V30 1569 H 152.96 -2.87833 -3.00208 0
M  V30 1570 H 151.537 -1.13173 -3.55312 0
M  V30 1571 N 153.722 1.14298 -1.08507 0
M  V30 1572 C 154.952 1.88945 -0.835663 0
M  V30 1573 C 155.36 1.78894 0.615928 0
M  V30 1574 O 154.703 1.1468 1.43506 0
M  V30 1575 C 154.765 3.39585 -1.17994 0
M  V30 1576 C 154.429 3.7342 -2.63451 0
M  V30 1577 C 155.426 3.73454 -3.61702 0
M  V30 1578 C 153.111 4.03368 -2.99332 0
M  V30 1579 C 155.105 4.02961 -4.93864 0
M  V30 1580 C 152.792 4.32538 -4.31687 0
M  V30 1581 C 153.79 4.32318 -5.28763 0
M  V30 1582 O 153.478 4.6078 -6.58739 0
M  V30 1583 H 153.21 0.605307 -0.300965 0
M  V30 1584 H 155.764 1.45673 -1.44806 0
M  V30 1585 H 153.994 3.83315 -0.51055 0
M  V30 1586 H 155.683 3.9554 -0.911182 0
M  V30 1587 H 156.449 3.50403 -3.35325 0
M  V30 1588 H 152.328 4.02692 -2.24411 0
M  V30 1589 H 155.872 4.02704 -5.69627 0
M  V30 1590 H 151.769 4.55059 -4.57812 0
M  V30 1591 H 152.537 4.78492 -6.64069 0
M  V30 1592 N 155.201 0.870884 1.31352 0
M  V30 1593 C 156.426 0.495957 2.01383 0
M  V30 1594 C 156.851 -0.904324 1.64935 0
M  V30 1595 O 156.209 -1.59687 0.858466 0
M  V30 1596 C 156.257 0.661433 3.54482 0
M  V30 1597 O 155.361 -0.298851 4.11316 0
M  V30 1598 H 154.702 0.197158 0.634054 0
M  V30 1599 H 157.232 1.17455 1.67527 0
M  V30 1600 H 157.242 0.555072 4.04207 0
M  V30 1601 H 155.917 1.68246 3.8035 0
M  V30 1602 H 154.494 -0.147368 3.72609 0
M  V30 1603 N 156.679 -1.44442 0.630414 0
M  V30 1604 C 157.909 -2.06115 0.141465 0
M  V30 1605 C 158.317 -1.47179 -1.1889 0
M  V30 1606 O 157.66 -0.588873 -1.74006 0
M  V30 1607 C 157.722 -3.59467 -0.0484355 0
M  V30 1608 C 157.386 -4.40864 1.20366 0
M  V30 1609 C 158.383 -4.74391 2.12719 0
M  V30 1610 C 156.068 -4.8125 1.43887 0
M  V30 1611 C 158.062 -5.47186 3.26904 0
M  V30 1612 C 155.749 -5.53795 2.5837 0
M  V30 1613 C 156.747 -5.86682 3.49705 0
M  V30 1614 O 156.435 -6.57749 4.62191 0
M  V30 1615 H 156.167 -0.671648 0.0765792 0
M  V30 1616 H 158.721 -1.86312 0.864695 0
M  V30 1617 H 156.951 -3.77758 -0.826803 0
M  V30 1618 H 158.64 -4.02909 -0.491849 0
M  V30 1619 H 159.406 -4.43728 1.95781 0
M  V30 1620 H 155.285 -4.55073 0.736853 0
M  V30 1621 H 158.829 -5.72773 3.98217 0
M  V30 1622 H 154.726 -5.83872 2.75251 0
M  V30 1623 H 155.494 -6.76217 4.61164 0
M  V30 1624 N 158.157 -0.370918 -1.53173 0
M  V30 1625 C 159.573 -0.0200818 -1.59587 0
M  V30 1626 C 159.773 1.46279 -1.38581 0
M  V30 1627 O 158.829 2.22506 -1.19363 0
M  V30 1628 C 160.142 -0.4808 -2.96831 0
M  V30 1629 C 161.69 -0.435477 -3.09956 0
M  V30 1630 C 162.165 -0.872092 -4.4962 0
M  V30 1631 N 163.656 -0.827364 -4.55751 0
M  V30 1632 C 164.391 -1.13683 -5.62018 0
M  V30 1633 N 163.887 -1.51584 -6.76014 0
M  V30 1634 N 165.68 -1.05927 -5.52029 0
M  V30 1635 H 157.831 -1.33652 -1.65079 0
M  V30 1636 H 160.094 -0.546634 -0.774529 0
M  V30 1637 H 159.8 -1.51577 -3.1736 0
M  V30 1638 H 159.674 0.129796 -3.76977 0
M  V30 1639 H 162.061 0.590371 -2.89134 0
M  V30 1640 H 162.142 -1.08164 -2.31806 0
M  V30 1641 H 161.786 -1.89608 -4.71181 0
M  V30 1642 H 161.716 -0.203127 -5.26208 0
M  V30 1643 H 164.207 -0.548216 -3.73902 0
M  V30 1644 H 164.52 -1.73609 -7.53047 0
M  V30 1645 H 162.865 -1.55454 -6.77391 0
M  V30 1646 H 166.056 -0.762321 -4.61851 0
M  V30 1647 H 166.229 -1.30378 -6.34749 0
M  V30 1648 N 159.635 1.57281 -0.100228 0
M  V30 1649 C 160.86 1.99302 0.573881 0
M  V30 1650 C 161.285 0.979059 1.60611 0
M  V30 1651 O 160.643 -0.0517803 1.81226 0
M  V30 1652 C 160.691 3.40274 1.19358 0
M  V30 1653 O 159.795 3.41676 2.30935 0
M  V30 1654 H 159.136 0.647944 0.145138 0
M  V30 1655 H 161.666 2.03779 -0.183156 0
M  V30 1656 H 161.676 3.78078 1.53365 0
M  V30 1657 H 160.351 4.13594 0.437385 0
M  V30 1658 H 158.928 3.15672 1.98509 0
M  V30 1659 N 161.113 -0.173488 1.56642 0
M  V30 1660 C 162.524 -0.736155 1.71574 0
M  V30 1661 C 162.875 -1.82888 0.710389 0
M  V30 1662 O 162 -2.16017 -0.1287 0
M  V30 1663 C 162.595 -1.34211 3.11083 0
M  V30 1664 C 161.154 -1.85162 3.27707 0
M  V30 1665 C 160.301 -0.729765 2.67525 0
M  V30 1666 H 163.252 0.0518786 1.58615 0
M  V30 1667 H 163.273 -2.21178 3.09613 0
M  V30 1668 H 162.785 -0.546579 3.84232 0
M  V30 1669 H 160.886 -2.67366 2.59512 0
M  V30 1670 H 160.999 -1.99855 4.35425 0
M  V30 1671 H 159.363 -1.14965 2.27278 0
M  V30 1672 H 160.146 0.0538806 3.43258 0
M  V30 1673 N 162.591 -1.51276 -0.441967 0
M  V30 1674 C 163.541 -1.6864 -1.53442 0
M  V30 1675 C 164.525 -0.540444 -1.51552 0
M  V30 1676 O 165.717 -0.796157 -1.58083 0
M  V30 1677 C 162.846 -1.8106 -2.91672 0
M  V30 1678 C 161.932 -3.01424 -2.98336 0
M  V30 1679 N 162.323 -4.2467 -2.74752 0
M  V30 1680 C 160.621 -3.00584 -3.29493 0
M  V30 1681 C 161.322 -5.05891 -2.87139 0
M  V30 1682 N 160.298 -4.40442 -3.18609 0
M  V30 1683 H 164.1 -2.61598 -1.33954 0
M  V30 1684 H 161.614 -1.4886 -0.6492 0
M  V30 1685 H 163.611 -1.91609 -3.70259 0
M  V30 1686 H 162.271 -0.892795 -3.12185 0
M  V30 1687 H 163.282 -4.53691 -2.49769 0
M  V30 1688 H 159.959 -2.18417 -3.55809 0
M  V30 1689 H 161.349 -6.13983 -2.72899 0
M  V30 1690 N 164.069 0.697108 -1.41344 0
M  V30 1691 C 165.315 1.45796 -1.41828 0
M  V30 1692 C 165.67 1.92382 -0.0261743 0
M  V30 1693 O 164.963 1.66522 0.947688 0
M  V30 1694 C 165.157 2.68553 -2.35826 0
M  V30 1695 C 164.986 2.33975 -3.84039 0
M  V30 1696 C 163.756 2.24414 -4.52732 0
M  V30 1697 C 165.954 1.97048 -4.75054 0
M  V30 1698 N 163.936 1.82705 -5.86082 0
M  V30 1699 C 165.307 1.66086 -5.9734 0
M  V30 1700 C 167.362 1.83845 -4.62715 0
M  V30 1701 C 166.065 1.23246 -7.08663 0
M  V30 1702 C 168.091 1.4241 -5.73998 0
M  V30 1703 C 167.453 1.12357 -6.95381 0
M  V30 1704 H 163.552 0.530859 -0.574206 0
M  V30 1705 H 166.136 0.806674 -1.77203 0
M  V30 1706 H 164.307 3.31404 -2.02549 0
M  V30 1707 H 166.039 3.35015 -2.2704 0
M  V30 1708 H 162.794 2.4276 -4.0665 0
M  V30 1709 H 163.218 1.64337 -6.56751 0
M  V30 1710 H 167.86 2.05734 -3.69369 0
M  V30 1711 H 165.578 1.00102 -8.01876 0
M  V30 1712 H 169.164 1.32746 -5.66454 0
M  V30 1713 H 168.044 0.807795 -7.80028 0
M  V30 1714 N 165.547 1.27147 0.931209 0
M  V30 1715 C 166.795 1.13055 1.6752 0
M  V30 1716 C 167.116 -0.324791 1.92276 0
M  V30 1717 O 166.386 -1.22775 1.52654 0
M  V30 1718 H 164.966 0.415391 0.620854 0
M  V30 1719 H 167.628 1.59623 1.11833 0
M  V30 1720 H 166.724 1.65694 2.64485 0
M  V30 1721 N 167.025 -1.13721 1.09112 0
M  V30 1722 C 168.25 -1.89314 0.847053 0
M  V30 1723 C 168.675 -1.78416 -0.595774 0
M  V30 1724 O 168.033 -1.12942 -1.41823 0
M  V30 1725 C 168.081 -3.3701 1.28284 0
M  V30 1726 O 167.185 -4.10054 0.439267 0
M  V30 1727 H 166.526 -0.588745 0.307044 0
M  V30 1728 H 169.056 -1.43902 1.45442 0
M  V30 1729 H 169.066 -3.87834 1.26683 0
M  V30 1730 H 167.741 -3.4426 2.33363 0
M  V30 1731 H 166.318 -3.69266 0.519312 0
M  V30 1732 N 168.503 -0.877838 -1.30888 0
M  V30 1733 C 169.731 -0.507414 -2.00581 0
M  V30 1734 C 170.146 0.902216 -1.65848 0
M  V30 1735 O 169.503 1.59225 -0.891831 0
M  V30 1736 C 169.554 -0.664162 -3.55347 0
M  V30 1737 O 169.275 -2.01829 -3.8884 0
M  V30 1738 C 170.776 -0.295787 -4.42312 0
M  V30 1739 H 167.996 -0.196866 -0.641471 0
M  V30 1740 H 170.54 -1.18117 -1.66939 0
M  V30 1741 H 168.695 -0.0378619 -3.87381 0
M  V30 1742 H 169.109 -2.03174 -4.8355 0
M  V30 1743 H 170.583 -0.456388 -5.5011 0
M  V30 1744 H 171.06 0.765663 -4.32475 0
M  V30 1745 H 171.666 -0.898113 -4.15709 0
M  V30 1746 N 169.982 1.44106 -0.638065 0
M  V30 1747 C 171.212 2.06037 -0.152394 0
M  V30 1748 C 171.62 1.47808 1.18108 0
M  V30 1749 O 170.963 0.598092 1.73691 0
M  V30 1750 C 171.025 3.59488 0.0293714 0
M  V30 1751 C 170.689 4.4022 -1.22702 0
M  V30 1752 C 171.686 4.73256 -2.15232 0
M  V30 1753 C 169.371 4.8048 -1.46437 0
M  V30 1754 C 171.365 5.45444 -3.29802 0
M  V30 1755 C 169.052 5.52417 -2.61303 0
M  V30 1756 C 170.05 5.84819 -3.52811 0
M  V30 1757 O 169.738 6.55289 -4.65673 0
M  V30 1758 H 169.47 0.671233 -0.0801401 0
M  V30 1759 H 172.024 1.85851 -0.874563 0
M  V30 1760 H 170.254 3.78191 0.806758 0
M  V30 1761 H 171.943 4.03164 0.470475 0
M  V30 1762 H 172.709 4.42684 -1.98131 0
M  V30 1763 H 168.588 4.54676 -0.760977 0
M  V30 1764 H 172.132 5.70653 -4.01249 0
M  V30 1765 H 168.029 5.82404 -2.78344 0
M  V30 1766 H 168.797 6.73762 -4.64744 0
M  V30 1767 N 171.46 0.379036 1.52974 0
M  V30 1768 C 172.685 -0.209353 2.06341 0
M  V30 1769 C 173.11 -1.40583 1.24972 0
M  V30 1770 O 172.468 -1.79246 0.272155 0
M  V30 1771 C 172.516 -0.567786 3.56102 0
M  V30 1772 O 171.62 -1.66318 3.77375 0
M  V30 1773 H 170.961 -0.0272919 0.663439 0
M  V30 1774 H 173.491 0.543536 1.97248 0
M  V30 1775 H 173.501 -0.835003 3.99364 0
M  V30 1776 H 172.176 0.307013 4.14765 0
M  V30 1777 H 170.753 -1.39048 3.46006 0
M  V30 1778 N 172.938 -1.57226 0.108567 0
M  V30 1779 C 174.184 -1.95121 -0.552761 0
M  V30 1780 C 174.517 -0.991345 -1.66991 0
M  V30 1781 O 173.792 -0.0267211 -1.94482 0
M  V30 1782 C 174.075 -3.43039 -1.09528 0
M  V30 1783 C 173.928 -4.49797 0.0177332 0
M  V30 1784 C 175.247 -3.92567 -1.98945 0
M  V30 1785 H 172.366 -0.709496 -0.199461 0
M  V30 1786 H 175.008 -1.89126 0.182011 0
M  V30 1787 H 173.158 -3.48279 -1.72146 0
M  V30 1788 H 174.83 -4.56661 0.652584 0
M  V30 1789 H 173.073 -4.284 0.682309 0
M  V30 1790 H 173.744 -5.50528 -0.402919 0
M  V30 1791 H 176.22 -3.89565 -1.46214 0
M  V30 1792 H 175.096 -4.96605 -2.33827 0
M  V30 1793 H 175.357 -3.32648 -2.91201 0
M  V30 1794 N 174.416 0.165178 -1.56732 0
M  V30 1795 C 175.641 0.900253 -1.86843 0
M  V30 1796 C 176.066 1.74766 -0.695596 0
M  V30 1797 O 175.424 1.77786 0.35522 0
M  V30 1798 C 175.472 1.74777 -3.15413 0
M  V30 1799 O 174.576 2.85007 -2.98068 0
M  V30 1800 H 173.917 0.251832 -0.614391 0
M  V30 1801 H 176.447 0.161468 -2.03962 0
M  V30 1802 H 176.457 2.14646 -3.46974 0
M  V30 1803 H 175.132 1.12537 -4.00385 0
M  V30 1804 H 173.709 2.48676 -2.77875 0
M  V30 1805 N 175.894 1.51508 0.433938 0
M  V30 1806 C 177.14 1.64588 1.18484 0
M  V30 1807 C 177.473 0.362666 1.90784 0
M  V30 1808 O 176.748 -0.637892 1.83742 0
M  V30 1809 C 177.031 2.85149 2.19913 0
M  V30 1810 C 176.884 4.23456 1.51674 0
M  V30 1811 C 178.203 3.01227 3.20858 0
M  V30 1812 H 175.322 0.598994 0.429389 0
M  V30 1813 H 177.964 1.84002 0.473647 0
M  V30 1814 H 176.114 2.68729 2.80566 0
M  V30 1815 H 177.786 4.51552 0.943322 0
M  V30 1816 H 176.029 4.25998 0.819035 0
M  V30 1817 H 176.7 5.03812 2.2556 0
M  V30 1818 H 179.176 3.16382 2.70263 0
M  V30 1819 H 178.052 3.87141 3.89118 0
M  V30 1820 H 178.313 2.13447 3.8716 0
M  V30 1821 N 177.372 -0.689602 1.41712 0
M  V30 1822 C 178.618 -1.45181 1.41599 0
M  V30 1823 C 178.951 -1.94181 0.0270081 0
M  V30 1824 O 178.226 -1.6993 -0.946265 0
M  V30 1825 C 178.509 -2.65945 2.42787 0
M  V30 1826 C 178.362 -2.22672 3.90816 0
M  V30 1827 C 179.681 -3.68149 2.41151 0
M  V30 1828 H 176.8 -0.526576 0.515642 0
M  V30 1829 H 179.442 -0.784947 1.73028 0
M  V30 1830 H 177.592 -3.2284 2.16116 0
M  V30 1831 H 179.264 -1.71058 4.28412 0
M  V30 1832 H 177.507 -1.54394 4.05395 0
M  V30 1833 H 178.178 -3.0935 4.57172 0
M  V30 1834 H 180.654 -3.2094 2.64834 0
M  V30 1835 H 179.53 -4.50248 3.13955 0
M  V30 1836 H 179.791 -4.18259 1.43221 0
M  V30 1837 N 178.85 -1.27639 -0.924453 0
M  V30 1838 C 179.76 -1.12466 -2.05885 0
M  V30 1839 C 180.776 -0.053869 -1.73917 0
M  V30 1840 O 181.952 -0.261012 -1.99702 0
M  V30 1841 C 179.017 -0.776768 -3.37886 0
M  V30 1842 C 178.078 -1.92878 -3.83532 0
M  V30 1843 C 177.311 -1.59739 -5.09234 0
M  V30 1844 O 177.534 -0.506782 -5.68144 0
M  V30 1845 O 176.468 -2.43761 -5.50331 0
M  V30 1846 H 180.294 -2.07671 -2.21599 0
M  V30 1847 H 177.879 -1.06857 -1.04413 0
M  V30 1848 H 179.761 -0.596229 -4.17161 0
M  V30 1849 H 178.436 0.145732 -3.23372 0
M  V30 1850 H 177.343 -2.1644 -3.0513 0
M  V30 1851 H 178.676 -2.8316 -4.02593 0
M  V30 1852 N 180.328 1.1314 -1.09713 0
M  V30 1853 C 181.556 1.88321 -0.856898 0
M  V30 1854 C 181.971 1.79276 0.592073 0
M  V30 1855 O 181.328 1.16142 1.40774 0
M  V30 1856 C 181.379 3.37812 -1.28706 0
M  V30 1857 O 181.1 3.46627 -2.67921 0
M  V30 1858 C 182.601 4.29952 -1.07964 0
M  V30 1859 H 179.821 0.596094 -0.308079 0
M  V30 1860 H 182.365 1.43205 -1.45988 0
M  V30 1861 H 180.52 3.805 -0.727912 0
M  V30 1862 H 180.934 4.39579 -2.8613 0
M  V30 1863 H 182.408 5.33159 -1.42986 0
M  V30 1864 H 182.885 4.39196 -0.0176577 0
M  V30 1865 H 183.491 3.93036 -1.62489 0
M  V30 1866 N 181.806 0.884767 1.30421 0
M  V30 1867 C 183.083 0.423185 1.90967 0
M  V30 1868 C 183.463 -1.09605 1.80416 0
M  V30 1869 O 182.811 -1.93126 1.22125 0
M  V30 1870 C 183.021 0.921056 3.36627 0
M  V30 1871 C 184.369 0.955903 4.137 0
M  V30 1872 O 185.393 0.867706 3.4547 0
M  V30 1873 O 184.252 1.08614 5.35598 0
M  V30 1874 H 181.346 0.129369 0.816819 0
M  V30 1875 H 183.892 0.973653 1.3899 0
M  V30 1876 H 182.664 1.96489 3.3839 0
M  V30 1877 H 182.287 0.349741 3.96059 0
M  V30 1878 N 183.284 -1.43765 0.645699 0
M  V30 1879 C 184.514 -2.05953 0.163318 0
M  V30 1880 C 184.922 -1.48432 -1.17322 0
M  V30 1881 O 184.265 -0.607295 -1.73371 0
M  V30 1882 C 184.327 -3.59499 -0.0103065 0
M  V30 1883 C 183.991 -4.39563 1.25035 0
M  V30 1884 C 184.988 -4.72108 2.17739 0
M  V30 1885 C 182.673 -4.79697 1.48983 0
M  V30 1886 C 184.667 -5.43688 3.3269 0
M  V30 1887 C 182.354 -5.51023 2.64229 0
M  V30 1888 C 183.352 -5.8294 3.55908 0
M  V30 1889 O 183.04 -6.5281 4.69142 0
M  V30 1890 H 182.772 -0.670798 0.0836986 0
M  V30 1891 H 185.326 -1.85384 0.884407 0
M  V30 1892 H 183.556 -3.78613 -0.78669 0
M  V30 1893 H 185.245 -4.03408 -0.449087 0
M  V30 1894 H 186.011 -4.41627 2.00476 0
M  V30 1895 H 181.89 -4.54266 0.785078 0
M  V30 1896 H 185.434 -5.68517 4.04269 0
M  V30 1897 H 181.331 -5.8092 2.81429 0
M  V30 1898 H 182.099 -6.71288 4.6831 0
M  V30 1899 N 184.763 -0.387143 -1.52771 0
M  V30 1900 C 186.04 0.253197 -1.93954 0
M  V30 1901 C 186.42 1.64545 -1.32243 0
M  V30 1902 O 185.768 2.23191 -0.489699 0
M  V30 1903 C 185.978 0.281722 -3.47861 0
M  V30 1904 C 187.326 0.511715 -4.21505 0
M  V30 1905 O 188.35 0.362023 -3.54356 0
M  V30 1906 O 187.209 0.804847 -5.40541 0
M  V30 1907 H 184.303 0.156845 -0.811991 0
M  V30 1908 H 186.849 -0.441494 -1.63856 0
M  V30 1909 H 185.621 -0.693571 -3.85104 0
M  V30 1910 H 185.244 1.02142 -3.84256 0
M  V30 1911 N 186.241 1.57166 -0.116904 0
M  V30 1912 C 187.173 2.12271 0.864507 0
M  V30 1913 C 188.186 1.06494 1.23138 0
M  V30 1914 O 189.375 1.33873 1.18069 0
M  V30 1915 C 186.475 2.60564 2.16702 0
M  V30 1916 C 185.648 3.90416 1.97216 0
M  V30 1917 C 184.707 4.24329 3.11178 0
M  V30 1918 O 183.733 4.93182 2.84184 0
M  V30 1919 N 184.935 3.8148 4.37554 0
M  V30 1920 H 187.7 2.97102 0.393726 0
M  V30 1921 H 185.261 1.61759 0.0675805 0
M  V30 1922 H 187.253 2.80282 2.91932 0
M  V30 1923 H 185.823 1.80623 2.55135 0
M  V30 1924 H 185.043 3.79627 1.06192 0
M  V30 1925 H 186.331 4.75327 1.81499 0
M  V30 1926 H 185.729 3.25943 4.62361 0
M  V30 1927 H 184.286 4.06311 5.09661 0
M  V30 1928 N 187.719 -0.156864 1.56817 0
M  V30 1929 C 188.949 -0.885031 1.86684 0
M  V30 1930 C 189.357 -1.75696 0.701954 0
M  V30 1931 O 188.7 -1.80569 -0.337732 0
M  V30 1932 C 188.762 -1.80092 3.11138 0
M  V30 1933 C 188.426 -1.10714 4.43386 0
M  V30 1934 C 189.423 -0.465714 5.1781 0
M  V30 1935 C 187.108 -1.09959 4.90117 0
M  V30 1936 C 189.102 0.174002 6.37162 0
M  V30 1937 C 186.789 -0.456055 6.09396 0
M  V30 1938 C 187.787 0.179622 6.82764 0
M  V30 1939 O 187.475 0.812975 7.99779 0
M  V30 1940 H 187.207 -0.261813 0.623242 0
M  V30 1941 H 189.761 -0.157383 2.04796 0
M  V30 1942 H 187.991 -2.56926 2.89009 0
M  V30 1943 H 189.68 -2.40018 3.27332 0
M  V30 1944 H 190.446 -0.463427 4.82781 0
M  V30 1945 H 186.325 -1.58378 4.3294 0
M  V30 1946 H 189.869 0.670765 6.94368 0
M  V30 1947 H 185.766 -0.455975 6.43888 0
M  V30 1948 H 186.534 0.71366 8.15383 0
M  V30 1949 N 189.197 -1.51736 -0.425897 0
M  V30 1950 C 190.16 -1.73271 -1.50032 0
M  V30 1951 C 191.16 -0.602639 -1.4908 0
M  V30 1952 O 192.35 -0.87033 -1.509 0
M  V30 1953 C 189.482 -1.79969 -2.89523 0
M  V30 1954 H 190.675 -2.69172 -1.32237 0
M  V30 1955 H 188.228 -1.41899 -0.65532 0
M  V30 1956 H 188.963 -0.859241 -3.1271 0
M  V30 1957 H 188.748 -2.62109 -2.91619 0
M  V30 1958 H 190.238 -1.9843 -3.67444 0
M  V30 1959 N 190.675 0.682077 -1.42076 0
M  V30 1960 C 191.605 1.80796 -1.47767 0
M  V30 1961 C 192.586 1.6677 -0.334954 0
M  V30 1962 O 193.771 1.863 -0.548264 0
M  V30 1963 C 190.901 3.19038 -1.37229 0
M  V30 1964 C 189.855 3.47789 -2.49453 0
M  V30 1965 C 189.181 4.8553 -2.23975 0
M  V30 1966 C 190.481 3.45411 -3.91776 0
M  V30 1967 H 192.175 1.7629 -2.41997 0
M  V30 1968 H 189.721 0.846721 -1.16476 0
M  V30 1969 H 191.674 3.97528 -1.39821 0
M  V30 1970 H 190.398 3.24204 -0.394907 0
M  V30 1971 H 189.057 2.71657 -2.46166 0
M  V30 1972 H 188.705 4.87337 -1.24547 0
M  V30 1973 H 188.405 5.0573 -2.99184 0
M  V30 1974 H 189.929 5.66312 -2.28304 0
M  V30 1975 H 191.343 4.13882 -3.96705 0
M  V30 1976 H 189.74 3.77145 -4.66778 0
M  V30 1977 H 190.81 2.44122 -4.18966 0
M  V30 1978 N 192.153 1.28127 0.917671 0
M  V30 1979 C 193.083 1.14248 2.03641 0
M  V30 1980 C 194.064 0.0412748 1.7005 0
M  V30 1981 O 195.249 0.217566 1.92977 0
M  V30 1982 C 192.379 0.799431 3.37974 0
M  V30 1983 C 191.333 1.85497 3.85713 0
M  V30 1984 C 190.659 1.36565 5.16966 0
M  V30 1985 C 191.959 3.26085 4.08002 0
M  V30 1986 H 193.653 2.07835 2.15511 0
M  V30 1987 H 191.199 1.00064 1.03553 0
M  V30 1988 H 193.152 0.689114 4.15727 0
M  V30 1989 H 191.876 -0.172145 3.26146 0
M  V30 1990 H 190.535 1.95437 3.10161 0
M  V30 1991 H 190.183 0.383253 5.01538 0
M  V30 1992 H 189.883 2.07143 5.49878 0
M  V30 1993 H 191.407 1.26848 5.97279 0
M  V30 1994 H 192.821 3.19089 4.76293 0
M  V30 1995 H 191.218 3.94462 4.52238 0
M  V30 1996 H 192.288 3.70394 3.12948 0
M  V30 1997 N 193.631 -1.12557 1.10312 0
M  V30 1998 C 194.861 -1.87592 0.865617 0
M  V30 1999 C 195.269 -1.79851 -0.587389 0
M  V30 2000 O 194.612 -1.16949 -1.41664 0
M  V30 2001 C 194.674 -3.37665 1.23381 0
M  V30 2002 C 194.338 -3.69181 2.69359 0
M  V30 2003 C 195.335 -3.67652 3.67597 0
M  V30 2004 C 193.02 -3.98555 3.05711 0
M  V30 2005 C 195.014 -3.95053 5.00212 0
M  V30 2006 C 192.701 -4.25616 4.38514 0
M  V30 2007 C 193.699 -4.23851 5.35574 0
M  V30 2008 O 193.387 -4.50242 6.65986 0
M  V30 2009 H 193.119 -0.600442 0.310557 0
M  V30 2010 H 195.673 -1.4335 1.47105 0
M  V30 2011 H 193.903 -3.82454 0.571467 0
M  V30 2012 H 195.592 -3.94041 0.973994 0
M  V30 2013 H 196.358 -3.45024 3.40857 0
M  V30 2014 H 192.237 -3.99071 2.30789 0
M  V30 2015 H 195.781 -3.93591 5.75962 0
M  V30 2016 H 191.678 -4.47718 4.64994 0
M  V30 2017 H 192.446 -4.67867 6.71597 0
M  V30 2018 N 195.109 -0.891671 -1.2995 0
M  V30 2019 C 196.334 -0.527932 -2.00568 0
M  V30 2020 C 196.759 0.877969 -1.66353 0
M  V30 2021 O 196.117 1.58301 -0.883762 0
M  V30 2022 C 196.165 -0.717745 -3.53385 0
M  V30 2023 O 195.269 0.233376 -4.11739 0
M  V30 2024 H 194.61 -0.20722 -0.630837 0
M  V30 2025 H 197.14 -1.20105 -1.65638 0
M  V30 2026 H 197.15 -0.619307 -4.03272 0
M  V30 2027 H 195.825 -1.74276 -3.77625 0
M  V30 2028 H 194.402 0.0880706 -3.72796 0
M  V30 2029 N 196.587 1.43421 -0.653314 0
M  V30 2030 C 197.519 2.29071 0.0769134 0
M  V30 2031 C 198.532 1.42513 0.787017 0
M  V30 2032 O 199.721 1.66449 0.644757 0
M  V30 2033 C 196.821 3.19436 1.13199 0
M  V30 2034 C 195.994 4.34533 0.500006 0
M  V30 2035 C 195.053 5.05771 1.45198 0
M  V30 2036 O 194.079 5.61037 0.960538 0
M  V30 2037 N 195.281 5.0928 2.78594 0
M  V30 2038 H 198.046 2.92382 -0.658235 0
M  V30 2039 H 195.607 1.54112 -0.496104 0
M  V30 2040 H 197.599 3.63958 1.76964 0
M  V30 2041 H 196.169 2.57724 1.7691 0
M  V30 2042 H 195.389 3.92925 -0.316738 0
M  V30 2043 H 196.677 5.08766 0.0588345 0
M  V30 2044 H 196.075 4.65751 3.2108 0
M  V30 2045 H 194.632 5.57519 3.37662 0
M  V30 2046 N 198.065 0.39524 1.52563 0
M  V30 2047 C 199.313 -0.184678 2.01254 0
M  V30 2048 C 199.634 -1.46822 1.28329 0
M  V30 2049 O 198.904 -1.91666 0.405094 0
M  V30 2050 H 197.484 -0.0712355 0.743596 0
M  V30 2051 H 200.146 0.528293 1.87603 0
M  V30 2052 H 199.242 -0.390681 3.09645 0
M  V30 2053 N 199.544 -1.57102 0.125237 0
M  V30 2054 C 200.769 -2.0019 -0.542101 0
M  V30 2055 C 201.194 -1.00449 -1.59034 0
M  V30 2056 O 200.552 0.0229423 -1.81285 0
M  V30 2057 C 200.6 -3.42129 -1.13929 0
M  V30 2058 O 199.704 -3.45307 -2.2547 0
M  V30 2059 H 199.045 -0.650171 -0.134812 0
M  V30 2060 H 201.575 -2.03461 0.215553 0
M  V30 2061 H 201.585 -3.80471 -1.4733 0
M  V30 2062 H 200.26 -4.14237 -0.371531 0
M  V30 2063 H 198.837 -3.1879 -1.93462 0
M  V30 2064 N 201.022 0.148545 -1.56898 0
M  V30 2065 C 201.969 1.18345 -1.98149 0
M  V30 2066 C 202.939 1.42772 -0.848848 0
M  V30 2067 O 204.124 1.55132 -1.11079 0
M  V30 2068 C 201.264 2.51231 -2.36594 0
M  V30 2069 C 200.377 2.33991 -3.63142 0
M  V30 2070 C 199.512 3.59902 -3.90697 0
M  V30 2071 C 198.551 3.37692 -5.1052 0
M  V30 2072 N 197.688 4.5573 -5.34092 0
M  V30 2073 H 202.528 0.82467 -2.86362 0
M  V30 2074 H 200.065 0.395756 -1.41676 0
M  V30 2075 H 202.023 3.28713 -2.56912 0
M  V30 2076 H 200.653 2.85059 -1.51463 0
M  V30 2077 H 199.705 1.47572 -3.50609 0
M  V30 2078 H 201.017 2.13539 -4.5078 0
M  V30 2079 H 200.171 4.45813 -4.11505 0
M  V30 2080 H 198.91 3.83357 -3.01477 0
M  V30 2081 H 197.915 2.5017 -4.89587 0
M  V30 2082 H 199.14 3.15637 -6.0129 0
M  V30 2083 H 197.086 4.79361 -4.47827 0
M  V30 2084 H 197.003 4.38274 -6.15996 0
M  V30 2085 H 198.271 5.42858 -5.59397 0
M  V30 2086 N 202.5 1.5196 0.417844 0
M  V30 2087 C 203.748 1.65263 1.16329 0
M  V30 2088 C 204.069 0.380634 1.91249 0
M  V30 2089 O 203.339 -0.604214 1.86349 0
M  V30 2090 H 201.919 0.60912 0.432414 0
M  V30 2091 H 204.581 1.88969 0.477162 0
M  V30 2092 H 203.677 2.4896 1.88217 0
M  V30 2093 N 203.978 -0.674533 1.42435 0
M  V30 2094 C 205.389 -1.25514 1.38214 0
M  V30 2095 C 205.74 -1.96055 0.0755464 0
M  V30 2096 O 204.865 -2.00028 -0.8257 0
M  V30 2097 C 205.46 -2.28269 2.50357 0
M  V30 2098 C 204.019 -2.81856 2.49467 0
M  V30 2099 C 203.166 -1.56182 2.29134 0
M  V30 2100 H 206.117 -0.467902 1.51646 0
M  V30 2101 H 206.138 -3.10009 2.20624 0
M  V30 2102 H 205.65 -1.769 3.45439 0
M  V30 2103 H 203.751 -3.37346 1.58204 0
M  V30 2104 H 203.864 -3.30854 3.46515 0
M  V30 2105 H 202.228 -1.82761 1.774 0
M  V30 2106 H 203.011 -1.06778 3.26272 0
M  V30 2107 N 205.456 -1.28612 -0.910864 0
M  V30 2108 C 206.704 -1.15705 -1.65701 0
M  V30 2109 C 207.025 0.29416 -1.92769 0
M  V30 2110 O 206.295 1.20331 -1.54588 0
M  V30 2111 H 204.875 -0.425216 -0.614167 0
M  V30 2112 H 207.537 -1.61381 -1.0928 0
M  V30 2113 H 206.633 -1.6988 -2.61815 0
M  V30 2114 N 206.934 1.1197 -1.10907 0
M  V30 2115 C 207.844 2.21433 -0.774896 0
M  V30 2116 C 208.86 1.72478 0.229657 0
M  V30 2117 O 210.036 2.01288 0.0672008 0
M  V30 2118 C 207.101 3.4602 -0.216986 0
M  V30 2119 C 206.162 4.09791 -1.27944 0
M  V30 2120 C 205.395 5.28431 -0.748055 0
M  V30 2121 O 205.618 5.68823 0.423833 0
M  V30 2122 O 204.552 5.82644 -1.51027 0
M  V30 2123 H 208.378 2.5242 -1.68873 0
M  V30 2124 H 205.963 1.20399 -0.884555 0
M  V30 2125 H 207.845 4.21304 0.090059 0
M  V30 2126 H 206.52 3.16698 0.669633 0
M  V30 2127 H 205.427 3.36265 -1.63941 0
M  V30 2128 H 206.76 4.4328 -2.13925 0
M  V30 2129 N 208.412 0.89855 1.29475 0
M  V30 2130 C 209.689 0.443416 1.90508 0
M  V30 2131 C 210.069 -1.07685 1.81569 0
M  V30 2132 O 209.417 -1.9182 1.24166 0
M  V30 2133 C 209.627 0.956708 3.35631 0
M  V30 2134 C 210.975 0.999728 4.12663 0
M  V30 2135 O 211.999 0.904299 3.4453 0
M  V30 2136 O 210.858 1.14289 5.34416 0
M  V30 2137 H 207.952 0.138025 0.815401 0
M  V30 2138 H 210.498 0.98834 1.37949 0
M  V30 2139 H 209.27 2.00067 3.36287 0
M  V30 2140 H 208.893 0.391728 3.95666 0
M  V30 2141 N 209.89 -1.43072 0.660911 0
M  V30 2142 C 211.137 -2.01721 0.177445 0
M  V30 2143 C 211.465 -1.5218 -1.21126 0
M  V30 2144 O 210.72 -0.708659 -1.82419 0
M  V30 2145 C 211.019 -3.57103 0.145563 0
M  V30 2146 C 210.685 -4.26021 1.47705 0
M  V30 2147 C 209.347 -4.44563 1.84165 0
M  V30 2148 C 211.699 -4.64983 2.35458 0
M  V30 2149 C 209.027 -4.99334 3.0803 0
M  V30 2150 C 211.379 -5.21127 3.58622 0
M  V30 2151 C 210.043 -5.37884 3.95268 0
M  V30 2152 H 209.313 -0.73815 0.0649317 0
M  V30 2153 H 211.96 -1.71446 0.853144 0
M  V30 2154 H 210.265 -3.86965 -0.61361 0
M  V30 2155 H 211.962 -4.00248 -0.2455 0
M  V30 2156 H 208.552 -4.11939 1.18339 0
M  V30 2157 H 212.736 -4.50343 2.08579 0
M  V30 2158 H 207.992 -5.10493 3.36462 0
M  V30 2159 H 212.166 -5.50262 4.26831 0
M  V30 2160 H 209.793 -5.80089 4.91325 0
M  V30 2161 N 211.368 -0.403325 -1.52352 0
M  V30 2162 C 212.784 -0.0539281 -1.59509 0
M  V30 2163 C 212.984 1.43307 -1.41652 0
M  V30 2164 O 212.04 2.19924 -1.24056 0
M  V30 2165 C 213.353 -0.543654 -2.95745 0
M  V30 2166 C 214.901 -0.501125 -3.08962 0
M  V30 2167 C 215.376 -0.967267 -4.47669 0
M  V30 2168 N 216.867 -0.923849 -4.53893 0
M  V30 2169 C 217.602 -1.25578 -5.5948 0
M  V30 2170 N 217.098 -1.65889 -6.72646 0
M  V30 2171 N 218.891 -1.17613 -5.49658 0
M  V30 2172 H 211.042 -1.37123 -1.62206 0
M  V30 2173 H 213.305 -0.56294 -0.76276 0
M  V30 2174 H 213.011 -1.58275 -3.14073 0
M  V30 2175 H 212.885 0.0498042 -3.77167 0
M  V30 2176 H 215.272 0.528909 -2.90321 0
M  V30 2177 H 215.353 -1.13056 -2.2946 0
M  V30 2178 H 214.997 -1.9956 -4.67053 0
M  V30 2179 H 214.927 -0.314698 -5.25659 0
M  V30 2180 H 217.418 -0.627403 -3.72655 0
M  V30 2181 H 217.731 -1.89543 -7.49195 0
M  V30 2182 H 216.076 -1.69787 -6.73942 0
M  V30 2183 H 219.267 -0.860115 -4.6013 0
M  V30 2184 H 219.44 -1.43812 -6.3184 0
M  V30 2185 N 212.846 1.57033 -0.133567 0
M  V30 2186 C 213.779 2.11824 0.848872 0
M  V30 2187 C 214.757 1.03833 1.2513 0
M  V30 2188 O 215.941 1.31579 1.34978 0
M  V30 2189 C 213.068 2.62692 2.138 0
M  V30 2190 C 212.114 3.82705 1.88253 0
M  V30 2191 S 212.947 5.2438 1.08563 0
M  V30 2192 C 214.103 5.78627 2.38624 0
M  V30 2193 H 214.336 2.94824 0.38289 0
M  V30 2194 H 211.869 1.5419 0.0804796 0
M  V30 2195 H 213.827 2.92652 2.87863 0
M  V30 2196 H 212.488 1.79847 2.57515 0
M  V30 2197 H 211.681 4.16496 2.83809 0
M  V30 2198 H 211.283 3.53437 1.22305 0
M  V30 2199 H 213.575 5.8924 3.34369 0
M  V30 2200 H 214.518 6.76443 2.09358 0
M  V30 2201 H 214.926 5.06783 2.48658 0
M  V30 2202 N 214.325 -0.140222 1.56975 0
M  V30 2203 C 215.288 -1.15689 1.97861 0
M  V30 2204 C 216.288 -1.3549 0.865974 0
M  V30 2205 O 217.478 -1.32367 1.13246 0
M  V30 2206 C 214.61 -2.51582 2.30042 0
M  V30 2207 H 215.803 -0.805971 2.88867 0
M  V30 2208 H 213.356 -0.383801 1.51515 0
M  V30 2209 H 214.091 -2.91632 1.41849 0
M  V30 2210 H 213.876 -2.38569 3.11171 0
M  V30 2211 H 215.366 -3.24792 2.62488 0
M  V30 2212 N 215.803 -1.52179 -0.40978 0
M  V30 2213 C 217.031 -1.70054 -1.17853 0
M  V30 2214 C 217.446 -0.409735 -1.843 0
M  V30 2215 O 216.803 0.614183 -1.71855 0
M  V30 2216 C 216.854 -2.83568 -2.24213 0
M  V30 2217 O 216.575 -4.0765 -1.60478 0
M  V30 2218 C 218.076 -3.12947 -3.13973 0
M  V30 2219 H 215.296 -0.569917 -0.354169 0
M  V30 2220 H 217.84 -1.98734 -0.482198 0
M  V30 2221 H 215.995 -2.57409 -2.89516 0
M  V30 2222 H 216.409 -4.70899 -2.30986 0
M  V30 2223 H 217.883 -3.95889 -3.84677 0
M  V30 2224 H 218.36 -2.26472 -3.76307 0
M  V30 2225 H 218.966 -3.40868 -2.5434 0
M  V30 2226 N 217.281 0.66697 -1.42791 0
M  V30 2227 C 218.211 1.79218 -1.49677 0
M  V30 2228 C 219.192 1.66405 -0.352623 0
M  V30 2229 O 220.377 1.85708 -0.567993 0
M  V30 2230 C 217.507 3.17565 -1.40605 0
M  V30 2231 C 216.461 3.45124 -2.53127 0
M  V30 2232 C 215.787 4.83127 -2.29112 0
M  V30 2233 C 217.087 3.41236 -3.95418 0
M  V30 2234 H 218.781 1.73713 -2.43853 0
M  V30 2235 H 216.327 0.83432 -1.17367 0
M  V30 2236 H 218.28 3.96022 -1.44029 0
M  V30 2237 H 217.004 3.23767 -0.429271 0
M  V30 2238 H 215.663 2.69031 -2.49034 0
M  V30 2239 H 215.311 4.85988 -1.29709 0
M  V30 2240 H 215.011 5.02528 -3.04531 0
M  V30 2241 H 216.535 5.63859 -2.34297 0
M  V30 2242 H 217.949 4.09651 -4.01073 0
M  V30 2243 H 216.346 3.72173 -4.70752 0
M  V30 2244 H 217.416 2.39665 -4.21532 0
M  V30 2245 N 218.759 1.29093 0.90403 0
M  V30 2246 C 219.989 1.19516 1.68522 0
M  V30 2247 C 220.397 -0.24738 1.87576 0
M  V30 2248 O 219.74 -1.17798 1.40959 0
M  V30 2249 C 219.802 1.83249 3.0929 0
M  V30 2250 C 219.466 3.32531 3.13484 0
M  V30 2251 C 220.463 4.28821 2.93953 0
M  V30 2252 C 218.148 3.73656 3.35688 0
M  V30 2253 C 220.142 5.64212 2.96553 0
M  V30 2254 C 217.829 5.0917 3.37919 0
M  V30 2255 C 218.827 6.04258 3.18373 0
M  V30 2256 O 218.515 7.37298 3.20385 0
M  V30 2257 H 218.247 0.415467 0.533257 0
M  V30 2258 H 220.801 1.70912 1.13922 0
M  V30 2259 H 219.031 1.26358 3.65473 0
M  V30 2260 H 220.72 1.68054 3.69476 0
M  V30 2261 H 221.486 3.98382 2.76616 0
M  V30 2262 H 217.365 3.00101 3.49943 0
M  V30 2263 H 220.909 6.38407 2.81216 0
M  V30 2264 H 216.806 5.39256 3.54787 0
M  V30 2265 H 217.574 7.46048 3.36681 0
M  V30 2266 N 220.237 -1.11381 1.11499 0
M  V30 2267 C 221.462 -1.87475 0.887019 0
M  V30 2268 C 221.887 -1.79639 -0.557796 0
M  V30 2269 O 221.245 -1.15924 -1.39396 0
M  V30 2270 C 221.293 -3.34213 1.35403 0
M  V30 2271 O 220.397 -4.0903 0.526146 0
M  V30 2272 H 219.738 -0.582099 0.319463 0
M  V30 2273 H 222.268 -1.40785 1.48461 0
M  V30 2274 H 222.278 -3.8506 1.34881 0
M  V30 2275 H 220.953 -3.39232 2.40612 0
M  V30 2276 H 219.53 -3.68082 0.597522 0
M  V30 2277 N 221.715 -0.905404 -1.28997 0
M  V30 2278 C 223.131 -0.60233 -1.47798 0
M  V30 2279 C 223.331 0.854645 -1.82478 0
M  V30 2280 O 222.387 1.63439 -1.92468 0
M  V30 2281 C 223.7 -1.53306 -2.58685 0
M  V30 2282 C 225.248 -1.53887 -2.72558 0
M  V30 2283 C 225.723 -2.45602 -3.86579 0
M  V30 2284 N 227.214 -2.43681 -3.93921 0
M  V30 2285 C 227.949 -3.11347 -4.81509 0
M  V30 2286 N 227.445 -3.88313 -5.73746 0
M  V30 2287 N 229.238 -3.00476 -4.75048 0
M  V30 2288 H 221.389 -1.84765 -1.04764 0
M  V30 2289 H 223.652 -0.792025 -0.520961 0
M  V30 2290 H 223.358 -2.57141 -2.39941 0
M  V30 2291 H 223.232 -1.25787 -3.55609 0
M  V30 2292 H 225.619 -0.507941 -2.90696 0
M  V30 2293 H 225.7 -1.85447 -1.76191 0
M  V30 2294 H 225.344 -3.48792 -3.69197 0
M  V30 2295 H 225.274 -2.11349 -4.82327 0
M  V30 2296 H 227.765 -1.87767 -3.27951 0
M  V30 2297 H 228.078 -4.36985 -6.37389 0
M  V30 2298 H 226.423 -3.92419 -5.73614 0
M  V30 2299 H 229.614 -2.39858 -4.01977 0
M  V30 2300 H 229.787 -3.53485 -5.43095 0
M  V30 2301 N 223.193 1.4272 -0.668489 0
M  V30 2302 C 224.421 2.05966 -0.196348 0
M  V30 2303 C 224.836 1.50191 1.14403 0
M  V30 2304 O 224.193 0.639208 1.7094 0
M  V30 2305 C 224.244 3.61314 -0.115815 0
M  V30 2306 O 223.965 4.1502 -1.40322 0
M  V30 2307 C 225.466 4.41663 0.380579 0
M  V30 2308 H 222.686 0.663954 -0.0969829 0
M  V30 2309 H 225.23 1.82966 -0.913446 0
M  V30 2310 H 223.385 3.83448 0.551931 0
M  V30 2311 H 223.799 5.08832 -1.27243 0
M  V30 2312 H 225.273 5.5065 0.385848 0
M  V30 2313 H 225.75 4.15792 1.41471 0
M  V30 2314 H 226.356 4.24534 -0.255209 0
M  V30 2315 N 224.671 0.411399 1.52136 0
M  V30 2316 C 225.603 -0.448386 2.24771 0
M  V30 2317 C 226.616 -1.00828 1.27818 0
M  V30 2318 O 227.805 -0.906841 1.53749 0
M  V30 2319 C 224.905 -1.63636 2.96777 0
M  V30 2320 C 224.078 -1.19995 4.20618 0
M  V30 2321 C 223.137 -2.25509 4.75428 0
M  V30 2322 O 222.163 -1.86007 5.3795 0
M  V30 2323 N 223.365 -3.577 4.57199 0
M  V30 2324 H 226.13 0.174025 2.99194 0
M  V30 2325 H 223.691 0.238897 1.60128 0
M  V30 2326 H 225.683 -2.33793 3.30338 0
M  V30 2327 H 224.253 -2.16465 2.25526 0
M  V30 2328 H 223.473 -0.326421 3.92846 0
M  V30 2329 H 224.761 -0.885365 5.01038 0
M  V30 2330 H 224.159 -3.92543 4.07341 0
M  V30 2331 H 222.716 -4.23827 4.95191 0
M  V30 2332 N 226.149 -1.5696 0.141893 0
M  V30 2333 C 227.377 -2.00322 -0.517579 0
M  V30 2334 C 227.792 -1.02193 -1.58752 0
M  V30 2335 O 227.149 -0.0181619 -1.82491 0
M  V30 2336 C 227.2 -3.43618 -1.12289 0
M  V30 2337 O 226.921 -4.37995 -0.0956929 0
M  V30 2338 C 228.422 -4.02231 -1.86347 0
M  V30 2339 H 225.642 -0.657243 -0.135177 0
M  V30 2340 H 228.186 -2.03146 0.234973 0
M  V30 2341 H 226.341 -3.41662 -1.82609 0
M  V30 2342 H 226.755 -5.21729 -0.538469 0
M  V30 2343 H 228.229 -5.04509 -2.23997 0
M  V30 2344 H 228.706 -3.42655 -2.74744 0
M  V30 2345 H 229.312 -4.07802 -1.20737 0
M  V30 2346 N 227.627 0.131896 -1.57047 0
M  V30 2347 C 229.038 0.690407 -1.73465 0
M  V30 2348 C 229.389 1.8094 -0.758629 0
M  V30 2349 O 228.514 2.16282 0.0713813 0
M  V30 2350 C 229.109 1.25916 -3.14532 0
M  V30 2351 C 227.668 1.76409 -3.32501 0
M  V30 2352 C 226.815 0.658579 -2.69366 0
M  V30 2353 H 229.766 -0.0939144 -1.58422 0
M  V30 2354 H 229.787 2.12892 -3.15369 0
M  V30 2355 H 229.299 0.444515 -3.85546 0
M  V30 2356 H 227.4 2.60391 -2.66509 0
M  V30 2357 H 227.513 1.88241 -4.4057 0
M  V30 2358 H 225.877 1.08899 -2.30246 0
M  V30 2359 H 226.66 -0.14487 -3.42994 0
M  V30 2360 N 229.106 1.52395 0.401703 0
M  V30 2361 C 230.522 1.41363 0.740864 0
M  V30 2362 C 230.722 0.523982 1.94568 0
M  V30 2363 O 229.778 -0.00741204 2.52499 0
M  V30 2364 C 231.091 2.84011 0.987847 0
M  V30 2365 C 232.639 2.93404 1.09011 0
M  V30 2366 C 233.114 4.37036 1.3698 0
M  V30 2367 N 234.605 4.40304 1.43829 0
M  V30 2368 C 235.34 5.48508 1.67112 0
M  V30 2369 N 234.836 6.66819 1.87949 0
M  V30 2370 N 236.629 5.36034 1.69187 0
M  V30 2371 H 228.78 2.08765 -0.391262 0
M  V30 2372 H 231.043 0.941265 -0.112798 0
M  V30 2373 H 230.749 3.51265 0.174835 0
M  V30 2374 H 230.623 3.25502 1.906 0
M  V30 2375 H 233.01 2.26325 1.8937 0
M  V30 2376 H 233.091 2.55359 0.15015 0
M  V30 2377 H 232.735 5.04676 0.571353 0
M  V30 2378 H 232.665 4.72623 2.3224 0
M  V30 2379 H 235.156 3.55024 1.29486 0
M  V30 2380 H 235.469 7.45063 2.05185 0
M  V30 2381 H 233.814 6.6987 1.85199 0
M  V30 2382 H 237.005 4.42579 1.52451 0
M  V30 2383 H 237.178 6.20434 1.86993 0
M  V30 2384 N 230.584 -0.659388 1.43143 0
M  V30 2385 C 231.547 -1.75432 1.47501 0
M  V30 2386 C 232.547 -1.56707 0.360512 0
M  V30 2387 O 233.737 -1.62717 0.622002 0
M  V30 2388 C 230.869 -3.14239 1.32162 0
M  V30 2389 H 232.062 -1.7295 2.45006 0
M  V30 2390 H 229.615 -0.870469 1.29817 0
M  V30 2391 H 230.35 -3.22336 0.356401 0
M  V30 2392 H 230.135 -3.29235 2.12948 0
M  V30 2393 H 231.625 -3.94094 1.3813 0
M  V30 2394 N 232.062 -1.29571 -0.897171 0
M  V30 2395 C 232.972 -1.16808 -2.03453 0
M  V30 2396 C 233.988 -0.0907471 -1.73763 0
M  V30 2397 O 235.164 -0.303312 -1.99103 0
M  V30 2398 C 232.229 -0.848264 -3.36163 0
M  V30 2399 C 231.29 -2.0097 -3.79354 0
M  V30 2400 C 230.523 -1.70505 -5.05731 0
M  V30 2401 O 230.746 -0.62718 -5.66941 0
M  V30 2402 O 229.68 -2.5538 -5.45036 0
M  V30 2403 H 233.506 -2.12325 -2.17144 0
M  V30 2404 H 231.091 -1.09047 -1.02123 0
M  V30 2405 H 232.973 -0.684581 -4.15802 0
M  V30 2406 H 231.648 0.0771071 -3.23608 0
M  V30 2407 H 230.555 -2.22863 -3.00471 0
M  V30 2408 H 231.888 -2.91636 -3.96496 0
M  V30 2409 N 233.54 1.10788 -1.12088 0
M  V30 2410 C 234.47 2.19083 -0.807755 0
M  V30 2411 C 235.451 1.6858 0.226859 0
M  V30 2412 O 236.636 1.93997 0.0888475 0
M  V30 2413 C 233.766 3.46344 -0.257576 0
M  V30 2414 C 232.72 4.101 -1.22483 0
M  V30 2415 C 232.046 5.32016 -0.535052 0
M  V30 2416 C 233.346 4.54236 -2.57811 0
M  V30 2417 H 235.04 2.45534 -1.71328 0
M  V30 2418 H 232.586 1.1801 -0.825205 0
M  V30 2419 H 234.539 4.21392 -0.0262679 0
M  V30 2420 H 233.263 3.19373 0.683278 0
M  V30 2421 H 231.922 3.37054 -1.44189 0
M  V30 2422 H 231.57 5.01319 0.410827 0
M  V30 2423 H 231.27 5.75625 -1.18024 0
M  V30 2424 H 232.794 6.09799 -0.312695 0
M  V30 2425 H 234.208 5.20575 -2.40155 0
M  V30 2426 H 232.605 5.08682 -3.18375 0
M  V30 2427 H 233.675 3.6734 -3.16528 0
M  V30 2428 N 235.018 0.912232 1.28515 0
M  V30 2429 C 235.965 0.397954 2.27343 0
M  V30 2430 C 236.935 -0.526766 1.57526 0
M  V30 2431 O 238.12 -0.449292 1.85435 0
M  V30 2432 C 235.26 -0.357263 3.43246 0
M  V30 2433 C 234.373 0.599788 4.27816 0
M  V30 2434 C 233.508 -0.173725 5.30916 0
M  V30 2435 C 232.547 0.777039 6.07148 0
M  V30 2436 N 231.684 0.0371398 7.0209 0
M  V30 2437 H 236.524 1.24577 2.70711 0
M  V30 2438 H 234.061 0.625612 1.33133 0
M  V30 2439 H 236.019 -0.8113 4.09236 0
M  V30 2440 H 234.649 -1.16943 3.00872 0
M  V30 2441 H 233.701 1.17235 3.61884 0
M  V30 2442 H 235.013 1.32704 4.80823 0
M  V30 2443 H 234.167 -0.688394 6.02782 0
M  V30 2444 H 232.906 -0.934041 4.78672 0
M  V30 2445 H 231.911 1.3031 5.34134 0
M  V30 2446 H 233.136 1.53689 6.61481 0
M  V30 2447 H 231.082 -0.705213 6.52198 0
M  V30 2448 H 230.999 0.704249 7.52713 0
M  V30 2449 H 232.267 -0.457383 7.78157 0
M  V30 2450 N 236.496 -1.42363 0.676048 0
M  V30 2451 C 237.406 -2.346 -0.00153389 0
M  V30 2452 C 238.422 -1.5516 -0.787485 0
M  V30 2453 O 239.598 -1.87723 -0.729521 0
M  V30 2454 C 236.663 -3.33705 -0.940298 0
M  V30 2455 C 235.724 -4.29042 -0.148739 0
M  V30 2456 C 234.957 -5.23413 -1.04279 0
M  V30 2457 O 235.18 -5.22749 -2.28232 0
M  V30 2458 O 234.114 -5.99795 -0.502925 0
M  V30 2459 H 237.94 -2.94082 0.758268 0
M  V30 2460 H 235.525 -1.42888 0.436289 0
M  V30 2461 H 237.407 -3.94586 -1.47917 0
M  V30 2462 H 236.082 -2.76695 -1.67993 0
M  V30 2463 H 234.989 -3.71571 0.43427 0
M  V30 2464 H 236.322 -4.89097 0.551805 0
M  V30 2465 N 237.974 -0.419461 -1.51915 0
M  V30 2466 C 238.921 0.400927 -2.27291 0
M  V30 2467 C 239.891 1.03224 -1.30131 0
M  V30 2468 O 241.076 1.05455 -1.59009 0
M  V30 2469 C 238.216 1.50603 -3.10504 0
M  V30 2470 C 237.329 0.89462 -4.22635 0
M  V30 2471 C 236.464 1.97328 -4.93189 0
M  V30 2472 C 235.503 1.33935 -5.97267 0
M  V30 2473 N 234.64 2.3586 -6.61298 0
M  V30 2474 H 239.48 -0.248251 -2.96964 0
M  V30 2475 H 237.017 -0.134266 -1.46486 0
M  V30 2476 H 238.975 2.15783 -3.57062 0
M  V30 2477 H 237.605 2.12509 -2.42981 0
M  V30 2478 H 236.657 0.131583 -3.80172 0
M  V30 2479 H 237.969 0.391641 -4.9726 0
M  V30 2480 H 237.123 2.70211 -5.43204 0
M  V30 2481 H 235.862 2.50994 -4.18155 0
M  V30 2482 H 234.867 0.595896 -5.46561 0
M  V30 2483 H 236.092 0.810252 -6.74249 0
M  V30 2484 H 234.038 2.88639 -5.89087 0
M  V30 2485 H 233.955 1.90403 -7.3163 0
M  V30 2486 H 235.223 3.08282 -7.15949 0
M  V30 2487 N 239.452 1.56882 -0.150215 0
M  V30 2488 C 240.699 1.96228 0.500093 0
M  V30 2489 C 241.027 1.03522 1.64661 0
M  V30 2490 O 240.282 0.0650683 1.95592 0
M  V30 2491 C 240.581 3.41801 1.04437 0
M  V30 2492 C 240.247 4.50897 0.0159671 0
M  V30 2493 C 238.909 4.8046 -0.266731 0
M  V30 2494 C 241.261 5.16703 -0.683192 0
M  V30 2495 C 238.589 5.73135 -1.25434 0
M  V30 2496 C 240.941 6.10441 -1.65964 0
M  V30 2497 C 239.605 6.38382 -1.95 0
M  V30 2498 H 238.875 0.718048 0.182997 0
M  V30 2499 H 241.522 1.90019 -0.237724 0
M  V30 2500 H 239.827 3.44857 1.85959 0
M  V30 2501 H 241.524 3.69573 1.55618 0
M  V30 2502 H 238.114 4.27891 0.246485 0
M  V30 2503 H 242.298 4.93993 -0.477983 0
M  V30 2504 H 237.554 5.93074 -1.48571 0
M  V30 2505 H 241.728 6.60507 -2.20689 0
M  V30 2506 H 239.355 7.09996 -2.71679 0
M  V30 2507 N 240.93 -0.123565 1.57115 0
M  V30 2508 C 242.158 -0.846461 1.88793 0
M  V30 2509 C 242.573 -1.73652 0.740976 0
M  V30 2510 O 241.93 -1.80207 -0.288393 0
M  V30 2511 C 241.981 -1.6837 3.19897 0
M  V30 2512 O 241.702 -0.829477 4.30176 0
M  V30 2513 C 243.203 -2.51214 3.65248 0
M  V30 2514 H 240.423 -0.243573 0.625231 0
M  V30 2515 H 242.967 -0.109324 2.04208 0
M  V30 2516 H 241.122 -2.37364 3.06165 0
M  V30 2517 H 241.536 -1.40651 5.0529 0
M  V30 2518 H 243.01 -3.05497 4.59756 0
M  V30 2519 H 243.487 -3.28359 2.9168 0
M  V30 2520 H 244.093 -1.8747 3.81752 0
M  V30 2521 N 242.408 -1.52605 -0.393616 0
M  V30 2522 C 243.371 -1.76415 -1.46323 0
M  V30 2523 C 244.371 -0.634126 -1.47768 0
M  V30 2524 O 245.561 -0.902142 -1.4902 0
M  V30 2525 C 242.693 -1.8607 -2.85641 0
M  V30 2526 H 243.886 -2.71916 -1.26498 0
M  V30 2527 H 241.439 -1.43257 -0.625073 0
M  V30 2528 H 242.174 -0.925378 -3.10817 0
M  V30 2529 H 241.959 -2.68235 -2.85993 0
M  V30 2530 H 243.449 -2.06179 -3.63153 0
M  V30 2531 N 243.887 0.651787 -1.4349 0
M  V30 2532 C 245.134 1.41167 -1.45183 0
M  V30 2533 C 245.462 1.94349 -0.0766601 0
M  V30 2534 O 244.717 1.72804 0.918555 0
M  V30 2535 C 245.016 2.60914 -2.44251 0
M  V30 2536 C 244.682 2.26142 -3.9009 0
M  V30 2537 C 243.344 2.16371 -4.2981 0
M  V30 2538 C 245.696 1.98334 -4.81989 0
M  V30 2539 C 243.024 1.7695 -5.5938 0
M  V30 2540 C 245.376 1.6041 -6.11924 0
M  V30 2541 C 244.04 1.49166 -6.5062 0
M  V30 2542 H 243.31 0.516566 -0.531263 0
M  V30 2543 H 245.957 0.741099 -1.76579 0
M  V30 2544 H 244.262 3.3311 -2.06265 0
M  V30 2545 H 245.959 3.19127 -2.42815 0
M  V30 2546 H 242.549 2.34658 -3.58655 0
M  V30 2547 H 246.733 2.04803 -4.52072 0
M  V30 2548 H 241.989 1.66831 -5.88198 0
M  V30 2549 H 246.163 1.37925 -6.82605 0
M  V30 2550 H 243.79 1.1839 -7.50925 0
M  V30 2551 N 245.365 1.30045 0.890287 0
M  V30 2552 C 246.605 1.19839 1.65584 0
M  V30 2553 C 246.969 -0.244175 1.90441 0
M  V30 2554 O 248.17 -0.469378 2.6467 0
M  V30 2555 C 246.441 1.99876 2.96284 0
M  V30 2556 S 248 2.06309 3.87275 0
M  V30 2557 H 244.818 0.427157 0.568382 0
M  V30 2558 H 247.42 1.64453 1.05715 0
M  V30 2559 H 246.124 3.03809 2.75913 0
M  V30 2560 H 245.655 1.55903 3.61189 0
M  V30 2561 H 247.67 1.18661 4.81803 0
M  V30 2562 N 246.843 -1.10192 1.12674 0
M  V30 2563 C 247.79 -2.16606 0.796906 0
M  V30 2564 C 248.76 -1.64394 -0.237476 0
M  V30 2565 O 249.945 -1.90474 -0.111484 0
M  V30 2566 C 247.085 -3.44116 0.26043 0
M  V30 2567 C 246.198 -4.10268 1.35293 0
M  V30 2568 C 245.333 -5.25507 0.775621 0
M  V30 2569 C 244.372 -5.83567 1.84706 0
M  V30 2570 N 243.509 -6.90179 1.28829 0
M  V30 2571 H 248.349 -2.44163 1.70846 0
M  V30 2572 H 245.886 -1.19846 0.85295 0
M  V30 2573 H 247.844 -4.17143 -0.0686814 0
M  V30 2574 H 246.474 -3.16901 -0.614274 0
M  V30 2575 H 245.526 -3.35184 1.79877 0
M  V30 2576 H 246.838 -4.4946 2.16303 0
M  V30 2577 H 245.992 -6.05398 0.397327 0
M  V30 2578 H 244.731 -4.87656 -0.0656581 0
M  V30 2579 H 243.736 -5.02344 2.23452 0
M  V30 2580 H 244.961 -6.23482 2.69161 0
M  V30 2581 H 242.907 -6.54322 0.468881 0
M  V30 2582 H 242.824 -7.28097 2.03497 0
M  V30 2583 H 244.092 -7.73844 0.937311 0
M  V30 2584 N 248.321 -0.919034 -1.28029 0
M  V30 2585 C 249.284 -0.416182 -2.2539 0
M  V30 2586 C 250.284 0.460438 -1.54067 0
M  V30 2587 O 251.474 0.262744 -1.72207 0
M  V30 2588 C 248.606 0.402707 -3.38513 0
M  V30 2589 H 249.799 -1.27629 -2.71387 0
M  V30 2590 H 247.352 -0.698919 -1.39803 0
M  V30 2591 H 248.087 1.282 -2.97885 0
M  V30 2592 H 247.872 -0.225698 -3.9145 0
M  V30 2593 H 249.362 0.745191 -4.10897 0
M  V30 2594 N 249.799 1.42003 -0.683588 0
M  V30 2595 C 250.731 2.29183 0.0283068 0
M  V30 2596 C 251.744 1.4415 0.756611 0
M  V30 2597 O 252.933 1.67779 0.609306 0
M  V30 2598 C 250.033 3.21765 1.06398 0
M  V30 2599 C 249.206 4.35496 0.407723 0
M  V30 2600 C 248.265 5.08737 1.34437 0
M  V30 2601 O 247.291 5.62948 0.841318 0
M  V30 2602 N 248.493 5.15075 2.67728 0
M  V30 2603 H 251.258 2.9092 -0.720105 0
M  V30 2604 H 248.819 1.53025 -0.528682 0
M  V30 2605 H 250.811 3.6763 1.69204 0
M  V30 2606 H 249.381 2.61418 1.71404 0
M  V30 2607 H 248.601 3.92165 -0.400012 0
M  V30 2608 H 249.889 5.08776 -0.0490956 0
M  V30 2609 H 249.287 4.72457 3.11129 0
M  V30 2610 H 247.844 5.64556 3.2576 0
M  V30 2611 N 251.277 0.427512 1.51691 0
M  V30 2612 C 252.525 -0.141948 2.01601 0
M  V30 2613 C 252.846 -1.44067 1.31414 0
M  V30 2614 O 252.116 -1.90763 0.445658 0
M  V30 2615 H 250.696 -0.0554468 0.744939 0
M  V30 2616 H 253.358 0.567968 1.86441 0
M  V30 2617 H 252.454 -0.324913 3.10404 0
M  V30 2618 N 252.755 -1.56801 0.158532 0
M  V30 2619 C 254.002 -1.9649 -0.489679 0
M  V30 2620 C 254.33 -1.04394 -1.6411 0
M  V30 2621 O 253.585 -0.0754401 -1.95555 0
M  V30 2622 C 253.884 -3.4235 -1.02623 0
M  V30 2623 C 253.55 -4.50899 0.00794526 0
M  V30 2624 C 252.212 -4.80312 0.292207 0
M  V30 2625 C 254.564 -5.16333 0.710584 0
M  V30 2626 C 251.892 -5.72461 1.28472 0
M  V30 2627 C 254.244 -6.09553 1.69199 0
M  V30 2628 C 252.908 -6.37339 1.98383 0
M  V30 2629 H 252.178 -0.719009 -0.179186 0
M  V30 2630 H 254.825 -1.8989 0.247798 0
M  V30 2631 H 253.13 -3.45838 -1.84128 0
M  V30 2632 H 254.827 -3.70393 -1.53656 0
M  V30 2633 H 251.417 -4.28015 -0.22379 0
M  V30 2634 H 255.601 -4.93732 0.504174 0
M  V30 2635 H 250.857 -5.92278 1.51714 0
M  V30 2636 H 255.031 -6.59327 2.24189 0
M  V30 2637 H 252.658 -7.08546 2.7544 0
M  V30 2638 N 254.233 0.115231 -1.57178 0
M  V30 2639 C 255.461 0.836437 -1.89239 0
M  V30 2640 C 255.876 1.73256 -0.750175 0
M  V30 2641 O 255.233 1.80357 0.278832 0
M  V30 2642 C 255.284 1.66671 -3.20785 0
M  V30 2643 O 255.005 0.806652 -4.3061 0
M  V30 2644 C 256.506 2.49274 -3.66575 0
M  V30 2645 H 253.726 0.240253 -0.626514 0
M  V30 2646 H 256.27 0.0984932 -2.04263 0
M  V30 2647 H 254.425 2.35737 -3.0742 0
M  V30 2648 H 254.839 1.37969 -5.06028 0
M  V30 2649 H 256.313 3.03055 -4.6137 0
M  V30 2650 H 256.79 3.26807 -2.93417 0
M  V30 2651 H 257.396 1.85443 -3.82741 0
M  V30 2652 N 255.711 1.52812 0.385517 0
M  V30 2653 C 256.621 1.80766 1.49535 0
M  V30 2654 C 257.637 0.694651 1.59532 0
M  V30 2655 O 258.813 0.982611 1.75803 0
M  V30 2656 C 255.878 1.97381 2.85029 0
M  V30 2657 C 254.939 3.21295 2.84724 0
M  V30 2658 C 254.172 3.37108 4.13756 0
M  V30 2659 O 254.395 2.5765 5.08893 0
M  V30 2660 O 253.329 4.30378 4.20783 0
M  V30 2661 H 257.155 2.75015 1.28842 0
M  V30 2662 H 254.74 1.37946 0.573697 0
M  V30 2663 H 256.622 2.09996 3.65349 0
M  V30 2664 H 255.297 1.06322 3.05741 0
M  V30 2665 H 254.204 3.1412 2.03174 0
M  V30 2666 H 255.537 4.12212 2.68965 0
M  V30 2667 N 257.189 -0.644168 1.43834 0
M  V30 2668 C 258.466 -1.40188 1.36406 0
M  V30 2669 C 258.846 -2.11094 0.0163124 0
M  V30 2670 O 258.194 -2.05426 -1.00062 0
M  V30 2671 C 258.404 -2.3791 2.55343 0
M  V30 2672 C 259.752 -3.01637 2.98832 0
M  V30 2673 O 260.776 -2.48237 2.55455 0
M  V30 2674 O 259.635 -3.98477 3.74003 0
M  V30 2675 H 256.729 -0.626773 0.539523 0
M  V30 2676 H 259.275 -0.670317 1.559 0
M  V30 2677 H 258.047 -1.84525 3.4506 0
M  V30 2678 H 257.67 -3.18503 2.37995 0
M  V30 2679 N 258.668 -1.30515 -0.883378 0
M  V30 2680 C 259.896 -1.22359 -1.66841 0
M  V30 2681 C 260.311 0.213296 -1.87591 0
M  V30 2682 O 259.668 1.14075 -1.42454 0
M  V30 2683 C 259.719 -1.95011 -3.04389 0
M  V30 2684 O 259.44 -3.3309 -2.84575 0
M  V30 2685 C 260.941 -1.93532 -3.98824 0
M  V30 2686 H 258.161 -0.423371 -0.520575 0
M  V30 2687 H 260.705 -1.72167 -1.10357 0
M  V30 2688 H 258.86 -1.48997 -3.57601 0
M  V30 2689 H 259.274 -3.69907 -3.71846 0
M  V30 2690 H 260.748 -2.48902 -4.92699 0
M  V30 2691 H 261.225 -0.914627 -4.29571 0
M  V30 2692 H 261.831 -2.39364 -3.51547 0
M  V30 2693 N 260.146 1.09593 -1.13257 0
M  V30 2694 C 261.395 1.81105 -0.887917 0
M  V30 2695 C 261.708 1.86563 0.587672 0
M  V30 2696 O 262.914 2.54367 0.949204 0
M  V30 2697 C 261.37 3.25338 -1.53895 0
M  V30 2698 C 260.978 3.28151 -3.04994 0
M  V30 2699 C 262.722 4.01617 -1.37492 0
M  V30 2700 C 260.629 4.66897 -3.6299 0
M  V30 2701 H 259.559 0.678661 -0.328534 0
M  V30 2702 H 262.21 1.23183 -1.36008 0
M  V30 2703 H 260.592 3.8331 -0.994446 0
M  V30 2704 H 261.766 2.79953 -3.66009 0
M  V30 2705 H 260.081 2.65361 -3.20893 0
M  V30 2706 H 262.678 5.04119 -1.78235 0
M  V30 2707 H 263.021 4.15072 -0.31957 0
M  V30 2708 H 263.554 3.50082 -1.88912 0
M  V30 2709 H 260.293 4.58643 -4.68323 0
M  V30 2710 H 259.813 5.15426 -3.06752 0
M  V30 2711 H 261.492 5.3587 -3.62563 0
M  V30 2712 N 261.624 0.925811 1.2754 0
M  V30 2713 C 262.87 0.566092 1.94739 0
M  V30 2714 C 263.203 -0.890057 1.72603 0
M  V30 2715 O 262.478 -1.63467 1.05399 0
M  V30 2716 C 262.761 0.89054 3.48915 0
M  V30 2717 C 262.614 2.4003 3.80402 0
M  V30 2718 C 263.933 0.395101 4.38323 0
M  V30 2719 H 261.052 0.20714 0.707292 0
M  V30 2720 H 263.694 1.15725 1.50691 0
M  V30 2721 H 261.844 0.387452 3.86563 0
M  V30 2722 H 263.516 2.97494 3.52555 0
M  V30 2723 H 261.759 2.85028 3.2702 0
M  V30 2724 H 262.43 2.57785 4.8811 0
M  V30 2725 H 264.906 0.826241 4.07814 0
M  V30 2726 H 263.782 0.651086 5.45025 0
M  V30 2727 H 264.043 -0.704798 4.36446 0
M  V30 2728 N 263.102 -1.41638 0.69111 0
M  V30 2729 C 264.349 -2.01299 0.220193 0
M  V30 2730 C 264.677 -1.54715 -1.17871 0
M  V30 2731 O 263.932 -0.747193 -1.80874 0
M  V30 2732 C 264.231 -3.56714 0.221277 0
M  V30 2733 C 263.897 -4.22792 1.56709 0
M  V30 2734 C 262.559 -4.40557 1.93554 0
M  V30 2735 C 264.911 -4.59883 2.45268 0
M  V30 2736 C 262.239 -4.92688 3.18552 0
M  V30 2737 C 264.591 -5.13403 3.69595 0
M  V30 2738 C 263.255 -5.29379 4.06589 0
M  V30 2739 H 262.525 -0.736606 0.0805743 0
M  V30 2740 H 265.172 -1.69598 0.889319 0
M  V30 2741 H 263.477 -3.8818 -0.531391 0
M  V30 2742 H 265.174 -4.00678 -0.160547 0
M  V30 2743 H 261.764 -4.09336 1.2705 0
M  V30 2744 H 265.948 -4.45817 2.18084 0
M  V30 2745 H 261.204 -5.03242 3.47214 0
M  V30 2746 H 265.378 -5.41084 4.38407 0
M  V30 2747 H 263.005 -5.69537 5.03519 0
M  V30 2748 N 264.58 -0.43555 -1.51462 0
M  V30 2749 C 265.51 0.367376 -2.30592 0
M  V30 2750 C 266.491 1.02263 -1.35928 0
M  V30 2751 O 267.676 1.02661 -1.64847 0
M  V30 2752 C 264.806 1.46983 -3.14664 0
M  V30 2753 C 263.76 0.938161 -4.17591 0
M  V30 2754 C 263.086 2.13622 -4.90173 0
M  V30 2755 C 264.386 -0.0261621 -5.22293 0
M  V30 2756 H 266.08 -0.292969 -2.97963 0
M  V30 2757 H 263.626 -0.14234 -1.43295 0
M  V30 2758 H 265.579 2.03873 -3.688 0
M  V30 2759 H 264.303 2.15843 -2.4511 0
M  V30 2760 H 262.962 0.391481 -3.64504 0
M  V30 2761 H 262.61 2.81098 -4.17124 0
M  V30 2762 H 262.31 1.78688 -5.59772 0
M  V30 2763 H 263.834 2.7107 -5.47132 0
M  V30 2764 H 265.248 0.452384 -5.71512 0
M  V30 2765 H 263.645 -0.287992 -5.99409 0
M  V30 2766 H 264.715 -0.963391 -4.75233 0
M  V30 2767 N 266.058 1.56714 -0.166846 0
M  V30 2768 C 267.469 1.83378 0.350646 0
M  V30 2769 C 267.82 1.08646 1.63372 0
M  V30 2770 O 266.945 0.338058 2.13743 0
M  V30 2771 C 267.54 3.32643 0.642963 0
M  V30 2772 C 266.099 3.59818 1.10491 0
M  V30 2773 C 265.246 2.76954 0.138411 0
M  V30 2774 H 268.197 1.53803 -0.391193 0
M  V30 2775 H 268.218 3.49878 1.49551 0
M  V30 2776 H 267.73 3.87007 -0.291055 0
M  V30 2777 H 265.831 3.1086 2.05418 0
M  V30 2778 H 265.944 4.68178 1.01716 0
M  V30 2779 H 264.308 2.4666 0.634911 0
M  V30 2780 H 265.091 3.34097 -0.789549 0
M  V30 2781 N 267.536 -0.106894 1.57237 0
M  V30 2782 C 268.468 -1.15646 1.97885 0
M  V30 2783 C 269.481 -1.36981 0.879779 0
M  V30 2784 O 270.67 -1.35841 1.15799 0
M  V30 2785 C 267.77 -2.51425 2.27241 0
M  V30 2786 C 266.943 -2.50529 3.58545 0
M  V30 2787 C 266.002 -3.68145 3.75973 0
M  V30 2788 O 265.028 -3.51176 4.47956 0
M  V30 2789 N 266.23 -4.87177 3.15656 0
M  V30 2790 H 268.995 -0.81059 2.8853 0
M  V30 2791 H 266.556 -0.296024 1.59171 0
M  V30 2792 H 268.548 -3.28689 2.36105 0
M  V30 2793 H 267.118 -2.78147 1.42663 0
M  V30 2794 H 266.338 -1.58894 3.60758 0
M  V30 2795 H 267.626 -2.46997 4.44826 0
M  V30 2796 H 267.024 -5.03868 2.57165 0
M  V30 2797 H 265.581 -5.62075 3.30023 0
M  V30 2798 N 269.014 -1.53014 -0.377408 0
M  V30 2799 C 270.242 -1.72515 -1.14219 0
M  V30 2800 C 270.657 -0.448735 -1.8339 0
M  V30 2801 O 270.014 0.577592 -1.73119 0
M  V30 2802 C 270.065 -2.8826 -2.18148 0
M  V30 2803 O 269.786 -4.10962 -1.51795 0
M  V30 2804 C 271.287 -3.19536 -3.07264 0
M  V30 2805 H 268.507 -0.577301 -0.342001 0
M  V30 2806 H 271.051 -1.99712 -0.439935 0
M  V30 2807 H 269.206 -2.63492 -2.83991 0
M  V30 2808 H 269.62 -4.75693 -2.20945 0
M  V30 2809 H 271.094 -4.03959 -3.76193 0
M  V30 2810 H 271.571 -2.34403 -3.71419 0
M  V30 2811 H 272.177 -3.46186 -2.47053 0
M  V30 2812 N 270.492 0.636531 -1.44174 0
M  V30 2813 C 271.769 1.39463 -1.37148 0
M  V30 2814 C 272.149 2.11082 -0.027507 0
M  V30 2815 O 271.497 2.05954 0.989716 0
M  V30 2816 C 271.707 2.36552 -2.56601 0
M  V30 2817 C 273.055 3.00048 -3.00427 0
M  V30 2818 O 274.079 2.46878 -2.56767 0
M  V30 2819 O 272.938 3.96488 -3.76111 0
M  V30 2820 H 270.032 0.623903 -0.542839 0
M  V30 2821 H 272.578 0.662039 -1.56253 0
M  V30 2822 H 271.35 1.82692 -3.46034 0
M  V30 2823 H 270.973 3.17236 -2.39681 0
M  V30 2824 N 271.97 1.30982 0.876444 0
M  V30 2825 C 272.917 1.18085 1.98304 0
M  V30 2826 C 273.887 0.0682263 1.6596 0
M  V30 2827 O 275.072 0.239937 1.89285 0
M  V30 2828 C 272.212 0.887475 3.33493 0
M  V30 2829 C 271.325 2.08281 3.78475 0
M  V30 2830 C 270.46 1.72678 5.0235 0
M  V30 2831 C 269.499 2.88657 5.39762 0
M  V30 2832 N 268.636 2.53292 6.54819 0
M  V30 2833 H 273.476 2.1275 2.08666 0
M  V30 2834 H 271.013 1.05839 1.02159 0
M  V30 2835 H 272.971 0.697961 4.1132 0
M  V30 2836 H 271.601 -0.022315 3.22792 0
M  V30 2837 H 270.653 2.3833 2.96484 0
M  V30 2838 H 271.965 2.95108 4.02135 0
M  V30 2839 H 271.119 1.50151 5.87826 0
M  V30 2840 H 269.858 0.830327 4.8058 0
M  V30 2841 H 268.863 3.1184 4.52809 0
M  V30 2842 H 270.088 3.79002 5.63502 0
M  V30 2843 H 268.034 1.66163 6.34607 0
M  V30 2844 H 267.951 3.3365 6.7839 0
M  V30 2845 H 269.219 2.34143 7.43503 0
M  V30 2846 N 273.449 -1.08991 1.13837 0
M  V30 2847 C 274.689 -1.82867 0.913183 0
M  V30 2848 C 275.053 -1.83936 -0.550604 0
M  V30 2849 O 276.254 -2.53515 -0.893515 0
M  V30 2850 C 274.525 -3.24843 1.49036 0
M  V30 2851 S 276.084 -4.15669 1.40588 0
M  V30 2852 H 272.902 -0.630278 0.329046 0
M  V30 2853 H 275.504 -1.31049 1.45073 0
M  V30 2854 H 274.208 -3.21644 2.54899 0
M  V30 2855 H 273.739 -3.81734 0.950947 0
M  V30 2856 H 275.754 -4.94686 0.387353 0
M  V30 2857 N 274.927 -0.932562 -1.27047 0
M  V30 2858 C 275.86 -0.379774 -2.25018 0
M  V30 2859 C 276.838 0.526587 -1.53837 0
M  V30 2860 O 278.022 0.465992 -1.82649 0
M  V30 2861 C 275.149 0.455187 -3.35627 0
M  V30 2862 C 274.195 -0.388428 -4.24728 0
M  V30 2863 S 275.028 -1.80701 -5.04091 0
M  V30 2864 C 276.184 -0.979865 -6.18182 0
M  V30 2865 H 276.417 -1.2101 -2.71558 0
M  V30 2866 H 273.95 -0.735078 -1.35779 0
M  V30 2867 H 275.908 0.931052 -3.99802 0
M  V30 2868 H 274.569 1.26009 -2.87716 0
M  V30 2869 H 273.762 0.25089 -5.03375 0
M  V30 2870 H 273.364 -0.798649 -3.65373 0
M  V30 2871 H 275.656 -0.218115 -6.77149 0
M  V30 2872 H 276.599 -1.73951 -6.86401 0
M  V30 2873 H 277.007 -0.51973 -5.62102 0
M  V30 2874 N 276.405 1.4127 -0.698611 0
M  V30 2875 C 277.633 2.05503 -0.239992 0
M  V30 2876 C 278.048 1.52584 1.11191 0
M  V30 2877 O 277.405 0.675323 1.69545 0
M  V30 2878 C 277.456 3.60987 -0.192429 0
M  V30 2879 O 277.177 4.1195 -1.49094 0
M  V30 2880 C 278.678 4.42371 0.28681 0
M  V30 2881 H 275.898 0.661748 -0.111045 0
M  V30 2882 H 278.442 1.80987 -0.95205 0
M  V30 2883 H 276.597 3.84533 0.470472 0
M  V30 2884 H 277.011 5.06018 -1.38007 0
M  V30 2885 H 278.485 5.51344 0.26896 0
M  V30 2886 H 278.962 4.18699 1.32619 0
M  V30 2887 H 279.568 4.23897 -0.345201 0
M  V30 2888 N 277.883 0.443576 1.51229 0
M  V30 2889 C 278.793 -0.370721 2.31652 0
M  V30 2890 C 279.809 -1.02186 1.40833 0
M  V30 2891 O 280.985 -1.01586 1.73903 0
M  V30 2892 C 278.05 -1.45376 3.14749 0
M  V30 2893 C 277.111 -0.822099 4.21355 0
M  V30 2894 C 276.344 -1.85353 5.0048 0
M  V30 2895 O 276.567 -3.07656 4.80316 0
M  V30 2896 O 275.501 -1.4406 5.84406 0
M  V30 2897 H 279.327 0.286002 3.0235 0
M  V30 2898 H 276.912 0.20598 1.47973 0
M  V30 2899 H 278.794 -2.08173 3.66391 0
M  V30 2900 H 277.469 -2.09445 2.46809 0
M  V30 2901 H 276.376 -0.155909 3.73775 0
M  V30 2902 H 277.709 -0.224797 4.91686 0
M  V30 2903 N 279.361 -1.56624 0.175154 0
M  V30 2904 C 280.293 -2.15333 -0.785128 0
M  V30 2905 C 281.306 -1.1099 -1.19101 0
M  V30 2906 O 282.495 -1.38162 -1.13019 0
M  V30 2907 C 279.595 -2.68427 -2.06882 0
M  V30 2908 C 278.768 -3.97466 -1.8259 0
M  V30 2909 C 277.827 -4.35585 -2.95215 0
M  V30 2910 O 276.853 -5.03389 -2.65684 0
M  V30 2911 N 278.055 -3.97457 -4.23094 0
M  V30 2912 H 280.82 -2.98359 -0.283187 0
M  V30 2913 H 278.381 -1.61898 -0.00749817 0
M  V30 2914 H 280.373 -2.90924 -2.81328 0
M  V30 2915 H 278.943 -1.89968 -2.48256 0
M  V30 2916 H 278.163 -3.83307 -0.920287 0
M  V30 2917 H 279.451 -4.81736 -1.63733 0
M  V30 2918 H 278.849 -3.42878 -4.49945 0
M  V30 2919 H 277.406 -4.24947 -4.9423 0
M  V30 2920 O 280.878 -0.0374081 -1.61457 0
M  V30 2921 H 281.569 0.573968 -1.85001 0
M  V30 END ATOM
M  V30 BEGIN BOND
M  V30 END BOND
M  V30 END CTAB
M  END
$$$$
