drugbank_target|P41238 C->U-editing enzyme APOBEC-1 (DB14533; DB14548)
 OpenBabel12092121223D

  0  0  0     0  0            999 V3000
M  V30 BEGIN CTAB
M  V30 COUNTS 3930 4002 0 0 0
M  V30 BEGIN ATOM
M  V30 1 H -0.908 1.98254 -0.117106 0
M  V30 2 N 0 1.576 0 0
M  V30 3 C 0.933 2.03868 1.02534 0
M  V30 4 C 1.911 0.928543 1.3348 0
M  V30 5 O 3.095 1.19667 1.45644 0
M  V30 6 C 0.222 2.43627 2.35294 0
M  V30 7 C -0.732 3.65373 2.2001 0
M  V30 8 S 0.101 5.13292 1.52614 0
M  V30 9 C 1.257 5.56322 2.86805 0
M  V30 10 H 1.49 2.90518 0.631377 0
M  V30 11 H -0.977 1.52953 0.210867 0
M  V30 12 H 0.981 2.67203 3.11629 0
M  V30 13 H -0.358 1.57376 2.7183 0
M  V30 14 H -1.165 3.90944 3.18086 0
M  V30 15 H -1.563 3.418 1.51819 0
M  V30 16 H 0.729 5.58782 3.83104 0
M  V30 17 H 1.672 6.56266 2.65933 0
M  V30 18 H 2.08 4.83886 2.90714 0
M  V30 19 N 1.4781 -0.272755 1.55222 0
M  V30 20 C 2.7061 -1.02255 1.79865 0
M  V30 21 C 3.1211 -1.79924 0.572088 0
M  V30 22 O 2.4781 -1.76638 -0.458842 0
M  V30 23 C 2.5291 -1.98094 3.02392 0
M  V30 24 O 2.2501 -1.23572 4.20311 0
M  V30 25 C 3.7511 -2.84884 3.39641 0
M  V30 26 H 0.9711 -0.302057 0.599168 0
M  V30 27 H 3.5151 -0.303465 2.02236 0
M  V30 28 H 1.6701 -2.65465 2.82147 0
M  V30 29 H 2.0841 -1.88172 4.89583 0
M  V30 30 H 3.5581 -3.47927 4.28545 0
M  V30 31 H 4.0351 -3.54665 2.59055 0
M  V30 32 H 4.6411 -2.23003 3.62146 0
M  V30 33 N 2.9562 -1.48159 -0.537278 0
M  V30 34 C 4.1812 -1.59707 -1.32319 0
M  V30 35 C 4.6062 -0.254859 -1.86365 0
M  V30 36 O 3.9642 0.772378 -1.64024 0
M  V30 37 C 4.0122 -2.6412 -2.45505 0
M  V30 38 O 3.1162 -2.20774 -3.48328 0
M  V30 39 H 2.4572 -0.535791 -0.392204 0
M  V30 40 H 4.9872 -1.94092 -0.647268 0
M  V30 41 H 4.9972 -2.85166 -2.91795 0
M  V30 42 H 3.6722 -3.61567 -2.05528 0
M  V30 43 H 2.2492 -2.09911 -3.08207 0
M  V30 44 N 4.4343 0.785586 -1.36625 0
M  V30 45 C 5.3443 1.92964 -1.33425 0
M  V30 46 C 6.3603 1.72394 -0.235851 0
M  V30 47 O 7.5363 1.95866 -0.468878 0
M  V30 48 C 4.6013 3.27884 -1.12662 0
M  V30 49 C 3.6623 3.61204 -2.32013 0
M  V30 50 C 2.8953 4.89687 -2.12231 0
M  V30 51 O 3.1183 5.59704 -1.09945 0
M  V30 52 O 2.0523 5.21752 -3.00098 0
M  V30 53 H 5.8783 1.98613 -2.29753 0
M  V30 54 H 3.4633 0.926384 -1.17211 0
M  V30 55 H 5.3453 4.08614 -1.03016 0
M  V30 56 H 4.0203 3.23118 -0.193991 0
M  V30 57 H 2.9273 2.80765 -2.47228 0
M  V30 58 H 4.2603 3.70698 -3.23796 0
M  V30 59 N 5.9124 1.20967 1.01018 0
M  V30 60 C 6.8594 0.964281 2.09691 0
M  V30 61 C 7.8294 -0.107853 1.65749 0
M  V30 62 O 9.0144 0.0381987 1.90762 0
M  V30 63 C 6.1544 0.52943 3.41015 0
M  V30 64 C 5.2674 1.67043 3.98398 0
M  V30 65 C 4.4024 1.18525 5.17808 0
M  V30 66 C 3.4414 2.29892 5.67288 0
M  V30 67 N 2.5784 1.82546 6.77954 0
M  V30 68 H 7.4184 1.89463 2.30017 0
M  V30 69 H 4.9554 0.944289 1.1279 0
M  V30 70 H 6.9134 0.258588 4.16398 0
M  V30 71 H 5.5434 -0.363919 3.20742 0
M  V30 72 H 4.5954 2.05603 3.20049 0
M  V30 73 H 5.9074 2.50877 4.31117 0
M  V30 74 H 5.0614 0.870762 6.00419 0
M  V30 75 H 3.8004 0.316887 4.86669 0
M  V30 76 H 2.8054 2.6215 4.83278 0
M  V30 77 H 4.0304 3.17216 6.00459 0
M  V30 78 H 1.9764 0.980454 6.48632 0
M  V30 79 H 1.8934 2.59956 7.09901 0
M  V30 80 H 3.1614 1.54115 7.64113 0
M  V30 81 N 7.3905 -1.2043 1.01659 0
M  V30 82 C 8.6385 -1.89423 0.704522 0
M  V30 83 C 8.9595 -1.79231 -0.768197 0
M  V30 84 O 8.2295 -1.1947 -1.55254 0
M  V30 85 H 6.8095 -0.701178 0.257602 0
M  V30 86 H 9.4715 -1.4626 1.28818 0
M  V30 87 H 8.5675 -2.96052 0.987916 0
M  V30 88 N 8.8686 -0.792821 -1.36206 0
M  V30 89 C 10.2796 -0.429513 -1.81692 0
M  V30 90 C 10.6306 1.04695 -1.65932 0
M  V30 91 O 9.7556 1.81256 -1.18218 0
M  V30 92 C 10.3506 -0.772831 -3.29868 0
M  V30 93 C 8.9096 -0.462307 -3.7355 0
M  V30 94 C 8.0566 -1.00569 -2.5842 0
M  V30 95 H 11.0076 -0.985672 -1.24379 0
M  V30 96 H 11.0286 -0.0651928 -3.80444 0
M  V30 97 H 10.5406 -1.84747 -3.41307 0
M  V30 98 H 8.6416 0.604158 -3.67669 0
M  V30 99 H 8.7546 -0.985299 -4.68859 0
M  V30 100 H 7.1186 -0.428734 -2.51066 0
M  V30 101 H 7.9016 -2.08616 -2.72643 0
M  V30 102 N 10.3467 1.47872 -0.545128 0
M  V30 103 C 11.5717 2.07391 -0.0190611 0
M  V30 104 C 11.9967 1.39688 1.25971 0
M  V30 105 O 11.3547 0.467816 1.7516 0
M  V30 106 C 11.4027 3.60188 0.172335 0
M  V30 107 O 10.5067 3.9339 1.23766 0
M  V30 108 H 9.8477 0.662411 -0.0459059 0
M  V30 109 H 12.3777 1.90066 -0.757365 0
M  V30 110 H 12.3877 4.06129 0.390305 0
M  V30 111 H 11.0627 4.08865 -0.761725 0
M  V30 112 H 9.6397 3.5921 1.00114 0
M  V30 113 N 11.8248 0.280983 1.55075 0
M  V30 114 C 13.0528 -0.337293 2.04132 0
M  V30 115 C 13.4678 -1.4903 1.15912 0
M  V30 116 O 12.8248 -1.81606 0.180459 0
M  V30 117 C 12.8758 -0.812706 3.52246 0
M  V30 118 O 12.5968 0.294387 4.3711 0
M  V30 119 C 14.0978 -1.4982 4.17216 0
M  V30 120 H 11.3178 -0.0761638 0.666663 0
M  V30 121 H 13.8618 0.414787 2.00249 0
M  V30 122 H 12.0168 -1.51486 3.56554 0
M  V30 123 H 12.4308 -0.0721325 5.2445 0
M  V30 124 H 13.9048 -1.7822 5.22438 0
M  V30 125 H 14.3818 -2.43168 3.65741 0
M  V30 126 H 14.9878 -0.839742 4.16927 0
M  V30 127 N 13.3029 -1.57598 0.00835791 0
M  V30 128 C 14.5509 -1.90551 -0.6734 0
M  V30 129 C 14.8719 -0.883301 -1.73847 0
M  V30 130 O 14.1419 0.0781442 -1.95744 0
M  V30 131 H 12.7219 -0.703312 -0.251717 0
M  V30 132 H 15.3839 -1.94833 0.0512592 0
M  V30 133 H 14.4799 -2.9056 -1.13935 0
M  V30 134 N 14.781 0.264519 -1.55364 0
M  V30 135 C 16.058 1.01677 -1.67096 0
M  V30 136 C 16.438 2.03996 -0.543015 0
M  V30 137 O 15.786 2.23907 0.45585 0
M  V30 138 C 15.996 1.66596 -3.0667 0
M  V30 139 C 17.344 2.17442 -3.64697 0
M  V30 140 O 18.368 1.76568 -3.09358 0
M  V30 141 O 17.227 2.92439 -4.61673 0
M  V30 142 H 14.321 0.472161 -0.678965 0
M  V30 143 H 16.867 0.259703 -1.67701 0
M  V30 144 H 15.639 0.924962 -3.80211 0
M  V30 145 H 15.262 2.48968 -3.10001 0
M  V30 146 N 16.2591 1.48442 0.529413 0
M  V30 147 C 17.6701 1.5002 1.11134 0
M  V30 148 C 18.0211 0.27031 1.94329 0
M  V30 149 O 17.1461 -0.622507 2.07253 0
M  V30 150 C 17.7411 2.71834 2.02217 0
M  V30 151 C 16.3001 2.76283 2.55627 0
M  V30 152 C 15.4471 2.43542 1.326 0
M  V30 153 H 18.3981 1.5555 0.314641 0
M  V30 154 H 18.4191 2.50384 2.8651 0
M  V30 155 H 17.9311 3.61331 1.41639 0
M  V30 156 H 16.0321 1.90995 3.19924 0
M  V30 157 H 16.1451 3.77725 2.94721 0
M  V30 158 H 14.5091 1.94709 1.64196 0
M  V30 159 H 15.2921 3.3528 0.737734 0
M  V30 160 N 17.7372 -0.778329 1.37039 0
M  V30 161 C 18.9652 -1.56734 1.35063 0
M  V30 162 C 19.3802 -1.88686 -0.0655597 0
M  V30 163 O 18.7372 -1.5096 -1.02554 0
M  V30 164 C 18.7882 -2.88163 2.18276 0
M  V30 165 O 18.5092 -2.57583 3.54376 0
M  V30 166 C 20.0102 -3.82422 2.24206 0
M  V30 167 H 17.2302 -0.485778 0.462883 0
M  V30 168 H 19.7742 -0.965185 1.8029 0
M  V30 169 H 17.9292 -3.44818 1.76576 0
M  V30 170 H 18.3432 -3.41699 3.97922 0
M  V30 171 H 19.8172 -4.71667 2.86765 0
M  V30 172 H 20.2942 -4.21078 1.24861 0
M  V30 173 H 20.9002 -3.31697 2.6619 0
M  V30 174 N 19.2153 -1.21501 -1.00376 0
M  V30 175 C 20.1453 -0.999478 -2.11028 0
M  V30 176 C 21.1263 0.0759671 -1.6993 0
M  V30 177 O 22.3113 -0.0841106 -1.94018 0
M  V30 178 C 19.4413 -0.564709 -3.42678 0
M  V30 179 C 18.3953 -1.58486 -3.97576 0
M  V30 180 C 17.7213 -1.00628 -5.25146 0
M  V30 181 C 19.0213 -2.97204 -4.29496 0
M  V30 182 H 20.7153 -1.92495 -2.29317 0
M  V30 183 H 18.2613 -0.92693 -1.102 0
M  V30 184 H 20.2143 -0.401091 -4.19487 0
M  V30 185 H 18.9383 0.396411 -3.24185 0
M  V30 186 H 17.5973 -1.73606 -3.22888 0
M  V30 187 H 17.2453 -0.0368439 -5.02987 0
M  V30 188 H 16.9453 -1.68771 -5.62841 0
M  V30 189 H 18.4693 -0.854015 -6.04598 0
M  V30 190 H 19.8833 -2.8552 -4.97143 0
M  V30 191 H 18.2803 -3.62372 -4.78338 0
M  V30 192 H 19.3503 -3.47956 -3.3772 0
M  V30 193 N 20.6934 1.19889 -1.02296 0
M  V30 194 C 22.1094 1.41462 -0.738954 0
M  V30 195 C 22.3094 1.89721 0.678846 0
M  V30 196 O 21.3654 2.07016 1.4457 0
M  V30 197 C 22.6784 2.43083 -1.77005 0
M  V30 198 C 24.2264 2.5684 -1.78892 0
M  V30 199 C 24.7014 3.61709 -2.80945 0
M  V30 200 N 26.1924 3.69199 -2.79725 0
M  V30 201 C 26.9274 4.50019 -3.55345 0
M  V30 202 N 26.4234 5.34592 -4.40662 0
M  V30 203 N 28.2164 4.44612 -3.43914 0
M  V30 204 H 20.3674 0.868827 -1.93817 0
M  V30 205 H 22.6304 0.44399 -0.837602 0
M  V30 206 H 22.3364 2.14636 -2.78612 0
M  V30 207 H 22.2104 3.4217 -1.58744 0
M  V30 208 H 24.5974 2.84614 -0.779674 0
M  V30 209 H 24.6784 1.57927 -2.01228 0
M  V30 210 H 24.3224 3.34678 -3.82038 0
M  V30 211 H 24.2524 4.60259 -2.5587 0
M  V30 212 H 26.7434 3.08794 -2.17842 0
M  V30 213 H 27.0564 5.93363 -4.95116 0
M  V30 214 H 25.4014 5.34073 -4.44737 0
M  V30 215 H 28.5924 3.7758 -2.76679 0
M  V30 216 H 28.7654 5.0736 -4.031 0
M  V30 217 N 22.1715 0.800033 1.35784 0
M  V30 218 C 23.5875 0.482977 1.52117 0
M  V30 219 C 23.7875 -0.996948 1.75109 0
M  V30 220 O 22.8435 -1.78216 1.78872 0
M  V30 221 C 24.1565 1.32264 2.70049 0
M  V30 222 C 25.7045 1.31742 2.83924 0
M  V30 223 C 26.1795 2.14106 4.04874 0
M  V30 224 N 27.6705 2.11607 4.12039 0
M  V30 225 C 28.4055 2.72099 5.04727 0
M  V30 226 N 27.9015 3.41492 6.02789 0
M  V30 227 N 29.6945 2.61776 4.97423 0
M  V30 228 H 21.8455 1.75856 1.19115 0
M  V30 229 H 24.1085 0.748122 0.582252 0
M  V30 230 H 23.8145 2.37261 2.59616 0
M  V30 231 H 23.6885 0.971303 3.6448 0
M  V30 232 H 26.0755 0.275333 2.93813 0
M  V30 233 H 26.1565 1.70859 1.9037 0
M  V30 234 H 25.8005 3.18351 3.95746 0
M  V30 235 H 25.7305 1.72353 4.97596 0
M  V30 236 H 28.2215 1.61112 3.41835 0
M  V30 237 H 28.5345 3.84953 6.70098 0
M  V30 238 H 26.8795 3.45596 6.02983 0
M  V30 239 H 30.0705 2.07157 4.19766 0
M  V30 240 H 30.2435 3.0921 5.69468 0
M  V30 241 N 23.6496 -1.47581 0.552962 0
M  V30 242 C 25.0656 -1.5818 0.212424 0
M  V30 243 C 25.2656 -1.55213 -1.28496 0
M  V30 244 O 24.3216 -1.45329 -2.06484 0
M  V30 245 C 25.6346 -2.88865 0.835318 0
M  V30 246 C 27.1826 -3.0244 0.806156 0
M  V30 247 C 27.6576 -4.35819 1.40804 0
M  V30 248 N 29.1486 -4.42444 1.37103 0
M  V30 249 C 29.8836 -5.44202 1.80641 0
M  V30 250 N 29.3796 -6.52795 2.32015 0
M  V30 251 N 31.1726 -5.35222 1.71738 0
M  V30 252 H 23.3236 -1.47753 1.52587 0
M  V30 253 H 25.5866 -0.702941 0.636064 0
M  V30 254 H 25.2926 -2.9676 1.88749 0
M  V30 255 H 25.1666 -3.7579 0.325848 0
M  V30 256 H 27.5536 -2.94144 -0.237317 0
M  V30 257 H 27.6346 -2.17068 1.35334 0
M  V30 258 H 27.2786 -4.44871 2.45056 0
M  V30 259 H 27.2086 -5.19916 0.836338 0
M  V30 260 H 29.6996 -3.6456 0.995202 0
M  V30 261 H 30.0126 -7.26609 2.63171 0
M  V30 262 H 28.3576 -6.53696 2.36023 0
M  V30 263 H 31.5486 -4.49284 1.31382 0
M  V30 264 H 31.7216 -6.14389 2.05987 0
M  V30 265 N 25.1277 -0.289203 -1.54924 0
M  V30 266 C 26.3767 0.324231 -1.99077 0
M  V30 267 C 26.6897 1.5591 -1.18117 0
M  V30 268 O 27.8957 2.24637 -1.52481 0
M  V30 269 C 26.3517 0.628209 -3.54375 0
M  V30 270 C 25.9597 -0.587647 -4.44129 0
M  V30 271 C 27.7037 1.20349 -4.07083 0
M  V30 272 C 25.6107 -0.257475 -5.90839 0
M  V30 273 H 24.5407 0.124924 -0.743579 0
M  V30 274 H 27.1917 -0.396063 -1.79175 0
M  V30 275 H 25.5737 1.40778 -3.70132 0
M  V30 276 H 26.7477 -1.36418 -4.40144 0
M  V30 277 H 25.0627 -1.08074 -4.0213 0
M  V30 278 H 27.6597 1.46456 -5.14252 0
M  V30 279 H 28.0027 2.14195 -3.56968 0
M  V30 280 H 28.5357 0.485889 -3.94821 0
M  V30 281 H 25.2747 -1.16419 -6.45079 0
M  V30 282 H 24.7947 0.482018 -5.9786 0
M  V30 283 H 26.4737 0.145238 -6.46837 0
M  V30 284 N 26.6058 1.57591 -0.0167156 0
M  V30 285 C 27.5158 2.1291 0.98521 0
M  V30 286 C 28.5318 1.07834 1.36557 0
M  V30 287 O 29.7078 1.39826 1.44951 0
M  V30 288 C 26.7728 2.63512 2.25305 0
M  V30 289 C 25.8338 3.83256 1.93426 0
M  V30 290 C 25.0668 4.31435 3.14165 0
M  V30 291 O 25.2898 3.78851 4.26413 0
M  V30 292 O 24.2238 5.23416 2.97186 0
M  V30 293 H 28.0498 2.98772 0.544888 0
M  V30 294 H 25.6348 1.48012 0.203141 0
M  V30 295 H 27.5168 2.96183 2.99756 0
M  V30 296 H 26.1918 1.8074 2.68542 0
M  V30 297 H 25.0988 3.55531 1.16398 0
M  V30 298 H 26.4318 4.67153 1.55013 0
M  V30 299 N 28.0839 -0.256276 1.55502 0
M  V30 300 C 29.4949 -0.826068 1.67431 0
M  V30 301 C 29.8459 -1.86396 0.612446 0
M  V30 302 O 28.9709 -2.15031 -0.243025 0
M  V30 303 C 29.5659 -1.50512 3.03532 0
M  V30 304 C 28.1249 -2.02273 3.17431 0
M  V30 305 C 27.2719 -0.870548 2.63281 0
M  V30 306 H 30.2229 -0.0322728 1.58667 0
M  V30 307 H 30.2439 -2.37279 2.97454 0
M  V30 308 H 29.7559 -0.749484 3.80794 0
M  V30 309 H 27.8569 -2.80746 2.44974 0
M  V30 310 H 27.9699 -2.22655 4.24219 0
M  V30 311 H 26.3339 -1.26851 2.20864 0
M  V30 312 H 27.1169 -0.128149 3.43061 0
M  V30 313 N 29.562 -1.4872 -0.521534 0
M  V30 314 C 30.808 -1.58378 -1.27624 0
M  V30 315 C 31.163 -0.258028 -1.90662 0
M  V30 316 O 30.456 0.739917 -1.76736 0
M  V30 317 C 30.65 -2.66497 -2.38148 0
M  V30 318 C 30.479 -4.09456 -1.85945 0
M  V30 319 C 29.249 -4.76495 -1.68168 0
M  V30 320 C 31.447 -4.95353 -1.3831 0
M  V30 321 N 29.429 -6.0384 -1.1068 0
M  V30 322 C 30.8 -6.13012 -0.928238 0
M  V30 323 C 32.855 -4.81512 -1.26692 0
M  V30 324 C 31.558 -7.18354 -0.368701 0
M  V30 325 C 33.584 -5.86984 -0.721368 0
M  V30 326 C 32.946 -7.03857 -0.276623 0
M  V30 327 H 29.045 -0.634045 -0.457724 0
M  V30 328 H 31.629 -1.85639 -0.587049 0
M  V30 329 H 29.8 -2.41043 -3.04553 0
M  V30 330 H 31.532 -2.65791 -3.05184 0
M  V30 331 H 28.287 -4.32962 -1.91939 0
M  V30 332 H 28.711 -6.71778 -0.839217 0
M  V30 333 H 33.353 -3.91487 -1.5968 0
M  V30 334 H 31.071 -8.08096 -0.0265122 0
M  V30 335 H 34.657 -5.78329 -0.634531 0
M  V30 336 H 33.537 -7.84077 0.138947 0
M  V30 337 N 31.0401 0.771051 -1.3745 0
M  V30 338 C 31.9501 1.91538 -1.35464 0
M  V30 339 C 32.9661 1.72134 -0.254123 0
M  V30 340 O 34.1421 1.95358 -0.489626 0
M  V30 341 C 31.2071 3.26671 -1.16134 0
M  V30 342 C 30.2681 3.58723 -2.35831 0
M  V30 343 C 29.5011 4.87409 -2.17413 0
M  V30 344 O 29.7241 5.58506 -1.15876 0
M  V30 345 O 28.6581 5.18539 -3.05615 0
M  V30 346 H 32.4841 1.96165 -2.31847 0
M  V30 347 H 30.0691 0.9139 -1.18187 0
M  V30 348 H 31.9511 4.07499 -1.07345 0
M  V30 349 H 30.6261 3.22894 -0.228251 0
M  V30 350 H 29.5331 2.78127 -2.50192 0
M  V30 351 H 30.8661 3.67243 -3.27709 0
M  V30 352 N 32.5182 1.22032 0.997298 0
M  V30 353 C 33.7652 1.04222 1.73621 0
M  V30 354 C 34.0932 -0.423264 1.89839 0
M  V30 355 O 33.3482 -1.3302 1.43542 0
M  V30 356 C 33.6472 1.69345 3.14733 0
M  V30 357 C 33.3132 3.19226 3.18442 0
M  V30 358 C 31.9752 3.60124 3.19161 0
M  V30 359 C 34.3272 4.15181 3.15078 0
M  V30 360 C 31.6552 4.95467 3.14212 0
M  V30 361 C 34.0072 5.50495 3.1167 0
M  V30 362 C 32.6712 5.90779 3.10703 0
M  V30 363 H 31.9412 0.381374 0.635323 0
M  V30 364 H 34.5882 1.51732 1.16831 0
M  V30 365 H 32.8932 1.14147 3.74803 0
M  V30 366 H 34.5902 1.53059 3.7064 0
M  V30 367 H 31.1802 2.86659 3.18629 0
M  V30 368 H 35.3642 3.84605 3.13676 0
M  V30 369 H 30.6202 5.25916 3.11805 0
M  V30 370 H 34.7942 6.24576 3.08022 0
M  V30 371 H 32.4212 6.9562 3.06622 0
M  V30 372 N 33.9963 -1.19345 1.0293 0
M  V30 373 C 35.2733 -1.84811 0.640642 0
M  V30 374 C 35.6533 -1.91855 -0.88062 0
M  V30 375 O 35.0013 -1.43587 -1.7775 0
M  V30 376 C 35.2113 -3.23755 1.30321 0
M  V30 377 C 36.5593 -3.99912 1.42673 0
M  V30 378 O 37.5833 -3.33155 1.26041 0
M  V30 379 O 36.4423 -5.19494 1.6967 0
M  V30 380 H 33.5363 -0.796443 0.222726 0
M  V30 381 H 36.0823 -1.26831 1.12748 0
M  V30 382 H 34.8543 -3.13466 2.34211 0
M  V30 383 H 34.4773 -3.89381 0.804261 0
M  V30 384 N 35.4744 -0.807222 -1.35358 0
M  V30 385 C 36.7204 -0.388463 -1.99045 0
M  V30 386 C 37.0534 1.04184 -1.63888 0
M  V30 387 O 36.3284 1.72292 -0.902535 0
M  V30 388 C 36.6114 -0.572783 -3.55515 0
M  V30 389 C 36.4644 -2.04807 -4.00468 0
M  V30 390 C 37.7834 0.00114064 -4.401 0
M  V30 391 H 34.9024 -0.142619 -0.723069 0
M  V30 392 H 37.5444 -1.01687 -1.60498 0
M  V30 393 H 35.6944 -0.0378425 -3.88482 0
M  V30 394 H 37.3664 -2.64544 -3.77908 0
M  V30 395 H 35.6094 -2.54427 -3.51353 0
M  V30 396 H 36.2804 -2.12792 -5.09337 0
M  V30 397 H 38.7564 -0.455716 -4.13597 0
M  V30 398 H 37.6324 -0.157737 -5.48673 0
M  V30 399 H 37.8934 1.09488 -4.28328 0
M  V30 400 N 36.9525 1.47285 -0.560781 0
M  V30 401 C 38.1995 2.02464 -0.038062 0
M  V30 402 C 38.5275 1.43474 1.31322 0
M  V30 403 O 37.7825 0.581311 1.86867 0
M  V30 404 C 38.0815 3.57258 0.100784 0
M  V30 405 C 37.7475 4.35184 -1.18007 0
M  V30 406 C 36.4095 4.56194 -1.53103 0
M  V30 407 C 38.7615 4.80098 -2.02867 0
M  V30 408 C 36.0895 5.19367 -2.729 0
M  V30 409 C 38.4415 5.44593 -3.21871 0
M  V30 410 C 37.1055 5.63835 -3.57276 0
M  V30 411 H 36.3755 0.740869 -0.0139279 0
M  V30 412 H 39.0225 1.76916 -0.733012 0
M  V30 413 H 37.3275 3.81819 0.878724 0
M  V30 414 H 39.0245 3.97606 0.520639 0
M  V30 415 H 35.6145 4.19113 -0.8968 0
M  V30 416 H 39.7985 4.63642 -1.7706 0
M  V30 417 H 35.0545 5.32459 -3.00496 0
M  V30 418 H 39.2285 5.78358 -3.87911 0
M  V30 419 H 36.8555 6.12557 -4.50197 0
M  V30 420 N 38.4306 0.297415 1.54768 0
M  V30 421 C 39.6606 -0.315165 2.04182 0
M  V30 422 C 40.0686 -1.4834 1.17439 0
M  V30 423 O 39.4116 -1.82695 0.191891 0
M  V30 424 C 39.4736 -0.837583 3.49607 0
M  V30 425 C 39.1376 0.204912 4.5654 0
M  V30 426 C 40.1346 1.03214 5.09552 0
M  V30 427 C 37.8196 0.345578 5.0111 0
M  V30 428 C 39.8136 1.986 6.05671 0
M  V30 429 C 37.5006 1.30289 5.97049 0
M  V30 430 C 38.4986 2.12159 6.49213 0
M  V30 431 O 38.1866 3.06268 7.43273 0
M  V30 432 H 37.9186 -0.0729646 0.672051 0
M  V30 433 H 40.4726 0.433907 2.00765 0
M  V30 434 H 38.7026 -1.63712 3.50336 0
M  V30 435 H 40.3916 -1.36566 3.82236 0
M  V30 436 H 41.1576 0.934312 4.75916 0
M  V30 437 H 37.0366 -0.28171 4.60138 0
M  V30 438 H 40.5806 2.62542 6.46311 0
M  V30 439 H 36.4776 1.40145 6.30103 0
M  V30 440 H 37.2456 3.01205 7.61064 0
M  V30 441 N 39.9087 -1.5758 0.0250728 0
M  V30 442 C 41.1857 -1.82917 -0.692873 0
M  V30 443 C 41.5657 -0.908137 -1.90568 0
M  V30 444 O 40.9137 0.0372298 -2.2847 0
M  V30 445 C 41.1237 -3.32034 -1.07492 0
M  V30 446 C 42.4717 -3.98406 -1.46826 0
M  V30 447 O 43.4957 -3.36505 -1.16801 0
M  V30 448 O 42.3547 -5.07497 -2.02754 0
M  V30 449 H 39.4487 -0.754079 -0.33955 0
M  V30 450 H 41.9947 -1.69619 0.0524456 0
M  V30 451 H 40.7667 -3.90728 -0.211552 0
M  V30 452 H 40.3897 -3.50424 -1.87854 0
M  V30 453 N 41.3868 0.248026 -1.55636 0
M  V30 454 C 42.7978 0.817177 -1.67866 0
M  V30 455 C 43.1488 1.86069 -0.622322 0
M  V30 456 O 42.2738 2.15157 0.231618 0
M  V30 457 C 42.8688 1.489 -3.04326 0
M  V30 458 C 41.4278 2.00587 -3.185 0
M  V30 459 C 40.5748 0.856573 -2.63739 0
M  V30 460 H 43.5258 0.0238579 -1.58682 0
M  V30 461 H 43.5468 2.35698 -2.98708 0
M  V30 462 H 43.0588 0.729279 -3.81186 0
M  V30 463 H 41.1598 2.79443 -2.4646 0
M  V30 464 H 41.2728 2.20402 -4.25393 0
M  V30 465 H 39.6368 1.25678 -2.21534 0
M  V30 466 H 40.4198 0.109953 -3.43124 0
M  V30 467 N 42.8649 1.48995 0.513639 0
M  V30 468 C 44.2809 1.35478 0.843682 0
M  V30 469 C 44.4809 0.378213 1.97919 0
M  V30 470 O 43.5369 -0.194689 2.51748 0
M  V30 471 C 44.8499 2.75901 1.1958 0
M  V30 472 C 46.3979 2.84509 1.30474 0
M  V30 473 C 46.8729 4.25671 1.69021 0
M  V30 474 N 48.3639 4.28422 1.76094 0
M  V30 475 C 49.0989 5.34601 2.07338 0
M  V30 476 N 48.5949 6.5104 2.36894 0
M  V30 477 N 50.3879 5.22007 2.08483 0
M  V30 478 H 42.5389 2.11092 -0.235328 0
M  V30 479 H 44.8019 0.947039 -0.0426669 0
M  V30 480 H 44.5079 3.49001 0.434913 0
M  V30 481 H 44.3819 3.10467 2.1422 0
M  V30 482 H 46.7689 2.11655 2.05637 0
M  V30 483 H 46.8499 2.53542 0.339155 0
M  V30 484 H 46.4939 4.99048 0.944135 0
M  V30 485 H 46.4239 4.54094 2.66658 0
M  V30 486 H 48.9149 3.44441 1.55464 0
M  V30 487 H 49.2279 7.2779 2.59887 0
M  V30 488 H 47.5729 6.54287 2.34378 0
M  V30 489 H 50.7639 4.30051 1.84861 0
M  V30 490 H 50.9369 6.04854 2.325 0
M  V30 491 N 44.343 -0.763751 1.37857 0
M  V30 492 C 45.253 -1.90817 1.36478 0
M  V30 493 C 46.269 -1.71997 0.263248 0
M  V30 494 O 47.445 -1.95095 0.499979 0
M  V30 495 C 44.51 -3.2605 1.17864 0
M  V30 496 C 43.571 -3.57467 2.3773 0
M  V30 497 C 42.804 -4.86249 2.19995 0
M  V30 498 O 43.027 -5.57884 1.18836 0
M  V30 499 O 41.961 -5.16911 3.08361 0
M  V30 500 H 45.787 -1.94933 2.32884 0
M  V30 501 H 43.372 -0.907619 1.1867 0
M  V30 502 H 45.254 -4.06924 1.09504 0
M  V30 503 H 43.929 -3.22769 0.245372 0
M  V30 504 H 42.836 -2.76796 2.51664 0
M  V30 505 H 44.169 -3.655 3.29652 0
M  V30 506 N 45.8211 -1.22559 -0.990812 0
M  V30 507 C 46.7511 -1.0218 -2.09956 0
M  V30 508 C 47.7321 0.0579394 -1.70001 0
M  V30 509 O 48.9171 -0.104684 -1.93918 0
M  V30 510 C 46.0471 -0.601023 -3.4206 0
M  V30 511 C 45.0011 -1.62694 -3.95872 0
M  V30 512 C 44.3271 -1.06193 -5.24049 0
M  V30 513 C 45.6271 -3.01743 -4.2632 0
M  V30 514 H 47.3211 -1.94916 -2.27262 0
M  V30 515 H 44.8671 -0.938566 -1.09211 0
M  V30 516 H 46.8201 -0.445561 -4.19038 0
M  V30 517 H 45.5441 0.362005 -3.24588 0
M  V30 518 H 44.2031 -1.77021 -3.21028 0
M  V30 519 H 43.8511 -0.0901903 -5.02919 0
M  V30 520 H 43.5511 -1.74732 -5.61019 0
M  V30 521 H 45.0751 -0.918092 -6.03658 0
M  V30 522 H 46.4891 -2.90777 -4.94087 0
M  V30 523 H 44.8861 -3.67425 -4.74467 0
M  V30 524 H 45.9561 -3.51518 -3.34011 0
M  V30 525 N 47.2992 1.18797 -1.03562 0
M  V30 526 C 48.7152 1.40671 -0.753917 0
M  V30 527 C 48.9152 1.9043 0.658686 0
M  V30 528 O 47.9712 2.08538 1.42366 0
M  V30 529 C 49.2842 2.41192 -1.79574 0
M  V30 530 C 50.8322 2.54928 -1.81606 0
M  V30 531 C 51.3072 3.58709 -2.84766 0
M  V30 532 N 52.7982 3.66212 -2.83625 0
M  V30 533 C 53.5332 4.46225 -3.60098 0
M  V30 534 N 53.0292 5.29888 -4.46308 0
M  V30 535 N 54.8222 4.40939 -3.4861 0
M  V30 536 H 46.9732 0.848221 -1.94728 0
M  V30 537 H 49.2362 0.435081 -0.842264 0
M  V30 538 H 48.9422 2.11669 -2.80872 0
M  V30 539 H 48.8162 3.40467 -1.62365 0
M  V30 540 H 51.2032 2.83771 -0.809817 0
M  V30 541 H 51.2842 1.55784 -2.02891 0
M  V30 542 H 50.9282 3.30607 -3.85566 0
M  V30 543 H 50.8582 4.57519 -2.60737 0
M  V30 544 H 53.3492 3.06466 -2.21105 0
M  V30 545 H 53.6622 5.88078 -5.01382 0
M  V30 546 H 52.0072 5.29326 -4.50377 0
M  V30 547 H 55.1982 3.74624 -2.80668 0
M  V30 548 H 55.3712 5.03056 -4.08459 0
M  V30 549 N 48.7773 0.814389 1.34928 0
M  V30 550 C 49.7243 0.22822 2.29669 0
M  V30 551 C 50.6943 -0.642164 1.53184 0
M  V30 552 O 51.8793 -0.585605 1.81591 0
M  V30 553 C 49.0193 -0.61089 3.3965 0
M  V30 554 C 48.1323 0.280792 4.31086 0
M  V30 555 C 47.2673 -0.567067 5.28165 0
M  V30 556 C 46.3063 0.324531 6.11239 0
M  V30 557 N 45.4433 -0.483756 7.00431 0
M  V30 558 H 50.2833 1.04153 2.79206 0
M  V30 559 H 47.8203 0.525133 1.37407 0
M  V30 560 H 49.7783 -1.11263 4.0209 0
M  V30 561 H 48.4083 -1.38939 2.91369 0
M  V30 562 H 47.4603 0.900688 3.69583 0
M  V30 563 H 48.7723 0.966723 4.89342 0
M  V30 564 H 47.9263 -1.13363 5.96015 0
M  V30 565 H 46.6653 -1.28654 4.70425 0
M  V30 566 H 45.6703 0.903298 5.42329 0
M  V30 567 H 46.8953 1.04198 6.71059 0
M  V30 568 H 44.8413 -1.18706 6.45171 0
M  V30 569 H 44.7583 0.143965 7.55863 0
M  V30 570 H 46.0263 -1.03334 7.7262 0
M  V30 571 N 50.2554 -1.46986 0.568584 0
M  V30 572 C 51.1654 -2.33942 -0.17555 0
M  V30 573 C 52.1814 -1.48891 -0.90041 0
M  V30 574 O 53.3574 -1.81794 -0.86676 0
M  V30 575 C 50.4224 -3.25811 -1.18524 0
M  V30 576 C 49.4834 -4.26757 -0.466582 0
M  V30 577 C 48.7164 -5.14236 -1.42817 0
M  V30 578 O 48.9394 -5.04379 -2.66379 0
M  V30 579 O 47.8734 -5.94412 -0.946453 0
M  V30 580 H 51.6994 -2.98896 0.538036 0
M  V30 581 H 49.2844 -1.4573 0.329097 0
M  V30 582 H 51.1664 -3.82527 -1.76779 0
M  V30 583 H 49.8414 -2.63471 -1.88055 0
M  V30 584 H 48.7484 -3.73769 0.157451 0
M  V30 585 H 50.0814 -4.91843 0.187485 0
M  V30 586 N 51.7335 -0.305618 -1.54608 0
M  V30 587 C 52.6965 0.555591 -2.22364 0
M  V30 588 C 53.6965 1.05768 -1.21119 0
M  V30 589 O 54.8865 0.952972 -1.45822 0
M  V30 590 C 52.0185 1.76974 -2.91364 0
M  V30 591 H 53.2115 -0.0364572 -2.99878 0
M  V30 592 H 50.7645 -0.0565007 -1.56198 0
M  V30 593 H 51.4995 2.40151 -2.17941 0
M  V30 594 H 51.2845 1.41732 -3.65588 0
M  V30 595 H 52.7745 2.38148 -3.43038 0
M  V30 596 N 53.2116 1.57565 -0.0334293 0
M  V30 597 C 54.4516 1.93844 0.648379 0
M  V30 598 C 54.8156 0.910387 1.69044 0
M  V30 599 O 56.0166 1.15952 2.42505 0
M  V30 600 C 54.2876 3.35017 1.24492 0
M  V30 601 S 55.8466 3.93229 1.94721 0
M  V30 602 H 52.6646 0.678231 0.213364 0
M  V30 603 H 55.2666 1.95254 -0.0981253 0
M  V30 604 H 53.9706 4.07652 0.474128 0
M  V30 605 H 53.5016 3.37061 2.02864 0
M  V30 606 H 55.5166 3.77014 3.22606 0
M  V30 607 N 54.6897 -0.239769 1.55765 0
M  V30 608 C 55.6197 -1.30052 1.9393 0
M  V30 609 C 56.6007 -1.49839 0.805132 0
M  V30 610 O 57.7857 -1.62328 1.06599 0
M  V30 611 C 54.9157 -2.65391 2.2402 0
M  V30 612 C 53.8697 -2.60289 3.39755 0
M  V30 613 C 53.1957 -3.99489 3.55405 0
M  V30 614 C 54.4957 -2.16654 4.75246 0
M  V30 615 H 56.1897 -0.983573 2.82783 0
M  V30 616 H 53.7357 -0.471701 1.36055 0
M  V30 617 H 55.6887 -3.3974 2.49308 0
M  V30 618 H 54.4127 -2.98736 1.32 0
M  V30 619 H 53.0717 -1.88398 3.14487 0
M  V30 620 H 52.7197 -4.30112 2.60793 0
M  V30 621 H 52.4197 -3.96962 4.33238 0
M  V30 622 H 53.9437 -4.75528 3.83022 0
M  V30 623 H 55.3577 -2.80737 4.99859 0
M  V30 624 H 53.7547 -2.25223 5.56232 0
M  V30 625 H 54.8247 -1.11835 4.71827 0
M  V30 626 N 56.1678 -1.49265 -0.50573 0
M  V30 627 C 57.0978 -1.68495 -1.61653 0
M  V30 628 C 58.0788 -0.53366 -1.61512 0
M  V30 629 O 59.2638 -0.76897 -1.78327 0
M  V30 630 C 56.3938 -1.74709 -3.00157 0
M  V30 631 C 55.3478 -2.89581 -3.15162 0
M  V30 632 C 54.6738 -2.80903 -4.5497 0
M  V30 633 C 55.9738 -4.30578 -2.95634 0
M  V30 634 H 57.6678 -2.61493 -1.45814 0
M  V30 635 H 55.2138 -1.25838 -0.70005 0
M  V30 636 H 57.1668 -1.86748 -3.77761 0
M  V30 637 H 55.8908 -0.783067 -3.17074 0
M  V30 638 H 54.5498 -2.77136 -2.39982 0
M  V30 639 H 54.1978 -1.82419 -4.68756 0
M  V30 640 H 53.8978 -3.57999 -4.65951 0
M  V30 641 H 55.4218 -2.94944 -5.34641 0
M  V30 642 H 56.8358 -4.4373 -3.63011 0
M  V30 643 H 55.2328 -5.0886 -3.18091 0
M  V30 644 H 56.3028 -4.45352 -1.91806 0
M  V30 645 N 57.6459 0.756429 -1.3826 0
M  V30 646 C 58.8759 1.54341 -1.3734 0
M  V30 647 C 59.2839 1.89159 0.0393917 0
M  V30 648 O 58.6269 1.5307 1.01565 0
M  V30 649 C 58.6889 2.87238 -2.16182 0
M  V30 650 C 58.3529 2.74973 -3.65019 0
M  V30 651 C 59.3499 2.44962 -4.58574 0
M  V30 652 C 57.0349 2.92515 -4.08338 0
M  V30 653 C 59.0289 2.32642 -5.93428 0
M  V30 654 C 56.7159 2.79815 -5.43274 0
M  V30 655 C 57.7139 2.49921 -6.35632 0
M  V30 656 O 57.4019 2.37275 -7.68086 0
M  V30 657 H 57.1339 0.484281 -0.471643 0
M  V30 658 H 59.6879 0.944152 -1.82414 0
M  V30 659 H 57.9179 3.49342 -1.65822 0
M  V30 660 H 59.6069 3.48731 -2.07705 0
M  V30 661 H 60.3729 2.31081 -4.26412 0
M  V30 662 H 56.2519 3.14781 -3.368 0
M  V30 663 H 59.7959 2.0923 -6.65484 0
M  V30 664 H 55.6929 2.93269 -5.75034 0
M  V30 665 H 56.4609 2.52509 -7.78577 0
M  V30 666 N 59.124 1.23083 0.984299 0
M  V30 667 C 60.034 1.02515 2.11016 0
M  V30 668 C 61.05 -0.0291702 1.73976 0
M  V30 669 O 62.226 0.165434 2.00719 0
M  V30 670 C 59.291 0.614673 3.41208 0
M  V30 671 C 58.352 1.74359 3.92297 0
M  V30 672 C 57.585 1.35261 5.16275 0
M  V30 673 O 57.808 0.235136 5.69915 0
M  V30 674 O 56.742 2.17227 5.61334 0
M  V30 675 H 60.568 1.96862 2.31255 0
M  V30 676 H 58.153 1.01753 1.09392 0
M  V30 677 H 60.035 0.396518 4.1953 0
M  V30 678 H 58.71 -0.299851 3.22308 0
M  V30 679 H 57.617 2.01635 3.1511 0
M  V30 680 H 58.95 2.63629 4.15645 0
M  V30 681 N 60.6021 -1.18246 1.0419 0
M  V30 682 C 61.8511 -1.87588 0.741194 0
M  V30 683 C 62.1641 -1.81303 -0.734066 0
M  V30 684 O 63.3701 -2.46019 -1.14834 0
M  V30 685 C 61.8261 -3.36538 1.27555 0
M  V30 686 C 61.4341 -3.51349 2.77953 0
M  V30 687 C 63.1781 -4.11273 1.05143 0
M  V30 688 C 61.0851 -4.94265 3.2474 0
M  V30 689 H 60.0151 -0.702622 0.273565 0
M  V30 690 H 62.6661 -1.33601 1.25789 0
M  V30 691 H 61.0481 -3.9 0.686703 0
M  V30 692 H 62.2221 -3.08153 3.42605 0
M  V30 693 H 60.5371 -2.90022 2.98791 0
M  V30 694 H 63.1341 -5.16689 1.37611 0
M  V30 695 H 63.4771 -4.16298 -0.0112774 0
M  V30 696 H 64.0101 -3.63987 1.60495 0
M  V30 697 H 60.7491 -4.94408 4.30396 0
M  V30 698 H 60.2691 -5.38172 2.64823 0
M  V30 699 H 61.9481 -5.62987 3.18834 0
M  V30 700 N 62.0802 -0.821533 -1.34494 0
M  V30 701 C 63.0272 -0.240397 -2.29545 0
M  V30 702 C 63.9972 0.634031 -1.53523 0
M  V30 703 O 65.1822 0.575966 -1.81899 0
M  V30 704 C 62.3222 0.592869 -3.39969 0
M  V30 705 C 61.4352 -0.30365 -4.30932 0
M  V30 706 C 60.5702 0.539049 -5.28458 0
M  V30 707 C 59.6092 -0.356942 -6.11058 0
M  V30 708 N 58.7462 0.446603 -7.00678 0
M  V30 709 H 63.5862 -1.05632 -2.7865 0
M  V30 710 H 61.1232 -0.532413 -1.37127 0
M  V30 711 H 63.0812 1.09129 -4.02675 0
M  V30 712 H 61.7112 1.37392 -2.92102 0
M  V30 713 H 60.7632 -0.920276 -3.691 0
M  V30 714 H 62.0752 -0.992661 -4.88823 0
M  V30 715 H 61.2292 1.102 -5.96608 0
M  V30 716 H 59.9682 1.26157 -4.71101 0
M  V30 717 H 58.9732 -0.932047 -5.41842 0
M  V30 718 H 60.1982 -1.07755 -6.70497 0
M  V30 719 H 58.1442 1.15282 -6.45791 0
M  V30 720 H 58.0612 -0.184048 -7.55776 0
M  V30 721 H 59.3292 0.992352 -7.73158 0
M  V30 722 N 63.5583 1.46682 -0.576371 0
M  V30 723 C 64.8043 2.03287 -0.0679305 0
M  V30 724 C 65.1593 1.44063 1.27529 0
M  V30 725 O 64.4523 0.593973 1.82161 0
M  V30 726 C 64.6463 3.57345 0.062886 0
M  V30 727 C 64.4753 4.31509 -1.26611 0
M  V30 728 C 63.2453 4.70664 -1.83856 0
M  V30 729 C 65.4433 4.65444 -2.18783 0
M  V30 730 N 63.4253 5.29552 -3.10561 0
M  V30 731 C 64.7963 5.24835 -3.30072 0
M  V30 732 C 66.8513 4.47375 -2.18542 0
M  V30 733 C 65.5543 5.68063 -4.41244 0
M  V30 734 C 67.5803 4.91614 -3.28739 0
M  V30 735 C 66.9423 5.51071 -4.38748 0
M  V30 736 H 63.0413 0.779083 -0.0674836 0
M  V30 737 H 65.6253 1.78918 -0.767877 0
M  V30 738 H 63.7963 3.8144 0.731988 0
M  V30 739 H 65.5283 4.00592 0.575134 0
M  V30 740 H 62.2833 4.53224 -1.37424 0
M  V30 741 H 62.7073 5.63523 -3.75195 0
M  V30 742 H 67.3493 4.00747 -1.34765 0
M  V30 743 H 65.0673 6.13672 -5.25768 0
M  V30 744 H 68.6533 4.79389 -3.29662 0
M  V30 745 H 67.5333 5.84678 -5.22611 0
M  V30 746 N 65.0364 0.313813 1.54444 0
M  V30 747 C 66.2844 -0.291099 1.99993 0
M  V30 748 C 66.6054 -1.53418 1.20366 0
M  V30 749 O 65.8754 -1.93544 0.302927 0
M  V30 750 H 64.4554 -0.110552 0.738774 0
M  V30 751 H 67.1174 0.428106 1.9014 0
M  V30 752 H 66.2134 -0.554268 3.07139 0
M  V30 753 N 66.5145 -1.57545 0.0417849 0
M  V30 754 C 67.4475 -2.06514 -0.970928 0
M  V30 755 C 68.4255 -0.963607 -1.30971 0
M  V30 756 O 69.6095 -1.23486 -1.4242 0
M  V30 757 C 66.7365 -2.4978 -2.28752 0
M  V30 758 C 65.7825 -3.71078 -2.10246 0
M  V30 759 S 66.6155 -5.17158 -1.38952 0
M  V30 760 C 67.7715 -5.6373 -2.71954 0
M  V30 761 H 68.0045 -2.9209 -0.554129 0
M  V30 762 H 65.5375 -1.53459 -0.17024 0
M  V30 763 H 67.4955 -2.75371 -3.04435 0
M  V30 764 H 66.1565 -1.64527 -2.67562 0
M  V30 765 H 65.3495 -3.9924 -3.07609 0
M  V30 766 H 64.9515 -3.45705 -1.42704 0
M  V30 767 H 67.2435 -5.68743 -3.68154 0
M  V30 768 H 68.1865 -6.63086 -2.4844 0
M  V30 769 H 68.5945 -4.91424 -2.77782 0
M  V30 770 N 67.9926 0.231505 -1.5589 0
M  V30 771 C 69.2176 0.978689 -1.82856 0
M  V30 772 C 69.6426 1.77559 -0.620846 0
M  V30 773 O 69.0006 1.76119 0.430305 0
M  V30 774 C 69.0486 1.87997 -3.07716 0
M  V30 775 O 68.1526 2.97393 -2.85712 0
M  V30 776 H 67.4936 0.277663 -0.603158 0
M  V30 777 H 70.0236 0.24783 -2.03093 0
M  V30 778 H 70.0336 2.2917 -3.37558 0
M  V30 779 H 68.7086 1.29417 -3.95252 0
M  V30 780 H 67.2856 2.60238 -2.67078 0
M  V30 781 N 69.4707 1.49531 0.497807 0
M  V30 782 C 70.8867 1.36365 0.829266 0
M  V30 783 C 71.0867 0.399184 1.97506 0
M  V30 784 O 70.1427 -0.167977 2.51941 0
M  V30 785 C 71.4557 2.77153 1.16647 0
M  V30 786 C 73.0037 2.85877 1.27449 0
M  V30 787 C 73.4787 4.2744 1.64497 0
M  V30 788 N 74.9697 4.30265 1.7154 0
M  V30 789 C 75.7047 5.3677 2.01656 0
M  V30 790 N 75.2007 6.53516 2.29976 0
M  V30 791 N 76.9937 5.24189 2.02934 0
M  V30 792 H 69.1447 2.10831 -0.257703 0
M  V30 793 H 71.4077 0.946534 -0.0527091 0
M  V30 794 H 71.1137 3.49442 0.397872 0
M  V30 795 H 70.9877 3.12722 2.10915 0
M  V30 796 H 73.3747 2.13824 2.0338 0
M  V30 797 H 73.4557 2.53887 0.312244 0
M  V30 798 H 73.0997 5.00021 0.891151 0
M  V30 799 H 73.0297 4.56896 2.61827 0
M  V30 800 H 75.5207 3.4607 1.51802 0
M  V30 801 H 75.8337 7.30506 2.52153 0
M  V30 802 H 74.1787 6.56737 2.27425 0
M  V30 803 H 77.3697 4.31988 1.80289 0
M  V30 804 H 77.5427 6.07286 2.26071 0
M  V30 805 N 70.9488 -0.749086 1.3866 0
M  V30 806 C 71.8958 -1.86291 1.36251 0
M  V30 807 C 72.8658 -1.64578 0.224347 0
M  V30 808 O 74.0508 -1.86181 0.417279 0
M  V30 809 C 71.1908 -3.23644 1.19786 0
M  V30 810 C 70.3038 -3.57158 2.43027 0
M  V30 811 C 69.4388 -4.83838 2.19258 0
M  V30 812 C 68.4778 -5.10152 3.38247 0
M  V30 813 N 67.6148 -6.28029 3.13884 0
M  V30 814 H 72.4548 -1.87685 2.3147 0
M  V30 815 H 69.9918 -0.917287 1.14997 0
M  V30 816 H 71.9498 -4.0291 1.08254 0
M  V30 817 H 70.5798 -3.21566 0.282031 0
M  V30 818 H 69.6318 -2.72701 2.65214 0
M  V30 819 H 70.9438 -3.7253 3.31697 0
M  V30 820 H 70.0978 -5.71057 2.04888 0
M  V30 821 H 68.8368 -4.70614 1.2796 0
M  V30 822 H 67.8418 -4.21401 3.53131 0
M  V30 823 H 69.0668 -5.25271 4.30427 0
M  V30 824 H 67.0128 -6.1612 2.25238 0
M  V30 825 H 66.9298 -6.43922 3.96106 0
M  V30 826 H 68.1978 -7.18124 3.03179 0
M  V30 827 N 72.4269 -1.23603 -0.977757 0
M  V30 828 C 73.6759 -1.06377 -1.71368 0
M  V30 829 C 73.9889 0.399062 -1.91486 0
M  V30 830 O 75.1949 0.691312 -2.62551 0
M  V30 831 C 73.6509 -1.85512 -3.08404 0
M  V30 832 C 73.2589 -3.36141 -2.96164 0
M  V30 833 C 75.0029 -1.76783 -3.85938 0
M  V30 834 C 72.9099 -4.07659 -4.28449 0
M  V30 835 H 71.8399 -0.394452 -0.642591 0
M  V30 836 H 74.4909 -1.47594 -1.09034 0
M  V30 837 H 72.8729 -1.37103 -3.71509 0
M  V30 838 H 74.0469 -3.92056 -2.42133 0
M  V30 839 H 72.3619 -3.45712 -2.32104 0
M  V30 840 H 74.9589 -2.27526 -4.83876 0
M  V30 841 H 75.3019 -0.731116 -4.0983 0
M  V30 842 H 75.8349 -2.22818 -3.2954 0
M  V30 843 H 72.5739 -5.11648 -4.09752 0
M  V30 844 H 72.0939 -3.5653 -4.82334 0
M  V30 845 H 73.7729 -4.141 -4.97122 0
M  V30 846 N 73.905 1.17692 -1.04816 0
M  V30 847 C 75.151 1.88389 -0.766892 0
M  V30 848 C 75.506 1.79282 0.698269 0
M  V30 849 O 74.799 1.18739 1.50372 0
M  V30 850 C 74.993 3.37462 -1.17703 0
M  V30 851 C 74.822 3.6108 -2.68051 0
M  V30 852 C 73.592 3.78018 -3.35307 0
M  V30 853 C 75.79 3.61039 -3.66273 0
M  V30 854 N 73.772 3.89444 -4.74559 0
M  V30 855 C 75.143 3.78269 -4.91235 0
M  V30 856 C 77.198 3.44168 -3.59796 0
M  V30 857 C 75.901 3.80376 -6.10497 0
M  V30 858 C 77.927 3.4756 -4.78493 0
M  V30 859 C 77.289 3.65295 -6.02278 0
M  V30 860 H 73.388 0.707651 -0.332798 0
M  V30 861 H 75.972 1.41314 -1.33934 0
M  V30 862 H 74.143 3.83214 -0.63257 0
M  V30 863 H 75.875 3.95759 -0.845989 0
M  V30 864 H 72.63 3.77714 -2.85708 0
M  V30 865 H 73.054 3.98962 -5.46954 0
M  V30 866 H 77.696 3.29396 -2.65062 0
M  V30 867 H 75.414 3.93933 -7.05579 0
M  V30 868 H 79 3.3577 -4.75131 0
M  V30 869 H 77.88 3.6782 -6.92588 0
M  V30 870 N 75.3831 0.828654 1.34056 0
M  V30 871 C 76.7991 0.515135 1.51058 0
M  V30 872 C 76.9991 -0.959581 1.77184 0
M  V30 873 O 76.0551 -1.74382 1.82612 0
M  V30 874 C 77.3681 1.37963 2.67183 0
M  V30 875 C 78.9161 1.37735 2.81066 0
M  V30 876 C 79.3911 2.22645 4.00241 0
M  V30 877 N 80.8821 2.203 4.07458 0
M  V30 878 C 81.6171 2.82744 4.98842 0
M  V30 879 N 81.1131 3.54201 5.9541 0
M  V30 880 N 82.9061 2.72268 4.91759 0
M  V30 881 H 75.0571 1.78343 1.15358 0
M  V30 882 H 77.3201 0.760304 0.566252 0
M  V30 883 H 77.0261 2.42714 2.54525 0
M  V30 884 H 76.9001 1.0484 3.62338 0
M  V30 885 H 79.2871 0.337593 2.93163 0
M  V30 886 H 79.3681 1.74859 1.86703 0
M  V30 887 H 79.0121 3.26674 3.88905 0
M  V30 888 H 78.9421 1.82869 4.93829 0
M  V30 889 H 81.4331 1.68327 3.38341 0
M  V30 890 H 81.7461 3.9908 6.61782 0
M  V30 891 H 80.0911 3.58308 5.95517 0
M  V30 892 H 83.2821 2.16014 4.15278 0
M  V30 893 H 83.4551 3.21219 5.62781 0
M  V30 894 N 76.8612 -1.46375 0.584142 0
M  V30 895 C 78.0862 -2.07268 0.0740405 0
M  V30 896 C 78.5112 -1.42979 -1.22223 0
M  V30 897 O 77.8692 -0.514092 -1.73859 0
M  V30 898 C 77.9172 -3.60518 -0.0767769 0
M  V30 899 O 77.0212 -3.96533 -1.13292 0
M  V30 900 H 76.3622 -0.660961 0.0634524 0
M  V30 901 H 78.8922 -1.87991 0.807492 0
M  V30 902 H 78.9022 -4.07021 -0.282489 0
M  V30 903 H 77.5772 -4.06702 0.86986 0
M  V30 904 H 76.1542 -3.61738 -0.905553 0
M  V30 905 N 78.3393 -0.321999 -1.54275 0
M  V30 906 C 79.5643 0.285791 -2.05422 0
M  V30 907 C 79.9893 1.45124 -1.19669 0
M  V30 908 O 79.3473 1.80132 -0.205441 0
M  V30 909 C 79.3953 0.69956 -3.53749 0
M  V30 910 O 78.4993 1.8021 -3.70942 0
M  V30 911 H 77.8403 0.0518962 -0.661969 0
M  V30 912 H 80.3703 -0.469954 -1.9913 0
M  V30 913 H 80.3803 0.982649 -3.9599 0
M  V30 914 H 79.0553 -0.152864 -4.15619 0
M  V30 915 H 77.6323 1.51794 -3.40607 0
M  V30 916 N 79.8174 1.5752 -0.0501392 0
M  V30 917 C 81.0654 1.9227 0.622642 0
M  V30 918 C 81.3864 0.929083 1.71444 0
M  V30 919 O 80.6564 -0.0262186 1.95882 0
M  V30 920 H 79.2364 0.709739 0.232981 0
M  V30 921 H 81.8984 1.94628 -0.102898 0
M  V30 922 H 80.9944 2.93479 1.06191 0
M  V30 923 N 81.2955 -0.223234 1.56011 0
M  V30 924 C 82.2425 -1.27664 1.92277 0
M  V30 925 C 83.2125 -1.46659 0.779763 0
M  V30 926 O 84.3975 -1.60256 1.03551 0
M  V30 927 C 81.5375 -2.62234 2.24338 0
M  V30 928 C 80.6505 -2.51051 3.51564 0
M  V30 929 C 79.7855 -3.78133 3.7308 0
M  V30 930 C 78.8245 -3.61665 4.93827 0
M  V30 931 N 77.9615 -4.80693 5.11741 0
M  V30 932 H 82.8015 -0.960358 2.82101 0
M  V30 933 H 80.3385 -0.462901 1.39627 0
M  V30 934 H 82.2965 -3.40596 2.40936 0
M  V30 935 H 80.9265 -2.91961 1.3769 0
M  V30 936 H 79.9785 -1.64132 3.43169 0
M  V30 937 H 81.2905 -2.34803 4.40079 0
M  V30 938 H 80.4445 -4.64938 3.89766 0
M  V30 939 H 79.1835 -3.97304 2.82844 0
M  V30 940 H 78.1885 -2.73244 4.77093 0
M  V30 941 H 79.4135 -3.43966 5.85546 0
M  V30 942 H 77.3595 -5.00181 4.24446 0
M  V30 943 H 77.2765 -4.67165 5.94384 0
M  V30 944 H 78.5445 -5.6893 5.3286 0
M  V30 945 N 82.7736 -1.49793 -0.48987 0
M  V30 946 C 83.7216 -1.67783 -1.61095 0
M  V30 947 C 84.7156 -0.543683 -1.60438 0
M  V30 948 O 85.9216 -0.723647 -1.64813 0
M  V30 949 H 82.2966 -0.529255 -0.534222 0
M  V30 950 H 84.2676 -2.61861 -1.43078 0
M  V30 951 C 83.0166 -1.77191 -2.99164 0
M  V30 952 H 82.3396 -2.63841 -3.0038 0
M  V30 953 H 83.7796 -1.93809 -3.77113 0
M  V30 954 C 82.2386 -0.519203 -3.32875 0
M  V30 955 O 82.7686 0.350124 -4.00171 0
M  V30 956 N 80.9746 -0.378816 -2.8812 0
M  V30 957 H 80.5216 -1.08725 -2.33531 0
M  V30 958 H 80.4796 0.458239 -3.11043 0
M  V30 959 N 84.2517 0.741722 -1.39055 0
M  V30 960 C 85.4797 1.53098 -1.39171 0
M  V30 961 C 85.8947 1.88794 0.0155099 0
M  V30 962 O 85.2517 1.53626 0.985159 0
M  V30 963 C 85.3027 2.82274 -2.2584 0
M  V30 964 O 85.0237 2.48097 -3.61081 0
M  V30 965 C 86.5247 3.76343 -2.34266 0
M  V30 966 H 83.7447 0.473335 -0.4756 0
M  V30 967 H 86.2887 0.917045 -1.82785 0
M  V30 968 H 84.4437 3.40015 -1.85656 0
M  V30 969 H 84.8577 3.31029 -4.06842 0
M  V30 970 H 86.3317 4.63898 -2.9917 0
M  V30 971 H 86.8087 4.17619 -1.35982 0
M  V30 972 H 87.4147 3.24523 -2.74891 0
M  V30 973 N 85.7298 1.2412 0.971189 0
M  V30 974 C 86.9578 1.10575 1.74874 0
M  V30 975 C 87.3728 -0.342017 1.85676 0
M  V30 976 O 86.7298 -1.23617 1.34258 0
M  V30 977 C 86.7808 1.73579 3.171 0
M  V30 978 O 86.5018 3.12695 3.06844 0
M  V30 979 C 88.0028 1.65598 4.11208 0
M  V30 980 H 85.2228 0.386504 0.548503 0
M  V30 981 H 87.7668 1.64156 1.21955 0
M  V30 982 H 85.9218 1.24009 3.67016 0
M  V30 983 H 86.3358 3.43412 3.96445 0
M  V30 984 H 87.8098 2.1437 5.08674 0
M  V30 985 H 88.2868 0.616532 4.34851 0
M  V30 986 H 88.8928 2.14578 3.67201 0
M  V30 987 N 87.2079 -1.17134 1.05439 0
M  V30 988 C 88.1559 -2.23289 0.651511 0
M  V30 989 C 89.1499 -1.66186 -0.328411 0
M  V30 990 O 90.3559 -1.78949 -0.194206 0
M  V30 991 H 86.7309 -0.726938 0.192523 0
M  V30 992 H 88.7019 -2.54565 1.55689 0
M  V30 993 C 87.4509 -3.47671 0.0448436 0
M  V30 994 H 86.7739 -3.91918 0.78996 0
M  V30 995 H 88.2139 -4.2353 -0.19964 0
M  V30 996 C 86.6729 -3.14453 -1.20918 0
M  V30 997 O 87.2029 -3.29459 -2.29825 0
M  V30 998 N 85.4089 -2.68657 -1.10779 0
M  V30 999 H 84.9559 -2.56646 -0.221526 0
M  V30 1000 H 84.9139 -2.46804 -1.9477 0
M  V30 1001 N 88.686 -0.835752 -1.33615 0
M  V30 1002 C 89.636 -0.238856 -2.26745 0
M  V30 1003 C 90.62 0.604343 -1.49119 0
M  V30 1004 O 91.812 0.456822 -1.71003 0
M  V30 1005 C 88.941 0.587725 -3.38232 0
M  V30 1006 C 88.027 -0.266811 -4.2326 0
M  V30 1007 N 88.418 -1.34403 -4.87616 0
M  V30 1008 C 86.716 -0.0533131 -4.45968 0
M  V30 1009 C 87.417 -1.86819 -5.50884 0
M  V30 1010 N 86.393 -1.17013 -5.30857 0
M  V30 1011 H 90.195 -1.06266 -2.74016 0
M  V30 1012 H 87.709 -0.679881 -1.47483 0
M  V30 1013 H 89.706 1.03161 -4.03935 0
M  V30 1014 H 88.366 1.40954 -2.9251 0
M  V30 1015 H 89.377 -1.7269 -4.88261 0
M  V30 1016 H 86.054 0.735312 -4.10974 0
M  V30 1017 H 87.444 -2.7701 -6.1214 0
M  V30 1018 N 90.1641 1.46063 -0.591896 0
M  V30 1019 C 91.4101 2.02638 -0.0811191 0
M  V30 1020 C 91.7431 1.4613 1.27905 0
M  V30 1021 O 91.0181 0.629908 1.84017 0
M  V30 1022 C 91.3011 3.60091 -0.0252436 0
M  V30 1023 C 91.1541 4.26965 -1.41496 0
M  V30 1024 C 92.4731 4.3496 0.670685 0
M  V30 1025 H 89.5921 0.73635 -0.0309524 0
M  V30 1026 H 92.2341 1.741 -0.760859 0
M  V30 1027 H 90.3841 3.84535 0.553624 0
M  V30 1028 H 92.0561 4.13756 -2.0397 0
M  V30 1029 H 90.2991 3.85971 -1.98011 0
M  V30 1030 H 90.9701 5.35781 -1.32825 0
M  V30 1031 H 93.4461 4.15716 0.178825 0
M  V30 1032 H 92.3221 5.44686 0.678837 0
M  V30 1033 H 92.5831 4.06685 1.73379 0
M  V30 1034 N 91.6422 0.330177 1.54103 0
M  V30 1035 C 92.5522 -0.541534 2.28264 0
M  V30 1036 C 93.5682 -1.12351 1.32866 0
M  V30 1037 O 94.7442 -1.14206 1.65888 0
M  V30 1038 C 91.8092 -1.68322 3.03098 0
M  V30 1039 C 90.8702 -1.13238 4.14096 0
M  V30 1040 C 90.1032 -2.21966 4.85352 0
M  V30 1041 O 90.3262 -3.42437 4.56172 0
M  V30 1042 O 89.2602 -1.87013 5.7211 0
M  V30 1043 H 93.0862 0.060938 3.03639 0
M  V30 1044 H 90.6712 0.09565 1.49093 0
M  V30 1045 H 92.5532 -2.34777 3.49939 0
M  V30 1046 H 91.2282 -2.27176 2.30593 0
M  V30 1047 H 90.1352 -0.432736 3.71589 0
M  V30 1048 H 91.4682 -0.588898 4.88664 0
M  V30 1049 N 93.1203 -1.57491 0.0584922 0
M  V30 1050 C 94.3663 -1.93264 -0.614558 0
M  V30 1051 C 94.6993 -0.937717 -1.7006 0
M  V30 1052 O 93.9743 0.0351652 -1.94468 0
M  V30 1053 C 94.2573 -3.3938 -1.20386 0
M  V30 1054 C 94.1103 -4.49625 -0.125375 0
M  V30 1055 C 95.4293 -3.86039 -2.11334 0
M  V30 1056 H 92.5483 -0.702791 -0.221933 0
M  V30 1057 H 95.1903 -1.8961 0.12175 0
M  V30 1058 H 93.3403 -3.42626 -1.83139 0
M  V30 1059 H 95.0123 -4.58506 0.506971 0
M  V30 1060 H 93.2553 -4.30354 0.545672 0
M  V30 1061 H 93.9263 -5.48967 -0.577861 0
M  V30 1062 H 96.4023 -3.84716 -1.58534 0
M  V30 1063 H 95.2783 -4.88914 -2.49507 0
M  V30 1064 H 95.5393 -3.23215 -3.01636 0
M  V30 1065 N 94.5984 0.214957 -1.56127 0
M  V30 1066 C 95.5464 1.28601 -1.93816 0
M  V30 1067 C 96.5404 1.48175 -0.821016 0
M  V30 1068 O 97.7464 1.49271 -1.0059 0
M  V30 1069 H 94.1214 0.431302 -0.616022 0
M  V30 1070 H 96.0924 0.940991 -2.83175 0
M  V30 1071 C 94.8414 2.62779 -2.27689 0
M  V30 1072 H 94.1644 2.48527 -3.13168 0
M  V30 1073 H 95.6044 3.36517 -2.57939 0
M  V30 1074 C 94.0634 3.18285 -1.10436 0
M  V30 1075 O 94.5934 4.00002 -0.368945 0
M  V30 1076 N 92.7994 2.7675 -0.886433 0
M  V30 1077 H 92.3464 2.10404 -1.48619 0
M  V30 1078 H 92.3044 3.14229 -0.103656 0
M  V30 1079 N 96.0765 1.50051 0.48192 0
M  V30 1080 C 97.3235 1.60498 1.23477 0
M  V30 1081 C 97.6515 0.300331 1.92167 0
M  V30 1082 O 96.9065 -0.713094 1.82246 0
M  V30 1083 C 97.2055 2.72717 2.30998 0
M  V30 1084 C 96.8715 4.13572 1.79636 0
M  V30 1085 C 95.5335 4.519 1.65348 0
M  V30 1086 C 97.8855 5.01649 1.41412 0
M  V30 1087 C 95.2135 5.76057 1.11244 0
M  V30 1088 C 97.5655 6.26343 0.887538 0
M  V30 1089 C 96.2295 6.63483 0.731207 0
M  V30 1090 H 95.4995 0.587303 0.451836 0
M  V30 1091 H 98.1465 1.83948 0.532468 0
M  V30 1092 H 96.4515 2.43312 3.07094 0
M  V30 1093 H 98.1485 2.78006 2.88988 0
M  V30 1094 H 94.7385 3.83329 1.91721 0
M  V30 1095 H 98.9225 4.72679 1.51289 0
M  V30 1096 H 94.1785 6.03516 0.978686 0
M  V30 1097 H 98.3525 6.93958 0.582654 0
M  V30 1098 H 95.9795 7.59568 0.309806 0
M  V30 1099 N 97.5546 -0.734337 1.39446 0
M  V30 1100 C 98.8036 -1.48937 1.36017 0
M  V30 1101 C 99.1166 -1.95557 -0.0409005 0
M  V30 1102 O 100.323 -2.70779 -0.19778 0
M  V30 1103 C 98.7786 -2.69125 2.38955 0
M  V30 1104 C 98.3866 -2.29452 3.8478 0
M  V30 1105 C 100.131 -3.46944 2.44603 0
M  V30 1106 C 98.0376 -3.46366 4.79358 0
M  V30 1107 H 96.9676 -0.559296 0.505672 0
M  V30 1108 H 99.6186 -0.800983 1.65095 0
M  V30 1109 H 98.0006 -3.40041 2.02948 0
M  V30 1110 H 99.1746 -1.66077 4.29831 0
M  V30 1111 H 97.4896 -1.64723 3.82433 0
M  V30 1112 H 100.087 -4.33907 3.12456 0
M  V30 1113 H 100.43 -3.89454 1.47076 0
M  V30 1114 H 100.963 -2.83056 2.79507 0
M  V30 1115 H 97.7016 -3.08905 5.78151 0
M  V30 1116 H 97.2216 -4.08719 4.38986 0
M  V30 1117 H 98.9006 -4.12691 4.98292 0
M  V30 1118 N 99.0327 -1.24633 -0.964593 0
M  V30 1119 C 99.9797 -1.04144 -2.05968 0
M  V30 1120 C 100.95 0.046262 -1.66036 0
M  V30 1121 O 102.135 -0.108972 -1.90489 0
M  V30 1122 C 99.2747 -0.65563 -3.38815 0
M  V30 1123 C 98.3877 -1.81714 -3.91923 0
M  V30 1124 C 97.5227 -1.37662 -5.13052 0
M  V30 1125 C 96.5617 -2.50788 -5.58365 0
M  V30 1126 N 95.6987 -2.07582 -6.70712 0
M  V30 1127 H 100.539 -1.9787 -2.22827 0
M  V30 1128 H 98.0757 -0.9855 -1.09208 0
M  V30 1129 H 100.034 -0.412954 -4.15151 0
M  V30 1130 H 98.6637 0.244627 -3.21872 0
M  V30 1131 H 97.7157 -2.1734 -3.12198 0
M  V30 1132 H 99.0277 -2.66705 -4.21509 0
M  V30 1133 H 98.1817 -1.093 -5.96773 0
M  V30 1134 H 96.9207 -0.497293 -4.85158 0
M  V30 1135 H 95.9257 -2.79906 -4.73215 0
M  V30 1136 H 97.1507 -3.39283 -5.88272 0
M  V30 1137 H 95.0967 -1.22051 -6.44546 0
M  V30 1138 H 95.0137 -2.86125 -6.99763 0
M  V30 1139 H 96.2817 -1.82369 -7.57867 0
M  V30 1140 N 100.511 1.16574 -1.06058 0
M  V30 1141 C 101.458 2.20883 -0.669263 0
M  V30 1142 C 102.428 1.62729 0.332918 0
M  V30 1143 O 103.613 1.895 0.222346 0
M  V30 1144 C 100.753 3.45049 -0.0593572 0
M  V30 1145 C 99.8658 4.17458 -1.11143 0
M  V30 1146 C 99.0008 5.29135 -0.467916 0
M  V30 1147 C 98.0398 5.93343 -1.50369 0
M  V30 1148 N 97.1768 6.96516 -0.883706 0
M  V30 1149 H 102.017 2.53709 -1.5632 0
M  V30 1150 H 99.5538 1.24616 -0.781625 0
M  V30 1151 H 101.512 4.16033 0.311771 0
M  V30 1152 H 100.142 3.12781 0.797992 0
M  V30 1153 H 99.1938 3.45101 -1.60029 0
M  V30 1154 H 100.506 4.61307 -1.89731 0
M  V30 1155 H 99.6598 6.06684 -0.0436871 0
M  V30 1156 H 98.3988 4.86443 0.349864 0
M  V30 1157 H 97.4038 5.14517 -1.93784 0
M  V30 1158 H 98.6288 6.38114 -2.32352 0
M  V30 1159 H 96.5748 6.55943 -0.086595 0
M  V30 1160 H 96.4918 7.38723 -1.607 0
M  V30 1161 H 97.7598 7.77993 -0.484543 0
M  V30 1162 N 101.989 0.842826 1.3317 0
M  V30 1163 C 103.236 0.440447 1.97652 0
M  V30 1164 C 103.564 -1.00123 1.6675 0
M  V30 1165 O 102.819 -1.7155 0.941761 0
M  V30 1166 C 103.118 0.612607 3.52111 0
M  V30 1167 C 102.784 2.02297 4.02972 0
M  V30 1168 C 101.446 2.40874 4.16573 0
M  V30 1169 C 103.798 2.94402 4.30089 0
M  V30 1170 C 101.126 3.70852 4.54627 0
M  V30 1171 C 103.478 4.23865 4.69597 0
M  V30 1172 C 102.142 4.62392 4.81404 0
M  V30 1173 H 101.412 0.161171 0.72326 0
M  V30 1174 H 104.059 1.07061 1.58777 0
M  V30 1175 H 102.364 -0.100849 3.9167 0
M  V30 1176 H 104.061 0.2815 4.00011 0
M  V30 1177 H 100.651 1.71338 3.92863 0
M  V30 1178 H 104.835 2.65835 4.19101 0
M  V30 1179 H 100.091 4.00501 4.61962 0
M  V30 1180 H 104.265 4.95306 4.89536 0
M  V30 1181 H 101.892 5.63154 5.10648 0
M  V30 1182 N 103.467 -1.45747 0.599634 0
M  V30 1183 C 104.695 -2.06668 0.0978551 0
M  V30 1184 C 105.11 -1.44562 -1.21439 0
M  V30 1185 O 104.467 -0.556923 -1.73795 0
M  V30 1186 C 104.518 -3.61456 -0.0567044 0
M  V30 1187 O 104.239 -4.21242 1.20361 0
M  V30 1188 C 105.74 -4.39345 -0.590869 0
M  V30 1189 H 102.96 -0.667825 0.0651943 0
M  V30 1190 H 105.504 -1.87115 0.82511 0
M  V30 1191 H 103.659 -3.80378 -0.734251 0
M  V30 1192 H 104.073 -5.14323 1.02821 0
M  V30 1193 H 105.547 -5.48182 -0.648131 0
M  V30 1194 H 106.024 -4.08568 -1.61147 0
M  V30 1195 H 106.63 -4.25268 0.0523679 0
M  V30 1196 N 104.945 -0.338344 -1.53925 0
M  V30 1197 C 106.17 0.263987 -2.05713 0
M  V30 1198 C 106.595 1.43847 -1.21201 0
M  V30 1199 O 105.953 1.79904 -0.224535 0
M  V30 1200 C 106.001 0.662 -3.54471 0
M  V30 1201 O 105.105 1.76265 -3.72833 0
M  V30 1202 H 104.446 0.0448722 -0.662482 0
M  V30 1203 H 106.976 -0.491048 -1.9862 0
M  V30 1204 H 106.986 0.940594 -3.9701 0
M  V30 1205 H 105.661 -0.196937 -4.15433 0
M  V30 1206 H 104.238 1.48173 -3.42198 0
M  V30 1207 N 106.423 1.57458 -0.0668435 0
M  V30 1208 C 107.333 2.15937 0.916975 0
M  V30 1209 C 108.349 1.12123 1.33058 0
M  V30 1210 O 109.525 1.44366 1.40429 0
M  V30 1211 C 106.59 2.70547 2.16807 0
M  V30 1212 C 105.651 3.89215 1.81135 0
M  V30 1213 C 104.884 4.41211 3.0028 0
M  V30 1214 O 105.107 3.92225 4.14144 0
M  V30 1215 O 104.041 5.32605 2.80384 0
M  V30 1216 H 107.867 3.00354 0.449561 0
M  V30 1217 H 105.452 1.48584 0.155949 0
M  V30 1218 H 107.334 3.0557 2.90181 0
M  V30 1219 H 106.009 1.89192 2.62656 0
M  V30 1220 H 104.916 3.59054 1.05028 0
M  V30 1221 H 106.249 4.71848 1.40073 0
M  V30 1222 N 107.901 -0.206675 1.56239 0
M  V30 1223 C 109.317 -0.557025 1.49564 0
M  V30 1224 C 109.517 -1.86424 0.764735 0
M  V30 1225 O 108.573 -2.50584 0.310491 0
M  V30 1226 C 109.886 -0.622478 2.94186 0
M  V30 1227 C 111.434 -0.712099 3.04792 0
M  V30 1228 C 111.909 -0.808767 4.50803 0
M  V30 1229 N 113.4 -0.8726 4.54907 0
M  V30 1230 C 114.135 -0.967365 5.65181 0
M  V30 1231 N 113.631 -1.02515 6.85173 0
M  V30 1232 N 115.424 -1.00366 5.53067 0
M  V30 1233 H 107.575 0.650943 2.02179 0
M  V30 1234 H 109.838 0.230387 0.919579 0
M  V30 1235 H 109.544 0.268727 3.50672 0
M  V30 1236 H 109.418 -1.4811 3.46905 0
M  V30 1237 H 111.805 -1.59374 2.48363 0
M  V30 1238 H 111.886 0.172489 2.55218 0
M  V30 1239 H 111.53 0.0684754 5.07854 0
M  V30 1240 H 111.46 -1.70899 4.98098 0
M  V30 1241 H 113.951 -0.837657 3.68499 0
M  V30 1242 H 114.264 -1.09765 7.64965 0
M  V30 1243 H 112.609 -0.994026 6.87855 0
M  V30 1244 H 115.8 -0.95527 4.58249 0
M  V30 1245 H 115.973 -1.07405 6.39037 0
M  V30 1246 N 109.379 -1.50304 -0.473955 0
M  V30 1247 C 110.656 -1.51667 -1.23518 0
M  V30 1248 C 111.036 -0.259701 -2.09496 0
M  V30 1249 O 110.384 0.756986 -2.15597 0
M  V30 1250 C 110.594 -2.81082 -2.06868 0
M  V30 1251 C 111.942 -3.31631 -2.65153 0
M  V30 1252 O 112.966 -2.82384 -2.17113 0
M  V30 1253 O 111.825 -4.17471 -3.52675 0
M  V30 1254 H 108.919 -0.60822 -0.560355 0
M  V30 1255 H 111.465 -1.62592 -0.486011 0
M  V30 1256 H 110.237 -3.64041 -1.4349 0
M  V30 1257 H 109.86 -2.73146 -2.88924 0
M  V30 1258 N 110.857 0.726932 -1.39834 0
M  V30 1259 C 112.104 1.48664 -1.37496 0
M  V30 1260 C 112.432 1.94482 0.0264678 0
M  V30 1261 O 111.687 1.67692 1.00886 0
M  V30 1262 C 111.986 2.73495 -2.30077 0
M  V30 1263 C 111.652 2.46502 -3.77555 0
M  V30 1264 C 110.314 2.3885 -4.17737 0
M  V30 1265 C 112.666 2.23604 -4.70798 0
M  V30 1266 C 109.994 2.06352 -5.49214 0
M  V30 1267 C 112.346 1.92622 -6.02561 0
M  V30 1268 C 111.01 1.83444 -6.41798 0
M  V30 1269 H 110.28 0.544001 -0.503135 0
M  V30 1270 H 112.927 0.833657 -1.72402 0
M  V30 1271 H 111.232 3.43575 -1.88317 0
M  V30 1272 H 112.929 3.31549 -2.25558 0
M  V30 1273 H 109.519 2.5334 -3.45712 0
M  V30 1274 H 113.703 2.28479 -4.40581 0
M  V30 1275 H 108.959 1.97776 -5.78528 0
M  V30 1276 H 113.133 1.73914 -6.74334 0
M  V30 1277 H 110.76 1.58029 -7.43593 0
M  V30 1278 N 112.336 1.25143 0.95797 0
M  V30 1279 C 113.286 1.01924 2.0395 0
M  V30 1280 C 114.27 -0.0427175 1.60843 0
M  V30 1281 O 115.462 0.17221 1.7616 0
M  V30 1282 C 112.591 0.636373 3.3735 0
M  V30 1283 C 111.677 1.73492 3.8699 0
M  V30 1284 N 112.068 2.96945 4.0946 0
M  V30 1285 C 110.366 1.61467 4.15746 0
M  V30 1286 C 111.067 3.68228 4.50315 0
M  V30 1287 N 110.043 2.95833 4.56053 0
M  V30 1288 H 113.845 1.95653 2.19311 0
M  V30 1289 H 111.359 1.15413 1.14253 0
M  V30 1290 H 113.356 0.451233 4.14451 0
M  V30 1291 H 112.016 -0.293621 3.2337 0
M  V30 1292 H 113.027 3.33025 3.96629 0
M  V30 1293 H 109.704 0.753394 4.10646 0
M  V30 1294 H 111.094 4.74178 4.76031 0
M  V30 1295 N 113.814 -1.1601 1.06675 0
M  V30 1296 C 115.225 -1.68235 0.809565 0
M  V30 1297 C 115.576 -1.8454 -0.666303 0
M  V30 1298 O 114.701 -1.54374 -1.5165 0
M  V30 1299 C 115.296 -3.05585 1.46299 0
M  V30 1300 C 113.855 -3.54915 1.25349 0
M  V30 1301 C 113.002 -2.30804 1.53703 0
M  V30 1302 H 115.953 -1.00318 1.22971 0
M  V30 1303 H 115.974 -3.70174 0.880431 0
M  V30 1304 H 115.486 -2.93686 2.53713 0
M  V30 1305 H 113.587 -3.72067 0.199261 0
M  V30 1306 H 113.7 -4.36774 1.9689 0
M  V30 1307 H 112.064 -2.36007 0.957739 0
M  V30 1308 H 112.847 -2.21499 2.62284 0
M  V30 1309 N 115.292 -0.849877 -1.32721 0
M  V30 1310 C 116.517 -0.463856 -2.02146 0
M  V30 1311 C 116.942 0.930449 -1.63476 0
M  V30 1312 O 116.3 1.61033 -0.832952 0
M  V30 1313 C 116.348 -0.604955 -3.55489 0
M  V30 1314 O 115.452 0.36425 -4.10788 0
M  V30 1315 H 114.793 -0.187046 -0.637111 0
M  V30 1316 H 117.323 -1.14775 -1.69375 0
M  V30 1317 H 117.333 -0.490696 -4.05038 0
M  V30 1318 H 116.008 -1.62174 -3.82978 0
M  V30 1319 H 114.585 0.206628 -3.72327 0
M  V30 1320 N 116.77 1.45427 -0.607355 0
M  V30 1321 C 117.703 2.27635 0.160482 0
M  V30 1322 C 118.681 1.37122 0.873857 0
M  V30 1323 O 119.865 1.66551 0.882775 0
M  V30 1324 C 116.992 3.15486 1.23231 0
M  V30 1325 C 116.038 4.21939 0.622097 0
M  V30 1326 S 116.871 5.32459 -0.569852 0
M  V30 1327 C 118.027 6.23879 0.502577 0
M  V30 1328 H 118.26 2.9241 -0.536983 0
M  V30 1329 H 115.793 1.49265 -0.394868 0
M  V30 1330 H 117.751 3.66659 1.84585 0
M  V30 1331 H 116.412 2.49977 1.90185 0
M  V30 1332 H 115.605 4.8333 1.42856 0
M  V30 1333 H 115.207 3.73906 0.0837063 0
M  V30 1334 H 117.499 6.63261 1.38171 0
M  V30 1335 H 118.442 7.0806 -0.0751759 0
M  V30 1336 H 118.85 5.58545 0.8178 0
M  V30 1337 N 118.248 0.346503 1.53744 0
M  V30 1338 C 119.473 -0.253074 2.0585 0
M  V30 1339 C 119.898 -1.43202 1.21962 0
M  V30 1340 O 119.256 -1.79783 0.234073 0
M  V30 1341 C 119.304 -0.643193 3.54817 0
M  V30 1342 O 118.408 -1.74286 3.73762 0
M  V30 1343 H 117.749 -0.0413583 0.662711 0
M  V30 1344 H 120.279 0.501574 1.98357 0
M  V30 1345 H 120.289 -0.919526 3.97503 0
M  V30 1346 H 118.964 0.218966 4.15323 0
M  V30 1347 H 117.541 -1.46356 3.42979 0
M  V30 1348 N 119.726 -1.57421 0.075193 0
M  V30 1349 C 120.966 -1.95495 -0.596757 0
M  V30 1350 C 121.33 -0.954886 -1.66571 0
M  V30 1351 O 122.531 -1.22341 -2.39345 0
M  V30 1352 C 120.802 -3.382 -1.15566 0
M  V30 1353 S 122.361 -3.98254 -1.84226 0
M  V30 1354 H 119.179 -0.683649 -0.195307 0
M  V30 1355 H 121.781 -1.94925 0.149859 0
M  V30 1356 H 120.485 -4.08766 -0.36588 0
M  V30 1357 H 120.016 -3.42321 -1.93856 0
M  V30 1358 H 122.031 -3.85435 -3.12497 0
M  V30 1359 N 121.204 0.198386 -1.56346 0
M  V30 1360 C 122.429 0.939682 -1.84891 0
M  V30 1361 C 122.854 1.76202 -0.658369 0
M  V30 1362 O 122.212 1.76993 0.392851 0
M  V30 1363 C 122.26 1.81428 -3.11635 0
M  V30 1364 O 121.364 2.91265 -2.91956 0
M  V30 1365 H 120.705 0.264807 -0.608912 0
M  V30 1366 H 123.235 0.204695 -2.03573 0
M  V30 1367 H 123.245 2.21958 -3.42343 0
M  V30 1368 H 121.92 1.21004 -3.97908 0
M  V30 1369 H 120.497 2.54514 -2.72538 0
M  V30 1370 N 122.682 1.50554 0.465978 0
M  V30 1371 C 123.931 1.61038 1.21448 0
M  V30 1372 C 124.244 0.31865 1.92987 0
M  V30 1373 O 125.45 0.302469 2.6981 0
M  V30 1374 C 123.906 2.84283 2.20706 0
M  V30 1375 C 123.514 4.20352 1.54946 0
M  V30 1376 C 125.258 3.04115 2.96166 0
M  V30 1377 C 123.165 5.34778 2.5252 0
M  V30 1378 H 122.095 0.599718 0.457005 0
M  V30 1379 H 124.746 1.7699 0.484424 0
M  V30 1380 H 123.128 2.61901 2.97025 0
M  V30 1381 H 124.302 4.53008 0.843811 0
M  V30 1382 H 122.617 4.06167 0.917475 0
M  V30 1383 H 125.214 3.86774 3.69202 0
M  V30 1384 H 125.557 2.16045 3.55852 0
M  V30 1385 H 126.09 3.26702 2.26959 0
M  V30 1386 H 122.829 6.25018 1.97566 0
M  V30 1387 H 122.349 5.06534 3.21222 0
M  V30 1388 H 124.028 5.65561 3.14245 0
M  V30 1389 N 124.16 -0.719506 1.40217 0
M  V30 1390 C 125.388 -1.50864 1.41589 0
M  V30 1391 C 125.803 -1.88794 0.0145275 0
M  V30 1392 O 125.16 -1.55174 -0.960594 0
M  V30 1393 C 125.211 -2.78646 2.30302 0
M  V30 1394 O 124.932 -2.42321 3.64983 0
M  V30 1395 C 126.433 -3.72569 2.40224 0
M  V30 1396 H 123.653 -0.465709 0.48307 0
M  V30 1397 H 126.197 -0.88785 1.84221 0
M  V30 1398 H 124.352 -3.37019 1.91042 0
M  V30 1399 H 124.766 -3.24514 4.12057 0
M  V30 1400 H 126.24 -4.5908 3.06512 0
M  V30 1401 H 126.717 -4.15403 1.42608 0
M  V30 1402 H 127.323 -3.20109 2.80019 0
M  V30 1403 N 125.638 -1.25649 -0.95132 0
M  V30 1404 C 126.884 -1.11766 -1.69941 0
M  V30 1405 C 127.239 0.33735 -1.89419 0
M  V30 1406 O 126.532 1.24491 -1.45645 0
M  V30 1407 C 126.726 -1.80909 -3.08231 0
M  V30 1408 C 126.555 -3.32984 -3.02245 0
M  V30 1409 C 125.325 -4.02247 -3.05819 0
M  V30 1410 C 127.523 -4.29332 -2.83157 0
M  V30 1411 N 125.505 -5.41072 -2.90024 0
M  V30 1412 C 126.876 -5.55265 -2.75828 0
M  V30 1413 C 128.931 -4.19707 -2.67863 0
M  V30 1414 C 127.634 -6.72671 -2.54767 0
M  V30 1415 C 129.66 -5.36809 -2.48173 0
M  V30 1416 C 129.022 -6.61683 -2.41567 0
M  V30 1417 H 125.121 -0.463708 -0.629682 0
M  V30 1418 H 127.705 -1.58796 -1.12659 0
M  V30 1419 H 125.876 -1.36369 -3.63673 0
M  V30 1420 H 127.608 -1.59739 -3.71841 0
M  V30 1421 H 124.363 -3.53531 -3.15139 0
M  V30 1422 H 124.787 -6.13938 -2.85323 0
M  V30 1423 H 129.429 -3.23907 -2.71743 0
M  V30 1424 H 127.147 -7.68577 -2.49629 0
M  V30 1425 H 130.733 -5.31224 -2.37259 0
M  V30 1426 H 129.613 -7.50768 -2.26531 0
M  V30 1427 N 127.117 1.15442 -1.07289 0
M  V30 1428 C 128.364 1.86213 -0.795668 0
M  V30 1429 C 128.692 1.82291 0.678238 0
M  V30 1430 O 127.947 1.24057 1.51355 0
M  V30 1431 C 128.246 3.3489 -1.24834 0
M  V30 1432 C 127.912 3.59007 -2.72809 0
M  V30 1433 C 126.574 3.65298 -3.13227 0
M  V30 1434 C 128.926 3.68762 -3.68326 0
M  V30 1435 C 126.254 3.78854 -4.4798 0
M  V30 1436 C 128.606 3.83842 -5.0284 0
M  V30 1437 C 127.27 3.88378 -5.4288 0
M  V30 1438 H 126.54 0.681403 -0.291155 0
M  V30 1439 H 129.187 1.36435 -1.34379 0
M  V30 1440 H 127.492 3.8687 -0.619595 0
M  V30 1441 H 129.189 3.88052 -1.01076 0
M  V30 1442 H 125.779 3.5475 -2.40521 0
M  V30 1443 H 129.963 3.63202 -3.38227 0
M  V30 1444 H 125.219 3.80623 -4.78472 0
M  V30 1445 H 129.393 3.90332 -5.76727 0
M  V30 1446 H 127.02 3.98635 -6.47298 0
M  V30 1447 N 128.595 0.856903 1.32268 0
M  V30 1448 C 129.525 0.31858 2.31316 0
M  V30 1449 C 130.506 -0.583487 1.59779 0
M  V30 1450 O 131.691 -0.503259 1.87566 0
M  V30 1451 C 128.821 -0.491979 3.43798 0
M  V30 1452 C 127.775 0.315849 4.26833 0
M  V30 1453 C 127.101 -0.619586 5.31098 0
M  V30 1454 C 128.401 1.54282 4.98993 0
M  V30 1455 H 130.095 1.14621 2.76591 0
M  V30 1456 H 127.641 0.552613 1.32974 0
M  V30 1457 H 129.594 -0.879012 4.1213 0
M  V30 1458 H 128.318 -1.35299 2.97257 0
M  V30 1459 H 126.977 0.684664 3.6015 0
M  V30 1460 H 126.625 -1.47751 4.8081 0
M  V30 1461 H 126.325 -0.0830621 5.87541 0
M  V30 1462 H 127.849 -1.00375 6.02293 0
M  V30 1463 H 129.263 1.22796 5.59995 0
M  V30 1464 H 127.66 2.01745 5.65172 0
M  V30 1465 H 128.73 2.30285 4.26728 0
M  V30 1466 N 130.073 -1.45103 0.615059 0
M  V30 1467 C 131.298 -2.07064 0.117988 0
M  V30 1468 C 131.723 -1.4554 -1.19163 0
M  V30 1469 O 131.081 -0.550855 -1.72729 0
M  V30 1470 C 131.129 -3.606 -0.000288387 0
M  V30 1471 O 130.233 -3.98847 -1.04856 0
M  V30 1472 H 129.574 -0.659467 0.0774581 0
M  V30 1473 H 132.104 -1.86236 0.847186 0
M  V30 1474 H 132.114 -4.07529 -0.196091 0
M  V30 1475 H 130.789 -4.04765 0.955932 0
M  V30 1476 H 129.366 -3.63577 -0.828619 0
M  V30 1477 N 131.551 -0.354651 -1.53558 0
M  V30 1478 C 132.797 0.231422 -2.02079 0
M  V30 1479 C 133.152 1.47308 -1.23767 0
M  V30 1480 O 132.445 1.8891 -0.319947 0
M  V30 1481 C 132.639 0.587121 -3.52545 0
M  V30 1482 C 132.468 -0.618513 -4.45426 0
M  V30 1483 C 131.238 -1.12724 -4.92566 0
M  V30 1484 C 133.436 -1.48039 -4.92533 0
M  V30 1485 N 131.418 -2.29404 -5.69427 0
M  V30 1486 C 132.789 -2.49397 -5.67628 0
M  V30 1487 C 134.844 -1.50454 -4.74624 0
M  V30 1488 C 133.547 -3.53013 -6.26717 0
M  V30 1489 C 135.573 -2.52958 -5.34571 0
M  V30 1490 C 134.935 -3.5304 -6.09543 0
M  V30 1491 H 131.034 0.0476909 -0.780544 0
M  V30 1492 H 133.618 -0.496727 -1.88257 0
M  V30 1493 H 131.789 1.28436 -3.6655 0
M  V30 1494 H 133.521 1.15734 -3.87799 0
M  V30 1495 H 130.276 -0.693577 -4.68494 0
M  V30 1496 H 130.7 -2.88347 -6.12524 0
M  V30 1497 H 135.342 -0.744356 -4.16196 0
M  V30 1498 H 133.06 -4.2992 -6.84247 0
M  V30 1499 H 136.646 -2.55667 -5.22614 0
M  V30 1500 H 135.526 -4.31056 -6.55103 0
M  V30 1501 N 133.029 1.57378 -0.0835403 0
M  V30 1502 C 134.254 1.98682 0.594987 0
M  V30 1503 C 134.679 0.961969 1.61641 0
M  V30 1504 O 134.037 -0.0709989 1.81161 0
M  V30 1505 C 134.085 3.38988 1.2296 0
M  V30 1506 O 133.189 3.39208 2.34546 0
M  V30 1507 H 132.53 0.646368 0.152002 0
M  V30 1508 H 135.06 2.03961 -0.161533 0
M  V30 1509 H 135.07 3.76431 1.57366 0
M  V30 1510 H 133.745 4.13107 0.481228 0
M  V30 1511 H 132.322 3.13548 2.01846 0
M  V30 1512 N 134.507 -0.190092 1.56449 0
M  V30 1513 C 135.918 -0.754312 1.70784 0
M  V30 1514 C 136.269 -1.83631 0.690951 0
M  V30 1515 O 135.394 -2.15868 -0.151604 0
M  V30 1516 C 135.989 -1.37503 3.09642 0
M  V30 1517 C 134.548 -1.88628 3.25725 0
M  V30 1518 C 133.695 -0.758098 2.66736 0
M  V30 1519 H 136.646 0.0350524 1.58661 0
M  V30 1520 H 136.667 -2.2445 3.0725 0
M  V30 1521 H 136.179 -0.587302 3.83631 0
M  V30 1522 H 134.28 -2.70103 2.56661 0
M  V30 1523 H 134.393 -2.04462 4.3328 0
M  V30 1524 H 132.757 -1.17369 2.26046 0
M  V30 1525 H 133.54 0.0174705 3.43296 0
M  V30 1526 N 135.985 -1.50799 -0.457987 0
M  V30 1527 C 137.225 -1.64088 -1.21879 0
M  V30 1528 C 137.589 -0.339848 -1.88968 0
M  V30 1529 O 138.79 -0.348301 -2.66534 0
M  V30 1530 C 137.061 -2.79726 -2.2246 0
M  V30 1531 S 138.62 -3.13225 -3.07303 0
M  V30 1532 H 135.438 -0.578314 -0.41361 0
M  V30 1533 H 138.04 -1.88632 -0.513645 0
M  V30 1534 H 136.744 -3.72722 -1.71775 0
M  V30 1535 H 136.275 -2.57308 -2.97584 0
M  V30 1536 H 138.29 -2.58062 -4.23814 0
M  V30 1537 N 137.463 0.71206 -1.40597 0
M  V30 1538 C 138.709 1.47292 -1.40274 0
M  V30 1539 C 139.064 1.92399 -0.00576812 0
M  V30 1540 O 138.357 1.65507 0.965297 0
M  V30 1541 C 138.551 2.71039 -2.32965 0
M  V30 1542 C 138.38 2.38035 -3.81536 0
M  V30 1543 C 137.15 2.29203 -4.50327 0
M  V30 1544 C 139.348 2.02076 -4.72938 0
M  V30 1545 N 137.33 1.88911 -5.84111 0
M  V30 1546 C 138.701 1.72412 -5.95545 0
M  V30 1547 C 140.756 1.88742 -4.60739 0
M  V30 1548 C 139.459 1.30756 -7.07316 0
M  V30 1549 C 141.485 1.4849 -5.72455 0
M  V30 1550 C 140.847 1.19726 -6.94151 0
M  V30 1551 H 136.946 0.536919 -0.568544 0
M  V30 1552 H 139.53 0.825424 -1.76337 0
M  V30 1553 H 137.701 3.33533 -1.99023 0
M  V30 1554 H 139.433 3.37404 -2.23474 0
M  V30 1555 H 136.188 2.47059 -4.04053 0
M  V30 1556 H 136.612 1.71293 -6.54972 0
M  V30 1557 H 141.254 2.0964 -3.67166 0
M  V30 1558 H 138.972 1.08601 -8.00769 0
M  V30 1559 H 142.558 1.38747 -5.65014 0
M  V30 1560 H 141.438 0.890482 -7.79128 0
M  V30 1561 N 138.941 1.26152 0.944643 0
M  V30 1562 C 139.851 1.09176 2.07648 0
M  V30 1563 C 140.867 0.0261935 1.7398 0
M  V30 1564 O 142.043 0.229208 2.00091 0
M  V30 1565 C 139.108 0.722915 3.39079 0
M  V30 1566 C 138.169 1.86752 3.86552 0
M  V30 1567 C 137.402 1.51617 5.11711 0
M  V30 1568 O 137.625 0.416331 5.68879 0
M  V30 1569 O 136.559 2.34975 5.54139 0
M  V30 1570 H 140.385 2.0412 2.24875 0
M  V30 1571 H 137.97 1.05182 1.061 0
M  V30 1572 H 139.852 0.529787 4.18056 0
M  V30 1573 H 138.527 -0.197159 3.23099 0
M  V30 1574 H 137.434 2.11558 3.08535 0
M  V30 1575 H 138.767 2.76719 4.07047 0
M  V30 1576 N 140.419 -1.14872 1.07899 0
M  V30 1577 C 141.659 -1.8745 0.814965 0
M  V30 1578 C 142.023 -1.80758 -0.64733 0
M  V30 1579 O 143.224 -2.48422 -1.02664 0
M  V30 1580 C 141.495 -3.32286 1.31607 0
M  V30 1581 S 143.054 -4.22537 1.18357 0
M  V30 1582 H 139.872 -0.646833 0.295174 0
M  V30 1583 H 142.474 -1.38555 1.37923 0
M  V30 1584 H 141.178 -3.34703 2.37491 0
M  V30 1585 H 140.709 -3.86238 0.747261 0
M  V30 1586 H 142.724 -4.96044 0.124586 0
M  V30 1587 N 141.898 -0.863906 -1.31812 0
M  V30 1588 C 143.123 -0.48527 -2.01643 0
M  V30 1589 C 143.548 0.913058 -1.64453 0
M  V30 1590 O 142.906 1.6014 -0.849985 0
M  V30 1591 C 142.954 -0.642625 -3.54828 0
M  V30 1592 O 142.058 0.320659 -4.11151 0
M  V30 1593 H 141.399 -0.193793 -0.635091 0
M  V30 1594 H 143.929 -1.16565 -1.68148 0
M  V30 1595 H 143.939 -0.533628 -4.04495 0
M  V30 1596 H 142.614 -1.66227 -3.81237 0
M  V30 1597 H 141.191 0.167126 -3.72525 0
M  V30 1598 N 143.376 1.44774 -0.622745 0
M  V30 1599 C 144.308 2.28856 0.125485 0
M  V30 1600 C 145.321 1.40811 0.817069 0
M  V30 1601 O 146.51 1.65044 0.679918 0
M  V30 1602 C 143.61 3.16963 1.19949 0
M  V30 1603 C 142.783 4.33374 0.592064 0
M  V30 1604 C 141.842 5.02577 1.55893 0
M  V30 1605 O 140.868 5.58873 1.07933 0
M  V30 1606 N 142.07 5.03256 2.89334 0
M  V30 1607 H 144.835 2.93713 -0.596068 0
M  V30 1608 H 142.396 1.55129 -0.463303 0
M  V30 1609 H 144.388 3.60123 1.84644 0
M  V30 1610 H 142.958 2.53913 1.82337 0
M  V30 1611 H 142.178 3.93509 -0.233322 0
M  V30 1612 H 143.466 5.08527 0.166738 0
M  V30 1613 H 142.864 4.58836 3.30887 0
M  V30 1614 H 141.421 5.50232 3.49412 0
M  V30 1615 N 144.854 0.36279 1.53368 0
M  V30 1616 C 145.817 -0.472679 2.24273 0
M  V30 1617 C 146.817 -1.012 1.24961 0
M  V30 1618 O 148.007 -0.898194 1.49259 0
M  V30 1619 C 145.139 -1.66039 2.97731 0
M  V30 1620 H 146.332 0.14773 2.99536 0
M  V30 1621 H 143.885 0.114434 1.55881 0
M  V30 1622 H 144.62 -2.31896 2.26704 0
M  V30 1623 H 144.405 -1.28066 3.70596 0
M  V30 1624 H 145.895 -2.25252 3.51641 0
M  V30 1625 N 146.332 -1.57332 0.0918853 0
M  V30 1626 C 147.581 -1.93412 -0.572249 0
M  V30 1627 C 147.894 -0.975515 -1.69538 0
M  V30 1628 O 149.1 -1.22991 -2.42045 0
M  V30 1629 C 147.556 -3.43648 -1.0693 0
M  V30 1630 C 147.164 -4.47994 0.0239049 0
M  V30 1631 C 148.908 -3.88695 -1.70635 0
M  V30 1632 C 146.815 -5.89381 -0.488319 0
M  V30 1633 H 145.745 -0.721939 -0.217532 0
M  V30 1634 H 148.396 -1.82735 0.167369 0
M  V30 1635 H 146.778 -3.49466 -1.8625 0
M  V30 1636 H 147.952 -4.53815 0.799277 0
M  V30 1637 H 146.267 -4.12536 0.565946 0
M  V30 1638 H 148.864 -4.91725 -2.10025 0
M  V30 1639 H 149.207 -3.27166 -2.57426 0
M  V30 1640 H 149.74 -3.85564 -0.979023 0
M  V30 1641 H 146.479 -6.54602 0.342906 0
M  V30 1642 H 145.999 -5.87037 -1.23077 0
M  V30 1643 H 147.678 -6.39863 -0.958317 0
M  V30 1644 N 147.81 0.181792 -1.56548 0
M  V30 1645 C 149.226 0.53316 -1.50431 0
M  V30 1646 C 149.426 1.85184 -0.794297 0
M  V30 1647 O 148.482 2.50058 -0.350318 0
M  V30 1648 C 149.795 0.575597 -2.9514 0
M  V30 1649 C 151.343 0.663519 -3.05886 0
M  V30 1650 C 151.818 0.736946 -4.52032 0
M  V30 1651 N 153.309 0.800118 -4.56237 0
M  V30 1652 C 154.044 0.877327 -5.66649 0
M  V30 1653 N 153.54 0.916016 -6.86718 0
M  V30 1654 N 155.333 0.915542 -5.54594 0
M  V30 1655 H 147.484 -0.683025 -2.01118 0
M  V30 1656 H 149.747 -0.244988 -0.915797 0
M  V30 1657 H 149.453 -0.324482 -3.502 0
M  V30 1658 H 149.327 1.42572 -3.49218 0
M  V30 1659 H 151.714 1.55403 -2.50867 0
M  V30 1660 H 151.795 -0.21307 -2.54911 0
M  V30 1661 H 151.439 -0.149262 -5.07681 0
M  V30 1662 H 151.369 1.62953 -5.00753 0
M  V30 1663 H 153.86 0.778926 -3.69785 0
M  V30 1664 H 154.173 0.975813 -7.66614 0
M  V30 1665 H 152.518 0.884469 -6.89349 0
M  V30 1666 H 155.709 0.882245 -4.59711 0
M  V30 1667 H 155.882 0.972253 -6.40665 0
M  V30 1668 N 149.288 1.51039 0.449983 0
M  V30 1669 C 150.198 1.74261 1.57067 0
M  V30 1670 C 151.214 0.626363 1.62335 0
M  V30 1671 O 152.39 0.907162 1.79812 0
M  V30 1672 C 149.455 1.85114 2.93144 0
M  V30 1673 C 148.516 3.0893 2.98095 0
M  V30 1674 C 147.749 3.19256 4.27681 0
M  V30 1675 O 147.972 2.35835 5.19363 0
M  V30 1676 O 146.906 4.12144 4.38658 0
M  V30 1677 H 150.732 2.69303 1.40391 0
M  V30 1678 H 148.317 1.35389 0.631688 0
M  V30 1679 H 150.199 1.94311 3.73926 0
M  V30 1680 H 148.874 0.932588 3.09975 0
M  V30 1681 H 147.781 3.0522 2.16314 0
M  V30 1682 H 149.114 4.00433 2.86206 0
M  V30 1683 N 150.766 -0.704594 1.40972 0
M  V30 1684 C 152.013 -1.46458 1.39844 0
M  V30 1685 C 152.341 -1.94499 0.00447594 0
M  V30 1686 O 151.596 -1.69275 -0.982057 0
M  V30 1687 C 151.895 -2.698 2.34399 0
M  V30 1688 C 151.561 -2.40464 3.81429 0
M  V30 1689 C 150.223 -2.32174 4.21484 0
M  V30 1690 C 152.575 -2.16086 4.74296 0
M  V30 1691 C 149.903 -1.97589 5.52427 0
M  V30 1692 C 152.255 -1.83011 6.05549 0
M  V30 1693 C 150.919 -1.7321 6.44635 0
M  V30 1694 H 150.189 -0.535927 0.511725 0
M  V30 1695 H 152.836 -0.806124 1.73706 0
M  V30 1696 H 151.141 -3.40536 1.93759 0
M  V30 1697 H 152.838 -3.27919 2.30804 0
M  V30 1698 H 149.428 -2.47808 3.49699 0
M  V30 1699 H 153.612 -2.2144 4.4416 0
M  V30 1700 H 148.868 -1.88547 5.81601 0
M  V30 1701 H 153.042 -1.63164 6.77016 0
M  V30 1702 H 150.669 -1.46179 7.46013 0
M  V30 1703 N 152.244 -1.26651 -0.937939 0
M  V30 1704 C 153.174 -1.10993 -2.05433 0
M  V30 1705 C 154.155 -0.0142161 -1.70094 0
M  V30 1706 O 155.34 -0.186837 -1.93299 0
M  V30 1707 C 152.47 -0.745561 -3.39203 0
M  V30 1708 C 151.424 -1.79337 -3.88616 0
M  V30 1709 C 150.75 -1.28324 -5.19073 0
M  V30 1710 C 152.05 -3.19553 -4.13138 0
M  V30 1711 H 153.744 -2.0438 -2.1879 0
M  V30 1712 H 151.29 -0.984041 -1.05131 0
M  V30 1713 H 153.243 -0.622888 -4.16771 0
M  V30 1714 H 151.967 0.22401 -3.25831 0
M  V30 1715 H 150.626 -1.90477 -3.13231 0
M  V30 1716 H 150.274 -0.303414 -5.02084 0
M  V30 1717 H 149.974 -1.98369 -5.53103 0
M  V30 1718 H 151.498 -1.1733 -5.99221 0
M  V30 1719 H 152.912 -3.11471 -4.81309 0
M  V30 1720 H 151.309 -3.87218 -4.58457 0
M  V30 1721 H 152.379 -3.65368 -3.18801 0
M  V30 1722 N 153.722 1.14298 -1.08507 0
M  V30 1723 C 154.947 1.8976 -0.837001 0
M  V30 1724 C 155.372 1.78097 0.605228 0
M  V30 1725 O 154.73 1.12188 1.4242 0
M  V30 1726 C 154.778 3.37685 -1.26495 0
M  V30 1727 O 153.882 4.10281 -0.417514 0
M  V30 1728 H 153.223 0.590365 -0.303917 0
M  V30 1729 H 155.753 1.44672 -1.44676 0
M  V30 1730 H 155.763 3.88501 -1.24625 0
M  V30 1731 H 154.438 3.45492 -2.31534 0
M  V30 1732 H 153.015 3.69536 -0.499722 0
M  V30 1733 N 155.201 0.870884 1.31352 0
M  V30 1734 C 156.617 0.562932 1.49343 0
M  V30 1735 C 156.817 -0.902725 1.80148 0
M  V30 1736 O 155.873 -1.68484 1.88067 0
M  V30 1737 C 157.186 1.46393 2.62659 0
M  V30 1738 C 158.734 1.46607 2.76542 0
M  V30 1739 C 159.209 2.35266 3.92955 0
M  V30 1740 N 160.7 2.33151 4.00243 0
M  V30 1741 C 161.435 2.98471 4.89594 0
M  V30 1742 N 160.931 3.72964 5.8384 0
M  V30 1743 N 162.724 2.87775 4.82848 0
M  V30 1744 H 154.875 1.81923 1.09626 0
M  V30 1745 H 157.138 0.777934 0.541777 0
M  V30 1746 H 156.844 2.50689 2.46674 0
M  V30 1747 H 156.718 1.16314 3.58819 0
M  V30 1748 H 159.105 0.43069 2.9194 0
M  V30 1749 H 159.186 1.8071 1.81046 0
M  V30 1750 H 158.83 3.38881 3.78315 0
M  V30 1751 H 158.76 1.98487 4.87761 0
M  V30 1752 H 161.251 1.79006 3.32814 0
M  V30 1753 H 161.564 4.19932 6.4875 0
M  V30 1754 H 159.909 3.77073 5.83816 0
M  V30 1755 H 163.1 2.29116 4.08195 0
M  V30 1756 H 163.273 3.38961 5.52277 0
M  V30 1757 N 156.679 -1.44442 0.630414 0
M  V30 1758 C 157.629 -2.27794 -0.0968103 0
M  V30 1759 C 158.613 -1.38624 -0.816834 0
M  V30 1760 O 159.805 -1.62438 -0.70306 0
M  V30 1761 C 156.934 -3.25929 -1.07819 0
M  V30 1762 C 156.02 -4.22588 -0.357826 0
M  V30 1763 N 156.411 -5.0207 0.613169 0
M  V30 1764 C 154.709 -4.41914 -0.602365 0
M  V30 1765 C 155.41 -5.72351 1.03871 0
M  V30 1766 N 154.386 -5.42287 0.377642 0
M  V30 1767 H 158.188 -2.86653 0.648621 0
M  V30 1768 H 155.702 -1.55871 0.455862 0
M  V30 1769 H 157.699 -3.84399 -1.61378 0
M  V30 1770 H 156.359 -2.68631 -1.82393 0
M  V30 1771 H 157.37 -5.08331 0.990947 0
M  V30 1772 H 154.047 -3.95714 -1.33103 0
M  V30 1773 H 155.437 -6.4619 1.84086 0
M  V30 1774 N 158.157 -0.370918 -1.53173 0
M  V30 1775 C 159.568 0.107139 -1.86392 0
M  V30 1776 C 159.919 1.47714 -1.29132 0
M  V30 1777 O 159.044 2.07464 -0.615439 0
M  V30 1778 C 159.639 0.201187 -3.38202 0
M  V30 1779 C 158.198 0.623507 -3.712 0
M  V30 1780 C 157.345 -0.225978 -2.76378 0
M  V30 1781 H 160.296 -0.58951 -1.47345 0
M  V30 1782 H 160.317 1.02377 -3.66468 0
M  V30 1783 H 159.829 -0.796058 -3.79848 0
M  V30 1784 H 157.93 1.62879 -3.35114 0
M  V30 1785 H 158.043 0.394414 -4.77474 0
M  V30 1786 H 156.407 0.305962 -2.52856 0
M  V30 1787 H 157.19 -1.22086 -3.20858 0
M  V30 1788 N 159.635 1.57281 -0.100228 0
M  V30 1789 C 160.883 1.94153 0.561157 0
M  V30 1790 C 161.204 0.983157 1.68401 0
M  V30 1791 O 160.474 0.0361132 1.95867 0
M  V30 1792 H 159.054 0.716791 0.210283 0
M  V30 1793 H 161.716 1.94202 -0.164765 0
M  V30 1794 H 160.812 2.96709 0.968008 0
M  V30 1795 N 161.113 -0.173488 1.56642 0
M  V30 1796 C 162.359 -0.891784 1.8214 0
M  V30 1797 C 162.692 -1.8199 0.677736 0
M  V30 1798 O 161.967 -1.91842 -0.320446 0
M  V30 1799 C 162.25 -1.68933 3.18015 0
M  V30 1800 C 162.103 -0.784487 4.42906 0
M  V30 1801 C 163.422 -2.65748 3.50808 0
M  V30 1802 H 160.541 -0.322761 0.662567 0
M  V30 1803 H 163.183 -0.158095 1.89341 0
M  V30 1804 H 161.333 -2.31482 3.12007 0
M  V30 1805 H 163.005 -0.172046 4.60979 0
M  V30 1806 H 161.248 -0.0924117 4.33702 0
M  V30 1807 H 161.919 -1.37799 5.34524 0
M  V30 1808 H 164.395 -2.13327 3.57255 0
M  V30 1809 H 163.271 -3.18619 4.4696 0
M  V30 1810 H 163.532 -3.45842 2.75401 0
M  V30 1811 N 162.591 -1.51276 -0.441967 0
M  V30 1812 C 163.819 -1.67516 -1.21434 0
M  V30 1813 C 164.234 -0.37055 -1.85128 0
M  V30 1814 O 163.591 0.650498 -1.70513 0
M  V30 1815 C 163.642 -2.78748 -2.30177 0
M  V30 1816 O 163.363 -4.04154 -1.69089 0
M  V30 1817 C 164.864 -3.06217 -3.20541 0
M  V30 1818 H 162.084 -0.562276 -0.366178 0
M  V30 1819 H 164.628 -1.97666 -0.524244 0
M  V30 1820 H 162.783 -2.5121 -2.94911 0
M  V30 1821 H 163.197 -4.65894 -2.40922 0
M  V30 1822 H 164.671 -3.8764 -3.92987 0
M  V30 1823 H 165.148 -2.18439 -3.81026 0
M  V30 1824 H 165.754 -3.35397 -2.61513 0
M  V30 1825 N 164.069 0.697108 -1.41344 0
M  V30 1826 C 164.999 1.82353 -1.45841 0
M  V30 1827 C 165.98 1.67115 -0.317247 0
M  V30 1828 O 167.165 1.86871 -0.528474 0
M  V30 1829 C 164.295 3.20476 -1.33838 0
M  V30 1830 C 163.249 3.50415 -2.4575 0
M  V30 1831 C 162.575 4.87878 -2.18813 0
M  V30 1832 C 163.875 3.49546 -3.88091 0
M  V30 1833 H 165.569 1.78846 -2.40113 0
M  V30 1834 H 163.115 0.859028 -1.15571 0
M  V30 1835 H 165.068 3.98988 -1.35596 0
M  V30 1836 H 163.792 3.24604 -0.360498 0
M  V30 1837 H 162.451 2.74253 -2.43271 0
M  V30 1838 H 162.099 4.8863 -1.19371 0
M  V30 1839 H 161.799 5.08875 -2.93803 0
M  V30 1840 H 163.323 5.68702 -2.22284 0
M  V30 1841 H 164.737 4.18066 -3.92293 0
M  V30 1842 H 163.134 3.82075 -4.62751 0
M  V30 1843 H 164.204 2.48552 -4.16353 0
M  V30 1844 N 165.547 1.27147 0.931209 0
M  V30 1845 C 166.793 1.13446 1.68101 0
M  V30 1846 C 167.126 -0.319628 1.91552 0
M  V30 1847 O 166.401 -1.23407 1.50336 0
M  V30 1848 C 166.684 1.91482 3.0497 0
M  V30 1849 C 166.537 3.44855 2.88782 0
M  V30 1850 C 167.856 1.71651 4.05246 0
M  V30 1851 H 164.975 0.413498 0.610072 0
M  V30 1852 H 167.617 1.56261 1.08086 0
M  V30 1853 H 165.767 1.55095 3.56199 0
M  V30 1854 H 167.439 3.9105 2.44698 0
M  V30 1855 H 165.682 3.71373 2.24198 0
M  V30 1856 H 166.353 3.94694 3.85902 0
M  V30 1857 H 168.829 2.0337 3.63015 0
M  V30 1858 H 167.705 2.28651 4.99009 0
M  V30 1859 H 167.966 0.663555 4.37092 0
M  V30 1860 N 167.025 -1.13721 1.09112 0
M  V30 1861 C 168.274 -1.84275 0.82009 0
M  V30 1862 C 168.587 -1.84253 -0.656509 0
M  V30 1863 O 169.793 -2.50668 -1.04296 0
M  V30 1864 C 168.249 -3.30825 1.41714 0
M  V30 1865 C 167.857 -3.39244 2.92605 0
M  V30 1866 C 169.601 -4.06443 1.22492 0
M  V30 1867 C 167.508 -4.80047 3.45411 0
M  V30 1868 H 166.438 -0.690387 0.30312 0
M  V30 1869 H 169.089 -1.28146 1.31343 0
M  V30 1870 H 167.471 -3.86737 0.851498 0
M  V30 1871 H 168.645 -2.93344 3.55367 0
M  V30 1872 H 166.96 -2.77088 3.10823 0
M  V30 1873 H 169.557 -5.10387 1.59402 0
M  V30 1874 H 169.9 -4.15972 0.165299 0
M  V30 1875 H 170.433 -3.56852 1.75788 0
M  V30 1876 H 167.172 -4.75709 4.50978 0
M  V30 1877 H 166.692 -5.26455 2.87411 0
M  V30 1878 H 168.371 -5.48957 3.42425 0
M  V30 1879 N 168.503 -0.877838 -1.30888 0
M  V30 1880 C 169.733 -0.506678 -2.00291 0
M  V30 1881 C 170.141 0.907449 -1.66018 0
M  V30 1882 O 169.484 1.60719 -0.88967 0
M  V30 1883 C 169.546 -0.59323 -3.54572 0
M  V30 1884 C 169.21 -1.97038 -4.12341 0
M  V30 1885 C 170.207 -2.93889 -4.28865 0
M  V30 1886 C 167.892 -2.27383 -4.47886 0
M  V30 1887 C 169.886 -4.19224 -4.80136 0
M  V30 1888 C 167.573 -3.52965 -4.98857 0
M  V30 1889 C 168.571 -4.48701 -5.14934 0
M  V30 1890 O 168.259 -5.72056 -5.64808 0
M  V30 1891 H 167.991 -0.1951 -0.647234 0
M  V30 1892 H 170.545 -1.18301 -1.6791 0
M  V30 1893 H 168.775 0.140057 -3.86446 0
M  V30 1894 H 170.464 -0.234372 -4.05223 0
M  V30 1895 H 171.23 -2.71756 -4.01714 0
M  V30 1896 H 167.109 -1.53639 -4.34645 0
M  V30 1897 H 170.653 -4.93956 -4.92599 0
M  V30 1898 H 166.55 -3.74939 -5.25443 0
M  V30 1899 H 167.318 -5.74337 -5.83163 0
M  V30 1900 N 169.982 1.44106 -0.638065 0
M  V30 1901 C 171.228 2.02277 -0.145546 0
M  V30 1902 C 171.561 1.50125 1.23191 0
M  V30 1903 O 170.836 0.688133 1.8192 0
M  V30 1904 C 171.119 3.59829 -0.139791 0
M  V30 1905 C 170.972 4.22247 -1.55008 0
M  V30 1906 C 172.291 4.36873 0.531966 0
M  V30 1907 H 169.41 0.734992 -0.0543632 0
M  V30 1908 H 172.052 1.71592 -0.815863 0
M  V30 1909 H 170.202 3.86102 0.431007 0
M  V30 1910 H 171.874 4.07057 -2.1703 0
M  V30 1911 H 170.117 3.79476 -2.10191 0
M  V30 1912 H 170.788 5.31284 -1.49804 0
M  V30 1913 H 173.264 4.16074 0.0464781 0
M  V30 1914 H 172.14 5.4657 0.505206 0
M  V30 1915 H 172.401 4.11995 1.60352 0
M  V30 1916 N 171.46 0.379036 1.52974 0
M  V30 1917 C 172.423 -0.448865 2.24762 0
M  V30 1918 C 173.423 -0.998689 1.26027 0
M  V30 1919 O 174.613 -0.882313 1.50203 0
M  V30 1920 C 171.745 -1.62872 2.99476 0
M  V30 1921 H 172.938 0.179491 2.99362 0
M  V30 1922 H 170.491 0.13096 1.5575 0
M  V30 1923 H 171.226 -2.29479 2.29151 0
M  V30 1924 H 171.011 -1.24128 3.71934 0
M  V30 1925 H 172.501 -2.2151 3.5401 0
M  V30 1926 N 172.938 -1.57226 0.108567 0
M  V30 1927 C 174.354 -1.5766 -0.248058 0
M  V30 1928 C 174.554 -1.12063 -1.67464 0
M  V30 1929 O 173.61 -0.803236 -2.39383 0
M  V30 1930 C 174.923 -3.0069 -0.0242287 0
M  V30 1931 C 176.471 -3.12868 -0.0909372 0
M  V30 1932 C 176.946 -4.57879 0.105067 0
M  V30 1933 N 178.437 -4.63172 0.0506846 0
M  V30 1934 C 179.172 -5.73126 0.177396 0
M  V30 1935 N 178.668 -6.91866 0.359696 0
M  V30 1936 N 180.461 -5.61977 0.117709 0
M  V30 1937 H 172.612 -1.85169 1.04049 0
M  V30 1938 H 174.875 -0.85529 0.40888 0
M  V30 1939 H 174.581 -3.38299 0.961604 0
M  V30 1940 H 174.455 -3.6945 -0.76068 0
M  V30 1941 H 176.842 -2.75124 -1.06729 0
M  V30 1942 H 176.923 -2.46672 0.677225 0
M  V30 1943 H 176.567 -4.96321 1.07834 0
M  V30 1944 H 176.497 -5.22153 -0.682954 0
M  V30 1945 H 178.988 -3.778 -0.0871266 0
M  V30 1946 H 179.301 -7.71503 0.447529 0
M  V30 1947 H 177.646 -6.93874 0.395536 0
M  V30 1948 H 180.837 -4.68094 -0.0236741 0
M  V30 1949 H 181.01 -6.47627 0.219905 0
M  V30 1950 N 174.416 0.165178 -1.56732 0
M  V30 1951 C 175.346 1.20651 -1.99914 0
M  V30 1952 C 176.327 1.45827 -0.875705 0
M  V30 1953 O 177.512 1.57057 -1.14223 0
M  V30 1954 C 174.642 2.54401 -2.36427 0
M  V30 1955 C 173.596 2.43782 -3.51787 0
M  V30 1956 C 172.922 3.82078 -3.7406 0
M  V30 1957 C 174.222 1.93732 -4.85041 0
M  V30 1958 H 175.916 0.847534 -2.87154 0
M  V30 1959 H 173.462 0.40625 -1.38151 0
M  V30 1960 H 175.415 3.27458 -2.65234 0
M  V30 1961 H 174.139 2.92098 -1.46103 0
M  V30 1962 H 172.798 1.73178 -3.23117 0
M  V30 1963 H 172.446 4.17179 -2.81017 0
M  V30 1964 H 172.146 3.7584 -4.51684 0
M  V30 1965 H 173.67 4.56712 -4.05274 0
M  V30 1966 H 175.084 2.56569 -5.12684 0
M  V30 1967 H 173.481 1.98428 -5.66345 0
M  V30 1968 H 174.551 0.891962 -4.76626 0
M  V30 1969 N 175.894 1.51508 0.433938 0
M  V30 1970 C 177.141 1.64345 1.18309 0
M  V30 1971 C 177.469 0.361315 1.91115 0
M  V30 1972 O 176.724 -0.654753 1.84422 0
M  V30 1973 C 177.023 2.79928 2.22205 0
M  V30 1974 C 176.689 4.19078 1.66387 0
M  V30 1975 C 175.351 4.56932 1.50887 0
M  V30 1976 C 177.703 5.05894 1.25381 0
M  V30 1977 C 175.031 5.79305 0.928608 0
M  V30 1978 C 177.383 6.2885 0.687823 0
M  V30 1979 C 176.047 6.65473 0.519755 0
M  V30 1980 H 175.317 0.601381 0.432923 0
M  V30 1981 H 177.964 1.85549 0.473676 0
M  V30 1982 H 176.269 2.52959 2.99197 0
M  V30 1983 H 177.966 2.87059 2.79997 0
M  V30 1984 H 174.556 3.89234 1.79428 0
M  V30 1985 H 178.74 4.77253 1.36175 0
M  V30 1986 H 173.996 6.06324 0.786186 0
M  V30 1987 H 178.17 6.95461 0.361581 0
M  V30 1988 H 175.797 7.6017 0.0679979 0
M  V30 1989 N 177.372 -0.689602 1.41712 0
M  V30 1990 C 178.618 -1.45041 1.42599 0
M  V30 1991 C 178.973 -1.92366 0.0363764 0
M  V30 1992 O 178.266 -1.67022 -0.938844 0
M  V30 1993 C 178.46 -2.67298 2.37247 0
M  V30 1994 C 178.289 -2.31935 3.85274 0
M  V30 1995 C 177.059 -2.2201 4.53916 0
M  V30 1996 C 179.257 -1.94526 4.76093 0
M  V30 1997 N 177.239 -1.79594 5.87043 0
M  V30 1998 C 178.61 -1.62915 5.98213 0
M  V30 1999 C 180.665 -1.81388 4.63684 0
M  V30 2000 C 179.368 -1.19486 7.09306 0
M  V30 2001 C 181.394 -1.39364 5.74745 0
M  V30 2002 C 180.756 -1.08668 6.95967 0
M  V30 2003 H 176.855 -0.527806 0.577014 0
M  V30 2004 H 179.439 -0.797266 1.77628 0
M  V30 2005 H 177.61 -3.30325 2.04304 0
M  V30 2006 H 179.342 -3.33806 2.28814 0
M  V30 2007 H 176.097 -2.406 4.07932 0
M  V30 2008 H 176.521 -1.60851 6.57614 0
M  V30 2009 H 181.163 -2.03772 3.70455 0
M  V30 2010 H 178.881 -0.958477 8.02396 0
M  V30 2011 H 182.467 -1.2974 5.6715 0
M  V30 2012 H 181.347 -0.766417 7.80446 0
M  V30 2013 N 178.85 -1.27639 -0.924453 0
M  V30 2014 C 179.8 -1.07295 -2.01176 0
M  V30 2015 C 180.784 5.77352e-05 -1.609 0
M  V30 2016 O 181.976 -0.218855 -1.75642 0
M  V30 2017 C 179.105 -0.725592 -3.35544 0
M  V30 2018 C 178.191 -1.83691 -3.82254 0
M  V30 2019 N 178.582 -3.07697 -4.01443 0
M  V30 2020 C 176.88 -1.72433 -4.11319 0
M  V30 2021 C 177.581 -3.80037 -4.40394 0
M  V30 2022 N 176.557 -3.0782 -4.48049 0
M  V30 2023 H 180.359 -2.01399 -2.14046 0
M  V30 2024 H 177.873 -1.18401 -1.11153 0
M  V30 2025 H 179.87 -0.560959 -4.13109 0
M  V30 2026 H 178.53 0.207782 -3.24034 0
M  V30 2027 H 179.541 -3.43424 -3.8766 0
M  V30 2028 H 176.218 -0.862005 -4.08504 0
M  V30 2029 H 177.608 -4.86632 -4.63291 0
M  V30 2030 N 180.328 1.1314 -1.09713 0
M  V30 2031 C 181.261 2.17735 -0.683137 0
M  V30 2032 C 182.239 1.59582 0.311841 0
M  V30 2033 O 183.423 1.87298 0.212514 0
M  V30 2034 C 180.55 3.38699 -0.00684324 0
M  V30 2035 C 179.596 4.1546 -0.964102 0
M  V30 2036 S 180.429 4.74733 -2.47767 0
M  V30 2037 C 181.585 5.9904 -1.81387 0
M  V30 2038 H 181.818 2.52515 -1.56918 0
M  V30 2039 H 179.351 1.24484 -0.913404 0
M  V30 2040 H 181.309 4.08765 0.377044 0
M  V30 2041 H 179.97 3.02214 0.85589 0
M  V30 2042 H 179.163 5.02093 -0.43803 0
M  V30 2043 H 178.765 3.51066 -1.28953 0
M  V30 2044 H 181.057 6.67846 -1.13967 0
M  V30 2045 H 182 6.56261 -2.65947 0
M  V30 2046 H 182.408 5.4976 -1.28155 0
M  V30 2047 N 181.806 0.884767 1.30421 0
M  V30 2048 C 183.083 0.423185 1.90967 0
M  V30 2049 C 183.463 -1.09605 1.80416 0
M  V30 2050 O 182.811 -1.93126 1.22125 0
M  V30 2051 C 183.021 0.921056 3.36627 0
M  V30 2052 C 184.369 0.955903 4.137 0
M  V30 2053 O 185.393 0.867706 3.4547 0
M  V30 2054 O 184.252 1.08614 5.35598 0
M  V30 2055 H 181.346 0.129369 0.816819 0
M  V30 2056 H 183.892 0.973653 1.3899 0
M  V30 2057 H 182.664 1.96489 3.3839 0
M  V30 2058 H 182.287 0.349741 3.96059 0
M  V30 2059 N 183.284 -1.43765 0.645699 0
M  V30 2060 C 184.216 -2.29027 -0.0890605 0
M  V30 2061 C 185.229 -1.42093 -0.794563 0
M  V30 2062 O 186.418 -1.66104 -0.653575 0
M  V30 2063 C 183.518 -3.18831 -1.14891 0
M  V30 2064 C 182.691 -4.34261 -0.523043 0
M  V30 2065 C 181.75 -5.04994 -1.47878 0
M  V30 2066 O 180.776 -5.6052 -0.990277 0
M  V30 2067 N 181.978 -5.07795 -2.81291 0
M  V30 2068 H 184.743 -2.92727 0.64272 0
M  V30 2069 H 182.304 -1.54373 0.487924 0
M  V30 2070 H 184.296 -3.63015 -1.78892 0
M  V30 2071 H 182.866 -2.56782 -1.78275 0
M  V30 2072 H 182.086 -3.93088 0.295896 0
M  V30 2073 H 183.374 -5.08728 -0.0858147 0
M  V30 2074 H 182.772 -4.64042 -3.23546 0
M  V30 2075 H 181.329 -5.55721 -3.40614 0
M  V30 2076 N 184.763 -0.387143 -1.52771 0
M  V30 2077 C 185.695 0.484089 -2.2403 0
M  V30 2078 C 186.708 1.02849 -1.26198 0
M  V30 2079 O 187.897 0.931186 -1.52286 0
M  V30 2080 C 184.997 1.68337 -2.94136 0
M  V30 2081 C 184.17 1.26672 -4.18656 0
M  V30 2082 C 183.229 2.33045 -4.7178 0
M  V30 2083 O 182.255 1.94541 -5.34923 0
M  V30 2084 N 183.457 3.64929 -4.5145 0
M  V30 2085 H 186.222 -0.126404 -2.99433 0
M  V30 2086 H 183.783 -0.213392 -1.60488 0
M  V30 2087 H 185.775 2.39019 -3.26577 0
M  V30 2088 H 184.345 2.20025 -2.22053 0
M  V30 2089 H 183.565 0.388878 -3.92277 0
M  V30 2090 H 184.853 0.964964 -4.99566 0
M  V30 2091 H 184.251 3.98974 -4.01044 0
M  V30 2092 H 182.808 4.31651 -4.88386 0
M  V30 2093 N 186.241 1.57166 -0.116904 0
M  V30 2094 C 187.189 2.16457 0.851418 0
M  V30 2095 C 188.183 1.11323 1.27686 0
M  V30 2096 O 189.389 1.2963 1.24884 0
M  V30 2097 H 185.764 0.69271 0.292672 0
M  V30 2098 H 187.735 2.96605 0.32685 0
M  V30 2099 C 186.484 2.77689 2.09246 0
M  V30 2100 H 185.807 3.58285 1.77402 0
M  V30 2101 H 187.247 3.22716 2.7501 0
M  V30 2102 C 185.706 1.74667 2.88085 0
M  V30 2103 O 186.236 1.19877 3.83396 0
M  V30 2104 N 184.442 1.44656 2.52038 0
M  V30 2105 H 183.989 1.89402 1.74599 0
M  V30 2106 H 183.947 0.759675 3.05084 0
M  V30 2107 N 187.719 -0.156864 1.56817 0
M  V30 2108 C 189.135 -0.50916 1.5126 0
M  V30 2109 C 189.335 -1.83897 0.823658 0
M  V30 2110 O 188.391 -2.49469 0.390055 0
M  V30 2111 C 189.704 -0.52857 2.96018 0
M  V30 2112 C 191.252 -0.614771 3.06903 0
M  V30 2113 C 191.727 -0.664938 4.53147 0
M  V30 2114 N 193.218 -0.727433 4.57452 0
M  V30 2115 C 193.953 -0.787067 5.67973 0
M  V30 2116 N 193.449 -0.806649 6.88088 0
M  V30 2117 N 195.242 -0.827195 5.5598 0
M  V30 2118 H 187.393 0.714935 2.00006 0
M  V30 2119 H 189.656 0.259526 0.911784 0
M  V30 2120 H 189.362 0.380154 3.49639 0
M  V30 2121 H 189.236 -1.36998 3.51442 0
M  V30 2122 H 191.623 -1.51392 2.53307 0
M  V30 2123 H 191.704 0.253597 2.5454 0
M  V30 2124 H 191.348 0.230011 5.07379 0
M  V30 2125 H 191.278 -1.54966 5.03282 0
M  V30 2126 H 193.769 -0.719998 3.70978 0
M  V30 2127 H 194.082 -0.853727 7.6807 0
M  V30 2128 H 192.427 -0.774687 6.90669 0
M  V30 2129 H 195.618 -0.808998 4.61056 0
M  V30 2130 H 195.791 -0.870206 6.4213 0
M  V30 2131 N 189.197 -1.51736 -0.425897 0
M  V30 2132 C 190.129 -1.70083 -1.53638 0
M  V30 2133 C 191.142 -0.581349 -1.52066 0
M  V30 2134 O 192.331 -0.856017 -1.56635 0
M  V30 2135 C 189.431 -1.71078 -2.9255 0
M  V30 2136 C 188.604 -2.99795 -3.185 0
M  V30 2137 C 187.663 -2.92825 -4.37196 0
M  V30 2138 O 186.689 -3.66756 -4.35291 0
M  V30 2139 N 187.891 -2.0946 -5.41393 0
M  V30 2140 H 190.656 -2.65882 -1.383 0
M  V30 2141 H 188.217 -1.49765 -0.614988 0
M  V30 2142 H 190.209 -1.63969 -3.69995 0
M  V30 2143 H 188.779 -0.828242 -3.01428 0
M  V30 2144 H 187.999 -3.20684 -2.2925 0
M  V30 2145 H 189.287 -3.84977 -3.32671 0
M  V30 2146 H 188.685 -1.48792 -5.45781 0
M  V30 2147 H 187.242 -2.08221 -6.17647 0
M  V30 2148 N 190.675 0.682077 -1.42076 0
M  V30 2149 C 191.923 1.4393 -1.41876 0
M  V30 2150 C 192.244 1.94971 -0.0335599 0
M  V30 2151 O 191.514 1.72591 0.926773 0
M  V30 2152 H 190.094 0.534085 -0.522267 0
M  V30 2153 H 192.756 0.806427 -1.77434 0
M  V30 2154 H 191.852 2.29588 -2.11414 0
M  V30 2155 N 192.153 1.28127 0.917671 0
M  V30 2156 C 193.083 1.14248 2.03641 0
M  V30 2157 C 194.064 0.0412748 1.7005 0
M  V30 2158 O 195.249 0.217566 1.92977 0
M  V30 2159 C 192.379 0.799431 3.37974 0
M  V30 2160 C 191.333 1.85497 3.85713 0
M  V30 2161 C 190.659 1.36565 5.16966 0
M  V30 2162 C 191.959 3.26085 4.08002 0
M  V30 2163 H 193.653 2.07835 2.15511 0
M  V30 2164 H 191.199 1.00064 1.03553 0
M  V30 2165 H 193.152 0.689114 4.15727 0
M  V30 2166 H 191.876 -0.172145 3.26146 0
M  V30 2167 H 190.535 1.95437 3.10161 0
M  V30 2168 H 190.183 0.383253 5.01538 0
M  V30 2169 H 189.883 2.07143 5.49878 0
M  V30 2170 H 191.407 1.26848 5.97279 0
M  V30 2171 H 192.821 3.19089 4.76293 0
M  V30 2172 H 191.218 3.94462 4.52238 0
M  V30 2173 H 192.288 3.70394 3.12948 0
M  V30 2174 N 193.631 -1.12557 1.10312 0
M  V30 2175 C 195.047 -1.36036 0.834649 0
M  V30 2176 C 195.247 -1.93946 -0.546539 0
M  V30 2177 O 194.303 -2.16484 -1.29966 0
M  V30 2178 C 195.616 -2.30312 1.9333 0
M  V30 2179 C 197.164 -2.43906 1.9616 0
M  V30 2180 C 197.639 -3.41496 3.05195 0
M  V30 2181 N 199.13 -3.49053 3.04494 0
M  V30 2182 C 199.865 -4.24471 3.85502 0
M  V30 2183 N 199.361 -5.02966 4.76442 0
M  V30 2184 N 201.154 -4.19864 3.73725 0
M  V30 2185 H 193.305 -0.733246 1.99342 0
M  V30 2186 H 195.568 -0.385234 0.866198 0
M  V30 2187 H 195.274 -1.94933 2.92735 0
M  V30 2188 H 195.148 -3.30421 1.81939 0
M  V30 2189 H 197.535 -2.78567 0.973886 0
M  V30 2190 H 197.616 -1.4369 2.11629 0
M  V30 2191 H 197.26 -3.07565 4.04186 0
M  V30 2192 H 197.19 -4.41539 2.86968 0
M  V30 2193 H 199.681 -2.93053 2.38596 0
M  V30 2194 H 199.994 -5.57846 5.34815 0
M  V30 2195 H 198.339 -5.02167 4.80472 0
M  V30 2196 H 201.53 -3.57623 3.02032 0
M  V30 2197 H 201.703 -4.78386 4.37093 0
M  V30 2198 N 195.109 -0.891671 -1.2995 0
M  V30 2199 C 196.386 -0.433307 -1.9074 0
M  V30 2200 C 196.766 1.08646 -1.80995 0
M  V30 2201 O 196.114 1.92476 -1.23147 0
M  V30 2202 C 196.324 -0.938895 -3.36134 0
M  V30 2203 C 197.672 -0.977829 -4.13187 0
M  V30 2204 O 198.696 -0.886015 -3.45005 0
M  V30 2205 O 197.555 -1.11453 -5.35015 0
M  V30 2206 H 194.649 -0.133699 -0.816121 0
M  V30 2207 H 197.195 -0.981011 -1.38471 0
M  V30 2208 H 195.967 -1.98281 -3.37343 0
M  V30 2209 H 195.59 -0.37074 -3.95868 0
M  V30 2210 N 196.587 1.43421 -0.653314 0
M  V30 2211 C 197.517 2.33487 0.0246656 0
M  V30 2212 C 198.498 1.49475 0.811863 0
M  V30 2213 O 199.683 1.78139 0.773322 0
M  V30 2214 C 196.813 3.32841 0.99166 0
M  V30 2215 C 195.767 4.26842 0.314568 0
M  V30 2216 C 195.093 5.16236 1.39302 0
M  V30 2217 C 196.393 5.16243 -0.793095 0
M  V30 2218 H 198.087 2.90427 -0.727481 0
M  V30 2219 H 195.633 1.39649 -0.351287 0
M  V30 2220 H 197.586 3.94747 1.47487 0
M  V30 2221 H 196.31 2.74158 1.77497 0
M  V30 2222 H 194.969 3.663 -0.148199 0
M  V30 2223 H 194.617 4.53891 2.16776 0
M  V30 2224 H 194.317 5.79948 0.945223 0
M  V30 2225 H 195.841 5.81015 1.87759 0
M  V30 2226 H 197.255 5.71958 -0.392039 0
M  V30 2227 H 195.652 5.88676 -1.16536 0
M  V30 2228 H 196.722 4.55927 -1.65103 0
M  V30 2229 N 198.065 0.39524 1.52563 0
M  V30 2230 C 199.311 -0.185318 2.01952 0
M  V30 2231 C 199.644 -1.45964 1.28095 0
M  V30 2232 O 198.919 -1.90689 0.38315 0
M  V30 2233 C 199.202 -0.447193 3.57312 0
M  V30 2234 C 199.055 0.842828 4.41833 0
M  V30 2235 C 200.374 -1.23529 4.22408 0
M  V30 2236 H 197.493 -0.0658788 0.73405 0
M  V30 2237 H 200.135 0.525975 1.82575 0
M  V30 2238 H 198.285 -1.05312 3.73954 0
M  V30 2239 H 199.957 1.4795 4.36931 0
M  V30 2240 H 198.2 1.45686 4.08605 0
M  V30 2241 H 198.871 0.614165 5.48573 0
M  V30 2242 H 201.347 -0.722445 4.0978 0
M  V30 2243 H 200.223 -1.38727 5.3108 0
M  V30 2244 H 200.484 -2.25213 3.80436 0
M  V30 2245 N 199.544 -1.57102 0.125237 0
M  V30 2246 C 200.492 -2.16905 -0.839927 0
M  V30 2247 C 201.486 -1.11998 -1.27094 0
M  V30 2248 O 202.692 -1.3029 -1.24195 0
M  V30 2249 H 199.067 -0.694252 -0.288995 0
M  V30 2250 H 201.038 -2.96774 -0.311115 0
M  V30 2251 C 199.787 -2.78795 -2.07771 0
M  V30 2252 H 199.11 -3.59221 -1.755 0
M  V30 2253 H 200.55 -3.2417 -2.73295 0
M  V30 2254 C 199.009 -1.76193 -2.87155 0
M  V30 2255 O 199.539 -1.21909 -3.82755 0
M  V30 2256 N 197.745 -1.45991 -2.51267 0
M  V30 2257 H 197.292 -1.90325 -1.73592 0
M  V30 2258 H 197.25 -0.775844 -3.04677 0
M  V30 2259 N 201.022 0.148545 -1.56898 0
M  V30 2260 C 202.247 0.880385 -1.87787 0
M  V30 2261 C 202.672 1.74018 -0.714093 0
M  V30 2262 O 202.03 1.78153 0.336343 0
M  V30 2263 C 202.078 1.71422 -3.17249 0
M  V30 2264 O 201.182 2.8183 -3.01074 0
M  V30 2265 H 200.523 0.245301 -0.617028 0
M  V30 2266 H 203.053 0.139826 -2.04122 0
M  V30 2267 H 203.063 2.10954 -3.49231 0
M  V30 2268 H 201.738 1.08284 -4.01556 0
M  V30 2269 H 200.315 2.45715 -2.80497 0
M  V30 2270 N 202.5 1.5196 0.417844 0
M  V30 2271 C 203.748 1.65263 1.16329 0
M  V30 2272 C 204.069 0.380634 1.91249 0
M  V30 2273 O 203.339 -0.604214 1.86349 0
M  V30 2274 H 201.919 0.60912 0.432414 0
M  V30 2275 H 204.581 1.88969 0.477162 0
M  V30 2276 H 203.677 2.4896 1.88217 0
M  V30 2277 N 203.978 -0.674533 1.42435 0
M  V30 2278 C 205.224 -1.43671 1.43131 0
M  V30 2279 C 205.557 -1.94142 0.0476021 0
M  V30 2280 O 204.832 -1.70924 -0.928188 0
M  V30 2281 C 205.115 -2.63355 2.45594 0
M  V30 2282 C 204.968 -2.18514 3.93156 0
M  V30 2283 C 206.287 -3.65571 2.45043 0
M  V30 2284 H 203.406 -0.521077 0.521198 0
M  V30 2285 H 206.048 -0.766551 1.7385 0
M  V30 2286 H 204.198 -3.2053 2.19528 0
M  V30 2287 H 205.87 -1.66504 4.30202 0
M  V30 2288 H 204.113 -1.50086 4.07009 0
M  V30 2289 H 204.784 -3.04484 4.60428 0
M  V30 2290 H 207.26 -3.18113 2.68223 0
M  V30 2291 H 206.136 -4.46893 3.18713 0
M  V30 2292 H 206.397 -4.16716 1.47649 0
M  V30 2293 N 205.456 -1.28612 -0.910864 0
M  V30 2294 C 206.684 -1.18792 -1.69399 0
M  V30 2295 C 207.099 0.253039 -1.87097 0
M  V30 2296 O 206.456 1.17071 -1.40003 0
M  V30 2297 C 206.507 -1.88511 -3.08457 0
M  V30 2298 O 206.228 -3.26979 -2.91576 0
M  V30 2299 C 207.729 -1.85029 -4.02839 0
M  V30 2300 H 204.949 -0.412233 -0.529438 0
M  V30 2301 H 207.493 -1.69788 -1.13984 0
M  V30 2302 H 205.648 -1.41379 -3.60681 0
M  V30 2303 H 206.062 -3.61936 -3.79608 0
M  V30 2304 H 207.536 -2.38395 -4.97867 0
M  V30 2305 H 208.013 -0.823303 -4.31414 0
M  V30 2306 H 208.619 -2.31853 -3.56545 0
M  V30 2307 N 206.934 1.1197 -1.10907 0
M  V30 2308 C 208.183 1.82947 -0.849302 0
M  V30 2309 C 208.496 1.85275 0.627112 0
M  V30 2310 O 209.702 2.52296 1.00295 0
M  V30 2311 C 208.158 3.28529 -1.46959 0
M  V30 2312 C 207.766 3.34546 -2.97965 0
M  V30 2313 C 209.51 4.04443 -1.28942 0
M  V30 2314 C 207.417 4.74491 -3.53004 0
M  V30 2315 H 206.347 0.685477 -0.314065 0
M  V30 2316 H 208.998 1.2604 -1.33365 0
M  V30 2317 H 207.38 3.85333 -0.912917 0
M  V30 2318 H 208.554 2.87654 -3.59989 0
M  V30 2319 H 206.869 2.72108 -3.15192 0
M  V30 2320 H 209.466 5.07787 -1.67502 0
M  V30 2321 H 209.809 4.15656 -0.231456 0
M  V30 2322 H 210.342 3.5401 -1.81443 0
M  V30 2323 H 207.081 4.68474 -4.58489 0
M  V30 2324 H 206.601 5.21816 -2.9575 0
M  V30 2325 H 208.28 5.4344 -3.51115 0
M  V30 2326 N 208.412 0.89855 1.29475 0
M  V30 2327 C 209.344 0.332726 2.26772 0
M  V30 2328 C 210.357 -0.520323 1.54261 0
M  V30 2329 O 211.546 -0.337668 1.75277 0
M  V30 2330 C 208.646 -0.544334 3.345 0
M  V30 2331 C 207.819 0.282728 4.36485 0
M  V30 2332 C 206.878 -0.526982 5.23555 0
M  V30 2333 O 205.904 0.0551165 5.69173 0
M  V30 2334 N 207.106 -1.83331 5.5079 0
M  V30 2335 H 209.871 1.16897 2.75962 0
M  V30 2336 H 207.432 0.762919 1.42798 0
M  V30 2337 H 209.424 -1.09239 3.89678 0
M  V30 2338 H 207.994 -1.28127 2.85136 0
M  V30 2339 H 207.214 1.01221 3.80983 0
M  V30 2340 H 208.502 0.84918 5.01664 0
M  V30 2341 H 207.9 -2.32898 5.15534 0
M  V30 2342 H 206.457 -2.32852 6.08788 0
M  V30 2343 N 209.89 -1.43072 0.660911 0
M  V30 2344 C 211.139 -2.00942 0.174735 0
M  V30 2345 C 211.452 -1.52797 -1.22117 0
M  V30 2346 O 212.658 -2.02991 -1.80297 0
M  V30 2347 C 211.114 -3.58948 0.261559 0
M  V30 2348 C 210.722 -4.16085 1.66064 0
M  V30 2349 C 212.466 -4.24173 -0.166617 0
M  V30 2350 C 210.373 -5.6641 1.70098 0
M  V30 2351 H 209.303 -0.751483 0.0615631 0
M  V30 2352 H 211.954 -1.63955 0.824069 0
M  V30 2353 H 210.336 -3.93372 -0.455421 0
M  V30 2354 H 211.51 -3.93147 2.40359 0
M  V30 2355 H 209.825 -3.6326 2.03546 0
M  V30 2356 H 212.422 -5.34471 -0.156433 0
M  V30 2357 H 212.765 -3.98647 -1.19943 0
M  V30 2358 H 213.298 -3.94659 0.498875 0
M  V30 2359 H 210.037 -5.96715 2.71315 0
M  V30 2360 H 209.557 -5.91382 1.00139 0
M  V30 2361 H 211.236 -6.30585 1.44816 0
M  V30 2362 N 211.368 -0.403325 -1.52352 0
M  V30 2363 C 212.301 0.469463 -2.23319 0
M  V30 2364 C 213.279 1.05272 -1.23922 0
M  V30 2365 O 214.463 1.10169 -1.52954 0
M  V30 2366 C 211.59 1.6511 -2.9573 0
M  V30 2367 C 210.636 1.19178 -4.0951 0
M  V30 2368 S 211.469 0.161718 -5.35256 0
M  V30 2369 C 212.625 1.34882 -6.11194 0
M  V30 2370 H 212.858 -0.133134 -2.97002 0
M  V30 2371 H 210.391 -0.187588 -1.53256 0
M  V30 2372 H 212.349 2.3287 -3.38056 0
M  V30 2373 H 211.01 2.22503 -2.21701 0
M  V30 2374 H 210.203 2.07444 -4.59329 0
M  V30 2375 H 209.805 0.592911 -3.6927 0
M  V30 2376 H 212.097 2.27345 -6.38217 0
M  V30 2377 H 213.04 0.89128 -7.02468 0
M  V30 2378 H 213.448 1.57198 -5.42171 0
M  V30 2379 N 212.846 1.57033 -0.133567 0
M  V30 2380 C 214.262 1.58035 0.222944 0
M  V30 2381 C 214.462 1.14713 1.6566 0
M  V30 2382 O 213.518 0.841218 2.38075 0
M  V30 2383 C 214.831 3.00691 -0.0236116 0
M  V30 2384 C 216.379 3.12973 0.0411512 0
M  V30 2385 C 216.854 4.57654 -0.177899 0
M  V30 2386 N 218.345 4.63033 -0.124365 0
M  V30 2387 C 219.08 5.72771 -0.268553 0
M  V30 2388 N 218.576 6.91206 -0.46972 0
M  V30 2389 N 220.369 5.61718 -0.2071 0
M  V30 2390 H 212.52 1.8349 -1.06981 0
M  V30 2391 H 214.783 0.848677 -0.422436 0
M  V30 2392 H 214.489 3.36726 -1.0153 0
M  V30 2393 H 214.363 3.70614 0.701808 0
M  V30 2394 H 216.75 2.76787 1.02338 0
M  V30 2395 H 216.831 2.45564 -0.716383 0
M  V30 2396 H 216.475 4.94542 -1.15717 0
M  V30 2397 H 216.405 5.23173 0.599797 0
M  V30 2398 H 218.896 3.7789 0.027011 0
M  V30 2399 H 219.209 7.70693 -0.570212 0
M  V30 2400 H 217.554 6.93156 -0.505876 0
M  V30 2401 H 220.745 4.68072 -0.0507986 0
M  V30 2402 H 220.918 6.47195 -0.322909 0
M  V30 2403 N 214.325 -0.140222 1.56975 0
M  V30 2404 C 215.288 -1.15689 1.97861 0
M  V30 2405 C 216.288 -1.3549 0.865974 0
M  V30 2406 O 217.478 -1.32367 1.13246 0
M  V30 2407 C 214.61 -2.51582 2.30042 0
M  V30 2408 H 215.803 -0.805971 2.88867 0
M  V30 2409 H 213.356 -0.383801 1.51515 0
M  V30 2410 H 214.091 -2.91632 1.41849 0
M  V30 2411 H 213.876 -2.38569 3.11171 0
M  V30 2412 H 215.366 -3.24792 2.62488 0
M  V30 2413 N 215.803 -1.52179 -0.40978 0
M  V30 2414 C 217.028 -1.70347 -1.18308 0
M  V30 2415 C 217.453 -0.411887 -1.83535 0
M  V30 2416 O 216.811 0.630587 -1.6998 0
M  V30 2417 C 216.859 -2.83977 -2.22238 0
M  V30 2418 O 215.963 -2.495 -3.28365 0
M  V30 2419 H 215.304 -0.567103 -0.345384 0
M  V30 2420 H 217.834 -1.98879 -0.480445 0
M  V30 2421 H 217.844 -3.0887 -2.66577 0
M  V30 2422 H 216.519 -3.77685 -1.74146 0
M  V30 2423 H 215.096 -2.35277 -2.89308 0
M  V30 2424 N 217.281 0.66697 -1.42791 0
M  V30 2425 C 218.191 1.80962 -1.49299 0
M  V30 2426 C 219.207 1.69775 -0.381108 0
M  V30 2427 O 220.383 1.91188 -0.633188 0
M  V30 2428 C 217.448 3.17156 -1.40045 0
M  V30 2429 C 216.509 3.40242 -2.6179 0
M  V30 2430 C 215.742 4.69939 -2.52969 0
M  V30 2431 O 215.965 5.48372 -1.56985 0
M  V30 2432 O 214.899 4.94441 -3.43237 0
M  V30 2433 H 218.725 1.78427 -2.45759 0
M  V30 2434 H 216.31 0.823713 -1.24641 0
M  V30 2435 H 218.192 3.98413 -1.37276 0
M  V30 2436 H 216.867 3.20312 -0.467138 0
M  V30 2437 H 215.774 2.58802 -2.70134 0
M  V30 2438 H 217.107 3.41923 -3.54047 0
M  V30 2439 N 218.759 1.29093 0.90403 0
M  V30 2440 C 219.989 1.19516 1.68522 0
M  V30 2441 C 220.397 -0.24738 1.87576 0
M  V30 2442 O 219.74 -1.17798 1.40959 0
M  V30 2443 C 219.802 1.83249 3.0929 0
M  V30 2444 C 219.466 3.32531 3.13484 0
M  V30 2445 C 220.463 4.28821 2.93953 0
M  V30 2446 C 218.148 3.73656 3.35688 0
M  V30 2447 C 220.142 5.64212 2.96553 0
M  V30 2448 C 217.829 5.0917 3.37919 0
M  V30 2449 C 218.827 6.04258 3.18373 0
M  V30 2450 O 218.515 7.37298 3.20385 0
M  V30 2451 H 218.247 0.415467 0.533257 0
M  V30 2452 H 220.801 1.70912 1.13922 0
M  V30 2453 H 219.031 1.26358 3.65473 0
M  V30 2454 H 220.72 1.68054 3.69476 0
M  V30 2455 H 221.486 3.98382 2.76616 0
M  V30 2456 H 217.365 3.00101 3.49943 0
M  V30 2457 H 220.909 6.38407 2.81216 0
M  V30 2458 H 216.806 5.39256 3.54787 0
M  V30 2459 H 217.574 7.46048 3.36681 0
M  V30 2460 N 220.237 -1.11381 1.11499 0
M  V30 2461 C 221.467 -1.86663 0.885464 0
M  V30 2462 C 221.875 -1.80464 -0.568281 0
M  V30 2463 O 221.218 -1.18445 -1.40415 0
M  V30 2464 C 221.28 -3.36337 1.26956 0
M  V30 2465 C 220.944 -3.66304 2.73259 0
M  V30 2466 C 221.941 -3.63733 3.71476 0
M  V30 2467 C 219.626 -3.9529 3.09921 0
M  V30 2468 C 221.62 -3.89725 5.04374 0
M  V30 2469 C 219.307 -4.20941 4.43004 0
M  V30 2470 C 220.305 -4.18147 5.40039 0
M  V30 2471 O 219.993 -4.43153 6.70724 0
M  V30 2472 H 219.725 -0.597114 0.316908 0
M  V30 2473 H 222.279 -1.41782 1.48617 0
M  V30 2474 H 220.509 -3.81826 0.611999 0
M  V30 2475 H 222.198 -3.92986 1.01573 0
M  V30 2476 H 222.964 -3.41389 3.44498 0
M  V30 2477 H 218.843 -3.966 2.35009 0
M  V30 2478 H 222.387 -3.8746 5.80104 0
M  V30 2479 H 218.284 -4.42761 4.69716 0
M  V30 2480 H 219.052 -4.60717 6.76522 0
M  V30 2481 N 221.715 -0.905404 -1.28997 0
M  V30 2482 C 222.665 -0.358713 -2.25161 0
M  V30 2483 C 223.649 0.524449 -1.52113 0
M  V30 2484 O 224.841 0.365534 -1.73184 0
M  V30 2485 C 221.97 0.407609 -3.40872 0
M  V30 2486 C 221.056 -0.490797 -4.21251 0
M  V30 2487 N 221.447 -1.60061 -4.79806 0
M  V30 2488 C 219.745 -0.289636 -4.45059 0
M  V30 2489 C 220.446 -2.15757 -5.40207 0
M  V30 2490 N 219.422 -1.44988 -5.23908 0
M  V30 2491 H 223.224 -1.20642 -2.67998 0
M  V30 2492 H 220.738 -0.757103 -1.43672 0
M  V30 2493 H 222.735 0.816046 -4.08835 0
M  V30 2494 H 221.395 1.25251 -2.9957 0
M  V30 2495 H 222.406 -1.98329 -4.7842 0
M  V30 2496 H 219.083 0.51643 -4.14294 0
M  V30 2497 H 220.473 -3.09069 -5.96595 0
M  V30 2498 N 223.193 1.4272 -0.668489 0
M  V30 2499 C 224.433 2.03497 -0.19194 0
M  V30 2500 C 224.797 1.51684 1.17712 0
M  V30 2501 O 225.998 2.04205 1.74796 0
M  V30 2502 C 224.269 3.56734 -0.218032 0
M  V30 2503 S 225.828 4.38395 0.188438 0
M  V30 2504 H 222.646 0.706542 -0.0794959 0
M  V30 2505 H 225.248 1.74563 -0.880235 0
M  V30 2506 H 223.952 3.91943 -1.2169 0
M  V30 2507 H 223.483 3.90333 0.490303 0
M  V30 2508 H 225.498 4.75345 1.42345 0
M  V30 2509 N 224.671 0.411399 1.52136 0
M  V30 2510 C 225.917 -0.156262 2.02799 0
M  V30 2511 C 226.272 -1.42613 1.29149 0
M  V30 2512 O 225.565 -1.87592 0.389839 0
M  V30 2513 C 225.759 -0.455872 3.54481 0
M  V30 2514 C 225.588 0.783404 4.42824 0
M  V30 2515 C 224.358 1.30928 4.88043 0
M  V30 2516 C 226.556 1.66217 4.86699 0
M  V30 2517 N 224.538 2.5038 5.6052 0
M  V30 2518 C 225.909 2.70292 5.5798 0
M  V30 2519 C 227.964 1.67966 4.68713 0
M  V30 2520 C 226.667 3.7603 6.13184 0
M  V30 2521 C 228.693 2.72624 5.24815 0
M  V30 2522 C 228.055 3.7542 5.9602 0
M  V30 2523 H 224.154 -0.0186886 0.781777 0
M  V30 2524 H 226.738 0.566255 1.86284 0
M  V30 2525 H 224.909 -1.14743 3.71064 0
M  V30 2526 H 226.641 -1.01261 3.91827 0
M  V30 2527 H 223.396 0.866977 4.65597 0
M  V30 2528 H 223.82 3.10881 6.014 0
M  V30 2529 H 228.462 0.898312 4.13147 0
M  V30 2530 H 226.18 4.55019 6.6782 0
M  V30 2531 H 229.766 2.74887 5.12765 0
M  V30 2532 H 228.646 4.55073 6.38654 0
M  V30 2533 N 226.149 -1.5696 0.141893 0
M  V30 2534 C 227.565 -1.58151 -0.21456 0
M  V30 2535 C 227.765 -1.1559 -1.65049 0
M  V30 2536 O 226.821 -0.853832 -2.37626 0
M  V30 2537 C 228.134 -3.00674 0.0395576 0
M  V30 2538 C 229.682 -3.1299 -0.0245529 0
M  V30 2539 C 230.157 -4.57554 0.202167 0
M  V30 2540 N 231.648 -4.62961 0.148919 0
M  V30 2541 C 232.383 -5.7262 0.298924 0
M  V30 2542 N 231.879 -6.90947 0.50637 0
M  V30 2543 N 233.672 -5.61601 0.236886 0
M  V30 2544 H 225.823 -1.8292 1.07953 0
M  V30 2545 H 228.086 -0.846425 0.42693 0
M  V30 2546 H 227.792 -3.36183 1.03315 0
M  V30 2547 H 227.666 -3.70981 -0.682143 0
M  V30 2548 H 230.053 -2.77326 -1.00869 0
M  V30 2549 H 230.134 -2.4518 0.729396 0
M  V30 2550 H 229.778 -4.93922 1.18338 0
M  V30 2551 H 229.708 -5.23484 -0.572044 0
M  V30 2552 H 232.199 -3.77899 -0.00697015 0
M  V30 2553 H 232.512 -7.7038 0.611076 0
M  V30 2554 H 230.857 -6.92878 0.542628 0
M  V30 2555 H 234.048 -4.68039 0.0756209 0
M  V30 2556 H 234.221 -6.47015 0.357227 0
M  V30 2557 N 227.627 0.131896 -1.57047 0
M  V30 2558 C 228.575 1.18146 -2.0036 0
M  V30 2559 C 229.569 1.43614 -0.898406 0
M  V30 2560 O 230.775 1.43729 -1.08361 0
M  V30 2561 H 227.15 0.398042 -0.638018 0
M  V30 2562 H 229.121 0.789564 -2.87765 0
M  V30 2563 C 227.87 2.50341 -2.41298 0
M  V30 2564 H 227.193 2.31578 -3.25902 0
M  V30 2565 H 228.633 3.22371 -2.75414 0
M  V30 2566 C 227.092 3.11984 -1.27153 0
M  V30 2567 O 227.622 3.97484 -0.580459 0
M  V30 2568 N 225.828 2.71662 -1.03189 0
M  V30 2569 H 225.375 2.02231 -1.59564 0
M  V30 2570 H 225.333 3.13238 -0.270077 0
M  V30 2571 N 229.106 1.52395 0.401703 0
M  V30 2572 C 230.353 1.66817 1.14796 0
M  V30 2573 C 230.681 0.401772 1.90305 0
M  V30 2574 O 229.936 -0.615487 1.85769 0
M  V30 2575 C 230.235 2.84578 2.16217 0
M  V30 2576 C 229.901 4.22513 1.5746 0
M  V30 2577 C 228.563 4.60029 1.41161 0
M  V30 2578 C 230.915 5.0844 1.14622 0
M  V30 2579 C 228.243 5.81144 0.80552 0
M  V30 2580 C 230.595 6.30167 0.55428 0
M  V30 2581 C 229.259 6.66426 0.378482 0
M  V30 2582 H 228.529 0.610428 0.420069 0
M  V30 2583 H 231.176 1.86512 0.434212 0
M  V30 2584 H 229.481 2.59248 2.93764 0
M  V30 2585 H 231.178 2.92933 2.73845 0
M  V30 2586 H 227.768 3.92953 1.71132 0
M  V30 2587 H 231.952 4.80034 1.26021 0
M  V30 2588 H 227.208 6.07855 0.657399 0
M  V30 2589 H 231.382 6.96071 0.213983 0
M  V30 2590 H 229.009 7.60143 -0.0932606 0
M  V30 2591 N 230.584 -0.659388 1.43143 0
M  V30 2592 C 231.83 -1.42145 1.44647 0
M  V30 2593 C 232.163 -1.9408 0.0681907 0
M  V30 2594 O 231.438 -1.71899 -0.910007 0
M  V30 2595 C 231.721 -2.60735 2.48373 0
M  V30 2596 C 231.574 -2.14332 3.95451 0
M  V30 2597 C 232.893 -3.62951 2.48906 0
M  V30 2598 H 230.012 -0.51552 0.526696 0
M  V30 2599 H 232.654 -0.748069 1.74654 0
M  V30 2600 H 230.804 -3.18184 2.22916 0
M  V30 2601 H 232.476 -1.61932 4.31944 0
M  V30 2602 H 230.719 -1.4576 4.08578 0
M  V30 2603 H 231.39 -2.99583 4.63631 0
M  V30 2604 H 233.866 -3.1525 2.71582 0
M  V30 2605 H 232.742 -4.43487 3.23435 0
M  V30 2606 H 233.003 -4.15126 1.52061 0
M  V30 2607 N 232.062 -1.29571 -0.897171 0
M  V30 2608 C 233.01 -1.14802 -2.02295 0
M  V30 2609 C 234.004 -0.0629637 -1.69283 0
M  V30 2610 O 235.21 -0.222945 -1.78614 0
M  V30 2611 H 231.585 -0.354692 -0.663097 0
M  V30 2612 H 233.556 -2.10108 -2.11889 0
M  V30 2613 C 232.305 -0.843966 -3.37302 0
M  V30 2614 H 231.628 -1.67093 -3.63208 0
M  V30 2615 H 233.068 -0.780672 -4.16751 0
M  V30 2616 C 231.527 0.452843 -3.33843 0
M  V30 2617 O 232.057 1.47813 -3.73516 0
M  V30 2618 N 230.263 0.459601 -2.86943 0
M  V30 2619 H 229.81 -0.375213 -2.54853 0
M  V30 2620 H 229.768 1.32726 -2.85011 0
M  V30 2621 N 233.54 1.10788 -1.12088 0
M  V30 2622 C 234.77 1.86191 -0.895351 0
M  V30 2623 C 235.178 1.80763 0.558702 0
M  V30 2624 O 234.521 1.19188 1.39785 0
M  V30 2625 C 234.583 3.35659 -1.28737 0
M  V30 2626 C 234.247 3.64849 -2.75198 0
M  V30 2627 C 235.244 3.61757 -3.734 0
M  V30 2628 C 232.929 3.93641 -3.12013 0
M  V30 2629 C 234.923 3.87045 -5.06434 0
M  V30 2630 C 232.61 4.18585 -4.4523 0
M  V30 2631 C 233.608 4.15277 -5.42249 0
M  V30 2632 O 233.296 4.3959 -6.73065 0
M  V30 2633 H 233.028 0.595425 -0.32007 0
M  V30 2634 H 235.582 1.40992 -1.49367 0
M  V30 2635 H 233.812 3.81497 -0.63224 0
M  V30 2636 H 235.501 3.92441 -1.03656 0
M  V30 2637 H 236.267 3.39557 -3.46303 0
M  V30 2638 H 232.146 3.95348 -2.37109 0
M  V30 2639 H 235.69 3.84378 -5.82151 0
M  V30 2640 H 231.587 4.40264 -4.72057 0
M  V30 2641 H 232.355 4.57123 -6.78956 0
M  V30 2642 N 235.018 0.912232 1.28515 0
M  V30 2643 C 236.429 0.591352 1.77087 0
M  V30 2644 C 236.78 -0.8933 1.74684 0
M  V30 2645 O 235.905 -1.69876 1.34056 0
M  V30 2646 C 236.5 1.06668 3.2157 0
M  V30 2647 C 235.059 0.79675 3.67871 0
M  V30 2648 C 234.206 1.23427 2.48316 0
M  V30 2649 H 237.157 1.09365 1.15 0
M  V30 2650 H 237.178 0.407455 3.78312 0
M  V30 2651 H 236.69 2.14726 3.23287 0
M  V30 2652 H 234.791 -0.270679 3.71616 0
M  V30 2653 H 234.904 1.40343 4.58084 0
M  V30 2654 H 233.268 0.653036 2.46186 0
M  V30 2655 H 234.051 2.32316 2.52753 0
M  V30 2656 N 236.496 -1.42363 0.676048 0
M  V30 2657 C 237.907 -1.84649 0.275948 0
M  V30 2658 C 238.258 -1.56588 -1.18214 0
M  V30 2659 O 237.383 -1.02634 -1.90513 0
M  V30 2660 C 237.978 -3.35178 0.494053 0
M  V30 2661 C 236.537 -3.76109 0.148061 0
M  V30 2662 C 235.684 -2.65931 0.785891 0
M  V30 2663 H 238.635 -1.32192 0.878121 0
M  V30 2664 H 238.656 -3.79655 -0.25343 0
M  V30 2665 H 238.168 -3.55571 1.55535 0
M  V30 2666 H 236.269 -3.61323 -0.909742 0
M  V30 2667 H 236.382 -4.7546 0.589454 0
M  V30 2668 H 234.746 -2.53773 0.217113 0
M  V30 2669 H 235.529 -2.89146 1.85067 0
M  V30 2670 N 237.974 -0.419461 -1.51915 0
M  V30 2671 C 239.222 0.152637 -2.01523 0
M  V30 2672 C 239.543 1.44762 -1.30649 0
M  V30 2673 O 238.813 1.90997 -0.435535 0
M  V30 2674 H 237.393 0.0593966 -0.744635 0
M  V30 2675 H 240.055 -0.558073 -1.86739 0
M  V30 2676 H 239.151 0.341369 -3.10227 0
M  V30 2677 N 239.452 1.56882 -0.150215 0
M  V30 2678 C 240.729 1.87844 0.545327 0
M  V30 2679 C 241.109 1.0567 1.82749 0
M  V30 2680 O 240.457 0.144442 2.28043 0
M  V30 2681 C 240.667 3.39526 0.80767 0
M  V30 2682 C 242.015 4.08814 1.14703 0
M  V30 2683 O 243.039 3.44723 0.896917 0
M  V30 2684 O 241.898 5.22004 1.61784 0
M  V30 2685 H 238.992 0.778677 0.278553 0
M  V30 2686 H 241.538 1.68666 -0.187068 0
M  V30 2687 H 240.31 3.91173 -0.0996096 0
M  V30 2688 H 239.933 3.64243 1.59413 0
M  V30 2689 N 240.93 -0.123565 1.57115 0
M  V30 2690 C 241.84 -1.17074 2.033 0
M  V30 2691 C 242.856 -1.4561 0.952559 0
M  V30 2692 O 244.032 -1.56817 1.26374 0
M  V30 2693 C 241.097 -2.47857 2.42421 0
M  V30 2694 C 240.158 -2.26758 3.64526 0
M  V30 2695 C 239.391 -3.51305 4.01771 0
M  V30 2696 O 239.614 -4.5843 3.39409 0
M  V30 2697 O 238.548 -3.42578 4.94898 0
M  V30 2698 H 242.374 -0.808555 2.92739 0
M  V30 2699 H 239.959 -0.334027 1.45618 0
M  V30 2700 H 241.841 -3.2492 2.68338 0
M  V30 2701 H 240.516 -2.83558 1.5613 0
M  V30 2702 H 239.423 -1.47569 3.43765 0
M  V30 2703 H 240.756 -1.95963 4.51508 0
M  V30 2704 N 242.408 -1.52605 -0.393616 0
M  V30 2705 C 243.371 -1.76415 -1.46323 0
M  V30 2706 C 244.371 -0.634126 -1.47768 0
M  V30 2707 O 245.561 -0.902142 -1.4902 0
M  V30 2708 C 242.693 -1.8607 -2.85641 0
M  V30 2709 H 243.886 -2.71916 -1.26498 0
M  V30 2710 H 241.439 -1.43257 -0.625073 0
M  V30 2711 H 242.174 -0.925378 -3.10817 0
M  V30 2712 H 241.959 -2.68235 -2.85993 0
M  V30 2713 H 243.449 -2.06179 -3.63153 0
M  V30 2714 N 243.887 0.651787 -1.4349 0
M  V30 2715 C 244.837 1.75783 -1.45205 0
M  V30 2716 C 245.821 1.57679 -0.320328 0
M  V30 2717 O 247.013 1.67767 -0.564211 0
M  V30 2718 C 244.142 3.14377 -1.3792 0
M  V30 2719 C 243.228 3.38023 -2.56127 0
M  V30 2720 N 243.619 3.32135 -3.81471 0
M  V30 2721 C 241.917 3.68747 -2.50882 0
M  V30 2722 C 242.618 3.55902 -4.60118 0
M  V30 2723 N 241.594 3.77783 -3.90872 0
M  V30 2724 H 245.396 1.69657 -2.39987 0
M  V30 2725 H 242.91 0.853508 -1.38163 0
M  V30 2726 H 244.907 3.93666 -1.37231 0
M  V30 2727 H 243.567 3.21683 -0.441596 0
M  V30 2728 H 244.578 3.11515 -4.13738 0
M  V30 2729 H 241.255 3.8316 -1.65816 0
M  V30 2730 H 242.645 3.57116 -5.69138 0
M  V30 2731 N 245.365 1.30045 0.890287 0
M  V30 2732 C 246.611 1.19747 1.64415 0
M  V30 2733 C 246.966 -0.246591 1.90813 0
M  V30 2734 O 246.259 -1.174 1.51419 0
M  V30 2735 C 246.453 1.95409 2.99249 0
M  V30 2736 C 246.282 3.47025 2.86013 0
M  V30 2737 C 245.052 4.1638 2.86279 0
M  V30 2738 C 247.25 4.42353 2.62351 0
M  V30 2739 N 245.232 5.54293 2.63879 0
M  V30 2740 C 246.603 5.67792 2.49022 0
M  V30 2741 C 248.658 4.32009 2.47533 0
M  V30 2742 C 247.361 6.8406 2.22383 0
M  V30 2743 C 249.387 5.48038 2.22279 0
M  V30 2744 C 248.749 6.72455 2.09722 0
M  V30 2745 H 244.848 0.493223 0.60684 0
M  V30 2746 H 247.432 1.6399 1.04954 0
M  V30 2747 H 245.603 1.53565 3.56752 0
M  V30 2748 H 247.335 1.77298 3.63796 0
M  V30 2749 H 244.09 3.68164 2.97913 0
M  V30 2750 H 244.514 6.26852 2.55706 0
M  V30 2751 H 249.156 3.36503 2.55979 0
M  V30 2752 H 246.874 7.79612 2.12675 0
M  V30 2753 H 250.46 5.41939 2.11643 0
M  V30 2754 H 249.34 7.60722 1.90453 0
M  V30 2755 N 246.843 -1.10192 1.12674 0
M  V30 2756 C 248.254 -1.63707 0.897604 0
M  V30 2757 C 248.605 -1.87812 -0.567546 0
M  V30 2758 O 247.73 -1.62196 -1.43253 0
M  V30 2759 C 248.325 -2.974 1.62292 0
M  V30 2760 C 246.884 -3.47772 1.43986 0
M  V30 2761 C 246.031 -2.22332 1.65722 0
M  V30 2762 H 248.982 -0.936587 1.28116 0
M  V30 2763 H 249.003 -3.64986 1.07541 0
M  V30 2764 H 248.515 -2.79824 2.68924 0
M  V30 2765 H 246.616 -3.70487 0.396206 0
M  V30 2766 H 246.729 -4.25723 2.19765 0
M  V30 2767 H 245.093 -2.30599 1.08149 0
M  V30 2768 H 245.876 -2.07285 2.73657 0
M  V30 2769 N 248.321 -0.919034 -1.28029 0
M  V30 2770 C 249.253 -0.368762 -2.26214 0
M  V30 2771 C 250.266 0.495716 -1.55069 0
M  V30 2772 O 251.455 0.30974 -1.75792 0
M  V30 2773 C 248.555 0.491049 -3.35324 0
M  V30 2774 C 247.728 -0.352133 -4.3598 0
M  V30 2775 C 246.787 0.443622 -5.24327 0
M  V30 2776 O 245.813 -0.14566 -5.69014 0
M  V30 2777 N 247.015 1.74545 -5.53637 0
M  V30 2778 H 249.78 -1.21273 -2.74068 0
M  V30 2779 H 247.341 -0.785541 -1.41566 0
M  V30 2780 H 249.333 1.03026 -3.91366 0
M  V30 2781 H 247.903 1.23574 -2.87138 0
M  V30 2782 H 247.123 -1.07269 -3.79324 0
M  V30 2783 H 248.411 -0.928883 -5.00249 0
M  V30 2784 H 247.809 2.24666 -5.19174 0
M  V30 2785 H 246.366 2.23138 -6.12416 0
M  V30 2786 N 249.799 1.42003 -0.683588 0
M  V30 2787 C 251.029 2.05448 -0.217866 0
M  V30 2788 C 251.437 1.51491 1.13346 0
M  V30 2789 O 250.78 0.653048 1.717 0
M  V30 2790 C 250.842 3.59399 -0.0850118 0
M  V30 2791 C 250.506 4.36093 -1.36645 0
M  V30 2792 C 251.503 4.66169 -2.30179 0
M  V30 2793 C 249.188 4.75578 -1.61649 0
M  V30 2794 C 251.182 5.34676 -3.46988 0
M  V30 2795 C 248.869 5.43824 -2.78745 0
M  V30 2796 C 249.867 5.73299 -3.71238 0
M  V30 2797 O 249.555 6.40142 -4.86285 0
M  V30 2798 H 249.287 0.668344 -0.101454 0
M  V30 2799 H 251.841 1.82974 -0.933248 0
M  V30 2800 H 250.071 3.80566 0.686031 0
M  V30 2801 H 251.76 4.04457 0.341973 0
M  V30 2802 H 252.526 4.36156 -2.12115 0
M  V30 2803 H 248.405 4.52025 -0.905243 0
M  V30 2804 H 251.949 5.57599 -4.19201 0
M  V30 2805 H 247.846 5.73254 -2.96732 0
M  V30 2806 H 248.614 6.58636 -4.85944 0
M  V30 2807 N 251.277 0.427512 1.51691 0
M  V30 2808 C 252.688 -0.0378867 1.86662 0
M  V30 2809 C 253.039 -1.42819 1.34525 0
M  V30 2810 O 252.164 -2.05037 0.692014 0
M  V30 2811 C 252.759 -0.0755266 3.38716 0
M  V30 2812 C 251.318 -0.485309 3.73258 0
M  V30 2813 C 250.465 0.328399 2.75349 0
M  V30 2814 H 253.416 0.64379 1.45055 0
M  V30 2815 H 253.437 -0.887056 3.70016 0
M  V30 2816 H 252.949 0.936487 3.76632 0
M  V30 2817 H 251.05 -1.50329 3.40928 0
M  V30 2818 H 251.163 -0.21693 4.78609 0
M  V30 2819 H 249.527 -0.211905 2.53817 0
M  V30 2820 H 250.31 1.3391 3.16106 0
M  V30 2821 N 252.755 -1.56801 0.158532 0
M  V30 2822 C 254.166 -1.83189 -0.360366 0
M  V30 2823 C 254.517 -1.07778 -1.63946 0
M  V30 2824 O 253.642 -0.326718 -2.13919 0
M  V30 2825 C 254.237 -3.32297 -0.660595 0
M  V30 2826 C 252.796 -3.59227 -1.12398 0
M  V30 2827 C 251.943 -2.76877 -0.153097 0
M  V30 2828 H 254.894 -1.54008 0.383031 0
M  V30 2829 H 254.915 -3.4908 -1.51405 0
M  V30 2830 H 254.427 -3.87156 0.270527 0
M  V30 2831 H 252.528 -3.09766 -2.07064 0
M  V30 2832 H 252.641 -4.67632 -1.04197 0
M  V30 2833 H 251.005 -2.46319 -0.647983 0
M  V30 2834 H 251.788 -3.34511 0.77182 0
M  V30 2835 N 254.233 0.115231 -1.57178 0
M  V30 2836 C 255.163 1.1423 -2.03651 0
M  V30 2837 C 256.144 1.42967 -0.921655 0
M  V30 2838 O 257.329 1.53343 -1.19162 0
M  V30 2839 C 254.459 2.4675 -2.44401 0
M  V30 2840 C 253.413 2.32467 -3.59365 0
M  V30 2841 C 252.739 3.69984 -3.86026 0
M  V30 2842 C 254.039 1.78203 -4.90959 0
M  V30 2843 H 255.733 0.755749 -2.89705 0
M  V30 2844 H 253.279 0.362093 -1.39373 0
M  V30 2845 H 255.232 3.18854 -2.75517 0
M  V30 2846 H 253.956 2.87302 -1.55322 0
M  V30 2847 H 252.615 1.62811 -3.28463 0
M  V30 2848 H 252.263 4.08028 -2.94147 0
M  V30 2849 H 251.963 3.61279 -4.63412 0
M  V30 2850 H 253.487 4.43587 -4.19599 0
M  V30 2851 H 254.901 2.40128 -5.20587 0
M  V30 2852 H 253.298 1.8031 -5.72371 0
M  V30 2853 H 254.368 0.739876 -4.79222 0
M  V30 2854 N 255.711 1.52812 0.385517 0
M  V30 2855 C 256.957 1.69225 1.12847 0
M  V30 2856 C 257.312 0.42864 1.87564 0
M  V30 2857 O 256.605 -0.57779 1.8268 0
M  V30 2858 C 256.799 2.86856 2.13187 0
M  V30 2859 C 256.628 4.24535 1.48325 0
M  V30 2860 C 255.398 4.89701 1.24585 0
M  V30 2861 C 257.596 5.05794 0.931501 0
M  V30 2862 N 255.578 6.11353 0.558644 0
M  V30 2863 C 256.949 6.1888 0.372552 0
M  V30 2864 C 259.004 4.90963 0.828248 0
M  V30 2865 C 257.707 7.18757 -0.279556 0
M  V30 2866 C 259.733 5.91095 0.189956 0
M  V30 2867 C 259.095 7.03489 -0.358207 0
M  V30 2868 H 255.194 0.67268 0.39878 0
M  V30 2869 H 257.778 1.9017 0.417528 0
M  V30 2870 H 255.949 2.67484 2.81614 0
M  V30 2871 H 257.681 2.92188 2.80014 0
M  V30 2872 H 254.436 4.48485 1.52178 0
M  V30 2873 H 254.86 6.76606 0.230983 0
M  V30 2874 H 259.502 4.04274 1.23784 0
M  V30 2875 H 257.22 8.05052 -0.701152 0
M  V30 2876 H 260.806 5.81694 0.111264 0
M  V30 2877 H 259.686 7.79642 -0.844314 0
M  V30 2878 N 257.189 -0.644168 1.43834 0
M  V30 2879 C 258.122 -1.76906 1.44151 0
M  V30 2880 C 259.1 -1.59774 0.301857 0
M  V30 2881 O 260.284 -1.81834 0.496841 0
M  V30 2882 C 257.411 -3.14321 1.26174 0
M  V30 2883 C 256.457 -3.50134 2.43533 0
M  V30 2884 S 257.29 -3.49085 4.06079 0
M  V30 2885 C 258.446 -4.89142 3.90501 0
M  V30 2886 H 258.679 -1.76368 2.39336 0
M  V30 2887 H 256.212 -0.817624 1.30974 0
M  V30 2888 H 258.17 -3.93625 1.16489 0
M  V30 2889 H 256.831 -3.12412 0.325224 0
M  V30 2890 H 256.024 -4.50095 2.26783 0
M  V30 2891 H 255.626 -2.78264 2.4989 0
M  V30 2892 H 257.918 -5.78036 3.53385 0
M  V30 2893 H 258.861 -5.10945 4.90246 0
M  V30 2894 H 259.269 -4.63102 3.22795 0
M  V30 2895 N 258.668 -1.30515 -0.883378 0
M  V30 2896 C 259.601 -1.11359 -1.99184 0
M  V30 2897 C 260.579 -0.0207858 -1.62587 0
M  V30 2898 O 261.763 -0.174646 -1.87689 0
M  V30 2899 C 258.89 -0.69871 -3.31415 0
M  V30 2900 C 257.936 -1.79261 -3.86998 0
M  V30 2901 S 258.769 -3.39536 -4.14096 0
M  V30 2902 C 259.925 -2.99954 -5.49344 0
M  V30 2903 H 260.158 -2.052 -2.15128 0
M  V30 2904 H 257.691 -1.14847 -1.03196 0
M  V30 2905 H 259.649 -0.466075 -4.07846 0
M  V30 2906 H 258.31 0.220368 -3.13326 0
M  V30 2907 H 257.503 -1.45464 -4.82552 0
M  V30 2908 H 257.105 -1.97961 -3.17313 0
M  V30 2909 H 259.397 -2.48013 -6.30473 0
M  V30 2910 H 260.34 -3.9442 -5.8808 0
M  V30 2911 H 260.748 -2.37775 -5.1198 0
M  V30 2912 N 260.146 1.09593 -1.13257 0
M  V30 2913 C 261.076 2.18214 -0.830946 0
M  V30 2914 C 262.057 1.68812 0.208966 0
M  V30 2915 O 263.242 1.9408 0.0682666 0
M  V30 2916 C 260.372 3.46051 -0.294296 0
M  V30 2917 C 259.326 4.08778 -1.26826 0
M  V30 2918 C 258.652 5.31419 -0.591449 0
M  V30 2919 C 259.952 4.51476 -2.62615 0
M  V30 2920 H 261.646 2.43703 -1.73923 0
M  V30 2921 H 259.192 1.17128 -0.837675 0
M  V30 2922 H 261.145 4.2134 -0.0709606 0
M  V30 2923 H 259.869 3.20079 0.649366 0
M  V30 2924 H 258.528 3.35505 -1.47756 0
M  V30 2925 H 258.176 5.01727 0.357633 0
M  V30 2926 H 257.876 5.74341 -1.24123 0
M  V30 2927 H 259.4 6.09433 -0.377355 0
M  V30 2928 H 260.814 5.17999 -2.45663 0
M  V30 2929 H 259.211 5.05277 -3.23752 0
M  V30 2930 H 260.281 3.63962 -3.20406 0
M  V30 2931 N 261.624 0.925811 1.2754 0
M  V30 2932 C 262.854 0.580666 1.98272 0
M  V30 2933 C 263.262 -0.845207 1.69272 0
M  V30 2934 O 262.605 -1.57306 0.948707 0
M  V30 2935 C 262.667 0.724418 3.52126 0
M  V30 2936 C 262.331 2.12206 4.04744 0
M  V30 2937 C 263.328 3.09604 4.17662 0
M  V30 2938 C 261.013 2.4385 4.39138 0
M  V30 2939 C 263.007 4.36755 4.64246 0
M  V30 2940 C 260.694 3.71237 4.85414 0
M  V30 2941 C 261.692 4.67503 4.97926 0
M  V30 2942 O 261.38 5.92624 5.43187 0
M  V30 2943 H 261.112 0.218987 0.639547 0
M  V30 2944 H 263.666 1.24452 1.63404 0
M  V30 2945 H 261.896 0.0034663 3.867 0
M  V30 2946 H 263.585 0.384607 4.04074 0
M  V30 2947 H 264.351 2.86478 3.91351 0
M  V30 2948 H 260.23 1.69665 4.28643 0
M  V30 2949 H 263.774 5.11898 4.73927 0
M  V30 2950 H 259.671 3.94182 5.11166 0
M  V30 2951 H 260.439 5.95585 5.61445 0
M  V30 2952 N 263.102 -1.41638 0.69111 0
M  V30 2953 C 264.065 -2.29178 0.0319786 0
M  V30 2954 C 265.065 -1.44153 -0.712496 0
M  V30 2955 O 266.255 -1.65354 -0.548053 0
M  V30 2956 C 263.387 -3.26952 -0.965161 0
M  V30 2957 H 264.58 -2.88959 0.802681 0
M  V30 2958 H 262.133 -1.4955 0.454356 0
M  V30 2959 H 262.868 -2.72142 -1.76378 0
M  V30 2960 H 262.653 -3.89685 -0.434522 0
M  V30 2961 H 264.143 -3.92561 -1.42428 0
M  V30 2962 N 264.58 -0.43555 -1.51462 0
M  V30 2963 C 265.51 0.367376 -2.30592 0
M  V30 2964 C 266.491 1.02263 -1.35928 0
M  V30 2965 O 267.676 1.02661 -1.64847 0
M  V30 2966 C 264.806 1.46983 -3.14664 0
M  V30 2967 C 263.76 0.938161 -4.17591 0
M  V30 2968 C 263.086 2.13622 -4.90173 0
M  V30 2969 C 264.386 -0.0261621 -5.22293 0
M  V30 2970 H 266.08 -0.292969 -2.97963 0
M  V30 2971 H 263.626 -0.14234 -1.43295 0
M  V30 2972 H 265.579 2.03873 -3.688 0
M  V30 2973 H 264.303 2.15843 -2.4511 0
M  V30 2974 H 262.962 0.391481 -3.64504 0
M  V30 2975 H 262.61 2.81098 -4.17124 0
M  V30 2976 H 262.31 1.78688 -5.59772 0
M  V30 2977 H 263.834 2.7107 -5.47132 0
M  V30 2978 H 265.248 0.452384 -5.71512 0
M  V30 2979 H 263.645 -0.287992 -5.99409 0
M  V30 2980 H 264.715 -0.963391 -4.75233 0
M  V30 2981 N 266.058 1.56714 -0.166846 0
M  V30 2982 C 266.968 2.21331 0.777791 0
M  V30 2983 C 267.984 1.20358 1.25658 0
M  V30 2984 O 269.16 1.53005 1.30964 0
M  V30 2985 C 266.225 2.83787 1.99163 0
M  V30 2986 C 265.286 3.99947 1.56016 0
M  V30 2987 C 264.519 4.59415 2.71613 0
M  V30 2988 O 264.742 4.17769 3.88362 0
M  V30 2989 O 263.676 5.49359 2.45945 0
M  V30 2990 H 267.502 3.02605 0.257636 0
M  V30 2991 H 265.087 1.49275 0.0611393 0
M  V30 2992 H 266.969 3.23405 2.70161 0
M  V30 2993 H 265.644 2.05513 2.50092 0
M  V30 2994 H 264.551 3.65007 0.819809 0
M  V30 2995 H 265.884 4.79801 1.09782 0
M  V30 2996 N 267.536 -0.106894 1.57237 0
M  V30 2997 C 268.466 -1.13148 2.04254 0
M  V30 2998 C 269.447 -1.42476 0.929224 0
M  V30 2999 O 270.632 -1.52709 1.19973 0
M  V30 3000 C 267.762 -2.4545 2.45706 0
M  V30 3001 C 266.716 -2.30558 3.60592 0
M  V30 3002 C 266.042 -3.67931 3.87983 0
M  V30 3003 C 267.342 -1.75597 4.91897 0
M  V30 3004 H 269.036 -0.740374 2.90101 0
M  V30 3005 H 266.582 -0.354696 1.39563 0
M  V30 3006 H 268.535 -3.17389 2.77205 0
M  V30 3007 H 267.259 -2.86475 1.56843 0
M  V30 3008 H 265.918 -1.61067 3.29322 0
M  V30 3009 H 265.566 -4.06462 2.96306 0
M  V30 3010 H 265.266 -3.58817 4.65322 0
M  V30 3011 H 266.79 -4.41356 4.21945 0
M  V30 3012 H 268.204 -2.37364 5.21854 0
M  V30 3013 H 266.601 -1.77272 5.73319 0
M  V30 3014 H 267.671 -0.714451 4.79608 0
M  V30 3015 N 269.014 -1.53014 -0.377408 0
M  V30 3016 C 269.964 -1.74996 -1.46152 0
M  V30 3017 C 270.948 -0.604236 -1.49123 0
M  V30 3018 O 272.14 -0.862489 -1.54564 0
M  V30 3019 C 269.269 -1.93267 -2.8373 0
M  V30 3020 C 268.355 -3.13807 -2.85283 0
M  V30 3021 N 268.746 -4.35941 -2.56493 0
M  V30 3022 C 267.044 -3.14288 -3.16448 0
M  V30 3023 C 267.745 -5.17615 -2.65424 0
M  V30 3024 N 266.721 -4.53559 -2.99641 0
M  V30 3025 H 270.523 -2.67044 -1.22738 0
M  V30 3026 H 268.037 -1.51479 -0.585479 0
M  V30 3027 H 270.034 -2.0714 -3.61799 0
M  V30 3028 H 268.694 -1.0244 -3.08117 0
M  V30 3029 H 269.705 -4.63876 -2.30302 0
M  V30 3030 H 266.382 -2.33312 -3.46225 0
M  V30 3031 H 267.772 -6.25006 -2.46612 0
M  V30 3032 N 270.492 0.636531 -1.44174 0
M  V30 3033 C 271.732 1.40781 -1.48189 0
M  V30 3034 C 272.096 1.91688 -0.10944 0
M  V30 3035 O 273.297 2.68789 -0.0242741 0
M  V30 3036 C 271.568 2.54575 -2.50851 0
M  V30 3037 S 273.127 3.4284 -2.73873 0
M  V30 3038 H 269.945 0.480345 -0.524204 0
M  V30 3039 H 272.547 0.737416 -1.81059 0
M  V30 3040 H 271.251 2.15478 -3.49281 0
M  V30 3041 H 270.782 3.26447 -2.19536 0
M  V30 3042 H 272.797 4.51846 -2.05059 0
M  V30 3043 N 271.97 1.30982 0.876444 0
M  V30 3044 C 273.219 1.19658 1.62373 0
M  V30 3045 C 273.532 -0.245636 1.94052 0
M  V30 3046 O 274.738 -0.48049 2.67214 0
M  V30 3047 C 273.194 2.09433 2.92687 0
M  V30 3048 C 272.802 3.58613 2.68516 0
M  V30 3049 C 274.546 2.06893 3.70669 0
M  V30 3050 C 272.453 4.40416 3.94699 0
M  V30 3051 H 271.383 0.444268 0.609214 0
M  V30 3052 H 274.034 1.55791 0.969605 0
M  V30 3053 H 272.416 1.66191 3.59439 0
M  V30 3054 H 273.59 4.10058 2.10212 0
M  V30 3055 H 271.905 3.63063 2.03898 0
M  V30 3056 H 274.502 2.65258 4.64265 0
M  V30 3057 H 274.845 1.05448 4.02724 0
M  V30 3058 H 275.378 2.48301 3.10792 0
M  V30 3059 H 272.117 5.42591 3.67798 0
M  V30 3060 H 271.637 3.93731 4.52477 0
M  V30 3061 H 273.316 4.52294 4.62644 0
M  V30 3062 N 273.449 -1.08991 1.13837 0
M  V30 3063 C 274.698 -1.80631 0.897509 0
M  V30 3064 C 275.011 -1.86872 -0.57777 0
M  V30 3065 O 276.217 -2.54866 -0.935701 0
M  V30 3066 C 274.673 -3.24517 1.55618 0
M  V30 3067 C 274.281 -3.26529 3.0673 0
M  V30 3068 C 276.025 -4.00882 1.3962 0
M  V30 3069 C 273.932 -4.64965 3.65461 0
M  V30 3070 H 272.862 -0.67691 0.332129 0
M  V30 3071 H 275.513 -1.2246 1.3666 0
M  V30 3072 H 273.895 -3.82778 1.01476 0
M  V30 3073 H 275.069 -2.78008 3.67489 0
M  V30 3074 H 273.384 -2.63656 3.22296 0
M  V30 3075 H 275.981 -5.03167 1.80906 0
M  V30 3076 H 276.324 -4.14896 0.341578 0
M  V30 3077 H 276.857 -3.49075 1.90766 0
M  V30 3078 H 273.596 -4.56153 4.70749 0
M  V30 3079 H 273.116 -5.13792 3.09481 0
M  V30 3080 H 274.795 -5.3394 3.654 0
M  V30 3081 N 274.927 -0.932562 -1.27047 0
M  V30 3082 C 275.857 -0.452902 -2.29066 0
M  V30 3083 C 276.838 0.489338 -1.62909 0
M  V30 3084 O 278.023 0.393046 -1.90181 0
M  V30 3085 C 275.153 0.290698 -3.46081 0
M  V30 3086 C 274.107 -0.564168 -4.24265 0
M  V30 3087 C 273.433 0.308886 -5.33807 0
M  V30 3088 C 274.733 -1.83112 -4.89149 0
M  V30 3089 H 276.427 -1.30552 -2.69437 0
M  V30 3090 H 273.973 -0.629201 -1.29526 0
M  V30 3091 H 275.926 0.637233 -4.16554 0
M  V30 3092 H 274.65 1.17738 -3.0464 0
M  V30 3093 H 273.309 -0.893477 -3.55545 0
M  V30 3094 H 272.957 1.19467 -4.88607 0
M  V30 3095 H 272.657 -0.259633 -5.87026 0
M  V30 3096 H 274.181 0.650884 -6.07121 0
M  V30 3097 H 275.595 -1.55236 -5.51883 0
M  V30 3098 H 273.992 -2.34353 -5.52448 0
M  V30 3099 H 275.062 -2.54772 -4.12576 0
M  V30 3100 N 276.405 1.4127 -0.698611 0
M  V30 3101 C 277.63 2.06024 -0.238512 0
M  V30 3102 C 278.055 1.5224 1.10475 0
M  V30 3103 O 277.413 0.650623 1.69223 0
M  V30 3104 C 277.461 3.59988 -0.209952 0
M  V30 3105 O 276.565 4.04282 0.814235 0
M  V30 3106 H 275.906 0.653829 -0.115775 0
M  V30 3107 H 278.436 1.8098 -0.954326 0
M  V30 3108 H 278.446 4.07979 -0.0418436 0
M  V30 3109 H 277.121 3.98503 -1.1903 0
M  V30 3110 H 275.698 3.6779 0.615234 0
M  V30 3111 N 277.883 0.443576 1.51229 0
M  V30 3112 C 278.813 -0.355142 2.30783 0
M  V30 3113 C 279.794 -1.0154 1.36468 0
M  V30 3114 O 280.979 -1.01785 1.65389 0
M  V30 3115 C 278.109 -1.45312 3.15439 0
M  V30 3116 C 277.063 -0.916002 4.18083 0
M  V30 3117 C 276.389 -2.1102 4.91299 0
M  V30 3118 C 277.689 0.0538602 5.22272 0
M  V30 3119 H 279.383 0.308767 2.97804 0
M  V30 3120 H 276.929 0.149937 1.43217 0
M  V30 3121 H 278.882 -2.01914 3.69876 0
M  V30 3122 H 277.606 -2.14541 2.46252 0
M  V30 3123 H 276.265 -0.372145 3.64706 0
M  V30 3124 H 275.913 -2.78882 4.18609 0
M  V30 3125 H 275.613 -1.75717 5.60712 0
M  V30 3126 H 277.137 -2.68164 5.48562 0
M  V30 3127 H 278.551 -0.422069 5.71744 0
M  V30 3128 H 276.948 0.319776 5.99247 0
M  V30 3129 H 278.018 0.98858 4.74716 0
M  V30 3130 N 279.361 -1.56624 0.175154 0
M  V30 3131 C 280.772 -1.83561 -0.340916 0
M  V30 3132 C 281.123 -1.09511 -1.62794 0
M  V30 3133 O 280.248 -0.349389 -2.13561 0
M  V30 3134 C 280.843 -3.32979 -0.625313 0
M  V30 3135 C 279.402 -3.60399 -1.08581 0
M  V30 3136 C 278.549 -2.77024 -0.123722 0
M  V30 3137 H 281.5 -1.53593 0.399344 0
M  V30 3138 H 281.521 -3.50666 -1.47694 0
M  V30 3139 H 281.033 -3.86847 0.311575 0
M  V30 3140 H 279.134 -3.11945 -2.03767 0
M  V30 3141 H 279.247 -4.68711 -0.992317 0
M  V30 3142 H 277.611 -2.46993 -0.621821 0
M  V30 3143 H 278.394 -3.33674 0.807256 0
M  V30 3144 N 280.839 0.0985539 -1.57292 0
M  V30 3145 C 282.25 0.653457 -1.74891 0
M  V30 3146 C 282.601 1.7929 -0.796838 0
M  V30 3147 O 281.726 2.16385 0.0254886 0
M  V30 3148 C 282.321 1.19216 -3.17133 0
M  V30 3149 C 280.88 1.69316 -3.36168 0
M  V30 3150 C 280.027 0.601294 -2.70702 0
M  V30 3151 H 282.978 -0.127497 -1.58187 0
M  V30 3152 H 282.999 2.06154 -3.19814 0
M  V30 3153 H 282.511 0.362635 -3.86402 0
M  V30 3154 H 280.612 2.5468 -2.71972 0
M  V30 3155 H 280.725 1.78853 -4.44464 0
M  V30 3156 H 279.089 1.0399 -2.32504 0
M  V30 3157 H 279.872 -0.217592 -3.4261 0
M  V30 3158 N 282.317 1.53212 0.369288 0
M  V30 3159 C 283.557 1.70915 1.12105 0
M  V30 3160 C 283.921 0.449444 1.86665 0
M  V30 3161 O 285.122 0.503105 2.6405 0
M  V30 3162 C 283.393 2.9222 2.05772 0
M  V30 3163 S 284.952 3.30609 2.88519 0
M  V30 3164 H 281.77 0.601445 0.379189 0
M  V30 3165 H 284.372 1.91306 0.402794 0
M  V30 3166 H 283.076 3.82103 1.49752 0
M  V30 3167 H 282.607 2.7422 2.82076 0
M  V30 3168 H 284.622 2.82333 4.08047 0
M  V30 3169 N 283.795 -0.628877 1.44509 0
M  V30 3170 C 284.725 -1.75187 1.54376 0
M  V30 3171 C 285.706 -1.65411 0.396618 0
M  V30 3172 O 286.891 -1.84137 0.617031 0
M  V30 3173 C 284.021 -3.13725 1.48976 0
M  V30 3174 C 282.975 -3.38291 2.62189 0
M  V30 3175 C 282.301 -4.76883 2.41841 0
M  V30 3176 C 283.601 -3.30632 4.04326 0
M  V30 3177 H 285.295 -1.67187 2.48373 0
M  V30 3178 H 282.841 -0.802909 1.19538 0
M  V30 3179 H 284.794 -3.92064 1.54478 0
M  V30 3180 H 283.518 -3.22515 0.514961 0
M  V30 3181 H 282.177 -2.62334 2.56079 0
M  V30 3182 H 281.825 -4.82378 1.42548 0
M  V30 3183 H 281.525 -4.94278 3.17747 0
M  V30 3184 H 283.049 -5.57449 2.49165 0
M  V30 3185 H 284.463 -3.98873 4.11793 0
M  V30 3186 H 282.86 -3.59561 4.80454 0
M  V30 3187 H 283.93 -2.28404 4.27738 0
M  V30 3188 N 285.273 -1.31445 -0.869486 0
M  V30 3189 C 286.22 -1.19135 -1.97675 0
M  V30 3190 C 287.19 -0.0770266 -1.65921 0
M  V30 3191 O 288.375 -0.249972 -1.89155 0
M  V30 3192 C 285.515 -0.905149 -3.33018 0
M  V30 3193 C 284.628 -2.10285 -3.77365 0
M  V30 3194 C 283.763 -1.75339 -5.01427 0
M  V30 3195 C 282.802 -2.91515 -5.38224 0
M  V30 3196 N 281.939 -2.56762 -6.53466 0
M  V30 3197 H 286.779 -2.13853 -2.07535 0
M  V30 3198 H 284.316 -1.06379 -1.01597 0
M  V30 3199 H 286.274 -0.719765 -4.10944 0
M  V30 3200 H 284.904 0.00519624 -3.228 0
M  V30 3201 H 283.956 -2.39899 -2.95216 0
M  V30 3202 H 285.268 -2.97237 -4.00564 0
M  V30 3203 H 284.422 -1.53266 -5.87022 0
M  V30 3204 H 283.161 -0.855801 -4.80133 0
M  V30 3205 H 282.166 -3.14237 -4.51149 0
M  V30 3206 H 283.391 -3.81985 -5.61484 0
M  V30 3207 H 281.337 -1.69526 -6.33717 0
M  V30 3208 H 281.254 -3.37243 -6.76612 0
M  V30 3209 H 282.522 -2.38083 -7.42251 0
M  V30 3210 N 286.751 1.08385 -1.14413 0
M  V30 3211 C 288 1.80153 -0.907076 0
M  V30 3212 C 288.313 1.87176 0.567851 0
M  V30 3213 O 289.519 2.55359 0.922172 0
M  V30 3214 C 287.975 3.23687 -1.57336 0
M  V30 3215 C 287.583 3.24897 -3.08457 0
M  V30 3216 C 289.327 4.00136 -1.41744 0
M  V30 3217 C 287.234 4.6302 -3.67921 0
M  V30 3218 H 286.164 0.675139 -0.335714 0
M  V30 3219 H 288.815 1.21733 -1.37307 0
M  V30 3220 H 287.197 3.82234 -1.03505 0
M  V30 3221 H 288.371 2.76055 -3.68958 0
M  V30 3222 H 286.686 2.61943 -3.2369 0
M  V30 3223 H 289.283 5.02201 -1.83572 0
M  V30 3224 H 289.626 4.14709 -0.363576 0
M  V30 3225 H 290.159 3.48058 -1.92614 0
M  V30 3226 H 286.898 4.5365 -4.73161 0
M  V30 3227 H 286.418 5.12143 -3.12201 0
M  V30 3228 H 288.097 5.31994 -3.68227 0
M  V30 3229 N 288.23 0.939286 1.26551 0
M  V30 3230 C 289.455 0.602008 1.98471 0
M  V30 3231 C 289.88 -0.815624 1.69497 0
M  V30 3232 O 289.238 -1.54912 0.941905 0
M  V30 3233 C 289.286 0.848407 3.50477 0
M  V30 3234 O 288.39 -0.0804009 4.12322 0
M  V30 3235 H 287.731 0.23049 0.622712 0
M  V30 3236 H 290.261 1.2617 1.61066 0
M  V30 3237 H 290.271 0.768553 4.00696 0
M  V30 3238 H 288.946 1.88171 3.70897 0
M  V30 3239 H 287.523 0.0503508 3.72866 0
M  V30 3240 N 289.708 -1.40897 0.706093 0
M  V30 3241 C 291.124 -1.55042 0.37869 0
M  V30 3242 C 291.324 -1.67944 -1.11342 0
M  V30 3243 O 290.38 -1.66372 -1.89938 0
M  V30 3244 C 291.693 -2.78398 1.13643 0
M  V30 3245 C 293.241 -2.92206 1.12181 0
M  V30 3246 C 293.716 -4.18463 1.86152 0
M  V30 3247 N 295.207 -4.25443 1.83173 0
M  V30 3248 C 295.942 -5.2202 2.37239 0
M  V30 3249 N 295.438 -6.24563 2.99821 0
M  V30 3250 N 297.231 -5.14033 2.27435 0
M  V30 3251 H 289.382 -1.30769 1.67372 0
M  V30 3252 H 291.645 -0.631653 0.706907 0
M  V30 3253 H 291.351 -2.7511 2.19106 0
M  V30 3254 H 291.225 -3.70228 0.721853 0
M  V30 3255 H 293.612 -2.95004 0.0754171 0
M  V30 3256 H 293.693 -2.01521 1.57554 0
M  V30 3257 H 293.337 -4.16427 2.90776 0
M  V30 3258 H 293.267 -5.08141 1.38206 0
M  V30 3259 H 295.758 -3.51976 1.37556 0
M  V30 3260 H 296.071 -6.94665 3.38616 0
M  V30 3261 H 294.416 -6.25035 3.03902 0
M  V30 3262 H 297.607 -4.3285 1.78208 0
M  V30 3263 H 297.78 -5.89129 2.69873 0
M  V30 3264 N 291.186 -0.45159 -1.50991 0
M  V30 3265 C 292.602 -0.104647 -1.59257 0
M  V30 3266 C 292.802 1.38728 -1.4614 0
M  V30 3267 O 291.858 2.15866 -1.30989 0
M  V30 3268 C 293.171 -0.637468 -2.93865 0
M  V30 3269 C 294.719 -0.599166 -3.07212 0
M  V30 3270 C 295.194 -1.1092 -4.44366 0
M  V30 3271 N 296.685 -1.06778 -4.50725 0
M  V30 3272 C 297.42 -1.43314 -5.55201 0
M  V30 3273 N 296.916 -1.87204 -6.67028 0
M  V30 3274 N 298.709 -1.3504 -5.45638 0
M  V30 3275 H 290.86 -1.42214 -1.57762 0
M  V30 3276 H 293.123 -0.586921 -0.744465 0
M  V30 3277 H 292.829 -1.68187 -3.08879 0
M  V30 3278 H 292.703 -0.0702139 -3.77135 0
M  V30 3279 H 295.09 0.436277 -2.91857 0
M  V30 3280 H 295.171 -1.20299 -2.25747 0
M  V30 3281 H 294.815 -2.14318 -4.60467 0
M  V30 3282 H 294.745 -0.481773 -5.24392 0
M  V30 3283 H 297.236 -0.745643 -3.70471 0
M  V30 3284 H 297.549 -2.13282 -7.42786 0
M  V30 3285 H 295.894 -1.91142 -6.68199 0
M  V30 3286 H 299.085 -1.00607 -4.57161 0
M  V30 3287 H 299.258 -1.63841 -6.26945 0
M  V30 3288 N 292.664 1.56529 -0.183458 0
M  V30 3289 C 293.91 1.98304 0.452466 0
M  V30 3290 C 294.265 1.06799 1.60037 0
M  V30 3291 O 293.558 0.110049 1.91284 0
M  V30 3292 C 293.752 3.43939 0.971637 0
M  V30 3293 C 293.581 4.49528 -0.124425 0
M  V30 3294 C 292.351 5.01981 -0.578168 0
M  V30 3295 C 294.549 5.05836 -0.929207 0
M  V30 3296 N 292.531 5.91219 -1.65327 0
M  V30 3297 C 293.902 5.91632 -1.85396 0
M  V30 3298 C 295.957 4.88302 -0.972929 0
M  V30 3299 C 294.66 6.61768 -2.81878 0
M  V30 3300 C 296.686 5.59168 -1.92574 0
M  V30 3301 C 296.048 6.44701 -2.83795 0
M  V30 3302 H 292.147 0.770551 0.133324 0
M  V30 3303 H 294.731 1.92581 -0.286473 0
M  V30 3304 H 292.902 3.50184 1.68006 0
M  V30 3305 H 294.634 3.72702 1.5772 0
M  V30 3306 H 291.389 4.73282 -0.173639 0
M  V30 3307 H 291.813 6.40543 -2.19167 0
M  V30 3308 H 296.455 4.21861 -0.28168 0
M  V30 3309 H 294.173 7.27415 -3.51984 0
M  V30 3310 H 297.759 5.47582 -1.96583 0
M  V30 3311 H 296.639 6.98573 -3.56322 0
M  V30 3312 N 294.142 -0.090211 1.57342 0
M  V30 3313 C 295.074 -1.13541 1.99101 0
M  V30 3314 C 296.087 -1.3604 0.894258 0
M  V30 3315 O 297.276 -1.34606 1.17233 0
M  V30 3316 C 294.376 -2.49001 2.29895 0
M  V30 3317 C 293.549 -2.46712 3.61182 0
M  V30 3318 C 292.608 -3.64136 3.79857 0
M  V30 3319 O 291.634 -3.46405 4.51655 0
M  V30 3320 N 292.836 -4.83802 3.20806 0
M  V30 3321 H 295.601 -0.779942 2.89373 0
M  V30 3322 H 293.162 -0.279125 1.59476 0
M  V30 3323 H 295.154 -3.26166 2.39578 0
M  V30 3324 H 293.724 -2.76619 1.45605 0
M  V30 3325 H 292.944 -1.55058 3.62423 0
M  V30 3326 H 294.232 -2.42265 4.4742 0
M  V30 3327 H 293.63 -5.01112 2.62494 0
M  V30 3328 H 292.187 -5.58543 3.35966 0
M  V30 3329 N 295.62 -1.53406 -0.361157 0
M  V30 3330 C 296.568 -1.80832 -1.46296 0
M  V30 3331 C 297.562 -0.677699 -1.55253 0
M  V30 3332 O 298.768 -0.860723 -1.58087 0
M  V30 3333 H 295.143 -0.572627 -0.487445 0
M  V30 3334 H 297.114 -2.73045 -1.20371 0
M  V30 3335 C 295.863 -2.01907 -2.8307 0
M  V30 3336 H 295.186 -2.88349 -2.76938 0
M  V30 3337 H 296.626 -2.25072 -3.59331 0
M  V30 3338 C 295.085 -0.799449 -3.27277 0
M  V30 3339 O 295.615 0.00971761 -4.01699 0
M  V30 3340 N 293.821 -0.621637 -2.83873 0
M  V30 3341 H 293.368 -1.28126 -2.23476 0
M  V30 3342 H 293.326 0.19298 -3.13807 0
M  V30 3343 N 297.098 0.621204 -1.44841 0
M  V30 3344 C 298.048 1.72663 -1.48901 0
M  V30 3345 C 299.032 1.56964 -0.353702 0
M  V30 3346 O 300.224 1.66532 -0.599669 0
M  V30 3347 C 297.353 3.11381 -1.44557 0
M  V30 3348 C 296.439 3.32514 -2.6324 0
M  V30 3349 N 296.83 3.23969 -3.8843 0
M  V30 3350 C 295.128 3.63343 -2.58647 0
M  V30 3351 C 295.829 3.46062 -4.67564 0
M  V30 3352 N 294.805 3.69407 -3.98797 0
M  V30 3353 H 298.607 1.64529 -2.43531 0
M  V30 3354 H 296.121 0.82401 -1.39942 0
M  V30 3355 H 298.118 3.90667 -1.4555 0
M  V30 3356 H 296.778 3.20674 -0.509731 0
M  V30 3357 H 297.789 3.02669 -4.20252 0
M  V30 3358 H 294.466 3.79556 -1.73906 0
M  V30 3359 H 295.856 3.44963 -5.76585 0
M  V30 3360 N 298.576 1.31904 0.862503 0
M  V30 3361 C 299.506 1.22782 1.98612 0
M  V30 3362 C 300.487 0.113362 1.69722 0
M  V30 3363 O 301.672 0.299218 1.91881 0
M  V30 3364 C 298.802 0.942058 3.34279 0
M  V30 3365 C 297.756 2.0169 3.77499 0
M  V30 3366 C 297.082 1.58369 5.10709 0
M  V30 3367 C 298.382 3.43096 3.93805 0
M  V30 3368 H 300.076 2.16788 2.06502 0
M  V30 3369 H 297.622 1.04366 0.992154 0
M  V30 3370 H 299.575 0.864818 4.1243 0
M  V30 3371 H 298.299 -0.0336603 3.26583 0
M  V30 3372 H 296.958 2.08416 3.01593 0
M  V30 3373 H 296.606 0.595628 4.99461 0
M  V30 3374 H 296.306 2.30279 5.40597 0
M  V30 3375 H 297.83 1.52067 5.91361 0
M  V30 3376 H 299.244 3.39003 4.62331 0
M  V30 3377 H 297.641 4.13288 4.35101 0
M  V30 3378 H 298.711 3.83334 2.96957 0
M  V30 3379 N 300.054 -1.07777 1.14986 0
M  V30 3380 C 301.282 -1.84018 0.945773 0
M  V30 3381 C 301.697 -1.81897 -0.505863 0
M  V30 3382 O 301.054 -1.22726 -1.35072 0
M  V30 3383 C 301.105 -3.31287 1.44677 0
M  V30 3384 O 300.826 -3.33449 2.84154 0
M  V30 3385 C 302.327 -4.24311 1.28355 0
M  V30 3386 H 299.547 -0.580716 0.336169 0
M  V30 3387 H 302.091 -1.36077 1.52654 0
M  V30 3388 H 300.246 -3.76594 0.908625 0
M  V30 3389 H 300.66 -4.25427 3.06777 0
M  V30 3390 H 302.134 -5.2573 1.68261 0
M  V30 3391 H 302.611 -4.38612 0.227184 0
M  V30 3392 H 303.217 -3.84836 1.81056 0
M  V30 3393 N 301.532 -0.945985 -1.26051 0
M  V30 3394 C 302.779 -0.596118 -1.93527 0
M  V30 3395 C 303.107 0.865559 -1.74179 0
M  V30 3396 O 302.362 1.63524 -1.0751 0
M  V30 3397 C 302.661 -0.890475 -3.46129 0
M  V30 3398 C 302.327 -2.3368 -3.85622 0
M  V30 3399 C 300.989 -2.73216 -3.96114 0
M  V30 3400 C 303.341 -3.27648 -4.05334 0
M  V30 3401 C 300.669 -4.05806 -4.2372 0
M  V30 3402 C 303.021 -4.59841 -4.3443 0
M  V30 3403 C 301.685 -4.99185 -4.43137 0
M  V30 3404 H 300.955 -0.218135 -0.708165 0
M  V30 3405 H 303.602 -1.1934 -1.49768 0
M  V30 3406 H 301.907 -0.210711 -3.91233 0
M  V30 3407 H 303.604 -0.598478 -3.96509 0
M  V30 3408 H 300.194 -2.02015 -3.78005 0
M  V30 3409 H 304.378 -2.98298 -3.96651 0
M  V30 3410 H 299.634 -4.35945 -4.28675 0
M  V30 3411 H 303.808 -5.32641 -4.48628 0
M  V30 3412 H 301.435 -6.01952 -4.64282 0
M  V30 3413 N 303.011 1.40521 -0.713556 0
M  V30 3414 C 304.258 2.00923 -0.25219 0
M  V30 3415 C 304.586 1.56571 1.15395 0
M  V30 3416 O 303.841 0.775874 1.79663 0
M  V30 3417 C 304.14 3.56317 -0.278 0
M  V30 3418 C 303.806 4.20246 -1.63415 0
M  V30 3419 C 302.468 4.37422 -2.00538 0
M  V30 3420 C 304.82 4.55923 -2.52554 0
M  V30 3421 C 302.148 4.87558 -3.2635 0
M  V30 3422 C 304.5 5.07458 -3.77716 0
M  V30 3423 C 303.164 5.22843 -4.14959 0
M  V30 3424 H 302.434 0.735231 -0.0922829 0
M  V30 3425 H 305.081 1.68161 -0.916188 0
M  V30 3426 H 303.386 3.88976 0.469567 0
M  V30 3427 H 305.083 4.00883 0.0967819 0
M  V30 3428 H 301.673 4.07263 -1.33546 0
M  V30 3429 H 305.857 4.42291 -2.25149 0
M  V30 3430 H 301.113 4.97654 -3.55176 0
M  V30 3431 H 305.287 5.34041 -4.4696 0
M  V30 3432 H 302.914 5.61454 -5.12516 0
M  V30 3433 N 304.489 0.459591 1.5075 0
M  V30 3434 C 305.905 0.113092 1.59199 0
M  V30 3435 C 306.105 -1.37951 1.46874 0
M  V30 3436 O 305.161 -2.15168 1.32132 0
M  V30 3437 C 306.474 0.653043 2.93523 0
M  V30 3438 C 308.022 0.615449 3.0689 0
M  V30 3439 C 308.497 1.13275 4.43771 0
M  V30 3440 N 309.988 1.09167 4.50152 0
M  V30 3441 C 310.723 1.46256 5.54434 0
M  V30 3442 N 310.219 1.90739 6.66026 0
M  V30 3443 N 312.012 1.37932 5.44914 0
M  V30 3444 H 304.163 1.43049 1.57005 0
M  V30 3445 H 306.426 0.590861 0.741341 0
M  V30 3446 H 306.132 1.69822 3.07983 0
M  V30 3447 H 306.006 0.0902132 3.77092 0
M  V30 3448 H 308.393 -0.420793 2.92084 0
M  V30 3449 H 308.474 1.21495 2.25106 0
M  V30 3450 H 308.118 2.16757 4.59324 0
M  V30 3451 H 308.048 0.509576 5.24129 0
M  V30 3452 H 310.539 0.76528 3.7007 0
M  V30 3453 H 310.852 2.17218 7.41644 0
M  V30 3454 H 309.197 1.94683 6.67176 0
M  V30 3455 H 312.388 1.0303 4.56621 0
M  V30 3456 H 312.561 1.67164 6.26067 0
M  V30 3457 N 305.967 -1.56429 0.191757 0
M  V30 3458 C 306.897 -2.21937 -0.725696 0
M  V30 3459 C 307.878 -1.1814 -1.2238 0
M  V30 3460 O 309.063 -1.46636 -1.27325 0
M  V30 3461 C 306.193 -2.87611 -1.94672 0
M  V30 3462 C 305.147 -3.97623 -1.58366 0
M  V30 3463 C 304.473 -4.50446 -2.88102 0
M  V30 3464 C 305.773 -5.16197 -0.796133 0
M  V30 3465 H 307.467 -2.98861 -0.179606 0
M  V30 3466 H 305.013 -1.43749 -0.0849464 0
M  V30 3467 H 306.966 -3.3212 -2.59373 0
M  V30 3468 H 305.69 -2.08087 -2.51728 0
M  V30 3469 H 304.349 -3.53801 -0.960247 0
M  V30 3470 H 303.997 -3.67688 -3.43241 0
M  V30 3471 H 303.697 -5.24675 -2.64556 0
M  V30 3472 H 305.221 -4.97654 -3.53798 0
M  V30 3473 H 306.635 -5.57271 -1.34618 0
M  V30 3474 H 305.032 -5.96471 -0.658928 0
M  V30 3475 H 306.102 -4.84473 0.203478 0
M  V30 3476 N 307.445 0.0818655 -1.57387 0
M  V30 3477 C 308.395 1.10501 -1.99433 0
M  V30 3478 C 309.379 1.35041 -0.874798 0
M  V30 3479 O 310.571 1.35511 -1.13868 0
M  V30 3480 C 307.7 2.42159 -2.43339 0
M  V30 3481 C 306.786 2.20937 -3.62005 0
M  V30 3482 N 307.177 1.69616 -4.76512 0
M  V30 3483 C 305.475 2.51451 -3.68359 0
M  V30 3484 C 306.176 1.62973 -5.58404 0
M  V30 3485 N 305.152 2.08664 -5.01956 0
M  V30 3486 H 308.954 0.701373 -2.85408 0
M  V30 3487 H 306.468 0.289096 -1.59806 0
M  V30 3488 H 308.465 3.16208 -2.71695 0
M  V30 3489 H 307.125 2.83249 -1.58746 0
M  V30 3490 H 308.136 1.38624 -4.99003 0
M  V30 3491 H 304.813 2.95975 -2.94457 0
M  V30 3492 H 306.203 1.24233 -6.60315 0
M  V30 3493 N 308.923 1.53595 0.353017 0
M  V30 3494 C 309.853 1.83902 1.43883 0
M  V30 3495 C 310.834 0.693421 1.55324 0
M  V30 3496 O 312.019 0.944452 1.69687 0
M  V30 3497 C 309.149 2.04016 2.8106 0
M  V30 3498 C 308.103 3.19814 2.84434 0
M  V30 3499 C 307.429 3.25244 4.24406 0
M  V30 3500 C 308.729 4.58133 2.50822 0
M  V30 3501 H 310.423 2.74835 1.1877 0
M  V30 3502 H 307.969 1.32242 0.569917 0
M  V30 3503 H 309.922 2.238 3.57059 0
M  V30 3504 H 308.646 1.09804 3.07588 0
M  V30 3505 H 307.305 2.9987 2.10887 0
M  V30 3506 H 306.953 2.28646 4.48029 0
M  V30 3507 H 306.653 4.03054 4.27576 0
M  V30 3508 H 308.177 3.47228 5.0226 0
M  V30 3509 H 309.591 4.77995 3.16534 0
M  V30 3510 H 307.988 5.38276 2.6529 0
M  V30 3511 H 309.058 4.62387 1.46034 0
M  V30 3512 N 310.401 -0.613514 1.45168 0
M  V30 3513 C 311.333 -1.73825 1.4939 0
M  V30 3514 C 312.346 -1.58175 0.385304 0
M  V30 3515 O 313.535 -1.66165 0.652036 0
M  V30 3516 C 310.635 -3.11758 1.32891 0
M  V30 3517 C 309.808 -3.53704 2.57317 0
M  V30 3518 C 308.867 -4.70579 2.35462 0
M  V30 3519 O 307.893 -4.77996 3.09044 0
M  V30 3520 N 309.095 -5.63454 1.39644 0
M  V30 3521 H 311.86 -1.70669 2.46358 0
M  V30 3522 H 309.421 -0.79862 1.40832 0
M  V30 3523 H 311.413 -3.87692 1.1609 0
M  V30 3524 H 309.983 -3.09456 0.442218 0
M  V30 3525 H 309.203 -2.67794 2.89275 0
M  V30 3526 H 310.491 -3.78486 3.40038 0
M  V30 3527 H 309.889 -5.6017 0.789062 0
M  V30 3528 H 308.446 -6.38944 1.28816 0
M  V30 3529 N 311.879 -1.3236 -0.855495 0
M  V30 3530 C 312.827 -1.2118 -1.9854 0
M  V30 3531 C 313.821 -0.116788 -1.68997 0
M  V30 3532 O 315.027 -0.279657 -1.77814 0
M  V30 3533 H 311.402 -0.375608 -0.651477 0
M  V30 3534 H 313.373 -2.16743 -2.05098 0
M  V30 3535 C 312.122 -0.950849 -3.34446 0
M  V30 3536 H 311.445 -1.78563 -3.57708 0
M  V30 3537 H 312.885 -0.912863 -4.14057 0
M  V30 3538 C 311.344 0.346404 -3.35114 0
M  V30 3539 O 311.874 1.35855 -3.7803 0
M  V30 3540 N 310.08 0.36808 -2.88259 0
M  V30 3541 H 309.627 -0.456102 -2.5353 0
M  V30 3542 H 309.585 1.23591 -2.89089 0
M  V30 3543 N 313.357 1.07166 -1.15556 0
M  V30 3544 C 314.597 1.81391 -0.94216 0
M  V30 3545 C 314.961 1.84788 0.521272 0
M  V30 3546 O 316.162 2.54904 0.85307 0
M  V30 3547 C 314.433 3.22431 -1.54185 0
M  V30 3548 S 315.992 4.13379 -1.47183 0
M  V30 3549 H 312.81 0.624963 -0.339031 0
M  V30 3550 H 315.412 1.28725 -1.4714 0
M  V30 3551 H 314.116 3.17548 -2.59984 0
M  V30 3552 H 313.647 3.80172 -1.01156 0
M  V30 3553 H 315.662 4.94007 -0.466004 0
M  V30 3554 N 314.835 0.952656 1.25548 0
M  V30 3555 C 315.785 0.442033 2.23674 0
M  V30 3556 C 316.769 -0.467632 1.53955 0
M  V30 3557 O 317.961 -0.301006 1.74422 0
M  V30 3558 C 315.09 -0.280816 3.4215 0
M  V30 3559 C 314.176 0.646803 4.19139 0
M  V30 3560 N 314.567 1.77759 4.73535 0
M  V30 3561 C 312.865 0.454617 4.43677 0
M  V30 3562 C 313.566 2.35658 5.31827 0
M  V30 3563 N 312.542 1.64333 5.18166 0
M  V30 3564 H 316.344 1.30505 2.63336 0
M  V30 3565 H 313.858 0.809904 1.40763 0
M  V30 3566 H 315.855 -0.663747 4.11582 0
M  V30 3567 H 314.515 -1.14046 3.04012 0
M  V30 3568 H 315.526 2.15949 4.7073 0
M  V30 3569 H 312.203 -0.362312 4.15925 0
M  V30 3570 H 313.593 3.30998 5.84713 0
M  V30 3571 N 316.313 -1.40141 0.720998 0
M  V30 3572 C 317.543 -2.04798 0.27226 0
M  V30 3573 C 317.951 -1.54442 -1.09289 0
M  V30 3574 O 317.294 -0.698342 -1.69908 0
M  V30 3575 C 317.356 -3.59048 0.18027 0
M  V30 3576 C 317.02 -4.32317 1.48159 0
M  V30 3577 C 318.017 -4.59902 2.42458 0
M  V30 3578 C 315.702 -4.71125 1.74202 0
M  V30 3579 C 317.696 -5.25288 3.61042 0
M  V30 3580 C 315.383 -5.36242 2.93066 0
M  V30 3581 C 316.381 -5.63254 3.86308 0
M  V30 3582 O 316.069 -6.27024 5.03086 0
M  V30 3583 H 315.801 -0.665419 0.119139 0
M  V30 3584 H 318.355 -1.80436 0.981432 0
M  V30 3585 H 316.585 -3.82251 -0.58489 0
M  V30 3586 H 318.274 -4.05221 -0.234618 0
M  V30 3587 H 319.04 -4.30379 2.23604 0
M  V30 3588 H 314.919 -4.49466 1.02477 0
M  V30 3589 H 318.463 -5.46289 4.33837 0
M  V30 3590 H 314.36 -5.65185 3.11826 0
M  V30 3591 H 315.128 -6.4552 5.03235 0
M  V30 3592 N 317.792 -0.46758 -1.50504 0
M  V30 3593 C 318.724 0.364655 -2.26281 0
M  V30 3594 C 319.737 0.960151 -1.31472 0
M  V30 3595 O 320.926 0.849153 -1.57008 0
M  V30 3596 C 318.026 1.52509 -3.02645 0
M  V30 3597 C 317.199 1.04302 -4.24782 0
M  V30 3598 C 316.258 2.07709 -4.8347 0
M  V30 3599 O 315.284 1.65913 -5.44483 0
M  V30 3600 N 316.486 3.40485 -4.70159 0
M  V30 3601 H 319.251 -0.28495 -2.98342 0
M  V30 3602 H 316.812 -0.298163 -1.59131 0
M  V30 3603 H 318.804 2.21371 -3.38787 0
M  V30 3604 H 317.374 2.07945 -2.33404 0
M  V30 3605 H 316.594 0.180393 -3.93787 0
M  V30 3606 H 317.882 0.698798 -5.03978 0
M  V30 3607 H 317.28 3.77155 -4.21629 0
M  V30 3608 H 315.837 4.05156 -5.1058 0
M  V30 3609 N 319.27 1.56325 -0.20005 0
M  V30 3610 C 320.498 2.02105 0.442874 0
M  V30 3611 C 320.913 1.08014 1.5485 0
M  V30 3612 O 320.27 0.0858797 1.82298 0
M  V30 3613 C 320.321 3.47549 0.994583 0
M  V30 3614 O 320.042 4.38049 -0.0669322 0
M  V30 3615 C 321.543 4.0887 1.7129 0
M  V30 3616 H 318.763 0.661807 0.110691 0
M  V30 3617 H 321.307 2.02134 -0.310207 0
M  V30 3618 H 319.462 3.48204 1.69803 0
M  V30 3619 H 319.876 5.23368 0.344462 0
M  V30 3620 H 321.35 5.12475 2.05118 0
M  V30 3621 H 321.827 3.52615 2.61838 0
M  V30 3622 H 322.433 4.12002 1.05518 0
M  V30 3623 N 320.748 -0.0735177 1.57428 0
M  V30 3624 C 321.997 -0.771809 1.86349 0
M  V30 3625 C 322.31 -1.78828 0.792452 0
M  V30 3626 O 323.516 -2.53602 0.96945 0
M  V30 3627 C 321.972 -1.42358 3.30548 0
M  V30 3628 C 321.58 -0.445761 4.45777 0
M  V30 3629 C 323.324 -2.10434 3.6867 0
M  V30 3630 C 321.231 -1.10335 5.81016 0
M  V30 3631 H 320.161 -0.291999 0.695164 0
M  V30 3632 H 322.812 -0.0250749 1.83483 0
M  V30 3633 H 321.194 -2.21852 3.28021 0
M  V30 3634 H 322.368 0.319239 4.59693 0
M  V30 3635 H 320.683 0.130457 4.16196 0
M  V30 3636 H 323.28 -2.60405 4.67004 0
M  V30 3637 H 323.623 -2.90298 2.98383 0
M  V30 3638 H 324.156 -1.37773 3.7318 0
M  V30 3639 H 320.895 -0.345061 6.54591 0
M  V30 3640 H 320.415 -1.83925 5.70904 0
M  V30 3641 H 322.094 -1.62367 6.26295 0
M  V30 3642 N 322.226 -1.5378 -0.344866 0
M  V30 3643 C 323.637 -1.62428 -0.920552 0
M  V30 3644 C 323.988 -0.504747 -1.89596 0
M  V30 3645 O 323.113 0.365711 -2.13287 0
M  V30 3646 C 323.708 -2.94419 -1.67639 0
M  V30 3647 C 322.267 -3.05333 -2.20111 0
M  V30 3648 C 321.414 -2.57866 -1.01982 0
M  V30 3649 H 324.365 -1.58222 -0.123042 0
M  V30 3650 H 324.386 -2.83384 -2.53917 0
M  V30 3651 H 323.898 -3.7588 -0.966224 0
M  V30 3652 H 321.999 -2.28502 -2.94308 0
M  V30 3653 H 322.112 -4.10778 -2.46573 0
M  V30 3654 H 320.476 -2.13241 -1.39285 0
M  V30 3655 H 321.259 -3.41765 -0.324308 0
M  V30 3656 N 323.704 0.605807 -1.45491 0
M  V30 3657 C 325.115 1.18777 -1.44045 0
M  V30 3658 C 325.466 1.95471 -0.169001 0
M  V30 3659 O 324.591 2.0374 0.729324 0
M  V30 3660 C 325.186 2.16064 -2.60963 0
M  V30 3661 C 323.745 2.69633 -2.62631 0
M  V30 3662 C 322.892 1.45072 -2.36325 0
M  V30 3663 H 325.843 0.395017 -1.53705 0
M  V30 3664 H 325.864 2.9913 -2.35163 0
M  V30 3665 H 325.376 1.60217 -3.53486 0
M  V30 3666 H 323.477 3.29414 -1.74119 0
M  V30 3667 H 323.59 3.13944 -3.61906 0
M  V30 3668 H 321.954 1.74089 -1.85917 0
M  V30 3669 H 322.737 0.910899 -3.30995 0
M  V30 3670 N 325.182 1.32811 0.848464 0
M  V30 3671 C 326.132 1.18842 1.94578 0
M  V30 3672 C 327.116 0.0937517 1.60627 0
M  V30 3673 O 328.308 0.320887 1.74067 0
M  V30 3674 C 325.437 0.91999 3.30743 0
M  V30 3675 C 324.523 2.05665 3.70894 0
M  V30 3676 N 324.914 3.30579 3.8282 0
M  V30 3677 C 323.212 1.9612 4.00566 0
M  V30 3678 C 323.913 4.05067 4.17487 0
M  V30 3679 N 322.889 3.33419 4.2934 0
M  V30 3680 H 326.691 2.13536 2.0194 0
M  V30 3681 H 324.205 1.2468 1.0406 0
M  V30 3682 H 326.202 0.800859 4.09136 0
M  V30 3683 H 324.862 -0.0185076 3.24695 0
M  V30 3684 H 325.873 3.65441 3.66978 0
M  V30 3685 H 322.55 1.09871 4.02784 0
M  V30 3686 H 323.94 5.12815 4.34131 0
M  V30 3687 N 326.66 -1.06551 1.16123 0
M  V30 3688 C 327.909 -1.78687 0.935622 0
M  V30 3689 C 328.222 -1.88056 -0.538001 0
M  V30 3690 O 329.428 -2.56794 -0.88143 0
M  V30 3691 C 327.884 -3.21143 1.62466 0
M  V30 3692 C 327.492 -3.19949 3.13587 0
M  V30 3693 C 329.236 -3.9783 1.48092 0
M  V30 3694 C 327.143 -4.57108 3.75241 0
M  V30 3695 H 326.073 -0.669712 0.346412 0
M  V30 3696 H 328.724 -1.19534 1.39226 0
M  V30 3697 H 327.106 -3.80539 1.09572 0
M  V30 3698 H 328.28 -2.70151 3.73303 0
M  V30 3699 H 326.595 -2.5676 3.27816 0
M  V30 3700 H 329.192 -4.99217 1.91538 0
M  V30 3701 H 329.535 -4.14078 0.429507 0
M  V30 3702 H 330.068 -3.4495 1.98127 0
M  V30 3703 H 326.807 -4.46065 4.80319 0
M  V30 3704 H 326.327 -5.07111 3.20309 0
M  V30 3705 H 328.006 -5.26069 3.76644 0
M  V30 3706 N 328.138 -0.959301 -1.25041 0
M  V30 3707 C 329.068 -0.501388 -2.28053 0
M  V30 3708 C 330.049 0.454673 -1.63911 0
M  V30 3709 O 331.234 0.352618 -1.90972 0
M  V30 3710 C 328.364 0.217224 -3.4662 0
M  V30 3711 C 327.318 -0.654034 -4.22973 0
M  V30 3712 C 326.644 0.195589 -5.34342 0
M  V30 3713 C 327.944 -1.93447 -4.85155 0
M  V30 3714 H 329.638 -1.36238 -2.66608 0
M  V30 3715 H 327.184 -0.656534 -1.28163 0
M  V30 3716 H 329.137 0.548732 -4.17812 0
M  V30 3717 H 327.861 1.1125 -3.07068 0
M  V30 3718 H 326.52 -0.968693 -3.5357 0
M  V30 3719 H 326.168 1.09076 -4.91031 0
M  V30 3720 H 325.868 -0.384091 -5.86343 0
M  V30 3721 H 327.392 0.521958 -6.08365 0
M  V30 3722 H 328.806 -1.66908 -5.48466 0
M  V30 3723 H 327.203 -2.46018 -5.47353 0
M  V30 3724 H 328.273 -2.63466 -4.07079 0
M  V30 3725 N 329.616 1.39756 -0.72842 0
M  V30 3726 C 330.546 2.33289 -0.0991354 0
M  V30 3727 C 331.527 1.53568 0.731489 0
M  V30 3728 O 332.712 1.81987 0.677807 0
M  V30 3729 C 329.842 3.3763 0.813834 0
M  V30 3730 C 328.796 4.2791 0.0878663 0
M  V30 3731 C 328.122 5.22894 1.11741 0
M  V30 3732 C 329.422 5.11314 -1.06563 0
M  V30 3733 H 331.116 2.86163 -0.880408 0
M  V30 3734 H 328.662 1.37591 -0.424819 0
M  V30 3735 H 330.615 4.0201 1.26355 0
M  V30 3736 H 329.339 2.83181 1.62715 0
M  V30 3737 H 327.998 3.65 -0.342159 0
M  V30 3738 H 327.646 4.64744 1.92412 0
M  V30 3739 H 327.346 5.84143 0.636477 0
M  V30 3740 H 328.87 5.90151 1.56697 0
M  V30 3741 H 330.284 5.69076 -0.694671 0
M  V30 3742 H 328.681 5.81671 -1.47577 0
M  V30 3743 H 329.751 4.46534 -1.89038 0
M  V30 3744 N 331.094 0.475555 1.50254 0
M  V30 3745 C 332.057 -0.305016 2.27161 0
M  V30 3746 C 333.057 -0.916519 1.32123 0
M  V30 3747 O 334.247 -0.785003 1.5551 0
M  V30 3748 C 331.379 -1.43496 3.09227 0
M  V30 3749 H 332.572 0.369511 2.97615 0
M  V30 3750 H 330.125 0.229747 1.54602 0
M  V30 3751 H 330.86 -2.14441 2.43281 0
M  V30 3752 H 330.645 -1.00223 3.79075 0
M  V30 3753 H 332.135 -1.98548 3.67381 0
M  V30 3754 N 332.573 -1.56217 0.208337 0
M  V30 3755 C 333.801 -2.02337 -0.43215 0
M  V30 3756 C 334.216 -1.08834 -1.54275 0
M  V30 3757 O 333.573 -0.0955462 -1.8225 0
M  V30 3758 C 333.624 -3.48072 -0.976138 0
M  V30 3759 O 333.345 -4.38007 0.0901621 0
M  V30 3760 C 334.846 -4.09773 -1.69119 0
M  V30 3761 H 332.066 -0.662385 -0.10718 0
M  V30 3762 H 334.61 -2.01966 0.320923 0
M  V30 3763 H 332.765 -3.49099 -1.67954 0
M  V30 3764 H 333.179 -5.23543 -0.316701 0
M  V30 3765 H 334.653 -5.13556 -2.02397 0
M  V30 3766 H 335.13 -3.53999 -2.59964 0
M  V30 3767 H 335.736 -4.12556 -1.03332 0
M  V30 3768 N 334.051 0.0651679 -1.57465 0
M  V30 3769 C 335.299 0.761555 -1.87202 0
M  V30 3770 C 335.62 1.77778 -0.801243 0
M  V30 3771 O 334.89 1.95166 0.16937 0
M  V30 3772 H 333.47 0.284251 -0.690804 0
M  V30 3773 H 336.132 0.0396827 -1.9486 0
M  V30 3774 H 335.228 1.27365 -2.84929 0
M  V30 3775 N 335.529 1.53961 0.336706 0
M  V30 3776 C 336.459 1.85417 1.41925 0
M  V30 3777 C 337.44 0.709856 1.5458 0
M  V30 3778 O 338.625 0.962396 1.68676 0
M  V30 3779 C 335.755 2.06985 2.78881 0
M  V30 3780 C 334.709 3.22813 2.81026 0
M  V30 3781 C 334.035 3.29727 4.20932 0
M  V30 3782 C 335.335 4.60767 2.45949 0
M  V30 3783 H 337.029 2.76079 1.15848 0
M  V30 3784 H 334.575 1.32839 0.555859 0
M  V30 3785 H 336.528 2.27575 3.54665 0
M  V30 3786 H 335.252 1.13061 3.06406 0
M  V30 3787 H 333.911 3.0209 2.07695 0
M  V30 3788 H 333.559 2.33385 4.45579 0
M  V30 3789 H 333.259 4.07566 4.23277 0
M  V30 3790 H 334.783 3.52536 4.98549 0
M  V30 3791 H 336.197 4.81325 3.11446 0
M  V30 3792 H 334.594 5.4106 2.59566 0
M  V30 3793 H 335.664 4.6391 1.41122 0
M  V30 3794 N 337.007 -0.598083 1.45811 0
M  V30 3795 C 338.256 -1.35295 1.49594 0
M  V30 3796 C 338.569 -1.95057 0.145679 0
M  V30 3797 O 339.775 -2.71431 0.0612099 0
M  V30 3798 C 338.231 -2.45124 2.63519 0
M  V30 3799 C 337.839 -1.91732 4.04899 0
M  V30 3800 C 339.583 -3.2205 2.76558 0
M  V30 3801 C 337.49 -2.991 5.1019 0
M  V30 3802 H 336.42 -0.508552 0.556679 0
M  V30 3803 H 339.071 -0.639977 1.71978 0
M  V30 3804 H 337.453 -3.19149 2.34435 0
M  V30 3805 H 338.627 -1.24352 4.43704 0
M  V30 3806 H 336.942 -1.27522 3.96393 0
M  V30 3807 H 339.539 -4.0215 3.52391 0
M  V30 3808 H 339.882 -3.73663 1.83526 0
M  V30 3809 H 340.415 -2.55127 3.05213 0
M  V30 3810 H 337.154 -2.52393 6.04961 0
M  V30 3811 H 336.674 -3.65017 4.75944 0
M  V30 3812 H 338.353 -3.63318 5.35359 0
M  V30 3813 N 338.485 -1.33259 -0.841409 0
M  V30 3814 C 339.435 -1.19872 -1.93945 0
M  V30 3815 C 340.419 -0.102269 -1.60575 0
M  V30 3816 O 341.611 -0.330114 -1.73894 0
M  V30 3817 C 338.74 -0.937517 -3.30251 0
M  V30 3818 C 337.826 -2.07629 -3.69799 0
M  V30 3819 N 338.217 -3.32604 -3.81062 0
M  V30 3820 C 336.515 -1.98242 -3.9952 0
M  V30 3821 C 337.216 -4.07275 -4.15333 0
M  V30 3822 N 336.192 -3.35691 -4.27566 0
M  V30 3823 H 339.994 -2.14604 -2.00805 0
M  V30 3824 H 337.508 -1.2523 -1.03398 0
M  V30 3825 H 339.505 -0.822545 -4.08705 0
M  V30 3826 H 338.165 0.00128798 -3.247 0
M  V30 3827 H 339.176 -3.67382 -3.65035 0
M  V30 3828 H 335.853 -1.12005 -4.02195 0
M  V30 3829 H 337.243 -5.1511 -4.31406 0
M  V30 3830 N 339.963 1.05934 -1.16686 0
M  V30 3831 C 341.374 1.60263 -0.957745 0
M  V30 3832 C 341.725 1.89789 0.49745 0
M  V30 3833 O 340.85 1.67401 1.37135 0
M  V30 3834 C 341.445 2.91172 -1.73218 0
M  V30 3835 C 340.004 3.42188 -1.56794 0
M  V30 3836 C 339.151 2.16028 -1.73859 0
M  V30 3837 H 342.102 0.888392 -1.31504 0
M  V30 3838 H 342.123 3.60744 -1.21014 0
M  V30 3839 H 341.635 2.6965 -2.79124 0
M  V30 3840 H 339.736 3.68762 -0.533437 0
M  V30 3841 H 339.849 4.17273 -2.35414 0
M  V30 3842 H 338.213 2.26426 -1.16633 0
M  V30 3843 H 338.996 1.96985 -2.81161 0
M  V30 3844 N 341.441 0.965919 1.2453 0
M  V30 3845 C 342.666 0.643971 1.97149 0
M  V30 3846 C 343.091 -0.779487 1.71189 0
M  V30 3847 O 342.449 -1.5288 0.974553 0
M  V30 3848 C 342.497 0.922557 3.48599 0
M  V30 3849 O 341.601 0.00707672 4.12399 0
M  V30 3850 H 340.942 0.243647 0.617683 0
M  V30 3851 H 343.472 1.29558 1.58353 0
M  V30 3852 H 343.482 0.853373 3.98976 0
M  V30 3853 H 342.157 1.95996 3.66822 0
M  V30 3854 H 340.734 0.12943 3.72675 0
M  V30 3855 N 342.919 -1.39368 0.735821 0
M  V30 3856 C 344.165 -2.00794 0.284544 0
M  V30 3857 C 344.498 -1.58255 -1.12557 0
M  V30 3858 O 343.773 -0.811819 -1.76748 0
M  V30 3859 C 344.056 -3.58011 0.387337 0
M  V30 3860 C 343.909 -4.10566 1.83728 0
M  V30 3861 C 345.228 -4.395 -0.22975 0
M  V30 3862 H 342.347 -0.729501 0.104866 0
M  V30 3863 H 344.989 -1.65564 0.93213 0
M  V30 3864 H 343.139 -3.88154 -0.164006 0
M  V30 3865 H 344.811 -3.91139 2.44556 0
M  V30 3866 H 343.054 -3.64095 2.35833 0
M  V30 3867 H 343.725 -5.19702 1.86047 0
M  V30 3868 H 346.201 -4.15406 0.240257 0
M  V30 3869 H 345.077 -5.48752 -0.127485 0
M  V30 3870 H 345.338 -4.22062 -1.3159 0
M  V30 3871 N 344.397 -0.483516 -1.5 0
M  V30 3872 C 345.36 0.292965 -2.2732 0
M  V30 3873 C 346.36 0.909499 -1.32608 0
M  V30 3874 O 347.55 0.776745 -1.55924 0
M  V30 3875 C 344.682 1.41854 -3.09984 0
M  V30 3876 H 345.875 -0.385289 -2.97415 0
M  V30 3877 H 343.428 -0.237942 -1.54478 0
M  V30 3878 H 344.163 2.13148 -2.44414 0
M  V30 3879 H 343.948 0.982114 -3.79601 0
M  V30 3880 H 345.438 1.96597 -3.68429 0
M  V30 3881 N 345.875 1.56104 -0.216619 0
M  V30 3882 C 347.121 1.99219 0.410301 0
M  V30 3883 C 347.476 1.10169 1.57735 0
M  V30 3884 O 346.769 0.150598 1.91007 0
M  V30 3885 C 346.963 3.45923 0.898464 0
M  V30 3886 C 346.792 4.49163 -0.219748 0
M  V30 3887 C 345.562 5.00642 -0.684516 0
M  V30 3888 C 347.76 5.03751 -1.03629 0
M  V30 3889 N 345.742 5.87579 -1.7783 0
M  V30 3890 C 347.113 5.87566 -1.97904 0
M  V30 3891 C 349.168 4.86128 -1.07629 0
M  V30 3892 C 347.871 6.5564 -2.95851 0
M  V30 3893 C 349.897 5.54958 -2.04392 0
M  V30 3894 C 349.259 6.38536 -2.97407 0
M  V30 3895 H 345.358 0.773206 0.11695 0
M  V30 3896 H 347.942 1.9193 -0.327258 0
M  V30 3897 H 346.113 3.53669 1.6054 0
M  V30 3898 H 347.845 3.75963 1.49779 0
M  V30 3899 H 344.6 4.72807 -0.27399 0
M  V30 3900 H 345.024 6.3575 -2.32705 0
M  V30 3901 H 349.666 4.21168 -0.371099 0
M  V30 3902 H 347.384 7.19785 -3.67335 0
M  V30 3903 H 350.97 5.43289 -2.08154 0
M  V30 3904 H 349.85 6.90858 -3.71059 0
M  V30 3905 N 347.353 -0.0568162 1.57498 0
M  V30 3906 C 348.769 -0.411933 1.54192 0
M  V30 3907 C 348.969 -1.78287 0.938942 0
M  V30 3908 O 348.025 -2.46483 0.547919 0
M  V30 3909 C 349.338 -0.339244 2.9878 0
M  V30 3910 C 350.886 -0.418348 3.10192 0
M  V30 3911 C 351.361 -0.375407 4.56459 0
M  V30 3912 N 352.852 -0.435038 4.61153 0
M  V30 3913 C 353.587 -0.424265 5.71828 0
M  V30 3914 N 353.083 -0.367418 6.91825 0
M  V30 3915 N 354.876 -0.471938 5.60115 0
M  V30 3916 H 347.027 0.840684 1.95055 0
M  V30 3917 H 349.29 0.316987 0.893433 0
M  V30 3918 H 348.996 0.601742 3.46514 0
M  V30 3919 H 348.87 -1.14371 3.59443 0
M  V30 3920 H 351.257 -1.34976 2.62422 0
M  V30 3921 H 351.338 0.414962 2.52412 0
M  V30 3922 H 350.982 0.552219 5.04889 0
M  V30 3923 H 350.912 -1.22645 5.12119 0
M  V30 3924 H 353.403 -0.482612 3.74806 0
M  V30 3925 H 353.716 -0.363535 7.71944 0
M  V30 3926 H 352.061 -0.333879 6.94198 0
M  V30 3927 H 355.252 -0.514145 4.65268 0
M  V30 3928 H 355.425 -0.460073 6.46365 0
M  V30 3929 O 348.87 -1.60255 -0.200168 0
M  V30 3930 H 349.561 -1.74563 -0.839496 0
M  V30 END ATOM
M  V30 BEGIN BOND
M  V30 END BOND
M  V30 END CTAB
M  END
$$$$
