drugbank_target|P41231 P2Y purinoceptor 2 (DB04786; DB04983; DB05390)
 OpenBabel12092120143D

  0  0  0     0  0            999 V3000
M  V30 BEGIN CTAB
M  V30 COUNTS 6012 6088 0 0 0
M  V30 BEGIN ATOM
M  V30 1 H -0.908 1.98254 -0.117106 0
M  V30 2 N 0 1.576 0 0
M  V30 3 C 0.933 2.03868 1.02534 0
M  V30 4 C 1.911 0.928543 1.3348 0
M  V30 5 O 3.095 1.19667 1.45644 0
M  V30 6 C 0.222 2.43627 2.35294 0
M  V30 7 C -0.732 3.65373 2.2001 0
M  V30 8 S 0.101 5.13292 1.52614 0
M  V30 9 C 1.257 5.56322 2.86805 0
M  V30 10 H 1.49 2.90518 0.631377 0
M  V30 11 H -0.977 1.52953 0.210867 0
M  V30 12 H 0.981 2.67203 3.11629 0
M  V30 13 H -0.358 1.57376 2.7183 0
M  V30 14 H -1.165 3.90944 3.18086 0
M  V30 15 H -1.563 3.418 1.51819 0
M  V30 16 H 0.729 5.58782 3.83104 0
M  V30 17 H 1.672 6.56266 2.65933 0
M  V30 18 H 2.08 4.83886 2.90714 0
M  V30 19 N 1.4781 -0.272755 1.55222 0
M  V30 20 C 2.4411 -1.32041 1.87344 0
M  V30 21 C 3.4411 -1.42342 0.74803 0
M  V30 22 O 4.6311 -1.41488 1.0162 0
M  V30 23 C 1.7631 -2.70173 2.07893 0
M  V30 24 H 2.9561 -1.04789 2.80997 0
M  V30 25 H 0.5091 -0.51083 1.47717 0
M  V30 26 H 1.2441 -3.02605 1.16622 0
M  V30 27 H 1.0291 -2.64082 2.89833 0
M  V30 28 H 2.5191 -3.45869 2.34017 0
M  V30 29 N 2.9562 -1.48159 -0.537278 0
M  V30 30 C 3.9192 -1.61665 -1.62472 0
M  V30 31 C 4.9192 -0.490395 -1.5314 0
M  V30 32 O 6.1092 -0.755998 -1.5694 0
M  V30 33 C 3.2412 -1.57997 -3.02076 0
M  V30 34 H 4.4342 -2.58621 -1.51839 0
M  V30 35 H 1.9872 -1.36647 -0.758771 0
M  V30 36 H 2.7222 -0.624913 -3.18222 0
M  V30 37 H 2.5072 -2.39755 -3.10258 0
M  V30 38 H 3.9972 -1.70627 -3.81151 0
M  V30 39 N 4.4343 0.785586 -1.36625 0
M  V30 40 C 5.7113 1.53198 -1.21613 0
M  V30 41 C 6.0913 2.10187 0.196113 0
M  V30 42 O 5.4393 1.94318 1.20219 0
M  V30 43 C 5.6493 2.62388 -2.30116 0
M  V30 44 C 6.9973 3.30167 -2.66974 0
M  V30 45 O 8.0213 2.72674 -2.29188 0
M  V30 46 O 6.8803 4.34077 -3.32023 0
M  V30 47 H 3.9743 0.677865 -0.473738 0
M  V30 48 H 6.5203 0.823739 -1.48367 0
M  V30 49 H 5.2923 2.18299 -3.24748 0
M  V30 50 H 4.9153 3.40827 -2.0475 0
M  V30 51 N 5.9124 1.20967 1.01018 0
M  V30 52 C 6.8424 0.988272 2.11555 0
M  V30 53 C 7.8234 -0.0849778 1.69888 0
M  V30 54 O 9.0084 0.0738202 1.9406 0
M  V30 55 C 6.1384 0.546528 3.42973 0
M  V30 56 C 5.0924 1.56375 3.9841 0
M  V30 57 C 4.4184 0.97842 5.25672 0
M  V30 58 C 5.7184 2.94922 4.31066 0
M  V30 59 H 7.4124 1.91276 2.30334 0
M  V30 60 H 4.9584 0.921073 1.1069 0
M  V30 61 H 6.9114 0.378839 4.19694 0
M  V30 62 H 5.6354 -0.413598 3.23971 0
M  V30 63 H 4.2944 1.71891 3.23804 0
M  V30 64 H 3.9424 0.0101688 5.02999 0
M  V30 65 H 3.6424 1.65784 5.63728 0
M  V30 66 H 5.1664 0.821939 6.05043 0
M  V30 67 H 6.5804 2.8288 4.9865 0
M  V30 68 H 4.9774 3.5983 4.80253 0
M  V30 69 H 6.0474 3.4616 3.39561 0
M  V30 70 N 7.3905 -1.2043 1.01659 0
M  V30 71 C 8.6385 -1.89423 0.704522 0
M  V30 72 C 8.9595 -1.79231 -0.768197 0
M  V30 73 O 8.2295 -1.1947 -1.55254 0
M  V30 74 H 6.8095 -0.701178 0.257602 0
M  V30 75 H 9.4715 -1.4626 1.28818 0
M  V30 76 H 8.5675 -2.96052 0.987916 0
M  V30 77 N 8.8686 -0.792821 -1.36206 0
M  V30 78 C 10.2796 -0.429513 -1.81692 0
M  V30 79 C 10.6306 1.04695 -1.65932 0
M  V30 80 O 9.7556 1.81256 -1.18218 0
M  V30 81 C 10.3506 -0.772831 -3.29868 0
M  V30 82 C 8.9096 -0.462307 -3.7355 0
M  V30 83 C 8.0566 -1.00569 -2.5842 0
M  V30 84 H 11.0076 -0.985672 -1.24379 0
M  V30 85 H 11.0286 -0.0651928 -3.80444 0
M  V30 86 H 10.5406 -1.84747 -3.41307 0
M  V30 87 H 8.6416 0.604158 -3.67669 0
M  V30 88 H 8.7546 -0.985299 -4.68859 0
M  V30 89 H 7.1186 -0.428734 -2.51066 0
M  V30 90 H 7.9016 -2.08616 -2.72643 0
M  V30 91 N 10.3467 1.47872 -0.545128 0
M  V30 92 C 11.5927 2.03385 -0.0247951 0
M  V30 93 C 11.9477 1.41325 1.30556 0
M  V30 94 O 11.2407 0.5552 1.8338 0
M  V30 95 C 11.4347 3.57131 0.13867 0
M  V30 96 C 11.2637 4.34097 -1.17429 0
M  V30 97 C 10.0337 4.74458 -1.73831 0
M  V30 98 C 12.2317 4.6998 -2.08861 0
M  V30 99 N 10.2137 5.3602 -2.99258 0
M  V30 100 C 11.5847 5.31719 -3.18866 0
M  V30 101 C 13.6397 4.5191 -2.09003 0
M  V30 102 C 12.3427 5.77295 -4.29096 0
M  V30 103 C 14.3687 4.98477 -3.18237 0
M  V30 104 C 13.7307 5.60253 -4.26961 0
M  V30 105 H 9.8297 0.780339 -0.050943 0
M  V30 106 H 12.4137 1.80507 -0.729753 0
M  V30 107 H 10.5847 3.79802 0.812733 0
M  V30 108 H 12.3167 3.99282 0.659976 0
M  V30 109 H 9.0717 4.56037 -1.2778 0
M  V30 110 H 9.4957 5.71355 -3.63157 0
M  V30 111 H 14.1377 4.03516 -1.26234 0
M  V30 112 H 11.8557 6.24687 -5.12633 0
M  V30 113 H 15.4417 4.86274 -3.1942 0
M  V30 114 H 14.3217 5.95631 -5.10091 0
M  V30 115 N 11.8248 0.280983 1.55075 0
M  V30 116 C 12.7728 -0.619864 2.24188 0
M  V30 117 C 13.7668 -1.15315 1.24092 0
M  V30 118 O 14.9728 -1.1061 1.42005 0
M  V30 119 H 11.3478 -0.218459 0.719569 0
M  V30 120 H 13.3188 -0.0141831 2.98397 0
M  V30 121 C 12.0678 -1.7899 2.98091 0
M  V30 122 H 11.3908 -1.38874 3.74905 0
M  V30 123 H 12.8308 -2.39672 3.49762 0
M  V30 124 C 11.2898 -2.68192 2.03899 0
M  V30 125 O 11.8198 -3.6872 1.594 0
M  V30 126 N 10.0258 -2.35488 1.70275 0
M  V30 127 H 9.5728 -1.53787 2.06658 0
M  V30 128 H 9.5308 -2.95442 1.07524 0
M  V30 129 N 13.3029 -1.57598 0.00835791 0
M  V30 130 C 14.5799 -1.82172 -0.712235 0
M  V30 131 C 14.9599 -0.887873 -1.9152 0
M  V30 132 O 14.3079 0.06146 -2.28417 0
M  V30 133 C 14.5179 -3.30875 -1.11008 0
M  V30 134 C 15.8659 -3.96826 -1.51044 0
M  V30 135 O 16.8899 -3.35248 -1.20364 0
M  V30 136 O 15.7489 -5.05318 -2.08125 0
M  V30 137 H 12.8429 -0.750435 -0.347529 0
M  V30 138 H 15.3889 -1.69665 0.0344523 0
M  V30 139 H 14.1609 -3.90481 -0.252982 0
M  V30 140 H 13.7839 -3.48412 -1.9156 0
M  V30 141 N 14.781 0.264519 -1.55364 0
M  V30 142 C 16.009 1.013 -1.80405 0
M  V30 143 C 16.424 1.79618 -0.581622 0
M  V30 144 O 15.781 1.76879 0.449468 0
M  V30 145 C 15.832 1.96487 -3.03439 0
M  V30 146 O 15.553 1.21341 -4.20961 0
M  V30 147 C 17.054 2.83079 -3.41147 0
M  V30 148 H 14.274 0.298875 -0.600762 0
M  V30 149 H 16.818 0.292736 -2.02394 0
M  V30 150 H 14.973 2.63965 -2.83551 0
M  V30 151 H 15.387 1.85573 -4.90574 0
M  V30 152 H 16.861 3.4565 -4.30384 0
M  V30 153 H 17.338 3.53286 -2.60932 0
M  V30 154 H 17.944 2.2108 -3.63323 0
M  V30 155 N 16.2591 1.48442 0.529413 0
M  V30 156 C 17.5081 1.55742 1.28169 0
M  V30 157 C 17.8211 0.236511 1.94165 0
M  V30 158 O 19.0271 0.187761 2.7085 0
M  V30 159 C 17.4831 2.74667 2.32564 0
M  V30 160 C 17.0911 4.13402 1.72636 0
M  V30 161 C 18.8351 2.9128 3.08798 0
M  V30 162 C 16.7421 5.23587 2.74975 0
M  V30 163 H 15.6721 0.579796 0.48203 0
M  V30 164 H 18.3231 1.74776 0.559056 0
M  V30 165 H 16.7051 2.49067 3.07866 0
M  V30 166 H 17.8791 4.49022 1.03519 0
M  V30 167 H 16.1941 4.0191 1.08892 0
M  V30 168 H 18.7911 3.70767 3.85274 0
M  V30 169 H 19.1341 2.00757 3.64695 0
M  V30 170 H 19.6671 3.16782 2.40611 0
M  V30 171 H 16.4061 6.16076 2.23897 0
M  V30 172 H 15.9261 4.92454 3.42417 0
M  V30 173 H 17.6051 5.51724 3.37949 0
M  V30 174 N 17.7372 -0.778329 1.37039 0
M  V30 175 C 18.6852 -1.91278 1.32345 0
M  V30 176 C 19.6792 -1.68051 0.213331 0
M  V30 177 O 20.8852 -1.75922 0.38098 0
M  V30 178 H 17.2602 -0.628909 0.412283 0
M  V30 179 H 19.2312 -1.92355 2.28127 0
M  V30 180 C 17.9802 -3.28455 1.14073 0
M  V30 181 H 17.3032 -3.46901 1.98746 0
M  V30 182 H 18.7432 -4.08152 1.14837 0
M  V30 183 C 17.2022 -3.36548 -0.154015 0
M  V30 184 O 17.7322 -3.85186 -1.13993 0
M  V30 185 N 15.9382 -2.89894 -0.202475 0
M  V30 186 H 15.4852 -2.50504 0.600476 0
M  V30 187 H 15.4432 -2.9569 -1.06841 0
M  V30 188 N 19.2153 -1.21501 -1.00376 0
M  V30 189 C 20.4633 -1.03095 -1.73827 0
M  V30 190 C 20.7843 0.436341 -1.90055 0
M  V30 191 O 20.0543 1.31466 -1.45236 0
M  V30 192 H 18.6343 -0.378487 -0.644016 0
M  V30 193 H 21.2963 -1.52831 -1.20949 0
M  V30 194 H 20.3923 -1.49991 -2.73695 0
M  V30 195 N 20.6934 1.19889 -1.02296 0
M  V30 196 C 21.9214 1.9339 -0.735399 0
M  V30 197 C 22.3364 1.75148 0.704887 0
M  V30 198 O 21.6934 1.06954 1.47875 0
M  V30 199 C 21.7444 3.45313 -1.06962 0
M  V30 200 O 21.4654 3.62964 -2.45334 0
M  V30 201 C 22.9664 4.35948 -0.804021 0
M  V30 202 H 20.1864 0.61448 -0.269546 0
M  V30 203 H 22.7304 1.522 -1.36585 0
M  V30 204 H 20.8854 3.84359 -0.484455 0
M  V30 205 H 21.2994 4.56886 -2.57595 0
M  V30 206 H 22.7734 5.41174 -1.0879 0
M  V30 207 H 23.2504 4.3842 0.261691 0
M  V30 208 H 23.8564 4.02574 -1.37164 0
M  V30 209 N 22.1715 0.800033 1.35784 0
M  V30 210 C 23.4175 0.38701 1.99684 0
M  V30 211 C 23.7725 -1.03268 1.62338 0
M  V30 212 O 23.0655 -1.70543 0.87325 0
M  V30 213 C 23.2595 0.500276 3.53881 0
M  V30 214 C 23.0885 1.92942 4.06206 0
M  V30 215 C 21.8585 2.55637 4.35865 0
M  V30 216 C 24.0565 2.89307 4.25213 0
M  V30 217 N 22.0385 3.9003 4.74078 0
M  V30 218 C 23.4095 4.08556 4.66349 0
M  V30 219 C 25.4645 2.86225 4.07406 0
M  V30 220 C 24.1675 5.25146 4.91543 0
M  V30 221 C 26.1935 4.02011 4.33752 0
M  V30 222 C 25.5555 5.20007 4.75155 0
M  V30 223 H 21.6545 0.189252 0.758754 0
M  V30 224 H 24.2385 1.03988 1.64604 0
M  V30 225 H 22.4095 -0.122568 3.88207 0
M  V30 226 H 24.1415 0.0624733 4.04652 0
M  V30 227 H 20.8965 2.07039 4.25948 0
M  V30 228 H 21.3205 4.59205 4.97454 0
M  V30 229 H 25.9625 1.96154 3.74544 0
M  V30 230 H 23.6805 6.15794 5.23281 0
M  V30 231 H 27.2665 4.00999 4.21534 0
M  V30 232 H 26.1465 6.08113 4.95145 0
M  V30 233 N 23.6496 -1.47581 0.552962 0
M  V30 234 C 24.9266 -1.95563 -0.0381515 0
M  V30 235 C 25.3066 -1.49552 -1.48988 0
M  V30 236 O 24.6546 -0.732414 -2.16444 0
M  V30 237 C 24.8646 -3.48848 0.102919 0
M  V30 238 C 26.2126 -4.24577 -0.0446082 0
M  V30 239 O 27.2366 -3.56187 0.0302548 0
M  V30 240 O 26.0956 -5.46116 -0.204923 0
M  V30 241 H 23.1896 -0.824321 -0.0665067 0
M  V30 242 H 25.7356 -1.58001 0.619186 0
M  V30 243 H 24.5076 -3.75129 1.11328 0
M  V30 244 H 24.1306 -3.93165 -0.592224 0
M  V30 245 N 25.1277 -0.289203 -1.54924 0
M  V30 246 C 26.3757 0.322879 -1.99504 0
M  V30 247 C 26.6967 1.55313 -1.1791 0
M  V30 248 O 25.9667 1.94001 -0.272097 0
M  V30 249 H 24.5467 0.122291 -0.736922 0
M  V30 250 H 27.2087 -0.397802 -1.90797 0
M  V30 251 H 26.3047 0.603061 -3.06218 0
M  V30 252 N 26.6058 1.57591 -0.0167156 0
M  V30 253 C 27.8828 1.82547 0.702564 0
M  V30 254 C 28.2628 0.898018 1.91047 0
M  V30 255 O 27.6108 -0.0493456 2.28447 0
M  V30 256 C 27.8208 3.31459 1.09251 0
M  V30 257 C 29.1688 3.97622 1.48937 0
M  V30 258 O 30.1928 3.35881 1.18584 0
M  V30 259 O 29.0518 5.06415 2.05442 0
M  V30 260 H 26.1458 0.752268 0.343544 0
M  V30 261 H 28.6918 1.69644 -0.0434495 0
M  V30 262 H 27.4638 3.9061 0.23227 0
M  V30 263 H 27.0868 3.49422 1.89709 0
M  V30 264 N 28.0839 -0.256276 1.55502 0
M  V30 265 C 28.9939 -1.33882 1.92647 0
M  V30 266 C 30.0099 -1.53159 0.825727 0
M  V30 267 O 31.1859 -1.66963 1.12629 0
M  V30 268 C 28.2509 -2.6751 2.20543 0
M  V30 269 C 27.3119 -2.56836 3.43997 0
M  V30 270 C 26.5449 -3.84092 3.70553 0
M  V30 271 O 26.7679 -4.85545 2.99336 0
M  V30 272 O 25.7019 -3.83288 4.64084 0
M  V30 273 H 29.5279 -1.05374 2.84833 0
M  V30 274 H 27.1129 -0.456237 1.42263 0
M  V30 275 H 28.9949 -3.46492 2.39835 0
M  V30 276 H 27.6699 -2.9577 1.31536 0
M  V30 277 H 26.5769 -1.76172 3.30021 0
M  V30 278 H 27.9099 -2.33523 4.33275 0
M  V30 279 N 29.562 -1.4872 -0.521534 0
M  V30 280 C 30.492 -1.66771 -1.63431 0
M  V30 281 C 31.473 -0.516499 -1.62069 0
M  V30 282 O 32.658 -0.750013 -1.79132 0
M  V30 283 C 29.788 -1.71515 -3.01993 0
M  V30 284 C 28.742 -2.86222 -3.18216 0
M  V30 285 C 28.068 -2.76061 -4.57924 0
M  V30 286 C 29.368 -4.27419 -3.00184 0
M  V30 287 H 31.062 -2.59932 -1.48579 0
M  V30 288 H 28.608 -1.25089 -0.713358 0
M  V30 289 H 30.561 -1.82731 -3.7972 0
M  V30 290 H 29.285 -0.749393 -3.17886 0
M  V30 291 H 27.944 -2.74575 -2.42908 0
M  V30 292 H 27.592 -1.77437 -4.70665 0
M  V30 293 H 27.292 -3.53037 -4.69722 0
M  V30 294 H 28.816 -2.89256 -5.37739 0
M  V30 295 H 30.23 -4.39855 -3.67697 0
M  V30 296 H 28.627 -5.05458 -3.2347 0
M  V30 297 H 29.697 -4.43293 -1.96518 0
M  V30 298 N 31.0401 0.771051 -1.3745 0
M  V30 299 C 32.2881 1.52661 -1.32435 0
M  V30 300 C 32.6091 1.9479 0.0905024 0
M  V30 301 O 31.8791 1.66348 1.03466 0
M  V30 302 H 30.4591 0.566218 -0.487244 0
M  V30 303 H 33.1211 0.917636 -1.71946 0
M  V30 304 H 32.2171 2.42568 -1.96385 0
M  V30 305 N 32.5182 1.22032 0.997298 0
M  V30 306 C 33.7482 1.06686 1.76923 0
M  V30 307 C 34.1562 -0.385838 1.85224 0
M  V30 308 O 33.4992 -1.27929 1.31833 0
M  V30 309 C 33.5612 1.59802 3.22031 0
M  V30 310 C 33.2252 3.08362 3.37286 0
M  V30 311 C 34.2222 4.05835 3.24952 0
M  V30 312 C 31.9072 3.47727 3.6248 0
M  V30 313 C 33.9012 5.4066 3.37588 0
M  V30 314 C 31.5882 4.82701 3.74757 0
M  V30 315 C 32.5862 5.78977 3.62319 0
M  V30 316 O 32.2742 7.11502 3.74193 0
M  V30 317 H 32.0062 0.374767 0.562606 0
M  V30 318 H 34.5602 1.61991 1.26286 0
M  V30 319 H 32.7902 0.989003 3.73839 0
M  V30 320 H 34.4792 1.40184 3.80924 0
M  V30 321 H 35.2452 3.76766 3.05405 0
M  V30 322 H 31.1242 2.73317 3.7124 0
M  V30 323 H 34.6682 6.15788 3.27796 0
M  V30 324 H 30.5652 5.11453 3.9381 0
M  V30 325 H 31.3332 7.19019 3.91093 0
M  V30 326 N 33.9963 -1.19345 1.0293 0
M  V30 327 C 35.4123 -1.41069 0.746446 0
M  V30 328 C 35.6123 -1.90078 -0.668776 0
M  V30 329 O 34.6683 -2.0778 -1.4347 0
M  V30 330 C 35.9813 -2.42141 1.78292 0
M  V30 331 C 37.5293 -2.55887 1.80252 0
M  V30 332 C 38.0043 -3.60214 2.8286 0
M  V30 333 N 39.4953 -3.67711 2.81679 0
M  V30 334 C 40.2303 -4.48128 3.57727 0
M  V30 335 N 39.7263 -5.32248 4.43491 0
M  V30 336 N 41.5193 -4.42782 3.46267 0
M  V30 337 H 33.6703 -0.858536 1.94275 0
M  V30 338 H 35.9333 -0.439541 0.839945 0
M  V30 339 H 35.6393 -2.13155 2.79746 0
M  V30 340 H 35.5133 -3.41323 1.60557 0
M  V30 341 H 37.9003 -2.84196 0.794757 0
M  V30 342 H 37.9813 -1.56858 2.02062 0
M  V30 343 H 37.6253 -3.32647 3.83807 0
M  V30 344 H 37.5553 -4.58895 2.58307 0
M  V30 345 H 40.0463 -3.07634 2.19476 0
M  V30 346 H 40.3593 -5.90729 4.98256 0
M  V30 347 H 38.7043 -5.31707 4.47564 0
M  V30 348 H 41.8953 -3.76107 2.78677 0
M  V30 349 H 42.0683 -5.05215 4.05785 0
M  V30 350 N 35.4744 -0.807222 -1.35358 0
M  V30 351 C 36.7144 -0.393534 -2.00576 0
M  V30 352 C 37.0784 1.0203 -1.62647 0
M  V30 353 O 38.2794 1.53603 -2.20589 0
M  V30 354 C 36.5504 -0.572017 -3.52793 0
M  V30 355 S 38.1094 -0.248845 -4.38094 0
M  V30 356 H 34.9274 -0.149425 -0.695121 0
M  V30 357 H 37.5294 -1.04961 -1.64935 0
M  V30 358 H 36.2334 -1.60097 -3.77885 0
M  V30 359 H 35.7644 0.099359 -3.93275 0
M  V30 360 H 37.7794 0.943253 -4.87152 0
M  V30 361 N 36.9525 1.47285 -0.560781 0
M  V30 362 C 38.3685 1.58065 -0.22081 0
M  V30 363 C 38.5685 1.55892 1.27671 0
M  V30 364 O 37.6245 1.46422 2.0571 0
M  V30 365 C 38.9375 2.88418 -0.850625 0
M  V30 366 C 40.4855 3.02009 -0.822184 0
M  V30 367 C 40.9605 4.35066 -1.43113 0
M  V30 368 N 42.4515 4.41711 -1.39448 0
M  V30 369 C 43.1865 5.43237 -1.83525 0
M  V30 370 N 42.6825 6.51555 -2.35474 0
M  V30 371 N 44.4755 5.34304 -1.74574 0
M  V30 372 H 36.6265 1.46941 -1.53369 0
M  V30 373 H 38.8895 0.699558 -0.639783 0
M  V30 374 H 38.5955 2.95755 -1.9032 0
M  V30 375 H 38.4695 3.75612 -0.345773 0
M  V30 376 H 40.8565 2.94266 0.221714 0
M  V30 377 H 40.9375 2.16347 -1.36483 0
M  V30 378 H 40.5815 4.43565 -2.47412 0
M  V30 379 H 40.5115 5.19465 -0.863899 0
M  V30 380 H 43.0025 3.64027 -1.01452 0
M  V30 381 H 43.3155 7.25203 -2.67021 0
M  V30 382 H 41.6605 6.52435 -2.39487 0
M  V30 383 H 44.8515 4.48581 -1.33763 0
M  V30 384 H 45.0245 6.13288 -2.09242 0
M  V30 385 N 38.4306 0.297415 1.54768 0
M  V30 386 C 39.6776 -0.312913 2.00068 0
M  V30 387 C 40.0056 -1.54171 1.18582 0
M  V30 388 O 39.2606 -1.94108 0.249133 0
M  V30 389 C 39.5596 -0.717561 3.50123 0
M  V30 390 C 39.2256 0.409095 4.4904 0
M  V30 391 C 37.8876 0.718399 4.75807 0
M  V30 392 C 40.2396 1.16717 5.07963 0
M  V30 393 C 37.5676 1.78896 5.5876 0
M  V30 394 C 39.9196 2.22762 5.92081 0
M  V30 395 C 38.5836 2.54303 6.1716 0
M  V30 396 H 37.8536 -0.114503 0.7321 0
M  V30 397 H 40.5006 0.415767 1.86932 0
M  V30 398 H 38.8056 -1.52627 3.60849 0
M  V30 399 H 40.5026 -1.20091 3.82595 0
M  V30 400 H 37.0926 0.157918 4.28309 0
M  V30 401 H 41.2766 0.941466 4.87289 0
M  V30 402 H 36.5326 2.0381 5.7643 0
M  V30 403 H 40.7066 2.81962 6.36765 0
M  V30 404 H 38.3336 3.3739 6.81229 0
M  V30 405 N 39.9087 -1.5758 0.0250728 0
M  V30 406 C 40.8567 -2.11125 -0.97617 0
M  V30 407 C 41.8507 -1.03689 -1.33959 0
M  V30 408 O 43.0567 -1.22128 -1.3223 0
M  V30 409 H 39.4317 -0.674468 -0.332561 0
M  V30 410 H 41.4027 -2.94194 -0.499223 0
M  V30 411 C 40.1517 -2.65017 -2.2508 0
M  V30 412 H 39.4747 -3.47333 -1.9799 0
M  V30 413 H 40.9147 -3.06133 -2.93357 0
M  V30 414 C 39.3737 -1.57574 -2.97779 0
M  V30 415 O 39.9037 -0.973203 -3.89733 0
M  V30 416 N 38.1097 -1.29716 -2.60043 0
M  V30 417 H 37.6567 -1.789 -1.85345 0
M  V30 418 H 37.6147 -0.58051 -3.08994 0
M  V30 419 N 41.3868 0.248026 -1.55636 0
M  V30 420 C 42.2968 1.32859 -1.93354 0
M  V30 421 C 43.3128 1.52719 -0.833838 0
M  V30 422 O 44.4888 1.66363 -1.13513 0
M  V30 423 C 41.5538 2.66337 -2.21958 0
M  V30 424 C 40.6148 2.55008 -3.45354 0
M  V30 425 C 39.8478 3.82121 -3.72584 0
M  V30 426 O 40.0708 4.83951 -3.01907 0
M  V30 427 O 39.0048 3.80822 -4.6611 0
M  V30 428 H 42.8308 1.03862 -2.85388 0
M  V30 429 H 40.4158 0.448686 -1.42503 0
M  V30 430 H 42.2978 3.45216 -2.4167 0
M  V30 431 H 40.9728 2.95068 -1.33103 0
M  V30 432 H 39.8798 1.7442 -3.30951 0
M  V30 433 H 41.2128 2.31222 -4.34508 0
M  V30 434 N 42.8649 1.48995 0.513639 0
M  V30 435 C 44.1419 1.48338 1.27495 0
M  V30 436 C 44.5219 0.204065 2.10111 0
M  V30 437 O 43.8699 -0.813881 2.13514 0
M  V30 438 C 44.0799 2.75498 2.14247 0
M  V30 439 C 45.4279 3.24484 2.73852 0
M  V30 440 O 46.4519 2.76528 2.24523 0
M  V30 441 O 45.3109 4.07974 3.6362 0
M  V30 442 H 42.4049 0.593149 0.576284 0
M  V30 443 H 44.9509 1.61246 0.528948 0
M  V30 444 H 43.7229 3.60109 1.53092 0
M  V30 445 H 43.3459 2.6539 2.96064 0
M  V30 446 N 44.343 -0.763751 1.37857 0
M  V30 447 C 45.59 -1.52257 1.33506 0
M  V30 448 C 45.918 -1.94343 -0.078022 0
M  V30 449 O 45.173 -1.64958 -1.05297 0
M  V30 450 C 45.472 -2.79499 2.22745 0
M  V30 451 C 45.138 -2.56426 3.70886 0
M  V30 452 C 43.8 -2.49842 4.11257 0
M  V30 453 C 46.152 -2.36008 4.64704 0
M  V30 454 C 43.48 -2.20841 5.43549 0
M  V30 455 C 45.832 -2.0853 5.97242 0
M  V30 456 C 44.496 -2.00396 6.36709 0
M  V30 457 H 43.766 -0.557149 0.488534 0
M  V30 458 H 46.413 -0.879073 1.70131 0
M  V30 459 H 44.718 -3.48447 1.79142 0
M  V30 460 H 46.415 -3.37413 2.16688 0
M  V30 461 H 43.005 -2.62416 3.38874 0
M  V30 462 H 47.189 -2.40079 4.34368 0
M  V30 463 H 42.445 -2.13045 5.73081 0
M  V30 464 H 46.619 -1.91732 6.69486 0
M  V30 465 H 44.246 -1.77688 7.39142 0
M  V30 466 N 45.8211 -1.22559 -0.990812 0
M  V30 467 C 46.7681 -0.997519 -2.0813 0
M  V30 468 C 47.7381 0.0814702 -1.659 0
M  V30 469 O 48.9231 -0.0685424 -1.90677 0
M  V30 470 C 46.0631 -0.583615 -3.40129 0
M  V30 471 C 45.1761 -1.7336 -3.9569 0
M  V30 472 C 44.3111 -1.26748 -5.15857 0
M  V30 473 C 43.3501 -2.38888 -5.63559 0
M  V30 474 N 42.4871 -1.93308 -6.74964 0
M  V30 475 H 47.3271 -1.93099 -2.26973 0
M  V30 476 H 44.8641 -0.962114 -1.11273 0
M  V30 477 H 46.8221 -0.324801 -4.15934 0
M  V30 478 H 45.4521 0.312845 -3.2128 0
M  V30 479 H 44.5041 -2.10669 -3.16738 0
M  V30 480 H 45.8161 -2.57704 -4.27071 0
M  V30 481 H 44.9701 -0.966173 -5.98957 0
M  V30 482 H 43.7091 -0.394272 -4.86104 0
M  V30 483 H 42.7141 -2.69805 -4.79046 0
M  V30 484 H 43.9391 -3.26728 -5.95336 0
M  V30 485 H 41.8851 -1.08352 -6.4699 0
M  V30 486 H 41.8021 -2.71217 -7.05675 0
M  V30 487 H 43.0701 -1.66252 -7.61564 0
M  V30 488 N 47.2992 1.18797 -1.03562 0
M  V30 489 C 48.5292 1.92319 -0.754773 0
M  V30 490 C 48.9372 1.7612 0.691248 0
M  V30 491 O 48.2802 1.08491 1.48241 0
M  V30 492 C 48.3422 3.44284 -1.03484 0
M  V30 493 C 48.0062 3.84258 -2.47376 0
M  V30 494 C 49.0032 3.88459 -3.45537 0
M  V30 495 C 46.6882 4.15701 -2.81954 0
M  V30 496 C 48.6822 4.23545 -4.76328 0
M  V30 497 C 46.3692 4.50458 -4.12954 0
M  V30 498 C 47.3672 4.54356 -5.09951 0
M  V30 499 O 47.0552 4.88305 -6.38603 0
M  V30 500 H 46.7872 0.617527 -0.275021 0
M  V30 501 H 49.3412 1.51683 -1.38497 0
M  V30 502 H 47.5712 3.85135 -0.347513 0
M  V30 503 H 49.2602 3.99049 -0.7426 0
M  V30 504 H 50.0262 3.6431 -3.20162 0
M  V30 505 H 45.9052 4.11847 -2.0713 0
M  V30 506 H 49.4492 4.26502 -5.52035 0
M  V30 507 H 45.3462 4.74067 -4.38099 0
M  V30 508 H 46.1142 5.06227 -6.43177 0
M  V30 509 N 48.7773 0.814389 1.34928 0
M  V30 510 C 50.0233 0.399013 1.98836 0
M  V30 511 C 50.3563 -1.03314 1.64438 0
M  V30 512 O 49.6313 -1.71811 0.911659 0
M  V30 513 C 49.9143 0.591629 3.55207 0
M  V30 514 C 49.7673 2.06928 3.99376 0
M  V30 515 C 51.0863 0.022199 4.40094 0
M  V30 516 H 48.2053 0.146451 0.722303 0
M  V30 517 H 50.8473 1.02537 1.59957 0
M  V30 518 H 48.9973 0.0584441 3.88456 0
M  V30 519 H 50.6693 2.66544 3.76499 0
M  V30 520 H 48.9123 2.56287 3.49999 0
M  V30 521 H 49.5833 2.1549 5.08201 0
M  V30 522 H 52.0593 0.477643 4.13349 0
M  V30 523 H 50.9353 0.186832 5.48582 0
M  V30 524 H 51.1963 -1.07215 4.28902 0
M  V30 525 N 50.2554 -1.46986 0.568584 0
M  V30 526 C 51.1854 -2.32946 -0.160753 0
M  V30 527 C 52.1664 -1.44487 -0.897631 0
M  V30 528 O 53.3514 -1.73327 -0.875867 0
M  V30 529 C 50.4814 -3.26494 -1.18403 0
M  V30 530 C 49.4354 -4.24282 -0.562895 0
M  V30 531 C 48.7614 -5.07236 -1.69163 0
M  V30 532 C 50.0614 -5.19989 0.490761 0
M  V30 533 H 51.7554 -2.94175 0.556916 0
M  V30 534 H 49.3014 -1.4146 0.26927 0
M  V30 535 H 51.2544 -3.85477 -1.70251 0
M  V30 536 H 49.9784 -2.63343 -1.93179 0
M  V30 537 H 48.6374 -3.66541 -0.0656164 0
M  V30 538 H 48.2854 -4.4048 -2.42871 0
M  V30 539 H 47.9854 -5.7345 -1.28174 0
M  V30 540 H 49.5094 -5.6908 -2.21314 0
M  V30 541 H 50.9234 -5.73271 0.0579047 0
M  V30 542 H 49.3204 -5.94469 0.820165 0
M  V30 543 H 50.3904 -4.64777 1.3824 0
M  V30 544 N 51.7335 -0.305618 -1.54608 0
M  V30 545 C 52.6635 0.561482 -2.26649 0
M  V30 546 C 53.6445 1.13415 -1.26772 0
M  V30 547 O 54.8295 1.16262 -1.55553 0
M  V30 548 C 51.9595 1.73122 -3.01075 0
M  V30 549 C 50.9135 1.2887 -4.08138 0
M  V30 550 C 50.2395 2.54396 -4.70305 0
M  V30 551 C 51.5395 0.416578 -5.20636 0
M  V30 552 H 53.2335 -0.0393902 -2.99374 0
M  V30 553 H 50.7795 -0.020385 -1.43986 0
M  V30 554 H 52.7325 2.34396 -3.50195 0
M  V30 555 H 51.4565 2.3584 -2.25936 0
M  V30 556 H 50.1155 0.698991 -3.59875 0
M  V30 557 H 49.7635 3.15439 -3.918 0
M  V30 558 H 49.4635 2.25486 -5.42614 0
M  V30 559 H 50.9875 3.16464 -5.2219 0
M  V30 560 H 52.4015 0.935116 -5.65622 0
M  V30 561 H 50.7985 0.221046 -5.99693 0
M  V30 562 H 51.8685 -0.557162 -4.81688 0
M  V30 563 N 53.2116 1.57565 -0.0334293 0
M  V30 564 C 54.6226 1.79746 0.504798 0
M  V30 565 C 54.9736 0.944091 1.71992 0
M  V30 566 O 54.0986 0.155694 2.15839 0
M  V30 567 C 54.6936 3.25997 0.922567 0
M  V30 568 C 53.2526 3.49159 1.40588 0
M  V30 569 C 52.3996 2.74785 0.372633 0
M  V30 570 H 55.3506 1.56565 -0.259436 0
M  V30 571 H 55.3716 3.35945 1.78666 0
M  V30 572 H 54.8836 3.88081 0.0379825 0
M  V30 573 H 52.9846 2.92332 2.31025 0
M  V30 574 H 53.0976 4.57873 1.41028 0
M  V30 575 H 51.4616 2.40391 0.841672 0
M  V30 576 H 52.2446 3.39587 -0.503559 0
M  V30 577 N 54.6897 -0.239769 1.55765 0
M  V30 578 C 55.9357 -0.968234 1.78194 0
M  V30 579 C 56.2687 -1.84701 0.599938 0
M  V30 580 O 55.5437 -1.9031 -0.401524 0
M  V30 581 C 55.8267 -1.8227 3.10564 0
M  V30 582 C 55.6797 -0.971633 4.3918 0
M  V30 583 C 56.9987 -2.80388 3.39221 0
M  V30 584 H 54.1177 -0.350572 0.648281 0
M  V30 585 H 56.7597 -0.238259 1.885 0
M  V30 586 H 54.9097 -2.44507 3.01908 0
M  V30 587 H 56.5817 -0.367408 4.59835 0
M  V30 588 H 54.8247 -0.276276 4.32919 0
M  V30 589 H 55.4957 -1.60346 5.28198 0
M  V30 590 H 57.9717 -2.28287 3.47885 0
M  V30 591 H 56.8477 -3.3729 4.33044 0
M  V30 592 H 57.1087 -3.57212 2.60484 0
M  V30 593 N 56.1678 -1.49265 -0.50573 0
M  V30 594 C 57.3928 -1.62478 -1.28902 0
M  V30 595 C 57.8178 -0.294332 -1.85783 0
M  V30 596 O 57.1758 0.737412 -1.65626 0
M  V30 597 C 57.2238 -2.69268 -2.39848 0
M  V30 598 O 56.3278 -2.28113 -3.43567 0
M  V30 599 H 55.6688 -0.54399 -0.380751 0
M  V30 600 H 58.1988 -1.95421 -0.605952 0
M  V30 601 H 58.2088 -2.91291 -2.85681 0
M  V30 602 H 56.8838 -3.65846 -1.97812 0
M  V30 603 H 55.4608 -2.16401 -3.03685 0
M  V30 604 N 57.6459 0.756429 -1.3826 0
M  V30 605 C 58.8759 1.54341 -1.3734 0
M  V30 606 C 59.2839 1.89159 0.0393917 0
M  V30 607 O 58.6269 1.5307 1.01565 0
M  V30 608 C 58.6889 2.87238 -2.16182 0
M  V30 609 C 58.3529 2.74973 -3.65019 0
M  V30 610 C 59.3499 2.44962 -4.58574 0
M  V30 611 C 57.0349 2.92515 -4.08338 0
M  V30 612 C 59.0289 2.32642 -5.93428 0
M  V30 613 C 56.7159 2.79815 -5.43274 0
M  V30 614 C 57.7139 2.49921 -6.35632 0
M  V30 615 O 57.4019 2.37275 -7.68086 0
M  V30 616 H 57.1339 0.484281 -0.471643 0
M  V30 617 H 59.6879 0.944152 -1.82414 0
M  V30 618 H 57.9179 3.49342 -1.65822 0
M  V30 619 H 59.6069 3.48731 -2.07705 0
M  V30 620 H 60.3729 2.31081 -4.26412 0
M  V30 621 H 56.2519 3.14781 -3.368 0
M  V30 622 H 59.7959 2.0923 -6.65484 0
M  V30 623 H 55.6929 2.93269 -5.75034 0
M  V30 624 H 56.4609 2.52509 -7.78577 0
M  V30 625 N 59.124 1.23083 0.984299 0
M  V30 626 C 60.372 1.05848 1.72165 0
M  V30 627 C 60.693 -0.406049 1.90726 0
M  V30 628 O 59.963 -1.29139 1.47309 0
M  V30 629 H 58.543 0.388685 0.637913 0
M  V30 630 H 61.205 1.54736 1.18503 0
M  V30 631 H 60.301 1.54327 2.71274 0
M  V30 632 N 60.6021 -1.18246 1.0419 0
M  V30 633 C 61.8481 -1.88536 0.747122 0
M  V30 634 C 62.1811 -1.80223 -0.723409 0
M  V30 635 O 61.4561 -1.20337 -1.52804 0
M  V30 636 C 61.7391 -3.38968 1.21544 0
M  V30 637 C 61.5921 -3.56084 2.74816 0
M  V30 638 C 62.9111 -4.32648 0.806482 0
M  V30 639 H 60.0301 -0.684619 0.272883 0
M  V30 640 H 62.6721 -1.39113 1.29413 0
M  V30 641 H 60.8221 -3.8119 0.750081 0
M  V30 642 H 62.4941 -3.22946 3.29399 0
M  V30 643 H 60.7371 -2.98699 3.14582 0
M  V30 644 H 61.4081 -4.61639 3.02644 0
M  V30 645 H 63.8841 -3.98211 1.20695 0
M  V30 646 H 62.7601 -5.36462 1.1619 0
M  V30 647 H 63.0211 -4.41146 -0.29029 0
M  V30 648 N 62.0802 -0.821533 -1.34494 0
M  V30 649 C 63.3262 -0.409552 -1.98622 0
M  V30 650 C 63.6592 1.0244 -1.64984 0
M  V30 651 O 62.9342 1.71325 -0.920758 0
M  V30 652 C 63.2172 -0.610458 -3.54888 0
M  V30 653 C 63.0702 -2.09043 -3.98273 0
M  V30 654 C 64.3892 -0.0455379 -4.40076 0
M  V30 655 H 61.5082 -0.15028 -0.721516 0
M  V30 656 H 64.1502 -1.03384 -1.59411 0
M  V30 657 H 62.3002 -0.079044 -3.8842 0
M  V30 658 H 63.9722 -2.68537 -3.75081 0
M  V30 659 H 62.2152 -2.58139 -3.48635 0
M  V30 660 H 62.8862 -2.18182 -5.07051 0
M  V30 661 H 65.3622 -0.499557 -4.1309 0
M  V30 662 H 64.2382 -0.215922 -5.48475 0
M  V30 663 H 64.4992 1.04939 -4.29465 0
M  V30 664 N 63.5583 1.46682 -0.576371 0
M  V30 665 C 64.7983 2.04306 -0.0621356 0
M  V30 666 C 65.1623 1.4389 1.2712 0
M  V30 667 O 66.3633 1.92675 1.87429 0
M  V30 668 C 64.6343 3.57399 0.00927922 0
M  V30 669 S 66.1933 4.36309 0.466859 0
M  V30 670 H 63.0113 0.710167 -0.0344016 0
M  V30 671 H 65.6133 1.79807 -0.767437 0
M  V30 672 H 64.3173 3.98889 -0.965178 0
M  V30 673 H 63.8483 3.86424 0.737547 0
M  V30 674 H 65.8633 4.6533 1.72287 0
M  V30 675 N 65.0364 0.313813 1.54444 0
M  V30 676 C 66.2824 -0.292108 2.00685 0
M  V30 677 C 66.6154 -1.52548 1.20177 0
M  V30 678 O 65.8904 -1.92452 0.281531 0
M  V30 679 C 66.1734 -0.635968 3.5444 0
M  V30 680 C 66.0264 0.607437 4.4568 0
M  V30 681 C 67.3454 -1.45747 4.15266 0
M  V30 682 H 64.4644 -0.104697 0.729526 0
M  V30 683 H 67.1064 0.428457 1.85106 0
M  V30 684 H 65.2564 -1.24986 3.67846 0
M  V30 685 H 66.9284 1.24581 4.44159 0
M  V30 686 H 65.1714 1.23822 4.15753 0
M  V30 687 H 65.8424 0.322515 5.51057 0
M  V30 688 H 68.3184 -0.938645 4.05375 0
M  V30 689 H 67.1944 -1.66683 5.2298 0
M  V30 690 H 67.4554 -2.45063 3.67963 0
M  V30 691 N 66.5145 -1.57545 0.0417849 0
M  V30 692 C 67.9255 -1.80011 -0.495259 0
M  V30 693 C 68.2765 -0.953199 -1.71489 0
M  V30 694 O 67.4015 -0.167138 -2.15754 0
M  V30 695 C 67.9965 -3.26482 -0.905265 0
M  V30 696 C 66.5555 -3.499 -1.38734 0
M  V30 697 C 65.7025 -2.74979 -0.358056 0
M  V30 698 H 68.6535 -1.56425 0.267736 0
M  V30 699 H 68.6745 -3.36887 -1.76882 0
M  V30 700 H 68.1865 -3.88096 -0.017401 0
M  V30 701 H 66.2875 -2.93553 -2.29471 0
M  V30 702 H 66.4005 -4.58615 -1.38598 0
M  V30 703 H 64.7645 -2.40834 -0.828912 0
M  V30 704 H 65.5475 -3.39315 0.521561 0
M  V30 705 N 67.9926 0.231505 -1.5589 0
M  V30 706 C 69.2406 0.955461 -1.78088 0
M  V30 707 C 69.5616 1.85262 -0.608533 0
M  V30 708 O 68.8316 1.92277 0.375035 0
M  V30 709 H 67.4116 0.355787 -0.656829 0
M  V30 710 H 70.0736 0.245751 -1.93344 0
M  V30 711 H 69.1696 1.56814 -2.69844 0
M  V30 712 N 69.4707 1.49531 0.497807 0
M  V30 713 C 70.4007 1.6935 1.60757 0
M  V30 714 C 71.3817 0.542218 1.61227 0
M  V30 715 O 72.5667 0.778417 1.77917 0
M  V30 716 C 69.6967 1.76298 2.99226 0
M  V30 717 C 68.6507 2.91248 3.13622 0
M  V30 718 C 67.9767 2.83312 4.53474 0
M  V30 719 C 69.2767 4.3214 2.93346 0
M  V30 720 H 70.9707 2.62263 1.44425 0
M  V30 721 H 68.5167 1.26208 0.693367 0
M  V30 722 H 70.4697 1.88749 3.76765 0
M  V30 723 H 69.1937 0.799871 3.16654 0
M  V30 724 H 67.8527 2.78404 2.38509 0
M  V30 725 H 67.5007 1.84902 4.67782 0
M  V30 726 H 67.2007 3.60465 4.64046 0
M  V30 727 H 68.7247 2.97775 5.33069 0
M  V30 728 H 70.1387 4.45649 3.60652 0
M  V30 729 H 68.5357 5.1054 3.15387 0
M  V30 730 H 69.6057 4.46363 1.89441 0
M  V30 731 N 70.9488 -0.749086 1.3866 0
M  V30 732 C 72.1888 -1.52112 1.36534 0
M  V30 733 C 72.5528 -1.91951 -0.0432316 0
M  V30 734 O 73.7538 -2.68132 -0.189396 0
M  V30 735 C 72.0248 -2.73704 2.29828 0
M  V30 736 S 73.5838 -3.63519 2.45763 0
M  V30 737 H 70.4018 -0.520482 0.484375 0
M  V30 738 H 73.0038 -0.878963 1.74627 0
M  V30 739 H 71.7078 -2.42552 3.31054 0
M  V30 740 H 71.2388 -3.4286 1.929 0
M  V30 741 H 73.2538 -4.66712 1.68505 0
M  V30 742 N 72.4269 -1.23603 -0.977757 0
M  V30 743 C 73.3569 -1.04401 -2.0886 0
M  V30 744 C 74.3379 0.0399052 -1.70053 0
M  V30 745 O 75.5229 -0.125246 -1.93796 0
M  V30 746 C 72.6529 -0.637269 -3.41403 0
M  V30 747 C 71.6069 -1.66883 -3.94124 0
M  V30 748 C 70.9329 -1.11745 -5.22893 0
M  V30 749 C 72.2329 -3.06247 -4.23096 0
M  V30 750 H 73.9269 -1.97316 -2.25182 0
M  V30 751 H 71.4729 -0.950096 -1.08209 0
M  V30 752 H 73.4259 -0.48998 -4.18542 0
M  V30 753 H 72.1499 0.327557 -3.24953 0
M  V30 754 H 70.8089 -1.80416 -3.19133 0
M  V30 755 H 70.4569 -0.143527 -5.02795 0
M  V30 756 H 70.1569 -1.80672 -5.59134 0
M  V30 757 H 71.6809 -0.982067 -6.02651 0
M  V30 758 H 73.0949 -2.96001 -4.90975 0
M  V30 759 H 71.4919 -3.72436 -4.70544 0
M  V30 760 H 72.5619 -3.55041 -3.30263 0
M  V30 761 N 73.905 1.17692 -1.04816 0
M  V30 762 C 74.853 2.23632 -0.63966 0
M  V30 763 C 75.847 1.6601 0.337219 0
M  V30 764 O 77.053 1.78844 0.203693 0
M  V30 765 H 73.428 0.727949 -0.188665 0
M  V30 766 H 75.399 2.55387 -1.54337 0
M  V30 767 C 74.148 3.4769 -0.0264051 0
M  V30 768 H 73.471 3.92331 -0.769164 0
M  V30 769 H 74.911 4.23418 0.222098 0
M  V30 770 C 73.37 3.13807 1.22584 0
M  V30 771 O 73.9 3.28236 2.31569 0
M  V30 772 N 72.106 2.68065 1.12202 0
M  V30 773 H 71.653 2.56525 0.235133 0
M  V30 774 H 71.611 2.45767 1.96076 0
M  V30 775 N 75.3831 0.828654 1.34056 0
M  V30 776 C 76.3461 0.259927 2.27721 0
M  V30 777 C 77.3461 -0.565478 1.50529 0
M  V30 778 O 78.5361 -0.38075 1.69988 0
M  V30 779 C 75.6681 -0.634944 3.34935 0
M  V30 780 H 76.8611 1.0863 2.79534 0
M  V30 781 H 74.4141 0.600951 1.44285 0
M  V30 782 H 75.1491 -1.48416 2.88346 0
M  V30 783 H 74.9341 -0.0444999 3.92075 0
M  V30 784 H 76.4241 -1.02648 4.04788 0
M  V30 785 N 76.8612 -1.46375 0.584142 0
M  V30 786 C 78.1072 -2.02678 0.0703716 0
M  V30 787 C 78.4402 -1.4545 -1.28678 0
M  V30 788 O 77.7152 -0.62014 -1.84349 0
M  V30 789 C 77.9982 -3.60099 0.00614674 0
M  V30 790 C 77.8512 -4.27709 1.3923 0
M  V30 791 C 79.1702 -4.34598 -0.693742 0
M  V30 792 H 76.2892 -0.736504 0.027047 0
M  V30 793 H 78.9312 -1.74501 0.751615 0
M  V30 794 H 77.0812 -3.84236 -0.574009 0
M  V30 795 H 78.7532 -4.14832 2.01773 0
M  V30 796 H 76.9962 -3.87016 1.95962 0
M  V30 797 H 77.6672 -5.36478 1.29982 0
M  V30 798 H 80.1432 -4.15615 -0.200869 0
M  V30 799 H 79.0192 -5.44318 -0.707714 0
M  V30 800 H 79.2802 -4.05759 -1.75533 0
M  V30 801 N 78.3393 -0.321999 -1.54275 0
M  V30 802 C 79.3023 0.531975 -2.22941 0
M  V30 803 C 80.3023 1.04478 -1.22234 0
M  V30 804 O 81.4923 0.937452 -1.46825 0
M  V30 805 C 78.6243 1.73874 -2.93224 0
M  V30 806 H 79.8173 -0.0682612 -2.99822 0
M  V30 807 H 77.3703 -0.0730644 -1.56129 0
M  V30 808 H 78.1053 2.37825 -2.20476 0
M  V30 809 H 77.8903 1.37847 -3.6707 0
M  V30 810 H 79.3803 2.34496 -3.45545 0
M  V30 811 N 79.8174 1.5752 -0.0501392 0
M  V30 812 C 80.7474 2.14502 0.922566 0
M  V30 813 C 81.7284 1.06642 1.3252 0
M  V30 814 O 82.9134 1.34577 1.4001 0
M  V30 815 C 80.0434 2.68916 2.19776 0
M  V30 816 C 78.9974 3.8175 1.93523 0
M  V30 817 C 78.3234 4.22677 3.27487 0
M  V30 818 C 79.6234 5.06932 1.25765 0
M  V30 819 H 81.3174 2.9603 0.447952 0
M  V30 820 H 78.8634 1.42401 0.214024 0
M  V30 821 H 80.8164 3.07419 2.88222 0
M  V30 822 H 79.5404 1.84578 2.69441 0
M  V30 823 H 78.1994 3.43718 1.27489 0
M  V30 824 H 77.8474 3.35291 3.74952 0
M  V30 825 H 77.5474 4.98725 3.1072 0
M  V30 826 H 79.0714 4.63779 3.97166 0
M  V30 827 H 80.4854 5.42888 1.84244 0
M  V30 828 H 78.8824 5.88116 1.19328 0
M  V30 829 H 79.9524 4.84337 0.233536 0
M  V30 830 N 81.2955 -0.223234 1.56011 0
M  V30 831 C 82.5255 -0.963413 1.82762 0
M  V30 832 C 82.9335 -1.78516 0.626804 0
M  V30 833 O 82.2765 -1.78974 -0.414014 0
M  V30 834 C 82.3385 -1.93126 3.0322 0
M  V30 835 C 82.0025 -1.2942 4.38291 0
M  V30 836 C 82.9995 -0.684916 5.15369 0
M  V30 837 C 80.6845 -1.30647 4.85012 0
M  V30 838 C 82.6785 -0.0963971 6.37327 0
M  V30 839 C 80.3655 -0.71411 6.06913 0
M  V30 840 C 81.3635 -0.110123 6.82911 0
M  V30 841 O 81.0515 0.47303 8.02507 0
M  V30 842 H 80.7835 -0.288011 0.611576 0
M  V30 843 H 83.3375 -0.244103 2.03944 0
M  V30 844 H 81.5675 -2.68952 2.77852 0
M  V30 845 H 83.2565 -2.53685 3.16857 0
M  V30 846 H 84.0225 -0.667774 4.80381 0
M  V30 847 H 79.9015 -1.76598 4.25833 0
M  V30 848 H 83.4455 0.375657 6.96588 0
M  V30 849 H 79.3425 -0.728659 6.41374 0
M  V30 850 H 80.1105 0.367186 8.17676 0
M  V30 851 N 82.7736 -1.49793 -0.48987 0
M  V30 852 C 84.0226 -1.59085 -1.23995 0
M  V30 853 C 84.3356 -0.287907 -1.9347 0
M  V30 854 O 85.5416 -0.259506 -2.70257 0
M  V30 855 C 83.9976 -2.80736 -2.252 0
M  V30 856 C 83.6056 -4.17833 -1.61614 0
M  V30 857 C 85.3496 -2.99364 -3.00967 0
M  V30 858 C 83.2566 -5.30693 -2.60996 0
M  V30 859 H 82.1866 -0.592372 -0.466488 0
M  V30 860 H 84.8376 -1.76197 -0.51252 0
M  V30 861 H 83.2196 -2.57142 -3.01154 0
M  V30 862 H 84.3936 -4.51608 -0.915774 0
M  V30 863 H 82.7086 -4.04656 -0.981977 0
M  V30 864 H 85.3056 -3.80851 -3.75308 0
M  V30 865 H 85.6486 -2.10356 -3.59244 0
M  V30 866 H 86.1816 -3.2305 -2.32128 0
M  V30 867 H 82.9206 -6.21796 -2.07485 0
M  V30 868 H 82.4406 -5.01359 -3.2924 0
M  V30 869 H 84.1196 -5.6049 -3.23202 0
M  V30 870 N 84.2517 0.741722 -1.39055 0
M  V30 871 C 85.4987 1.50114 -1.35912 0
M  V30 872 C 85.8267 1.94443 0.0470937 0
M  V30 873 O 85.0817 1.66612 1.02659 0
M  V30 874 C 85.3807 2.7592 -2.27163 0
M  V30 875 C 85.0467 2.50493 -3.74919 0
M  V30 876 C 83.7087 2.43267 -4.1518 0
M  V30 877 C 86.0607 2.28585 -4.684 0
M  V30 878 C 83.3887 2.12166 -5.46994 0
M  V30 879 C 85.7407 1.99002 -6.00484 0
M  V30 880 C 84.4047 1.90241 -6.39816 0
M  V30 881 H 83.6747 0.549306 -0.497336 0
M  V30 882 H 86.3217 0.851896 -1.71508 0
M  V30 883 H 84.6267 3.45553 -1.84663 0
M  V30 884 H 86.3237 3.33923 -2.22028 0
M  V30 885 H 82.9137 2.56992 -3.43006 0
M  V30 886 H 87.0977 2.33139 -4.38132 0
M  V30 887 H 82.3537 2.03901 -5.76398 0
M  V30 888 H 86.5277 1.81057 -6.72452 0
M  V30 889 H 84.1547 1.65907 -7.41875 0
M  V30 890 N 85.7298 1.2412 0.971189 0
M  V30 891 C 86.6598 1.05508 2.08304 0
M  V30 892 C 87.6408 -0.0308864 1.70072 0
M  V30 893 O 88.8258 0.135521 1.93727 0
M  V30 894 C 85.9558 0.655365 3.4106 0
M  V30 895 C 84.9098 1.68971 3.93234 0
M  V30 896 C 84.2358 1.14516 5.22293 0
M  V30 897 C 85.5358 3.08487 4.21465 0
M  V30 898 H 87.2298 1.98507 2.24132 0
M  V30 899 H 84.7758 0.955821 1.07704 0
M  V30 900 H 86.7288 0.51217 4.18276 0
M  V30 901 H 85.4528 -0.31032 3.25122 0
M  V30 902 H 84.1118 1.82106 3.18171 0
M  V30 903 H 83.7598 0.170189 5.02712 0
M  V30 904 H 83.4598 1.83635 5.58168 0
M  V30 905 H 84.9838 1.01401 6.02121 0
M  V30 906 H 86.3978 2.98601 4.89398 0
M  V30 907 H 84.7948 3.74926 4.68562 0
M  V30 908 H 85.8648 3.56787 3.28376 0
M  V30 909 N 87.2079 -1.17134 1.05439 0
M  V30 910 C 88.4479 -1.89137 0.77502 0
M  V30 911 C 88.8119 -1.79345 -0.685526 0
M  V30 912 O 90.0129 -2.46188 -1.0791 0
M  V30 913 C 88.2839 -3.35003 1.2453 0
M  V30 914 S 89.8429 -4.24952 1.09367 0
M  V30 915 H 86.6609 -0.652949 0.281387 0
M  V30 916 H 89.2629 -1.4145 1.34953 0
M  V30 917 H 87.9669 -3.39666 2.30338 0
M  V30 918 H 87.4979 -3.87736 0.665166 0
M  V30 919 H 89.5129 -4.96196 0.0193397 0
M  V30 920 N 88.686 -0.835752 -1.33615 0
M  V30 921 C 90.102 -0.523139 -1.50783 0
M  V30 922 C 90.302 0.950171 -1.77691 0
M  V30 923 O 89.358 1.73411 -1.83534 0
M  V30 924 C 90.671 -1.39378 -2.66448 0
M  V30 925 C 92.219 -1.39223 -2.80332 0
M  V30 926 C 92.694 -2.24765 -3.99055 0
M  V30 927 N 94.185 -2.22458 -4.06284 0
M  V30 928 C 94.92 -2.85386 -4.97336 0
M  V30 929 N 94.416 -3.57354 -5.93523 0
M  V30 930 N 96.209 -2.74872 -4.90308 0
M  V30 931 H 88.36 -1.78952 -1.14411 0
M  V30 932 H 90.623 -0.763297 -0.562212 0
M  V30 933 H 90.329 -2.44061 -2.53234 0
M  V30 934 H 90.203 -1.0676 -3.61776 0
M  V30 935 H 92.59 -0.353136 -2.92979 0
M  V30 936 H 92.671 -1.75846 -1.85773 0
M  V30 937 H 92.315 -3.28732 -3.87167 0
M  V30 938 H 92.245 -1.85485 -4.92852 0
M  V30 939 H 94.736 -1.70119 -3.37443 0
M  V30 940 H 95.049 -4.02584 -6.59656 0
M  V30 941 H 93.394 -3.61461 -5.93608 0
M  V30 942 H 96.585 -2.18213 -4.14126 0
M  V30 943 H 96.758 -3.24199 -5.61069 0
M  V30 944 N 90.1641 1.46063 -0.591896 0
M  V30 945 C 91.0941 2.33172 0.123673 0
M  V30 946 C 92.0751 1.45897 0.87453 0
M  V30 947 O 93.2601 1.74698 0.848181 0
M  V30 948 C 90.3901 3.28336 1.13194 0
M  V30 949 C 89.3441 4.25124 0.495324 0
M  V30 950 C 88.6701 5.09863 1.61071 0
M  V30 951 C 89.9701 5.19143 -0.573425 0
M  V30 952 H 91.6641 2.93252 -0.603646 0
M  V30 953 H 89.2101 1.41014 -0.291741 0
M  V30 954 H 91.1631 3.88137 1.64097 0
M  V30 955 H 89.8871 2.66383 1.88965 0
M  V30 956 H 88.5461 3.66599 0.00729452 0
M  V30 957 H 88.1941 4.44288 2.35832 0
M  V30 958 H 87.8941 5.75417 1.19035 0
M  V30 959 H 89.4181 5.72529 2.12233 0
M  V30 960 H 90.8321 5.73106 -0.1491 0
M  V30 961 H 89.2291 5.93089 -0.914636 0
M  V30 962 H 90.2991 4.62519 -1.45617 0
M  V30 963 N 91.6422 0.330177 1.54103 0
M  V30 964 C 92.5892 -0.532762 2.24567 0
M  V30 965 C 93.5592 -1.10635 1.23892 0
M  V30 966 O 94.7442 -1.14546 1.5259 0
M  V30 967 C 91.8842 -1.6845 3.01195 0
M  V30 968 C 90.9972 -1.13951 4.167 0
M  V30 969 C 90.1322 -2.25746 4.80845 0
M  V30 970 C 89.1712 -1.6853 5.88442 0
M  V30 971 N 88.3082 -2.74014 6.46421 0
M  V30 972 H 93.1482 0.0746905 2.97906 0
M  V30 973 H 90.6852 0.048632 1.4702 0
M  V30 974 H 92.6432 -2.36234 3.43874 0
M  V30 975 H 91.2732 -2.26314 2.30178 0
M  V30 976 H 90.3252 -0.35301 3.78758 0
M  V30 977 H 91.6372 -0.680892 4.94131 0
M  V30 978 H 90.7912 -3.01422 5.26526 0
M  V30 979 H 89.5302 -2.74947 4.0281 0
M  V30 980 H 88.5352 -0.913543 5.42157 0
M  V30 981 H 89.7602 -1.20198 6.68378 0
M  V30 982 H 87.7062 -3.22494 5.71256 0
M  V30 983 H 87.6232 -2.32735 7.19285 0
M  V30 984 H 88.8912 -3.49499 6.96757 0
M  V30 985 N 93.1203 -1.57491 0.0584922 0
M  V30 986 C 94.3483 -1.97296 -0.623037 0
M  V30 987 C 94.7633 -0.936338 -1.63946 0
M  V30 988 O 94.1203 0.0785981 -1.82331 0
M  V30 989 C 94.1713 -3.37183 -1.30345 0
M  V30 990 O 93.8923 -4.36872 -0.32773 0
M  V30 991 C 95.3933 -3.91788 -2.07406 0
M  V30 992 H 92.6133 -0.649153 -0.169826 0
M  V30 993 H 95.1573 -2.04106 0.12696 0
M  V30 994 H 93.3123 -3.31502 -2.00463 0
M  V30 995 H 93.7263 -5.18141 -0.814269 0
M  V30 996 H 95.2003 -4.91926 -2.50425 0
M  V30 997 H 95.6773 -3.27609 -2.92521 0
M  V30 998 H 96.2833 -4.00829 -1.42184 0
M  V30 999 N 94.5984 0.214957 -1.56127 0
M  V30 1000 C 95.8444 0.935325 -1.80619 0
M  V30 1001 C 96.1994 1.81706 -0.632507 0
M  V30 1002 O 95.4924 1.87931 0.373182 0
M  V30 1003 C 95.6864 1.80314 -3.0858 0
M  V30 1004 C 95.5154 1.00691 -4.38282 0
M  V30 1005 C 94.2854 0.699211 -5.00439 0
M  V30 1006 C 96.4834 0.369057 -5.12974 0
M  V30 1007 N 94.4654 -0.117734 -6.13787 0
M  V30 1008 C 95.8364 -0.310981 -6.1922 0
M  V30 1009 C 97.8914 0.282759 -4.97096 0
M  V30 1010 C 96.5944 -1.06907 -7.11311 0
M  V30 1011 C 98.6204 -0.461881 -5.89594 0
M  V30 1012 C 97.9824 -1.13044 -6.9527 0
M  V30 1013 H 94.0814 0.322307 -0.71249 0
M  V30 1014 H 96.6654 0.205649 -1.93611 0
M  V30 1015 H 94.8364 2.50458 -2.96859 0
M  V30 1016 H 96.5684 2.46148 -3.21237 0
M  V30 1017 H 93.3234 1.01884 -4.62511 0
M  V30 1018 H 93.7474 -0.515235 -6.75037 0
M  V30 1019 H 98.3894 0.785292 -4.15443 0
M  V30 1020 H 96.1074 -1.5831 -7.92442 0
M  V30 1021 H 99.6934 -0.529746 -5.79383 0
M  V30 1022 H 98.5734 -1.69742 -7.65609 0
M  V30 1023 N 96.0765 1.50051 0.48192 0
M  V30 1024 C 97.0245 1.68635 1.60203 0
M  V30 1025 C 98.0185 0.552184 1.60148 0
M  V30 1026 O 99.2245 0.732377 1.64427 0
M  V30 1027 H 95.5995 0.532081 0.531407 0
M  V30 1028 H 97.5705 2.62616 1.41688 0
M  V30 1029 C 96.3195 1.78775 2.9822 0
M  V30 1030 H 95.6425 2.6543 2.98976 0
M  V30 1031 H 97.0825 1.95806 3.7608 0
M  V30 1032 C 95.5415 0.536849 3.32595 0
M  V30 1033 O 96.0715 -0.328897 4.00351 0
M  V30 1034 N 94.2775 0.394091 2.87915 0
M  V30 1035 H 93.8245 1.09962 2.32951 0
M  V30 1036 H 93.7825 -0.441737 3.11281 0
M  V30 1037 N 97.5546 -0.734337 1.39446 0
M  V30 1038 C 98.5176 -1.83004 1.37994 0
M  V30 1039 C 99.5176 -1.58397 0.276938 0
M  V30 1040 O 100.708 -1.65785 0.534875 0
M  V30 1041 C 97.8396 -3.20802 1.1532 0
M  V30 1042 H 99.0326 -1.85694 2.35494 0
M  V30 1043 H 96.5856 -0.938059 1.25021 0
M  V30 1044 H 97.3206 -3.23772 0.185036 0
M  V30 1045 H 97.1056 -3.4006 1.95197 0
M  V30 1046 H 98.5956 -4.00862 1.17046 0
M  V30 1047 N 99.0327 -1.24633 -0.964593 0
M  V30 1048 C 100.258 -1.11596 -1.74818 0
M  V30 1049 C 100.683 0.32723 -1.85232 0
M  V30 1050 O 100.041 1.23695 -1.32549 0
M  V30 1051 C 100.089 -1.76397 -3.1451 0
M  V30 1052 O 99.1927 -1.03685 -3.99153 0
M  V30 1053 H 98.5337 -0.390196 -0.537255 0
M  V30 1054 H 101.064 -1.65002 -1.20977 0
M  V30 1055 H 101.074 -1.8228 -3.65018 0
M  V30 1056 H 99.7487 -2.81401 -3.06246 0
M  V30 1057 H 98.3257 -1.05611 -3.57632 0
M  V30 1058 N 100.511 1.16574 -1.06058 0
M  V30 1059 C 101.739 1.90952 -0.796552 0
M  V30 1060 C 102.154 1.77302 0.648808 0
M  V30 1061 O 101.511 1.11605 1.44397 0
M  V30 1062 C 101.562 3.41736 -1.17894 0
M  V30 1063 O 101.283 3.54975 -2.56758 0
M  V30 1064 C 102.784 4.33169 -0.942308 0
M  V30 1065 H 100.004 0.605594 -0.288959 0
M  V30 1066 H 102.548 1.47777 -1.41358 0
M  V30 1067 H 100.703 3.82623 -0.606491 0
M  V30 1068 H 101.117 4.4846 -2.72 0
M  V30 1069 H 102.591 5.37439 -1.25952 0
M  V30 1070 H 103.068 4.3903 0.122078 0
M  V30 1071 H 103.674 3.98007 -1.49902 0
M  V30 1072 N 101.989 0.842826 1.3317 0
M  V30 1073 C 103.217 0.454055 2.01856 0
M  V30 1074 C 103.632 -0.94587 1.63397 0
M  V30 1075 O 102.989 -1.61534 0.849302 0
M  V30 1076 C 103.04 0.569715 3.56982 0
M  V30 1077 O 102.761 1.91448 3.94055 0
M  V30 1078 C 104.262 0.178412 4.42941 0
M  V30 1079 H 101.482 0.17979 0.646465 0
M  V30 1080 H 104.026 1.1365 1.70012 0
M  V30 1081 H 102.181 -0.0648587 3.87346 0
M  V30 1082 H 102.595 1.90282 4.88767 0
M  V30 1083 H 104.069 0.310376 5.51127 0
M  V30 1084 H 104.546 -0.880056 4.30293 0
M  V30 1085 H 105.152 0.787579 4.17944 0
M  V30 1086 N 103.467 -1.45747 0.599634 0
M  V30 1087 C 104.697 -2.06369 0.0977132 0
M  V30 1088 C 105.105 -1.44624 -1.21985 0
M  V30 1089 O 104.448 -0.551831 -1.75216 0
M  V30 1090 C 104.51 -3.59284 -0.124673 0
M  V30 1091 C 104.174 -4.43318 1.10987 0
M  V30 1092 C 105.171 -4.78796 2.02609 0
M  V30 1093 C 102.856 -4.84194 1.33647 0
M  V30 1094 C 104.85 -5.53997 3.15224 0
M  V30 1095 C 102.537 -5.5915 2.46565 0
M  V30 1096 C 103.535 -5.93968 3.37182 0
M  V30 1097 O 103.223 -6.67405 4.48136 0
M  V30 1098 H 102.955 -0.673122 0.0623153 0
M  V30 1099 H 105.509 -1.88104 0.824981 0
M  V30 1100 H 103.739 -3.75919 -0.906745 0
M  V30 1101 H 105.428 -4.01775 -0.577201 0
M  V30 1102 H 106.194 -4.47781 1.86325 0
M  V30 1103 H 102.073 -4.56534 0.64016 0
M  V30 1104 H 105.617 -5.81091 3.85978 0
M  V30 1105 H 101.514 -5.89579 2.62805 0
M  V30 1106 H 102.282 -6.85847 4.46717 0
M  V30 1107 N 104.945 -0.338344 -1.53925 0
M  V30 1108 C 105.878 0.563758 -2.21127 0
M  V30 1109 C 106.856 1.10433 -1.19345 0
M  V30 1110 O 108.04 1.16557 -1.48144 0
M  V30 1111 C 105.167 1.77505 -2.88461 0
M  V30 1112 C 104.213 1.3644 -4.04087 0
M  V30 1113 S 105.046 0.388593 -5.34088 0
M  V30 1114 C 106.202 1.60683 -6.04923 0
M  V30 1115 H 106.435 -0.00704546 -2.97299 0
M  V30 1116 H 103.968 -0.122418 -1.53914 0
M  V30 1117 H 105.926 2.46999 -3.27875 0
M  V30 1118 H 104.587 2.31706 -2.12064 0
M  V30 1119 H 103.78 2.26739 -4.50117 0
M  V30 1120 H 103.382 0.748998 -3.66423 0
M  V30 1121 H 105.674 2.54209 -6.28 0
M  V30 1122 H 106.617 1.18842 -6.98056 0
M  V30 1123 H 107.025 1.80052 -5.35015 0
M  V30 1124 N 106.423 1.57458 -0.0668435 0
M  V30 1125 C 107.67 1.93301 0.603406 0
M  V30 1126 C 107.998 0.946486 1.69917 0
M  V30 1127 O 107.253 -0.0387021 1.95662 0
M  V30 1128 C 107.552 3.35784 1.22409 0
M  V30 1129 C 107.218 4.50179 0.254955 0
M  V30 1130 C 105.88 4.81199 -0.0116746 0
M  V30 1131 C 108.232 5.19598 -0.408338 0
M  V30 1132 C 105.56 5.78978 -0.94877 0
M  V30 1133 C 107.912 6.18381 -1.33372 0
M  V30 1134 C 106.576 6.47821 -1.60887 0
M  V30 1135 H 105.846 0.707338 0.220802 0
M  V30 1136 H 108.493 1.91012 -0.136665 0
M  V30 1137 H 106.798 3.34515 2.03978 0
M  V30 1138 H 108.495 3.60804 1.74989 0
M  V30 1139 H 105.085 4.25983 0.472954 0
M  V30 1140 H 109.269 4.95832 -0.215456 0
M  V30 1141 H 104.525 6.00115 -1.16925 0
M  V30 1142 H 108.699 6.71277 -1.85367 0
M  V30 1143 H 106.326 7.23399 -2.33661 0
M  V30 1144 N 107.901 -0.206675 1.56239 0
M  V30 1145 C 108.851 -1.26 1.90021 0
M  V30 1146 C 109.835 -1.41566 0.764721 0
M  V30 1147 O 111.027 -1.44131 1.02739 0
M  V30 1148 C 108.156 -2.6073 2.23326 0
M  V30 1149 C 107.242 -2.49005 3.43304 0
M  V30 1150 N 107.633 -2.06946 4.61527 0
M  V30 1151 C 105.931 -2.79927 3.47213 0
M  V30 1152 C 106.632 -2.06832 5.43687 0
M  V30 1153 N 105.608 -2.47892 4.83788 0
M  V30 1154 H 109.41 -0.925955 2.78932 0
M  V30 1155 H 106.924 -0.415172 1.57003 0
M  V30 1156 H 108.921 -3.36798 2.45708 0
M  V30 1157 H 107.581 -2.94968 1.35735 0
M  V30 1158 H 108.592 -1.77839 4.86409 0
M  V30 1159 H 105.269 -3.18438 2.70006 0
M  V30 1160 H 106.659 -1.76312 6.48354 0
M  V30 1161 N 109.379 -1.50304 -0.473955 0
M  V30 1162 C 110.309 -1.71886 -1.58042 0
M  V30 1163 C 111.29 -0.567799 -1.60344 0
M  V30 1164 O 112.475 -0.806623 -1.76656 0
M  V30 1165 C 109.605 -1.81036 -2.96384 0
M  V30 1166 C 108.559 -2.962 -3.08949 0
M  V30 1167 C 107.885 -2.9049 -4.48909 0
M  V30 1168 C 109.185 -4.36752 -2.86434 0
M  V30 1169 H 110.879 -2.64527 -1.40234 0
M  V30 1170 H 108.425 -1.27295 -0.673201 0
M  V30 1171 H 110.378 -1.94719 -3.73714 0
M  V30 1172 H 109.102 -0.850147 -3.15341 0
M  V30 1173 H 107.761 -2.82164 -2.3405 0
M  V30 1174 H 107.409 -1.92321 -4.64781 0
M  V30 1175 H 107.109 -3.67802 -4.58253 0
M  V30 1176 H 108.633 -3.06218 -5.28264 0
M  V30 1177 H 110.047 -4.5133 -3.53517 0
M  V30 1178 H 108.444 -5.15493 -3.07225 0
M  V30 1179 H 109.514 -4.49321 -1.82316 0
M  V30 1180 N 110.857 0.726932 -1.39834 0
M  V30 1181 C 111.82 1.82269 -1.38962 0
M  V30 1182 C 112.82 1.58248 -0.285334 0
M  V30 1183 O 114.01 1.65499 -0.54366 0
M  V30 1184 C 111.142 3.20186 -1.17019 0
M  V30 1185 H 112.335 1.84443 -2.36476 0
M  V30 1186 H 109.888 0.931416 -1.25516 0
M  V30 1187 H 110.623 3.23669 -0.202204 0
M  V30 1188 H 110.408 3.3902 -1.96998 0
M  V30 1189 H 111.898 4.00235 -1.1917 0
M  V30 1190 N 112.336 1.25143 0.95797 0
M  V30 1191 C 113.582 1.09855 1.70469 0
M  V30 1192 C 113.915 -0.360187 1.90831 0
M  V30 1193 O 113.19 -1.26568 1.47685 0
M  V30 1194 C 113.473 1.8497 3.08963 0
M  V30 1195 C 113.326 3.38652 2.96032 0
M  V30 1196 C 114.645 1.63016 4.08795 0
M  V30 1197 H 111.764 0.400465 0.618706 0
M  V30 1198 H 114.406 1.53933 1.11376 0
M  V30 1199 H 112.556 1.47505 3.59409 0
M  V30 1200 H 114.228 3.85772 2.52938 0
M  V30 1201 H 112.471 3.66534 2.32025 0
M  V30 1202 H 113.142 3.8642 3.94187 0
M  V30 1203 H 115.618 1.95625 3.67247 0
M  V30 1204 H 114.494 2.18015 5.03747 0
M  V30 1205 H 114.755 0.570692 4.38401 0
M  V30 1206 N 113.814 -1.1601 1.06675 0
M  V30 1207 C 115.039 -1.91068 0.806706 0
M  V30 1208 C 115.464 -1.77112 -0.633485 0
M  V30 1209 O 114.822 -1.09908 -1.44187 0
M  V30 1210 C 114.87 -3.39655 1.21106 0
M  V30 1211 O 113.974 -4.10893 0.352189 0
M  V30 1212 H 113.315 -0.595125 0.294486 0
M  V30 1213 H 115.845 -1.46955 1.42356 0
M  V30 1214 H 115.855 -3.90434 1.18428 0
M  V30 1215 H 114.53 -3.49132 2.26008 0
M  V30 1216 H 113.107 -3.70285 0.440868 0
M  V30 1217 N 115.292 -0.849877 -1.32721 0
M  V30 1218 C 116.569 -0.372405 -1.92022 0
M  V30 1219 C 116.949 1.1435 -1.77447 0
M  V30 1220 O 116.297 1.96296 -1.16962 0
M  V30 1221 C 116.507 -0.831482 -3.3895 0
M  V30 1222 C 117.855 -0.845882 -4.16089 0
M  V30 1223 O 118.879 -0.775806 -3.47649 0
M  V30 1224 O 117.738 -0.943753 -5.38289 0
M  V30 1225 H 114.832 -0.107667 -0.819961 0
M  V30 1226 H 117.378 -0.93646 -1.41522 0
M  V30 1227 H 116.15 -1.87448 -3.4348 0
M  V30 1228 H 115.773 -0.24461 -3.96847 0
M  V30 1229 N 116.77 1.45427 -0.607355 0
M  V30 1230 C 117.733 2.28974 0.101693 0
M  V30 1231 C 118.733 1.39754 0.795329 0
M  V30 1232 O 119.923 1.61878 0.643527 0
M  V30 1233 C 117.055 3.20768 1.15414 0
M  V30 1234 H 118.248 2.93147 -0.632844 0
M  V30 1235 H 115.801 1.51945 -0.366391 0
M  V30 1236 H 116.536 2.61395 1.91945 0
M  V30 1237 H 116.321 3.86489 0.66098 0
M  V30 1238 H 117.811 3.83589 1.65073 0
M  V30 1239 N 118.248 0.346503 1.53744 0
M  V30 1240 C 119.178 -0.501193 2.28058 0
M  V30 1241 C 120.159 -1.10014 1.29734 0
M  V30 1242 O 121.344 -1.12097 1.58581 0
M  V30 1243 C 118.474 -1.65078 3.05559 0
M  V30 1244 C 117.428 -1.18003 4.11411 0
M  V30 1245 C 116.754 -2.41837 4.76884 0
M  V30 1246 C 118.054 -0.278394 5.21558 0
M  V30 1247 H 119.748 0.11875 2.99164 0
M  V30 1248 H 117.294 0.0585531 1.43881 0
M  V30 1249 H 119.247 -2.25028 3.56287 0
M  V30 1250 H 117.971 -2.29767 2.32109 0
M  V30 1251 H 116.63 -0.603331 3.61601 0
M  V30 1252 H 116.278 -3.0494 4.00026 0
M  V30 1253 H 115.978 -2.1102 5.48402 0
M  V30 1254 H 117.502 -3.02508 5.30397 0
M  V30 1255 H 118.916 -0.784823 5.67903 0
M  V30 1256 H 117.313 -0.0619707 6.00068 0
M  V30 1257 H 118.383 0.684677 4.80042 0
M  V30 1258 N 119.726 -1.57421 0.075193 0
M  V30 1259 C 120.956 -1.97659 -0.601203 0
M  V30 1260 C 121.364 -0.952427 -1.63479 0
M  V30 1261 O 120.707 0.0688241 -1.83571 0
M  V30 1262 C 120.769 -3.34218 -1.32434 0
M  V30 1263 C 120.433 -4.5484 -0.443826 0
M  V30 1264 C 121.43 -5.19034 0.299969 0
M  V30 1265 C 119.115 -5.00952 -0.367709 0
M  V30 1266 C 121.109 -6.27695 1.10807 0
M  V30 1267 C 118.796 -6.09484 0.444058 0
M  V30 1268 C 119.794 -6.72719 1.18061 0
M  V30 1269 O 119.482 -7.79161 1.97898 0
M  V30 1270 H 119.214 -0.65494 -0.167422 0
M  V30 1271 H 121.768 -2.04886 0.145157 0
M  V30 1272 H 119.998 -3.23615 -2.11685 0
M  V30 1273 H 121.687 -3.59038 -1.89331 0
M  V30 1274 H 122.453 -4.84351 0.250776 0
M  V30 1275 H 118.332 -4.51509 -0.930638 0
M  V30 1276 H 121.876 -6.76982 1.68347 0
M  V30 1277 H 117.773 -6.43601 0.494803 0
M  V30 1278 H 118.541 -7.96055 1.90367 0
M  V30 1279 N 121.204 0.198386 -1.56346 0
M  V30 1280 C 122.167 1.22952 -1.93431 0
M  V30 1281 C 123.167 1.38611 -0.815092 0
M  V30 1282 O 124.357 1.36479 -1.08255 0
M  V30 1283 C 121.489 2.59946 -2.20546 0
M  V30 1284 H 122.682 0.912626 -2.85677 0
M  V30 1285 H 120.235 0.43977 -1.49986 0
M  V30 1286 H 120.97 2.96696 -1.30927 0
M  V30 1287 H 120.755 2.49953 -3.02102 0
M  V30 1288 H 122.245 3.3431 -2.50253 0
M  V30 1289 N 122.682 1.50554 0.465978 0
M  V30 1290 C 123.645 1.69233 1.54574 0
M  V30 1291 C 124.645 0.562901 1.50626 0
M  V30 1292 O 125.835 0.830016 1.53155 0
M  V30 1293 C 122.967 1.7223 2.94193 0
M  V30 1294 H 124.16 2.65571 1.39327 0
M  V30 1295 H 121.713 1.40111 0.692711 0
M  V30 1296 H 122.448 0.77603 3.14878 0
M  V30 1297 H 122.233 2.54285 2.98466 0
M  V30 1298 H 123.723 1.88618 3.72576 0
M  V30 1299 N 124.16 -0.719506 1.40217 0
M  V30 1300 C 125.385 -1.51371 1.4178 0
M  V30 1301 C 125.81 -1.88091 0.0182355 0
M  V30 1302 O 125.168 -1.52997 -0.972707 0
M  V30 1303 C 125.216 -2.768 2.31115 0
M  V30 1304 O 124.32 -3.73349 1.7517 0
M  V30 1305 H 123.661 -0.456529 0.482159 0
M  V30 1306 H 126.191 -0.88644 1.844 0
M  V30 1307 H 126.201 -3.25371 2.46167 0
M  V30 1308 H 124.876 -2.49407 3.3282 0
M  V30 1309 H 123.453 -3.32179 1.69444 0
M  V30 1310 N 125.638 -1.25649 -0.95132 0
M  V30 1311 C 126.568 -1.08808 -2.06599 0
M  V30 1312 C 127.549 0.00382547 -1.701 0
M  V30 1313 O 128.734 -0.166325 -1.93486 0
M  V30 1314 C 125.864 -0.709542 -3.39975 0
M  V30 1315 C 124.818 -1.75206 -3.90496 0
M  V30 1316 C 124.144 -1.22811 -5.20405 0
M  V30 1317 C 125.444 -3.15153 -4.16504 0
M  V30 1318 H 127.138 -2.02048 -2.20946 0
M  V30 1319 H 124.684 -0.972835 -1.06169 0
M  V30 1320 H 126.637 -0.578649 -4.17408 0
M  V30 1321 H 125.361 0.258556 -3.25575 0
M  V30 1322 H 124.02 -1.87145 -3.15234 0
M  V30 1323 H 123.668 -0.250145 -5.02378 0
M  V30 1324 H 123.368 -1.92492 -5.55176 0
M  V30 1325 H 124.892 -1.10968 -6.00432 0
M  V30 1326 H 126.306 -3.06349 -4.84586 0
M  V30 1327 H 124.703 -3.82333 -4.62538 0
M  V30 1328 H 125.773 -3.61966 -3.22658 0
M  V30 1329 N 127.117 1.15442 -1.07289 0
M  V30 1330 C 128.528 1.67803 -0.818475 0
M  V30 1331 C 128.879 1.8489 0.656507 0
M  V30 1332 O 128.004 1.55176 1.50829 0
M  V30 1333 C 128.599 3.04805 -1.47917 0
M  V30 1334 C 127.158 3.54245 -1.27229 0
M  V30 1335 C 126.305 2.29986 -1.54925 0
M  V30 1336 H 129.256 0.996646 -1.23502 0
M  V30 1337 H 129.277 3.69702 -0.90005 0
M  V30 1338 H 128.789 2.92336 -2.55267 0
M  V30 1339 H 126.89 3.71956 -0.21899 0
M  V30 1340 H 127.003 4.35723 -1.99203 0
M  V30 1341 H 125.367 2.35496 -0.970242 0
M  V30 1342 H 126.15 2.20105 -2.63455 0
M  V30 1343 N 128.595 0.856903 1.32268 0
M  V30 1344 C 129.525 0.31858 2.31316 0
M  V30 1345 C 130.506 -0.583487 1.59779 0
M  V30 1346 O 131.691 -0.503259 1.87566 0
M  V30 1347 C 128.821 -0.491979 3.43798 0
M  V30 1348 C 127.775 0.315849 4.26833 0
M  V30 1349 C 127.101 -0.619586 5.31098 0
M  V30 1350 C 128.401 1.54282 4.98993 0
M  V30 1351 H 130.095 1.14621 2.76591 0
M  V30 1352 H 127.641 0.552613 1.32974 0
M  V30 1353 H 129.594 -0.879012 4.1213 0
M  V30 1354 H 128.318 -1.35299 2.97257 0
M  V30 1355 H 126.977 0.684664 3.6015 0
M  V30 1356 H 126.625 -1.47751 4.8081 0
M  V30 1357 H 126.325 -0.0830621 5.87541 0
M  V30 1358 H 127.849 -1.00375 6.02293 0
M  V30 1359 H 129.263 1.22796 5.59995 0
M  V30 1360 H 127.66 2.01745 5.65172 0
M  V30 1361 H 128.73 2.30285 4.26728 0
M  V30 1362 N 130.073 -1.45103 0.615059 0
M  V30 1363 C 131.003 -2.33339 -0.0865619 0
M  V30 1364 C 131.984 -1.4727 -0.851209 0
M  V30 1365 O 133.169 -1.76026 -0.820281 0
M  V30 1366 C 130.299 -3.30095 -1.07956 0
M  V30 1367 C 129.253 -4.25858 -0.427628 0
M  V30 1368 C 128.579 -5.12361 -1.5294 0
M  V30 1369 C 129.879 -5.18165 0.655944 0
M  V30 1370 H 131.573 -2.92254 0.650224 0
M  V30 1371 H 129.119 -1.40532 0.314138 0
M  V30 1372 H 131.072 -3.90698 -1.57901 0
M  V30 1373 H 129.796 -2.69355 -1.84703 0
M  V30 1374 H 128.455 -3.66564 0.0510292 0
M  V30 1375 H 128.103 -4.47984 -2.28734 0
M  V30 1376 H 127.803 -5.77238 -1.09865 0
M  V30 1377 H 129.327 -5.75833 -2.03098 0
M  V30 1378 H 130.741 -5.72796 0.240257 0
M  V30 1379 H 129.138 -5.91559 1.00888 0
M  V30 1380 H 130.208 -4.60144 1.52957 0
M  V30 1381 N 131.551 -0.354651 -1.53558 0
M  V30 1382 C 132.797 0.238797 -2.01389 0
M  V30 1383 C 133.13 1.49309 -1.2418 0
M  V30 1384 O 132.405 1.91638 -0.332457 0
M  V30 1385 C 132.688 0.541771 -3.56001 0
M  V30 1386 C 132.541 -0.725388 -4.43912 0
M  V30 1387 C 133.86 1.34685 -4.18984 0
M  V30 1388 H 130.979 0.0853177 -0.732045 0
M  V30 1389 H 133.621 -0.477384 -1.83905 0
M  V30 1390 H 131.771 1.15189 -3.71031 0
M  V30 1391 H 133.443 -1.36313 -4.407 0
M  V30 1392 H 131.686 -1.34801 -4.12324 0
M  V30 1393 H 132.357 -0.468505 -5.50008 0
M  V30 1394 H 134.833 0.830837 -4.07721 0
M  V30 1395 H 133.709 1.52759 -5.27215 0
M  V30 1396 H 133.97 2.35221 -3.74331 0
M  V30 1397 N 133.029 1.57378 -0.0835403 0
M  V30 1398 C 134.259 1.97975 0.590713 0
M  V30 1399 C 134.667 0.961083 1.62972 0
M  V30 1400 O 134.01 -0.0590879 1.83605 0
M  V30 1401 C 134.072 3.34915 1.3066 0
M  V30 1402 C 133.736 4.55069 0.419698 0
M  V30 1403 C 134.733 5.18868 -0.32749 0
M  V30 1404 C 132.418 5.0114 0.341137 0
M  V30 1405 C 134.412 6.27098 -1.14134 0
M  V30 1406 C 132.099 6.0924 -0.476374 0
M  V30 1407 C 133.097 6.72083 -1.21627 0
M  V30 1408 O 132.785 7.781 -2.02028 0
M  V30 1409 H 132.517 0.655818 0.163947 0
M  V30 1410 H 135.071 2.04807 -0.156021 0
M  V30 1411 H 133.301 3.24733 2.09966 0
M  V30 1412 H 134.99 3.60037 1.87424 0
M  V30 1413 H 135.756 4.84211 -0.276459 0
M  V30 1414 H 131.635 4.51996 0.90668 0
M  V30 1415 H 135.179 6.7608 -1.71935 0
M  V30 1416 H 131.076 6.43329 -0.528927 0
M  V30 1417 H 131.844 7.95034 -1.94586 0
M  V30 1418 N 134.507 -0.190092 1.56449 0
M  V30 1419 C 135.737 -0.92443 1.84764 0
M  V30 1420 C 136.145 -1.77146 0.664529 0
M  V30 1421 O 135.488 -1.79812 -0.375957 0
M  V30 1422 C 135.55 -1.86651 3.07248 0
M  V30 1423 C 135.214 -1.20094 4.40938 0
M  V30 1424 C 136.211 -0.575445 5.16706 0
M  V30 1425 C 133.896 -1.2033 4.87674 0
M  V30 1426 C 135.89 0.0388111 6.37388 0
M  V30 1427 C 133.577 -0.585214 6.08291 0
M  V30 1428 C 134.575 0.0347578 6.82991 0
M  V30 1429 O 134.263 0.643147 8.01323 0
M  V30 1430 H 133.995 -0.274974 0.617548 0
M  V30 1431 H 136.549 -0.200788 2.04416 0
M  V30 1432 H 134.779 -2.62998 2.83494 0
M  V30 1433 H 136.468 -2.46907 3.22167 0
M  V30 1434 H 137.234 -0.565728 4.81689 0
M  V30 1435 H 133.113 -1.67526 4.29484 0
M  V30 1436 H 136.657 0.523329 6.95634 0
M  V30 1437 H 132.554 -0.592451 6.42775 0
M  V30 1438 H 133.322 0.540545 8.16713 0
M  V30 1439 N 135.985 -1.50799 -0.457987 0
M  V30 1440 C 137.215 -1.65977 -1.23025 0
M  V30 1441 C 137.623 -0.347918 -1.85974 0
M  V30 1442 O 136.966 0.68148 -1.70592 0
M  V30 1443 C 137.028 -2.70309 -2.3701 0
M  V30 1444 C 136.692 -4.135 -1.94594 0
M  V30 1445 C 137.689 -4.98949 -1.46101 0
M  V30 1446 C 135.374 -4.5949 -2.02915 0
M  V30 1447 C 137.368 -6.28442 -1.06489 0
M  V30 1448 C 135.055 -5.88984 -1.62914 0
M  V30 1449 C 136.053 -6.73286 -1.1478 0
M  V30 1450 O 135.741 -8.00362 -0.75339 0
M  V30 1451 H 135.473 -0.56064 -0.377702 0
M  V30 1452 H 138.027 -1.97857 -0.551537 0
M  V30 1453 H 136.257 -2.337 -3.08093 0
M  V30 1454 H 137.946 -2.74574 -2.98938 0
M  V30 1455 H 138.712 -4.6463 -1.39084 0
M  V30 1456 H 134.591 -3.94009 -2.39328 0
M  V30 1457 H 138.135 -6.94194 -0.688488 0
M  V30 1458 H 134.032 -6.22822 -1.69595 0
M  V30 1459 H 134.8 -8.13744 -0.88108 0
M  V30 1460 N 137.463 0.71206 -1.40597 0
M  V30 1461 C 138.426 1.80785 -1.40888 0
M  V30 1462 C 139.426 1.57937 -0.302103 0
M  V30 1463 O 140.616 1.64913 -0.561182 0
M  V30 1464 C 137.748 3.18927 -1.20409 0
M  V30 1465 H 138.941 1.81924 -2.38419 0
M  V30 1466 H 136.494 0.91805 -1.26497 0
M  V30 1467 H 137.229 3.23436 -0.236522 0
M  V30 1468 H 137.014 3.36911 -2.00582 0
M  V30 1469 H 138.504 3.98949 -1.23408 0
M  V30 1470 N 138.941 1.26152 0.944643 0
M  V30 1471 C 140.357 1.03189 1.21754 0
M  V30 1472 C 140.557 -0.245112 2.00004 0
M  V30 1473 O 139.613 -0.955176 2.33736 0
M  V30 1474 C 140.926 2.26119 1.98219 0
M  V30 1475 C 142.474 2.30984 2.11224 0
M  V30 1476 C 142.949 3.53597 2.91089 0
M  V30 1477 N 144.44 3.54053 2.98664 0
M  V30 1478 C 145.175 4.45593 3.60881 0
M  V30 1479 N 144.671 5.47416 4.24626 0
M  V30 1480 N 146.464 4.33252 3.58119 0
M  V30 1481 H 138.615 2.08177 0.421437 0
M  V30 1482 H 140.878 0.914723 0.248969 0
M  V30 1483 H 140.584 3.18984 1.48128 0
M  V30 1484 H 140.458 2.3009 2.98895 0
M  V30 1485 H 142.845 1.38635 2.60508 0
M  V30 1486 H 142.926 2.31026 1.09821 0
M  V30 1487 H 142.57 4.46273 2.42493 0
M  V30 1488 H 142.5 3.50802 3.92741 0
M  V30 1489 H 144.991 2.80403 2.53343 0
M  V30 1490 H 145.304 6.13459 4.69987 0
M  V30 1491 H 143.649 5.51278 4.23223 0
M  V30 1492 H 146.84 3.52924 3.0751 0
M  V30 1493 H 147.013 5.04786 4.06319 0
M  V30 1494 N 140.419 -1.14872 1.07899 0
M  V30 1495 C 141.667 -1.85422 0.803941 0
M  V30 1496 C 141.988 -1.83051 -0.67211 0
M  V30 1497 O 141.258 -1.27532 -1.48703 0
M  V30 1498 H 139.838 -0.686537 0.294408 0
M  V30 1499 H 142.5 -1.39226 1.3639 0
M  V30 1500 H 141.596 -2.90399 1.14346 0
M  V30 1501 N 141.898 -0.863906 -1.31812 0
M  V30 1502 C 143.175 -0.39275 -1.91616 0
M  V30 1503 C 143.555 1.12461 -1.7865 0
M  V30 1504 O 142.903 1.95045 -1.19037 0
M  V30 1505 C 143.113 -0.867385 -3.38049 0
M  V30 1506 C 144.461 -0.889966 -4.15168 0
M  V30 1507 O 145.485 -0.812635 -3.46806 0
M  V30 1508 O 144.344 -1.00079 -5.37258 0
M  V30 1509 H 141.438 -0.116358 -0.818773 0
M  V30 1510 H 143.984 -0.951418 -1.40521 0
M  V30 1511 H 142.756 -1.91081 -3.41473 0
M  V30 1512 H 142.379 -0.286687 -3.96565 0
M  V30 1513 N 143.376 1.44774 -0.622745 0
M  V30 1514 C 144.326 2.2774 0.108889 0
M  V30 1515 C 145.31 1.38189 0.824175 0
M  V30 1516 O 146.502 1.62063 0.711664 0
M  V30 1517 C 143.631 3.25353 1.09546 0
M  V30 1518 C 142.717 4.22392 0.380232 0
M  V30 1519 N 143.108 5.02388 -0.586535 0
M  V30 1520 C 141.406 4.41588 0.625792 0
M  V30 1521 C 142.107 5.72894 -1.00834 0
M  V30 1522 N 141.083 5.42479 -0.348878 0
M  V30 1523 H 144.885 2.86993 -0.63341 0
M  V30 1524 H 142.399 1.5611 -0.447589 0
M  V30 1525 H 144.396 3.83538 1.63414 0
M  V30 1526 H 143.056 2.6766 1.83815 0
M  V30 1527 H 144.067 5.0885 -0.963975 0
M  V30 1528 H 140.744 3.95003 1.352 0
M  V30 1529 H 142.134 6.47158 -1.80656 0
M  V30 1530 N 144.854 0.36279 1.53368 0
M  V30 1531 C 146.1 -0.220702 2.02199 0
M  V30 1532 C 146.455 -1.46649 1.24546 0
M  V30 1533 O 145.748 -1.88737 0.32996 0
M  V30 1534 C 145.942 -0.568417 3.52851 0
M  V30 1535 C 145.771 0.642126 4.45092 0
M  V30 1536 C 144.541 1.15335 4.91961 0
M  V30 1537 C 146.739 1.50649 4.91741 0
M  V30 1538 N 144.721 2.3242 5.68202 0
M  V30 1539 C 146.092 2.52404 5.66297 0
M  V30 1540 C 148.147 1.52969 4.73819 0
M  V30 1541 C 146.85 3.56331 6.24836 0
M  V30 1542 C 148.876 2.55789 5.33222 0
M  V30 1543 C 148.238 3.56268 6.07662 0
M  V30 1544 H 144.337 -0.0435508 0.780786 0
M  V30 1545 H 146.921 0.506704 1.87991 0
M  V30 1546 H 145.092 -1.2649 3.67226 0
M  V30 1547 H 146.824 -1.13676 3.88407 0
M  V30 1548 H 143.579 0.718412 4.68119 0
M  V30 1549 H 144.003 2.91591 6.10986 0
M  V30 1550 H 148.645 0.766418 4.15795 0
M  V30 1551 H 146.363 4.33543 6.81958 0
M  V30 1552 H 149.949 2.58435 5.21251 0
M  V30 1553 H 148.829 4.34524 6.52808 0
M  V30 1554 N 146.332 -1.57332 0.0918853 0
M  V30 1555 C 147.743 -1.81496 -0.437739 0
M  V30 1556 C 148.094 -1.00727 -1.6837 0
M  V30 1557 O 147.219 -0.235694 -2.15113 0
M  V30 1558 C 147.814 -3.29197 -0.800939 0
M  V30 1559 C 146.373 -3.54136 -1.27532 0
M  V30 1560 C 145.52 -2.75979 -0.270392 0
M  V30 1561 H 148.471 -1.55494 0.317366 0
M  V30 1562 H 148.492 -3.42344 -1.66074 0
M  V30 1563 H 148.004 -3.87955 0.106078 0
M  V30 1564 H 146.105 -3.00705 -2.20016 0
M  V30 1565 H 146.218 -4.62792 -1.23938 0
M  V30 1566 H 144.582 -2.43349 -0.751872 0
M  V30 1567 H 145.365 -3.37484 0.629248 0
M  V30 1568 N 147.81 0.181792 -1.56548 0
M  V30 1569 C 149.057 0.900097 -1.81396 0
M  V30 1570 C 149.385 1.82695 -0.667281 0
M  V30 1571 O 148.64 1.92614 0.346146 0
M  V30 1572 C 148.939 1.73728 -3.12335 0
M  V30 1573 C 148.605 0.960255 -4.40556 0
M  V30 1574 C 147.267 0.745766 -4.75386 0
M  V30 1575 C 149.619 0.414477 -5.19549 0
M  V30 1576 C 146.947 -0.0257694 -5.86694 0
M  V30 1577 C 149.299 -0.343916 -6.31664 0
M  V30 1578 C 147.963 -0.569301 -6.65068 0
M  V30 1579 H 147.233 0.329369 -0.663775 0
M  V30 1580 H 149.88 0.165647 -1.90782 0
M  V30 1581 H 148.185 2.54081 -2.98245 0
M  V30 1582 H 149.882 2.29591 -3.28769 0
M  V30 1583 H 146.472 1.13746 -4.13231 0
M  V30 1584 H 150.656 0.567554 -4.93044 0
M  V30 1585 H 145.912 -0.210233 -6.11038 0
M  V30 1586 H 150.086 -0.774133 -6.92084 0
M  V30 1587 H 147.713 -1.16903 -7.51158 0
M  V30 1588 N 149.288 1.51039 0.449983 0
M  V30 1589 C 150.513 1.6715 1.22783 0
M  V30 1590 C 150.938 0.363081 1.84563 0
M  V30 1591 O 150.296 -0.675433 1.68249 0
M  V30 1592 C 150.344 2.77985 2.29689 0
M  V30 1593 O 149.448 2.40707 3.34864 0
M  V30 1594 H 148.789 0.557746 0.360299 0
M  V30 1595 H 151.319 1.97535 0.533005 0
M  V30 1596 H 151.329 3.01693 2.74673 0
M  V30 1597 H 150.004 3.72935 1.84098 0
M  V30 1598 H 148.581 2.27523 2.95445 0
M  V30 1599 N 150.766 -0.704594 1.40972 0
M  V30 1600 C 151.994 -1.49354 1.43182 0
M  V30 1601 C 152.409 -1.88768 0.0345508 0
M  V30 1602 O 151.766 -1.56184 -0.944081 0
M  V30 1603 C 151.817 -2.76187 2.33244 0
M  V30 1604 O 151.538 -2.38436 3.67532 0
M  V30 1605 C 153.039 -3.7 2.44162 0
M  V30 1606 H 150.259 -0.460559 0.487982 0
M  V30 1607 H 152.803 -0.868261 1.85153 0
M  V30 1608 H 150.958 -3.34974 1.94606 0
M  V30 1609 H 151.372 -3.20126 4.15475 0
M  V30 1610 H 152.846 -4.55803 3.11364 0
M  V30 1611 H 153.323 -4.13867 1.47006 0
M  V30 1612 H 153.929 -3.17121 2.83398 0
M  V30 1613 N 152.244 -1.26651 -0.937939 0
M  V30 1614 C 153.49 -1.12553 -1.687 0
M  V30 1615 C 153.823 0.329782 -1.91379 0
M  V30 1616 O 153.098 1.24202 -1.4968 0
M  V30 1617 C 153.381 -1.89862 -3.05981 0
M  V30 1618 C 153.234 -3.43318 -2.90607 0
M  V30 1619 C 154.553 -1.69499 -4.0615 0
M  V30 1620 H 151.672 -0.410257 -0.612257 0
M  V30 1621 H 154.314 -1.55685 -1.08913 0
M  V30 1622 H 152.464 -1.53204 -3.57017 0
M  V30 1623 H 154.136 -3.89747 -2.46769 0
M  V30 1624 H 152.379 -3.70179 -2.26164 0
M  V30 1625 H 153.05 -3.92642 -3.8799 0
M  V30 1626 H 155.526 -2.01442 -3.64088 0
M  V30 1627 H 154.402 -2.26002 -5.00214 0
M  V30 1628 H 154.663 -0.640365 -4.37438 0
M  V30 1629 N 153.722 1.14298 -1.08507 0
M  V30 1630 C 154.652 2.21542 -0.737646 0
M  V30 1631 C 155.633 1.67773 0.280377 0
M  V30 1632 O 156.818 1.93616 0.150521 0
M  V30 1633 C 153.948 3.46988 -0.147259 0
M  V30 1634 C 152.902 4.13789 -1.09374 0
M  V30 1635 C 152.228 5.33449 -0.365524 0
M  V30 1636 C 153.528 4.62208 -2.4323 0
M  V30 1637 H 155.222 2.5086 -1.6343 0
M  V30 1638 H 152.768 1.20576 -0.787243 0
M  V30 1639 H 154.721 4.21262 0.107808 0
M  V30 1640 H 153.445 3.17037 0.784538 0
M  V30 1641 H 152.104 3.4147 -1.33393 0
M  V30 1642 H 151.752 4.99759 0.57011 0
M  V30 1643 H 151.452 5.79088 -0.996512 0
M  V30 1644 H 152.976 6.10485 -0.118534 0
M  V30 1645 H 154.39 5.27952 -2.23472 0
M  V30 1646 H 152.787 5.18553 -3.02031 0
M  V30 1647 H 153.857 3.77224 -3.04681 0
M  V30 1648 N 155.201 0.870884 1.31352 0
M  V30 1649 C 156.441 0.488783 1.9847 0
M  V30 1650 C 156.805 -0.941536 1.67329 0
M  V30 1651 O 158.006 -1.42903 2.27667 0
M  V30 1652 C 156.277 0.739688 3.49662 0
M  V30 1653 S 157.836 0.457582 4.36408 0
M  V30 1654 H 154.654 0.18242 0.6872 0
M  V30 1655 H 157.256 1.12711 1.59739 0
M  V30 1656 H 155.96 1.77944 3.69816 0
M  V30 1657 H 155.491 0.0883905 3.93301 0
M  V30 1658 H 157.506 -0.709752 4.91098 0
M  V30 1659 N 156.679 -1.44442 0.630414 0
M  V30 1660 C 157.626 -2.30678 -0.0749355 0
M  V30 1661 C 158.596 -1.4344 -0.837502 0
M  V30 1662 O 159.781 -1.72343 -0.818684 0
M  V30 1663 C 156.921 -3.28706 -1.05103 0
M  V30 1664 C 156.034 -4.31046 -0.286954 0
M  V30 1665 C 155.169 -5.16167 -1.2548 0
M  V30 1666 C 154.208 -6.10216 -0.479843 0
M  V30 1667 N 153.345 -6.88039 -1.39811 0
M  V30 1668 H 158.185 -2.90454 0.666386 0
M  V30 1669 H 155.722 -1.43107 0.340404 0
M  V30 1670 H 157.68 -3.84027 -1.63031 0
M  V30 1671 H 156.31 -2.70632 -1.75949 0
M  V30 1672 H 155.362 -3.78203 0.408243 0
M  V30 1673 H 156.674 -4.97794 0.316657 0
M  V30 1674 H 155.828 -5.76002 -1.90544 0
M  V30 1675 H 154.567 -4.49491 -1.89233 0
M  V30 1676 H 153.572 -5.49491 0.184295 0
M  V30 1677 H 154.797 -6.78928 0.152965 0
M  V30 1678 H 152.743 -6.24032 -2.02287 0
M  V30 1679 H 152.66 -7.51223 -0.848508 0
M  V30 1680 H 153.928 -7.52397 -2.03762 0
M  V30 1681 N 158.157 -0.370918 -1.53173 0
M  V30 1682 C 159.087 0.464847 -2.28826 0
M  V30 1683 C 160.068 1.07936 -1.31468 0
M  V30 1684 O 161.253 1.0956 -1.60344 0
M  V30 1685 C 158.383 1.60196 -3.08147 0
M  V30 1686 C 157.337 1.11443 -4.13237 0
M  V30 1687 C 156.663 2.3422 -4.80672 0
M  V30 1688 C 157.963 0.195384 -5.21934 0
M  V30 1689 H 159.657 -0.166329 -2.98938 0
M  V30 1690 H 157.203 -0.0814359 -1.4377 0
M  V30 1691 H 159.156 2.19332 -3.59822 0
M  V30 1692 H 157.88 2.26045 -2.35735 0
M  V30 1693 H 156.539 0.545727 -3.62515 0
M  V30 1694 H 156.187 2.98537 -4.04827 0
M  V30 1695 H 155.887 2.02269 -5.51689 0
M  V30 1696 H 157.411 2.94032 -5.35143 0
M  V30 1697 H 158.825 0.694375 -5.69079 0
M  V30 1698 H 157.222 -0.0335027 -6.00091 0
M  V30 1699 H 158.292 -0.760961 -4.78892 0
M  V30 1700 N 159.635 1.57281 -0.100228 0
M  V30 1701 C 160.881 1.94826 0.563101 0
M  V30 1702 C 161.214 0.982475 1.67514 0
M  V30 1703 O 160.489 0.0164069 1.94493 0
M  V30 1704 C 160.772 3.42453 1.11346 0
M  V30 1705 C 160.625 4.498 0.00612081 0
M  V30 1706 C 161.944 3.91506 2.01024 0
M  V30 1707 H 159.063 0.708428 0.203221 0
M  V30 1708 H 161.705 1.8922 -0.171979 0
M  V30 1709 H 159.855 3.47361 1.7399 0
M  V30 1710 H 161.527 4.57 -0.628357 0
M  V30 1711 H 159.77 4.28756 -0.659581 0
M  V30 1712 H 160.441 5.50306 0.432109 0
M  V30 1713 H 162.917 3.88784 1.48278 0
M  V30 1714 H 161.793 4.95358 2.36457 0
M  V30 1715 H 162.054 3.31099 2.92961 0
M  V30 1716 N 161.113 -0.173488 1.56642 0
M  V30 1717 C 162.529 -0.525174 1.50712 0
M  V30 1718 C 162.729 -1.8476 0.804107 0
M  V30 1719 O 161.785 -2.49869 0.363574 0
M  V30 1720 C 163.098 -0.559937 2.95441 0
M  V30 1721 C 164.646 -0.647288 3.06234 0
M  V30 1722 C 165.121 -0.712963 4.52417 0
M  V30 1723 N 166.612 -0.775911 4.56655 0
M  V30 1724 C 167.347 -0.847264 5.67106 0
M  V30 1725 N 166.843 -0.879585 6.87194 0
M  V30 1726 N 168.636 -0.886117 5.55071 0
M  V30 1727 H 160.787 0.693681 2.00753 0
M  V30 1728 H 163.05 0.249841 0.914485 0
M  V30 1729 H 162.756 0.343049 3.50023 0
M  V30 1730 H 162.63 -1.40718 3.49969 0
M  V30 1731 H 165.017 -1.5407 2.51687 0
M  V30 1732 H 165.098 0.226586 2.54794 0
M  V30 1733 H 164.742 0.176183 5.07594 0
M  V30 1734 H 164.672 -1.60295 5.0161 0
M  V30 1735 H 167.163 -0.759304 3.70193 0
M  V30 1736 H 167.476 -0.935144 7.67121 0
M  V30 1737 H 165.821 -0.847898 6.89808 0
M  V30 1738 H 169.012 -0.857853 4.60172 0
M  V30 1739 H 169.185 -0.938263 6.41171 0
M  V30 1740 N 162.591 -1.51276 -0.441967 0
M  V30 1741 C 163.838 -1.63715 -1.19179 0
M  V30 1742 C 164.166 -0.351175 -1.91303 0
M  V30 1743 O 163.421 0.664524 -1.84072 0
M  V30 1744 C 163.72 -2.78746 -2.23686 0
M  V30 1745 C 163.386 -4.18189 -1.68607 0
M  V30 1746 C 162.048 -4.56125 -1.53308 0
M  V30 1747 C 164.4 -5.05222 -1.28062 0
M  V30 1748 C 161.728 -5.78804 -0.959317 0
M  V30 1749 C 164.08 -6.28476 -0.721162 0
M  V30 1750 C 162.744 -6.65188 -0.55504 0
M  V30 1751 H 162.014 -0.599076 -0.436106 0
M  V30 1752 H 164.661 -1.85296 -0.48351 0
M  V30 1753 H 162.966 -2.51369 -3.00535 0
M  V30 1754 H 164.663 -2.8557 -2.81515 0
M  V30 1755 H 161.253 -3.88277 -1.8149 0
M  V30 1756 H 165.437 -4.76524 -1.38704 0
M  V30 1757 H 160.693 -6.05899 -0.81833 0
M  V30 1758 H 164.867 -6.95259 -0.398458 0
M  V30 1759 H 162.494 -7.60123 -0.108311 0
M  V30 1760 N 164.069 0.697108 -1.41344 0
M  V30 1761 C 164.999 1.82353 -1.45841 0
M  V30 1762 C 165.98 1.67115 -0.317247 0
M  V30 1763 O 167.165 1.86871 -0.528474 0
M  V30 1764 C 164.295 3.20476 -1.33838 0
M  V30 1765 C 163.249 3.50415 -2.4575 0
M  V30 1766 C 162.575 4.87878 -2.18813 0
M  V30 1767 C 163.875 3.49546 -3.88091 0
M  V30 1768 H 165.569 1.78846 -2.40113 0
M  V30 1769 H 163.115 0.859028 -1.15571 0
M  V30 1770 H 165.068 3.98988 -1.35596 0
M  V30 1771 H 163.792 3.24604 -0.360498 0
M  V30 1772 H 162.451 2.74253 -2.43271 0
M  V30 1773 H 162.099 4.8863 -1.19371 0
M  V30 1774 H 161.799 5.08875 -2.93803 0
M  V30 1775 H 163.323 5.68702 -2.22284 0
M  V30 1776 H 164.737 4.18066 -3.92293 0
M  V30 1777 H 163.134 3.82075 -4.62751 0
M  V30 1778 H 164.204 2.48552 -4.16353 0
M  V30 1779 N 165.547 1.27147 0.931209 0
M  V30 1780 C 166.794 1.13278 1.67852 0
M  V30 1781 C 167.122 -0.32204 1.91815 0
M  V30 1782 O 166.377 -1.25224 1.50391 0
M  V30 1783 C 166.676 1.8579 3.05314 0
M  V30 1784 C 166.342 3.35657 3.01073 0
M  V30 1785 C 165.004 3.76536 2.99623 0
M  V30 1786 C 167.356 4.31299 2.92627 0
M  V30 1787 C 164.684 5.11426 2.87506 0
M  V30 1788 C 167.036 5.66242 2.82051 0
M  V30 1789 C 165.7 6.06418 2.7895 0
M  V30 1790 H 164.97 0.414515 0.614214 0
M  V30 1791 H 167.617 1.57712 1.08624 0
M  V30 1792 H 165.922 1.33854 3.68226 0
M  V30 1793 H 167.619 1.72491 3.62005 0
M  V30 1794 H 164.209 3.03146 3.02986 0
M  V30 1795 H 168.393 4.00692 2.92848 0
M  V30 1796 H 163.649 5.41705 2.83489 0
M  V30 1797 H 167.823 6.40026 2.74481 0
M  V30 1798 H 165.45 7.10895 2.69318 0
M  V30 1799 N 167.025 -1.13721 1.09112 0
M  V30 1800 C 168.255 -1.88499 0.845671 0
M  V30 1801 C 168.663 -1.79218 -0.606432 0
M  V30 1802 O 168.006 -1.1544 -1.42896 0
M  V30 1803 C 168.068 -3.38954 1.19793 0
M  V30 1804 C 167.732 -3.72018 2.65428 0
M  V30 1805 C 168.729 -3.7153 3.63677 0
M  V30 1806 C 166.414 -4.01775 3.01467 0
M  V30 1807 C 168.408 -4.00336 4.95994 0
M  V30 1808 C 166.095 -4.30243 4.33975 0
M  V30 1809 C 167.093 -4.29508 5.31048 0
M  V30 1810 O 166.781 -4.5728 6.61173 0
M  V30 1811 H 166.513 -0.603702 0.304171 0
M  V30 1812 H 169.067 -1.44903 1.45576 0
M  V30 1813 H 167.297 -3.83039 0.530871 0
M  V30 1814 H 168.986 -3.95052 0.932146 0
M  V30 1815 H 169.752 -3.4862 3.37179 0
M  V30 1816 H 165.631 -4.01496 2.26544 0
M  V30 1817 H 169.175 -3.99678 5.71755 0
M  V30 1818 H 165.072 -4.52625 4.60219 0
M  V30 1819 H 165.84 -4.74964 6.66597 0
M  V30 1820 N 168.503 -0.877838 -1.30888 0
M  V30 1821 C 169.731 -0.507414 -2.00581 0
M  V30 1822 C 170.146 0.902216 -1.65848 0
M  V30 1823 O 169.503 1.59225 -0.891831 0
M  V30 1824 C 169.554 -0.664162 -3.55347 0
M  V30 1825 O 169.275 -2.01829 -3.8884 0
M  V30 1826 C 170.776 -0.295787 -4.42312 0
M  V30 1827 H 167.996 -0.196866 -0.641471 0
M  V30 1828 H 170.54 -1.18117 -1.66939 0
M  V30 1829 H 168.695 -0.0378619 -3.87381 0
M  V30 1830 H 169.109 -2.03174 -4.8355 0
M  V30 1831 H 170.583 -0.456388 -5.5011 0
M  V30 1832 H 171.06 0.765663 -4.32475 0
M  V30 1833 H 171.666 -0.898113 -4.15709 0
M  V30 1834 N 169.982 1.44106 -0.638065 0
M  V30 1835 C 170.93 2.3248 0.0748149 0
M  V30 1836 C 171.924 1.47746 0.828702 0
M  V30 1837 O 173.13 1.64049 0.740816 0
M  V30 1838 H 169.505 0.750771 0.0429686 0
M  V30 1839 H 171.476 2.90348 -0.688504 0
M  V30 1840 C 170.225 3.31843 1.03805 0
M  V30 1841 H 169.548 3.97059 0.467375 0
M  V30 1842 H 170.988 3.96345 1.50622 0
M  V30 1843 C 169.447 2.61291 2.1267 0
M  V30 1844 O 169.977 2.41702 3.20847 0
M  V30 1845 N 168.183 2.20915 1.88798 0
M  V30 1846 H 167.73 2.37047 1.00829 0
M  V30 1847 H 167.688 1.74038 2.61836 0
M  V30 1848 N 171.46 0.379036 1.52974 0
M  V30 1849 C 172.39 -0.452706 2.29069 0
M  V30 1850 C 173.371 -1.07237 1.32039 0
M  V30 1851 O 174.556 -1.08708 1.60923 0
M  V30 1852 C 171.686 -1.5856 3.08992 0
M  V30 1853 C 170.64 -1.0925 4.13822 0
M  V30 1854 C 169.966 -2.31668 4.81907 0
M  V30 1855 C 171.266 -0.167702 5.22031 0
M  V30 1856 H 172.96 0.182181 2.98845 0
M  V30 1857 H 170.506 0.0890592 1.43724 0
M  V30 1858 H 172.459 -2.1742 3.6098 0
M  V30 1859 H 171.183 -2.24792 2.36931 0
M  V30 1860 H 169.842 -0.526494 3.628 0
M  V30 1861 H 169.49 -2.96386 4.06404 0
M  V30 1862 H 169.19 -1.9934 5.52754 0
M  V30 1863 H 170.714 -2.91189 5.36695 0
M  V30 1864 H 172.128 -0.664186 5.6944 0
M  V30 1865 H 170.525 0.0653265 6.00064 0
M  V30 1866 H 171.595 0.786347 4.78482 0
M  V30 1867 N 172.938 -1.57226 0.108567 0
M  V30 1868 C 174.168 -1.9889 -0.559142 0
M  V30 1869 C 174.576 -0.986889 -1.61422 0
M  V30 1870 O 173.919 0.0298705 -1.83676 0
M  V30 1871 C 173.981 -3.36952 -1.25315 0
M  V30 1872 C 173.645 -4.55679 -0.347248 0
M  V30 1873 C 174.642 -5.18281 0.409996 0
M  V30 1874 C 172.327 -5.0162 -0.261367 0
M  V30 1875 C 174.321 -6.25203 1.24096 0
M  V30 1876 C 172.008 -6.08405 0.573238 0
M  V30 1877 C 173.006 -6.70063 1.32304 0
M  V30 1878 O 172.694 -7.74788 2.14381 0
M  V30 1879 H 172.426 -0.658343 -0.153492 0
M  V30 1880 H 174.98 -2.04532 0.188584 0
M  V30 1881 H 173.21 -3.28032 -2.04773 0
M  V30 1882 H 174.899 -3.62974 -1.81673 0
M  V30 1883 H 175.665 -4.8371 0.353457 0
M  V30 1884 H 171.544 -4.53381 -0.834656 0
M  V30 1885 H 175.088 -6.73259 1.82669 0
M  V30 1886 H 170.985 -6.42406 0.631208 0
M  V30 1887 H 171.753 -7.91837 2.07209 0
M  V30 1888 N 174.416 0.165178 -1.56732 0
M  V30 1889 C 175.656 0.887231 -1.8414 0
M  V30 1890 C 176.02 1.79159 -0.690353 0
M  V30 1891 O 177.221 2.55172 -0.845032 0
M  V30 1892 C 175.492 1.65674 -3.16681 0
M  V30 1893 S 177.051 2.42671 -3.6559 0
M  V30 1894 H 173.869 0.297042 -0.645978 0
M  V30 1895 H 176.471 0.148439 -1.94936 0
M  V30 1896 H 175.175 0.983507 -3.98441 0
M  V30 1897 H 174.706 2.43679 -3.08843 0
M  V30 1898 H 176.721 3.67499 -3.33406 0
M  V30 1899 N 175.894 1.51508 0.433938 0
M  V30 1900 C 177.119 1.68443 1.21003 0
M  V30 1901 C 177.544 0.382636 1.84167 0
M  V30 1902 O 176.902 -0.65755 1.68956 0
M  V30 1903 C 176.95 2.80405 2.26727 0
M  V30 1904 O 176.054 2.44245 3.32292 0
M  V30 1905 H 175.395 0.561536 0.354363 0
M  V30 1906 H 177.925 1.9809 0.512024 0
M  V30 1907 H 177.935 3.0459 2.71457 0
M  V30 1908 H 176.61 3.74867 1.80132 0
M  V30 1909 H 175.187 2.30644 2.93015 0
M  V30 1910 N 177.372 -0.689602 1.41712 0
M  V30 1911 C 178.621 -1.44534 1.40686 0
M  V30 1912 C 178.934 -1.95588 0.0213352 0
M  V30 1913 O 180.14 -2.71271 -0.111534 0
M  V30 1914 C 178.596 -2.61387 2.47396 0
M  V30 1915 C 178.204 -2.17094 3.91885 0
M  V30 1916 C 179.948 -3.38986 2.55517 0
M  V30 1917 C 177.855 -3.3094 4.90135 0
M  V30 1918 H 176.785 -0.542925 0.52321 0
M  V30 1919 H 179.436 -0.748054 1.6756 0
M  V30 1920 H 177.818 -3.33412 2.13664 0
M  V30 1921 H 178.992 -1.52318 4.34897 0
M  V30 1922 H 177.307 -1.52473 3.8748 0
M  V30 1923 H 179.904 -4.23747 3.26102 0
M  V30 1924 H 180.247 -3.84578 1.59391 0
M  V30 1925 H 180.78 -2.74021 2.8837 0
M  V30 1926 H 177.519 -2.90355 5.87685 0
M  V30 1927 H 177.039 -3.94546 4.51767 0
M  V30 1928 H 178.718 -3.9663 5.11169 0
M  V30 1929 N 178.85 -1.27639 -0.924453 0
M  V30 1930 C 179.78 -1.13166 -2.04244 0
M  V30 1931 C 180.761 -0.032256 -1.70069 0
M  V30 1932 O 181.946 -0.207328 -1.9309 0
M  V30 1933 C 179.076 -0.781496 -3.38393 0
M  V30 1934 C 178.03 -1.83449 -3.86692 0
M  V30 1935 C 177.356 -1.33822 -5.17683 0
M  V30 1936 C 178.656 -3.23917 -4.09726 0
M  V30 1937 H 180.35 -2.06689 -2.1661 0
M  V30 1938 H 177.896 -0.995136 -1.04082 0
M  V30 1939 H 179.849 -0.667057 -4.16087 0
M  V30 1940 H 178.573 0.189439 -3.2605 0
M  V30 1941 H 177.232 -1.93789 -3.11193 0
M  V30 1942 H 176.88 -0.35665 -5.01734 0
M  V30 1943 H 176.58 -2.04224 -5.50968 0
M  V30 1944 H 178.104 -1.23679 -5.97943 0
M  V30 1945 H 179.518 -3.16559 -4.77978 0
M  V30 1946 H 177.915 -3.92059 -4.54324 0
M  V30 1947 H 178.985 -3.68729 -3.14908 0
M  V30 1948 N 180.328 1.1314 -1.09713 0
M  V30 1949 C 181.575 1.84484 -0.834987 0
M  V30 1950 C 181.903 1.83689 0.639418 0
M  V30 1951 O 181.158 1.2724 1.4869 0
M  V30 1952 C 181.457 3.32167 -1.3191 0
M  V30 1953 C 181.123 3.53139 -2.80363 0
M  V30 1954 C 179.785 3.58571 -3.20905 0
M  V30 1955 C 182.137 3.60866 -3.76065 0
M  V30 1956 C 179.465 3.69267 -4.55916 0
M  V30 1957 C 181.817 3.73089 -5.10869 0
M  V30 1958 C 180.481 3.76775 -5.50996 0
M  V30 1959 H 179.751 0.675073 -0.305544 0
M  V30 1960 H 182.398 1.33554 -1.37243 0
M  V30 1961 H 180.703 3.85469 -0.701517 0
M  V30 1962 H 182.4 3.85821 -1.09284 0
M  V30 1963 H 178.99 3.49569 -2.47991 0
M  V30 1964 H 183.174 3.55946 -3.45855 0
M  V30 1965 H 178.43 3.70388 -4.86438 0
M  V30 1966 H 182.604 3.78011 -5.84877 0
M  V30 1967 H 180.231 3.84815 -6.55608 0
M  V30 1968 N 181.806 0.884767 1.30421 0
M  V30 1969 C 182.736 0.367574 2.30589 0
M  V30 1970 C 183.717 -0.549464 1.60981 0
M  V30 1971 O 184.902 -0.46336 1.88591 0
M  V30 1972 C 182.032 -0.418944 3.44764 0
M  V30 1973 C 180.986 0.406316 4.26067 0
M  V30 1974 C 180.312 -0.506793 5.32293 0
M  V30 1975 C 181.612 1.64832 4.95608 0
M  V30 1976 H 183.306 1.20462 2.74097 0
M  V30 1977 H 180.852 0.580695 1.31772 0
M  V30 1978 H 182.805 -0.791395 4.13902 0
M  V30 1979 H 181.529 -1.28964 3.0006 0
M  V30 1980 H 180.188 0.760903 3.58617 0
M  V30 1981 H 179.836 -1.37519 4.83836 0
M  V30 1982 H 179.536 0.0415828 5.87585 0
M  V30 1983 H 181.06 -0.875764 6.04287 0
M  V30 1984 H 182.474 1.34646 5.57264 0
M  V30 1985 H 180.871 2.13688 5.60765 0
M  V30 1986 H 181.941 2.39284 4.21748 0
M  V30 1987 N 183.284 -1.43765 0.645699 0
M  V30 1988 C 184.512 -2.06253 0.163556 0
M  V30 1989 C 184.927 -1.48352 -1.16778 0
M  V30 1990 O 184.284 -0.611932 -1.71935 0
M  V30 1991 C 184.335 -3.61453 0.0583186 0
M  V30 1992 O 184.056 -4.172 1.33702 0
M  V30 1993 C 185.557 -4.41002 -0.450795 0
M  V30 1994 H 182.777 -0.665413 0.0864077 0
M  V30 1995 H 185.321 -1.84396 0.884222 0
M  V30 1996 H 183.476 -3.82522 -0.612865 0
M  V30 1997 H 183.89 -5.10791 1.19131 0
M  V30 1998 H 185.364 -5.49966 -0.473403 0
M  V30 1999 H 185.841 -4.13488 -1.48068 0
M  V30 2000 H 186.447 -4.24886 0.187637 0
M  V30 2001 N 184.763 -0.387143 -1.52771 0
M  V30 2002 C 186.003 0.195537 -2.03463 0
M  V30 2003 C 186.367 1.44222 -1.26744 0
M  V30 2004 O 187.568 2.10192 -1.67549 0
M  V30 2005 C 185.839 0.459097 -3.54439 0
M  V30 2006 S 187.398 1.01237 -4.26962 0
M  V30 2007 H 184.216 0.0552675 -0.708849 0
M  V30 2008 H 186.818 -0.534992 -1.88037 0
M  V30 2009 H 185.522 -0.455382 -4.07866 0
M  V30 2010 H 185.053 1.21811 -3.74066 0
M  V30 2011 H 187.068 2.29492 -4.39941 0
M  V30 2012 N 186.241 1.57166 -0.116904 0
M  V30 2013 C 187.49 1.94298 0.541407 0
M  V30 2014 C 187.803 1.00236 1.67964 0
M  V30 2015 O 189.009 1.26826 2.40057 0
M  V30 2016 C 187.465 3.45306 1.01449 0
M  V30 2017 C 187.073 4.47899 -0.0951738 0
M  V30 2018 C 188.817 3.91361 1.6443 0
M  V30 2019 C 186.724 5.90083 0.394491 0
M  V30 2020 H 185.654 0.725308 0.206019 0
M  V30 2021 H 188.305 1.82446 -0.196419 0
M  V30 2022 H 186.687 3.52385 1.80667 0
M  V30 2023 H 187.861 4.52486 -0.871374 0
M  V30 2024 H 186.176 4.11583 -0.631505 0
M  V30 2025 H 188.773 4.95004 2.02176 0
M  V30 2026 H 189.116 3.3122 2.52189 0
M  V30 2027 H 189.649 3.87073 0.917559 0
M  V30 2028 H 186.388 6.53974 -0.447004 0
M  V30 2029 H 185.908 5.88921 1.13722 0
M  V30 2030 H 187.587 6.41307 0.856399 0
M  V30 2031 N 187.719 -0.156864 1.56817 0
M  V30 2032 C 188.944 -0.890331 1.87318 0
M  V30 2033 C 189.369 -1.74394 0.704855 0
M  V30 2034 O 188.727 -1.77972 -0.345786 0
M  V30 2035 C 188.775 -1.73102 3.16336 0
M  V30 2036 O 187.879 -2.83422 2.99576 0
M  V30 2037 H 187.22 -0.24857 0.615718 0
M  V30 2038 H 189.75 -0.150649 2.04045 0
M  V30 2039 H 189.76 -2.12803 3.48107 0
M  V30 2040 H 188.435 -1.10412 4.00976 0
M  V30 2041 H 187.012 -2.47199 2.7919 0
M  V30 2042 N 189.197 -1.51736 -0.425897 0
M  V30 2043 C 190.443 -1.65214 -1.1761 0
M  V30 2044 C 190.776 -0.372778 -1.90589 0
M  V30 2045 O 190.051 0.628139 -1.84078 0
M  V30 2046 C 190.334 -2.86312 -2.18398 0
M  V30 2047 C 190.187 -4.24254 -1.49426 0
M  V30 2048 C 191.506 -3.02925 -3.19256 0
M  V30 2049 H 188.625 -0.601263 -0.426206 0
M  V30 2050 H 191.267 -1.8425 -0.463882 0
M  V30 2051 H 189.417 -2.70213 -2.79137 0
M  V30 2052 H 191.089 -4.52046 -0.919362 0
M  V30 2053 H 189.332 -4.26426 -0.796432 0
M  V30 2054 H 190.003 -5.05001 -2.22885 0
M  V30 2055 H 192.479 -3.1781 -2.68581 0
M  V30 2056 H 191.355 -3.89199 -3.8706 0
M  V30 2057 H 191.616 -2.15497 -3.86023 0
M  V30 2058 N 190.675 0.682077 -1.42076 0
M  V30 2059 C 191.625 1.78823 -1.41444 0
M  V30 2060 C 192.609 1.58323 -0.28681 0
M  V30 2061 O 193.801 1.68926 -0.528498 0
M  V30 2062 C 190.93 3.17232 -1.3122 0
M  V30 2063 C 190.016 3.4338 -2.489 0
M  V30 2064 N 190.407 3.40152 -3.7434 0
M  V30 2065 C 188.705 3.73986 -2.43003 0
M  V30 2066 C 189.406 3.65581 -4.52466 0
M  V30 2067 N 188.382 3.85989 -3.8277 0
M  V30 2068 H 192.184 1.7471 -2.36334 0
M  V30 2069 H 189.698 0.882622 -1.36321 0
M  V30 2070 H 191.695 3.96489 -1.2885 0
M  V30 2071 H 190.355 3.22547 -0.373263 0
M  V30 2072 H 191.366 3.20221 -4.07037 0
M  V30 2073 H 188.043 3.86591 -1.57651 0
M  V30 2074 H 189.433 3.69108 -5.61435 0
M  V30 2075 N 192.153 1.28127 0.917671 0
M  V30 2076 C 193.569 1.05749 1.19538 0
M  V30 2077 C 193.769 -0.202633 2.00479 0
M  V30 2078 O 192.825 -0.905382 2.3571 0
M  V30 2079 C 194.138 2.30273 1.93378 0
M  V30 2080 C 195.686 2.35412 2.06277 0
M  V30 2081 C 196.161 3.59692 2.83524 0
M  V30 2082 N 197.652 3.60309 2.91087 0
M  V30 2083 C 198.387 4.53147 3.51348 0
M  V30 2084 N 197.883 5.563 4.12919 0
M  V30 2085 N 199.676 4.40751 3.48849 0
M  V30 2086 H 191.827 2.09024 0.377184 0
M  V30 2087 H 194.09 0.919798 0.22951 0
M  V30 2088 H 193.796 3.22055 1.41328 0
M  V30 2089 H 193.67 2.36378 2.93947 0
M  V30 2090 H 196.057 1.4413 2.57508 0
M  V30 2091 H 196.138 2.33304 1.04895 0
M  V30 2092 H 195.782 4.51316 2.32973 0
M  V30 2093 H 195.712 3.59054 3.85211 0
M  V30 2094 H 198.203 2.85714 2.47338 0
M  V30 2095 H 198.516 6.2329 4.56869 0
M  V30 2096 H 196.861 5.60131 4.11435 0
M  V30 2097 H 200.052 3.59367 2.99955 0
M  V30 2098 H 200.225 5.13291 3.9552 0
M  V30 2099 N 193.631 -1.12557 1.10312 0
M  V30 2100 C 194.871 -1.8568 0.854543 0
M  V30 2101 C 195.235 -1.82091 -0.608843 0
M  V30 2102 O 196.436 -2.50544 -0.973717 0
M  V30 2103 C 194.707 -3.2942 1.38626 0
M  V30 2104 S 196.266 -4.19931 1.27293 0
M  V30 2105 H 193.084 -0.640427 0.308827 0
M  V30 2106 H 195.686 -1.35599 1.40831 0
M  V30 2107 H 194.39 -3.2959 2.44537 0
M  V30 2108 H 193.921 -3.84566 0.82902 0
M  V30 2109 H 195.936 -4.95668 0.229776 0
M  V30 2110 N 195.109 -0.891671 -1.2995 0
M  V30 2111 C 196.039 -0.379797 -2.30391 0
M  V30 2112 C 197.02 0.540919 -1.6127 0
M  V30 2113 O 198.205 0.453352 -1.88834 0
M  V30 2114 C 195.335 0.400654 -3.44981 0
M  V30 2115 C 194.289 -0.428905 -4.25846 0
M  V30 2116 C 193.615 0.478557 -5.32554 0
M  V30 2117 C 194.915 -1.67458 -4.94727 0
M  V30 2118 H 196.609 -1.21914 -2.73454 0
M  V30 2119 H 194.155 -0.587675 -1.31462 0
M  V30 2120 H 196.108 0.769434 -4.14316 0
M  V30 2121 H 194.832 1.27371 -3.0074 0
M  V30 2122 H 193.491 -0.779911 -3.58208 0
M  V30 2123 H 193.139 1.34951 -4.84559 0
M  V30 2124 H 192.839 -0.0727433 -5.87555 0
M  V30 2125 H 194.363 0.843705 -6.04743 0
M  V30 2126 H 195.777 -1.376 -5.56542 0
M  V30 2127 H 194.174 -2.16659 -5.59624 0
M  V30 2128 H 195.244 -2.41518 -4.20473 0
M  V30 2129 N 196.587 1.43421 -0.653314 0
M  V30 2130 C 197.835 2.01414 -0.166415 0
M  V30 2131 C 198.156 1.51803 1.22397 0
M  V30 2132 O 197.426 0.730693 1.81763 0
M  V30 2133 H 196.006 0.744703 -0.0585319 0
M  V30 2134 H 198.668 1.75629 -0.845003 0
M  V30 2135 H 197.764 3.11734 -0.151111 0
M  V30 2136 N 198.065 0.39524 1.52563 0
M  V30 2137 C 199.311 -0.185318 2.01952 0
M  V30 2138 C 199.644 -1.45964 1.28095 0
M  V30 2139 O 198.919 -1.90689 0.38315 0
M  V30 2140 C 199.202 -0.447193 3.57312 0
M  V30 2141 C 199.055 0.842828 4.41833 0
M  V30 2142 C 200.374 -1.23529 4.22408 0
M  V30 2143 H 197.493 -0.0658788 0.73405 0
M  V30 2144 H 200.135 0.525975 1.82575 0
M  V30 2145 H 198.285 -1.05312 3.73954 0
M  V30 2146 H 199.957 1.4795 4.36931 0
M  V30 2147 H 198.2 1.45686 4.08605 0
M  V30 2148 H 198.871 0.614165 5.48573 0
M  V30 2149 H 201.347 -0.722445 4.0978 0
M  V30 2150 H 200.223 -1.38727 5.3108 0
M  V30 2151 H 200.484 -2.25213 3.80436 0
M  V30 2152 N 199.544 -1.57102 0.125237 0
M  V30 2153 C 200.474 -2.18659 -0.819174 0
M  V30 2154 C 201.455 -1.12843 -1.27281 0
M  V30 2155 O 202.64 -1.41104 -1.33429 0
M  V30 2156 C 199.77 -2.79096 -2.06695 0
M  V30 2157 C 198.724 -3.90548 -1.75088 0
M  V30 2158 C 198.05 -4.37821 -3.06948 0
M  V30 2159 C 199.35 -5.12356 -1.01435 0
M  V30 2160 H 201.044 -2.9783 -0.306202 0
M  V30 2161 H 198.59 -1.4326 -0.145839 0
M  V30 2162 H 200.543 -3.2082 -2.73226 0
M  V30 2163 H 199.267 -1.97223 -2.60328 0
M  V30 2164 H 197.926 -3.49409 -1.10944 0
M  V30 2165 H 197.574 -3.52799 -3.58527 0
M  V30 2166 H 197.274 -5.12982 -2.86571 0
M  V30 2167 H 198.798 -4.822 -3.74587 0
M  V30 2168 H 200.212 -5.5106 -1.58132 0
M  V30 2169 H 198.609 -5.9314 -0.911319 0
M  V30 2170 H 199.679 -4.849 -0.00218681 0
M  V30 2171 N 201.022 0.148545 -1.56898 0
M  V30 2172 C 202.438 0.501131 -1.51528 0
M  V30 2173 C 202.638 1.83458 -0.833399 0
M  V30 2174 O 201.694 2.49259 -0.40328 0
M  V30 2175 C 203.007 0.512864 -2.96294 0
M  V30 2176 C 204.555 0.598487 -3.07225 0
M  V30 2177 C 205.03 0.640897 -4.53494 0
M  V30 2178 N 206.521 0.703163 -4.57832 0
M  V30 2179 C 207.256 0.756935 -5.68382 0
M  V30 2180 N 206.752 0.770147 -6.88506 0
M  V30 2181 N 208.545 0.797698 -5.56411 0
M  V30 2182 H 200.696 -0.725532 -1.99624 0
M  V30 2183 H 202.959 -0.264358 -0.910395 0
M  V30 2184 H 202.665 -0.398691 -3.49433 0
M  V30 2185 H 202.539 1.35133 -3.52163 0
M  V30 2186 H 204.926 1.50046 -2.54106 0
M  V30 2187 H 205.007 -0.267093 -2.54402 0
M  V30 2188 H 204.651 -0.256915 -5.0725 0
M  V30 2189 H 204.581 1.52295 -5.04097 0
M  V30 2190 H 207.072 0.700314 -3.71354 0
M  V30 2191 H 207.385 0.812983 -7.68512 0
M  V30 2192 H 205.73 0.738049 -6.9107 0
M  V30 2193 H 208.921 0.784535 -4.61479 0
M  V30 2194 H 209.094 0.83614 -6.42583 0
M  V30 2195 N 202.5 1.5196 0.417844 0
M  V30 2196 C 203.911 1.57851 0.997 0
M  V30 2197 C 204.262 0.413714 1.91789 0
M  V30 2198 O 203.387 -0.467057 2.113 0
M  V30 2199 C 203.982 2.86085 1.81496 0
M  V30 2200 C 202.541 2.94483 2.34428 0
M  V30 2201 C 201.688 2.52707 1.14169 0
M  V30 2202 H 204.639 1.57455 0.198392 0
M  V30 2203 H 204.66 2.70947 2.67148 0
M  V30 2204 H 204.172 3.70842 1.14446 0
M  V30 2205 H 202.273 2.142 3.04875 0
M  V30 2206 H 202.386 3.98546 2.65891 0
M  V30 2207 H 200.75 2.06353 1.49301 0
M  V30 2208 H 201.533 3.39828 0.486999 0
M  V30 2209 N 203.978 -0.674533 1.42435 0
M  V30 2210 C 204.908 -1.80009 1.48724 0
M  V30 2211 C 205.889 -1.6659 0.343793 0
M  V30 2212 O 207.074 -1.86007 0.558137 0
M  V30 2213 C 204.204 -3.18306 1.38919 0
M  V30 2214 C 203.158 -3.46461 2.51294 0
M  V30 2215 C 202.484 -4.84335 2.26547 0
M  V30 2216 C 203.784 -3.43328 3.93603 0
M  V30 2217 H 205.478 -1.75004 2.42928 0
M  V30 2218 H 203.024 -0.840533 1.16923 0
M  V30 2219 H 204.977 -3.9678 1.41927 0
M  V30 2220 H 203.701 -3.2399 0.412094 0
M  V30 2221 H 202.36 -2.70348 2.47604 0
M  V30 2222 H 202.008 -4.86669 1.2713 0
M  V30 2223 H 201.708 -5.04136 3.01861 0
M  V30 2224 H 203.232 -5.65094 2.31304 0
M  V30 2225 H 204.646 -4.11772 3.98894 0
M  V30 2226 H 203.043 -3.74664 4.68771 0
M  V30 2227 H 204.113 -2.41897 4.20255 0
M  V30 2228 N 205.456 -1.28612 -0.910864 0
M  V30 2229 C 206.872 -1.06381 -1.18976 0
M  V30 2230 C 207.072 0.191998 -2.00583 0
M  V30 2231 O 206.128 0.892869 -2.36187 0
M  V30 2232 C 207.441 -2.31295 -1.92154 0
M  V30 2233 C 208.989 -2.36503 -2.05025 0
M  V30 2234 C 209.464 -3.61191 -2.81612 0
M  V30 2235 N 210.955 -3.61847 -2.89172 0
M  V30 2236 C 211.69 -4.55004 -3.4894 0
M  V30 2237 N 211.186 -5.58482 -4.09963 0
M  V30 2238 N 212.979 -4.42594 -3.46506 0
M  V30 2239 H 205.13 -2.09221 -0.366094 0
M  V30 2240 H 207.393 -0.921003 -0.224629 0
M  V30 2241 H 207.099 -3.228 -1.39618 0
M  V30 2242 H 206.973 -2.37934 -2.9269 0
M  V30 2243 H 209.36 -1.45494 -2.5674 0
M  V30 2244 H 209.441 -2.33857 -1.03657 0
M  V30 2245 H 209.085 -4.52545 -2.30576 0
M  V30 2246 H 209.015 -3.61092 -3.83302 0
M  V30 2247 H 211.506 -2.87022 -2.45819 0
M  V30 2248 H 211.819 -6.25704 -4.53557 0
M  V30 2249 H 210.164 -5.62305 -4.08459 0
M  V30 2250 H 213.355 -3.60953 -2.98045 0
M  V30 2251 H 213.528 -5.15381 -3.92793 0
M  V30 2252 N 206.934 1.1197 -1.10907 0
M  V30 2253 C 208.159 1.87942 -0.877064 0
M  V30 2254 C 208.584 1.79341 0.567314 0
M  V30 2255 O 207.942 1.15184 1.40009 0
M  V30 2256 C 207.99 3.34926 -1.33629 0
M  V30 2257 O 207.094 4.09303 -0.504447 0
M  V30 2258 H 206.435 0.583785 -0.316371 0
M  V30 2259 H 208.965 1.4157 -1.47712 0
M  V30 2260 H 208.975 3.8577 -1.32837 0
M  V30 2261 H 207.65 3.40504 -2.3881 0
M  V30 2262 H 206.227 3.68393 -0.577993 0
M  V30 2263 N 208.412 0.89855 1.29475 0
M  V30 2264 C 209.342 0.39201 2.30186 0
M  V30 2265 C 210.323 -0.532359 1.61555 0
M  V30 2266 O 211.508 -0.443331 1.89072 0
M  V30 2267 C 208.638 -0.382353 3.45189 0
M  V30 2268 C 207.592 0.451483 4.25612 0
M  V30 2269 C 206.918 -0.450307 5.328 0
M  V30 2270 C 208.218 1.70079 4.93832 0
M  V30 2271 H 209.912 1.23362 2.72804 0
M  V30 2272 H 207.458 0.594638 1.31149 0
M  V30 2273 H 209.411 -0.747451 4.14718 0
M  V30 2274 H 208.135 -1.25774 3.01411 0
M  V30 2275 H 206.794 0.798897 3.57789 0
M  V30 2276 H 206.442 -1.32379 4.85268 0
M  V30 2277 H 206.142 0.103902 5.87508 0
M  V30 2278 H 207.666 -0.811623 6.05182 0
M  V30 2279 H 209.08 1.40549 5.55805 0
M  V30 2280 H 207.477 2.19623 5.58467 0
M  V30 2281 H 208.547 2.43744 4.19186 0
M  V30 2282 N 209.89 -1.43072 0.660911 0
M  V30 2283 C 211.306 -1.56169 0.329173 0
M  V30 2284 C 211.506 -1.64317 -1.16629 0
M  V30 2285 O 210.562 -1.60245 -1.95135 0
M  V30 2286 C 211.875 -2.81873 1.04729 0
M  V30 2287 C 213.423 -2.95627 1.02828 0
M  V30 2288 C 213.898 -4.24174 1.72744 0
M  V30 2289 N 215.389 -4.31055 1.69545 0
M  V30 2290 C 216.124 -5.29304 2.20511 0
M  V30 2291 N 215.62 -6.33786 2.79799 0
M  V30 2292 N 217.413 -5.21008 2.10966 0
M  V30 2293 H 209.564 -1.36027 1.63127 0
M  V30 2294 H 211.827 -0.653823 0.686454 0
M  V30 2295 H 211.533 -2.81942 2.10242 0
M  V30 2296 H 211.407 -3.72338 0.603702 0
M  V30 2297 H 213.794 -2.95094 -0.0184742 0
M  V30 2298 H 213.875 -2.06431 1.51063 0
M  V30 2299 H 213.519 -4.25467 2.7738 0
M  V30 2300 H 213.449 -5.1228 1.2197 0
M  V30 2301 H 215.94 -3.56174 1.26288 0
M  V30 2302 H 216.253 -7.05086 3.16344 0
M  V30 2303 H 214.598 -6.34387 2.83863 0
M  V30 2304 H 217.789 -4.38301 1.64347 0
M  V30 2305 H 217.962 -5.97416 2.50993 0
M  V30 2306 N 211.368 -0.403325 -1.52352 0
M  V30 2307 C 212.614 0.167015 -2.02713 0
M  V30 2308 C 212.969 1.43296 -1.28391 0
M  V30 2309 O 212.262 1.87796 -0.379885 0
M  V30 2310 C 212.456 0.474665 -3.54234 0
M  V30 2311 C 212.285 -0.759909 -4.43233 0
M  V30 2312 C 211.055 -1.28338 -4.88731 0
M  V30 2313 C 213.253 -1.63634 -4.87574 0
M  V30 2314 N 211.235 -2.47404 -5.6184 0
M  V30 2315 C 212.606 -2.67329 -5.59406 0
M  V30 2316 C 214.661 -1.65478 -4.69597 0
M  V30 2317 C 213.364 -3.72773 -6.15169 0
M  V30 2318 C 215.39 -2.69837 -5.26253 0
M  V30 2319 C 214.752 -3.72253 -5.98002 0
M  V30 2320 H 210.851 0.0228343 -0.781667 0
M  V30 2321 H 213.435 -0.556368 -1.86581 0
M  V30 2322 H 211.606 1.16709 -3.7045 0
M  V30 2323 H 213.338 1.03338 -3.91284 0
M  V30 2324 H 210.093 -0.842273 -4.6605 0
M  V30 2325 H 210.517 -3.07688 -6.0304 0
M  V30 2326 H 215.159 -0.876389 -4.13617 0
M  V30 2327 H 212.877 -4.51471 -6.70223 0
M  V30 2328 H 216.463 -2.72164 -5.14216 0
M  V30 2329 H 215.343 -4.51679 -6.41058 0
M  V30 2330 N 212.846 1.57033 -0.133567 0
M  V30 2331 C 214.094 1.953 0.519848 0
M  V30 2332 C 214.415 1.01866 1.66278 0
M  V30 2333 O 213.685 0.0776513 1.95746 0
M  V30 2334 H 212.265 0.721091 0.195032 0
M  V30 2335 H 214.927 1.93809 -0.205921 0
M  V30 2336 H 214.023 2.98695 0.904854 0
M  V30 2337 N 214.325 -0.140222 1.56975 0
M  V30 2338 C 215.741 -0.493088 1.51792 0
M  V30 2339 C 215.941 -1.83013 0.843116 0
M  V30 2340 O 214.997 -2.49041 0.416493 0
M  V30 2341 C 216.31 -0.497144 2.96562 0
M  V30 2342 C 217.858 -0.582186 3.07538 0
M  V30 2343 C 218.333 -0.616838 4.53827 0
M  V30 2344 N 219.824 -0.678873 4.58198 0
M  V30 2345 C 220.559 -0.726782 5.68775 0
M  V30 2346 N 220.055 -0.733623 6.88905 0
M  V30 2347 N 221.848 -0.768179 5.56826 0
M  V30 2348 H 213.999 0.736108 1.99237 0
M  V30 2349 H 216.262 0.269182 0.90898 0
M  V30 2350 H 215.968 0.417217 3.49217 0
M  V30 2351 H 215.842 -1.33263 3.52875 0
M  V30 2352 H 218.229 -1.48697 2.54899 0
M  V30 2353 H 218.31 0.280581 2.54257 0
M  V30 2354 H 217.954 0.283812 5.07106 0
M  V30 2355 H 217.884 -1.49619 5.04898 0
M  V30 2356 H 220.375 -0.68061 3.7172 0
M  V30 2357 H 220.688 -0.772215 7.68932 0
M  V30 2358 H 219.033 -0.701389 6.91452 0
M  V30 2359 H 222.224 -0.760051 4.61888 0
M  V30 2360 H 222.397 -0.80205 6.43017 0
M  V30 2361 N 215.803 -1.52179 -0.40978 0
M  V30 2362 C 216.766 -1.74853 -1.48186 0
M  V30 2363 C 217.766 -0.618417 -1.48433 0
M  V30 2364 O 218.956 -0.886286 -1.49969 0
M  V30 2365 C 216.088 -1.8303 -2.87598 0
M  V30 2366 H 217.281 -2.70559 -1.29374 0
M  V30 2367 H 214.834 -1.42586 -0.640233 0
M  V30 2368 H 215.569 -0.89236 -3.11781 0
M  V30 2369 H 215.354 -2.65187 -2.88822 0
M  V30 2370 H 216.844 -2.02316 -3.65319 0
M  V30 2371 N 217.281 0.66697 -1.42791 0
M  V30 2372 C 218.697 0.981027 -1.25889 0
M  V30 2373 C 218.897 2.00793 -0.168695 0
M  V30 2374 O 217.953 2.48321 0.45747 0
M  V30 2375 C 219.266 1.47838 -2.61848 0
M  V30 2376 C 220.814 1.59575 -2.69267 0
M  V30 2377 C 221.289 2.12704 -4.05612 0
M  V30 2378 N 222.78 2.20026 -4.07606 0
M  V30 2379 C 223.515 2.62227 -5.09926 0
M  V30 2380 N 223.011 3.03824 -6.22626 0
M  V30 2381 N 224.804 2.62045 -4.97281 0
M  V30 2382 H 216.955 -0.0127891 -2.12396 0
M  V30 2383 H 219.218 0.0568258 -0.946295 0
M  V30 2384 H 218.924 0.798299 -3.4252 0
M  V30 2385 H 218.798 2.45579 -2.86305 0
M  V30 2386 H 221.185 2.26687 -1.88936 0
M  V30 2387 H 221.266 0.60302 -2.48591 0
M  V30 2388 H 220.91 1.46198 -4.86404 0
M  V30 2389 H 220.84 3.12782 -4.23645 0
M  V30 2390 H 223.331 1.90708 -3.2625 0
M  V30 2391 H 223.644 3.34734 -6.96544 0
M  V30 2392 H 221.989 3.01662 -6.26119 0
M  V30 2393 H 225.18 2.28916 -4.08308 0
M  V30 2394 H 225.353 2.94613 -5.77154 0
M  V30 2395 N 218.759 1.29093 0.90403 0
M  V30 2396 C 219.989 1.19516 1.68522 0
M  V30 2397 C 220.397 -0.24738 1.87576 0
M  V30 2398 O 219.74 -1.17798 1.40959 0
M  V30 2399 C 219.802 1.83249 3.0929 0
M  V30 2400 C 219.466 3.32531 3.13484 0
M  V30 2401 C 220.463 4.28821 2.93953 0
M  V30 2402 C 218.148 3.73656 3.35688 0
M  V30 2403 C 220.142 5.64212 2.96553 0
M  V30 2404 C 217.829 5.0917 3.37919 0
M  V30 2405 C 218.827 6.04258 3.18373 0
M  V30 2406 O 218.515 7.37298 3.20385 0
M  V30 2407 H 218.247 0.415467 0.533257 0
M  V30 2408 H 220.801 1.70912 1.13922 0
M  V30 2409 H 219.031 1.26358 3.65473 0
M  V30 2410 H 220.72 1.68054 3.69476 0
M  V30 2411 H 221.486 3.98382 2.76616 0
M  V30 2412 H 217.365 3.00101 3.49943 0
M  V30 2413 H 220.909 6.38407 2.81216 0
M  V30 2414 H 216.806 5.39256 3.54787 0
M  V30 2415 H 217.574 7.46048 3.36681 0
M  V30 2416 N 220.237 -1.11381 1.11499 0
M  V30 2417 C 221.2 -2.15622 0.777153 0
M  V30 2418 C 222.2 -1.59504 -0.203779 0
M  V30 2419 O 223.39 -1.74188 0.020782 0
M  V30 2420 C 220.522 -3.40556 0.153116 0
M  V30 2421 H 221.715 -2.47021 1.70061 0
M  V30 2422 H 219.268 -1.26577 0.916952 0
M  V30 2423 H 220.003 -3.14767 -0.780536 0
M  V30 2424 H 219.788 -3.8257 0.859238 0
M  V30 2425 H 221.278 -4.17546 -0.0671044 0
M  V30 2426 N 221.715 -0.905404 -1.28997 0
M  V30 2427 C 223.131 -0.60233 -1.47798 0
M  V30 2428 C 223.331 0.854645 -1.82478 0
M  V30 2429 O 222.387 1.63439 -1.92468 0
M  V30 2430 C 223.7 -1.53306 -2.58685 0
M  V30 2431 C 225.248 -1.53887 -2.72558 0
M  V30 2432 C 225.723 -2.45602 -3.86579 0
M  V30 2433 N 227.214 -2.43681 -3.93921 0
M  V30 2434 C 227.949 -3.11347 -4.81509 0
M  V30 2435 N 227.445 -3.88313 -5.73746 0
M  V30 2436 N 229.238 -3.00476 -4.75048 0
M  V30 2437 H 221.389 -1.84765 -1.04764 0
M  V30 2438 H 223.652 -0.792025 -0.520961 0
M  V30 2439 H 223.358 -2.57141 -2.39941 0
M  V30 2440 H 223.232 -1.25787 -3.55609 0
M  V30 2441 H 225.619 -0.507941 -2.90696 0
M  V30 2442 H 225.7 -1.85447 -1.76191 0
M  V30 2443 H 225.344 -3.48792 -3.69197 0
M  V30 2444 H 225.274 -2.11349 -4.82327 0
M  V30 2445 H 227.765 -1.87767 -3.27951 0
M  V30 2446 H 228.078 -4.36985 -6.37389 0
M  V30 2447 H 226.423 -3.92419 -5.73614 0
M  V30 2448 H 229.614 -2.39858 -4.01977 0
M  V30 2449 H 229.787 -3.53485 -5.43095 0
M  V30 2450 N 223.193 1.4272 -0.668489 0
M  V30 2451 C 224.609 1.55992 -0.33745 0
M  V30 2452 C 224.809 1.64933 1.15756 0
M  V30 2453 O 223.865 1.61278 1.94282 0
M  V30 2454 C 225.178 2.81314 -1.06222 0
M  V30 2455 C 226.726 2.95078 -1.04394 0
M  V30 2456 C 227.201 4.23252 -1.74991 0
M  V30 2457 N 228.692 4.3015 -1.71829 0
M  V30 2458 C 229.427 5.28127 -2.23315 0
M  V30 2459 N 228.923 6.32293 -2.83156 0
M  V30 2460 N 230.716 5.19882 -2.13726 0
M  V30 2461 H 222.867 1.3516 -1.63846 0
M  V30 2462 H 225.13 0.650174 -0.689912 0
M  V30 2463 H 224.836 2.80823 -2.11734 0
M  V30 2464 H 224.71 3.72012 -0.62344 0
M  V30 2465 H 227.097 2.951 0.0028244 0
M  V30 2466 H 227.178 2.05627 -1.52155 0
M  V30 2467 H 226.822 4.2399 -2.79633 0
M  V30 2468 H 226.752 5.11626 -1.24685 0
M  V30 2469 H 229.243 3.55499 -1.28175 0
M  V30 2470 H 229.556 7.03398 -3.20079 0
M  V30 2471 H 227.901 6.32873 -2.87223 0
M  V30 2472 H 231.092 4.37423 -1.66669 0
M  V30 2473 H 231.265 5.96077 -2.54158 0
M  V30 2474 N 224.671 0.411399 1.52136 0
M  V30 2475 C 225.917 -0.163888 2.02137 0
M  V30 2476 C 226.25 -1.44597 1.29636 0
M  V30 2477 O 225.525 -1.90272 0.403353 0
M  V30 2478 C 225.808 -0.40927 3.57767 0
M  V30 2479 C 225.661 0.889643 4.40914 0
M  V30 2480 C 226.98 -1.19042 4.23694 0
M  V30 2481 H 224.099 -0.0580896 0.734707 0
M  V30 2482 H 226.741 0.54531 1.82007 0
M  V30 2483 H 224.891 -1.0134 3.7505 0
M  V30 2484 H 226.563 1.52575 4.35337 0
M  V30 2485 H 224.806 1.50011 4.07037 0
M  V30 2486 H 225.477 0.672314 5.4789 0
M  V30 2487 H 227.953 -0.678942 4.10524 0
M  V30 2488 H 226.829 -1.33086 5.32522 0
M  V30 2489 H 227.09 -2.21166 3.82803 0
M  V30 2490 N 226.149 -1.5696 0.141893 0
M  V30 2491 C 227.112 -2.15316 -0.785587 0
M  V30 2492 C 228.112 -1.09366 -1.1788 0
M  V30 2493 O 229.302 -1.35031 -1.10056 0
M  V30 2494 C 226.434 -2.71211 -2.06537 0
M  V30 2495 H 227.627 -2.98608 -0.278041 0
M  V30 2496 H 225.18 -1.5593 -0.107519 0
M  V30 2497 H 225.915 -1.91571 -2.6167 0
M  V30 2498 H 225.7 -3.4872 -1.79268 0
M  V30 2499 H 227.19 -3.16189 -2.72789 0
M  V30 2500 N 227.627 0.131896 -1.57047 0
M  V30 2501 C 228.875 0.840269 -1.83804 0
M  V30 2502 C 229.196 1.81017 -0.72512 0
M  V30 2503 O 228.466 1.94272 0.251995 0
M  V30 2504 H 227.046 0.313294 -0.678127 0
M  V30 2505 H 229.708 0.122294 -1.94516 0
M  V30 2506 H 228.804 1.39335 -2.79271 0
M  V30 2507 N 229.106 1.52395 0.401703 0
M  V30 2508 C 230.069 1.75636 1.47257 0
M  V30 2509 C 231.069 0.62628 1.48103 0
M  V30 2510 O 232.259 0.894227 1.49497 0
M  V30 2511 C 229.391 1.84553 2.86624 0
M  V30 2512 H 230.584 2.71241 1.27938 0
M  V30 2513 H 228.137 1.42923 0.632662 0
M  V30 2514 H 228.872 0.908882 3.11303 0
M  V30 2515 H 228.657 2.66715 2.87412 0
M  V30 2516 H 230.147 2.04251 3.64241 0
M  V30 2517 N 230.584 -0.659388 1.43143 0
M  V30 2518 C 231.83 -1.42145 1.44647 0
M  V30 2519 C 232.163 -1.9408 0.0681907 0
M  V30 2520 O 231.438 -1.71899 -0.910007 0
M  V30 2521 C 231.721 -2.60735 2.48373 0
M  V30 2522 C 231.574 -2.14332 3.95451 0
M  V30 2523 C 232.893 -3.62951 2.48906 0
M  V30 2524 H 230.012 -0.51552 0.526696 0
M  V30 2525 H 232.654 -0.748069 1.74654 0
M  V30 2526 H 230.804 -3.18184 2.22916 0
M  V30 2527 H 232.476 -1.61932 4.31944 0
M  V30 2528 H 230.719 -1.4576 4.08578 0
M  V30 2529 H 231.39 -2.99583 4.63631 0
M  V30 2530 H 233.866 -3.1525 2.71582 0
M  V30 2531 H 232.742 -4.43487 3.23435 0
M  V30 2532 H 233.003 -4.15126 1.52061 0
M  V30 2533 N 232.062 -1.29571 -0.897171 0
M  V30 2534 C 233.308 -1.18873 -1.65048 0
M  V30 2535 C 233.663 0.256707 -1.9068 0
M  V30 2536 O 232.956 1.18202 -1.50794 0
M  V30 2537 C 233.15 -1.9382 -3.00281 0
M  V30 2538 C 232.979 -3.45503 -2.8785 0
M  V30 2539 C 231.749 -4.14856 -2.88483 0
M  V30 2540 C 233.947 -4.40956 -2.64693 0
M  V30 2541 N 231.929 -5.52886 -2.66815 0
M  V30 2542 C 233.3 -5.66464 -2.5203 0
M  V30 2543 C 235.355 -4.3069 -2.49821 0
M  V30 2544 C 234.058 -6.82871 -2.26008 0
M  V30 2545 C 236.084 -5.46852 -2.25182 0
M  V30 2546 C 235.446 -6.71333 -2.13286 0
M  V30 2547 H 231.545 -0.489998 -0.609447 0
M  V30 2548 H 234.129 -1.63431 -1.05822 0
M  V30 2549 H 232.3 -1.51671 -3.57562 0
M  V30 2550 H 234.032 -1.75366 -3.64731 0
M  V30 2551 H 230.787 -3.66579 -2.99861 0
M  V30 2552 H 231.211 -6.25487 -2.59027 0
M  V30 2553 H 235.853 -3.35141 -2.5776 0
M  V30 2554 H 233.571 -7.78473 -2.16806 0
M  V30 2555 H 237.157 -5.40809 -2.14515 0
M  V30 2556 H 236.037 -7.59701 -1.94485 0
M  V30 2557 N 233.54 1.10788 -1.12088 0
M  V30 2558 C 234.786 1.82942 -0.875226 0
M  V30 2559 C 235.119 1.84779 0.597538 0
M  V30 2560 O 234.394 1.30578 1.44152 0
M  V30 2561 C 234.677 3.29789 -1.44606 0
M  V30 2562 C 234.53 3.36307 -2.98693 0
M  V30 2563 C 235.849 4.26064 -1.10261 0
M  V30 2564 H 232.968 0.664195 -0.319397 0
M  V30 2565 H 235.61 1.29867 -1.38689 0
M  V30 2566 H 233.76 3.75118 -1.01089 0
M  V30 2567 H 235.432 2.99487 -3.50864 0
M  V30 2568 H 233.675 2.76318 -3.34411 0
M  V30 2569 H 234.346 4.39694 -3.33726 0
M  V30 2570 H 236.822 3.88951 -1.4784 0
M  V30 2571 H 235.698 5.27183 -1.52869 0
M  V30 2572 H 235.959 4.42098 -0.0142953 0
M  V30 2573 N 235.018 0.912232 1.28515 0
M  V30 2574 C 235.948 0.416403 2.29757 0
M  V30 2575 C 236.929 -0.515194 1.6211 0
M  V30 2576 O 238.114 -0.423253 1.89532 0
M  V30 2577 C 235.244 -0.34572 3.45575 0
M  V30 2578 C 234.198 0.496599 4.25109 0
M  V30 2579 C 233.524 -0.393771 5.33248 0
M  V30 2580 C 234.824 1.75307 4.92001 0
M  V30 2581 H 236.518 1.26249 2.7148 0
M  V30 2582 H 234.064 0.608515 1.30511 0
M  V30 2583 H 236.017 -0.703422 4.15488 0
M  V30 2584 H 234.741 -1.2257 3.02728 0
M  V30 2585 H 233.4 0.8368 3.56922 0
M  V30 2586 H 233.048 -1.27225 4.86644 0
M  V30 2587 H 232.748 0.166209 5.87365 0
M  V30 2588 H 234.272 -0.747389 6.06009 0
M  V30 2589 H 235.686 1.46437 5.54283 0
M  V30 2590 H 234.083 2.25534 5.56106 0
M  V30 2591 H 235.153 2.48176 4.16577 0
M  V30 2592 N 236.496 -1.42363 0.676048 0
M  V30 2593 C 237.742 -2.0182 0.199125 0
M  V30 2594 C 238.075 -1.53339 -1.19168 0
M  V30 2595 O 237.35 -0.736124 -1.80032 0
M  V30 2596 C 237.633 -3.59331 0.235144 0
M  V30 2597 C 237.486 -4.17989 1.66149 0
M  V30 2598 C 238.805 -4.3813 -0.41595 0
M  V30 2599 H 235.924 -0.733293 0.0738311 0
M  V30 2600 H 238.566 -1.69368 0.86107 0
M  V30 2601 H 236.716 -3.87109 -0.328487 0
M  V30 2602 H 238.388 -4.0116 2.27747 0
M  V30 2603 H 236.631 -3.7377 2.20178 0
M  V30 2604 H 237.302 -5.27126 1.63837 0
M  V30 2605 H 239.778 -4.16051 0.0638529 0
M  V30 2606 H 238.654 -5.47717 -0.360115 0
M  V30 2607 H 238.915 -4.16101 -1.49373 0
M  V30 2608 N 237.974 -0.419461 -1.51915 0
M  V30 2609 C 238.904 0.391813 -2.30189 0
M  V30 2610 C 239.885 1.03699 -1.34836 0
M  V30 2611 O 241.07 1.04403 -1.63748 0
M  V30 2612 C 238.2 1.50312 -3.13087 0
M  V30 2613 C 237.154 0.9824 -4.16573 0
M  V30 2614 C 236.48 2.18809 -4.8788 0
M  V30 2615 C 237.78 0.0292356 -5.22292 0
M  V30 2616 H 239.474 -0.26135 -2.98257 0
M  V30 2617 H 237.02 -0.127134 -1.43438 0
M  V30 2618 H 238.973 2.07773 -3.66617 0
M  V30 2619 H 237.697 2.18431 -2.42807 0
M  V30 2620 H 236.356 0.430119 -3.64068 0
M  V30 2621 H 236.004 2.85507 -4.14119 0
M  V30 2622 H 235.704 1.84615 -5.57845 0
M  V30 2623 H 237.228 2.76858 -5.44226 0
M  V30 2624 H 238.642 0.512976 -5.71 0
M  V30 2625 H 237.039 -0.2244 -5.9968 0
M  V30 2626 H 238.109 -0.912931 -4.76228 0
M  V30 2627 N 239.452 1.56882 -0.150215 0
M  V30 2628 C 240.415 2.1573 0.774157 0
M  V30 2629 C 241.415 1.0999 1.17298 0
M  V30 2630 O 242.605 1.35613 1.09338 0
M  V30 2631 C 239.737 2.72302 2.05096 0
M  V30 2632 H 240.93 2.98752 0.262201 0
M  V30 2633 H 238.483 1.55985 0.099248 0
M  V30 2634 H 239.218 1.92956 2.6065 0
M  V30 2635 H 239.003 3.49665 1.77416 0
M  V30 2636 H 240.493 3.17632 2.71109 0
M  V30 2637 N 240.93 -0.123565 1.57115 0
M  V30 2638 C 242.17 -0.838097 1.86428 0
M  V30 2639 C 242.534 -1.77266 0.737611 0
M  V30 2640 O 243.735 -2.52842 0.912389 0
M  V30 2641 C 242.006 -1.57219 3.20962 0
M  V30 2642 S 243.565 -2.32893 3.71896 0
M  V30 2643 H 240.383 -0.279811 0.653626 0
M  V30 2644 H 242.985 -0.0967034 1.95261 0
M  V30 2645 H 241.689 -0.877522 4.00909 0
M  V30 2646 H 241.22 -2.35405 3.15195 0
M  V30 2647 H 243.235 -3.5853 3.43032 0
M  V30 2648 N 242.408 -1.52605 -0.393616 0
M  V30 2649 C 243.34 -1.73303 -1.49995 0
M  V30 2650 C 244.353 -0.613473 -1.50799 0
M  V30 2651 O 245.542 -0.889049 -1.54784 0
M  V30 2652 C 242.642 -1.77245 -2.88855 0
M  V30 2653 C 241.815 -3.06483 -3.12069 0
M  V30 2654 C 240.874 -3.02033 -4.30886 0
M  V30 2655 O 239.9 -3.75907 -4.27414 0
M  V30 2656 N 241.102 -2.20897 -5.36828 0
M  V30 2657 H 243.867 -2.68756 -1.32629 0
M  V30 2658 H 241.428 -1.51036 -0.583083 0
M  V30 2659 H 243.42 -1.7178 -3.66434 0
M  V30 2660 H 241.99 -0.891993 -2.99603 0
M  V30 2661 H 241.21 -3.25474 -2.22396 0
M  V30 2662 H 242.498 -3.91947 -3.2443 0
M  V30 2663 H 241.896 -1.60336 -5.42502 0
M  V30 2664 H 240.453 -2.21275 -6.13091 0
M  V30 2665 N 243.887 0.651787 -1.4349 0
M  V30 2666 C 244.85 1.74647 -1.48429 0
M  V30 2667 C 245.85 1.56513 -0.368817 0
M  V30 2668 O 247.04 1.62385 -0.630623 0
M  V30 2669 C 244.172 3.13533 -1.33827 0
M  V30 2670 H 245.365 1.71649 -2.4592 0
M  V30 2671 H 242.918 0.863573 -1.30277 0
M  V30 2672 H 243.653 3.22142 -0.37349 0
M  V30 2673 H 243.438 3.28101 -2.14691 0
M  V30 2674 H 244.928 3.93356 -1.40218 0
M  V30 2675 N 245.365 1.30045 0.890287 0
M  V30 2676 C 246.776 1.16738 1.45702 0
M  V30 2677 C 247.127 -0.233939 1.948 0
M  V30 2678 O 246.252 -1.13021 1.84541 0
M  V30 2679 C 246.847 2.11313 2.64825 0
M  V30 2680 C 245.406 2.02001 3.17604 0
M  V30 2681 C 244.553 2.01699 1.90296 0
M  V30 2682 H 247.504 1.42392 0.700726 0
M  V30 2683 H 247.525 1.69086 3.40867 0
M  V30 2684 H 247.037 3.13294 2.2906 0
M  V30 2685 H 245.138 1.03142 3.5804 0
M  V30 2686 H 245.251 2.90128 3.81264 0
M  V30 2687 H 243.615 1.46427 2.08402 0
M  V30 2688 H 244.398 3.05402 1.56795 0
M  V30 2689 N 246.843 -1.10192 1.12674 0
M  V30 2690 C 248.089 -1.82475 0.884915 0
M  V30 2691 C 248.422 -1.85093 -0.58773 0
M  V30 2692 O 247.697 -1.3134 -1.43457 0
M  V30 2693 C 247.98 -3.29018 1.46353 0
M  V30 2694 C 247.833 -3.34718 3.00473 0
M  V30 2695 C 249.152 -4.25473 1.12519 0
M  V30 2696 H 246.271 -0.662492 0.322915 0
M  V30 2697 H 248.913 -1.2913 1.39375 0
M  V30 2698 H 247.063 -3.74576 1.03077 0
M  V30 2699 H 248.735 -2.97622 3.52447 0
M  V30 2700 H 246.978 -2.74541 3.35872 0
M  V30 2701 H 247.649 -4.37918 3.36053 0
M  V30 2702 H 250.125 -3.88161 1.499 0
M  V30 2703 H 249.001 -5.26365 1.55663 0
M  V30 2704 H 249.262 -4.42084 0.0377407 0
M  V30 2705 N 248.321 -0.919034 -1.28029 0
M  V30 2706 C 249.251 -0.428581 -2.29533 0
M  V30 2707 C 250.232 0.50659 -1.62381 0
M  V30 2708 O 251.417 0.413195 -1.89753 0
M  V30 2709 C 248.547 0.327388 -3.45753 0
M  V30 2710 C 247.501 -0.519137 -4.2484 0
M  V30 2711 C 246.827 0.365486 -5.33449 0
M  V30 2712 C 248.127 -1.77914 -4.91064 0
M  V30 2713 H 249.821 -1.27687 -2.70807 0
M  V30 2714 H 247.367 -0.615428 -1.30186 0
M  V30 2715 H 249.32 0.681378 -4.15855 0
M  V30 2716 H 248.044 1.20963 -3.03374 0
M  V30 2717 H 246.703 -0.855717 -3.56473 0
M  V30 2718 H 246.351 1.24642 -4.87312 0
M  V30 2719 H 246.051 -0.197356 -5.87268 0
M  V30 2720 H 247.575 0.715241 -6.06396 0
M  V30 2721 H 248.989 -1.49374 -5.53498 0
M  V30 2722 H 247.386 -2.2848 -5.54903 0
M  V30 2723 H 248.456 -2.50382 -4.15255 0
M  V30 2724 N 249.799 1.42003 -0.683588 0
M  V30 2725 C 251.029 2.05448 -0.217866 0
M  V30 2726 C 251.437 1.51491 1.13346 0
M  V30 2727 O 250.78 0.653048 1.717 0
M  V30 2728 C 250.842 3.59399 -0.0850118 0
M  V30 2729 C 250.506 4.36093 -1.36645 0
M  V30 2730 C 251.503 4.66169 -2.30179 0
M  V30 2731 C 249.188 4.75578 -1.61649 0
M  V30 2732 C 251.182 5.34676 -3.46988 0
M  V30 2733 C 248.869 5.43824 -2.78745 0
M  V30 2734 C 249.867 5.73299 -3.71238 0
M  V30 2735 O 249.555 6.40142 -4.86285 0
M  V30 2736 H 249.287 0.668344 -0.101454 0
M  V30 2737 H 251.841 1.82974 -0.933248 0
M  V30 2738 H 250.071 3.80566 0.686031 0
M  V30 2739 H 251.76 4.04457 0.341973 0
M  V30 2740 H 252.526 4.36156 -2.12115 0
M  V30 2741 H 248.405 4.52025 -0.905243 0
M  V30 2742 H 251.949 5.57599 -4.19201 0
M  V30 2743 H 247.846 5.73254 -2.96732 0
M  V30 2744 H 248.614 6.58636 -4.85944 0
M  V30 2745 N 251.277 0.427512 1.51691 0
M  V30 2746 C 252.524 -0.142229 2.02 0
M  V30 2747 C 252.852 -1.43566 1.31221 0
M  V30 2748 O 252.107 -1.91298 0.412744 0
M  V30 2749 C 252.406 -0.418249 3.54944 0
M  V30 2750 C 252.072 0.788187 4.43958 0
M  V30 2751 C 250.734 1.11906 4.68007 0
M  V30 2752 C 253.086 1.59347 4.96244 0
M  V30 2753 C 250.414 2.25608 5.41588 0
M  V30 2754 C 252.766 2.7214 5.71072 0
M  V30 2755 C 251.43 3.05692 5.93387 0
M  V30 2756 H 250.7 -0.0520451 0.73917 0
M  V30 2757 H 253.347 0.572697 1.82736 0
M  V30 2758 H 251.652 -1.21496 3.72486 0
M  V30 2759 H 253.349 -0.872339 3.91397 0
M  V30 2760 H 249.939 0.520344 4.2543 0
M  V30 2761 H 254.123 1.35106 4.77556 0
M  V30 2762 H 249.379 2.51929 5.57083 0
M  V30 2763 H 253.553 3.34914 6.10578 0
M  V30 2764 H 251.18 3.9391 6.50184 0
M  V30 2765 N 252.755 -1.56801 0.158532 0
M  V30 2766 C 254.001 -1.96781 -0.490405 0
M  V30 2767 C 254.334 -1.04397 -1.63753 0
M  V30 2768 O 253.609 -0.0885805 -1.94298 0
M  V30 2769 C 253.892 -3.4635 -0.985594 0
M  V30 2770 C 253.745 -4.49512 0.160824 0
M  V30 2771 C 255.064 -3.98697 -1.86355 0
M  V30 2772 H 252.183 -0.715482 -0.176788 0
M  V30 2773 H 254.825 -1.88451 0.242088 0
M  V30 2774 H 252.975 -3.53579 -1.60978 0
M  V30 2775 H 254.647 -4.54353 0.797537 0
M  V30 2776 H 252.89 -4.26013 0.818256 0
M  V30 2777 H 253.561 -5.51531 -0.227569 0
M  V30 2778 H 256.037 -3.94019 -1.33746 0
M  V30 2779 H 254.913 -5.03792 -2.17909 0
M  V30 2780 H 255.174 -3.41744 -2.8047 0
M  V30 2781 N 254.233 0.115231 -1.57178 0
M  V30 2782 C 255.461 0.836437 -1.89239 0
M  V30 2783 C 255.876 1.73256 -0.750175 0
M  V30 2784 O 255.233 1.80357 0.278832 0
M  V30 2785 C 255.284 1.66671 -3.20785 0
M  V30 2786 O 255.005 0.806652 -4.3061 0
M  V30 2787 C 256.506 2.49274 -3.66575 0
M  V30 2788 H 253.726 0.240253 -0.626514 0
M  V30 2789 H 256.27 0.0984932 -2.04263 0
M  V30 2790 H 254.425 2.35737 -3.0742 0
M  V30 2791 H 254.839 1.37969 -5.06028 0
M  V30 2792 H 256.313 3.03055 -4.6137 0
M  V30 2793 H 256.79 3.26807 -2.93417 0
M  V30 2794 H 257.396 1.85443 -3.82741 0
M  V30 2795 N 255.711 1.52812 0.385517 0
M  V30 2796 C 256.939 1.71907 1.15133 0
M  V30 2797 C 257.354 0.439004 1.83625 0
M  V30 2798 O 256.711 -0.586765 1.7281 0
M  V30 2799 C 256.762 2.87099 2.19673 0
M  V30 2800 O 256.483 4.10151 1.53973 0
M  V30 2801 C 257.984 3.17902 3.08955 0
M  V30 2802 H 255.204 0.575479 0.345057 0
M  V30 2803 H 257.748 1.99476 0.45052 0
M  V30 2804 H 255.903 2.61982 2.85384 0
M  V30 2805 H 256.317 4.74514 2.23465 0
M  V30 2806 H 257.791 4.01959 3.7833 0
M  V30 2807 H 258.268 2.3243 3.72657 0
M  V30 2808 H 258.874 3.44871 2.48885 0
M  V30 2809 N 257.189 -0.644168 1.43834 0
M  V30 2810 C 258.414 -1.43642 1.49605 0
M  V30 2811 C 258.839 -1.8773 0.117913 0
M  V30 2812 O 258.197 -1.57938 -0.890239 0
M  V30 2813 C 258.245 -2.6416 2.45463 0
M  V30 2814 O 257.349 -3.63538 1.94714 0
M  V30 2815 H 256.69 -0.430329 0.50568 0
M  V30 2816 H 259.22 -0.787448 1.8884 0
M  V30 2817 H 259.23 -3.11864 2.63068 0
M  V30 2818 H 257.905 -2.31414 3.45572 0
M  V30 2819 H 256.482 -3.2273 1.86814 0
M  V30 2820 N 258.668 -1.30515 -0.883378 0
M  V30 2821 C 259.631 -1.1701 -1.97082 0
M  V30 2822 C 260.631 -0.10089 -1.60483 0
M  V30 2823 O 261.821 -0.349127 -1.70666 0
M  V30 2824 C 258.953 -0.793045 -3.31547 0
M  V30 2825 H 260.146 -2.13622 -2.10489 0
M  V30 2826 H 257.699 -1.13935 -1.06998 0
M  V30 2827 H 258.434 0.172499 -3.23841 0
M  V30 2828 H 258.219 -1.56576 -3.5948 0
M  V30 2829 H 259.709 -0.722073 -4.1131 0
M  V30 2830 N 260.146 1.09593 -1.13257 0
M  V30 2831 C 261.562 1.33775 -0.870423 0
M  V30 2832 C 261.762 1.95327 0.494926 0
M  V30 2833 O 260.818 2.19853 1.2418 0
M  V30 2834 C 262.131 2.25106 -1.99369 0
M  V30 2835 C 263.679 2.3862 -2.02558 0
M  V30 2836 C 264.154 3.33285 -3.14142 0
M  V30 2837 N 265.645 3.40857 -3.13641 0
M  V30 2838 C 266.38 4.14101 -3.96621 0
M  V30 2839 N 265.876 4.90157 -4.8961 0
M  V30 2840 N 267.669 4.09808 -3.84726 0
M  V30 2841 H 259.82 0.680136 -2.01216 0
M  V30 2842 H 262.083 0.362133 -0.876107 0
M  V30 2843 H 261.789 1.87103 -2.97801 0
M  V30 2844 H 261.663 3.25481 -1.90635 0
M  V30 2845 H 264.05 2.75887 -1.0474 0
M  V30 2846 H 264.131 1.38028 -2.15364 0
M  V30 2847 H 263.775 2.96741 -4.12198 0
M  V30 2848 H 263.705 4.33776 -2.98574 0
M  V30 2849 H 266.196 2.86624 -2.46282 0
M  V30 2850 H 266.509 5.4347 -5.49418 0
M  V30 2851 H 264.854 4.89251 -4.93617 0
M  V30 2852 H 268.045 3.4949 -3.11408 0
M  V30 2853 H 268.218 4.66629 -4.49623 0
M  V30 2854 N 261.624 0.925811 1.2754 0
M  V30 2855 C 262.872 0.564138 1.94067 0
M  V30 2856 C 263.193 -0.897188 1.73134 0
M  V30 2857 O 262.463 -1.63573 1.07799 0
M  V30 2858 H 261.043 0.205645 0.718136 0
M  V30 2859 H 263.705 1.1778 1.55287 0
M  V30 2860 H 262.801 0.76881 3.02483 0
M  V30 2861 N 263.102 -1.41638 0.69111 0
M  V30 2862 C 264.35 -2.00902 0.219758 0
M  V30 2863 C 264.671 -1.54994 -1.18329 0
M  V30 2864 O 263.941 -0.778628 -1.79762 0
M  V30 2865 H 262.521 -0.74289 0.0782558 0
M  V30 2866 H 265.183 -1.73327 0.891271 0
M  V30 2867 H 264.279 -3.11224 0.233708 0
M  V30 2868 N 264.58 -0.43555 -1.51462 0
M  V30 2869 C 265.996 -0.0877501 -1.59359 0
M  V30 2870 C 266.196 1.4027 -1.4466 0
M  V30 2871 O 265.252 2.17243 -1.28693 0
M  V30 2872 C 266.565 -0.606264 -2.94525 0
M  V30 2873 C 268.113 -0.566548 -3.0783 0
M  V30 2874 C 268.588 -1.06201 -4.45517 0
M  V30 2875 N 270.079 -1.01992 -4.51832 0
M  V30 2876 C 270.814 -1.37417 -5.5669 0
M  V30 2877 N 270.31 -1.80119 -6.68976 0
M  V30 2878 N 272.103 -1.29245 -5.47039 0
M  V30 2879 H 264.254 -1.40533 -1.59261 0
M  V30 2880 H 266.517 -0.578992 -0.750648 0
M  V30 2881 H 266.223 -1.64901 -3.10645 0
M  V30 2882 H 266.097 -0.0302097 -3.77188 0
M  V30 2883 H 268.484 0.467208 -2.91378 0
M  V30 2884 H 268.565 -1.17898 -2.2701 0
M  V30 2885 H 268.209 -2.09422 -4.62715 0
M  V30 2886 H 268.139 -0.426127 -5.24873 0
M  V30 2887 H 270.63 -0.706308 -3.71241 0
M  V30 2888 H 270.943 -2.05392 -7.45006 0
M  V30 2889 H 269.288 -1.84044 -6.70189 0
M  V30 2890 H 272.479 -0.957522 -4.58202 0
M  V30 2891 H 272.652 -1.57182 -6.28648 0
M  V30 2892 N 266.058 1.56714 -0.166846 0
M  V30 2893 C 267.304 1.97039 0.479962 0
M  V30 2894 C 267.637 1.05264 1.63197 0
M  V30 2895 O 266.912 0.0988833 1.94248 0
M  V30 2896 C 267.195 3.46867 0.967212 0
M  V30 2897 C 267.048 4.49421 -0.18466 0
M  V30 2898 C 268.367 3.9968 1.84238 0
M  V30 2899 H 265.486 0.71641 0.172992 0
M  V30 2900 H 268.128 1.8832 -0.252079 0
M  V30 2901 H 266.278 3.54428 1.59101 0
M  V30 2902 H 267.95 4.53924 -0.821621 0
M  V30 2903 H 266.193 4.25573 -0.840837 0
M  V30 2904 H 266.864 5.51644 0.198317 0
M  V30 2905 H 269.34 3.94723 1.31655 0
M  V30 2906 H 268.216 5.04941 2.15234 0
M  V30 2907 H 268.477 3.43226 2.78654 0
M  V30 2908 N 267.536 -0.106894 1.57237 0
M  V30 2909 C 268.764 -0.826389 1.8968 0
M  V30 2910 C 269.179 -1.72856 0.759353 0
M  V30 2911 O 268.536 -1.80503 -0.269263 0
M  V30 2912 C 268.587 -1.64967 3.21665 0
M  V30 2913 O 268.308 -0.783804 4.31031 0
M  V30 2914 C 269.809 -2.47326 3.67892 0
M  V30 2915 H 267.029 -0.236927 0.627779 0
M  V30 2916 H 269.573 -0.0876593 2.04312 0
M  V30 2917 H 267.728 -2.34103 3.08666 0
M  V30 2918 H 268.142 -1.35284 5.06753 0
M  V30 2919 H 269.616 -3.00604 4.6297 0
M  V30 2920 H 270.093 -3.25247 2.95146 0
M  V30 2921 H 270.699 -1.83411 3.83719 0
M  V30 2922 N 269.014 -1.53014 -0.377408 0
M  V30 2923 C 270.254 -1.70318 -1.1301 0
M  V30 2924 C 270.618 -0.439538 -1.86901 0
M  V30 2925 O 271.819 -0.489095 -2.64313 0
M  V30 2926 C 270.09 -2.91125 -2.07319 0
M  V30 2927 S 271.649 -3.29075 -2.90268 0
M  V30 2928 H 268.467 -0.599426 -0.382374 0
M  V30 2929 H 271.069 -1.91089 -0.412933 0
M  V30 2930 H 269.773 -3.81303 -1.51777 0
M  V30 2931 H 269.304 -2.7272 -2.83526 0
M  V30 2932 H 271.319 -2.80165 -4.09539 0
M  V30 2933 N 270.492 0.636531 -1.44174 0
M  V30 2934 C 271.442 1.74233 -1.47061 0
M  V30 2935 C 272.426 1.57331 -0.337034 0
M  V30 2936 O 273.618 1.67159 -0.581973 0
M  V30 2937 C 270.747 3.12897 -1.41246 0
M  V30 2938 C 269.833 3.35288 -2.59698 0
M  V30 2939 N 270.224 3.2807 -3.84972 0
M  V30 2940 C 268.522 3.66065 -2.54778 0
M  V30 2941 C 269.223 3.51001 -4.63867 0
M  V30 2942 N 268.199 3.73616 -3.94857 0
M  V30 2943 H 272.001 1.67103 -2.41773 0
M  V30 2944 H 269.515 0.838806 -1.3906 0
M  V30 2945 H 271.512 3.92189 -1.41398 0
M  V30 2946 H 270.172 3.21197 -0.47569 0
M  V30 2947 H 271.183 3.07109 -4.17019 0
M  V30 2948 H 267.86 3.81379 -1.6987 0
M  V30 2949 H 269.25 3.51059 -5.72894 0
M  V30 2950 N 271.97 1.30982 0.876444 0
M  V30 2951 C 273.247 1.10942 1.61094 0
M  V30 2952 C 273.627 -0.338223 2.08373 0
M  V30 2953 O 272.975 -1.33122 1.85717 0
M  V30 2954 C 273.185 2.11789 2.77392 0
M  V30 2955 C 274.533 2.43965 3.47514 0
M  V30 2956 O 275.557 2.10166 2.87591 0
M  V30 2957 O 274.416 3.01817 4.55597 0
M  V30 2958 H 271.51 0.42667 0.708436 0
M  V30 2959 H 274.056 1.42438 0.922474 0
M  V30 2960 H 272.828 3.09194 2.39823 0
M  V30 2961 H 272.451 1.81161 3.5393 0
M  V30 2962 N 273.449 -1.08991 1.13837 0
M  V30 2963 C 274.677 -1.85011 0.926202 0
M  V30 2964 C 275.092 -1.8135 -0.525127 0
M  V30 2965 O 274.449 -1.21287 -1.36366 0
M  V30 2966 C 274.5 -3.32802 1.41155 0
M  V30 2967 O 274.221 -3.36444 2.80601 0
M  V30 2968 C 275.722 -4.25649 1.23847 0
M  V30 2969 H 272.942 -0.584249 0.32999 0
M  V30 2970 H 275.486 -1.37688 1.51202 0
M  V30 2971 H 273.641 -3.77536 0.868631 0
M  V30 2972 H 274.055 -4.28657 3.02248 0
M  V30 2973 H 275.529 -5.27485 1.62675 0
M  V30 2974 H 276.006 -4.38828 0.18065 0
M  V30 2975 H 276.612 -3.86735 1.76964 0
M  V30 2976 N 274.927 -0.932562 -1.27047 0
M  V30 2977 C 276.152 -0.591474 -1.98787 0
M  V30 2978 C 276.577 0.824601 -1.69062 0
M  V30 2979 O 275.935 1.5541 -0.933677 0
M  V30 2980 C 275.983 -0.829808 -3.50922 0
M  V30 2981 O 275.087 0.102266 -4.12273 0
M  V30 2982 H 274.428 -0.227185 -0.623926 0
M  V30 2983 H 276.958 -1.25314 -1.61733 0
M  V30 2984 H 276.968 -0.747292 -4.01098 0
M  V30 2985 H 275.643 -1.86201 -3.7189 0
M  V30 2986 H 274.22 -0.0305761 -3.72887 0
M  V30 2987 N 276.405 1.4127 -0.698611 0
M  V30 2988 C 277.368 2.29158 -0.044132 0
M  V30 2989 C 278.368 1.44529 0.704841 0
M  V30 2990 O 279.558 1.65643 0.539276 0
M  V30 2991 C 276.69 3.27459 0.947809 0
M  V30 2992 H 277.883 2.88529 -0.817994 0
M  V30 2993 H 275.436 1.49307 -0.46228 0
M  V30 2994 H 276.171 2.73073 1.74933 0
M  V30 2995 H 275.956 3.8991 0.41385 0
M  V30 2996 H 277.446 3.93311 1.40344 0
M  V30 2997 N 277.883 0.443576 1.51229 0
M  V30 2998 C 279.294 -0.0180867 1.86691 0
M  V30 2999 C 279.645 -1.41384 1.36033 0
M  V30 3000 O 278.77 -2.04291 0.713722 0
M  V30 3001 C 279.365 -0.039597 3.38777 0
M  V30 3002 C 277.924 -0.445692 3.73752 0
M  V30 3003 C 277.071 0.357584 2.74985 0
M  V30 3004 H 280.022 0.659138 1.44364 0
M  V30 3005 H 280.043 -0.847761 3.70936 0
M  V30 3006 H 279.555 0.976382 3.75617 0
M  V30 3007 H 277.656 -1.46704 3.42503 0
M  V30 3008 H 277.769 -0.166155 4.78812 0
M  V30 3009 H 276.133 -0.184973 2.54027 0
M  V30 3010 H 276.916 1.37256 3.14668 0
M  V30 3011 N 279.361 -1.56624 0.175154 0
M  V30 3012 C 280.271 -2.21741 -0.766042 0
M  V30 3013 C 281.287 -1.21023 -1.25018 0
M  V30 3014 O 282.463 -1.53697 -1.3015 0
M  V30 3015 C 279.528 -2.84839 -1.97655 0
M  V30 3016 C 278.589 -4.00769 -1.53892 0
M  V30 3017 C 277.822 -4.60849 -2.69173 0
M  V30 3018 O 278.045 -4.19823 -3.86141 0
M  V30 3019 O 276.979 -5.50655 -2.43028 0
M  V30 3020 H 280.805 -3.02738 -0.241585 0
M  V30 3021 H 278.39 -1.49305 -0.053222 0
M  V30 3022 H 280.272 -3.24834 -2.68442 0
M  V30 3023 H 278.947 -2.06836 -2.48999 0
M  V30 3024 H 277.854 -3.65436 -0.80044 0
M  V30 3025 H 279.187 -4.80376 -1.07236 0
M  V30 3026 N 280.839 0.0985539 -1.57292 0
M  V30 3027 C 281.769 1.12064 -2.04851 0
M  V30 3028 C 282.75 1.41981 -0.936767 0
M  V30 3029 O 283.935 1.52071 -1.20781 0
M  V30 3030 C 281.065 2.44144 -2.47004 0
M  V30 3031 C 280.019 2.28643 -3.6181 0
M  V30 3032 C 279.345 3.65869 -3.89929 0
M  V30 3033 C 280.645 1.72986 -4.92822 0
M  V30 3034 H 282.339 0.724979 -2.9049 0
M  V30 3035 H 279.885 0.34729 -1.39749 0
M  V30 3036 H 281.838 3.15914 -2.78884 0
M  V30 3037 H 280.562 2.85639 -1.5836 0
M  V30 3038 H 279.221 1.59318 -3.30172 0
M  V30 3039 H 278.869 4.04885 -2.98458 0
M  V30 3040 H 278.569 3.56344 -4.67218 0
M  V30 3041 H 280.093 4.39112 -4.2428 0
M  V30 3042 H 281.507 2.34593 -5.23105 0
M  V30 3043 H 279.904 1.74229 -5.74251 0
M  V30 3044 H 280.974 0.689007 -4.7998 0
M  V30 3045 N 282.317 1.53212 0.369288 0
M  V30 3046 C 283.564 1.69215 1.11232 0
M  V30 3047 C 283.892 0.442048 1.8941 0
M  V30 3048 O 283.147 -0.575944 1.87033 0
M  V30 3049 C 283.446 2.89101 2.10132 0
M  V30 3050 C 283.112 4.25758 1.48463 0
M  V30 3051 C 281.774 4.6292 1.31372 0
M  V30 3052 C 284.126 5.10757 1.03811 0
M  V30 3053 C 281.454 5.82722 0.68207 0
M  V30 3054 C 283.806 6.31201 0.420487 0
M  V30 3055 C 282.47 6.67079 0.237038 0
M  V30 3056 H 281.74 0.619201 0.407027 0
M  V30 3057 H 284.387 1.87391 0.394552 0
M  V30 3058 H 282.692 2.65421 2.88199 0
M  V30 3059 H 284.389 2.98676 2.6757 0
M  V30 3060 H 280.979 3.96494 1.62758 0
M  V30 3061 H 285.163 4.82599 1.1581 0
M  V30 3062 H 280.419 6.09113 0.528316 0
M  V30 3063 H 284.593 6.96368 0.0662874 0
M  V30 3064 H 282.22 7.59774 -0.254477 0
M  V30 3065 N 283.795 -0.628877 1.44509 0
M  V30 3066 C 285.02 -1.42048 1.5112 0
M  V30 3067 C 285.445 -1.87594 0.137818 0
M  V30 3068 O 284.803 -1.58873 -0.873437 0
M  V30 3069 C 284.851 -2.61541 2.48251 0
M  V30 3070 O 283.955 -3.61453 1.98559 0
M  V30 3071 H 283.296 -0.424942 0.510216 0
M  V30 3072 H 285.826 -0.767374 1.89664 0
M  V30 3073 H 285.836 -3.09057 2.66361 0
M  V30 3074 H 284.511 -2.27736 3.48007 0
M  V30 3075 H 283.088 -3.20731 1.90227 0
M  V30 3076 N 285.273 -1.31445 -0.869486 0
M  V30 3077 C 286.689 -1.10113 -1.15531 0
M  V30 3078 C 286.889 0.128087 -2.01092 0
M  V30 3079 O 285.945 0.817276 -2.38908 0
M  V30 3080 C 287.258 -2.37291 -1.84698 0
M  V30 3081 C 288.806 -2.42906 -1.97397 0
M  V30 3082 C 289.281 -3.69967 -2.69979 0
M  V30 3083 N 290.772 -3.70864 -2.77514 0
M  V30 3084 C 291.507 -4.65875 -3.34287 0
M  V30 3085 N 291.003 -5.71242 -3.91988 0
M  V30 3086 N 292.796 -4.53394 -3.3225 0
M  V30 3087 H 284.947 -2.1028 -0.299347 0
M  V30 3088 H 287.21 -0.927683 -0.195214 0
M  V30 3089 H 286.916 -3.27078 -1.29278 0
M  V30 3090 H 286.79 -2.47125 -2.84972 0
M  V30 3091 H 289.177 -1.53588 -2.51982 0
M  V30 3092 H 289.258 -2.37036 -0.961643 0
M  V30 3093 H 288.902 -4.59652 -2.16062 0
M  V30 3094 H 288.832 -3.73103 -3.7162 0
M  V30 3095 H 291.323 -2.94697 -2.36563 0
M  V30 3096 H 291.636 -6.39817 -4.33421 0
M  V30 3097 H 289.981 -5.75015 -3.90362 0
M  V30 3098 H 293.172 -3.70252 -2.8641 0
M  V30 3099 H 293.345 -5.27617 -3.76197 0
M  V30 3100 N 286.751 1.08385 -1.14413 0
M  V30 3101 C 287.998 1.80776 -0.912482 0
M  V30 3102 C 288.326 1.86236 0.560934 0
M  V30 3103 O 287.581 1.33431 1.43159 0
M  V30 3104 C 287.88 3.26273 -1.45879 0
M  V30 3105 C 287.546 3.4093 -2.95089 0
M  V30 3106 C 286.208 3.44638 -3.35824 0
M  V30 3107 C 288.56 3.44591 -3.91033 0
M  V30 3108 C 285.888 3.49597 -4.71167 0
M  V30 3109 C 288.24 3.51086 -5.26233 0
M  V30 3110 C 286.904 3.53067 -5.6648 0
M  V30 3111 H 286.174 0.661507 -0.333901 0
M  V30 3112 H 288.821 1.27613 -1.42784 0
M  V30 3113 H 287.126 3.82146 -0.864376 0
M  V30 3114 H 288.823 3.80839 -1.2555 0
M  V30 3115 H 285.413 3.38736 -2.62594 0
M  V30 3116 H 289.597 3.40957 -3.60641 0
M  V30 3117 H 284.853 3.49424 -5.0171 0
M  V30 3118 H 289.027 3.52864 -6.00383 0
M  V30 3119 H 286.654 3.56662 -6.71339 0
M  V30 3120 N 288.23 0.939286 1.26551 0
M  V30 3121 C 289.476 0.586715 1.94128 0
M  V30 3122 C 289.809 -0.8717 1.73537 0
M  V30 3123 O 289.084 -1.62339 1.07127 0
M  V30 3124 C 289.367 0.927497 3.4795 0
M  V30 3125 C 289.22 2.44052 3.77834 0
M  V30 3126 C 290.539 0.441569 4.37879 0
M  V30 3127 H 287.658 0.21463 0.705055 0
M  V30 3128 H 290.3 1.17316 1.49455 0
M  V30 3129 H 288.45 0.428431 3.8613 0
M  V30 3130 H 290.122 3.01216 3.4938 0
M  V30 3131 H 288.365 2.8848 3.23978 0
M  V30 3132 H 289.036 2.62947 4.85348 0
M  V30 3133 H 291.512 0.869448 4.06915 0
M  V30 3134 H 290.388 0.708856 5.44304 0
M  V30 3135 H 290.649 -0.658467 4.37169 0
M  V30 3136 N 289.708 -1.40897 0.706093 0
M  V30 3137 C 290.671 -2.29131 0.0562841 0
M  V30 3138 C 291.671 -1.44901 -0.697166 0
M  V30 3139 O 292.861 -1.65926 -0.530484 0
M  V30 3140 C 289.993 -3.27957 -0.93043 0
M  V30 3141 H 291.186 -2.88091 0.833284 0
M  V30 3142 H 288.739 -1.4906 0.470192 0
M  V30 3143 H 289.474 -2.73997 -1.73482 0
M  V30 3144 H 289.259 -3.90124 -0.393166 0
M  V30 3145 H 290.749 -3.94049 -1.38256 0
M  V30 3146 N 291.186 -0.45159 -1.50991 0
M  V30 3147 C 292.416 0.108177 -2.06317 0
M  V30 3148 C 292.824 1.35774 -1.31765 0
M  V30 3149 O 292.167 1.79838 -0.374694 0
M  V30 3150 C 292.229 0.481659 -3.56259 0
M  V30 3151 C 291.893 -0.663114 -4.52163 0
M  V30 3152 C 292.89 -1.53947 -4.96585 0
M  V30 3153 C 290.575 -0.8479 -4.95092 0
M  V30 3154 C 292.569 -2.58518 -5.82621 0
M  V30 3155 C 290.256 -1.89686 -5.80915 0
M  V30 3156 C 291.254 -2.76388 -6.24579 0
M  V30 3157 O 290.942 -3.79482 -7.08695 0
M  V30 3158 H 290.674 0.00499183 -0.675982 0
M  V30 3159 H 293.228 -0.633659 -1.95381 0
M  V30 3160 H 291.458 1.27641 -3.65027 0
M  V30 3161 H 293.147 0.974233 -3.94035 0
M  V30 3162 H 293.913 -1.4083 -4.64103 0
M  V30 3163 H 289.792 -0.18258 -4.60638 0
M  V30 3164 H 293.336 -3.26224 -6.16623 0
M  V30 3165 H 289.233 -2.02817 -6.12809 0
M  V30 3166 H 290.001 -3.76234 -7.26905 0
M  V30 3167 N 292.664 1.56529 -0.183458 0
M  V30 3168 C 293.889 2.02064 0.467428 0
M  V30 3169 C 294.314 1.06282 1.55196 0
M  V30 3170 O 293.672 0.0443565 1.81246 0
M  V30 3171 C 293.72 3.46122 1.01153 0
M  V30 3172 O 292.824 3.53437 2.12499 0
M  V30 3173 H 292.165 0.654726 0.110588 0
M  V30 3174 H 294.695 2.02521 -0.290917 0
M  V30 3175 H 294.705 3.85676 1.33108 0
M  V30 3176 H 293.38 4.15331 0.217533 0
M  V30 3177 H 291.957 3.2575 1.81497 0
M  V30 3178 N 294.142 -0.090211 1.57342 0
M  V30 3179 C 295.367 -0.810082 1.90925 0
M  V30 3180 C 295.792 -1.71248 0.778187 0
M  V30 3181 O 295.15 -1.79278 -0.269991 0
M  V30 3182 C 295.198 -1.59529 3.23393 0
M  V30 3183 O 294.302 -2.70461 3.11327 0
M  V30 3184 H 293.643 -0.222231 0.625707 0
M  V30 3185 H 296.173 -0.0639716 2.045 0
M  V30 3186 H 296.183 -1.97847 3.5682 0
M  V30 3187 H 294.858 -0.933055 4.05299 0
M  V30 3188 H 293.435 -2.35135 2.89423 0
M  V30 3189 N 295.62 -1.53406 -0.361157 0
M  V30 3190 C 296.866 -1.70054 -1.10496 0
M  V30 3191 C 297.199 -0.453278 -1.88836 0
M  V30 3192 O 296.474 0.5495 -1.86576 0
M  V30 3193 C 296.757 -2.95317 -2.06058 0
M  V30 3194 C 296.61 -4.3021 -1.31298 0
M  V30 3195 C 297.929 -3.16193 -3.06121 0
M  V30 3196 H 295.048 -0.618799 -0.400321 0
M  V30 3197 H 297.69 -1.86052 -0.385318 0
M  V30 3198 H 295.84 -2.81809 -2.67425 0
M  V30 3199 H 297.512 -4.55538 -0.726807 0
M  V30 3200 H 295.755 -4.29421 -0.614853 0
M  V30 3201 H 296.426 -5.14 -2.01265 0
M  V30 3202 H 298.902 -3.28916 -2.5486 0
M  V30 3203 H 297.778 -4.05266 -3.70204 0
M  V30 3204 H 298.039 -2.31676 -3.76535 0
M  V30 3205 N 297.098 0.621204 -1.44841 0
M  V30 3206 C 298.031 1.7459 -1.46947 0
M  V30 3207 C 299.009 1.59273 -0.327238 0
M  V30 3208 O 300.193 1.81021 -0.525706 0
M  V30 3209 C 297.32 3.12274 -1.31159 0
M  V30 3210 C 296.366 3.46216 -2.49072 0
M  V30 3211 S 297.199 3.4258 -4.11581 0
M  V30 3212 C 298.355 4.82867 -3.98233 0
M  V30 3213 H 298.588 1.72538 -2.42111 0
M  V30 3214 H 296.121 0.796683 -1.32259 0
M  V30 3215 H 298.079 3.91722 -1.22737 0
M  V30 3216 H 296.74 3.11855 -0.374885 0
M  V30 3217 H 295.933 4.4643 -2.33915 0
M  V30 3218 H 295.535 2.74253 -2.54286 0
M  V30 3219 H 297.827 5.7234 -3.62537 0
M  V30 3220 H 298.77 5.0308 -4.98313 0
M  V30 3221 H 299.178 4.57908 -3.30121 0
M  V30 3222 N 298.576 1.31904 0.862503 0
M  V30 3223 C 299.506 1.22782 1.98612 0
M  V30 3224 C 300.487 0.113362 1.69722 0
M  V30 3225 O 301.672 0.299218 1.91881 0
M  V30 3226 C 298.802 0.942058 3.34279 0
M  V30 3227 C 297.756 2.0169 3.77499 0
M  V30 3228 C 297.082 1.58369 5.10709 0
M  V30 3229 C 298.382 3.43096 3.93805 0
M  V30 3230 H 300.076 2.16788 2.06502 0
M  V30 3231 H 297.622 1.04366 0.992154 0
M  V30 3232 H 299.575 0.864818 4.1243 0
M  V30 3233 H 298.299 -0.0336603 3.26583 0
M  V30 3234 H 296.958 2.08416 3.01593 0
M  V30 3235 H 296.606 0.595628 4.99461 0
M  V30 3236 H 296.306 2.30279 5.40597 0
M  V30 3237 H 297.83 1.52067 5.91361 0
M  V30 3238 H 299.244 3.39003 4.62331 0
M  V30 3239 H 297.641 4.13288 4.35101 0
M  V30 3240 H 298.711 3.83334 2.96957 0
M  V30 3241 N 300.054 -1.07777 1.14986 0
M  V30 3242 C 301.302 -1.79934 0.920235 0
M  V30 3243 C 301.623 -1.86955 -0.554336 0
M  V30 3244 O 300.893 -1.36731 -1.40291 0
M  V30 3245 H 299.473 -0.666424 0.337473 0
M  V30 3246 H 302.135 -1.3027 1.44968 0
M  V30 3247 H 301.231 -2.82539 1.32583 0
M  V30 3248 N 301.532 -0.945985 -1.26051 0
M  V30 3249 C 302.462 -0.477172 -2.28572 0
M  V30 3250 C 303.443 0.472032 -1.63419 0
M  V30 3251 O 304.628 0.372853 -1.90587 0
M  V30 3252 C 301.758 0.253975 -3.4637 0
M  V30 3253 C 300.712 -0.609135 -4.23643 0
M  V30 3254 C 300.038 0.252252 -5.34105 0
M  V30 3255 C 301.338 -1.8829 -4.8718 0
M  V30 3256 H 303.032 -1.33402 -2.68038 0
M  V30 3257 H 300.578 -0.642904 -1.28852 0
M  V30 3258 H 302.531 0.593016 -4.17207 0
M  V30 3259 H 301.255 1.145 -3.05871 0
M  V30 3260 H 299.914 -0.931138 -3.54578 0
M  V30 3261 H 299.562 1.14278 -4.89846 0
M  V30 3262 H 299.262 -0.32188 -5.86718 0
M  V30 3263 H 300.786 0.586454 -6.07777 0
M  V30 3264 H 302.2 -1.61081 -5.50205 0
M  V30 3265 H 300.597 -2.40199 -5.49931 0
M  V30 3266 H 301.667 -2.59134 -4.09851 0
M  V30 3267 N 303.011 1.40521 -0.713556 0
M  V30 3268 C 303.941 2.33381 -0.0743864 0
M  V30 3269 C 304.922 1.52784 0.747735 0
M  V30 3270 O 306.107 1.81258 0.697071 0
M  V30 3271 C 303.237 3.36748 0.849598 0
M  V30 3272 C 302.191 4.27793 0.133247 0
M  V30 3273 C 301.517 5.21679 1.17281 0
M  V30 3274 C 302.817 5.12415 -1.01134 0
M  V30 3275 H 304.511 2.87081 -0.850007 0
M  V30 3276 H 302.057 1.38034 -0.410201 0
M  V30 3277 H 304.01 4.00648 1.30612 0
M  V30 3278 H 302.734 2.81439 1.65709 0
M  V30 3279 H 301.393 3.65342 -0.303426 0
M  V30 3280 H 301.041 4.62677 1.9733 0
M  V30 3281 H 300.741 5.83435 0.698397 0
M  V30 3282 H 302.265 5.88456 1.62947 0
M  V30 3283 H 303.679 5.69781 -0.634274 0
M  V30 3284 H 302.076 5.83203 -1.41399 0
M  V30 3285 H 303.146 4.48514 -1.84292 0
M  V30 3286 N 304.489 0.459591 1.5075 0
M  V30 3287 C 305.736 -0.0993495 2.02256 0
M  V30 3288 C 306.064 -1.40751 1.34237 0
M  V30 3289 O 305.319 -1.90379 0.453228 0
M  V30 3290 C 305.618 -0.342866 3.55752 0
M  V30 3291 C 305.284 0.88218 4.42186 0
M  V30 3292 C 303.946 1.21808 4.65528 0
M  V30 3293 C 306.298 1.69837 4.92752 0
M  V30 3294 C 303.626 2.37045 5.36681 0
M  V30 3295 C 305.978 2.84192 5.65171 0
M  V30 3296 C 304.642 3.1821 5.8677 0
M  V30 3297 H 303.912 -0.0363545 0.740108 0
M  V30 3298 H 306.559 0.611329 1.8148 0
M  V30 3299 H 304.864 -1.13567 3.7498 0
M  V30 3300 H 306.561 -0.789121 3.93159 0
M  V30 3301 H 303.151 0.610467 4.2423 0
M  V30 3302 H 307.335 1.45205 4.74583 0
M  V30 3303 H 302.591 2.63689 5.51614 0
M  V30 3304 H 306.765 3.4779 6.03337 0
M  V30 3305 H 304.392 4.07613 6.41682 0
M  V30 3306 N 305.967 -1.56429 0.191757 0
M  V30 3307 C 306.93 -2.17707 -0.716688 0
M  V30 3308 C 307.93 -1.13061 -1.14341 0
M  V30 3309 O 309.12 -1.38464 -1.05704 0
M  V30 3310 C 306.252 -2.77644 -1.97804 0
M  V30 3311 H 307.445 -2.99342 -0.1829 0
M  V30 3312 H 304.998 -1.56193 -0.0578566 0
M  V30 3313 H 305.733 -1.99799 -2.55443 0
M  V30 3314 H 305.518 -3.54246 -1.68083 0
M  V30 3315 H 307.008 -3.24708 -2.62592 0
M  V30 3316 N 307.445 0.0818655 -1.57387 0
M  V30 3317 C 308.691 0.784074 -1.8703 0
M  V30 3318 C 309.024 1.77729 -0.782689 0
M  V30 3319 O 308.299 1.93384 0.208051 0
M  V30 3320 C 308.582 1.50105 -3.27323 0
M  V30 3321 C 308.435 0.524925 -4.46727 0
M  V30 3322 C 309.754 2.44843 -3.65705 0
M  V30 3323 H 306.873 0.283582 -0.680257 0
M  V30 3324 H 309.515 0.0474352 -1.89941 0
M  V30 3325 H 307.665 2.12897 -3.24972 0
M  V30 3326 H 309.337 -0.0970111 -4.61198 0
M  V30 3327 H 307.58 -0.160606 -4.33503 0
M  V30 3328 H 308.251 1.064 -5.41648 0
M  V30 3329 H 310.727 1.92135 -3.69085 0
M  V30 3330 H 309.603 2.92018 -4.64776 0
M  V30 3331 H 309.864 3.29197 -2.95096 0
M  V30 3332 N 308.923 1.53595 0.353017 0
M  V30 3333 C 310.334 1.61937 0.929153 0
M  V30 3334 C 310.685 0.494686 1.89861 0
M  V30 3335 O 309.81 -0.377017 2.1309 0
M  V30 3336 C 310.405 2.93526 1.69199 0
M  V30 3337 C 308.964 3.04161 2.21727 0
M  V30 3338 C 308.111 2.57322 1.03348 0
M  V30 3339 H 311.062 1.58155 0.131431 0
M  V30 3340 H 311.083 2.82034 2.55416 0
M  V30 3341 H 310.595 3.75362 0.986144 0
M  V30 3342 H 308.696 2.26938 2.95516 0
M  V30 3343 H 308.809 4.09465 2.48748 0
M  V30 3344 H 307.173 2.12499 1.40414 0
M  V30 3345 H 307.956 3.41588 0.342428 0
M  V30 3346 N 310.401 -0.613514 1.45168 0
M  V30 3347 C 311.648 -1.37268 1.48875 0
M  V30 3348 C 311.976 -1.94077 0.128161 0
M  V30 3349 O 311.231 -1.75178 -0.872416 0
M  V30 3350 C 311.53 -2.54347 2.51083 0
M  V30 3351 C 311.196 -2.1572 3.95949 0
M  V30 3352 C 309.858 -2.04899 4.35396 0
M  V30 3353 C 312.21 -1.85485 4.87078 0
M  V30 3354 C 309.538 -1.62057 5.63875 0
M  V30 3355 C 311.89 -1.4413 6.15962 0
M  V30 3356 C 310.554 -1.31863 6.54346 0
M  V30 3357 H 309.824 -0.502299 0.544773 0
M  V30 3358 H 312.471 -0.694021 1.78481 0
M  V30 3359 H 310.776 -3.27524 2.15024 0
M  V30 3360 H 312.473 -3.12577 2.51191 0
M  V30 3361 H 309.063 -2.25066 3.64751 0
M  V30 3362 H 313.247 -1.92745 4.57343 0
M  V30 3363 H 308.503 -1.51177 5.92415 0
M  V30 3364 H 312.677 -1.19778 6.86022 0
M  V30 3365 H 310.304 -0.984392 7.538 0
M  V30 3366 N 311.879 -1.3236 -0.855495 0
M  V30 3367 C 312.842 -1.21164 -1.94556 0
M  V30 3368 C 313.842 -0.134908 -1.60233 0
M  V30 3369 O 315.032 -0.385249 -1.69887 0
M  V30 3370 C 312.164 -0.863192 -3.29791 0
M  V30 3371 H 313.357 -2.18038 -2.05911 0
M  V30 3372 H 310.91 -1.16179 -1.04557 0
M  V30 3373 H 311.645 0.103769 -3.24134 0
M  V30 3374 H 311.43 -1.64166 -3.56078 0
M  V30 3375 H 312.92 -0.809156 -4.09686 0
M  V30 3376 N 313.357 1.07166 -1.15556 0
M  V30 3377 C 314.603 1.80065 -0.932984 0
M  V30 3378 C 314.936 1.86586 0.53845 0
M  V30 3379 O 314.211 1.35098 1.39924 0
M  V30 3380 C 314.494 3.25022 -1.55025 0
M  V30 3381 C 314.347 3.26634 -3.09242 0
M  V30 3382 C 315.666 4.22341 -1.2376 0
M  V30 3383 H 312.785 0.653697 -0.340366 0
M  V30 3384 H 315.427 1.25389 -1.4275 0
M  V30 3385 H 313.577 3.71712 -1.12972 0
M  V30 3386 H 315.249 2.88173 -3.60214 0
M  V30 3387 H 313.492 2.65539 -3.43033 0
M  V30 3388 H 314.163 4.28854 -3.47546 0
M  V30 3389 H 316.639 3.8405 -1.60139 0
M  V30 3390 H 315.515 5.22053 -1.69564 0
M  V30 3391 H 315.776 4.41828 -0.154938 0
M  V30 3392 N 314.835 0.952656 1.25548 0
M  V30 3393 C 316.084 0.602053 1.92505 0
M  V30 3394 C 316.397 -0.864663 1.75451 0
M  V30 3395 O 317.603 -1.32514 2.36965 0
M  V30 3396 C 316.059 1.02607 3.44963 0
M  V30 3397 C 315.667 2.51519 3.70732 0
M  V30 3398 C 317.411 0.747905 4.1786 0
M  V30 3399 C 315.318 2.87732 5.16686 0
M  V30 3400 H 314.248 0.22146 0.720744 0
M  V30 3401 H 316.899 1.15684 1.42441 0
M  V30 3402 H 315.281 0.399712 3.93978 0
M  V30 3403 H 316.455 3.19157 3.32378 0
M  V30 3404 H 314.77 2.76786 3.11092 0
M  V30 3405 H 317.367 0.994647 5.25367 0
M  V30 3406 H 317.71 -0.315629 4.15102 0
M  V30 3407 H 318.243 1.33452 3.74747 0
M  V30 3408 H 314.982 3.93095 5.24554 0
M  V30 3409 H 314.502 2.24765 5.56094 0
M  V30 3410 H 316.181 2.76817 5.84792 0
M  V30 3411 N 316.313 -1.40141 0.720998 0
M  V30 3412 C 317.243 -2.33339 0.0867621 0
M  V30 3413 C 318.224 -1.53178 -0.739622 0
M  V30 3414 O 319.409 -1.81625 -0.687449 0
M  V30 3415 C 316.539 -3.37194 -0.831728 0
M  V30 3416 C 315.493 -4.27857 -0.110558 0
M  V30 3417 C 314.819 -5.22294 -1.14513 0
M  V30 3418 C 316.119 -5.11872 1.0385 0
M  V30 3419 H 317.813 -2.86626 0.865219 0
M  V30 3420 H 315.359 -1.37814 0.417516 0
M  V30 3421 H 317.312 -4.01335 -1.28485 0
M  V30 3422 H 316.036 -2.82314 -1.64214 0
M  V30 3423 H 314.695 -3.65176 0.322797 0
M  V30 3424 H 314.343 -4.63717 -1.94874 0
M  V30 3425 H 314.043 -5.83797 -0.667446 0
M  V30 3426 H 315.567 -5.89312 -1.59824 0
M  V30 3427 H 316.981 -5.69436 0.664482 0
M  V30 3428 H 315.378 -5.82445 1.4449 0
M  V30 3429 H 316.448 -4.4753 1.86668 0
M  V30 3430 N 317.792 -0.46758 -1.50504 0
M  V30 3431 C 319.038 0.0887532 -2.02606 0
M  V30 3432 C 319.371 1.39686 -1.34913 0
M  V30 3433 O 318.646 1.88644 -0.473694 0
M  V30 3434 C 318.929 0.276206 -3.59039 0
M  V30 3435 C 318.782 -1.05267 -4.37309 0
M  V30 3436 C 320.101 1.03235 -4.27821 0
M  V30 3437 H 317.22 0.0307814 -0.736357 0
M  V30 3438 H 319.862 -0.612485 -1.79857 0
M  V30 3439 H 318.012 0.8735 -3.78553 0
M  V30 3440 H 319.684 -1.68628 -4.29374 0
M  V30 3441 H 317.927 -1.65015 -4.01189 0
M  V30 3442 H 318.598 -0.875197 -5.45018 0
M  V30 3443 H 321.074 0.526111 -4.12761 0
M  V30 3444 H 319.95 1.1323 -5.37094 0
M  V30 3445 H 320.211 2.06806 -3.90748 0
M  V30 3446 N 319.27 1.56325 -0.20005 0
M  V30 3447 C 320.51 1.99619 0.439519 0
M  V30 3448 C 320.874 1.08423 1.58456 0
M  V30 3449 O 322.075 1.40973 2.28867 0
M  V30 3450 C 320.346 3.46314 0.883258 0
M  V30 3451 S 321.905 4.11634 1.51997 0
M  V30 3452 H 318.723 0.697007 0.140363 0
M  V30 3453 H 321.325 1.93118 -0.304282 0
M  V30 3454 H 320.029 4.10381 0.0398967 0
M  V30 3455 H 319.56 3.56643 1.6604 0
M  V30 3456 H 321.575 4.09049 2.8088 0
M  V30 3457 N 320.748 -0.0735177 1.57428 0
M  V30 3458 C 321.978 -0.78483 1.91112 0
M  V30 3459 C 322.386 -1.71729 0.7941 0
M  V30 3460 O 321.729 -1.82105 -0.241542 0
M  V30 3461 C 321.791 -1.63346 3.20247 0
M  V30 3462 C 321.455 -0.870557 4.48632 0
M  V30 3463 C 322.452 -0.19058 5.19551 0
M  V30 3464 C 320.137 -0.838242 4.95256 0
M  V30 3465 C 322.131 0.511503 6.35344 0
M  V30 3466 C 319.818 -0.132386 6.10957 0
M  V30 3467 C 320.816 0.541288 6.80852 0
M  V30 3468 O 320.504 1.23578 7.94345 0
M  V30 3469 H 320.236 -0.228408 0.636244 0
M  V30 3470 H 322.79 -0.0486039 2.05342 0
M  V30 3471 H 321.02 -2.41245 3.02222 0
M  V30 3472 H 322.709 -2.22329 3.39595 0
M  V30 3473 H 323.475 -0.206864 4.84559 0
M  V30 3474 H 319.354 -1.35206 4.40727 0
M  V30 3475 H 322.898 1.03789 6.89836 0
M  V30 3476 H 318.795 -0.114023 6.45399 0
M  V30 3477 H 319.563 1.14487 8.10454 0
M  V30 3478 N 322.226 -1.5378 -0.344866 0
M  V30 3479 C 323.472 -1.71216 -1.08687 0
M  V30 3480 C 323.805 -0.473281 -1.88345 0
M  V30 3481 O 323.08 0.52968 -1.87149 0
M  V30 3482 C 323.363 -2.97486 -2.02914 0
M  V30 3483 C 323.216 -4.31579 -1.26727 0
M  V30 3484 C 324.535 -3.19422 -3.0275 0
M  V30 3485 H 321.654 -0.62301 -0.393735 0
M  V30 3486 H 324.296 -1.8645 -0.365563 0
M  V30 3487 H 322.446 -2.84629 -2.64421 0
M  V30 3488 H 324.118 -4.56284 -0.67845 0
M  V30 3489 H 322.361 -4.30049 -0.569273 0
M  V30 3490 H 323.032 -5.16106 -1.95803 0
M  V30 3491 H 325.508 -3.316 -2.51357 0
M  V30 3492 H 324.384 -4.09169 -3.65885 0
M  V30 3493 H 324.645 -2.35656 -3.74057 0
M  V30 3494 N 323.704 0.605807 -1.45491 0
M  V30 3495 C 324.634 1.72709 -1.57143 0
M  V30 3496 C 325.615 1.6476 -0.422884 0
M  V30 3497 O 326.8 1.83132 -0.646247 0
M  V30 3498 C 323.93 3.11316 -1.53948 0
M  V30 3499 C 322.884 3.34077 -2.67537 0
M  V30 3500 C 322.21 4.72975 -2.49397 0
M  V30 3501 C 323.51 3.24158 -4.09535 0
M  V30 3502 H 325.204 1.63214 -2.51001 0
M  V30 3503 H 322.75 0.78379 -1.208 0
M  V30 3504 H 324.703 3.89557 -1.60696 0
M  V30 3505 H 323.427 3.21655 -0.566205 0
M  V30 3506 H 322.086 2.58227 -2.6022 0
M  V30 3507 H 321.734 4.8005 -1.50205 0
M  V30 3508 H 321.434 4.8916 -3.25571 0
M  V30 3509 H 322.958 5.53414 -2.58002 0
M  V30 3510 H 324.372 3.92271 -4.18086 0
M  V30 3511 H 322.769 3.51872 -4.86113 0
M  V30 3512 H 323.839 2.2157 -4.31317 0
M  V30 3513 N 325.182 1.32811 0.848464 0
M  V30 3514 C 326.115 1.16601 1.96162 0
M  V30 3515 C 327.093 0.0638855 1.62474 0
M  V30 3516 O 328.277 0.224348 1.8716 0
M  V30 3517 C 325.404 0.786333 3.29446 0
M  V30 3518 C 324.45 1.89459 3.8211 0
M  V30 3519 S 325.283 3.50395 4.04949 0
M  V30 3520 C 326.439 3.14413 5.41198 0
M  V30 3521 H 326.672 2.10832 2.09612 0
M  V30 3522 H 324.205 1.17543 1.00115 0
M  V30 3523 H 326.163 0.574044 4.06466 0
M  V30 3524 H 324.824 -0.137218 3.138 0
M  V30 3525 H 324.017 1.58207 4.78526 0
M  V30 3526 H 323.619 2.06304 3.11953 0
M  V30 3527 H 325.911 2.64642 6.23675 0
M  V30 3528 H 326.854 4.09874 5.77416 0
M  V30 3529 H 327.262 2.51266 5.05495 0
M  V30 3530 N 326.66 -1.06551 1.16123 0
M  V30 3531 C 327.623 -2.12132 0.867906 0
M  V30 3532 C 328.623 -1.60224 -0.135944 0
M  V30 3533 O 329.813 -1.73943 0.0946422 0
M  V30 3534 C 326.945 -3.396 0.297419 0
M  V30 3535 H 328.138 -2.39586 1.80385 0
M  V30 3536 H 325.691 -1.22574 0.969812 0
M  V30 3537 H 326.426 -3.17794 -0.64633 0
M  V30 3538 H 326.211 -3.78581 1.02073 0
M  V30 3539 H 327.701 -4.17455 0.110052 0
M  V30 3540 N 328.138 -0.959301 -1.25041 0
M  V30 3541 C 329.554 -0.664474 -1.4511 0
M  V30 3542 C 329.754 0.776481 -1.85938 0
M  V30 3543 O 328.81 1.55128 -1.99227 0
M  V30 3544 C 330.123 -1.64139 -2.5195 0
M  V30 3545 C 331.671 -1.65309 -2.65786 0
M  V30 3546 C 332.146 -2.61777 -3.75815 0
M  V30 3547 N 333.637 -2.60169 -3.83231 0
M  V30 3548 C 334.372 -3.31489 -4.6787 0
M  V30 3549 N 333.868 -4.12298 -5.56761 0
M  V30 3550 N 335.661 -3.20354 -4.61876 0
M  V30 3551 H 327.812 -1.89043 -0.968332 0
M  V30 3552 H 330.075 -0.813408 -0.4869 0
M  V30 3553 H 329.781 -2.67086 -2.28819 0
M  V30 3554 H 329.655 -1.40756 -3.49954 0
M  V30 3555 H 332.042 -0.630778 -2.8828 0
M  V30 3556 H 332.123 -1.92753 -1.68167 0
M  V30 3557 H 331.767 -3.64137 -3.54071 0
M  V30 3558 H 331.697 -2.31616 -4.72929 0
M  V30 3559 H 334.188 -2.01507 -3.19692 0
M  V30 3560 H 334.501 -4.63625 -6.18281 0
M  V30 3561 H 332.846 -4.16395 -5.56454 0
M  V30 3562 H 336.037 -2.56692 -3.91442 0
M  V30 3563 H 336.21 -3.76201 -5.27614 0
M  V30 3564 N 329.616 1.39756 -0.72842 0
M  V30 3565 C 331.032 1.5442 -0.403308 0
M  V30 3566 C 331.232 1.69694 1.08656 0
M  V30 3567 O 330.288 1.69373 1.87267 0
M  V30 3568 C 331.601 2.76555 -1.18058 0
M  V30 3569 C 333.149 2.90384 -1.16815 0
M  V30 3570 C 333.624 4.15449 -1.92785 0
M  V30 3571 N 335.115 4.22475 -1.89918 0
M  V30 3572 C 335.85 5.1818 -2.45514 0
M  V30 3573 N 335.346 6.19714 -3.09719 0
M  V30 3574 N 337.139 5.1035 -2.35584 0
M  V30 3575 H 329.29 1.28089 -1.69431 0
M  V30 3576 H 331.553 0.620327 -0.716867 0
M  V30 3577 H 331.259 2.7159 -2.23455 0
M  V30 3578 H 331.133 3.69033 -0.780662 0
M  V30 3579 H 333.52 2.94846 -0.12234 0
M  V30 3580 H 333.601 1.98988 -1.6074 0
M  V30 3581 H 333.245 4.11749 -2.97364 0
M  V30 3582 H 333.175 5.05877 -1.46272 0
M  V30 3583 H 335.666 3.49743 -1.43138 0
M  V30 3584 H 335.979 6.8919 -3.49625 0
M  V30 3585 H 334.324 6.20121 -3.13807 0
M  V30 3586 H 337.515 4.2996 -1.85072 0
M  V30 3587 H 337.688 5.84761 -2.79211 0
M  V30 3588 N 331.094 0.475555 1.50254 0
M  V30 3589 C 332.024 -0.30611 2.31485 0
M  V30 3590 C 333.005 -0.986228 1.38591 0
M  V30 3591 O 334.19 -0.982541 1.67511 0
M  V30 3592 C 331.32 -1.38588 3.1845 0
M  V30 3593 C 330.274 -0.827115 4.19932 0
M  V30 3594 C 329.6 -2.00551 4.95665 0
M  V30 3595 C 330.9 0.16463 5.2204 0
M  V30 3596 H 332.594 0.371866 2.97082 0
M  V30 3597 H 330.14 0.180282 1.42867 0
M  V30 3598 H 332.093 -1.94023 3.74076 0
M  V30 3599 H 330.817 -2.09269 2.50747 0
M  V30 3600 H 329.476 -0.294702 3.65414 0
M  V30 3601 H 329.124 -2.6994 4.2443 0
M  V30 3602 H 328.824 -1.63784 5.64313 0
M  V30 3603 H 330.348 -2.56468 5.54127 0
M  V30 3604 H 331.762 -0.300699 5.72511 0
M  V30 3605 H 330.159 0.446813 5.98434 0
M  V30 3606 H 331.229 1.08905 4.72512 0
M  V30 3607 N 332.573 -1.56217 0.208337 0
M  V30 3608 C 333.503 -2.22694 -0.702116 0
M  V30 3609 C 334.484 -1.19432 -1.2112 0
M  V30 3610 O 335.669 -1.47978 -1.25762 0
M  V30 3611 C 332.799 -2.8966 -1.9161 0
M  V30 3612 C 331.753 -3.9928 -1.5414 0
M  V30 3613 C 331.079 -4.53476 -2.83308 0
M  V30 3614 C 332.379 -5.17012 -0.741339 0
M  V30 3615 H 334.073 -2.99034 -0.147898 0
M  V30 3616 H 331.619 -1.43831 -0.0696951 0
M  V30 3617 H 333.572 -3.34852 -2.55836 0
M  V30 3618 H 332.296 -2.10746 -2.49507 0
M  V30 3619 H 330.955 -3.54799 -0.922668 0
M  V30 3620 H 330.603 -3.71308 -3.39322 0
M  V30 3621 H 330.303 -5.27451 -2.58976 0
M  V30 3622 H 331.827 -5.01378 -3.485 0
M  V30 3623 H 333.241 -5.58667 -1.28699 0
M  V30 3624 H 331.638 -5.97137 -0.595627 0
M  V30 3625 H 332.708 -4.8423 0.254851 0
M  V30 3626 N 334.051 0.0651679 -1.57465 0
M  V30 3627 C 334.998 1.07675 -2.04144 0
M  V30 3628 C 335.968 1.38071 -0.923335 0
M  V30 3629 O 337.153 1.49026 -1.19146 0
M  V30 3630 C 334.293 2.38337 -2.49579 0
M  V30 3631 C 333.406 2.14413 -3.75035 0
M  V30 3632 C 332.541 3.38686 -4.09225 0
M  V30 3633 C 331.58 3.10156 -5.27702 0
M  V30 3634 N 330.717 4.26778 -5.57499 0
M  V30 3635 H 335.557 0.671716 -2.90331 0
M  V30 3636 H 333.094 0.3201 -1.43575 0
M  V30 3637 H 335.052 3.14632 -2.73975 0
M  V30 3638 H 333.682 2.7663 -1.6636 0
M  V30 3639 H 332.734 1.2878 -3.57939 0
M  V30 3640 H 334.046 1.89344 -4.61466 0
M  V30 3641 H 333.2 4.23373 -4.34558 0
M  V30 3642 H 331.939 3.66837 -3.21374 0
M  V30 3643 H 330.944 2.23866 -5.02159 0
M  V30 3644 H 332.169 2.8332 -6.17176 0
M  V30 3645 H 330.115 4.54948 -4.72608 0
M  V30 3646 H 330.032 4.05005 -6.38362 0
M  V30 3647 H 331.3 5.12443 -5.87386 0
M  V30 3648 N 335.529 1.53961 0.336706 0
M  V30 3649 C 336.94 1.62914 0.911925 0
M  V30 3650 C 337.291 0.514795 1.89326 0
M  V30 3651 O 336.416 -0.354395 2.13478 0
M  V30 3652 C 337.011 2.95304 1.66076 0
M  V30 3653 C 335.57 3.06496 2.18489 0
M  V30 3654 C 334.717 2.58403 1.00613 0
M  V30 3655 H 337.668 1.58285 0.114649 0
M  V30 3656 H 337.689 2.84727 2.5241 0
M  V30 3657 H 337.201 3.76387 0.946276 0
M  V30 3658 H 335.302 2.3006 2.93092 0
M  V30 3659 H 335.415 4.1208 2.44391 0
M  V30 3660 H 333.779 2.13977 1.38152 0
M  V30 3661 H 334.562 3.41932 0.306179 0
M  V30 3662 N 337.007 -0.598083 1.45811 0
M  V30 3663 C 337.97 -1.69018 1.54808 0
M  V30 3664 C 338.97 -1.55037 0.426652 0
M  V30 3665 O 340.16 -1.59932 0.690456 0
M  V30 3666 C 337.292 -3.0835 1.45371 0
M  V30 3667 H 338.485 -1.62403 2.52121 0
M  V30 3668 H 336.038 -0.814626 1.33392 0
M  V30 3669 H 336.773 -3.20534 0.492793 0
M  V30 3670 H 336.558 -3.19907 2.26721 0
M  V30 3671 H 338.048 -3.8788 1.54721 0
M  V30 3672 N 338.485 -1.33259 -0.841409 0
M  V30 3673 C 339.715 -1.2742 -1.62628 0
M  V30 3674 C 340.123 0.157604 -1.88542 0
M  V30 3675 O 339.466 1.10938 -1.46419 0
M  V30 3676 C 339.528 -1.97797 -3.00194 0
M  V30 3677 C 339.192 -3.47109 -2.97261 0
M  V30 3678 C 340.189 -4.42358 -2.73159 0
M  V30 3679 C 337.874 -3.89247 -3.17478 0
M  V30 3680 C 339.868 -5.77718 -2.69296 0
M  V30 3681 C 337.555 -5.24713 -3.13241 0
M  V30 3682 C 338.553 -6.1876 -2.89181 0
M  V30 3683 O 338.241 -7.51745 -2.84843 0
M  V30 3684 H 337.973 -0.440436 -0.512827 0
M  V30 3685 H 340.527 -1.76153 -1.05638 0
M  V30 3686 H 338.757 -1.43652 -3.59028 0
M  V30 3687 H 340.446 -1.8549 -3.61038 0
M  V30 3688 H 341.212 -4.11127 -2.57294 0
M  V30 3689 H 337.091 -3.16456 -3.35226 0
M  V30 3690 H 340.635 -6.51097 -2.50436 0
M  V30 3691 H 336.532 -5.55569 -3.28654 0
M  V30 3692 H 337.3 -7.61262 -3.00702 0
M  V30 3693 N 339.963 1.05934 -1.16686 0
M  V30 3694 C 341.211 1.78447 -0.948744 0
M  V30 3695 C 341.532 1.87813 0.524523 0
M  V30 3696 O 340.802 1.38945 1.38098 0
M  V30 3697 H 339.382 0.660971 -0.348033 0
M  V30 3698 H 342.044 1.27947 -1.47022 0
M  V30 3699 H 341.14 2.80394 -1.37061 0
M  V30 3700 N 341.441 0.965919 1.2453 0
M  V30 3701 C 342.669 0.644385 1.96609 0
M  V30 3702 C 343.084 -0.785823 1.71669 0
M  V30 3703 O 342.441 -1.52703 0.999399 0
M  V30 3704 C 342.492 0.907375 3.49927 0
M  V30 3705 O 342.213 2.28136 3.74013 0
M  V30 3706 C 343.714 0.599784 4.39224 0
M  V30 3707 H 340.934 0.240588 0.626385 0
M  V30 3708 H 343.478 1.29337 1.58405 0
M  V30 3709 H 341.633 0.304631 3.862 0
M  V30 3710 H 342.047 2.36002 4.68405 0
M  V30 3711 H 343.521 0.834263 5.45659 0
M  V30 3712 H 343.998 -0.465921 4.36722 0
M  V30 3713 H 344.604 1.18235 4.08535 0
M  V30 3714 N 342.919 -1.39368 0.735821 0
M  V30 3715 C 344.144 -2.05319 0.293052 0
M  V30 3716 C 344.569 -1.55115 -1.064 0
M  V30 3717 O 343.927 -0.695261 -1.67439 0
M  V30 3718 C 343.975 -3.59305 0.305323 0
M  V30 3719 O 343.079 -4.06299 -0.706761 0
M  V30 3720 H 342.42 -0.650529 0.13307 0
M  V30 3721 H 344.95 -1.78386 1.00197 0
M  V30 3722 H 344.96 -4.07724 0.149997 0
M  V30 3723 H 343.635 -3.95207 1.29553 0
M  V30 3724 H 342.212 -3.69292 -0.517504 0
M  V30 3725 N 344.397 -0.483516 -1.5 0
M  V30 3726 C 345.645 0.067027 -2.01989 0
M  V30 3727 C 345.966 1.3909 -1.36671 0
M  V30 3728 O 345.236 1.88978 -0.516152 0
M  V30 3729 H 343.816 0.0277606 -0.746484 0
M  V30 3730 H 346.478 -0.636773 -1.84204 0
M  V30 3731 H 345.574 0.209484 -3.11396 0
M  V30 3732 N 345.875 1.56104 -0.216619 0
M  V30 3733 C 347.123 1.97781 0.415593 0
M  V30 3734 C 347.444 1.10536 1.60645 0
M  V30 3735 O 346.714 0.181303 1.95059 0
M  V30 3736 H 345.294 0.730415 0.156534 0
M  V30 3737 H 347.956 1.92445 -0.308366 0
M  V30 3738 H 347.052 3.03072 0.74525 0
M  V30 3739 N 347.353 -0.0568162 1.57498 0
M  V30 3740 C 348.283 -1.06593 2.0775 0
M  V30 3741 C 349.264 -1.39448 0.974082 0
M  V30 3742 O 350.449 -1.48815 1.24771 0
M  V30 3743 C 347.579 -2.37509 2.5339 0
M  V30 3744 C 346.533 -2.1897 3.67745 0
M  V30 3745 C 345.859 -3.55402 3.99492 0
M  V30 3746 C 347.159 -1.59859 4.97235 0
M  V30 3747 H 348.853 -0.647706 2.9231 0
M  V30 3748 H 346.399 -0.310116 1.40621 0
M  V30 3749 H 348.352 -3.08409 2.87162 0
M  V30 3750 H 347.076 -2.8134 1.65878 0
M  V30 3751 H 345.735 -1.50508 3.3428 0
M  V30 3752 H 345.383 -3.9683 3.09088 0
M  V30 3753 H 345.083 -3.43831 4.76502 0
M  V30 3754 H 346.607 -4.27708 4.35773 0
M  V30 3755 H 348.021 -2.20642 5.29141 0
M  V30 3756 H 346.418 -1.58942 5.78669 0
M  V30 3757 H 347.488 -0.561506 4.81638 0
M  V30 3758 N 348.832 -1.54138 -0.328536 0
M  V30 3759 C 350.243 -1.63395 -0.903272 0
M  V30 3760 C 350.594 -0.524828 -1.8905 0
M  V30 3761 O 349.719 0.343068 -2.13663 0
M  V30 3762 C 350.314 -2.9618 -1.64507 0
M  V30 3763 C 348.873 -3.0765 -2.1686 0
M  V30 3764 C 348.02 -2.58933 -0.992416 0
M  V30 3765 H 350.971 -1.58344 -0.106253 0
M  V30 3766 H 350.992 -2.86061 -2.50897 0
M  V30 3767 H 350.504 -3.76884 -0.926302 0
M  V30 3768 H 348.605 -2.31611 -2.91868 0
M  V30 3769 H 348.718 -4.1337 -2.42202 0
M  V30 3770 H 347.082 -2.14706 -1.37016 0
M  V30 3771 H 347.865 -3.42089 -0.288041 0
M  V30 3772 N 350.31 0.590341 -1.46126 0
M  V30 3773 C 351.726 0.912917 -1.30912 0
M  V30 3774 C 351.926 1.99616 -0.274893 0
M  V30 3775 O 350.982 2.50397 0.325197 0
M  V30 3776 C 352.295 1.3375 -2.69317 0
M  V30 3777 C 353.843 1.45077 -2.77348 0
M  V30 3778 C 354.318 1.90904 -4.16317 0
M  V30 3779 N 355.809 1.9811 -4.18696 0
M  V30 3780 C 356.544 2.34828 -5.23109 0
M  V30 3781 N 356.04 2.70393 -6.37856 0
M  V30 3782 N 357.833 2.35317 -5.10473 0
M  V30 3783 H 349.984 -0.125358 -2.1203 0
M  V30 3784 H 352.247 0.00658481 -0.947977 0
M  V30 3785 H 351.953 0.615614 -3.4627 0
M  V30 3786 H 351.827 2.30058 -2.9892 0
M  V30 3787 H 354.214 2.16353 -2.00687 0
M  V30 3788 H 354.295 0.4704 -2.51438 0
M  V30 3789 H 353.939 1.20209 -4.9347 0
M  V30 3790 H 353.869 2.89886 -4.39629 0
M  V30 3791 H 356.36 1.73146 -3.359 0
M  V30 3792 H 356.673 2.97341 -7.13308 0
M  V30 3793 H 355.018 2.68048 -6.41229 0
M  V30 3794 H 358.209 2.0695 -4.19868 0
M  V30 3795 H 358.382 2.63605 -5.9196 0
M  V30 3796 N 351.788 1.33704 0.83433 0
M  V30 3797 C 352.751 1.24244 1.92603 0
M  V30 3798 C 353.751 0.160383 1.59998 0
M  V30 3799 O 354.941 0.412228 1.69252 0
M  V30 3800 C 352.073 0.91555 3.28376 0
M  V30 3801 H 353.266 2.21287 2.02416 0
M  V30 3802 H 350.819 1.17827 1.02696 0
M  V30 3803 H 351.554 -0.0521886 3.24258 0
M  V30 3804 H 351.339 1.69811 3.53422 0
M  V30 3805 H 352.829 0.874231 4.08347 0
M  V30 3806 N 353.266 -1.05314 1.17247 0
M  V30 3807 C 354.213 -2.13031 0.888058 0
M  V30 3808 C 355.183 -1.65253 -0.167537 0
M  V30 3809 O 356.368 -1.90775 -0.0305974 0
M  V30 3810 C 353.508 -3.42702 0.406147 0
M  V30 3811 C 352.621 -4.04161 1.52572 0
M  V30 3812 C 351.756 -5.21744 0.997808 0
M  V30 3813 C 350.795 -5.75207 2.09291 0
M  V30 3814 N 349.932 -6.84094 1.57986 0
M  V30 3815 H 354.772 -2.36698 1.81048 0
M  V30 3816 H 352.309 -1.16121 0.903013 0
M  V30 3817 H 354.267 -4.17059 0.108305 0
M  V30 3818 H 352.897 -3.19222 -0.479313 0
M  V30 3819 H 351.949 -3.27253 1.93931 0
M  V30 3820 H 353.261 -4.39881 2.35172 0
M  V30 3821 H 352.415 -6.03168 0.653739 0
M  V30 3822 H 351.154 -4.87495 0.141232 0
M  V30 3823 H 350.159 -4.92414 2.44557 0
M  V30 3824 H 351.384 -6.11505 2.95362 0
M  V30 3825 H 349.33 -6.51745 0.74598 0
M  V30 3826 H 349.247 -7.18811 2.34195 0
M  V30 3827 H 350.515 -7.69172 1.26468 0
M  V30 3828 N 354.744 -0.972509 -1.24016 0
M  V30 3829 C 356.16 -0.679827 -1.44397 0
M  V30 3830 C 356.36 0.756716 -1.86751 0
M  V30 3831 O 355.416 1.53007 -2.00861 0
M  V30 3832 C 356.729 -1.66803 -2.50195 0
M  V30 3833 C 358.277 -1.68119 -2.64017 0
M  V30 3834 C 358.752 -2.65748 -3.73017 0
M  V30 3835 N 360.243 -2.64219 -3.8045 0
M  V30 3836 C 360.978 -3.36433 -4.64328 0
M  V30 3837 N 360.474 -4.1818 -5.52356 0
M  V30 3838 N 362.267 -3.25235 -4.58453 0
M  V30 3839 H 354.418 -1.90059 -0.948228 0
M  V30 3840 H 356.681 -0.818527 -0.478245 0
M  V30 3841 H 356.387 -2.69498 -2.25973 0
M  V30 3842 H 356.261 -1.4446 -3.48441 0
M  V30 3843 H 358.648 -0.661319 -2.87594 0
M  V30 3844 H 358.729 -1.94525 -1.66113 0
M  V30 3845 H 358.373 -3.67872 -3.50189 0
M  V30 3846 H 358.303 -2.36619 -4.70446 0
M  V30 3847 H 360.794 -2.04887 -3.17537 0
M  V30 3848 H 361.107 -4.70157 -6.13329 0
M  V30 3849 H 359.452 -4.22273 -5.52006 0
M  V30 3850 H 362.643 -2.60829 -3.88698 0
M  V30 3851 H 362.816 -3.81776 -5.23594 0
M  V30 3852 N 356.222 1.38976 -0.743202 0
M  V30 3853 C 357.169 2.30544 -0.10861 0
M  V30 3854 C 358.139 1.49642 0.720869 0
M  V30 3855 O 359.324 1.78304 0.679142 0
M  V30 3856 C 356.464 3.36018 0.786496 0
M  V30 3857 C 355.577 4.31963 -0.0564849 0
M  V30 3858 C 354.712 5.24506 0.840657 0
M  V30 3859 C 353.751 6.121 -0.00658363 0
M  V30 3860 N 352.888 6.96973 0.846943 0
M  V30 3861 H 357.728 2.8424 -0.895088 0
M  V30 3862 H 355.265 1.3995 -0.453048 0
M  V30 3863 H 357.223 3.95768 1.31999 0
M  V30 3864 H 355.853 2.83758 1.53887 0
M  V30 3865 H 354.905 3.73763 -0.707492 0
M  V30 3866 H 356.217 4.93703 -0.711229 0
M  V30 3867 H 355.371 5.89322 1.4417 0
M  V30 3868 H 354.11 4.63107 1.52916 0
M  V30 3869 H 353.115 5.46289 -0.620366 0
M  V30 3870 H 354.34 6.75565 -0.691992 0
M  V30 3871 H 352.286 6.38133 1.52059 0
M  V30 3872 H 352.203 7.5559 0.248864 0
M  V30 3873 H 353.471 7.6621 1.43328 0
M  V30 3874 N 357.7 0.491464 1.49741 0
M  V30 3875 C 358.925 -0.0557177 2.07325 0
M  V30 3876 C 359.35 -1.30925 1.35056 0
M  V30 3877 O 358.708 -1.76733 0.404365 0
M  V30 3878 C 358.756 -0.302074 3.59333 0
M  V30 3879 O 357.86 -1.37868 3.88672 0
M  V30 3880 H 357.201 0.0219956 0.663636 0
M  V30 3881 H 359.731 0.688352 1.92673 0
M  V30 3882 H 359.741 -0.536464 4.04458 0
M  V30 3883 H 358.416 0.61383 4.11345 0
M  V30 3884 H 356.993 -1.12999 3.55367 0
M  V30 3885 N 359.178 -1.55987 0.224894 0
M  V30 3886 C 360.424 -1.98684 -0.406502 0
M  V30 3887 C 360.757 -1.11248 -1.59177 0
M  V30 3888 O 360.032 -0.170909 -1.93748 0
M  V30 3889 C 360.315 -3.50218 -0.837808 0
M  V30 3890 C 360.168 -4.48426 0.351332 0
M  V30 3891 C 361.487 -4.06243 -1.69278 0
M  V30 3892 H 358.606 -0.722337 -0.146283 0
M  V30 3893 H 361.248 -1.87255 0.321799 0
M  V30 3894 H 359.398 -3.60089 -1.45837 0
M  V30 3895 H 361.07 -4.50562 0.989526 0
M  V30 3896 H 359.313 -4.22159 0.998207 0
M  V30 3897 H 359.984 -5.52 0.00655905 0
M  V30 3898 H 362.46 -3.99337 -1.16914 0
M  V30 3899 H 361.336 -5.12581 -1.96346 0
M  V30 3900 H 361.597 -3.53332 -2.65723 0
M  V30 3901 N 360.656 0.0484629 -1.57525 0
M  V30 3902 C 362.072 0.40375 -1.54409 0
M  V30 3903 C 362.272 1.77786 -0.948384 0
M  V30 3904 O 361.328 2.46189 -0.560983 0
M  V30 3905 C 362.641 0.323394 -2.98956 0
M  V30 3906 C 364.189 0.401892 -3.10409 0
M  V30 3907 C 364.664 0.351195 -4.56652 0
M  V30 3908 N 366.155 0.410576 -4.61377 0
M  V30 3909 C 366.89 0.393933 -5.72045 0
M  V30 3910 N 366.386 0.330724 -6.9201 0
M  V30 3911 N 368.179 0.442227 -5.60358 0
M  V30 3912 H 360.33 -0.851016 -1.94606 0
M  V30 3913 H 362.593 -0.321721 -0.89174 0
M  V30 3914 H 362.299 -0.62011 -3.4619 0
M  V30 3915 H 362.173 1.12463 -3.60044 0
M  V30 3916 H 364.56 1.33582 -2.63134 0
M  V30 3917 H 364.641 -0.428342 -2.52188 0
M  V30 3918 H 364.285 -0.578987 -5.04589 0
M  V30 3919 H 364.215 1.19928 -5.12762 0
M  V30 3920 H 366.706 0.462729 -3.75056 0
M  V30 3921 H 367.019 0.322592 -7.72126 0
M  V30 3922 H 365.364 0.29706 -6.94365 0
M  V30 3923 H 368.555 0.489464 -4.65534 0
M  V30 3924 H 368.728 0.425788 -6.466 0
M  V30 3925 N 362.134 1.5431 0.320358 0
M  V30 3926 C 363.362 1.76636 1.07738 0
M  V30 3927 C 363.777 0.51649 1.81598 0
M  V30 3928 O 363.134 -0.512942 1.75143 0
M  V30 3929 C 363.185 2.96158 2.07299 0
M  V30 3930 O 362.906 4.16313 1.36438 0
M  V30 3931 C 364.407 3.3072 2.95193 0
M  V30 3932 H 361.627 0.589597 0.320339 0
M  V30 3933 H 364.171 2.01207 0.36551 0
M  V30 3934 H 362.326 2.73851 2.74016 0
M  V30 3935 H 362.74 4.83565 2.03138 0
M  V30 3936 H 364.214 4.17643 3.60941 0
M  V30 3937 H 364.691 2.48026 3.62463 0
M  V30 3938 H 365.297 3.55117 2.34034 0
M  V30 3939 N 363.613 -0.582584 1.46437 0
M  V30 3940 C 364.862 -1.337 1.5102 0
M  V30 3941 C 365.175 -1.94891 0.166359 0
M  V30 3942 O 366.381 -2.71351 0.0899954 0
M  V30 3943 C 364.837 -2.42315 2.66104 0
M  V30 3944 C 364.445 -1.87427 4.06909 0
M  V30 3945 C 366.189 -3.19099 2.79958 0
M  V30 3946 C 364.096 -2.93672 5.13333 0
M  V30 3947 H 363.026 -0.502619 0.562041 0
M  V30 3948 H 365.677 -0.621701 1.72647 0
M  V30 3949 H 364.059 -3.16645 2.37807 0
M  V30 3950 H 365.233 -1.19639 4.44998 0
M  V30 3951 H 363.548 -1.2331 3.97723 0
M  V30 3952 H 366.145 -3.9839 3.56636 0
M  V30 3953 H 366.488 -3.71695 1.87479 0
M  V30 3954 H 367.021 -2.51875 3.07902 0
M  V30 3955 H 363.76 -2.45962 6.07604 0
M  V30 3956 H 363.28 -3.59948 4.79789 0
M  V30 3957 H 364.959 -3.5762 5.39182 0
M  V30 3958 N 365.091 -1.34144 -0.827227 0
M  V30 3959 C 366.054 -1.25264 -1.91942 0
M  V30 3960 C 367.054 -0.168866 -1.59911 0
M  V30 3961 O 368.244 -0.421198 -1.69031 0
M  V30 3962 C 365.376 -0.932952 -3.27885 0
M  V30 3963 H 366.569 -2.22357 -2.0124 0
M  V30 3964 H 364.122 -1.1837 -1.0207 0
M  V30 3965 H 364.857 0.0349917 -3.24281 0
M  V30 3966 H 364.642 -1.71682 -3.52516 0
M  V30 3967 H 366.132 -0.895874 -4.07877 0
M  V30 3968 N 366.569 1.04691 -1.17803 0
M  V30 3969 C 367.815 1.78045 -0.970969 0
M  V30 3970 C 368.148 1.87686 0.498751 0
M  V30 3971 O 367.423 1.38035 1.37027 0
M  V30 3972 C 367.706 3.2166 -1.61884 0
M  V30 3973 C 367.559 3.20001 -3.161 0
M  V30 3974 C 368.878 4.1962 -1.3269 0
M  V30 3975 H 365.997 0.64633 -0.354155 0
M  V30 3976 H 368.639 1.22333 -1.45378 0
M  V30 3977 H 366.789 3.69232 -1.20831 0
M  V30 3978 H 368.461 2.80467 -3.66246 0
M  V30 3979 H 366.704 2.58203 -3.48588 0
M  V30 3980 H 367.375 4.21386 -3.56564 0
M  V30 3981 H 369.851 3.80567 -1.68249 0
M  V30 3982 H 368.727 5.18339 -1.80599 0
M  V30 3983 H 368.988 4.414 -0.248622 0
M  V30 3984 N 368.047 0.979072 1.23499 0
M  V30 3985 C 369.293 0.648178 1.92163 0
M  V30 3986 C 369.626 -0.816049 1.76222 0
M  V30 3987 O 368.901 -1.58849 1.12237 0
M  V30 3988 C 369.184 1.03773 3.44824 0
M  V30 3989 C 369.037 2.55948 3.69879 0
M  V30 3990 C 370.356 0.580653 4.36253 0
M  V30 3991 H 367.475 0.236952 0.69787 0
M  V30 3992 H 370.117 1.22012 1.45647 0
M  V30 3993 H 368.267 0.551058 3.84572 0
M  V30 3994 H 369.939 3.12179 3.3962 0
M  V30 3995 H 368.182 2.98641 3.14636 0
M  V30 3996 H 368.853 2.78255 4.76737 0
M  V30 3997 H 371.329 0.998465 4.03943 0
M  V30 3998 H 370.205 0.881663 5.41773 0
M  V30 3999 H 370.466 -0.519052 4.39042 0
M  V30 4000 N 369.525 -1.3858 0.750561 0
M  V30 4001 C 370.455 -2.33102 0.136237 0
M  V30 4002 C 371.436 -1.54713 -0.706965 0
M  V30 4003 O 372.621 -1.83043 -0.648769 0
M  V30 4004 C 369.751 -3.38882 -0.760017 0
M  V30 4005 C 368.705 -4.27995 -0.0197785 0
M  V30 4006 C 368.031 -5.24605 -1.03408 0
M  V30 4007 C 369.331 -5.09554 1.14684 0
M  V30 4008 H 371.025 -2.84726 0.925822 0
M  V30 4009 H 368.571 -1.36898 0.446654 0
M  V30 4010 H 370.524 -4.0397 -1.19943 0
M  V30 4011 H 369.248 -2.85734 -1.58189 0
M  V30 4012 H 367.907 -3.64409 0.400184 0
M  V30 4013 H 367.555 -4.67746 -1.84994 0
M  V30 4014 H 367.255 -5.85081 -0.543464 0
M  V30 4015 H 368.779 -5.9257 -1.47288 0
M  V30 4016 H 370.193 -5.67899 0.785118 0
M  V30 4017 H 368.59 -5.7925 1.56812 0
M  V30 4018 H 369.66 -4.4347 1.96118 0
M  V30 4019 N 371.003 -0.499398 -1.49478 0
M  V30 4020 C 371.966 0.268838 -2.27618 0
M  V30 4021 C 372.966 0.895383 -1.33565 0
M  V30 4022 O 374.156 0.760164 -1.56739 0
M  V30 4023 C 371.288 1.38559 -3.11471 0
M  V30 4024 H 372.481 -0.416812 -2.96989 0
M  V30 4025 H 370.034 -0.254313 -1.54217 0
M  V30 4026 H 370.769 2.10544 -2.46661 0
M  V30 4027 H 370.554 0.941797 -3.80621 0
M  V30 4028 H 372.044 1.92678 -3.70493 0
M  V30 4029 N 372.481 1.55866 -0.233164 0
M  V30 4030 C 373.727 1.98897 0.395959 0
M  V30 4031 C 374.06 1.12091 1.58585 0
M  V30 4032 O 373.335 0.181182 1.93654 0
M  V30 4033 C 373.618 3.50658 0.819224 0
M  V30 4034 C 373.471 4.48233 -0.375109 0
M  V30 4035 C 374.79 4.07135 1.67121 0
M  V30 4036 H 371.909 0.723102 0.142451 0
M  V30 4037 H 374.551 1.87082 -0.331725 0
M  V30 4038 H 372.701 3.60857 1.43925 0
M  V30 4039 H 374.373 4.50031 -1.01341 0
M  V30 4040 H 372.616 4.21624 -1.02058 0
M  V30 4041 H 373.287 5.51988 -0.0358328 0
M  V30 4042 H 375.763 3.99952 1.14795 0
M  V30 4043 H 374.639 5.13615 1.93625 0
M  V30 4044 H 374.9 3.54736 2.63846 0
M  V30 4045 N 373.959 -0.0401083 1.57549 0
M  V30 4046 C 375.206 -0.733125 1.88763 0
M  V30 4047 C 375.534 -1.75946 0.829058 0
M  V30 4048 O 374.789 -1.94949 -0.171323 0
M  V30 4049 C 375.088 -1.44902 3.26708 0
M  V30 4050 C 374.754 -0.559707 4.47413 0
M  V30 4051 C 373.416 -0.314731 4.8017 0
M  V30 4052 C 375.768 0.0549743 5.21171 0
M  V30 4053 C 373.096 0.553886 5.8408 0
M  V30 4054 C 375.448 0.911229 6.26003 0
M  V30 4055 C 374.112 1.16577 6.57241 0
M  V30 4056 H 373.382 -0.268269 0.690733 0
M  V30 4057 H 376.029 0.00679408 1.91499 0
M  V30 4058 H 374.334 -2.26197 3.1991 0
M  V30 4059 H 376.031 -1.99058 3.48105 0
M  V30 4060 H 372.621 -0.760793 4.21794 0
M  V30 4061 H 376.805 -0.121344 4.96152 0
M  V30 4062 H 372.061 0.759518 6.06664 0
M  V30 4063 H 376.235 1.3941 6.82303 0
M  V30 4064 H 373.862 1.84058 7.37582 0
M  V30 4065 N 375.437 -1.54477 -0.31217 0
M  V30 4066 C 376.4 -1.83923 -1.36766 0
M  V30 4067 C 377.4 -0.711563 -1.44199 0
M  V30 4068 O 378.59 -0.979866 -1.44029 0
M  V30 4069 C 375.722 -2.0095 -2.75376 0
M  V30 4070 H 376.915 -2.78239 -1.11906 0
M  V30 4071 H 374.468 -1.46369 -0.548257 0
M  V30 4072 H 375.203 -1.08883 -3.05475 0
M  V30 4073 H 374.988 -2.83018 -2.71373 0
M  V30 4074 H 376.478 -2.2514 -3.51713 0
M  V30 4075 N 376.915 0.57481 -1.46744 0
M  V30 4076 C 377.845 1.69337 -1.60771 0
M  V30 4077 C 378.826 1.63825 -0.457736 0
M  V30 4078 O 380.011 1.8172 -0.684947 0
M  V30 4079 C 377.141 3.0798 -1.60517 0
M  V30 4080 C 376.095 3.28327 -2.74564 0
M  V30 4081 C 375.421 4.67578 -2.59373 0
M  V30 4082 C 376.721 3.15398 -4.16319 0
M  V30 4083 H 378.415 1.57853 -2.54407 0
M  V30 4084 H 375.961 0.75799 -1.22436 0
M  V30 4085 H 377.914 3.86061 -1.68923 0
M  V30 4086 H 376.638 3.20381 -0.634305 0
M  V30 4087 H 375.297 2.52649 -2.65639 0
M  V30 4088 H 374.945 4.76755 -1.60353 0
M  V30 4089 H 374.645 4.82144 -3.35873 0
M  V30 4090 H 376.169 5.47817 -2.69682 0
M  V30 4091 H 377.583 3.83315 -4.26313 0
M  V30 4092 H 375.98 3.41482 -4.93468 0
M  V30 4093 H 377.05 2.12372 -4.3592 0
M  V30 4094 N 378.394 1.34581 0.820102 0
M  V30 4095 C 379.634 1.28448 1.58998 0
M  V30 4096 C 379.998 -0.142883 1.91468 0
M  V30 4097 O 381.199 -0.328422 2.66786 0
M  V30 4098 C 379.47 2.153 2.85273 0
M  V30 4099 S 381.029 2.26548 3.75794 0
M  V30 4100 H 377.847 0.456685 0.54494 0
M  V30 4101 H 380.449 1.69825 0.968487 0
M  V30 4102 H 379.153 3.18008 2.59421 0
M  V30 4103 H 378.684 1.7483 3.52417 0
M  V30 4104 H 380.699 1.44034 4.74835 0
M  V30 4105 N 379.872 -1.04064 1.18357 0
M  V30 4106 C 381.119 -1.77265 0.978947 0
M  V30 4107 C 381.447 -1.88189 -0.491428 0
M  V30 4108 O 380.702 -1.38653 -1.38108 0
M  V30 4109 C 381.001 -3.20634 1.57888 0
M  V30 4110 C 380.667 -3.29743 3.07539 0
M  V30 4111 C 379.329 -3.31937 3.48384 0
M  V30 4112 C 381.681 -3.29841 4.03552 0
M  V30 4113 C 379.009 -3.3187 4.83818 0
M  V30 4114 C 381.361 -3.31313 5.38901 0
M  V30 4115 C 380.025 -3.31799 5.79194 0
M  V30 4116 H 379.295 -0.648659 0.358222 0
M  V30 4117 H 381.942 -1.22225 1.47422 0
M  V30 4118 H 380.247 -3.78675 1.00561 0
M  V30 4119 H 381.944 -3.75917 1.39598 0
M  V30 4120 H 378.534 -3.28757 2.74986 0
M  V30 4121 H 382.718 -3.27337 3.73047 0
M  V30 4122 H 377.974 -3.30562 5.14333 0
M  V30 4123 H 382.148 -3.30338 6.13066 0
M  V30 4124 H 379.775 -3.315 6.84114 0
M  V30 4125 N 381.35 -0.985608 -1.22978 0
M  V30 4126 C 382.28 -0.549649 -2.26939 0
M  V30 4127 C 383.261 0.419803 -1.64838 0
M  V30 4128 O 384.446 0.31203 -1.91677 0
M  V30 4129 C 381.576 0.143652 -3.47003 0
M  V30 4130 C 380.53 -0.743606 -4.21491 0
M  V30 4131 C 379.856 0.0822027 -5.34637 0
M  V30 4132 C 381.156 -2.03694 -4.80943 0
M  V30 4133 H 382.85 -1.41862 -2.63658 0
M  V30 4134 H 380.396 -0.683571 -1.26741 0
M  V30 4135 H 382.349 0.459985 -4.18882 0
M  V30 4136 H 381.073 1.04711 -3.09359 0
M  V30 4137 H 379.732 -1.04347 -3.51436 0
M  V30 4138 H 379.38 0.986359 -4.93234 0
M  V30 4139 H 379.08 -0.508377 -5.85397 0
M  V30 4140 H 380.604 0.392797 -6.09335 0
M  V30 4141 H 382.018 -1.78504 -5.44802 0
M  V30 4142 H 380.415 -2.57573 -5.42011 0
M  V30 4143 H 381.485 -2.72042 -4.01399 0
M  V30 4144 N 382.828 1.3818 -0.7579 0
M  V30 4145 C 384.239 1.82726 -0.383134 0
M  V30 4146 C 384.59 1.63214 1.08884 0
M  V30 4147 O 383.715 1.13566 1.84205 0
M  V30 4148 C 384.31 3.31728 -0.688631 0
M  V30 4149 C 382.869 3.74606 -0.367091 0
M  V30 4150 C 382.016 2.60896 -0.939599 0
M  V30 4151 H 384.967 1.26847 -0.953699 0
M  V30 4152 H 384.988 3.80487 0.0316492 0
M  V30 4153 H 384.5 3.45898 -1.76001 0
M  V30 4154 H 382.601 3.66013 0.697532 0
M  V30 4155 H 382.714 4.71215 -0.865658 0
M  V30 4156 H 381.078 2.52075 -0.3647 0
M  V30 4157 H 381.861 2.77864 -2.0161 0
M  V30 4158 N 384.306 0.507319 1.49211 0
M  V30 4159 C 385.553 -0.0349529 2.0247 0
M  V30 4160 C 385.881 -1.36409 1.38647 0
M  V30 4161 O 385.136 -1.88841 0.513566 0
M  V30 4162 C 385.435 -0.229513 3.56662 0
M  V30 4163 C 385.101 1.02241 4.39156 0
M  V30 4164 C 383.763 1.36557 4.61417 0
M  V30 4165 C 386.115 1.85428 4.871 0
M  V30 4166 C 383.443 2.53999 5.28868 0
M  V30 4167 C 385.795 3.02028 5.55843 0
M  V30 4168 C 384.459 3.36717 5.76349 0
M  V30 4169 H 383.729 -0.0127902 0.74089 0
M  V30 4170 H 386.376 0.668756 1.79443 0
M  V30 4171 H 384.681 -1.0158 3.78403 0
M  V30 4172 H 386.378 -0.663641 3.9547 0
M  V30 4173 H 382.968 0.745124 4.22073 0
M  V30 4174 H 387.152 1.6023 4.69723 0
M  V30 4175 H 382.408 2.81105 5.42946 0
M  V30 4176 H 386.582 3.66808 5.91967 0
M  V30 4177 H 384.209 4.27821 6.28389 0
M  V30 4178 N 385.784 -1.5574 0.241426 0
M  V30 4179 C 386.734 -2.17803 -0.674233 0
M  V30 4180 C 387.718 -1.13225 -1.14319 0
M  V30 4181 O 388.91 -1.39153 -1.09387 0
M  V30 4182 C 386.039 -2.87682 -1.87333 0
M  V30 4183 C 385.125 -3.99509 -1.42313 0
M  V30 4184 N 385.516 -5.01115 -0.686798 0
M  V30 4185 C 383.814 -4.11964 -1.70885 0
M  V30 4186 C 384.515 -5.79922 -0.454456 0
M  V30 4187 N 383.491 -5.34001 -1.01705 0
M  V30 4188 H 387.293 -2.93718 -0.103447 0
M  V30 4189 H 384.807 -1.62342 0.0435095 0
M  V30 4190 H 386.804 -3.3057 -2.54026 0
M  V30 4191 H 385.464 -2.13269 -2.4484 0
M  V30 4192 H 386.475 -5.16799 -0.337459 0
M  V30 4193 H 383.152 -3.48718 -2.2957 0
M  V30 4194 H 384.542 -6.71768 0.132992 0
M  V30 4195 N 387.262 0.0317525 -1.57568 0
M  V30 4196 C 388.508 0.724175 -1.8943 0
M  V30 4197 C 388.841 1.75149 -0.838836 0
M  V30 4198 O 388.116 1.93948 0.146422 0
M  V30 4199 C 388.399 1.39615 -3.31933 0
M  V30 4200 C 388.252 0.382537 -4.4817 0
M  V30 4201 C 389.571 2.33084 -3.73309 0
M  V30 4202 H 386.69 0.261797 -0.688935 0
M  V30 4203 H 389.332 -0.013017 -1.89996 0
M  V30 4204 H 387.482 2.02451 -3.31581 0
M  V30 4205 H 389.154 -0.243689 -4.60656 0
M  V30 4206 H 387.397 -0.29844 -4.32772 0
M  V30 4207 H 388.068 0.891145 -5.44759 0
M  V30 4208 H 390.544 1.80295 -3.7501 0
M  V30 4209 H 389.42 2.77084 -4.73831 0
M  V30 4210 H 389.681 3.19643 -3.05419 0
M  V30 4211 N 388.74 1.54641 0.303973 0
M  V30 4212 C 389.968 1.77768 1.05858 0
M  V30 4213 C 390.383 0.535722 1.8104 0
M  V30 4214 O 389.74 -0.494337 1.75677 0
M  V30 4215 C 389.791 2.9834 2.04146 0
M  V30 4216 O 389.512 4.17736 1.32015 0
M  V30 4217 C 391.013 3.33832 2.91669 0
M  V30 4218 H 388.233 0.592961 0.314067 0
M  V30 4219 H 390.777 2.01583 0.344149 0
M  V30 4220 H 388.932 2.76742 2.71096 0
M  V30 4221 H 389.346 4.85693 1.97998 0
M  V30 4222 H 390.82 4.21448 3.56491 0
M  V30 4223 H 391.297 2.51857 3.59812 0
M  V30 4224 H 391.903 3.57579 2.30254 0
M  V30 4225 N 390.218 -0.567019 1.47046 0
M  V30 4226 C 391.634 -0.891975 1.32348 0
M  V30 4227 C 391.834 -1.99154 0.306616 0
M  V30 4228 O 390.89 -2.50883 -0.28532 0
M  V30 4229 C 392.203 -1.29449 2.7141 0
M  V30 4230 C 393.751 -1.40646 2.79621 0
M  V30 4231 C 394.226 -1.84257 4.19301 0
M  V30 4232 N 395.717 -1.91424 4.21795 0
M  V30 4233 C 396.452 -2.26476 5.26779 0
M  V30 4234 N 395.948 -2.60211 6.42077 0
M  V30 4235 N 397.741 -2.27166 5.14152 0
M  V30 4236 H 389.892 0.159074 2.11803 0
M  V30 4237 H 392.155 0.00849752 0.947962 0
M  V30 4238 H 391.861 -0.560448 3.47206 0
M  V30 4239 H 391.735 -2.25273 3.02542 0
M  V30 4240 H 394.122 -2.13133 2.04104 0
M  V30 4241 H 394.203 -0.430339 2.52154 0
M  V30 4242 H 393.847 -1.12343 4.95319 0
M  V30 4243 H 393.777 -2.82855 4.44185 0
M  V30 4244 H 396.268 -1.6778 3.38612 0
M  V30 4245 H 396.581 -2.85956 7.17948 0
M  V30 4246 H 394.926 -2.57813 6.45413 0
M  V30 4247 H 398.117 -2.00244 4.23107 0
M  V30 4248 H 398.29 -2.54154 5.96079 0
M  V30 4249 N 391.696 -1.35014 -0.812953 0
M  V30 4250 C 392.924 -1.31031 -1.6012 0
M  V30 4251 C 393.339 0.113558 -1.88458 0
M  V30 4252 O 392.696 1.06363 -1.48301 0
M  V30 4253 C 392.747 -2.10872 -2.93624 0
M  V30 4254 O 392.468 -3.47706 -2.66518 0
M  V30 4255 C 393.969 -2.14401 -3.88004 0
M  V30 4256 H 391.189 -0.45037 -0.497401 0
M  V30 4257 H 393.733 -1.77775 -1.01076 0
M  V30 4258 H 391.888 -1.67744 -3.492 0
M  V30 4259 H 392.302 -3.89097 -3.51715 0
M  V30 4260 H 393.776 -2.74669 -4.78812 0
M  V30 4261 H 394.253 -1.14105 -4.24119 0
M  V30 4262 H 394.859 -2.57662 -3.38364 0
M  V30 4263 N 393.175 1.03435 -1.18907 0
M  V30 4264 C 394.105 2.13503 -0.945448 0
M  V30 4265 C 395.086 1.69682 0.119189 0
M  V30 4266 O 396.271 1.94169 -0.034707 0
M  V30 4267 C 393.401 3.44004 -0.477316 0
M  V30 4268 C 392.355 4.0148 -1.48316 0
M  V30 4269 C 391.681 5.27537 -0.872311 0
M  V30 4270 C 392.981 4.36921 -2.86177 0
M  V30 4271 H 394.675 2.34141 -1.86597 0
M  V30 4272 H 392.221 1.12523 -0.898584 0
M  V30 4273 H 394.174 4.20372 -0.294204 0
M  V30 4274 H 392.898 3.23072 0.478786 0
M  V30 4275 H 391.557 3.27201 -1.65332 0
M  V30 4276 H 391.205 5.02917 0.0911752 0
M  V30 4277 H 390.905 5.66954 -1.54393 0
M  V30 4278 H 392.429 6.06576 -0.699871 0
M  V30 4279 H 393.843 5.04248 -2.72776 0
M  V30 4280 H 392.24 4.87405 -3.50081 0
M  V30 4281 H 393.31 3.46466 -3.39248 0
M  V30 4282 N 394.653 0.992116 1.22453 0
M  V30 4283 C 395.883 0.684949 1.94915 0
M  V30 4284 C 396.291 -0.754292 1.73514 0
M  V30 4285 O 395.634 -1.52056 1.03076 0
M  V30 4286 C 395.696 0.910054 3.47791 0
M  V30 4287 C 395.36 2.33363 3.92926 0
M  V30 4288 C 396.357 3.31308 4.00663 0
M  V30 4289 C 394.042 2.66785 4.25595 0
M  V30 4290 C 396.036 4.6075 4.40441 0
M  V30 4291 C 393.723 3.96446 4.65053 0
M  V30 4292 C 394.721 4.9324 4.72444 0
M  V30 4293 O 394.409 6.20584 5.1101 0
M  V30 4294 H 394.141 0.25258 0.62704 0
M  V30 4295 H 396.695 1.32939 1.56577 0
M  V30 4296 H 394.925 0.208443 3.86138 0
M  V30 4297 H 396.614 0.598257 4.01467 0
M  V30 4298 H 397.38 3.0682 3.75615 0
M  V30 4299 H 393.259 1.92148 4.19047 0
M  V30 4300 H 396.803 5.363 4.46126 0
M  V30 4301 H 392.7 4.20724 4.89552 0
M  V30 4302 H 393.468 6.24509 5.29085 0
M  V30 4303 N 396.131 -1.37776 0.765217 0
M  V30 4304 C 397.361 -2.03828 0.337277 0
M  V30 4305 C 397.769 -1.57841 -1.04321 0
M  V30 4306 O 397.112 -0.752043 -1.67601 0
M  V30 4307 C 397.174 -3.58292 0.294407 0
M  V30 4308 C 396.838 -4.27384 1.61838 0
M  V30 4309 C 397.835 -4.51956 2.56967 0
M  V30 4310 C 395.52 -4.65345 1.89102 0
M  V30 4311 C 397.514 -5.13536 3.77571 0
M  V30 4312 C 395.201 -5.26647 3.09978 0
M  V30 4313 C 396.199 -5.50679 4.04032 0
M  V30 4314 O 395.887 -6.10702 5.2278 0
M  V30 4315 H 395.619 -0.661292 0.140248 0
M  V30 4316 H 398.173 -1.77222 1.03834 0
M  V30 4317 H 396.403 -3.83918 -0.462983 0
M  V30 4318 H 398.092 -4.05763 -0.105581 0
M  V30 4319 H 398.858 -4.23048 2.37183 0
M  V30 4320 H 394.737 -4.45978 1.16725 0
M  V30 4321 H 398.281 -5.3221 4.50997 0
M  V30 4322 H 394.178 -5.54979 3.29649 0
M  V30 4323 H 394.946 -6.29183 5.23517 0
M  V30 4324 N 397.609 -0.515225 -1.4894 0
M  V30 4325 C 398.834 0.022727 -2.07388 0
M  V30 4326 C 399.259 1.2876 -1.37122 0
M  V30 4327 O 398.617 1.76067 -0.432431 0
M  V30 4328 C 398.665 0.244869 -3.59768 0
M  V30 4329 O 397.769 1.31667 -3.90817 0
M  V30 4330 H 397.11 -0.0325506 -0.663202 0
M  V30 4331 H 399.64 -0.718918 -1.91553 0
M  V30 4332 H 399.65 0.47205 -4.0526 0
M  V30 4333 H 398.325 -0.679194 -4.10317 0
M  V30 4334 H 396.902 1.07331 -3.5712 0
M  V30 4335 N 399.087 1.5561 -0.249682 0
M  V30 4336 C 400.334 1.99011 0.374287 0
M  V30 4337 C 400.662 1.13785 1.57744 0
M  V30 4338 O 399.917 0.189326 1.94782 0
M  V30 4339 C 400.216 3.4775 0.824887 0
M  V30 4340 C 399.882 4.50086 -0.270819 0
M  V30 4341 C 398.544 4.77791 -0.571746 0
M  V30 4342 C 400.896 5.11312 -1.01041 0
M  V30 4343 C 398.224 5.63997 -1.61629 0
M  V30 4344 C 400.576 5.98651 -2.0445 0
M  V30 4345 C 399.24 6.24688 -2.35204 0
M  V30 4346 H 398.51 0.728233 0.136961 0
M  V30 4347 H 401.157 1.88122 -0.358087 0
M  V30 4348 H 399.462 3.55985 1.63651 0
M  V30 4349 H 401.159 3.78721 1.31799 0
M  V30 4350 H 397.749 4.28592 -0.026136 0
M  V30 4351 H 401.933 4.89953 -0.791177 0
M  V30 4352 H 397.189 5.82425 -1.85988 0
M  V30 4353 H 401.363 6.45135 -2.62248 0
M  V30 4354 H 398.99 6.91281 -3.16282 0
M  V30 4355 N 400.565 -0.0233959 1.57583 0
M  V30 4356 C 401.981 -0.379134 1.55031 0
M  V30 4357 C 402.181 -1.76255 0.976548 0
M  V30 4358 O 401.237 -2.45266 0.600078 0
M  V30 4359 C 402.55 -0.275792 2.99433 0
M  V30 4360 C 404.098 -0.352458 3.11009 0
M  V30 4361 C 404.573 -0.278501 4.57152 0
M  V30 4362 N 406.064 -0.337123 4.61972 0
M  V30 4363 C 406.799 -0.302876 5.726 0
M  V30 4364 N 406.295 -0.220589 6.92449 0
M  V30 4365 N 408.088 -0.353023 5.6099 0
M  V30 4366 H 400.239 0.881869 1.93227 0
M  V30 4367 H 402.502 0.335867 0.886509 0
M  V30 4368 H 402.208 0.675108 3.4516 0
M  V30 4369 H 402.082 -1.06721 3.61788 0
M  V30 4370 H 404.469 -1.29379 2.65226 0
M  V30 4371 H 404.55 0.468409 2.51475 0
M  V30 4372 H 404.194 0.659189 5.03604 0
M  V30 4373 H 404.124 -1.11755 5.14605 0
M  V30 4374 H 406.615 -0.403002 3.75745 0
M  V30 4375 H 406.928 -0.199713 7.72542 0
M  V30 4376 H 405.273 -0.186555 6.9475 0
M  V30 4377 H 408.464 -0.415339 4.66254 0
M  V30 4378 H 408.637 -0.322866 6.47195 0
M  V30 4379 N 402.043 -1.548 -0.295768 0
M  V30 4380 C 403.268 -1.78653 -1.05346 0
M  V30 4381 C 403.693 -0.546894 -1.79974 0
M  V30 4382 O 403.051 0.502763 -1.7419 0
M  V30 4383 C 403.099 -2.99679 -2.00561 0
M  V30 4384 O 402.203 -2.7317 -3.08953 0
M  V30 4385 H 401.544 -0.59116 -0.302367 0
M  V30 4386 H 404.074 -2.01895 -0.331598 0
M  V30 4387 H 404.084 -3.27793 -2.42932 0
M  V30 4388 H 402.759 -3.89562 -1.4565 0
M  V30 4389 H 401.336 -2.56089 -2.71059 0
M  V30 4390 N 403.521 0.559213 -1.47345 0
M  V30 4391 C 404.451 1.67622 -1.62558 0
M  V30 4392 C 405.432 1.63331 -0.475087 0
M  V30 4393 O 406.617 1.80983 -0.704182 0
M  V30 4394 C 403.747 3.0626 -1.63774 0
M  V30 4395 C 402.701 3.25397 -2.7803 0
M  V30 4396 C 402.027 4.64801 -2.64318 0
M  V30 4397 C 403.327 3.10965 -4.19641 0
M  V30 4398 H 405.021 1.55146 -2.56067 0
M  V30 4399 H 402.567 0.744961 -1.23233 0
M  V30 4400 H 404.52 3.84247 -1.73008 0
M  V30 4401 H 403.244 3.1969 -0.66825 0
M  V30 4402 H 401.903 2.49817 -2.68304 0
M  V30 4403 H 401.551 4.75028 -1.65401 0
M  V30 4404 H 401.251 4.78555 -3.40968 0
M  V30 4405 H 402.775 5.44926 -2.75478 0
M  V30 4406 H 404.189 3.78772 -4.30354 0
M  V30 4407 H 402.586 3.36229 -4.97062 0
M  V30 4408 H 403.656 2.07736 -4.38148 0
M  V30 4409 N 404.999 1.35443 0.805782 0
M  V30 4410 C 406.276 1.19325 1.54987 0
M  V30 4411 C 406.656 -0.227294 2.09873 0
M  V30 4412 O 406.004 -1.2309 1.92512 0
M  V30 4413 C 406.214 2.26196 2.65775 0
M  V30 4414 C 407.562 2.62043 3.34094 0
M  V30 4415 O 408.586 2.25115 2.76046 0
M  V30 4416 O 407.445 3.25542 4.38958 0
M  V30 4417 H 404.539 0.463623 0.684823 0
M  V30 4418 H 407.085 1.47127 0.845674 0
M  V30 4419 H 405.857 3.21471 2.23096 0
M  V30 4420 H 405.48 1.99667 3.43829 0
M  V30 4421 N 406.477 -1.02803 1.19454 0
M  V30 4422 C 407.407 -2.12999 0.956758 0
M  V30 4423 C 408.388 -1.69743 -0.110188 0
M  V30 4424 O 409.573 -1.94148 0.0450038 0
M  V30 4425 C 406.703 -3.43746 0.495553 0
M  V30 4426 C 405.657 -4.00688 1.50443 0
M  V30 4427 C 404.983 -5.27067 0.900275 0
M  V30 4428 C 406.283 -4.35397 2.8849 0
M  V30 4429 H 407.977 -2.33148 1.87836 0
M  V30 4430 H 405.523 -1.12045 0.904539 0
M  V30 4431 H 407.476 -4.2021 0.316493 0
M  V30 4432 H 406.2 -3.23321 -0.461646 0
M  V30 4433 H 404.859 -3.2632 1.67065 0
M  V30 4434 H 404.507 -5.02959 -0.064503 0
M  V30 4435 H 404.207 -5.66127 1.57397 0
M  V30 4436 H 405.731 -6.06196 0.73203 0
M  V30 4437 H 407.145 -5.02795 2.75446 0
M  V30 4438 H 405.542 -4.85541 3.52661 0
M  V30 4439 H 406.612 -3.44662 3.41081 0
M  V30 4440 N 407.956 -0.998596 -1.21925 0
M  V30 4441 C 409.181 -0.696015 -1.95372 0
M  V30 4442 C 409.606 0.733826 -1.73195 0
M  V30 4443 O 408.964 1.50242 -1.01474 0
M  V30 4444 C 409.012 -1.01466 -3.4603 0
M  V30 4445 O 408.116 -0.116415 -4.12236 0
M  V30 4446 H 407.457 -0.259938 -0.611006 0
M  V30 4447 H 409.987 -1.33711 -1.54863 0
M  V30 4448 H 409.997 -0.958855 -3.96573 0
M  V30 4449 H 408.672 -2.05653 -3.61497 0
M  V30 4450 H 407.249 -0.228193 -3.72201 0
M  V30 4451 N 409.434 1.37368 -0.772513 0
M  V30 4452 C 410.674 2.01512 -0.342361 0
M  V30 4453 C 411.038 1.59997 1.06136 0
M  V30 4454 O 412.239 2.16609 1.59167 0
M  V30 4455 C 410.51 3.54134 -0.482048 0
M  V30 4456 S 412.069 4.38585 -0.137272 0
M  V30 4457 H 408.887 0.698699 -0.131686 0
M  V30 4458 H 411.489 1.67552 -1.0073 0
M  V30 4459 H 410.193 3.81837 -1.50428 0
M  V30 4460 H 409.724 3.92894 0.199413 0
M  V30 4461 H 411.739 4.84594 1.06692 0
M  V30 4462 N 410.912 0.523116 1.48665 0
M  V30 4463 C 411.862 -0.263106 2.26477 0
M  V30 4464 C 412.846 -0.916005 1.32281 0
M  V30 4465 O 414.038 -0.819946 1.56863 0
M  V30 4466 C 411.167 -1.31361 3.17174 0
M  V30 4467 C 410.253 -0.665849 4.1884 0
M  V30 4468 N 410.644 0.244434 5.05209 0
M  V30 4469 C 408.942 -0.923863 4.36326 0
M  V30 4470 C 409.643 0.617443 5.78414 0
M  V30 4471 N 408.619 -0.0198686 5.43596 0
M  V30 4472 H 412.421 0.437295 2.90629 0
M  V30 4473 H 409.935 0.340675 1.58787 0
M  V30 4474 H 411.932 -1.89052 3.71571 0
M  V30 4475 H 410.592 -2.01546 2.54576 0
M  V30 4476 H 411.603 0.616621 5.14216 0
M  V30 4477 H 408.28 -1.6168 3.84923 0
M  V30 4478 H 409.67 1.36346 6.57921 0
M  V30 4479 N 412.39 -1.55475 0.257931 0
M  V30 4480 C 413.618 -2.03609 -0.367559 0
M  V30 4481 C 414.033 -1.13687 -1.50734 0
M  V30 4482 O 413.39 -0.153479 -1.81853 0
M  V30 4483 C 413.441 -3.51001 -0.864908 0
M  V30 4484 O 413.162 -4.37499 0.229465 0
M  V30 4485 C 414.663 -4.14946 -1.55997 0
M  V30 4486 H 411.883 -0.665459 -0.0860521 0
M  V30 4487 H 414.427 -2.00843 0.385014 0
M  V30 4488 H 412.582 -3.54266 -1.56762 0
M  V30 4489 H 412.996 -5.24286 -0.14998 0
M  V30 4490 H 414.47 -5.19735 -1.85956 0
M  V30 4491 H 414.947 -3.6209 -2.4857 0
M  V30 4492 H 415.553 -4.15635 -0.901543 0
M  V30 4493 N 413.868 0.0150385 -1.57593 0
M  V30 4494 C 414.798 1.01047 -2.10503 0
M  V30 4495 C 415.779 1.36816 -1.01071 0
M  V30 4496 O 416.964 1.45455 -1.28672 0
M  V30 4497 C 414.094 2.30708 -2.59598 0
M  V30 4498 C 413.048 2.09142 -3.73421 0
M  V30 4499 C 412.374 3.44685 -4.08774 0
M  V30 4500 C 413.674 1.46619 -5.01298 0
M  V30 4501 H 415.368 0.569978 -2.93925 0
M  V30 4502 H 412.914 0.272724 -1.41394 0
M  V30 4503 H 414.867 3.00687 -2.95238 0
M  V30 4504 H 413.591 2.76843 -1.73279 0
M  V30 4505 H 412.25 1.41592 -3.38153 0
M  V30 4506 H 411.898 3.88495 -3.195 0
M  V30 4507 H 411.598 3.31077 -4.8545 0
M  V30 4508 H 413.122 4.16004 -4.4696 0
M  V30 4509 H 414.536 2.06535 -5.34805 0
M  V30 4510 H 412.933 1.43544 -5.82679 0
M  V30 4511 H 414.003 0.433611 -4.82957 0
M  V30 4512 N 415.346 1.54954 0.287554 0
M  V30 4513 C 416.294 1.87606 1.37502 0
M  V30 4514 C 417.288 0.751001 1.51843 0
M  V30 4515 O 418.494 0.935169 1.53801 0
M  V30 4516 H 414.869 0.595231 0.459569 0
M  V30 4517 H 416.84 2.78477 1.07206 0
M  V30 4518 C 415.589 2.15183 2.73115 0
M  V30 4519 H 414.912 3.01234 2.62866 0
M  V30 4520 H 416.352 2.4196 3.48183 0
M  V30 4521 C 414.811 0.954686 3.2309 0
M  V30 4522 O 415.341 0.181949 4.01288 0
M  V30 4523 N 413.547 0.756368 2.80584 0
M  V30 4524 H 413.094 1.38643 2.17108 0
M  V30 4525 H 413.052 -0.0430391 3.14371 0
M  V30 4526 N 416.824 -0.551391 1.4764 0
M  V30 4527 C 417.787 -1.64007 1.60107 0
M  V30 4528 C 418.787 -1.53601 0.47576 0
M  V30 4529 O 419.977 -1.57655 0.740988 0
M  V30 4530 C 417.109 -3.03569 1.55108 0
M  V30 4531 H 418.302 -1.543 2.57161 0
M  V30 4532 H 415.855 -0.771776 1.35917 0
M  V30 4533 H 416.59 -3.18804 0.594519 0
M  V30 4534 H 416.375 -3.12532 2.36783 0
M  V30 4535 H 417.865 -3.82762 1.66982 0
M  V30 4536 N 418.302 -1.35869 -0.798587 0
M  V30 4537 C 419.551 -1.28921 -1.5512 0
M  V30 4538 C 419.864 0.13208 -1.95154 0
M  V30 4539 O 421.07 0.323879 -2.69561 0
M  V30 4540 C 419.526 -2.26141 -2.79979 0
M  V30 4541 C 419.134 -3.73658 -2.47151 0
M  V30 4542 C 420.878 -2.28152 -3.57976 0
M  V30 4543 C 418.785 -4.62679 -3.6835 0
M  V30 4544 H 417.715 -0.479031 -0.582276 0
M  V30 4545 H 420.366 -1.61179 -0.877125 0
M  V30 4546 H 418.748 -1.86865 -3.49138 0
M  V30 4547 H 419.922 -4.21616 -1.85947 0
M  V30 4548 H 418.237 -3.74333 -1.82383 0
M  V30 4549 H 420.834 -2.91875 -4.4801 0
M  V30 4550 H 421.177 -1.28748 -3.95891 0
M  V30 4551 H 421.71 -2.65998 -2.95787 0
M  V30 4552 H 418.449 -5.63111 -3.35538 0
M  V30 4553 H 417.969 -4.19442 -4.28752 0
M  V30 4554 H 419.648 -4.78498 -4.35487 0
M  V30 4555 N 419.78 1.02168 -1.19998 0
M  V30 4556 C 420.728 2.12717 -0.940967 0
M  V30 4557 C 421.722 1.69069 0.105841 0
M  V30 4558 O 422.928 1.79946 -0.0440583 0
M  V30 4559 H 419.303 0.695108 -0.28693 0
M  V30 4560 H 421.274 2.3175 -1.87975 0
M  V30 4561 C 420.023 3.44027 -0.504049 0
M  V30 4562 H 419.346 3.78036 -1.30112 0
M  V30 4563 H 420.786 4.22452 -0.361991 0
M  V30 4564 C 419.245 3.27678 0.782878 0
M  V30 4565 O 419.775 3.56949 1.84256 0
M  V30 4566 N 417.981 2.80943 0.742921 0
M  V30 4567 H 417.528 2.57322 -0.119687 0
M  V30 4568 H 417.486 2.70385 1.60435 0
M  V30 4569 N 421.258 1.00505 1.21394 0
M  V30 4570 C 422.191 0.51032 2.22421 0
M  V30 4571 C 423.169 -0.436 1.56645 0
M  V30 4572 O 424.353 -0.358709 1.85055 0
M  V30 4573 C 421.48 -0.258733 3.3771 0
M  V30 4574 C 420.526 0.635395 4.2174 0
M  V30 4575 S 421.359 2.09783 4.92698 0
M  V30 4576 C 422.515 1.33862 6.11418 0
M  V30 4577 H 422.748 1.36637 2.64041 0
M  V30 4578 H 420.281 0.812991 1.31262 0
M  V30 4579 H 422.239 -0.696372 4.0455 0
M  V30 4580 H 420.9 -1.0902 2.94573 0
M  V30 4581 H 420.093 0.0430189 5.03982 0
M  V30 4582 H 419.695 1.01031 3.60095 0
M  V30 4583 H 421.987 0.612541 6.74725 0
M  V30 4584 H 422.93 2.13675 6.75092 0
M  V30 4585 H 423.338 0.846568 5.58116 0
M  V30 4586 N 422.737 -1.36956 0.779787 0
M  V30 4587 C 423.7 -2.2851 0.177662 0
M  V30 4588 C 424.7 -1.48393 -0.619377 0
M  V30 4589 O 425.89 -1.68505 -0.441785 0
M  V30 4590 C 423.022 -3.32428 -0.755279 0
M  V30 4591 H 424.215 -2.83269 0.984823 0
M  V30 4592 H 421.768 -1.46358 0.548544 0
M  V30 4593 H 422.503 -2.82808 -1.58714 0
M  V30 4594 H 422.288 -3.91659 -0.185817 0
M  V30 4595 H 423.778 -4.00824 -1.17174 0
M  V30 4596 N 424.215 -0.530993 -1.48385 0
M  V30 4597 C 425.445 -0.00133928 -2.066 0
M  V30 4598 C 425.853 1.28599 -1.38777 0
M  V30 4599 O 425.196 1.77599 -0.469495 0
M  V30 4600 C 425.258 0.292137 -3.58311 0
M  V30 4601 C 424.922 -0.901864 -4.48013 0
M  V30 4602 C 425.919 -1.80053 -4.87726 0
M  V30 4603 C 423.604 -1.10915 -4.89901 0
M  V30 4604 C 425.598 -2.89038 -5.68098 0
M  V30 4605 C 423.285 -2.20213 -5.70043 0
M  V30 4606 C 424.283 -3.09107 -6.0905 0
M  V30 4607 O 423.971 -4.16514 -6.87583 0
M  V30 4608 H 423.703 -0.0308475 -0.675296 0
M  V30 4609 H 426.257 -0.736335 -1.91748 0
M  V30 4610 H 424.487 1.08112 -3.7128 0
M  V30 4611 H 426.176 0.763994 -3.98645 0
M  V30 4612 H 426.942 -1.65234 -4.55986 0
M  V30 4613 H 422.821 -0.426498 -4.59023 0
M  V30 4614 H 426.365 -3.58451 -5.98464 0
M  V30 4615 H 422.262 -2.35016 -6.01197 0
M  V30 4616 H 423.03 -4.14237 -7.05939 0
M  V30 4617 N 425.693 1.55336 -0.266172 0
M  V30 4618 C 426.64 2.22172 0.625165 0
M  V30 4619 C 427.61 1.19211 1.15663 0
M  V30 4620 O 428.795 1.47723 1.20758 0
M  V30 4621 C 425.935 2.93972 1.8076 0
M  V30 4622 C 425.048 4.11632 1.31084 0
M  V30 4623 C 424.183 4.71099 2.45436 0
M  V30 4624 C 423.222 5.8097 1.92718 0
M  V30 4625 N 422.359 6.34538 3.00509 0
M  V30 4626 H 427.199 2.9796 0.0485582 0
M  V30 4627 H 424.736 1.47095 0.0122024 0
M  V30 4628 H 426.694 3.33811 2.50251 0
M  V30 4629 H 425.324 2.20623 2.35638 0
M  V30 4630 H 424.376 3.76975 0.509326 0
M  V30 4631 H 425.688 4.90893 0.884633 0
M  V30 4632 H 424.842 5.13612 3.22936 0
M  V30 4633 H 423.581 3.91096 2.91368 0
M  V30 4634 H 422.586 5.37916 1.13695 0
M  V30 4635 H 423.811 6.62836 1.47733 0
M  V30 4636 H 421.757 5.57433 3.45839 0
M  V30 4637 H 421.674 7.09046 2.62279 0
M  V30 4638 H 422.942 6.81709 3.78011 0
M  V30 4639 N 427.171 -0.0066808 1.57599 0
M  V30 4640 C 428.417 -0.693947 1.90558 0
M  V30 4641 C 428.75 -1.73792 0.866594 0
M  V30 4642 O 428.025 -1.94156 -0.115548 0
M  V30 4643 C 428.308 -1.34317 3.34112 0
M  V30 4644 C 428.161 -0.311189 4.48722 0
M  V30 4645 C 429.48 -2.27116 3.7697 0
M  V30 4646 H 426.599 -0.250803 0.693013 0
M  V30 4647 H 429.241 0.043242 1.89951 0
M  V30 4648 H 427.391 -1.9715 3.3476 0
M  V30 4649 H 429.063 0.316944 4.6021 0
M  V30 4650 H 427.306 0.367253 4.32243 0
M  V30 4651 H 427.977 -0.804366 5.46108 0
M  V30 4652 H 430.453 -1.74306 3.77831 0
M  V30 4653 H 429.329 -2.69511 4.78179 0
M  V30 4654 H 429.59 -3.14743 3.10466 0
M  V30 4655 N 428.649 -1.55105 -0.279332 0
M  V30 4656 C 429.877 -1.7943 -1.03017 0
M  V30 4657 C 430.292 -0.564456 -1.80165 0
M  V30 4658 O 429.649 0.466326 -1.76442 0
M  V30 4659 C 429.7 -3.0155 -1.99374 0
M  V30 4660 O 429.421 -4.19784 -1.25352 0
M  V30 4661 C 430.922 -3.3843 -2.86321 0
M  V30 4662 H 428.142 -0.597882 -0.304594 0
M  V30 4663 H 430.686 -2.02105 -0.312035 0
M  V30 4664 H 428.841 -2.81019 -2.66659 0
M  V30 4665 H 429.255 -4.88781 -1.90246 0
M  V30 4666 H 430.729 -4.27066 -3.49741 0
M  V30 4667 H 431.206 -2.57549 -3.5576 0
M  V30 4668 H 431.812 -3.61197 -2.24536 0
M  V30 4669 N 430.127 0.543554 -1.4793 0
M  V30 4670 C 431.543 0.870806 -1.3375 0
M  V30 4671 C 431.743 1.9864 -0.338261 0
M  V30 4672 O 430.799 2.51305 0.245371 0
M  V30 4673 C 432.112 1.25114 -2.73435 0
M  V30 4674 C 433.66 1.3618 -2.81823 0
M  V30 4675 C 434.135 1.77563 -4.22179 0
M  V30 4676 N 435.626 1.8469 -4.24787 0
M  V30 4677 C 436.361 2.18067 -5.30315 0
M  V30 4678 N 435.857 2.49963 -6.46135 0
M  V30 4679 N 437.65 2.18958 -5.17701 0
M  V30 4680 H 429.801 -0.19275 -2.11524 0
M  V30 4681 H 432.064 -0.0235777 -0.947707 0
M  V30 4682 H 431.77 0.50514 -3.48053 0
M  V30 4683 H 431.644 2.20431 -3.06088 0
M  V30 4684 H 434.031 2.09859 -2.07468 0
M  V30 4685 H 434.112 0.390169 -2.52807 0
M  V30 4686 H 433.756 1.04449 -4.97044 0
M  V30 4687 H 433.686 2.75753 -4.48629 0
M  V30 4688 H 436.177 1.62372 -3.41239 0
M  V30 4689 H 436.49 2.74497 -7.22406 0
M  V30 4690 H 434.835 2.47513 -6.49432 0
M  V30 4691 H 438.026 1.93488 -4.2624 0
M  V30 4692 H 438.199 2.44639 -6.00047 0
M  V30 4693 N 431.605 1.3629 0.791371 0
M  V30 4694 C 433.016 1.27225 1.36641 0
M  V30 4695 C 433.367 -0.0887968 1.95999 0
M  V30 4696 O 432.492 -0.990207 1.92416 0
M  V30 4697 C 433.087 2.30375 2.48421 0
M  V30 4698 C 431.646 2.25004 3.01746 0
M  V30 4699 C 430.793 2.15259 1.7481 0
M  V30 4700 H 433.744 1.47198 0.593173 0
M  V30 4701 H 433.765 1.93905 3.27385 0
M  V30 4702 H 433.277 3.29422 2.05189 0
M  V30 4703 H 431.378 1.29417 3.49403 0
M  V30 4704 H 431.491 3.1761 3.58693 0
M  V30 4705 H 429.855 1.61482 1.96966 0
M  V30 4706 H 430.638 3.16191 1.33709 0
M  V30 4707 N 433.083 -1.0153 1.20538 0
M  V30 4708 C 434.013 -2.11972 0.979295 0
M  V30 4709 C 434.994 -1.6985 -0.0921787 0
M  V30 4710 O 436.179 -1.94089 0.0655932 0
M  V30 4711 C 433.309 -3.43201 0.531984 0
M  V30 4712 C 432.263 -3.9907 1.54685 0
M  V30 4713 C 431.589 -5.26082 0.956127 0
M  V30 4714 C 432.889 -4.32313 2.93092 0
M  V30 4715 H 434.583 -2.31143 1.90298 0
M  V30 4716 H 432.129 -1.11079 0.916372 0
M  V30 4717 H 434.082 -4.1985 0.361044 0
M  V30 4718 H 432.806 -3.23792 -0.427327 0
M  V30 4719 H 431.465 -3.2453 1.70517 0
M  V30 4720 H 431.113 -5.02999 -0.0111538 0
M  V30 4721 H 430.813 -5.64426 1.63393 0
M  V30 4722 H 432.337 -6.05386 0.796284 0
M  V30 4723 H 433.751 -4.99845 2.80763 0
M  V30 4724 H 432.148 -4.81774 3.57791 0
M  V30 4725 H 433.218 -3.41025 3.44717 0
M  V30 4726 N 434.561 -1.01147 -1.20859 0
M  V30 4727 C 435.524 -0.582224 -2.21682 0
M  V30 4728 C 436.524 0.344887 -1.57058 0
M  V30 4729 O 437.714 0.134281 -1.73682 0
M  V30 4730 C 434.846 0.150496 -3.40568 0
M  V30 4731 H 436.039 -1.47408 -2.61172 0
M  V30 4732 H 433.592 -0.800695 -1.34233 0
M  V30 4733 H 434.327 1.0575 -3.06574 0
M  V30 4734 H 434.112 -0.515444 -3.88697 0
M  V30 4735 H 435.602 0.438344 -4.15293 0
M  V30 4736 N 436.039 1.36541 -0.78704 0
M  V30 4737 C 437.264 2.0409 -0.369053 0
M  V30 4738 C 437.689 1.58957 1.00569 0
M  V30 4739 O 437.047 0.756926 1.64743 0
M  V30 4740 C 437.095 3.57924 -0.438466 0
M  V30 4741 O 436.199 4.08642 0.555479 0
M  V30 4742 H 435.54 0.645142 -0.157122 0
M  V30 4743 H 438.07 1.74545 -1.06749 0
M  V30 4744 H 438.08 4.06887 -0.301218 0
M  V30 4745 H 436.755 3.90127 -1.44132 0
M  V30 4746 H 435.332 3.70958 0.380088 0
M  V30 4747 N 437.518 0.538854 1.48102 0
M  V30 4748 C 438.481 -0.208395 2.28251 0
M  V30 4749 C 439.481 -0.859656 1.35892 0
M  V30 4750 O 440.671 -0.71834 1.58699 0
M  V30 4751 C 437.803 -1.30252 3.15035 0
M  V30 4752 H 438.996 0.495407 2.9578 0
M  V30 4753 H 436.549 0.295112 1.53489 0
M  V30 4754 H 437.284 -2.0393 2.52157 0
M  V30 4755 H 437.069 -0.840551 3.82985 0
M  V30 4756 H 438.559 -1.82787 3.75471 0
M  V30 4757 N 438.996 -1.55193 0.274407 0
M  V30 4758 C 439.944 -2.23924 -0.629362 0
M  V30 4759 C 440.938 -1.23602 -1.1584 0
M  V30 4760 O 442.144 -1.41535 -1.11211 0
M  V30 4761 H 438.519 -0.718637 -0.221507 0
M  V30 4762 H 440.49 -2.98388 -0.0268322 0
M  V30 4763 C 439.239 -2.97329 -1.80252 0
M  V30 4764 H 438.562 -3.74313 -1.40462 0
M  V30 4765 H 440.002 -3.48743 -2.41152 0
M  V30 4766 C 438.461 -2.0276 -2.69054 0
M  V30 4767 O 438.991 -1.57836 -3.69392 0
M  V30 4768 N 437.197 -1.69275 -2.36208 0
M  V30 4769 H 436.744 -2.06004 -1.54661 0
M  V30 4770 H 436.702 -1.06271 -2.95895 0
M  V30 4771 N 440.474 -0.00167713 -1.576 0
M  V30 4772 C 441.699 0.69739 -1.95323 0
M  V30 4773 C 442.124 1.6642 -0.876706 0
M  V30 4774 O 441.482 1.80548 0.165007 0
M  V30 4775 C 441.53 1.40403 -3.32144 0
M  V30 4776 O 440.634 2.5185 -3.26566 0
M  V30 4777 H 439.975 0.185373 -0.637599 0
M  V30 4778 H 442.505 -0.0553665 -2.04525 0
M  V30 4779 H 442.515 1.76707 -3.67748 0
M  V30 4780 H 441.19 0.695167 -4.10049 0
M  V30 4781 H 439.767 2.17861 -3.0264 0
M  V30 4782 N 441.952 1.55251 0.271103 0
M  V30 4783 C 443.192 1.77698 1.01008 0
M  V30 4784 C 443.556 0.567246 1.83429 0
M  V30 4785 O 444.757 0.670013 2.60316 0
M  V30 4786 C 443.028 3.04715 1.86772 0
M  V30 4787 S 444.587 3.48289 2.66909 0
M  V30 4788 H 441.405 0.624343 0.340172 0
M  V30 4789 H 444.007 1.9348 0.280315 0
M  V30 4790 H 442.711 3.90853 1.25149 0
M  V30 4791 H 442.242 2.91604 2.64066 0
M  V30 4792 H 444.257 3.07712 3.89266 0
M  V30 4793 N 443.43 -0.535701 1.48216 0
M  V30 4794 C 444.36 -1.65014 1.65204 0
M  V30 4795 C 445.341 -1.62554 0.501011 0
M  V30 4796 O 446.526 -1.7984 0.732886 0
M  V30 4797 C 443.656 -3.03616 1.68626 0
M  V30 4798 C 442.61 -3.20932 2.83172 0
M  V30 4799 C 441.936 -4.60537 2.71679 0
M  V30 4800 C 443.236 -3.04249 4.24535 0
M  V30 4801 H 444.93 -1.51053 2.58502 0
M  V30 4802 H 442.476 -0.725262 1.24402 0
M  V30 4803 H 444.429 -3.81446 1.79099 0
M  V30 4804 H 443.153 -3.18587 0.719026 0
M  V30 4805 H 441.812 -2.45517 2.72244 0
M  V30 4806 H 441.46 -4.72336 1.72937 0
M  V30 4807 H 441.16 -4.73069 3.48538 0
M  V30 4808 H 442.684 -5.40475 2.84112 0
M  V30 4809 H 444.098 -3.71877 4.36326 0
M  V30 4810 H 442.495 -3.28278 5.02348 0
M  V30 4811 H 443.565 -2.00739 4.41397 0
M  V30 4812 N 444.908 -1.36708 -0.784132 0
M  V30 4813 C 446.185 -1.21776 -1.53069 0
M  V30 4814 C 446.565 0.193876 -2.10208 0
M  V30 4815 O 445.913 1.20012 -1.94446 0
M  V30 4816 C 446.123 -2.30395 -2.62143 0
M  V30 4817 C 447.471 -2.67325 -3.29882 0
M  V30 4818 O 448.495 -2.29478 -2.7243 0
M  V30 4819 O 447.354 -3.32485 -4.33724 0
M  V30 4820 H 444.448 -0.474459 -0.677361 0
M  V30 4821 H 446.994 -1.48454 -0.82216 0
M  V30 4822 H 445.766 -3.2498 -2.17953 0
M  V30 4823 H 445.389 -2.05112 -3.40609 0
M  V30 4824 N 446.386 1.0089 -1.21074 0
M  V30 4825 C 447.797 1.56056 -1.02486 0
M  V30 4826 C 448.148 1.91728 0.416506 0
M  V30 4827 O 447.273 1.73066 1.29912 0
M  V30 4828 C 447.868 2.83563 -1.85411 0
M  V30 4829 C 446.427 3.3523 -1.71166 0
M  V30 4830 C 445.574 2.0846 -1.82865 0
M  V30 4831 H 448.525 0.831818 -1.35154 0
M  V30 4832 H 448.546 3.55286 -1.36205 0
M  V30 4833 H 448.058 2.57569 -2.9031 0
M  V30 4834 H 446.159 3.66167 -0.689361 0
M  V30 4835 H 446.272 4.06913 -2.52901 0
M  V30 4836 H 444.636 2.21275 -1.26132 0
M  V30 4837 H 445.419 1.84883 -2.89263 0
M  V30 4838 N 447.864 1.01787 1.20321 0
M  V30 4839 C 449.11 0.708985 1.90003 0
M  V30 4840 C 449.443 -0.759572 1.78729 0
M  V30 4841 O 448.718 -1.55198 1.17234 0
M  V30 4842 C 449.001 1.1469 3.41348 0
M  V30 4843 C 448.854 2.67586 3.61549 0
M  V30 4844 C 450.173 0.71915 4.34185 0
M  V30 4845 H 447.292 0.259034 0.689978 0
M  V30 4846 H 449.934 1.26584 1.41692 0
M  V30 4847 H 448.084 0.673128 3.82624 0
M  V30 4848 H 449.756 3.22826 3.29517 0
M  V30 4849 H 447.999 3.085 3.04976 0
M  V30 4850 H 448.67 2.93281 4.67643 0
M  V30 4851 H 451.146 1.12647 4.00562 0
M  V30 4852 H 450.022 1.05358 5.38694 0
M  V30 4853 H 450.283 -0.379111 4.40472 0
M  V30 4854 N 449.342 -1.36122 0.79427 0
M  V30 4855 C 450.272 -2.32551 0.210328 0
M  V30 4856 C 451.253 -1.56884 -0.657386 0
M  V30 4857 O 452.438 -1.85014 -0.590207 0
M  V30 4858 C 449.568 -3.41128 -0.651819 0
M  V30 4859 C 448.522 -4.27842 0.116395 0
M  V30 4860 C 447.848 -5.2763 -0.86666 0
M  V30 4861 C 449.148 -5.05647 1.30837 0
M  V30 4862 H 450.842 -2.81636 1.01594 0
M  V30 4863 H 448.388 -1.35407 0.489981 0
M  V30 4864 H 450.341 -4.07581 -1.07031 0
M  V30 4865 H 449.065 -2.90622 -1.49019 0
M  V30 4866 H 447.724 -3.62952 0.515915 0
M  V30 4867 H 447.372 -4.73395 -1.70019 0
M  V30 4868 H 447.072 -5.86514 -0.35705 0
M  V30 4869 H 448.596 -5.96955 -1.28361 0
M  V30 4870 H 450.01 -5.65113 0.965393 0
M  V30 4871 H 448.407 -5.73967 1.75161 0
M  V30 4872 H 449.477 -4.37006 2.10128 0
M  V30 4873 N 450.82 -0.546701 -1.47814 0
M  V30 4874 C 452.05 -0.0232519 -2.06587 0
M  V30 4875 C 452.458 1.2712 -1.40133 0
M  V30 4876 O 451.801 1.77091 -0.488305 0
M  V30 4877 C 451.863 0.254117 -3.58601 0
M  V30 4878 C 451.527 -0.949331 -4.47031 0
M  V30 4879 C 452.524 -1.85216 -4.85789 0
M  V30 4880 C 450.209 -1.16104 -4.88697 0
M  V30 4881 C 452.203 -2.95047 -5.65001 0
M  V30 4882 C 449.89 -2.26247 -5.67676 0
M  V30 4883 C 450.888 -3.1555 -6.05737 0
M  V30 4884 O 450.576 -4.23784 -6.83127 0
M  V30 4885 H 450.308 -0.0380082 -0.674931 0
M  V30 4886 H 452.862 -0.756631 -1.90956 0
M  V30 4887 H 451.092 1.04168 -3.72406 0
M  V30 4888 H 452.781 0.72167 -3.99433 0
M  V30 4889 H 453.547 -1.70061 -4.54207 0
M  V30 4890 H 449.426 -0.475159 -4.58545 0
M  V30 4891 H 452.97 -3.64778 -5.94628 0
M  V30 4892 H 448.867 -2.41379 -5.98671 0
M  V30 4893 H 449.635 -4.21701 -7.01506 0
M  V30 4894 N 452.299 1.55045 -0.282633 0
M  V30 4895 C 453.546 1.9976 0.33199 0
M  V30 4896 C 453.874 1.17105 1.55295 0
M  V30 4897 O 453.129 0.230599 1.94337 0
M  V30 4898 C 453.428 3.49422 0.750938 0
M  V30 4899 C 453.094 4.4941 -0.366228 0
M  V30 4900 C 451.756 4.76471 -0.672964 0
M  V30 4901 C 454.108 5.09054 -1.11864 0
M  V30 4902 C 451.436 5.60442 -1.73556 0
M  V30 4903 C 453.788 5.9418 -2.17102 0
M  V30 4904 C 452.452 6.19558 -2.48402 0
M  V30 4905 H 451.722 0.730974 0.121484 0
M  V30 4906 H 454.369 1.8732 -0.39791 0
M  V30 4907 H 452.674 3.59377 1.56063 0
M  V30 4908 H 454.371 3.81432 1.23736 0
M  V30 4909 H 450.961 4.2844 -0.117041 0
M  V30 4910 H 455.145 4.88165 -0.894925 0
M  V30 4911 H 450.401 5.78349 -1.983 0
M  V30 4912 H 454.575 6.39427 -2.75873 0
M  V30 4913 H 452.202 6.84417 -3.30874 0
M  V30 4914 N 453.777 0.010035 1.57597 0
M  V30 4915 C 454.707 -0.976857 2.12084 0
M  V30 4916 C 455.688 -1.35191 1.03235 0
M  V30 4917 O 456.873 -1.43389 1.3097 0
M  V30 4918 C 454.003 -2.26548 2.63236 0
M  V30 4919 C 452.957 -2.03175 3.76701 0
M  V30 4920 C 452.283 -3.38138 4.14206 0
M  V30 4921 C 453.583 -1.38625 5.03568 0
M  V30 4922 H 455.277 -0.523145 2.94794 0
M  V30 4923 H 452.823 -0.250195 1.4181 0
M  V30 4924 H 454.776 -2.95952 2.99984 0
M  V30 4925 H 453.5 -2.74051 1.77661 0
M  V30 4926 H 452.159 -1.36195 3.40362 0
M  V30 4927 H 451.807 -3.83363 3.25641 0
M  V30 4928 H 451.507 -3.23312 4.90656 0
M  V30 4929 H 453.031 -4.08841 4.53521 0
M  V30 4930 H 454.445 -1.98 5.38023 0
M  V30 4931 H 452.842 -1.34256 5.84889 0
M  V30 4932 H 453.912 -0.356722 4.83586 0
M  V30 4933 N 455.255 -1.55392 -0.262866 0
M  V30 4934 C 456.218 -1.88181 -1.30846 0
M  V30 4935 C 457.218 -0.757079 -1.41862 0
M  V30 4936 O 458.408 -1.02519 -1.40838 0
M  V30 4937 C 455.54 -2.09609 -2.68844 0
M  V30 4938 H 456.733 -2.81659 -1.02997 0
M  V30 4939 H 454.286 -1.48039 -0.501414 0
M  V30 4940 H 455.021 -1.18547 -3.01856 0
M  V30 4941 H 454.806 -2.91508 -2.62231 0
M  V30 4942 H 456.296 -2.36215 -3.44372 0
M  V30 4943 N 456.733 0.527833 -1.48498 0
M  V30 4944 C 457.981 1.28101 -1.56316 0
M  V30 4945 C 458.302 1.9352 -0.239781 0
M  V30 4946 O 457.572 1.81433 0.738849 0
M  V30 4947 H 456.152 0.475793 -0.575873 0
M  V30 4948 H 458.814 0.614052 -1.84974 0
M  V30 4949 H 457.91 2.05916 -2.34532 0
M  V30 4950 N 458.211 1.37122 0.776871 0
M  V30 4951 C 459.143 1.28342 1.89897 0
M  V30 4952 C 460.156 0.200277 1.61563 0
M  V30 4953 O 461.345 0.456012 1.72577 0
M  V30 4954 C 458.445 0.960427 3.25006 0
M  V30 4955 C 457.618 2.148 3.81025 0
M  V30 4956 C 456.677 1.79608 4.94598 0
M  V30 4957 O 455.703 2.51845 5.10454 0
M  V30 4958 N 456.905 0.737171 5.758 0
M  V30 4959 H 459.67 2.25027 1.97947 0
M  V30 4960 H 457.231 1.3068 0.955739 0
M  V30 4961 H 459.223 0.705942 3.98495 0
M  V30 4962 H 457.793 0.0823066 3.12492 0
M  V30 4963 H 457.013 2.56454 2.99374 0
M  V30 4964 H 458.301 2.9411 4.15183 0
M  V30 4965 H 457.699 0.137637 5.65533 0
M  V30 4966 H 456.256 0.542534 6.49538 0
M  V30 4967 N 459.689 -1.00246 1.21608 0
M  V30 4968 C 461.105 -1.26435 0.973975 0
M  V30 4969 C 461.305 -1.98642 -0.338143 0
M  V30 4970 O 460.361 -2.29026 -1.06317 0
M  V30 4971 C 461.674 -2.08551 2.16626 0
M  V30 4972 C 463.222 -2.21769 2.20879 0
M  V30 4973 C 463.697 -3.07267 3.39633 0
M  V30 4974 N 465.188 -3.14855 3.39736 0
M  V30 4975 C 465.923 -3.81274 4.28273 0
M  V30 4976 N 465.419 -4.497 5.27012 0
M  V30 4977 N 467.212 -3.7794 4.16074 0
M  V30 4978 H 459.363 -0.518089 2.05984 0
M  V30 4979 H 461.626 -0.291368 0.902113 0
M  V30 4980 H 461.332 -1.62847 3.11727 0
M  V30 4981 H 461.206 -3.09303 2.15897 0
M  V30 4982 H 463.593 -2.66691 1.26332 0
M  V30 4983 H 463.674 -1.20478 2.25652 0
M  V30 4984 H 463.318 -2.63047 4.34475 0
M  V30 4985 H 463.248 -4.08678 3.321 0
M  V30 4986 H 465.739 -2.66147 2.6828 0
M  V30 4987 H 466.052 -4.98092 5.90867 0
M  V30 4988 H 464.397 -4.48479 5.30935 0
M  V30 4989 H 467.588 -3.23638 3.38195 0
M  V30 4990 H 467.761 -4.29424 4.85282 0
M  V30 4991 N 461.167 -1.02423 -1.1978 0
M  V30 4992 C 462.097 -0.62157 -2.25075 0
M  V30 4993 C 463.078 0.367148 -1.6609 0
M  V30 4994 O 464.263 0.250892 -1.92573 0
M  V30 4995 C 461.393 0.0331826 -3.47284 0
M  V30 4996 C 460.347 -0.877323 -4.18912 0
M  V30 4997 C 459.673 -0.0879296 -5.34628 0
M  V30 4998 C 460.973 -2.18892 -4.74219 0
M  V30 4999 H 462.667 -1.50179 -2.59011 0
M  V30 5000 H 460.213 -0.723547 -1.24502 0
M  V30 5001 H 462.166 0.326488 -4.20133 0
M  V30 5002 H 460.89 0.948164 -3.12534 0
M  V30 5003 H 459.549 -1.15475 -3.47938 0
M  V30 5004 H 459.197 0.828941 -4.96123 0
M  V30 5005 H 458.897 -0.694359 -5.83483 0
M  V30 5006 H 460.421 0.198743 -6.10276 0
M  V30 5007 H 461.835 -1.95746 -5.38847 0
M  V30 5008 H 460.232 -2.74686 -5.33542 0
M  V30 5009 H 461.302 -2.84674 -3.92541 0
M  V30 5010 N 462.645 1.35699 -0.801477 0
M  V30 5011 C 463.891 1.99208 -0.380022 0
M  V30 5012 C 464.224 1.63445 1.04878 0
M  V30 5013 O 463.499 0.895223 1.72673 0
M  V30 5014 C 463.782 3.55755 -0.557708 0
M  V30 5015 C 463.635 4.01332 -2.03107 0
M  V30 5016 C 464.954 4.40096 0.0197968 0
M  V30 5017 H 462.073 0.723667 -0.139552 0
M  V30 5018 H 464.715 1.60928 -1.01006 0
M  V30 5019 H 462.865 3.88494 -0.0213741 0
M  V30 5020 H 464.537 3.79026 -2.62939 0
M  V30 5021 H 462.78 3.52429 -2.52936 0
M  V30 5022 H 463.451 5.10234 -2.1063 0
M  V30 5023 H 465.927 4.13786 -0.438179 0
M  V30 5024 H 464.803 5.48735 -0.134477 0
M  V30 5025 H 465.064 4.2786 1.11303 0
M  V30 5026 N 464.123 0.554532 1.47522 0
M  V30 5027 C 465.539 0.214107 1.58157 0
M  V30 5028 C 465.739 -1.28331 1.55349 0
M  V30 5029 O 464.795 -2.06329 1.45549 0
M  V30 5030 C 466.108 0.838391 2.88776 0
M  V30 5031 C 467.656 0.809374 3.02354 0
M  V30 5032 C 468.131 1.41268 4.35669 0
M  V30 5033 N 469.622 1.37574 4.42298 0
M  V30 5034 C 470.357 1.8122 5.4401 0
M  V30 5035 N 469.853 2.3271 6.52547 0
M  V30 5036 N 471.646 1.72307 5.35039 0
M  V30 5037 H 463.797 1.52744 1.4759 0
M  V30 5038 H 466.06 0.636812 0.702264 0
M  V30 5039 H 465.766 1.89065 2.96559 0
M  V30 5040 H 465.64 0.329847 3.75755 0
M  V30 5041 H 468.027 -0.234187 2.94169 0
M  V30 5042 H 468.108 1.35565 2.16924 0
M  V30 5043 H 467.752 2.45529 4.4461 0
M  V30 5044 H 467.682 0.841871 5.19827 0
M  V30 5045 H 470.173 0.999081 3.64454 0
M  V30 5046 H 470.486 2.63944 7.26329 0
M  V30 5047 H 468.831 2.36719 6.53444 0
M  V30 5048 H 472.022 1.3186 4.49144 0
M  V30 5049 H 472.195 2.06641 6.14169 0
M  V30 5050 N 465.601 -1.54893 0.290851 0
M  V30 5051 C 466.848 -1.99933 -0.321391 0
M  V30 5052 C 467.176 -1.17927 -1.54672 0
M  V30 5053 O 466.431 -0.240902 -1.94212 0
M  V30 5054 C 466.73 -3.49815 -0.732397 0
M  V30 5055 C 466.396 -4.4921 0.390056 0
M  V30 5056 C 465.058 -4.76107 0.698223 0
M  V30 5057 C 467.41 -5.08453 1.14562 0
M  V30 5058 C 464.738 -5.59514 1.76526 0
M  V30 5059 C 467.09 -5.9302 2.2025 0
M  V30 5060 C 465.754 -6.18232 2.51684 0
M  V30 5061 H 465.024 -0.731608 -0.117605 0
M  V30 5062 H 467.671 -1.87107 0.407839 0
M  V30 5063 H 465.976 -3.60199 -1.54155 0
M  V30 5064 H 467.673 -3.82083 -1.21712 0
M  V30 5065 H 464.263 -4.28372 0.13976 0
M  V30 5066 H 468.447 -4.87683 0.920801 0
M  V30 5067 H 463.703 -5.77289 2.01364 0
M  V30 5068 H 467.877 -6.37955 2.7926 0
M  V30 5069 H 465.504 -6.82653 3.34499 0
M  V30 5070 N 467.08 -0.0183926 -1.57589 0
M  V30 5071 C 468.043 0.951986 -2.08494 0
M  V30 5072 C 469.043 1.26092 -0.997874 0
M  V30 5073 O 470.233 1.20304 -1.25987 0
M  V30 5074 C 467.365 2.27165 -2.54182 0
M  V30 5075 H 468.558 0.511307 -2.95509 0
M  V30 5076 H 466.111 0.229444 -1.54607 0
M  V30 5077 H 466.846 2.75884 -1.70465 0
M  V30 5078 H 466.631 2.06057 -3.33591 0
M  V30 5079 H 468.121 2.9674 -2.93828 0
M  V30 5080 N 468.558 1.5553 0.254621 0
M  V30 5081 C 469.974 1.4778 0.602753 0
M  V30 5082 C 470.174 0.707047 1.88688 0
M  V30 5083 O 469.23 0.233288 2.5142 0
M  V30 5084 C 470.543 2.92133 0.712648 0
M  V30 5085 C 472.091 3.02458 0.805488 0
M  V30 5086 C 472.566 4.48102 0.947009 0
M  V30 5087 N 474.057 4.52008 1.01207 0
M  V30 5088 C 474.792 5.61939 1.1407 0
M  V30 5089 N 474.288 6.81697 1.23536 0
M  V30 5090 N 476.081 5.49719 1.17325 0
M  V30 5091 H 468.232 2.04085 -0.588463 0
M  V30 5092 H 470.495 0.926229 -0.202001 0
M  V30 5093 H 470.201 3.51332 -0.160766 0
M  V30 5094 H 470.075 3.42187 1.58707 0
M  V30 5095 H 472.462 2.43344 1.66936 0
M  V30 5096 H 472.543 2.55627 -0.0939266 0
M  V30 5097 H 472.187 5.07824 0.087725 0
M  V30 5098 H 472.117 4.92607 1.86135 0
M  V30 5099 H 474.608 3.65749 0.950577 0
M  V30 5100 H 474.921 7.61228 1.33236 0
M  V30 5101 H 473.266 6.84473 1.20508 0
M  V30 5102 H 476.457 4.55095 1.09573 0
M  V30 5103 H 476.63 6.35432 1.27005 0
M  V30 5104 N 470.036 -0.519951 1.48776 0
M  V30 5105 C 471.313 -1.28123 1.47797 0
M  V30 5106 C 471.693 -2.10196 0.195157 0
M  V30 5107 O 471.041 -2.13167 -0.822925 0
M  V30 5108 C 471.251 -2.15413 2.74587 0
M  V30 5109 C 472.599 -2.75225 3.23321 0
M  V30 5110 O 473.623 -2.25694 2.75574 0
M  V30 5111 O 472.482 -3.65346 4.06429 0
M  V30 5112 H 469.576 -0.578793 0.590701 0
M  V30 5113 H 472.122 -0.535779 1.6102 0
M  V30 5114 H 470.894 -1.54617 3.59457 0
M  V30 5115 H 470.517 -2.97186 2.64132 0
M  V30 5116 N 471.514 -1.37532 -0.769588 0
M  V30 5117 C 472.477 -1.33292 -1.86456 0
M  V30 5118 C 473.477 -0.236537 -1.59051 0
M  V30 5119 O 474.667 -0.492511 -1.67093 0
M  V30 5120 C 471.799 -1.07118 -3.23633 0
M  V30 5121 H 472.992 -2.30692 -1.91628 0
M  V30 5122 H 470.545 -1.22593 -0.969572 0
M  V30 5123 H 471.28 -0.102578 -3.24138 0
M  V30 5124 H 471.065 -1.86479 -3.44917 0
M  V30 5125 H 472.555 -1.06806 -4.03711 0
M  V30 5126 N 472.992 0.995999 -1.22138 0
M  V30 5127 C 473.939 2.08551 -0.988687 0
M  V30 5128 C 474.909 1.65864 0.0885021 0
M  V30 5129 O 476.094 1.90704 -0.0604589 0
M  V30 5130 C 473.234 3.40374 -0.569191 0
M  V30 5131 C 472.347 3.96421 -1.71681 0
M  V30 5132 C 471.482 5.1639 -1.2456 0
M  V30 5133 C 470.521 5.64567 -2.36497 0
M  V30 5134 N 469.658 6.75777 -1.90445 0
M  V30 5135 H 474.498 2.2779 -1.92135 0
M  V30 5136 H 472.035 1.1168 -0.957388 0
M  V30 5137 H 473.993 4.16068 -0.307166 0
M  V30 5138 H 472.623 3.21145 0.326462 0
M  V30 5139 H 471.675 3.17628 -2.09324 0
M  V30 5140 H 472.987 4.2816 -2.55891 0
M  V30 5141 H 472.141 5.99362 -0.940774 0
M  V30 5142 H 470.88 4.86266 -0.373662 0
M  V30 5143 H 469.885 4.80185 -2.67772 0
M  V30 5144 H 471.11 5.96716 -3.24202 0
M  V30 5145 H 469.056 6.47443 -1.05609 0
M  V30 5146 H 468.973 7.06818 -2.68223 0
M  V30 5147 H 470.241 7.62262 -1.63022 0
M  V30 5148 N 474.47 1.03057 1.19235 0
M  V30 5149 C 475.881 0.757449 1.70645 0
M  V30 5150 C 476.232 -0.722735 1.82403 0
M  V30 5151 O 475.357 -1.56325 1.49638 0
M  V30 5152 C 475.952 1.36833 3.09939 0
M  V30 5153 C 474.511 1.14375 3.58602 0
M  V30 5154 C 473.658 1.46533 2.35422 0
M  V30 5155 H 476.609 1.19828 1.04052 0
M  V30 5156 H 476.63 0.766184 3.72706 0
M  V30 5157 H 476.142 2.44562 3.01349 0
M  V30 5158 H 474.243 0.0847542 3.72504 0
M  V30 5159 H 474.356 1.83366 4.42622 0
M  V30 5160 H 472.72 0.884712 2.38841 0
M  V30 5161 H 473.503 2.55349 2.2946 0
M  V30 5162 N 475.948 -1.35272 0.808662 0
M  V30 5163 C 477.359 -1.81179 0.450688 0
M  V30 5164 C 477.71 -1.67143 -1.02751 0
M  V30 5165 O 476.835 -1.20325 -1.79864 0
M  V30 5166 C 477.43 -3.28943 0.811275 0
M  V30 5167 C 475.989 -3.72985 0.505871 0
M  V30 5168 C 475.136 -2.57229 1.03578 0
M  V30 5169 H 478.087 -1.2322 1.00012 0
M  V30 5170 H 478.108 -3.80342 0.109588 0
M  V30 5171 H 477.62 -3.39127 1.88718 0
M  V30 5172 H 475.721 -3.68349 -0.561209 0
M  V30 5173 H 475.834 -4.67677 1.03995 0
M  V30 5174 H 474.198 -2.50548 0.458005 0
M  V30 5175 H 474.981 -2.7019 2.11784 0
M  V30 5176 N 477.426 -0.562348 -1.47226 0
M  V30 5177 C 478.654 -0.0452275 -2.06851 0
M  V30 5178 C 479.069 1.25078 -1.41424 0
M  V30 5179 O 478.426 1.75156 -0.512513 0
M  V30 5180 C 478.477 0.148674 -3.61194 0
M  V30 5181 O 478.198 -1.09602 -4.24169 0
M  V30 5182 C 479.699 0.702488 -4.37699 0
M  V30 5183 H 476.919 -0.0481775 -0.669268 0
M  V30 5184 H 479.463 -0.777223 -1.89155 0
M  V30 5185 H 477.618 0.830817 -3.78386 0
M  V30 5186 H 478.032 -0.896982 -5.16773 0
M  V30 5187 H 479.506 0.78743 -5.46355 0
M  V30 5188 H 479.983 1.71493 -4.04335 0
M  V30 5189 H 480.589 0.0558772 -4.25263 0
M  V30 5190 N 478.904 1.54736 -0.299062 0
M  V30 5191 C 480.152 1.99706 0.31017 0
M  V30 5192 C 480.473 1.18896 1.54559 0
M  V30 5193 O 479.743 0.284445 1.93824 0
M  V30 5194 H 478.323 0.737686 0.117596 0
M  V30 5195 H 480.985 1.9054 -0.409943 0
M  V30 5196 H 480.081 3.06596 0.58355 0
M  V30 5197 N 480.382 0.0267497 1.57577 0
M  V30 5198 C 481.793 -0.512413 1.79531 0
M  V30 5199 C 482.144 -1.72391 0.936791 0
M  V30 5200 O 481.269 -2.15903 0.146543 0
M  V30 5201 C 481.864 -0.936378 3.25603 0
M  V30 5202 C 480.423 -1.42067 3.4856 0
M  V30 5203 C 479.57 -0.384278 2.74624 0
M  V30 5204 H 482.521 0.252797 1.56674 0
M  V30 5205 H 482.542 -1.80088 3.35184 0
M  V30 5206 H 482.054 -0.0544332 3.88062 0
M  V30 5207 H 480.155 -2.32262 2.9135 0
M  V30 5208 H 480.268 -1.42968 4.57271 0
M  V30 5209 H 478.632 -0.851855 2.40032 0
M  V30 5210 H 479.415 0.489159 3.39797 0
M  V30 5211 N 481.861 -1.55662 -0.24637 0
M  V30 5212 C 483.086 -1.81914 -0.996093 0
M  V30 5213 C 483.511 -0.603875 -1.78143 0
M  V30 5214 O 482.869 0.447091 -1.75701 0
M  V30 5215 C 482.917 -3.05908 -1.90925 0
M  V30 5216 O 482.021 -2.82861 -3.00105 0
M  V30 5217 H 481.362 -0.600481 -0.283406 0
M  V30 5218 H 483.892 -2.02848 -0.267199 0
M  V30 5219 H 483.902 -3.35356 -2.3238 0
M  V30 5220 H 482.577 -3.93999 -1.33183 0
M  V30 5221 H 481.154 -2.64583 -2.62775 0
M  V30 5222 N 483.339 0.512053 -1.4905 0
M  V30 5223 C 484.75 1.09376 -1.51307 0
M  V30 5224 C 485.101 1.94 -0.292971 0
M  V30 5225 O 484.226 2.07965 0.598277 0
M  V30 5226 C 484.821 1.99031 -2.74176 0
M  V30 5227 C 483.38 2.52385 -2.79247 0
M  V30 5228 C 482.527 1.29749 -2.45073 0
M  V30 5229 H 485.478 0.296467 -1.55906 0
M  V30 5230 H 485.499 2.83569 -2.53711 0
M  V30 5231 H 485.011 1.37412 -3.62959 0
M  V30 5232 H 483.112 3.17673 -1.94716 0
M  V30 5233 H 483.225 2.90293 -3.81139 0
M  V30 5234 H 481.589 1.61912 -1.96612 0
M  V30 5235 H 482.372 0.698555 -3.36118 0
M  V30 5236 N 484.817 1.37938 0.762283 0
M  V30 5237 C 485.78 1.34279 1.85747 0
M  V30 5238 C 486.78 0.244969 1.58923 0
M  V30 5239 O 487.97 0.501365 1.66829 0
M  V30 5240 C 485.102 1.08833 3.23061 0
M  V30 5241 H 486.295 2.31705 1.90401 0
M  V30 5242 H 483.848 1.23105 0.963057 0
M  V30 5243 H 484.583 0.119767 3.24079 0
M  V30 5244 H 484.368 1.88306 3.43923 0
M  V30 5245 H 485.858 1.08946 4.03138 0
M  V30 5246 N 486.295 -0.989507 1.22664 0
M  V30 5247 C 487.523 -1.76496 1.07967 0
M  V30 5248 C 487.938 -1.85148 -0.369543 0
M  V30 5249 O 487.295 -1.32408 -1.25596 0
M  V30 5250 C 487.346 -3.19642 1.68853 0
M  V30 5251 O 487.067 -3.11453 3.08105 0
M  V30 5252 C 488.568 -4.13621 1.59475 0
M  V30 5253 H 485.788 -0.55418 0.378319 0
M  V30 5254 H 488.332 -1.24378 1.62328 0
M  V30 5255 H 486.487 -3.68816 1.18547 0
M  V30 5256 H 486.901 -4.01499 3.37489 0
M  V30 5257 H 488.375 -5.11801 2.06795 0
M  V30 5258 H 488.852 -4.35718 0.55191 0
M  V30 5259 H 489.458 -3.70346 2.09103 0
M  V30 5260 N 487.773 -1.03688 -1.18687 0
M  V30 5261 C 489.184 -0.766488 -1.70241 0
M  V30 5262 C 489.535 0.713052 -1.82784 0
M  V30 5263 O 488.66 1.55529 -1.50465 0
M  V30 5264 C 489.255 -1.38475 -3.09209 0
M  V30 5265 C 487.814 -1.16276 -3.5799 0
M  V30 5266 C 486.961 -1.4778 -2.34641 0
M  V30 5267 H 489.912 -1.20378 -1.03415 0
M  V30 5268 H 489.933 -0.785939 -3.72295 0
M  V30 5269 H 489.445 -2.46157 -3.00048 0
M  V30 5270 H 487.546 -0.104508 -3.72453 0
M  V30 5271 H 487.659 -1.8571 -4.41643 0
M  V30 5272 H 486.023 -0.897366 -2.38368 0
M  V30 5273 H 486.806 -2.56562 -2.28102 0
M  V30 5274 N 489.251 1.34841 -0.815825 0
M  V30 5275 C 490.214 2.27959 -0.238185 0
M  V30 5276 C 491.214 1.49983 0.579816 0
M  V30 5277 O 492.404 1.69617 0.396953 0
M  V30 5278 C 489.536 3.34314 0.666876 0
M  V30 5279 H 490.729 2.80558 -1.05958 0
M  V30 5280 H 488.282 1.44852 -0.587156 0
M  V30 5281 H 489.017 2.86916 1.5116 0
M  V30 5282 H 488.802 3.92014 0.0819106 0
M  V30 5283 H 490.292 4.0379 1.06506 0
M  V30 5284 N 490.729 0.570148 1.46925 0
M  V30 5285 C 492.145 0.23087 1.57921 0
M  V30 5286 C 492.345 -1.26676 1.56702 0
M  V30 5287 O 491.401 -2.04774 1.47729 0
M  V30 5288 C 492.714 0.868973 2.8787 0
M  V30 5289 C 494.262 0.841397 3.01479 0
M  V30 5290 C 494.737 1.45881 4.34146 0
M  V30 5291 N 496.228 1.42258 4.40814 0
M  V30 5292 C 496.963 1.8698 5.42057 0
M  V30 5293 N 496.459 2.39618 6.50042 0
M  V30 5294 N 498.252 1.77972 5.33181 0
M  V30 5295 H 490.403 1.54301 1.45962 0
M  V30 5296 H 492.666 0.644224 0.69547 0
M  V30 5297 H 492.372 1.922 2.94537 0
M  V30 5298 H 492.246 0.369682 3.75384 0
M  V30 5299 H 494.633 -0.202973 2.94401 0
M  V30 5300 H 494.714 1.37858 2.15474 0
M  V30 5301 H 494.358 2.50231 4.4198 0
M  V30 5302 H 494.288 0.896958 5.18905 0
M  V30 5303 H 496.779 1.03768 3.63374 0
M  V30 5304 H 497.092 2.71633 7.23488 0
M  V30 5305 H 495.437 2.43636 6.50897 0
M  V30 5306 H 498.628 1.36617 4.4772 0
M  V30 5307 H 498.801 2.13143 6.11943 0
M  V30 5308 N 492.207 -1.54576 0.307264 0
M  V30 5309 C 493.623 -1.59534 -0.0459251 0
M  V30 5310 C 493.823 -1.32414 -1.51884 0
M  V30 5311 O 492.879 -1.1006 -2.27251 0
M  V30 5312 C 494.192 -2.98566 0.357649 0
M  V30 5313 C 495.74 -3.11491 0.306937 0
M  V30 5314 C 496.215 -4.52842 0.685427 0
M  V30 5315 N 497.706 -4.58782 0.638203 0
M  V30 5316 C 498.441 -5.66238 0.903458 0
M  V30 5317 N 497.937 -6.81703 1.23501 0
M  V30 5318 N 499.73 -5.55937 0.830102 0
M  V30 5319 H 491.881 -1.70464 1.26712 0
M  V30 5320 H 494.144 -0.79647 0.514139 0
M  V30 5321 H 493.85 -3.23356 1.38325 0
M  V30 5322 H 493.724 -3.76117 -0.285565 0
M  V30 5323 H 496.111 -2.86446 -0.709424 0
M  V30 5324 H 496.192 -2.36081 0.984861 0
M  V30 5325 H 495.836 -4.78618 1.69963 0
M  V30 5326 H 495.766 -5.26598 -0.0146346 0
M  V30 5327 H 498.257 -3.75849 0.393138 0
M  V30 5328 H 498.57 -7.59582 1.42322 0
M  V30 5329 H 496.915 -6.8324 1.27311 0
M  V30 5330 H 500.106 -4.64608 0.570693 0
M  V30 5331 H 500.279 -6.39597 1.04019 0
M  V30 5332 N 493.685 -0.035106 -1.57561 0
M  V30 5333 C 495.101 0.321334 -1.56332 0
M  V30 5334 C 495.301 1.72509 -1.04129 0
M  V30 5335 O 494.357 2.4287 -0.690694 0
M  V30 5336 C 495.67 0.164469 -3.0025 0
M  V30 5337 C 497.218 0.236786 -3.12103 0
M  V30 5338 C 497.693 0.10864 -4.57871 0
M  V30 5339 N 499.184 0.165433 -4.62904 0
M  V30 5340 C 499.919 0.0901506 -5.73329 0
M  V30 5341 N 499.415 -0.0365606 -6.9279 0
M  V30 5342 N 501.208 0.144572 -5.61914 0
M  V30 5343 H 493.359 -0.952976 -1.89821 0
M  V30 5344 H 495.622 -0.368537 -0.873432 0
M  V30 5345 H 495.328 -0.802746 -3.42416 0
M  V30 5346 H 495.202 0.932194 -3.655 0
M  V30 5347 H 497.589 1.19446 -2.69845 0
M  V30 5348 H 497.67 -0.561419 -2.49563 0
M  V30 5349 H 497.314 -0.845644 -5.00811 0
M  V30 5350 H 497.244 0.925786 -5.18398 0
M  V30 5351 H 499.735 0.263269 -3.76982 0
M  V30 5352 H 500.048 -0.0871487 -7.72751 0
M  V30 5353 H 498.393 -0.0714256 -6.94963 0
M  V30 5354 H 501.584 0.242006 -4.67474 0
M  V30 5355 H 501.757 0.0824413 -6.47948 0
M  V30 5356 N 495.163 1.55791 0.238111 0
M  V30 5357 C 496.093 1.94068 1.29846 0
M  V30 5358 C 497.074 0.806726 1.49753 0
M  V30 5359 O 498.259 1.06772 1.62214 0
M  V30 5360 C 495.389 2.24302 2.65153 0
M  V30 5361 C 494.343 3.40032 2.59927 0
M  V30 5362 C 493.669 3.55829 3.99111 0
M  V30 5363 C 494.969 4.75476 2.16148 0
M  V30 5364 H 496.663 2.82887 0.980563 0
M  V30 5365 H 494.209 1.36105 0.470253 0
M  V30 5366 H 496.162 2.4967 3.39475 0
M  V30 5367 H 494.886 1.32318 2.98596 0
M  V30 5368 H 493.545 3.14687 1.88063 0
M  V30 5369 H 493.193 2.6125 4.29834 0
M  V30 5370 H 492.893 4.3366 3.96501 0
M  V30 5371 H 494.417 3.83528 4.7512 0
M  V30 5372 H 495.831 5.00158 2.80205 0
M  V30 5373 H 494.228 5.56472 2.24631 0
M  V30 5374 H 495.298 4.71946 1.11333 0
M  V30 5375 N 496.642 -0.504142 1.49319 0
M  V30 5376 C 497.89 -1.25598 1.58334 0
M  V30 5377 C 498.211 -1.93114 0.270538 0
M  V30 5378 O 497.481 -1.82585 -0.709891 0
M  V30 5379 H 496.061 -0.466571 0.58337 0
M  V30 5380 H 498.723 -0.584547 1.85928 0
M  V30 5381 H 497.819 -2.02159 2.37778 0
M  V30 5382 N 498.12 -1.38341 -0.754957 0
M  V30 5383 C 499.05 -1.38176 -1.88227 0
M  V30 5384 C 500.031 -0.247873 -1.68284 0
M  V30 5385 O 501.216 -0.45075 -1.88896 0
M  V30 5386 C 498.346 -1.20471 -3.25736 0
M  V30 5387 C 497.3 -2.3105 -3.60278 0
M  V30 5388 C 496.626 -1.98452 -4.96509 0
M  V30 5389 C 497.926 -3.73305 -3.65295 0
M  V30 5390 H 499.62 -2.32512 -1.88622 0
M  V30 5391 H 497.166 -1.1192 -0.906082 0
M  V30 5392 H 499.119 -1.18982 -4.04254 0
M  V30 5393 H 497.843 -0.225965 -3.25817 0
M  V30 5394 H 496.502 -2.31723 -2.84078 0
M  V30 5395 H 496.15 -0.990641 -4.93148 0
M  V30 5396 H 495.85 -2.7251 -5.20588 0
M  V30 5397 H 497.374 -1.98578 -5.77407 0
M  V30 5398 H 498.788 -3.7467 -4.3393 0
M  V30 5399 H 497.185 -4.46557 -4.00883 0
M  V30 5400 H 498.255 -4.05719 -2.65556 0
M  V30 5401 N 499.598 0.982988 -1.23187 0
M  V30 5402 C 501.014 1.2487 -0.993967 0
M  V30 5403 C 501.214 1.99155 0.306498 0
M  V30 5404 O 500.27 2.30688 1.0266 0
M  V30 5405 C 501.583 2.05078 -2.19917 0
M  V30 5406 C 503.131 2.18227 -2.2438 0
M  V30 5407 C 503.606 3.01825 -3.44479 0
M  V30 5408 N 505.097 3.09411 -3.44702 0
M  V30 5409 C 505.832 3.74412 -4.34285 0
M  V30 5410 N 505.328 4.41259 -5.341 0
M  V30 5411 N 507.121 3.71273 -4.22035 0
M  V30 5412 H 499.272 0.485253 -2.06783 0
M  V30 5413 H 501.535 0.276979 -0.906635 0
M  V30 5414 H 501.241 1.57867 -3.14279 0
M  V30 5415 H 501.115 3.05829 -2.2079 0
M  V30 5416 H 503.502 2.64648 -1.30559 0
M  V30 5417 H 503.583 1.16873 -2.2754 0
M  V30 5418 H 503.227 2.56102 -4.38605 0
M  V30 5419 H 503.157 4.03342 -3.38559 0
M  V30 5420 H 505.648 2.61845 -2.7248 0
M  V30 5421 H 505.961 4.88629 -5.98717 0
M  V30 5422 H 504.306 4.39975 -5.38002 0
M  V30 5423 H 507.497 3.18217 -3.43301 0
M  V30 5424 H 507.67 4.21649 -4.92053 0
M  V30 5425 N 501.076 1.04316 1.18135 0
M  V30 5426 C 502.492 0.762858 1.40188 0
M  V30 5427 C 502.692 -0.646547 1.90846 0
M  V30 5428 O 501.748 -1.41036 2.0944 0
M  V30 5429 C 503.061 1.81106 2.40044 0
M  V30 5430 C 504.609 1.83226 2.53766 0
M  V30 5431 C 505.084 2.87044 3.56889 0
M  V30 5432 N 506.575 2.85951 3.64398 0
M  V30 5433 C 507.31 3.62932 4.43923 0
M  V30 5434 N 506.806 4.49672 5.27036 0
M  V30 5435 N 508.599 3.51411 4.38711 0
M  V30 5436 H 500.75 1.95264 0.835805 0
M  V30 5437 H 503.013 0.845017 0.429709 0
M  V30 5438 H 502.719 2.82214 2.09876 0
M  V30 5439 H 502.593 1.64529 3.39426 0
M  V30 5440 H 504.98 0.827869 2.8325 0
M  V30 5441 H 505.061 2.03879 1.54489 0
M  V30 5442 H 504.705 3.87663 3.28145 0
M  V30 5443 H 504.635 2.63645 4.5585 0
M  V30 5444 H 507.126 2.23051 3.05052 0
M  V30 5445 H 507.439 5.05116 5.84874 0
M  V30 5446 H 505.784 4.53738 5.26447 0
M  V30 5447 H 508.975 2.83047 3.72829 0
M  V30 5448 H 509.148 4.11654 5.00445 0
M  V30 5449 N 502.554 -1.34406 0.822964 0
M  V30 5450 C 503.779 -2.0304 0.423034 0
M  V30 5451 C 504.204 -1.61568 -0.963196 0
M  V30 5452 O 503.562 -0.800339 -1.62678 0
M  V30 5453 C 503.61 -3.56636 0.53321 0
M  V30 5454 O 502.714 -4.09971 -0.446939 0
M  V30 5455 H 502.055 -0.64075 0.174171 0
M  V30 5456 H 504.585 -1.71653 1.11339 0
M  V30 5457 H 504.595 -4.05945 0.408991 0
M  V30 5458 H 503.27 -3.86168 1.54425 0
M  V30 5459 H 501.847 -3.71835 -0.281601 0
M  V30 5460 N 504.032 -0.577932 -1.46621 0
M  V30 5461 C 505.309 0.00495287 -1.95599 0
M  V30 5462 C 505.689 1.46428 -1.5206 0
M  V30 5463 O 505.037 2.1517 -0.769046 0
M  V30 5464 C 505.247 -0.162114 -3.48623 0
M  V30 5465 C 506.595 -0.0274623 -4.24591 0
M  V30 5466 O 507.619 -0.0907067 -3.56084 0
M  V30 5467 O 506.478 0.1122 -5.46385 0
M  V30 5468 H 503.572 0.0525057 -0.825332 0
M  V30 5469 H 506.118 -0.645914 -1.56927 0
M  V30 5470 H 504.89 -1.17679 -3.73185 0
M  V30 5471 H 504.513 0.525407 -3.94113 0
M  V30 5472 N 505.51 1.54411 -0.315457 0
M  V30 5473 C 506.926 1.59556 0.037464 0
M  V30 5474 C 507.126 1.33217 1.5118 0
M  V30 5475 O 506.182 1.11264 2.26664 0
M  V30 5476 C 507.495 2.98372 -0.373477 0
M  V30 5477 C 509.043 3.11324 -0.323452 0
M  V30 5478 C 509.518 4.52472 -0.709433 0
M  V30 5479 N 511.009 4.58437 -0.662524 0
M  V30 5480 C 511.744 5.65751 -0.933474 0
M  V30 5481 N 511.24 6.81039 -1.27114 0
M  V30 5482 N 513.033 5.55489 -0.859573 0
M  V30 5483 H 505.184 1.6979 -1.27614 0
M  V30 5484 H 507.447 0.793732 -0.518356 0
M  V30 5485 H 507.153 3.22618 -1.40037 0
M  V30 5486 H 507.027 3.76264 0.265615 0
M  V30 5487 H 509.414 2.86818 0.694223 0
M  V30 5488 H 509.495 2.35555 -0.997367 0
M  V30 5489 H 509.139 4.7771 -1.72498 0
M  V30 5490 H 509.069 5.26598 -0.0132923 0
M  V30 5491 H 511.56 3.75636 -0.413065 0
M  V30 5492 H 511.873 7.58816 -1.46348 0
M  V30 5493 H 510.218 6.82555 -1.30932 0
M  V30 5494 H 513.409 4.64299 -0.595324 0
M  V30 5495 H 513.582 6.39036 -1.0741 0
M  V30 5496 N 506.988 0.0434614 1.5754 0
M  V30 5497 C 508.216 -0.641835 1.96693 0
M  V30 5498 C 508.631 -1.64832 0.920652 0
M  V30 5499 O 507.988 -1.82247 -0.095993 0
M  V30 5500 C 508.039 -1.33557 3.35924 0
M  V30 5501 O 507.76 -0.369403 4.3654 0
M  V30 5502 C 509.261 -2.11135 3.89791 0
M  V30 5503 H 506.481 -0.176013 0.647503 0
M  V30 5504 H 509.025 0.107478 2.04217 0
M  V30 5505 H 507.18 -2.03617 3.29574 0
M  V30 5506 H 507.594 -0.863674 5.1734 0
M  V30 5507 H 509.068 -2.55107 4.89514 0
M  V30 5508 H 509.545 -2.95634 3.24803 0
M  V30 5509 H 510.151 -1.46002 3.99454 0
M  V30 5510 N 508.466 -1.55915 -0.229846 0
M  V30 5511 C 509.743 -1.6932 -0.979295 0
M  V30 5512 C 510.123 -0.588321 -2.02736 0
M  V30 5513 O 509.471 0.40586 -2.24867 0
M  V30 5514 C 509.681 -3.10305 -1.59724 0
M  V30 5515 C 511.029 -3.6945 -2.09264 0
M  V30 5516 O 512.053 -3.13214 -1.69633 0
M  V30 5517 O 510.912 -4.68072 -2.82082 0
M  V30 5518 H 508.006 -0.689314 -0.456919 0
M  V30 5519 H 510.552 -1.68238 -0.222283 0
M  V30 5520 H 509.324 -3.82177 -0.840039 0
M  V30 5521 H 508.947 -3.1547 -2.42001 0
M  V30 5522 N 509.944 0.496216 -1.49584 0
M  V30 5523 C 510.877 1.61508 -1.61215 0
M  V30 5524 C 511.855 1.55927 -0.461045 0
M  V30 5525 O 513.039 1.75914 -0.677231 0
M  V30 5526 C 510.166 3.00035 -1.57152 0
M  V30 5527 C 509.212 3.23861 -2.77518 0
M  V30 5528 S 510.045 3.06466 -4.39134 0
M  V30 5529 C 511.201 4.4738 -4.37724 0
M  V30 5530 H 511.434 1.51398 -2.55863 0
M  V30 5531 H 508.967 0.681727 -1.38535 0
M  V30 5532 H 510.925 3.7991 -1.55494 0
M  V30 5533 H 509.586 3.07556 -0.637834 0
M  V30 5534 H 508.779 4.25 -2.70908 0
M  V30 5535 H 508.381 2.51716 -2.76614 0
M  V30 5536 H 510.673 5.39556 -4.09738 0
M  V30 5537 H 511.616 4.59038 -5.39156 0
M  V30 5538 H 512.024 4.28283 -3.67742 0
M  V30 5539 N 511.423 1.38739 0.74761 0
M  V30 5540 C 512.355 1.32341 1.87132 0
M  V30 5541 C 513.368 0.234502 1.61102 0
M  V30 5542 O 514.557 0.492516 1.71571 0
M  V30 5543 C 511.657 1.02915 3.22896 0
M  V30 5544 C 510.83 2.22834 3.76383 0
M  V30 5545 C 509.889 1.90059 4.90677 0
M  V30 5546 O 508.915 2.62615 5.04997 0
M  V30 5547 N 510.117 0.859141 5.74107 0
M  V30 5548 H 512.882 2.29175 1.93129 0
M  V30 5549 H 510.443 1.32678 0.927805 0
M  V30 5550 H 512.435 0.79031 3.96908 0
M  V30 5551 H 511.005 0.148572 3.12247 0
M  V30 5552 H 510.225 2.62747 2.93867 0
M  V30 5553 H 511.513 3.02851 4.08851 0
M  V30 5554 H 510.911 0.257564 5.65113 0
M  V30 5555 H 509.468 0.680189 6.48241 0
M  V30 5556 N 512.901 -0.976442 1.23707 0
M  V30 5557 C 514.317 -1.24341 1.00058 0
M  V30 5558 C 514.517 -1.99315 -0.295932 0
M  V30 5559 O 513.573 -2.3123 -1.01435 0
M  V30 5560 C 514.886 -2.03909 2.21001 0
M  V30 5561 C 516.434 -2.17034 2.25534 0
M  V30 5562 C 516.909 -2.99994 3.46075 0
M  V30 5563 N 518.4 -3.07578 3.46338 0
M  V30 5564 C 519.135 -3.72104 4.36264 0
M  V30 5565 N 518.631 -4.3842 5.36432 0
M  V30 5566 N 520.424 -3.69029 4.23998 0
M  V30 5567 H 512.575 -0.47428 2.07037 0
M  V30 5568 H 514.838 -0.272167 0.908091 0
M  V30 5569 H 514.544 -1.56198 3.15111 0
M  V30 5570 H 514.418 -3.04654 2.22409 0
M  V30 5571 H 516.805 -2.63951 1.31961 0
M  V30 5572 H 516.886 -1.15664 2.28156 0
M  V30 5573 H 516.53 -2.53772 4.39957 0
M  V30 5574 H 516.46 -4.01541 3.40694 0
M  V30 5575 H 518.951 -2.60397 2.73865 0
M  V30 5576 H 519.264 -4.85447 6.013 0
M  V30 5577 H 517.609 -4.37116 5.40328 0
M  V30 5578 H 520.8 -3.16392 3.44984 0
M  V30 5579 H 520.973 -4.19034 4.94282 0
M  V30 5580 N 514.379 -1.04941 -1.1758 0
M  V30 5581 C 515.628 -0.753124 -1.87112 0
M  V30 5582 C 515.941 0.722507 -1.81767 0
M  V30 5583 O 517.147 1.13265 -2.46746 0
M  V30 5584 C 515.603 -1.29695 -3.35719 0
M  V30 5585 C 515.211 -2.80184 -3.49572 0
M  V30 5586 C 516.955 -1.07759 -4.10595 0
M  V30 5587 C 514.862 -3.2788 -4.92187 0
M  V30 5588 H 513.792 -0.278034 -0.700866 0
M  V30 5589 H 516.443 -1.26637 -1.32798 0
M  V30 5590 H 514.825 -0.711522 -3.89555 0
M  V30 5591 H 515.999 -3.44561 -3.05965 0
M  V30 5592 H 514.314 -3.00632 -2.88113 0
M  V30 5593 H 516.911 -1.40899 -5.15802 0
M  V30 5594 H 517.254 -0.0152302 -4.16297 0
M  V30 5595 H 517.787 -1.62809 -3.62957 0
M  V30 5596 H 514.526 -4.33535 -4.91658 0
M  V30 5597 H 514.046 -2.68245 -5.36475 0
M  V30 5598 H 515.725 -3.22412 -5.60945 0
M  V30 5599 N 515.857 1.33968 -0.830081 0
M  V30 5600 C 516.767 2.33164 -0.259207 0
M  V30 5601 C 517.783 1.62951 0.610164 0
M  V30 5602 O 518.959 1.94668 0.516369 0
M  V30 5603 C 516.024 3.42088 0.563598 0
M  V30 5604 C 515.085 4.28037 -0.329014 0
M  V30 5605 C 514.318 5.3176 0.454616 0
M  V30 5606 O 514.541 5.44876 1.6872 0
M  V30 5607 O 513.475 6.01669 -0.166794 0
M  V30 5608 H 517.301 2.83832 -1.08041 0
M  V30 5609 H 514.886 1.37154 -0.59239 0
M  V30 5610 H 516.768 4.08581 1.03147 0
M  V30 5611 H 515.443 2.93651 1.36201 0
M  V30 5612 H 514.35 3.64443 -0.844538 0
M  V30 5613 H 515.683 4.79934 -1.09196 0
M  V30 5614 N 517.335 0.585699 1.46312 0
M  V30 5615 C 518.612 0.00542031 1.95599 0
M  V30 5616 C 518.992 -1.45619 1.52834 0
M  V30 5617 O 518.34 -2.14759 0.780446 0
M  V30 5618 C 518.55 0.180601 3.48532 0
M  V30 5619 C 519.898 0.049979 4.24571 0
M  V30 5620 O 520.922 0.109589 3.56031 0
M  V30 5621 O 519.781 -0.0832226 5.46437 0
M  V30 5622 H 516.875 -0.0481281 0.825598 0
M  V30 5623 H 519.421 0.654227 1.56582 0
M  V30 5624 H 518.193 1.19657 3.72556 0
M  V30 5625 H 517.816 -0.504498 3.94386 0
M  V30 5626 N 518.813 -1.54241 0.323641 0
M  V30 5627 C 520.059 -2.00867 -0.279323 0
M  V30 5628 C 520.392 -1.21146 -1.5178 0
M  V30 5629 O 519.667 -0.29378 -1.92269 0
M  V30 5630 C 519.95 -3.54837 -0.613387 0
M  V30 5631 C 519.803 -4.45284 0.635803 0
M  V30 5632 C 521.122 -4.16186 -1.43099 0
M  V30 5633 H 518.241 -0.730177 -0.100049 0
M  V30 5634 H 520.883 -1.84829 0.440235 0
M  V30 5635 H 519.033 -3.68634 -1.22641 0
M  V30 5636 H 520.705 -4.43357 1.27406 0
M  V30 5637 H 518.948 -4.14956 1.26466 0
M  V30 5638 H 519.619 -5.5084 0.357597 0
M  V30 5639 H 522.095 -4.05964 -0.912814 0
M  V30 5640 H 520.971 -5.24031 -1.6335 0
M  V30 5641 H 521.232 -3.69516 -2.42715 0
M  V30 5642 N 520.291 -0.0518155 -1.57515 0
M  V30 5643 C 521.221 0.920283 -2.146 0
M  V30 5644 C 522.202 1.32406 -1.06783 0
M  V30 5645 O 523.387 1.39866 -1.34726 0
M  V30 5646 C 520.517 2.1949 -2.6915 0
M  V30 5647 C 519.471 1.93116 -3.81956 0
M  V30 5648 C 518.797 3.27037 -4.23026 0
M  V30 5649 C 520.097 1.25225 -5.07066 0
M  V30 5650 H 521.791 0.444801 -2.96077 0
M  V30 5651 H 519.337 0.212508 -1.42423 0
M  V30 5652 H 521.29 2.87894 -3.07725 0
M  V30 5653 H 520.014 2.69244 -1.84865 0
M  V30 5654 H 518.673 1.27123 -3.43854 0
M  V30 5655 H 518.321 3.74595 -3.3569 0
M  V30 5656 H 518.021 3.10189 -4.99056 0
M  V30 5657 H 519.545 3.96673 -4.64202 0
M  V30 5658 H 520.959 1.83666 -5.43083 0
M  V30 5659 H 519.356 1.18702 -5.88243 0
M  V30 5660 H 520.426 0.228382 -4.84362 0
M  V30 5661 N 521.769 1.56035 0.221574 0
M  V30 5662 C 523.017 1.78693 0.944102 0
M  V30 5663 C 523.338 0.620317 1.8487 0
M  V30 5664 O 522.608 -0.362784 1.92512 0
M  V30 5665 H 521.188 0.659082 0.351597 0
M  V30 5666 H 523.85 1.93497 0.233435 0
M  V30 5667 H 522.946 2.70837 1.55093 0
M  V30 5668 N 523.247 -0.488276 1.49845 0
M  V30 5669 C 524.472 -1.26997 1.63971 0
M  V30 5670 C 524.897 -1.85427 0.315994 0
M  V30 5671 O 524.255 -1.66475 -0.718032 0
M  V30 5672 C 524.303 -2.36689 2.72049 0
M  V30 5673 O 523.407 -3.40882 2.32107 0
M  V30 5674 H 522.748 -0.374376 0.548396 0
M  V30 5675 H 525.278 -0.583104 1.96115 0
M  V30 5676 H 525.288 -2.82262 2.94605 0
M  V30 5677 H 523.963 -1.93529 3.68129 0
M  V30 5678 H 522.54 -3.01139 2.19931 0
M  V30 5679 N 524.725 -1.39134 -0.740242 0
M  V30 5680 C 525.95 -1.39518 -1.53459 0
M  V30 5681 C 526.375 0.00968883 -1.88098 0
M  V30 5682 O 525.733 0.995312 -1.51536 0
M  V30 5683 C 525.781 -2.26981 -2.802 0
M  V30 5684 O 524.885 -1.69609 -3.75908 0
M  V30 5685 H 524.226 -0.475328 -0.463637 0
M  V30 5686 H 526.756 -1.83064 -0.913717 0
M  V30 5687 H 526.766 -2.41309 -3.28989 0
M  V30 5688 H 525.441 -3.29081 -2.5432 0
M  V30 5689 H 524.018 -1.64495 -3.34658 0
M  V30 5690 N 526.204 0.969867 -1.24223 0
M  V30 5691 C 527.114 2.09806 -1.0497 0
M  V30 5692 C 528.13 1.73998 0.00886455 0
M  V30 5693 O 529.306 2.00513 -0.188848 0
M  V30 5694 C 526.371 3.40467 -0.654452 0
M  V30 5695 C 525.432 3.90236 -1.78926 0
M  V30 5696 C 524.665 5.14662 -1.41277 0
M  V30 5697 O 524.888 5.69602 -0.301632 0
M  V30 5698 O 523.822 5.58761 -2.23763 0
M  V30 5699 H 527.648 2.28942 -1.99548 0
M  V30 5700 H 525.233 1.08197 -1.03023 0
M  V30 5701 H 527.115 4.19039 -0.445452 0
M  V30 5702 H 525.79 3.22636 0.262216 0
M  V30 5703 H 524.697 3.12735 -2.05299 0
M  V30 5704 H 526.03 4.1254 -2.68462 0
M  V30 5705 N 527.682 1.05563 1.17022 0
M  V30 5706 C 528.959 0.68165 1.83338 0
M  V30 5707 C 529.339 -0.837665 1.93769 0
M  V30 5708 O 528.687 -1.74507 1.47511 0
M  V30 5709 C 528.897 1.375 3.20772 0
M  V30 5710 C 530.245 1.51545 3.96635 0
M  V30 5711 O 531.269 1.33431 3.30264 0
M  V30 5712 O 530.128 1.812 5.15586 0
M  V30 5713 H 527.222 0.240412 0.791285 0
M  V30 5714 H 529.768 1.15545 1.24288 0
M  V30 5715 H 528.54 2.41135 3.08171 0
M  V30 5716 H 528.163 0.890798 3.87493 0
M  V30 5717 N 529.16 -1.33526 0.837174 0
M  V30 5718 C 530.385 -2.0258 0.444545 0
M  V30 5719 C 530.81 -1.6258 -0.946006 0
M  V30 5720 O 530.168 -0.817548 -1.6182 0
M  V30 5721 C 530.216 -3.5605 0.571006 0
M  V30 5722 O 529.32 -4.10422 -0.403431 0
M  V30 5723 H 528.661 -0.638866 0.180958 0
M  V30 5724 H 531.191 -1.70462 1.13154 0
M  V30 5725 H 531.201 -4.05488 0.452024 0
M  V30 5726 H 529.876 -3.84509 1.58512 0
M  V30 5727 H 528.453 -3.72113 -0.242147 0
M  V30 5728 N 530.638 -0.59345 -1.46 0
M  V30 5729 C 532.054 -0.255965 -1.57534 0
M  V30 5730 C 532.254 1.24167 -1.58697 0
M  V30 5731 O 531.31 2.02398 -1.50968 0
M  V30 5732 C 532.623 -0.91466 -2.86451 0
M  V30 5733 C 534.171 -0.889253 -3.00102 0
M  V30 5734 C 534.646 -1.52769 -4.3177 0
M  V30 5735 N 536.137 -1.49253 -4.38495 0
M  V30 5736 C 536.872 -1.9558 -5.39014 0
M  V30 5737 N 536.368 -2.49929 -6.46148 0
M  V30 5738 N 538.161 -1.86432 -5.30282 0
M  V30 5739 H 530.312 -1.56604 -1.43489 0
M  V30 5740 H 532.575 -0.655207 -0.685133 0
M  V30 5741 H 532.281 -1.96861 -2.91442 0
M  V30 5742 H 532.155 -0.429356 -3.74748 0
M  V30 5743 H 534.542 0.156111 -2.94687 0
M  V30 5744 H 534.623 -1.41268 -2.13253 0
M  V30 5745 H 534.267 -2.57231 -4.37944 0
M  V30 5746 H 534.197 -0.979398 -5.17412 0
M  V30 5747 H 536.688 -1.09536 -3.61677 0
M  V30 5748 H 537.001 -2.83109 -7.19075 0
M  V30 5749 H 535.346 -2.53961 -6.46938 0
M  V30 5750 H 538.537 -1.43722 -4.4549 0
M  V30 5751 H 538.71 -2.22852 -6.08474 0
M  V30 5752 N 532.116 1.54067 -0.331816 0
M  V30 5753 C 533.532 1.59587 0.0205388 0
M  V30 5754 C 533.732 1.34813 1.49759 0
M  V30 5755 O 532.788 1.13661 2.25471 0
M  V30 5756 C 534.101 2.97959 -0.405103 0
M  V30 5757 C 535.649 3.10964 -0.356454 0
M  V30 5758 C 536.124 4.51694 -0.757384 0
M  V30 5759 N 537.615 4.57709 -0.71111 0
M  V30 5760 C 538.35 5.64729 -0.993427 0
M  V30 5761 N 537.846 6.79652 -1.3433 0
M  V30 5762 N 539.639 5.54546 -0.918442 0
M  V30 5763 H 531.79 1.68426 -1.29407 0
M  V30 5764 H 534.053 0.78819 -0.526745 0
M  V30 5765 H 533.759 3.21115 -1.43451 0
M  V30 5766 H 533.633 3.76524 0.225692 0
M  V30 5767 H 536.02 2.87538 0.663763 0
M  V30 5768 H 536.101 2.34484 -1.02229 0
M  V30 5769 H 535.745 4.75853 -1.77555 0
M  V30 5770 H 535.675 5.26555 -0.0691444 0
M  V30 5771 H 538.166 3.75176 -0.452883 0
M  V30 5772 H 538.479 7.57221 -1.54388 0
M  V30 5773 H 536.824 6.81128 -1.38164 0
M  V30 5774 H 540.015 4.63641 -0.644536 0
M  V30 5775 H 540.188 6.37861 -1.14181 0
M  V30 5776 N 533.594 0.0601682 1.57485 0
M  V30 5777 C 534.822 -0.620937 1.97363 0
M  V30 5778 C 535.237 -1.63846 0.938082 0
M  V30 5779 O 534.594 -1.82339 -0.0766578 0
M  V30 5780 C 534.645 -1.29987 3.37321 0
M  V30 5781 O 534.366 -0.323081 4.36907 0
M  V30 5782 C 535.867 -2.06989 3.92008 0
M  V30 5783 H 533.087 -0.169135 0.649334 0
M  V30 5784 H 535.631 0.129132 2.04092 0
M  V30 5785 H 533.786 -2.0011 3.31715 0
M  V30 5786 H 534.2 -0.808754 5.18227 0
M  V30 5787 H 535.674 -2.49901 4.92192 0
M  V30 5788 H 536.151 -2.92173 3.2792 0
M  V30 5789 H 536.757 -1.41757 4.0098 0
M  V30 5790 N 535.072 -1.5615 -0.213296 0
M  V30 5791 C 535.982 -1.96265 -1.28519 0
M  V30 5792 C 536.998 -0.86765 -1.50824 0
M  V30 5793 O 538.174 -1.17191 -1.63793 0
M  V30 5794 C 535.239 -2.27836 -2.61327 0
M  V30 5795 C 534.3 -3.50949 -2.47252 0
M  V30 5796 C 533.533 -3.81004 -3.73727 0
M  V30 5797 O 533.756 -3.12612 -4.77106 0
M  V30 5798 O 532.69 -4.74477 -3.70344 0
M  V30 5799 H 536.516 -2.87631 -0.974795 0
M  V30 5800 H 534.101 -1.43467 -0.416832 0
M  V30 5801 H 535.983 -2.49299 -3.39747 0
M  V30 5802 H 534.658 -1.39643 -2.9203 0
M  V30 5803 H 533.565 -3.34754 -1.67004 0
M  V30 5804 H 534.898 -4.39551 -2.21486 0
M  V30 5805 N 536.55 0.480323 -1.50102 0
M  V30 5806 C 537.775 1.26126 -1.64642 0
M  V30 5807 C 538.2 1.85257 -0.325823 0
M  V30 5808 O 537.558 1.66854 0.709194 0
M  V30 5809 C 537.606 2.35243 -2.73301 0
M  V30 5810 O 536.71 3.39646 -2.33911 0
M  V30 5811 H 536.051 0.371463 -0.550374 0
M  V30 5812 H 538.581 0.572696 -1.96421 0
M  V30 5813 H 538.591 2.80695 -2.96098 0
M  V30 5814 H 537.266 1.91574 -3.6915 0
M  V30 5815 H 535.843 2.99969 -2.21525 0
M  V30 5816 N 538.028 1.39524 0.732853 0
M  V30 5817 C 539.256 1.40143 1.52209 0
M  V30 5818 C 539.671 -0.00348836 1.888 0
M  V30 5819 O 539.028 -0.975357 1.5425 0
M  V30 5820 C 539.079 2.27632 2.8083 0
M  V30 5821 O 538.8 3.62654 2.45792 0
M  V30 5822 C 540.301 2.36658 3.74844 0
M  V30 5823 H 537.521 0.478604 0.470297 0
M  V30 5824 H 540.065 1.83366 0.905388 0
M  V30 5825 H 538.22 1.87818 3.38826 0
M  V30 5826 H 538.634 4.08941 3.28431 0
M  V30 5827 H 540.108 3.02118 4.61984 0
M  V30 5828 H 540.585 1.38638 4.16745 0
M  V30 5829 H 541.191 2.76951 3.22766 0
M  V30 5830 N 539.506 -0.963266 1.24736 0
M  V30 5831 C 540.917 -1.52145 1.08207 0
M  V30 5832 C 541.268 -1.93142 -0.345061 0
M  V30 5833 O 540.393 -1.77769 -1.23399 0
M  V30 5834 C 540.988 -2.76486 1.95808 0
M  V30 5835 C 539.547 -3.28646 1.8349 0
M  V30 5836 C 538.694 -2.01529 1.90476 0
M  V30 5837 H 541.645 -0.781083 1.38148 0
M  V30 5838 H 541.666 -3.49986 1.49297 0
M  V30 5839 H 541.178 -2.46617 2.99669 0
M  V30 5840 H 539.279 -3.63357 0.824787 0
M  V30 5841 H 539.392 -3.97246 2.67829 0
M  V30 5842 H 537.756 -2.16442 1.34258 0
M  V30 5843 H 538.539 -1.7402 2.95926 0
M  V30 5844 N 540.985 -1.06182 -1.16461 0
M  V30 5845 C 541.948 -0.675723 -2.19013 0
M  V30 5846 C 542.948 0.277963 -1.58379 0
M  V30 5847 O 544.138 0.0604962 -1.74095 0
M  V30 5848 C 541.27 0.00591459 -3.40899 0
M  V30 5849 H 542.463 -1.58353 -2.54685 0
M  V30 5850 H 540.016 -0.856908 -1.30716 0
M  V30 5851 H 540.751 0.92652 -3.10783 0
M  V30 5852 H 540.536 -0.67984 -3.86161 0
M  V30 5853 H 542.026 0.26181 -4.16778 0
M  V30 5854 N 542.463 1.3308 -0.844243 0
M  V30 5855 C 543.711 1.97215 -0.441676 0
M  V30 5856 C 544.032 1.67185 1.0037 0
M  V30 5857 O 543.302 0.973588 1.69994 0
M  V30 5858 H 541.882 0.72959 -0.160335 0
M  V30 5859 H 544.544 1.62348 -1.07838 0
M  V30 5860 H 543.64 3.06698 -0.57815 0
M  V30 5861 N 543.941 0.601185 1.45683 0
M  V30 5862 C 545.166 0.0982245 2.07167 0
M  V30 5863 C 545.591 -1.20546 1.44396 0
M  V30 5864 O 544.949 -1.73247 0.534347 0
M  V30 5865 C 544.997 -0.0346976 3.60583 0
M  V30 5866 O 544.101 -1.08657 3.97828 0
M  V30 5867 H 543.442 0.0711618 0.660176 0
M  V30 5868 H 545.972 0.829376 1.87036 0
M  V30 5869 H 545.982 -0.234969 4.07323 0
M  V30 5870 H 544.657 0.917265 4.05659 0
M  V30 5871 H 543.234 -0.863275 3.6277 0
M  V30 5872 N 545.419 -1.53889 0.339982 0
M  V30 5873 C 546.329 -2.28604 -0.526988 0
M  V30 5874 C 547.345 -1.33578 -1.11503 0
M  V30 5875 O 548.521 -1.66612 -1.13148 0
M  V30 5876 C 545.586 -3.04164 -1.66389 0
M  V30 5877 C 544.647 -4.14809 -1.10599 0
M  V30 5878 C 543.88 -4.86756 -2.18871 0
M  V30 5879 O 544.103 -4.58343 -3.39526 0
M  V30 5880 O 543.037 -5.73289 -1.83366 0
M  V30 5881 H 546.863 -3.03594 0.0802707 0
M  V30 5882 H 544.448 -1.4903 0.105141 0
M  V30 5883 H 546.33 -3.51427 -2.32544 0
M  V30 5884 H 545.005 -2.32035 -2.25703 0
M  V30 5885 H 543.912 -3.71857 -0.409067 0
M  V30 5886 H 545.245 -4.89029 -0.557771 0
M  V30 5887 N 546.897 -0.0685191 -1.57451 0
M  V30 5888 C 547.845 0.917577 -2.13736 0
M  V30 5889 C 548.839 1.31049 -1.07344 0
M  V30 5890 O 550.045 1.28811 -1.25728 0
M  V30 5891 H 546.42 0.313835 -0.683382 0
M  V30 5892 H 548.391 0.417903 -2.95459 0
M  V30 5893 C 547.14 2.17686 -2.71123 0
M  V30 5894 H 546.463 1.88336 -3.52661 0
M  V30 5895 H 547.903 2.84803 -3.14107 0
M  V30 5896 C 546.362 2.9332 -1.65726 0
M  V30 5897 O 546.892 3.86901 -1.08031 0
M  V30 5898 N 545.098 2.56367 -1.36837 0
M  V30 5899 H 544.645 1.80341 -1.83943 0
M  V30 5900 H 544.603 3.07276 -0.665501 0
M  V30 5901 N 548.375 1.56261 0.205012 0
M  V30 5902 C 549.603 1.84141 0.943386 0
M  V30 5903 C 550.018 0.649772 1.77266 0
M  V30 5904 O 549.375 -0.381612 1.78466 0
M  V30 5905 C 549.426 3.10719 1.84759 0
M  V30 5906 O 549.147 4.25286 1.05181 0
M  V30 5907 C 550.648 3.51706 2.69848 0
M  V30 5908 H 547.868 0.611734 0.275721 0
M  V30 5909 H 550.412 2.03364 0.215253 0
M  V30 5910 H 548.567 2.93422 2.52947 0
M  V30 5911 H 548.981 4.97301 1.66709 0
M  V30 5912 H 550.455 4.43266 3.28967 0
M  V30 5913 H 550.932 2.7423 3.43067 0
M  V30 5914 H 551.538 3.71499 2.07047 0
M  V30 5915 N 549.853 -0.472356 1.50355 0
M  V30 5916 C 550.8 -1.57051 1.69126 0
M  V30 5917 C 551.77 -1.5733 0.532574 0
M  V30 5918 O 552.955 -1.7488 0.762994 0
M  V30 5919 C 550.095 -2.95033 1.79024 0
M  V30 5920 C 549.208 -3.04552 3.06386 0
M  V30 5921 C 548.343 -4.33441 3.07087 0
M  V30 5922 C 547.382 -4.36697 4.28908 0
M  V30 5923 N 546.519 -5.57056 4.27356 0
M  V30 5924 H 551.359 -1.40351 2.62879 0
M  V30 5925 H 548.896 -0.682403 1.30314 0
M  V30 5926 H 550.854 -3.75048 1.82744 0
M  V30 5927 H 549.484 -3.10371 0.887109 0
M  V30 5928 H 548.536 -2.17419 3.12143 0
M  V30 5929 H 549.848 -3.02818 3.96362 0
M  V30 5930 H 549.002 -5.21801 3.09529 0
M  V30 5931 H 547.741 -4.37782 2.14939 0
M  V30 5932 H 546.746 -3.46734 4.2668 0
M  V30 5933 H 547.971 -4.34049 5.22282 0
M  V30 5934 H 545.917 -5.62184 3.3806 0
M  V30 5935 H 545.834 -5.57058 5.111 0
M  V30 5936 H 547.102 -6.47545 4.33942 0
M  V30 5937 N 551.331 -1.39911 -0.725443 0
M  V30 5938 C 552.608 -1.28158 -1.47766 0
M  V30 5939 C 552.988 0.104545 -2.10841 0
M  V30 5940 O 552.336 1.11657 -1.99361 0
M  V30 5941 C 552.546 -2.41306 -2.52135 0
M  V30 5942 C 553.894 -2.81076 -3.18247 0
M  V30 5943 O 554.918 -2.40827 -2.62452 0
M  V30 5944 O 553.777 -3.50581 -4.19231 0
M  V30 5945 H 550.871 -0.502761 -0.656628 0
M  V30 5946 H 553.417 -1.51808 -0.758456 0
M  V30 5947 H 552.189 -3.33932 -2.03974 0
M  V30 5948 H 551.812 -2.19374 -3.31603 0
M  V30 5949 N 552.809 0.956637 -1.25245 0
M  V30 5950 C 554.058 1.69537 -1.0927 0
M  V30 5951 C 554.371 1.92136 0.366503 0
M  V30 5952 O 555.577 2.63687 0.64665 0
M  V30 5953 C 554.033 3.05211 -1.9072 0
M  V30 5954 C 553.641 2.90416 -3.41119 0
M  V30 5955 C 555.385 3.82882 -1.83308 0
M  V30 5956 C 553.292 4.21468 -4.14872 0
M  V30 5957 H 552.222 0.635804 -0.405302 0
M  V30 5958 H 554.873 1.06513 -1.49423 0
M  V30 5959 H 553.255 3.69128 -1.43389 0
M  V30 5960 H 554.429 2.35444 -3.9611 0
M  V30 5961 H 552.744 2.26203 -3.49602 0
M  V30 5962 H 555.341 4.79944 -2.35706 0
M  V30 5963 H 555.684 4.0853 -0.800572 0
M  V30 5964 H 556.217 3.25711 -2.28379 0
M  V30 5965 H 552.956 4.01009 -5.18529 0
M  V30 5966 H 552.476 4.76213 -3.64665 0
M  V30 5967 H 554.155 4.90022 -4.22478 0
M  V30 5968 N 554.287 1.06798 1.15896 0
M  V30 5969 C 555.703 0.792423 1.38538 0
M  V30 5970 C 555.903 -0.60592 1.92174 0
M  V30 5971 O 554.959 -1.36561 2.12385 0
M  V30 5972 C 556.272 1.86157 2.36149 0
M  V30 5973 C 557.82 1.88567 2.49823 0
M  V30 5974 C 558.295 2.9455 3.5072 0
M  V30 5975 N 559.786 2.93616 3.58251 0
M  V30 5976 C 560.521 3.72267 4.36125 0
M  V30 5977 N 560.017 4.60751 5.17379 0
M  V30 5978 N 561.81 3.60637 4.31158 0
M  V30 5979 H 553.961 1.96993 0.794198 0
M  V30 5980 H 556.224 0.853942 0.411688 0
M  V30 5981 H 555.93 2.86603 2.03843 0
M  V30 5982 H 555.804 1.71692 3.3586 0
M  V30 5983 H 558.191 0.887765 2.8143 0
M  V30 5984 H 558.272 2.0711 1.5013 0
M  V30 5985 H 557.916 3.94537 3.19849 0
M  V30 5986 H 557.846 2.73255 4.50155 0
M  V30 5987 H 560.337 2.29472 3.00252 0
M  V30 5988 H 560.65 5.17408 5.74028 0
M  V30 5989 H 558.995 4.64803 5.16704 0
M  V30 5990 H 562.186 2.90892 3.66742 0
M  V30 5991 H 562.359 4.22176 4.91601 0
M  V30 5992 N 555.766 -1.3263 0.851289 0
M  V30 5993 C 556.696 -2.31449 0.308771 0
M  V30 5994 C 557.677 -1.59531 -0.590255 0
M  V30 5995 O 558.862 -1.87351 -0.511205 0
M  V30 5996 C 555.992 -3.43586 -0.506548 0
M  V30 5997 C 554.946 -4.26963 0.297753 0
M  V30 5998 C 554.272 -5.30831 -0.642094 0
M  V30 5999 C 555.572 -4.99643 1.52166 0
M  V30 6000 H 557.266 -2.77074 1.13447 0
M  V30 6001 H 554.812 -1.33207 0.546971 0
M  V30 6002 H 556.765 -4.11754 -0.896474 0
M  V30 6003 H 555.489 -2.96681 -1.36558 0
M  V30 6004 H 554.148 -3.60437 0.669391 0
M  V30 6005 H 553.796 -4.8018 -1.49788 0
M  V30 6006 H 553.496 -5.87501 -0.107968 0
M  V30 6007 H 555.02 -6.01862 -1.02927 0
M  V30 6008 H 556.434 -5.6051 1.20421 0
M  V30 6009 H 554.831 -5.66022 1.99347 0
M  V30 6010 H 555.901 -4.27701 2.28474 0
M  V30 6011 O 557.283 -0.749239 -1.43069 0
M  V30 6012 H 557.974 -0.305579 -1.91274 0
M  V30 END ATOM
M  V30 BEGIN BOND
M  V30 END BOND
M  V30 END CTAB
M  END
$$$$
