drugbank_target|P41439 Folate receptor gamma (DB00158; DB05168)
 OpenBabel12092119363D

  0  0  0     0  0            999 V3000
M  V30 BEGIN CTAB
M  V30 COUNTS 3761 3818 0 0 0
M  V30 BEGIN ATOM
M  V30 1 H -0.908 1.98254 -0.117106 0
M  V30 2 N 0 1.576 0 0
M  V30 3 C 0.933 2.03868 1.02534 0
M  V30 4 C 1.911 0.928543 1.3348 0
M  V30 5 O 3.095 1.19667 1.45644 0
M  V30 6 C 0.222 2.43627 2.35294 0
M  V30 7 C -0.732 3.65373 2.2001 0
M  V30 8 S 0.101 5.13292 1.52614 0
M  V30 9 C 1.257 5.56322 2.86805 0
M  V30 10 H 1.49 2.90518 0.631377 0
M  V30 11 H -0.977 1.52953 0.210867 0
M  V30 12 H 0.981 2.67203 3.11629 0
M  V30 13 H -0.358 1.57376 2.7183 0
M  V30 14 H -1.165 3.90944 3.18086 0
M  V30 15 H -1.563 3.418 1.51819 0
M  V30 16 H 0.729 5.58782 3.83104 0
M  V30 17 H 1.672 6.56266 2.65933 0
M  V30 18 H 2.08 4.83886 2.90714 0
M  V30 19 N 1.4781 -0.272755 1.55222 0
M  V30 20 C 2.4411 -1.32041 1.87344 0
M  V30 21 C 3.4411 -1.42342 0.74803 0
M  V30 22 O 4.6311 -1.41488 1.0162 0
M  V30 23 C 1.7631 -2.70173 2.07893 0
M  V30 24 H 2.9561 -1.04789 2.80997 0
M  V30 25 H 0.5091 -0.51083 1.47717 0
M  V30 26 H 1.2441 -3.02605 1.16622 0
M  V30 27 H 1.0291 -2.64082 2.89833 0
M  V30 28 H 2.5191 -3.45869 2.34017 0
M  V30 29 N 2.9562 -1.48159 -0.537278 0
M  V30 30 C 4.2022 -1.57015 -1.29297 0
M  V30 31 C 4.5572 -0.237791 -1.90925 0
M  V30 32 O 3.8502 0.758621 -1.75942 0
M  V30 33 C 4.0442 -2.63956 -2.40961 0
M  V30 34 C 3.8732 -4.07461 -1.90278 0
M  V30 35 C 2.6432 -4.74685 -1.73213 0
M  V30 36 C 4.8412 -4.93858 -1.43556 0
M  V30 37 N 2.8232 -6.02633 -1.17078 0
M  V30 38 C 4.1942 -6.11993 -0.993204 0
M  V30 39 C 6.2492 -4.80141 -1.31792 0
M  V30 40 C 4.9522 -7.17923 -0.444872 0
M  V30 41 C 6.9782 -5.86186 -0.783585 0
M  V30 42 C 6.3402 -7.03524 -0.351261 0
M  V30 43 H 2.4392 -0.629154 -0.464423 0
M  V30 44 H 5.0232 -1.85006 -0.606705 0
M  V30 45 H 3.1942 -2.378 -3.07093 0
M  V30 46 H 4.9262 -2.62539 -3.07986 0
M  V30 47 H 1.6812 -4.30902 -1.9652 0
M  V30 48 H 2.1052 -6.7085 -0.910421 0
M  V30 49 H 6.7472 -3.89772 -1.63823 0
M  V30 50 H 4.4652 -8.08022 -0.11222 0
M  V30 51 H 8.0512 -5.77624 -0.695835 0
M  V30 52 H 6.9312 -7.8418 0.055777 0
M  V30 53 N 4.4343 0.785586 -1.36625 0
M  V30 54 C 5.3663 1.90711 -1.2713 0
M  V30 55 C 6.3793 1.61688 -0.189986 0
M  V30 56 O 7.5683 1.72864 -0.445014 0
M  V30 57 C 4.6683 3.25611 -0.939713 0
M  V30 58 C 3.8413 3.82385 -2.12369 0
M  V30 59 C 2.9003 4.95732 -1.76456 0
M  V30 60 O 1.9263 5.12047 -2.48589 0
M  V30 61 N 3.1283 5.76258 -0.700492 0
M  V30 62 H 5.8933 1.99376 -2.23762 0
M  V30 63 H 3.4543 0.964041 -1.30069 0
M  V30 64 H 5.4463 3.98937 -0.680554 0
M  V30 65 H 4.0163 3.12538 -0.0624074 0
M  V30 66 H 3.2363 3.01001 -2.54543 0
M  V30 67 H 4.5243 4.17047 -2.9146 0
M  V30 68 H 3.9223 5.65609 -0.101624 0
M  V30 69 H 2.4793 6.4987 -0.501165 0
M  V30 70 N 5.9124 1.20967 1.01018 0
M  V30 71 C 6.8454 0.907578 2.09376 0
M  V30 72 C 7.8234 -0.142868 1.61971 0
M  V30 73 O 9.0074 -0.0150391 1.88494 0
M  V30 74 C 6.1344 0.361791 3.36762 0
M  V30 75 C 5.1804 1.39423 4.03068 0
M  V30 76 S 6.0134 2.96159 4.4615 0
M  V30 77 C 7.1694 2.43173 5.7673 0
M  V30 78 H 7.4024 1.82519 2.34678 0
M  V30 79 H 4.9354 1.03884 1.14225 0
M  V30 80 H 6.8934 0.0534523 4.10465 0
M  V30 81 H 5.5544 -0.53443 3.0952 0
M  V30 82 H 4.7474 0.961853 4.94737 0
M  V30 83 H 4.3494 1.65038 3.35617 0
M  V30 84 H 6.6414 1.83335 6.52223 0
M  V30 85 H 7.5844 3.33264 6.24773 0
M  V30 86 H 7.9924 1.85069 5.33301 0
M  V30 87 N 7.3905 -1.2043 1.01659 0
M  V30 88 C 8.3235 -2.21924 0.531521 0
M  V30 89 C 9.3015 -1.57054 -0.421032 0
M  V30 90 O 10.4855 -1.85389 -0.341035 0
M  V30 91 C 7.6125 -3.37942 -0.226496 0
M  V30 92 C 6.6585 -4.21115 0.67561 0
M  V30 93 S 7.4915 -4.90674 2.14475 0
M  V30 94 C 8.6475 -6.10113 1.3969 0
M  V30 95 H 8.8805 -2.62725 1.3915 0
M  V30 96 H 6.4135 -1.30481 0.825479 0
M  V30 97 H 8.3715 -4.05196 -0.657738 0
M  V30 98 H 7.0325 -2.956 -1.06205 0
M  V30 99 H 6.2255 -5.03918 0.091108 0
M  V30 100 H 5.8275 -3.59115 1.04463 0
M  V30 101 H 8.1195 -6.7411 0.676897 0
M  V30 102 H 9.0625 -6.73022 2.20107 0
M  V30 103 H 9.4705 -5.57283 0.899786 0
M  V30 104 N 8.8686 -0.792821 -1.36206 0
M  V30 105 C 9.8006 -0.151469 -2.28699 0
M  V30 106 C 10.8136 0.641262 -1.49638 0
M  V30 107 O 12.0026 0.475885 -1.72039 0
M  V30 108 C 9.1026 0.808424 -3.29117 0
M  V30 109 C 8.2756 0.0650202 -4.37352 0
M  V30 110 C 7.3346 0.941358 -5.17711 0
M  V30 111 O 6.3606 0.397352 -5.67811 0
M  V30 112 N 7.5626 2.2652 -5.3448 0
M  V30 113 H 10.3276 -0.945982 -2.84379 0
M  V30 114 H 7.8886 -0.647032 -1.48409 0
M  V30 115 H 9.8806 1.3986 -3.79765 0
M  V30 116 H 8.4506 1.5038 -2.74052 0
M  V30 117 H 7.6706 -0.706255 -3.87822 0
M  V30 118 H 8.9586 -0.447847 -5.06825 0
M  V30 119 H 8.3566 2.73128 -4.95396 0
M  V30 120 H 6.9136 2.80493 -5.88359 0
M  V30 121 N 10.3467 1.47872 -0.545128 0
M  V30 122 C 11.2767 2.32661 0.197793 0
M  V30 123 C 12.2577 1.43041 0.920504 0
M  V30 124 O 13.4427 1.71912 0.90333 0
M  V30 125 C 10.5727 3.24569 1.23582 0
M  V30 126 C 9.5267 4.23333 0.630323 0
M  V30 127 C 8.8527 5.0448 1.77211 0
M  V30 128 C 10.1527 5.20704 -0.407974 0
M  V30 129 H 11.8467 2.95024 -0.510045 0
M  V30 130 H 9.3927 1.4187 -0.246731 0
M  V30 131 H 11.3457 3.8272 1.76362 0
M  V30 132 H 10.0697 2.60236 1.97344 0
M  V30 133 H 8.7287 3.6639 0.123922 0
M  V30 134 H 8.3767 4.36561 2.49847 0
M  V30 135 H 8.0767 5.71339 1.37281 0
M  V30 136 H 9.6007 5.65487 2.3034 0
M  V30 137 H 11.0147 5.7329 0.033305 0
M  V30 138 H 9.4117 5.95699 -0.725486 0
M  V30 139 H 10.4817 4.66917 -1.30828 0
M  V30 140 N 11.8248 0.280983 1.55075 0
M  V30 141 C 12.7548 -0.597469 2.25727 0
M  V30 142 C 13.7358 -1.15417 1.24952 0
M  V30 143 O 14.9208 -1.18722 1.53684 0
M  V30 144 C 12.0508 -1.7789 2.98283 0
M  V30 145 C 11.0048 -1.35347 4.06036 0
M  V30 146 C 10.3308 -2.61846 4.66198 0
M  V30 147 C 11.6308 -0.499354 5.19907 0
M  V30 148 H 13.3248 -0.00824265 2.99399 0
M  V30 149 H 10.8708 -0.0025244 1.44 0
M  V30 150 H 12.8238 -2.39937 3.46422 0
M  V30 151 H 11.5478 -2.39405 2.22155 0
M  V30 152 H 10.2068 -0.756156 3.58717 0
M  V30 153 H 9.8548 -3.21632 3.86732 0
M  V30 154 H 9.5548 -2.3409 5.38958 0
M  V30 155 H 11.0788 -3.24732 5.1709 0
M  V30 156 H 12.4928 -1.02498 5.64063 0
M  V30 157 H 10.8898 -0.316424 5.99265 0
M  V30 158 H 11.9598 0.480459 4.82514 0
M  V30 159 N 13.3029 -1.57598 0.00835791 0
M  V30 160 C 14.2329 -2.1198 -0.979113 0
M  V30 161 C 15.2139 -1.03091 -1.35301 0
M  V30 162 O 16.3989 -1.30818 -1.43528 0
M  V30 163 C 13.5289 -2.62995 -2.26828 0
M  V30 164 C 12.4829 -3.76485 -2.03576 0
M  V30 165 C 11.8089 -4.13846 -3.38579 0
M  V30 166 C 13.1089 -5.0342 -1.39161 0
M  V30 167 H 14.8029 -2.94738 -0.526281 0
M  V30 168 H 12.3489 -1.41783 -0.251704 0
M  V30 169 H 14.3019 -2.99669 -2.96271 0
M  V30 170 H 13.0259 -1.7737 -2.7424 0
M  V30 171 H 11.6849 -3.40217 -1.36557 0
M  V30 172 H 11.3329 -3.25232 -3.83709 0
M  V30 173 H 11.0329 -4.90312 -3.23834 0
M  V30 174 H 12.5569 -4.53086 -4.09323 0
M  V30 175 H 13.9709 -5.37812 -1.98573 0
M  V30 176 H 12.3679 -5.84746 -1.34878 0
M  V30 177 H 13.4379 -4.83548 -0.361868 0
M  V30 178 N 14.781 0.264519 -1.55364 0
M  V30 179 C 15.711 1.33121 -1.91836 0
M  V30 180 C 16.692 1.51101 -0.781192 0
M  V30 181 O 17.877 1.64003 -1.04003 0
M  V30 182 C 15.007 2.68921 -2.19769 0
M  V30 183 C 13.961 2.65661 -3.35571 0
M  V30 184 C 13.287 4.05093 -3.49004 0
M  V30 185 C 14.587 2.24187 -4.71739 0
M  V30 186 H 16.281 1.02844 -2.81182 0
M  V30 187 H 13.827 0.493286 -1.35287 0
M  V30 188 H 15.78 3.43663 -2.43872 0
M  V30 189 H 14.504 3.00799 -1.27231 0
M  V30 190 H 13.163 1.93377 -3.1145 0
M  V30 191 H 12.811 4.34206 -2.53917 0
M  V30 192 H 12.511 4.03804 -4.26868 0
M  V30 193 H 14.035 4.81561 -3.75408 0
M  V30 194 H 15.449 2.88654 -4.9533 0
M  V30 195 H 13.846 2.34044 -5.52579 0
M  V30 196 H 14.916 1.19327 -4.69988 0
M  V30 197 N 16.2591 1.48442 0.529413 0
M  V30 198 C 17.2221 1.62524 1.61612 0
M  V30 199 C 18.2221 0.498509 1.52877 0
M  V30 200 O 19.4121 0.76431 1.56537 0
M  V30 201 C 16.5441 1.59597 3.01233 0
M  V30 202 H 17.7371 2.59423 1.50465 0
M  V30 203 H 15.2901 1.37047 0.751514 0
M  V30 204 H 16.0251 0.641781 3.17886 0
M  V30 205 H 15.8101 2.41397 3.08982 0
M  V30 206 H 17.3001 1.72646 3.80241 0
M  V30 207 N 17.7372 -0.778329 1.37039 0
M  V30 208 C 18.6672 -1.90546 1.34962 0
M  V30 209 C 19.6482 -1.68681 0.219274 0
M  V30 210 O 20.8332 -1.89634 0.418624 0
M  V30 211 C 17.9632 -3.27734 1.14925 0
M  V30 212 C 16.9172 -3.64147 2.24902 0
M  V30 213 C 16.2432 -4.99806 1.89996 0
M  V30 214 C 17.5432 -3.71579 3.67051 0
M  V30 215 H 19.2372 -1.92541 2.29277 0
M  V30 216 H 16.7832 -0.924948 1.10366 0
M  V30 217 H 18.7362 -4.06215 1.12104 0
M  V30 218 H 17.4602 -3.26154 0.170631 0
M  V30 219 H 16.1192 -2.8797 2.26868 0
M  V30 220 H 15.7672 -4.94759 0.906796 0
M  V30 221 H 15.4672 -5.25139 2.63634 0
M  V30 222 H 16.9912 -5.80694 1.88749 0
M  V30 223 H 18.4052 -4.40227 3.67251 0
M  V30 224 H 16.8022 -4.08405 4.39688 0
M  V30 225 H 17.8722 -2.72404 4.01154 0
M  V30 226 N 19.2153 -1.21501 -1.00376 0
M  V30 227 C 20.4613 -1.03452 -1.74429 0
M  V30 228 C 20.7943 0.430764 -1.89362 0
M  V30 229 O 20.0693 1.31962 -1.42886 0
M  V30 230 C 20.3523 -1.73375 -3.15615 0
M  V30 231 C 20.2053 -3.27431 -3.08397 0
M  V30 232 C 21.5243 -1.47732 -4.14564 0
M  V30 233 H 18.6433 -0.377226 -0.633143 0
M  V30 234 H 21.2853 -1.49693 -1.17013 0
M  V30 235 H 19.4353 -1.34064 -3.64636 0
M  V30 236 H 21.1073 -3.76119 -2.67081 0
M  V30 237 H 19.3503 -3.5767 -2.45468 0
M  V30 238 H 20.0213 -3.71524 -4.08258 0
M  V30 239 H 22.4973 -1.8186 -3.74254 0
M  V30 240 H 21.3733 -1.99169 -5.11491 0
M  V30 241 H 21.6343 -0.407589 -4.40217 0
M  V30 242 N 20.6934 1.19889 -1.02296 0
M  V30 243 C 21.9214 1.9339 -0.735399 0
M  V30 244 C 22.3364 1.75148 0.704887 0
M  V30 245 O 21.6934 1.06954 1.47875 0
M  V30 246 C 21.7444 3.45313 -1.06962 0
M  V30 247 O 21.4654 3.62964 -2.45334 0
M  V30 248 C 22.9664 4.35948 -0.804021 0
M  V30 249 H 20.1864 0.61448 -0.269546 0
M  V30 250 H 22.7304 1.522 -1.36585 0
M  V30 251 H 20.8854 3.84359 -0.484455 0
M  V30 252 H 21.2994 4.56886 -2.57595 0
M  V30 253 H 22.7734 5.41174 -1.0879 0
M  V30 254 H 23.2504 4.3842 0.261691 0
M  V30 255 H 23.8564 4.02574 -1.37164 0
M  V30 256 N 22.1715 0.800033 1.35784 0
M  V30 257 C 23.1345 0.211565 2.28221 0
M  V30 258 C 24.1345 -0.59728 1.49296 0
M  V30 259 O 25.3245 -0.416721 1.69142 0
M  V30 260 C 22.4565 -0.705846 3.33513 0
M  V30 261 H 23.6495 1.02677 2.81776 0
M  V30 262 H 21.2025 0.570211 1.45528 0
M  V30 263 H 21.9375 -1.54498 2.85133 0
M  V30 264 H 21.7225 -0.127655 3.91892 0
M  V30 265 H 23.2125 -1.11211 4.02519 0
M  V30 266 N 23.6496 -1.47581 0.552962 0
M  V30 267 C 24.6126 -2.28439 -0.186605 0
M  V30 268 C 25.6126 -1.36706 -0.84665 0
M  V30 269 O 26.8026 -1.59378 -0.703164 0
M  V30 270 C 23.9346 -3.16264 -1.2724 0
M  V30 271 H 25.1276 -2.95294 0.523609 0
M  V30 272 H 22.6806 -1.532 0.309745 0
M  V30 273 H 23.4156 -2.54091 -2.01514 0
M  V30 274 H 23.2006 -3.83769 -0.803968 0
M  V30 275 H 24.6906 -3.77198 -1.79196 0
M  V30 276 N 25.1277 -0.289203 -1.54924 0
M  V30 277 C 26.3757 0.322879 -1.99504 0
M  V30 278 C 26.6967 1.55313 -1.1791 0
M  V30 279 O 25.9667 1.94001 -0.272097 0
M  V30 280 H 24.5467 0.122291 -0.736922 0
M  V30 281 H 27.2087 -0.397802 -1.90797 0
M  V30 282 H 26.3047 0.603061 -3.06218 0
M  V30 283 N 26.6058 1.57591 -0.0167156 0
M  V30 284 C 27.8308 1.9598 0.67872 0
M  V30 285 C 28.2558 0.892546 1.65575 0
M  V30 286 O 27.6138 -0.147772 1.80697 0
M  V30 287 C 27.6618 3.33468 1.37227 0
M  V30 288 O 26.7658 3.28954 2.48722 0
M  V30 289 H 26.1068 0.639339 0.17928 0
M  V30 290 H 28.6368 2.04463 -0.0748802 0
M  V30 291 H 28.6468 3.69417 1.7319 0
M  V30 292 H 27.3218 4.10694 0.656007 0
M  V30 293 H 25.8988 3.04705 2.14963 0
M  V30 294 N 28.0839 -0.256276 1.55502 0
M  V30 295 C 29.0469 -1.30047 1.88734 0
M  V30 296 C 30.0469 -1.4154 0.763086 0
M  V30 297 O 31.2369 -1.40403 1.03115 0
M  V30 298 C 28.3689 -2.67953 2.10747 0
M  V30 299 H 29.5619 -1.01802 2.82093 0
M  V30 300 H 27.1149 -0.495134 1.4825 0
M  V30 301 H 27.8499 -3.01351 1.19825 0
M  V30 302 H 27.6349 -2.60993 2.92617 0
M  V30 303 H 29.1249 -3.43368 2.37673 0
M  V30 304 N 29.562 -1.4872 -0.521534 0
M  V30 305 C 30.494 -1.59968 -1.64143 0
M  V30 306 C 31.507 -0.483463 -1.55456 0
M  V30 307 O 32.696 -0.75467 -1.61762 0
M  V30 308 C 29.796 -1.52127 -3.02838 0
M  V30 309 C 28.969 -2.78932 -3.36921 0
M  V30 310 C 28.028 -2.64428 -4.54933 0
M  V30 311 O 27.054 -3.38331 -4.57735 0
M  V30 312 N 28.256 -1.74606 -5.53618 0
M  V30 313 H 31.021 -2.56548 -1.54929 0
M  V30 314 H 28.582 -1.45551 -0.708988 0
M  V30 315 H 30.574 -1.40106 -3.79674 0
M  V30 316 H 29.144 -0.634868 -3.06085 0
M  V30 317 H 28.364 -3.05455 -2.4918 0
M  V30 318 H 29.652 -3.63041 -3.56481 0
M  V30 319 H 29.05 -1.13782 -5.54139 0
M  V30 320 H 27.607 -1.6852 -6.29638 0
M  V30 321 N 31.0401 0.771051 -1.3745 0
M  V30 322 C 32.4511 1.34737 -1.29239 0
M  V30 323 C 32.8021 1.96109 0.0596908 0
M  V30 324 O 31.9271 1.93865 0.961534 0
M  V30 325 C 32.5221 2.44973 -2.34037 0
M  V30 326 C 31.0811 2.98372 -2.29458 0
M  V30 327 C 30.2281 1.71595 -2.17831 0
M  V30 328 H 33.1791 0.571256 -1.48062 0
M  V30 329 H 33.2001 3.24471 -1.98744 0
M  V30 330 H 32.7121 2.00276 -3.32432 0
M  V30 331 H 30.8131 3.47443 -1.34589 0
M  V30 332 H 30.9261 3.53939 -3.229 0
M  V30 333 H 29.2901 1.94547 -1.64388 0
M  V30 334 H 30.0731 1.29001 -3.18141 0
M  V30 335 N 32.5182 1.22032 0.997298 0
M  V30 336 C 33.9342 0.979326 1.26021 0
M  V30 337 C 34.1342 -0.32972 1.98784 0
M  V30 338 O 33.1902 -1.05345 2.29475 0
M  V30 339 C 34.5032 2.17509 2.07631 0
M  V30 340 C 36.0512 2.21817 2.2083 0
M  V30 341 C 36.5262 3.40933 3.05825 0
M  V30 342 N 38.0172 3.41067 3.13412 0
M  V30 343 C 38.7522 4.29885 3.79455 0
M  V30 344 N 38.2482 5.28914 4.47462 0
M  V30 345 N 40.0412 4.17673 3.76173 0
M  V30 346 H 32.1922 2.06202 0.509352 0
M  V30 347 H 34.4552 0.90334 0.287541 0
M  V30 348 H 34.1612 3.12415 1.61524 0
M  V30 349 H 34.0352 2.17206 3.08385 0
M  V30 350 H 36.4222 1.27462 2.66153 0
M  V30 351 H 36.5032 2.2616 1.1952 0
M  V30 352 H 36.1472 4.35586 2.61203 0
M  V30 353 H 36.0772 3.33829 4.07266 0
M  V30 354 H 38.5682 2.69406 2.65007 0
M  V30 355 H 38.8812 5.92973 4.95583 0
M  V30 356 H 37.2262 5.32831 4.46224 0
M  V30 357 H 40.4172 3.39564 3.22202 0
M  V30 358 H 40.5902 4.87098 4.27363 0
M  V30 359 N 33.9963 -1.19345 1.0293 0
M  V30 360 C 35.2213 -1.93538 0.745511 0
M  V30 361 C 35.6463 -1.75007 -0.689511 0
M  V30 362 O 35.0043 -1.05265 -1.47611 0
M  V30 363 C 35.0523 -3.43336 1.10239 0
M  V30 364 O 34.1563 -4.11806 0.221289 0
M  V30 365 H 33.4973 -0.604193 0.275404 0
M  V30 366 H 36.0273 -1.5141 1.37609 0
M  V30 367 H 36.0373 -3.94004 1.05947 0
M  V30 368 H 34.7123 -3.56146 2.14786 0
M  V30 369 H 33.2893 -3.715 0.322842 0
M  V30 370 N 35.4744 -0.807222 -1.35358 0
M  V30 371 C 36.4374 -0.223665 -2.28106 0
M  V30 372 C 37.4374 0.589354 -1.4961 0
M  V30 373 O 38.6274 0.407745 -1.69361 0
M  V30 374 C 35.7594 0.688149 -3.33882 0
M  V30 375 H 36.9524 -1.04169 -2.81227 0
M  V30 376 H 34.5054 -0.577921 -1.45223 0
M  V30 377 H 35.2404 1.52984 -2.85948 0
M  V30 378 H 35.0254 0.10687 -3.91954 0
M  V30 379 H 36.5154 1.09075 -4.03104 0
M  V30 380 N 36.9525 1.47285 -0.560781 0
M  V30 381 C 38.3685 1.58065 -0.22081 0
M  V30 382 C 38.5685 1.55892 1.27671 0
M  V30 383 O 37.6245 1.46422 2.0571 0
M  V30 384 C 38.9375 2.88418 -0.850625 0
M  V30 385 C 40.4855 3.02009 -0.822184 0
M  V30 386 C 40.9605 4.35066 -1.43113 0
M  V30 387 N 42.4515 4.41711 -1.39448 0
M  V30 388 C 43.1865 5.43237 -1.83525 0
M  V30 389 N 42.6825 6.51555 -2.35474 0
M  V30 390 N 44.4755 5.34304 -1.74574 0
M  V30 391 H 36.6265 1.46941 -1.53369 0
M  V30 392 H 38.8895 0.699558 -0.639783 0
M  V30 393 H 38.5955 2.95755 -1.9032 0
M  V30 394 H 38.4695 3.75612 -0.345773 0
M  V30 395 H 40.8565 2.94266 0.221714 0
M  V30 396 H 40.9375 2.16347 -1.36483 0
M  V30 397 H 40.5815 4.43565 -2.47412 0
M  V30 398 H 40.5115 5.19465 -0.863899 0
M  V30 399 H 43.0025 3.64027 -1.01452 0
M  V30 400 H 43.3155 7.25203 -2.67021 0
M  V30 401 H 41.6605 6.52435 -2.39487 0
M  V30 402 H 44.8515 4.48581 -1.33763 0
M  V30 403 H 45.0245 6.13288 -2.09242 0
M  V30 404 N 38.4306 0.297415 1.54768 0
M  V30 405 C 39.3936 -0.567375 2.22066 0
M  V30 406 C 40.3936 -1.06409 1.20556 0
M  V30 407 O 41.5836 -0.960691 1.45315 0
M  V30 408 C 38.7156 -1.78517 2.90421 0
M  V30 409 H 39.9086 0.0205534 2.99893 0
M  V30 410 H 37.4616 0.0482163 1.56226 0
M  V30 411 H 38.1966 -2.41303 2.16664 0
M  V30 412 H 37.9816 -1.43669 3.64831 0
M  V30 413 H 39.4716 -2.39964 3.41771 0
M  V30 414 N 39.9087 -1.5758 0.0250728 0
M  V30 415 C 41.3247 -1.56124 -0.331282 0
M  V30 416 C 41.5247 -1.03029 -1.73169 0
M  V30 417 O 40.5807 -0.675215 -2.43305 0
M  V30 418 C 41.8937 -3.00139 -0.183584 0
M  V30 419 C 43.4417 -3.11946 -0.256654 0
M  V30 420 C 43.9167 -4.57793 -0.137792 0
M  V30 421 N 45.4077 -4.6279 -0.194904 0
M  V30 422 C 46.1427 -5.7326 -0.126655 0
M  V30 423 N 45.6387 -6.928 -0.00755288 0
M  V30 424 N 47.4317 -5.61811 -0.180348 0
M  V30 425 H 39.5827 -1.90424 0.94087 0
M  V30 426 H 41.8457 -0.875761 0.362968 0
M  V30 427 H 41.5517 -3.4292 0.780927 0
M  V30 428 H 41.4257 -3.64899 -0.955448 0
M  V30 429 H 43.8127 -2.69079 -1.21162 0
M  V30 430 H 43.8937 -2.49915 0.545517 0
M  V30 431 H 43.5377 -5.01339 0.813739 0
M  V30 432 H 43.4677 -5.17798 -0.958775 0
M  V30 433 H 45.9587 -3.76807 -0.287267 0
M  V30 434 H 46.2717 -7.72791 0.0379428 0
M  V30 435 H 44.6167 -6.94995 0.0271731 0
M  V30 436 H 47.8077 -4.6731 -0.271767 0
M  V30 437 H 47.9807 -6.47882 -0.123697 0
M  V30 438 N 41.3868 0.248026 -1.55636 0
M  V30 439 C 42.6148 0.993808 -1.81469 0
M  V30 440 C 43.0298 1.78991 -0.60064 0
M  V30 441 O 42.3868 1.77345 0.430682 0
M  V30 442 C 42.4378 1.93258 -3.05506 0
M  V30 443 O 42.1588 1.16869 -4.22224 0
M  V30 444 C 43.6598 2.79444 -3.4413 0
M  V30 445 H 40.8798 0.292486 -0.603898 0
M  V30 446 H 43.4238 0.271253 -2.02693 0
M  V30 447 H 41.5788 2.60943 -2.86335 0
M  V30 448 H 41.9928 1.80359 -4.92515 0
M  V30 449 H 43.4668 3.41066 -4.34026 0
M  V30 450 H 43.9438 3.50499 -2.64665 0
M  V30 451 H 44.5498 2.17214 -3.65648 0
M  V30 452 N 42.8649 1.48995 0.513639 0
M  V30 453 C 44.1419 1.48338 1.27495 0
M  V30 454 C 44.5219 0.204065 2.10111 0
M  V30 455 O 43.8699 -0.813881 2.13514 0
M  V30 456 C 44.0799 2.75498 2.14247 0
M  V30 457 C 45.4279 3.24484 2.73852 0
M  V30 458 O 46.4519 2.76528 2.24523 0
M  V30 459 O 45.3109 4.07974 3.6362 0
M  V30 460 H 42.4049 0.593149 0.576284 0
M  V30 461 H 44.9509 1.61246 0.528948 0
M  V30 462 H 43.7229 3.60109 1.53092 0
M  V30 463 H 43.3459 2.6539 2.96064 0
M  V30 464 N 44.343 -0.763751 1.37857 0
M  V30 465 C 45.273 -1.89103 1.36975 0
M  V30 466 C 46.254 -1.68439 0.237152 0
M  V30 467 O 47.439 -1.8918 0.438713 0
M  V30 468 C 44.569 -3.26496 1.18395 0
M  V30 469 C 43.523 -3.61741 2.28751 0
M  V30 470 C 42.849 -4.97762 1.95286 0
M  V30 471 C 44.149 -3.67665 3.70972 0
M  V30 472 H 45.843 -1.90099 2.31307 0
M  V30 473 H 43.389 -0.91319 1.11341 0
M  V30 474 H 45.342 -4.05003 1.16406 0
M  V30 475 H 44.066 -3.25955 0.205215 0
M  V30 476 H 42.725 -2.85547 2.29909 0
M  V30 477 H 42.373 -4.93769 0.959221 0
M  V30 478 H 42.073 -5.22313 2.69189 0
M  V30 479 H 43.597 -5.7866 1.94898 0
M  V30 480 H 45.011 -4.36307 3.719 0
M  V30 481 H 43.408 -4.03718 4.43995 0
M  V30 482 H 44.478 -2.68134 4.0402 0
M  V30 483 N 45.8211 -1.22559 -0.990812 0
M  V30 484 C 46.7511 -1.0218 -2.09956 0
M  V30 485 C 47.7321 0.0579394 -1.70001 0
M  V30 486 O 48.9171 -0.104684 -1.93918 0
M  V30 487 C 46.0471 -0.601023 -3.4206 0
M  V30 488 C 45.0011 -1.62694 -3.95872 0
M  V30 489 C 44.3271 -1.06193 -5.24049 0
M  V30 490 C 45.6271 -3.01743 -4.2632 0
M  V30 491 H 47.3211 -1.94916 -2.27262 0
M  V30 492 H 44.8671 -0.938566 -1.09211 0
M  V30 493 H 46.8201 -0.445561 -4.19038 0
M  V30 494 H 45.5441 0.362005 -3.24588 0
M  V30 495 H 44.2031 -1.77021 -3.21028 0
M  V30 496 H 43.8511 -0.0901903 -5.02919 0
M  V30 497 H 43.5511 -1.74732 -5.61019 0
M  V30 498 H 45.0751 -0.918092 -6.03658 0
M  V30 499 H 46.4891 -2.90777 -4.94087 0
M  V30 500 H 44.8861 -3.67425 -4.74467 0
M  V30 501 H 45.9561 -3.51518 -3.34011 0
M  V30 502 N 47.2992 1.18797 -1.03562 0
M  V30 503 C 48.2472 2.24297 -0.615905 0
M  V30 504 C 49.2412 1.65643 0.354808 0
M  V30 505 O 50.4472 1.78618 0.22265 0
M  V30 506 H 46.8222 0.729909 -0.180934 0
M  V30 507 H 48.7932 2.5701 -1.5162 0
M  V30 508 C 47.5422 3.47698 0.0104735 0
M  V30 509 H 46.8652 3.93125 -0.727509 0
M  V30 510 H 48.3052 4.23159 0.266995 0
M  V30 511 C 46.7642 3.12489 1.25905 0
M  V30 512 O 47.2942 3.25761 2.35038 0
M  V30 513 N 45.5002 2.6686 1.15039 0
M  V30 514 H 45.0472 2.56261 0.262328 0
M  V30 515 H 45.0052 2.43674 1.98672 0
M  V30 516 N 48.7773 0.814389 1.34928 0
M  V30 517 C 50.0233 0.399013 1.98836 0
M  V30 518 C 50.3563 -1.03314 1.64438 0
M  V30 519 O 49.6313 -1.71811 0.911659 0
M  V30 520 C 49.9143 0.591629 3.55207 0
M  V30 521 C 49.7673 2.06928 3.99376 0
M  V30 522 C 51.0863 0.022199 4.40094 0
M  V30 523 H 48.2053 0.146451 0.722303 0
M  V30 524 H 50.8473 1.02537 1.59957 0
M  V30 525 H 48.9973 0.0584441 3.88456 0
M  V30 526 H 50.6693 2.66544 3.76499 0
M  V30 527 H 48.9123 2.56287 3.49999 0
M  V30 528 H 49.5833 2.1549 5.08201 0
M  V30 529 H 52.0593 0.477643 4.13349 0
M  V30 530 H 50.9353 0.186832 5.48582 0
M  V30 531 H 51.1963 -1.07215 4.28902 0
M  V30 532 N 50.2554 -1.46986 0.568584 0
M  V30 533 C 51.4954 -2.04336 0.0512999 0
M  V30 534 C 51.8594 -1.43214 -1.27881 0
M  V30 535 O 53.0604 -1.91679 -1.88448 0
M  V30 536 C 51.3314 -3.57389 -0.0282328 0
M  V30 537 S 52.8904 -4.36056 -0.489991 0
M  V30 538 H 49.7084 -0.71034 0.0306349 0
M  V30 539 H 52.3104 -1.80212 0.757891 0
M  V30 540 H 51.0144 -3.99395 0.944011 0
M  V30 541 H 50.5454 -3.86028 -0.75803 0
M  V30 542 H 52.5604 -4.6441 -1.74752 0
M  V30 543 N 51.7335 -0.305618 -1.54608 0
M  V30 544 C 52.6665 0.610536 -2.19881 0
M  V30 545 C 53.6445 1.1294 -1.16976 0
M  V30 546 O 54.8285 1.19673 -1.45638 0
M  V30 547 C 51.9555 1.83583 -2.84631 0
M  V30 548 C 51.0015 1.4498 -4.01102 0
M  V30 549 S 51.8345 0.501793 -5.33144 0
M  V30 550 C 52.9905 1.73478 -6.01379 0
M  V30 551 H 53.2235 0.0560177 -2.97247 0
M  V30 552 H 50.7565 -0.0897434 -1.54139 0
M  V30 553 H 52.7145 2.53898 -3.22562 0
M  V30 554 H 51.3755 2.36152 -2.07102 0
M  V30 555 H 50.5685 2.36236 -4.45206 0
M  V30 556 H 50.1705 0.826553 -3.64752 0
M  V30 557 H 52.4625 2.67473 -6.22467 0
M  V30 558 H 53.4055 1.33622 -6.95378 0
M  V30 559 H 53.8135 1.9136 -5.31076 0
M  V30 560 N 53.2116 1.57565 -0.0334293 0
M  V30 561 C 54.1596 2.1164 0.96496 0
M  V30 562 C 55.1536 1.04398 1.33407 0
M  V30 563 O 56.3596 1.22828 1.3158 0
M  V30 564 H 52.7346 0.676222 0.32898 0
M  V30 565 H 54.7056 2.94455 0.483614 0
M  V30 566 C 53.4546 2.66207 2.23672 0
M  V30 567 H 52.7776 3.48378 1.96145 0
M  V30 568 H 54.2176 3.07685 2.9173 0
M  V30 569 C 52.6766 1.59151 2.96939 0
M  V30 570 O 53.2066 0.993858 3.89211 0
M  V30 571 N 51.4126 1.31093 2.59351 0
M  V30 572 H 50.9596 1.7988 1.84393 0
M  V30 573 H 50.9176 0.596889 3.08682 0
M  V30 574 N 54.6897 -0.239769 1.55765 0
M  V30 575 C 55.6527 -1.28038 1.90103 0
M  V30 576 C 56.6527 -1.40723 0.778055 0
M  V30 577 O 57.8427 -1.39301 1.04599 0
M  V30 578 C 54.9747 -2.65702 2.13577 0
M  V30 579 H 56.1677 -0.988048 2.83157 0
M  V30 580 H 53.7207 -0.479382 1.48767 0
M  V30 581 H 54.4557 -3.00063 1.23015 0
M  V30 582 H 54.2407 -2.57875 2.95369 0
M  V30 583 H 55.7307 -3.40828 2.41301 0
M  V30 584 N 56.1678 -1.49265 -0.50573 0
M  V30 585 C 57.1148 -1.65585 -1.6078 0
M  V30 586 C 58.0848 -0.497396 -1.58478 0
M  V30 587 O 59.2698 -0.72385 -1.76536 0
M  V30 588 C 56.4098 -1.72408 -2.98948 0
M  V30 589 C 55.5228 -2.99525 -3.11301 0
M  V30 590 C 54.6578 -2.97356 -4.40174 0
M  V30 591 C 53.6968 -4.19074 -4.46143 0
M  V30 592 N 52.8338 -4.14841 -5.66437 0
M  V30 593 H 57.6738 -2.59688 -1.46172 0
M  V30 594 H 55.2108 -1.28761 -0.711261 0
M  V30 595 H 57.1688 -1.74344 -3.79025 0
M  V30 596 H 55.7988 -0.817753 -3.1227 0
M  V30 597 H 54.8508 -3.07222 -2.24318 0
M  V30 598 H 56.1628 -3.89518 -3.11572 0
M  V30 599 H 55.3168 -2.97829 -5.28567 0
M  V30 600 H 54.0558 -2.05133 -4.42461 0
M  V30 601 H 53.0608 -4.1885 -3.56153 0
M  V30 602 H 54.2858 -5.12483 -4.45575 0
M  V30 603 H 52.2318 -3.25453 -5.69575 0
M  V30 604 H 52.1488 -4.98564 -5.68304 0
M  V30 605 H 53.4168 -4.1941 -6.57051 0
M  V30 606 N 57.6459 0.756429 -1.3826 0
M  V30 607 C 58.5959 1.86069 -1.31766 0
M  V30 608 C 59.5799 1.59621 -0.202483 0
M  V30 609 O 60.7719 1.7149 -0.438211 0
M  V30 610 C 57.9009 3.23742 -1.1422 0
M  V30 611 C 56.9869 3.56091 -2.30348 0
M  V30 612 N 57.3779 3.59517 -3.55783 0
M  V30 613 C 55.6759 3.86341 -2.22838 0
M  V30 614 C 56.3769 3.89052 -4.32451 0
M  V30 615 N 55.3529 4.05736 -3.61772 0
M  V30 616 H 59.1549 1.86992 -2.26741 0
M  V30 617 H 56.6689 0.953643 -1.31451 0
M  V30 618 H 58.6659 4.02761 -1.07652 0
M  V30 619 H 57.3259 3.24073 -0.201763 0
M  V30 620 H 58.3369 3.41347 -3.89491 0
M  V30 621 H 55.0139 3.94404 -1.36937 0
M  V30 622 H 56.4039 3.98349 -5.4108 0
M  V30 623 N 59.124 1.23083 0.984299 0
M  V30 624 C 60.074 0.975749 2.06066 0
M  V30 625 C 61.058 -0.0768251 1.60716 0
M  V30 626 O 62.25 0.134805 1.76486 0
M  V30 627 C 59.379 0.564673 3.38624 0
M  V30 628 C 58.465 1.65244 3.90583 0
M  V30 629 N 58.856 2.88193 4.15666 0
M  V30 630 C 57.154 1.52612 4.19077 0
M  V30 631 C 57.855 3.58593 4.58024 0
M  V30 632 N 56.831 2.86093 4.62225 0
M  V30 633 H 60.633 1.90957 2.23411 0
M  V30 634 H 58.147 1.12963 1.16675 0
M  V30 635 H 60.144 0.36322 4.15315 0
M  V30 636 H 58.804 -0.362147 3.22674 0
M  V30 637 H 59.815 3.24537 4.03604 0
M  V30 638 H 56.492 0.666121 4.12152 0
M  V30 639 H 57.882 4.63974 4.85982 0
M  V30 640 N 60.6021 -1.18246 1.0419 0
M  V30 641 C 61.5491 -2.2192 0.634037 0
M  V30 642 C 62.5191 -1.62179 -0.358765 0
M  V30 643 O 63.7041 -1.89122 -0.252466 0
M  V30 644 C 60.8441 -3.451 0.00445535 0
M  V30 645 C 59.9571 -4.19174 1.04487 0
M  V30 646 C 59.0921 -5.29813 0.383676 0
M  V30 647 C 58.1311 -5.9566 1.4091 0
M  V30 648 N 57.2681 -6.97834 0.772784 0
M  V30 649 H 62.1081 -2.56164 1.52263 0
M  V30 650 H 59.6451 -1.25843 0.761701 0
M  V30 651 H 61.6031 -4.15485 -0.377919 0
M  V30 652 H 60.2331 -3.11472 -0.847652 0
M  V30 653 H 59.2851 -3.47604 1.54518 0
M  V30 654 H 60.5971 -4.64267 1.82368 0
M  V30 655 H 59.7511 -6.06677 -0.0528366 0
M  V30 656 H 58.4901 -4.85825 -0.427208 0
M  V30 657 H 57.4951 -5.17535 1.85574 0
M  V30 658 H 58.7201 -6.4173 2.22171 0
M  V30 659 H 56.6661 -6.55998 -0.0177708 0
M  V30 660 H 56.5831 -7.41186 1.48928 0
M  V30 661 H 57.8511 -7.78665 0.36071 0
M  V30 662 N 62.0802 -0.821533 -1.34494 0
M  V30 663 C 63.3082 -0.421884 -2.02553 0
M  V30 664 C 63.7232 0.971745 -1.61872 0
M  V30 665 O 63.0802 1.62864 -0.823496 0
M  V30 666 C 63.1312 -0.51285 -3.57844 0
M  V30 667 O 62.8522 -1.85155 -3.97051 0
M  V30 668 C 64.3532 -0.107921 -4.43169 0
M  V30 669 H 61.5732 -0.169482 -0.649243 0
M  V30 670 H 64.1172 -1.1093 -1.71798 0
M  V30 671 H 62.2722 0.126474 -3.87193 0
M  V30 672 H 62.6862 -1.82482 -4.91732 0
M  V30 673 H 64.1602 -0.222657 -5.51551 0
M  V30 674 H 64.6372 0.948401 -4.28838 0
M  V30 675 H 65.2432 -0.720989 -4.19144 0
M  V30 676 N 63.5583 1.46682 -0.576371 0
M  V30 677 C 64.4903 2.28341 0.198231 0
M  V30 678 C 65.5033 1.38141 0.861453 0
M  V30 679 O 66.6923 1.62797 0.732082 0
M  V30 680 C 63.7923 3.12986 1.29972 0
M  V30 681 C 62.9653 4.31271 0.729639 0
M  V30 682 C 62.0243 4.97363 1.71803 0
M  V30 683 O 61.0503 5.55156 1.25658 0
M  V30 684 N 62.2523 4.93796 3.05198 0
M  V30 685 H 65.0173 2.9546 -0.502324 0
M  V30 686 H 62.5783 1.56525 -0.413715 0
M  V30 687 H 64.5703 3.54066 1.96008 0
M  V30 688 H 63.1403 2.47984 1.90323 0
M  V30 689 H 62.3603 3.94052 -0.108012 0
M  V30 690 H 63.6483 5.07739 0.328438 0
M  V30 691 H 63.0463 4.48077 3.45317 0
M  V30 692 H 61.6033 5.38837 3.6674 0
M  V30 693 N 65.0364 0.313813 1.54444 0
M  V30 694 C 66.4474 -0.176243 1.85866 0
M  V30 695 C 66.7984 -1.52405 1.23561 0
M  V30 696 O 65.9234 -2.09605 0.538016 0
M  V30 697 C 66.5184 -0.32657 3.37222 0
M  V30 698 C 65.0774 -0.760846 3.6863 0
M  V30 699 C 64.2244 0.123247 2.77026 0
M  V30 700 H 67.1754 0.534418 1.49431 0
M  V30 701 H 67.1964 -1.15908 3.62416 0
M  V30 702 H 66.7084 0.654531 3.82541 0
M  V30 703 H 64.8094 -1.75204 3.28838 0
M  V30 704 H 64.9224 -0.571353 4.75681 0
M  V30 705 H 63.2864 -0.399597 2.51546 0
M  V30 706 H 64.0694 1.10094 3.25168 0
M  V30 707 N 66.5145 -1.57545 0.0417849 0
M  V30 708 C 67.7395 -1.97035 -0.647455 0
M  V30 709 C 68.1645 -0.918775 -1.64135 0
M  V30 710 O 67.5225 0.119006 -1.80909 0
M  V30 711 C 67.5705 -3.35609 -1.31905 0
M  V30 712 O 66.6745 -3.3287 -2.43457 0
M  V30 713 H 66.0155 -0.64211 -0.169086 0
M  V30 714 H 68.5455 -2.04318 0.107399 0
M  V30 715 H 68.5555 -3.72126 -1.67291 0
M  V30 716 H 67.2305 -4.11685 -0.590586 0
M  V30 717 H 65.8075 -3.08087 -2.10088 0
M  V30 718 N 67.9926 0.231505 -1.5589 0
M  V30 719 C 69.4036 0.799327 -1.68724 0
M  V30 720 C 69.7546 1.85398 -0.642022 0
M  V30 721 O 68.8796 2.1539 0.208784 0
M  V30 722 C 69.4746 1.45664 -3.05888 0
M  V30 723 C 68.0336 1.97197 -3.20609 0
M  V30 724 C 67.1806 0.828552 -2.64632 0
M  V30 725 H 70.1316 0.00702616 -1.58698 0
M  V30 726 H 70.1526 2.32517 -3.01191 0
M  V30 727 H 69.6646 0.688808 -3.81939 0
M  V30 728 H 67.7656 2.76813 -2.4941 0
M  V30 729 H 67.8786 2.15878 -4.27707 0
M  V30 730 H 66.2426 1.23321 -2.22854 0
M  V30 731 H 67.0256 0.0735544 -3.43221 0
M  V30 732 N 69.4707 1.49531 0.497807 0
M  V30 733 C 70.3807 1.69176 1.62532 0
M  V30 734 C 71.3967 0.5744 1.64246 0
M  V30 735 O 72.5727 0.849497 1.82608 0
M  V30 736 C 69.6377 1.75695 2.98885 0
M  V30 737 C 68.6987 2.9929 3.07773 0
M  V30 738 C 67.9317 3.05488 4.37622 0
M  V30 739 O 68.1547 2.19192 5.26603 0
M  V30 740 O 67.0887 3.9798 4.51548 0
M  V30 741 H 70.9147 2.647 1.48887 0
M  V30 742 H 68.4997 1.3331 0.674441 0
M  V30 743 H 70.3817 1.82317 3.79919 0
M  V30 744 H 69.0567 0.8335 3.12785 0
M  V30 745 H 67.9637 2.98183 2.25915 0
M  V30 746 H 69.2967 3.91125 2.98801 0
M  V30 747 N 70.9488 -0.749086 1.3866 0
M  V30 748 C 72.2258 -1.4992 1.25632 0
M  V30 749 C 72.6058 -2.10633 -0.140317 0
M  V30 750 O 71.9538 -1.97437 -1.15025 0
M  V30 751 C 72.1638 -2.56195 2.36992 0
M  V30 752 C 73.5118 -3.22972 2.75634 0
M  V30 753 O 74.5358 -2.66502 2.36337 0
M  V30 754 O 73.3948 -4.25122 3.43415 0
M  V30 755 H 70.4888 -0.665067 0.491544 0
M  V30 756 H 73.0348 -0.784113 1.50498 0
M  V30 757 H 71.8068 -2.09612 3.30422 0
M  V30 758 H 71.4298 -3.35279 2.13714 0
M  V30 759 N 72.4269 -1.23603 -0.977757 0
M  V30 760 C 73.3369 -1.03632 -2.1047 0
M  V30 761 C 74.3529 0.0199435 -1.73989 0
M  V30 762 O 75.5289 -0.176076 -2.00629 0
M  V30 763 C 72.5939 -0.63276 -3.40877 0
M  V30 764 C 71.6549 -1.76437 -3.91367 0
M  V30 765 C 70.8879 -1.37997 -5.15551 0
M  V30 766 O 71.1109 -0.265357 -5.69782 0
M  V30 767 O 70.0449 -2.20201 -5.60174 0
M  V30 768 H 73.8709 -1.98086 -2.30208 0
M  V30 769 H 71.4559 -1.02332 -1.08851 0
M  V30 770 H 73.3379 -0.418761 -4.19314 0
M  V30 771 H 72.0129 0.282754 -3.22463 0
M  V30 772 H 70.9199 -2.03304 -3.14036 0
M  V30 773 H 72.2529 -2.6583 -4.14241 0
M  V30 774 N 73.905 1.17692 -1.04816 0
M  V30 775 C 74.835 2.23777 -0.666791 0
M  V30 776 C 75.816 1.66796 0.33361 0
M  V30 777 O 77.001 1.93039 0.212042 0
M  V30 778 C 74.131 3.47281 -0.0367933 0
M  V30 779 C 73.085 4.17059 -0.961546 0
M  V30 780 C 72.411 5.34342 -0.195626 0
M  V30 781 C 73.711 4.69713 -2.28402 0
M  V30 782 H 75.405 2.55933 -1.55367 0
M  V30 783 H 72.951 1.23019 -0.748484 0
M  V30 784 H 74.904 4.20706 0.241775 0
M  V30 785 H 73.628 3.14381 0.885004 0
M  V30 786 H 72.287 3.45541 -1.22462 0
M  V30 787 H 71.935 4.97692 0.728816 0
M  V30 788 H 71.635 5.81966 -0.811775 0
M  V30 789 H 73.159 6.10553 0.0757473 0
M  V30 790 H 74.573 5.34794 -2.06563 0
M  V30 791 H 72.97 5.279 -2.8538 0
M  V30 792 H 74.04 3.86726 -2.92525 0
M  V30 793 N 75.3831 0.828654 1.34056 0
M  V30 794 C 76.6131 0.431993 2.02033 0
M  V30 795 C 77.0211 -0.96844 1.62536 0
M  V30 796 O 76.3641 -1.6391 0.829408 0
M  V30 797 C 76.4261 0.461224 3.56529 0
M  V30 798 C 76.0901 1.81599 4.1937 0
M  V30 799 C 77.0871 2.7777 4.39477 0
M  V30 800 C 74.7721 2.10604 4.56017 0
M  V30 801 C 76.7661 4.01115 4.95364 0
M  V30 802 C 74.4531 3.34207 5.11614 0
M  V30 803 C 75.4511 4.2928 5.31232 0
M  V30 804 O 75.1391 5.50699 5.8565 0
M  V30 805 H 74.8711 0.170943 0.654029 0
M  V30 806 H 77.4251 1.11988 1.72185 0
M  V30 807 H 75.6551 -0.283388 3.8566 0
M  V30 808 H 77.3441 0.0838149 4.05813 0
M  V30 809 H 78.1101 2.56659 4.11523 0
M  V30 810 H 73.9891 1.37402 4.40047 0
M  V30 811 H 77.5331 4.75333 5.10592 0
M  V30 812 H 73.4301 3.55179 5.38997 0
M  V30 813 H 74.1981 5.52298 6.04077 0
M  V30 814 N 76.8612 -1.46375 0.584142 0
M  V30 815 C 78.1092 -2.01978 0.0701287 0
M  V30 816 C 78.4302 -1.4579 -1.295 0
M  V30 817 O 77.7002 -0.64314 -1.85042 0
M  V30 818 H 76.2802 -0.746648 0.0229345 0
M  V30 819 H 78.9422 -1.79461 0.760245 0
M  V30 820 H 78.0382 -3.121 0.0022064 0
M  V30 821 N 78.3393 -0.321999 -1.54275 0
M  V30 822 C 79.2713 0.578671 -2.21775 0
M  V30 823 C 80.2843 1.08109 -1.21722 0
M  V30 824 O 81.4733 0.994938 -1.482 0
M  V30 825 C 78.5733 1.80661 -2.86731 0
M  V30 826 C 77.7463 1.44314 -4.12907 0
M  V30 827 C 76.8053 2.52845 -4.61472 0
M  V30 828 O 75.8313 2.17054 -5.2619 0
M  V30 829 N 77.0333 3.83748 -4.35566 0
M  V30 830 H 79.7983 0.000709447 -2.997 0
M  V30 831 H 77.3593 -0.145132 -1.61248 0
M  V30 832 H 79.3513 2.52655 -3.16145 0
M  V30 833 H 77.9213 2.29245 -2.12521 0
M  V30 834 H 77.1413 0.554906 -3.90275 0
M  V30 835 H 78.4293 1.17598 -4.95023 0
M  V30 836 H 77.8273 4.15625 -3.83761 0
M  V30 837 H 76.3843 4.51977 -4.69638 0
M  V30 838 N 79.8174 1.5752 -0.0501392 0
M  V30 839 C 81.0574 1.94521 0.627783 0
M  V30 840 C 81.4214 0.928265 1.68069 0
M  V30 841 O 82.6224 1.18517 2.41261 0
M  V30 842 C 80.8934 3.36319 1.20932 0
M  V30 843 S 82.4524 3.95272 1.90539 0
M  V30 844 H 79.2704 0.680456 0.206158 0
M  V30 845 H 81.8724 1.95139 -0.118829 0
M  V30 846 H 80.5764 4.08132 0.430865 0
M  V30 847 H 80.1074 3.39193 1.99277 0
M  V30 848 H 82.1224 3.80415 3.18589 0
M  V30 849 N 81.2955 -0.223234 1.56011 0
M  V30 850 C 82.5205 -0.968978 1.83373 0
M  V30 851 C 82.9455 -1.77227 0.630254 0
M  V30 852 O 82.3035 -1.76345 -0.420959 0
M  V30 853 C 82.3515 -1.86363 3.08709 0
M  V30 854 O 81.4555 -2.95873 2.87285 0
M  V30 855 H 80.7965 -0.274461 0.604622 0
M  V30 856 H 83.3265 -0.237056 2.03222 0
M  V30 857 H 83.3365 -2.27376 3.38768 0
M  V30 858 H 82.0115 -1.27319 3.95933 0
M  V30 859 H 80.5885 -2.58818 2.68454 0
M  V30 860 N 82.7736 -1.49793 -0.48987 0
M  V30 861 C 84.1846 -1.52914 -1.07118 0
M  V30 862 C 84.5356 -0.321738 -1.93544 0
M  V30 863 O 83.6606 0.567338 -2.08831 0
M  V30 864 C 84.2556 -2.771 -1.94938 0
M  V30 865 C 82.8146 -2.82963 -2.48212 0
M  V30 866 C 81.9616 -2.46972 -1.26096 0
M  V30 867 H 84.9126 -1.56329 -0.273289 0
M  V30 868 H 84.9336 -2.57892 -2.79771 0
M  V30 869 H 84.4456 -3.64959 -1.32009 0
M  V30 870 H 82.5466 -1.99411 -3.14748 0
M  V30 871 H 82.6596 -3.85406 -2.84603 0
M  V30 872 H 81.0236 -1.98994 -1.58976 0
M  V30 873 H 81.8066 -3.37118 -0.648581 0
M  V30 874 N 84.2517 0.741722 -1.39055 0
M  V30 875 C 85.4977 1.50234 -1.37118 0
M  V30 876 C 85.8527 1.92368 0.0350439 0
M  V30 877 O 85.1457 1.63422 1.00019 0
M  V30 878 C 85.3397 2.7592 -2.27163 0
M  V30 879 C 85.1687 2.46074 -3.76401 0
M  V30 880 C 83.9387 2.38704 -4.45364 0
M  V30 881 C 86.1367 2.12062 -4.68545 0
M  V30 882 N 84.1187 2.01258 -5.79973 0
M  V30 883 C 85.4897 1.85005 -5.91754 0
M  V30 884 C 87.5447 1.98473 -4.56632 0
M  V30 885 C 86.2477 1.4573 -7.04383 0
M  V30 886 C 88.2737 1.60599 -5.69176 0
M  V30 887 C 87.6357 1.34423 -6.91455 0
M  V30 888 H 83.7347 0.548858 -0.557027 0
M  V30 889 H 86.3187 0.862642 -1.74547 0
M  V30 890 H 84.4897 3.3768 -1.91904 0
M  V30 891 H 86.2217 3.42068 -2.16267 0
M  V30 892 H 82.9767 2.55574 -3.98721 0
M  V30 893 H 83.4007 1.85147 -6.51191 0
M  V30 894 H 88.0427 2.17381 -3.62637 0
M  V30 895 H 85.7607 1.25562 -7.98286 0
M  V30 896 H 89.3467 1.507 -5.61944 0
M  V30 897 H 88.2267 1.05555 -7.77064 0
M  V30 898 N 85.7298 1.2412 0.971189 0
M  V30 899 C 86.6768 1.0305 2.06517 0
M  V30 900 C 87.6468 -0.0550666 1.66009 0
M  V30 901 O 88.8318 0.0988688 1.90544 0
M  V30 902 C 85.9718 0.637653 3.39158 0
M  V30 903 C 85.0848 1.79633 3.92882 0
M  V30 904 C 84.2198 1.34939 5.13775 0
M  V30 905 C 83.2588 2.47823 5.59687 0
M  V30 906 N 82.3958 2.04022 6.71803 0
M  V30 907 H 87.2358 1.96685 2.23873 0
M  V30 908 H 84.7728 0.979694 1.09729 0
M  V30 909 H 86.7308 0.390931 4.15364 0
M  V30 910 H 85.3608 -0.261693 3.21737 0
M  V30 911 H 84.4128 2.15681 3.13346 0
M  V30 912 H 85.7248 2.64466 4.22918 0
M  V30 913 H 84.8788 1.06134 5.97345 0
M  V30 914 H 83.6178 0.471557 4.85415 0
M  V30 915 H 82.6228 2.77392 4.74693 0
M  V30 916 H 83.8478 3.36158 5.90063 0
M  V30 917 H 81.7938 1.18632 6.45184 0
M  V30 918 H 81.7108 2.82409 7.01271 0
M  V30 919 H 82.9788 1.78347 7.58823 0
M  V30 920 N 87.2079 -1.17134 1.05439 0
M  V30 921 C 88.1549 -2.21235 0.657539 0
M  V30 922 C 89.1249 -1.62551 -0.341543 0
M  V30 923 O 90.3099 -1.89379 -0.232393 0
M  V30 924 C 87.4499 -3.45076 0.0410575 0
M  V30 925 C 86.5629 -4.18042 1.08927 0
M  V30 926 C 85.6979 -5.29376 0.439848 0
M  V30 927 C 84.7369 -5.94132 1.4722 0
M  V30 928 N 83.8739 -6.96975 0.846756 0
M  V30 929 H 88.7139 -2.54534 1.54972 0
M  V30 930 H 86.2509 -1.25028 0.775006 0
M  V30 931 H 88.2089 -4.15862 -0.33383 0
M  V30 932 H 86.8389 -3.12353 -0.814568 0
M  V30 933 H 85.8909 -3.45945 1.58196 0
M  V30 934 H 87.2029 -4.62306 1.87282 0
M  V30 935 H 86.3569 -6.06699 0.0115125 0
M  V30 936 H 85.0959 -4.86251 -0.375656 0
M  V30 937 H 84.1009 -5.15538 1.91052 0
M  V30 938 H 85.3259 -6.39337 2.28965 0
M  V30 939 H 83.2719 -6.5598 0.0518075 0
M  V30 940 H 83.1889 -7.39565 1.5678 0
M  V30 941 H 84.4569 -7.78239 0.443277 0
M  V30 942 N 88.686 -0.835752 -1.33615 0
M  V30 943 C 89.634 -0.255238 -2.31195 0
M  V30 944 C 90.628 0.61107 -1.57995 0
M  V30 945 O 91.834 0.500979 -1.72888 0
M  V30 946 H 88.209 -0.0638085 -0.749288 0
M  V30 947 H 90.18 -1.09283 -2.77669 0
M  V30 948 C 88.929 0.55754 -3.43201 0
M  V30 949 H 88.252 -0.0997553 -3.99676 0
M  V30 950 H 89.692 0.929622 -4.13683 0
M  V30 951 C 88.151 1.73515 -2.88781 0
M  V30 952 O 88.681 2.83376 -2.84712 0
M  V30 953 N 86.887 1.55603 -2.4543 0
M  V30 954 H 86.434 0.662354 -2.48939 0
M  V30 955 H 86.392 2.34545 -2.09371 0
M  V30 956 N 90.1641 1.46063 -0.591896 0
M  V30 957 C 91.1271 2.28854 0.125973 0
M  V30 958 C 92.1271 1.38903 0.810107 0
M  V30 959 O 93.3171 1.61186 0.66066 0
M  V30 960 C 90.4491 3.19526 1.1881 0
M  V30 961 H 91.6421 2.93802 -0.601717 0
M  V30 962 H 89.1951 1.52325 -0.350254 0
M  V30 963 H 89.9301 2.59345 1.94707 0
M  V30 964 H 89.7151 3.85766 0.701936 0
M  V30 965 H 91.2051 3.81817 1.69132 0
M  V30 966 N 91.6422 0.330177 1.54103 0
M  V30 967 C 92.8822 -0.270916 2.02597 0
M  V30 968 C 93.2462 -1.48826 1.21304 0
M  V30 969 O 94.4472 -2.16266 1.59633 0
M  V30 970 C 92.7182 -0.590328 3.52491 0
M  V30 971 S 94.2772 -1.17014 4.2291 0
M  V30 972 H 91.0952 -0.0815379 0.706309 0
M  V30 973 H 93.6972 0.464835 1.89893 0
M  V30 974 H 92.4012 0.303691 4.09275 0
M  V30 975 H 91.9322 -1.3561 3.69288 0
M  V30 976 H 93.9472 -2.45662 4.3112 0
M  V30 977 N 93.1203 -1.57491 0.0584922 0
M  V30 978 C 94.3603 -1.94851 -0.617458 0
M  V30 979 C 94.7243 -0.937165 -1.67575 0
M  V30 980 O 95.9253 -1.19795 -2.40629 0
M  V30 981 C 94.1963 -3.36955 -1.19147 0
M  V30 982 S 95.7553 -3.96277 -1.8844 0
M  V30 983 H 92.5733 -0.681539 -0.202547 0
M  V30 984 H 95.1753 -1.95073 0.129176 0
M  V30 985 H 93.8793 -4.08355 -0.409215 0
M  V30 986 H 93.4103 -3.40245 -1.97476 0
M  V30 987 H 95.4253 -3.82099 -3.16568 0
M  V30 988 N 94.5984 0.214957 -1.56127 0
M  V30 989 C 95.8264 0.955092 -1.83536 0
M  V30 990 C 96.2414 1.77677 -0.638472 0
M  V30 991 O 95.5984 1.78219 0.392968 0
M  V30 992 C 95.6494 1.86734 -3.09536 0
M  V30 993 O 95.3704 1.07887 -4.24608 0
M  V30 994 C 96.8714 2.72082 -3.4998 0
M  V30 995 H 94.0914 0.279611 -0.609966 0
M  V30 996 H 96.6354 0.228197 -2.03223 0
M  V30 997 H 94.7904 2.5481 -2.91806 0
M  V30 998 H 95.2044 1.69872 -4.9623 0
M  V30 999 H 96.6784 3.31782 -4.41163 0
M  V30 1000 H 97.1554 3.44806 -2.7204 0
M  V30 1001 H 97.7614 2.09409 -3.70173 0
M  V30 1002 N 96.0765 1.50051 0.48192 0
M  V30 1003 C 97.0395 1.67584 1.5636 0
M  V30 1004 C 98.0395 0.546894 1.51214 0
M  V30 1005 O 99.2295 0.813725 1.54026 0
M  V30 1006 C 96.3615 1.691 2.96003 0
M  V30 1007 H 97.5545 2.64078 1.42136 0
M  V30 1008 H 95.1075 1.39369 0.707533 0
M  V30 1009 H 95.8425 0.742589 3.15684 0
M  V30 1010 H 95.6275 2.51105 3.01146 0
M  V30 1011 H 97.1175 1.84656 3.74556 0
M  V30 1012 N 97.5546 -0.734337 1.39446 0
M  V30 1013 C 98.7796 -1.52866 1.40167 0
M  V30 1014 C 99.2046 -1.881 -0.00171513 0
M  V30 1015 O 98.5626 -1.51957 -0.988879 0
M  V30 1016 C 98.6106 -2.79235 2.28167 0
M  V30 1017 O 97.7146 -3.75185 1.71201 0
M  V30 1018 H 97.0556 -0.461618 0.477289 0
M  V30 1019 H 99.5856 -0.905949 1.8345 0
M  V30 1020 H 99.5956 -3.27963 2.42702 0
M  V30 1021 H 98.2706 -2.52923 3.30156 0
M  V30 1022 H 96.8476 -3.33958 1.65912 0
M  V30 1023 N 99.0327 -1.24633 -0.964593 0
M  V30 1024 C 100.261 -1.11501 -1.74285 0
M  V30 1025 C 100.676 0.332165 -1.85855 0
M  V30 1026 O 100.033 1.22903 -1.34911 0
M  V30 1027 C 100.084 -1.75258 -3.16175 0
M  V30 1028 O 99.8047 -3.14318 -3.05182 0
M  V30 1029 C 101.306 -1.67776 -4.10324 0
M  V30 1030 H 98.5257 -0.389407 -0.546446 0
M  V30 1031 H 101.07 -1.64801 -1.21083 0
M  V30 1032 H 99.2247 -1.25954 -3.66353 0
M  V30 1033 H 99.6387 -3.4551 -3.94618 0
M  V30 1034 H 101.113 -2.17064 -5.0753 0
M  V30 1035 H 101.59 -0.639584 -4.34518 0
M  V30 1036 H 102.196 -2.16522 -3.66058 0
M  V30 1037 N 100.511 1.16574 -1.06058 0
M  V30 1038 C 101.736 1.91493 -0.796562 0
M  V30 1039 C 102.161 1.76773 0.642868 0
M  V30 1040 O 101.519 1.09142 1.44768 0
M  V30 1041 C 101.567 3.40293 -1.19303 0
M  V30 1042 O 100.671 4.11074 -0.330394 0
M  V30 1043 H 100.012 0.596678 -0.291326 0
M  V30 1044 H 102.542 1.47708 -1.41575 0
M  V30 1045 H 102.552 3.91057 -1.16356 0
M  V30 1046 H 101.227 3.50326 -2.24153 0
M  V30 1047 H 99.8038 3.70513 -0.421225 0
M  V30 1048 N 101.989 0.842826 1.3317 0
M  V30 1049 C 102.921 0.236245 2.27979 0
M  V30 1050 C 103.934 -0.585282 1.51915 0
M  V30 1051 O 105.123 -0.411705 1.73687 0
M  V30 1052 C 102.223 -0.685717 3.3189 0
M  V30 1053 C 101.396 0.0973448 4.37292 0
M  V30 1054 C 100.455 -0.748565 5.20848 0
M  V30 1055 O 99.4809 -0.186339 5.68895 0
M  V30 1056 N 100.683 -2.06527 5.42519 0
M  V30 1057 H 103.448 1.05088 2.80672 0
M  V30 1058 H 101.009 0.701667 1.45905 0
M  V30 1059 H 103.001 -1.25669 3.84694 0
M  V30 1060 H 101.571 -1.40105 2.79445 0
M  V30 1061 H 100.791 0.849706 3.84933 0
M  V30 1062 H 102.079 0.635643 5.04814 0
M  V30 1063 H 101.477 -2.54554 5.05192 0
M  V30 1064 H 100.034 -2.58464 5.98364 0
M  V30 1065 N 103.467 -1.45747 0.599634 0
M  V30 1066 C 104.377 -2.34262 -0.125888 0
M  V30 1067 C 105.393 -1.50768 -0.868625 0
M  V30 1068 O 106.569 -1.83592 -0.828003 0
M  V30 1069 C 103.634 -3.28252 -1.11587 0
M  V30 1070 C 102.695 -4.27651 -0.375956 0
M  V30 1071 C 101.928 -5.1715 -1.31877 0
M  V30 1072 O 102.151 -5.09916 -2.55621 0
M  V30 1073 O 101.085 -5.96286 -0.820157 0
M  V30 1074 H 104.911 -2.97688 0.601315 0
M  V30 1075 H 102.496 -1.44999 0.359934 0
M  V30 1076 H 104.378 -3.86191 -1.68626 0
M  V30 1077 H 103.053 -2.67401 -1.82424 0
M  V30 1078 H 101.96 -3.7335 0.236698 0
M  V30 1079 H 103.293 -4.91334 0.29177 0
M  V30 1080 N 104.945 -0.338344 -1.53925 0
M  V30 1081 C 105.875 0.51328 -2.27789 0
M  V30 1082 C 106.856 1.107 -1.29149 0
M  V30 1083 O 108.041 1.12937 -1.57984 0
M  V30 1084 C 105.171 1.66697 -3.04679 0
M  V30 1085 C 104.125 1.20183 -4.1078 0
M  V30 1086 C 103.451 2.44363 -4.75595 0
M  V30 1087 C 104.751 0.30605 -5.21403 0
M  V30 1088 H 106.445 -0.102883 -2.99223 0
M  V30 1089 H 103.991 -0.0509219 -1.4391 0
M  V30 1090 H 105.944 2.26915 -3.55088 0
M  V30 1091 H 104.668 2.30995 -2.30887 0
M  V30 1092 H 103.327 0.622499 -3.61276 0
M  V30 1093 H 102.975 3.07057 -3.98403 0
M  V30 1094 H 102.675 2.13925 -5.47275 0
M  V30 1095 H 104.199 3.05317 -5.28786 0
M  V30 1096 H 105.613 0.814929 -5.67478 0
M  V30 1097 H 104.01 0.0937929 -6.00027 0
M  V30 1098 H 105.08 -0.65921 -4.80398 0
M  V30 1099 N 106.423 1.57458 -0.0668435 0
M  V30 1100 C 107.373 2.0896 0.912119 0
M  V30 1101 C 108.357 0.998186 1.26195 0
M  V30 1102 O 109.549 1.26133 1.24175 0
M  V30 1103 C 106.678 2.6508 2.18145 0
M  V30 1104 C 105.764 3.81218 1.85832 0
M  V30 1105 N 106.155 4.90378 1.23948 0
M  V30 1106 C 104.453 3.9042 2.15612 0
M  V30 1107 C 105.154 5.71279 1.09616 0
M  V30 1108 N 104.13 5.19389 1.60423 0
M  V30 1109 H 107.932 2.90749 0.42924 0
M  V30 1110 H 105.446 1.6182 0.137184 0
M  V30 1111 H 107.443 3.0029 2.89192 0
M  V30 1112 H 106.103 1.84736 2.67025 0
M  V30 1113 H 107.114 5.09847 0.909731 0
M  V30 1114 H 103.791 3.21043 2.66903 0
M  V30 1115 H 105.181 6.69085 0.614425 0
M  V30 1116 N 107.901 -0.206675 1.56239 0
M  V30 1117 C 108.848 -1.25617 1.93621 0
M  V30 1118 C 109.818 -1.45824 0.795274 0
M  V30 1119 O 111.003 -1.59148 1.05245 0
M  V30 1120 C 108.143 -2.59839 2.27107 0
M  V30 1121 C 107.256 -2.47308 3.54207 0
M  V30 1122 C 106.391 -3.74155 3.7707 0
M  V30 1123 C 105.43 -3.56407 4.97635 0
M  V30 1124 N 104.567 -4.75238 5.1681 0
M  V30 1125 H 109.407 -0.930383 2.83104 0
M  V30 1126 H 106.944 -0.448065 1.4011 0
M  V30 1127 H 108.902 -3.38021 2.44535 0
M  V30 1128 H 107.532 -2.90485 1.40778 0
M  V30 1129 H 106.584 -1.60483 3.4489 0
M  V30 1130 H 107.896 -2.30122 4.42544 0
M  V30 1131 H 107.05 -4.60778 3.94675 0
M  V30 1132 H 105.789 -3.94282 2.87042 0
M  V30 1133 H 104.794 -2.68168 4.79964 0
M  V30 1134 H 106.019 -3.37736 5.89161 0
M  V30 1135 H 103.965 -4.95651 4.29728 0
M  V30 1136 H 103.882 -4.60835 5.99306 0
M  V30 1137 H 105.15 -5.63246 5.38864 0
M  V30 1138 N 109.379 -1.50304 -0.473955 0
M  V30 1139 C 110.656 -1.51667 -1.23518 0
M  V30 1140 C 111.036 -0.259701 -2.09496 0
M  V30 1141 O 110.384 0.756986 -2.15597 0
M  V30 1142 C 110.594 -2.81082 -2.06868 0
M  V30 1143 C 111.942 -3.31631 -2.65153 0
M  V30 1144 O 112.966 -2.82384 -2.17113 0
M  V30 1145 O 111.825 -4.17471 -3.52675 0
M  V30 1146 H 108.919 -0.60822 -0.560355 0
M  V30 1147 H 111.465 -1.62592 -0.486011 0
M  V30 1148 H 110.237 -3.64041 -1.4349 0
M  V30 1149 H 109.86 -2.73146 -2.88924 0
M  V30 1150 N 110.857 0.726932 -1.39834 0
M  V30 1151 C 112.085 1.51613 -1.40787 0
M  V30 1152 C 112.5 1.88799 -0.00451505 0
M  V30 1153 O 111.857 1.54662 0.968809 0
M  V30 1154 C 111.908 2.79863 -2.28821 0
M  V30 1155 O 111.629 2.44253 -3.63692 0
M  V30 1156 C 113.13 3.73837 -2.38245 0
M  V30 1157 H 110.35 0.468264 -0.480593 0
M  V30 1158 H 112.894 0.897607 -1.83748 0
M  V30 1159 H 111.049 3.38027 -1.89252 0
M  V30 1160 H 111.463 3.26695 -4.1033 0
M  V30 1161 H 112.937 4.60699 -3.04073 0
M  V30 1162 H 113.414 4.16153 -1.40403 0
M  V30 1163 H 114.02 3.21589 -2.78317 0
M  V30 1164 N 112.336 1.25143 0.95797 0
M  V30 1165 C 113.561 1.12521 1.74223 0
M  V30 1166 C 113.986 -0.317402 1.85403 0
M  V30 1167 O 113.344 -1.2299 1.33204 0
M  V30 1168 C 113.392 1.78062 3.1357 0
M  V30 1169 O 112.496 1.058 3.98598 0
M  V30 1170 H 111.837 0.39304 0.535178 0
M  V30 1171 H 114.367 1.65641 1.201 0
M  V30 1172 H 114.377 1.84213 3.64046 0
M  V30 1173 H 113.052 2.83021 3.04749 0
M  V30 1174 H 111.629 1.07506 3.57067 0
M  V30 1175 N 113.814 -1.1601 1.06675 0
M  V30 1176 C 115.23 -1.38622 0.790948 0
M  V30 1177 C 115.43 -1.92109 -0.607965 0
M  V30 1178 O 114.486 -2.12239 -1.36787 0
M  V30 1179 C 115.799 -2.36347 1.85905 0
M  V30 1180 C 117.347 -2.50023 1.88301 0
M  V30 1181 C 117.822 -3.51033 2.94176 0
M  V30 1182 N 119.313 -3.58563 2.93235 0
M  V30 1183 C 120.048 -4.36521 3.71803 0
M  V30 1184 N 119.544 -5.17869 4.602 0
M  V30 1185 N 121.337 -4.31541 3.60178 0
M  V30 1186 H 113.488 -0.796294 1.96908 0
M  V30 1187 H 115.751 -0.412597 0.853503 0
M  V30 1188 H 115.457 -2.04147 2.86386 0
M  V30 1189 H 115.331 -3.36042 1.71334 0
M  V30 1190 H 117.718 -2.81524 0.884769 0
M  V30 1191 H 117.799 -1.5035 2.06951 0
M  V30 1192 H 117.443 -3.20268 3.94196 0
M  V30 1193 H 117.373 -4.50445 2.72776 0
M  V30 1194 H 119.864 -3.00496 2.29152 0
M  V30 1195 H 120.177 -5.74578 5.16797 0
M  V30 1196 H 118.522 -5.17199 4.64253 0
M  V30 1197 H 121.713 -3.67051 2.90502 0
M  V30 1198 H 121.886 -4.9205 4.21653 0
M  V30 1199 N 115.292 -0.849877 -1.32721 0
M  V30 1200 C 116.222 -0.306308 -2.31482 0
M  V30 1201 C 117.203 0.591952 -1.59468 0
M  V30 1202 O 118.388 0.513199 -1.87296 0
M  V30 1203 C 115.518 0.510204 -3.43532 0
M  V30 1204 C 114.472 -0.293209 -4.26994 0
M  V30 1205 C 113.798 0.647743 -5.30762 0
M  V30 1206 C 115.098 -1.51634 -4.99804 0
M  V30 1207 H 116.792 -1.13153 -2.77195 0
M  V30 1208 H 114.338 -0.545553 -1.33266 0
M  V30 1209 H 116.291 0.900856 -4.11658 0
M  V30 1210 H 115.015 1.36874 -2.96535 0
M  V30 1211 H 113.674 -0.665555 -3.60508 0
M  V30 1212 H 113.322 1.50299 -4.8002 0
M  V30 1213 H 113.022 0.11422 -5.87489 0
M  V30 1214 H 114.546 1.03567 -6.01753 0
M  V30 1215 H 115.96 -1.19824 -5.60638 0
M  V30 1216 H 114.357 -1.98745 -5.66234 0
M  V30 1217 H 115.427 -2.28018 -4.27943 0
M  V30 1218 N 116.77 1.45427 -0.607355 0
M  V30 1219 C 118 2.06314 -0.108656 0
M  V30 1220 C 118.408 1.45269 1.21217 0
M  V30 1221 O 117.751 0.561115 1.74921 0
M  V30 1222 C 117.813 3.59345 0.105618 0
M  V30 1223 C 117.477 4.42723 -1.13337 0
M  V30 1224 C 118.474 4.77715 -2.05145 0
M  V30 1225 C 116.159 4.83478 -1.36213 0
M  V30 1226 C 118.153 5.52317 -3.18158 0
M  V30 1227 C 115.84 5.57835 -2.49527 0
M  V30 1228 C 116.838 5.92171 -3.40327 0
M  V30 1229 O 116.526 6.65019 -4.51669 0
M  V30 1230 H 116.258 0.672782 -0.0658842 0
M  V30 1231 H 118.812 1.87664 -0.834945 0
M  V30 1232 H 117.042 3.76394 0.886796 0
M  V30 1233 H 118.731 4.02076 0.555886 0
M  V30 1234 H 119.497 4.46787 -1.88697 0
M  V30 1235 H 115.376 4.56188 -0.664362 0
M  V30 1236 H 118.92 5.79036 -3.89054 0
M  V30 1237 H 114.817 5.88177 -2.65928 0
M  V30 1238 H 115.585 6.83469 -4.50348 0
M  V30 1239 N 118.248 0.346503 1.53744 0
M  V30 1240 C 119.196 -0.52422 2.26616 0
M  V30 1241 C 120.19 -1.09948 1.28871 0
M  V30 1242 O 121.396 -1.04488 1.46568 0
M  V30 1243 H 117.771 -0.187743 0.728187 0
M  V30 1244 H 119.742 0.11239 2.98188 0
M  V30 1245 C 118.491 -1.66186 3.05414 0
M  V30 1246 H 117.814 -1.22848 3.80458 0
M  V30 1247 H 119.254 -2.24622 3.59612 0
M  V30 1248 C 117.713 -2.59302 2.1509 0
M  V30 1249 O 118.243 -3.61628 1.74895 0
M  V30 1250 N 116.449 -2.28055 1.8011 0
M  V30 1251 H 115.996 -1.44883 2.12994 0
M  V30 1252 H 115.954 -2.90615 1.19958 0
M  V30 1253 N 119.726 -1.57421 0.075193 0
M  V30 1254 C 120.973 -1.93618 -0.593146 0
M  V30 1255 C 121.301 -0.955484 -1.69413 0
M  V30 1256 O 120.556 0.0283251 -1.9568 0
M  V30 1257 C 120.855 -3.36428 -1.20626 0
M  V30 1258 C 120.521 -4.50307 -0.231078 0
M  V30 1259 C 119.183 -4.81186 0.0371936 0
M  V30 1260 C 121.535 -5.19374 0.435888 0
M  V30 1261 C 118.863 -5.78466 0.979461 0
M  V30 1262 C 121.215 -6.17665 1.3665 0
M  V30 1263 C 119.879 -6.46958 1.6432 0
M  V30 1264 H 119.149 -0.708499 -0.217047 0
M  V30 1265 H 121.796 -1.90937 0.146793 0
M  V30 1266 H 120.101 -3.35592 -2.02201 0
M  V30 1267 H 121.798 -3.61727 -1.73073 0
M  V30 1268 H 118.388 -4.26227 -0.450357 0
M  V30 1269 H 122.572 -4.95711 0.241748 0
M  V30 1270 H 117.828 -5.99487 1.20106 0
M  V30 1271 H 122.002 -6.70284 1.88924 0
M  V30 1272 H 119.629 -7.2215 2.37494 0
M  V30 1273 N 121.204 0.198386 -1.56346 0
M  V30 1274 C 122.152 1.26538 -1.95169 0
M  V30 1275 C 123.146 1.47295 -0.836685 0
M  V30 1276 O 124.352 1.48195 -1.02167 0
M  V30 1277 H 120.727 0.424744 -0.620561 0
M  V30 1278 H 122.698 0.910904 -2.84157 0
M  V30 1279 C 121.447 2.6035 -2.30463 0
M  V30 1280 H 120.77 2.45192 -3.15786 0
M  V30 1281 H 122.21 3.33762 -2.61494 0
M  V30 1282 C 120.669 3.17096 -1.13806 0
M  V30 1283 O 121.199 3.99588 -0.41135 0
M  V30 1284 N 119.405 2.75795 -0.915736 0
M  V30 1285 H 118.952 2.08816 -1.50843 0
M  V30 1286 H 118.91 3.14101 -0.136979 0
M  V30 1287 N 122.682 1.50554 0.465978 0
M  V30 1288 C 123.928 1.63006 1.21658 0
M  V30 1289 C 124.283 0.328613 1.89573 0
M  V30 1290 O 123.576 -0.673813 1.79361 0
M  V30 1291 C 123.77 2.75152 2.28093 0
M  V30 1292 C 123.599 4.16075 1.7062 0
M  V30 1293 C 122.369 4.82408 1.50368 0
M  V30 1294 C 124.567 5.00145 1.1983 0
M  V30 1295 N 122.549 6.07532 0.881924 0
M  V30 1296 C 123.92 6.16035 0.700083 0
M  V30 1297 C 125.975 4.85882 1.08733 0
M  V30 1298 C 124.678 7.19228 0.101835 0
M  V30 1299 C 126.704 5.89257 0.503016 0
M  V30 1300 C 126.066 7.04398 0.0152005 0
M  V30 1301 H 122.165 0.650596 0.433877 0
M  V30 1302 H 124.749 1.8769 0.517746 0
M  V30 1303 H 122.92 2.52181 2.95397 0
M  V30 1304 H 124.652 2.76935 2.95109 0
M  V30 1305 H 121.407 4.39788 1.75737 0
M  V30 1306 H 121.831 6.7443 0.589312 0
M  V30 1307 H 126.473 3.97144 1.4504 0
M  V30 1308 H 124.191 8.07637 -0.273426 0
M  V30 1309 H 127.777 5.80286 0.419451 0
M  V30 1310 H 126.657 7.83021 -0.429856 0
M  V30 1311 N 124.16 -0.719506 1.40217 0
M  V30 1312 C 125.437 -1.47221 1.28784 0
M  V30 1313 C 125.817 -2.10883 -0.0956067 0
M  V30 1314 O 125.165 -1.99833 -1.10811 0
M  V30 1315 C 125.375 -2.5111 2.42373 0
M  V30 1316 C 126.723 -3.17053 2.82423 0
M  V30 1317 O 127.747 -2.61429 2.41937 0
M  V30 1318 O 126.606 -4.17742 3.52355 0
M  V30 1319 H 123.7 -0.654491 0.50554 0
M  V30 1320 H 126.246 -0.752014 1.52128 0
M  V30 1321 H 125.018 -2.02556 3.34793 0
M  V30 1322 H 124.641 -3.3067 2.20778 0
M  V30 1323 N 125.638 -1.25649 -0.95132 0
M  V30 1324 C 126.588 -1.03004 -2.03406 0
M  V30 1325 C 127.572 0.034187 -1.60864 0
M  V30 1326 O 128.764 -0.181549 -1.76066 0
M  V30 1327 C 125.893 -0.654255 -3.37008 0
M  V30 1328 C 124.979 -1.75542 -3.86065 0
M  V30 1329 N 125.37 -2.99113 -4.07879 0
M  V30 1330 C 123.668 -1.63669 -4.14884 0
M  V30 1331 C 124.369 -3.70611 -4.48356 0
M  V30 1332 N 123.345 -2.98247 -4.54477 0
M  V30 1333 H 127.147 -1.96813 -2.1827 0
M  V30 1334 H 124.661 -1.16017 -1.13639 0
M  V30 1335 H 126.658 -0.473206 -4.14206 0
M  V30 1336 H 125.318 0.276468 -3.23521 0
M  V30 1337 H 126.329 -3.35124 -3.94857 0
M  V30 1338 H 123.006 -0.775161 -4.10241 0
M  V30 1339 H 124.396 -4.76695 -4.73509 0
M  V30 1340 N 127.117 1.15442 -1.07289 0
M  V30 1341 C 128.357 1.8788 -0.805012 0
M  V30 1342 C 128.721 1.80413 0.656907 0
M  V30 1343 O 129.922 2.47874 1.0398 0
M  V30 1344 C 128.193 3.3298 -1.29843 0
M  V30 1345 S 129.752 4.23158 -1.16114 0
M  V30 1346 H 126.57 0.64839 -0.291739 0
M  V30 1347 H 129.172 1.39285 -1.37186 0
M  V30 1348 H 127.876 3.35958 -2.35712 0
M  V30 1349 H 127.407 3.86629 -0.726767 0
M  V30 1350 H 129.422 4.96103 -0.0982778 0
M  V30 1351 N 128.595 0.856903 1.32268 0
M  V30 1352 C 129.843 0.460474 1.96784 0
M  V30 1353 C 130.164 -0.987701 1.68135 0
M  V30 1354 O 129.434 -1.69058 0.989765 0
M  V30 1355 H 128.014 0.167289 0.728027 0
M  V30 1356 H 130.676 1.09383 1.61312 0
M  V30 1357 H 129.772 0.60739 3.06133 0
M  V30 1358 N 130.073 -1.45103 0.615059 0
M  V30 1359 C 131.02 -2.30586 -0.0993978 0
M  V30 1360 C 131.99 -1.42544 -0.852669 0
M  V30 1361 O 133.175 -1.71465 -0.836917 0
M  V30 1362 C 130.315 -3.27572 -1.08583 0
M  V30 1363 C 129.428 -4.30717 -0.332656 0
M  V30 1364 C 128.563 -5.14807 -1.30947 0
M  V30 1365 C 127.602 -6.09673 -0.544538 0
M  V30 1366 N 126.739 -6.86517 -1.47101 0
M  V30 1367 H 131.579 -2.91144 0.635542 0
M  V30 1368 H 129.116 -1.4346 0.325206 0
M  V30 1369 H 131.074 -3.82276 -1.67095 0
M  V30 1370 H 129.704 -2.68751 -1.78809 0
M  V30 1371 H 128.756 -3.78615 0.368107 0
M  V30 1372 H 130.068 -4.98102 0.263842 0
M  V30 1373 H 129.222 -5.73948 -1.96643 0
M  V30 1374 H 127.961 -4.47458 -1.9399 0
M  V30 1375 H 126.966 -5.49656 0.126003 0
M  V30 1376 H 128.191 -6.79052 0.080947 0
M  V30 1377 H 126.137 -6.21851 -2.08895 0
M  V30 1378 H 126.054 -7.50281 -0.928137 0
M  V30 1379 H 127.322 -7.50194 -2.11731 0
M  V30 1380 N 131.551 -0.354651 -1.53558 0
M  V30 1381 C 132.484 0.540273 -2.21712 0
M  V30 1382 C 133.462 1.09161 -1.2051 0
M  V30 1383 O 134.646 1.14979 -1.49372 0
M  V30 1384 C 131.773 1.74435 -2.90328 0
M  V30 1385 C 130.819 1.32146 -4.05512 0
M  V30 1386 S 131.652 0.331924 -5.3447 0
M  V30 1387 C 132.808 1.54258 -6.06593 0
M  V30 1388 H 133.041 -0.0385776 -2.97275 0
M  V30 1389 H 130.574 -0.138736 -1.53775 0
M  V30 1390 H 132.532 2.43507 -3.30476 0
M  V30 1391 H 131.193 2.29444 -2.1451 0
M  V30 1392 H 130.386 2.21952 -4.52497 0
M  V30 1393 H 129.988 0.710091 -3.67197 0
M  V30 1394 H 132.28 2.47534 -6.30661 0
M  V30 1395 H 133.223 1.11431 -6.99277 0
M  V30 1396 H 133.631 1.74367 -5.36895 0
M  V30 1397 N 133.029 1.57378 -0.0835403 0
M  V30 1398 C 133.939 2.16897 0.894021 0
M  V30 1399 C 134.955 1.13528 1.31861 0
M  V30 1400 O 136.131 1.45848 1.3889 0
M  V30 1401 C 133.196 2.72831 2.13925 0
M  V30 1402 C 132.257 3.91115 1.76997 0
M  V30 1403 C 131.49 4.44371 2.95584 0
M  V30 1404 O 131.713 3.96596 4.09961 0
M  V30 1405 O 130.647 5.35549 2.74719 0
M  V30 1406 H 134.473 3.00814 0.417679 0
M  V30 1407 H 132.058 1.48741 0.140181 0
M  V30 1408 H 133.94 3.0863 2.86924 0
M  V30 1409 H 132.615 1.91967 2.60635 0
M  V30 1410 H 131.522 3.60148 1.01214 0
M  V30 1411 H 132.855 4.73307 1.3506 0
M  V30 1412 N 134.507 -0.190092 1.56449 0
M  V30 1413 C 135.918 -0.754312 1.70784 0
M  V30 1414 C 136.269 -1.83631 0.690951 0
M  V30 1415 O 135.394 -2.15868 -0.151604 0
M  V30 1416 C 135.989 -1.37503 3.09642 0
M  V30 1417 C 134.548 -1.88628 3.25725 0
M  V30 1418 C 133.695 -0.758098 2.66736 0
M  V30 1419 H 136.646 0.0350524 1.58661 0
M  V30 1420 H 136.667 -2.2445 3.0725 0
M  V30 1421 H 136.179 -0.587302 3.83631 0
M  V30 1422 H 134.28 -2.70103 2.56661 0
M  V30 1423 H 134.393 -2.04462 4.3328 0
M  V30 1424 H 132.757 -1.17369 2.26046 0
M  V30 1425 H 133.54 0.0174705 3.43296 0
M  V30 1426 N 135.985 -1.50799 -0.457987 0
M  V30 1427 C 137.213 -1.66218 -1.23203 0
M  V30 1428 C 137.628 -0.350894 -1.85511 0
M  V30 1429 O 136.985 0.668546 -1.69814 0
M  V30 1430 C 137.036 -2.76291 -2.33121 0
M  V30 1431 O 136.757 -4.02338 -1.73366 0
M  V30 1432 C 138.258 -3.028 -3.2377 0
M  V30 1433 H 135.478 -0.558361 -0.372121 0
M  V30 1434 H 138.022 -1.97099 -0.545179 0
M  V30 1435 H 136.177 -2.48068 -2.97558 0
M  V30 1436 H 136.591 -4.63312 -2.4585 0
M  V30 1437 H 138.065 -3.8345 -3.97077 0
M  V30 1438 H 138.542 -2.14385 -3.83322 0
M  V30 1439 H 139.148 -3.32604 -2.65056 0
M  V30 1440 N 137.463 0.71206 -1.40597 0
M  V30 1441 C 138.703 1.48438 -1.40519 0
M  V30 1442 C 139.067 1.91998 -0.00767611 0
M  V30 1443 O 140.268 2.6854 0.118239 0
M  V30 1444 C 138.539 2.67514 -2.37004 0
M  V30 1445 S 140.098 3.56875 -2.55315 0
M  V30 1446 H 136.916 0.507457 -0.498005 0
M  V30 1447 H 139.518 0.832355 -1.76896 0
M  V30 1448 H 138.222 2.33689 -3.37368 0
M  V30 1449 H 137.753 3.37625 -2.01923 0
M  V30 1450 H 139.768 4.62081 -1.8082 0
M  V30 1451 N 138.941 1.26152 0.944643 0
M  V30 1452 C 139.888 1.07408 2.04285 0
M  V30 1453 C 140.858 -0.0198413 1.66088 0
M  V30 1454 O 142.043 0.139264 1.90291 0
M  V30 1455 C 139.183 0.70945 3.37729 0
M  V30 1456 C 138.296 1.87926 3.88983 0
M  V30 1457 C 137.431 1.45807 5.10797 0
M  V30 1458 C 136.47 2.5964 5.54305 0
M  V30 1459 N 135.607 2.18226 6.67324 0
M  V30 1460 H 140.447 2.01389 2.1965 0
M  V30 1461 H 137.984 1.00275 1.07626 0
M  V30 1462 H 139.942 0.478948 4.14442 0
M  V30 1463 H 138.572 -0.193389 3.2222 0
M  V30 1464 H 137.624 2.22279 3.08701 0
M  V30 1465 H 138.936 2.73377 4.17213 0
M  V30 1466 H 138.09 1.18781 5.94959 0
M  V30 1467 H 136.829 0.574414 4.84305 0
M  V30 1468 H 135.834 2.87399 4.68702 0
M  V30 1469 H 137.059 3.48599 5.828 0
M  V30 1470 H 135.005 1.3229 6.42523 0
M  V30 1471 H 134.922 2.97221 6.95123 0
M  V30 1472 H 136.19 1.94403 7.54869 0
M  V30 1473 N 140.419 -1.14872 1.07899 0
M  V30 1474 C 141.835 -1.37776 0.805606 0
M  V30 1475 C 142.035 -1.92743 -0.587555 0
M  V30 1476 O 141.091 -2.13678 -1.34528 0
M  V30 1477 C 142.404 -2.34361 1.88402 0
M  V30 1478 C 143.952 -2.48012 1.90942 0
M  V30 1479 C 144.427 -3.47893 2.97883 0
M  V30 1480 N 145.918 -3.55433 2.97021 0
M  V30 1481 C 146.653 -4.32553 3.76412 0
M  V30 1482 N 146.149 -5.12959 4.65666 0
M  V30 1483 N 147.942 -4.27697 3.64735 0
M  V30 1484 H 140.093 -0.775365 1.97742 0
M  V30 1485 H 142.356 -0.403521 0.857831 0
M  V30 1486 H 142.062 -2.01098 2.88535 0
M  V30 1487 H 141.936 -3.34206 1.74889 0
M  V30 1488 H 144.323 -2.8057 0.914579 0
M  V30 1489 H 144.404 -1.48147 2.08534 0
M  V30 1490 H 144.048 -3.16069 3.97571 0
M  V30 1491 H 143.978 -4.47527 2.77538 0
M  V30 1492 H 146.469 -2.98048 2.32326 0
M  V30 1493 H 146.782 -5.69065 5.22862 0
M  V30 1494 H 145.127 -5.12245 4.69712 0
M  V30 1495 H 148.318 -3.63949 2.94378 0
M  V30 1496 H 148.491 -4.8755 4.26848 0
M  V30 1497 N 141.898 -0.863906 -1.31812 0
M  V30 1498 C 142.848 -0.286898 -2.26188 0
M  V30 1499 C 143.832 0.572577 -1.50367 0
M  V30 1500 O 145.024 0.420447 -1.71934 0
M  V30 1501 C 142.153 0.515849 -3.39402 0
M  V30 1502 C 141.239 -0.356531 -4.22599 0
M  V30 1503 N 141.63 -1.44716 -4.84656 0
M  V30 1504 C 139.928 -0.147898 -4.45755 0
M  V30 1505 C 140.629 -1.98462 -5.46798 0
M  V30 1506 N 139.605 -1.28247 -5.28255 0
M  V30 1507 H 143.407 -1.12055 -2.717 0
M  V30 1508 H 140.921 -0.711012 -1.46008 0
M  V30 1509 H 142.918 0.945701 -4.06032 0
M  V30 1510 H 141.578 1.34718 -2.95434 0
M  V30 1511 H 142.589 -1.83008 -4.84488 0
M  V30 1512 H 139.266 0.647973 -4.12441 0
M  V30 1513 H 140.656 -2.89932 -6.06126 0
M  V30 1514 N 143.376 1.44774 -0.622745 0
M  V30 1515 C 144.623 2.02121 -0.1239 0
M  V30 1516 C 144.951 1.48915 1.25118 0
M  V30 1517 O 144.206 0.660045 1.84233 0
M  V30 1518 C 144.505 3.57364 -0.0508323 0
M  V30 1519 C 144.171 4.29787 -1.36358 0
M  V30 1520 C 142.833 4.4929 -1.72314 0
M  V30 1521 C 145.185 4.71062 -2.23048 0
M  V30 1522 C 142.513 5.07325 -2.94682 0
M  V30 1523 C 144.865 5.30452 -3.44679 0
M  V30 1524 C 143.529 5.48175 -3.80868 0
M  V30 1525 H 142.799 0.739612 -0.0453381 0
M  V30 1526 H 145.446 1.73648 -0.807389 0
M  V30 1527 H 143.751 3.85202 0.715991 0
M  V30 1528 H 145.448 3.99456 0.351533 0
M  V30 1529 H 142.038 4.14932 -1.07375 0
M  V30 1530 H 146.222 4.55715 -1.96565 0
M  V30 1531 H 141.478 5.19235 -3.22809 0
M  V30 1532 H 145.652 5.61385 -4.12092 0
M  V30 1533 H 143.279 5.92912 -4.75773 0
M  V30 1534 N 144.854 0.36279 1.53368 0
M  V30 1535 C 146.103 -0.22888 2.00397 0
M  V30 1536 C 146.416 -1.50096 1.25421 0
M  V30 1537 O 147.622 -2.17106 1.63025 0
M  V30 1538 C 146.078 -0.458417 3.56969 0
M  V30 1539 C 145.686 0.798877 4.4082 0
M  V30 1540 C 147.43 -1.00789 4.12361 0
M  V30 1541 C 145.337 0.539078 5.88938 0
M  V30 1542 H 144.267 -0.089305 0.748693 0
M  V30 1543 H 146.918 0.481099 1.77081 0
M  V30 1544 H 145.3 -1.22959 3.76427 0
M  V30 1545 H 146.474 1.57262 4.33134 0
M  V30 1546 H 144.789 1.27137 3.96516 0
M  V30 1547 H 147.386 -1.21754 5.20653 0
M  V30 1548 H 147.729 -1.9692 3.66781 0
M  V30 1549 H 148.262 -0.296961 3.9669 0
M  V30 1550 H 145.001 1.47064 6.3879 0
M  V30 1551 H 144.521 -0.196222 5.99479 0
M  V30 1552 H 146.2 0.163542 6.46793 0
M  V30 1553 N 146.332 -1.57332 0.0918853 0
M  V30 1554 C 147.264 -2.10869 -0.898168 0
M  V30 1555 C 148.277 -1.04521 -1.24817 0
M  V30 1556 O 149.466 -1.31977 -1.20184 0
M  V30 1557 C 146.566 -2.57083 -2.2082 0
M  V30 1558 C 145.739 -3.87229 -2.03402 0
M  V30 1559 C 144.798 -4.19324 -3.17889 0
M  V30 1560 O 143.824 -4.88598 -2.91994 0
M  V30 1561 N 145.026 -3.74471 -4.43567 0
M  V30 1562 H 147.791 -2.96439 -0.440943 0
M  V30 1563 H 145.352 -1.61631 -0.0933064 0
M  V30 1564 H 147.344 -2.75602 -2.96354 0
M  V30 1565 H 145.914 -1.76541 -2.57977 0
M  V30 1566 H 145.134 -3.7789 -1.12218 0
M  V30 1567 H 146.422 -4.72379 -1.89038 0
M  V30 1568 H 145.82 -3.18546 -4.67488 0
M  V30 1569 H 144.377 -3.98151 -5.16061 0
M  V30 1570 N 147.81 0.181792 -1.56548 0
M  V30 1571 C 149.087 0.926765 -1.72251 0
M  V30 1572 C 149.467 2.00831 -0.650386 0
M  V30 1573 O 148.815 2.26008 0.336521 0
M  V30 1574 C 149.025 1.50106 -3.1507 0
M  V30 1575 C 150.373 1.97805 -3.75711 0
M  V30 1576 O 151.397 1.59922 -3.18282 0
M  V30 1577 O 150.256 2.67555 -4.76525 0
M  V30 1578 H 147.35 0.435506 -0.703039 0
M  V30 1579 H 149.896 0.170443 -1.68842 0
M  V30 1580 H 148.668 0.72212 -3.84579 0
M  V30 1581 H 148.291 2.32186 -3.22763 0
M  V30 1582 N 149.288 1.51039 0.449983 0
M  V30 1583 C 150.513 1.6715 1.22783 0
M  V30 1584 C 150.938 0.363081 1.84563 0
M  V30 1585 O 150.296 -0.675433 1.68249 0
M  V30 1586 C 150.344 2.77985 2.29689 0
M  V30 1587 O 149.448 2.40707 3.34864 0
M  V30 1588 H 148.789 0.557746 0.360299 0
M  V30 1589 H 151.319 1.97535 0.533005 0
M  V30 1590 H 151.329 3.01693 2.74673 0
M  V30 1591 H 150.004 3.72935 1.84098 0
M  V30 1592 H 148.581 2.27523 2.95445 0
M  V30 1593 N 150.766 -0.704594 1.40972 0
M  V30 1594 C 152.006 -1.47691 1.41304 0
M  V30 1595 C 152.37 -1.91992 0.0178582 0
M  V30 1596 O 153.571 -2.68599 -0.103996 0
M  V30 1597 C 151.842 -2.66254 2.38419 0
M  V30 1598 S 153.401 -3.55516 2.57204 0
M  V30 1599 H 150.219 -0.504808 0.500689 0
M  V30 1600 H 152.821 -0.822962 1.77335 0
M  V30 1601 H 151.525 -2.31897 3.38603 0
M  V30 1602 H 151.056 -3.3655 2.03711 0
M  V30 1603 H 153.071 -4.61115 1.83268 0
M  V30 1604 N 152.244 -1.26651 -0.937939 0
M  V30 1605 C 153.174 -1.10993 -2.05433 0
M  V30 1606 C 154.155 -0.0142161 -1.70094 0
M  V30 1607 O 155.34 -0.186837 -1.93299 0
M  V30 1608 C 152.47 -0.745561 -3.39203 0
M  V30 1609 C 151.424 -1.79337 -3.88616 0
M  V30 1610 C 150.75 -1.28324 -5.19073 0
M  V30 1611 C 152.05 -3.19553 -4.13138 0
M  V30 1612 H 153.744 -2.0438 -2.1879 0
M  V30 1613 H 151.29 -0.984041 -1.05131 0
M  V30 1614 H 153.243 -0.622888 -4.16771 0
M  V30 1615 H 151.967 0.22401 -3.25831 0
M  V30 1616 H 150.626 -1.90477 -3.13231 0
M  V30 1617 H 150.274 -0.303414 -5.02084 0
M  V30 1618 H 149.974 -1.98369 -5.53103 0
M  V30 1619 H 151.498 -1.1733 -5.99221 0
M  V30 1620 H 152.912 -3.11471 -4.81309 0
M  V30 1621 H 151.309 -3.87218 -4.58457 0
M  V30 1622 H 152.379 -3.65368 -3.18801 0
M  V30 1623 N 153.722 1.14298 -1.08507 0
M  V30 1624 C 154.952 1.88945 -0.835663 0
M  V30 1625 C 155.36 1.78894 0.615928 0
M  V30 1626 O 154.703 1.1468 1.43506 0
M  V30 1627 C 154.765 3.39585 -1.17994 0
M  V30 1628 C 154.429 3.7342 -2.63451 0
M  V30 1629 C 155.426 3.73454 -3.61702 0
M  V30 1630 C 153.111 4.03368 -2.99332 0
M  V30 1631 C 155.105 4.02961 -4.93864 0
M  V30 1632 C 152.792 4.32538 -4.31687 0
M  V30 1633 C 153.79 4.32318 -5.28763 0
M  V30 1634 O 153.478 4.6078 -6.58739 0
M  V30 1635 H 153.21 0.605307 -0.300965 0
M  V30 1636 H 155.764 1.45673 -1.44806 0
M  V30 1637 H 153.994 3.83315 -0.51055 0
M  V30 1638 H 155.683 3.9554 -0.911182 0
M  V30 1639 H 156.449 3.50403 -3.35325 0
M  V30 1640 H 152.328 4.02692 -2.24411 0
M  V30 1641 H 155.872 4.02704 -5.69627 0
M  V30 1642 H 151.769 4.55059 -4.57812 0
M  V30 1643 H 152.537 4.78492 -6.64069 0
M  V30 1644 N 155.201 0.870884 1.31352 0
M  V30 1645 C 156.111 0.330783 2.32256 0
M  V30 1646 C 157.127 -0.559767 1.6475 0
M  V30 1647 O 158.303 -0.456263 1.96164 0
M  V30 1648 C 155.368 -0.458137 3.4366 0
M  V30 1649 C 154.429 0.460482 4.26823 0
M  V30 1650 C 153.662 -0.290881 5.32907 0
M  V30 1651 O 153.885 -1.51885 5.49806 0
M  V30 1652 O 152.819 0.351732 6.00871 0
M  V30 1653 H 156.645 1.16718 2.80376 0
M  V30 1654 H 154.23 0.634285 1.35267 0
M  V30 1655 H 156.112 -0.905343 4.1156 0
M  V30 1656 H 154.787 -1.27106 2.97701 0
M  V30 1657 H 153.694 0.956207 3.61673 0
M  V30 1658 H 155.027 1.23903 4.7635 0
M  V30 1659 N 156.679 -1.44442 0.630414 0
M  V30 1660 C 157.919 -2.03934 0.137919 0
M  V30 1661 C 158.283 -1.48509 -1.21692 0
M  V30 1662 O 159.484 -1.99499 -1.80149 0
M  V30 1663 C 157.755 -3.57187 0.123373 0
M  V30 1664 S 159.314 -4.37741 -0.304604 0
M  V30 1665 H 156.132 -0.708401 0.0607353 0
M  V30 1666 H 158.734 -1.76835 0.833643 0
M  V30 1667 H 157.438 -3.95032 1.11256 0
M  V30 1668 H 156.969 -3.88895 -0.59362 0
M  V30 1669 H 158.984 -4.71403 -1.54897 0
M  V30 1670 N 158.157 -0.370918 -1.53173 0
M  V30 1671 C 159.382 0.220293 -2.06227 0
M  V30 1672 C 159.807 1.41243 -1.24225 0
M  V30 1673 O 159.165 1.79387 -0.262645 0
M  V30 1674 C 159.213 0.586663 -3.55796 0
M  V30 1675 O 158.317 1.68317 -3.76488 0
M  V30 1676 H 157.658 0.0308099 -0.663285 0
M  V30 1677 H 160.188 -0.533068 -1.97534 0
M  V30 1678 H 160.198 0.85617 -3.98916 0
M  V30 1679 H 158.873 -0.285013 -4.14922 0
M  V30 1680 H 157.45 1.40881 -3.45264 0
M  V30 1681 N 159.635 1.57281 -0.100228 0
M  V30 1682 C 161.046 1.81725 0.428107 0
M  V30 1683 C 161.397 1.01619 1.67833 0
M  V30 1684 O 160.522 0.247098 2.14985 0
M  V30 1685 C 161.117 3.29617 0.78347 0
M  V30 1686 C 159.676 3.54808 1.25653 0
M  V30 1687 C 158.823 2.76118 0.255752 0
M  V30 1688 H 161.774 1.55324 -0.325608 0
M  V30 1689 H 161.795 3.4322 1.64256 0
M  V30 1690 H 161.307 3.87893 -0.12665 0
M  V30 1691 H 159.408 3.01868 2.18418 0
M  V30 1692 H 159.521 4.63443 1.21482 0
M  V30 1693 H 157.885 2.43745 0.738956 0
M  V30 1694 H 158.668 3.37145 -0.647136 0
M  V30 1695 N 161.113 -0.173488 1.56642 0
M  V30 1696 C 162.061 -1.23417 1.97157 0
M  V30 1697 C 163.055 -1.45946 0.860013 0
M  V30 1698 O 164.261 -1.46551 1.04512 0
M  V30 1699 H 160.636 -0.414818 0.62724 0
M  V30 1700 H 162.607 -0.865582 2.8557 0
M  V30 1701 C 161.356 -2.5665 2.34576 0
M  V30 1702 H 160.679 -2.40137 3.19647 0
M  V30 1703 H 162.119 -3.2956 2.6677 0
M  V30 1704 C 160.578 -3.15245 1.18836 0
M  V30 1705 O 161.108 -3.98883 0.474869 0
M  V30 1706 N 159.314 -2.74303 0.959497 0
M  V30 1707 H 158.861 -2.0639 1.54146 0
M  V30 1708 H 158.819 -3.13844 0.186932 0
M  V30 1709 N 162.591 -1.51276 -0.441967 0
M  V30 1710 C 163.521 -1.752 -1.54361 0
M  V30 1711 C 164.502 -0.601682 -1.59103 0
M  V30 1712 O 165.687 -0.843913 -1.74905 0
M  V30 1713 C 162.817 -1.87282 -2.92477 0
M  V30 1714 C 161.771 -3.02687 -3.02596 0
M  V30 1715 C 161.097 -2.99947 -4.42647 0
M  V30 1716 C 162.397 -4.4273 -2.77106 0
M  V30 1717 H 164.091 -2.67442 -1.34592 0
M  V30 1718 H 161.637 -1.28694 -0.646048 0
M  V30 1719 H 163.59 -2.02602 -3.695 0
M  V30 1720 H 162.314 -0.916844 -3.13467 0
M  V30 1721 H 160.973 -2.87065 -2.28012 0
M  V30 1722 H 160.621 -2.02136 -4.60597 0
M  V30 1723 H 160.321 -3.77439 -4.50348 0
M  V30 1724 H 161.845 -3.17354 -5.2165 0
M  V30 1725 H 163.259 -4.58727 -3.43864 0
M  V30 1726 H 161.656 -5.21893 -2.96222 0
M  V30 1727 H 162.726 -4.53087 -1.72744 0
M  V30 1728 N 164.069 0.697108 -1.41344 0
M  V30 1729 C 165.317 1.45426 -1.40341 0
M  V30 1730 C 165.638 1.94996 -0.0128787 0
M  V30 1731 O 164.908 1.71599 0.945027 0
M  V30 1732 H 163.488 0.539594 -0.516573 0
M  V30 1733 H 166.15 0.825201 -1.76569 0
M  V30 1734 H 165.246 2.31817 -2.08967 0
M  V30 1735 N 165.547 1.27147 0.931209 0
M  V30 1736 C 166.958 1.12044 1.49342 0
M  V30 1737 C 167.309 -0.295795 1.93957 0
M  V30 1738 O 166.434 -1.18835 1.80852 0
M  V30 1739 C 167.029 2.02781 2.71414 0
M  V30 1740 C 165.588 1.91794 3.2387 0
M  V30 1741 C 164.735 1.95543 1.96617 0
M  V30 1742 H 167.686 1.40091 0.745672 0
M  V30 1743 H 167.707 1.58156 3.46074 0
M  V30 1744 H 167.219 3.05848 2.38911 0
M  V30 1745 H 165.32 0.916992 3.6114 0
M  V30 1746 H 165.433 2.77852 3.90302 0
M  V30 1747 H 163.797 1.39722 2.12955 0
M  V30 1748 H 164.58 3.00259 1.66432 0
M  V30 1749 N 167.025 -1.13721 1.09112 0
M  V30 1750 C 168.271 -1.85413 0.836283 0
M  V30 1751 C 168.626 -1.8175 -0.631249 0
M  V30 1752 O 167.919 -1.24238 -1.45861 0
M  V30 1753 C 168.113 -3.32861 1.30146 0
M  V30 1754 C 167.942 -3.50882 2.81268 0
M  V30 1755 C 166.712 -3.65312 3.49106 0
M  V30 1756 C 168.91 -3.47196 3.7942 0
M  V30 1757 N 166.892 -3.71563 4.88686 0
M  V30 1758 C 168.263 -3.59777 5.04936 0
M  V30 1759 C 170.318 -3.30577 3.72321 0
M  V30 1760 C 169.021 -3.57455 6.24194 0
M  V30 1761 C 171.047 -3.29562 4.91063 0
M  V30 1762 C 170.409 -3.42691 6.15421 0
M  V30 1763 H 166.508 -0.694812 0.358832 0
M  V30 1764 H 169.092 -1.36246 1.39087 0
M  V30 1765 H 167.263 -3.80602 0.774361 0
M  V30 1766 H 168.995 -3.92346 0.99229 0
M  V30 1767 H 165.75 -3.6685 2.9953 0
M  V30 1768 H 166.174 -3.78387 5.61384 0
M  V30 1769 H 170.816 -3.19332 2.77105 0
M  V30 1770 H 168.534 -3.67475 7.19714 0
M  V30 1771 H 172.12 -3.17905 4.87266 0
M  V30 1772 H 171 -3.41862 7.05762 0
M  V30 1773 N 168.503 -0.877838 -1.30888 0
M  V30 1774 C 169.752 -0.488793 -1.95688 0
M  V30 1775 C 170.065 0.965485 -1.70111 0
M  V30 1776 O 171.271 1.46104 -2.28836 0
M  V30 1777 C 169.727 -0.823201 -3.50359 0
M  V30 1778 C 169.335 -2.29477 -3.84765 0
M  V30 1779 C 171.079 -0.503009 -4.21509 0
M  V30 1780 C 168.986 -2.57118 -5.32583 0
M  V30 1781 H 167.916 -0.179062 -0.732429 0
M  V30 1782 H 170.567 -1.07183 -1.48943 0
M  V30 1783 H 168.949 -0.169331 -3.95638 0
M  V30 1784 H 170.123 -2.99236 -3.5042 0
M  V30 1785 H 168.438 -2.58178 -3.267 0
M  V30 1786 H 171.035 -0.68665 -5.30273 0
M  V30 1787 H 171.378 0.557109 -4.12555 0
M  V30 1788 H 171.911 -1.11376 -3.8189 0
M  V30 1789 H 168.65 -3.61843 -5.4658 0
M  V30 1790 H 168.17 -1.91961 -5.68253 0
M  V30 1791 H 169.849 -2.42251 -5.99936 0
M  V30 1792 N 169.982 1.44106 -0.638065 0
M  V30 1793 C 171.398 1.56672 -0.304286 0
M  V30 1794 C 171.598 1.6244 1.19228 0
M  V30 1795 O 170.654 1.57121 1.9766 0
M  V30 1796 C 171.967 2.83503 -1.00231 0
M  V30 1797 C 173.515 2.97226 -0.981116 0
M  V30 1798 C 173.99 4.26868 -1.65974 0
M  V30 1799 N 175.481 4.33698 -1.62666 0
M  V30 1800 C 176.216 5.32745 -2.12063 0
M  V30 1801 N 175.712 6.38157 -2.6968 0
M  V30 1802 N 177.505 5.24299 -2.02651 0
M  V30 1803 H 169.656 1.38605 -1.60942 0
M  V30 1804 H 171.919 0.664661 -0.675965 0
M  V30 1805 H 171.625 2.85251 -2.0573 0
M  V30 1806 H 171.499 3.73251 -0.54439 0
M  V30 1807 H 173.886 2.95027 0.0654188 0
M  V30 1808 H 173.967 2.08808 -1.47759 0
M  V30 1809 H 173.611 4.29826 -2.70576 0
M  V30 1810 H 173.541 5.14156 -1.13804 0
M  V30 1811 H 176.032 3.58138 -1.20606 0
M  V30 1812 H 176.345 7.10029 -3.05087 0
M  V30 1813 H 174.69 6.38823 -2.73734 0
M  V30 1814 H 177.881 4.4086 -1.57353 0
M  V30 1815 H 178.054 6.01334 -2.41457 0
M  V30 1816 N 171.46 0.379036 1.52974 0
M  V30 1817 C 172.392 -0.495963 2.2377 0
M  V30 1818 C 173.405 -1.03517 1.25651 0
M  V30 1819 O 174.594 -0.939249 1.51791 0
M  V30 1820 C 171.694 -1.69894 2.93239 0
M  V30 1821 C 170.867 -1.2889 4.17979 0
M  V30 1822 C 169.926 -2.35543 4.70538 0
M  V30 1823 O 168.952 -1.97375 5.33883 0
M  V30 1824 N 170.154 -3.67318 4.49508 0
M  V30 1825 H 172.919 0.110523 2.99496 0
M  V30 1826 H 170.48 0.204878 1.60598 0
M  V30 1827 H 172.472 -2.40747 3.25304 0
M  V30 1828 H 171.042 -2.212 2.20883 0
M  V30 1829 H 170.262 -0.409676 3.92065 0
M  V30 1830 H 171.55 -0.991443 4.99047 0
M  V30 1831 H 170.948 -4.01095 3.98923 0
M  V30 1832 H 169.505 -4.34235 4.8609 0
M  V30 1833 N 172.938 -1.57226 0.108567 0
M  V30 1834 C 174.184 -1.95121 -0.552761 0
M  V30 1835 C 174.517 -0.991345 -1.66991 0
M  V30 1836 O 173.792 -0.0267211 -1.94482 0
M  V30 1837 C 174.075 -3.43039 -1.09528 0
M  V30 1838 C 173.928 -4.49797 0.0177332 0
M  V30 1839 C 175.247 -3.92567 -1.98945 0
M  V30 1840 H 172.366 -0.709496 -0.199461 0
M  V30 1841 H 175.008 -1.89126 0.182011 0
M  V30 1842 H 173.158 -3.48279 -1.72146 0
M  V30 1843 H 174.83 -4.56661 0.652584 0
M  V30 1844 H 173.073 -4.284 0.682309 0
M  V30 1845 H 173.744 -5.50528 -0.402919 0
M  V30 1846 H 176.22 -3.89565 -1.46214 0
M  V30 1847 H 175.096 -4.96605 -2.33827 0
M  V30 1848 H 175.357 -3.32648 -2.91201 0
M  V30 1849 N 174.416 0.165178 -1.56732 0
M  V30 1850 C 175.364 1.22369 -1.97809 0
M  V30 1851 C 176.358 1.45488 -0.867741 0
M  V30 1852 O 177.564 1.45995 -1.05288 0
M  V30 1853 H 173.939 0.411486 -0.629431 0
M  V30 1854 H 175.91 0.850425 -2.86025 0
M  V30 1855 C 174.659 2.55403 -2.35934 0
M  V30 1856 H 173.982 2.38438 -3.20916 0
M  V30 1857 H 175.422 3.2814 -2.68514 0
M  V30 1858 C 173.881 3.14611 -1.20506 0
M  V30 1859 O 174.411 3.98626 -0.496016 0
M  V30 1860 N 172.617 2.7379 -0.97403 0
M  V30 1861 H 172.164 2.0557 -1.55238 0
M  V30 1862 H 172.122 3.1374 -0.203573 0
M  V30 1863 N 175.894 1.51508 0.433938 0
M  V30 1864 C 176.826 1.69266 1.54537 0
M  V30 1865 C 177.839 0.573276 1.52373 0
M  V30 1866 O 179.028 0.847698 1.57087 0
M  V30 1867 C 176.128 1.69524 2.93453 0
M  V30 1868 C 175.301 2.98101 3.20085 0
M  V30 1869 C 174.36 2.90502 4.38742 0
M  V30 1870 O 173.386 3.64442 4.3723 0
M  V30 1871 N 174.588 2.06586 5.42496 0
M  V30 1872 H 177.353 2.65145 1.39708 0
M  V30 1873 H 174.914 1.49437 0.622922 0
M  V30 1874 H 176.906 1.62004 3.70859 0
M  V30 1875 H 175.476 0.812245 3.01863 0
M  V30 1876 H 174.696 3.19464 2.30947 0
M  V30 1877 H 175.984 3.83207 3.34708 0
M  V30 1878 H 175.382 1.45896 5.46563 0
M  V30 1879 H 173.939 2.04943 6.18742 0
M  V30 1880 N 177.372 -0.689602 1.41712 0
M  V30 1881 C 178.597 -1.48329 1.44959 0
M  V30 1882 C 179.022 -1.8801 0.0581283 0
M  V30 1883 O 178.38 -1.55026 -0.940035 0
M  V30 1884 C 178.428 -2.71835 2.36935 0
M  V30 1885 O 177.532 -3.69549 1.8305 0
M  V30 1886 H 176.873 -0.446199 0.491734 0
M  V30 1887 H 179.403 -0.847127 1.86239 0
M  V30 1888 H 179.413 -3.20076 2.53013 0
M  V30 1889 H 178.088 -2.42291 3.38035 0
M  V30 1890 H 176.665 -3.2851 1.76452 0
M  V30 1891 N 178.85 -1.27639 -0.924453 0
M  V30 1892 C 180.096 -1.15345 -1.67532 0
M  V30 1893 C 180.451 0.297096 -1.90092 0
M  V30 1894 O 179.744 1.21374 -1.48253 0
M  V30 1895 C 179.938 -1.87407 -3.04325 0
M  V30 1896 C 179.767 -3.3932 -2.95114 0
M  V30 1897 C 178.537 -4.08644 -2.97218 0
M  V30 1898 C 180.735 -4.35242 -2.73987 0
M  V30 1899 N 178.717 -5.47102 -2.78482 0
M  V30 1900 C 180.088 -5.6099 -2.63988 0
M  V30 1901 C 182.143 -4.25294 -2.589 0
M  V30 1902 C 180.846 -6.77924 -2.40442 0
M  V30 1903 C 182.872 -5.41952 -2.36731 0
M  V30 1904 C 182.234 -6.66658 -2.27478 0
M  V30 1905 H 178.333 -0.47696 -0.619704 0
M  V30 1906 H 180.917 -1.6115 -1.09265 0
M  V30 1907 H 179.088 -1.44053 -3.60699 0
M  V30 1908 H 180.82 -1.6759 -3.68369 0
M  V30 1909 H 177.575 -3.60136 -3.07569 0
M  V30 1910 H 177.999 -6.19852 -2.72236 0
M  V30 1911 H 182.641 -3.29598 -2.64811 0
M  V30 1912 H 180.359 -7.73699 -2.3327 0
M  V30 1913 H 183.945 -5.36137 -2.25938 0
M  V30 1914 H 182.825 -7.55405 -2.10555 0
M  V30 1915 N 180.328 1.1314 -1.09713 0
M  V30 1916 C 181.744 1.36477 -0.827423 0
M  V30 1917 C 181.944 1.93654 0.556817 0
M  V30 1918 O 181 2.15791 1.31112 0
M  V30 1919 C 182.313 2.31334 -1.92106 0
M  V30 1920 C 183.861 2.44943 -1.94864 0
M  V30 1921 C 184.336 3.4311 -3.0338 0
M  V30 1922 N 185.827 3.50662 -3.02639 0
M  V30 1923 C 186.562 4.2651 -3.83246 0
M  V30 1924 N 186.058 5.05485 -4.73768 0
M  V30 1925 N 187.851 4.2184 -3.71493 0
M  V30 1926 H 180.002 0.743807 -1.9895 0
M  V30 1927 H 182.265 0.389823 -0.864143 0
M  V30 1928 H 181.971 1.96483 -2.91698 0
M  V30 1929 H 181.845 3.31381 -1.80184 0
M  V30 1930 H 184.232 2.79079 -0.959099 0
M  V30 1931 H 184.313 1.4481 -2.10864 0
M  V30 1932 H 183.957 3.09704 -4.02549 0
M  V30 1933 H 183.887 4.43055 -2.84622 0
M  V30 1934 H 186.378 2.94315 -2.37039 0
M  V30 1935 H 186.691 5.60675 -5.3185 0
M  V30 1936 H 185.036 5.04708 -4.77802 0
M  V30 1937 H 188.227 3.5922 -3.00131 0
M  V30 1938 H 188.4 4.80697 -4.3455 0
M  V30 1939 N 181.806 0.884767 1.30421 0
M  V30 1940 C 182.753 0.349642 2.28136 0
M  V30 1941 C 183.723 -0.560061 1.56373 0
M  V30 1942 O 184.908 -0.488524 1.8444 0
M  V30 1943 C 182.048 -0.42999 3.42411 0
M  V30 1944 C 181.161 0.508907 4.28992 0
M  V30 1945 C 180.296 -0.286301 5.30428 0
M  V30 1946 C 179.335 0.648079 6.08659 0
M  V30 1947 N 178.472 -0.111792 7.02011 0
M  V30 1948 H 183.312 1.18807 2.73293 0
M  V30 1949 H 180.849 0.597231 1.3443 0
M  V30 1950 H 182.807 -0.897923 4.07423 0
M  V30 1951 H 181.437 -1.23299 2.98324 0
M  V30 1952 H 180.489 1.09533 3.64289 0
M  V30 1953 H 181.801 1.22475 4.8353 0
M  V30 1954 H 180.955 -0.816098 6.01186 0
M  V30 1955 H 179.694 -1.03536 4.76583 0
M  V30 1956 H 178.699 1.18951 5.36778 0
M  V30 1957 H 179.924 1.39623 6.64592 0
M  V30 1958 H 177.87 -0.843395 6.50556 0
M  V30 1959 H 177.787 0.544429 7.54037 0
M  V30 1960 H 179.055 -0.622339 7.77012 0
M  V30 1961 N 183.284 -1.43765 0.645699 0
M  V30 1962 C 184.194 -2.34544 -0.0512957 0
M  V30 1963 C 185.21 -1.53455 -0.82022 0
M  V30 1964 O 186.386 -1.86133 -0.769176 0
M  V30 1965 C 183.451 -3.31636 -1.01087 0
M  V30 1966 C 182.512 -4.2863 -0.239712 0
M  V30 1967 C 181.745 -5.21084 -1.15358 0
M  V30 1968 O 181.968 -5.1779 -2.39269 0
M  V30 1969 O 180.902 -5.98593 -0.630038 0
M  V30 1970 H 184.728 -2.95624 0.695718 0
M  V30 1971 H 182.313 -1.43781 0.405882 0
M  V30 1972 H 184.195 -3.9136 -1.56254 0
M  V30 1973 H 182.87 -2.73069 -1.73824 0
M  V30 1974 H 181.777 -3.72408 0.355356 0
M  V30 1975 H 183.11 -4.90157 0.447936 0
M  V30 1976 N 184.763 -0.387143 -1.52771 0
M  V30 1977 C 186.179 -0.037007 -1.59557 0
M  V30 1978 C 186.379 1.44801 -1.40124 0
M  V30 1979 O 185.435 2.21227 -1.21716 0
M  V30 1980 C 186.748 -0.512256 -2.96305 0
M  V30 1981 C 188.296 -0.468328 -3.09476 0
M  V30 1982 C 188.771 -0.919731 -4.4867 0
M  V30 1983 N 190.262 -0.875656 -4.54848 0
M  V30 1984 C 190.997 -1.19637 -5.6078 0
M  V30 1985 N 190.493 -1.58745 -6.74368 0
M  V30 1986 N 192.286 -1.11776 -5.50874 0
M  V30 1987 H 184.437 -1.35395 -1.63652 0
M  V30 1988 H 186.7 -0.554818 -0.768688 0
M  V30 1989 H 186.406 -1.54935 -3.15734 0
M  V30 1990 H 186.28 0.089805 -3.77093 0
M  V30 1991 H 188.667 0.559671 -2.89744 0
M  V30 1992 H 188.748 -1.10616 -2.30646 0
M  V30 1993 H 188.392 -1.94595 -4.69143 0
M  V30 1994 H 188.322 -0.258927 -5.25963 0
M  V30 1995 H 190.813 -0.587843 -3.733 0
M  V30 1996 H 191.126 -1.81586 -7.51163 0
M  V30 1997 H 189.471 -1.6263 -6.75705 0
M  V30 1998 H 192.662 -0.811264 -4.61016 0
M  V30 1999 H 192.835 -1.37103 -6.3333 0
M  V30 2000 N 186.241 1.57166 -0.116904 0
M  V30 2001 C 187.49 1.94298 0.541407 0
M  V30 2002 C 187.803 1.00236 1.67964 0
M  V30 2003 O 189.009 1.26826 2.40057 0
M  V30 2004 C 187.465 3.45306 1.01449 0
M  V30 2005 C 187.073 4.47899 -0.0951738 0
M  V30 2006 C 188.817 3.91361 1.6443 0
M  V30 2007 C 186.724 5.90083 0.394491 0
M  V30 2008 H 185.654 0.725308 0.206019 0
M  V30 2009 H 188.305 1.82446 -0.196419 0
M  V30 2010 H 186.687 3.52385 1.80667 0
M  V30 2011 H 187.861 4.52486 -0.871374 0
M  V30 2012 H 186.176 4.11583 -0.631505 0
M  V30 2013 H 188.773 4.95004 2.02176 0
M  V30 2014 H 189.116 3.3122 2.52189 0
M  V30 2015 H 189.649 3.87073 0.917559 0
M  V30 2016 H 186.388 6.53974 -0.447004 0
M  V30 2017 H 185.908 5.88921 1.13722 0
M  V30 2018 H 187.587 6.41307 0.856399 0
M  V30 2019 N 187.719 -0.156864 1.56817 0
M  V30 2020 C 188.649 -1.19589 2.00551 0
M  V30 2021 C 189.63 -1.4536 0.883426 0
M  V30 2022 O 190.815 -1.56449 1.15054 0
M  V30 2023 C 187.945 -2.53143 2.37773 0
M  V30 2024 C 186.899 -2.41913 3.53075 0
M  V30 2025 C 186.225 -3.80088 3.76081 0
M  V30 2026 C 187.525 -1.91157 4.86062 0
M  V30 2027 H 189.219 -0.832293 2.87599 0
M  V30 2028 H 186.765 -0.398918 1.38364 0
M  V30 2029 H 188.718 -3.26047 2.66967 0
M  V30 2030 H 187.442 -2.91319 1.4765 0
M  V30 2031 H 186.101 -1.71462 3.24031 0
M  V30 2032 H 185.749 -4.15683 2.83225 0
M  V30 2033 H 185.449 -3.73439 4.53671 0
M  V30 2034 H 186.973 -4.54556 4.0769 0
M  V30 2035 H 188.387 -2.53846 5.14038 0
M  V30 2036 H 186.784 -1.95422 5.67389 0
M  V30 2037 H 187.854 -0.866673 4.77092 0
M  V30 2038 N 189.197 -1.51736 -0.425897 0
M  V30 2039 C 190.145 -1.74464 -1.53834 0
M  V30 2040 C 191.139 -0.611241 -1.57988 0
M  V30 2041 O 192.345 -0.792899 -1.61596 0
M  V30 2042 H 188.72 -0.551437 -0.511293 0
M  V30 2043 H 190.691 -2.67694 -1.31843 0
M  V30 2044 C 189.44 -1.8972 -2.91379 0
M  V30 2045 H 188.763 -2.76344 -2.88919 0
M  V30 2046 H 190.203 -2.09629 -3.68553 0
M  V30 2047 C 188.662 -0.65992 -3.30374 0
M  V30 2048 O 189.192 0.180083 -4.01296 0
M  V30 2049 N 187.398 -0.500677 -2.86254 0
M  V30 2050 H 186.945 -1.18532 -2.28709 0
M  V30 2051 H 186.903 0.325903 -3.12706 0
M  V30 2052 N 190.675 0.682077 -1.42076 0
M  V30 2053 C 191.921 1.44428 -1.42367 0
M  V30 2054 C 192.254 1.94164 -0.0373056 0
M  V30 2055 O 191.529 1.70429 0.937239 0
M  V30 2056 C 191.812 2.64654 -2.44194 0
M  V30 2057 C 191.665 2.20596 -3.91991 0
M  V30 2058 C 192.984 3.66865 -2.431 0
M  V30 2059 H 190.103 0.523834 -0.518428 0
M  V30 2060 H 192.745 0.77576 -1.73442 0
M  V30 2061 H 190.895 3.2169 -2.17826 0
M  V30 2062 H 192.567 1.68783 -4.29313 0
M  V30 2063 H 190.81 1.52242 -4.06208 0
M  V30 2064 H 191.481 3.06921 -4.58807 0
M  V30 2065 H 193.957 3.19531 -2.66532 0
M  V30 2066 H 192.833 4.48577 -3.16339 0
M  V30 2067 H 193.094 4.17493 -1.45437 0
M  V30 2068 N 192.153 1.28127 0.917671 0
M  V30 2069 C 193.564 1.13622 1.48145 0
M  V30 2070 C 193.915 -0.275207 1.9426 0
M  V30 2071 O 193.04 -1.1691 1.82102 0
M  V30 2072 C 193.635 2.05648 2.69248 0
M  V30 2073 C 192.194 1.95219 3.21818 0
M  V30 2074 C 191.341 1.97618 1.94532 0
M  V30 2075 H 194.292 1.40874 0.730772 0
M  V30 2076 H 194.313 1.61818 3.44377 0
M  V30 2077 H 193.825 3.08365 2.35653 0
M  V30 2078 H 191.926 0.955244 3.60147 0
M  V30 2079 H 192.039 2.81976 3.87333 0
M  V30 2080 H 190.403 1.41973 2.11461 0
M  V30 2081 H 191.186 3.02007 1.63238 0
M  V30 2082 N 193.631 -1.12557 1.10312 0
M  V30 2083 C 194.561 -2.20341 0.772798 0
M  V30 2084 C 195.542 -1.68198 -0.25365 0
M  V30 2085 O 196.727 -1.93831 -0.119699 0
M  V30 2086 C 193.857 -3.46709 0.202443 0
M  V30 2087 C 192.811 -4.11996 1.15943 0
M  V30 2088 C 192.137 -5.328 0.450345 0
M  V30 2089 C 193.437 -4.5828 2.50552 0
M  V30 2090 H 195.131 -2.48229 1.674 0
M  V30 2091 H 192.677 -1.19308 0.806326 0
M  V30 2092 H 194.63 -4.2138 -0.0407752 0
M  V30 2093 H 193.354 -3.18245 -0.734001 0
M  V30 2094 H 192.013 -3.39305 1.38808 0
M  V30 2095 H 191.661 -5.00602 -0.490531 0
M  V30 2096 H 191.361 -5.7743 1.08851 0
M  V30 2097 H 192.885 -6.10219 0.215642 0
M  V30 2098 H 194.299 -5.2433 2.31843 0
M  V30 2099 H 192.696 -5.13683 3.10242 0
M  V30 2100 H 193.766 -3.72329 3.10643 0
M  V30 2101 N 195.109 -0.891671 -1.2995 0
M  V30 2102 C 196.349 -0.520296 -1.97667 0
M  V30 2103 C 196.713 0.914797 -1.68806 0
M  V30 2104 O 197.914 1.39263 -2.29911 0
M  V30 2105 C 196.185 -0.795222 -3.48441 0
M  V30 2106 S 197.744 -0.526953 -4.35624 0
M  V30 2107 H 194.562 -0.19333 -0.684211 0
M  V30 2108 H 197.164 -1.15238 -1.57926 0
M  V30 2109 H 195.868 -1.83805 -3.66938 0
M  V30 2110 H 195.399 -0.15095 -3.9311 0
M  V30 2111 H 197.414 0.631533 -4.92165 0
M  V30 2112 N 196.587 1.43421 -0.653314 0
M  V30 2113 C 197.534 2.30768 0.0382271 0
M  V30 2114 C 198.504 1.44755 0.814576 0
M  V30 2115 O 199.689 1.73624 0.791162 0
M  V30 2116 C 196.829 3.30336 0.998599 0
M  V30 2117 C 195.942 4.31448 0.218342 0
M  V30 2118 C 195.077 5.18098 1.17252 0
M  V30 2119 C 194.116 6.10902 0.382702 0
M  V30 2120 N 193.253 6.90176 1.28848 0
M  V30 2121 H 198.093 2.89357 -0.712511 0
M  V30 2122 H 195.63 1.42548 -0.363128 0
M  V30 2123 H 197.588 3.86572 1.56901 0
M  V30 2124 H 196.218 2.73397 1.71621 0
M  V30 2125 H 195.27 3.77506 -0.46836 0
M  V30 2126 H 196.582 4.97227 -0.395812 0
M  V30 2127 H 195.736 5.7896 1.81356 0
M  V30 2128 H 194.475 4.52444 1.82058 0
M  V30 2129 H 193.48 5.49128 -0.27169 0
M  V30 2130 H 194.705 6.78598 -0.260957 0
M  V30 2131 H 192.651 6.27171 1.92334 0
M  V30 2132 H 192.568 7.52478 0.728887 0
M  V30 2133 H 193.836 7.55543 1.91766 0
M  V30 2134 N 198.065 0.39524 1.52563 0
M  V30 2135 C 198.975 -0.444232 2.30356 0
M  V30 2136 C 199.991 -1.06615 1.37511 0
M  V30 2137 O 201.167 -1.07067 1.70583 0
M  V30 2138 C 198.232 -1.55315 3.09964 0
M  V30 2139 C 197.293 -0.955734 4.18526 0
M  V30 2140 C 196.526 -2.01181 4.9433 0
M  V30 2141 O 196.749 -3.22781 4.70285 0
M  V30 2142 O 195.683 -1.62579 5.79527 0
M  V30 2143 H 199.509 0.189667 3.03107 0
M  V30 2144 H 197.094 0.1588 1.48554 0
M  V30 2145 H 198.976 -2.19724 3.59582 0
M  V30 2146 H 197.651 -2.17191 2.4002 0
M  V30 2147 H 196.558 -0.274743 3.7309 0
M  V30 2148 H 197.891 -0.381109 4.90722 0
M  V30 2149 N 199.544 -1.57102 0.125237 0
M  V30 2150 C 200.821 -1.86953 -0.575142 0
M  V30 2151 C 201.201 -1.02749 -1.84407 0
M  V30 2152 O 200.549 -0.108144 -2.28244 0
M  V30 2153 C 200.759 -3.38198 -0.861583 0
M  V30 2154 C 202.107 -4.06937 -1.21192 0
M  V30 2155 O 203.131 -3.43252 -0.951645 0
M  V30 2156 O 201.99 -5.19364 -1.70068 0
M  V30 2157 H 199.084 -0.774147 -0.290906 0
M  V30 2158 H 201.63 -1.68942 0.160211 0
M  V30 2159 H 200.402 -3.91282 0.0373647 0
M  V30 2160 H 200.025 -3.61661 -1.65188 0
M  V30 2161 N 201.022 0.148545 -1.56898 0
M  V30 2162 C 202.262 0.86765 -1.85071 0
M  V30 2163 C 202.626 1.78417 -0.709317 0
M  V30 2164 O 203.827 2.54261 -0.872049 0
M  V30 2165 C 202.098 1.62306 -3.1842 0
M  V30 2166 S 203.657 2.3878 -3.68143 0
M  V30 2167 H 200.475 0.290174 -0.649092 0
M  V30 2168 H 203.077 0.127755 -1.95082 0
M  V30 2169 H 201.781 0.941192 -3.99462 0
M  V30 2170 H 201.312 2.4039 -3.1141 0
M  V30 2171 H 203.327 3.63942 -3.37285 0
M  V30 2172 N 202.5 1.5196 0.417844 0
M  V30 2173 C 203.41 1.77554 1.53336 0
M  V30 2174 C 204.426 0.660655 1.6097 0
M  V30 2175 O 205.602 0.945099 1.77848 0
M  V30 2176 C 202.667 1.91291 2.89152 0
M  V30 2177 C 201.728 3.15183 2.91475 0
M  V30 2178 C 200.961 3.28256 4.20813 0
M  V30 2179 O 201.184 2.46798 5.14244 0
M  V30 2180 O 200.118 4.21356 4.29817 0
M  V30 2181 H 203.944 2.7222 1.34647 0
M  V30 2182 H 201.529 1.36698 0.602828 0
M  V30 2183 H 203.411 2.02199 3.69721 0
M  V30 2184 H 202.086 0.998129 3.07927 0
M  V30 2185 H 200.993 3.09739 2.09791 0
M  V30 2186 H 202.326 4.06414 2.77648 0
M  V30 2187 N 203.978 -0.674533 1.42435 0
M  V30 2188 C 205.394 -0.98769 1.25367 0
M  V30 2189 C 205.594 -2.00879 0.158044 0
M  V30 2190 O 204.65 -2.48075 -0.470633 0
M  V30 2191 C 205.963 -1.49224 2.6106 0
M  V30 2192 C 207.511 -1.61 2.68417 0
M  V30 2193 C 207.986 -2.14852 4.04478 0
M  V30 2194 N 209.477 -2.22185 4.06434 0
M  V30 2195 C 210.212 -2.64928 5.08528 0
M  V30 2196 N 209.708 -3.07121 6.21006 0
M  V30 2197 N 211.501 -2.64679 4.95885 0
M  V30 2198 H 203.652 0.00152503 2.124 0
M  V30 2199 H 205.915 -0.0618434 0.945981 0
M  V30 2200 H 205.621 -0.816453 3.42092 0
M  V30 2201 H 205.495 -2.47094 2.84999 0
M  V30 2202 H 207.882 -2.27686 1.87732 0
M  V30 2203 H 207.963 -0.616195 2.48267 0
M  V30 2204 H 207.607 -1.48775 4.85622 0
M  V30 2205 H 207.537 -3.15024 4.2198 0
M  V30 2206 H 210.028 -1.92435 3.25234 0
M  V30 2207 H 210.341 -3.38423 6.94759 0
M  V30 2208 H 208.686 -3.04978 6.24511 0
M  V30 2209 H 211.877 -2.31078 4.07088 0
M  V30 2210 H 212.05 -2.9767 5.75584 0
M  V30 2211 N 205.456 -1.28612 -0.910864 0
M  V30 2212 C 206.702 -1.17116 -1.66299 0
M  V30 2213 C 207.057 0.276917 -1.90397 0
M  V30 2214 O 206.35 1.19795 -1.49532 0
M  V30 2215 C 206.544 -1.90624 -3.0232 0
M  V30 2216 C 206.373 -3.42431 -2.91498 0
M  V30 2217 C 205.143 -4.11773 -2.92867 0
M  V30 2218 C 207.341 -4.38124 -2.69355 0
M  V30 2219 N 205.323 -5.50025 -2.72664 0
M  V30 2220 C 206.694 -5.63759 -2.58023 0
M  V30 2221 C 208.749 -4.28016 -2.54375 0
M  V30 2222 C 207.452 -6.80436 -2.33238 0
M  V30 2223 C 209.478 -5.44433 -2.30969 0
M  V30 2224 C 208.84 -6.69034 -2.20394 0
M  V30 2225 H 204.939 -0.483506 -0.61461 0
M  V30 2226 H 207.523 -1.62299 -1.0755 0
M  V30 2227 H 205.694 -1.4787 -3.5915 0
M  V30 2228 H 207.426 -1.71488 -3.66571 0
M  V30 2229 H 204.181 -3.63378 -3.03732 0
M  V30 2230 H 204.605 -6.22705 -2.65646 0
M  V30 2231 H 209.247 -3.32388 -2.613 0
M  V30 2232 H 206.965 -7.7613 -2.25051 0
M  V30 2233 H 210.551 -5.38504 -2.20238 0
M  V30 2234 H 209.431 -7.57595 -2.02531 0
M  V30 2235 N 206.934 1.1197 -1.10907 0
M  V30 2236 C 208.18 1.84059 -0.865674 0
M  V30 2237 C 208.535 1.82731 0.602254 0
M  V30 2238 O 207.828 1.26543 1.43866 0
M  V30 2239 C 208.022 3.30749 -1.35425 0
M  V30 2240 C 207.851 3.46363 -2.86815 0
M  V30 2241 C 206.621 3.59712 -3.54874 0
M  V30 2242 C 208.819 3.41116 -3.84895 0
M  V30 2243 N 206.801 3.63741 -4.94536 0
M  V30 2244 C 208.172 3.51698 -5.10596 0
M  V30 2245 C 210.227 3.24612 -3.77533 0
M  V30 2246 C 208.93 3.4748 -6.29802 0
M  V30 2247 C 210.956 3.21708 -4.96244 0
M  V30 2248 C 210.318 3.32856 -6.20795 0
M  V30 2249 H 206.417 0.689015 -0.369841 0
M  V30 2250 H 209.001 1.34016 -1.41237 0
M  V30 2251 H 207.172 3.79322 -0.834814 0
M  V30 2252 H 208.904 3.90718 -1.05458 0
M  V30 2253 H 205.659 3.62038 -3.05329 0
M  V30 2254 H 206.083 3.69408 -5.67333 0
M  V30 2255 H 210.725 3.14883 -2.8215 0
M  V30 2256 H 208.443 3.55978 -7.25469 0
M  V30 2257 H 212.029 3.10113 -4.92261 0
M  V30 2258 H 210.909 3.3059 -7.11112 0
M  V30 2259 N 208.412 0.89855 1.29475 0
M  V30 2260 C 209.322 0.379974 2.31502 0
M  V30 2261 C 210.338 -0.524695 1.659 0
M  V30 2262 O 211.514 -0.414551 1.97087 0
M  V30 2263 C 208.579 -0.385138 3.44554 0
M  V30 2264 C 207.64 0.550914 4.2575 0
M  V30 2265 C 206.873 -0.177778 5.33404 0
M  V30 2266 O 207.096 -1.40189 5.52904 0
M  V30 2267 O 206.03 0.479106 5.9999 0
M  V30 2268 H 209.856 1.22639 2.77837 0
M  V30 2269 H 207.441 0.662834 1.33891 0
M  V30 2270 H 209.323 -0.817841 4.13388 0
M  V30 2271 H 207.998 -1.20763 3.0033 0
M  V30 2272 H 206.905 1.03271 3.59564 0
M  V30 2273 H 208.238 1.33979 4.73614 0
M  V30 2274 N 209.89 -1.43072 0.660911 0
M  V30 2275 C 211.167 -1.95307 0.107017 0
M  V30 2276 C 211.547 -1.60192 -1.37484 0
M  V30 2277 O 210.895 -0.890949 -2.10415 0
M  V30 2278 C 211.105 -3.47124 0.361402 0
M  V30 2279 C 212.453 -4.23738 0.270455 0
M  V30 2280 O 213.477 -3.54981 0.294382 0
M  V30 2281 O 212.336 -5.46131 0.200737 0
M  V30 2282 H 209.43 -0.826984 -0.00517729 0
M  V30 2283 H 211.976 -1.52972 0.734681 0
M  V30 2284 H 210.748 -3.65837 1.38848 0
M  V30 2285 H 210.371 -3.96475 -0.298953 0
M  V30 2286 N 211.368 -0.403325 -1.52352 0
M  V30 2287 C 212.608 0.173946 -2.03659 0
M  V30 2288 C 212.972 1.42869 -1.28267 0
M  V30 2289 O 214.173 2.08403 -1.69769 0
M  V30 2290 C 212.444 0.421478 -3.54906 0
M  V30 2291 S 214.003 0.967027 -4.28012 0
M  V30 2292 H 210.821 0.0477461 -0.709395 0
M  V30 2293 H 213.423 -0.554906 -1.87459 0
M  V30 2294 H 212.127 -0.498616 -4.0736 0
M  V30 2295 H 211.658 1.17837 -3.75337 0
M  V30 2296 H 213.673 2.24812 -4.4235 0
M  V30 2297 N 212.846 1.57033 -0.133567 0
M  V30 2298 C 214.262 1.58035 0.222944 0
M  V30 2299 C 214.462 1.14713 1.6566 0
M  V30 2300 O 213.518 0.841218 2.38075 0
M  V30 2301 C 214.831 3.00691 -0.0236116 0
M  V30 2302 C 216.379 3.12973 0.0411512 0
M  V30 2303 C 216.854 4.57654 -0.177899 0
M  V30 2304 N 218.345 4.63033 -0.124365 0
M  V30 2305 C 219.08 5.72771 -0.268553 0
M  V30 2306 N 218.576 6.91206 -0.46972 0
M  V30 2307 N 220.369 5.61718 -0.2071 0
M  V30 2308 H 212.52 1.8349 -1.06981 0
M  V30 2309 H 214.783 0.848677 -0.422436 0
M  V30 2310 H 214.489 3.36726 -1.0153 0
M  V30 2311 H 214.363 3.70614 0.701808 0
M  V30 2312 H 216.75 2.76787 1.02338 0
M  V30 2313 H 216.831 2.45564 -0.716383 0
M  V30 2314 H 216.475 4.94542 -1.15717 0
M  V30 2315 H 216.405 5.23173 0.599797 0
M  V30 2316 H 218.896 3.7789 0.027011 0
M  V30 2317 H 219.209 7.70693 -0.570212 0
M  V30 2318 H 217.554 6.93156 -0.505876 0
M  V30 2319 H 220.745 4.68072 -0.0507986 0
M  V30 2320 H 220.918 6.47195 -0.322909 0
M  V30 2321 N 214.325 -0.140222 1.56975 0
M  V30 2322 C 215.553 -0.866437 1.87884 0
M  V30 2323 C 215.968 -1.74428 0.722517 0
M  V30 2324 O 215.325 -1.79891 -0.30749 0
M  V30 2325 C 215.376 -1.71753 3.18093 0
M  V30 2326 O 215.097 -0.875056 4.29272 0
M  V30 2327 C 216.598 -2.55074 3.62563 0
M  V30 2328 H 213.818 -0.25019 0.622612 0
M  V30 2329 H 216.362 -0.130977 2.0408 0
M  V30 2330 H 214.517 -2.40598 3.03631 0
M  V30 2331 H 214.931 -1.46002 5.03769 0
M  V30 2332 H 216.405 -3.10356 4.5649 0
M  V30 2333 H 216.882 -3.31434 2.88181 0
M  V30 2334 H 217.488 -1.91509 3.79743 0
M  V30 2335 N 215.803 -1.52179 -0.40978 0
M  V30 2336 C 217.028 -1.70347 -1.18308 0
M  V30 2337 C 217.453 -0.411887 -1.83535 0
M  V30 2338 O 216.811 0.630587 -1.6998 0
M  V30 2339 C 216.859 -2.83977 -2.22238 0
M  V30 2340 O 215.963 -2.495 -3.28365 0
M  V30 2341 H 215.304 -0.567103 -0.345384 0
M  V30 2342 H 217.834 -1.98879 -0.480445 0
M  V30 2343 H 217.844 -3.0887 -2.66577 0
M  V30 2344 H 216.519 -3.77685 -1.74146 0
M  V30 2345 H 215.096 -2.35277 -2.89308 0
M  V30 2346 N 217.281 0.66697 -1.42791 0
M  V30 2347 C 218.511 1.45294 -1.46878 0
M  V30 2348 C 218.919 1.89027 -0.0809861 0
M  V30 2349 O 218.262 1.59219 0.916246 0
M  V30 2350 C 218.324 2.72908 -2.34012 0
M  V30 2351 C 217.988 2.51203 -3.81767 0
M  V30 2352 C 218.985 2.15302 -4.73224 0
M  V30 2353 C 216.67 2.65954 -4.26115 0
M  V30 2354 C 218.664 1.94431 -6.07022 0
M  V30 2355 C 216.351 2.44699 -5.59969 0
M  V30 2356 C 217.349 2.08992 -6.5024 0
M  V30 2357 O 217.037 1.87948 -7.81621 0
M  V30 2358 H 216.769 0.453306 -0.501487 0
M  V30 2359 H 219.323 0.826232 -1.88049 0
M  V30 2360 H 217.553 3.38089 -1.87703 0
M  V30 2361 H 219.242 3.34816 -2.29462 0
M  V30 2362 H 220.008 2.03495 -4.40244 0
M  V30 2363 H 215.887 2.92724 -3.56137 0
M  V30 2364 H 219.431 1.66484 -6.77443 0
M  V30 2365 H 215.328 2.56105 -5.9252 0
M  V30 2366 H 216.096 2.02483 -7.93059 0
M  V30 2367 N 218.759 1.29093 0.90403 0
M  V30 2368 C 219.987 1.19689 1.68766 0
M  V30 2369 C 220.402 -0.243113 1.87228 0
M  V30 2370 O 219.759 -1.16326 1.40621 0
M  V30 2371 C 219.81 1.90144 3.07453 0
M  V30 2372 O 219.531 3.2852 2.89838 0
M  V30 2373 C 221.032 1.87162 4.01852 0
M  V30 2374 H 218.252 0.415035 0.527244 0
M  V30 2375 H 220.796 1.7039 1.13082 0
M  V30 2376 H 218.951 1.43289 3.59926 0
M  V30 2377 H 219.365 3.63944 3.77684 0
M  V30 2378 H 220.839 2.41032 4.96596 0
M  V30 2379 H 221.316 0.84617 4.30972 0
M  V30 2380 H 221.922 2.33741 3.5531 0
M  V30 2381 N 220.237 -1.11381 1.11499 0
M  V30 2382 C 221.477 -1.84763 0.874188 0
M  V30 2383 C 221.841 -1.82726 -0.589496 0
M  V30 2384 O 223.042 -2.51562 -0.947089 0
M  V30 2385 C 221.313 -3.27931 1.42112 0
M  V30 2386 S 222.872 -4.18557 1.31739 0
M  V30 2387 H 219.69 -0.637115 0.315603 0
M  V30 2388 H 222.292 -1.34097 1.42261 0
M  V30 2389 H 220.996 -3.26978 2.48019 0
M  V30 2390 H 220.527 -3.83665 0.869761 0
M  V30 2391 H 222.542 -4.95396 0.282335 0
M  V30 2392 N 221.715 -0.905404 -1.28997 0
M  V30 2393 C 222.662 -0.385892 -2.27551 0
M  V30 2394 C 223.632 0.535113 -1.57244 0
M  V30 2395 O 224.817 0.459119 -1.85194 0
M  V30 2396 C 221.957 0.375461 -3.43051 0
M  V30 2397 C 221.07 -0.577092 -4.28128 0
M  V30 2398 C 220.205 0.201879 -5.30816 0
M  V30 2399 C 219.244 -0.744829 -6.07551 0
M  V30 2400 N 218.381 9.42587e-05 -7.021 0
M  V30 2401 H 223.221 -1.23139 -2.71368 0
M  V30 2402 H 220.758 -0.618542 -1.33463 0
M  V30 2403 H 222.716 0.832992 -4.088 0
M  V30 2404 H 221.346 1.18537 -3.00248 0
M  V30 2405 H 220.398 -1.15315 -3.62501 0
M  V30 2406 H 221.71 -1.30152 -4.8152 0
M  V30 2407 H 220.864 0.720351 -6.02408 0
M  V30 2408 H 219.603 0.959413 -4.7817 0
M  V30 2409 H 218.608 -1.27475 -5.34818 0
M  V30 2410 H 219.833 -1.50178 -6.62286 0
M  V30 2411 H 217.779 0.739791 -6.51815 0
M  V30 2412 H 217.696 -0.664321 -7.53076 0
M  V30 2413 H 218.964 0.498644 -7.77903 0
M  V30 2414 N 223.193 1.4272 -0.668489 0
M  V30 2415 C 224.418 2.06484 -0.194758 0
M  V30 2416 C 224.843 1.49862 1.13679 0
M  V30 2417 O 224.201 0.614582 1.70565 0
M  V30 2418 C 224.249 3.60353 -0.133546 0
M  V30 2419 O 223.353 4.02464 0.899806 0
M  V30 2420 H 222.694 0.656137 -0.10188 0
M  V30 2421 H 225.224 1.82964 -0.915722 0
M  V30 2422 H 225.234 4.07976 0.0447041 0
M  V30 2423 H 223.909 4.00938 -1.1055 0
M  V30 2424 H 222.486 3.66402 0.693109 0
M  V30 2425 N 224.671 0.411399 1.52136 0
M  V30 2426 C 225.619 -0.427633 2.28635 0
M  V30 2427 C 226.613 -1.04383 1.33419 0
M  V30 2428 O 227.819 -0.981772 1.50868 0
M  V30 2429 H 224.194 -0.156689 0.735495 0
M  V30 2430 H 226.165 0.238761 2.97443 0
M  V30 2431 C 224.914 -1.53082 3.12188 0
M  V30 2432 H 224.237 -1.06601 3.85326 0
M  V30 2433 H 225.677 -2.09167 3.68816 0
M  V30 2434 C 224.136 -2.49946 2.25895 0
M  V30 2435 O 224.666 -3.53884 1.90076 0
M  V30 2436 N 222.872 -2.2021 1.8962 0
M  V30 2437 H 222.419 -1.35719 2.18948 0
M  V30 2438 H 222.377 -2.85266 1.32176 0
M  V30 2439 N 226.149 -1.5696 0.141893 0
M  V30 2440 C 227.395 -1.97034 -0.504884 0
M  V30 2441 C 227.75 -1.02518 -1.62812 0
M  V30 2442 O 227.043 -0.0592943 -1.91508 0
M  V30 2443 C 227.237 -3.41242 -1.06249 0
M  V30 2444 C 227.066 -4.497 0.00519653 0
M  V30 2445 C 225.836 -5.03338 0.444873 0
M  V30 2446 C 228.034 -5.08122 0.794767 0
M  V30 2447 N 226.016 -5.95395 1.49593 0
M  V30 2448 C 227.387 -5.96339 1.69645 0
M  V30 2449 C 229.442 -4.9071 0.843122 0
M  V30 2450 C 228.145 -6.69009 2.64233 0
M  V30 2451 C 230.171 -5.64077 1.77681 0
M  V30 2452 C 229.533 -6.51999 2.66603 0
M  V30 2453 H 225.632 -0.766745 -0.153707 0
M  V30 2454 H 228.216 -1.93273 0.235313 0
M  V30 2455 H 226.387 -3.45606 -1.77231 0
M  V30 2456 H 228.119 -3.68389 -1.67546 0
M  V30 2457 H 224.874 -4.73576 0.0480959 0
M  V30 2458 H 225.298 -6.46128 2.02107 0
M  V30 2459 H 229.94 -4.22459 0.169732 0
M  V30 2460 H 227.658 -7.36492 3.32575 0
M  V30 2461 H 231.244 -5.52602 1.81996 0
M  V30 2462 H 230.124 -7.07775 3.37675 0
M  V30 2463 N 227.627 0.131896 -1.57047 0
M  V30 2464 C 228.577 1.1679 -1.95816 0
M  V30 2465 C 229.561 1.37756 -0.831393 0
M  V30 2466 O 230.753 1.39065 -1.09499 0
M  V30 2467 C 227.882 2.49778 -2.35512 0
M  V30 2468 C 226.968 2.32342 -3.54793 0
M  V30 2469 N 227.359 1.8469 -4.70875 0
M  V30 2470 C 225.657 2.63043 -3.60173 0
M  V30 2471 C 226.358 1.80656 -5.52936 0
M  V30 2472 N 225.334 2.24528 -4.95064 0
M  V30 2473 H 229.136 0.791818 -2.83033 0
M  V30 2474 H 226.65 0.339791 -1.58805 0
M  V30 2475 H 228.647 3.24692 -2.61498 0
M  V30 2476 H 227.307 2.88156 -1.49654 0
M  V30 2477 H 228.318 1.54429 -4.9434 0
M  V30 2478 H 224.995 3.05193 -2.84892 0
M  V30 2479 H 226.385 1.45178 -6.56028 0
M  V30 2480 N 229.106 1.52395 0.401703 0
M  V30 2481 C 230.053 1.76268 1.48991 0
M  V30 2482 C 231.023 0.605386 1.54675 0
M  V30 2483 O 232.208 0.843742 1.7113 0
M  V30 2484 C 229.348 1.92592 2.86361 0
M  V30 2485 C 228.461 3.20259 2.89928 0
M  V30 2486 C 227.596 3.26972 4.18644 0
M  V30 2487 C 226.635 4.48812 4.16214 0
M  V30 2488 N 225.772 4.52877 5.36514 0
M  V30 2489 H 230.612 2.6914 1.27935 0
M  V30 2490 H 228.149 1.33355 0.620871 0
M  V30 2491 H 230.107 2.0004 3.66115 0
M  V30 2492 H 228.737 1.03093 3.05895 0
M  V30 2493 H 227.789 3.21945 2.02621 0
M  V30 2494 H 229.101 4.10056 2.83999 0
M  V30 2495 H 228.255 3.33533 5.06794 0
M  V30 2496 H 226.994 2.35126 4.27278 0
M  V30 2497 H 225.999 4.4239 3.26453 0
M  V30 2498 H 227.224 5.41961 4.09213 0
M  V30 2499 H 225.17 3.63917 5.45802 0
M  V30 2500 H 225.087 5.36529 5.32609 0
M  V30 2501 H 226.355 4.63676 6.26597 0
M  V30 2502 N 230.584 -0.659388 1.43143 0
M  V30 2503 C 231.832 -1.41654 1.44147 0
M  V30 2504 C 232.153 -1.94893 0.0645739 0
M  V30 2505 O 231.423 -1.74044 -0.899198 0
M  V30 2506 H 230.003 -0.525708 0.530697 0
M  V30 2507 H 232.665 -0.778097 1.78694 0
M  V30 2508 H 231.761 -2.26195 2.1504 0
M  V30 2509 N 232.062 -1.29571 -0.897171 0
M  V30 2510 C 233.308 -1.18873 -1.65048 0
M  V30 2511 C 233.663 0.256707 -1.9068 0
M  V30 2512 O 232.956 1.18202 -1.50794 0
M  V30 2513 C 233.15 -1.9382 -3.00281 0
M  V30 2514 C 232.979 -3.45503 -2.8785 0
M  V30 2515 C 231.749 -4.14856 -2.88483 0
M  V30 2516 C 233.947 -4.40956 -2.64693 0
M  V30 2517 N 231.929 -5.52886 -2.66815 0
M  V30 2518 C 233.3 -5.66464 -2.5203 0
M  V30 2519 C 235.355 -4.3069 -2.49821 0
M  V30 2520 C 234.058 -6.82871 -2.26008 0
M  V30 2521 C 236.084 -5.46852 -2.25182 0
M  V30 2522 C 235.446 -6.71333 -2.13286 0
M  V30 2523 H 231.545 -0.489998 -0.609447 0
M  V30 2524 H 234.129 -1.63431 -1.05822 0
M  V30 2525 H 232.3 -1.51671 -3.57562 0
M  V30 2526 H 234.032 -1.75366 -3.64731 0
M  V30 2527 H 230.787 -3.66579 -2.99861 0
M  V30 2528 H 231.211 -6.25487 -2.59027 0
M  V30 2529 H 235.853 -3.35141 -2.5776 0
M  V30 2530 H 233.571 -7.78473 -2.16806 0
M  V30 2531 H 237.157 -5.40809 -2.14515 0
M  V30 2532 H 236.037 -7.59701 -1.94485 0
M  V30 2533 N 233.54 1.10788 -1.12088 0
M  V30 2534 C 234.488 2.19111 -0.780587 0
M  V30 2535 C 235.482 1.67818 0.230961 0
M  V30 2536 O 236.688 1.79777 0.0895427 0
M  V30 2537 H 233.063 0.714477 -0.234578 0
M  V30 2538 H 235.034 2.45055 -1.70266 0
M  V30 2539 C 233.783 3.46818 -0.24747 0
M  V30 2540 H 233.106 3.86646 -1.01712 0
M  V30 2541 H 234.546 4.23973 -0.0476291 0
M  V30 2542 C 233.005 3.20968 1.02378 0
M  V30 2543 O 233.535 3.42298 2.10226 0
M  V30 2544 N 231.741 2.74658 0.949271 0
M  V30 2545 H 231.288 2.57501 0.0715173 0
M  V30 2546 H 231.246 2.57739 1.80049 0
M  V30 2547 N 235.018 0.912232 1.28515 0
M  V30 2548 C 236.264 0.554851 1.95686 0
M  V30 2549 C 236.619 -0.89138 1.70506 0
M  V30 2550 O 235.912 -1.62529 1.01464 0
M  V30 2551 C 236.106 0.798392 3.48368 0
M  V30 2552 C 235.935 2.26674 3.88393 0
M  V30 2553 C 234.705 2.91657 4.12631 0
M  V30 2554 C 236.903 3.24303 3.99164 0
M  V30 2555 N 234.885 4.28805 4.39317 0
M  V30 2556 C 236.256 4.4661 4.30046 0
M  V30 2557 C 238.311 3.19723 3.81683 0
M  V30 2558 C 237.014 5.64915 4.45268 0
M  V30 2559 C 239.04 4.37325 3.98121 0
M  V30 2560 C 238.402 5.58406 4.29375 0
M  V30 2561 H 234.501 0.252876 0.739985 0
M  V30 2562 H 237.085 1.17565 1.55199 0
M  V30 2563 H 235.256 0.20688 3.87849 0
M  V30 2564 H 236.988 0.405193 4.02666 0
M  V30 2565 H 233.743 2.42393 4.06869 0
M  V30 2566 H 234.167 4.99712 4.56746 0
M  V30 2567 H 238.809 2.27191 3.56573 0
M  V30 2568 H 236.527 6.57927 4.6921 0
M  V30 2569 H 240.113 4.35282 3.86033 0
M  V30 2570 H 238.993 6.47889 4.41825 0
M  V30 2571 N 236.496 -1.42363 0.676048 0
M  V30 2572 C 237.724 -2.05859 0.207268 0
M  V30 2573 C 238.139 -1.50796 -1.13605 0
M  V30 2574 O 237.496 -0.648265 -1.70598 0
M  V30 2575 C 237.547 -3.61248 0.134975 0
M  V30 2576 O 237.268 -4.1427 1.42521 0
M  V30 2577 C 238.769 -4.41859 -0.357151 0
M  V30 2578 H 235.989 -0.663431 0.100503 0
M  V30 2579 H 238.533 -1.82479 0.923136 0
M  V30 2580 H 236.688 -3.83735 -0.531588 0
M  V30 2581 H 237.102 -5.0815 1.29939 0
M  V30 2582 H 238.576 -5.50847 -0.356641 0
M  V30 2583 H 239.053 -4.16536 -1.39264 0
M  V30 2584 H 239.659 -4.24392 0.27772 0
M  V30 2585 N 237.974 -0.419461 -1.51915 0
M  V30 2586 C 239.199 0.154572 -2.06823 0
M  V30 2587 C 239.624 1.3722 -1.28656 0
M  V30 2588 O 238.982 1.78461 -0.319583 0
M  V30 2589 C 239.03 0.473172 -3.57482 0
M  V30 2590 O 238.134 1.56255 -3.81652 0
M  V30 2591 H 237.475 0.0096924 -0.663929 0
M  V30 2592 H 240.005 -0.595642 -1.95738 0
M  V30 2593 H 240.015 0.728825 -4.01438 0
M  V30 2594 H 238.69 -0.416873 -4.13805 0
M  V30 2595 H 237.267 1.29825 -3.49571 0
M  V30 2596 N 239.452 1.56882 -0.150215 0
M  V30 2597 C 240.7 1.9584 0.499105 0
M  V30 2598 C 241.021 1.03623 1.65188 0
M  V30 2599 O 240.291 0.0984084 1.95653 0
M  V30 2600 H 238.871 0.723119 0.187373 0
M  V30 2601 H 241.533 1.9358 -0.226466 0
M  V30 2602 H 240.629 2.99638 0.873122 0
M  V30 2603 N 240.93 -0.123565 1.57115 0
M  V30 2604 C 242.179 -0.830704 1.83799 0
M  V30 2605 C 242.492 -1.81259 0.735158 0
M  V30 2606 O 243.698 -2.56558 0.888278 0
M  V30 2607 C 242.154 -1.52802 3.25852 0
M  V30 2608 C 241.762 -0.587356 4.44133 0
M  V30 2609 C 243.506 -2.22056 3.61789 0
M  V30 2610 C 241.413 -1.28764 5.77212 0
M  V30 2611 H 240.343 -0.313967 0.685522 0
M  V30 2612 H 242.994 -0.0834359 1.8331 0
M  V30 2613 H 241.376 -2.32175 3.20797 0
M  V30 2614 H 242.55 0.172829 4.60476 0
M  V30 2615 H 240.865 -0.00201892 4.164 0
M  V30 2616 H 243.462 -2.75131 4.58483 0
M  V30 2617 H 243.805 -2.99644 2.88997 0
M  V30 2618 H 244.338 -1.49576 3.68608 0
M  V30 2619 H 241.077 -0.55314 6.53162 0
M  V30 2620 H 240.597 -2.01995 5.64764 0
M  V30 2621 H 242.276 -1.8221 6.20813 0
M  V30 2622 N 242.408 -1.52605 -0.393616 0
M  V30 2623 C 243.356 -1.77688 -1.50099 0
M  V30 2624 C 244.35 -0.644615 -1.56656 0
M  V30 2625 O 245.556 -0.826997 -1.59877 0
M  V30 2626 H 241.931 -0.562159 -0.499481 0
M  V30 2627 H 243.902 -2.7043 -1.26135 0
M  V30 2628 C 242.651 -1.95858 -2.87289 0
M  V30 2629 H 241.974 -2.8241 -2.82992 0
M  V30 2630 H 243.414 -2.174 -3.64024 0
M  V30 2631 C 241.873 -0.729848 -3.28899 0
M  V30 2632 O 242.403 0.0949217 -4.01588 0
M  V30 2633 N 240.609 -0.561283 -2.85128 0
M  V30 2634 H 240.156 -1.23357 -2.26143 0
M  V30 2635 H 240.114 0.2595 -3.13327 0
M  V30 2636 N 243.887 0.651787 -1.4349 0
M  V30 2637 C 244.797 1.79368 -1.5121 0
M  V30 2638 C 245.813 1.69361 -0.399093 0
M  V30 2639 O 246.989 1.90505 -0.653431 0
M  V30 2640 C 244.054 3.15653 -1.43401 0
M  V30 2641 C 243.115 3.37446 -2.65384 0
M  V30 2642 C 242.348 4.67229 -2.57939 0
M  V30 2643 O 242.571 5.46676 -1.62792 0
M  V30 2644 O 241.505 4.90773 -3.48462 0
M  V30 2645 H 245.331 1.7581 -2.47638 0
M  V30 2646 H 242.916 0.810447 -1.25507 0
M  V30 2647 H 244.798 3.96935 -1.41494 0
M  V30 2648 H 243.473 3.19798 -0.501085 0
M  V30 2649 H 242.38 2.55923 -2.72863 0
M  V30 2650 H 243.713 3.38148 -3.57654 0
M  V30 2651 N 245.365 1.30045 0.890287 0
M  V30 2652 C 246.605 1.19839 1.65584 0
M  V30 2653 C 246.969 -0.244175 1.90441 0
M  V30 2654 O 248.17 -0.469378 2.6467 0
M  V30 2655 C 246.441 1.99876 2.96284 0
M  V30 2656 S 248 2.06309 3.87275 0
M  V30 2657 H 244.818 0.427157 0.568382 0
M  V30 2658 H 247.42 1.64453 1.05715 0
M  V30 2659 H 246.124 3.03809 2.75913 0
M  V30 2660 H 245.655 1.55903 3.61189 0
M  V30 2661 H 247.67 1.18661 4.81803 0
M  V30 2662 N 246.843 -1.10192 1.12674 0
M  V30 2663 C 248.254 -1.63707 0.897604 0
M  V30 2664 C 248.605 -1.87812 -0.567546 0
M  V30 2665 O 247.73 -1.62196 -1.43253 0
M  V30 2666 C 248.325 -2.974 1.62292 0
M  V30 2667 C 246.884 -3.47772 1.43986 0
M  V30 2668 C 246.031 -2.22332 1.65722 0
M  V30 2669 H 248.982 -0.936587 1.28116 0
M  V30 2670 H 249.003 -3.64986 1.07541 0
M  V30 2671 H 248.515 -2.79824 2.68924 0
M  V30 2672 H 246.616 -3.70487 0.396206 0
M  V30 2673 H 246.729 -4.25723 2.19765 0
M  V30 2674 H 245.093 -2.30599 1.08149 0
M  V30 2675 H 245.876 -2.07285 2.73657 0
M  V30 2676 N 248.321 -0.919034 -1.28029 0
M  V30 2677 C 249.284 -0.416182 -2.2539 0
M  V30 2678 C 250.284 0.460438 -1.54067 0
M  V30 2679 O 251.474 0.262744 -1.72207 0
M  V30 2680 C 248.606 0.402707 -3.38513 0
M  V30 2681 H 249.799 -1.27629 -2.71387 0
M  V30 2682 H 247.352 -0.698919 -1.39803 0
M  V30 2683 H 248.087 1.282 -2.97885 0
M  V30 2684 H 247.872 -0.225698 -3.9145 0
M  V30 2685 H 249.362 0.745191 -4.10897 0
M  V30 2686 N 249.799 1.42003 -0.683588 0
M  V30 2687 C 251.047 2.01015 -0.209101 0
M  V30 2688 C 251.368 1.54365 1.19149 0
M  V30 2689 O 250.638 0.769083 1.80172 0
M  V30 2690 H 249.218 0.743294 -0.074315 0
M  V30 2691 H 251.88 1.73798 -0.882066 0
M  V30 2692 H 250.976 3.11343 -0.2172 0
M  V30 2693 N 251.277 0.427512 1.51691 0
M  V30 2694 C 252.24 -0.377132 2.26076 0
M  V30 2695 C 253.24 -0.958089 1.29141 0
M  V30 2696 O 254.43 -0.83408 1.52934 0
M  V30 2697 C 251.562 -1.53262 3.04506 0
M  V30 2698 H 252.755 0.27464 2.9864 0
M  V30 2699 H 250.308 0.180445 1.55255 0
M  V30 2700 H 251.043 -2.22072 2.36335 0
M  V30 2701 H 250.828 -1.12232 3.75694 0
M  V30 2702 H 252.318 -2.10135 3.60878 0
M  V30 2703 N 252.755 -1.56801 0.158532 0
M  V30 2704 C 253.685 -2.20347 -0.772609 0
M  V30 2705 C 254.666 -1.15518 -1.24859 0
M  V30 2706 O 255.851 -1.43902 -1.30406 0
M  V30 2707 C 252.981 -2.83417 -2.00729 0
M  V30 2708 C 251.935 -3.94174 -1.66765 0
M  V30 2709 C 251.261 -4.44233 -2.97592 0
M  V30 2710 C 252.561 -5.14392 -0.905447 0
M  V30 2711 H 254.255 -2.98413 -0.242959 0
M  V30 2712 H 251.801 -1.43537 -0.115419 0
M  V30 2713 H 253.754 -3.26543 -2.6636 0
M  V30 2714 H 252.478 -2.02701 -2.56086 0
M  V30 2715 H 251.137 -3.51684 -1.03508 0
M  V30 2716 H 250.785 -3.60325 -3.50963 0
M  V30 2717 H 250.485 -5.18945 -2.75626 0
M  V30 2718 H 252.009 -4.90037 -3.64274 0
M  V30 2719 H 253.423 -5.5429 -1.46408 0
M  V30 2720 H 251.82 -5.9494 -0.7853 0
M  V30 2721 H 252.89 -4.84795 0.100668 0
M  V30 2722 N 254.233 0.115231 -1.57178 0
M  V30 2723 C 255.473 0.828199 -1.8687 0
M  V30 2724 C 255.837 1.76873 -0.747002 0
M  V30 2725 O 257.038 2.52354 -0.925785 0
M  V30 2726 C 255.309 1.55515 -3.21792 0
M  V30 2727 S 256.868 2.30917 -3.73125 0
M  V30 2728 H 253.686 0.27634 -0.655101 0
M  V30 2729 H 256.288 0.0863469 -1.95309 0
M  V30 2730 H 254.992 0.856248 -4.01368 0
M  V30 2731 H 254.523 2.3373 -3.16439 0
M  V30 2732 H 256.538 3.56705 -3.44929 0
M  V30 2733 N 255.711 1.52812 0.385517 0
M  V30 2734 C 256.936 1.72207 1.15583 0
M  V30 2735 C 257.361 0.441034 1.82857 0
M  V30 2736 O 256.719 -0.603465 1.70962 0
M  V30 2737 C 256.767 2.87476 2.17692 0
M  V30 2738 O 255.871 2.54693 3.24354 0
M  V30 2739 H 255.212 0.572526 0.336319 0
M  V30 2740 H 257.742 1.99618 0.448744 0
M  V30 2741 H 257.752 3.13072 2.6163 0
M  V30 2742 H 256.427 3.80408 1.68115 0
M  V30 2743 H 255.004 2.3985 2.85529 0
M  V30 2744 N 257.189 -0.644168 1.43834 0
M  V30 2745 C 258.417 -1.43147 1.49387 0
M  V30 2746 C 258.832 -1.88452 0.114583 0
M  V30 2747 O 258.189 -1.60047 -0.876989 0
M  V30 2748 C 258.24 -2.66046 2.44748 0
M  V30 2749 O 257.961 -2.22633 3.77314 0
M  V30 2750 C 259.462 -3.59311 2.59635 0
M  V30 2751 H 256.682 -0.439447 0.507077 0
M  V30 2752 H 259.226 -0.78895 1.88669 0
M  V30 2753 H 257.381 -3.26418 2.08638 0
M  V30 2754 H 257.795 -3.02216 4.28679 0
M  V30 2755 H 259.269 -4.42187 3.30416 0
M  V30 2756 H 259.746 -4.07259 1.64427 0
M  V30 2757 H 260.352 -3.04816 2.96593 0
M  V30 2758 N 258.668 -1.30515 -0.883378 0
M  V30 2759 C 259.915 -1.1943 -1.63532 0
M  V30 2760 C 260.243 0.250627 -1.92878 0
M  V30 2761 O 259.498 1.19556 -1.54935 0
M  V30 2762 C 259.797 -1.96994 -2.98209 0
M  V30 2763 C 259.463 -3.466 -2.88408 0
M  V30 2764 C 258.125 -3.87397 -2.85442 0
M  V30 2765 C 260.477 -4.41863 -2.76418 0
M  V30 2766 C 257.805 -5.21745 -2.68327 0
M  V30 2767 C 260.157 -5.7632 -2.60841 0
M  V30 2768 C 258.821 -6.16354 -2.56251 0
M  V30 2769 H 258.091 -0.437025 -0.598406 0
M  V30 2770 H 260.738 -1.61635 -1.02696 0
M  V30 2771 H 259.043 -1.47429 -3.63004 0
M  V30 2772 H 260.74 -1.85808 -3.55354 0
M  V30 2773 H 257.33 -3.14182 -2.91527 0
M  V30 2774 H 261.514 -4.11285 -2.77775 0
M  V30 2775 H 256.77 -5.51853 -2.63189 0
M  V30 2776 H 260.944 -6.49772 -2.50538 0
M  V30 2777 H 258.571 -7.20401 -2.42748 0
M  V30 2778 N 260.146 1.09593 -1.13257 0
M  V30 2779 C 261.056 2.19739 -0.821691 0
M  V30 2780 C 262.072 1.72926 0.19302 0
M  V30 2781 O 263.248 2.01385 0.0244895 0
M  V30 2782 C 260.313 3.45482 -0.290333 0
M  V30 2783 C 259.374 4.06985 -1.36607 0
M  V30 2784 C 258.607 5.26726 -0.859975 0
M  V30 2785 O 258.83 5.69594 0.303082 0
M  V30 2786 O 257.764 5.7931 -1.63351 0
M  V30 2787 H 261.59 2.48781 -1.74189 0
M  V30 2788 H 259.175 1.18496 -0.909894 0
M  V30 2789 H 261.057 4.214 0.000674022 0
M  V30 2790 H 259.732 3.18047 0.602306 0
M  V30 2791 H 258.639 3.32712 -1.71037 0
M  V30 2792 H 259.972 4.38643 -2.23279 0
M  V30 2793 N 261.624 0.925811 1.2754 0
M  V30 2794 C 262.849 0.580924 1.99098 0
M  V30 2795 C 263.274 -0.833555 1.68622 0
M  V30 2796 O 262.632 -1.55903 0.925422 0
M  V30 2797 C 262.68 0.811186 3.51358 0
M  V30 2798 O 261.784 -0.124129 4.12213 0
M  V30 2799 H 261.125 0.223873 0.625122 0
M  V30 2800 H 263.655 1.24455 1.62395 0
M  V30 2801 H 263.665 0.72601 4.01489 0
M  V30 2802 H 262.34 1.84227 3.72872 0
M  V30 2803 H 260.917 0.0108006 3.72898 0
M  V30 2804 N 263.102 -1.41638 0.69111 0
M  V30 2805 C 264.332 -2.0533 0.228758 0
M  V30 2806 C 264.74 -1.52089 -1.12541 0
M  V30 2807 O 264.083 -0.662145 -1.71351 0
M  V30 2808 C 264.145 -3.59349 0.10407 0
M  V30 2809 C 263.809 -4.35362 1.38956 0
M  V30 2810 C 264.806 -4.64942 2.32648 0
M  V30 2811 C 262.491 -4.74714 1.64169 0
M  V30 2812 C 264.485 -5.32828 3.49818 0
M  V30 2813 C 262.172 -5.42338 2.81625 0
M  V30 2814 C 263.17 -5.71322 3.74273 0
M  V30 2815 O 262.858 -6.37554 4.89673 0
M  V30 2816 H 262.59 -0.667796 0.104997 0
M  V30 2817 H 265.144 -1.82477 0.942938 0
M  V30 2818 H 263.374 -3.80924 -0.665839 0
M  V30 2819 H 265.063 -4.04633 -0.320519 0
M  V30 2820 H 265.829 -4.35025 2.14425 0
M  V30 2821 H 261.708 -4.51538 0.929202 0
M  V30 2822 H 265.252 -5.55368 4.22152 0
M  V30 2823 H 261.149 -5.71673 2.99768 0
M  V30 2824 H 261.917 -6.56049 4.8943 0
M  V30 2825 N 264.58 -0.43555 -1.51462 0
M  V30 2826 C 265.827 0.131514 -2.02072 0
M  V30 2827 C 266.155 1.42868 -1.31981 0
M  V30 2828 O 265.41 1.91076 -0.422883 0
M  V30 2829 C 265.709 0.39942 -3.55161 0
M  V30 2830 C 265.375 -0.81172 -4.43533 0
M  V30 2831 C 264.037 -1.14387 -4.67407 0
M  V30 2832 C 266.389 -1.61976 -4.95392 0
M  V30 2833 C 263.717 -2.28477 -5.40384 0
M  V30 2834 C 266.069 -2.75164 -5.6962 0
M  V30 2835 C 264.733 -3.08835 -5.91758 0
M  V30 2836 H 264.003 0.0481244 -0.739436 0
M  V30 2837 H 266.65 -0.58238 -1.8243 0
M  V30 2838 H 264.955 1.19519 -3.73125 0
M  V30 2839 H 266.652 0.85157 -3.91854 0
M  V30 2840 H 263.242 -0.542898 -4.25148 0
M  V30 2841 H 267.426 -1.37637 -4.76833 0
M  V30 2842 H 262.682 -2.5488 -5.55739 0
M  V30 2843 H 266.856 -3.38147 -6.08793 0
M  V30 2844 H 264.483 -3.97353 -6.48086 0
M  V30 2845 N 266.058 1.56714 -0.166846 0
M  V30 2846 C 267.469 1.83378 0.350646 0
M  V30 2847 C 267.82 1.08646 1.63372 0
M  V30 2848 O 266.945 0.338058 2.13743 0
M  V30 2849 C 267.54 3.32643 0.642963 0
M  V30 2850 C 266.099 3.59818 1.10491 0
M  V30 2851 C 265.246 2.76954 0.138411 0
M  V30 2852 H 268.197 1.53803 -0.391193 0
M  V30 2853 H 268.218 3.49878 1.49551 0
M  V30 2854 H 267.73 3.87007 -0.291055 0
M  V30 2855 H 265.831 3.1086 2.05418 0
M  V30 2856 H 265.944 4.68178 1.01716 0
M  V30 2857 H 264.308 2.4666 0.634911 0
M  V30 2858 H 265.091 3.34097 -0.789549 0
M  V30 2859 N 267.536 -0.106894 1.57237 0
M  V30 2860 C 268.764 -0.826389 1.8968 0
M  V30 2861 C 269.179 -1.72856 0.759353 0
M  V30 2862 O 268.536 -1.80503 -0.269263 0
M  V30 2863 C 268.587 -1.64967 3.21665 0
M  V30 2864 O 268.308 -0.783804 4.31031 0
M  V30 2865 C 269.809 -2.47326 3.67892 0
M  V30 2866 H 267.029 -0.236927 0.627779 0
M  V30 2867 H 269.573 -0.0876593 2.04312 0
M  V30 2868 H 267.728 -2.34103 3.08666 0
M  V30 2869 H 268.142 -1.35284 5.06753 0
M  V30 2870 H 269.616 -3.00604 4.6297 0
M  V30 2871 H 270.093 -3.25247 2.95146 0
M  V30 2872 H 270.699 -1.83411 3.83719 0
M  V30 2873 N 269.014 -1.53014 -0.377408 0
M  V30 2874 C 270.425 -1.60438 -0.954798 0
M  V30 2875 C 270.776 -0.464418 -1.90624 0
M  V30 2876 O 269.901 0.41087 -2.12464 0
M  V30 2877 C 270.496 -2.90797 -1.73847 0
M  V30 2878 C 269.055 -3.00595 -2.26538 0
M  V30 2879 C 268.202 -2.55645 -1.07429 0
M  V30 2880 H 271.153 -1.57926 -0.156575 0
M  V30 2881 H 271.174 -2.77935 -2.5987 0
M  V30 2882 H 270.686 -3.73746 -1.04574 0
M  V30 2883 H 268.787 -2.22208 -2.99089 0
M  V30 2884 H 268.9 -4.05456 -2.5523 0
M  V30 2885 H 267.264 -2.10239 -1.43777 0
M  V30 2886 H 268.047 -3.41 -0.396728 0
M  V30 2887 N 270.492 0.636531 -1.44174 0
M  V30 2888 C 271.455 1.73063 -1.50273 0
M  V30 2889 C 272.455 1.56113 -0.385397 0
M  V30 2890 O 273.645 1.61707 -0.64781 0
M  V30 2891 C 270.777 3.12096 -1.37145 0
M  V30 2892 H 271.97 1.69031 -2.47727 0
M  V30 2893 H 269.523 0.849706 -1.31186 0
M  V30 2894 H 270.258 3.21728 -0.407636 0
M  V30 2895 H 270.043 3.25805 -2.18159 0
M  V30 2896 H 271.533 3.91846 -1.44382 0
M  V30 2897 N 271.97 1.30982 0.876444 0
M  V30 2898 C 272.933 1.18054 1.96459 0
M  V30 2899 C 273.933 0.109399 1.60427 0
M  V30 2900 O 275.123 0.358173 1.70478 0
M  V30 2901 C 272.255 0.810616 3.31122 0
M  V30 2902 H 273.448 2.14735 2.09354 0
M  V30 2903 H 271.001 1.145 1.06392 0
M  V30 2904 H 271.736 -0.155322 3.23928 0
M  V30 2905 H 271.521 1.58481 3.58645 0
M  V30 2906 H 273.011 0.743876 4.10921 0
M  V30 2907 N 273.449 -1.08991 1.13837 0
M  V30 2908 C 274.379 -2.17771 0.842507 0
M  V30 2909 C 275.36 -1.6892 -0.20001 0
M  V30 2910 O 276.545 -1.94113 -0.0579731 0
M  V30 2911 C 273.675 -3.4589 0.312644 0
M  V30 2912 C 272.629 -4.08099 1.28992 0
M  V30 2913 C 271.955 -5.31098 0.619623 0
M  V30 2914 C 273.255 -4.50077 2.65005 0
M  V30 2915 H 274.949 -2.42777 1.75213 0
M  V30 2916 H 272.495 -1.16682 0.843875 0
M  V30 2917 H 274.448 -4.21297 0.0933043 0
M  V30 2918 H 273.172 -3.20419 -0.632382 0
M  V30 2919 H 271.831 -3.34717 1.49533 0
M  V30 2920 H 271.479 -5.0191 -0.33102 0
M  V30 2921 H 271.179 -5.73674 1.27167 0
M  V30 2922 H 272.703 -6.09224 0.409669 0
M  V30 2923 H 274.117 -5.16688 2.48407 0
M  V30 2924 H 272.514 -5.03553 3.26427 0
M  V30 2925 H 273.584 -3.62257 3.22332 0
M  V30 2926 N 274.927 -0.932562 -1.27047 0
M  V30 2927 C 276.167 -0.582919 -1.95912 0
M  V30 2928 C 276.531 0.860629 -1.71631 0
M  V30 2929 O 277.732 1.31878 -2.34225 0
M  V30 2930 C 276.003 -0.905673 -3.45734 0
M  V30 2931 S 277.562 -0.665277 -4.33727 0
M  V30 2932 H 274.38 -0.215 -0.677714 0
M  V30 2933 H 276.982 -1.20204 -1.54179 0
M  V30 2934 H 275.686 -1.95386 -3.60905 0
M  V30 2935 H 275.217 -0.275939 -3.92431 0
M  V30 2936 H 277.232 0.474635 -4.93925 0
M  V30 2937 N 276.405 1.4127 -0.698611 0
M  V30 2938 C 277.315 2.34573 -0.0357891 0
M  V30 2939 C 278.331 1.56393 0.762701 0
M  V30 2940 O 279.507 1.8886 0.699564 0
M  V30 2941 C 276.572 3.35159 0.887089 0
M  V30 2942 C 275.633 4.29225 0.0804634 0
M  V30 2943 C 274.866 5.25006 0.959387 0
M  V30 2944 O 275.089 5.26314 2.19886 0
M  V30 2945 O 274.023 6.00519 0.407439 0
M  V30 2946 H 277.849 2.92838 -0.804957 0
M  V30 2947 H 275.434 1.42175 -0.458966 0
M  V30 2948 H 277.316 3.9689 1.41621 0
M  V30 2949 H 275.991 2.79333 1.6357 0
M  V30 2950 H 274.898 3.70833 -0.493328 0
M  V30 2951 H 276.231 4.88157 -0.629547 0
M  V30 2952 N 277.883 0.443576 1.51229 0
M  V30 2953 C 279.131 -0.120557 2.0174 0
M  V30 2954 C 279.452 -1.42665 1.32935 0
M  V30 2955 O 278.722 -1.9028 0.465866 0
M  V30 2956 H 277.302 -0.0475426 0.745486 0
M  V30 2957 H 279.964 0.587711 1.85828 0
M  V30 2958 H 279.06 -0.291972 3.10731 0
M  V30 2959 N 279.361 -1.56624 0.175154 0
M  V30 2960 C 280.291 -2.21155 -0.749195 0
M  V30 2961 C 281.272 -1.16836 -1.23626 0
M  V30 2962 O 282.457 -1.45277 -1.28873 0
M  V30 2963 C 279.587 -2.8553 -1.97711 0
M  V30 2964 C 278.541 -3.95921 -1.62575 0
M  V30 2965 C 277.867 -4.47365 -2.92864 0
M  V30 2966 C 279.167 -5.15323 -0.850838 0
M  V30 2967 H 280.861 -2.98653 -0.211295 0
M  V30 2968 H 278.407 -1.43651 -0.100188 0
M  V30 2969 H 280.36 -3.2935 -2.62881 0
M  V30 2970 H 279.084 -2.05406 -2.53921 0
M  V30 2971 H 277.743 -3.52762 -0.997719 0
M  V30 2972 H 277.391 -3.64027 -3.47122 0
M  V30 2973 H 277.091 -5.21839 -2.70106 0
M  V30 2974 H 278.615 -4.93873 -3.59056 0
M  V30 2975 H 280.029 -5.55812 -1.40521 0
M  V30 2976 H 278.426 -5.95739 -0.722154 0
M  V30 2977 H 279.496 -4.84661 0.152082 0
M  V30 2978 N 280.839 0.0985539 -1.57292 0
M  V30 2979 C 282.085 0.798769 -1.87059 0
M  V30 2980 C 282.44 1.76514 -0.76555 0
M  V30 2981 O 281.733 1.90181 0.232752 0
M  V30 2982 C 281.927 1.56927 -3.21105 0
M  V30 2983 C 281.756 0.679026 -4.44544 0
M  V30 2984 C 280.526 0.326071 -5.04247 0
M  V30 2985 C 282.724 -0.0124715 -5.14298 0
M  V30 2986 N 280.706 -0.572702 -6.11223 0
M  V30 2987 C 282.077 -0.769446 -6.15207 0
M  V30 2988 C 284.132 -0.0867545 -4.97824 0
M  V30 2989 C 282.835 -1.59376 -7.01421 0
M  V30 2990 C 284.861 -0.897955 -5.84543 0
M  V30 2991 C 284.223 -1.64306 -6.84969 0
M  V30 2992 H 280.322 0.268568 -0.734435 0
M  V30 2993 H 282.906 0.0614664 -1.94603 0
M  V30 2994 H 281.077 2.27748 -3.1462 0
M  V30 2995 H 282.809 2.21641 -3.38611 0
M  V30 2996 H 279.564 0.67295 -4.68795 0
M  V30 2997 H 279.988 -1.01454 -6.69355 0
M  V30 2998 H 284.63 0.474963 -4.20124 0
M  V30 2999 H 282.348 -2.16655 -7.78515 0
M  V30 3000 H 285.934 -0.958059 -5.73858 0
M  V30 3001 H 284.814 -2.26065 -7.50909 0
M  V30 3002 N 282.317 1.53212 0.369288 0
M  V30 3003 C 283.542 1.73423 1.1375 0
M  V30 3004 C 283.967 0.460404 1.82378 0
M  V30 3005 O 283.325 -0.585298 1.71592 0
M  V30 3006 C 283.373 2.89769 2.1463 0
M  V30 3007 O 282.477 2.58119 3.21634 0
M  V30 3008 H 281.818 0.576061 0.330227 0
M  V30 3009 H 284.348 2.00083 0.427547 0
M  V30 3010 H 284.358 3.15829 2.58294 0
M  V30 3011 H 283.033 3.8217 1.64071 0
M  V30 3012 H 281.61 2.42864 2.82969 0
M  V30 3013 N 283.795 -0.628877 1.44509 0
M  V30 3014 C 284.745 -1.7345 1.47983 0
M  V30 3015 C 285.729 -1.5715 0.345373 0
M  V30 3016 O 286.921 -1.66848 0.590829 0
M  V30 3017 C 284.05 -3.12143 1.42904 0
M  V30 3018 C 283.136 -3.33906 2.61472 0
M  V30 3019 N 283.527 -3.26024 3.86706 0
M  V30 3020 C 281.825 -3.64709 2.56716 0
M  V30 3021 C 282.526 -3.48536 4.65722 0
M  V30 3022 N 281.502 -3.71517 3.96832 0
M  V30 3023 H 285.304 -1.65818 2.42655 0
M  V30 3024 H 282.818 -0.831419 1.39503 0
M  V30 3025 H 284.815 -3.91433 1.43476 0
M  V30 3026 H 283.475 -3.2094 0.492717 0
M  V30 3027 H 284.486 -3.04893 4.18641 0
M  V30 3028 H 281.163 -3.80473 1.71891 0
M  V30 3029 H 282.553 -3.48016 5.74747 0
M  V30 3030 N 285.273 -1.31445 -0.869486 0
M  V30 3031 C 286.498 -1.24256 -1.66058 0
M  V30 3032 C 286.923 0.188928 -1.87149 0
M  V30 3033 O 286.281 1.13522 -1.4136 0
M  V30 3034 C 286.329 -1.9924 -3.00559 0
M  V30 3035 O 285.433 -1.33007 -3.90362 0
M  V30 3036 H 284.774 -0.428973 -0.506831 0
M  V30 3037 H 287.304 -1.73521 -1.08404 0
M  V30 3038 H 287.314 -2.08854 -3.50491 0
M  V30 3039 H 285.989 -3.03342 -2.84528 0
M  V30 3040 H 284.566 -1.31848 -3.48813 0
M  V30 3041 N 286.751 1.08385 -1.14413 0
M  V30 3042 C 287.998 1.80776 -0.912482 0
M  V30 3043 C 288.326 1.86236 0.560934 0
M  V30 3044 O 287.581 1.33431 1.43159 0
M  V30 3045 C 287.88 3.26273 -1.45879 0
M  V30 3046 C 287.546 3.4093 -2.95089 0
M  V30 3047 C 286.208 3.44638 -3.35824 0
M  V30 3048 C 288.56 3.44591 -3.91033 0
M  V30 3049 C 285.888 3.49597 -4.71167 0
M  V30 3050 C 288.24 3.51086 -5.26233 0
M  V30 3051 C 286.904 3.53067 -5.6648 0
M  V30 3052 H 286.174 0.661507 -0.333901 0
M  V30 3053 H 288.821 1.27613 -1.42784 0
M  V30 3054 H 287.126 3.82146 -0.864376 0
M  V30 3055 H 288.823 3.80839 -1.2555 0
M  V30 3056 H 285.413 3.38736 -2.62594 0
M  V30 3057 H 289.597 3.40957 -3.60641 0
M  V30 3058 H 284.853 3.49424 -5.0171 0
M  V30 3059 H 289.027 3.52864 -6.00383 0
M  V30 3060 H 286.654 3.56662 -6.71339 0
M  V30 3061 N 288.23 0.939286 1.26551 0
M  V30 3062 C 289.177 0.446088 2.26448 0
M  V30 3063 C 290.147 -0.493234 1.58608 0
M  V30 3064 O 291.332 -0.409857 1.86346 0
M  V30 3065 C 288.472 -0.284375 3.43926 0
M  V30 3066 C 287.585 0.690399 4.26448 0
M  V30 3067 C 286.72 -0.0610712 5.31165 0
M  V30 3068 C 285.759 0.905649 6.05363 0
M  V30 3069 N 284.896 0.186055 7.01853 0
M  V30 3070 H 289.736 1.30291 2.68008 0
M  V30 3071 H 287.273 0.65371 1.31776 0
M  V30 3072 H 289.231 -0.724313 4.10864 0
M  V30 3073 H 287.861 -1.10535 3.03285 0
M  V30 3074 H 286.913 1.24885 3.59316 0
M  V30 3075 H 288.225 1.42873 4.779 0
M  V30 3076 H 287.379 -0.56038 6.04106 0
M  V30 3077 H 286.118 -0.832297 4.80546 0
M  V30 3078 H 285.123 1.4161 5.3125 0
M  V30 3079 H 286.348 1.67685 6.58072 0
M  V30 3080 H 284.294 -0.566714 6.53548 0
M  V30 3081 H 284.211 0.863752 7.51049 0
M  V30 3082 H 285.479 -0.292221 7.78952 0
M  V30 3083 N 289.708 -1.40897 0.706093 0
M  V30 3084 C 290.954 -2.01352 0.241889 0
M  V30 3085 C 291.287 -1.55832 -1.15888 0
M  V30 3086 O 290.562 -0.774145 -1.7843 0
M  V30 3087 C 290.845 -3.58752 0.311311 0
M  V30 3088 C 290.698 -4.1437 1.74978 0
M  V30 3089 C 292.017 -4.38914 -0.322922 0
M  V30 3090 H 289.136 -0.731562 0.0893687 0
M  V30 3091 H 291.778 -1.67504 0.896802 0
M  V30 3092 H 289.928 -3.87718 -0.246302 0
M  V30 3093 H 291.6 -3.96239 2.36205 0
M  V30 3094 H 289.843 -3.69016 2.28057 0
M  V30 3095 H 290.514 -5.23532 1.74981 0
M  V30 3096 H 292.99 -4.15822 0.152089 0
M  V30 3097 H 291.866 -5.48358 -0.243855 0
M  V30 3098 H 292.127 -4.19176 -1.40513 0
M  V30 3099 N 291.186 -0.45159 -1.50991 0
M  V30 3100 C 292.411 0.110667 -2.07105 0
M  V30 3101 C 292.836 1.3446 -1.31538 0
M  V30 3102 O 292.194 1.77743 -0.357365 0
M  V30 3103 C 292.242 0.397238 -3.58405 0
M  V30 3104 O 291.346 1.48124 -3.84881 0
M  V30 3105 H 290.687 -0.00439271 -0.663985 0
M  V30 3106 H 293.217 -0.637026 -1.9443 0
M  V30 3107 H 293.227 0.64351 -4.02893 0
M  V30 3108 H 291.902 -0.504553 -4.12828 0
M  V30 3109 H 290.479 1.22381 -3.52246 0
M  V30 3110 N 292.664 1.56529 -0.183458 0
M  V30 3111 C 293.612 2.19873 0.758845 0
M  V30 3112 C 294.606 1.16638 1.22849 0
M  V30 3113 O 295.812 1.3481 1.19274 0
M  V30 3114 H 292.187 0.7045 0.263029 0
M  V30 3115 H 294.158 2.97724 0.200755 0
M  V30 3116 C 292.907 2.86314 1.9728 0
M  V30 3117 H 292.23 3.65487 1.62047 0
M  V30 3118 H 293.67 3.3409 2.61075 0
M  V30 3119 C 292.129 1.86729 2.80418 0
M  V30 3120 O 292.659 1.36031 3.77966 0
M  V30 3121 N 290.865 1.55216 2.45675 0
M  V30 3122 H 290.412 1.96636 1.66409 0
M  V30 3123 H 290.37 0.888388 3.01588 0
M  V30 3124 N 294.142 -0.090211 1.57342 0
M  V30 3125 C 295.372 -0.805055 1.90269 0
M  V30 3126 C 295.78 -1.72561 0.775842 0
M  V30 3127 O 295.123 -1.81839 -0.260843 0
M  V30 3128 C 295.185 -1.66734 3.18497 0
M  V30 3129 C 294.849 -0.918092 4.47683 0
M  V30 3130 C 295.846 -0.245674 5.19319 0
M  V30 3131 C 293.531 -0.890724 4.94339 0
M  V30 3132 C 295.525 0.444088 6.35851 0
M  V30 3133 C 293.212 -0.197179 6.10782 0
M  V30 3134 C 294.21 0.469044 6.81388 0
M  V30 3135 O 293.898 1.15146 7.95611 0
M  V30 3136 H 293.63 -0.235143 0.633785 0
M  V30 3137 H 296.184 -0.0703805 2.05279 0
M  V30 3138 H 294.414 -2.44437 2.99646 0
M  V30 3139 H 296.103 -2.25919 3.37217 0
M  V30 3140 H 296.869 -0.258246 4.84312 0
M  V30 3141 H 292.748 -1.39873 4.39268 0
M  V30 3142 H 296.292 0.964667 6.90898 0
M  V30 3143 H 292.189 -0.18247 6.45242 0
M  V30 3144 H 292.957 1.05885 8.11622 0
M  V30 3145 N 295.62 -1.53406 -0.361157 0
M  V30 3146 C 296.845 -1.74024 -1.12829 0
M  V30 3147 C 297.27 -0.470069 -1.82132 0
M  V30 3148 O 296.628 0.57619 -1.719 0
M  V30 3149 C 296.676 -2.90903 -2.13091 0
M  V30 3150 O 295.78 -2.59821 -3.20261 0
M  V30 3151 H 295.121 -0.577804 -0.327168 0
M  V30 3152 H 297.651 -2.00307 -0.41693 0
M  V30 3153 H 297.661 -3.17194 -2.56616 0
M  V30 3154 H 296.336 -3.83034 -1.62042 0
M  V30 3155 H 294.913 -2.44362 -2.81677 0
M  V30 3156 N 297.098 0.621204 -1.44841 0
M  V30 3157 C 298.514 0.94048 -1.28946 0
M  V30 3158 C 298.714 2.00154 -0.23249 0
M  V30 3159 O 297.77 2.49651 0.378237 0
M  V30 3160 C 299.083 1.39433 -2.66419 0
M  V30 3161 C 300.631 1.50927 -2.74208 0
M  V30 3162 C 301.106 1.99692 -4.12174 0
M  V30 3163 N 302.597 2.06947 -4.144 0
M  V30 3164 C 303.332 2.45871 -5.1801 0
M  V30 3165 N 302.828 2.83862 -6.31977 0
M  V30 3166 N 304.621 2.46092 -5.05366 0
M  V30 3167 H 296.772 -0.0803548 -2.12248 0
M  V30 3168 H 299.035 0.0266913 -0.947624 0
M  V30 3169 H 298.741 0.688925 -3.44887 0
M  V30 3170 H 298.615 2.36347 -2.93973 0
M  V30 3171 H 301.002 2.20561 -1.96053 0
M  V30 3172 H 301.083 0.523627 -2.50383 0
M  V30 3173 H 300.727 1.30649 -4.90809 0
M  V30 3174 H 300.657 2.99146 -4.33381 0
M  V30 3175 H 303.148 1.80232 -3.32152 0
M  V30 3176 H 303.461 3.12405 -7.0684 0
M  V30 3177 H 301.806 2.8159 -6.35399 0
M  V30 3178 H 304.997 2.1581 -4.15384 0
M  V30 3179 H 305.17 2.76102 -5.86235 0
M  V30 3180 N 298.576 1.31904 0.862503 0
M  V30 3181 C 299.824 1.21776 1.61292 0
M  V30 3182 C 300.145 -0.222413 1.93727 0
M  V30 3183 O 299.415 -1.1451 1.58947 0
M  V30 3184 H 297.995 0.447717 0.597962 0
M  V30 3185 H 300.657 1.65326 1.03215 0
M  V30 3186 H 299.753 1.7948 2.5533 0
M  V30 3187 N 300.054 -1.07777 1.14986 0
M  V30 3188 C 301.279 -1.84558 0.946213 0
M  V30 3189 C 301.704 -1.81323 -0.500362 0
M  V30 3190 O 301.062 -1.20301 -1.35637 0
M  V30 3191 C 301.11 -3.29736 1.45968 0
M  V30 3192 O 300.214 -4.07149 0.65601 0
M  V30 3193 H 299.555 -0.571641 0.33782 0
M  V30 3194 H 302.085 -1.35991 1.52865 0
M  V30 3195 H 302.095 -3.80574 1.47063 0
M  V30 3196 H 300.77 -3.31406 2.51283 0
M  V30 3197 H 299.347 -3.65994 0.714322 0
M  V30 3198 N 301.532 -0.945985 -1.26051 0
M  V30 3199 C 302.78 -0.594941 -1.93145 0
M  V30 3200 C 303.101 0.86953 -1.7454 0
M  V30 3201 O 302.371 1.61838 -1.10387 0
M  V30 3202 H 300.951 -0.217044 -0.714773 0
M  V30 3203 H 303.613 -1.20235 -1.53393 0
M  V30 3204 H 302.709 -0.816835 -3.01221 0
M  V30 3205 N 303.011 1.40521 -0.713556 0
M  V30 3206 C 304.427 1.54839 -0.386907 0
M  V30 3207 C 304.627 1.68532 1.1045 0
M  V30 3208 O 303.683 1.67377 1.89053 0
M  V30 3209 C 304.996 2.77792 -1.15118 0
M  V30 3210 C 306.544 2.91607 -1.13729 0
M  V30 3211 C 307.019 4.1747 -1.88368 0
M  V30 3212 N 308.51 4.24466 -1.85427 0
M  V30 3213 C 309.245 5.20755 -2.40004 0
M  V30 3214 N 308.741 6.22965 -3.03129 0
M  V30 3215 N 310.534 5.1282 -2.30158 0
M  V30 3216 H 302.685 1.29879 -1.68063 0
M  V30 3217 H 304.948 0.627896 -0.710247 0
M  V30 3218 H 304.654 2.73944 -2.20561 0
M  V30 3219 H 304.528 3.6984 -0.741477 0
M  V30 3220 H 306.915 2.94959 -0.0910608 0
M  V30 3221 H 306.996 2.00682 -1.5862 0
M  V30 3222 H 306.64 4.1488 -2.9298 0
M  V30 3223 H 306.57 5.074 -1.40898 0
M  V30 3224 H 309.061 3.51241 -1.3942 0
M  V30 3225 H 309.374 6.92859 -3.42295 0
M  V30 3226 H 307.719 6.23415 -3.07212 0
M  V30 3227 H 310.91 4.31899 -1.80501 0
M  V30 3228 H 311.083 5.87689 -2.72993 0
M  V30 3229 N 304.489 0.459591 1.5075 0
M  V30 3230 C 305.729 -0.09824 2.04164 0
M  V30 3231 C 306.093 -1.3801 1.33481 0
M  V30 3232 O 307.294 -2.01959 1.77387 0
M  V30 3233 C 305.565 -0.289467 3.56226 0
M  V30 3234 S 307.124 -0.807507 4.31306 0
M  V30 3235 H 303.942 -0.0213845 0.710678 0
M  V30 3236 H 306.544 0.624098 1.85271 0
M  V30 3237 H 305.248 0.649461 4.05229 0
M  V30 3238 H 304.779 -1.03825 3.79452 0
M  V30 3239 H 306.794 -2.0824 4.50389 0
M  V30 3240 N 305.967 -1.56429 0.191757 0
M  V30 3241 C 307.216 -1.9666 -0.448088 0
M  V30 3242 C 307.529 -1.08136 -1.62991 0
M  V30 3243 O 308.735 -1.38135 -2.33733 0
M  V30 3244 C 307.191 -3.49753 -0.848585 0
M  V30 3245 C 306.799 -4.46935 0.308764 0
M  V30 3246 C 308.543 -3.9876 -1.4557 0
M  V30 3247 C 306.45 -5.91293 -0.112506 0
M  V30 3248 H 305.38 -0.734312 -0.171179 0
M  V30 3249 H 308.031 -1.81301 0.283242 0
M  V30 3250 H 306.413 -3.60604 -1.63649 0
M  V30 3251 H 307.587 -4.47813 1.08627 0
M  V30 3252 H 305.902 -4.08102 0.827158 0
M  V30 3253 H 308.499 -5.04086 -1.78328 0
M  V30 3254 H 308.842 -3.42875 -2.36099 0
M  V30 3255 H 309.375 -3.9101 -0.731836 0
M  V30 3256 H 306.114 -6.51097 0.758514 0
M  V30 3257 H 305.634 -5.93676 -0.854941 0
M  V30 3258 H 307.313 -6.44663 -0.549448 0
M  V30 3259 N 307.445 0.0818655 -1.57387 0
M  V30 3260 C 308.377 1.12484 -1.997 0
M  V30 3261 C 309.39 1.35564 -0.90146 0
M  V30 3262 O 310.579 1.33982 -1.17945 0
M  V30 3263 C 307.679 2.47778 -2.31213 0
M  V30 3264 C 306.852 2.44793 -3.62485 0
M  V30 3265 C 305.911 3.62117 -3.81782 0
M  V30 3266 O 304.937 3.44005 -4.53486 0
M  V30 3267 N 306.139 4.82094 -3.23367 0
M  V30 3268 H 308.904 0.764585 -2.89783 0
M  V30 3269 H 306.465 0.270664 -1.59621 0
M  V30 3270 H 308.457 3.24891 -2.41304 0
M  V30 3271 H 307.027 2.75843 -1.4707 0
M  V30 3272 H 306.247 1.53134 -3.6324 0
M  V30 3273 H 307.535 2.39889 -4.48699 0
M  V30 3274 H 306.933 4.99713 -2.65148 0
M  V30 3275 H 305.49 5.56753 -3.38923 0
M  V30 3276 N 308.923 1.53595 0.353017 0
M  V30 3277 C 309.856 1.7572 1.45594 0
M  V30 3278 C 310.834 0.605961 1.50887 0
M  V30 3279 O 312.018 0.840023 1.68748 0
M  V30 3280 C 309.145 1.84732 2.83887 0
M  V30 3281 C 308.191 3.06808 2.96262 0
M  V30 3282 S 309.024 4.66065 2.63711 0
M  V30 3283 C 310.18 4.77943 4.04131 0
M  V30 3284 H 310.413 2.68994 1.26608 0
M  V30 3285 H 307.946 1.44343 0.548117 0
M  V30 3286 H 309.904 1.9061 3.63563 0
M  V30 3287 H 308.565 0.92488 3.00175 0
M  V30 3288 H 307.758 3.09761 3.97573 0
M  V30 3289 H 307.36 2.99108 2.24523 0
M  V30 3290 H 309.652 4.5877 4.98534 0
M  V30 3291 H 310.595 5.80022 4.06177 0
M  V30 3292 H 311.003 4.06472 3.91715 0
M  V30 3293 N 310.401 -0.613514 1.45168 0
M  V30 3294 C 311.647 -1.37279 1.50087 0
M  V30 3295 C 312.002 -1.91902 0.138294 0
M  V30 3296 O 311.295 -1.71764 -0.84899 0
M  V30 3297 C 311.489 -2.54347 2.51083 0
M  V30 3298 C 311.318 -2.11186 3.97027 0
M  V30 3299 C 310.088 -1.97636 4.65046 0
M  V30 3300 C 312.286 -1.69016 4.85735 0
M  V30 3301 N 310.268 -1.48224 5.95737 0
M  V30 3302 C 311.639 -1.30976 6.06008 0
M  V30 3303 C 313.694 -1.56555 4.72647 0
M  V30 3304 C 312.397 -0.817197 7.14643 0
M  V30 3305 C 314.423 -1.08702 5.81324 0
M  V30 3306 C 313.785 -0.716233 7.00749 0
M  V30 3307 H 309.884 -0.496478 0.60418 0
M  V30 3308 H 312.468 -0.701988 1.81605 0
M  V30 3309 H 310.639 -3.19031 2.21527 0
M  V30 3310 H 312.371 -3.21208 2.46187 0
M  V30 3311 H 309.126 -2.18638 4.20112 0
M  V30 3312 H 309.55 -1.25767 6.65216 0
M  V30 3313 H 314.192 -1.83849 3.80736 0
M  V30 3314 H 311.91 -0.531797 8.06348 0
M  V30 3315 H 315.496 -0.994943 5.7323 0
M  V30 3316 H 314.376 -0.351642 7.83411 0
M  V30 3317 N 311.879 -1.3236 -0.855495 0
M  V30 3318 C 313.126 -1.22872 -1.60962 0
M  V30 3319 C 313.454 0.209658 -1.93367 0
M  V30 3320 O 312.709 1.16243 -1.57436 0
M  V30 3321 C 313.008 -2.03275 -2.93963 0
M  V30 3322 C 312.674 -3.5264 -2.80991 0
M  V30 3323 C 311.336 -3.93364 -2.7716 0
M  V30 3324 C 313.688 -4.47626 -2.66983 0
M  V30 3325 C 311.016 -5.27319 -2.572 0
M  V30 3326 C 313.368 -5.81723 -2.48558 0
M  V30 3327 C 312.032 -6.2165 -2.4312 0
M  V30 3328 H 311.302 -0.44962 -0.589001 0
M  V30 3329 H 313.949 -1.63777 -0.992442 0
M  V30 3330 H 312.254 -1.55095 -3.59795 0
M  V30 3331 H 313.951 -1.93303 -3.51333 0
M  V30 3332 H 310.541 -3.20295 -2.84797 0
M  V30 3333 H 314.725 -4.17084 -2.68988 0
M  V30 3334 H 309.981 -5.57311 -2.51424 0
M  V30 3335 H 314.155 -6.5494 -2.36699 0
M  V30 3336 H 311.782 -7.25388 -2.27412 0
M  V30 3337 N 313.357 1.07166 -1.15556 0
M  V30 3338 C 314.634 1.76546 -0.842069 0
M  V30 3339 C 315.014 2.00453 0.661939 0
M  V30 3340 O 314.362 1.62452 1.60691 0
M  V30 3341 C 314.572 3.07266 -1.65495 0
M  V30 3342 C 315.92 3.81578 -1.86234 0
M  V30 3343 O 316.944 3.17083 -1.62287 0
M  V30 3344 O 315.803 4.97419 -2.26355 0
M  V30 3345 H 312.897 0.766756 -0.309862 0
M  V30 3346 H 315.443 1.13514 -1.26145 0
M  V30 3347 H 314.215 2.85494 -2.67598 0
M  V30 3348 H 313.838 3.7803 -1.23203 0
M  V30 3349 N 314.835 0.952656 1.25548 0
M  V30 3350 C 316.06 0.623025 1.97821 0
M  V30 3351 C 316.485 -0.7976 1.70352 0
M  V30 3352 O 315.843 -1.53905 0.958283 0
M  V30 3353 C 315.891 0.885532 3.49558 0
M  V30 3354 O 314.995 -0.0366641 4.12384 0
M  V30 3355 H 314.336 0.237082 0.620232 0
M  V30 3356 H 316.866 1.27871 1.59719 0
M  V30 3357 H 316.876 0.811009 3.99858 0
M  V30 3358 H 315.551 1.92094 3.6888 0
M  V30 3359 H 314.128 0.0898954 3.72792 0
M  V30 3360 N 316.313 -1.40141 0.720998 0
M  V30 3361 C 317.276 -2.29058 0.0805834 0
M  V30 3362 C 318.276 -1.45632 -0.681758 0
M  V30 3363 O 319.466 -1.6648 -0.512856 0
M  V30 3364 C 316.598 -3.28925 -0.895593 0
M  V30 3365 H 317.791 -2.87191 0.863793 0
M  V30 3366 H 315.344 -1.48553 0.485975 0
M  V30 3367 H 316.079 -2.75822 -1.70566 0
M  V30 3368 H 315.864 -3.90519 -0.351766 0
M  V30 3369 H 317.354 -3.95494 -1.34069 0
M  V30 3370 N 317.792 -0.46758 -1.50504 0
M  V30 3371 C 318.724 0.364655 -2.26281 0
M  V30 3372 C 319.737 0.960151 -1.31472 0
M  V30 3373 O 320.926 0.849153 -1.57008 0
M  V30 3374 C 318.026 1.52509 -3.02645 0
M  V30 3375 C 317.199 1.04302 -4.24782 0
M  V30 3376 C 316.258 2.07709 -4.8347 0
M  V30 3377 O 315.284 1.65913 -5.44483 0
M  V30 3378 N 316.486 3.40485 -4.70159 0
M  V30 3379 H 319.251 -0.28495 -2.98342 0
M  V30 3380 H 316.812 -0.298163 -1.59131 0
M  V30 3381 H 318.804 2.21371 -3.38787 0
M  V30 3382 H 317.374 2.07945 -2.33404 0
M  V30 3383 H 316.594 0.180393 -3.93787 0
M  V30 3384 H 317.882 0.698798 -5.03978 0
M  V30 3385 H 317.28 3.77155 -4.21629 0
M  V30 3386 H 315.837 4.05156 -5.1058 0
M  V30 3387 N 319.27 1.56325 -0.20005 0
M  V30 3388 C 320.518 1.97329 0.436547 0
M  V30 3389 C 320.839 1.08826 1.61808 0
M  V30 3390 O 320.109 0.160604 1.95241 0
M  V30 3391 H 318.689 0.728714 0.164272 0
M  V30 3392 H 321.351 1.92761 -0.287937 0
M  V30 3393 H 320.447 3.02264 0.777353 0
M  V30 3394 N 320.748 -0.0735177 1.57428 0
M  V30 3395 C 321.696 -1.10628 2.04607 0
M  V30 3396 C 322.69 -1.40181 0.951088 0
M  V30 3397 O 323.896 -1.39608 1.1362 0
M  V30 3398 H 320.271 -0.374088 0.652351 0
M  V30 3399 H 322.242 -0.682218 2.90497 0
M  V30 3400 C 320.991 -2.41212 2.50423 0
M  V30 3401 H 320.314 -2.19322 3.34272 0
M  V30 3402 H 321.754 -3.11927 2.87189 0
M  V30 3403 C 320.213 -3.0705 1.38644 0
M  V30 3404 O 320.743 -3.95056 0.727582 0
M  V30 3405 N 318.949 -2.67645 1.132 0
M  V30 3406 H 318.496 -1.96169 1.66959 0
M  V30 3407 H 318.454 -3.1202 0.386147 0
M  V30 3408 N 322.226 -1.5378 -0.344866 0
M  V30 3409 C 323.637 -1.62428 -0.920552 0
M  V30 3410 C 323.988 -0.504747 -1.89596 0
M  V30 3411 O 323.113 0.365711 -2.13287 0
M  V30 3412 C 323.708 -2.94419 -1.67639 0
M  V30 3413 C 322.267 -3.05333 -2.20111 0
M  V30 3414 C 321.414 -2.57866 -1.01982 0
M  V30 3415 H 324.365 -1.58222 -0.123042 0
M  V30 3416 H 324.386 -2.83384 -2.53917 0
M  V30 3417 H 323.898 -3.7588 -0.966224 0
M  V30 3418 H 321.999 -2.28502 -2.94308 0
M  V30 3419 H 322.112 -4.10778 -2.46573 0
M  V30 3420 H 320.476 -2.13241 -1.39285 0
M  V30 3421 H 321.259 -3.41765 -0.324308 0
M  V30 3422 N 323.704 0.605807 -1.45491 0
M  V30 3423 C 324.652 1.73754 -1.54636 0
M  V30 3424 C 325.646 1.64207 -0.416219 0
M  V30 3425 O 326.852 1.69979 -0.592199 0
M  V30 3426 H 323.227 0.574073 -0.485741 0
M  V30 3427 H 325.198 1.63169 -2.49837 0
M  V30 3428 C 323.947 3.12135 -1.53189 0
M  V30 3429 H 323.27 3.20141 -2.39478 0
M  V30 3430 H 324.71 3.91147 -1.63645 0
M  V30 3431 C 323.169 3.35921 -0.256616 0
M  V30 3432 O 323.699 3.96194 0.662798 0
M  V30 3433 N 321.905 2.90204 -0.151751 0
M  V30 3434 H 321.452 2.41336 -0.90081 0
M  V30 3435 H 321.41 3.06492 0.700699 0
M  V30 3436 N 325.182 1.32811 0.848464 0
M  V30 3437 C 326.092 1.24278 1.98978 0
M  V30 3438 C 327.108 0.155176 1.73307 0
M  V30 3439 O 328.284 0.376999 1.9784 0
M  V30 3440 C 325.349 0.972444 3.32783 0
M  V30 3441 C 324.41 2.14911 3.71634 0
M  V30 3442 C 323.643 1.89157 4.99054 0
M  V30 3443 O 323.866 0.837165 5.64223 0
M  V30 3444 O 322.8 2.75433 5.35183 0
M  V30 3445 H 326.626 2.20238 2.09115 0
M  V30 3446 H 324.211 1.12762 0.980052 0
M  V30 3447 H 326.093 0.838432 4.12975 0
M  V30 3448 H 324.768 0.043051 3.23671 0
M  V30 3449 H 323.675 2.33862 2.91992 0
M  V30 3450 H 325.008 3.06151 3.85399 0
M  V30 3451 N 326.66 -1.06551 1.16123 0
M  V30 3452 C 327.57 -2.17484 0.879662 0
M  V30 3453 C 328.586 -1.73377 -0.147104 0
M  V30 3454 O 329.762 -2.01379 0.0289128 0
M  V30 3455 C 326.827 -3.44591 0.381829 0
M  V30 3456 C 325.888 -4.0322 1.4735 0
M  V30 3457 C 325.121 -5.24261 0.999324 0
M  V30 3458 O 325.344 -5.70198 -0.151957 0
M  V30 3459 O 324.278 -5.74775 1.78653 0
M  V30 3460 H 328.104 -2.44075 1.80724 0
M  V30 3461 H 325.689 -1.16042 0.940992 0
M  V30 3462 H 327.571 -4.21254 0.111053 0
M  V30 3463 H 326.246 -3.19532 -0.51777 0
M  V30 3464 H 325.153 -3.2806 1.79798 0
M  V30 3465 H 326.486 -4.32568 2.34831 0
M  V30 3466 N 328.138 -0.959301 -1.25041 0
M  V30 3467 C 329.384 -0.617525 -1.9317 0
M  V30 3468 C 329.717 0.843981 -1.74902 0
M  V30 3469 O 328.992 1.60615 -1.09696 0
M  V30 3470 C 329.275 -0.982736 -3.46431 0
M  V30 3471 C 329.128 -2.50032 -3.73904 0
M  V30 3472 C 330.447 -0.511176 -4.37121 0
M  V30 3473 H 327.566 -0.22582 -0.701552 0
M  V30 3474 H 330.208 -1.19679 -1.4757 0
M  V30 3475 H 328.358 -0.489806 -3.854 0
M  V30 3476 H 330.03 -3.06737 -3.44544 0
M  V30 3477 H 328.273 -2.93598 -3.19348 0
M  V30 3478 H 328.944 -2.70635 -4.81103 0
M  V30 3479 H 331.42 -0.934075 -4.0548 0
M  V30 3480 H 330.296 -0.795361 -5.43107 0
M  V30 3481 H 330.557 0.588834 -4.38161 0
M  V30 3482 N 329.616 1.39756 -0.72842 0
M  V30 3483 C 330.579 2.29012 -0.0927297 0
M  V30 3484 C 331.579 1.45992 0.674025 0
M  V30 3485 O 332.769 1.66749 0.50402 0
M  V30 3486 C 329.901 3.29396 0.878137 0
M  V30 3487 H 331.094 2.86729 -0.879011 0
M  V30 3488 H 328.647 1.48293 -0.493847 0
M  V30 3489 H 329.382 2.76722 1.69101 0
M  V30 3490 H 329.167 3.907 0.331051 0
M  V30 3491 H 330.657 3.96199 1.3197 0
M  V30 3492 N 331.094 0.475555 1.50254 0
M  V30 3493 C 332.041 -0.316293 2.28622 0
M  V30 3494 C 333.011 -0.983227 1.33873 0
M  V30 3495 O 334.196 -0.994805 1.62814 0
M  V30 3496 C 331.336 -1.38975 3.1588 0
M  V30 3497 C 330.449 -0.737146 4.25664 0
M  V30 3498 C 329.584 -1.78887 5.00173 0
M  V30 3499 C 328.623 -1.11676 6.01826 0
M  V30 3500 N 327.76 -2.11154 6.69596 0
M  V30 3501 H 332.6 0.358297 2.95838 0
M  V30 3502 H 330.137 0.188541 1.45887 0
M  V30 3503 H 332.095 -2.02383 3.64825 0
M  V30 3504 H 330.725 -2.03344 2.50701 0
M  V30 3505 H 329.777 0.0096065 3.80399 0
M  V30 3506 H 331.089 -0.206816 4.98371 0
M  V30 3507 H 330.243 -2.49865 5.52859 0
M  V30 3508 H 328.982 -2.35302 4.27182 0
M  V30 3509 H 327.987 -0.392633 5.48396 0
M  V30 3510 H 329.212 -0.55945 6.76792 0
M  V30 3511 H 327.158 -2.66577 5.99394 0
M  V30 3512 H 327.075 -1.63118 7.38193 0
M  V30 3513 H 328.343 -2.81497 7.26897 0
M  V30 3514 N 332.573 -1.56217 0.208337 0
M  V30 3515 C 333.82 -1.97949 -0.42692 0
M  V30 3516 C 334.148 -1.09562 -1.60706 0
M  V30 3517 O 333.403 -0.137616 -1.95216 0
M  V30 3518 C 333.702 -3.45441 -0.916797 0
M  V30 3519 C 333.368 -4.50646 0.151391 0
M  V30 3520 C 332.03 -4.79139 0.444867 0
M  V30 3521 C 334.382 -5.13811 0.874492 0
M  V30 3522 C 331.71 -5.68084 1.46619 0
M  V30 3523 C 334.062 -6.03861 1.88506 0
M  V30 3524 C 332.726 -6.30704 2.18559 0
M  V30 3525 H 331.996 -0.724345 -0.156221 0
M  V30 3526 H 334.643 -1.89006 0.308084 0
M  V30 3527 H 332.948 -3.51521 -1.73032 0
M  V30 3528 H 334.645 -3.75094 -1.41794 0
M  V30 3529 H 331.235 -4.28511 -0.0875068 0
M  V30 3530 H 335.419 -4.91879 0.660996 0
M  V30 3531 H 330.675 -5.87151 1.7048 0
M  V30 3532 H 334.849 -6.51861 2.45051 0
M  V30 3533 H 332.476 -6.99424 2.97843 0
M  V30 3534 N 334.051 0.0651679 -1.57465 0
M  V30 3535 C 335.281 0.774683 -1.91526 0
M  V30 3536 C 335.689 1.71305 -0.803196 0
M  V30 3537 O 335.032 1.82231 0.231881 0
M  V30 3538 C 335.094 1.61645 -3.21109 0
M  V30 3539 C 334.758 0.846753 -4.49087 0
M  V30 3540 C 335.755 0.163024 -5.19644 0
M  V30 3541 C 333.44 0.811966 -4.95694 0
M  V30 3542 C 335.434 -0.54519 -6.35064 0
M  V30 3543 C 333.121 0.0999836 -6.11018 0
M  V30 3544 C 334.119 -0.577388 -6.80555 0
M  V30 3545 O 333.807 -1.27789 -7.93678 0
M  V30 3546 H 333.539 0.225031 -0.637446 0
M  V30 3547 H 336.093 0.0377134 -2.05365 0
M  V30 3548 H 334.323 2.39638 -3.03497 0
M  V30 3549 H 336.012 2.20525 -3.40769 0
M  V30 3550 H 336.778 0.181163 -4.84662 0
M  V30 3551 H 332.657 1.32867 -4.41438 0
M  V30 3552 H 336.201 -1.07446 -6.89276 0
M  V30 3553 H 332.098 0.0797945 -6.45451 0
M  V30 3554 H 332.866 -1.18784 -8.09835 0
M  V30 3555 N 335.529 1.53961 0.336706 0
M  V30 3556 C 336.492 1.81724 1.39675 0
M  V30 3557 C 337.492 0.688532 1.45313 0
M  V30 3558 O 338.682 0.956829 1.45569 0
M  V30 3559 C 335.814 1.96543 2.78538 0
M  V30 3560 H 337.007 2.76424 1.16318 0
M  V30 3561 H 334.56 1.45478 0.571474 0
M  V30 3562 H 335.295 1.0401 3.07168 0
M  V30 3563 H 335.08 2.78665 2.75841 0
M  V30 3564 H 336.57 2.19516 3.5525 0
M  V30 3565 N 337.007 -0.598083 1.45811 0
M  V30 3566 C 337.97 -1.69018 1.54808 0
M  V30 3567 C 338.97 -1.55037 0.426652 0
M  V30 3568 O 340.16 -1.59932 0.690456 0
M  V30 3569 C 337.292 -3.0835 1.45371 0
M  V30 3570 H 338.485 -1.62403 2.52121 0
M  V30 3571 H 336.038 -0.814626 1.33392 0
M  V30 3572 H 336.773 -3.20534 0.492793 0
M  V30 3573 H 336.558 -3.19907 2.26721 0
M  V30 3574 H 338.048 -3.8788 1.54721 0
M  V30 3575 N 338.485 -1.33259 -0.841409 0
M  V30 3576 C 339.448 -1.23221 -1.9326 0
M  V30 3577 C 340.448 -0.151895 -1.60081 0
M  V30 3578 O 341.638 -0.403246 -1.69468 0
M  V30 3579 C 338.77 -0.898123 -3.28856 0
M  V30 3580 H 339.963 -2.2021 -2.03587 0
M  V30 3581 H 337.516 -1.17281 -1.03319 0
M  V30 3582 H 338.251 0.0693841 -3.24226 0
M  V30 3583 H 338.036 -1.67934 -3.54317 0
M  V30 3584 H 339.526 -0.852563 -4.08805 0
M  V30 3585 N 339.963 1.05934 -1.16686 0
M  V30 3586 C 340.896 2.1295 -0.820225 0
M  V30 3587 C 341.874 1.61242 0.209722 0
M  V30 3588 O 343.058 1.88271 0.0929688 0
M  V30 3589 C 340.185 3.3797 -0.22223 0
M  V30 3590 C 339.231 4.08488 -1.22637 0
M  V30 3591 S 340.064 4.58015 -2.77457 0
M  V30 3592 C 341.22 5.86292 -2.19117 0
M  V30 3593 H 341.453 2.42025 -1.72659 0
M  V30 3594 H 338.986 1.18423 -0.990722 0
M  V30 3595 H 340.944 4.10335 0.116322 0
M  V30 3596 H 339.605 3.07045 0.66196 0
M  V30 3597 H 338.798 4.98291 -0.756455 0
M  V30 3598 H 338.4 3.42154 -1.51019 0
M  V30 3599 H 340.692 6.59246 -1.56209 0
M  V30 3600 H 341.635 6.38019 -3.07144 0
M  V30 3601 H 342.043 5.40497 -1.62858 0
M  V30 3602 N 341.441 0.965919 1.2453 0
M  V30 3603 C 342.389 0.486506 2.27455 0
M  V30 3604 C 343.383 -0.449041 1.6334 0
M  V30 3605 O 344.589 -0.324527 1.7705 0
M  V30 3606 H 340.964 0.138857 0.739069 0
M  V30 3607 H 342.935 1.3666 2.65267 0
M  V30 3608 C 341.684 -0.209481 3.47068 0
M  V30 3609 H 341.007 0.50129 3.96645 0
M  V30 3610 H 342.447 -0.508775 4.20936 0
M  V30 3611 C 340.906 -1.43586 3.0477 0
M  V30 3612 O 341.436 -2.53299 3.11773 0
M  V30 3613 N 339.642 -1.30126 2.59838 0
M  V30 3614 H 339.189 -0.408583 2.54339 0
M  V30 3615 H 339.147 -2.12294 2.31902 0
M  V30 3616 N 342.919 -1.39368 0.735821 0
M  V30 3617 C 343.882 -2.2896 0.104874 0
M  V30 3618 C 344.882 -1.46347 -0.666274 0
M  V30 3619 O 346.072 -1.67014 -0.49517 0
M  V30 3620 C 343.204 -3.29857 -0.860656 0
M  V30 3621 H 344.397 -2.86259 0.894205 0
M  V30 3622 H 341.95 -1.48029 0.501704 0
M  V30 3623 H 342.685 -2.77615 -1.67631 0
M  V30 3624 H 342.47 -3.9087 -0.310327 0
M  V30 3625 H 343.96 -3.96893 -1.29867 0
M  V30 3626 N 344.397 -0.483516 -1.5 0
M  V30 3627 C 345.645 0.067027 -2.01989 0
M  V30 3628 C 345.966 1.3909 -1.36671 0
M  V30 3629 O 345.236 1.88978 -0.516152 0
M  V30 3630 H 343.816 0.0277606 -0.746484 0
M  V30 3631 H 346.478 -0.636773 -1.84204 0
M  V30 3632 H 345.574 0.209484 -3.11396 0
M  V30 3633 N 345.875 1.56104 -0.216619 0
M  V30 3634 C 346.838 2.18819 0.681962 0
M  V30 3635 C 347.838 1.14866 1.12528 0
M  V30 3636 O 349.028 1.40128 1.03488 0
M  V30 3637 C 346.16 2.80756 1.93362 0
M  V30 3638 H 347.353 2.99595 0.135254 0
M  V30 3639 H 344.906 1.56265 0.0330003 0
M  V30 3640 H 345.641 2.03837 2.52232 0
M  V30 3641 H 345.426 3.56876 1.62426 0
M  V30 3642 H 346.916 3.28844 2.57393 0
M  V30 3643 N 347.353 -0.0568162 1.57498 0
M  V30 3644 C 348.764 -0.606858 1.76562 0
M  V30 3645 C 349.115 -1.77114 0.844094 0
M  V30 3646 O 348.24 -2.16376 0.0318911 0
M  V30 3647 C 348.835 -1.10766 3.20182 0
M  V30 3648 C 347.394 -1.60344 3.40539 0
M  V30 3649 C 346.541 -0.529311 2.72201 0
M  V30 3650 H 349.492 0.169393 1.57793 0
M  V30 3651 H 349.513 -1.97602 3.25167 0
M  V30 3652 H 349.025 -0.26006 3.87228 0
M  V30 3653 H 347.126 -2.47379 2.78629 0
M  V30 3654 H 347.239 -1.67006 4.4905 0
M  V30 3655 H 345.603 -0.977893 2.35179 0
M  V30 3656 H 346.386 0.308352 3.41912 0
M  V30 3657 N 348.832 -1.54138 -0.328536 0
M  V30 3658 C 350.057 -1.76378 -1.09112 0
M  V30 3659 C 350.482 -0.508596 -1.81094 0
M  V30 3660 O 349.84 0.539598 -1.73084 0
M  V30 3661 C 349.888 -2.95358 -2.06872 0
M  V30 3662 O 348.992 -2.66556 -3.14677 0
M  V30 3663 H 348.333 -0.584614 -0.314838 0
M  V30 3664 H 350.863 -2.01146 -0.374348 0
M  V30 3665 H 350.873 -3.22566 -2.4983 0
M  V30 3666 H 349.548 -3.86385 -1.5388 0
M  V30 3667 H 348.125 -2.50282 -2.7643 0
M  V30 3668 N 350.31 0.590341 -1.46126 0
M  V30 3669 C 351.726 0.912917 -1.30912 0
M  V30 3670 C 351.926 1.99616 -0.274893 0
M  V30 3671 O 350.982 2.50397 0.325197 0
M  V30 3672 C 352.295 1.3375 -2.69317 0
M  V30 3673 C 353.843 1.45077 -2.77348 0
M  V30 3674 C 354.318 1.90904 -4.16317 0
M  V30 3675 N 355.809 1.9811 -4.18696 0
M  V30 3676 C 356.544 2.34828 -5.23109 0
M  V30 3677 N 356.04 2.70393 -6.37856 0
M  V30 3678 N 357.833 2.35317 -5.10473 0
M  V30 3679 H 349.984 -0.125358 -2.1203 0
M  V30 3680 H 352.247 0.00658481 -0.947977 0
M  V30 3681 H 351.953 0.615614 -3.4627 0
M  V30 3682 H 351.827 2.30058 -2.9892 0
M  V30 3683 H 354.214 2.16353 -2.00687 0
M  V30 3684 H 354.295 0.4704 -2.51438 0
M  V30 3685 H 353.939 1.20209 -4.9347 0
M  V30 3686 H 353.869 2.89886 -4.39629 0
M  V30 3687 H 356.36 1.73146 -3.359 0
M  V30 3688 H 356.673 2.97341 -7.13308 0
M  V30 3689 H 355.018 2.68048 -6.41229 0
M  V30 3690 H 358.209 2.0695 -4.19868 0
M  V30 3691 H 358.382 2.63605 -5.9196 0
M  V30 3692 N 351.788 1.33704 0.83433 0
M  V30 3693 C 353.036 1.25169 1.58673 0
M  V30 3694 C 353.357 -0.18127 1.94156 0
M  V30 3695 O 352.627 -1.11113 1.6134 0
M  V30 3696 H 351.207 0.4603 0.58833 0
M  V30 3697 H 353.869 1.67478 0.996847 0
M  V30 3698 H 352.965 1.84856 2.51465 0
M  V30 3699 N 353.266 -1.05314 1.17247 0
M  V30 3700 C 354.515 -1.77685 0.954521 0
M  V30 3701 C 354.828 -1.88616 -0.518025 0
M  V30 3702 O 356.034 -2.57714 -0.854144 0
M  V30 3703 C 354.49 -3.19402 1.65863 0
M  V30 3704 C 354.098 -3.16605 3.16963 0
M  V30 3705 C 355.842 -3.96237 1.52303 0
M  V30 3706 C 353.749 -4.53103 3.80068 0
M  V30 3707 H 352.679 -0.666 0.353496 0
M  V30 3708 H 355.33 -1.1805 1.40486 0
M  V30 3709 H 353.712 -3.79355 1.13602 0
M  V30 3710 H 354.886 -2.66176 3.76148 0
M  V30 3711 H 353.201 -2.53268 3.30521 0
M  V30 3712 H 355.798 -4.97157 1.96822 0
M  V30 3713 H 356.141 -4.136 0.473401 0
M  V30 3714 H 356.674 -3.42829 2.01775 0
M  V30 3715 H 353.413 -4.40946 4.85023 0
M  V30 3716 H 352.933 -5.03686 3.2567 0
M  V30 3717 H 354.612 -5.22045 3.82202 0
M  V30 3718 N 354.744 -0.972509 -1.24016 0
M  V30 3719 C 355.993 -0.632603 -1.91523 0
M  V30 3720 C 356.306 0.836641 -1.76804 0
M  V30 3721 O 357.512 1.28728 -2.39043 0
M  V30 3722 C 355.968 -1.08082 -3.43287 0
M  V30 3723 C 355.576 -2.57386 -3.66683 0
M  V30 3724 C 357.32 -0.814288 -4.16617 0
M  V30 3725 C 355.227 -2.95915 -5.12043 0
M  V30 3726 H 354.157 -0.232898 -0.717129 0
M  V30 3727 H 356.808 -1.17936 -1.40582 0
M  V30 3728 H 355.19 -0.462339 -3.93292 0
M  V30 3729 H 356.364 -3.24405 -3.27258 0
M  V30 3730 H 354.679 -2.81701 -3.06649 0
M  V30 3731 H 357.276 -1.0781 -5.23718 0
M  V30 3732 H 357.619 0.24955 -4.15551 0
M  V30 3733 H 358.152 -1.39397 -3.72577 0
M  V30 3734 H 354.891 -4.0139 -5.18234 0
M  V30 3735 H 354.411 -2.33584 -5.52448 0
M  V30 3736 H 356.09 -2.86086 -5.80314 0
M  V30 3737 N 356.222 1.38976 -0.743202 0
M  V30 3738 C 357.499 1.94351 -0.220705 0
M  V30 3739 C 357.879 1.67935 1.2791 0
M  V30 3740 O 357.227 1.01211 2.04862 0
M  V30 3741 C 357.437 3.44426 -0.563171 0
M  V30 3742 C 358.785 4.2144 -0.517046 0
M  V30 3743 O 359.809 3.52661 -0.500846 0
M  V30 3744 O 358.668 5.44032 -0.518806 0
M  V30 3745 H 355.762 0.825879 -0.043047 0
M  V30 3746 H 358.308 1.48429 -0.822618 0
M  V30 3747 H 357.08 3.5712 -1.59941 0
M  V30 3748 H 356.703 3.97543 0.0672883 0
M  V30 3749 N 357.7 0.491464 1.49741 0
M  V30 3750 C 358.925 -0.0557177 2.07325 0
M  V30 3751 C 359.35 -1.30925 1.35056 0
M  V30 3752 O 358.708 -1.76733 0.404365 0
M  V30 3753 C 358.756 -0.302074 3.59333 0
M  V30 3754 O 357.86 -1.37868 3.88672 0
M  V30 3755 H 357.201 0.0219956 0.663636 0
M  V30 3756 H 359.731 0.688352 1.92673 0
M  V30 3757 H 359.741 -0.536464 4.04458 0
M  V30 3758 H 358.416 0.61383 4.11345 0
M  V30 3759 H 356.993 -1.12999 3.55367 0
M  V30 3760 O 359.217 -1.57286 0.366498 0
M  V30 3761 H 359.908 -1.92825 -0.183877 0
M  V30 END ATOM
M  V30 BEGIN BOND
M  V30 END BOND
M  V30 END CTAB
M  END
$$$$
