drugbank_target|P41597 C-C chemokine receptor type 2 (DB05130; DB05159; DB12520)
 OpenBabel12092120313D

  0  0  0     0  0            999 V3000
M  V30 BEGIN CTAB
M  V30 COUNTS 6003 6076 0 0 0
M  V30 BEGIN ATOM
M  V30 1 H -0.908 1.98254 -0.117106 0
M  V30 2 N 0 1.576 0 0
M  V30 3 C 0.933 2.03868 1.02534 0
M  V30 4 C 1.911 0.928543 1.3348 0
M  V30 5 O 3.095 1.19667 1.45644 0
M  V30 6 C 0.222 2.43627 2.35294 0
M  V30 7 C -0.732 3.65373 2.2001 0
M  V30 8 S 0.101 5.13292 1.52614 0
M  V30 9 C 1.257 5.56322 2.86805 0
M  V30 10 H 1.49 2.90518 0.631377 0
M  V30 11 H -0.977 1.52953 0.210867 0
M  V30 12 H 0.981 2.67203 3.11629 0
M  V30 13 H -0.358 1.57376 2.7183 0
M  V30 14 H -1.165 3.90944 3.18086 0
M  V30 15 H -1.563 3.418 1.51819 0
M  V30 16 H 0.729 5.58782 3.83104 0
M  V30 17 H 1.672 6.56266 2.65933 0
M  V30 18 H 2.08 4.83886 2.90714 0
M  V30 19 N 1.4781 -0.272755 1.55222 0
M  V30 20 C 2.4081 -1.34136 1.91127 0
M  V30 21 C 3.3891 -1.51513 0.773168 0
M  V30 22 O 4.5741 -1.64552 1.03132 0
M  V30 23 C 1.7041 -2.70083 2.1834 0
M  V30 24 C 0.6581 -2.67437 3.34158 0
M  V30 25 C -0.0159 -4.06938 3.46851 0
M  V30 26 C 1.2841 -2.26686 4.70543 0
M  V30 27 H 2.9781 -1.04333 2.80633 0
M  V30 28 H 0.5241 -0.500454 1.35024 0
M  V30 29 H 2.4771 -3.44952 2.42046 0
M  V30 30 H 1.2011 -3.01469 1.25634 0
M  V30 31 H -0.1399 -1.95026 3.1042 0
M  V30 32 H -0.4919 -4.35547 2.51611 0
M  V30 33 H -0.7919 -4.06062 4.2472 0
M  V30 34 H 0.7321 -4.83545 3.72849 0
M  V30 35 H 2.1461 -2.91277 4.93792 0
M  V30 36 H 0.5431 -2.36971 5.5133 0
M  V30 37 H 1.6131 -1.21818 4.69349 0
M  V30 38 N 2.9562 -1.48159 -0.537278 0
M  V30 39 C 4.1812 -1.59707 -1.32319 0
M  V30 40 C 4.6062 -0.254859 -1.86365 0
M  V30 41 O 3.9642 0.772378 -1.64024 0
M  V30 42 C 4.0122 -2.6412 -2.45505 0
M  V30 43 O 3.1162 -2.20774 -3.48328 0
M  V30 44 H 2.4572 -0.535791 -0.392204 0
M  V30 45 H 4.9872 -1.94092 -0.647268 0
M  V30 46 H 4.9972 -2.85166 -2.91795 0
M  V30 47 H 3.6722 -3.61567 -2.05528 0
M  V30 48 H 2.2492 -2.09911 -3.08207 0
M  V30 49 N 4.4343 0.785586 -1.36625 0
M  V30 50 C 5.6623 1.57448 -1.3423 0
M  V30 51 C 6.0773 1.88649 0.0755653 0
M  V30 52 O 5.4343 1.50414 1.03354 0
M  V30 53 C 5.4853 2.89316 -2.16745 0
M  V30 54 O 5.2063 2.59459 -3.53005 0
M  V30 55 C 6.7073 3.83606 -2.22174 0
M  V30 56 H 3.9273 0.488226 -0.4603 0
M  V30 57 H 6.4713 0.974733 -1.79775 0
M  V30 58 H 4.6263 3.4575 -1.74745 0
M  V30 59 H 5.0403 3.43804 -3.96105 0
M  V30 60 H 6.5143 4.73181 -2.8426 0
M  V30 61 H 6.9913 4.21734 -1.22627 0
M  V30 62 H 7.5973 3.33104 -2.64427 0
M  V30 63 N 5.9124 1.20967 1.01018 0
M  V30 64 C 7.1374 1.0503 1.78839 0
M  V30 65 C 7.5624 -0.395752 1.8389 0
M  V30 66 O 6.9204 -1.28529 1.27867 0
M  V30 67 C 6.9684 1.64602 3.2084 0
M  V30 68 O 6.0724 0.887988 4.02726 0
M  V30 69 H 5.4134 0.369987 0.551367 0
M  V30 70 H 7.9434 1.60399 1.27018 0
M  V30 71 H 7.9534 1.68607 3.71532 0
M  V30 72 H 6.6284 2.69841 3.16479 0
M  V30 73 H 5.2054 0.922648 3.61305 0
M  V30 74 N 7.3905 -1.2043 1.01659 0
M  V30 75 C 8.8065 -1.41852 0.731442 0
M  V30 76 C 9.0065 -1.89358 -0.688898 0
M  V30 77 O 8.0625 -2.06247 -1.45666 0
M  V30 78 C 9.3755 -2.44019 1.75714 0
M  V30 79 C 10.9235 -2.57785 1.77527 0
M  V30 80 C 11.3985 -3.63194 2.79023 0
M  V30 81 N 12.8895 -3.70678 2.77763 0
M  V30 82 C 13.6245 -4.51897 3.52954 0
M  V30 83 N 13.1205 -5.36921 4.37821 0
M  V30 84 N 14.9135 -4.4643 3.41551 0
M  V30 85 H 7.0645 -0.879093 1.93354 0
M  V30 86 H 9.3275 -0.448425 0.835236 0
M  V30 87 H 9.0335 -2.1611 2.77469 0
M  V30 88 H 8.9075 -3.43007 1.56927 0
M  V30 89 H 11.2945 -2.85023 0.764569 0
M  V30 90 H 11.3755 -1.58992 2.00387 0
M  V30 91 H 11.0195 -3.36699 3.80258 0
M  V30 92 H 10.9495 -4.61609 2.53425 0
M  V30 93 H 13.4405 -3.09944 2.16201 0
M  V30 94 H 13.7535 -5.95981 4.91962 0
M  V30 95 H 12.0985 -5.36424 4.41899 0
M  V30 96 H 15.2895 -3.79042 2.74672 0
M  V30 97 H 15.4625 -5.09491 4.00404 0
M  V30 98 N 8.8686 -0.792821 -1.36206 0
M  V30 99 C 10.0936 -0.377701 -2.03932 0
M  V30 100 C 10.5186 0.998947 -1.59382 0
M  V30 101 O 9.8766 1.64421 -0.763903 0
M  V30 102 C 9.9246 -0.453635 -3.57735 0
M  V30 103 O 9.0286 0.538151 -4.08874 0
M  V30 104 H 8.3696 -0.159855 -0.644471 0
M  V30 105 H 10.8996 -1.07488 -1.7409 0
M  V30 106 H 10.9096 -0.318464 -4.06755 0
M  V30 107 H 9.5846 -1.45784 -3.89512 0
M  V30 108 H 8.1616 0.364359 -3.71116 0
M  V30 109 N 10.3467 1.47872 -0.545128 0
M  V30 110 C 11.7627 1.5829 -0.204032 0
M  V30 111 C 11.9627 1.54529 1.29317 0
M  V30 112 O 11.0187 1.44232 2.07252 0
M  V30 113 C 12.3317 2.89304 -0.819987 0
M  V30 114 C 13.8797 3.02864 -0.790105 0
M  V30 115 C 14.3547 4.3656 -1.38491 0
M  V30 116 N 15.8457 4.43165 -1.34755 0
M  V30 117 C 16.5807 5.45153 -1.77753 0
M  V30 118 N 16.0767 6.54016 -2.2855 0
M  V30 119 N 17.8697 5.36125 -1.68897 0
M  V30 120 H 10.0207 1.4856 -1.51802 0
M  V30 121 H 12.2837 0.706305 -0.632327 0
M  V30 122 H 11.9897 2.97757 -1.87173 0
M  V30 123 H 11.8637 3.75957 -0.305915 0
M  V30 124 H 14.2507 2.94014 0.252913 0
M  V30 125 H 14.3317 2.17782 -1.34181 0
M  V30 126 H 13.9757 4.46164 -2.42693 0
M  V30 127 H 13.9057 5.20353 -0.808754 0
M  V30 128 H 16.3967 3.65083 -0.975855 0
M  V30 129 H 16.7097 7.27994 -2.59314 0
M  V30 130 H 15.0547 6.54938 -2.32553 0
M  V30 131 H 18.2457 4.49975 -1.28998 0
M  V30 132 H 18.4187 6.15472 -2.02726 0
M  V30 133 N 11.8248 0.280983 1.55075 0
M  V30 134 C 13.0718 -0.334115 1.99725 0
M  V30 135 C 13.3998 -1.5542 1.1694 0
M  V30 136 O 12.6548 -1.94361 0.228531 0
M  V30 137 C 12.9538 -0.754656 3.49342 0
M  V30 138 C 12.6198 0.361445 4.49449 0
M  V30 139 C 11.2818 0.667893 4.76542 0
M  V30 140 C 13.6338 1.11322 5.09173 0
M  V30 141 C 10.9618 1.7296 5.60626 0
M  V30 142 C 13.3138 2.1647 5.9441 0
M  V30 143 C 11.9778 2.47742 6.19822 0
M  V30 144 H 11.2478 -0.122261 0.730844 0
M  V30 145 H 13.8948 0.395917 1.87363 0
M  V30 146 H 12.1998 -1.56446 3.5921 0
M  V30 147 H 13.8968 -1.24142 3.813 0
M  V30 148 H 10.4868 0.112481 4.28452 0
M  V30 149 H 14.6708 0.88973 4.8826 0
M  V30 150 H 9.9268 1.97684 5.78559 0
M  V30 151 H 14.1008 2.75193 6.3972 0
M  V30 152 H 11.7278 3.30145 6.84769 0
M  V30 153 N 13.3029 -1.57598 0.00835791 0
M  V30 154 C 14.5519 -1.90107 -0.673968 0
M  V30 155 C 14.8649 -0.884275 -1.7447 0
M  V30 156 O 16.0709 -1.09987 -2.48224 0
M  V30 157 C 14.5269 -3.37497 -1.24995 0
M  V30 158 C 14.1349 -4.47491 -0.2136 0
M  V30 159 C 15.8789 -3.79104 -1.90999 0
M  V30 160 C 13.7859 -5.85963 -0.80005 0
M  V30 161 H 12.7159 -0.709393 -0.255495 0
M  V30 162 H 15.3669 -1.83365 0.0702693 0
M  V30 163 H 13.7489 -3.39102 -2.04513 0
M  V30 164 H 14.9229 -4.57414 0.557596 0
M  V30 165 H 13.2379 -4.14956 0.346474 0
M  V30 166 H 15.8349 -4.79901 -2.35795 0
M  V30 167 H 16.1779 -3.1306 -2.74407 0
M  V30 168 H 16.7109 -3.79833 -1.18203 0
M  V30 169 H 13.4499 -6.555 -0.00456708 0
M  V30 170 H 12.9699 -5.79687 -1.54021 0
M  V30 171 H 14.6489 -6.33884 -1.29615 0
M  V30 172 N 14.781 0.264519 -1.55364 0
M  V30 173 C 16.197 0.61215 -1.47394 0
M  V30 174 C 16.397 1.89134 -0.695018 0
M  V30 175 O 15.453 2.51563 -0.217275 0
M  V30 176 C 16.766 0.731235 -2.91674 0
M  V30 177 C 18.314 0.82473 -3.01939 0
M  V30 178 C 18.789 0.975522 -4.4749 0
M  V30 179 N 20.28 1.04083 -4.51354 0
M  V30 180 C 21.015 1.17646 -5.61201 0
M  V30 181 N 20.511 1.27874 -6.80896 0
M  V30 182 N 22.304 1.20823 -5.48961 0
M  V30 183 H 14.455 -0.575456 -2.04456 0
M  V30 184 H 16.718 -0.196099 -0.927496 0
M  V30 185 H 16.424 -0.138392 -3.51428 0
M  V30 186 H 16.298 1.60883 -3.41169 0
M  V30 187 H 18.685 1.68482 -2.42276 0
M  V30 188 H 18.766 -0.0776479 -2.55682 0
M  V30 189 H 18.41 0.120058 -5.07758 0
M  V30 190 H 18.34 1.89268 -4.91412 0
M  V30 191 H 20.831 0.973846 -3.65136 0
M  V30 192 H 21.144 1.38081 -7.60364 0
M  V30 193 H 19.489 1.24863 -6.83692 0
M  V30 194 H 22.68 1.12469 -4.54388 0
M  V30 195 H 22.853 1.31049 -6.3461 0
M  V30 196 N 16.2591 1.48442 0.529413 0
M  V30 197 C 17.2071 1.63452 1.65487 0
M  V30 198 C 18.2011 0.500955 1.61823 0
M  V30 199 O 19.4071 0.679695 1.66674 0
M  V30 200 H 15.7821 0.514905 0.548066 0
M  V30 201 H 17.7531 2.57975 1.49971 0
M  V30 202 C 16.5021 1.69196 3.03756 0
M  V30 203 H 15.8251 2.55784 3.07269 0
M  V30 204 H 17.2651 1.83743 3.82119 0
M  V30 205 C 15.7241 0.430765 3.34135 0
M  V30 206 O 16.2541 -0.4561 3.99102 0
M  V30 207 N 14.4601 0.302293 2.89023 0
M  V30 208 H 14.0071 1.02496 2.36331 0
M  V30 209 H 13.9651 -0.540546 3.09718 0
M  V30 210 N 17.7372 -0.778329 1.37039 0
M  V30 211 C 18.9652 -1.56734 1.35063 0
M  V30 212 C 19.3802 -1.88686 -0.0655597 0
M  V30 213 O 18.7372 -1.5096 -1.02554 0
M  V30 214 C 18.7882 -2.88163 2.18276 0
M  V30 215 O 18.5092 -2.57583 3.54376 0
M  V30 216 C 20.0102 -3.82422 2.24206 0
M  V30 217 H 17.2302 -0.485778 0.462883 0
M  V30 218 H 19.7742 -0.965185 1.8029 0
M  V30 219 H 17.9292 -3.44818 1.76576 0
M  V30 220 H 18.3432 -3.41699 3.97922 0
M  V30 221 H 19.8172 -4.71667 2.86765 0
M  V30 222 H 20.2942 -4.21078 1.24861 0
M  V30 223 H 20.9002 -3.31697 2.6619 0
M  V30 224 N 19.2153 -1.21501 -1.00376 0
M  V30 225 C 20.1633 -0.972442 -2.11297 0
M  V30 226 C 21.1573 0.080731 -1.69208 0
M  V30 227 O 22.3633 -0.0707666 -1.79861 0
M  V30 228 H 18.7383 -0.297218 -0.690772 0
M  V30 229 H 20.7093 -1.91394 -2.28934 0
M  V30 230 C 19.4583 -0.555065 -3.43241 0
M  V30 231 H 18.7813 -1.35709 -3.76062 0
M  V30 232 H 20.2213 -0.424664 -4.21868 0
M  V30 233 C 18.6803 0.734147 -3.28804 0
M  V30 234 O 19.2103 1.78937 -3.59645 0
M  V30 235 N 17.4163 0.701133 -2.82015 0
M  V30 236 H 16.9633 -0.157874 -2.57116 0
M  V30 237 H 16.9213 1.56403 -2.72737 0
M  V30 238 N 20.6934 1.19889 -1.02296 0
M  V30 239 C 21.6034 2.26571 -0.608508 0
M  V30 240 C 22.6194 1.70299 0.356964 0
M  V30 241 O 23.7954 2.00235 0.216326 0
M  V30 242 C 20.8604 3.46677 0.0402814 0
M  V30 243 C 19.9214 4.18153 -0.97194 0
M  V30 244 C 19.1544 5.32525 -0.354016 0
M  V30 245 O 19.3774 5.64112 0.844604 0
M  V30 246 O 18.3114 5.92242 -1.07391 0
M  V30 247 H 22.1374 2.64251 -1.49684 0
M  V30 248 H 19.7224 1.26629 -0.792809 0
M  V30 249 H 21.6044 4.19475 0.402324 0
M  V30 250 H 20.2794 3.10858 0.902707 0
M  V30 251 H 19.1864 3.47499 -1.38546 0
M  V30 252 H 20.5194 4.57927 -1.80454 0
M  V30 253 N 22.1715 0.800033 1.35784 0
M  V30 254 C 23.3965 0.388511 2.03729 0
M  V30 255 C 23.8215 -0.990481 1.5991 0
M  V30 256 O 23.1795 -1.64013 0.772612 0
M  V30 257 C 23.2275 0.4726 3.5749 0
M  V30 258 O 22.3315 -0.51646 4.09153 0
M  V30 259 H 21.6725 0.163271 0.643614 0
M  V30 260 H 24.2025 1.0841 1.73518 0
M  V30 261 H 24.2125 0.34003 4.06581 0
M  V30 262 H 22.8875 1.47848 3.88734 0
M  V30 263 H 21.4645 -0.344673 3.71304 0
M  V30 264 N 23.6496 -1.47581 0.552962 0
M  V30 265 C 24.8976 -2.02082 0.0272703 0
M  V30 266 C 25.2186 -1.4301 -1.32563 0
M  V30 267 O 24.4886 -0.603745 -1.86365 0
M  V30 268 H 23.0686 -0.746966 0.00709182 0
M  V30 269 H 25.7306 -1.81033 0.722008 0
M  V30 270 H 24.8266 -3.12034 -0.0639951 0
M  V30 271 N 25.1277 -0.289203 -1.54924 0
M  V30 272 C 26.0377 0.601863 -2.26748 0
M  V30 273 C 27.0537 1.15834 -1.2984 0
M  V30 274 O 28.2297 1.18564 -1.62802 0
M  V30 275 C 25.2947 1.76299 -2.98529 0
M  V30 276 C 24.3557 1.24178 -4.10948 0
M  V30 277 C 23.5887 2.34757 -4.79296 0
M  V30 278 O 23.8117 3.54411 -4.46933 0
M  V30 279 O 22.7457 2.02115 -5.66951 0
M  V30 280 H 26.5717 0.0195879 -3.03694 0
M  V30 281 H 24.1567 -0.0560868 -1.49295 0
M  V30 282 H 26.0387 2.43973 -3.43592 0
M  V30 283 H 24.7137 2.33209 -2.24488 0
M  V30 284 H 23.6207 0.531104 -3.70311 0
M  V30 285 H 24.9537 0.718252 -4.86931 0
M  V30 286 N 26.6058 1.57591 -0.0167156 0
M  V30 287 C 27.5158 2.1291 0.98521 0
M  V30 288 C 28.5318 1.07834 1.36557 0
M  V30 289 O 29.7078 1.39826 1.44951 0
M  V30 290 C 26.7728 2.63512 2.25305 0
M  V30 291 C 25.8338 3.83256 1.93426 0
M  V30 292 C 25.0668 4.31435 3.14165 0
M  V30 293 O 25.2898 3.78851 4.26413 0
M  V30 294 O 24.2238 5.23416 2.97186 0
M  V30 295 H 28.0498 2.98772 0.544888 0
M  V30 296 H 25.6348 1.48012 0.203141 0
M  V30 297 H 27.5168 2.96183 2.99756 0
M  V30 298 H 26.1918 1.8074 2.68542 0
M  V30 299 H 25.0988 3.55531 1.16398 0
M  V30 300 H 26.4318 4.67153 1.55013 0
M  V30 301 N 28.0839 -0.256276 1.55502 0
M  V30 302 C 29.3299 -0.987079 1.77157 0
M  V30 303 C 29.6629 -1.85327 0.580315 0
M  V30 304 O 28.9379 -1.89874 -0.421686 0
M  V30 305 C 29.2209 -1.85553 3.08613 0
M  V30 306 C 29.0739 -1.01816 4.38125 0
M  V30 307 C 30.3929 -2.8397 3.36228 0
M  V30 308 H 27.5119 -0.357428 0.644526 0
M  V30 309 H 30.1539 -0.258239 1.88237 0
M  V30 310 H 28.3039 -2.47695 2.99298 0
M  V30 311 H 29.9759 -0.416159 4.59419 0
M  V30 312 H 28.2189 -0.322178 4.32602 0
M  V30 313 H 28.8899 -1.65939 5.26468 0
M  V30 314 H 31.3659 -2.31964 3.45445 0
M  V30 315 H 30.2419 -3.41864 4.29442 0
M  V30 316 H 30.5029 -3.59955 2.56681 0
M  V30 317 N 29.562 -1.4872 -0.521534 0
M  V30 318 C 30.79 -1.60843 -1.30142 0
M  V30 319 C 31.205 -0.271897 -1.86832 0
M  V30 320 O 30.562 0.739969 -1.66825 0
M  V30 321 C 30.613 -2.66155 -2.4463 0
M  V30 322 O 30.334 -3.94623 -1.90275 0
M  V30 323 C 31.835 -2.88795 -3.36322 0
M  V30 324 H 29.055 -0.542075 -0.395468 0
M  V30 325 H 31.599 -1.94609 -0.628285 0
M  V30 326 H 29.754 -2.35224 -3.07812 0
M  V30 327 H 30.168 -4.52468 -2.65279 0
M  V30 328 H 31.642 -3.66264 -4.12983 0
M  V30 329 H 32.119 -1.97934 -3.9207 0
M  V30 330 H 32.725 -3.21063 -2.78924 0
M  V30 331 N 31.0401 0.771051 -1.3745 0
M  V30 332 C 32.2681 1.56015 -1.35893 0
M  V30 333 C 32.6831 1.88718 0.0555523 0
M  V30 334 O 32.0401 1.51502 1.01752 0
M  V30 335 C 32.0911 2.87001 -2.19801 0
M  V30 336 O 31.8121 2.557 -3.55738 0
M  V30 337 C 33.3131 3.81228 -2.26231 0
M  V30 338 H 30.5331 0.483317 -0.465453 0
M  V30 339 H 33.0771 0.955611 -1.80799 0
M  V30 340 H 31.2321 3.43877 -1.78402 0
M  V30 341 H 31.6461 3.39584 -3.99729 0
M  V30 342 H 33.1201 4.70139 -2.89263 0
M  V30 343 H 33.5971 4.20409 -1.27093 0
M  V30 344 H 34.2031 3.30281 -2.67945 0
M  V30 345 N 32.5182 1.22032 0.997298 0
M  V30 346 C 33.7652 1.04222 1.73621 0
M  V30 347 C 34.0932 -0.423264 1.89839 0
M  V30 348 O 33.3482 -1.3302 1.43542 0
M  V30 349 C 33.6472 1.69345 3.14733 0
M  V30 350 C 33.3132 3.19226 3.18442 0
M  V30 351 C 31.9752 3.60124 3.19161 0
M  V30 352 C 34.3272 4.15181 3.15078 0
M  V30 353 C 31.6552 4.95467 3.14212 0
M  V30 354 C 34.0072 5.50495 3.1167 0
M  V30 355 C 32.6712 5.90779 3.10703 0
M  V30 356 H 31.9412 0.381374 0.635323 0
M  V30 357 H 34.5882 1.51732 1.16831 0
M  V30 358 H 32.8932 1.14147 3.74803 0
M  V30 359 H 34.5902 1.53059 3.7064 0
M  V30 360 H 31.1802 2.86659 3.18629 0
M  V30 361 H 35.3642 3.84605 3.13676 0
M  V30 362 H 30.6202 5.25916 3.11805 0
M  V30 363 H 34.7942 6.24576 3.08022 0
M  V30 364 H 32.4212 6.9562 3.06622 0
M  V30 365 N 33.9963 -1.19345 1.0293 0
M  V30 366 C 35.2433 -1.89038 0.726008 0
M  V30 367 C 35.5713 -1.79649 -0.745427 0
M  V30 368 O 34.8263 -1.18354 -1.55855 0
M  V30 369 C 35.1253 -3.39292 1.12319 0
M  V30 370 C 34.7913 -3.68885 2.59297 0
M  V30 371 C 33.4533 -3.76671 2.99453 0
M  V30 372 C 35.8053 -3.82178 3.54386 0
M  V30 373 C 33.1333 -3.9522 4.33611 0
M  V30 374 C 35.4853 -4.0224 4.88248 0
M  V30 375 C 34.1493 -4.08259 5.28092 0
M  V30 376 H 33.4193 -0.691739 0.265665 0
M  V30 377 H 36.0663 -1.41328 1.29223 0
M  V30 378 H 34.3713 -3.88903 0.475584 0
M  V30 379 H 36.0683 -3.91536 0.866037 0
M  V30 380 H 32.6583 -3.63433 2.27189 0
M  V30 381 H 36.8423 -3.75505 3.24514 0
M  V30 382 H 32.0983 -3.98119 4.64016 0
M  V30 383 H 36.2723 -4.11468 5.61843 0
M  V30 384 H 33.8993 -4.22384 6.32057 0
M  V30 385 N 35.4744 -0.807222 -1.35358 0
M  V30 386 C 36.7514 -0.311126 -1.9311 0
M  V30 387 C 37.1314 1.19937 -1.73719 0
M  V30 388 O 36.4794 1.99918 -1.10657 0
M  V30 389 C 36.6894 -0.723226 -3.41424 0
M  V30 390 C 38.0374 -0.713078 -4.18569 0
M  V30 391 O 39.0614 -0.664811 -3.49941 0
M  V30 392 O 37.9204 -0.772022 -5.41019 0
M  V30 393 H 35.0144 -0.081526 -0.822972 0
M  V30 394 H 37.5604 -0.890962 -1.4443 0
M  V30 395 H 36.3324 -1.76426 -3.4927 0
M  V30 396 H 35.9554 -0.118232 -3.97424 0
M  V30 397 N 36.9525 1.47285 -0.560781 0
M  V30 398 C 38.1825 2.06555 -0.0429638 0
M  V30 399 C 38.5905 1.41339 1.25777 0
M  V30 400 O 37.9335 0.505182 1.76617 0
M  V30 401 C 37.9955 3.58827 0.219887 0
M  V30 402 C 37.6595 4.46105 -0.991944 0
M  V30 403 C 38.6565 4.84 -1.89843 0
M  V30 404 C 36.3415 4.87567 -1.20762 0
M  V30 405 C 38.3355 5.6216 -3.00425 0
M  V30 406 C 36.0225 5.65491 -2.31653 0
M  V30 407 C 37.0205 6.02699 -3.21315 0
M  V30 408 O 36.7085 6.79052 -4.30283 0
M  V30 409 H 36.4405 0.674537 -0.0444468 0
M  V30 410 H 38.9945 1.90225 -0.774818 0
M  V30 411 H 37.2245 3.73383 1.00609 0
M  V30 412 H 38.9135 4.00103 0.683522 0
M  V30 413 H 39.6795 4.52564 -1.74387 0
M  V30 414 H 35.5585 4.5807 -0.518893 0
M  V30 415 H 39.1025 5.9112 -3.70436 0
M  V30 416 H 34.9995 5.9634 -2.47081 0
M  V30 417 H 35.7675 6.9745 -4.28376 0
M  V30 418 N 38.4306 0.297415 1.54768 0
M  V30 419 C 39.7076 -0.365847 1.92148 0
M  V30 420 C 40.0876 -1.71975 1.22424 0
M  V30 421 O 39.4356 -2.25666 0.358739 0
M  V30 422 C 39.6456 -0.484056 3.45627 0
M  V30 423 C 40.9936 -0.756594 4.17805 0
M  V30 424 O 42.0176 -0.568007 3.51642 0
M  V30 425 O 40.8766 -1.11863 5.34929 0
M  V30 426 H 37.9706 -0.203919 0.801465 0
M  V30 427 H 40.5166 0.34521 1.66152 0
M  V30 428 H 39.2886 0.467865 3.88493 0
M  V30 429 H 38.9116 -1.24372 3.77647 0
M  V30 430 N 39.9087 -1.5758 0.0250728 0
M  V30 431 C 41.1387 -1.95646 -0.663783 0
M  V30 432 C 41.5467 -0.899935 -1.66427 0
M  V30 433 O 40.8897 0.127191 -1.83259 0
M  V30 434 C 40.9517 -3.29835 -1.43 0
M  V30 435 C 40.6157 -4.53197 -0.588305 0
M  V30 436 C 41.6127 -5.19726 0.13469 0
M  V30 437 C 39.2977 -4.99529 -0.526897 0
M  V30 438 C 41.2917 -6.30902 0.90781 0
M  V30 439 C 38.9787 -6.10589 0.24993 0
M  V30 440 C 39.9767 -6.76134 0.965994 0
M  V30 441 O 39.6647 -7.85062 1.7301 0
M  V30 442 H 39.3967 -0.649282 -0.188174 0
M  V30 443 H 41.9507 -2.05245 0.0799006 0
M  V30 444 H 40.1807 -3.16716 -2.21873 0
M  V30 445 H 41.8697 -3.52833 -2.00658 0
M  V30 446 H 42.6357 -4.84904 0.0965562 0
M  V30 447 H 38.5147 -4.48319 -1.07381 0
M  V30 448 H 42.0587 -6.81995 1.46724 0
M  V30 449 H 37.9557 -6.44849 0.289795 0
M  V30 450 H 38.7237 -8.01708 1.64944 0
M  V30 451 N 41.3868 0.248026 -1.55636 0
M  V30 452 C 42.6348 0.974295 -1.77065 0
M  V30 453 C 42.9558 1.85897 -0.588849 0
M  V30 454 O 42.2258 1.91868 0.395407 0
M  V30 455 H 40.8058 0.362733 -0.653019 0
M  V30 456 H 43.4678 0.266244 -1.93073 0
M  V30 457 H 42.5638 1.59667 -2.68166 0
M  V30 458 N 42.8649 1.48995 0.513639 0
M  V30 459 C 43.8279 1.64229 1.59879 0
M  V30 460 C 44.8279 0.514696 1.5234 0
M  V30 461 O 46.0179 0.78087 1.55718 0
M  V30 462 C 43.1499 1.62783 2.99524 0
M  V30 463 H 44.3429 2.61004 1.47705 0
M  V30 464 H 41.8959 1.37837 0.736936 0
M  V30 465 H 42.6309 0.675461 3.17188 0
M  V30 466 H 42.4159 2.4466 3.06404 0
M  V30 467 H 43.9059 1.76669 3.78388 0
M  V30 468 N 44.343 -0.763751 1.37857 0
M  V30 469 C 45.754 -1.3405 1.29952 0
M  V30 470 C 46.105 -1.96138 -0.0492898 0
M  V30 471 O 45.23 -1.94372 -0.951239 0
M  V30 472 C 45.825 -2.43729 2.35333 0
M  V30 473 C 44.384 -2.97151 2.31037 0
M  V30 474 C 43.531 -1.70438 2.18738 0
M  V30 475 H 46.482 -0.563396 1.48363 0
M  V30 476 H 46.503 -3.23412 2.00462 0
M  V30 477 H 46.015 -1.9851 3.33489 0
M  V30 478 H 44.116 -3.46724 1.3643 0
M  V30 479 H 44.229 -3.52221 3.24772 0
M  V30 480 H 42.593 -1.93673 1.65418 0
M  V30 481 H 43.376 -1.27312 3.18821 0
M  V30 482 N 45.8211 -1.22559 -0.990812 0
M  V30 483 C 47.0611 -1.06302 -1.74583 0
M  V30 484 C 47.4251 0.394737 -1.87898 0
M  V30 485 O 48.6261 0.678214 -2.60103 0
M  V30 486 C 46.8971 -1.75699 -3.11231 0
M  V30 487 S 48.4561 -1.74882 -4.02445 0
M  V30 488 H 45.2741 -0.380639 -0.600529 0
M  V30 489 H 47.8761 -1.55532 -1.18449 0
M  V30 490 H 46.5801 -2.80923 -2.99183 0
M  V30 491 H 46.1111 -1.26708 -3.72436 0
M  V30 492 H 48.1261 -0.799997 -4.89709 0
M  V30 493 N 47.2992 1.18797 -1.03562 0
M  V30 494 C 48.2492 2.20161 -0.592724 0
M  V30 495 C 49.2332 1.56772 0.362133 0
M  V30 496 O 50.4252 1.76062 0.182009 0
M  V30 497 C 47.5542 3.43266 0.0481024 0
M  V30 498 C 46.6402 4.13786 -0.9296 0
M  V30 499 N 47.0312 4.60388 -2.09467 0
M  V30 500 C 45.3292 4.39572 -0.754499 0
M  V30 501 C 46.0302 5.14619 -2.71187 0
M  V30 502 N 45.0062 5.05826 -1.991 0
M  V30 503 H 48.8082 2.53877 -1.48066 0
M  V30 504 H 46.3222 1.34946 -0.903514 0
M  V30 505 H 48.3192 4.15136 0.383058 0
M  V30 506 H 46.9792 3.11048 0.931636 0
M  V30 507 H 47.9902 4.54999 -2.47379 0
M  V30 508 H 44.6672 4.17425 0.0793713 0
M  V30 509 H 46.0572 5.60917 -3.69895 0
M  V30 510 N 48.7773 0.814389 1.34928 0
M  V30 511 C 49.7243 0.22822 2.29669 0
M  V30 512 C 50.6943 -0.642164 1.53184 0
M  V30 513 O 51.8793 -0.585605 1.81591 0
M  V30 514 C 49.0193 -0.61089 3.3965 0
M  V30 515 C 48.1323 0.280792 4.31086 0
M  V30 516 C 47.2673 -0.567067 5.28165 0
M  V30 517 C 46.3063 0.324531 6.11239 0
M  V30 518 N 45.4433 -0.483756 7.00431 0
M  V30 519 H 50.2833 1.04153 2.79206 0
M  V30 520 H 47.8203 0.525133 1.37407 0
M  V30 521 H 49.7783 -1.11263 4.0209 0
M  V30 522 H 48.4083 -1.38939 2.91369 0
M  V30 523 H 47.4603 0.900688 3.69583 0
M  V30 524 H 48.7723 0.966723 4.89342 0
M  V30 525 H 47.9263 -1.13363 5.96015 0
M  V30 526 H 46.6653 -1.28654 4.70425 0
M  V30 527 H 45.6703 0.903298 5.42329 0
M  V30 528 H 46.8953 1.04198 6.71059 0
M  V30 529 H 44.8413 -1.18706 6.45171 0
M  V30 530 H 44.7583 0.143965 7.55863 0
M  V30 531 H 46.0263 -1.03334 7.7262 0
M  V30 532 N 50.2554 -1.46986 0.568584 0
M  V30 533 C 51.5024 -2.02441 0.0487986 0
M  V30 534 C 51.8304 -1.44169 -1.30559 0
M  V30 535 O 51.0854 -0.591213 -1.86556 0
M  V30 536 C 51.3844 -3.57306 -0.081836 0
M  V30 537 C 51.0504 -4.34552 1.20313 0
M  V30 538 C 49.7124 -4.55376 1.5552 0
M  V30 539 C 52.0644 -4.79016 2.05411 0
M  V30 540 C 49.3924 -5.17913 2.7565 0
M  V30 541 C 51.7444 -5.42879 3.24754 0
M  V30 542 C 50.4084 -5.61933 3.60261 0
M  V30 543 H 49.6784 -0.740785 0.0178567 0
M  V30 544 H 52.3254 -1.76525 0.742384 0
M  V30 545 H 50.6304 -3.8228 -0.858463 0
M  V30 546 H 52.3274 -3.97876 -0.499546 0
M  V30 547 H 48.9174 -4.18631 0.919014 0
M  V30 548 H 53.1014 -4.62696 1.79516 0
M  V30 549 H 48.3574 -5.30858 3.03315 0
M  V30 550 H 52.5314 -5.76293 3.90973 0
M  V30 551 H 50.1584 -6.10161 4.53439 0
M  V30 552 N 51.7335 -0.305618 -1.54608 0
M  V30 553 C 53.0105 0.355652 -1.92339 0
M  V30 554 C 53.3905 1.71324 -1.23335 0
M  V30 555 O 52.7385 2.25473 -0.370702 0
M  V30 556 C 52.9485 0.46572 -3.45879 0
M  V30 557 C 54.2965 0.734426 -4.182 0
M  V30 558 O 55.3205 0.54935 -3.51938 0
M  V30 559 O 54.1795 1.09024 -5.35515 0
M  V30 560 H 51.2735 0.199666 -0.802535 0
M  V30 561 H 53.8195 -0.354017 -1.65966 0
M  V30 562 H 52.5915 -0.488461 -3.88239 0
M  V30 563 H 52.2145 1.22367 -3.78301 0
M  V30 564 N 53.2116 1.57565 -0.0334293 0
M  V30 565 C 54.4576 1.92262 0.645226 0
M  V30 566 C 54.7906 0.910543 1.71531 0
M  V30 567 O 54.0656 -0.066099 1.94388 0
M  V30 568 C 54.3486 3.37422 1.2577 0
M  V30 569 C 54.2016 4.49369 0.196891 0
M  V30 570 C 55.5206 3.82628 2.17449 0
M  V30 571 H 52.6396 0.699171 0.233085 0
M  V30 572 H 55.2816 1.89779 -0.0915694 0
M  V30 573 H 53.4316 3.39669 1.88566 0
M  V30 574 H 55.1036 4.59254 -0.433962 0
M  V30 575 H 53.3466 4.31168 -0.477137 0
M  V30 576 H 54.0176 5.47978 0.665124 0
M  V30 577 H 56.4936 3.82145 1.64634 0
M  V30 578 H 55.3696 4.84883 2.57254 0
M  V30 579 H 55.6306 3.18376 3.0674 0
M  V30 580 N 54.6897 -0.239769 1.55765 0
M  V30 581 C 55.6367 -1.29696 1.90913 0
M  V30 582 C 56.6067 -1.47478 0.764164 0
M  V30 583 O 57.7917 -1.61345 1.01845 0
M  V30 584 C 54.9317 -2.64598 2.21544 0
M  V30 585 C 54.0447 -2.54765 3.48882 0
M  V30 586 C 53.1797 -3.82069 3.69049 0
M  V30 587 C 52.2187 -3.66883 4.89963 0
M  V30 588 N 51.3557 -4.86094 5.06614 0
M  V30 589 H 56.1957 -0.990224 2.81067 0
M  V30 590 H 53.7327 -0.477684 1.39128 0
M  V30 591 H 55.6907 -3.43132 2.3731 0
M  V30 592 H 54.3207 -2.93405 1.34585 0
M  V30 593 H 53.3727 -1.67763 3.41409 0
M  V30 594 H 54.6847 -2.39457 4.37563 0
M  V30 595 H 53.8387 -4.69046 3.84812 0
M  V30 596 H 52.5777 -4.00282 2.78614 0
M  V30 597 H 51.5827 -2.78289 4.74168 0
M  V30 598 H 52.8077 -3.50157 5.81865 0
M  V30 599 H 50.7537 -5.04655 4.19117 0
M  V30 600 H 50.6707 -4.73443 5.89396 0
M  V30 601 H 51.9387 -5.74549 5.26795 0
M  V30 602 N 56.1678 -1.49265 -0.50573 0
M  V30 603 C 57.0998 -1.617 -1.62437 0
M  V30 604 C 58.1128 -0.499924 -1.54934 0
M  V30 605 O 59.3018 -0.771785 -1.60953 0
M  V30 606 C 56.4018 -1.5533 -3.01207 0
M  V30 607 C 55.5748 -2.8249 -3.33943 0
M  V30 608 C 54.6338 -2.69238 -4.52103 0
M  V30 609 O 53.6598 -3.43167 -4.5412 0
M  V30 610 N 54.8618 -1.80468 -5.51735 0
M  V30 611 H 57.6268 -2.58177 -1.52199 0
M  V30 612 H 55.1878 -1.46294 -0.693511 0
M  V30 613 H 57.1798 -1.44125 -3.78167 0
M  V30 614 H 55.7498 -0.667297 -3.05395 0
M  V30 615 H 54.9698 -3.08081 -2.45926 0
M  V30 616 H 56.2578 -3.66802 -3.5261 0
M  V30 617 H 55.6558 -1.19653 -5.52901 0
M  V30 618 H 54.2128 -1.75188 -6.27816 0
M  V30 619 N 57.6459 0.756429 -1.3826 0
M  V30 620 C 58.8949 1.51082 -1.3363 0
M  V30 621 C 59.2079 1.95467 0.0720068 0
M  V30 622 O 60.4139 2.7043 0.240834 0
M  V30 623 C 58.8699 2.72893 -2.34644 0
M  V30 624 C 58.4779 2.35544 -3.81081 0
M  V30 625 C 60.2219 3.50791 -2.39052 0
M  V30 626 C 58.1289 3.53948 -4.73787 0
M  V30 627 H 57.0589 0.56727 -0.49671 0
M  V30 628 H 59.7099 0.827147 -1.638 0
M  V30 629 H 58.0919 3.43227 -1.97513 0
M  V30 630 H 59.2659 1.72894 -4.27135 0
M  V30 631 H 57.5809 1.70786 -3.79764 0
M  V30 632 H 60.1779 4.38823 -3.05513 0
M  V30 633 H 60.5209 3.91745 -1.40861 0
M  V30 634 H 61.0539 2.87467 -2.74968 0
M  V30 635 H 57.7929 3.18064 -5.73163 0
M  V30 636 H 57.3129 4.15651 -4.32428 0
M  V30 637 H 58.9919 4.20566 -4.91663 0
M  V30 638 N 59.124 1.23083 0.984299 0
M  V30 639 C 60.372 1.05848 1.72165 0
M  V30 640 C 60.693 -0.406049 1.90726 0
M  V30 641 O 59.963 -1.29139 1.47309 0
M  V30 642 H 58.543 0.388685 0.637913 0
M  V30 643 H 61.205 1.54736 1.18503 0
M  V30 644 H 60.301 1.54327 2.71274 0
M  V30 645 N 60.6021 -1.18246 1.0419 0
M  V30 646 C 61.5651 -2.20128 0.638452 0
M  V30 647 C 62.5651 -1.57885 -0.304805 0
M  V30 648 O 63.7551 -1.73967 -0.0900369 0
M  V30 649 C 60.8871 -3.4084 -0.0637751 0
M  V30 650 H 62.0801 -2.57336 1.54007 0
M  V30 651 H 59.6331 -1.32152 0.834598 0
M  V30 652 H 60.3681 -3.09166 -0.979136 0
M  V30 653 H 60.1531 -3.8726 0.614198 0
M  V30 654 H 61.6431 -4.16274 -0.332512 0
M  V30 655 N 62.0802 -0.821533 -1.34494 0
M  V30 656 C 63.0122 -0.199946 -2.28326 0
M  V30 657 C 64.0252 0.609377 -1.50965 0
M  V30 658 O 65.2142 0.439285 -1.7301 0
M  V30 659 C 62.3142 0.738431 -3.30757 0
M  V30 660 C 61.4872 -0.0277632 -4.37391 0
M  V30 661 C 60.5462 0.831332 -5.19591 0
M  V30 662 O 59.5722 0.276822 -5.68526 0
M  V30 663 N 60.7742 2.15132 -5.39165 0
M  V30 664 H 63.5392 -1.00609 -2.82308 0
M  V30 665 H 61.1002 -0.678366 -1.47003 0
M  V30 666 H 63.0922 1.31773 -3.82646 0
M  V30 667 H 61.6622 1.44533 -2.7718 0
M  V30 668 H 60.8822 -0.788359 -3.86236 0
M  V30 669 H 62.1702 -0.555251 -5.05761 0
M  V30 670 H 61.5682 2.62559 -5.01078 0
M  V30 671 H 60.1252 2.6795 -5.94177 0
M  V30 672 N 63.5583 1.46682 -0.576371 0
M  V30 673 C 64.4883 2.33028 0.148397 0
M  V30 674 C 65.4693 1.44961 0.889956 0
M  V30 675 O 66.6543 1.73789 0.866662 0
M  V30 676 C 63.7843 3.27117 1.1667 0
M  V30 677 C 62.7383 4.24575 0.540386 0
M  V30 678 C 62.0643 5.08126 1.6647 0
M  V30 679 C 63.3643 5.19722 -0.518331 0
M  V30 680 H 65.0583 2.93875 -0.572509 0
M  V30 681 H 62.6043 1.41315 -0.276768 0
M  V30 682 H 64.5573 3.86374 1.68204 0
M  V30 683 H 63.2813 2.64364 1.9178 0
M  V30 684 H 61.9403 3.66571 0.0461769 0
M  V30 685 H 61.5883 4.41762 2.40531 0
M  V30 686 H 61.2883 5.74122 1.25131 0
M  V30 687 H 62.8123 5.70246 2.18293 0
M  V30 688 H 64.2263 5.73232 -0.0883058 0
M  V30 689 H 62.6233 5.94026 -0.851679 0
M  V30 690 H 63.6933 4.64037 -1.40703 0
M  V30 691 N 65.0364 0.313813 1.54444 0
M  V30 692 C 65.9664 -0.549454 2.26943 0
M  V30 693 C 66.9474 -1.12741 1.27372 0
M  V30 694 O 68.1324 -1.15436 1.56167 0
M  V30 695 C 65.2624 -1.71523 3.01989 0
M  V30 696 C 64.2164 -1.26703 4.08816 0
M  V30 697 C 63.5424 -2.51898 4.71647 0
M  V30 698 C 64.8424 -0.388962 5.2085 0
M  V30 699 H 66.5364 0.0552661 2.99349 0
M  V30 700 H 64.0824 0.0280207 1.43973 0
M  V30 701 H 66.0354 -2.32535 3.51433 0
M  V30 702 H 64.7594 -2.34639 2.27183 0
M  V30 703 H 63.4184 -0.679896 3.6024 0
M  V30 704 H 63.0664 -3.13356 3.93468 0
M  V30 705 H 62.7664 -2.22605 5.43802 0
M  V30 706 H 64.2904 -3.1369 5.23861 0
M  V30 707 H 65.7044 -0.905107 5.6611 0
M  V30 708 H 64.1014 -0.18924 5.99802 0
M  V30 709 H 65.1714 0.582699 4.81386 0
M  V30 710 N 66.5145 -1.57545 0.0417849 0
M  V30 711 C 67.9255 -1.80011 -0.495259 0
M  V30 712 C 68.2765 -0.953199 -1.71489 0
M  V30 713 O 67.4015 -0.167138 -2.15754 0
M  V30 714 C 67.9965 -3.26482 -0.905265 0
M  V30 715 C 66.5555 -3.499 -1.38734 0
M  V30 716 C 65.7025 -2.74979 -0.358056 0
M  V30 717 H 68.6535 -1.56425 0.267736 0
M  V30 718 H 68.6745 -3.36887 -1.76882 0
M  V30 719 H 68.1865 -3.88096 -0.017401 0
M  V30 720 H 66.2875 -2.93553 -2.29471 0
M  V30 721 H 66.4005 -4.58615 -1.38598 0
M  V30 722 H 64.7645 -2.40834 -0.828912 0
M  V30 723 H 65.5475 -3.39315 0.521561 0
M  V30 724 N 67.9926 0.231505 -1.5589 0
M  V30 725 C 69.4036 0.799327 -1.68724 0
M  V30 726 C 69.7546 1.85398 -0.642022 0
M  V30 727 O 68.8796 2.1539 0.208784 0
M  V30 728 C 69.4746 1.45664 -3.05888 0
M  V30 729 C 68.0336 1.97197 -3.20609 0
M  V30 730 C 67.1806 0.828552 -2.64632 0
M  V30 731 H 70.1316 0.00702616 -1.58698 0
M  V30 732 H 70.1526 2.32517 -3.01191 0
M  V30 733 H 69.6646 0.688808 -3.81939 0
M  V30 734 H 67.7656 2.76813 -2.4941 0
M  V30 735 H 67.8786 2.15878 -4.27707 0
M  V30 736 H 66.2426 1.23321 -2.22854 0
M  V30 737 H 67.0256 0.0735544 -3.43221 0
M  V30 738 N 69.4707 1.49531 0.497807 0
M  V30 739 C 70.4007 1.6935 1.60757 0
M  V30 740 C 71.3817 0.542218 1.61227 0
M  V30 741 O 72.5667 0.778417 1.77917 0
M  V30 742 C 69.6967 1.76298 2.99226 0
M  V30 743 C 68.6507 2.91248 3.13622 0
M  V30 744 C 67.9767 2.83312 4.53474 0
M  V30 745 C 69.2767 4.3214 2.93346 0
M  V30 746 H 70.9707 2.62263 1.44425 0
M  V30 747 H 68.5167 1.26208 0.693367 0
M  V30 748 H 70.4697 1.88749 3.76765 0
M  V30 749 H 69.1937 0.799871 3.16654 0
M  V30 750 H 67.8527 2.78404 2.38509 0
M  V30 751 H 67.5007 1.84902 4.67782 0
M  V30 752 H 67.2007 3.60465 4.64046 0
M  V30 753 H 68.7247 2.97775 5.33069 0
M  V30 754 H 70.1387 4.45649 3.60652 0
M  V30 755 H 68.5357 5.1054 3.15387 0
M  V30 756 H 69.6057 4.46363 1.89441 0
M  V30 757 N 70.9488 -0.749086 1.3866 0
M  V30 758 C 72.1788 -1.53611 1.38157 0
M  V30 759 C 72.5868 -1.89177 -0.0293595 0
M  V30 760 O 71.9298 -1.53606 -1.00752 0
M  V30 761 C 71.9918 -2.86087 2.17702 0
M  V30 762 C 71.6558 -2.73034 3.66472 0
M  V30 763 C 72.6528 -2.42526 4.59866 0
M  V30 764 C 70.3378 -2.90345 4.09884 0
M  V30 765 C 72.3318 -2.29492 5.94653 0
M  V30 766 C 70.0188 -2.7693 5.4475 0
M  V30 767 C 71.0168 -2.46547 6.36949 0
M  V30 768 O 70.7048 -2.33199 7.69333 0
M  V30 769 H 70.4368 -0.481773 0.474205 0
M  V30 770 H 72.9908 -0.934465 1.82912 0
M  V30 771 H 71.2208 -3.48458 1.67672 0
M  V30 772 H 72.9098 -3.47625 2.09551 0
M  V30 773 H 73.6758 -2.28816 4.27631 0
M  V30 774 H 69.5548 -3.1299 3.38464 0
M  V30 775 H 73.0988 -2.05698 6.66584 0
M  V30 776 H 68.9958 -2.90215 5.76581 0
M  V30 777 H 69.7638 -2.48376 7.79905 0
M  V30 778 N 72.4269 -1.23603 -0.977757 0
M  V30 779 C 73.6519 -1.09735 -1.75991 0
M  V30 780 C 74.0769 0.346858 -1.84874 0
M  V30 781 O 73.4349 1.25093 -1.3123 0
M  V30 782 C 73.4829 -1.73051 -3.16363 0
M  V30 783 O 72.5869 -0.994452 -4.0023 0
M  V30 784 H 71.9279 -0.384476 -0.541364 0
M  V30 785 H 74.4579 -1.6371 -1.2272 0
M  V30 786 H 74.4679 -1.78398 -3.66931 0
M  V30 787 H 73.1429 -2.78137 -3.09213 0
M  V30 788 H 71.7199 -1.01812 -3.58732 0
M  V30 789 N 73.905 1.17692 -1.04816 0
M  V30 790 C 74.835 2.23777 -0.666791 0
M  V30 791 C 75.816 1.66796 0.33361 0
M  V30 792 O 77.001 1.93039 0.212042 0
M  V30 793 C 74.131 3.47281 -0.0367933 0
M  V30 794 C 73.085 4.17059 -0.961546 0
M  V30 795 C 72.411 5.34342 -0.195626 0
M  V30 796 C 73.711 4.69713 -2.28402 0
M  V30 797 H 75.405 2.55933 -1.55367 0
M  V30 798 H 72.951 1.23019 -0.748484 0
M  V30 799 H 74.904 4.20706 0.241775 0
M  V30 800 H 73.628 3.14381 0.885004 0
M  V30 801 H 72.287 3.45541 -1.22462 0
M  V30 802 H 71.935 4.97692 0.728816 0
M  V30 803 H 71.635 5.81966 -0.811775 0
M  V30 804 H 73.159 6.10553 0.0757473 0
M  V30 805 H 74.573 5.34794 -2.06563 0
M  V30 806 H 72.97 5.279 -2.8538 0
M  V30 807 H 74.04 3.86726 -2.92525 0
M  V30 808 N 75.3831 0.828654 1.34056 0
M  V30 809 C 76.6291 0.42008 1.98402 0
M  V30 810 C 76.9621 -1.01564 1.65525 0
M  V30 811 O 76.2371 -1.70834 0.929831 0
M  V30 812 C 76.5201 0.62927 3.54559 0
M  V30 813 C 76.3731 2.11152 3.97159 0
M  V30 814 C 77.6921 0.0688756 4.40046 0
M  V30 815 H 74.8111 0.154104 0.720709 0
M  V30 816 H 77.4531 1.04228 1.5886 0
M  V30 817 H 75.6031 0.0996418 3.88372 0
M  V30 818 H 77.2751 2.70522 3.73651 0
M  V30 819 H 75.5181 2.59985 3.47261 0
M  V30 820 H 76.1891 2.20868 5.05887 0
M  V30 821 H 78.6651 0.521458 4.1282 0
M  V30 822 H 77.5411 0.245006 5.48353 0
M  V30 823 H 77.8021 -1.0266 4.30015 0
M  V30 824 N 76.8612 -1.46375 0.584142 0
M  V30 825 C 78.1082 -2.02378 0.0702675 0
M  V30 826 C 78.4362 -1.45545 -1.29023 0
M  V30 827 O 77.6912 -0.610967 -1.85918 0
M  V30 828 C 77.9902 -3.57373 -0.0439342 0
M  V30 829 C 77.6562 -4.33252 1.24915 0
M  V30 830 C 76.3182 -4.53701 1.60341 0
M  V30 831 C 78.6702 -4.7681 2.1048 0
M  V30 832 C 75.9982 -5.1496 2.81128 0
M  V30 833 C 78.3502 -5.39404 3.30494 0
M  V30 834 C 77.0142 -5.5808 3.66201 0
M  V30 835 H 76.2842 -0.740554 0.0257127 0
M  V30 836 H 78.9312 -1.75727 0.761065 0
M  V30 837 H 77.2362 -3.83169 -0.817869 0
M  V30 838 H 78.9332 -3.98384 -0.457318 0
M  V30 839 H 75.5232 -4.17633 0.963364 0
M  V30 840 H 79.7072 -4.60766 1.84414 0
M  V30 841 H 74.9632 -5.27611 3.08928 0
M  V30 842 H 79.1372 -5.72114 3.97063 0
M  V30 843 H 76.7642 -6.05318 4.59885 0
M  V30 844 N 78.3393 -0.321999 -1.54275 0
M  V30 845 C 79.5883 0.281931 -1.9972 0
M  V30 846 C 79.9013 1.53369 -1.21397 0
M  V30 847 O 81.1073 2.21352 -1.57211 0
M  V30 848 C 79.5633 0.5529 -3.55628 0
M  V30 849 C 79.1713 -0.681721 -4.42783 0
M  V30 850 C 80.9153 1.11687 -4.09544 0
M  V30 851 C 78.8223 -0.382742 -5.9016 0
M  V30 852 H 77.7523 0.109124 -0.746062 0
M  V30 853 H 80.4033 -0.43398 -1.78294 0
M  V30 854 H 78.7853 1.32896 -3.73035 0
M  V30 855 H 79.9593 -1.45723 -4.37151 0
M  V30 856 H 78.2743 -1.1658 -3.99748 0
M  V30 857 H 80.8713 1.35515 -5.17242 0
M  V30 858 H 81.2143 2.06575 -3.61431 0
M  V30 859 H 81.7473 0.402032 -3.95763 0
M  V30 860 H 78.4863 -1.30076 -6.42464 0
M  V30 861 H 78.0063 0.355094 -5.98748 0
M  V30 862 H 79.6853 0.00800157 -6.47 0
M  V30 863 N 79.8174 1.5752 -0.0501392 0
M  V30 864 C 81.0644 1.9265 0.623874 0
M  V30 865 C 81.3924 0.928411 1.70912 0
M  V30 866 O 80.6474 -0.0594525 1.9561 0
M  V30 867 C 80.9464 3.34467 1.25963 0
M  V30 868 C 80.6124 4.49883 0.302689 0
M  V30 869 C 79.2744 4.81184 0.0393636 0
M  V30 870 C 81.6264 5.20002 -0.353205 0
M  V30 871 C 78.9544 5.79951 -0.887308 0
M  V30 872 C 81.3064 6.1976 -1.26806 0
M  V30 873 C 79.9704 6.49491 -1.54007 0
M  V30 874 H 79.2404 0.704957 0.228292 0
M  V30 875 H 81.8874 1.91146 -0.116398 0
M  V30 876 H 80.1924 3.32333 2.07514 0
M  V30 877 H 81.8894 3.58928 1.78806 0
M  V30 878 H 78.4794 4.25457 0.518109 0
M  V30 879 H 82.6634 4.96033 -0.162854 0
M  V30 880 H 77.9194 6.01322 -1.10553 0
M  V30 881 H 82.0934 6.73205 -1.78236 0
M  V30 882 H 79.7204 7.25837 -2.25976 0
M  V30 883 N 81.2955 -0.223234 1.56011 0
M  V30 884 C 82.5435 -0.946003 1.78592 0
M  V30 885 C 82.8645 -1.84936 0.618349 0
M  V30 886 O 82.1345 -1.92473 -0.364833 0
M  V30 887 H 80.7145 -0.352298 0.658707 0
M  V30 888 H 83.3765 -0.235494 1.93472 0
M  V30 889 H 82.4725 -1.55381 2.70672 0
M  V30 890 N 82.7736 -1.49793 -0.48987 0
M  V30 891 C 84.0206 -1.59841 -1.24327 0
M  V30 892 C 84.3486 -0.290135 -1.92324 0
M  V30 893 O 83.6036 0.722749 -1.81865 0
M  V30 894 C 83.9026 -2.71488 -2.32441 0
M  V30 895 C 83.5686 -4.12614 -1.81826 0
M  V30 896 C 82.2306 -4.51017 -1.67742 0
M  V30 897 C 84.5826 -5.00892 -1.4407 0
M  V30 898 C 81.9106 -5.75459 -1.14297 0
M  V30 899 C 84.2626 -6.25863 -0.920742 0
M  V30 900 C 82.9266 -6.63086 -0.766383 0
M  V30 901 H 82.1966 -0.584899 -0.454944 0
M  V30 902 H 84.8436 -1.83663 -0.542215 0
M  V30 903 H 83.1486 -2.4168 -3.0838 0
M  V30 904 H 84.8456 -2.76469 -2.90458 0
M  V30 905 H 81.4356 -3.82307 -1.93751 0
M  V30 906 H 85.6196 -4.7187 -1.53794 0
M  V30 907 H 80.8756 -6.02989 -1.01068 0
M  V30 908 H 85.0496 -6.9364 -0.619448 0
M  V30 909 H 82.6766 -7.59393 -0.350083 0
M  V30 910 N 84.2517 0.741722 -1.39055 0
M  V30 911 C 85.4977 1.50336 -1.36113 0
M  V30 912 C 85.8307 1.94148 0.0450796 0
M  V30 913 O 85.1057 1.66301 1.00868 0
M  V30 914 C 85.3887 2.74773 -2.32749 0
M  V30 915 C 85.2417 2.37023 -3.82283 0
M  V30 916 C 86.5607 3.76846 -2.27322 0
M  V30 917 H 83.6797 0.545351 -0.495743 0
M  V30 918 H 86.3217 0.848624 -1.69995 0
M  V30 919 H 84.4717 3.30639 -2.03986 0
M  V30 920 H 86.1437 1.8684 -4.21768 0
M  V30 921 H 84.3867 1.69334 -3.99385 0
M  V30 922 H 85.0577 3.26104 -4.45376 0
M  V30 923 H 87.5337 3.30548 -2.5274 0
M  V30 924 H 86.4097 4.6159 -2.97028 0
M  V30 925 H 86.6707 4.23286 -1.27599 0
M  V30 926 N 85.7298 1.2412 0.971189 0
M  V30 927 C 86.9778 1.07668 1.71032 0
M  V30 928 C 87.2988 -0.385797 1.91146 0
M  V30 929 O 86.5688 -1.27569 1.4867 0
M  V30 930 H 85.1488 0.395429 0.633755 0
M  V30 931 H 87.8108 1.55984 1.16855 0
M  V30 932 H 86.9068 1.57195 2.69622 0
M  V30 933 N 87.2079 -1.17134 1.05439 0
M  V30 934 C 88.1559 -2.23289 0.651511 0
M  V30 935 C 89.1499 -1.66186 -0.328411 0
M  V30 936 O 90.3559 -1.78949 -0.194206 0
M  V30 937 H 86.7309 -0.726938 0.192523 0
M  V30 938 H 88.7019 -2.54565 1.55689 0
M  V30 939 C 87.4509 -3.47671 0.0448436 0
M  V30 940 H 86.7739 -3.91918 0.78996 0
M  V30 941 H 88.2139 -4.2353 -0.19964 0
M  V30 942 C 86.6729 -3.14453 -1.20918 0
M  V30 943 O 87.2029 -3.29459 -2.29825 0
M  V30 944 N 85.4089 -2.68657 -1.10779 0
M  V30 945 H 84.9559 -2.56646 -0.221526 0
M  V30 946 H 84.9139 -2.46804 -1.9477 0
M  V30 947 N 88.686 -0.835752 -1.33615 0
M  V30 948 C 89.619 -0.211815 -2.27215 0
M  V30 949 C 90.597 0.639249 -1.49507 0
M  V30 950 O 91.781 0.600193 -1.78689 0
M  V30 951 C 88.908 0.702893 -3.31326 0
M  V30 952 C 87.954 -0.0723049 -4.26439 0
M  V30 953 S 88.787 -1.42811 -5.16106 0
M  V30 954 C 89.943 -0.518613 -6.23748 0
M  V30 955 H 90.176 -1.00533 -2.79786 0
M  V30 956 H 87.709 -0.632336 -1.40858 0
M  V30 957 H 89.667 1.22505 -3.91794 0
M  V30 958 H 88.328 1.47004 -2.77576 0
M  V30 959 H 87.521 0.62359 -5.00127 0
M  V30 960 H 87.123 -0.525424 -3.70291 0
M  V30 961 H 89.415 0.284778 -6.76901 0
M  V30 962 H 90.358 -1.22556 -6.97413 0
M  V30 963 H 90.766 -0.101344 -5.64409 0
M  V30 964 N 90.1641 1.46063 -0.591896 0
M  V30 965 C 91.0941 2.33172 0.123673 0
M  V30 966 C 92.0751 1.45897 0.87453 0
M  V30 967 O 93.2601 1.74698 0.848181 0
M  V30 968 C 90.3901 3.28336 1.13194 0
M  V30 969 C 89.3441 4.25124 0.495324 0
M  V30 970 C 88.6701 5.09863 1.61071 0
M  V30 971 C 89.9701 5.19143 -0.573425 0
M  V30 972 H 91.6641 2.93252 -0.603646 0
M  V30 973 H 89.2101 1.41014 -0.291741 0
M  V30 974 H 91.1631 3.88137 1.64097 0
M  V30 975 H 89.8871 2.66383 1.88965 0
M  V30 976 H 88.5461 3.66599 0.00729452 0
M  V30 977 H 88.1941 4.44288 2.35832 0
M  V30 978 H 87.8941 5.75417 1.19035 0
M  V30 979 H 89.4181 5.72529 2.12233 0
M  V30 980 H 90.8321 5.73106 -0.1491 0
M  V30 981 H 89.2291 5.93089 -0.914636 0
M  V30 982 H 90.2991 4.62519 -1.45617 0
M  V30 983 N 91.6422 0.330177 1.54103 0
M  V30 984 C 92.8882 -0.270806 2.00984 0
M  V30 985 C 93.2212 -1.51265 1.21789 0
M  V30 986 O 92.4962 -1.92142 0.301927 0
M  V30 987 C 92.7792 -0.598339 3.55094 0
M  V30 988 C 92.6322 0.654674 4.4501 0
M  V30 989 C 93.9512 -1.41334 4.16789 0
M  V30 990 H 91.0702 -0.0969531 0.730595 0
M  V30 991 H 93.7122 0.448066 1.84641 0
M  V30 992 H 91.8622 -1.21078 3.69151 0
M  V30 993 H 93.5342 1.29285 4.42813 0
M  V30 994 H 91.7772 1.28224 4.14416 0
M  V30 995 H 92.4482 0.380944 5.50684 0
M  V30 996 H 94.9242 -0.895597 4.06347 0
M  V30 997 H 93.8002 -1.61127 5.24718 0
M  V30 998 H 94.0612 -2.41146 3.70541 0
M  V30 999 N 93.1203 -1.57491 0.0584922 0
M  V30 1000 C 94.3663 -1.93264 -0.614558 0
M  V30 1001 C 94.6993 -0.937717 -1.7006 0
M  V30 1002 O 93.9743 0.0351652 -1.94468 0
M  V30 1003 C 94.2573 -3.3938 -1.20386 0
M  V30 1004 C 94.1103 -4.49625 -0.125375 0
M  V30 1005 C 95.4293 -3.86039 -2.11334 0
M  V30 1006 H 92.5483 -0.702791 -0.221933 0
M  V30 1007 H 95.1903 -1.8961 0.12175 0
M  V30 1008 H 93.3403 -3.42626 -1.83139 0
M  V30 1009 H 95.0123 -4.58506 0.506971 0
M  V30 1010 H 93.2553 -4.30354 0.545672 0
M  V30 1011 H 93.9263 -5.48967 -0.577861 0
M  V30 1012 H 96.4023 -3.84716 -1.58534 0
M  V30 1013 H 95.2783 -4.88914 -2.49507 0
M  V30 1014 H 95.5393 -3.23215 -3.01636 0
M  V30 1015 N 94.5984 0.214957 -1.56127 0
M  V30 1016 C 95.5284 1.2695 -1.95974 0
M  V30 1017 C 96.5094 1.48539 -0.828868 0
M  V30 1018 O 97.6944 1.60611 -1.09168 0
M  V30 1019 C 94.8244 2.61794 -2.28214 0
M  V30 1020 C 93.7784 2.54851 -3.43853 0
M  V30 1021 C 93.1044 3.93785 -3.61715 0
M  V30 1022 C 94.4044 2.09065 -4.78632 0
M  V30 1023 H 96.0984 0.93846 -2.84312 0
M  V30 1024 H 93.6444 0.449996 -1.36788 0
M  V30 1025 H 95.5974 3.35731 -2.54682 0
M  V30 1026 H 94.3214 2.96599 -1.36736 0
M  V30 1027 H 92.9804 1.8337 -3.17444 0
M  V30 1028 H 92.6284 4.25908 -2.67602 0
M  V30 1029 H 92.3284 3.90019 -4.39498 0
M  V30 1030 H 93.8524 4.69374 -3.90539 0
M  V30 1031 H 95.2664 2.7275 -5.04262 0
M  V30 1032 H 93.6634 2.16346 -5.59745 0
M  V30 1033 H 94.7334 1.04315 -4.73547 0
M  V30 1034 N 96.0765 1.50051 0.48192 0
M  V30 1035 C 97.3255 1.59741 1.23149 0
M  V30 1036 C 97.6385 0.298163 1.93314 0
M  V30 1037 O 98.8445 0.273835 2.70116 0
M  V30 1038 C 97.3005 2.81926 2.23708 0
M  V30 1039 C 96.9085 4.18685 1.59396 0
M  V30 1040 C 98.6525 3.00956 2.99375 0
M  V30 1041 C 96.5595 5.3207 2.58178 0
M  V30 1042 H 95.4895 0.594838 0.46334 0
M  V30 1043 H 98.1405 1.76467 0.503169 0
M  V30 1044 H 96.5225 2.58736 2.99786 0
M  V30 1045 H 97.6965 4.52088 0.891811 0
M  V30 1046 H 96.0115 4.05171 0.960503 0
M  V30 1047 H 98.6085 3.82836 3.73283 0
M  V30 1048 H 98.9515 2.12258 3.58123 0
M  V30 1049 H 99.4845 3.24277 2.30411 0
M  V30 1050 H 96.2235 6.22888 2.04184 0
M  V30 1051 H 95.7435 5.03098 3.26577 0
M  V30 1052 H 97.4225 5.62196 3.20225 0
M  V30 1053 N 97.5546 -0.734337 1.39446 0
M  V30 1054 C 98.4846 -1.86155 1.40955 0
M  V30 1055 C 99.4656 -1.67898 0.272827 0
M  V30 1056 O 100.651 -1.88207 0.478743 0
M  V30 1057 C 97.7806 -3.23912 1.25294 0
M  V30 1058 C 96.7346 -3.56808 2.36373 0
M  V30 1059 C 96.0606 -4.93508 2.058 0
M  V30 1060 C 97.3606 -3.59713 3.78687 0
M  V30 1061 H 99.0546 -1.8515 2.35287 0
M  V30 1062 H 96.6006 -0.889367 1.13253 0
M  V30 1063 H 98.5536 -4.02443 1.2497 0
M  V30 1064 H 97.2776 -3.25446 0.274308 0
M  V30 1065 H 95.9366 -2.80606 2.35914 0
M  V30 1066 H 95.5846 -4.91623 1.06374 0
M  V30 1067 H 95.2846 -5.16486 2.80208 0
M  V30 1068 H 96.8086 -5.74396 2.07128 0
M  V30 1069 H 98.2226 -4.2832 3.81071 0
M  V30 1070 H 96.6196 -3.94209 4.52459 0
M  V30 1071 H 97.6896 -2.59504 4.09617 0
M  V30 1072 N 99.0327 -1.24633 -0.964593 0
M  V30 1073 C 100.282 -1.08188 -1.7023 0
M  V30 1074 C 100.595 0.37873 -1.91898 0
M  V30 1075 O 101.801 0.663427 -2.6327 0
M  V30 1076 C 100.257 -1.88773 -3.06419 0
M  V30 1077 C 99.8647 -3.39263 -2.92582 0
M  V30 1078 C 101.609 -1.80867 -3.84041 0
M  V30 1079 C 99.5157 -4.1218 -4.24101 0
M  V30 1080 H 98.4457 -0.401245 -0.638372 0
M  V30 1081 H 101.097 -1.48742 -1.07462 0
M  V30 1082 H 99.4787 -1.41035 -3.70034 0
M  V30 1083 H 100.653 -3.94603 -2.37961 0
M  V30 1084 H 98.9677 -3.48154 -2.28424 0
M  V30 1085 H 101.565 -2.32646 -4.81435 0
M  V30 1086 H 101.908 -0.774543 -4.09031 0
M  V30 1087 H 102.441 -2.26301 -3.27159 0
M  V30 1088 H 99.1797 -5.15965 -4.04303 0
M  V30 1089 H 98.6997 -3.61626 -4.78526 0
M  V30 1090 H 100.379 -4.19349 -4.92702 0
M  V30 1091 N 100.511 1.16574 -1.06058 0
M  V30 1092 C 101.459 2.22941 -0.663343 0
M  V30 1093 C 102.453 1.66358 0.319593 0
M  V30 1094 O 103.659 1.7905 0.184713 0
M  V30 1095 H 100.034 0.725907 -0.196376 0
M  V30 1096 H 102.005 2.53736 -1.57037 0
M  V30 1097 C 100.754 3.47642 -0.0632808 0
M  V30 1098 H 100.077 3.91493 -0.810733 0
M  V30 1099 H 101.517 4.2363 0.177177 0
M  V30 1100 C 99.9758 3.1509 1.19248 0
M  V30 1101 O 100.506 3.30673 2.28075 0
M  V30 1102 N 98.7118 2.6924 1.09353 0
M  V30 1103 H 98.2588 2.5676 0.207912 0
M  V30 1104 H 98.2168 2.47833 1.93458 0
M  V30 1105 N 101.989 0.842826 1.3317 0
M  V30 1106 C 103.229 0.446574 1.99462 0
M  V30 1107 C 103.593 -0.976818 1.65295 0
M  V30 1108 O 104.794 -1.477 2.24584 0
M  V30 1109 C 103.065 0.665353 3.51152 0
M  V30 1110 S 104.624 0.364911 4.3728 0
M  V30 1111 H 101.442 0.167803 0.690915 0
M  V30 1112 H 104.044 1.09297 1.62094 0
M  V30 1113 H 102.748 1.7006 3.73507 0
M  V30 1114 H 102.279 0.00494568 3.934 0
M  V30 1115 H 104.294 -0.813761 4.89482 0
M  V30 1116 N 103.467 -1.45747 0.599634 0
M  V30 1117 C 104.414 -2.30467 -0.123849 0
M  V30 1118 C 105.384 -1.41632 -0.86774 0
M  V30 1119 O 106.569 -1.70568 -0.855056 0
M  V30 1120 C 103.709 -3.26402 -1.12051 0
M  V30 1121 C 102.822 -4.3034 -0.37832 0
M  V30 1122 C 101.957 -5.13389 -1.364 0
M  V30 1123 C 100.996 -6.09061 -0.609171 0
M  V30 1124 N 100.133 -6.84918 -1.54374 0
M  V30 1125 H 104.973 -2.91802 0.604627 0
M  V30 1126 H 102.51 -1.43797 0.309972 0
M  V30 1127 H 104.468 -3.80482 -1.7114 0
M  V30 1128 H 103.098 -2.66839 -1.8165 0
M  V30 1129 H 102.15 -3.78984 0.327929 0
M  V30 1130 H 103.462 -4.98354 0.210997 0
M  V30 1131 H 102.616 -5.7183 -2.02719 0
M  V30 1132 H 101.355 -4.45376 -1.98725 0
M  V30 1133 H 100.36 -5.49758 0.0676979 0
M  V30 1134 H 101.585 -6.79099 0.00891991 0
M  V30 1135 H 99.531 -6.19601 -2.15478 0
M  V30 1136 H 99.448 -7.49254 -1.00766 0
M  V30 1137 H 100.716 -7.47906 -2.19676 0
M  V30 1138 N 104.945 -0.338344 -1.53925 0
M  V30 1139 C 105.892 0.520845 -2.24846 0
M  V30 1140 C 106.862 1.09976 -1.24477 0
M  V30 1141 O 108.047 1.13735 -1.53196 0
M  V30 1142 C 105.187 1.6685 -3.02084 0
M  V30 1143 C 104.3 1.11739 -4.17299 0
M  V30 1144 C 103.435 2.23193 -4.82036 0
M  V30 1145 C 102.474 1.65407 -5.89328 0
M  V30 1146 N 101.611 2.70582 -6.47866 0
M  V30 1147 H 106.451 -0.0904881 -2.97863 0
M  V30 1148 H 103.988 -0.0564282 -1.46992 0
M  V30 1149 H 105.946 2.34407 -3.45122 0
M  V30 1150 H 104.576 2.2509 -2.31375 0
M  V30 1151 H 103.628 0.332919 -3.7894 0
M  V30 1152 H 104.94 0.654677 -4.94485 0
M  V30 1153 H 104.094 2.98626 -5.28117 0
M  V30 1154 H 102.833 2.72807 -4.04262 0
M  V30 1155 H 101.838 0.884779 -5.42634 0
M  V30 1156 H 103.063 1.16652 -6.69006 0
M  V30 1157 H 101.009 3.1946 -5.72959 0
M  V30 1158 H 100.926 2.28917 -7.20509 0
M  V30 1159 H 102.194 3.45799 -6.98601 0
M  V30 1160 N 106.423 1.57458 -0.0668435 0
M  V30 1161 C 107.353 2.15468 0.899764 0
M  V30 1162 C 108.334 1.08042 1.31381 0
M  V30 1163 O 109.519 1.36054 1.38574 0
M  V30 1164 C 106.649 2.71232 2.16911 0
M  V30 1165 C 105.603 3.83781 1.89463 0
M  V30 1166 C 104.929 4.26127 3.22986 0
M  V30 1167 C 106.229 5.08238 1.20381 0
M  V30 1168 H 107.923 2.96488 0.416529 0
M  V30 1169 H 105.469 1.4262 0.198908 0
M  V30 1170 H 107.422 3.10458 2.84945 0
M  V30 1171 H 106.146 1.87426 2.67468 0
M  V30 1172 H 104.805 3.45051 1.23836 0
M  V30 1173 H 104.453 3.39249 3.71374 0
M  V30 1174 H 104.153 5.01993 3.05413 0
M  V30 1175 H 105.677 4.67966 3.92225 0
M  V30 1176 H 107.091 5.44811 1.78475 0
M  V30 1177 H 105.488 5.89349 1.13083 0
M  V30 1178 H 106.558 4.84558 0.182153 0
M  V30 1179 N 107.901 -0.206675 1.56239 0
M  V30 1180 C 108.848 -1.25617 1.93621 0
M  V30 1181 C 109.818 -1.45824 0.795274 0
M  V30 1182 O 111.003 -1.59148 1.05245 0
M  V30 1183 C 108.143 -2.59839 2.27107 0
M  V30 1184 C 107.256 -2.47308 3.54207 0
M  V30 1185 C 106.391 -3.74155 3.7707 0
M  V30 1186 C 105.43 -3.56407 4.97635 0
M  V30 1187 N 104.567 -4.75238 5.1681 0
M  V30 1188 H 109.407 -0.930383 2.83104 0
M  V30 1189 H 106.944 -0.448065 1.4011 0
M  V30 1190 H 108.902 -3.38021 2.44535 0
M  V30 1191 H 107.532 -2.90485 1.40778 0
M  V30 1192 H 106.584 -1.60483 3.4489 0
M  V30 1193 H 107.896 -2.30122 4.42544 0
M  V30 1194 H 107.05 -4.60778 3.94675 0
M  V30 1195 H 105.789 -3.94282 2.87042 0
M  V30 1196 H 104.794 -2.68168 4.79964 0
M  V30 1197 H 106.019 -3.37736 5.89161 0
M  V30 1198 H 103.965 -4.95651 4.29728 0
M  V30 1199 H 103.882 -4.60835 5.99306 0
M  V30 1200 H 105.15 -5.63246 5.38864 0
M  V30 1201 N 109.379 -1.50304 -0.473955 0
M  V30 1202 C 110.619 -1.62786 -1.23612 0
M  V30 1203 C 110.983 -0.319786 -1.89318 0
M  V30 1204 O 112.184 -0.320012 -2.66888 0
M  V30 1205 C 110.455 -2.77351 -2.25414 0
M  V30 1206 S 112.014 -3.09948 -3.10608 0
M  V30 1207 H 108.832 -0.573895 -0.419721 0
M  V30 1208 H 111.434 -1.88076 -0.533623 0
M  V30 1209 H 110.138 -3.70879 -1.75719 0
M  V30 1210 H 109.669 -2.54137 -3.00296 0
M  V30 1211 H 111.684 -2.53553 -4.26527 0
M  V30 1212 N 110.857 0.726932 -1.39834 0
M  V30 1213 C 111.787 1.85405 -1.41941 0
M  V30 1214 C 112.768 1.67751 -0.281728 0
M  V30 1215 O 113.953 1.8795 -0.488717 0
M  V30 1216 C 111.083 3.23243 -1.2701 0
M  V30 1217 C 110.037 3.55549 -2.38262 0
M  V30 1218 C 109.363 4.9241 -2.08415 0
M  V30 1219 C 110.663 3.577 -3.80589 0
M  V30 1220 H 112.357 1.83899 -2.36266 0
M  V30 1221 H 109.903 0.883349 -1.13723 0
M  V30 1222 H 111.856 4.01775 -1.27103 0
M  V30 1223 H 110.58 3.25296 -0.291564 0
M  V30 1224 H 109.239 2.79351 -2.37399 0
M  V30 1225 H 108.887 4.91052 -1.0898 0
M  V30 1226 H 108.587 5.14992 -2.82943 0
M  V30 1227 H 110.111 5.73289 -2.10171 0
M  V30 1228 H 111.525 4.26293 -3.83337 0
M  V30 1229 H 109.922 3.91804 -4.54543 0
M  V30 1230 H 110.992 2.57328 -4.10987 0
M  V30 1231 N 112.336 1.25143 0.95797 0
M  V30 1232 C 113.564 1.12424 1.73691 0
M  V30 1233 C 113.979 -0.322304 1.86029 0
M  V30 1234 O 113.336 -1.22186 1.35561 0
M  V30 1235 C 113.387 1.76933 3.15241 0
M  V30 1236 O 113.108 3.15932 3.03511 0
M  V30 1237 C 114.609 1.6995 4.09429 0
M  V30 1238 H 111.829 0.3923 0.544373 0
M  V30 1239 H 114.373 1.6544 1.20207 0
M  V30 1240 H 112.528 1.27895 3.6568 0
M  V30 1241 H 112.942 3.47598 3.9278 0
M  V30 1242 H 114.416 2.19753 5.06372 0
M  V30 1243 H 114.893 0.662619 4.34173 0
M  V30 1244 H 115.499 2.18461 3.64904 0
M  V30 1245 N 113.814 -1.1601 1.06675 0
M  V30 1246 C 115.091 -1.82679 0.699114 0
M  V30 1247 C 115.471 -1.94559 -0.819137 0
M  V30 1248 O 114.819 -1.49169 -1.73092 0
M  V30 1249 C 115.029 -3.19445 1.40555 0
M  V30 1250 C 116.377 -3.95171 1.55323 0
M  V30 1251 O 117.401 -3.28976 1.36577 0
M  V30 1252 O 116.26 -5.13833 1.86112 0
M  V30 1253 H 113.354 -0.788954 0.247951 0
M  V30 1254 H 115.9 -1.23179 1.16726 0
M  V30 1255 H 114.672 -3.05856 2.44065 0
M  V30 1256 H 114.295 -3.86625 0.927733 0
M  V30 1257 N 115.292 -0.849877 -1.32721 0
M  V30 1258 C 116.541 -0.447175 -1.96681 0
M  V30 1259 C 116.854 1.00135 -1.68025 0
M  V30 1260 O 118.06 1.50926 -2.25685 0
M  V30 1261 C 116.516 -0.7487 -3.52026 0
M  V30 1262 C 116.124 -2.21264 -3.89546 0
M  V30 1263 C 117.868 -0.413487 -4.22481 0
M  V30 1264 C 115.775 -2.45763 -5.37917 0
M  V30 1265 H 114.705 -0.163486 -0.736063 0
M  V30 1266 H 117.356 -1.03999 -1.51183 0
M  V30 1267 H 115.738 -0.0853727 -3.95908 0
M  V30 1268 H 116.912 -2.91736 -3.56689 0
M  V30 1269 H 115.227 -2.5119 -3.32103 0
M  V30 1270 H 117.824 -0.574017 -5.3161 0
M  V30 1271 H 118.167 0.644492 -4.11281 0
M  V30 1272 H 118.7 -1.03251 -3.84167 0
M  V30 1273 H 115.439 -3.50168 -5.54132 0
M  V30 1274 H 114.959 -1.79864 -5.72197 0
M  V30 1275 H 116.638 -2.29471 -6.0494 0
M  V30 1276 N 116.77 1.45427 -0.607355 0
M  V30 1277 C 118 2.06314 -0.108656 0
M  V30 1278 C 118.408 1.45269 1.21217 0
M  V30 1279 O 117.751 0.561115 1.74921 0
M  V30 1280 C 117.813 3.59345 0.105618 0
M  V30 1281 C 117.477 4.42723 -1.13337 0
M  V30 1282 C 118.474 4.77715 -2.05145 0
M  V30 1283 C 116.159 4.83478 -1.36213 0
M  V30 1284 C 118.153 5.52317 -3.18158 0
M  V30 1285 C 115.84 5.57835 -2.49527 0
M  V30 1286 C 116.838 5.92171 -3.40327 0
M  V30 1287 O 116.526 6.65019 -4.51669 0
M  V30 1288 H 116.258 0.672782 -0.0658842 0
M  V30 1289 H 118.812 1.87664 -0.834945 0
M  V30 1290 H 117.042 3.76394 0.886796 0
M  V30 1291 H 118.731 4.02076 0.555886 0
M  V30 1292 H 119.497 4.46787 -1.88697 0
M  V30 1293 H 115.376 4.56188 -0.664362 0
M  V30 1294 H 118.92 5.79036 -3.89054 0
M  V30 1295 H 114.817 5.88177 -2.65928 0
M  V30 1296 H 115.585 6.83469 -4.50348 0
M  V30 1297 N 118.248 0.346503 1.53744 0
M  V30 1298 C 119.178 -0.501193 2.28058 0
M  V30 1299 C 120.159 -1.10014 1.29734 0
M  V30 1300 O 121.344 -1.12097 1.58581 0
M  V30 1301 C 118.474 -1.65078 3.05559 0
M  V30 1302 C 117.428 -1.18003 4.11411 0
M  V30 1303 C 116.754 -2.41837 4.76884 0
M  V30 1304 C 118.054 -0.278394 5.21558 0
M  V30 1305 H 119.748 0.11875 2.99164 0
M  V30 1306 H 117.294 0.0585531 1.43881 0
M  V30 1307 H 119.247 -2.25028 3.56287 0
M  V30 1308 H 117.971 -2.29767 2.32109 0
M  V30 1309 H 116.63 -0.603331 3.61601 0
M  V30 1310 H 116.278 -3.0494 4.00026 0
M  V30 1311 H 115.978 -2.1102 5.48402 0
M  V30 1312 H 117.502 -3.02508 5.30397 0
M  V30 1313 H 118.916 -0.784823 5.67903 0
M  V30 1314 H 117.313 -0.0619707 6.00068 0
M  V30 1315 H 118.383 0.684677 4.80042 0
M  V30 1316 N 119.726 -1.57421 0.075193 0
M  V30 1317 C 120.656 -2.15942 -0.888324 0
M  V30 1318 C 121.637 -1.08737 -1.30806 0
M  V30 1319 O 122.822 -1.36787 -1.37851 0
M  V30 1320 C 119.952 -2.72379 -2.1547 0
M  V30 1321 C 118.906 -3.8478 -1.87425 0
M  V30 1322 C 118.232 -4.27834 -3.20721 0
M  V30 1323 C 119.532 -5.08869 -1.17684 0
M  V30 1324 H 121.226 -2.96705 -0.400799 0
M  V30 1325 H 118.772 -1.42723 -0.191342 0
M  V30 1326 H 120.725 -3.11965 -2.83295 0
M  V30 1327 H 119.449 -1.88841 -2.6647 0
M  V30 1328 H 118.108 -3.45703 -1.22004 0
M  V30 1329 H 117.756 -3.41214 -3.6957 0
M  V30 1330 H 117.456 -5.03605 -3.02746 0
M  V30 1331 H 118.98 -4.70039 -3.89738 0
M  V30 1332 H 120.394 -5.4575 -1.75584 0
M  V30 1333 H 118.791 -5.8994 -1.09956 0
M  V30 1334 H 119.861 -4.84648 -0.156453 0
M  V30 1335 N 121.204 0.198386 -1.56346 0
M  V30 1336 C 122.152 1.26538 -1.95169 0
M  V30 1337 C 123.146 1.47295 -0.836685 0
M  V30 1338 O 124.352 1.48195 -1.02167 0
M  V30 1339 H 120.727 0.424744 -0.620561 0
M  V30 1340 H 122.698 0.910904 -2.84157 0
M  V30 1341 C 121.447 2.6035 -2.30463 0
M  V30 1342 H 120.77 2.45192 -3.15786 0
M  V30 1343 H 122.21 3.33762 -2.61494 0
M  V30 1344 C 120.669 3.17096 -1.13806 0
M  V30 1345 O 121.199 3.99588 -0.41135 0
M  V30 1346 N 119.405 2.75795 -0.915736 0
M  V30 1347 H 118.952 2.08816 -1.50843 0
M  V30 1348 H 118.91 3.14101 -0.136979 0
M  V30 1349 N 122.682 1.50554 0.465978 0
M  V30 1350 C 123.612 1.72722 1.57128 0
M  V30 1351 C 124.593 0.576294 1.6004 0
M  V30 1352 O 125.778 0.81598 1.76225 0
M  V30 1353 C 122.908 1.82605 2.95419 0
M  V30 1354 C 121.862 2.97835 3.07373 0
M  V30 1355 C 121.188 2.92867 4.47363 0
M  V30 1356 C 122.488 4.38265 2.84114 0
M  V30 1357 H 124.182 2.65267 1.38829 0
M  V30 1358 H 121.728 1.2765 0.666441 0
M  V30 1359 H 123.681 1.96698 3.72677 0
M  V30 1360 H 122.405 0.866858 3.14886 0
M  V30 1361 H 121.064 2.83401 2.3255 0
M  V30 1362 H 120.712 1.94783 4.63755 0
M  V30 1363 H 120.412 3.70227 4.56296 0
M  V30 1364 H 121.936 3.09015 5.26633 0
M  V30 1365 H 123.35 4.53198 3.51118 0
M  V30 1366 H 121.747 5.17115 3.04487 0
M  V30 1367 H 122.817 4.50281 1.7993 0
M  V30 1368 N 124.16 -0.719506 1.40217 0
M  V30 1369 C 125.123 -1.8153 1.39927 0
M  V30 1370 C 126.123 -1.58095 0.293723 0
M  V30 1371 O 127.313 -1.65209 0.552429 0
M  V30 1372 C 124.445 -3.19561 1.18716 0
M  V30 1373 H 125.638 -1.83186 2.37451 0
M  V30 1374 H 123.191 -0.924746 1.26008 0
M  V30 1375 H 123.926 -3.23557 0.219366 0
M  V30 1376 H 123.711 -3.3797 1.98793 0
M  V30 1377 H 125.201 -3.99598 1.21291 0
M  V30 1378 N 125.638 -1.25649 -0.95132 0
M  V30 1379 C 126.887 -1.09988 -1.69073 0
M  V30 1380 C 127.2 0.358355 -1.92289 0
M  V30 1381 O 128.406 0.635466 -2.63958 0
M  V30 1382 C 126.862 -1.92012 -3.044 0
M  V30 1383 C 126.47 -3.42347 -2.88968 0
M  V30 1384 C 128.214 -1.8493 -3.82101 0
M  V30 1385 C 126.121 -4.16655 -4.19705 0
M  V30 1386 H 125.051 -0.407993 -0.63408 0
M  V30 1387 H 127.702 -1.49873 -1.05879 0
M  V30 1388 H 126.084 -1.44952 -3.68517 0
M  V30 1389 H 127.258 -3.97104 -2.33762 0
M  V30 1390 H 125.573 -3.50557 -2.24719 0
M  V30 1391 H 128.17 -2.37739 -4.78941 0
M  V30 1392 H 128.513 -0.817883 -4.08187 0
M  V30 1393 H 129.046 -2.29758 -3.2474 0
M  V30 1394 H 125.785 -5.20224 -3.98807 0
M  V30 1395 H 125.305 -3.66681 -4.74663 0
M  V30 1396 H 126.984 -4.24551 -4.88227 0
M  V30 1397 N 127.117 1.15442 -1.07289 0
M  V30 1398 C 128.342 1.90638 -0.816828 0
M  V30 1399 C 128.767 1.77445 0.624083 0
M  V30 1400 O 128.125 1.10671 1.43602 0
M  V30 1401 C 128.173 3.39008 -1.22906 0
M  V30 1402 O 127.277 4.10701 -0.373975 0
M  V30 1403 H 126.618 0.593555 -0.297638 0
M  V30 1404 H 129.148 1.46198 -1.43134 0
M  V30 1405 H 129.158 3.89801 -1.20497 0
M  V30 1406 H 127.833 3.47929 -2.27856 0
M  V30 1407 H 126.41 3.70046 -0.460499 0
M  V30 1408 N 128.595 0.856903 1.32268 0
M  V30 1409 C 129.872 0.382583 1.91822 0
M  V30 1410 C 130.252 -1.13407 1.78051 0
M  V30 1411 O 129.6 -1.95673 1.18001 0
M  V30 1412 C 129.81 0.849446 3.38505 0
M  V30 1413 C 131.158 0.867936 4.15634 0
M  V30 1414 O 132.182 0.794232 3.47232 0
M  V30 1415 O 131.041 0.972286 5.37781 0
M  V30 1416 H 128.135 0.112014 0.819379 0
M  V30 1417 H 130.681 0.943952 1.41024 0
M  V30 1418 H 129.453 1.89267 3.42482 0
M  V30 1419 H 129.076 0.265652 3.96712 0
M  V30 1420 N 130.073 -1.45103 0.615059 0
M  V30 1421 C 131.003 -2.33339 -0.0865619 0
M  V30 1422 C 131.984 -1.4727 -0.851209 0
M  V30 1423 O 133.169 -1.76026 -0.820281 0
M  V30 1424 C 130.299 -3.30095 -1.07956 0
M  V30 1425 C 129.253 -4.25858 -0.427628 0
M  V30 1426 C 128.579 -5.12361 -1.5294 0
M  V30 1427 C 129.879 -5.18165 0.655944 0
M  V30 1428 H 131.573 -2.92254 0.650224 0
M  V30 1429 H 129.119 -1.40532 0.314138 0
M  V30 1430 H 131.072 -3.90698 -1.57901 0
M  V30 1431 H 129.796 -2.69355 -1.84703 0
M  V30 1432 H 128.455 -3.66564 0.0510292 0
M  V30 1433 H 128.103 -4.47984 -2.28734 0
M  V30 1434 H 127.803 -5.77238 -1.09865 0
M  V30 1435 H 129.327 -5.75833 -2.03098 0
M  V30 1436 H 130.741 -5.72796 0.240257 0
M  V30 1437 H 129.138 -5.91559 1.00888 0
M  V30 1438 H 130.208 -4.60144 1.52957 0
M  V30 1439 N 131.551 -0.354651 -1.53558 0
M  V30 1440 C 132.481 0.489091 -2.2832 0
M  V30 1441 C 133.462 1.09324 -1.30316 0
M  V30 1442 O 134.647 1.11255 -1.59173 0
M  V30 1443 C 131.777 1.63456 -3.0643 0
M  V30 1444 C 130.731 1.1582 -4.12031 0
M  V30 1445 C 130.057 2.39305 -4.7816 0
M  V30 1446 C 131.357 0.250731 -5.21698 0
M  V30 1447 H 133.051 -0.134614 -2.99097 0
M  V30 1448 H 130.597 -0.0661826 -1.43848 0
M  V30 1449 H 132.55 2.23136 -3.57475 0
M  V30 1450 H 131.274 2.28533 -2.33325 0
M  V30 1451 H 129.933 0.584146 -3.61916 0
M  V30 1452 H 129.581 3.02814 -4.01637 0
M  V30 1453 H 129.281 2.08109 -5.49513 0
M  V30 1454 H 130.805 2.99691 -5.31994 0
M  V30 1455 H 132.219 0.754695 -5.68311 0
M  V30 1456 H 130.616 0.0301468 -6.00092 0
M  V30 1457 H 131.686 -0.710125 -4.79672 0
M  V30 1458 N 133.029 1.57378 -0.0835403 0
M  V30 1459 C 134.276 1.9393 0.58287 0
M  V30 1460 C 134.604 0.964455 1.68904 0
M  V30 1461 O 133.859 -0.0179474 1.95692 0
M  V30 1462 C 134.158 3.37063 1.1884 0
M  V30 1463 C 133.824 4.50424 0.207194 0
M  V30 1464 C 132.486 4.81159 -0.0627115 0
M  V30 1465 C 134.838 5.19136 -0.463426 0
M  V30 1466 C 132.166 5.77939 -1.01012 0
M  V30 1467 C 134.518 6.16931 -1.39924 0
M  V30 1468 C 133.182 6.46078 -1.67749 0
M  V30 1469 H 132.452 0.70964 0.213287 0
M  V30 1470 H 135.099 1.90856 -0.156916 0
M  V30 1471 H 133.404 3.3666 2.00418 0
M  V30 1472 H 135.101 3.6264 1.71153 0
M  V30 1473 H 131.691 4.2646 0.427747 0
M  V30 1474 H 135.875 4.95576 -0.268034 0
M  V30 1475 H 131.131 5.98842 -1.23283 0
M  V30 1476 H 135.305 6.69273 -1.92476 0
M  V30 1477 H 132.932 7.2088 -2.41321 0
M  V30 1478 N 134.507 -0.190092 1.56449 0
M  V30 1479 C 135.437 -1.23816 1.97969 0
M  V30 1480 C 136.418 -1.47201 0.852395 0
M  V30 1481 O 137.603 -1.58854 1.1171 0
M  V30 1482 C 134.733 -2.5813 2.3235 0
M  V30 1483 C 133.687 -2.49348 3.47864 0
M  V30 1484 C 133.013 -3.8798 3.67934 0
M  V30 1485 C 134.313 -2.01424 4.81898 0
M  V30 1486 H 136.007 -0.89311 2.85769 0
M  V30 1487 H 133.553 -0.428177 1.37487 0
M  V30 1488 H 135.506 -3.31637 2.59991 0
M  V30 1489 H 134.23 -2.94386 1.41438 0
M  V30 1490 H 132.889 -1.78297 3.20321 0
M  V30 1491 H 132.537 -4.21597 2.74344 0
M  V30 1492 H 132.237 -3.82978 4.45648 0
M  V30 1493 H 133.761 -4.63101 3.97957 0
M  V30 1494 H 135.175 -2.64693 5.08538 0
M  V30 1495 H 133.572 -2.07413 5.63116 0
M  V30 1496 H 134.642 -0.967677 4.75146 0
M  V30 1497 N 135.985 -1.50799 -0.457987 0
M  V30 1498 C 137.234 -1.6168 -1.20593 0
M  V30 1499 C 137.547 -0.32888 -1.92815 0
M  V30 1500 O 138.753 -0.316773 -2.69646 0
M  V30 1501 C 137.209 -2.8545 -2.19195 0
M  V30 1502 C 136.817 -4.21168 -1.52715 0
M  V30 1503 C 138.561 -3.05681 -2.94549 0
M  V30 1504 C 136.468 -5.3611 -2.4968 0
M  V30 1505 H 135.398 -0.602134 -0.453818 0
M  V30 1506 H 138.049 -1.77245 -0.475031 0
M  V30 1507 H 136.431 -2.63472 -2.95632 0
M  V30 1508 H 137.605 -4.53449 -0.819775 0
M  V30 1509 H 135.92 -4.06648 -0.895922 0
M  V30 1510 H 138.517 -3.88727 -3.67145 0
M  V30 1511 H 138.86 -2.17929 -3.54701 0
M  V30 1512 H 139.393 -3.27901 -2.25223 0
M  V30 1513 H 136.132 -6.26057 -1.94249 0
M  V30 1514 H 135.652 -5.0823 -3.18532 0
M  V30 1515 H 137.331 -5.6722 -3.11241 0
M  V30 1516 N 137.463 0.71206 -1.40597 0
M  V30 1517 C 138.691 1.50111 -1.42388 0
M  V30 1518 C 139.106 1.88784 -0.0245395 0
M  V30 1519 O 138.463 1.55681 0.952351 0
M  V30 1520 C 138.514 2.7742 -2.31776 0
M  V30 1521 O 138.235 2.40382 -3.66262 0
M  V30 1522 C 139.736 3.7129 -2.42196 0
M  V30 1523 H 136.956 0.46314 -0.485533 0
M  V30 1524 H 139.5 0.878068 -1.8469 0
M  V30 1525 H 137.655 3.36001 -1.92827 0
M  V30 1526 H 138.069 3.22324 -4.13772 0
M  V30 1527 H 139.543 4.57448 -3.08943 0
M  V30 1528 H 140.02 4.14641 -1.44809 0
M  V30 1529 H 140.626 3.18619 -2.81712 0
M  V30 1530 N 138.941 1.26152 0.944643 0
M  V30 1531 C 139.871 1.09902 2.06019 0
M  V30 1532 C 140.852 0.00519538 1.70099 0
M  V30 1533 O 142.037 0.176583 1.93396 0
M  V30 1534 C 139.167 0.727562 3.39594 0
M  V30 1535 C 138.121 1.77274 3.89561 0
M  V30 1536 C 137.447 1.25569 5.19747 0
M  V30 1537 C 138.747 3.17357 4.14827 0
M  V30 1538 H 140.441 2.03217 2.19871 0
M  V30 1539 H 137.987 0.978452 1.05652 0
M  V30 1540 H 139.94 0.600777 4.17095 0
M  V30 1541 H 138.664 -0.241287 3.25707 0
M  V30 1542 H 137.323 1.88814 3.14237 0
M  V30 1543 H 136.971 0.276783 5.02238 0
M  V30 1544 H 136.671 1.95433 5.54148 0
M  V30 1545 H 138.195 1.1415 5.99835 0
M  V30 1546 H 139.609 3.08914 4.82954 0
M  V30 1547 H 138.006 3.84781 4.60504 0
M  V30 1548 H 139.076 3.63673 3.20734 0
M  V30 1549 N 140.419 -1.14872 1.07899 0
M  V30 1550 C 141.83 -1.67367 0.827363 0
M  V30 1551 C 142.181 -1.85236 -0.646693 0
M  V30 1552 O 141.306 -1.55974 -1.50004 0
M  V30 1553 C 141.901 -3.04016 1.49532 0
M  V30 1554 C 140.46 -3.53566 1.29106 0
M  V30 1555 C 139.607 -2.29161 1.56143 0
M  V30 1556 H 142.558 -0.990083 1.24028 0
M  V30 1557 H 142.579 -3.69219 0.919643 0
M  V30 1558 H 142.091 -2.90978 2.56814 0
M  V30 1559 H 140.192 -3.71835 0.238713 0
M  V30 1560 H 140.305 -4.34661 2.01511 0
M  V30 1561 H 138.669 -2.34978 0.982717 0
M  V30 1562 H 139.452 -2.18705 2.64619 0
M  V30 1563 N 141.898 -0.863906 -1.31812 0
M  V30 1564 C 142.828 -0.330843 -2.31144 0
M  V30 1565 C 143.809 0.575005 -1.60087 0
M  V30 1566 O 144.994 0.493304 -1.8783 0
M  V30 1567 C 142.124 0.47374 -3.44054 0
M  V30 1568 C 141.078 -0.338481 -4.26659 0
M  V30 1569 C 140.404 0.591412 -5.31419 0
M  V30 1570 C 141.704 -1.56926 -4.98168 0
M  V30 1571 H 143.398 -1.16086 -2.75979 0
M  V30 1572 H 140.944 -0.559657 -1.32679 0
M  V30 1573 H 142.897 0.857143 -4.12591 0
M  V30 1574 H 141.621 1.33721 -2.9797 0
M  V30 1575 H 140.28 -0.703754 -3.59782 0
M  V30 1576 H 139.928 1.45199 -4.81587 0
M  V30 1577 H 139.628 0.0519022 -5.87577 0
M  V30 1578 H 141.152 0.97179 -6.02817 0
M  V30 1579 H 142.566 -1.25764 -5.59336 0
M  V30 1580 H 140.963 -2.04739 -5.64094 0
M  V30 1581 H 142.033 -2.32544 -4.25501 0
M  V30 1582 N 143.376 1.44774 -0.622745 0
M  V30 1583 C 144.622 2.02968 -0.13257 0
M  V30 1584 C 144.977 1.48047 1.22881 0
M  V30 1585 O 144.27 0.651625 1.80179 0
M  V30 1586 C 144.464 3.57364 -0.0508323 0
M  V30 1587 C 144.293 4.27262 -1.40275 0
M  V30 1588 C 143.063 4.64577 -1.98737 0
M  V30 1589 C 145.261 4.58248 -2.3348 0
M  V30 1590 N 143.243 5.19404 -3.27251 0
M  V30 1591 C 144.614 5.14069 -3.46603 0
M  V30 1592 C 146.669 4.40195 -2.32664 0
M  V30 1593 C 145.372 5.53738 -4.59093 0
M  V30 1594 C 147.398 4.80907 -3.44213 0
M  V30 1595 C 146.76 5.36834 -4.56058 0
M  V30 1596 H 142.859 0.776541 -0.0922354 0
M  V30 1597 H 145.443 1.76385 -0.82441 0
M  V30 1598 H 143.614 3.83576 0.610265 0
M  V30 1599 H 145.346 4.02219 0.447397 0
M  V30 1600 H 142.101 4.48622 -1.51774 0
M  V30 1601 H 142.525 5.51301 -3.92933 0
M  V30 1602 H 147.167 3.96257 -1.47446 0
M  V30 1603 H 144.885 5.96635 -5.45025 0
M  V30 1604 H 148.471 4.68659 -3.44747 0
M  V30 1605 H 147.351 5.67755 -5.40947 0
M  V30 1606 N 144.854 0.36279 1.53368 0
M  V30 1607 C 145.817 -0.472679 2.24273 0
M  V30 1608 C 146.817 -1.012 1.24961 0
M  V30 1609 O 148.007 -0.898194 1.49259 0
M  V30 1610 C 145.139 -1.66039 2.97731 0
M  V30 1611 H 146.332 0.14773 2.99536 0
M  V30 1612 H 143.885 0.114434 1.55881 0
M  V30 1613 H 144.62 -2.31896 2.26704 0
M  V30 1614 H 144.405 -1.28066 3.70596 0
M  V30 1615 H 145.895 -2.25252 3.51641 0
M  V30 1616 N 146.332 -1.57332 0.0918853 0
M  V30 1617 C 147.282 -2.10385 -0.87876 0
M  V30 1618 C 148.266 -1.01814 -1.24591 0
M  V30 1619 O 149.458 -1.28093 -1.22152 0
M  V30 1620 C 146.587 -2.68517 -2.13901 0
M  V30 1621 C 145.673 -3.84126 -1.79744 0
M  V30 1622 N 146.064 -4.92288 -1.1613 0
M  V30 1623 C 144.362 -3.93801 -2.09373 0
M  V30 1624 C 145.063 -5.7295 -1.00513 0
M  V30 1625 N 144.039 -5.21876 -1.5214 0
M  V30 1626 H 147.841 -2.91395 -0.38293 0
M  V30 1627 H 145.355 -1.62017 -0.111423 0
M  V30 1628 H 147.352 -3.04852 -2.84378 0
M  V30 1629 H 146.012 -1.88961 -2.64053 0
M  V30 1630 H 147.023 -5.1123 -0.828504 0
M  V30 1631 H 143.7 -3.25249 -2.61762 0
M  V30 1632 H 145.09 -6.69978 -0.507902 0
M  V30 1633 N 147.81 0.181792 -1.56548 0
M  V30 1634 C 149.035 0.920019 -1.85877 0
M  V30 1635 C 149.46 1.75494 -0.677021 0
M  V30 1636 O 148.818 1.77399 0.374056 0
M  V30 1637 C 148.866 1.78112 -3.13542 0
M  V30 1638 O 147.97 2.88152 -2.95029 0
M  V30 1639 H 147.311 0.258334 -0.611686 0
M  V30 1640 H 149.841 0.183092 -2.03779 0
M  V30 1641 H 149.851 2.18314 -3.44678 0
M  V30 1642 H 148.526 1.16777 -3.99169 0
M  V30 1643 H 147.103 2.51609 -2.75222 0
M  V30 1644 N 149.288 1.51039 0.449983 0
M  V30 1645 C 150.251 1.70863 1.5277 0
M  V30 1646 C 151.251 0.578846 1.5002 0
M  V30 1647 O 152.441 0.846213 1.52266 0
M  V30 1648 C 149.573 1.75341 2.9235 0
M  V30 1649 H 150.766 2.67034 1.36502 0
M  V30 1650 H 148.319 1.40838 0.677812 0
M  V30 1651 H 149.054 0.809383 3.14037 0
M  V30 1652 H 148.839 2.57436 2.95752 0
M  V30 1653 H 150.329 1.92559 3.70555 0
M  V30 1654 N 150.766 -0.704594 1.40972 0
M  V30 1655 C 151.729 -1.80035 1.41845 0
M  V30 1656 C 152.729 -1.57774 0.310474 0
M  V30 1657 O 153.919 -1.64613 0.56992 0
M  V30 1658 C 151.051 -3.18284 1.22098 0
M  V30 1659 H 152.244 -1.80658 2.3938 0
M  V30 1660 H 149.797 -0.911329 1.26982 0
M  V30 1661 H 150.532 -3.23306 0.253672 0
M  V30 1662 H 150.317 -3.35843 2.02366 0
M  V30 1663 H 151.807 -3.98289 1.25522 0
M  V30 1664 N 152.244 -1.26651 -0.937939 0
M  V30 1665 C 153.192 -1.08308 -2.05845 0
M  V30 1666 C 154.186 -0.0090757 -1.69398 0
M  V30 1667 O 155.392 -0.166007 -1.79233 0
M  V30 1668 H 151.767 -0.333416 -0.674046 0
M  V30 1669 H 153.738 -2.03261 -2.18467 0
M  V30 1670 C 152.487 -0.736229 -3.39816 0
M  V30 1671 H 151.81 -1.55453 -3.6834 0
M  V30 1672 H 153.25 -0.64769 -4.19024 0
M  V30 1673 C 151.709 0.558824 -3.32233 0
M  V30 1674 O 152.239 1.59621 -3.68624 0
M  V30 1675 N 150.445 0.550657 -2.85335 0
M  V30 1676 H 149.992 -0.293943 -2.55917 0
M  V30 1677 H 149.95 1.41726 -2.80644 0
M  V30 1678 N 153.722 1.14298 -1.08507 0
M  V30 1679 C 154.632 2.23027 -0.727753 0
M  V30 1680 C 155.648 1.71952 0.26619 0
M  V30 1681 O 156.824 2.011 0.109882 0
M  V30 1682 C 153.889 3.46403 -0.143541 0
M  V30 1683 C 152.95 4.12413 -1.19223 0
M  V30 1684 C 152.183 5.29899 -0.635798 0
M  V30 1685 O 152.406 5.67796 0.544393 0
M  V30 1686 O 151.34 5.85717 -1.38634 0
M  V30 1687 H 155.166 2.55945 -1.63481 0
M  V30 1688 H 152.751 1.22248 -0.858817 0
M  V30 1689 H 154.633 4.21018 0.179404 0
M  V30 1690 H 153.308 3.15206 0.736659 0
M  V30 1691 H 152.215 3.39667 -1.56772 0
M  V30 1692 H 153.548 4.47718 -2.04474 0
M  V30 1693 N 155.201 0.870884 1.31352 0
M  V30 1694 C 156.447 0.492314 1.97352 0
M  V30 1695 C 156.802 -0.945174 1.67583 0
M  V30 1696 O 156.095 -1.65674 0.962423 0
M  V30 1697 C 156.289 0.687157 3.50732 0
M  V30 1698 C 156.118 2.14203 3.95407 0
M  V30 1699 C 154.888 2.78382 4.21701 0
M  V30 1700 C 157.086 3.1144 4.09279 0
M  V30 1701 N 155.068 4.14611 4.52737 0
M  V30 1702 C 156.439 4.32702 4.44037 0
M  V30 1703 C 158.494 3.07418 3.91661 0
M  V30 1704 C 157.197 5.50463 4.63015 0
M  V30 1705 C 159.223 4.24438 4.11833 0
M  V30 1706 C 158.585 5.44463 4.46923 0
M  V30 1707 H 154.684 0.229206 0.747655 0
M  V30 1708 H 157.268 1.12568 1.5886 0
M  V30 1709 H 155.439 0.083384 3.8831 0
M  V30 1710 H 157.171 0.276883 4.03752 0
M  V30 1711 H 153.926 2.29326 4.14375 0
M  V30 1712 H 154.35 4.84928 4.72413 0
M  V30 1713 H 158.992 2.15732 3.6362 0
M  V30 1714 H 156.71 6.42666 4.89904 0
M  V30 1715 H 160.296 4.2278 3.99685 0
M  V30 1716 H 159.176 6.33504 4.62214 0
M  V30 1717 N 156.679 -1.44442 0.630414 0
M  V30 1718 C 157.925 -2.02351 0.134816 0
M  V30 1719 C 158.258 -1.4947 -1.23986 0
M  V30 1720 O 157.533 -0.678475 -1.82283 0
M  V30 1721 C 157.816 -3.59898 0.120707 0
M  V30 1722 C 157.669 -4.23063 1.52767 0
M  V30 1723 C 158.988 -4.36585 -0.555127 0
M  V30 1724 H 156.107 -0.73527 0.0504646 0
M  V30 1725 H 158.749 -1.72022 0.806751 0
M  V30 1726 H 156.899 -3.85868 -0.451477 0
M  V30 1727 H 158.571 -4.08202 2.14869 0
M  V30 1728 H 156.814 -3.80586 2.08175 0
M  V30 1729 H 157.485 -5.32071 1.46984 0
M  V30 1730 H 159.961 -4.16044 -0.0685429 0
M  V30 1731 H 158.837 -5.46294 -0.534185 0
M  V30 1732 H 159.098 -4.11138 -1.62535 0
M  V30 1733 N 158.157 -0.370918 -1.53173 0
M  V30 1734 C 159.404 0.217102 -2.01333 0
M  V30 1735 C 159.732 1.48338 -1.25802 0
M  V30 1736 O 158.987 1.92698 -0.34146 0
M  V30 1737 C 159.286 0.549696 -3.53147 0
M  V30 1738 C 158.952 -0.622872 -4.46577 0
M  V30 1739 C 157.614 -0.944595 -4.71838 0
M  V30 1740 C 159.966 -1.40819 -5.01816 0
M  V30 1741 C 157.294 -2.05351 -5.49589 0
M  V30 1742 C 159.646 -2.50757 -5.80778 0
M  V30 1743 C 158.31 -2.83458 -6.04324 0
M  V30 1744 H 157.58 0.0794431 -0.736729 0
M  V30 1745 H 160.227 -0.504481 -1.84736 0
M  V30 1746 H 158.532 1.35237 -3.6772 0
M  V30 1747 H 160.229 1.017 -3.87889 0
M  V30 1748 H 156.819 -0.36209 -4.27068 0
M  V30 1749 H 161.003 -1.17289 -4.82242 0
M  V30 1750 H 156.259 -2.3108 -5.6605 0
M  V30 1751 H 160.433 -3.12022 -6.22588 0
M  V30 1752 H 158.06 -3.69508 -6.64355 0
M  V30 1753 N 159.635 1.57281 -0.100228 0
M  V30 1754 C 160.883 1.94153 0.561157 0
M  V30 1755 C 161.204 0.983157 1.68401 0
M  V30 1756 O 160.474 0.0361132 1.95867 0
M  V30 1757 H 159.054 0.716791 0.210283 0
M  V30 1758 H 161.716 1.94202 -0.164765 0
M  V30 1759 H 160.812 2.96709 0.968008 0
M  V30 1760 N 161.113 -0.173488 1.56642 0
M  V30 1761 C 162.061 -1.23417 1.97157 0
M  V30 1762 C 163.055 -1.45946 0.860013 0
M  V30 1763 O 164.261 -1.46551 1.04512 0
M  V30 1764 H 160.636 -0.414818 0.62724 0
M  V30 1765 H 162.607 -0.865582 2.8557 0
M  V30 1766 C 161.356 -2.5665 2.34576 0
M  V30 1767 H 160.679 -2.40137 3.19647 0
M  V30 1768 H 162.119 -3.2956 2.6677 0
M  V30 1769 C 160.578 -3.15245 1.18836 0
M  V30 1770 O 161.108 -3.98883 0.474869 0
M  V30 1771 N 159.314 -2.74303 0.959497 0
M  V30 1772 H 158.861 -2.0639 1.54146 0
M  V30 1773 H 158.819 -3.13844 0.186932 0
M  V30 1774 N 162.591 -1.51276 -0.441967 0
M  V30 1775 C 163.554 -1.7167 -1.51862 0
M  V30 1776 C 164.554 -0.586793 -1.49711 0
M  V30 1777 O 165.744 -0.854276 -1.51815 0
M  V30 1778 C 162.876 -1.76889 -2.91416 0
M  V30 1779 H 164.069 -2.67754 -1.35084 0
M  V30 1780 H 161.622 -1.41196 -0.670333 0
M  V30 1781 H 162.357 -0.826026 -3.13604 0
M  V30 1782 H 162.142 -2.59001 -2.94382 0
M  V30 1783 H 163.632 -1.94522 -3.69528 0
M  V30 1784 N 164.069 0.697108 -1.41344 0
M  V30 1785 C 165.002 1.82134 -1.37486 0
M  V30 1786 C 165.98 1.60784 -0.242351 0
M  V30 1787 O 167.164 1.83553 -0.429012 0
M  V30 1788 C 164.291 3.18788 -1.14421 0
M  V30 1789 C 163.337 3.58932 -2.3037 0
M  V30 1790 S 164.17 3.63916 -3.92843 0
M  V30 1791 C 165.326 5.03298 -3.72078 0
M  V30 1792 H 165.559 1.85129 -2.32625 0
M  V30 1793 H 163.092 0.865671 -1.2785 0
M  V30 1794 H 165.05 3.97677 -1.018 0
M  V30 1795 H 163.711 3.13404 -0.20905 0
M  V30 1796 H 162.904 4.58202 -2.09922 0
M  V30 1797 H 162.506 2.87347 -2.39391 0
M  V30 1798 H 164.798 5.90753 -3.31688 0
M  V30 1799 H 165.741 5.28788 -4.70945 0
M  V30 1800 H 166.149 4.74764 -3.05384 0
M  V30 1801 N 165.547 1.27147 0.931209 0
M  V30 1802 C 166.787 1.14511 1.69312 0
M  V30 1803 C 167.151 -0.304638 1.89568 0
M  V30 1804 O 168.352 -0.553343 2.63043 0
M  V30 1805 C 166.623 1.90349 3.02493 0
M  V30 1806 S 168.182 1.93884 3.93642 0
M  V30 1807 H 165 0.408858 0.581684 0
M  V30 1808 H 167.602 1.61006 1.10893 0
M  V30 1809 H 166.306 2.94877 2.85439 0
M  V30 1810 H 165.837 1.44333 3.65966 0
M  V30 1811 H 167.852 1.03273 4.85334 0
M  V30 1812 N 167.025 -1.13721 1.09112 0
M  V30 1813 C 167.972 -2.19031 0.727591 0
M  V30 1814 C 168.942 -1.63555 -0.289656 0
M  V30 1815 O 170.127 -1.90023 -0.172026 0
M  V30 1816 C 167.267 -3.4477 0.15082 0
M  V30 1817 C 166.38 -4.14365 1.22172 0
M  V30 1818 C 165.515 -5.27709 0.608042 0
M  V30 1819 C 164.554 -5.89147 1.66047 0
M  V30 1820 N 163.691 -6.93929 1.06806 0
M  V30 1821 H 168.531 -2.49475 1.62991 0
M  V30 1822 H 166.068 -1.22499 0.81439 0
M  V30 1823 H 168.026 -4.16714 -0.201358 0
M  V30 1824 H 166.656 -3.14787 -0.714783 0
M  V30 1825 H 165.708 -3.40737 1.69122 0
M  V30 1826 H 167.02 -4.56114 2.01895 0
M  V30 1827 H 166.174 -6.06355 0.204523 0
M  V30 1828 H 164.913 -4.872 -0.220769 0
M  V30 1829 H 163.918 -5.09198 2.07357 0
M  V30 1830 H 165.143 -6.31729 2.49189 0
M  V30 1831 H 163.089 -6.55483 0.260476 0
M  V30 1832 H 163.006 -7.34202 1.8023 0
M  V30 1833 H 164.274 -7.76434 0.690644 0
M  V30 1834 N 168.503 -0.877838 -1.30888 0
M  V30 1835 C 169.433 -0.35534 -2.3078 0
M  V30 1836 C 170.414 0.557994 -1.60687 0
M  V30 1837 O 171.599 0.473355 -1.88343 0
M  V30 1838 C 168.729 0.437221 -3.44537 0
M  V30 1839 C 167.683 -0.383715 -4.26276 0
M  V30 1840 C 167.009 0.535014 -5.32017 0
M  V30 1841 C 168.309 -1.62201 -4.96476 0
M  V30 1842 H 170.003 -1.19007 -2.74732 0
M  V30 1843 H 167.549 -0.573698 -1.32078 0
M  V30 1844 H 169.502 0.813334 -4.13477 0
M  V30 1845 H 168.226 1.30553 -2.99372 0
M  V30 1846 H 166.885 -0.741874 -3.59015 0
M  V30 1847 H 166.533 1.40083 -4.831 0
M  V30 1848 H 166.233 -0.0104211 -5.87599 0
M  V30 1849 H 167.757 0.907799 -6.03814 0
M  V30 1850 H 169.171 -1.31689 -5.5797 0
M  V30 1851 H 167.568 -2.10711 -5.61891 0
M  V30 1852 H 168.638 -2.37044 -4.23011 0
M  V30 1853 N 169.982 1.44106 -0.638065 0
M  V30 1854 C 171.229 2.01978 -0.14533 0
M  V30 1855 C 171.557 1.50234 1.23532 0
M  V30 1856 O 170.812 0.679548 1.83523 0
M  V30 1857 C 171.111 3.5729 -0.0887327 0
M  V30 1858 C 170.777 4.28317 -1.40909 0
M  V30 1859 C 169.439 4.47437 -1.77069 0
M  V30 1860 C 171.791 4.6867 -2.28031 0
M  V30 1861 C 169.119 5.04171 -3.00047 0
M  V30 1862 C 171.471 5.26766 -3.50286 0
M  V30 1863 C 170.135 5.44104 -3.86661 0
M  V30 1864 H 169.405 0.739089 -0.0531801 0
M  V30 1865 H 172.052 1.72781 -0.825761 0
M  V30 1866 H 170.357 3.8594 0.675095 0
M  V30 1867 H 172.054 3.99807 0.309145 0
M  V30 1868 H 168.644 4.1377 -1.1177 0
M  V30 1869 H 172.828 4.53604 -2.01388 0
M  V30 1870 H 168.084 5.15782 -3.28298 0
M  V30 1871 H 172.258 5.56983 -4.18023 0
M  V30 1872 H 169.885 5.87832 -4.82034 0
M  V30 1873 N 171.46 0.379036 1.52974 0
M  V30 1874 C 172.688 -0.20679 2.05864 0
M  V30 1875 C 173.103 -1.41356 1.25155 0
M  V30 1876 O 172.46 -1.8009 0.295588 0
M  V30 1877 C 172.511 -0.587045 3.56702 0
M  V30 1878 O 172.232 0.571776 4.34353 0
M  V30 1879 C 173.733 -1.22983 4.25899 0
M  V30 1880 H 170.953 -0.0336123 0.670158 0
M  V30 1881 H 173.497 0.541298 1.97206 0
M  V30 1882 H 171.652 -1.28504 3.65466 0
M  V30 1883 H 172.066 0.261544 5.23847 0
M  V30 1884 H 173.54 -1.44635 5.32715 0
M  V30 1885 H 174.017 -2.19416 3.80465 0
M  V30 1886 H 174.623 -0.572892 4.21424 0
M  V30 1887 N 172.938 -1.57226 0.108567 0
M  V30 1888 C 174.186 -1.94448 -0.550853 0
M  V30 1889 C 174.507 -0.992074 -1.67878 0
M  V30 1890 O 173.777 -0.0465 -1.95845 0
M  V30 1891 H 172.357 -0.717897 -0.206479 0
M  V30 1892 H 175.019 -1.94112 0.175062 0
M  V30 1893 H 174.115 -2.97218 -0.952259 0
M  V30 1894 N 174.416 0.165178 -1.56732 0
M  V30 1895 C 175.346 1.20651 -1.99914 0
M  V30 1896 C 176.327 1.45827 -0.875705 0
M  V30 1897 O 177.512 1.57057 -1.14223 0
M  V30 1898 C 174.642 2.54401 -2.36427 0
M  V30 1899 C 173.596 2.43782 -3.51787 0
M  V30 1900 C 172.922 3.82078 -3.7406 0
M  V30 1901 C 174.222 1.93732 -4.85041 0
M  V30 1902 H 175.916 0.847534 -2.87154 0
M  V30 1903 H 173.462 0.40625 -1.38151 0
M  V30 1904 H 175.415 3.27458 -2.65234 0
M  V30 1905 H 174.139 2.92098 -1.46103 0
M  V30 1906 H 172.798 1.73178 -3.23117 0
M  V30 1907 H 172.446 4.17179 -2.81017 0
M  V30 1908 H 172.146 3.7584 -4.51684 0
M  V30 1909 H 173.67 4.56712 -4.05274 0
M  V30 1910 H 175.084 2.56569 -5.12684 0
M  V30 1911 H 173.481 1.98428 -5.66345 0
M  V30 1912 H 174.551 0.891962 -4.76626 0
M  V30 1913 N 175.894 1.51508 0.433938 0
M  V30 1914 C 177.124 1.67914 1.20369 0
M  V30 1915 C 177.532 0.377461 1.85397 0
M  V30 1916 O 176.875 -0.654255 1.71654 0
M  V30 1917 C 176.937 2.74045 2.32679 0
M  V30 1918 C 176.601 4.16543 1.87991 0
M  V30 1919 C 177.598 5.01211 1.38145 0
M  V30 1920 C 175.283 4.6266 1.95579 0
M  V30 1921 C 177.277 6.30056 0.964774 0
M  V30 1922 C 174.964 5.91501 1.53523 0
M  V30 1923 C 175.962 6.75027 1.04055 0
M  V30 1924 O 175.65 8.01459 0.625964 0
M  V30 1925 H 175.382 0.566578 0.368735 0
M  V30 1926 H 177.936 1.98709 0.51999 0
M  V30 1927 H 176.166 2.38572 3.04336 0
M  V30 1928 H 177.855 2.79295 2.94532 0
M  V30 1929 H 178.621 4.66783 1.31675 0
M  V30 1930 H 174.5 3.97767 2.33029 0
M  V30 1931 H 178.044 6.95202 0.57796 0
M  V30 1932 H 173.941 6.25442 1.59665 0
M  V30 1933 H 174.709 8.15043 0.751509 0
M  V30 1934 N 177.372 -0.689602 1.41712 0
M  V30 1935 C 178.322 -1.79571 1.40493 0
M  V30 1936 C 179.306 -1.58473 0.278409 0
M  V30 1937 O 180.498 -1.69204 0.519532 0
M  V30 1938 C 177.627 -3.17923 1.29536 0
M  V30 1939 C 176.713 -3.44695 2.47075 0
M  V30 1940 N 177.104 -3.42132 3.72531 0
M  V30 1941 C 175.402 -3.75269 2.41017 0
M  V30 1942 C 176.103 -3.67976 4.50521 0
M  V30 1943 N 175.079 -3.88014 3.80718 0
M  V30 1944 H 178.881 -1.75961 2.35404 0
M  V30 1945 H 176.395 -0.889839 1.35851 0
M  V30 1946 H 178.392 -3.97167 1.26745 0
M  V30 1947 H 177.052 -3.22741 0.356153 0
M  V30 1948 H 178.063 -3.22375 4.05333 0
M  V30 1949 H 174.74 -3.87421 1.55599 0
M  V30 1950 H 176.13 -3.7208 5.59469 0
M  V30 1951 N 178.85 -1.27639 -0.924453 0
M  V30 1952 C 180.099 -1.13549 -1.66702 0
M  V30 1953 C 180.412 0.317487 -1.93006 0
M  V30 1954 O 181.618 0.579333 -2.65247 0
M  V30 1955 C 180.074 -1.98426 -3.00259 0
M  V30 1956 C 179.682 -3.484 -2.81641 0
M  V30 1957 C 181.426 -1.92993 -3.78092 0
M  V30 1958 C 179.333 -4.25464 -4.10773 0
M  V30 1959 H 178.263 -0.421351 -0.625283 0
M  V30 1960 H 180.914 -1.52085 -1.02676 0
M  V30 1961 H 179.296 -1.52736 -3.6536 0
M  V30 1962 H 180.47 -4.01973 -2.25287 0
M  V30 1963 H 178.785 -3.55245 -2.17232 0
M  V30 1964 H 181.382 -2.47844 -4.7379 0
M  V30 1965 H 181.725 -0.904281 -4.0636 0
M  V30 1966 H 182.258 -2.36595 -3.19793 0
M  V30 1967 H 178.997 -5.28566 -3.87683 0
M  V30 1968 H 178.517 -3.76667 -4.66779 0
M  V30 1969 H 180.196 -4.34812 -4.79111 0
M  V30 1970 N 180.328 1.1314 -1.09713 0
M  V30 1971 C 181.576 1.84119 -0.833338 0
M  V30 1972 C 181.897 1.84097 0.642904 0
M  V30 1973 O 181.167 1.29881 1.46655 0
M  V30 1974 H 179.747 0.681766 -0.305293 0
M  V30 1975 H 182.409 1.37038 -1.38588 0
M  V30 1976 H 181.505 2.88543 -1.18951 0
M  V30 1977 N 181.806 0.884767 1.30421 0
M  V30 1978 C 183.036 0.517293 2.00019 0
M  V30 1979 C 183.444 -0.898632 1.66497 0
M  V30 1980 O 182.787 -1.60245 0.898181 0
M  V30 1981 C 182.849 0.612025 3.54252 0
M  V30 1982 C 182.513 1.99222 4.1129 0
M  V30 1983 C 183.51 2.9616 4.273 0
M  V30 1984 C 181.195 2.29755 4.46674 0
M  V30 1985 C 183.189 4.21764 4.77906 0
M  V30 1986 C 180.876 3.55606 4.96979 0
M  V30 1987 C 181.874 4.51425 5.12547 0
M  V30 1988 O 181.562 5.75043 5.61766 0
M  V30 1989 H 181.294 0.198529 0.64619 0
M  V30 1990 H 183.848 1.1919 1.67281 0
M  V30 1991 H 182.078 -0.119561 3.86515 0
M  V30 1992 H 183.767 0.255859 4.05093 0
M  V30 1993 H 184.533 2.73882 4.00267 0
M  V30 1994 H 180.412 1.55942 4.33824 0
M  V30 1995 H 183.956 4.96561 4.89972 0
M  V30 1996 H 179.853 3.7772 5.23448 0
M  V30 1997 H 180.621 5.77422 5.80109 0
M  V30 1998 N 183.284 -1.43765 0.645699 0
M  V30 1999 C 184.531 -2.01898 0.15604 0
M  V30 2000 C 184.859 -1.50887 -1.22733 0
M  V30 2001 O 184.114 -0.689271 -1.8316 0
M  V30 2002 C 184.413 -3.57238 0.107679 0
M  V30 2003 C 184.079 -4.27564 1.43178 0
M  V30 2004 C 182.741 -4.46492 1.7944 0
M  V30 2005 C 185.093 -4.67454 2.30513 0
M  V30 2006 C 182.421 -5.02573 3.02716 0
M  V30 2007 C 184.773 -5.24901 3.53074 0
M  V30 2008 C 183.437 -5.42046 3.89541 0
M  V30 2009 H 182.707 -0.738797 0.057099 0
M  V30 2010 H 185.354 -1.72341 0.834912 0
M  V30 2011 H 183.659 -3.86293 -0.654618 0
M  V30 2012 H 185.356 -3.99965 -0.287938 0
M  V30 2013 H 181.946 -4.13171 1.13963 0
M  V30 2014 H 186.13 -4.5253 2.0379 0
M  V30 2015 H 181.386 -5.14033 3.31028 0
M  V30 2016 H 185.56 -5.54758 4.20971 0
M  V30 2017 H 183.187 -5.85268 4.85145 0
M  V30 2018 N 184.763 -0.387143 -1.52771 0
M  V30 2019 C 186.011 0.195349 -2.01154 0
M  V30 2020 C 186.332 1.475 -1.27549 0
M  V30 2021 O 185.602 1.91878 -0.394924 0
M  V30 2022 H 184.182 0.075178 -0.743207 0
M  V30 2023 H 186.844 -0.518337 -1.87881 0
M  V30 2024 H 185.94 0.407096 -3.09434 0
M  V30 2025 N 186.241 1.57166 -0.116904 0
M  V30 2026 C 187.489 1.94737 0.540533 0
M  V30 2027 C 187.81 1.00096 1.67349 0
M  V30 2028 O 187.08 0.0568854 1.95817 0
M  V30 2029 H 185.66 0.718981 0.202669 0
M  V30 2030 H 188.322 1.94017 -0.185353 0
M  V30 2031 H 187.418 2.97719 0.936483 0
M  V30 2032 N 187.719 -0.156864 1.56817 0
M  V30 2033 C 188.968 -0.869504 1.81996 0
M  V30 2034 C 189.281 -1.82777 0.696545 0
M  V30 2035 O 190.487 -2.58384 0.833658 0
M  V30 2036 C 188.943 -1.59679 3.22538 0
M  V30 2037 C 188.551 -0.681431 4.42787 0
M  V30 2038 C 190.295 -2.2968 3.56997 0
M  V30 2039 C 188.202 -1.40978 5.74351 0
M  V30 2040 H 187.132 -0.328438 0.678708 0
M  V30 2041 H 189.783 -0.1223 1.83092 0
M  V30 2042 H 188.165 -2.38927 3.158 0
M  V30 2043 H 189.339 0.0751166 4.60739 0
M  V30 2044 H 187.654 -0.0903431 4.16302 0
M  V30 2045 H 190.251 -2.84794 4.52544 0
M  V30 2046 H 190.594 -3.05707 2.82576 0
M  V30 2047 H 191.127 -1.57361 3.65352 0
M  V30 2048 H 187.866 -0.691561 6.51842 0
M  V30 2049 H 187.386 -2.13929 5.60352 0
M  V30 2050 H 189.065 -1.95337 6.16808 0
M  V30 2051 N 189.197 -1.51736 -0.425897 0
M  V30 2052 C 190.444 -1.6497 -1.17436 0
M  V30 2053 C 190.772 -0.371445 -1.9092 0
M  V30 2054 O 190.027 0.644963 -1.84767 0
M  V30 2055 C 190.326 -2.81103 -2.20717 0
M  V30 2056 C 189.992 -4.19954 -1.64162 0
M  V30 2057 C 188.654 -4.57725 -1.48462 0
M  V30 2058 C 191.006 -5.06552 -1.22696 0
M  V30 2059 C 188.334 -5.79789 -0.897873 0
M  V30 2060 C 190.686 -6.29205 -0.654464 0
M  V30 2061 C 189.35 -6.6574 -0.484456 0
M  V30 2062 H 188.62 -0.603668 -0.429727 0
M  V30 2063 H 191.267 -1.85798 -0.463829 0
M  V30 2064 H 189.572 -2.54542 -2.97852 0
M  V30 2065 H 191.269 -2.8854 -2.78471 0
M  V30 2066 H 187.859 -3.90181 -1.77361 0
M  V30 2067 H 192.043 -4.77968 -1.33642 0
M  V30 2068 H 187.299 -6.06733 -0.75402 0
M  V30 2069 H 191.473 -6.95643 -0.324694 0
M  V30 2070 H 189.1 -7.60195 -0.0276833 0
M  V30 2071 N 190.675 0.682077 -1.42076 0
M  V30 2072 C 191.922 1.44215 -1.42156 0
M  V30 2073 C 192.25 1.94468 -0.0354186 0
M  V30 2074 O 191.505 1.70816 0.955002 0
M  V30 2075 C 191.804 2.66036 -2.38662 0
M  V30 2076 C 191.47 2.34366 -3.85206 0
M  V30 2077 C 190.132 2.25439 -4.25124 0
M  V30 2078 C 192.484 2.08513 -4.77673 0
M  V30 2079 C 189.812 1.88775 -5.55501 0
M  V30 2080 C 192.164 1.73354 -6.08384 0
M  V30 2081 C 190.828 1.62933 -6.47309 0
M  V30 2082 H 190.098 0.527718 -0.520187 0
M  V30 2083 H 192.745 0.778387 -1.74967 0
M  V30 2084 H 191.05 3.3741 -1.99152 0
M  V30 2085 H 192.747 3.24205 -2.35991 0
M  V30 2086 H 189.337 2.42213 -3.53597 0
M  V30 2087 H 193.521 2.14346 -4.47626 0
M  V30 2088 H 188.777 1.7927 -5.84527 0
M  V30 2089 H 192.951 1.52373 -6.79526 0
M  V30 2090 H 190.578 1.34292 -7.48244 0
M  V30 2091 N 192.153 1.28127 0.917671 0
M  V30 2092 C 193.402 1.14432 1.66097 0
M  V30 2093 C 193.715 -0.307247 1.93172 0
M  V30 2094 O 194.921 -0.565259 2.65551 0
M  V30 2095 C 193.377 2.00015 2.99202 0
M  V30 2096 C 192.985 3.49889 2.79789 0
M  V30 2097 C 194.729 1.94996 3.77064 0
M  V30 2098 C 192.636 4.27636 4.08511 0
M  V30 2099 H 191.566 0.424662 0.62304 0
M  V30 2100 H 194.217 1.52628 1.01868 0
M  V30 2101 H 192.599 1.54672 3.64544 0
M  V30 2102 H 193.773 4.03162 2.23152 0
M  V30 2103 H 192.088 3.56392 2.15345 0
M  V30 2104 H 194.685 2.50354 4.72469 0
M  V30 2105 H 195.028 0.925819 4.05875 0
M  V30 2106 H 195.561 2.38287 3.18534 0
M  V30 2107 H 192.3 5.30615 3.84874 0
M  V30 2108 H 191.82 3.79137 4.64774 0
M  V30 2109 H 193.499 4.37346 4.76799 0
M  V30 2110 N 193.631 -1.12557 1.10312 0
M  V30 2111 C 194.88 -1.83395 0.839588 0
M  V30 2112 C 195.193 -1.84939 -0.636929 0
M  V30 2113 O 196.399 -2.51761 -1.01631 0
M  V30 2114 C 194.855 -3.29303 1.45215 0
M  V30 2115 C 194.463 -3.36122 2.96186 0
M  V30 2116 C 196.207 -4.05121 1.26796 0
M  V30 2117 C 194.114 -4.76357 3.50483 0
M  V30 2118 H 193.044 -0.687133 0.310425 0
M  V30 2119 H 195.695 -1.26746 1.32694 0
M  V30 2120 H 194.077 -3.85812 0.892469 0
M  V30 2121 H 195.251 -2.89559 3.58458 0
M  V30 2122 H 193.566 -2.73776 3.13745 0
M  V30 2123 H 196.163 -5.08668 1.64806 0
M  V30 2124 H 196.506 -4.15773 0.209409 0
M  V30 2125 H 197.039 -3.54967 1.79563 0
M  V30 2126 H 193.778 -4.70899 4.55998 0
M  V30 2127 H 193.298 -5.23377 2.92978 0
M  V30 2128 H 194.977 -5.45294 3.48228 0
M  V30 2129 N 195.109 -0.891671 -1.2995 0
M  V30 2130 C 196.039 -0.379797 -2.30391 0
M  V30 2131 C 197.02 0.540919 -1.6127 0
M  V30 2132 O 198.205 0.453352 -1.88834 0
M  V30 2133 C 195.335 0.400654 -3.44981 0
M  V30 2134 C 194.289 -0.428905 -4.25846 0
M  V30 2135 C 193.615 0.478557 -5.32554 0
M  V30 2136 C 194.915 -1.67458 -4.94727 0
M  V30 2137 H 196.609 -1.21914 -2.73454 0
M  V30 2138 H 194.155 -0.587675 -1.31462 0
M  V30 2139 H 196.108 0.769434 -4.14316 0
M  V30 2140 H 194.832 1.27371 -3.0074 0
M  V30 2141 H 193.491 -0.779911 -3.58208 0
M  V30 2142 H 193.139 1.34951 -4.84559 0
M  V30 2143 H 192.839 -0.0727433 -5.87555 0
M  V30 2144 H 194.363 0.843705 -6.04743 0
M  V30 2145 H 195.777 -1.376 -5.56542 0
M  V30 2146 H 194.174 -2.16659 -5.59624 0
M  V30 2147 H 195.244 -2.41518 -4.20473 0
M  V30 2148 N 196.587 1.43421 -0.653314 0
M  V30 2149 C 197.517 2.33487 0.0246656 0
M  V30 2150 C 198.498 1.49475 0.811863 0
M  V30 2151 O 199.683 1.78139 0.773322 0
M  V30 2152 C 196.813 3.32841 0.99166 0
M  V30 2153 C 195.767 4.26842 0.314568 0
M  V30 2154 C 195.093 5.16236 1.39302 0
M  V30 2155 C 196.393 5.16243 -0.793095 0
M  V30 2156 H 198.087 2.90427 -0.727481 0
M  V30 2157 H 195.633 1.39649 -0.351287 0
M  V30 2158 H 197.586 3.94747 1.47487 0
M  V30 2159 H 196.31 2.74158 1.77497 0
M  V30 2160 H 194.969 3.663 -0.148199 0
M  V30 2161 H 194.617 4.53891 2.16776 0
M  V30 2162 H 194.317 5.79948 0.945223 0
M  V30 2163 H 195.841 5.81015 1.87759 0
M  V30 2164 H 197.255 5.71958 -0.392039 0
M  V30 2165 H 195.652 5.88676 -1.16536 0
M  V30 2166 H 196.722 4.55927 -1.65103 0
M  V30 2167 N 198.065 0.39524 1.52563 0
M  V30 2168 C 199.293 -0.184943 2.06072 0
M  V30 2169 C 199.708 -1.40021 1.26647 0
M  V30 2170 O 199.065 -1.79767 0.314672 0
M  V30 2171 C 199.116 -0.549179 3.57304 0
M  V30 2172 O 198.837 0.617813 4.33722 0
M  V30 2173 C 200.338 -1.18459 4.2718 0
M  V30 2174 H 197.558 -0.0265025 0.670476 0
M  V30 2175 H 200.102 0.562184 1.96621 0
M  V30 2176 H 198.257 -1.2462 3.66809 0
M  V30 2177 H 198.671 0.317091 5.23541 0
M  V30 2178 H 200.145 -1.38976 5.34219 0
M  V30 2179 H 200.622 -2.15368 3.82771 0
M  V30 2180 H 201.228 -0.528163 4.22008 0
M  V30 2181 N 199.544 -1.57102 0.125237 0
M  V30 2182 C 200.793 -1.94582 -0.531095 0
M  V30 2183 C 201.106 -1.01126 -1.6743 0
M  V30 2184 O 202.312 -1.28097 -2.39381 0
M  V30 2185 C 200.768 -3.45839 -0.996164 0
M  V30 2186 C 200.376 -4.47842 0.118926 0
M  V30 2187 C 202.12 -3.92227 -1.62352 0
M  V30 2188 C 200.027 -5.90284 -0.363192 0
M  V30 2189 H 198.957 -0.726391 -0.20217 0
M  V30 2190 H 201.608 -1.82339 0.206092 0
M  V30 2191 H 199.99 -3.53338 -1.78796 0
M  V30 2192 H 201.164 -4.52018 0.895358 0
M  V30 2193 H 199.479 -4.11243 0.653324 0
M  V30 2194 H 202.076 -4.96069 -1.99548 0
M  V30 2195 H 202.419 -3.32552 -2.50429 0
M  V30 2196 H 202.952 -3.87554 -0.897019 0
M  V30 2197 H 199.691 -6.53728 0.481679 0
M  V30 2198 H 199.211 -5.89515 -1.10597 0
M  V30 2199 H 200.89 -6.41752 -0.822377 0
M  V30 2200 N 201.022 0.148545 -1.56898 0
M  V30 2201 C 202.299 0.890019 -1.74178 0
M  V30 2202 C 202.679 1.99407 -0.692839 0
M  V30 2203 O 202.027 2.26671 0.288505 0
M  V30 2204 C 202.237 1.43389 -3.18183 0
M  V30 2205 C 203.585 1.89791 -3.79822 0
M  V30 2206 O 204.609 1.53134 -3.21603 0
M  V30 2207 O 203.468 2.57387 -4.82093 0
M  V30 2208 H 200.562 0.420496 -0.712118 0
M  V30 2209 H 203.108 0.134591 -1.69165 0
M  V30 2210 H 201.88 0.640383 -3.86024 0
M  V30 2211 H 201.503 2.25287 -3.27615 0
M  V30 2212 N 202.5 1.5196 0.417844 0
M  V30 2213 C 203.916 1.40569 0.755816 0
M  V30 2214 C 204.116 0.503316 1.95113 0
M  V30 2215 O 203.172 -0.0341925 2.52477 0
M  V30 2216 C 204.485 2.82947 1.01791 0
M  V30 2217 C 206.033 2.92231 1.12116 0
M  V30 2218 C 206.508 4.35559 1.41608 0
M  V30 2219 N 207.999 4.38753 1.48491 0
M  V30 2220 C 208.734 5.46705 1.7292 0
M  V30 2221 N 208.23 6.64788 1.95011 0
M  V30 2222 N 210.023 5.34209 1.74863 0
M  V30 2223 H 202.174 2.09168 -0.369098 0
M  V30 2224 H 204.437 0.942409 -0.102809 0
M  V30 2225 H 204.143 3.5106 0.212081 0
M  V30 2226 H 204.017 3.23462 1.94042 0
M  V30 2227 H 206.404 2.24304 1.9176 0
M  V30 2228 H 206.485 2.55185 0.177225 0
M  V30 2229 H 206.129 5.04042 0.624848 0
M  V30 2230 H 206.059 4.70133 2.37239 0
M  V30 2231 H 208.55 3.5363 1.33244 0
M  V30 2232 H 208.863 7.42845 2.13076 0
M  V30 2233 H 207.208 6.67869 1.92293 0
M  V30 2234 H 210.399 4.40937 1.57137 0
M  V30 2235 H 210.572 6.18415 1.93563 0
M  V30 2236 N 203.978 -0.674533 1.42435 0
M  V30 2237 C 205.208 -1.46071 1.46105 0
M  V30 2238 C 205.616 -1.89067 0.0709605 0
M  V30 2239 O 204.959 -1.58731 -0.924677 0
M  V30 2240 C 205.021 -2.74145 2.32561 0
M  V30 2241 C 204.685 -2.53224 3.8043 0
M  V30 2242 C 205.682 -2.17809 4.72075 0
M  V30 2243 C 203.367 -2.6821 4.24698 0
M  V30 2244 C 205.361 -1.97648 6.05982 0
M  V30 2245 C 203.048 -2.47665 5.58664 0
M  V30 2246 C 204.046 -2.12437 6.49122 0
M  V30 2247 O 203.734 -1.9209 7.80613 0
M  V30 2248 H 203.466 -0.455959 0.499076 0
M  V30 2249 H 206.02 -0.836193 1.87609 0
M  V30 2250 H 204.25 -3.3908 1.85908 0
M  V30 2251 H 205.939 -3.36028 2.27683 0
M  V30 2252 H 206.705 -2.05826 4.39159 0
M  V30 2253 H 202.584 -2.94609 3.54579 0
M  V30 2254 H 206.128 -1.70075 6.7655 0
M  V30 2255 H 202.025 -2.59244 5.91154 0
M  V30 2256 H 202.793 -2.06686 7.91974 0
M  V30 2257 N 205.456 -1.28612 -0.910864 0
M  V30 2258 C 206.386 -1.15326 -2.03032 0
M  V30 2259 C 207.367 -0.0502924 -1.70026 0
M  V30 2260 O 208.552 -0.227797 -1.92859 0
M  V30 2261 C 205.682 -0.817343 -3.37545 0
M  V30 2262 C 204.636 -1.8754 -3.84724 0
M  V30 2263 C 203.962 -1.39305 -5.16235 0
M  V30 2264 C 205.262 -3.28244 -4.06267 0
M  V30 2265 H 206.956 -2.08975 -2.14406 0
M  V30 2266 H 204.502 -1.00612 -1.03021 0
M  V30 2267 H 206.455 -0.711151 -4.15356 0
M  V30 2268 H 205.179 0.154846 -3.26233 0
M  V30 2269 H 203.838 -1.97079 -3.09121 0
M  V30 2270 H 203.486 -0.409846 -5.01328 0
M  V30 2271 H 203.186 -2.10057 -5.48771 0
M  V30 2272 H 204.71 -1.30014 -5.96598 0
M  V30 2273 H 206.124 -3.21611 -4.74594 0
M  V30 2274 H 204.521 -3.96855 -4.5014 0
M  V30 2275 H 205.591 -3.72048 -3.10979 0
M  V30 2276 N 206.934 1.1197 -1.10907 0
M  V30 2277 C 207.897 2.16031 -0.765707 0
M  V30 2278 C 208.897 1.59393 0.212235 0
M  V30 2279 O 210.087 1.74196 -0.0115441 0
M  V30 2280 C 207.219 3.40632 -0.135053 0
M  V30 2281 H 208.412 2.47919 -1.68748 0
M  V30 2282 H 205.965 1.27061 -0.910226 0
M  V30 2283 H 206.7 3.14348 0.797218 0
M  V30 2284 H 206.485 3.8302 -0.838937 0
M  V30 2285 H 207.975 4.17505 0.0892469 0
M  V30 2286 N 208.412 0.89855 1.29475 0
M  V30 2287 C 209.661 0.519863 1.94885 0
M  V30 2288 C 209.974 -0.9383 1.71625 0
M  V30 2289 O 211.18 -1.42445 2.31131 0
M  V30 2290 C 209.636 0.878836 3.49005 0
M  V30 2291 C 209.244 2.35569 3.81066 0
M  V30 2292 C 210.988 0.570004 4.20656 0
M  V30 2293 C 208.895 2.65558 5.28425 0
M  V30 2294 H 207.825 0.190692 0.729488 0
M  V30 2295 H 210.476 1.09539 1.47219 0
M  V30 2296 H 208.858 0.232253 3.95318 0
M  V30 2297 H 210.032 3.04773 3.45616 0
M  V30 2298 H 208.347 2.63343 3.22552 0
M  V30 2299 H 210.944 0.770925 5.29113 0
M  V30 2300 H 211.287 -0.491404 4.1339 0
M  V30 2301 H 211.82 1.17438 3.8007 0
M  V30 2302 H 208.559 3.70493 5.40754 0
M  V30 2303 H 208.079 2.00977 5.65127 0
M  V30 2304 H 209.758 2.51765 5.96006 0
M  V30 2305 N 209.89 -1.43072 0.660911 0
M  V30 2306 C 211.136 -2.0202 0.177708 0
M  V30 2307 C 211.469 -1.52066 -1.20787 0
M  V30 2308 O 210.744 -0.716987 -1.80802 0
M  V30 2309 C 211.027 -3.59561 0.197019 0
M  V30 2310 C 210.88 -4.19727 1.61706 0
M  V30 2311 C 212.199 -4.37664 -0.462396 0
M  V30 2312 H 209.318 -0.734034 0.0660494 0
M  V30 2313 H 211.96 -1.70272 0.843058 0
M  V30 2314 H 210.11 -3.86739 -0.369527 0
M  V30 2315 H 211.782 -4.03553 2.23479 0
M  V30 2316 H 210.025 -3.76084 2.16201 0
M  V30 2317 H 210.696 -5.28834 1.58237 0
M  V30 2318 H 213.172 -4.16095 0.0197215 0
M  V30 2319 H 212.048 -5.47305 -0.418188 0
M  V30 2320 H 212.309 -4.14493 -1.53778 0
M  V30 2321 N 211.368 -0.403325 -1.52352 0
M  V30 2322 C 212.318 0.442244 -2.2367 0
M  V30 2323 C 213.302 1.01823 -1.24583 0
M  V30 2324 O 214.494 0.942005 -1.49851 0
M  V30 2325 C 211.623 1.5615 -3.05732 0
M  V30 2326 C 210.709 0.996575 -4.12225 0
M  V30 2327 N 211.1 0.157804 -5.05554 0
M  V30 2328 C 209.398 1.26767 -4.27605 0
M  V30 2329 C 210.099 -0.155853 -5.81491 0
M  V30 2330 N 209.075 0.451775 -5.41719 0
M  V30 2331 H 212.877 -0.204964 -2.93184 0
M  V30 2332 H 210.391 -0.213418 -1.60992 0
M  V30 2333 H 212.388 2.17981 -3.55373 0
M  V30 2334 H 211.048 2.21139 -2.37755 0
M  V30 2335 H 212.059 -0.206049 -5.1749 0
M  V30 2336 H 208.736 1.91757 -3.70858 0
M  V30 2337 H 210.126 -0.836329 -6.66675 0
M  V30 2338 N 212.846 1.57033 -0.133567 0
M  V30 2339 C 213.809 2.14897 0.796995 0
M  V30 2340 C 214.809 1.0874 1.18458 0
M  V30 2341 O 215.999 1.34446 1.1077 0
M  V30 2342 C 213.131 2.70112 2.07973 0
M  V30 2343 H 214.324 2.98457 0.293873 0
M  V30 2344 H 211.877 1.55871 0.115787 0
M  V30 2345 H 212.612 1.9018 2.62682 0
M  V30 2346 H 212.397 3.47764 1.81115 0
M  V30 2347 H 213.887 3.14738 2.74462 0
M  V30 2348 N 214.325 -0.140222 1.56975 0
M  V30 2349 C 215.571 -0.852949 1.83991 0
M  V30 2350 C 215.904 -1.80512 0.716187 0
M  V30 2351 O 215.179 -1.92479 -0.279681 0
M  V30 2352 C 215.462 -1.6215 3.21527 0
M  V30 2353 C 215.315 -0.690363 4.4447 0
M  V30 2354 C 216.634 -2.58247 3.56366 0
M  V30 2355 H 213.753 -0.308634 0.669264 0
M  V30 2356 H 216.395 -0.117898 1.89634 0
M  V30 2357 H 214.545 -2.24812 3.16847 0
M  V30 2358 H 216.217 -0.0742264 4.6124 0
M  V30 2359 H 214.46 -0.000396433 4.338 0
M  V30 2360 H 215.131 -1.2643 5.37326 0
M  V30 2361 H 217.607 -2.05701 3.61699 0
M  V30 2362 H 216.483 -3.09067 4.53617 0
M  V30 2363 H 216.744 -3.39923 2.82674 0
M  V30 2364 N 215.803 -1.52179 -0.40978 0
M  V30 2365 C 217.05 -1.66206 -1.15679 0
M  V30 2366 C 217.378 -0.391674 -1.90516 0
M  V30 2367 O 216.633 0.62533 -1.8544 0
M  V30 2368 C 216.932 -2.83428 -2.17723 0
M  V30 2369 C 216.598 -4.21672 -1.59699 0
M  V30 2370 C 215.26 -4.59274 -1.43599 0
M  V30 2371 C 217.612 -5.07825 -1.17317 0
M  V30 2372 C 214.94 -5.80709 -0.836328 0
M  V30 2373 C 217.292 -6.29864 -0.587691 0
M  V30 2374 C 215.956 -6.66216 -0.413818 0
M  V30 2375 H 215.226 -0.608192 -0.423301 0
M  V30 2376 H 217.873 -1.86279 -0.444097 0
M  V30 2377 H 216.178 -2.57687 -2.95135 0
M  V30 2378 H 217.875 -2.91477 -2.75394 0
M  V30 2379 H 214.465 -3.9204 -1.73213 0
M  V30 2380 H 218.649 -4.79359 -1.28565 0
M  V30 2381 H 213.905 -6.07498 -0.689626 0
M  V30 2382 H 218.079 -6.95948 -0.250894 0
M  V30 2383 H 215.706 -7.60182 0.0529471 0
M  V30 2384 N 217.281 0.66697 -1.42791 0
M  V30 2385 C 218.244 1.76211 -1.46568 0
M  V30 2386 C 219.244 1.56896 -0.352196 0
M  V30 2387 O 220.434 1.63044 -0.613364 0
M  V30 2388 C 217.566 3.14935 -1.30494 0
M  V30 2389 H 218.759 1.74247 -2.44086 0
M  V30 2390 H 216.312 0.877342 -1.29354 0
M  V30 2391 H 217.047 3.2252 -0.339301 0
M  V30 2392 H 216.832 3.30359 -2.11199 0
M  V30 2393 H 218.322 3.94821 -1.36038 0
M  V30 2394 N 218.759 1.29093 0.90403 0
M  V30 2395 C 219.689 1.16401 2.02418 0
M  V30 2396 C 220.67 0.0593085 1.69997 0
M  V30 2397 O 221.855 0.238021 1.92736 0
M  V30 2398 C 218.985 0.835233 3.37107 0
M  V30 2399 C 217.939 1.89578 3.83724 0
M  V30 2400 C 217.265 1.42041 5.15489 0
M  V30 2401 C 218.565 3.30394 4.04521 0
M  V30 2402 H 220.259 2.10109 2.13295 0
M  V30 2403 H 217.805 1.01157 1.02486 0
M  V30 2404 H 219.758 0.733169 4.14973 0
M  V30 2405 H 218.482 -0.137543 3.2631 0
M  V30 2406 H 217.141 1.98715 3.08071 0
M  V30 2407 H 216.789 0.436426 5.01103 0
M  V30 2408 H 216.489 2.12964 5.4765 0
M  V30 2409 H 218.013 1.33176 5.959 0
M  V30 2410 H 219.427 3.24123 4.72882 0
M  V30 2411 H 217.824 3.99237 4.48029 0
M  V30 2412 H 218.894 3.73692 3.09002 0
M  V30 2413 N 220.237 -1.11381 1.11499 0
M  V30 2414 C 221.184 -2.17439 0.773887 0
M  V30 2415 C 222.154 -1.64132 -0.254899 0
M  V30 2416 O 223.339 -1.90345 -0.13168 0
M  V30 2417 C 220.479 -3.44373 0.223917 0
M  V30 2418 C 219.592 -4.1168 1.30934 0
M  V30 2419 C 218.727 -5.263 0.71984 0
M  V30 2420 C 217.766 -5.85493 1.78507 0
M  V30 2421 N 216.903 -6.91507 1.21502 0
M  V30 2422 H 221.743 -2.45962 1.68246 0
M  V30 2423 H 219.28 -1.20744 0.840191 0
M  V30 2424 H 221.238 -4.17047 -0.112921 0
M  V30 2425 H 219.868 -3.16232 -0.647851 0
M  V30 2426 H 218.92 -3.37073 1.76312 0
M  V30 2427 H 220.232 -4.51729 2.11524 0
M  V30 2428 H 219.386 -6.05785 0.333094 0
M  V30 2429 H 218.125 -4.87559 -0.117377 0
M  V30 2430 H 217.13 -5.04686 2.18111 0
M  V30 2431 H 218.355 -6.26301 2.62533 0
M  V30 2432 H 216.301 -6.54783 0.399455 0
M  V30 2433 H 216.218 -7.30214 1.95763 0
M  V30 2434 H 217.486 -7.74795 0.855181 0
M  V30 2435 N 221.715 -0.905404 -1.28997 0
M  V30 2436 C 222.678 -0.392253 -2.25819 0
M  V30 2437 C 223.678 0.476753 -1.5357 0
M  V30 2438 O 224.868 0.280994 -1.71919 0
M  V30 2439 C 222 0.438588 -3.38067 0
M  V30 2440 H 223.193 -1.24743 -2.72725 0
M  V30 2441 H 220.746 -0.684051 -1.40536 0
M  V30 2442 H 221.481 1.31352 -2.96508 0
M  V30 2443 H 221.266 -0.184167 -3.91667 0
M  V30 2444 H 222.756 0.78873 -4.10084 0
M  V30 2445 N 223.193 1.4272 -0.668489 0
M  V30 2446 C 224.609 1.55992 -0.33745 0
M  V30 2447 C 224.809 1.64933 1.15756 0
M  V30 2448 O 223.865 1.61278 1.94282 0
M  V30 2449 C 225.178 2.81314 -1.06222 0
M  V30 2450 C 226.726 2.95078 -1.04394 0
M  V30 2451 C 227.201 4.23252 -1.74991 0
M  V30 2452 N 228.692 4.3015 -1.71829 0
M  V30 2453 C 229.427 5.28127 -2.23315 0
M  V30 2454 N 228.923 6.32293 -2.83156 0
M  V30 2455 N 230.716 5.19882 -2.13726 0
M  V30 2456 H 222.867 1.3516 -1.63846 0
M  V30 2457 H 225.13 0.650174 -0.689912 0
M  V30 2458 H 224.836 2.80823 -2.11734 0
M  V30 2459 H 224.71 3.72012 -0.62344 0
M  V30 2460 H 227.097 2.951 0.0028244 0
M  V30 2461 H 227.178 2.05627 -1.52155 0
M  V30 2462 H 226.822 4.2399 -2.79633 0
M  V30 2463 H 226.752 5.11626 -1.24685 0
M  V30 2464 H 229.243 3.55499 -1.28175 0
M  V30 2465 H 229.556 7.03398 -3.20079 0
M  V30 2466 H 227.901 6.32873 -2.87223 0
M  V30 2467 H 231.092 4.37423 -1.66669 0
M  V30 2468 H 231.265 5.96077 -2.54158 0
M  V30 2469 N 224.671 0.411399 1.52136 0
M  V30 2470 C 225.899 -0.163076 2.06256 0
M  V30 2471 C 226.314 -1.3867 1.28125 0
M  V30 2472 O 225.671 -1.79423 0.333721 0
M  V30 2473 C 225.722 -0.511252 3.57867 0
M  V30 2474 O 225.443 0.66378 4.33042 0
M  V30 2475 C 226.944 -1.13921 4.28412 0
M  V30 2476 H 224.164 -0.0193897 0.67072 0
M  V30 2477 H 226.708 0.583007 1.96013 0
M  V30 2478 H 224.863 -1.20723 3.6811 0
M  V30 2479 H 225.277 0.372601 5.23175 0
M  V30 2480 H 226.751 -1.33302 5.35663 0
M  V30 2481 H 227.228 -2.11296 3.85033 0
M  V30 2482 H 227.834 -0.483373 4.22544 0
M  V30 2483 N 226.149 -1.5696 0.141893 0
M  V30 2484 C 227.395 -1.9625 -0.511248 0
M  V30 2485 C 227.728 -1.02654 -1.64851 0
M  V30 2486 O 227.003 -0.0679676 -1.94381 0
M  V30 2487 C 227.286 -3.45285 -1.02227 0
M  V30 2488 C 227.139 -4.49658 0.113138 0
M  V30 2489 C 228.458 -3.96698 -1.90574 0
M  V30 2490 H 225.577 -0.713567 -0.184367 0
M  V30 2491 H 228.219 -1.88698 0.222087 0
M  V30 2492 H 226.369 -3.51852 -1.64719 0
M  V30 2493 H 228.041 -4.55174 0.749302 0
M  V30 2494 H 226.284 -4.26857 0.773026 0
M  V30 2495 H 226.955 -5.51258 -0.286053 0
M  V30 2496 H 229.431 -3.92578 -1.37918 0
M  V30 2497 H 228.307 -5.01453 -2.2324 0
M  V30 2498 H 228.568 -3.3875 -2.84079 0
M  V30 2499 N 227.627 0.131896 -1.57047 0
M  V30 2500 C 228.855 0.856461 -1.88341 0
M  V30 2501 C 229.27 1.74042 -0.731757 0
M  V30 2502 O 228.627 1.80051 0.297945 0
M  V30 2503 C 228.678 1.70064 -3.18999 0
M  V30 2504 O 228.399 0.852278 -4.2973 0
M  V30 2505 C 229.9 2.53148 -3.63911 0
M  V30 2506 H 227.12 0.246885 -0.62393 0
M  V30 2507 H 229.664 0.120152 -2.04147 0
M  V30 2508 H 227.819 2.38984 -3.04902 0
M  V30 2509 H 228.233 1.43329 -5.04537 0
M  V30 2510 H 229.707 3.07931 -4.58129 0
M  V30 2511 H 230.184 3.29901 -2.89935 0
M  V30 2512 H 230.79 1.89492 -3.80753 0
M  V30 2513 N 229.106 1.52395 0.401703 0
M  V30 2514 C 230.353 1.66817 1.14796 0
M  V30 2515 C 230.681 0.401772 1.90305 0
M  V30 2516 O 229.936 -0.615487 1.85769 0
M  V30 2517 C 230.235 2.84578 2.16217 0
M  V30 2518 C 229.901 4.22513 1.5746 0
M  V30 2519 C 228.563 4.60029 1.41161 0
M  V30 2520 C 230.915 5.0844 1.14622 0
M  V30 2521 C 228.243 5.81144 0.80552 0
M  V30 2522 C 230.595 6.30167 0.55428 0
M  V30 2523 C 229.259 6.66426 0.378482 0
M  V30 2524 H 228.529 0.610428 0.420069 0
M  V30 2525 H 231.176 1.86512 0.434212 0
M  V30 2526 H 229.481 2.59248 2.93764 0
M  V30 2527 H 231.178 2.92933 2.73845 0
M  V30 2528 H 227.768 3.92953 1.71132 0
M  V30 2529 H 231.952 4.80034 1.26021 0
M  V30 2530 H 227.208 6.07855 0.657399 0
M  V30 2531 H 231.382 6.96071 0.213983 0
M  V30 2532 H 229.009 7.60143 -0.0932606 0
M  V30 2533 N 230.584 -0.659388 1.43143 0
M  V30 2534 C 231.832 -1.41654 1.44147 0
M  V30 2535 C 232.153 -1.94893 0.0645739 0
M  V30 2536 O 231.423 -1.74044 -0.899198 0
M  V30 2537 H 230.003 -0.525708 0.530697 0
M  V30 2538 H 232.665 -0.778097 1.78694 0
M  V30 2539 H 231.761 -2.26195 2.1504 0
M  V30 2540 N 232.062 -1.29571 -0.897171 0
M  V30 2541 C 233.308 -1.17863 -1.65034 0
M  V30 2542 C 233.641 0.268729 -1.92332 0
M  V30 2543 O 232.916 1.19378 -1.53555 0
M  V30 2544 C 233.199 -1.995 -2.99786 0
M  V30 2545 C 233.052 -3.5239 -2.79538 0
M  V30 2546 C 234.371 -1.82335 -4.00552 0
M  V30 2547 H 231.49 -0.429528 -0.598895 0
M  V30 2548 H 234.132 -1.59072 -1.03905 0
M  V30 2549 H 232.282 -1.64485 -3.51962 0
M  V30 2550 H 233.954 -3.97401 -2.34244 0
M  V30 2551 H 232.197 -3.77187 -2.14273 0
M  V30 2552 H 232.868 -4.04787 -3.75302 0
M  V30 2553 H 235.344 -2.12924 -3.57495 0
M  V30 2554 H 234.22 -2.41801 -4.92771 0
M  V30 2555 H 234.481 -0.779209 -4.35179 0
M  V30 2556 N 233.54 1.10788 -1.12088 0
M  V30 2557 C 234.786 1.82942 -0.875226 0
M  V30 2558 C 235.119 1.84779 0.597538 0
M  V30 2559 O 234.394 1.30578 1.44152 0
M  V30 2560 C 234.677 3.29789 -1.44606 0
M  V30 2561 C 234.53 3.36307 -2.98693 0
M  V30 2562 C 235.849 4.26064 -1.10261 0
M  V30 2563 H 232.968 0.664195 -0.319397 0
M  V30 2564 H 235.61 1.29867 -1.38689 0
M  V30 2565 H 233.76 3.75118 -1.01089 0
M  V30 2566 H 235.432 2.99487 -3.50864 0
M  V30 2567 H 233.675 2.76318 -3.34411 0
M  V30 2568 H 234.346 4.39694 -3.33726 0
M  V30 2569 H 236.822 3.88951 -1.4784 0
M  V30 2570 H 235.698 5.27183 -1.52869 0
M  V30 2571 H 235.959 4.42098 -0.0142953 0
M  V30 2572 N 235.018 0.912232 1.28515 0
M  V30 2573 C 236.246 0.560416 1.99166 0
M  V30 2574 C 236.661 -0.857927 1.68182 0
M  V30 2575 O 236.018 -1.56805 0.933733 0
M  V30 2576 C 236.069 0.758142 3.53461 0
M  V30 2577 O 235.79 2.12067 3.83352 0
M  V30 2578 C 237.291 0.412954 4.41372 0
M  V30 2579 H 234.511 0.213805 0.636026 0
M  V30 2580 H 237.055 1.22502 1.63749 0
M  V30 2581 H 235.21 0.140556 3.87145 0
M  V30 2582 H 235.624 2.15923 4.77993 0
M  V30 2583 H 237.098 0.60208 5.48707 0
M  V30 2584 H 237.575 -0.65073 4.34353 0
M  V30 2585 H 238.181 1.00802 4.13182 0
M  V30 2586 N 236.496 -1.42363 0.676048 0
M  V30 2587 C 237.721 -2.06377 0.205705 0
M  V30 2588 C 238.146 -1.50463 -1.12883 0
M  V30 2589 O 237.504 -0.623619 -1.70237 0
M  V30 2590 C 237.552 -3.60277 0.152655 0
M  V30 2591 O 236.656 -4.02935 -0.87845 0
M  V30 2592 H 235.997 -0.655588 0.105359 0
M  V30 2593 H 238.527 -1.82475 0.925412 0
M  V30 2594 H 238.537 -4.07993 -0.0230675 0
M  V30 2595 H 237.212 -4.00346 1.12675 0
M  V30 2596 H 235.789 -3.66764 -0.673668 0
M  V30 2597 N 237.974 -0.419461 -1.51915 0
M  V30 2598 C 239.22 0.153166 -2.02221 0
M  V30 2599 C 239.553 1.43907 -1.30401 0
M  V30 2600 O 238.828 1.90055 -0.413438 0
M  V30 2601 C 239.111 0.390291 -3.57979 0
M  V30 2602 C 238.964 -0.913014 -4.40436 0
M  V30 2603 C 240.283 1.16794 -4.2432 0
M  V30 2604 H 237.402 0.0541924 -0.735005 0
M  V30 2605 H 240.044 -0.554955 -1.81715 0
M  V30 2606 H 238.194 0.993491 -3.75582 0
M  V30 2607 H 239.866 -1.54882 -4.34522 0
M  V30 2608 H 238.109 -1.52168 -4.06236 0
M  V30 2609 H 238.78 -0.701361 -5.47526 0
M  V30 2610 H 241.256 0.657161 -4.10878 0
M  V30 2611 H 240.132 1.3026 -5.3322 0
M  V30 2612 H 240.393 2.19132 -3.83971 0
M  V30 2613 N 239.452 1.56882 -0.150215 0
M  V30 2614 C 240.701 1.95403 0.500071 0
M  V30 2615 C 241.014 1.03777 1.658 0
M  V30 2616 O 242.22 1.31889 2.37313 0
M  V30 2617 C 240.676 3.4738 0.941018 0
M  V30 2618 C 240.284 4.47596 -0.190158 0
M  V30 2619 C 242.028 3.9476 1.56091 0
M  V30 2620 C 239.935 5.90787 0.269237 0
M  V30 2621 H 238.865 0.729515 0.190588 0
M  V30 2622 H 241.516 1.81988 -0.235074 0
M  V30 2623 H 239.898 3.56138 1.73152 0
M  V30 2624 H 241.072 4.50536 -0.967157 0
M  V30 2625 H 239.387 4.10151 -0.718666 0
M  V30 2626 H 241.984 4.99181 1.9163 0
M  V30 2627 H 242.327 3.36494 2.45107 0
M  V30 2628 H 242.86 3.88932 0.835249 0
M  V30 2629 H 239.599 6.52879 -0.585621 0
M  V30 2630 H 239.119 5.912 1.01204 0
M  V30 2631 H 240.798 6.42979 0.720176 0
M  V30 2632 N 240.93 -0.123565 1.57115 0
M  V30 2633 C 242.158 -0.846461 1.88793 0
M  V30 2634 C 242.573 -1.73652 0.740976 0
M  V30 2635 O 241.93 -1.80207 -0.288393 0
M  V30 2636 C 241.981 -1.6837 3.19897 0
M  V30 2637 O 241.702 -0.829477 4.30176 0
M  V30 2638 C 243.203 -2.51214 3.65248 0
M  V30 2639 H 240.423 -0.243573 0.625231 0
M  V30 2640 H 242.967 -0.109324 2.04208 0
M  V30 2641 H 241.122 -2.37364 3.06165 0
M  V30 2642 H 241.536 -1.40651 5.0529 0
M  V30 2643 H 243.01 -3.05497 4.59756 0
M  V30 2644 H 243.487 -3.28359 2.9168 0
M  V30 2645 H 244.093 -1.8747 3.81752 0
M  V30 2646 N 242.408 -1.52605 -0.393616 0
M  V30 2647 C 243.654 -1.68624 -1.13743 0
M  V30 2648 C 244.009 -0.418687 -1.87789 0
M  V30 2649 O 243.302 0.58747 -1.82371 0
M  V30 2650 C 243.496 -2.85721 -2.14705 0
M  V30 2651 C 243.325 -4.23742 -1.50575 0
M  V30 2652 C 242.095 -4.89033 -1.2718 0
M  V30 2653 C 244.293 -5.05293 -0.958311 0
M  V30 2654 N 242.275 -6.11048 -0.591058 0
M  V30 2655 C 243.646 -6.18673 -0.405367 0
M  V30 2656 C 245.701 -4.90517 -0.854274 0
M  V30 2657 C 244.404 -7.18895 0.241434 0
M  V30 2658 C 246.43 -5.90986 -0.221301 0
M  V30 2659 C 245.792 -7.03669 0.320894 0
M  V30 2660 H 241.891 -0.670556 -0.402342 0
M  V30 2661 H 244.475 -1.89946 -0.427607 0
M  V30 2662 H 242.646 -2.65987 -2.83029 0
M  V30 2663 H 244.378 -2.90699 -2.8156 0
M  V30 2664 H 241.133 -4.47672 -1.54554 0
M  V30 2665 H 241.557 -6.76474 -0.266862 0
M  V30 2666 H 246.199 -4.03612 -1.25926 0
M  V30 2667 H 243.917 -8.05413 0.658448 0
M  V30 2668 H 247.503 -5.81626 -0.142111 0
M  V30 2669 H 246.383 -7.80078 0.802956 0
M  V30 2670 N 243.887 0.651787 -1.4349 0
M  V30 2671 C 244.817 1.77621 -1.51569 0
M  V30 2672 C 245.798 1.66022 -0.370253 0
M  V30 2673 O 246.983 1.85095 -0.587658 0
M  V30 2674 C 244.113 3.16056 -1.43966 0
M  V30 2675 C 243.067 3.4242 -2.56774 0
M  V30 2676 C 242.393 4.8067 -2.34223 0
M  V30 2677 C 243.693 3.37023 -3.99015 0
M  V30 2678 H 245.387 1.71117 -2.45681 0
M  V30 2679 H 242.933 0.821825 -1.18246 0
M  V30 2680 H 244.886 3.94472 -1.48221 0
M  V30 2681 H 243.61 3.23293 -0.463586 0
M  V30 2682 H 242.269 2.66375 -2.51873 0
M  V30 2683 H 241.917 4.84585 -1.34856 0
M  V30 2684 H 241.617 4.9927 -3.09844 0
M  V30 2685 H 243.141 5.61342 -2.40265 0
M  V30 2686 H 244.555 4.05374 -4.05395 0
M  V30 2687 H 242.952 3.67159 -4.74673 0
M  V30 2688 H 244.022 2.3518 -4.2405 0
M  V30 2689 N 245.365 1.30045 0.890287 0
M  V30 2690 C 246.611 1.18737 1.64406 0
M  V30 2691 C 246.944 -0.258525 1.92472 0
M  V30 2692 O 246.219 -1.18562 1.54186 0
M  V30 2693 C 246.502 2.01087 2.98724 0
M  V30 2694 C 246.355 3.53867 2.77665 0
M  V30 2695 C 247.674 1.84457 3.9958 0
M  V30 2696 H 244.793 0.432698 0.596608 0
M  V30 2697 H 247.435 1.5962 1.0306 0
M  V30 2698 H 245.585 1.66349 3.51084 0
M  V30 2699 H 247.257 3.98637 2.32133 0
M  V30 2700 H 245.5 3.78318 2.12269 0
M  V30 2701 H 246.171 4.06772 3.7315 0
M  V30 2702 H 248.647 2.14817 3.56361 0
M  V30 2703 H 247.523 2.44411 4.91482 0
M  V30 2704 H 247.784 0.802276 4.3476 0
M  V30 2705 N 246.843 -1.10192 1.12674 0
M  V30 2706 C 247.806 -2.14786 0.799979 0
M  V30 2707 C 248.806 -1.59711 -0.18685 0
M  V30 2708 O 249.996 -1.74156 0.0392558 0
M  V30 2709 C 247.128 -3.40374 0.189228 0
M  V30 2710 H 248.321 -2.45203 1.72671 0
M  V30 2711 H 245.874 -1.25597 0.930326 0
M  V30 2712 H 246.609 -3.15577 -0.747107 0
M  V30 2713 H 246.394 -3.81637 0.899766 0
M  V30 2714 H 247.884 -4.17594 -0.0228143 0
M  V30 2715 N 248.321 -0.919034 -1.28029 0
M  V30 2716 C 249.567 -0.555757 -1.95036 0
M  V30 2717 C 249.9 0.899198 -1.72128 0
M  V30 2718 O 249.175 1.64023 -1.04531 0
M  V30 2719 C 249.458 -0.872024 -3.49382 0
M  V30 2720 C 249.311 -2.3801 -3.81669 0
M  V30 2721 C 250.63 -0.37185 -4.38526 0
M  V30 2722 H 247.749 -0.203386 -0.708381 0
M  V30 2723 H 250.391 -1.14924 -1.51303 0
M  V30 2724 H 248.541 -0.366946 -3.86763 0
M  V30 2725 H 250.213 -2.9562 -3.54128 0
M  V30 2726 H 248.456 -2.83289 -3.28526 0
M  V30 2727 H 249.127 -2.55192 -4.8947 0
M  V30 2728 H 251.603 -0.804602 -4.08247 0
M  V30 2729 H 250.479 -0.622173 -5.45362 0
M  V30 2730 H 250.74 0.727934 -4.36066 0
M  V30 2731 N 249.799 1.42003 -0.683588 0
M  V30 2732 C 251.046 2.01413 -0.209514 0
M  V30 2733 C 251.374 1.54088 1.1869 0
M  V30 2734 O 250.629 0.737591 1.81268 0
M  V30 2735 C 250.928 3.56827 -0.202357 0
M  V30 2736 C 250.594 4.23617 -1.54464 0
M  V30 2737 C 249.256 4.41577 -1.91215 0
M  V30 2738 C 251.608 4.61178 -2.42826 0
M  V30 2739 C 248.936 4.9437 -3.15935 0
M  V30 2740 C 251.288 5.15355 -3.66867 0
M  V30 2741 C 249.952 5.31528 -4.03776 0
M  V30 2742 H 249.222 0.737023 -0.0766668 0
M  V30 2743 H 251.869 1.70067 -0.880312 0
M  V30 2744 H 250.174 3.87892 0.551969 0
M  V30 2745 H 251.871 4.00588 0.181793 0
M  V30 2746 H 248.461 4.10004 -1.24877 0
M  V30 2747 H 252.645 4.46968 -2.15717 0
M  V30 2748 H 247.901 5.05076 -3.44541 0
M  V30 2749 H 252.075 5.43402 -4.35531 0
M  V30 2750 H 249.702 5.72199 -5.00492 0
M  V30 2751 N 251.277 0.427512 1.51691 0
M  V30 2752 C 252.24 -0.377132 2.26076 0
M  V30 2753 C 253.24 -0.958089 1.29141 0
M  V30 2754 O 254.43 -0.83408 1.52934 0
M  V30 2755 C 251.562 -1.53262 3.04506 0
M  V30 2756 H 252.755 0.27464 2.9864 0
M  V30 2757 H 250.308 0.180445 1.55255 0
M  V30 2758 H 251.043 -2.22072 2.36335 0
M  V30 2759 H 250.828 -1.12232 3.75694 0
M  V30 2760 H 252.318 -2.10135 3.60878 0
M  V30 2761 N 252.755 -1.56801 0.158532 0
M  V30 2762 C 253.98 -2.01295 -0.499516 0
M  V30 2763 C 254.405 -1.03799 -1.56867 0
M  V30 2764 O 253.763 -0.0155162 -1.81293 0
M  V30 2765 C 253.811 -3.44469 -1.06647 0
M  V30 2766 O 252.915 -3.50012 -2.18095 0
M  V30 2767 H 252.256 -0.652884 -0.12099 0
M  V30 2768 H 254.786 -2.02958 0.258661 0
M  V30 2769 H 254.796 -3.8351 -1.39227 0
M  V30 2770 H 253.471 -4.14932 -0.283581 0
M  V30 2771 H 252.048 -3.22822 -1.86656 0
M  V30 2772 N 254.233 0.115231 -1.57178 0
M  V30 2773 C 255.479 0.82357 -1.85325 0
M  V30 2774 C 255.812 1.79349 -0.744814 0
M  V30 2775 O 255.087 1.92899 0.249024 0
M  V30 2776 C 255.37 1.57014 -3.24066 0
M  V30 2777 C 255.223 0.619565 -4.45513 0
M  V30 2778 C 256.542 2.52545 -3.60429 0
M  V30 2779 H 253.661 0.297948 -0.674089 0
M  V30 2780 H 256.303 0.0877138 -1.89797 0
M  V30 2781 H 254.453 2.19742 -3.20383 0
M  V30 2782 H 256.125 0.000837639 -4.613 0
M  V30 2783 H 254.368 -0.0686174 -4.33746 0
M  V30 2784 H 255.039 1.17866 -5.3927 0
M  V30 2785 H 257.515 1.9992 -3.64926 0
M  V30 2786 H 256.391 3.01811 -4.58477 0
M  V30 2787 H 256.652 3.35383 -2.88047 0
M  V30 2788 N 255.711 1.52812 0.385517 0
M  V30 2789 C 257.122 1.5993 0.963293 0
M  V30 2790 C 257.473 0.454302 1.90868 0
M  V30 2791 O 256.598 -0.422132 2.12243 0
M  V30 2792 C 257.193 2.89871 1.75387 0
M  V30 2793 C 255.752 2.99389 2.28129 0
M  V30 2794 C 254.899 2.55071 1.08783 0
M  V30 2795 H 257.85 1.5784 0.164948 0
M  V30 2796 H 257.871 2.76553 2.61341 0
M  V30 2797 H 257.383 3.73186 1.06554 0
M  V30 2798 H 255.484 2.20619 3.00263 0
M  V30 2799 H 255.597 4.04096 2.57377 0
M  V30 2800 H 253.961 2.09473 1.4489 0
M  V30 2801 H 254.744 3.40785 0.414807 0
M  V30 2802 N 257.189 -0.644168 1.43834 0
M  V30 2803 C 258.437 -1.40117 1.45642 0
M  V30 2804 C 258.758 -1.94814 0.0852413 0
M  V30 2805 O 258.028 -1.74988 -0.880688 0
M  V30 2806 H 256.608 -0.52005 0.536243 0
M  V30 2807 H 259.27 -0.7591 1.7951 0
M  V30 2808 H 258.366 -2.23902 2.17427 0
M  V30 2809 N 258.668 -1.30515 -0.883378 0
M  V30 2810 C 259.917 -1.18795 -1.63005 0
M  V30 2811 C 260.23 0.255923 -1.93919 0
M  V30 2812 O 261.436 0.494654 -2.66956 0
M  V30 2813 C 259.892 -2.07878 -2.93794 0
M  V30 2814 C 259.5 -3.57184 -2.70414 0
M  V30 2815 C 261.244 -2.04924 -3.71761 0
M  V30 2816 C 259.151 -4.38317 -3.97029 0
M  V30 2817 H 258.081 -0.441031 -0.611562 0
M  V30 2818 H 260.732 -1.55275 -0.977854 0
M  V30 2819 H 259.114 -1.64283 -3.60315 0
M  V30 2820 H 260.288 -4.08937 -2.12384 0
M  V30 2821 H 258.603 -3.61976 -2.0582 0
M  V30 2822 H 261.2 -2.62792 -4.65665 0
M  V30 2823 H 261.543 -1.0331 -4.03277 0
M  V30 2824 H 262.076 -2.46649 -3.12104 0
M  V30 2825 H 258.815 -5.40632 -3.70671 0
M  V30 2826 H 258.335 -3.91326 -4.54559 0
M  V30 2827 H 260.014 -4.49834 -4.65036 0
M  V30 2828 N 260.146 1.09593 -1.13257 0
M  V30 2829 C 261.395 1.81105 -0.887917 0
M  V30 2830 C 261.708 1.86563 0.587672 0
M  V30 2831 O 262.914 2.54367 0.949204 0
M  V30 2832 C 261.37 3.25338 -1.53895 0
M  V30 2833 C 260.978 3.28151 -3.04994 0
M  V30 2834 C 262.722 4.01617 -1.37492 0
M  V30 2835 C 260.629 4.66897 -3.6299 0
M  V30 2836 H 259.559 0.678661 -0.328534 0
M  V30 2837 H 262.21 1.23183 -1.36008 0
M  V30 2838 H 260.592 3.8331 -0.994446 0
M  V30 2839 H 261.766 2.79953 -3.66009 0
M  V30 2840 H 260.081 2.65361 -3.20893 0
M  V30 2841 H 262.678 5.04119 -1.78235 0
M  V30 2842 H 263.021 4.15072 -0.31957 0
M  V30 2843 H 263.554 3.50082 -1.88912 0
M  V30 2844 H 260.293 4.58643 -4.68323 0
M  V30 2845 H 259.813 5.15426 -3.06752 0
M  V30 2846 H 261.492 5.3587 -3.62563 0
M  V30 2847 N 261.624 0.925811 1.2754 0
M  V30 2848 C 262.871 0.565255 1.94451 0
M  V30 2849 C 263.199 -0.89316 1.7278 0
M  V30 2850 O 262.454 -1.65213 1.04895 0
M  V30 2851 C 262.753 0.835296 3.47502 0
M  V30 2852 C 262.419 2.27515 3.89291 0
M  V30 2853 C 261.081 2.66879 4.00411 0
M  V30 2854 C 263.433 3.21158 4.10496 0
M  V30 2855 C 260.761 3.99014 4.30122 0
M  V30 2856 C 263.113 4.52871 4.4169 0
M  V30 2857 C 261.777 4.92072 4.51023 0
M  V30 2858 H 261.047 0.206841 0.711546 0
M  V30 2859 H 263.694 1.16942 1.51647 0
M  V30 2860 H 261.999 0.148442 3.91519 0
M  V30 2861 H 263.696 0.535322 3.97411 0
M  V30 2862 H 260.286 1.95976 3.81171 0
M  V30 2863 H 264.47 2.9195 4.01346 0
M  V30 2864 H 259.726 4.2907 4.35556 0
M  V30 2865 H 263.9 5.25436 4.57045 0
M  V30 2866 H 261.527 5.9449 4.738 0
M  V30 2867 N 263.102 -1.41638 0.69111 0
M  V30 2868 C 264.33 -2.05628 0.22909 0
M  V30 2869 C 264.745 -1.51992 -1.11999 0
M  V30 2870 O 264.102 -0.666322 -1.69901 0
M  V30 2871 C 264.153 -3.61084 0.173283 0
M  V30 2872 O 263.874 -4.12735 1.46907 0
M  V30 2873 C 265.375 -4.42213 -0.310266 0
M  V30 2874 H 262.595 -0.662327 0.107534 0
M  V30 2875 H 265.139 -1.81489 0.942438 0
M  V30 2876 H 263.294 -3.84278 -0.490858 0
M  V30 2877 H 263.708 -5.06743 1.35322 0
M  V30 2878 H 265.182 -5.51194 -0.298196 0
M  V30 2879 H 265.659 -4.1799 -1.34838 0
M  V30 2880 H 266.265 -4.24074 0.322716 0
M  V30 2881 N 264.58 -0.43555 -1.51462 0
M  V30 2882 C 265.527 0.376797 -2.27703 0
M  V30 2883 C 266.497 1.01838 -1.31219 0
M  V30 2884 O 267.682 1.03762 -1.60119 0
M  V30 2885 C 264.822 1.47301 -3.12084 0
M  V30 2886 C 263.935 0.849744 -4.2356 0
M  V30 2887 C 263.07 1.92086 -4.95254 0
M  V30 2888 C 262.109 1.27593 -5.98654 0
M  V30 2889 N 261.246 2.28833 -6.63762 0
M  V30 2890 H 266.086 -0.279734 -2.96684 0
M  V30 2891 H 263.623 -0.149795 -1.46335 0
M  V30 2892 H 265.581 2.11984 -3.59331 0
M  V30 2893 H 264.211 2.0992 -2.45221 0
M  V30 2894 H 263.263 0.0912529 -3.80291 0
M  V30 2895 H 264.575 0.338878 -4.97648 0
M  V30 2896 H 263.729 2.64435 -5.46039 0
M  V30 2897 H 262.468 2.46545 -4.20793 0
M  V30 2898 H 261.473 0.537893 -5.47162 0
M  V30 2899 H 262.698 0.738693 -6.7507 0
M  V30 2900 H 260.644 2.82375 -5.92115 0
M  V30 2901 H 260.561 1.82632 -7.33608 0
M  V30 2902 H 261.829 3.00671 -7.19178 0
M  V30 2903 N 266.058 1.56714 -0.166846 0
M  V30 2904 C 267.298 1.98641 0.481763 0
M  V30 2905 C 267.662 1.05038 1.6072 0
M  V30 2906 O 268.863 1.36087 2.31805 0
M  V30 2907 C 267.134 3.44362 0.956517 0
M  V30 2908 S 268.693 4.08317 1.60694 0
M  V30 2909 H 265.511 0.693873 0.155116 0
M  V30 2910 H 268.113 1.93719 -0.263251 0
M  V30 2911 H 266.817 4.10204 0.126936 0
M  V30 2912 H 266.348 3.53041 1.73568 0
M  V30 2913 H 268.363 4.02999 2.89494 0
M  V30 2914 N 267.536 -0.106894 1.57237 0
M  V30 2915 C 268.468 -1.15646 1.97885 0
M  V30 2916 C 269.481 -1.36981 0.879779 0
M  V30 2917 O 270.67 -1.35841 1.15799 0
M  V30 2918 C 267.77 -2.51425 2.27241 0
M  V30 2919 C 266.943 -2.50529 3.58545 0
M  V30 2920 C 266.002 -3.68145 3.75973 0
M  V30 2921 O 265.028 -3.51176 4.47956 0
M  V30 2922 N 266.23 -4.87177 3.15656 0
M  V30 2923 H 268.995 -0.81059 2.8853 0
M  V30 2924 H 266.556 -0.296024 1.59171 0
M  V30 2925 H 268.548 -3.28689 2.36105 0
M  V30 2926 H 267.118 -2.78147 1.42663 0
M  V30 2927 H 266.338 -1.58894 3.60758 0
M  V30 2928 H 267.626 -2.46997 4.44826 0
M  V30 2929 H 267.024 -5.03868 2.57165 0
M  V30 2930 H 265.581 -5.62075 3.30023 0
M  V30 2931 N 269.014 -1.53014 -0.377408 0
M  V30 2932 C 269.961 -1.78616 -1.46168 0
M  V30 2933 C 270.931 -0.629917 -1.53692 0
M  V30 2934 O 272.116 -0.870861 -1.69766 0
M  V30 2935 C 269.256 -1.97123 -2.8326 0
M  V30 2936 C 268.369 -3.24831 -2.84796 0
M  V30 2937 C 267.504 -3.33591 -4.13389 0
M  V30 2938 C 266.543 -4.55377 -4.09021 0
M  V30 2939 N 265.68 -4.61355 -5.29241 0
M  V30 2940 H 270.52 -2.71142 -1.23637 0
M  V30 2941 H 268.057 -1.34326 -0.599577 0
M  V30 2942 H 270.015 -2.05839 -3.62886 0
M  V30 2943 H 268.645 -1.07946 -3.04216 0
M  V30 2944 H 267.697 -3.25128 -1.97474 0
M  V30 2945 H 269.009 -4.14523 -2.77439 0
M  V30 2946 H 268.163 -3.41554 -5.01424 0
M  V30 2947 H 266.902 -2.41894 -4.23484 0
M  V30 2948 H 265.907 -4.47527 -3.19373 0
M  V30 2949 H 267.132 -5.48402 -4.00539 0
M  V30 2950 H 265.078 -3.72554 -5.39944 0
M  V30 2951 H 264.995 -5.44935 -5.24006 0
M  V30 2952 H 266.263 -4.73586 -6.19141 0
M  V30 2953 N 270.492 0.636531 -1.44174 0
M  V30 2954 C 271.402 1.77754 -1.53103 0
M  V30 2955 C 272.418 1.68928 -0.417034 0
M  V30 2956 O 273.594 1.89801 -0.6736 0
M  V30 2957 C 270.659 3.14115 -1.46741 0
M  V30 2958 C 269.72 3.34612 -2.68948 0
M  V30 2959 C 268.953 4.64467 -2.6288 0
M  V30 2960 O 269.176 5.44919 -1.68581 0
M  V30 2961 O 268.11 4.87049 -3.53648 0
M  V30 2962 H 271.936 1.73174 -2.49489 0
M  V30 2963 H 269.521 0.79709 -1.2636 0
M  V30 2964 H 271.403 3.95412 -1.45696 0
M  V30 2965 H 270.078 3.19249 -0.534975 0
M  V30 2966 H 268.985 2.53014 -2.75562 0
M  V30 2967 H 270.318 3.34336 -3.61221 0
M  V30 2968 N 271.97 1.30982 0.876444 0
M  V30 2969 C 273.247 1.10942 1.61094 0
M  V30 2970 C 273.627 -0.338223 2.08373 0
M  V30 2971 O 272.975 -1.33122 1.85717 0
M  V30 2972 C 273.185 2.11789 2.77392 0
M  V30 2973 C 274.533 2.43965 3.47514 0
M  V30 2974 O 275.557 2.10166 2.87591 0
M  V30 2975 O 274.416 3.01817 4.55597 0
M  V30 2976 H 271.51 0.42667 0.708436 0
M  V30 2977 H 274.056 1.42438 0.922474 0
M  V30 2978 H 272.828 3.09194 2.39823 0
M  V30 2979 H 272.451 1.81161 3.5393 0
M  V30 2980 N 273.449 -1.08991 1.13837 0
M  V30 2981 C 274.674 -1.85551 0.926585 0
M  V30 2982 C 275.099 -1.80782 -0.519566 0
M  V30 2983 O 274.457 -1.18855 -1.36906 0
M  V30 2984 C 274.505 -3.31266 1.42462 0
M  V30 2985 O 273.609 -4.07822 0.612789 0
M  V30 2986 H 272.95 -0.575192 0.331738 0
M  V30 2987 H 275.48 -1.37604 1.51414 0
M  V30 2988 H 275.49 -3.82112 1.43019 0
M  V30 2989 H 274.165 -3.34052 2.47754 0
M  V30 2990 H 272.742 -3.66731 0.675463 0
M  V30 2991 N 274.927 -0.932562 -1.27047 0
M  V30 2992 C 276.173 -0.576412 -1.94436 0
M  V30 2993 C 276.506 0.880891 -1.73072 0
M  V30 2994 O 275.781 1.62905 -1.06264 0
M  V30 2995 C 276.064 -0.909031 -3.48437 0
M  V30 2996 C 275.917 -2.42044 -3.79123 0
M  V30 2997 C 277.236 -0.418341 -4.38107 0
M  V30 2998 H 274.355 -0.210888 -0.706184 0
M  V30 2999 H 276.997 -1.16522 -1.50075 0
M  V30 3000 H 275.147 -0.407947 -3.86352 0
M  V30 3001 H 276.819 -2.99359 -3.50973 0
M  V30 3002 H 275.062 -2.86758 -3.25503 0
M  V30 3003 H 275.733 -2.6037 -4.86736 0
M  V30 3004 H 278.209 -0.847856 -4.0737 0
M  V30 3005 H 277.085 -0.679981 -5.44672 0
M  V30 3006 H 277.346 0.681642 -4.36814 0
M  V30 3007 N 276.405 1.4127 -0.698611 0
M  V30 3008 C 277.635 2.05205 -0.239644 0
M  V30 3009 C 278.043 1.52684 1.11733 0
M  V30 3010 O 277.386 0.671222 1.70998 0
M  V30 3011 C 277.448 3.59289 -0.123126 0
M  V30 3012 C 277.112 4.34619 -1.41263 0
M  V30 3013 C 278.109 4.63701 -2.35111 0
M  V30 3014 C 275.794 4.73837 -1.66684 0
M  V30 3015 C 277.788 5.30966 -3.52639 0
M  V30 3016 C 275.475 5.40837 -2.84498 0
M  V30 3017 C 276.473 5.69329 -3.77298 0
M  V30 3018 O 276.161 6.34949 -4.93047 0
M  V30 3019 H 275.893 0.66723 -0.108537 0
M  V30 3020 H 278.447 1.81974 -0.952602 0
M  V30 3021 H 276.677 3.81272 0.645628 0
M  V30 3022 H 278.366 4.04797 0.299056 0
M  V30 3023 H 279.132 4.33882 -2.16729 0
M  V30 3024 H 275.011 4.51039 -0.953135 0
M  V30 3025 H 278.555 5.53121 -4.25091 0
M  V30 3026 H 274.452 5.70075 -3.02795 0
M  V30 3027 H 275.22 6.53445 -4.92902 0
M  V30 3028 N 277.883 0.443576 1.51229 0
M  V30 3029 C 279.129 -0.120975 2.02439 0
M  V30 3030 C 279.462 -1.41815 1.32674 0
M  V30 3031 O 278.737 -1.89373 0.443622 0
M  V30 3032 C 279.02 -0.333291 3.58554 0
M  V30 3033 C 278.873 0.982968 4.38928 0
M  V30 3034 C 280.192 -1.10028 4.26124 0
M  V30 3035 H 277.311 -0.0424923 0.735774 0
M  V30 3036 H 279.953 0.583794 1.80809 0
M  V30 3037 H 278.103 -0.933614 3.77115 0
M  V30 3038 H 279.775 1.61775 4.32003 0
M  V30 3039 H 278.018 1.58611 4.03763 0
M  V30 3040 H 278.689 0.788379 5.46341 0
M  V30 3041 H 281.165 -0.591711 4.11871 0
M  V30 3042 H 280.041 -1.21761 5.35225 0
M  V30 3043 H 280.302 -2.12996 3.87408 0
M  V30 3044 N 279.361 -1.56624 0.175154 0
M  V30 3045 C 280.601 -1.98894 -0.471221 0
M  V30 3046 C 280.965 -1.05889 -1.60161 0
M  V30 3047 O 282.166 -1.37315 -2.3108 0
M  V30 3048 C 280.437 -3.44865 -0.938241 0
M  V30 3049 S 281.996 -4.09164 -1.58526 0
M  V30 3050 H 278.814 -0.694686 -0.151434 0
M  V30 3051 H 281.416 -1.93577 0.27352 0
M  V30 3052 H 280.12 -4.10265 -0.10518 0
M  V30 3053 H 279.651 -3.53956 -1.71693 0
M  V30 3054 H 281.666 -4.04528 -2.87352 0
M  V30 3055 N 280.839 0.0985539 -1.57292 0
M  V30 3056 C 282.087 0.801092 -1.85545 0
M  V30 3057 C 282.408 1.79438 -0.763353 0
M  V30 3058 O 281.678 1.94763 0.21073 0
M  V30 3059 H 280.258 0.29884 -0.684619 0
M  V30 3060 H 282.92 0.0810064 -1.94732 0
M  V30 3061 H 282.016 1.3338 -2.82163 0
M  V30 3062 N 282.317 1.53212 0.369288 0
M  V30 3063 C 283.728 1.60943 0.946276 0
M  V30 3064 C 284.079 0.47452 1.90375 0
M  V30 3065 O 283.204 -0.399597 2.12679 0
M  V30 3066 C 283.799 2.91715 1.72302 0
M  V30 3067 C 282.358 3.01792 2.24941 0
M  V30 3068 C 281.505 2.56211 1.06072 0
M  V30 3069 H 284.456 1.58007 0.148198 0
M  V30 3070 H 284.477 2.79309 2.58393 0
M  V30 3071 H 283.989 3.74295 1.0259 0
M  V30 3072 H 282.09 2.23791 2.97906 0
M  V30 3073 H 282.203 4.06803 2.53077 0
M  V30 3074 H 280.567 2.10998 1.4266 0
M  V30 3075 H 281.35 3.41206 0.378639 0
M  V30 3076 N 283.795 -0.628877 1.44509 0
M  V30 3077 C 285.025 -1.41349 1.50678 0
M  V30 3078 C 285.433 -1.88745 0.131075 0
M  V30 3079 O 284.776 -1.61592 -0.87371 0
M  V30 3080 C 284.838 -2.66608 2.41165 0
M  V30 3081 C 284.502 -2.40993 3.88293 0
M  V30 3082 C 285.499 -2.0268 4.78766 0
M  V30 3083 C 283.184 -2.54563 4.33016 0
M  V30 3084 C 285.178 -1.78269 6.11963 0
M  V30 3085 C 282.865 -2.29766 5.6626 0
M  V30 3086 C 283.863 -1.91678 6.55552 0
M  V30 3087 O 283.551 -1.67158 7.86329 0
M  V30 3088 H 283.283 -0.439851 0.51333 0
M  V30 3089 H 285.837 -0.776084 1.90174 0
M  V30 3090 H 284.067 -3.32994 1.96601 0
M  V30 3091 H 285.756 -3.28615 2.38259 0
M  V30 3092 H 286.522 -1.91751 4.45485 0
M  V30 3093 H 282.401 -2.83179 3.63773 0
M  V30 3094 H 285.945 -1.48465 6.81619 0
M  V30 3095 H 281.842 -2.40306 5.99102 0
M  V30 3096 H 282.61 -1.81386 7.98149 0
M  V30 3097 N 285.273 -1.31445 -0.869486 0
M  V30 3098 C 286.52 -1.21158 -1.62256 0
M  V30 3099 C 286.848 0.230155 -1.93133 0
M  V30 3100 O 286.103 1.17906 -1.56194 0
M  V30 3101 C 286.402 -2.00145 -2.96102 0
M  V30 3102 C 286.068 -3.4964 -2.84715 0
M  V30 3103 C 284.73 -3.90403 -2.81317 0
M  V30 3104 C 287.082 -4.44769 -2.71716 0
M  V30 3105 C 284.41 -5.24561 -2.62778 0
M  V30 3106 C 286.762 -5.79054 -2.54714 0
M  V30 3107 C 285.426 -6.19037 -2.49699 0
M  V30 3108 H 284.696 -0.443348 -0.593737 0
M  V30 3109 H 287.343 -1.62715 -1.00976 0
M  V30 3110 H 285.648 -1.5127 -3.6142 0
M  V30 3111 H 287.345 -1.89566 -3.53363 0
M  V30 3112 H 283.935 -3.17256 -2.88178 0
M  V30 3113 H 288.119 -4.14208 -2.73397 0
M  V30 3114 H 283.375 -5.54613 -2.57321 0
M  V30 3115 H 287.549 -6.52393 -2.43632 0
M  V30 3116 H 285.176 -7.22935 -2.35093 0
M  V30 3117 N 286.751 1.08385 -1.14413 0
M  V30 3118 C 288.162 1.62258 -0.923535 0
M  V30 3119 C 288.513 1.88691 0.537595 0
M  V30 3120 O 287.638 1.64454 1.40655 0
M  V30 3121 C 288.233 2.94781 -1.67002 0
M  V30 3122 C 286.792 3.45437 -1.495 0
M  V30 3123 C 285.939 2.19668 -1.69238 0
M  V30 3124 H 288.89 0.916086 -1.2959 0
M  V30 3125 H 288.911 3.63229 -1.13334 0
M  V30 3126 H 288.423 2.7551 -2.73342 0
M  V30 3127 H 286.524 3.6981 -0.455097 0
M  V30 3128 H 286.637 4.22173 -2.2651 0
M  V30 3129 H 285.001 2.28849 -1.11804 0
M  V30 3130 H 285.784 2.02905 -2.7692 0
M  V30 3131 N 288.23 0.939286 1.26551 0
M  V30 3132 C 289.646 0.641304 1.46149 0
M  V30 3133 C 289.846 -0.805964 1.84679 0
M  V30 3134 O 288.902 -1.58278 1.96734 0
M  V30 3135 C 290.215 1.6011 2.54529 0
M  V30 3136 C 291.763 1.6106 2.68382 0
M  V30 3137 C 292.238 2.55765 3.79932 0
M  V30 3138 N 293.729 2.5404 3.87322 0
M  V30 3139 C 294.464 3.24004 4.73085 0
M  V30 3140 N 293.96 4.03388 5.63249 0
M  V30 3141 N 295.753 3.12965 4.66914 0
M  V30 3142 H 287.904 1.87478 0.998285 0
M  V30 3143 H 290.167 0.805559 0.499779 0
M  V30 3144 H 289.873 2.63412 2.33039 0
M  V30 3145 H 289.747 1.35171 3.52149 0
M  V30 3146 H 292.134 0.584835 2.89247 0
M  V30 3147 H 292.215 1.90053 1.71212 0
M  V30 3148 H 291.859 3.58458 3.5982 0
M  V30 3149 H 291.789 2.24063 4.76554 0
M  V30 3150 H 294.28 1.96396 3.22858 0
M  V30 3151 H 294.593 4.5373 6.25579 0
M  V30 3152 H 292.938 4.07489 5.63008 0
M  V30 3153 H 296.129 2.50432 3.95476 0
M  V30 3154 H 296.302 3.67759 5.33533 0
M  V30 3155 N 289.708 -1.40897 0.706093 0
M  V30 3156 C 290.956 -2.00657 0.241054 0
M  V30 3157 C 291.277 -1.56241 -1.16678 0
M  V30 3158 O 290.547 -0.79765 -1.78926 0
M  V30 3159 H 289.127 -0.742018 0.0861308 0
M  V30 3160 H 291.789 -1.72372 0.909604 0
M  V30 3161 H 290.885 -3.10958 0.266705 0
M  V30 3162 N 291.186 -0.45159 -1.50991 0
M  V30 3163 C 292.432 0.102439 -2.03142 0
M  V30 3164 C 292.787 1.39138 -1.32884 0
M  V30 3165 O 292.08 1.86493 -0.439438 0
M  V30 3166 C 292.274 0.361728 -3.55565 0
M  V30 3167 C 292.103 -0.900535 -4.40591 0
M  V30 3168 C 290.873 -1.43821 -4.844 0
M  V30 3169 C 293.071 -1.79063 -4.82121 0
M  V30 3170 N 291.053 -2.65153 -5.53685 0
M  V30 3171 C 292.424 -2.84991 -5.50618 0
M  V30 3172 C 294.479 -1.80334 -4.64095 0
M  V30 3173 C 293.182 -3.92155 -6.02998 0
M  V30 3174 C 295.208 -2.86442 -5.17402 0
M  V30 3175 C 294.57 -3.9109 -5.85857 0
M  V30 3176 H 290.669 -0.00204537 -0.781997 0
M  V30 3177 H 293.253 -0.615446 -1.84717 0
M  V30 3178 H 291.424 1.04865 -3.73976 0
M  V30 3179 H 293.156 0.908372 -3.94374 0
M  V30 3180 H 289.911 -0.990117 -4.63135 0
M  V30 3181 H 290.335 -3.26717 -5.92946 0
M  V30 3182 H 294.977 -1.00753 -4.1062 0
M  V30 3183 H 292.695 -4.72565 -6.55521 0
M  V30 3184 H 296.281 -2.88386 -5.05297 0
M  V30 3185 H 295.161 -4.71845 -6.26364 0
M  V30 3186 N 292.664 1.56529 -0.183458 0
M  V30 3187 C 293.612 2.19873 0.758845 0
M  V30 3188 C 294.606 1.16638 1.22849 0
M  V30 3189 O 295.812 1.3481 1.19274 0
M  V30 3190 H 292.187 0.7045 0.263029 0
M  V30 3191 H 294.158 2.97724 0.200755 0
M  V30 3192 C 292.907 2.86314 1.9728 0
M  V30 3193 H 292.23 3.65487 1.62047 0
M  V30 3194 H 293.67 3.3409 2.61075 0
M  V30 3195 C 292.129 1.86729 2.80418 0
M  V30 3196 O 292.659 1.36031 3.77966 0
M  V30 3197 N 290.865 1.55216 2.45675 0
M  V30 3198 H 290.412 1.96636 1.66409 0
M  V30 3199 H 290.37 0.888388 3.01588 0
M  V30 3200 N 294.142 -0.090211 1.57342 0
M  V30 3201 C 295.09 -1.12792 2.03422 0
M  V30 3202 C 296.084 -1.41182 0.936166 0
M  V30 3203 O 297.29 -1.40805 1.12133 0
M  V30 3204 H 293.665 -0.380986 0.648347 0
M  V30 3205 H 295.636 -0.71299 2.89757 0
M  V30 3206 C 294.385 -2.43855 2.47851 0
M  V30 3207 H 293.708 -2.22855 3.31927 0
M  V30 3208 H 295.148 -3.14955 2.83865 0
M  V30 3209 C 293.607 -3.08503 1.3538 0
M  V30 3210 O 294.137 -3.95805 0.685641 0
M  V30 3211 N 292.343 -2.68831 1.10355 0
M  V30 3212 H 291.89 -1.97929 1.64869 0
M  V30 3213 H 291.848 -3.12412 0.353031 0
M  V30 3214 N 295.62 -1.53406 -0.361157 0
M  V30 3215 C 296.867 -1.69802 -1.10333 0
M  V30 3216 C 297.195 -0.452087 -1.89173 0
M  V30 3217 O 296.45 0.566017 -1.87336 0
M  V30 3218 C 296.749 -2.90211 -2.08596 0
M  V30 3219 C 296.415 -4.26539 -1.46203 0
M  V30 3220 C 295.077 -4.6361 -1.28915 0
M  V30 3221 C 297.429 -5.113 -1.01101 0
M  V30 3222 C 294.757 -5.83075 -0.651157 0
M  V30 3223 C 297.109 -6.31415 -0.387007 0
M  V30 3224 C 295.773 -6.67195 -0.201657 0
M  V30 3225 H 295.043 -0.621351 -0.403737 0
M  V30 3226 H 297.69 -1.87598 -0.384609 0
M  V30 3227 H 295.995 -2.66946 -2.86788 0
M  V30 3228 H 297.692 -3.00091 -2.65982 0
M  V30 3229 H 294.282 -3.97352 -1.60653 0
M  V30 3230 H 298.466 -4.83206 -1.13249 0
M  V30 3231 H 293.722 -6.09385 -0.496006 0
M  V30 3232 H 297.896 -6.96394 -0.0293563 0
M  V30 3233 H 295.523 -7.59628 0.294766 0
M  V30 3234 N 297.098 0.621204 -1.44841 0
M  V30 3235 C 298.048 1.72663 -1.48901 0
M  V30 3236 C 299.032 1.56964 -0.353702 0
M  V30 3237 O 300.224 1.66532 -0.599669 0
M  V30 3238 C 297.353 3.11381 -1.44557 0
M  V30 3239 C 296.439 3.32514 -2.6324 0
M  V30 3240 N 296.83 3.23969 -3.8843 0
M  V30 3241 C 295.128 3.63343 -2.58647 0
M  V30 3242 C 295.829 3.46062 -4.67564 0
M  V30 3243 N 294.805 3.69407 -3.98797 0
M  V30 3244 H 298.607 1.64529 -2.43531 0
M  V30 3245 H 296.121 0.82401 -1.39942 0
M  V30 3246 H 298.118 3.90667 -1.4555 0
M  V30 3247 H 296.778 3.20674 -0.509731 0
M  V30 3248 H 297.789 3.02669 -4.20252 0
M  V30 3249 H 294.466 3.79556 -1.73906 0
M  V30 3250 H 295.856 3.44963 -5.76585 0
M  V30 3251 N 298.576 1.31904 0.862503 0
M  V30 3252 C 299.804 1.24998 1.64873 0
M  V30 3253 C 300.219 -0.183425 1.87907 0
M  V30 3254 O 299.576 -1.11794 1.44251 0
M  V30 3255 C 299.627 1.99829 3.01248 0
M  V30 3256 O 299.348 3.37575 2.79239 0
M  V30 3257 C 300.849 1.99852 3.95694 0
M  V30 3258 H 298.069 0.431599 0.513773 0
M  V30 3259 H 300.613 1.73901 1.07604 0
M  V30 3260 H 298.768 1.54668 3.55185 0
M  V30 3261 H 299.182 3.75776 3.65914 0
M  V30 3262 H 300.656 2.56709 4.88676 0
M  V30 3263 H 301.133 0.982852 4.28062 0
M  V30 3264 H 301.739 2.44926 3.47694 0
M  V30 3265 N 300.054 -1.07777 1.14986 0
M  V30 3266 C 301.303 -1.79669 0.916617 0
M  V30 3267 C 301.616 -1.87474 -0.557917 0
M  V30 3268 O 302.822 -2.55845 -0.908617 0
M  V30 3269 C 301.278 -3.22848 1.59051 0
M  V30 3270 C 300.886 -3.23257 3.10176 0
M  V30 3271 C 302.63 -3.99379 1.43864 0
M  V30 3272 C 300.537 -4.61063 3.70372 0
M  V30 3273 H 299.467 -0.673349 0.33929 0
M  V30 3274 H 302.118 -1.21003 1.37951 0
M  V30 3275 H 300.5 -3.8168 1.0553 0
M  V30 3276 H 301.674 -2.74095 3.70417 0
M  V30 3277 H 299.989 -2.60222 3.25074 0
M  V30 3278 H 302.586 -5.0122 1.86232 0
M  V30 3279 H 302.929 -4.14511 0.385564 0
M  V30 3280 H 303.462 -3.47032 1.94457 0
M  V30 3281 H 300.201 -4.51135 4.7556 0
M  V30 3282 H 299.721 -5.1048 3.14913 0
M  V30 3283 H 301.4 -5.30034 3.71043 0
M  V30 3284 N 301.532 -0.945985 -1.26051 0
M  V30 3285 C 302.465 -0.403619 -2.24602 0
M  V30 3286 C 303.443 0.510241 -1.54387 0
M  V30 3287 O 304.627 0.446593 -1.83133 0
M  V30 3288 C 301.754 0.419564 -3.36091 0
M  V30 3289 C 300.8 -0.433454 -4.24292 0
M  V30 3290 S 301.633 -1.86037 -5.02146 0
M  V30 3291 C 302.789 -1.04538 -6.17108 0
M  V30 3292 H 303.022 -1.23883 -2.7026 0
M  V30 3293 H 300.555 -0.749438 -1.34992 0
M  V30 3294 H 302.513 0.888595 -4.00767 0
M  V30 3295 H 301.174 1.22951 -2.89036 0
M  V30 3296 H 300.367 0.197486 -5.03613 0
M  V30 3297 H 299.969 -0.837357 -3.64506 0
M  V30 3298 H 302.261 -0.289923 -6.76879 0
M  V30 3299 H 303.204 -1.81222 -6.84518 0
M  V30 3300 H 303.612 -0.579319 -5.61519 0
M  V30 3301 N 303.011 1.40521 -0.713556 0
M  V30 3302 C 304.427 1.54839 -0.386907 0
M  V30 3303 C 304.627 1.68532 1.1045 0
M  V30 3304 O 303.683 1.67377 1.89053 0
M  V30 3305 C 304.996 2.77792 -1.15118 0
M  V30 3306 C 306.544 2.91607 -1.13729 0
M  V30 3307 C 307.019 4.1747 -1.88368 0
M  V30 3308 N 308.51 4.24466 -1.85427 0
M  V30 3309 C 309.245 5.20755 -2.40004 0
M  V30 3310 N 308.741 6.22965 -3.03129 0
M  V30 3311 N 310.534 5.1282 -2.30158 0
M  V30 3312 H 302.685 1.29879 -1.68063 0
M  V30 3313 H 304.948 0.627896 -0.710247 0
M  V30 3314 H 304.654 2.73944 -2.20561 0
M  V30 3315 H 304.528 3.6984 -0.741477 0
M  V30 3316 H 306.915 2.94959 -0.0910608 0
M  V30 3317 H 306.996 2.00682 -1.5862 0
M  V30 3318 H 306.64 4.1488 -2.9298 0
M  V30 3319 H 306.57 5.074 -1.40898 0
M  V30 3320 H 309.061 3.51241 -1.3942 0
M  V30 3321 H 309.374 6.92859 -3.42295 0
M  V30 3322 H 307.719 6.23415 -3.07212 0
M  V30 3323 H 310.91 4.31899 -1.80501 0
M  V30 3324 H 311.083 5.87689 -2.72993 0
M  V30 3325 N 304.489 0.459591 1.5075 0
M  V30 3326 C 305.437 -0.354678 2.2988 0
M  V30 3327 C 306.431 -1.00086 1.36672 0
M  V30 3328 O 307.637 -0.933277 1.53915 0
M  V30 3329 H 304.012 -0.13321 0.740107 0
M  V30 3330 H 305.983 0.333269 2.96533 0
M  V30 3331 C 304.732 -1.43073 3.169 0
M  V30 3332 H 304.055 -0.942882 3.88523 0
M  V30 3333 H 305.495 -1.97328 3.75284 0
M  V30 3334 C 303.954 -2.42633 2.33732 0
M  V30 3335 O 304.484 -3.47658 2.01238 0
M  V30 3336 N 302.69 -2.14066 1.9653 0
M  V30 3337 H 302.237 -1.28685 2.23155 0
M  V30 3338 H 302.195 -2.80917 1.41185 0
M  V30 3339 N 305.967 -1.56429 0.191757 0
M  V30 3340 C 307.216 -1.9666 -0.448088 0
M  V30 3341 C 307.529 -1.08136 -1.62991 0
M  V30 3342 O 308.735 -1.38135 -2.33733 0
M  V30 3343 C 307.191 -3.49753 -0.848585 0
M  V30 3344 C 306.799 -4.46935 0.308764 0
M  V30 3345 C 308.543 -3.9876 -1.4557 0
M  V30 3346 C 306.45 -5.91293 -0.112506 0
M  V30 3347 H 305.38 -0.734312 -0.171179 0
M  V30 3348 H 308.031 -1.81301 0.283242 0
M  V30 3349 H 306.413 -3.60604 -1.63649 0
M  V30 3350 H 307.587 -4.47813 1.08627 0
M  V30 3351 H 305.902 -4.08102 0.827158 0
M  V30 3352 H 308.499 -5.04086 -1.78328 0
M  V30 3353 H 308.842 -3.42875 -2.36099 0
M  V30 3354 H 309.375 -3.9101 -0.731836 0
M  V30 3355 H 306.114 -6.51097 0.758514 0
M  V30 3356 H 305.634 -5.93676 -0.854941 0
M  V30 3357 H 307.313 -6.44663 -0.549448 0
M  V30 3358 N 307.445 0.0818655 -1.57387 0
M  V30 3359 C 308.375 1.09885 -2.06028 0
M  V30 3360 C 309.356 1.4098 -0.951774 0
M  V30 3361 O 310.541 1.50781 -1.22387 0
M  V30 3362 C 307.671 2.4151 -2.4958 0
M  V30 3363 C 306.625 2.24792 -3.64215 0
M  V30 3364 C 305.951 3.61712 -3.93787 0
M  V30 3365 C 307.251 1.67749 -4.94629 0
M  V30 3366 H 308.945 0.694128 -2.91243 0
M  V30 3367 H 306.491 0.332448 -1.4011 0
M  V30 3368 H 308.444 3.12939 -2.82219 0
M  V30 3369 H 307.168 2.83943 -1.61381 0
M  V30 3370 H 305.827 1.55807 -3.31843 0
M  V30 3371 H 305.475 4.01697 -3.02735 0
M  V30 3372 H 305.175 3.51368 -4.70971 0
M  V30 3373 H 306.699 4.34587 -4.28913 0
M  V30 3374 H 308.113 2.29032 -5.25564 0
M  V30 3375 H 306.51 1.68128 -5.76067 0
M  V30 3376 H 307.58 0.638059 -4.80684 0
M  V30 3377 N 308.923 1.53595 0.353017 0
M  V30 3378 C 310.171 1.70049 1.09215 0
M  V30 3379 C 310.492 0.461406 1.89463 0
M  V30 3380 O 309.762 -0.524633 1.88744 0
M  V30 3381 H 308.342 0.626912 0.40619 0
M  V30 3382 H 311.004 1.90822 0.396585 0
M  V30 3383 H 310.1 2.56718 1.77488 0
M  V30 3384 N 310.401 -0.613514 1.45168 0
M  V30 3385 C 311.331 -1.7354 1.56225 0
M  V30 3386 C 312.312 -1.64981 0.41414 0
M  V30 3387 O 313.497 -1.83472 0.636526 0
M  V30 3388 C 310.627 -3.12128 1.52295 0
M  V30 3389 C 309.581 -3.35491 2.65762 0
M  V30 3390 C 308.907 -4.74291 2.46885 0
M  V30 3391 C 310.207 -3.26325 4.0781 0
M  V30 3392 H 311.901 -1.64543 2.50132 0
M  V30 3393 H 309.447 -0.790185 1.20383 0
M  V30 3394 H 311.4 -3.90404 1.58628 0
M  V30 3395 H 310.124 -3.2195 0.549139 0
M  V30 3396 H 308.783 -2.59603 2.58847 0
M  V30 3397 H 308.431 -4.80839 1.47657 0
M  V30 3398 H 308.131 -4.9088 3.22972 0
M  V30 3399 H 309.655 -5.54775 2.55063 0
M  V30 3400 H 311.069 -3.94483 4.16 0
M  V30 3401 H 309.466 -3.54445 4.8424 0
M  V30 3402 H 310.536 -2.23855 4.30136 0
M  V30 3403 N 311.879 -1.3236 -0.855495 0
M  V30 3404 C 313.125 -1.23054 -1.612 0
M  V30 3405 C 313.458 0.207404 -1.93089 0
M  V30 3406 O 312.733 1.14432 -1.57275 0
M  V30 3407 C 313.016 -2.08937 -2.93287 0
M  V30 3408 C 312.869 -3.61105 -2.68185 0
M  V30 3409 C 314.188 -1.94986 -3.94549 0
M  V30 3410 H 311.307 -0.448364 -0.584926 0
M  V30 3411 H 313.949 -1.62297 -0.987917 0
M  V30 3412 H 312.099 -1.75599 -3.46551 0
M  V30 3413 H 313.771 -4.04652 -2.21483 0
M  V30 3414 H 312.014 -3.83813 -2.02164 0
M  V30 3415 H 312.685 -4.16522 -3.62234 0
M  V30 3416 H 315.161 -2.24189 -3.5054 0
M  V30 3417 H 314.037 -2.57356 -4.84829 0
M  V30 3418 H 314.298 -0.917263 -4.3248 0
M  V30 3419 N 313.357 1.07166 -1.15556 0
M  V30 3420 C 314.287 2.16403 -0.877046 0
M  V30 3421 C 315.268 1.69217 0.173111 0
M  V30 3422 O 316.453 1.94181 0.027084 0
M  V30 3423 C 313.583 3.45349 -0.367632 0
M  V30 3424 C 312.537 4.05995 -1.35468 0
M  V30 3425 C 311.863 5.30045 -0.704038 0
M  V30 3426 C 313.163 4.45804 -2.72132 0
M  V30 3427 H 314.857 2.39959 -1.79053 0
M  V30 3428 H 312.403 1.15325 -0.862331 0
M  V30 3429 H 314.356 4.21095 -0.160317 0
M  V30 3430 H 313.08 3.21385 0.581326 0
M  V30 3431 H 311.739 3.32296 -1.54839 0
M  V30 3432 H 311.387 5.02373 0.251128 0
M  V30 3433 H 311.087 5.71579 -1.36277 0
M  V30 3434 H 312.611 6.08495 -0.50654 0
M  V30 3435 H 314.025 5.12671 -2.56595 0
M  V30 3436 H 312.422 4.98296 -3.34397 0
M  V30 3437 H 313.492 3.57083 -3.28054 0
M  V30 3438 N 314.835 0.952656 1.25548 0
M  V30 3439 C 316.246 0.647392 1.75116 0
M  V30 3440 C 316.597 -0.837274 1.77438 0
M  V30 3441 O 315.722 -1.65525 1.39393 0
M  V30 3442 C 316.317 1.16845 3.18014 0
M  V30 3443 C 314.876 0.913382 3.6515 0
M  V30 3444 C 314.023 1.31265 2.44264 0
M  V30 3445 H 316.974 1.12968 1.11462 0
M  V30 3446 H 316.995 0.527606 3.76824 0
M  V30 3447 H 316.507 2.24902 3.16292 0
M  V30 3448 H 314.608 -0.152316 3.72289 0
M  V30 3449 H 314.721 1.54845 4.53387 0
M  V30 3450 H 313.085 0.731028 2.43984 0
M  V30 3451 H 313.868 2.40239 2.45234 0
M  V30 3452 N 316.313 -1.40141 0.720998 0
M  V30 3453 C 317.243 -2.33339 0.0867621 0
M  V30 3454 C 318.224 -1.53178 -0.739622 0
M  V30 3455 O 319.409 -1.81625 -0.687449 0
M  V30 3456 C 316.539 -3.37194 -0.831728 0
M  V30 3457 C 315.493 -4.27857 -0.110558 0
M  V30 3458 C 314.819 -5.22294 -1.14513 0
M  V30 3459 C 316.119 -5.11872 1.0385 0
M  V30 3460 H 317.813 -2.86626 0.865219 0
M  V30 3461 H 315.359 -1.37814 0.417516 0
M  V30 3462 H 317.312 -4.01335 -1.28485 0
M  V30 3463 H 316.036 -2.82314 -1.64214 0
M  V30 3464 H 314.695 -3.65176 0.322797 0
M  V30 3465 H 314.343 -4.63717 -1.94874 0
M  V30 3466 H 314.043 -5.83797 -0.667446 0
M  V30 3467 H 315.567 -5.89312 -1.59824 0
M  V30 3468 H 316.981 -5.69436 0.664482 0
M  V30 3469 H 315.378 -5.82445 1.4449 0
M  V30 3470 H 316.448 -4.4753 1.86668 0
M  V30 3471 N 317.792 -0.46758 -1.50504 0
M  V30 3472 C 318.722 0.318381 -2.31319 0
M  V30 3473 C 319.703 0.993564 -1.38066 0
M  V30 3474 O 320.888 0.991411 -1.66987 0
M  V30 3475 C 318.018 1.40275 -3.17711 0
M  V30 3476 C 316.972 0.849373 -4.19487 0
M  V30 3477 C 316.298 2.03177 -4.94594 0
M  V30 3478 C 317.598 -0.136942 -5.2212 0
M  V30 3479 H 319.292 -0.356106 -2.97275 0
M  V30 3480 H 316.838 -0.172703 -1.42961 0
M  V30 3481 H 318.791 1.96004 -3.73042 0
M  V30 3482 H 317.515 2.10596 -2.49634 0
M  V30 3483 H 316.174 0.314076 -3.65252 0
M  V30 3484 H 315.822 2.72187 -4.22993 0
M  V30 3485 H 315.522 1.66774 -5.63436 0
M  V30 3486 H 317.046 2.59403 -5.52759 0
M  V30 3487 H 318.46 0.331056 -5.72343 0
M  V30 3488 H 316.857 -0.41507 -5.98663 0
M  V30 3489 H 317.927 -1.06398 -4.73083 0
M  V30 3490 N 319.27 1.56325 -0.20005 0
M  V30 3491 C 320.519 1.96895 0.437652 0
M  V30 3492 C 320.832 1.08999 1.62415 0
M  V30 3493 O 322.038 1.39372 2.32997 0
M  V30 3494 C 320.494 3.50198 0.830025 0
M  V30 3495 C 320.102 4.46765 -0.332461 0
M  V30 3496 C 321.846 3.99526 1.43453 0
M  V30 3497 C 319.753 5.91344 0.0811468 0
M  V30 3498 H 318.683 0.735209 0.167282 0
M  V30 3499 H 321.334 1.81148 -0.292853 0
M  V30 3500 H 319.716 3.61467 1.61734 0
M  V30 3501 H 320.89 4.47231 -1.11 0
M  V30 3502 H 319.205 4.07657 -0.848789 0
M  V30 3503 H 321.802 5.05025 1.75652 0
M  V30 3504 H 322.145 3.44122 2.34277 0
M  V30 3505 H 322.678 3.91393 0.71109 0
M  V30 3506 H 319.417 6.50685 -0.793033 0
M  V30 3507 H 318.937 5.94121 0.823445 0
M  V30 3508 H 320.616 6.44945 0.515252 0
M  V30 3509 N 320.748 -0.0735177 1.57428 0
M  V30 3510 C 321.681 -1.11932 1.98863 0
M  V30 3511 C 322.659 -1.37666 0.865266 0
M  V30 3512 O 323.843 -1.51068 1.12742 0
M  V30 3513 C 320.97 -2.46403 2.32386 0
M  V30 3514 C 320.016 -2.36815 3.54713 0
M  V30 3515 S 320.849 -1.76392 5.05614 0
M  V30 3516 C 322.005 -3.12444 5.42337 0
M  V30 3517 H 322.238 -0.766212 2.87257 0
M  V30 3518 H 319.771 -0.281987 1.51803 0
M  V30 3519 H 321.729 -3.23755 2.52375 0
M  V30 3520 H 320.39 -2.78876 1.44524 0
M  V30 3521 H 319.583 -3.35977 3.7568 0
M  V30 3522 H 319.185 -1.67598 3.34345 0
M  V30 3523 H 321.477 -4.08753 5.40303 0
M  V30 3524 H 322.42 -2.96258 6.43146 0
M  V30 3525 H 322.828 -3.1297 4.69798 0
M  V30 3526 N 322.226 -1.5378 -0.344866 0
M  V30 3527 C 323.472 -1.71216 -1.08687 0
M  V30 3528 C 323.805 -0.473281 -1.88345 0
M  V30 3529 O 323.08 0.52968 -1.87149 0
M  V30 3530 C 323.363 -2.97486 -2.02914 0
M  V30 3531 C 323.216 -4.31579 -1.26727 0
M  V30 3532 C 324.535 -3.19422 -3.0275 0
M  V30 3533 H 321.654 -0.62301 -0.393735 0
M  V30 3534 H 324.296 -1.8645 -0.365563 0
M  V30 3535 H 322.446 -2.84629 -2.64421 0
M  V30 3536 H 324.118 -4.56284 -0.67845 0
M  V30 3537 H 322.361 -4.30049 -0.569273 0
M  V30 3538 H 323.032 -5.16106 -1.95803 0
M  V30 3539 H 325.508 -3.316 -2.51357 0
M  V30 3540 H 324.384 -4.09169 -3.65885 0
M  V30 3541 H 324.645 -2.35656 -3.74057 0
M  V30 3542 N 323.704 0.605807 -1.45491 0
M  V30 3543 C 324.953 1.36086 -1.48874 0
M  V30 3544 C 325.266 1.95131 -0.135333 0
M  V30 3545 O 326.472 2.7146 -0.0468144 0
M  V30 3546 C 324.928 2.46518 -2.62215 0
M  V30 3547 C 324.536 1.93877 -4.03876 0
M  V30 3548 C 326.28 3.23512 -2.74846 0
M  V30 3549 C 324.187 3.01801 -5.08596 0
M  V30 3550 H 323.117 0.511497 -0.553974 0
M  V30 3551 H 325.768 0.649089 -1.71636 0
M  V30 3552 H 324.15 3.20388 -2.32739 0
M  V30 3553 H 325.324 1.26704 -4.43038 0
M  V30 3554 H 323.639 1.29622 -3.95711 0
M  V30 3555 H 326.236 4.04013 -3.50253 0
M  V30 3556 H 326.579 3.74631 -1.81542 0
M  V30 3557 H 327.112 2.56742 -3.03856 0
M  V30 3558 H 323.851 2.55597 -6.03614 0
M  V30 3559 H 323.371 3.67535 -4.74002 0
M  V30 3560 H 325.05 3.66152 -5.33424 0
M  V30 3561 N 325.182 1.32811 0.848464 0
M  V30 3562 C 326.422 1.25046 1.61687 0
M  V30 3563 C 326.786 -0.183464 1.91121 0
M  V30 3564 O 327.987 -0.384937 2.66029 0
M  V30 3565 C 326.258 2.09201 2.89775 0
M  V30 3566 S 327.817 2.18526 3.80515 0
M  V30 3567 H 324.635 0.445023 0.554505 0
M  V30 3568 H 327.237 1.67733 1.00429 0
M  V30 3569 H 325.941 3.12433 2.66108 0
M  V30 3570 H 325.472 1.67315 3.56047 0
M  V30 3571 H 327.487 1.3393 4.77784 0
M  V30 3572 N 326.66 -1.06551 1.16123 0
M  V30 3573 C 327.89 -1.8274 0.963838 0
M  V30 3574 C 328.298 -1.82712 -0.491228 0
M  V30 3575 O 327.641 -1.24294 -1.35265 0
M  V30 3576 C 327.703 -3.3065 1.41106 0
M  V30 3577 C 327.367 -3.54384 2.88549 0
M  V30 3578 C 328.364 -3.4765 3.86569 0
M  V30 3579 C 326.049 -3.81789 3.26408 0
M  V30 3580 C 328.043 -3.67982 5.2045 0
M  V30 3581 C 325.73 -4.01772 4.60459 0
M  V30 3582 C 326.728 -3.94866 5.57288 0
M  V30 3583 O 326.416 -4.14306 6.88916 0
M  V30 3584 H 326.148 -0.583136 0.341948 0
M  V30 3585 H 328.702 -1.35351 1.54497 0
M  V30 3586 H 326.932 -3.78887 0.773394 0
M  V30 3587 H 328.621 -3.88324 1.1815 0
M  V30 3588 H 329.387 -3.2647 3.58667 0
M  V30 3589 H 325.266 -3.86276 2.51619 0
M  V30 3590 H 328.81 -3.62507 5.96015 0
M  V30 3591 H 324.707 -4.2244 4.88072 0
M  V30 3592 H 325.475 -4.31609 6.95454 0
M  V30 3593 N 328.138 -0.959301 -1.25041 0
M  V30 3594 C 329.363 -0.633507 -1.97488 0
M  V30 3595 C 329.788 0.788555 -1.70773 0
M  V30 3596 O 329.146 1.53394 -0.966431 0
M  V30 3597 C 329.194 -0.904057 -3.49083 0
M  V30 3598 O 328.298 0.0147939 -4.12397 0
M  V30 3599 H 327.639 -0.240368 -0.618966 0
M  V30 3600 H 330.169 -1.28717 -1.59038 0
M  V30 3601 H 330.179 -0.832203 -3.99423 0
M  V30 3602 H 328.854 -1.94048 -3.67856 0
M  V30 3603 H 327.431 -0.109664 -3.72739 0
M  V30 3604 N 329.616 1.39756 -0.72842 0
M  V30 3605 C 330.864 2.00248 -0.272946 0
M  V30 3606 C 331.185 1.58077 1.14178 0
M  V30 3607 O 330.455 0.826014 1.77634 0
M  V30 3608 H 329.035 0.740554 -0.0979247 0
M  V30 3609 H 331.697 1.70903 -0.936912 0
M  V30 3610 H 330.793 3.10495 -0.316142 0
M  V30 3611 N 331.094 0.475555 1.50254 0
M  V30 3612 C 332.343 -0.0795996 2.01543 0
M  V30 3613 C 332.656 -1.4038 1.36209 0
M  V30 3614 O 333.862 -2.04415 1.7868 0
M  V30 3615 C 332.318 -0.192363 3.59386 0
M  V30 3616 C 331.926 1.12367 4.33679 0
M  V30 3617 C 333.67 -0.699238 4.18701 0
M  V30 3618 C 331.577 0.974453 5.83317 0
M  V30 3619 H 330.507 -0.0335228 0.753254 0
M  V30 3620 H 333.158 0.611128 1.73025 0
M  V30 3621 H 331.54 -0.946974 3.84511 0
M  V30 3622 H 332.714 1.88958 4.20276 0
M  V30 3623 H 331.029 1.562 3.85993 0
M  V30 3624 H 333.626 -0.827978 5.28251 0
M  V30 3625 H 333.969 -1.69171 3.80377 0
M  V30 3626 H 334.502 -0.00188807 3.978 0
M  V30 3627 H 331.241 1.94042 6.26121 0
M  V30 3628 H 330.761 0.248998 5.99283 0
M  V30 3629 H 332.44 0.642867 6.43798 0
M  V30 3630 N 332.573 -1.56217 0.208337 0
M  V30 3631 C 333.503 -2.22694 -0.702116 0
M  V30 3632 C 334.484 -1.19432 -1.2112 0
M  V30 3633 O 335.669 -1.47978 -1.25762 0
M  V30 3634 C 332.799 -2.8966 -1.9161 0
M  V30 3635 C 331.753 -3.9928 -1.5414 0
M  V30 3636 C 331.079 -4.53476 -2.83308 0
M  V30 3637 C 332.379 -5.17012 -0.741339 0
M  V30 3638 H 334.073 -2.99034 -0.147898 0
M  V30 3639 H 331.619 -1.43831 -0.0696951 0
M  V30 3640 H 333.572 -3.34852 -2.55836 0
M  V30 3641 H 332.296 -2.10746 -2.49507 0
M  V30 3642 H 330.955 -3.54799 -0.922668 0
M  V30 3643 H 330.603 -3.71308 -3.39322 0
M  V30 3644 H 330.303 -5.27451 -2.58976 0
M  V30 3645 H 331.827 -5.01378 -3.485 0
M  V30 3646 H 333.241 -5.58667 -1.28699 0
M  V30 3647 H 331.638 -5.97137 -0.595627 0
M  V30 3648 H 332.708 -4.8423 0.254851 0
M  V30 3649 N 334.051 0.0651679 -1.57465 0
M  V30 3650 C 334.998 1.07675 -2.04144 0
M  V30 3651 C 335.968 1.38071 -0.923335 0
M  V30 3652 O 337.153 1.49026 -1.19146 0
M  V30 3653 C 334.293 2.38337 -2.49579 0
M  V30 3654 C 333.406 2.14413 -3.75035 0
M  V30 3655 C 332.541 3.38686 -4.09225 0
M  V30 3656 C 331.58 3.10156 -5.27702 0
M  V30 3657 N 330.717 4.26778 -5.57499 0
M  V30 3658 H 335.557 0.671716 -2.90331 0
M  V30 3659 H 333.094 0.3201 -1.43575 0
M  V30 3660 H 335.052 3.14632 -2.73975 0
M  V30 3661 H 333.682 2.7663 -1.6636 0
M  V30 3662 H 332.734 1.2878 -3.57939 0
M  V30 3663 H 334.046 1.89344 -4.61466 0
M  V30 3664 H 333.2 4.23373 -4.34558 0
M  V30 3665 H 331.939 3.66837 -3.21374 0
M  V30 3666 H 330.944 2.23866 -5.02159 0
M  V30 3667 H 332.169 2.8332 -6.17176 0
M  V30 3668 H 330.115 4.54948 -4.72608 0
M  V30 3669 H 330.032 4.05005 -6.38362 0
M  V30 3670 H 331.3 5.12443 -5.87386 0
M  V30 3671 N 335.529 1.53961 0.336706 0
M  V30 3672 C 336.757 1.75483 1.09605 0
M  V30 3673 C 337.172 0.4972 1.82136 0
M  V30 3674 O 336.529 -0.53149 1.74589 0
M  V30 3675 C 336.58 2.93943 2.10428 0
M  V30 3676 O 336.301 4.14842 1.40846 0
M  V30 3677 C 337.802 3.27571 2.98684 0
M  V30 3678 H 335.022 0.586166 0.326574 0
M  V30 3679 H 337.566 2.00808 0.38683 0
M  V30 3680 H 335.721 2.70929 2.76905 0
M  V30 3681 H 336.135 4.81383 2.08255 0
M  V30 3682 H 337.609 4.13791 3.6535 0
M  V30 3683 H 338.086 2.44168 3.65074 0
M  V30 3684 H 338.692 3.52615 2.37787 0
M  V30 3685 N 337.007 -0.598083 1.45811 0
M  V30 3686 C 337.937 -1.71873 1.58057 0
M  V30 3687 C 338.918 -1.64533 0.431615 0
M  V30 3688 O 340.103 -1.82787 0.65595 0
M  V30 3689 C 337.233 -3.10495 1.55597 0
M  V30 3690 C 336.187 -3.32654 2.69305 0
M  V30 3691 C 335.513 -4.71646 2.51902 0
M  V30 3692 C 336.813 -3.21981 4.11248 0
M  V30 3693 H 338.507 -1.61881 2.51863 0
M  V30 3694 H 336.053 -0.777372 1.21214 0
M  V30 3695 H 338.006 -3.88699 1.6276 0
M  V30 3696 H 336.73 -3.2135 0.583255 0
M  V30 3697 H 335.389 -2.56843 2.61586 0
M  V30 3698 H 335.037 -4.79246 1.52748 0
M  V30 3699 H 334.737 -4.87426 3.2816 0
M  V30 3700 H 336.261 -5.52038 2.60933 0
M  V30 3701 H 337.675 -3.90049 4.20161 0
M  V30 3702 H 336.072 -3.49289 4.87972 0
M  V30 3703 H 337.142 -2.1928 4.32486 0
M  V30 3704 N 338.485 -1.33259 -0.841409 0
M  V30 3705 C 339.415 -1.25926 -1.96634 0
M  V30 3706 C 340.396 -0.140349 -1.6952 0
M  V30 3707 O 341.581 -0.329707 -1.91381 0
M  V30 3708 C 338.711 -0.99512 -3.32738 0
M  V30 3709 C 337.665 -2.0767 -3.74242 0
M  V30 3710 C 336.991 -1.66474 -5.08125 0
M  V30 3711 C 338.291 -3.49318 -3.88297 0
M  V30 3712 H 339.985 -2.20046 -2.03027 0
M  V30 3713 H 337.531 -1.05931 -0.975425 0
M  V30 3714 H 339.484 -0.930323 -4.11002 0
M  V30 3715 H 338.208 -0.0183004 -3.26595 0
M  V30 3716 H 336.867 -2.13187 -2.98239 0
M  V30 3717 H 336.515 -0.675012 -4.9845 0
M  V30 3718 H 336.215 -2.3885 -5.36865 0
M  V30 3719 H 337.739 -1.61455 -5.88867 0
M  V30 3720 H 339.153 -3.46316 -4.56879 0
M  V30 3721 H 337.55 -4.20158 -4.28471 0
M  V30 3722 H 338.62 -3.8801 -2.9082 0
M  V30 3723 N 339.963 1.05934 -1.16686 0
M  V30 3724 C 341.379 1.30938 -0.912542 0
M  V30 3725 C 341.579 1.96803 0.432533 0
M  V30 3726 O 340.635 2.23693 1.17123 0
M  V30 3727 C 341.948 2.18649 -2.06429 0
M  V30 3728 C 343.496 2.32055 -2.10047 0
M  V30 3729 C 343.971 3.23122 -3.24586 0
M  V30 3730 N 345.462 3.30706 -3.24327 0
M  V30 3731 C 346.197 4.01273 -4.09594 0
M  V30 3732 N 345.693 4.74332 -5.04956 0
M  V30 3733 N 347.486 3.97361 -3.97569 0
M  V30 3734 H 339.637 0.615777 -2.03278 0
M  V30 3735 H 341.9 0.334077 -0.887185 0
M  V30 3736 H 341.606 1.77534 -3.03603 0
M  V30 3737 H 341.48 3.19252 -2.00894 0
M  V30 3738 H 343.867 2.72415 -1.13464 0
M  V30 3739 H 343.948 1.31107 -2.19647 0
M  V30 3740 H 343.592 2.83477 -4.2143 0
M  V30 3741 H 343.522 4.24057 -3.12223 0
M  V30 3742 H 346.013 2.78644 -2.55276 0
M  V30 3743 H 346.326 5.25716 -5.6643 0
M  V30 3744 H 344.671 4.733 -5.08933 0
M  V30 3745 H 347.862 3.39405 -3.22369 0
M  V30 3746 H 348.035 4.52089 -4.64241 0
M  V30 3747 N 341.441 0.965919 1.2453 0
M  V30 3748 C 342.681 0.634656 1.94297 0
M  V30 3749 C 343.045 -0.814822 1.73852 0
M  V30 3750 O 344.246 -1.25622 2.3764 0
M  V30 3751 C 342.517 0.99702 3.43212 0
M  V30 3752 S 344.076 0.780038 4.31811 0
M  V30 3753 H 340.894 0.232893 0.671775 0
M  V30 3754 H 343.496 1.24249 1.50938 0
M  V30 3755 H 342.2 2.04886 3.55598 0
M  V30 3756 H 341.731 0.379888 3.91562 0
M  V30 3757 H 343.746 -0.343512 4.9501 0
M  V30 3758 N 342.919 -1.39368 0.735821 0
M  V30 3759 C 344.335 -1.54204 0.411492 0
M  V30 3760 C 344.535 -1.70268 -1.07755 0
M  V30 3761 O 343.591 -1.70364 -1.86366 0
M  V30 3762 C 344.904 -2.75925 1.19523 0
M  V30 3763 C 346.452 -2.89761 1.18354 0
M  V30 3764 C 346.927 -4.14421 1.94986 0
M  V30 3765 N 348.418 -4.21462 1.92156 0
M  V30 3766 C 349.153 -5.16871 2.48258 0
M  V30 3767 N 348.649 -6.18063 3.13001 0
M  V30 3768 N 350.442 -5.09093 2.38287 0
M  V30 3769 H 342.593 -1.27189 1.70108 0
M  V30 3770 H 344.856 -0.616517 0.720147 0
M  V30 3771 H 344.562 -2.70401 2.24892 0
M  V30 3772 H 344.436 -3.68614 0.800222 0
M  V30 3773 H 346.823 -2.94777 0.137975 0
M  V30 3774 H 346.904 -1.98133 1.61793 0
M  V30 3775 H 346.548 -4.10166 2.99543 0
M  V30 3776 H 346.478 -5.05095 1.48953 0
M  V30 3777 H 348.969 -3.48979 1.44991 0
M  V30 3778 H 349.282 -6.87326 3.53275 0
M  V30 3779 H 347.627 -6.18448 3.17091 0
M  V30 3780 H 350.818 -4.28973 1.8735 0
M  V30 3781 H 350.991 -5.83272 2.82308 0
M  V30 3782 N 344.397 -0.483516 -1.5 0
M  V30 3783 C 345.345 0.318061 -2.30415 0
M  V30 3784 C 346.339 0.978988 -1.38247 0
M  V30 3785 O 347.545 0.908673 -1.55381 0
M  V30 3786 H 343.92 0.121419 -0.742133 0
M  V30 3787 H 345.891 -0.380403 -2.95965 0
M  V30 3788 C 344.64 1.38013 -3.19136 0
M  V30 3789 H 343.963 0.880952 -3.89973 0
M  V30 3790 H 345.403 1.91332 -3.78375 0
M  V30 3791 C 343.862 2.38884 -2.37563 0
M  V30 3792 O 344.392 3.44412 -2.06744 0
M  V30 3793 N 342.598 2.10912 -1.99911 0
M  V30 3794 H 342.145 1.25118 -2.25174 0
M  V30 3795 H 342.103 2.78635 -1.45636 0
M  V30 3796 N 345.875 1.56104 -0.216619 0
M  V30 3797 C 346.785 2.23694 0.706982 0
M  V30 3798 C 347.801 1.24295 1.21765 0
M  V30 3799 O 348.977 1.57094 1.2603 0
M  V30 3800 C 346.042 2.8998 1.90033 0
M  V30 3801 C 345.103 4.04708 1.43213 0
M  V30 3802 C 344.336 4.67824 2.56859 0
M  V30 3803 O 344.559 4.29913 3.74874 0
M  V30 3804 O 343.493 5.56905 2.28343 0
M  V30 3805 H 347.319 3.03272 0.161235 0
M  V30 3806 H 344.904 1.49394 0.0136177 0
M  V30 3807 H 346.786 3.31837 2.59735 0
M  V30 3808 H 345.461 2.13365 2.43428 0
M  V30 3809 H 344.368 3.6743 0.70327 0
M  V30 3810 H 345.701 4.83051 0.944615 0
M  V30 3811 N 347.353 -0.0568162 1.57498 0
M  V30 3812 C 348.3 -1.06591 2.04712 0
M  V30 3813 C 349.27 -1.3758 0.930644 0
M  V30 3814 O 350.455 -1.48392 1.19935 0
M  V30 3815 C 347.595 -2.3701 2.50839 0
M  V30 3816 C 346.708 -2.12421 3.76167 0
M  V30 3817 C 345.843 -3.36511 4.11015 0
M  V30 3818 C 344.882 -3.07353 5.2934 0
M  V30 3819 N 344.019 -4.23816 5.59754 0
M  V30 3820 H 348.859 -0.65631 2.90683 0
M  V30 3821 H 346.396 -0.312481 1.43743 0
M  V30 3822 H 348.354 -3.13175 2.7564 0
M  V30 3823 H 346.984 -2.75744 1.67825 0
M  V30 3824 H 346.036 -1.2688 3.58616 0
M  V30 3825 H 347.348 -1.86894 4.62463 0
M  V30 3826 H 346.502 -4.21062 4.36797 0
M  V30 3827 H 345.241 -3.65128 3.23315 0
M  V30 3828 H 344.246 -2.212 5.03339 0
M  V30 3829 H 345.471 -2.80043 6.1867 0
M  V30 3830 H 343.417 -4.52436 4.75014 0
M  V30 3831 H 343.334 -4.01614 6.40501 0
M  V30 3832 H 344.602 -5.0932 5.90096 0
M  V30 3833 N 348.832 -1.54138 -0.328536 0
M  V30 3834 C 349.779 -1.83176 -1.40411 0
M  V30 3835 C 350.749 -0.678494 -1.5161 0
M  V30 3836 O 351.934 -0.92443 -1.6691 0
M  V30 3837 C 349.074 -2.06035 -2.76846 0
M  V30 3838 C 348.187 -3.33727 -2.74318 0
M  V30 3839 C 347.322 -3.46574 -4.02567 0
M  V30 3840 C 346.361 -4.68159 -3.94327 0
M  V30 3841 N 345.498 -4.77959 -5.14296 0
M  V30 3842 H 350.338 -2.74938 -1.14948 0
M  V30 3843 H 347.875 -1.36166 -0.556538 0
M  V30 3844 H 349.833 -2.1728 -3.56153 0
M  V30 3845 H 348.463 -1.1757 -3.00628 0
M  V30 3846 H 347.515 -3.31246 -1.8703 0
M  V30 3847 H 348.827 -4.23139 -2.64111 0
M  V30 3848 H 347.981 -3.57333 -4.90304 0
M  V30 3849 H 346.72 -2.55245 -4.15574 0
M  V30 3850 H 345.725 -4.57461 -3.04974 0
M  V30 3851 H 346.95 -5.60868 -3.82889 0
M  V30 3852 H 344.896 -3.89544 -5.27818 0
M  V30 3853 H 344.813 -5.6133 -5.06404 0
M  V30 3854 H 346.081 -4.93044 -6.03761 0
M  V30 3855 N 350.31 0.590341 -1.46126 0
M  V30 3856 C 351.726 0.912917 -1.30912 0
M  V30 3857 C 351.926 1.99616 -0.274893 0
M  V30 3858 O 350.982 2.50397 0.325197 0
M  V30 3859 C 352.295 1.3375 -2.69317 0
M  V30 3860 C 353.843 1.45077 -2.77348 0
M  V30 3861 C 354.318 1.90904 -4.16317 0
M  V30 3862 N 355.809 1.9811 -4.18696 0
M  V30 3863 C 356.544 2.34828 -5.23109 0
M  V30 3864 N 356.04 2.70393 -6.37856 0
M  V30 3865 N 357.833 2.35317 -5.10473 0
M  V30 3866 H 349.984 -0.125358 -2.1203 0
M  V30 3867 H 352.247 0.00658481 -0.947977 0
M  V30 3868 H 351.953 0.615614 -3.4627 0
M  V30 3869 H 351.827 2.30058 -2.9892 0
M  V30 3870 H 354.214 2.16353 -2.00687 0
M  V30 3871 H 354.295 0.4704 -2.51438 0
M  V30 3872 H 353.939 1.20209 -4.9347 0
M  V30 3873 H 353.869 2.89886 -4.39629 0
M  V30 3874 H 356.36 1.73146 -3.359 0
M  V30 3875 H 356.673 2.97341 -7.13308 0
M  V30 3876 H 355.018 2.68048 -6.41229 0
M  V30 3877 H 358.209 2.0695 -4.19868 0
M  V30 3878 H 358.382 2.63605 -5.9196 0
M  V30 3879 N 351.788 1.33704 0.83433 0
M  V30 3880 C 352.738 1.20899 1.93306 0
M  V30 3881 C 353.722 0.110783 1.60518 0
M  V30 3882 O 354.914 0.339331 1.73717 0
M  V30 3883 C 352.043 0.955018 3.29749 0
M  V30 3884 C 351.129 2.09587 3.68692 0
M  V30 3885 N 351.52 3.34621 3.79292 0
M  V30 3886 C 349.818 2.00358 3.98463 0
M  V30 3887 C 350.519 4.09472 4.13167 0
M  V30 3888 N 349.495 3.37954 4.25779 0
M  V30 3889 H 353.297 2.15665 1.99664 0
M  V30 3890 H 350.811 1.25777 1.02732 0
M  V30 3891 H 352.808 0.844208 4.08263 0
M  V30 3892 H 351.468 0.0159317 3.24696 0
M  V30 3893 H 352.479 3.69313 3.63082 0
M  V30 3894 H 349.156 1.14137 4.01596 0
M  V30 3895 H 350.546 5.17391 4.28668 0
M  V30 3896 N 353.266 -1.05314 1.17247 0
M  V30 3897 C 354.682 -1.30452 0.919473 0
M  V30 3898 C 354.882 -1.9703 -0.42209 0
M  V30 3899 O 353.938 -2.24311 -1.15935 0
M  V30 3900 C 355.251 -2.17551 2.07586 0
M  V30 3901 C 356.799 -2.30937 2.11275 0
M  V30 3902 C 357.274 -3.21396 3.26296 0
M  V30 3903 N 358.765 -3.28981 3.26076 0
M  V30 3904 C 359.5 -3.99095 4.11716 0
M  V30 3905 N 358.996 -4.71648 5.07465 0
M  V30 3906 N 360.789 -3.95247 3.9967 0
M  V30 3907 H 352.94 -0.604988 2.03602 0
M  V30 3908 H 355.203 -0.329368 0.888944 0
M  V30 3909 H 354.909 -1.75921 3.0454 0
M  V30 3910 H 354.783 -3.18182 2.02584 0
M  V30 3911 H 357.17 -2.71809 1.14907 0
M  V30 3912 H 357.251 -1.2994 2.20339 0
M  V30 3913 H 356.895 -2.81238 4.22927 0
M  V30 3914 H 356.825 -4.22395 3.14467 0
M  V30 3915 H 359.316 -2.77286 2.5675 0
M  V30 3916 H 359.629 -5.22705 5.6921 0
M  V30 3917 H 357.974 -4.70594 5.11435 0
M  V30 3918 H 361.165 -3.37691 3.24164 0
M  V30 3919 H 361.338 -4.4962 4.66632 0
M  V30 3920 N 354.744 -0.972509 -1.24016 0
M  V30 3921 C 355.707 -0.511403 -2.23422 0
M  V30 3922 C 356.707 0.394679 -1.55881 0
M  V30 3923 O 357.897 0.189469 -1.73167 0
M  V30 3924 C 355.029 0.258769 -3.39916 0
M  V30 3925 H 356.222 -1.39024 -2.6573 0
M  V30 3926 H 353.775 -0.757585 -1.36713 0
M  V30 3927 H 354.51 1.1545 -3.03054 0
M  V30 3928 H 354.295 -0.391522 -3.9014 0
M  V30 3929 H 355.785 0.570244 -4.13688 0
M  V30 3930 N 356.222 1.38976 -0.743202 0
M  V30 3931 C 357.468 2.0064 -0.295189 0
M  V30 3932 C 357.801 1.5885 1.11716 0
M  V30 3933 O 357.076 0.821181 1.76315 0
M  V30 3934 C 357.359 3.578 -0.406318 0
M  V30 3935 C 357.212 4.09586 -1.85903 0
M  V30 3936 C 358.531 4.39616 0.206439 0
M  V30 3937 H 355.65 0.728935 -0.108733 0
M  V30 3938 H 358.292 1.65067 -0.940897 0
M  V30 3939 H 356.442 3.88235 0.143419 0
M  V30 3940 H 358.114 3.89837 -2.46627 0
M  V30 3941 H 356.357 3.6284 -2.3776 0
M  V30 3942 H 357.028 5.18708 -1.888 0
M  V30 3943 H 359.504 4.15273 -0.262283 0
M  V30 3944 H 358.38 5.48812 0.0983819 0
M  V30 3945 H 358.641 4.22754 1.2935 0
M  V30 3946 N 357.7 0.491464 1.49741 0
M  V30 3947 C 359.116 0.146835 1.58923 0
M  V30 3948 C 359.316 -1.34804 1.49767 0
M  V30 3949 O 358.372 -2.12317 1.36667 0
M  V30 3950 C 359.685 0.715157 2.92072 0
M  V30 3951 C 361.233 0.680407 3.05515 0
M  V30 3952 C 361.708 1.22663 4.41269 0
M  V30 3953 N 363.199 1.18691 4.47735 0
M  V30 3954 C 363.934 1.57984 5.51207 0
M  V30 3955 N 363.43 2.04824 6.6183 0
M  V30 3956 N 365.223 1.49459 5.41866 0
M  V30 3957 H 357.374 1.46347 1.53936 0
M  V30 3958 H 359.637 0.606453 0.728642 0
M  V30 3959 H 359.343 1.76317 3.04311 0
M  V30 3960 H 359.217 0.17018 3.76816 0
M  V30 3961 H 361.604 -0.358743 2.92911 0
M  V30 3962 H 361.685 1.26242 2.22478 0
M  V30 3963 H 361.329 2.26451 4.54623 0
M  V30 3964 H 361.259 0.620637 5.2293 0
M  V30 3965 H 363.75 0.843605 3.68364 0
M  V30 3966 H 364.063 2.32901 7.3687 0
M  V30 3967 H 362.408 2.08791 6.62896 0
M  V30 3968 H 365.599 1.12692 4.54333 0
M  V30 3969 H 365.772 1.80406 6.22381 0
M  V30 3970 N 359.178 -1.55987 0.224894 0
M  V30 3971 C 360.424 -1.98684 -0.406502 0
M  V30 3972 C 360.757 -1.11248 -1.59177 0
M  V30 3973 O 360.032 -0.170909 -1.93748 0
M  V30 3974 C 360.315 -3.50218 -0.837808 0
M  V30 3975 C 360.168 -4.48426 0.351332 0
M  V30 3976 C 361.487 -4.06243 -1.69278 0
M  V30 3977 H 358.606 -0.722337 -0.146283 0
M  V30 3978 H 361.248 -1.87255 0.321799 0
M  V30 3979 H 359.398 -3.60089 -1.45837 0
M  V30 3980 H 361.07 -4.50562 0.989526 0
M  V30 3981 H 359.313 -4.22159 0.998207 0
M  V30 3982 H 359.984 -5.52 0.00655905 0
M  V30 3983 H 362.46 -3.99337 -1.16914 0
M  V30 3984 H 361.336 -5.12581 -1.96346 0
M  V30 3985 H 361.597 -3.53332 -2.65723 0
M  V30 3986 N 360.656 0.0484629 -1.57525 0
M  V30 3987 C 361.905 0.742065 -1.87553 0
M  V30 3988 C 362.218 1.77545 -0.820802 0
M  V30 3989 O 363.424 2.52027 -1.00967 0
M  V30 3990 C 361.88 1.37081 -3.32771 0
M  V30 3991 C 361.488 0.374786 -4.4643 0
M  V30 3992 C 363.232 2.04542 -3.71972 0
M  V30 3993 C 361.139 1.01077 -5.82698 0
M  V30 3994 H 360.069 0.280903 -0.699721 0
M  V30 3995 H 362.72 -0.00411877 -1.835 0
M  V30 3996 H 361.102 2.16605 -3.31509 0
M  V30 3997 H 362.276 -0.392331 -4.59127 0
M  V30 3998 H 360.591 -0.196653 -4.15935 0
M  V30 3999 H 363.188 2.52943 -4.71088 0
M  V30 4000 H 363.531 2.85515 -3.02964 0
M  V30 4001 H 364.064 1.31819 -3.75325 0
M  V30 4002 H 360.803 0.240878 -6.55057 0
M  V30 4003 H 360.323 1.74819 -5.73758 0
M  V30 4004 H 362.002 1.52383 -6.28799 0
M  V30 4005 N 362.134 1.5431 0.320358 0
M  V30 4006 C 363.381 1.72668 1.05792 0
M  V30 4007 C 363.709 0.502084 1.87908 0
M  V30 4008 O 362.964 -0.516149 1.88771 0
M  V30 4009 C 363.263 2.95639 2.00828 0
M  V30 4010 C 362.929 4.30265 1.34843 0
M  V30 4011 C 361.591 4.66865 1.16578 0
M  V30 4012 C 363.943 5.13801 0.875095 0
M  V30 4013 C 361.271 5.84597 0.496336 0
M  V30 4014 C 363.623 6.32219 0.219463 0
M  V30 4015 C 362.287 6.67495 0.0246915 0
M  V30 4016 H 361.557 0.631837 0.387121 0
M  V30 4017 H 364.204 1.88552 0.334735 0
M  V30 4018 H 362.509 2.74456 2.79609 0
M  V30 4019 H 364.206 3.07038 2.57932 0
M  V30 4020 H 360.796 4.01472 1.50061 0
M  V30 4021 H 364.98 4.86039 1.00398 0
M  V30 4022 H 360.236 6.10486 0.334264 0
M  V30 4023 H 364.41 6.96227 -0.155291 0
M  V30 4024 H 362.037 7.5858 -0.496065 0
M  V30 4025 N 363.613 -0.582584 1.46437 0
M  V30 4026 C 364.841 -1.36682 1.55324 0
M  V30 4027 C 365.256 -1.87796 0.194409 0
M  V30 4028 O 364.613 -1.63623 -0.808318 0
M  V30 4029 C 364.664 -2.55426 2.55812 0
M  V30 4030 O 364.385 -2.0643 3.86417 0
M  V30 4031 C 365.886 -3.47976 2.74641 0
M  V30 4032 H 363.106 -0.417545 0.525259 0
M  V30 4033 H 365.65 -0.708219 1.91845 0
M  V30 4034 H 363.805 -3.17275 2.22295 0
M  V30 4035 H 364.219 -2.83762 4.41111 0
M  V30 4036 H 365.693 -4.27775 3.48874 0
M  V30 4037 H 366.17 -3.99919 1.81553 0
M  V30 4038 H 366.776 -2.91962 3.09255 0
M  V30 4039 N 365.091 -1.34144 -0.827227 0
M  V30 4040 C 366.34 -1.25602 -1.5782 0
M  V30 4041 C 366.653 0.173445 -1.94829 0
M  V30 4042 O 367.859 0.380984 -2.68814 0
M  V30 4043 C 366.315 -2.20151 -2.84713 0
M  V30 4044 C 365.923 -3.68331 -2.55021 0
M  V30 4045 C 367.667 -2.20508 -3.62735 0
M  V30 4046 C 365.574 -4.54762 -3.78082 0
M  V30 4047 H 364.504 -0.466573 -0.592306 0
M  V30 4048 H 367.155 -1.59283 -0.911116 0
M  V30 4049 H 365.537 -1.79417 -3.53023 0
M  V30 4050 H 366.711 -4.17577 -1.94849 0
M  V30 4051 H 365.026 -3.7038 -1.90283 0
M  V30 4052 H 367.623 -2.82306 -4.54101 0
M  V30 4053 H 367.966 -1.20322 -3.98533 0
M  V30 4054 H 368.499 -2.59664 -3.01362 0
M  V30 4055 H 365.238 -5.55867 -3.47407 0
M  V30 4056 H 364.758 -4.10254 -4.37552 0
M  V30 4057 H 366.437 -4.69153 -4.45538 0
M  V30 4058 N 366.569 1.04691 -1.17803 0
M  V30 4059 C 367.502 2.12068 -0.842765 0
M  V30 4060 C 368.48 1.61455 0.192608 0
M  V30 4061 O 369.664 1.88359 0.072995 0
M  V30 4062 C 366.791 3.37715 -0.258063 0
M  V30 4063 C 365.837 4.07164 -1.26962 0
M  V30 4064 S 366.67 4.55047 -2.82299 0
M  V30 4065 C 367.826 5.83935 -2.25323 0
M  V30 4066 H 368.059 2.4018 -1.75217 0
M  V30 4067 H 365.592 1.17366 -1.00323 0
M  V30 4068 H 367.55 4.10435 0.0727935 0
M  V30 4069 H 366.211 3.0773 0.629357 0
M  V30 4070 H 365.404 4.9746 -0.809263 0
M  V30 4071 H 365.006 3.40533 -1.54639 0
M  V30 4072 H 367.298 6.57552 -1.63192 0
M  V30 4073 H 368.241 6.34725 -3.13894 0
M  V30 4074 H 368.649 5.3874 -1.68582 0
M  V30 4075 N 368.047 0.979072 1.23499 0
M  V30 4076 C 369.296 0.642751 1.91185 0
M  V30 4077 C 369.609 -0.827253 1.77245 0
M  V30 4078 O 370.815 -1.27458 2.39722 0
M  V30 4079 C 369.271 1.09901 3.42709 0
M  V30 4080 C 368.879 2.59327 3.65313 0
M  V30 4081 C 370.623 0.836371 4.16179 0
M  V30 4082 C 368.53 2.98627 5.10467 0
M  V30 4083 H 367.46 0.236698 0.715884 0
M  V30 4084 H 370.111 1.1868 1.39955 0
M  V30 4085 H 368.493 0.48319 3.93041 0
M  V30 4086 H 369.667 3.26136 3.25533 0
M  V30 4087 H 367.982 2.83323 3.05151 0
M  V30 4088 H 370.579 1.10586 5.23139 0
M  V30 4089 H 370.922 -0.227509 4.15678 0
M  V30 4090 H 371.455 1.41371 3.71832 0
M  V30 4091 H 368.194 4.04133 5.16098 0
M  V30 4092 H 367.714 2.3651 5.51201 0
M  V30 4093 H 369.393 2.89159 5.78788 0
M  V30 4094 N 369.525 -1.3858 0.750561 0
M  V30 4095 C 370.771 -2.00481 0.305825 0
M  V30 4096 C 371.104 -1.5944 -1.10872 0
M  V30 4097 O 370.379 -0.83052 -1.75877 0
M  V30 4098 C 370.662 -3.5758 0.425287 0
M  V30 4099 C 370.515 -4.08594 1.88072 0
M  V30 4100 C 371.834 -4.39719 -0.183122 0
M  V30 4101 H 368.953 -0.728348 0.112598 0
M  V30 4102 H 371.595 -1.64566 0.949638 0
M  V30 4103 H 369.745 -3.88306 -0.122828 0
M  V30 4104 H 371.417 -3.88523 2.48691 0
M  V30 4105 H 369.66 -3.61574 2.39681 0
M  V30 4106 H 370.331 -5.177 1.91548 0
M  V30 4107 H 372.807 -4.15128 0.284303 0
M  V30 4108 H 371.683 -5.48856 -0.0692757 0
M  V30 4109 H 371.944 -4.23434 -1.27106 0
M  V30 4110 N 371.003 -0.499398 -1.49478 0
M  V30 4111 C 372.233 0.0424839 -2.06556 0
M  V30 4112 C 372.641 1.31514 -1.36018 0
M  V30 4113 O 371.984 1.78555 -0.431718 0
M  V30 4114 C 372.046 0.368074 -3.57611 0
M  V30 4115 C 371.71 -0.806631 -4.49825 0
M  V30 4116 C 372.707 -1.69667 -4.91436 0
M  V30 4117 C 370.392 -1.00498 -4.92144 0
M  V30 4118 C 372.386 -2.76923 -5.74101 0
M  V30 4119 C 370.073 -2.08072 -5.74586 0
M  V30 4120 C 371.071 -2.96119 -6.15469 0
M  V30 4121 O 370.759 -4.01836 -6.96264 0
M  V30 4122 H 370.491 -0.0165165 -0.675798 0
M  V30 4123 H 373.045 -0.695497 -1.93267 0
M  V30 4124 H 371.275 1.15963 -3.68903 0
M  V30 4125 H 372.964 0.848381 -3.96935 0
M  V30 4126 H 373.73 -1.55524 -4.59388 0
M  V30 4127 H 369.609 -0.329036 -4.59824 0
M  V30 4128 H 373.153 -3.45676 -6.05932 0
M  V30 4129 H 369.05 -2.22211 -6.06047 0
M  V30 4130 H 369.818 -3.9917 -7.14567 0
M  V30 4131 N 372.481 1.55866 -0.233164 0
M  V30 4132 C 373.728 1.98603 0.395374 0
M  V30 4133 C 374.056 1.12105 1.58942 0
M  V30 4134 O 373.311 0.168656 1.94972 0
M  V30 4135 C 373.61 3.46856 0.861724 0
M  V30 4136 C 373.276 4.50348 -0.223066 0
M  V30 4137 C 371.938 4.78371 -0.521038 0
M  V30 4138 C 374.29 5.12355 -0.956124 0
M  V30 4139 C 371.618 5.6568 -1.55638 0
M  V30 4140 C 373.97 6.00786 -1.98089 0
M  V30 4141 C 372.634 6.27148 -2.28565 0
M  V30 4142 H 371.904 0.726739 0.144677 0
M  V30 4143 H 374.551 1.88491 -0.338114 0
M  V30 4144 H 372.856 3.5423 1.67418 0
M  V30 4145 H 374.553 3.77302 1.35809 0
M  V30 4146 H 371.143 4.28596 0.0193234 0
M  V30 4147 H 375.327 4.90765 -0.739166 0
M  V30 4148 H 370.583 5.84365 -1.798 0
M  V30 4149 H 374.757 6.4788 -2.55391 0
M  V30 4150 H 372.384 6.94597 -3.08932 0
M  V30 4151 N 373.959 -0.0401083 1.57549 0
M  V30 4152 C 374.889 -1.04384 2.08869 0
M  V30 4153 C 375.87 -1.38407 0.988817 0
M  V30 4154 O 377.055 -1.47483 1.26342 0
M  V30 4155 C 374.185 -2.34808 2.55895 0
M  V30 4156 C 373.139 -2.15057 3.70047 0
M  V30 4157 C 372.465 -3.51145 4.03239 0
M  V30 4158 C 373.765 -1.54576 4.98902 0
M  V30 4159 H 375.459 -0.616666 2.92981 0
M  V30 4160 H 373.005 -0.295184 1.40942 0
M  V30 4161 H 374.958 -3.05346 2.90417 0
M  V30 4162 H 373.682 -2.79565 1.68853 0
M  V30 4163 H 372.341 -1.46954 3.35857 0
M  V30 4164 H 371.989 -3.93529 3.13279 0
M  V30 4165 H 371.689 -3.38758 4.80122 0
M  V30 4166 H 373.213 -4.23062 4.40285 0
M  V30 4167 H 374.627 -2.15017 5.31451 0
M  V30 4168 H 373.024 -1.52796 5.80322 0
M  V30 4169 H 374.094 -0.51039 4.82206 0
M  V30 4170 N 375.437 -1.54477 -0.31217 0
M  V30 4171 C 376.684 -1.73227 -1.04875 0
M  V30 4172 C 377.012 -0.512042 -1.87639 0
M  V30 4173 O 376.267 0.506131 -1.89042 0
M  V30 4174 C 376.566 -2.967 -1.99258 0
M  V30 4175 C 376.232 -4.30974 -1.32559 0
M  V30 4176 C 374.894 -4.67477 -1.141 0
M  V30 4177 C 377.246 -5.14258 -0.847835 0
M  V30 4178 C 374.574 -5.84852 -0.465326 0
M  V30 4179 C 376.926 -6.32327 -0.185931 0
M  V30 4180 C 375.59 -6.67499 0.0107077 0
M  V30 4181 H 374.86 -0.633881 -0.383765 0
M  V30 4182 H 377.507 -1.88727 -0.324731 0
M  V30 4183 H 375.812 -2.75935 -2.7815 0
M  V30 4184 H 377.509 -3.08401 -2.563 0
M  V30 4185 H 374.099 -4.02262 -1.4793 0
M  V30 4186 H 378.283 -4.86565 -0.978192 0
M  V30 4187 H 373.539 -6.10654 -0.301883 0
M  V30 4188 H 377.713 -6.96135 0.192211 0
M  V30 4189 H 375.34 -7.58306 0.536287 0
M  V30 4190 N 376.915 0.57481 -1.46744 0
M  V30 4191 C 378.161 1.33251 -1.53674 0
M  V30 4192 C 378.516 1.91468 -0.189125 0
M  V30 4193 O 377.809 1.73954 0.803151 0
M  V30 4194 C 378.003 2.476 -2.57738 0
M  V30 4195 C 377.832 2.00586 -4.02487 0
M  V30 4196 C 376.602 1.85237 -4.70123 0
M  V30 4197 C 378.8 1.56078 -4.90045 0
M  V30 4198 N 376.782 1.32377 -5.99458 0
M  V30 4199 C 378.153 1.14863 -6.09267 0
M  V30 4200 C 380.208 1.43968 -4.76632 0
M  V30 4201 C 378.911 0.627435 -7.16558 0
M  V30 4202 C 380.937 0.932512 -5.84002 0
M  V30 4203 C 380.299 0.53019 -7.02402 0
M  V30 4204 H 376.398 0.480284 -0.617131 0
M  V30 4205 H 378.982 0.653592 -1.83402 0
M  V30 4206 H 377.153 3.13045 -2.29907 0
M  V30 4207 H 378.885 3.14567 -2.54616 0
M  V30 4208 H 375.64 2.07423 -4.25761 0
M  V30 4209 H 376.064 1.08085 -6.68316 0
M  V30 4210 H 380.706 1.73689 -3.85476 0
M  V30 4211 H 378.424 0.317821 -8.07475 0
M  V30 4212 H 382.01 0.842611 -5.75666 0
M  V30 4213 H 380.89 0.14381 -7.84068 0
M  V30 4214 N 378.394 1.34581 0.820102 0
M  V30 4215 C 379.622 1.3018 1.60813 0
M  V30 4216 C 380.037 -0.123551 1.88395 0
M  V30 4217 O 379.394 -1.07148 1.47735 0
M  V30 4218 C 379.445 2.09312 2.94739 0
M  V30 4219 O 379.166 3.46288 2.68358 0
M  V30 4220 C 380.667 2.1234 3.89136 0
M  V30 4221 H 377.887 0.447726 0.499782 0
M  V30 4222 H 380.431 1.77237 1.02017 0
M  V30 4223 H 378.586 1.65889 3.50085 0
M  V30 4224 H 379 3.87227 3.53774 0
M  V30 4225 H 380.474 2.72126 4.80262 0
M  V30 4226 H 380.951 1.11854 4.24718 0
M  V30 4227 H 381.557 2.55864 3.39726 0
M  V30 4228 N 379.872 -1.04064 1.18357 0
M  V30 4229 C 381.283 -1.58719 0.98312 0
M  V30 4230 C 381.634 -1.90556 -0.467193 0
M  V30 4231 O 380.759 -1.69561 -1.34454 0
M  V30 4232 C 381.354 -2.88379 1.77828 0
M  V30 4233 C 379.913 -3.3965 1.62218 0
M  V30 4234 C 379.06 -2.13235 1.77274 0
M  V30 4235 H 382.011 -0.867359 1.32901 0
M  V30 4236 H 382.032 -3.58773 1.26737 0
M  V30 4237 H 381.544 -2.65176 2.83379 0
M  V30 4238 H 379.645 -3.67866 0.592036 0
M  V30 4239 H 379.758 -4.13475 2.42023 0
M  V30 4240 H 378.122 -2.24542 1.20221 0
M  V30 4241 H 378.905 -1.92487 2.8426 0
M  V30 4242 N 381.35 -0.985608 -1.22978 0
M  V30 4243 C 382.58 -0.674603 -1.95276 0
M  V30 4244 C 382.988 0.763483 -1.73111 0
M  V30 4245 O 382.331 1.52601 -1.02268 0
M  V30 4246 C 382.393 -0.891597 -3.48268 0
M  V30 4247 C 382.057 -2.31275 -3.94158 0
M  V30 4248 C 383.054 -3.29179 -4.02415 0
M  V30 4249 C 380.739 -2.64524 -4.27004 0
M  V30 4250 C 382.733 -4.58407 -4.42879 0
M  V30 4251 C 380.42 -3.93974 -4.67149 0
M  V30 4252 C 381.418 -4.90727 -4.75053 0
M  V30 4253 O 381.106 -6.17865 -5.14294 0
M  V30 4254 H 380.838 -0.249251 -0.628371 0
M  V30 4255 H 383.392 -1.32106 -1.5728 0
M  V30 4256 H 381.622 -0.187962 -3.86243 0
M  V30 4257 H 383.311 -0.576957 -4.01779 0
M  V30 4258 H 384.077 -3.04823 -3.77237 0
M  V30 4259 H 379.956 -1.89923 -4.2006 0
M  V30 4260 H 383.5 -5.33926 -4.48964 0
M  V30 4261 H 379.397 -4.18122 -4.91777 0
M  V30 4262 H 380.165 -6.21694 -5.32389 0
M  V30 4263 N 382.828 1.3818 -0.7579 0
M  V30 4264 C 383.776 2.32277 -0.122482 0
M  V30 4265 C 384.77 1.54238 0.700505 0
M  V30 4266 O 385.976 1.69737 0.599119 0
M  V30 4267 H 382.351 0.751712 -0.0208143 0
M  V30 4268 H 384.322 2.83469 -0.932099 0
M  V30 4269 C 383.071 3.39447 0.753076 0
M  V30 4270 H 382.394 3.99591 0.129184 0
M  V30 4271 H 383.834 4.07684 1.16489 0
M  V30 4272 C 382.293 2.78375 1.8976 0
M  V30 4273 O 382.823 2.68025 2.99208 0
M  V30 4274 N 381.029 2.36121 1.69397 0
M  V30 4275 H 380.576 2.4474 0.803762 0
M  V30 4276 H 380.534 1.95602 2.46145 0
M  V30 4277 N 384.306 0.507319 1.49211 0
M  V30 4278 C 385.555 -0.0368315 2.01666 0
M  V30 4279 C 385.868 -1.37459 1.39156 0
M  V30 4280 O 387.074 -2.00579 1.82976 0
M  V30 4281 C 385.53 -0.116089 3.59713 0
M  V30 4282 C 385.138 1.2154 4.31198 0
M  V30 4283 C 386.882 -0.610268 4.2009 0
M  V30 4284 C 384.789 1.09796 5.81119 0
M  V30 4285 H 383.719 -0.0175376 0.753796 0
M  V30 4286 H 386.37 0.647691 1.71689 0
M  V30 4287 H 384.752 -0.8652 3.86433 0
M  V30 4288 H 385.926 1.9783 4.16173 0
M  V30 4289 H 384.241 1.64352 3.82593 0
M  V30 4290 H 386.838 -0.715742 5.29888 0
M  V30 4291 H 387.181 -1.61064 3.8388 0
M  V30 4292 H 387.714 0.0824916 3.97714 0
M  V30 4293 H 384.453 2.0728 6.21864 0
M  V30 4294 H 383.973 0.376058 5.9862 0
M  V30 4295 H 385.652 0.779281 6.4229 0
M  V30 4296 N 385.784 -1.5574 0.241426 0
M  V30 4297 C 387.03 -1.99104 -0.385406 0
M  V30 4298 C 387.363 -1.1293 -1.57988 0
M  V30 4299 O 386.638 -0.191449 -1.93555 0
M  V30 4300 C 386.921 -3.51087 -0.800616 0
M  V30 4301 C 386.774 -4.48028 0.398874 0
M  V30 4302 C 388.093 -4.08015 -1.64959 0
M  V30 4303 H 385.212 -0.723848 -0.138614 0
M  V30 4304 H 387.854 -1.86903 0.341642 0
M  V30 4305 H 386.004 -3.61615 -1.4201 0
M  V30 4306 H 387.676 -4.49487 1.03726 0
M  V30 4307 H 385.919 -4.21077 1.04293 0
M  V30 4308 H 386.59 -5.51962 0.0651056 0
M  V30 4309 H 389.066 -4.00555 -1.12672 0
M  V30 4310 H 387.942 -5.14635 -1.90898 0
M  V30 4311 H 388.203 -3.56131 -2.61961 0
M  V30 4312 N 387.262 0.0317525 -1.57568 0
M  V30 4313 C 388.511 0.722131 -1.8833 0
M  V30 4314 C 388.824 1.76664 -0.839587 0
M  V30 4315 O 390.03 2.50942 -1.03635 0
M  V30 4316 C 388.486 1.33544 -3.34207 0
M  V30 4317 C 388.094 0.327415 -4.46802 0
M  V30 4318 C 389.838 2.00585 -3.7412 0
M  V30 4319 C 387.745 0.948915 -5.83738 0
M  V30 4320 H 386.675 0.273466 -0.702661 0
M  V30 4321 H 389.326 -0.0235811 -1.83485 0
M  V30 4322 H 387.708 2.13077 -3.33788 0
M  V30 4323 H 388.882 -0.441006 -4.58685 0
M  V30 4324 H 387.197 -0.240758 -4.15703 0
M  V30 4325 H 389.794 2.47932 -4.73744 0
M  V30 4326 H 390.137 2.82285 -3.05975 0
M  V30 4327 H 390.67 1.27831 -3.76702 0
M  V30 4328 H 387.409 0.171387 -6.55276 0
M  V30 4329 H 386.929 1.68724 -5.7558 0
M  V30 4330 H 388.608 1.45705 -6.3038 0
M  V30 4331 N 388.74 1.54641 0.303973 0
M  V30 4332 C 389.67 1.88386 1.3796 0
M  V30 4333 C 390.651 0.742485 1.5304 0
M  V30 4334 O 391.836 0.997959 1.66597 0
M  V30 4335 C 388.966 2.12854 2.74427 0
M  V30 4336 C 387.92 3.28702 2.74115 0
M  V30 4337 C 387.246 3.38582 4.13844 0
M  V30 4338 C 388.546 4.65881 2.3612 0
M  V30 4339 H 390.24 2.78474 1.09966 0
M  V30 4340 H 387.786 1.33988 0.527556 0
M  V30 4341 H 389.739 2.35047 3.49758 0
M  V30 4342 H 388.463 1.19535 3.03939 0
M  V30 4343 H 387.122 3.06428 2.0124 0
M  V30 4344 H 386.77 2.42784 4.40528 0
M  V30 4345 H 386.47 4.16453 4.14537 0
M  V30 4346 H 387.994 3.63031 4.90959 0
M  V30 4347 H 389.408 4.87823 3.01167 0
M  V30 4348 H 387.805 5.46444 2.48031 0
M  V30 4349 H 388.875 4.66799 1.3125 0
M  V30 4350 N 390.218 -0.567019 1.47046 0
M  V30 4351 C 391.148 -1.68482 1.61667 0
M  V30 4352 C 392.129 -1.6358 0.466418 0
M  V30 4353 O 393.314 -1.81354 0.694574 0
M  V30 4354 C 390.444 -3.07124 1.62148 0
M  V30 4355 C 389.398 -3.26867 2.76301 0
M  V30 4356 C 388.724 -4.66196 2.61849 0
M  V30 4357 C 390.024 -3.13186 4.17986 0
M  V30 4358 H 391.718 -1.56502 2.5524 0
M  V30 4359 H 389.264 -0.751486 1.22836 0
M  V30 4360 H 391.217 -3.8516 1.70968 0
M  V30 4361 H 389.941 -3.2004 0.651287 0
M  V30 4362 H 388.6 -2.51237 2.66975 0
M  V30 4363 H 388.248 -4.75898 1.62879 0
M  V30 4364 H 387.948 -4.80356 3.38425 0
M  V30 4365 H 389.472 -5.46379 2.72584 0
M  V30 4366 H 390.886 -3.81049 4.2834 0
M  V30 4367 H 389.283 -3.3886 4.95272 0
M  V30 4368 H 390.353 -2.10057 4.3704 0
M  V30 4369 N 391.696 -1.35014 -0.812953 0
M  V30 4370 C 392.644 -1.27435 -1.94585 0
M  V30 4371 C 393.638 -0.170494 -1.6854 0
M  V30 4372 O 394.844 -0.336085 -1.76835 0
M  V30 4373 H 391.219 -0.396144 -0.639198 0
M  V30 4374 H 393.19 -2.23158 -1.98098 0
M  V30 4375 C 391.939 -1.05677 -3.31252 0
M  V30 4376 H 391.262 -1.89853 -3.51846 0
M  V30 4377 H 392.702 -1.04413 -4.10943 0
M  V30 4378 C 391.161 0.239615 -3.36047 0
M  V30 4379 O 391.691 1.23759 -3.8216 0
M  V30 4380 N 389.897 0.276186 -2.89285 0
M  V30 4381 H 389.444 -0.53653 -2.51951 0
M  V30 4382 H 389.402 1.14332 -2.92875 0
M  V30 4383 N 393.175 1.03435 -1.18907 0
M  V30 4384 C 394.403 1.80381 -1.01342 0
M  V30 4385 C 394.818 1.83649 0.438005 0
M  V30 4386 O 394.175 1.27655 1.30424 0
M  V30 4387 C 394.226 3.25689 -1.56873 0
M  V30 4388 O 393.947 3.22673 -2.96334 0
M  V30 4389 C 395.448 4.19255 -1.44014 0
M  V30 4390 H 392.668 0.56784 -0.35749 0
M  V30 4391 H 395.212 1.30317 -1.576 0
M  V30 4392 H 393.367 3.72962 -1.04777 0
M  V30 4393 H 393.781 4.13748 -3.22355 0
M  V30 4394 H 395.255 5.19123 -1.87657 0
M  V30 4395 H 395.732 4.37467 -0.389815 0
M  V30 4396 H 396.338 3.77851 -1.95214 0
M  V30 4397 N 394.653 0.992116 1.22453 0
M  V30 4398 C 395.9 0.667534 1.91181 0
M  V30 4399 C 396.228 -0.800317 1.77271 0
M  V30 4400 O 395.483 -1.59421 1.13505 0
M  V30 4401 C 395.782 1.01832 3.42586 0
M  V30 4402 C 395.448 2.47831 3.76684 0
M  V30 4403 C 394.11 2.87729 3.85701 0
M  V30 4404 C 396.462 3.42466 3.92895 0
M  V30 4405 C 393.79 4.21252 4.08367 0
M  V30 4406 C 396.142 4.75648 4.17064 0
M  V30 4407 C 394.806 5.15288 4.24305 0
M  V30 4408 H 394.076 0.244268 0.699581 0
M  V30 4409 H 396.723 1.24816 1.45235 0
M  V30 4410 H 395.028 0.355769 3.90181 0
M  V30 4411 H 396.725 0.745228 3.94014 0
M  V30 4412 H 393.315 2.15905 3.70247 0
M  V30 4413 H 397.499 3.12814 3.85307 0
M  V30 4414 H 392.755 4.51554 4.122 0
M  V30 4415 H 396.929 5.48924 4.2855 0
M  V30 4416 H 394.556 6.18769 4.41621 0
M  V30 4417 N 396.131 -1.37776 0.765217 0
M  V30 4418 C 397.063 -2.28958 0.105361 0
M  V30 4419 C 398.076 -1.48316 -0.67128 0
M  V30 4420 O 399.265 -1.71046 -0.51045 0
M  V30 4421 C 396.365 -3.27421 -0.874569 0
M  V30 4422 C 395.538 -4.37132 -0.153123 0
M  V30 4423 C 394.597 -5.1571 -1.04547 0
M  V30 4424 O 393.623 -5.66896 -0.511672 0
M  V30 4425 N 394.825 -5.29808 -2.37243 0
M  V30 4426 H 397.59 -2.86227 0.888495 0
M  V30 4427 H 395.151 -1.49682 0.617 0
M  V30 4428 H 397.143 -3.7687 -1.47483 0
M  V30 4429 H 395.713 -2.70967 -1.55871 0
M  V30 4430 H 394.933 -3.89166 0.627975 0
M  V30 4431 H 396.221 -5.07625 0.345643 0
M  V30 4432 H 395.619 -4.89793 -2.83054 0
M  V30 4433 H 394.176 -5.82589 -2.9229 0
M  V30 4434 N 397.609 -0.515225 -1.4894 0
M  V30 4435 C 398.519 0.259774 -2.33157 0
M  V30 4436 C 399.535 0.953501 -1.45548 0
M  V30 4437 O 400.711 0.931735 -1.78552 0
M  V30 4438 C 397.776 1.30193 -3.21326 0
M  V30 4439 C 396.837 0.620129 -4.24797 0
M  V30 4440 C 396.07 1.61263 -5.08753 0
M  V30 4441 O 396.293 2.84389 -4.94448 0
M  V30 4442 O 395.227 1.16013 -5.90614 0
M  V30 4443 H 399.053 -0.429932 -3.00641 0
M  V30 4444 H 396.638 -0.276346 -1.46822 0
M  V30 4445 H 398.52 1.90455 -3.75905 0
M  V30 4446 H 397.195 1.97431 -2.56521 0
M  V30 4447 H 396.102 -0.0226019 -3.74093 0
M  V30 4448 H 397.435 -0.0100493 -4.92199 0
M  V30 4449 N 399.087 1.5561 -0.249682 0
M  V30 4450 C 400.334 1.99011 0.374287 0
M  V30 4451 C 400.662 1.13785 1.57744 0
M  V30 4452 O 399.917 0.189326 1.94782 0
M  V30 4453 C 400.216 3.4775 0.824887 0
M  V30 4454 C 399.882 4.50086 -0.270819 0
M  V30 4455 C 398.544 4.77791 -0.571746 0
M  V30 4456 C 400.896 5.11312 -1.01041 0
M  V30 4457 C 398.224 5.63997 -1.61629 0
M  V30 4458 C 400.576 5.98651 -2.0445 0
M  V30 4459 C 399.24 6.24688 -2.35204 0
M  V30 4460 H 398.51 0.728233 0.136961 0
M  V30 4461 H 401.157 1.88122 -0.358087 0
M  V30 4462 H 399.462 3.55985 1.63651 0
M  V30 4463 H 401.159 3.78721 1.31799 0
M  V30 4464 H 397.749 4.28592 -0.026136 0
M  V30 4465 H 401.933 4.89953 -0.791177 0
M  V30 4466 H 397.189 5.82425 -1.85988 0
M  V30 4467 H 401.363 6.45135 -2.62248 0
M  V30 4468 H 398.99 6.91281 -3.16282 0
M  V30 4469 N 400.565 -0.0233959 1.57583 0
M  V30 4470 C 401.812 -0.713063 1.8953 0
M  V30 4471 C 402.14 -1.75056 0.847673 0
M  V30 4472 O 401.395 -1.95119 -0.150636 0
M  V30 4473 C 401.694 -1.41428 3.28227 0
M  V30 4474 C 401.36 -0.512222 4.47981 0
M  V30 4475 C 400.022 -0.263785 4.80476 0
M  V30 4476 C 402.374 0.110248 5.21083 0
M  V30 4477 C 399.702 0.615804 5.83459 0
M  V30 4478 C 402.054 0.977573 6.25001 0
M  V30 4479 C 400.718 1.23542 6.55968 0
M  V30 4480 H 399.988 -0.260928 0.69354 0
M  V30 4481 H 402.635 0.0271047 1.91481 0
M  V30 4482 H 400.94 -2.22791 3.22291 0
M  V30 4483 H 402.637 -1.95355 3.50196 0
M  V30 4484 H 399.227 -0.716013 4.22577 0
M  V30 4485 H 403.411 -0.0687137 4.96252 0
M  V30 4486 H 398.667 0.82382 6.05824 0
M  V30 4487 H 402.841 1.46638 6.80786 0
M  V30 4488 H 400.468 1.91871 7.35588 0
M  V30 4489 N 402.043 -1.548 -0.295768 0
M  V30 4490 C 403.291 -1.73985 -1.02828 0
M  V30 4491 C 403.612 -0.531406 -1.87619 0
M  V30 4492 O 402.882 0.454221 -1.90561 0
M  V30 4493 H 401.462 -0.641556 -0.382642 0
M  V30 4494 H 404.124 -1.92163 -0.325489 0
M  V30 4495 H 403.22 -2.63129 -1.67838 0
M  V30 4496 N 403.521 0.559213 -1.47345 0
M  V30 4497 C 404.451 1.67622 -1.62558 0
M  V30 4498 C 405.432 1.63331 -0.475087 0
M  V30 4499 O 406.617 1.80983 -0.704182 0
M  V30 4500 C 403.747 3.0626 -1.63774 0
M  V30 4501 C 402.701 3.25397 -2.7803 0
M  V30 4502 C 402.027 4.64801 -2.64318 0
M  V30 4503 C 403.327 3.10965 -4.19641 0
M  V30 4504 H 405.021 1.55146 -2.56067 0
M  V30 4505 H 402.567 0.744961 -1.23233 0
M  V30 4506 H 404.52 3.84247 -1.73008 0
M  V30 4507 H 403.244 3.1969 -0.66825 0
M  V30 4508 H 401.903 2.49817 -2.68304 0
M  V30 4509 H 401.551 4.75028 -1.65401 0
M  V30 4510 H 401.251 4.78555 -3.40968 0
M  V30 4511 H 402.775 5.44926 -2.75478 0
M  V30 4512 H 404.189 3.78772 -4.30354 0
M  V30 4513 H 402.586 3.36229 -4.97062 0
M  V30 4514 H 403.656 2.07736 -4.38148 0
M  V30 4515 N 404.999 1.35443 0.805782 0
M  V30 4516 C 406.224 1.32037 1.59941 0
M  V30 4517 C 406.649 -0.0994215 1.87837 0
M  V30 4518 O 406.007 -1.06648 1.46615 0
M  V30 4519 C 406.055 2.13354 2.90711 0
M  V30 4520 O 405.159 1.5148 3.83572 0
M  V30 4521 H 404.5 0.452666 0.485787 0
M  V30 4522 H 407.03 1.78496 1.00002 0
M  V30 4523 H 407.04 2.25338 3.40128 0
M  V30 4524 H 405.715 3.16572 2.69732 0
M  V30 4525 H 404.292 1.4834 3.42125 0
M  V30 4526 N 406.477 -1.02803 1.19454 0
M  V30 4527 C 407.425 -2.13213 0.929673 0
M  V30 4528 C 408.419 -1.69011 -0.114806 0
M  V30 4529 O 409.625 -1.79967 0.0345147 0
M  V30 4530 H 406 -0.69662 0.28324 0
M  V30 4531 H 407.971 -2.32744 1.86743 0
M  V30 4532 C 406.72 -3.4429 0.485797 0
M  V30 4533 H 406.043 -3.7872 1.28105 0
M  V30 4534 H 407.483 -4.22638 0.339582 0
M  V30 4535 C 405.942 -3.27258 -0.800244 0
M  V30 4536 O 406.472 -3.55967 -1.86146 0
M  V30 4537 N 404.678 -2.80545 -0.75781 0
M  V30 4538 H 404.225 -2.57382 0.106039 0
M  V30 4539 H 404.183 -2.6953 -1.61867 0
M  V30 4540 N 407.956 -0.998596 -1.21925 0
M  V30 4541 C 409.196 -0.685948 -1.92546 0
M  V30 4542 C 409.56 0.768441 -1.75952 0
M  V30 4543 O 410.761 1.19277 -2.40887 0
M  V30 4544 C 409.032 -1.08767 -3.40448 0
M  V30 4545 S 410.591 -0.894251 -4.29591 0
M  V30 4546 H 407.409 -0.250622 -0.665364 0
M  V30 4547 H 410.011 -1.28207 -1.47591 0
M  V30 4548 H 408.715 -2.14242 -3.50041 0
M  V30 4549 H 408.246 -0.48357 -3.90417 0
M  V30 4550 H 410.261 0.212149 -4.95746 0
M  V30 4551 N 409.434 1.37368 -0.772513 0
M  V30 4552 C 410.344 2.34053 -0.160081 0
M  V30 4553 C 411.36 1.60216 0.678728 0
M  V30 4554 O 412.536 1.92303 0.59847 0
M  V30 4555 C 409.601 3.3939 0.708182 0
M  V30 4556 C 408.662 4.29048 -0.147172 0
M  V30 4557 C 407.895 5.29354 0.679744 0
M  V30 4558 O 408.118 5.3723 1.91678 0
M  V30 4559 O 407.052 6.01835 0.0885444 0
M  V30 4560 H 410.878 2.88159 -0.959053 0
M  V30 4561 H 408.463 1.39543 -0.533685 0
M  V30 4562 H 410.345 4.03839 1.20384 0
M  V30 4563 H 409.02 2.8761 1.48533 0
M  V30 4564 H 407.927 3.67697 -0.689205 0
M  V30 4565 H 409.26 4.84134 -0.887423 0
M  V30 4566 N 410.912 0.523116 1.48665 0
M  V30 4567 C 412.137 -0.0117284 2.07397 0
M  V30 4568 C 412.562 -1.28031 1.37803 0
M  V30 4569 O 411.92 -1.75836 0.441762 0
M  V30 4570 C 411.968 -0.225786 3.59892 0
M  V30 4571 O 411.072 -1.29592 3.91509 0
M  V30 4572 H 410.413 0.0360673 0.66302 0
M  V30 4573 H 412.943 0.729066 1.9117 0
M  V30 4574 H 412.953 -0.450552 4.05505 0
M  V30 4575 H 411.628 0.700944 4.09951 0
M  V30 4576 H 410.205 -1.05436 3.57684 0
M  V30 4577 N 412.39 -1.55475 0.257931 0
M  V30 4578 C 413.618 -2.03609 -0.367559 0
M  V30 4579 C 414.033 -1.13687 -1.50734 0
M  V30 4580 O 413.39 -0.153479 -1.81853 0
M  V30 4581 C 413.441 -3.51001 -0.864908 0
M  V30 4582 O 413.162 -4.37499 0.229465 0
M  V30 4583 C 414.663 -4.14946 -1.55997 0
M  V30 4584 H 411.883 -0.665459 -0.0860521 0
M  V30 4585 H 414.427 -2.00843 0.385014 0
M  V30 4586 H 412.582 -3.54266 -1.56762 0
M  V30 4587 H 412.996 -5.24286 -0.14998 0
M  V30 4588 H 414.47 -5.19735 -1.85956 0
M  V30 4589 H 414.947 -3.6209 -2.4857 0
M  V30 4590 H 415.553 -4.15635 -0.901543 0
M  V30 4591 N 413.868 0.0150385 -1.57593 0
M  V30 4592 C 415.093 0.718067 -1.94573 0
M  V30 4593 C 415.518 1.6734 -0.859005 0
M  V30 4594 O 414.876 1.80362 0.184147 0
M  V30 4595 C 414.924 1.43918 -3.30636 0
M  V30 4596 O 414.028 2.55299 -3.23876 0
M  V30 4597 H 413.369 0.192125 -0.635597 0
M  V30 4598 H 415.899 -0.0336708 -2.04572 0
M  V30 4599 H 415.909 1.80598 -3.65853 0
M  V30 4600 H 414.584 0.738619 -4.09289 0
M  V30 4601 H 413.161 2.21058 -3.00312 0
M  V30 4602 N 415.346 1.54954 0.287554 0
M  V30 4603 C 416.278 1.83224 1.37701 0
M  V30 4604 C 417.291 0.715898 1.46215 0
M  V30 4605 O 418.48 0.993565 1.48292 0
M  V30 4606 C 415.58 1.96723 2.75959 0
M  V30 4607 C 414.753 3.27253 2.90215 0
M  V30 4608 C 413.812 3.30998 4.09056 0
M  V30 4609 O 412.838 4.04457 4.00503 0
M  V30 4610 N 414.04 2.57353 5.20336 0
M  V30 4611 H 416.805 2.77254 1.138 0
M  V30 4612 H 414.366 1.54694 0.477652 0
M  V30 4613 H 416.358 1.96615 3.5373 0
M  V30 4614 H 414.928 1.09626 2.92747 0
M  V30 4615 H 414.148 3.40022 1.99447 0
M  V30 4616 H 415.436 4.13365 2.96659 0
M  V30 4617 H 414.834 1.97327 5.30169 0
M  V30 4618 H 413.391 2.62984 5.96391 0
M  V30 4619 N 416.824 -0.551391 1.4764 0
M  V30 4620 C 417.754 -1.66757 1.63445 0
M  V30 4621 C 418.735 -1.63077 0.483742 0
M  V30 4622 O 419.92 -1.80607 0.71377 0
M  V30 4623 C 417.05 -3.05387 1.65396 0
M  V30 4624 C 416.004 -3.23918 2.79752 0
M  V30 4625 C 415.33 -4.63393 2.66779 0
M  V30 4626 C 416.63 -3.08735 4.21284 0
M  V30 4627 H 418.324 -1.53786 2.56886 0
M  V30 4628 H 415.87 -0.738415 1.23626 0
M  V30 4629 H 417.823 -3.83325 1.75043 0
M  V30 4630 H 416.547 -3.19332 0.685195 0
M  V30 4631 H 415.206 -2.48391 2.69625 0
M  V30 4632 H 414.854 -4.74144 1.67918 0
M  V30 4633 H 414.554 -4.7674 3.43501 0
M  V30 4634 H 416.078 -5.43458 2.78364 0
M  V30 4635 H 417.492 -3.76484 4.32357 0
M  V30 4636 H 415.889 -3.33588 4.98838 0
M  V30 4637 H 416.959 -2.0541 4.39243 0
M  V30 4638 N 418.302 -1.35869 -0.798587 0
M  V30 4639 C 419.579 -1.20145 -1.54352 0
M  V30 4640 C 419.959 0.216161 -2.0999 0
M  V30 4641 O 419.307 1.22068 -1.93162 0
M  V30 4642 C 419.517 -2.27602 -2.64572 0
M  V30 4643 C 420.865 -2.63811 -3.32699 0
M  V30 4644 O 421.889 -2.26576 -2.74849 0
M  V30 4645 O 420.748 -3.27866 -4.37226 0
M  V30 4646 H 417.842 -0.467248 -0.682355 0
M  V30 4647 H 420.388 -1.47574 -0.837859 0
M  V30 4648 H 419.16 -3.2265 -2.21388 0
M  V30 4649 H 418.783 -2.01488 -3.42766 0
M  V30 4650 N 419.78 1.02168 -1.19998 0
M  V30 4651 C 420.712 2.10705 -0.901994 0
M  V30 4652 C 421.725 1.6244 0.108216 0
M  V30 4653 O 422.914 1.78082 -0.12214 0
M  V30 4654 C 420.014 3.37291 -0.329834 0
M  V30 4655 C 419.187 4.14714 -1.39035 0
M  V30 4656 C 418.246 5.19606 -0.830432 0
M  V30 4657 O 417.272 5.48809 -1.50989 0
M  V30 4658 N 418.474 5.79366 0.362696 0
M  V30 4659 H 421.239 2.36856 -1.83628 0
M  V30 4660 H 418.8 1.18518 -1.10296 0
M  V30 4661 H 420.792 4.04657 0.0587633 0
M  V30 4662 H 419.362 3.0843 0.508891 0
M  V30 4663 H 418.582 3.42392 -1.9535 0
M  V30 4664 H 419.87 4.63226 -2.10474 0
M  V30 4665 H 419.268 5.57968 0.932081 0
M  V30 4666 H 417.825 6.48106 0.69299 0
M  V30 4667 N 421.258 1.00505 1.21394 0
M  V30 4668 C 422.221 0.570459 2.21987 0
M  V30 4669 C 423.221 -0.353211 1.56873 0
M  V30 4670 O 424.411 -0.14349 1.73608 0
M  V30 4671 C 421.543 -0.168555 3.40483 0
M  V30 4672 H 422.736 1.46021 2.6195 0
M  V30 4673 H 420.289 0.793565 1.34656 0
M  V30 4674 H 421.024 -1.07374 3.06009 0
M  V30 4675 H 420.809 0.494823 3.88965 0
M  V30 4676 H 422.299 -0.460362 4.15055 0
M  V30 4677 N 422.737 -1.36956 0.779787 0
M  V30 4678 C 423.965 -2.03755 0.359398 0
M  V30 4679 C 424.38 -1.58807 -1.02106 0
M  V30 4680 O 423.737 -0.773024 -1.6532 0
M  V30 4681 C 423.788 -3.59251 0.402568 0
M  V30 4682 O 423.509 -4.02557 1.72858 0
M  V30 4683 C 425.01 -4.43291 -0.0284068 0
M  V30 4684 H 422.23 -0.654148 0.149437 0
M  V30 4685 H 424.774 -1.75128 1.05595 0
M  V30 4686 H 422.929 -3.86621 -0.245478 0
M  V30 4687 H 423.343 -4.97111 1.67275 0
M  V30 4688 H 424.817 -5.51975 0.0529466 0
M  V30 4689 H 425.294 -4.25719 -1.07982 0
M  V30 4690 H 425.9 -4.21163 0.591758 0
M  V30 4691 N 424.215 -0.530993 -1.48385 0
M  V30 4692 C 425.147 0.268353 -2.27624 0
M  V30 4693 C 426.16 0.903525 -1.35426 0
M  V30 4694 O 427.349 0.781796 -1.60469 0
M  V30 4695 C 424.449 1.39535 -3.08842 0
M  V30 4696 C 423.622 0.861913 -4.28824 0
M  V30 4697 C 422.681 1.87016 -4.91845 0
M  V30 4698 O 421.707 1.4267 -5.5103 0
M  V30 4699 N 422.909 3.20238 -4.84178 0
M  V30 4700 H 425.674 -0.41123 -2.96865 0
M  V30 4701 H 423.235 -0.365387 -1.57723 0
M  V30 4702 H 425.227 2.06803 -3.47871 0
M  V30 4703 H 423.797 1.97859 -2.42014 0
M  V30 4704 H 423.017 0.0132126 -3.94198 0
M  V30 4705 H 424.305 0.484415 -5.06489 0
M  V30 4706 H 423.703 3.58932 -4.37246 0
M  V30 4707 H 422.26 3.83136 -5.27305 0
M  V30 4708 N 425.693 1.55336 -0.266172 0
M  V30 4709 C 426.939 1.99692 0.353681 0
M  V30 4710 C 427.272 1.1543 1.56172 0
M  V30 4711 O 426.547 0.222218 1.93226 0
M  V30 4712 C 426.83 3.52316 0.74466 0
M  V30 4713 C 426.683 4.47337 -0.470101 0
M  V30 4714 C 428.002 4.10588 1.58447 0
M  V30 4715 H 425.121 0.725961 0.12708 0
M  V30 4716 H 427.763 1.86336 -0.371333 0
M  V30 4717 H 425.913 3.63829 1.36239 0
M  V30 4718 H 427.585 4.4778 -1.10864 0
M  V30 4719 H 425.828 4.19364 -1.10978 0
M  V30 4720 H 426.499 5.51788 -0.15291 0
M  V30 4721 H 428.975 4.02297 1.06286 0
M  V30 4722 H 427.851 5.17607 1.82686 0
M  V30 4723 H 428.112 3.60253 2.56262 0
M  V30 4724 N 427.171 -0.0066808 1.57599 0
M  V30 4725 C 428.399 -0.704087 1.94551 0
M  V30 4726 C 428.814 -1.67677 0.867746 0
M  V30 4727 O 428.171 -1.8185 -0.153925 0
M  V30 4728 C 428.222 -1.44177 3.31505 0
M  V30 4729 O 427.943 -0.508097 4.35144 0
M  V30 4730 C 429.444 -2.23429 3.82876 0
M  V30 4731 H 426.664 -0.196523 0.641576 0
M  V30 4732 H 429.208 0.042453 2.04456 0
M  V30 4733 H 427.363 -2.13999 3.22929 0
M  V30 4734 H 427.777 -1.02782 5.14331 0
M  V30 4735 H 429.251 -2.70552 4.8115 0
M  V30 4736 H 429.728 -3.05818 3.15233 0
M  V30 4737 H 430.334 -1.58636 3.94607 0
M  V30 4738 N 428.649 -1.55105 -0.279332 0
M  V30 4739 C 429.559 -1.90638 -1.36727 0
M  V30 4740 C 430.575 -0.802899 -1.54368 0
M  V30 4741 O 431.751 -1.10138 -1.68616 0
M  V30 4742 C 428.816 -2.16547 -2.70755 0
M  V30 4743 C 427.877 -3.40146 -2.61915 0
M  V30 4744 C 427.11 -3.6481 -3.8955 0
M  V30 4745 O 427.333 -2.92095 -4.89935 0
M  V30 4746 O 426.267 -4.58343 -3.90135 0
M  V30 4747 H 430.093 -2.83237 -1.09591 0
M  V30 4748 H 427.678 -1.4157 -0.477306 0
M  V30 4749 H 429.56 -2.34665 -3.50014 0
M  V30 4750 H 428.235 -1.27131 -2.9769 0
M  V30 4751 H 427.142 -3.2737 -1.81052 0
M  V30 4752 H 428.475 -4.29761 -2.3993 0
M  V30 4753 N 430.127 0.543554 -1.4793 0
M  V30 4754 C 431.355 1.32516 -1.58894 0
M  V30 4755 C 431.77 1.87215 -0.244131 0
M  V30 4756 O 431.127 1.65709 0.764652 0
M  V30 4757 C 431.178 2.48554 -2.62494 0
M  V30 4758 O 430.899 1.96112 -3.91755 0
M  V30 4759 C 432.4 3.40572 -2.8377 0
M  V30 4760 H 429.62 0.403472 -0.536145 0
M  V30 4761 H 432.164 0.657106 -1.93655 0
M  V30 4762 H 430.319 3.1127 -2.30629 0
M  V30 4763 H 430.733 2.71967 -4.4848 0
M  V30 4764 H 432.207 4.18375 -3.60093 0
M  V30 4765 H 432.684 3.94965 -1.92092 0
M  V30 4766 H 433.29 2.8366 -3.16887 0
M  V30 4767 N 431.605 1.3629 0.791371 0
M  V30 4768 C 432.535 1.33137 1.91825 0
M  V30 4769 C 433.516 0.203168 1.68882 0
M  V30 4770 O 434.701 0.400509 1.90025 0
M  V30 4771 C 431.831 1.11793 3.28816 0
M  V30 4772 C 430.785 2.21417 3.66277 0
M  V30 4773 C 430.111 1.85218 5.01596 0
M  V30 4774 C 431.411 3.63489 3.75064 0
M  V30 4775 H 433.105 2.2743 1.9472 0
M  V30 4776 H 430.651 1.09479 0.935437 0
M  V30 4777 H 432.604 1.08222 4.07266 0
M  V30 4778 H 431.328 0.139501 3.26302 0
M  V30 4779 H 429.987 2.2411 2.90121 0
M  V30 4780 H 429.635 0.859544 4.95602 0
M  V30 4781 H 429.335 2.58611 5.27631 0
M  V30 4782 H 430.859 1.832 5.82469 0
M  V30 4783 H 432.273 3.63034 4.43711 0
M  V30 4784 H 430.67 4.35771 4.12582 0
M  V30 4785 H 431.74 3.98536 2.76219 0
M  V30 4786 N 433.083 -1.0153 1.20538 0
M  V30 4787 C 434.331 -1.74803 1.01432 0
M  V30 4788 C 434.652 -1.8963 -0.454456 0
M  V30 4789 O 433.922 -1.43975 -1.32846 0
M  V30 4790 H 432.502 -0.647598 0.372324 0
M  V30 4791 H 435.164 -1.22402 1.5167 0
M  V30 4792 H 434.26 -2.75114 1.47373 0
M  V30 4793 N 434.561 -1.01147 -1.20859 0
M  V30 4794 C 435.494 -0.522108 -2.22147 0
M  V30 4795 C 436.472 0.427686 -1.56874 0
M  V30 4796 O 437.656 0.34889 -1.85243 0
M  V30 4797 C 434.783 0.240819 -3.37843 0
M  V30 4798 C 433.829 -0.657752 -4.21398 0
M  V30 4799 S 434.662 -2.12393 -4.91578 0
M  V30 4800 C 435.818 -1.37102 -6.10699 0
M  V30 4801 H 436.051 -1.38035 -2.63313 0
M  V30 4802 H 433.584 -0.819941 -1.30829 0
M  V30 4803 H 435.542 0.674908 -4.04914 0
M  V30 4804 H 434.203 1.07457 -2.95147 0
M  V30 4805 H 433.396 -0.0697456 -5.03952 0
M  V30 4806 H 432.998 -1.0294 -3.59555 0
M  V30 4807 H 435.29 -0.648315 -6.74391 0
M  V30 4808 H 436.233 -2.17252 -6.73949 0
M  V30 4809 H 436.641 -0.876154 -5.57659 0
M  V30 4810 N 436.039 1.36541 -0.78704 0
M  V30 4811 C 437.267 2.03561 -0.370199 0
M  V30 4812 C 437.682 1.59347 1.01263 0
M  V30 4813 O 437.039 0.781781 1.64907 0
M  V30 4814 C 437.09 3.59033 -0.421614 0
M  V30 4815 O 436.811 4.01634 -1.7499 0
M  V30 4816 C 438.312 4.433 0.00489763 0
M  V30 4817 H 435.532 0.653346 -0.152904 0
M  V30 4818 H 438.076 1.74566 -1.06522 0
M  V30 4819 H 436.231 3.86746 0.224971 0
M  V30 4820 H 436.645 4.96217 -1.69909 0
M  V30 4821 H 438.119 5.51939 -0.0822184 0
M  V30 4822 H 438.596 4.26285 1.05723 0
M  V30 4823 H 439.202 4.20843 -0.614085 0
M  V30 4824 N 437.518 0.538854 1.48102 0
M  V30 4825 C 438.468 -0.23907 2.26743 0
M  V30 4826 C 439.452 -0.901923 1.33245 0
M  V30 4827 O 440.644 -0.803263 1.57723 0
M  V30 4828 C 437.773 -1.2799 3.18549 0
M  V30 4829 C 436.859 -0.621388 4.19523 0
M  V30 4830 N 437.25 0.298004 5.04921 0
M  V30 4831 C 435.548 -0.877533 4.37282 0
M  V30 4832 C 436.249 0.678757 5.77726 0
M  V30 4833 N 435.225 0.0377881 5.43587 0
M  V30 4834 H 439.027 0.468096 2.90148 0
M  V30 4835 H 436.541 0.357497 1.58416 0
M  V30 4836 H 438.538 -1.851 3.73555 0
M  V30 4837 H 437.198 -1.98835 2.567 0
M  V30 4838 H 438.209 0.671126 5.13533 0
M  V30 4839 H 434.886 -1.57588 3.86616 0
M  V30 4840 H 436.276 1.43316 6.56437 0
M  V30 4841 N 438.996 -1.55193 0.274407 0
M  V30 4842 C 440.236 -2.01488 -0.343778 0
M  V30 4843 C 440.6 -1.1586 -1.53103 0
M  V30 4844 O 441.801 -1.51732 -2.2188 0
M  V30 4845 C 440.072 -3.50134 -0.717021 0
M  V30 4846 S 441.631 -4.18417 -1.32184 0
M  V30 4847 H 438.449 -0.70291 -0.106948 0
M  V30 4848 H 441.051 -1.91446 0.396075 0
M  V30 4849 H 439.755 -4.10104 0.155947 0
M  V30 4850 H 439.286 -3.64159 -1.48835 0
M  V30 4851 H 441.301 -4.21984 -2.61044 0
M  V30 4852 N 440.474 -0.00167713 -1.576 0
M  V30 4853 C 441.714 0.687302 -1.92498 0
M  V30 4854 C 442.078 1.70844 -0.876144 0
M  V30 4855 O 443.279 2.44792 -1.11043 0
M  V30 4856 C 441.55 1.31217 -3.32441 0
M  V30 4857 S 443.109 2.02604 -3.89226 0
M  V30 4858 H 439.927 0.226985 -0.673794 0
M  V30 4859 H 442.529 -0.0587666 -1.95412 0
M  V30 4860 H 441.233 0.556164 -4.06614 0
M  V30 4861 H 440.764 2.09613 -3.32905 0
M  V30 4862 H 442.779 3.30137 -3.70438 0
M  V30 4863 N 441.952 1.55251 0.271103 0
M  V30 4864 C 443.201 1.75151 1.00025 0
M  V30 4865 C 443.514 0.561041 1.87381 0
M  V30 4866 O 444.72 0.642506 2.63788 0
M  V30 4867 C 443.176 3.09999 1.82835 0
M  V30 4868 C 442.784 4.3662 1.00336 0
M  V30 4869 C 444.528 3.39249 2.55168 0
M  V30 4870 C 442.435 5.62506 1.82595 0
M  V30 4871 H 441.365 0.652877 0.377183 0
M  V30 4872 H 444.016 1.81708 0.255843 0
M  V30 4873 H 442.398 2.97485 2.61378 0
M  V30 4874 H 443.572 4.60055 0.261959 0
M  V30 4875 H 441.887 4.14527 0.394486 0
M  V30 4876 H 444.484 4.3051 3.1712 0
M  V30 4877 H 444.827 2.59467 3.2555 0
M  V30 4878 H 445.36 3.52869 1.83653 0
M  V30 4879 H 442.099 6.45041 1.16631 0
M  V30 4880 H 441.619 5.43211 2.54327 0
M  V30 4881 H 443.298 6.00875 2.39913 0
M  V30 4882 N 443.43 -0.535701 1.48216 0
M  V30 4883 C 444.378 -1.66179 1.62749 0
M  V30 4884 C 445.372 -1.62034 0.49409 0
M  V30 4885 O 446.578 -1.6696 0.672624 0
M  V30 4886 H 442.953 -0.550244 0.512578 0
M  V30 4887 H 444.924 -1.51063 2.57337 0
M  V30 4888 C 443.673 -3.04471 1.67907 0
M  V30 4889 H 442.996 -3.08351 2.54479 0
M  V30 4890 H 444.436 -3.82894 1.82121 0
M  V30 4891 C 442.895 -3.34314 0.416596 0
M  V30 4892 O 443.425 -3.98905 -0.473014 0
M  V30 4893 N 441.631 -2.89149 0.290038 0
M  V30 4894 H 441.178 -2.36764 1.01493 0
M  V30 4895 H 441.136 -3.09486 -0.55367 0
M  V30 4896 N 444.908 -1.36708 -0.784132 0
M  V30 4897 C 446.319 -1.27947 -1.35965 0
M  V30 4898 C 446.67 0.0784013 -1.96043 0
M  V30 4899 O 445.795 0.979989 -1.92938 0
M  V30 4900 C 446.39 -2.31689 -2.47195 0
M  V30 4901 C 444.949 -2.26601 -3.00548 0
M  V30 4902 C 444.096 -2.16184 -1.73666 0
M  V30 4903 H 447.047 -1.4751 -0.585358 0
M  V30 4904 H 447.068 -1.95638 -3.26352 0
M  V30 4905 H 446.58 -3.30506 -2.03439 0
M  V30 4906 H 444.681 -1.31268 -3.48711 0
M  V30 4907 H 444.794 -3.19508 -3.57004 0
M  V30 4908 H 443.158 -1.62524 -1.96107 0
M  V30 4909 H 443.941 -3.16896 -1.32031 0
M  V30 4910 N 446.386 1.0089 -1.21074 0
M  V30 4911 C 447.635 1.74019 -1.01981 0
M  V30 4912 C 447.948 1.90408 0.447665 0
M  V30 4913 O 449.154 2.60707 0.757906 0
M  V30 4914 C 447.61 3.13026 -1.77603 0
M  V30 4915 C 447.218 3.04623 -3.28495 0
M  V30 4916 C 448.962 3.90312 -1.66904 0
M  V30 4917 C 446.869 4.38685 -3.96623 0
M  V30 4918 H 445.799 0.652422 -0.377971 0
M  V30 4919 H 448.45 1.12755 -1.44771 0
M  V30 4920 H 446.832 3.74878 -1.27604 0
M  V30 4921 H 448.006 2.52032 -3.85767 0
M  V30 4922 H 446.321 2.40827 -3.39693 0
M  V30 4923 H 448.918 4.8951 -2.15138 0
M  V30 4924 H 449.261 4.11558 -0.62658 0
M  V30 4925 H 449.794 3.35104 -2.14359 0
M  V30 4926 H 446.533 4.22641 -5.01054 0
M  V30 4927 H 446.053 4.91252 -3.4414 0
M  V30 4928 H 447.732 5.075 -4.01314 0
M  V30 4929 N 447.864 1.01787 1.20321 0
M  V30 4930 C 449.113 0.703249 1.89043 0
M  V30 4931 C 449.426 -0.770445 1.79787 0
M  V30 4932 O 450.632 -1.19767 2.43656 0
M  V30 4933 C 449.088 1.20749 3.3904 0
M  V30 4934 C 448.696 2.70817 3.56878 0
M  V30 4935 C 450.44 0.968352 4.13308 0
M  V30 4936 C 448.347 3.14716 5.00708 0
M  V30 4937 H 447.277 0.259354 0.707991 0
M  V30 4938 H 449.928 1.23072 1.36108 0
M  V30 4939 H 448.31 0.607989 3.91305 0
M  V30 4940 H 449.484 3.36327 3.14993 0
M  V30 4941 H 447.799 2.92888 2.95983 0
M  V30 4942 H 450.396 1.27173 5.19356 0
M  V30 4943 H 450.739 -0.095149 4.16191 0
M  V30 4944 H 451.272 1.53129 3.67146 0
M  V30 4945 H 448.011 4.20347 5.02979 0
M  V30 4946 H 447.531 2.53927 5.43398 0
M  V30 4947 H 449.21 3.07426 5.69296 0
M  V30 4948 N 449.342 -1.36122 0.79427 0
M  V30 4949 C 450.572 -2.03067 0.380437 0
M  V30 4950 C 450.98 -1.60018 -1.00949 0
M  V30 4951 O 450.323 -0.787425 -1.65968 0
M  V30 4952 C 450.385 -3.57587 0.37034 0
M  V30 4953 C 450.049 -4.23855 1.70867 0
M  V30 4954 C 451.046 -4.46404 2.66496 0
M  V30 4955 C 448.731 -4.61229 1.9893 0
M  V30 4956 C 450.725 -5.05412 3.88378 0
M  V30 4957 C 448.412 -5.19953 3.21079 0
M  V30 4958 C 449.41 -5.41985 4.15621 0
M  V30 4959 O 449.098 -5.99475 5.35616 0
M  V30 4960 H 448.83 -0.658168 0.154243 0
M  V30 4961 H 451.384 -1.7498 1.0757 0
M  V30 4962 H 449.614 -3.84814 -0.381444 0
M  V30 4963 H 451.303 -4.05895 -0.0194894 0
M  V30 4964 H 452.069 -4.17921 2.46103 0
M  V30 4965 H 447.948 -4.43402 1.26158 0
M  V30 4966 H 451.492 -5.22524 4.62185 0
M  V30 4967 H 447.389 -5.47862 3.41347 0
M  V30 4968 H 448.157 -6.17937 5.36745 0
M  V30 4969 N 450.82 -0.546701 -1.47814 0
M  V30 4970 C 451.783 0.196287 -2.28358 0
M  V30 4971 C 452.783 0.852437 -1.36346 0
M  V30 4972 O 453.973 0.709913 -1.59078 0
M  V30 4973 C 451.105 1.28579 -3.15722 0
M  V30 4974 H 452.298 -0.511086 -2.95513 0
M  V30 4975 H 449.851 -0.303248 -1.5333 0
M  V30 4976 H 450.586 2.0259 -2.53235 0
M  V30 4977 H 450.371 0.820229 -3.83425 0
M  V30 4978 H 451.861 1.80793 -3.76435 0
M  V30 4979 N 452.299 1.55045 -0.282633 0
M  V30 4980 C 453.546 1.9976 0.33199 0
M  V30 4981 C 453.874 1.17105 1.55295 0
M  V30 4982 O 453.129 0.230599 1.94337 0
M  V30 4983 C 453.428 3.49422 0.750938 0
M  V30 4984 C 453.094 4.4941 -0.366228 0
M  V30 4985 C 451.756 4.76471 -0.672964 0
M  V30 4986 C 454.108 5.09054 -1.11864 0
M  V30 4987 C 451.436 5.60442 -1.73556 0
M  V30 4988 C 453.788 5.9418 -2.17102 0
M  V30 4989 C 452.452 6.19558 -2.48402 0
M  V30 4990 H 451.722 0.730974 0.121484 0
M  V30 4991 H 454.369 1.8732 -0.39791 0
M  V30 4992 H 452.674 3.59377 1.56063 0
M  V30 4993 H 454.371 3.81432 1.23736 0
M  V30 4994 H 450.961 4.2844 -0.117041 0
M  V30 4995 H 455.145 4.88165 -0.894925 0
M  V30 4996 H 450.401 5.78349 -1.983 0
M  V30 4997 H 454.575 6.39427 -2.75873 0
M  V30 4998 H 452.202 6.84417 -3.30874 0
M  V30 4999 N 453.777 0.010035 1.57597 0
M  V30 5000 C 455.023 -0.673697 1.91283 0
M  V30 5001 C 455.356 -1.72863 0.884979 0
M  V30 5002 O 454.631 -1.94268 -0.0949487 0
M  V30 5003 C 454.914 -1.30766 3.35518 0
M  V30 5004 C 454.767 -0.263578 4.49027 0
M  V30 5005 C 456.086 -2.23105 3.79358 0
M  V30 5006 H 453.205 -0.243439 0.695634 0
M  V30 5007 H 455.847 0.0633864 1.89894 0
M  V30 5008 H 453.997 -1.93588 3.36832 0
M  V30 5009 H 455.669 0.365738 4.59848 0
M  V30 5010 H 453.912 0.413077 4.31829 0
M  V30 5011 H 454.583 -0.746398 5.4693 0
M  V30 5012 H 457.059 -1.70289 3.79659 0
M  V30 5013 H 455.935 -2.64424 4.81011 0
M  V30 5014 H 456.196 -3.11433 3.13787 0
M  V30 5015 N 455.255 -1.55392 -0.262866 0
M  V30 5016 C 456.503 -1.76127 -0.991147 0
M  V30 5017 C 456.824 -0.571083 -1.8645 0
M  V30 5018 O 456.094 0.413698 -1.91482 0
M  V30 5019 H 454.674 -0.649528 -0.368948 0
M  V30 5020 H 457.336 -1.9281 -0.284655 0
M  V30 5021 H 456.432 -2.6663 -1.62219 0
M  V30 5022 N 456.733 0.527833 -1.48498 0
M  V30 5023 C 457.643 1.65907 -1.65867 0
M  V30 5024 C 458.659 1.6537 -0.541192 0
M  V30 5025 O 459.835 1.84282 -0.812534 0
M  V30 5026 C 456.9 3.02364 -1.69637 0
M  V30 5027 C 455.961 3.1374 -2.93028 0
M  V30 5028 C 455.194 4.43688 -2.96609 0
M  V30 5029 O 455.417 5.30913 -2.08538 0
M  V30 5030 O 454.351 4.59475 -3.88802 0
M  V30 5031 H 458.177 1.5419 -2.61647 0
M  V30 5032 H 455.762 0.701163 -1.31924 0
M  V30 5033 H 457.644 3.83515 -1.74625 0
M  V30 5034 H 456.319 3.14401 -0.770312 0
M  V30 5035 H 455.226 2.31877 -2.93571 0
M  V30 5036 H 456.559 3.06621 -3.85026 0
M  V30 5037 N 458.211 1.37122 0.776871 0
M  V30 5038 C 459.158 1.3247 1.88998 0
M  V30 5039 C 460.128 0.191143 1.64997 0
M  V30 5040 O 461.313 0.379683 1.86984 0
M  V30 5041 C 458.453 1.13241 3.25992 0
M  V30 5042 C 457.566 2.35782 3.61982 0
M  V30 5043 C 456.701 2.09465 4.88158 0
M  V30 5044 C 455.74 3.279 5.16864 0
M  V30 5045 N 454.877 3.01167 6.34226 0
M  V30 5046 H 459.717 2.27642 1.9231 0
M  V30 5047 H 457.254 1.13125 0.94027 0
M  V30 5048 H 459.212 1.00115 4.0501 0
M  V30 5049 H 457.842 0.217186 3.22069 0
M  V30 5050 H 456.894 2.59666 2.77989 0
M  V30 5051 H 458.206 3.24125 3.79137 0
M  V30 5052 H 457.36 1.93341 5.75069 0
M  V30 5053 H 456.099 1.18452 4.73097 0
M  V30 5054 H 455.104 3.44569 4.2843 0
M  V30 5055 H 456.329 4.19757 5.33836 0
M  V30 5056 H 454.275 2.12779 6.20533 0
M  V30 5057 H 454.192 3.83052 6.51772 0
M  V30 5058 H 455.46 2.88649 7.24087 0
M  V30 5059 N 459.689 -1.00246 1.21608 0
M  V30 5060 C 460.936 -1.74061 1.03485 0
M  V30 5061 C 461.264 -1.89658 -0.431308 0
M  V30 5062 O 460.519 -1.42976 -1.33627 0
M  V30 5063 C 460.818 -3.15448 1.68009 0
M  V30 5064 C 460.484 -3.19792 3.17874 0
M  V30 5065 C 459.146 -3.20685 3.58768 0
M  V30 5066 C 461.498 -3.16835 4.13842 0
M  V30 5067 C 458.826 -3.16309 4.94131 0
M  V30 5068 C 461.178 -3.14001 5.49169 0
M  V30 5069 C 459.842 -3.13204 5.89457 0
M  V30 5070 H 459.112 -0.636934 0.378677 0
M  V30 5071 H 461.759 -1.17473 1.51236 0
M  V30 5072 H 460.064 -3.75284 1.12557 0
M  V30 5073 H 461.761 -3.71285 1.51487 0
M  V30 5074 H 458.351 -3.19842 2.85305 0
M  V30 5075 H 462.535 -3.15303 3.83272 0
M  V30 5076 H 457.791 -3.14032 5.24589 0
M  V30 5077 H 461.965 -3.10667 6.23265 0
M  V30 5078 H 459.592 -3.09568 6.94314 0
M  V30 5079 N 461.167 -1.02423 -1.1978 0
M  V30 5080 C 462.583 -0.740459 -1.41384 0
M  V30 5081 C 462.783 0.676827 -1.89793 0
M  V30 5082 O 461.839 1.4435 -2.0717 0
M  V30 5083 C 463.152 -1.77264 -2.42895 0
M  V30 5084 C 464.7 -1.79165 -2.56649 0
M  V30 5085 C 465.175 -2.8133 -3.6141 0
M  V30 5086 N 466.666 -2.80118 -3.68901 0
M  V30 5087 C 467.401 -3.55824 -4.49641 0
M  V30 5088 N 466.897 -4.41231 -5.34123 0
M  V30 5089 N 468.69 -3.44387 -4.44246 0
M  V30 5090 H 460.841 -1.9391 -0.866764 0
M  V30 5091 H 463.104 -0.838074 -0.443098 0
M  V30 5092 H 462.81 -2.7884 -2.14339 0
M  V30 5093 H 462.684 -1.59108 -3.42001 0
M  V30 5094 H 465.071 -0.782702 -2.84531 0
M  V30 5095 H 465.152 -2.01396 -1.57713 0
M  V30 5096 H 464.796 -3.82394 -3.34271 0
M  V30 5097 H 464.726 -2.56359 -4.59986 0
M  V30 5098 H 467.217 -2.1817 -3.08562 0
M  V30 5099 H 467.53 -4.95747 -5.92836 0
M  V30 5100 H 465.875 -4.45306 -5.33599 0
M  V30 5101 H 469.066 -2.7708 -3.77285 0
M  V30 5102 H 469.239 -4.0364 -5.06931 0
M  V30 5103 N 462.645 1.35699 -0.801477 0
M  V30 5104 C 463.87 2.03687 -0.390678 0
M  V30 5105 C 464.295 1.60015 0.988778 0
M  V30 5106 O 463.653 0.774357 1.63931 0
M  V30 5107 C 463.701 3.57439 -0.476404 0
M  V30 5108 O 462.805 4.09208 0.512106 0
M  V30 5109 H 462.146 0.64344 -0.163956 0
M  V30 5110 H 464.676 1.73403 -1.08594 0
M  V30 5111 H 464.686 4.06544 -0.344357 0
M  V30 5112 H 463.361 3.88576 -1.48262 0
M  V30 5113 H 461.938 3.7134 0.340721 0
M  V30 5114 N 464.123 0.554532 1.47522 0
M  V30 5115 C 465.053 -0.182974 2.32782 0
M  V30 5116 C 466.034 -0.911377 1.43624 0
M  V30 5117 O 467.219 -0.892366 1.72483 0
M  V30 5118 C 464.349 -1.21513 3.25349 0
M  V30 5119 C 463.303 -0.603355 4.23726 0
M  V30 5120 C 462.629 -1.73995 5.05598 0
M  V30 5121 C 463.929 0.441121 5.20434 0
M  V30 5122 H 465.623 0.52882 2.94693 0
M  V30 5123 H 463.169 0.255759 1.41711 0
M  V30 5124 H 465.122 -1.73922 3.83835 0
M  V30 5125 H 463.846 -1.95683 2.61487 0
M  V30 5126 H 462.505 -0.10059 3.66462 0
M  V30 5127 H 462.153 -2.47063 4.38143 0
M  V30 5128 H 461.853 -1.3364 5.72201 0
M  V30 5129 H 463.377 -2.26735 5.66942 0
M  V30 5130 H 464.791 0.00319931 5.733 0
M  V30 5131 H 463.188 0.763402 5.95224 0
M  V30 5132 H 464.258 1.33799 4.66075 0
M  V30 5133 N 465.601 -1.54893 0.290851 0
M  V30 5134 C 466.848 -1.99933 -0.321391 0
M  V30 5135 C 467.176 -1.17927 -1.54672 0
M  V30 5136 O 466.431 -0.240902 -1.94212 0
M  V30 5137 C 466.73 -3.49815 -0.732397 0
M  V30 5138 C 466.396 -4.4921 0.390056 0
M  V30 5139 C 465.058 -4.76107 0.698223 0
M  V30 5140 C 467.41 -5.08453 1.14562 0
M  V30 5141 C 464.738 -5.59514 1.76526 0
M  V30 5142 C 467.09 -5.9302 2.2025 0
M  V30 5143 C 465.754 -6.18232 2.51684 0
M  V30 5144 H 465.024 -0.731608 -0.117605 0
M  V30 5145 H 467.671 -1.87107 0.407839 0
M  V30 5146 H 465.976 -3.60199 -1.54155 0
M  V30 5147 H 467.673 -3.82083 -1.21712 0
M  V30 5148 H 464.263 -4.28372 0.13976 0
M  V30 5149 H 468.447 -4.87683 0.920801 0
M  V30 5150 H 463.703 -5.77289 2.01364 0
M  V30 5151 H 467.877 -6.37955 2.7926 0
M  V30 5152 H 465.504 -6.82653 3.34499 0
M  V30 5153 N 467.08 -0.0183926 -1.57589 0
M  V30 5154 C 468.03 0.975944 -2.06057 0
M  V30 5155 C 469.014 1.29204 -0.958908 0
M  V30 5156 O 470.206 1.27995 -1.22255 0
M  V30 5157 C 467.335 2.26194 -2.58247 0
M  V30 5158 C 466.421 1.97467 -3.75323 0
M  V30 5159 N 466.812 1.38968 -4.86335 0
M  V30 5160 C 465.11 2.27515 -3.83605 0
M  V30 5161 C 465.811 1.27131 -5.67638 0
M  V30 5162 N 464.787 1.76319 -5.14211 0
M  V30 5163 H 468.589 0.518444 -2.89291 0
M  V30 5164 H 466.103 0.18688 -1.61321 0
M  V30 5165 H 468.1 2.98289 -2.91255 0
M  V30 5166 H 466.76 2.7258 -1.76438 0
M  V30 5167 H 467.771 1.06608 -5.06809 0
M  V30 5168 H 464.448 2.76649 -3.12684 0
M  V30 5169 H 465.838 0.819882 -6.66879 0
M  V30 5170 N 468.558 1.5553 0.254621 0
M  V30 5171 C 469.807 1.76202 0.981612 0
M  V30 5172 C 470.12 0.580883 1.86776 0
M  V30 5173 O 471.326 0.670448 2.63092 0
M  V30 5174 C 469.782 3.11921 1.79537 0
M  V30 5175 C 469.39 4.37659 0.956991 0
M  V30 5176 C 471.134 3.41936 2.51555 0
M  V30 5177 C 469.041 5.64411 1.76619 0
M  V30 5178 H 467.971 0.656841 0.370237 0
M  V30 5179 H 470.622 1.81969 0.236556 0
M  V30 5180 H 469.004 3.00241 2.58208 0
M  V30 5181 H 470.178 4.60307 0.21315 0
M  V30 5182 H 468.493 4.14922 0.350497 0
M  V30 5183 H 471.09 4.33849 3.12536 0
M  V30 5184 H 471.433 2.62905 3.22779 0
M  V30 5185 H 471.966 3.54797 1.799 0
M  V30 5186 H 468.705 6.46241 1.09783 0
M  V30 5187 H 468.225 5.45877 2.48551 0
M  V30 5188 H 469.904 6.03386 2.33527 0
M  V30 5189 N 470.036 -0.519951 1.48776 0
M  V30 5190 C 470.999 -1.60574 1.6355 0
M  V30 5191 C 471.999 -1.52557 0.508234 0
M  V30 5192 O 473.189 -1.56047 0.774262 0
M  V30 5193 C 470.321 -3.00211 1.61512 0
M  V30 5194 H 471.514 -1.4881 2.60376 0
M  V30 5195 H 469.067 -0.742772 1.37523 0
M  V30 5196 H 469.802 -3.17471 0.662009 0
M  V30 5197 H 469.587 -3.07439 2.43359 0
M  V30 5198 H 471.077 -3.79134 1.75064 0
M  V30 5199 N 471.514 -1.37532 -0.769588 0
M  V30 5200 C 472.444 -1.36172 -1.89682 0
M  V30 5201 C 473.425 -0.23001 -1.68538 0
M  V30 5202 O 474.61 -0.43069 -1.89364 0
M  V30 5203 C 471.74 -1.1701 -3.26995 0
M  V30 5204 C 470.694 -2.27216 -3.62708 0
M  V30 5205 C 470.02 -1.93174 -4.98586 0
M  V30 5206 C 471.32 -3.6941 -3.69234 0
M  V30 5207 H 473.014 -2.30499 -1.91078 0
M  V30 5208 H 470.56 -1.10953 -0.917902 0
M  V30 5209 H 472.513 -1.14688 -4.05493 0
M  V30 5210 H 471.237 -0.191395 -3.26039 0
M  V30 5211 H 469.896 -2.28697 -2.86519 0
M  V30 5212 H 469.544 -0.938281 -4.94171 0
M  V30 5213 H 469.244 -2.66973 -5.23449 0
M  V30 5214 H 470.768 -1.92443 -5.79481 0
M  V30 5215 H 472.182 -3.70047 -4.37879 0
M  V30 5216 H 470.579 -4.4228 -4.05597 0
M  V30 5217 H 471.649 -4.0288 -2.69844 0
M  V30 5218 N 472.992 0.995999 -1.22138 0
M  V30 5219 C 474.24 1.73167 -1.042 0
M  V30 5220 C 474.561 1.90329 0.42423 0
M  V30 5221 O 473.831 1.4607 1.30539 0
M  V30 5222 H 472.411 0.641593 -0.38258 0
M  V30 5223 H 475.073 1.19974 -1.53598 0
M  V30 5224 H 474.169 2.72734 -1.51731 0
M  V30 5225 N 474.47 1.03057 1.19235 0
M  V30 5226 C 475.71 0.736757 1.9066 0
M  V30 5227 C 476.074 -0.721521 1.77927 0
M  V30 5228 O 477.275 -1.12849 2.43964 0
M  V30 5229 C 475.546 1.17755 3.37444 0
M  V30 5230 S 477.105 1.00783 4.27069 0
M  V30 5231 H 473.923 0.268174 0.658486 0
M  V30 5232 H 476.525 1.32076 1.4414 0
M  V30 5233 H 475.229 2.23448 3.44237 0
M  V30 5234 H 474.76 0.586912 3.88997 0
M  V30 5235 H 476.775 -0.0806356 4.96134 0
M  V30 5236 N 475.948 -1.35272 0.808662 0
M  V30 5237 C 477.364 -1.51806 0.492653 0
M  V30 5238 C 477.564 -1.7574 -0.985778 0
M  V30 5239 O 476.62 -1.80003 -1.77074 0
M  V30 5240 C 477.933 -2.69202 1.33981 0
M  V30 5241 C 479.481 -2.8308 1.33547 0
M  V30 5242 C 479.956 -4.03502 2.16679 0
M  V30 5243 N 481.447 -4.10684 2.14227 0
M  V30 5244 C 482.182 -5.02984 2.75308 0
M  V30 5245 N 481.678 -6.00603 3.45323 0
M  V30 5246 N 483.471 -4.95746 2.64938 0
M  V30 5247 H 475.622 -1.17993 1.76611 0
M  V30 5248 H 477.885 -0.577476 0.751814 0
M  V30 5249 H 477.591 -2.581 2.38909 0
M  V30 5250 H 477.465 -3.63854 0.994491 0
M  V30 5251 H 479.852 -2.93631 0.294036 0
M  V30 5252 H 479.933 -1.89278 1.72068 0
M  V30 5253 H 479.577 -3.93711 3.20864 0
M  V30 5254 H 479.507 -4.96489 1.75517 0
M  V30 5255 H 481.998 -3.40802 1.63285 0
M  V30 5256 H 482.311 -6.67633 3.89212 0
M  V30 5257 H 480.656 -6.0077 3.49428 0
M  V30 5258 H 483.847 -4.18439 2.09825 0
M  V30 5259 H 484.02 -5.67487 3.12829 0
M  V30 5260 N 477.426 -0.562348 -1.47226 0
M  V30 5261 C 478.675 -0.038041 -2.01664 0
M  V30 5262 C 478.988 1.32199 -1.44162 0
M  V30 5263 O 480.194 1.9365 -1.90294 0
M  V30 5264 C 478.65 -0.0174958 -3.59896 0
M  V30 5265 C 478.258 -1.3746 -4.2639 0
M  V30 5266 C 480.002 0.453934 -4.22066 0
M  V30 5267 C 477.909 -1.31289 -5.76643 0
M  V30 5268 H 476.839 -0.0104511 -0.753928 0
M  V30 5269 H 479.49 -0.710966 -1.69167 0
M  V30 5270 H 477.872 0.721182 -3.89378 0
M  V30 5271 H 479.046 -2.1314 -4.08544 0
M  V30 5272 H 477.361 -1.78438 -3.7623 0
M  V30 5273 H 479.958 0.518584 -5.32179 0
M  V30 5274 H 480.301 1.46706 -3.89594 0
M  V30 5275 H 480.834 -0.230044 -3.97134 0
M  V30 5276 H 477.573 -2.30217 -6.13743 0
M  V30 5277 H 477.093 -0.597973 -5.96812 0
M  V30 5278 H 478.772 -1.01713 -6.38955 0
M  V30 5279 N 478.904 1.54736 -0.299062 0
M  V30 5280 C 479.867 2.22127 0.565012 0
M  V30 5281 C 480.867 1.20669 1.06281 0
M  V30 5282 O 482.057 1.45417 0.959145 0
M  V30 5283 C 479.189 2.90611 1.78208 0
M  V30 5284 H 480.382 2.99891 -0.0237448 0
M  V30 5285 H 477.935 1.5622 -0.0498788 0
M  V30 5286 H 478.67 2.16921 2.41072 0
M  V30 5287 H 478.455 3.64984 1.43281 0
M  V30 5288 H 479.945 3.42026 2.396 0
M  V30 5289 N 480.382 0.0267497 1.57577 0
M  V30 5290 C 481.793 -0.512413 1.79531 0
M  V30 5291 C 482.144 -1.72391 0.936791 0
M  V30 5292 O 481.269 -2.15903 0.146543 0
M  V30 5293 C 481.864 -0.936378 3.25603 0
M  V30 5294 C 480.423 -1.42067 3.4856 0
M  V30 5295 C 479.57 -0.384278 2.74624 0
M  V30 5296 H 482.521 0.252797 1.56674 0
M  V30 5297 H 482.542 -1.80088 3.35184 0
M  V30 5298 H 482.054 -0.0544332 3.88062 0
M  V30 5299 H 480.155 -2.32262 2.9135 0
M  V30 5300 H 480.268 -1.42968 4.57271 0
M  V30 5301 H 478.632 -0.851855 2.40032 0
M  V30 5302 H 479.415 0.489159 3.39797 0
M  V30 5303 N 481.861 -1.55662 -0.24637 0
M  V30 5304 C 482.791 -1.93377 -1.30873 0
M  V30 5305 C 483.772 -0.798773 -1.50179 0
M  V30 5306 O 484.957 -1.0591 -1.62778 0
M  V30 5307 C 482.087 -2.22893 -2.66338 0
M  V30 5308 C 481.041 -3.38649 -2.61727 0
M  V30 5309 C 480.367 -3.53708 -4.00992 0
M  V30 5310 C 481.667 -4.74323 -2.18666 0
M  V30 5311 H 483.361 -2.82363 -0.995552 0
M  V30 5312 H 480.907 -1.35854 -0.477464 0
M  V30 5313 H 482.86 -2.47866 -3.40794 0
M  V30 5314 H 481.584 -1.30733 -2.99293 0
M  V30 5315 H 480.243 -3.13685 -1.89729 0
M  V30 5316 H 479.891 -2.58967 -4.31214 0
M  V30 5317 H 479.591 -4.31551 -3.98795 0
M  V30 5318 H 481.115 -3.81003 -4.77147 0
M  V30 5319 H 482.529 -4.98665 -2.82854 0
M  V30 5320 H 480.926 -5.55273 -2.27579 0
M  V30 5321 H 481.996 -4.71349 -1.13834 0
M  V30 5322 N 483.339 0.512053 -1.4905 0
M  V30 5323 C 484.271 1.63121 -1.6101 0
M  V30 5324 C 485.284 1.55145 -0.493352 0
M  V30 5325 O 486.473 1.61278 -0.764955 0
M  V30 5326 C 483.573 3.01863 -1.54052 0
M  V30 5327 C 482.746 3.35138 -2.81072 0
M  V30 5328 C 481.805 4.5324 -2.67319 0
M  V30 5329 O 480.831 4.55571 -3.41238 0
M  V30 5330 N 482.033 5.52495 -1.78127 0
M  V30 5331 H 484.798 1.53292 -2.5753 0
M  V30 5332 H 482.359 0.699706 -1.45999 0
M  V30 5333 H 484.351 3.78774 -1.42521 0
M  V30 5334 H 482.921 3.05675 -0.654345 0
M  V30 5335 H 482.141 2.4723 -3.07036 0
M  V30 5336 H 483.429 3.54162 -3.65304 0
M  V30 5337 H 482.827 5.53403 -1.17308 0
M  V30 5338 H 481.384 6.28553 -1.72525 0
M  V30 5339 N 484.817 1.37938 0.762283 0
M  V30 5340 C 485.764 1.34467 1.87583 0
M  V30 5341 C 486.734 0.208633 1.64785 0
M  V30 5342 O 487.919 0.399494 1.86571 0
M  V30 5343 C 485.059 1.16692 3.24772 0
M  V30 5344 C 484.172 2.39608 3.59461 0
M  V30 5345 C 483.307 2.14631 4.85908 0
M  V30 5346 C 482.346 3.33364 5.13357 0
M  V30 5347 N 481.483 3.07877 6.30996 0
M  V30 5348 H 486.323 2.29669 1.89885 0
M  V30 5349 H 483.86 1.14116 0.928219 0
M  V30 5350 H 485.818 1.04405 4.03925 0
M  V30 5351 H 484.448 0.251333 3.2182 0
M  V30 5352 H 483.5 2.626 2.75219 0
M  V30 5353 H 484.812 3.28128 3.75678 0
M  V30 5354 H 483.966 1.99429 5.72986 0
M  V30 5355 H 482.705 1.23463 4.71814 0
M  V30 5356 H 481.71 3.49094 4.24751 0
M  V30 5357 H 482.935 4.25395 5.29354 0
M  V30 5358 H 480.881 2.19348 6.18241 0
M  V30 5359 H 480.798 3.89944 6.47673 0
M  V30 5360 H 482.066 2.96313 7.20985 0
M  V30 5361 N 486.295 -0.989507 1.22664 0
M  V30 5362 C 487.706 -1.54406 1.04955 0
M  V30 5363 C 488.057 -1.92366 -0.385951 0
M  V30 5364 O 487.182 -1.75111 -1.27142 0
M  V30 5365 C 487.777 -2.80578 1.89899 0
M  V30 5366 C 486.336 -3.32464 1.76478 0
M  V30 5367 C 485.483 -2.05524 1.86159 0
M  V30 5368 H 488.434 -0.810211 1.3646 0
M  V30 5369 H 488.455 -3.53075 1.4184 0
M  V30 5370 H 487.967 -2.52918 2.94371 0
M  V30 5371 H 486.068 -3.65024 0.747528 0
M  V30 5372 H 486.181 -4.02838 2.59342 0
M  V30 5373 H 484.545 -2.19241 1.29636 0
M  V30 5374 H 485.328 -1.80258 2.92168 0
M  V30 5375 N 487.773 -1.03688 -1.18687 0
M  V30 5376 C 489.019 -0.739123 -1.88851 0
M  V30 5377 C 489.352 0.731042 -1.79915 0
M  V30 5378 O 488.627 1.53313 -1.19688 0
M  V30 5379 C 488.91 -1.20106 -3.3948 0
M  V30 5380 C 488.763 -2.73304 -3.57246 0
M  V30 5381 C 490.082 -0.788134 -4.32986 0
M  V30 5382 H 487.201 -0.269978 -0.68577 0
M  V30 5383 H 489.843 -1.28822 -1.3966 0
M  V30 5384 H 487.993 -0.733915 -3.81505 0
M  V30 5385 H 489.665 -3.28027 -3.24339 0
M  V30 5386 H 487.908 -3.13313 -3.00029 0
M  V30 5387 H 488.579 -3.00684 -4.62918 0
M  V30 5388 H 491.055 -1.19005 -3.98719 0
M  V30 5389 H 489.931 -1.13915 -5.36949 0
M  V30 5390 H 490.192 0.308988 -4.41019 0
M  V30 5391 N 489.251 1.34841 -0.815825 0
M  V30 5392 C 490.491 2.00321 -0.406297 0
M  V30 5393 C 490.855 1.63293 1.00992 0
M  V30 5394 O 492.056 2.21563 1.52195 0
M  V30 5395 C 490.327 3.52421 -0.594469 0
M  V30 5396 S 491.886 4.37926 -0.276735 0
M  V30 5397 H 488.704 0.694155 -0.153848 0
M  V30 5398 H 491.306 1.64263 -1.06009 0
M  V30 5399 H 490.01 3.76858 -1.625 0
M  V30 5400 H 489.541 3.9333 0.0743157 0
M  V30 5401 H 491.556 4.87743 0.912215 0
M  V30 5402 N 490.729 0.570148 1.46925 0
M  V30 5403 C 491.977 0.0508523 2.02036 0
M  V30 5404 C 492.298 -1.30885 1.44548 0
M  V30 5405 O 491.568 -1.85647 0.625453 0
M  V30 5406 H 490.148 0.0158088 0.746833 0
M  V30 5407 H 492.81 0.743086 1.80178 0
M  V30 5408 H 491.906 -0.027575 3.12088 0
M  V30 5409 N 492.207 -1.54576 0.307264 0
M  V30 5410 C 493.455 -1.99867 -0.299574 0
M  V30 5411 C 493.776 -1.19714 -1.53927 0
M  V30 5412 O 493.046 -0.29472 -1.9367 0
M  V30 5413 H 491.626 -0.738299 -0.113683 0
M  V30 5414 H 494.288 -1.9032 0.420042 0
M  V30 5415 H 493.384 -3.06901 -0.567283 0
M  V30 5416 N 493.685 -0.035106 -1.57561 0
M  V30 5417 C 495.096 0.502885 -1.798 0
M  V30 5418 C 495.447 1.71892 -0.945921 0
M  V30 5419 O 494.572 2.15822 -0.157991 0
M  V30 5420 C 495.167 0.919097 -3.26095 0
M  V30 5421 C 493.726 1.40216 -3.49308 0
M  V30 5422 C 492.873 0.369709 -2.74824 0
M  V30 5423 H 495.824 -0.261102 -1.56537 0
M  V30 5424 H 495.845 1.78308 -3.36135 0
M  V30 5425 H 495.357 0.0338526 -3.88085 0
M  V30 5426 H 493.458 2.30714 -2.92578 0
M  V30 5427 H 493.571 1.40541 -4.58023 0
M  V30 5428 H 491.935 0.839113 -2.40481 0
M  V30 5429 H 492.718 -0.507173 -3.39533 0
M  V30 5430 N 495.163 1.55791 0.238111 0
M  V30 5431 C 496.411 1.77681 0.963001 0
M  V30 5432 C 496.732 0.600674 1.85518 0
M  V30 5433 O 496.002 -0.383182 1.92116 0
M  V30 5434 H 494.582 0.655315 0.358568 0
M  V30 5435 H 497.244 1.93239 0.253945 0
M  V30 5436 H 496.34 2.69177 1.57956 0
M  V30 5437 N 496.642 -0.504142 1.49319 0
M  V30 5438 C 497.888 -1.26033 1.58882 0
M  V30 5439 C 498.221 -1.92268 0.273274 0
M  V30 5440 O 497.496 -1.80567 -0.72291 0
M  V30 5441 C 497.779 -2.32976 2.7458 0
M  V30 5442 C 497.632 -1.71263 4.1592 0
M  V30 5443 C 498.951 -3.34561 2.85932 0
M  V30 5444 H 496.07 -0.456863 0.578312 0
M  V30 5445 H 498.712 -0.558965 1.81592 0
M  V30 5446 H 496.862 -2.92796 2.55348 0
M  V30 5447 H 498.534 -1.15294 4.4666 0
M  V30 5448 H 496.777 -1.01686 4.21714 0
M  V30 5449 H 497.448 -2.48816 4.92742 0
M  V30 5450 H 499.924 -2.84727 3.0343 0
M  V30 5451 H 498.8 -4.06754 3.68568 0
M  V30 5452 H 499.061 -3.96695 1.95154 0
M  V30 5453 N 498.12 -1.38341 -0.754957 0
M  V30 5454 C 499.536 -1.19508 -1.05783 0
M  V30 5455 C 499.736 -0.0428005 -2.01455 0
M  V30 5456 O 498.792 0.611861 -2.44975 0
M  V30 5457 C 500.105 -2.52091 -1.63923 0
M  V30 5458 C 501.653 -2.58762 -1.76101 0
M  V30 5459 C 502.128 -3.91517 -2.37652 0
M  V30 5460 N 503.619 -3.93049 -2.45085 0
M  V30 5461 C 504.354 -4.9253 -2.93602 0
M  V30 5462 N 503.85 -6.02408 -3.42165 0
M  V30 5463 N 505.643 -4.79921 -2.92629 0
M  V30 5464 H 497.794 -2.1206 -0.120056 0
M  V30 5465 H 500.057 -0.94089 -0.11589 0
M  V30 5466 H 499.763 -3.36858 -1.01093 0
M  V30 5467 H 499.637 -2.70388 -2.63003 0
M  V30 5468 H 502.024 -1.74391 -2.38058 0
M  V30 5469 H 502.105 -2.44333 -0.757294 0
M  V30 5470 H 501.749 -4.76309 -1.76329 0
M  V30 5471 H 501.679 -4.03256 -3.38662 0
M  V30 5472 H 504.17 -3.13685 -2.10736 0
M  V30 5473 H 504.483 -6.74248 -3.77637 0
M  V30 5474 H 502.828 -6.0603 -3.40225 0
M  V30 5475 H 506.019 -3.93194 -2.54001 0
M  V30 5476 H 506.192 -5.57601 -3.30128 0
M  V30 5477 N 499.598 0.982988 -1.23187 0
M  V30 5478 C 501.009 1.53847 -1.05773 0
M  V30 5479 C 501.36 1.92568 0.375744 0
M  V30 5480 O 500.485 1.75783 1.26211 0
M  V30 5481 C 501.08 2.79567 -1.91384 0
M  V30 5482 C 499.639 3.31524 -1.78238 0
M  V30 5483 C 498.786 2.04534 -1.87246 0
M  V30 5484 H 501.737 0.802962 -1.36888 0
M  V30 5485 H 501.758 3.52317 -1.43711 0
M  V30 5486 H 501.27 2.51353 -2.95708 0
M  V30 5487 H 499.371 3.64623 -0.766875 0
M  V30 5488 H 499.484 4.01457 -2.61475 0
M  V30 5489 H 497.848 2.1855 -1.30797 0
M  V30 5490 H 498.631 1.78706 -2.9312 0
M  V30 5491 N 501.076 1.04316 1.18135 0
M  V30 5492 C 502.324 0.746542 1.87806 0
M  V30 5493 C 502.645 -0.728082 1.80898 0
M  V30 5494 O 501.915 -1.52554 1.22899 0
M  V30 5495 H 500.495 0.273157 0.695265 0
M  V30 5496 H 503.157 1.32044 1.43354 0
M  V30 5497 H 502.253 1.05362 2.93778 0
M  V30 5498 N 502.554 -1.34406 0.822964 0
M  V30 5499 C 503.501 -2.29519 0.24284 0
M  V30 5500 C 504.471 -1.5359 -0.632397 0
M  V30 5501 O 505.656 -1.8196 -0.57403 0
M  V30 5502 C 502.796 -3.40032 -0.58925 0
M  V30 5503 C 501.909 -4.30899 0.308236 0
M  V30 5504 C 501.044 -5.28515 -0.533425 0
M  V30 5505 C 500.083 -6.1102 0.363444 0
M  V30 5506 N 499.22 -7.00725 -0.439147 0
M  V30 5507 H 504.06 -2.78537 1.05929 0
M  V30 5508 H 501.597 -1.3707 0.533872 0
M  V30 5509 H 503.555 -4.0279 -1.087 0
M  V30 5510 H 502.185 -2.92248 -1.37081 0
M  V30 5511 H 501.237 -3.69002 0.924203 0
M  V30 5512 H 502.549 -4.88717 0.997862 0
M  V30 5513 H 501.703 -5.96725 -1.09565 0
M  V30 5514 H 500.442 -4.71235 -1.25656 0
M  V30 5515 H 499.447 -5.41743 0.937812 0
M  V30 5516 H 500.672 -6.70381 1.08469 0
M  V30 5517 H 498.618 -6.45913 -1.14595 0
M  V30 5518 H 498.535 -7.55756 0.19209 0
M  V30 5519 H 499.803 -7.73263 -0.984124 0
M  V30 5520 N 504.032 -0.577932 -1.46621 0
M  V30 5521 C 504.98 0.170882 -2.31971 0
M  V30 5522 C 505.974 0.889086 -1.44193 0
M  V30 5523 O 507.18 0.808017 -1.60845 0
M  V30 5524 H 503.555 0.0739763 -0.748353 0
M  V30 5525 H 505.526 -0.567856 -2.92947 0
M  V30 5526 C 504.275 1.17438 -3.27267 0
M  V30 5527 H 503.598 0.63116 -3.94787 0
M  V30 5528 H 505.038 1.66882 -3.89778 0
M  V30 5529 C 503.497 2.23292 -2.52274 0
M  V30 5530 O 504.027 3.30567 -2.28229 0
M  V30 5531 N 502.233 1.97772 -2.12919 0
M  V30 5532 H 501.78 1.10545 -2.32675 0
M  V30 5533 H 501.738 2.68809 -1.63062 0
M  V30 5534 N 505.51 1.54411 -0.315457 0
M  V30 5535 C 506.756 2.00716 0.289972 0
M  V30 5536 C 507.089 1.2034 1.5242 0
M  V30 5537 O 506.364 0.283579 1.92422 0
M  V30 5538 C 506.647 3.54507 0.632196 0
M  V30 5539 C 506.5 4.45615 -0.61218 0
M  V30 5540 C 507.819 4.15421 1.45305 0
M  V30 5541 H 504.938 0.729637 0.10392 0
M  V30 5542 H 507.58 1.8506 -0.430427 0
M  V30 5543 H 505.73 3.67979 1.24595 0
M  V30 5544 H 507.402 4.44026 -1.25053 0
M  V30 5545 H 505.645 4.15621 -1.24264 0
M  V30 5546 H 506.316 5.51022 -0.328379 0
M  V30 5547 H 508.792 4.05474 0.934331 0
M  V30 5548 H 507.668 5.23157 1.66127 0
M  V30 5549 H 507.929 3.68223 2.44671 0
M  V30 5550 N 506.988 0.0434614 1.5754 0
M  V30 5551 C 507.935 -0.93356 2.11077 0
M  V30 5552 C 508.905 -1.31383 1.01626 0
M  V30 5553 O 510.09 -1.40465 1.29129 0
M  V30 5554 C 507.23 -2.20578 2.65404 0
M  V30 5555 C 506.343 -1.88068 3.88914 0
M  V30 5556 C 505.478 -3.09691 4.31584 0
M  V30 5557 C 504.517 -2.73067 5.47815 0
M  V30 5558 N 503.654 -3.87359 5.85574 0
M  V30 5559 H 508.494 -0.470118 2.94268 0
M  V30 5560 H 506.031 -0.220434 1.45439 0
M  V30 5561 H 507.989 -2.95011 2.94999 0
M  V30 5562 H 506.619 -2.64513 1.85021 0
M  V30 5563 H 505.671 -1.03816 3.6596 0
M  V30 5564 H 506.983 -1.57104 4.73413 0
M  V30 5565 H 506.137 -3.92431 4.62691 0
M  V30 5566 H 504.876 -3.43827 3.45882 0
M  V30 5567 H 503.881 -1.88742 5.16388 0
M  V30 5568 H 505.106 -2.40131 6.35227 0
M  V30 5569 H 503.052 -4.21311 5.02825 0
M  V30 5570 H 502.969 -3.60068 6.64746 0
M  V30 5571 H 504.237 -4.70761 6.21292 0
M  V30 5572 N 508.466 -1.55915 -0.229846 0
M  V30 5573 C 509.712 -1.78807 -0.956868 0
M  V30 5574 C 510.045 -0.611687 -1.84315 0
M  V30 5575 O 509.32 0.389398 -1.90562 0
M  V30 5576 C 509.603 -3.11718 -1.80288 0
M  V30 5577 C 509.456 -4.3979 -0.943649 0
M  V30 5578 C 510.775 -3.40999 -2.78222 0
M  V30 5579 H 507.894 -0.6505 -0.346437 0
M  V30 5580 H 510.536 -1.88648 -0.226252 0
M  V30 5581 H 508.686 -3.03459 -2.42579 0
M  V30 5582 H 510.358 -4.60059 -0.338121 0
M  V30 5583 H 508.601 -4.33086 -0.248705 0
M  V30 5584 H 509.272 -5.29208 -1.5698 0
M  V30 5585 H 511.748 -3.49332 -2.26067 0
M  V30 5586 H 510.624 -4.35183 -3.34526 0
M  V30 5587 H 510.885 -2.62754 -3.55546 0
M  V30 5588 N 509.944 0.496216 -1.49584 0
M  V30 5589 C 511.172 1.27394 -1.63029 0
M  V30 5590 C 511.587 1.86344 -0.303569 0
M  V30 5591 O 510.944 1.68057 0.711547 0
M  V30 5592 C 510.995 2.40077 -2.70269 0
M  V30 5593 O 510.716 1.83549 -3.97796 0
M  V30 5594 C 512.217 3.31372 -2.94462 0
M  V30 5595 H 509.437 0.386211 -0.54871 0
M  V30 5596 H 511.981 0.595163 -1.95648 0
M  V30 5597 H 510.136 3.03775 -2.40415 0
M  V30 5598 H 510.55 2.57561 -4.56905 0
M  V30 5599 H 512.024 4.06707 -3.73221 0
M  V30 5600 H 512.501 3.88654 -2.0456 0
M  V30 5601 H 513.107 2.73435 -3.25751 0
M  V30 5602 N 511.423 1.38739 0.74761 0
M  V30 5603 C 512.651 1.38521 1.53686 0
M  V30 5604 C 513.066 -0.0235129 1.88785 0
M  V30 5605 O 512.423 -0.991662 1.53207 0
M  V30 5606 C 512.474 2.24641 2.83229 0
M  V30 5607 O 512.195 3.60026 2.49625 0
M  V30 5608 C 513.696 2.32669 3.77333 0
M  V30 5609 H 510.916 0.473589 0.475347 0
M  V30 5610 H 513.46 1.82395 0.924786 0
M  V30 5611 H 511.615 1.84213 3.40799 0
M  V30 5612 H 512.029 4.05435 3.3275 0
M  V30 5613 H 513.503 2.97201 4.65162 0
M  V30 5614 H 513.98 1.3421 4.18192 0
M  V30 5615 H 514.586 2.73512 3.25685 0
M  V30 5616 N 512.901 -0.976442 1.23707 0
M  V30 5617 C 513.833 -2.07212 0.979574 0
M  V30 5618 C 514.846 -1.6273 -0.0478528 0
M  V30 5619 O 516.035 -1.77506 0.18815 0
M  V30 5620 C 513.135 -3.35835 0.45479 0
M  V30 5621 C 512.308 -4.09268 1.54331 0
M  V30 5622 C 511.367 -5.16166 1.02271 0
M  V30 5623 O 510.393 -5.42827 1.71254 0
M  V30 5624 N 511.595 -5.80313 -0.147419 0
M  V30 5625 H 514.36 -2.29878 1.92292 0
M  V30 5626 H 511.921 -1.14343 1.14618 0
M  V30 5627 H 513.913 -4.04597 0.0914631 0
M  V30 5628 H 512.483 -3.10106 -0.394068 0
M  V30 5629 H 511.703 -3.34906 2.07923 0
M  V30 5630 H 512.991 -4.55095 2.27522 0
M  V30 5631 H 512.389 -5.61043 -0.724353 0
M  V30 5632 H 510.946 -6.50231 -0.451972 0
M  V30 5633 N 514.379 -1.04941 -1.1758 0
M  V30 5634 C 515.627 -0.756492 -1.87408 0
M  V30 5635 C 515.948 0.718478 -1.81281 0
M  V30 5636 O 515.218 1.519 -1.23706 0
M  V30 5637 H 513.798 -0.276841 -0.693807 0
M  V30 5638 H 516.46 -1.32803 -1.42652 0
M  V30 5639 H 515.556 -1.06918 -2.93215 0
M  V30 5640 N 515.857 1.33968 -0.830081 0
M  V30 5641 C 516.787 2.31911 -0.271911 0
M  V30 5642 C 517.768 1.58571 0.61556 0
M  V30 5643 O 518.953 1.86514 0.540946 0
M  V30 5644 C 516.083 3.42737 0.561146 0
M  V30 5645 C 515.037 4.27383 -0.229789 0
M  V30 5646 C 514.363 5.29742 0.726463 0
M  V30 5647 C 515.663 5.02 -1.44197 0
M  V30 5648 H 517.357 2.78844 -1.09025 0
M  V30 5649 H 514.903 1.34061 -0.52571 0
M  V30 5650 H 516.856 4.10276 0.961867 0
M  V30 5651 H 515.58 2.94471 1.41261 0
M  V30 5652 H 514.239 3.61456 -0.611964 0
M  V30 5653 H 513.887 4.77736 1.57408 0
M  V30 5654 H 513.587 5.87255 0.20142 0
M  V30 5655 H 515.111 6.00149 1.12489 0
M  V30 5656 H 516.525 5.62355 -1.11488 0
M  V30 5657 H 514.922 5.69122 -1.90317 0
M  V30 5658 H 515.992 4.31281 -2.2164 0
M  V30 5659 N 517.335 0.585699 1.46312 0
M  V30 5660 C 518.265 -0.133556 2.33118 0
M  V30 5661 C 519.246 -0.880707 1.45525 0
M  V30 5662 O 520.431 -0.855579 1.74337 0
M  V30 5663 C 517.561 -1.14585 3.27853 0
M  V30 5664 C 516.515 -0.513341 4.2491 0
M  V30 5665 C 515.841 -1.63231 5.09175 0
M  V30 5666 C 517.141 0.551413 5.19381 0
M  V30 5667 H 518.835 0.59121 2.93505 0
M  V30 5668 H 516.381 0.285761 1.41136 0
M  V30 5669 H 518.334 -1.65741 3.87438 0
M  V30 5670 H 517.058 -1.90093 2.65579 0
M  V30 5671 H 515.717 -0.0228349 3.66593 0
M  V30 5672 H 515.365 -2.37713 4.43285 0
M  V30 5673 H 515.065 -1.21473 5.74907 0
M  V30 5674 H 516.589 -2.14658 5.71624 0
M  V30 5675 H 518.003 0.124804 5.73164 0
M  V30 5676 H 516.4 0.889486 5.93471 0
M  V30 5677 H 517.47 1.43655 4.63132 0
M  V30 5678 N 518.813 -1.54241 0.323641 0
M  V30 5679 C 520.09 -1.92741 -0.333181 0
M  V30 5680 C 520.47 -1.25326 -1.69872 0
M  V30 5681 O 519.818 -0.396991 -2.25025 0
M  V30 5682 C 520.028 -3.46399 -0.425322 0
M  V30 5683 C 521.376 -4.19029 -0.68557 0
M  V30 5684 O 522.4 -3.52555 -0.50824 0
M  V30 5685 O 521.259 -5.36751 -1.02767 0
M  V30 5686 H 518.353 -0.804811 -0.190286 0
M  V30 5687 H 520.899 -1.65542 0.373361 0
M  V30 5688 H 519.671 -3.87643 0.533737 0
M  V30 5689 H 519.294 -3.79704 -1.17944 0
M  V30 5690 N 520.291 -0.0518155 -1.57515 0
M  V30 5691 C 521.539 0.620595 -1.92336 0
M  V30 5692 C 521.86 1.71345 -0.930907 0
M  V30 5693 O 521.13 1.95885 0.0241341 0
M  V30 5694 H 519.71 0.232226 -0.709986 0
M  V30 5695 H 522.372 -0.104969 -1.94617 0
M  V30 5696 H 521.468 1.05879 -2.93592 0
M  V30 5697 N 521.769 1.56035 0.221574 0
M  V30 5698 C 523.185 1.49026 0.571271 0
M  V30 5699 C 523.385 0.746912 1.87146 0
M  V30 5700 O 522.441 0.286566 2.50869 0
M  V30 5701 C 523.754 2.93579 0.650522 0
M  V30 5702 C 525.302 3.04099 0.741151 0
M  V30 5703 C 525.777 4.5001 0.851747 0
M  V30 5704 N 527.268 4.54053 0.915968 0
M  V30 5705 C 528.003 5.64232 1.02125 0
M  V30 5706 N 527.499 6.84164 1.09049 0
M  V30 5707 N 529.292 5.52084 1.05639 0
M  V30 5708 H 521.443 2.02791 -0.63162 0
M  V30 5709 H 523.706 0.921736 -0.221602 0
M  V30 5710 H 523.412 3.50912 -0.235253 0
M  V30 5711 H 523.286 3.45476 1.51413 0
M  V30 5712 H 525.673 2.4683 1.61737 0
M  V30 5713 H 525.754 2.55371 -0.148128 0
M  V30 5714 H 525.398 5.07896 -0.0200117 0
M  V30 5715 H 525.328 4.96444 1.75644 0
M  V30 5716 H 527.819 3.67683 0.872782 0
M  V30 5717 H 528.132 7.63883 1.1706 0
M  V30 5718 H 526.477 6.86875 1.05962 0
M  V30 5719 H 529.668 4.57317 0.998953 0
M  V30 5720 H 529.841 6.37983 1.13498 0
M  V30 5721 N 523.247 -0.488276 1.49845 0
M  V30 5722 C 524.495 -1.23911 1.59657 0
M  V30 5723 C 524.816 -1.92816 0.291005 0
M  V30 5724 O 524.086 -1.83328 -0.690485 0
M  V30 5725 H 522.666 -0.460357 0.588286 0
M  V30 5726 H 525.328 -0.564794 1.86537 0
M  V30 5727 H 524.424 -1.99625 2.39909 0
M  V30 5728 N 524.725 -1.39134 -0.740242 0
M  V30 5729 C 525.672 -1.37434 -1.8542 0
M  V30 5730 C 526.642 -0.234822 -1.64432 0
M  V30 5731 O 527.827 -0.429125 -1.85912 0
M  V30 5732 C 524.967 -1.21844 -3.22875 0
M  V30 5733 C 524.08 -2.45296 -3.55603 0
M  V30 5734 C 523.215 -2.22334 -4.82432 0
M  V30 5735 C 522.254 -3.41488 -5.07988 0
M  V30 5736 N 521.391 -3.17877 -6.26018 0
M  V30 5737 H 526.231 -2.3266 -1.86207 0
M  V30 5738 H 523.768 -1.15578 -0.909946 0
M  V30 5739 H 525.726 -1.10818 -4.02213 0
M  V30 5740 H 524.356 -0.3025 -3.21379 0
M  V30 5741 H 523.408 -2.66945 -2.71006 0
M  V30 5742 H 524.72 -3.34063 -3.7041 0
M  V30 5743 H 523.874 -2.0852 -5.69741 0
M  V30 5744 H 522.613 -1.30954 -4.6979 0
M  V30 5745 H 521.618 -3.55807 -4.19144 0
M  V30 5746 H 522.843 -4.33763 -5.22519 0
M  V30 5747 H 520.789 -2.29156 -6.14673 0
M  V30 5748 H 520.706 -4.00198 -6.41387 0
M  V30 5749 H 521.974 -3.07746 -7.16179 0
M  V30 5750 N 526.204 0.969867 -1.24223 0
M  V30 5751 C 527.452 1.70918 -1.0785 0
M  V30 5752 C 527.773 1.91186 0.383763 0
M  V30 5753 O 527.043 1.48806 1.27411 0
M  V30 5754 H 525.623 0.633334 -0.396103 0
M  V30 5755 H 528.285 1.16689 -1.56108 0
M  V30 5756 H 527.381 2.69455 -1.57482 0
M  V30 5757 N 527.682 1.05563 1.17022 0
M  V30 5758 C 528.629 0.659893 2.21165 0
M  V30 5759 C 529.599 -0.339813 1.62587 0
M  V30 5760 O 530.784 -0.230378 1.89404 0
M  V30 5761 C 527.924 0.0447297 3.45071 0
M  V30 5762 C 527.037 1.09372 4.17926 0
M  V30 5763 C 526.172 0.445481 5.29329 0
M  V30 5764 C 525.211 1.47852 5.93975 0
M  V30 5765 N 524.348 0.854172 6.96885 0
M  V30 5766 H 529.188 1.55243 2.54369 0
M  V30 5767 H 526.725 0.776336 1.24946 0
M  V30 5768 H 528.683 -0.329404 4.15898 0
M  V30 5769 H 527.313 -0.811244 3.1244 0
M  V30 5770 H 526.365 1.58564 3.45777 0
M  V30 5771 H 527.677 1.87773 4.62107 0
M  V30 5772 H 526.831 0.0179688 6.06697 0
M  V30 5773 H 525.57 -0.370481 4.86291 0
M  V30 5774 H 524.575 1.91601 5.15334 0
M  V30 5775 H 525.8 2.29645 6.39093 0
M  V30 5776 H 523.746 0.0587882 6.55974 0
M  V30 5777 H 523.663 1.57567 7.39397 0
M  V30 5778 H 524.931 0.451559 7.78191 0
M  V30 5779 N 529.16 -1.33526 0.837174 0
M  V30 5780 C 530.385 -2.0258 0.444545 0
M  V30 5781 C 530.81 -1.6258 -0.946006 0
M  V30 5782 O 530.168 -0.817548 -1.6182 0
M  V30 5783 C 530.216 -3.5605 0.571006 0
M  V30 5784 O 529.32 -4.10422 -0.403431 0
M  V30 5785 H 528.661 -0.638866 0.180958 0
M  V30 5786 H 531.191 -1.70462 1.13154 0
M  V30 5787 H 531.201 -4.05488 0.452024 0
M  V30 5788 H 529.876 -3.84509 1.58512 0
M  V30 5789 H 528.453 -3.72113 -0.242147 0
M  V30 5790 N 530.638 -0.59345 -1.46 0
M  V30 5791 C 531.887 -0.0808084 -2.01538 0
M  V30 5792 C 532.2 1.29112 -1.46934 0
M  V30 5793 O 533.406 1.8957 -1.94359 0
M  V30 5794 C 531.862 -0.0938311 -3.59778 0
M  V30 5795 C 531.47 -1.46474 -4.23379 0
M  V30 5796 C 533.214 0.364306 -4.22934 0
M  V30 5797 C 531.121 -1.4349 -5.73729 0
M  V30 5798 H 530.051 -0.0264407 -0.753536 0
M  V30 5799 H 532.702 -0.746689 -1.67621 0
M  V30 5800 H 531.084 0.638427 -3.9082 0
M  V30 5801 H 532.258 -2.21758 -4.03931 0
M  V30 5802 H 530.573 -1.86379 -3.7236 0
M  V30 5803 H 533.17 0.405584 -5.3316 0
M  V30 5804 H 533.513 1.38409 -3.92618 0
M  V30 5805 H 534.046 -0.31423 -3.96557 0
M  V30 5806 H 530.785 -2.43184 -6.08722 0
M  V30 5807 H 530.305 -0.724431 -5.95409 0
M  V30 5808 H 531.984 -1.15243 -6.36654 0
M  V30 5809 N 532.116 1.54067 -0.331816 0
M  V30 5810 C 533.364 2.00319 0.267739 0
M  V30 5811 C 533.685 1.22148 1.52003 0
M  V30 5812 O 532.955 0.325494 1.93177 0
M  V30 5813 H 531.535 0.740014 0.101922 0
M  V30 5814 H 534.197 1.89628 -0.450267 0
M  V30 5815 H 533.293 3.07765 0.518385 0
M  V30 5816 N 533.594 0.0601682 1.57485 0
M  V30 5817 C 535.01 -0.296422 1.56823 0
M  V30 5818 C 535.21 -1.70831 1.0686 0
M  V30 5819 O 534.266 -2.4174 0.729245 0
M  V30 5820 C 535.579 -0.116681 3.00474 0
M  V30 5821 C 537.127 -0.187103 3.1244 0
M  V30 5822 C 537.602 -0.035783 4.57986 0
M  V30 5823 N 539.093 -0.0917676 4.63109 0
M  V30 5824 C 539.828 0.00107251 5.734 0
M  V30 5825 N 539.324 0.146773 6.92645 0
M  V30 5826 N 541.117 -0.0551577 5.62073 0
M  V30 5827 H 533.268 0.983055 1.88281 0
M  V30 5828 H 535.531 0.382386 0.867459 0
M  V30 5829 H 535.237 0.85712 3.41096 0
M  V30 5830 H 535.111 -0.873929 3.66936 0
M  V30 5831 H 537.498 -1.15138 2.71712 0
M  V30 5832 H 537.579 0.601052 2.48638 0
M  V30 5833 H 537.223 0.925212 4.99402 0
M  V30 5834 H 537.153 -0.843196 5.19806 0
M  V30 5835 H 539.644 -0.203261 3.77353 0
M  V30 5836 H 539.957 0.210076 7.72514 0
M  V30 5837 H 538.302 0.181979 6.94762 0
M  V30 5838 H 541.493 -0.167605 4.678 0
M  V30 5839 H 541.666 0.020652 6.47997 0
M  V30 5840 N 535.072 -1.5615 -0.213296 0
M  V30 5841 C 536.035 -1.92249 -1.24792 0
M  V30 5842 C 537.035 -0.801828 -1.39382 0
M  V30 5843 O 538.225 -1.06948 -1.37506 0
M  V30 5844 C 535.357 -2.18056 -2.62039 0
M  V30 5845 H 536.55 -2.84793 -0.939845 0
M  V30 5846 H 534.103 -1.49559 -0.454062 0
M  V30 5847 H 534.838 -1.2809 -2.97932 0
M  V30 5848 H 534.623 -2.99703 -2.52825 0
M  V30 5849 H 536.113 -2.47051 -3.36683 0
M  V30 5850 N 536.55 0.480323 -1.50102 0
M  V30 5851 C 537.961 1.06142 -1.53593 0
M  V30 5852 C 538.312 1.93335 -0.334055 0
M  V30 5853 O 537.437 2.09188 0.55403 0
M  V30 5854 C 538.032 1.9317 -2.78336 0
M  V30 5855 C 536.591 2.46405 -2.84538 0
M  V30 5856 C 535.738 1.24521 -2.4777 0
M  V30 5857 H 538.689 0.26333 -1.565 0
M  V30 5858 H 538.71 2.78123 -2.59669 0
M  V30 5859 H 538.222 1.29683 -3.65792 0
M  V30 5860 H 536.323 3.13472 -2.01411 0
M  V30 5861 H 536.436 2.82143 -3.87211 0
M  V30 5862 H 534.8 1.57706 -2.00003 0
M  V30 5863 H 535.583 0.627102 -3.37524 0
M  V30 5864 N 538.028 1.39524 0.732853 0
M  V30 5865 C 538.938 1.40695 1.87729 0
M  V30 5866 C 539.954 0.301496 1.71368 0
M  V30 5867 O 541.13 0.543313 1.93933 0
M  V30 5868 C 538.195 1.25098 3.23344 0
M  V30 5869 C 537.256 2.45634 3.52083 0
M  V30 5870 C 536.489 2.30772 4.81228 0
M  V30 5871 O 536.712 1.31233 5.55098 0
M  V30 5872 O 535.646 3.19799 5.09914 0
M  V30 5873 H 539.472 2.37168 1.89697 0
M  V30 5874 H 537.057 1.20663 0.880959 0
M  V30 5875 H 538.939 1.18541 4.04383 0
M  V30 5876 H 537.614 0.317209 3.22142 0
M  V30 5877 H 536.521 2.57767 2.71122 0
M  V30 5878 H 537.854 3.37712 3.58066 0
M  V30 5879 N 539.506 -0.963266 1.24736 0
M  V30 5880 C 540.469 -2.04013 1.04457 0
M  V30 5881 C 541.469 -1.608 0.000335555 0
M  V30 5882 O 542.659 -1.72515 0.241719 0
M  V30 5883 C 539.791 -3.35858 0.584162 0
M  V30 5884 H 540.984 -2.23436 2.00041 0
M  V30 5885 H 538.537 -1.13914 1.07021 0
M  V30 5886 H 539.272 -3.22128 -0.374673 0
M  V30 5887 H 539.057 -3.68568 1.3379 0
M  V30 5888 H 540.547 -4.1502 0.463451 0
M  V30 5889 N 540.985 -1.06182 -1.16461 0
M  V30 5890 C 542.21 -0.798599 -1.91408 0
M  V30 5891 C 542.635 0.640987 -1.76842 0
M  V30 5892 O 541.993 1.44652 -1.09296 0
M  V30 5893 C 542.041 -1.19665 -3.40165 0
M  V30 5894 O 541.145 -0.334768 -4.11039 0
M  V30 5895 H 540.486 -0.291961 -0.596368 0
M  V30 5896 H 543.016 -1.41732 -1.47557 0
M  V30 5897 H 543.026 -1.16772 -3.90933 0
M  V30 5898 H 541.701 -2.24526 -3.50087 0
M  V30 5899 H 540.278 -0.425168 -3.70468 0
M  V30 5900 N 542.463 1.3308 -0.844243 0
M  V30 5901 C 543.393 2.3161 -0.296493 0
M  V30 5902 C 544.374 1.59215 0.598707 0
M  V30 5903 O 545.559 1.87077 0.521134 0
M  V30 5904 C 542.689 3.43313 0.524762 0
M  V30 5905 C 541.643 4.27115 -0.275106 0
M  V30 5906 C 540.969 5.30483 0.670236 0
M  V30 5907 C 542.269 5.00443 -1.49514 0
M  V30 5908 H 543.963 2.77672 -1.11976 0
M  V30 5909 H 541.509 1.33496 -0.539899 0
M  V30 5910 H 543.462 4.11273 0.918298 0
M  V30 5911 H 542.186 2.95952 1.3813 0
M  V30 5912 H 540.845 3.60787 -0.650267 0
M  V30 5913 H 540.493 4.79379 1.52332 0
M  V30 5914 H 540.193 5.87435 0.139123 0
M  V30 5915 H 541.717 6.01308 1.06117 0
M  V30 5916 H 543.131 5.61141 -1.17447 0
M  V30 5917 H 541.528 5.67071 -1.96343 0
M  V30 5918 H 542.598 4.28906 -2.26202 0
M  V30 5919 N 543.941 0.601185 1.45683 0
M  V30 5920 C 544.873 -0.159446 2.28645 0
M  V30 5921 C 545.886 -0.837882 1.39583 0
M  V30 5922 O 547.075 -0.704344 1.64016 0
M  V30 5923 C 544.175 -1.24641 3.15147 0
M  V30 5924 C 543.348 -0.656334 4.32448 0
M  V30 5925 C 542.407 -1.63337 5.00208 0
M  V30 5926 O 541.433 -1.16217 5.57209 0
M  V30 5927 N 542.635 -2.96773 4.98905 0
M  V30 5928 H 545.4 0.5524 2.94565 0
M  V30 5929 H 542.961 0.440223 1.558 0
M  V30 5930 H 544.953 -1.8997 3.57342 0
M  V30 5931 H 543.523 -1.86087 2.51178 0
M  V30 5932 H 542.743 0.174879 3.93812 0
M  V30 5933 H 544.031 -0.242211 5.08223 0
M  V30 5934 H 543.429 -3.37662 4.53873 0
M  V30 5935 H 541.986 -3.57541 5.44984 0
M  V30 5936 N 545.419 -1.53889 0.339982 0
M  V30 5937 C 546.696 -1.93084 -0.312719 0
M  V30 5938 C 547.076 -1.2712 -1.68534 0
M  V30 5939 O 546.424 -0.420835 -2.24591 0
M  V30 5940 C 546.634 -3.4683 -0.388558 0
M  V30 5941 C 547.982 -4.19732 -0.641088 0
M  V30 5942 O 549.006 -3.53075 -0.470818 0
M  V30 5943 O 547.865 -5.3781 -0.970685 0
M  V30 5944 H 544.959 -0.806784 -0.18174 0
M  V30 5945 H 547.505 -1.65137 0.390898 0
M  V30 5946 H 546.277 -3.87055 0.574821 0
M  V30 5947 H 545.9 -3.80933 -1.1391 0
M  V30 5948 N 546.897 -0.0685191 -1.57451 0
M  V30 5949 C 547.844 0.899861 -2.12535 0
M  V30 5950 C 548.814 1.29749 -1.03703 0
M  V30 5951 O 549.999 1.38392 -1.31348 0
M  V30 5952 C 547.139 2.16328 -2.6888 0
M  V30 5953 C 546.252 1.81857 -3.91857 0
M  V30 5954 C 545.387 3.02786 -4.36457 0
M  V30 5955 C 544.426 2.64317 -5.5209 0
M  V30 5956 N 543.563 3.77994 -5.91663 0
M  V30 5957 H 548.403 0.423243 -2.94979 0
M  V30 5958 H 545.94 0.197268 -1.45771 0
M  V30 5959 H 547.898 2.90281 -2.99655 0
M  V30 5960 H 546.528 2.61536 -1.89206 0
M  V30 5961 H 545.58 0.979808 -3.67565 0
M  V30 5962 H 546.892 1.49553 -4.75852 0
M  V30 5963 H 546.046 3.85021 -4.68875 0
M  V30 5964 H 544.785 3.38281 -3.51308 0
M  V30 5965 H 543.79 1.80503 -5.19325 0
M  V30 5966 H 545.015 2.29995 -6.38967 0
M  V30 5967 H 542.961 4.13258 -5.09464 0
M  V30 5968 H 542.878 3.49447 -6.7039 0
M  V30 5969 H 544.146 4.60818 -6.28703 0
M  V30 5970 N 548.375 1.56261 0.205012 0
M  V30 5971 C 549.285 1.96944 1.27476 0
M  V30 5972 C 550.301 0.875636 1.50362 0
M  V30 5973 O 551.477 1.18058 1.6317 0
M  V30 5974 C 548.542 2.29219 2.60115 0
M  V30 5975 C 547.603 3.52255 2.45387 0
M  V30 5976 C 546.836 3.8298 3.71701 0
M  V30 5977 O 547.059 3.15138 4.75441 0
M  V30 5978 O 545.993 4.76435 3.67823 0
M  V30 5979 H 549.819 2.88144 0.959527 0
M  V30 5980 H 547.404 1.43686 0.409217 0
M  V30 5981 H 549.286 2.51098 3.3842 0
M  V30 5982 H 547.961 1.4119 2.91285 0
M  V30 5983 H 546.868 3.35635 1.65227 0
M  V30 5984 H 548.201 4.40719 2.19152 0
M  V30 5985 N 549.853 -0.472356 1.50355 0
M  V30 5986 C 551.101 -1.22211 1.60962 0
M  V30 5987 C 551.422 -1.92497 0.311439 0
M  V30 5988 O 550.692 -1.8405 -0.671002 0
M  V30 5989 H 549.272 -0.454092 0.593135 0
M  V30 5990 H 551.934 -0.544977 1.87126 0
M  V30 5991 H 551.03 -1.9707 2.42012 0
M  V30 5992 N 551.331 -1.39911 -0.725443 0
M  V30 5993 C 552.294 -1.39156 -1.82121 0
M  V30 5994 C 553.294 -0.287018 -1.58218 0
M  V30 5995 O 554.484 -0.545421 -1.65441 0
M  V30 5996 C 551.616 -1.1736 -3.20062 0
M  V30 5997 H 552.809 -2.36672 -1.84191 0
M  V30 5998 H 550.362 -1.25615 -0.930079 0
M  V30 5999 H 551.097 -0.205648 -3.23647 0
M  V30 6000 H 550.882 -1.97358 -3.3881 0
M  V30 6001 H 552.372 -1.19596 -4.00108 0
M  V30 6002 O 552.848 0.866802 -1.36267 0
M  V30 6003 H 553.539 1.50585 -1.21835 0
M  V30 END ATOM
M  V30 BEGIN BOND
M  V30 END BOND
M  V30 END CTAB
M  END
$$$$
