drugbank_target|P41594 Metabotropic glutamate receptor 5 (DB00659; DB05070; DB06201; DB12733)
 OpenBabel12092119493D

  0  0  0     0  0            999 V3000
M  V30 BEGIN CTAB
M  V30 COUNTS 18553 18756 0 0 0
M  V30 BEGIN ATOM
M  V30 1 H -0.908 1.98254 -0.117106 0
M  V30 2 N 0 1.576 0 0
M  V30 3 C 0.933 2.03868 1.02534 0
M  V30 4 C 1.911 0.928543 1.3348 0
M  V30 5 O 3.095 1.19667 1.45644 0
M  V30 6 C 0.222 2.43627 2.35294 0
M  V30 7 C -0.732 3.65373 2.2001 0
M  V30 8 S 0.101 5.13292 1.52614 0
M  V30 9 C 1.257 5.56322 2.86805 0
M  V30 10 H 1.49 2.90518 0.631377 0
M  V30 11 H -0.977 1.52953 0.210867 0
M  V30 12 H 0.981 2.67203 3.11629 0
M  V30 13 H -0.358 1.57376 2.7183 0
M  V30 14 H -1.165 3.90944 3.18086 0
M  V30 15 H -1.563 3.418 1.51819 0
M  V30 16 H 0.729 5.58782 3.83104 0
M  V30 17 H 1.672 6.56266 2.65933 0
M  V30 18 H 2.08 4.83886 2.90714 0
M  V30 19 N 1.4781 -0.272755 1.55222 0
M  V30 20 C 2.7241 -1.00581 1.761 0
M  V30 21 C 3.0571 -1.85932 0.560625 0
M  V30 22 O 2.3321 -1.89416 -0.441801 0
M  V30 23 C 2.6151 -1.88816 3.06628 0
M  V30 24 C 2.4681 -1.06457 4.37021 0
M  V30 25 C 3.7871 -2.8752 3.33197 0
M  V30 26 H 0.9061 -0.364244 0.640699 0
M  V30 27 H 3.5481 -0.278189 1.87952 0
M  V30 28 H 1.6981 -2.50856 2.96654 0
M  V30 29 H 3.3701 -0.464863 4.58952 0
M  V30 30 H 1.6131 -0.368043 4.32236 0
M  V30 31 H 2.2841 -1.71514 5.24678 0
M  V30 32 H 4.7601 -2.35615 3.42965 0
M  V30 33 H 3.6361 -3.46399 4.25792 0
M  V30 34 H 3.8971 -3.62657 2.52849 0
M  V30 35 N 2.9562 -1.48159 -0.537278 0
M  V30 36 C 3.8862 -1.65029 -1.6519 0
M  V30 37 C 4.8672 -0.499281 -1.62607 0
M  V30 38 O 6.0522 -0.730972 -1.79918 0
M  V30 39 C 3.1822 -1.68303 -3.03795 0
M  V30 40 C 2.1362 -2.8283 -3.21234 0
M  V30 41 C 1.4622 -2.71189 -4.60826 0
M  V30 42 C 2.7622 -4.24211 -3.04701 0
M  V30 43 H 4.4562 -2.58341 -1.51328 0
M  V30 44 H 2.0022 -1.24325 -0.726585 0
M  V30 45 H 3.9552 -1.78693 -3.81637 0
M  V30 46 H 2.6792 -0.715635 -3.18663 0
M  V30 47 H 1.3382 -2.71983 -2.45807 0
M  V30 48 H 0.9862 -1.72435 -4.7252 0
M  V30 49 H 0.6862 -3.48035 -4.7344 0
M  V30 50 H 2.2102 -2.83537 -5.40777 0
M  V30 51 H 3.6242 -4.3593 -3.72341 0
M  V30 52 H 2.0212 -5.01998 -3.28813 0
M  V30 53 H 3.0912 -4.41184 -2.01209 0
M  V30 54 N 4.4343 0.785586 -1.36625 0
M  V30 55 C 5.3643 1.91259 -1.33949 0
M  V30 56 C 6.3453 1.68795 -0.210325 0
M  V30 57 O 7.5303 1.89854 -0.408561 0
M  V30 58 C 4.6603 3.28339 -1.13186 0
M  V30 59 C 3.6143 3.65335 -2.22967 0
M  V30 60 C 2.9403 5.00806 -1.87342 0
M  V30 61 C 4.2403 3.7352 -3.65075 0
M  V30 62 H 5.9343 1.93755 -2.28253 0
M  V30 63 H 3.4803 0.930788 -1.09874 0
M  V30 64 H 5.4333 4.06804 -1.09948 0
M  V30 65 H 4.1573 3.2624 -0.153332 0
M  V30 66 H 2.8163 2.89169 -2.25337 0
M  V30 67 H 2.4643 4.95233 -0.880545 0
M  V30 68 H 2.1643 5.26529 -2.60846 0
M  V30 69 H 3.6883 5.81687 -1.85667 0
M  V30 70 H 5.1023 4.42168 -3.64911 0
M  V30 71 H 3.4993 4.10731 -4.37516 0
M  V30 72 H 4.5693 2.74527 -3.99703 0
M  V30 73 N 5.9124 1.20967 1.01018 0
M  V30 74 C 6.8424 0.988272 2.11555 0
M  V30 75 C 7.8234 -0.0849778 1.69888 0
M  V30 76 O 9.0084 0.0738202 1.9406 0
M  V30 77 C 6.1384 0.546528 3.42973 0
M  V30 78 C 5.0924 1.56375 3.9841 0
M  V30 79 C 4.4184 0.97842 5.25672 0
M  V30 80 C 5.7184 2.94922 4.31066 0
M  V30 81 H 7.4124 1.91276 2.30334 0
M  V30 82 H 4.9584 0.921073 1.1069 0
M  V30 83 H 6.9114 0.378839 4.19694 0
M  V30 84 H 5.6354 -0.413598 3.23971 0
M  V30 85 H 4.2944 1.71891 3.23804 0
M  V30 86 H 3.9424 0.0101688 5.02999 0
M  V30 87 H 3.6424 1.65784 5.63728 0
M  V30 88 H 5.1664 0.821939 6.05043 0
M  V30 89 H 6.5804 2.8288 4.9865 0
M  V30 90 H 4.9774 3.5983 4.80253 0
M  V30 91 H 6.0474 3.4616 3.39561 0
M  V30 92 N 7.3905 -1.2043 1.01659 0
M  V30 93 C 8.6395 -1.89118 0.701237 0
M  V30 94 C 8.9525 -1.79705 -0.772358 0
M  V30 95 O 10.1585 -2.43528 -1.20026 0
M  V30 96 C 8.6145 -3.39168 1.20388 0
M  V30 97 C 8.2225 -3.57166 2.70438 0
M  V30 98 C 9.9665 -4.1341 0.963953 0
M  V30 99 C 7.8735 -5.01042 3.14183 0
M  V30 100 H 6.8035 -0.708267 0.2586 0
M  V30 101 H 9.4545 -1.36239 1.22927 0
M  V30 102 H 7.8365 -3.91369 0.603824 0
M  V30 103 H 9.0105 -3.15351 3.35992 0
M  V30 104 H 7.3255 -2.96294 2.92572 0
M  V30 105 H 9.9225 -5.19491 1.26621 0
M  V30 106 H 10.2655 -4.16181 -0.099578 0
M  V30 107 H 10.7985 -3.67309 1.52738 0
M  V30 108 H 7.5375 -5.03426 4.19812 0
M  V30 109 H 7.0575 -5.43668 2.53348 0
M  V30 110 H 8.7365 -5.69623 3.0682 0
M  V30 111 N 8.8686 -0.792821 -1.36206 0
M  V30 112 C 9.7986 -0.207853 -2.32573 0
M  V30 113 C 10.7796 0.659055 -1.56813 0
M  V30 114 O 11.9646 0.592176 -1.84951 0
M  V30 115 C 9.0946 0.655449 -3.41059 0
M  V30 116 C 8.0486 -0.111842 -4.27854 0
M  V30 117 C 7.3746 0.872274 -5.27537 0
M  V30 118 C 8.6746 -1.30299 -5.05786 0
M  V30 119 H 10.3686 -1.01294 -2.81744 0
M  V30 120 H 7.9146 -0.48854 -1.3546 0
M  V30 121 H 9.8676 1.07464 -4.07467 0
M  V30 122 H 8.5916 1.49328 -2.90463 0
M  V30 123 H 7.2506 -0.512053 -3.63006 0
M  V30 124 H 6.8986 1.70523 -4.73214 0
M  V30 125 H 6.5986 0.363291 -5.86476 0
M  V30 126 H 8.1226 1.28996 -5.96818 0
M  V30 127 H 9.5366 -0.959379 -5.65216 0
M  V30 128 H 7.9336 -1.7455 -5.74154 0
M  V30 129 H 9.0036 -2.09663 -4.37229 0
M  V30 130 N 10.3467 1.47872 -0.545128 0
M  V30 131 C 11.5717 2.07391 -0.0190611 0
M  V30 132 C 11.9967 1.39688 1.25971 0
M  V30 133 O 11.3547 0.467816 1.7516 0
M  V30 134 C 11.4027 3.60188 0.172335 0
M  V30 135 O 10.5067 3.9339 1.23766 0
M  V30 136 H 9.8477 0.662411 -0.0459059 0
M  V30 137 H 12.3777 1.90066 -0.757365 0
M  V30 138 H 12.3877 4.06129 0.390305 0
M  V30 139 H 11.0627 4.08865 -0.761725 0
M  V30 140 H 9.6397 3.5921 1.00114 0
M  V30 141 N 11.8248 0.280983 1.55075 0
M  V30 142 C 13.0708 -0.33461 2.00021 0
M  V30 143 C 13.4038 -1.55063 1.16915 0
M  V30 144 O 12.6788 -1.93006 0.240646 0
M  V30 145 C 12.9618 -0.711007 3.53011 0
M  V30 146 C 12.8148 0.512766 4.46868 0
M  V30 147 C 14.1338 -1.54522 4.12081 0
M  V30 148 H 11.2528 -0.120147 0.727141 0
M  V30 149 H 13.8948 0.389097 1.85973 0
M  V30 150 H 12.0448 -1.32761 3.65112 0
M  V30 151 H 13.7168 1.15131 4.46702 0
M  V30 152 H 11.9598 1.14975 4.18286 0
M  V30 153 H 12.6308 0.205556 5.51617 0
M  V30 154 H 15.1068 -1.02442 4.03293 0
M  V30 155 H 13.9828 -1.77739 5.19327 0
M  V30 156 H 14.2438 -2.52813 3.62682 0
M  V30 157 N 13.3029 -1.57598 0.00835791 0
M  V30 158 C 14.2329 -2.1198 -0.979113 0
M  V30 159 C 15.2139 -1.03091 -1.35301 0
M  V30 160 O 16.3989 -1.30818 -1.43528 0
M  V30 161 C 13.5289 -2.62995 -2.26828 0
M  V30 162 C 12.4829 -3.76485 -2.03576 0
M  V30 163 C 11.8089 -4.13846 -3.38579 0
M  V30 164 C 13.1089 -5.0342 -1.39161 0
M  V30 165 H 14.8029 -2.94738 -0.526281 0
M  V30 166 H 12.3489 -1.41783 -0.251704 0
M  V30 167 H 14.3019 -2.99669 -2.96271 0
M  V30 168 H 13.0259 -1.7737 -2.7424 0
M  V30 169 H 11.6849 -3.40217 -1.36557 0
M  V30 170 H 11.3329 -3.25232 -3.83709 0
M  V30 171 H 11.0329 -4.90312 -3.23834 0
M  V30 172 H 12.5569 -4.53086 -4.09323 0
M  V30 173 H 13.9709 -5.37812 -1.98573 0
M  V30 174 H 12.3679 -5.84746 -1.34878 0
M  V30 175 H 13.4379 -4.83548 -0.361868 0
M  V30 176 N 14.781 0.264519 -1.55364 0
M  V30 177 C 15.711 1.33121 -1.91836 0
M  V30 178 C 16.692 1.51101 -0.781192 0
M  V30 179 O 17.877 1.64003 -1.04003 0
M  V30 180 C 15.007 2.68921 -2.19769 0
M  V30 181 C 13.961 2.65661 -3.35571 0
M  V30 182 C 13.287 4.05093 -3.49004 0
M  V30 183 C 14.587 2.24187 -4.71739 0
M  V30 184 H 16.281 1.02844 -2.81182 0
M  V30 185 H 13.827 0.493286 -1.35287 0
M  V30 186 H 15.78 3.43663 -2.43872 0
M  V30 187 H 14.504 3.00799 -1.27231 0
M  V30 188 H 13.163 1.93377 -3.1145 0
M  V30 189 H 12.811 4.34206 -2.53917 0
M  V30 190 H 12.511 4.03804 -4.26868 0
M  V30 191 H 14.035 4.81561 -3.75408 0
M  V30 192 H 15.449 2.88654 -4.9533 0
M  V30 193 H 13.846 2.34044 -5.52579 0
M  V30 194 H 14.916 1.19327 -4.69988 0
M  V30 195 N 16.2591 1.48442 0.529413 0
M  V30 196 C 17.1891 1.65902 1.64313 0
M  V30 197 C 18.1701 0.507897 1.6234 0
M  V30 198 O 19.3551 0.740503 1.79528 0
M  V30 199 C 16.4851 1.69911 3.02898 0
M  V30 200 C 15.4391 2.8453 3.19729 0
M  V30 201 C 14.7651 2.73629 4.59381 0
M  V30 202 C 16.0651 4.25821 3.02447 0
M  V30 203 H 17.7591 2.5914 1.49955 0
M  V30 204 H 15.3051 1.24709 0.719982 0
M  V30 205 H 17.2581 1.80715 3.80684 0
M  V30 206 H 15.9821 0.732524 3.18279 0
M  V30 207 H 14.6411 2.73283 2.44361 0
M  V30 208 H 14.2891 1.74938 4.71599 0
M  V30 209 H 13.9891 3.50541 4.71588 0
M  V30 210 H 15.5131 2.86401 5.39265 0
M  V30 211 H 16.9271 4.37898 3.70024 0
M  V30 212 H 15.3241 5.03735 3.26146 0
M  V30 213 H 16.3941 4.42244 1.98867 0
M  V30 214 N 17.7372 -0.778329 1.37039 0
M  V30 215 C 18.6842 -1.89139 1.32269 0
M  V30 216 C 19.6542 -1.65017 0.189387 0
M  V30 217 O 20.8392 -1.87024 0.377693 0
M  V30 218 C 17.9792 -3.26112 1.12894 0
M  V30 219 C 17.0922 -3.62233 2.35396 0
M  V30 220 C 16.2272 -4.8838 2.08946 0
M  V30 221 C 15.2662 -5.17212 3.2735 0
M  V30 222 N 14.4032 -6.34546 3.00492 0
M  V30 223 H 19.2432 -1.92552 2.27437 0
M  V30 224 H 16.7802 -0.941473 1.13025 0
M  V30 225 H 18.7382 -4.05116 0.996835 0
M  V30 226 H 17.3682 -3.22091 0.213758 0
M  V30 227 H 16.4202 -2.78265 2.5937 0
M  V30 228 H 17.7322 -3.79481 3.23721 0
M  V30 229 H 16.8862 -5.75274 1.92729 0
M  V30 230 H 15.6252 -4.73222 1.17949 0
M  V30 231 H 14.6302 -4.28796 3.44113 0
M  V30 232 H 15.8552 -5.34283 4.19188 0
M  V30 233 H 13.8012 -6.20759 2.12118 0
M  V30 234 H 13.7182 -6.52179 3.82358 0
M  V30 235 H 14.9862 -7.24394 2.87879 0
M  V30 236 N 19.2153 -1.21501 -1.00376 0
M  V30 237 C 20.1253 -0.991447 -2.12621 0
M  V30 238 C 21.1413 0.0568446 -1.73907 0
M  V30 239 O 22.3173 -0.13348 -2.00957 0
M  V30 240 C 19.3823 -0.560312 -3.42142 0
M  V30 241 C 18.4433 -1.68096 -3.95022 0
M  V30 242 C 17.6763 -1.2703 -5.18362 0
M  V30 243 O 17.8993 -0.144438 -5.70217 0
M  V30 244 O 16.8333 -2.08269 -5.64719 0
M  V30 245 H 20.6593 -1.93158 -2.34358 0
M  V30 246 H 18.2443 -0.999999 -1.10997 0
M  V30 247 H 20.1263 -0.329724 -4.20108 0
M  V30 248 H 18.8013 0.351089 -3.2179 0
M  V30 249 H 17.7083 -1.96597 -3.18278 0
M  V30 250 H 19.0413 -2.56983 -4.19786 0
M  V30 251 N 20.6934 1.19889 -1.02296 0
M  V30 252 C 21.9704 1.85148 -0.630832 0
M  V30 253 C 22.3504 1.91385 0.890782 0
M  V30 254 O 21.6984 1.42642 1.78509 0
M  V30 255 C 21.9084 3.24442 -1.28602 0
M  V30 256 C 23.2564 4.00663 -1.4055 0
M  V30 257 O 24.2804 3.33818 -1.24273 0
M  V30 258 O 23.1394 5.20387 -1.66913 0
M  V30 259 H 20.2334 0.797613 -0.218499 0
M  V30 260 H 22.7794 1.27427 -1.12074 0
M  V30 261 H 21.5514 3.14704 -2.32545 0
M  V30 262 H 21.1744 3.89802 -0.7836 0
M  V30 263 N 22.1715 0.800033 1.35784 0
M  V30 264 C 23.4175 0.377901 1.99248 0
M  V30 265 C 23.7505 -1.05052 1.63333 0
M  V30 266 O 23.0255 -1.72768 0.893385 0
M  V30 267 C 23.3085 0.553922 3.55814 0
M  V30 268 C 23.1615 2.0268 4.01548 0
M  V30 269 C 24.4805 -0.0244802 4.40093 0
M  V30 270 H 21.5995 0.138782 0.723815 0
M  V30 271 H 24.2415 1.00835 1.61035 0
M  V30 272 H 22.3915 0.0172398 3.88496 0
M  V30 273 H 24.0635 2.62536 3.79305 0
M  V30 274 H 22.3065 2.5256 3.52698 0
M  V30 275 H 22.9775 2.10087 5.10458 0
M  V30 276 H 25.4535 0.433775 4.13833 0
M  V30 277 H 24.3295 0.128637 5.48749 0
M  V30 278 H 24.5905 -1.11758 4.27741 0
M  V30 279 N 23.6496 -1.47581 0.552962 0
M  V30 280 C 25.0656 -1.5818 0.212424 0
M  V30 281 C 25.2656 -1.55213 -1.28496 0
M  V30 282 O 24.3216 -1.45329 -2.06484 0
M  V30 283 C 25.6346 -2.88865 0.835318 0
M  V30 284 C 27.1826 -3.0244 0.806156 0
M  V30 285 C 27.6576 -4.35819 1.40804 0
M  V30 286 N 29.1486 -4.42444 1.37103 0
M  V30 287 C 29.8836 -5.44202 1.80641 0
M  V30 288 N 29.3796 -6.52795 2.32015 0
M  V30 289 N 31.1726 -5.35222 1.71738 0
M  V30 290 H 23.3236 -1.47753 1.52587 0
M  V30 291 H 25.5866 -0.702941 0.636064 0
M  V30 292 H 25.2926 -2.9676 1.88749 0
M  V30 293 H 25.1666 -3.7579 0.325848 0
M  V30 294 H 27.5536 -2.94144 -0.237317 0
M  V30 295 H 27.6346 -2.17068 1.35334 0
M  V30 296 H 27.2786 -4.44871 2.45056 0
M  V30 297 H 27.2086 -5.19916 0.836338 0
M  V30 298 H 29.6996 -3.6456 0.995202 0
M  V30 299 H 30.0126 -7.26609 2.63171 0
M  V30 300 H 28.3576 -6.53696 2.36023 0
M  V30 301 H 31.5486 -4.49284 1.31382 0
M  V30 302 H 31.7216 -6.14389 2.05987 0
M  V30 303 N 25.1277 -0.289203 -1.54924 0
M  V30 304 C 26.3757 0.322879 -1.99504 0
M  V30 305 C 26.6967 1.55313 -1.1791 0
M  V30 306 O 25.9667 1.94001 -0.272097 0
M  V30 307 H 24.5467 0.122291 -0.736922 0
M  V30 308 H 27.2087 -0.397802 -1.90797 0
M  V30 309 H 26.3047 0.603061 -3.06218 0
M  V30 310 N 26.6058 1.57591 -0.0167156 0
M  V30 311 C 27.8308 1.9598 0.67872 0
M  V30 312 C 28.2558 0.892546 1.65575 0
M  V30 313 O 27.6138 -0.147772 1.80697 0
M  V30 314 C 27.6618 3.33468 1.37227 0
M  V30 315 O 26.7658 3.28954 2.48722 0
M  V30 316 H 26.1068 0.639339 0.17928 0
M  V30 317 H 28.6368 2.04463 -0.0748802 0
M  V30 318 H 28.6468 3.69417 1.7319 0
M  V30 319 H 27.3218 4.10694 0.656007 0
M  V30 320 H 25.8988 3.04705 2.14963 0
M  V30 321 N 28.0839 -0.256276 1.55502 0
M  V30 322 C 29.0469 -1.30047 1.88734 0
M  V30 323 C 30.0469 -1.4154 0.763086 0
M  V30 324 O 31.2369 -1.40403 1.03115 0
M  V30 325 C 28.3689 -2.67953 2.10747 0
M  V30 326 H 29.5619 -1.01802 2.82093 0
M  V30 327 H 27.1149 -0.495134 1.4825 0
M  V30 328 H 27.8499 -3.01351 1.19825 0
M  V30 329 H 27.6349 -2.60993 2.92617 0
M  V30 330 H 29.1249 -3.43368 2.37673 0
M  V30 331 N 29.562 -1.4872 -0.521534 0
M  V30 332 C 30.494 -1.59968 -1.64143 0
M  V30 333 C 31.507 -0.483463 -1.55456 0
M  V30 334 O 32.696 -0.75467 -1.61762 0
M  V30 335 C 29.796 -1.52127 -3.02838 0
M  V30 336 C 28.969 -2.78932 -3.36921 0
M  V30 337 C 28.028 -2.64428 -4.54933 0
M  V30 338 O 27.054 -3.38331 -4.57735 0
M  V30 339 N 28.256 -1.74606 -5.53618 0
M  V30 340 H 31.021 -2.56548 -1.54929 0
M  V30 341 H 28.582 -1.45551 -0.708988 0
M  V30 342 H 30.574 -1.40106 -3.79674 0
M  V30 343 H 29.144 -0.634868 -3.06085 0
M  V30 344 H 28.364 -3.05455 -2.4918 0
M  V30 345 H 29.652 -3.63041 -3.56481 0
M  V30 346 H 29.05 -1.13782 -5.54139 0
M  V30 347 H 27.607 -1.6852 -6.29638 0
M  V30 348 N 31.0401 0.771051 -1.3745 0
M  V30 349 C 32.2651 1.56529 -1.36065 0
M  V30 350 C 32.6901 1.88029 0.0515859 0
M  V30 351 O 32.0481 1.49282 1.02882 0
M  V30 352 C 32.0961 2.85187 -2.20683 0
M  V30 353 O 31.2001 3.79593 -1.61193 0
M  V30 354 H 30.5411 0.47411 -0.464883 0
M  V30 355 H 33.0711 0.954269 -1.80983 0
M  V30 356 H 33.0811 3.34283 -2.33921 0
M  V30 357 H 31.7561 2.61588 -3.23334 0
M  V30 358 H 30.3331 3.38239 -1.56999 0
M  V30 359 N 32.5182 1.22032 0.997298 0
M  V30 360 C 33.7432 1.06921 1.77715 0
M  V30 361 C 34.1682 -0.376226 1.84299 0
M  V30 362 O 33.5262 -1.27165 1.29223 0
M  V30 363 C 33.5742 1.67996 3.19076 0
M  V30 364 O 32.6782 0.930653 4.01762 0
M  V30 365 H 32.0192 0.375814 0.547412 0
M  V30 366 H 34.5492 1.61737 1.25309 0
M  V30 367 H 34.5592 1.72538 3.69723 0
M  V30 368 H 33.2342 2.73182 3.13599 0
M  V30 369 H 31.8112 0.960917 3.60307 0
M  V30 370 N 33.9963 -1.19345 1.0293 0
M  V30 371 C 34.9063 -2.26245 0.620515 0
M  V30 372 C 35.9223 -1.70486 -0.347928 0
M  V30 373 O 37.0983 -2.00347 -0.205704 0
M  V30 374 C 34.1633 -3.46693 -0.0218957 0
M  V30 375 C 33.2243 -4.17632 0.994102 0
M  V30 376 C 32.4573 -5.32329 0.382253 0
M  V30 377 O 32.6803 -5.64552 -0.814676 0
M  V30 378 O 31.6143 -5.91664 1.10531 0
M  V30 379 H 35.4403 -2.63453 1.51083 0
M  V30 380 H 33.0253 -1.26207 0.799513 0
M  V30 381 H 34.9073 -4.19683 -0.380072 0
M  V30 382 H 33.5823 -3.11333 -0.886209 0
M  V30 383 H 32.4893 -3.4676 1.40387 0
M  V30 384 H 33.8223 -4.56964 1.8288 0
M  V30 385 N 35.4744 -0.807222 -1.35358 0
M  V30 386 C 36.8904 -0.491038 -1.51858 0
M  V30 387 C 37.0904 0.987648 -1.75635 0
M  V30 388 O 36.1464 1.77265 -1.79815 0
M  V30 389 C 37.4594 -1.33695 -2.69344 0
M  V30 390 C 39.0074 -1.33246 -2.83222 0
M  V30 391 C 39.4824 -2.1625 -4.03733 0
M  V30 392 N 40.9734 -2.1379 -4.10911 0
M  V30 393 C 41.7084 -2.74772 -5.03277 0
M  V30 394 N 41.2044 -3.44684 -6.0097 0
M  V30 395 N 42.9974 -2.6441 -4.96028 0
M  V30 396 H 35.1484 -1.76485 -1.18181 0
M  V30 397 H 37.4114 -0.751199 -0.578276 0
M  V30 398 H 37.1174 -2.38634 -2.58354 0
M  V30 399 H 36.9914 -0.990618 -3.6396 0
M  V30 400 H 39.3784 -0.290911 -2.93663 0
M  V30 401 H 39.4594 -1.71866 -1.89461 0
M  V30 402 H 39.1034 -3.20445 -3.94052 0
M  V30 403 H 39.0334 -1.74989 -4.96675 0
M  V30 404 H 41.5244 -1.62923 -3.40976 0
M  V30 405 H 41.8374 -3.88501 -6.68047 0
M  V30 406 H 40.1824 -3.48788 -6.01142 0
M  V30 407 H 43.3734 -2.0938 -4.18662 0
M  V30 408 H 43.5464 -3.12225 -5.6782 0
M  V30 409 N 36.9525 1.47285 -0.560781 0
M  V30 410 C 38.3685 1.58065 -0.22081 0
M  V30 411 C 38.5685 1.55892 1.27671 0
M  V30 412 O 37.6245 1.46422 2.0571 0
M  V30 413 C 38.9375 2.88418 -0.850625 0
M  V30 414 C 40.4855 3.02009 -0.822184 0
M  V30 415 C 40.9605 4.35066 -1.43113 0
M  V30 416 N 42.4515 4.41711 -1.39448 0
M  V30 417 C 43.1865 5.43237 -1.83525 0
M  V30 418 N 42.6825 6.51555 -2.35474 0
M  V30 419 N 44.4755 5.34304 -1.74574 0
M  V30 420 H 36.6265 1.46941 -1.53369 0
M  V30 421 H 38.8895 0.699558 -0.639783 0
M  V30 422 H 38.5955 2.95755 -1.9032 0
M  V30 423 H 38.4695 3.75612 -0.345773 0
M  V30 424 H 40.8565 2.94266 0.221714 0
M  V30 425 H 40.9375 2.16347 -1.36483 0
M  V30 426 H 40.5815 4.43565 -2.47412 0
M  V30 427 H 40.5115 5.19465 -0.863899 0
M  V30 428 H 43.0025 3.64027 -1.01452 0
M  V30 429 H 43.3155 7.25203 -2.67021 0
M  V30 430 H 41.6605 6.52435 -2.39487 0
M  V30 431 H 44.8515 4.48581 -1.33763 0
M  V30 432 H 45.0245 6.13288 -2.09242 0
M  V30 433 N 38.4306 0.297415 1.54768 0
M  V30 434 C 39.6766 -0.313376 2.00364 0
M  V30 435 C 40.0096 -1.53815 1.18553 0
M  V30 436 O 39.2846 -1.92739 0.261103 0
M  V30 437 C 39.5676 -0.673525 3.53745 0
M  V30 438 C 39.4206 0.560133 4.46299 0
M  V30 439 C 40.7396 -1.50143 4.13697 0
M  V30 440 H 37.8586 -0.112428 0.728374 0
M  V30 441 H 40.5006 0.4088 1.8555 0
M  V30 442 H 38.6506 -1.28881 3.665 0
M  V30 443 H 40.3226 1.19863 4.45455 0
M  V30 444 H 38.5656 1.19405 4.17043 0
M  V30 445 H 39.2366 0.26405 5.51368 0
M  V30 446 H 41.7126 -0.981588 4.04356 0
M  V30 447 H 40.5886 -1.72221 5.21182 0
M  V30 448 H 40.8496 -2.48952 3.65343 0
M  V30 449 N 39.9087 -1.5758 0.0250728 0
M  V30 450 C 41.1547 -1.91917 -0.655413 0
M  V30 451 C 41.4877 -0.901433 -1.72011 0
M  V30 452 O 40.7627 0.0764069 -1.9435 0
M  V30 453 C 41.0457 -3.36751 -1.27558 0
M  V30 454 C 40.8987 -4.49258 -0.220719 0
M  V30 455 C 42.2177 -3.81469 -2.19475 0
M  V30 456 H 39.3367 -0.697925 -0.23679 0
M  V30 457 H 41.9787 -1.89825 0.0815036 0
M  V30 458 H 40.1287 -3.38664 -1.90365 0
M  V30 459 H 41.8007 -4.59478 0.409601 0
M  V30 460 H 40.0437 -4.31415 0.454264 0
M  V30 461 H 40.7147 -5.47618 -0.694175 0
M  V30 462 H 43.1907 -3.81266 -1.66659 0
M  V30 463 H 42.0667 -4.83512 -2.59822 0
M  V30 464 H 42.3277 -3.16744 -3.08424 0
M  V30 465 N 41.3868 0.248026 -1.55636 0
M  V30 466 C 42.3498 1.29044 -1.89421 0
M  V30 467 C 43.3498 1.41134 -0.770581 0
M  V30 468 O 44.5398 1.39854 -1.03858 0
M  V30 469 C 41.6718 2.66831 -2.12165 0
M  V30 470 H 42.8648 1.00305 -2.82629 0
M  V30 471 H 40.4178 0.487265 -1.48511 0
M  V30 472 H 41.1528 3.00711 -1.21422 0
M  V30 473 H 40.9378 2.59438 -2.93997 0
M  V30 474 H 42.4278 3.42103 -2.3949 0
M  V30 475 N 42.8649 1.48995 0.513639 0
M  V30 476 C 43.8149 1.61127 1.61314 0
M  V30 477 C 44.7989 0.467521 1.53958 0
M  V30 478 O 45.9909 0.719826 1.61702 0
M  V30 479 C 43.1199 1.66937 2.99978 0
M  V30 480 C 42.2059 2.86847 3.12377 0
M  V30 481 N 42.5969 4.11078 2.94701 0
M  V30 482 C 40.8949 2.84521 3.43459 0
M  V30 483 C 41.5959 4.91615 3.10949 0
M  V30 484 N 40.5719 4.24739 3.3926 0
M  V30 485 H 44.3739 2.54909 1.46282 0
M  V30 486 H 41.8879 1.45593 0.719483 0
M  V30 487 H 43.8849 1.73725 3.78979 0
M  V30 488 H 42.5449 0.742831 3.16089 0
M  V30 489 H 43.5559 4.41258 2.71131 0
M  V30 490 H 40.2329 2.01192 3.65825 0
M  V30 491 H 41.6229 6.00264 3.01882 0
M  V30 492 N 44.343 -0.763751 1.37857 0
M  V30 493 C 45.276 -1.88486 1.28639 0
M  V30 494 C 46.254 -1.61757 0.165363 0
M  V30 495 O 47.438 -1.85391 0.340948 0
M  V30 496 C 44.565 -3.23884 0.990811 0
M  V30 497 C 43.611 -3.69514 2.12983 0
M  V30 498 S 44.444 -3.82244 3.75033 0
M  V30 499 C 45.6 -5.20477 3.47641 0
M  V30 500 H 45.833 -1.96017 2.23527 0
M  V30 501 H 43.366 -0.925684 1.23574 0
M  V30 502 H 45.324 -4.02081 0.827101 0
M  V30 503 H 43.985 -3.14044 0.0592832 0
M  V30 504 H 43.178 -4.67696 1.87821 0
M  V30 505 H 42.78 -2.98441 2.25408 0
M  V30 506 H 45.072 -6.05905 3.03125 0
M  V30 507 H 46.015 -5.50655 4.4518 0
M  V30 508 H 46.423 -4.88793 2.82385 0
M  V30 509 N 45.8211 -1.22559 -0.990812 0
M  V30 510 C 47.2321 -1.04791 -1.54518 0
M  V30 511 C 47.5831 0.387998 -1.92325 0
M  V30 512 O 46.7081 1.27328 -1.74976 0
M  V30 513 C 47.3031 -1.896 -2.80779 0
M  V30 514 C 45.8621 -1.76124 -3.32652 0
M  V30 515 C 45.0091 -1.8594 -2.05722 0
M  V30 516 H 47.9601 -1.36374 -0.811662 0
M  V30 517 H 47.9811 -1.41464 -3.53225 0
M  V30 518 H 47.4931 -2.94101 -2.53231 0
M  V30 519 H 45.5941 -0.743643 -3.65104 0
M  V30 520 H 45.7071 -2.58913 -4.03114 0
M  V30 521 H 44.0711 -1.29403 -2.19379 0
M  V30 522 H 44.8541 -2.91976 -1.80568 0
M  V30 523 N 47.2992 1.18797 -1.03562 0
M  V30 524 C 48.5472 1.88278 -0.734569 0
M  V30 525 C 48.8682 1.8043 0.739586 0
M  V30 526 O 48.1382 1.21925 1.53333 0
M  V30 527 H 46.7182 0.696991 -0.268725 0
M  V30 528 H 49.3802 1.44192 -1.31129 0
M  V30 529 H 48.4762 2.94443 -1.03489 0
M  V30 530 N 48.7773 0.814389 1.34928 0
M  V30 531 C 50.0543 0.321363 1.92942 0
M  V30 532 C 50.4343 -1.19014 1.74353 0
M  V30 533 O 49.7823 -1.99328 1.11716 0
M  V30 534 C 49.9923 0.741323 3.41036 0
M  V30 535 C 51.3403 0.735266 4.18185 0
M  V30 536 O 52.3643 0.68336 3.49584 0
M  V30 537 O 51.2233 0.800703 5.40602 0
M  V30 538 H 48.3173 0.0858893 0.822528 0
M  V30 539 H 50.8633 0.898609 1.43955 0
M  V30 540 H 49.6353 1.78276 3.4833 0
M  V30 541 H 49.2583 0.139307 3.97356 0
M  V30 542 N 50.2554 -1.46986 0.568584 0
M  V30 543 C 51.5044 -2.01646 0.0465894 0
M  V30 544 C 51.8174 -1.44721 -1.31587 0
M  V30 545 O 53.0234 -1.91113 -1.92842 0
M  V30 546 C 51.4794 -3.59885 0.032752 0
M  V30 547 C 51.0874 -4.25804 1.39266 0
M  V30 548 C 52.8314 -4.22255 -0.436038 0
M  V30 549 C 50.7384 -5.76081 1.33732 0
M  V30 550 H 49.6684 -0.753876 0.013647 0
M  V30 551 H 52.3194 -1.68864 0.718131 0
M  V30 552 H 50.7014 -3.8968 -0.704669 0
M  V30 553 H 51.8754 -4.07637 2.1487 0
M  V30 554 H 50.1904 -3.7547 1.80032 0
M  V30 555 H 52.7874 -5.32394 -0.49602 0
M  V30 556 H 53.1304 -3.90212 -1.45053 0
M  V30 557 H 53.6634 -3.97033 0.246877 0
M  V30 558 H 50.4024 -6.12761 2.32817 0
M  V30 559 H 49.9224 -5.96553 0.623267 0
M  V30 560 H 51.6014 -6.38518 1.0442 0
M  V30 561 N 51.7335 -0.305618 -1.54608 0
M  V30 562 C 52.9825 0.303098 -1.9941 0
M  V30 563 C 53.2955 1.54648 -1.19764 0
M  V30 564 O 54.5015 2.23007 -1.54855 0
M  V30 565 C 52.9575 0.590588 -3.55021 0
M  V30 566 C 52.5655 -0.634719 -4.43481 0
M  V30 567 C 54.3095 1.16025 -4.08336 0
M  V30 568 C 52.2165 -0.320126 -5.90533 0
M  V30 569 H 51.1465 0.117031 -0.744862 0
M  V30 570 H 53.7975 -0.415045 -1.78745 0
M  V30 571 H 52.1795 1.36845 -3.71604 0
M  V30 572 H 53.3535 -1.41079 -4.38672 0
M  V30 573 H 51.6685 -1.12333 -4.00962 0
M  V30 574 H 54.2655 1.40994 -5.15776 0
M  V30 575 H 54.6085 2.10397 -3.5922 0
M  V30 576 H 55.1415 0.443985 -3.95315 0
M  V30 577 H 51.8805 -1.23254 -6.43808 0
M  V30 578 H 51.4005 0.418579 -5.98338 0
M  V30 579 H 53.0795 0.0766241 -6.46955 0
M  V30 580 N 53.2116 1.57565 -0.0334293 0
M  V30 581 C 54.4606 1.91155 0.643639 0
M  V30 582 C 54.7736 0.91192 1.73042 0
M  V30 583 O 55.9796 1.13923 2.46442 0
M  V30 584 C 54.4356 3.39443 1.1961 0
M  V30 585 C 54.0436 4.47774 0.142381 0
M  V30 586 C 55.7876 3.82094 1.84944 0
M  V30 587 C 53.6946 5.87162 0.706727 0
M  V30 588 H 52.6246 0.713368 0.244176 0
M  V30 589 H 55.2756 1.8323 -0.0994323 0
M  V30 590 H 53.6576 3.42313 1.99092 0
M  V30 591 H 54.8316 4.56469 -0.630296 0
M  V30 592 H 53.1466 4.14352 -0.412446 0
M  V30 593 H 55.7436 4.83591 2.2813 0
M  V30 594 H 56.0866 3.17386 2.69392 0
M  V30 595 H 56.6196 3.81665 1.12145 0
M  V30 596 H 53.3586 6.55424 -0.0997178 0
M  V30 597 H 52.8786 5.82064 1.44779 0
M  V30 598 H 54.5576 6.35866 1.19514 0
M  V30 599 N 54.6897 -0.239769 1.55765 0
M  V30 600 C 55.9377 -0.964892 1.77579 0
M  V30 601 C 56.2587 -1.85582 0.598699 0
M  V30 602 O 55.5287 -1.92075 -0.385226 0
M  V30 603 H 54.1087 -0.359265 0.654933 0
M  V30 604 H 56.7707 -0.256001 1.93211 0
M  V30 605 H 55.8667 -1.58243 2.69009 0
M  V30 606 N 56.1678 -1.49265 -0.50573 0
M  V30 607 C 57.1308 -1.65075 -1.59006 0
M  V30 608 C 58.1308 -0.522768 -1.52065 0
M  V30 609 O 59.3208 -0.789117 -1.55302 0
M  V30 610 C 56.4528 -1.64369 -2.98656 0
M  V30 611 H 57.6458 -2.61784 -1.46319 0
M  V30 612 H 55.1988 -1.38226 -0.729616 0
M  V30 613 H 55.9338 -0.692272 -3.16825 0
M  V30 614 H 55.7188 -2.46282 -3.05103 0
M  V30 615 H 57.2088 -1.78674 -3.77446 0
M  V30 616 N 57.6459 0.756429 -1.3826 0
M  V30 617 C 58.5759 1.88374 -1.37976 0
M  V30 618 C 59.5569 1.68311 -0.246082 0
M  V30 619 O 60.7419 1.88944 -0.44874 0
M  V30 620 C 57.8719 3.25864 -1.20125 0
M  V30 621 C 56.8259 3.60523 -2.30666 0
M  V30 622 C 56.1519 4.9672 -1.97923 0
M  V30 623 C 57.4519 3.65692 -3.72916 0
M  V30 624 H 59.1459 1.88869 -2.32312 0
M  V30 625 H 56.6919 0.907272 -1.11824 0
M  V30 626 H 58.6449 4.0438 -1.18552 0
M  V30 627 H 57.3689 3.25841 -0.222498 0
M  V30 628 H 56.0279 2.84324 -2.3142 0
M  V30 629 H 55.6759 4.93253 -0.985393 0
M  V30 630 H 55.3759 5.20878 -2.71955 0
M  V30 631 H 56.8999 5.77618 -1.97964 0
M  V30 632 H 58.3139 4.34328 -3.74208 0
M  V30 633 H 56.7109 4.01358 -4.4613 0
M  V30 634 H 57.7809 2.65987 -4.05436 0
M  V30 635 N 59.124 1.23083 0.984299 0
M  V30 636 C 60.371 1.06057 1.72505 0
M  V30 637 C 60.699 -0.403105 1.90277 0
M  V30 638 O 59.954 -1.3149 1.44944 0
M  V30 639 C 60.253 1.72673 3.1292 0
M  V30 640 C 59.919 3.22586 3.15038 0
M  V30 641 C 58.581 3.63489 3.15324 0
M  V30 642 C 60.933 4.185 3.10657 0
M  V30 643 C 58.261 4.98772 3.08939 0
M  V30 644 C 60.613 5.53769 3.05814 0
M  V30 645 C 59.277 5.94041 3.04419 0
M  V30 646 H 58.547 0.388091 0.631242 0
M  V30 647 H 61.194 1.52963 1.15215 0
M  V30 648 H 59.499 1.18116 3.73572 0
M  V30 649 H 61.196 1.56982 3.68996 0
M  V30 650 H 57.786 2.90022 3.15571 0
M  V30 651 H 61.97 3.87911 3.09579 0
M  V30 652 H 57.226 5.29193 3.0621 0
M  V30 653 H 61.4 6.27808 3.0138 0
M  V30 654 H 59.027 6.98833 2.99227 0
M  V30 655 N 60.6021 -1.18246 1.0419 0
M  V30 656 C 61.8271 -1.92736 0.765996 0
M  V30 657 C 62.2521 -1.75728 -0.67091 0
M  V30 658 O 61.6101 -1.06825 -1.46486 0
M  V30 659 C 61.6581 -3.42148 1.13875 0
M  V30 660 O 60.7621 -4.11548 0.264954 0
M  V30 661 H 60.1031 -0.601238 0.281797 0
M  V30 662 H 62.6331 -1.49942 1.39207 0
M  V30 663 H 62.6431 -3.92858 1.1012 0
M  V30 664 H 61.3181 -3.53848 2.18551 0
M  V30 665 H 59.8951 -3.71137 0.362226 0
M  V30 666 N 62.0802 -0.821533 -1.34494 0
M  V30 667 C 63.3262 -0.409552 -1.98622 0
M  V30 668 C 63.6592 1.0244 -1.64984 0
M  V30 669 O 62.9342 1.71325 -0.920758 0
M  V30 670 C 63.2172 -0.610458 -3.54888 0
M  V30 671 C 63.0702 -2.09043 -3.98273 0
M  V30 672 C 64.3892 -0.0455379 -4.40076 0
M  V30 673 H 61.5082 -0.15028 -0.721516 0
M  V30 674 H 64.1502 -1.03384 -1.59411 0
M  V30 675 H 62.3002 -0.079044 -3.8842 0
M  V30 676 H 63.9722 -2.68537 -3.75081 0
M  V30 677 H 62.2152 -2.58139 -3.48635 0
M  V30 678 H 62.8862 -2.18182 -5.07051 0
M  V30 679 H 65.3622 -0.499557 -4.1309 0
M  V30 680 H 64.2382 -0.215922 -5.48475 0
M  V30 681 H 64.4992 1.04939 -4.29465 0
M  V30 682 N 63.5583 1.46682 -0.576371 0
M  V30 683 C 64.5083 2.27278 0.181288 0
M  V30 684 C 65.4923 1.35497 0.867721 0
M  V30 685 O 66.6843 1.59717 0.762863 0
M  V30 686 C 63.8133 3.21703 1.19841 0
M  V30 687 C 62.8993 4.20969 0.51442 0
M  V30 688 N 63.2903 5.03999 -0.426407 0
M  V30 689 C 61.5883 4.39373 0.765963 0
M  V30 690 C 62.2893 5.75812 -0.825565 0
M  V30 691 N 61.2653 5.43315 -0.176116 0
M  V30 692 H 65.0673 2.88863 -0.541785 0
M  V30 693 H 62.5813 1.57455 -0.397697 0
M  V30 694 H 64.5783 3.78145 1.75533 0
M  V30 695 H 63.2383 2.61677 1.92238 0
M  V30 696 H 64.2493 5.11659 -0.8016 0
M  V30 697 H 60.9263 3.90502 1.47698 0
M  V30 698 H 62.3163 6.52577 -1.59976 0
M  V30 699 N 65.0364 0.313813 1.54444 0
M  V30 700 C 65.9864 -0.571898 2.20711 0
M  V30 701 C 66.9704 -1.08913 1.18435 0
M  V30 702 O 68.1624 -1.02777 1.44104 0
M  V30 703 C 65.2914 -1.7371 2.96108 0
M  V30 704 C 64.3774 -1.23522 4.05713 0
M  V30 705 N 64.7684 -0.452288 5.03774 0
M  V30 706 C 63.0664 -1.51482 4.19487 0
M  V30 707 C 63.7674 -0.183438 5.81411 0
M  V30 708 N 62.7434 -0.766845 5.38164 0
M  V30 709 H 66.5454 0.0336802 2.93881 0
M  V30 710 H 64.0594 0.119192 1.61962 0
M  V30 711 H 66.0564 -2.38329 3.4206 0
M  V30 712 H 64.7164 -2.34625 2.24458 0
M  V30 713 H 65.7274 -0.0960131 5.17811 0
M  V30 714 H 62.4044 -2.13053 3.59047 0
M  V30 715 H 63.7944 0.446216 6.70417 0
M  V30 716 N 66.5145 -1.57545 0.0417849 0
M  V30 717 C 67.4465 -2.07904 -0.964799 0
M  V30 718 C 68.4595 -1.00497 -1.28079 0
M  V30 719 O 69.6485 -1.28087 -1.24322 0
M  V30 720 C 66.7485 -2.49928 -2.28887 0
M  V30 721 C 65.9215 -3.80562 -2.15619 0
M  V30 722 C 64.9805 -4.08999 -3.31069 0
M  V30 723 O 64.0065 -4.79061 -3.0739 0
M  V30 724 N 65.2085 -3.6017 -4.55256 0
M  V30 725 H 67.9735 -2.94886 -0.535029 0
M  V30 726 H 65.5345 -1.61252 -0.144681 0
M  V30 727 H 67.5265 -2.66034 -3.04972 0
M  V30 728 H 66.0965 -1.68245 -2.63463 0
M  V30 729 H 65.3165 -3.74129 -1.24183 0
M  V30 730 H 66.6045 -4.66126 -2.03971 0
M  V30 731 H 66.0025 -3.03512 -4.77386 0
M  V30 732 H 64.5595 -3.81532 -5.28466 0
M  V30 733 N 67.9926 0.231505 -1.5589 0
M  V30 734 C 69.4036 0.799327 -1.68724 0
M  V30 735 C 69.7546 1.85398 -0.642022 0
M  V30 736 O 68.8796 2.1539 0.208784 0
M  V30 737 C 69.4746 1.45664 -3.05888 0
M  V30 738 C 68.0336 1.97197 -3.20609 0
M  V30 739 C 67.1806 0.828552 -2.64632 0
M  V30 740 H 70.1316 0.00702616 -1.58698 0
M  V30 741 H 70.1526 2.32517 -3.01191 0
M  V30 742 H 69.6646 0.688808 -3.81939 0
M  V30 743 H 67.7656 2.76813 -2.4941 0
M  V30 744 H 67.8786 2.15878 -4.27707 0
M  V30 745 H 66.2426 1.23321 -2.22854 0
M  V30 746 H 67.0256 0.0735544 -3.43221 0
M  V30 747 N 69.4707 1.49531 0.497807 0
M  V30 748 C 70.6987 1.62893 1.27567 0
M  V30 749 C 71.1137 0.301585 1.86376 0
M  V30 750 O 70.4707 -0.713335 1.67982 0
M  V30 751 C 70.5217 2.70013 2.40364 0
M  V30 752 O 70.2427 3.976 1.83972 0
M  V30 753 C 71.7437 2.94109 3.31685 0
M  V30 754 H 68.9637 0.548298 0.386794 0
M  V30 755 H 71.5077 1.95584 0.597245 0
M  V30 756 H 69.6627 2.40092 3.04031 0
M  V30 757 H 70.0767 4.56631 2.58047 0
M  V30 758 H 71.5507 3.72788 4.07104 0
M  V30 759 H 72.0277 2.04147 3.88871 0
M  V30 760 H 72.6337 3.2546 2.73781 0
M  V30 761 N 70.9488 -0.749086 1.3866 0
M  V30 762 C 72.1948 -1.51056 1.35314 0
M  V30 763 C 72.5278 -1.94121 -0.0553751 0
M  V30 764 O 71.8028 -1.65763 -1.01749 0
M  V30 765 C 72.0858 -2.76003 2.31288 0
M  V30 766 C 71.9388 -2.39047 3.8102 0
M  V30 767 C 73.2578 -3.78046 2.2532 0
M  V30 768 H 70.3768 -0.547972 0.492844 0
M  V30 769 H 73.0188 -0.857628 1.69543 0
M  V30 770 H 71.1688 -3.31716 2.02229 0
M  V30 771 H 72.8408 -1.89074 4.20771 0
M  V30 772 H 71.0838 -1.71449 3.98482 0
M  V30 773 H 71.7548 -3.28462 4.4364 0
M  V30 774 H 74.2308 -3.31884 2.50983 0
M  V30 775 H 73.1068 -4.63159 2.94576 0
M  V30 776 H 73.3678 -4.23957 1.25352 0
M  V30 777 N 72.4269 -1.23603 -0.977757 0
M  V30 778 C 73.7039 -0.977897 -1.69401 0
M  V30 779 C 74.0839 0.502738 -2.05026 0
M  V30 780 O 73.4319 1.47459 -1.74551 0
M  V30 781 C 73.6419 -1.89077 -2.93345 0
M  V30 782 C 74.9899 -2.15579 -3.65802 0
M  V30 783 O 76.0139 -1.86648 -3.03383 0
M  V30 784 O 74.8729 -2.64658 -4.78141 0
M  V30 785 H 71.9669 -0.369025 -0.740101 0
M  V30 786 H 74.5129 -1.34657 -1.03274 0
M  V30 787 H 73.2849 -2.89158 -2.63634 0
M  V30 788 H 72.9079 -1.52463 -3.67207 0
M  V30 789 N 73.905 1.17692 -1.04816 0
M  V30 790 C 74.852 2.21581 -0.645797 0
M  V30 791 C 75.822 1.62367 0.350159 0
M  V30 792 O 77.007 1.89254 0.242433 0
M  V30 793 C 74.147 3.45092 -0.0227568 0
M  V30 794 C 73.26 4.18613 -1.06709 0
M  V30 795 C 72.395 5.29602 -0.411767 0
M  V30 796 C 71.434 5.94904 -1.44067 0
M  V30 797 N 70.571 6.97414 -0.809781 0
M  V30 798 H 75.411 2.55353 -1.5362 0
M  V30 799 H 72.948 1.25438 -0.768364 0
M  V30 800 H 74.906 4.15679 0.35588 0
M  V30 801 H 73.536 3.11917 0.831122 0
M  V30 802 H 72.588 3.46779 -1.5636 0
M  V30 803 H 73.9 4.63293 -1.84827 0
M  V30 804 H 73.054 6.06696 0.0206623 0
M  V30 805 H 71.793 4.86045 0.401438 0
M  V30 806 H 70.798 5.16544 -1.88316 0
M  V30 807 H 72.023 6.40542 -2.25571 0
M  V30 808 H 69.969 6.55998 -0.0170186 0
M  V30 809 H 69.886 7.40386 -1.52856 0
M  V30 810 H 71.154 7.78463 -0.401999 0
M  V30 811 N 75.3831 0.828654 1.34056 0
M  V30 812 C 76.6291 0.42008 1.98402 0
M  V30 813 C 76.9621 -1.01564 1.65525 0
M  V30 814 O 76.2371 -1.70834 0.929831 0
M  V30 815 C 76.5201 0.62927 3.54559 0
M  V30 816 C 76.3731 2.11152 3.97159 0
M  V30 817 C 77.6921 0.0688756 4.40046 0
M  V30 818 H 74.8111 0.154104 0.720709 0
M  V30 819 H 77.4531 1.04228 1.5886 0
M  V30 820 H 75.6031 0.0996418 3.88372 0
M  V30 821 H 77.2751 2.70522 3.73651 0
M  V30 822 H 75.5181 2.59985 3.47261 0
M  V30 823 H 76.1891 2.20868 5.05887 0
M  V30 824 H 78.6651 0.521458 4.1282 0
M  V30 825 H 77.5411 0.245006 5.48353 0
M  V30 826 H 77.8021 -1.0266 4.30015 0
M  V30 827 N 76.8612 -1.46375 0.584142 0
M  V30 828 C 77.8112 -2.27371 -0.169232 0
M  V30 829 C 78.7952 -1.35955 -0.860523 0
M  V30 830 O 79.9872 -1.60119 -0.754382 0
M  V30 831 C 77.1162 -3.22334 -1.18134 0
M  V30 832 C 76.2022 -4.21235 -0.492088 0
M  V30 833 N 76.5932 -5.03766 0.453129 0
M  V30 834 C 74.8912 -4.39773 -0.742652 0
M  V30 835 C 75.5922 -5.75366 0.85609 0
M  V30 836 N 74.5682 -5.43214 0.204926 0
M  V30 837 H 78.3702 -2.88572 0.557097 0
M  V30 838 H 75.8842 -1.57242 0.406042 0
M  V30 839 H 77.8812 -3.79071 -1.73525 0
M  V30 840 H 76.5412 -2.62693 -1.90847 0
M  V30 841 H 77.5522 -5.11227 0.828723 0
M  V30 842 H 74.2292 -3.91279 -1.45625 0
M  V30 843 H 75.6192 -6.5172 1.63434 0
M  V30 844 N 78.3393 -0.321999 -1.54275 0
M  V30 845 C 79.2493 0.553631 -2.27974 0
M  V30 846 C 80.2653 1.13054 -1.32268 0
M  V30 847 O 81.4413 1.15084 -1.6528 0
M  V30 848 C 78.5063 1.69927 -3.02201 0
M  V30 849 C 77.5673 1.15433 -4.1349 0
M  V30 850 C 76.8003 2.24537 -4.84168 0
M  V30 851 O 77.0233 3.44852 -4.5435 0
M  V30 852 O 75.9573 1.90044 -5.7111 0
M  V30 853 H 79.7833 -0.0448345 -3.03667 0
M  V30 854 H 77.3683 -0.0877418 -1.49142 0
M  V30 855 H 79.2503 2.3663 -3.48689 0
M  V30 856 H 77.9253 2.28395 -2.29385 0
M  V30 857 H 76.8323 0.452436 -3.71354 0
M  V30 858 H 78.1653 0.614805 -4.88345 0
M  V30 859 N 79.8174 1.5752 -0.0501392 0
M  V30 860 C 81.2334 1.56631 0.306402 0
M  V30 861 C 81.4334 1.0577 1.71508 0
M  V30 862 O 80.4894 0.713837 2.422 0
M  V30 863 C 81.8024 3.00393 0.135811 0
M  V30 864 C 83.3504 3.12315 0.206993 0
M  V30 865 C 83.8254 4.57954 0.064944 0
M  V30 866 N 85.3164 4.63041 0.121254 0
M  V30 867 C 86.0514 5.73389 0.0354381 0
M  V30 868 N 85.5474 6.92724 -0.102666 0
M  V30 869 N 87.3404 5.62026 0.090946 0
M  V30 870 H 79.4914 1.88903 -0.971046 0
M  V30 871 H 81.7544 0.869876 -0.376855 0
M  V30 872 H 81.4604 3.41635 -0.835384 0
M  V30 873 H 81.3344 3.66373 0.897275 0
M  V30 874 H 83.7214 2.70973 1.16866 0
M  V30 875 H 83.8024 2.49016 -0.585208 0
M  V30 876 H 83.4464 4.99981 -0.893394 0
M  V30 877 H 83.3764 5.19258 0.876277 0
M  V30 878 H 85.8674 3.77216 0.227284 0
M  V30 879 H 86.1804 7.72633 -0.160882 0
M  V30 880 H 84.5254 6.94864 -0.137737 0
M  V30 881 H 87.7164 4.67684 0.197388 0
M  V30 882 H 87.8894 6.47997 0.0206089 0
M  V30 883 N 81.2955 -0.223234 1.56011 0
M  V30 884 C 82.2425 -1.27664 1.92277 0
M  V30 885 C 83.2125 -1.46659 0.779763 0
M  V30 886 O 84.3975 -1.60256 1.03551 0
M  V30 887 C 81.5375 -2.62234 2.24338 0
M  V30 888 C 80.6505 -2.51051 3.51564 0
M  V30 889 C 79.7855 -3.78133 3.7308 0
M  V30 890 C 78.8245 -3.61665 4.93827 0
M  V30 891 N 77.9615 -4.80693 5.11741 0
M  V30 892 H 82.8015 -0.960358 2.82101 0
M  V30 893 H 80.3385 -0.462901 1.39627 0
M  V30 894 H 82.2965 -3.40596 2.40936 0
M  V30 895 H 80.9265 -2.91961 1.3769 0
M  V30 896 H 79.9785 -1.64132 3.43169 0
M  V30 897 H 81.2905 -2.34803 4.40079 0
M  V30 898 H 80.4445 -4.64938 3.89766 0
M  V30 899 H 79.1835 -3.97304 2.82844 0
M  V30 900 H 78.1885 -2.73244 4.77093 0
M  V30 901 H 79.4135 -3.43966 5.85546 0
M  V30 902 H 77.3595 -5.00181 4.24446 0
M  V30 903 H 77.2765 -4.67165 5.94384 0
M  V30 904 H 78.5445 -5.6893 5.3286 0
M  V30 905 N 82.7736 -1.49793 -0.48987 0
M  V30 906 C 84.0136 -1.61466 -1.25332 0
M  V30 907 C 84.3776 -0.299688 -1.89647 0
M  V30 908 O 85.5786 -0.291687 -2.67213 0
M  V30 909 C 83.8496 -2.74944 -2.28343 0
M  V30 910 S 85.4086 -3.06637 -3.13878 0
M  V30 911 H 82.2266 -0.569411 -0.425784 0
M  V30 912 H 84.8286 -1.875 -0.553541 0
M  V30 913 H 83.5326 -3.68994 -1.79643 0
M  V30 914 H 83.0636 -2.50938 -3.02975 0
M  V30 915 H 85.0786 -2.49015 -4.29192 0
M  V30 916 N 84.2517 0.741722 -1.39055 0
M  V30 917 C 85.4997 1.49818 -1.35643 0
M  V30 918 C 85.8207 1.94938 0.0491642 0
M  V30 919 O 85.0907 1.68505 0.999141 0
M  V30 920 H 83.6707 0.555755 -0.499144 0
M  V30 921 H 86.3327 0.880957 -1.73854 0
M  V30 922 H 85.4287 2.38348 -2.01486 0
M  V30 923 N 85.7298 1.2412 0.971189 0
M  V30 924 C 86.6928 1.03156 2.04674 0
M  V30 925 C 87.6928 -0.00990322 1.60797 0
M  V30 926 O 88.8828 0.230729 1.72665 0
M  V30 927 C 86.0148 0.562765 3.36223 0
M  V30 928 H 87.2078 1.98614 2.24705 0
M  V30 929 H 84.7608 1.06293 1.14593 0
M  V30 930 H 85.4958 -0.395176 3.21883 0
M  V30 931 H 85.2808 1.31441 3.69413 0
M  V30 932 H 86.7708 0.437015 4.15307 0
M  V30 933 N 87.2079 -1.17134 1.05439 0
M  V30 934 C 88.4539 -1.87733 0.767077 0
M  V30 935 C 88.7869 -1.8098 -0.704253 0
M  V30 936 O 88.0619 -1.21951 -1.5152 0
M  V30 937 C 88.3449 -3.37659 1.25133 0
M  V30 938 C 88.1979 -3.53149 2.78578 0
M  V30 939 C 89.5169 -4.31768 0.852324 0
M  V30 940 H 86.6359 -0.681687 0.280129 0
M  V30 941 H 89.2779 -1.37732 1.30881 0
M  V30 942 H 87.4279 -3.80373 0.790469 0
M  V30 943 H 89.0999 -3.19434 3.32806 0
M  V30 944 H 87.3429 -2.95345 3.17732 0
M  V30 945 H 88.0139 -4.58403 3.07523 0
M  V30 946 H 90.4899 -3.96909 1.24911 0
M  V30 947 H 89.3659 -5.35199 1.21873 0
M  V30 948 H 89.6269 -4.41429 -0.243485 0
M  V30 949 N 88.686 -0.835752 -1.33615 0
M  V30 950 C 90.102 -0.523139 -1.50783 0
M  V30 951 C 90.302 0.950171 -1.77691 0
M  V30 952 O 89.358 1.73411 -1.83534 0
M  V30 953 C 90.671 -1.39378 -2.66448 0
M  V30 954 C 92.219 -1.39223 -2.80332 0
M  V30 955 C 92.694 -2.24765 -3.99055 0
M  V30 956 N 94.185 -2.22458 -4.06284 0
M  V30 957 C 94.92 -2.85386 -4.97336 0
M  V30 958 N 94.416 -3.57354 -5.93523 0
M  V30 959 N 96.209 -2.74872 -4.90308 0
M  V30 960 H 88.36 -1.78952 -1.14411 0
M  V30 961 H 90.623 -0.763297 -0.562212 0
M  V30 962 H 90.329 -2.44061 -2.53234 0
M  V30 963 H 90.203 -1.0676 -3.61776 0
M  V30 964 H 92.59 -0.353136 -2.92979 0
M  V30 965 H 92.671 -1.75846 -1.85773 0
M  V30 966 H 92.315 -3.28732 -3.87167 0
M  V30 967 H 92.245 -1.85485 -4.92852 0
M  V30 968 H 94.736 -1.70119 -3.37443 0
M  V30 969 H 95.049 -4.02584 -6.59656 0
M  V30 970 H 93.394 -3.61461 -5.93608 0
M  V30 971 H 96.585 -2.18213 -4.14126 0
M  V30 972 H 96.758 -3.24199 -5.61069 0
M  V30 973 N 90.1641 1.46063 -0.591896 0
M  V30 974 C 91.0741 2.34192 0.13831 0
M  V30 975 C 92.0901 1.50305 0.876608 0
M  V30 976 O 93.2661 1.8315 0.837728 0
M  V30 977 C 90.3311 3.27656 1.13326 0
M  V30 978 C 89.3921 4.27445 0.39863 0
M  V30 979 C 88.6251 5.16443 1.34618 0
M  V30 980 O 88.8481 5.08553 2.58321 0
M  V30 981 O 87.7821 5.95843 0.851768 0
M  V30 982 H 91.6081 2.98002 -0.58552 0
M  V30 983 H 89.1931 1.45188 -0.352239 0
M  V30 984 H 91.0751 3.85291 1.70671 0
M  V30 985 H 89.7501 2.6643 1.83839 0
M  V30 986 H 88.6571 3.73471 -0.216895 0
M  V30 987 H 89.9901 4.91482 -0.265709 0
M  V30 988 N 91.6422 0.330177 1.54103 0
M  V30 989 C 92.5742 -0.566902 2.22079 0
M  V30 990 C 93.5872 -1.07462 1.22294 0
M  V30 991 O 94.7762 -0.987065 1.48726 0
M  V30 992 C 91.8762 -1.79138 2.87685 0
M  V30 993 C 91.0492 -1.42123 4.13666 0
M  V30 994 C 90.1082 -2.50394 4.62806 0
M  V30 995 O 89.1342 -2.14261 5.27334 0
M  V30 996 N 90.3362 -3.81433 4.37595 0
M  V30 997 H 93.1012 0.0151844 2.99696 0
M  V30 998 H 90.6622 0.153681 1.61169 0
M  V30 999 H 92.6542 -2.50975 3.1748 0
M  V30 1000 H 91.2242 -2.28115 2.13734 0
M  V30 1001 H 90.4442 -0.534201 3.90564 0
M  V30 1002 H 91.7322 -1.14971 4.9564 0
M  V30 1003 H 91.1302 -4.13584 3.8596 0
M  V30 1004 H 89.6872 -4.4948 4.72029 0
M  V30 1005 N 93.1203 -1.57491 0.0584922 0
M  V30 1006 C 94.3503 -1.9701 -0.622134 0
M  V30 1007 C 94.7583 -0.935034 -1.6448 0
M  V30 1008 O 94.1013 0.0882904 -1.83488 0
M  V30 1009 C 94.1633 -3.32794 -1.35972 0
M  V30 1010 C 93.8273 -4.54343 -0.492043 0
M  V30 1011 C 94.8243 -5.19323 0.244901 0
M  V30 1012 C 92.5093 -5.00534 -0.420821 0
M  V30 1013 C 94.5033 -6.28835 1.04143 0
M  V30 1014 C 92.1903 -6.09921 0.379389 0
M  V30 1015 C 93.1883 -6.73933 1.10919 0
M  V30 1016 O 92.8763 -7.81216 1.89623 0
M  V30 1017 H 92.6083 -0.653127 -0.174359 0
M  V30 1018 H 95.1623 -2.05029 0.123418 0
M  V30 1019 H 93.3923 -3.21351 -2.15105 0
M  V30 1020 H 95.0813 -3.5701 -1.93129 0
M  V30 1021 H 95.8473 -4.8459 0.19939 0
M  V30 1022 H 91.7263 -4.50496 -0.978474 0
M  V30 1023 H 95.2703 -6.7873 1.61157 0
M  V30 1024 H 91.1673 -6.44089 0.426512 0
M  V30 1025 H 91.9353 -7.98029 1.81913 0
M  V30 1026 N 94.5984 0.214957 -1.56127 0
M  V30 1027 C 95.8464 0.936518 -1.79091 0
M  V30 1028 C 96.1674 1.84606 -0.628148 0
M  V30 1029 O 95.4374 1.92664 0.35462 0
M  V30 1030 H 94.0174 0.3488 -0.660566 0
M  V30 1031 H 96.6794 0.22523 -1.93594 0
M  V30 1032 H 95.7754 1.53943 -2.71492 0
M  V30 1033 N 96.0765 1.50051 0.48192 0
M  V30 1034 C 97.3255 1.59741 1.23149 0
M  V30 1035 C 97.6385 0.298163 1.93314 0
M  V30 1036 O 98.8445 0.273835 2.70116 0
M  V30 1037 C 97.3005 2.81926 2.23708 0
M  V30 1038 C 96.9085 4.18685 1.59396 0
M  V30 1039 C 98.6525 3.00956 2.99375 0
M  V30 1040 C 96.5595 5.3207 2.58178 0
M  V30 1041 H 95.4895 0.594838 0.46334 0
M  V30 1042 H 98.1405 1.76467 0.503169 0
M  V30 1043 H 96.5225 2.58736 2.99786 0
M  V30 1044 H 97.6965 4.52088 0.891811 0
M  V30 1045 H 96.0115 4.05171 0.960503 0
M  V30 1046 H 98.6085 3.82836 3.73283 0
M  V30 1047 H 98.9515 2.12258 3.58123 0
M  V30 1048 H 99.4845 3.24277 2.30411 0
M  V30 1049 H 96.2235 6.22888 2.04184 0
M  V30 1050 H 95.7435 5.03098 3.26577 0
M  V30 1051 H 97.4225 5.62196 3.20225 0
M  V30 1052 N 97.5546 -0.734337 1.39446 0
M  V30 1053 C 98.4866 -1.85861 1.34121 0
M  V30 1054 C 99.4996 -1.60871 0.249864 0
M  V30 1055 O 100.689 -1.71093 0.508865 0
M  V30 1056 C 97.7886 -3.21899 1.05991 0
M  V30 1057 C 96.9616 -3.74239 2.26415 0
M  V30 1058 C 96.0206 -4.88841 1.94733 0
M  V30 1059 O 95.0466 -5.02468 2.67422 0
M  V30 1060 N 96.2486 -5.73261 0.913884 0
M  V30 1061 H 99.0136 -1.90934 2.31007 0
M  V30 1062 H 96.5746 -0.915102 1.33557 0
M  V30 1063 H 98.5666 -3.96136 0.828147 0
M  V30 1064 H 97.1366 -3.12091 0.178361 0
M  V30 1065 H 96.3566 -2.91347 2.65539 0
M  V30 1066 H 97.6446 -4.05942 3.06738 0
M  V30 1067 H 97.0426 -5.64842 0.311476 0
M  V30 1068 H 95.5996 -6.47563 0.742015 0
M  V30 1069 N 99.0327 -1.24633 -0.964593 0
M  V30 1070 C 100.449 -1.01239 -1.2338 0
M  V30 1071 C 100.649 0.2769 -1.99588 0
M  V30 1072 O 99.7047 0.992241 -2.32187 0
M  V30 1073 C 101.018 -2.22937 -2.01791 0
M  V30 1074 C 102.566 -2.27594 -2.14872 0
M  V30 1075 C 103.041 -3.48921 -2.96678 0
M  V30 1076 N 104.532 -3.49257 -3.04259 0
M  V30 1077 C 105.267 -4.39795 -3.67924 0
M  V30 1078 N 104.763 -5.40591 -4.33281 0
M  V30 1079 N 106.556 -4.275 -3.64966 0
M  V30 1080 H 98.7067 -2.0748 -0.454502 0
M  V30 1081 H 100.97 -0.910647 -0.26349 0
M  V30 1082 H 100.676 -3.16587 -1.53184 0
M  V30 1083 H 100.55 -2.25306 -3.02518 0
M  V30 1084 H 102.937 -1.34473 -2.6268 0
M  V30 1085 H 103.018 -2.2925 -1.13482 0
M  V30 1086 H 102.662 -4.42359 -2.49562 0
M  V30 1087 H 102.592 -3.4451 -3.98272 0
M  V30 1088 H 105.083 -2.76337 -2.57771 0
M  V30 1089 H 105.396 -6.05904 -4.79687 0
M  V30 1090 H 103.741 -5.44475 -4.3194 0
M  V30 1091 H 106.932 -3.47987 -3.13086 0
M  V30 1092 H 107.105 -4.98258 -4.14298 0
M  V30 1093 N 100.511 1.16574 -1.06058 0
M  V30 1094 C 101.757 1.87324 -0.777022 0
M  V30 1095 C 102.09 1.81351 0.694645 0
M  V30 1096 O 101.365 1.22753 1.50871 0
M  V30 1097 C 101.648 3.36991 -1.26922 0
M  V30 1098 C 101.501 3.51667 -2.80447 0
M  V30 1099 C 102.82 4.3131 -0.87521 0
M  V30 1100 H 99.9388 0.680191 -0.28374 0
M  V30 1101 H 102.581 1.37036 -1.3161 0
M  V30 1102 H 100.731 3.79949 -0.81063 0
M  V30 1103 H 102.403 3.17664 -3.34495 0
M  V30 1104 H 100.646 2.93656 -3.19294 0
M  V30 1105 H 101.317 4.56766 -3.0995 0
M  V30 1106 H 103.793 3.9624 -1.27014 0
M  V30 1107 H 102.669 5.34545 -1.2471 0
M  V30 1108 H 102.93 4.41552 0.220071 0
M  V30 1109 N 101.989 0.842826 1.3317 0
M  V30 1110 C 102.899 0.281444 2.32906 0
M  V30 1111 C 103.915 -0.594587 1.63526 0
M  V30 1112 O 105.091 -0.49777 1.95152 0
M  V30 1113 C 102.156 -0.530929 3.42611 0
M  V30 1114 C 101.217 0.369843 4.27704 0
M  V30 1115 C 100.45 -0.403853 5.3217 0
M  V30 1116 O 100.673 -1.63513 5.46461 0
M  V30 1117 O 99.6069 0.224199 6.01482 0
M  V30 1118 H 103.433 1.10744 2.82789 0
M  V30 1119 H 101.018 0.60545 1.36582 0
M  V30 1120 H 102.9 -0.992437 4.09547 0
M  V30 1121 H 101.575 -1.33392 2.94938 0
M  V30 1122 H 100.482 0.879275 3.6362 0
M  V30 1123 H 101.815 1.13771 4.78871 0
M  V30 1124 N 103.467 -1.45747 0.599634 0
M  V30 1125 C 104.43 -2.28917 -0.113835 0
M  V30 1126 C 105.43 -1.3933 -0.802729 0
M  V30 1127 O 106.62 -1.61534 -0.652103 0
M  V30 1128 C 103.752 -3.20152 -1.17114 0
M  V30 1129 H 104.945 -2.93478 0.617289 0
M  V30 1130 H 102.498 -1.52137 0.358327 0
M  V30 1131 H 103.233 -2.60374 -1.93329 0
M  V30 1132 H 103.018 -3.86133 -0.681468 0
M  V30 1133 H 104.508 -3.82708 -1.67105 0
M  V30 1134 N 104.945 -0.338344 -1.53925 0
M  V30 1135 C 105.878 0.563758 -2.21127 0
M  V30 1136 C 106.856 1.10433 -1.19345 0
M  V30 1137 O 108.04 1.16557 -1.48144 0
M  V30 1138 C 105.167 1.77505 -2.88461 0
M  V30 1139 C 104.213 1.3644 -4.04087 0
M  V30 1140 S 105.046 0.388593 -5.34088 0
M  V30 1141 C 106.202 1.60683 -6.04923 0
M  V30 1142 H 106.435 -0.00704546 -2.97299 0
M  V30 1143 H 103.968 -0.122418 -1.53914 0
M  V30 1144 H 105.926 2.46999 -3.27875 0
M  V30 1145 H 104.587 2.31706 -2.12064 0
M  V30 1146 H 103.78 2.26739 -4.50117 0
M  V30 1147 H 103.382 0.748998 -3.66423 0
M  V30 1148 H 105.674 2.54209 -6.28 0
M  V30 1149 H 106.617 1.18842 -6.98056 0
M  V30 1150 H 107.025 1.80052 -5.35015 0
M  V30 1151 N 106.423 1.57458 -0.0668435 0
M  V30 1152 C 107.353 2.15468 0.899764 0
M  V30 1153 C 108.334 1.08042 1.31381 0
M  V30 1154 O 109.519 1.36054 1.38574 0
M  V30 1155 C 106.649 2.71232 2.16911 0
M  V30 1156 C 105.603 3.83781 1.89463 0
M  V30 1157 C 104.929 4.26127 3.22986 0
M  V30 1158 C 106.229 5.08238 1.20381 0
M  V30 1159 H 107.923 2.96488 0.416529 0
M  V30 1160 H 105.469 1.4262 0.198908 0
M  V30 1161 H 107.422 3.10458 2.84945 0
M  V30 1162 H 106.146 1.87426 2.67468 0
M  V30 1163 H 104.805 3.45051 1.23836 0
M  V30 1164 H 104.453 3.39249 3.71374 0
M  V30 1165 H 104.153 5.01993 3.05413 0
M  V30 1166 H 105.677 4.67966 3.92225 0
M  V30 1167 H 107.091 5.44811 1.78475 0
M  V30 1168 H 105.488 5.89349 1.13083 0
M  V30 1169 H 106.558 4.84558 0.182153 0
M  V30 1170 N 107.901 -0.206675 1.56239 0
M  V30 1171 C 108.851 -1.26 1.90021 0
M  V30 1172 C 109.835 -1.41566 0.764721 0
M  V30 1173 O 111.027 -1.44131 1.02739 0
M  V30 1174 C 108.156 -2.6073 2.23326 0
M  V30 1175 C 107.242 -2.49005 3.43304 0
M  V30 1176 N 107.633 -2.06946 4.61527 0
M  V30 1177 C 105.931 -2.79927 3.47213 0
M  V30 1178 C 106.632 -2.06832 5.43687 0
M  V30 1179 N 105.608 -2.47892 4.83788 0
M  V30 1180 H 109.41 -0.925955 2.78932 0
M  V30 1181 H 106.924 -0.415172 1.57003 0
M  V30 1182 H 108.921 -3.36798 2.45708 0
M  V30 1183 H 107.581 -2.94968 1.35735 0
M  V30 1184 H 108.592 -1.77839 4.86409 0
M  V30 1185 H 105.269 -3.18438 2.70006 0
M  V30 1186 H 106.659 -1.76312 6.48354 0
M  V30 1187 N 109.379 -1.50304 -0.473955 0
M  V30 1188 C 110.607 -1.64902 -1.24959 0
M  V30 1189 C 111.022 -0.331198 -1.85872 0
M  V30 1190 O 110.379 0.68652 -1.69095 0
M  V30 1191 C 110.43 -2.73803 -2.36038 0
M  V30 1192 O 110.151 -4.00477 -1.77624 0
M  V30 1193 C 111.652 -2.99349 -3.26964 0
M  V30 1194 H 108.872 -0.554383 -0.378022 0
M  V30 1195 H 111.416 -1.9651 -0.566054 0
M  V30 1196 H 109.571 -2.44898 -3.00173 0
M  V30 1197 H 109.985 -4.60678 -2.5075 0
M  V30 1198 H 111.459 -3.79217 -4.01121 0
M  V30 1199 H 111.936 -2.10307 -3.85574 0
M  V30 1200 H 112.542 -3.29774 -2.68569 0
M  V30 1201 N 110.857 0.726932 -1.39834 0
M  V30 1202 C 111.787 1.85405 -1.41941 0
M  V30 1203 C 112.768 1.67751 -0.281728 0
M  V30 1204 O 113.953 1.8795 -0.488717 0
M  V30 1205 C 111.083 3.23243 -1.2701 0
M  V30 1206 C 110.037 3.55549 -2.38262 0
M  V30 1207 C 109.363 4.9241 -2.08415 0
M  V30 1208 C 110.663 3.577 -3.80589 0
M  V30 1209 H 112.357 1.83899 -2.36266 0
M  V30 1210 H 109.903 0.883349 -1.13723 0
M  V30 1211 H 111.856 4.01775 -1.27103 0
M  V30 1212 H 110.58 3.25296 -0.291564 0
M  V30 1213 H 109.239 2.79351 -2.37399 0
M  V30 1214 H 108.887 4.91052 -1.0898 0
M  V30 1215 H 108.587 5.14992 -2.82943 0
M  V30 1216 H 110.111 5.73289 -2.10171 0
M  V30 1217 H 111.525 4.26293 -3.83337 0
M  V30 1218 H 109.922 3.91804 -4.54543 0
M  V30 1219 H 110.992 2.57328 -4.10987 0
M  V30 1220 N 112.336 1.25143 0.95797 0
M  V30 1221 C 113.246 1.06968 2.08794 0
M  V30 1222 C 114.262 0.00773911 1.73998 0
M  V30 1223 O 115.438 0.207972 2.00323 0
M  V30 1224 C 112.503 0.68691 3.39827 0
M  V30 1225 C 111.564 1.82641 3.88511 0
M  V30 1226 C 110.797 1.46181 5.1329 0
M  V30 1227 O 111.02 0.355971 5.69288 0
M  V30 1228 O 109.954 2.29085 5.566 0
M  V30 1229 H 113.78 2.01723 2.27027 0
M  V30 1230 H 111.365 1.04051 1.07209 0
M  V30 1231 H 113.247 0.485417 4.18595 0
M  V30 1232 H 111.922 -0.231417 3.22872 0
M  V30 1233 H 110.829 2.08274 3.10762 0
M  V30 1234 H 112.162 2.72386 4.09959 0
M  V30 1235 N 113.814 -1.1601 1.06675 0
M  V30 1236 C 115.23 -1.38622 0.790948 0
M  V30 1237 C 115.43 -1.92109 -0.607965 0
M  V30 1238 O 114.486 -2.12239 -1.36787 0
M  V30 1239 C 115.799 -2.36347 1.85905 0
M  V30 1240 C 117.347 -2.50023 1.88301 0
M  V30 1241 C 117.822 -3.51033 2.94176 0
M  V30 1242 N 119.313 -3.58563 2.93235 0
M  V30 1243 C 120.048 -4.36521 3.71803 0
M  V30 1244 N 119.544 -5.17869 4.602 0
M  V30 1245 N 121.337 -4.31541 3.60178 0
M  V30 1246 H 113.488 -0.796294 1.96908 0
M  V30 1247 H 115.751 -0.412597 0.853503 0
M  V30 1248 H 115.457 -2.04147 2.86386 0
M  V30 1249 H 115.331 -3.36042 1.71334 0
M  V30 1250 H 117.718 -2.81524 0.884769 0
M  V30 1251 H 117.799 -1.5035 2.06951 0
M  V30 1252 H 117.443 -3.20268 3.94196 0
M  V30 1253 H 117.373 -4.50445 2.72776 0
M  V30 1254 H 119.864 -3.00496 2.29152 0
M  V30 1255 H 120.177 -5.74578 5.16797 0
M  V30 1256 H 118.522 -5.17199 4.64253 0
M  V30 1257 H 121.713 -3.67051 2.90502 0
M  V30 1258 H 121.886 -4.9205 4.21653 0
M  V30 1259 N 115.292 -0.849877 -1.32721 0
M  V30 1260 C 116.541 -0.447175 -1.96681 0
M  V30 1261 C 116.854 1.00135 -1.68025 0
M  V30 1262 O 118.06 1.50926 -2.25685 0
M  V30 1263 C 116.516 -0.7487 -3.52026 0
M  V30 1264 C 116.124 -2.21264 -3.89546 0
M  V30 1265 C 117.868 -0.413487 -4.22481 0
M  V30 1266 C 115.775 -2.45763 -5.37917 0
M  V30 1267 H 114.705 -0.163486 -0.736063 0
M  V30 1268 H 117.356 -1.03999 -1.51183 0
M  V30 1269 H 115.738 -0.0853727 -3.95908 0
M  V30 1270 H 116.912 -2.91736 -3.56689 0
M  V30 1271 H 115.227 -2.5119 -3.32103 0
M  V30 1272 H 117.824 -0.574017 -5.3161 0
M  V30 1273 H 118.167 0.644492 -4.11281 0
M  V30 1274 H 118.7 -1.03251 -3.84167 0
M  V30 1275 H 115.439 -3.50168 -5.54132 0
M  V30 1276 H 114.959 -1.79864 -5.72197 0
M  V30 1277 H 116.638 -2.29471 -6.0494 0
M  V30 1278 N 116.77 1.45427 -0.607355 0
M  V30 1279 C 117.718 2.32269 0.12411 0
M  V30 1280 C 118.712 1.45955 0.859854 0
M  V30 1281 O 119.918 1.6244 0.775447 0
M  V30 1282 H 116.293 0.749691 0.0588839 0
M  V30 1283 H 118.264 2.91743 -0.626762 0
M  V30 1284 C 117.013 3.29567 1.1082 0
M  V30 1285 H 116.336 3.95978 0.551492 0
M  V30 1286 H 117.776 3.93061 1.58995 0
M  V30 1287 C 116.235 2.56722 2.18164 0
M  V30 1288 O 116.765 2.34842 3.25902 0
M  V30 1289 N 114.971 2.16861 1.93442 0
M  V30 1290 H 114.518 2.34855 1.05834 0
M  V30 1291 H 114.476 1.68444 2.65469 0
M  V30 1292 N 118.248 0.346503 1.53744 0
M  V30 1293 C 119.473 -0.253074 2.0585 0
M  V30 1294 C 119.898 -1.43202 1.21962 0
M  V30 1295 O 119.256 -1.79783 0.234073 0
M  V30 1296 C 119.304 -0.643193 3.54817 0
M  V30 1297 O 118.408 -1.74286 3.73762 0
M  V30 1298 H 117.749 -0.0413583 0.662711 0
M  V30 1299 H 120.279 0.501574 1.98357 0
M  V30 1300 H 120.289 -0.919526 3.97503 0
M  V30 1301 H 118.964 0.218966 4.15323 0
M  V30 1302 H 117.541 -1.46356 3.42979 0
M  V30 1303 N 119.726 -1.57421 0.075193 0
M  V30 1304 C 121.003 -1.85029 -0.634329 0
M  V30 1305 C 121.383 -0.968305 -1.87582 0
M  V30 1306 O 120.731 -0.0354749 -2.28472 0
M  V30 1307 C 120.941 -3.35286 -0.968742 0
M  V30 1308 C 122.289 -4.02875 -1.34077 0
M  V30 1309 O 123.313 -3.40051 -1.06037 0
M  V30 1310 O 122.172 -5.13691 -1.86506 0
M  V30 1311 H 119.266 -0.7645 -0.315387 0
M  V30 1312 H 121.812 -1.69366 0.106382 0
M  V30 1313 H 120.584 -3.91203 -0.0871376 0
M  V30 1314 H 120.207 -3.56223 -1.7661 0
M  V30 1315 N 121.204 0.198386 -1.56346 0
M  V30 1316 C 122.615 0.763358 -1.70381 0
M  V30 1317 C 122.966 1.83995 -0.681203 0
M  V30 1318 O 122.091 2.15785 0.16305 0
M  V30 1319 C 122.686 1.39143 -3.08909 0
M  V30 1320 C 121.245 1.90352 -3.2472 0
M  V30 1321 C 120.392 0.772233 -2.6633 0
M  V30 1322 H 123.343 -0.0266377 -1.58678 0
M  V30 1323 H 123.364 2.26076 -3.06055 0
M  V30 1324 H 122.876 0.607638 -3.83314 0
M  V30 1325 H 120.977 2.71461 -2.55225 0
M  V30 1326 H 121.09 2.06757 -4.3219 0
M  V30 1327 H 119.454 1.18566 -2.2542 0
M  V30 1328 H 120.237 0.00073556 -3.433 0
M  V30 1329 N 122.682 1.50554 0.465978 0
M  V30 1330 C 123.91 1.65563 1.24083 0
M  V30 1331 C 124.325 0.341051 1.85694 0
M  V30 1332 O 123.682 -0.677543 1.69457 0
M  V30 1333 C 123.733 2.75051 2.34583 0
M  V30 1334 O 123.454 4.01413 1.75497 0
M  V30 1335 C 124.955 3.01078 3.25372 0
M  V30 1336 H 122.175 0.55638 0.375077 0
M  V30 1337 H 124.719 1.96807 0.555624 0
M  V30 1338 H 122.874 2.46486 2.9887 0
M  V30 1339 H 123.288 4.62002 2.48303 0
M  V30 1340 H 124.762 3.81339 3.99105 0
M  V30 1341 H 125.239 2.12349 3.84453 0
M  V30 1342 H 125.845 3.31194 2.66816 0
M  V30 1343 N 124.16 -0.719506 1.40217 0
M  V30 1344 C 125.09 -1.8465 1.42922 0
M  V30 1345 C 126.071 -1.67599 0.29062 0
M  V30 1346 O 127.256 -1.87688 0.498677 0
M  V30 1347 C 124.386 -3.22565 1.28722 0
M  V30 1348 C 123.34 -3.54281 2.40144 0
M  V30 1349 C 122.666 -4.91298 2.11023 0
M  V30 1350 C 123.966 -3.55676 3.82481 0
M  V30 1351 H 125.66 -1.82644 2.37237 0
M  V30 1352 H 123.206 -0.877305 1.1419 0
M  V30 1353 H 125.159 -4.01095 1.29232 0
M  V30 1354 H 123.883 -3.25137 0.308811 0
M  V30 1355 H 122.542 -2.78088 2.38877 0
M  V30 1356 H 122.19 -4.90468 1.11582 0
M  V30 1357 H 121.89 -5.13485 2.8567 0
M  V30 1358 H 123.414 -5.72166 2.13209 0
M  V30 1359 H 124.828 -4.24254 3.85592 0
M  V30 1360 H 123.225 -3.89388 4.56614 0
M  V30 1361 H 124.295 -2.55144 4.12346 0
M  V30 1362 N 125.638 -1.25649 -0.95132 0
M  V30 1363 C 126.568 -1.08808 -2.06599 0
M  V30 1364 C 127.549 0.00382547 -1.701 0
M  V30 1365 O 128.734 -0.166325 -1.93486 0
M  V30 1366 C 125.864 -0.709542 -3.39975 0
M  V30 1367 C 124.818 -1.75206 -3.90496 0
M  V30 1368 C 124.144 -1.22811 -5.20405 0
M  V30 1369 C 125.444 -3.15153 -4.16504 0
M  V30 1370 H 127.138 -2.02048 -2.20946 0
M  V30 1371 H 124.684 -0.972835 -1.06169 0
M  V30 1372 H 126.637 -0.578649 -4.17408 0
M  V30 1373 H 125.361 0.258556 -3.25575 0
M  V30 1374 H 124.02 -1.87145 -3.15234 0
M  V30 1375 H 123.668 -0.250145 -5.02378 0
M  V30 1376 H 123.368 -1.92492 -5.55176 0
M  V30 1377 H 124.892 -1.10968 -6.00432 0
M  V30 1378 H 126.306 -3.06349 -4.84586 0
M  V30 1379 H 124.703 -3.82333 -4.62538 0
M  V30 1380 H 125.773 -3.61966 -3.22658 0
M  V30 1381 N 127.117 1.15442 -1.07289 0
M  V30 1382 C 128.528 1.67803 -0.818475 0
M  V30 1383 C 128.879 1.8489 0.656507 0
M  V30 1384 O 128.004 1.55176 1.50829 0
M  V30 1385 C 128.599 3.04805 -1.47917 0
M  V30 1386 C 127.158 3.54245 -1.27229 0
M  V30 1387 C 126.305 2.29986 -1.54925 0
M  V30 1388 H 129.256 0.996646 -1.23502 0
M  V30 1389 H 129.277 3.69702 -0.90005 0
M  V30 1390 H 128.789 2.92336 -2.55267 0
M  V30 1391 H 126.89 3.71956 -0.21899 0
M  V30 1392 H 127.003 4.35723 -1.99203 0
M  V30 1393 H 125.367 2.35496 -0.970242 0
M  V30 1394 H 126.15 2.20105 -2.63455 0
M  V30 1395 N 128.595 0.856903 1.32268 0
M  V30 1396 C 129.543 0.291987 2.3076 0
M  V30 1397 C 130.537 -0.585857 1.58947 0
M  V30 1398 O 131.743 -0.47341 1.73663 0
M  V30 1399 H 128.118 0.075721 0.748178 0
M  V30 1400 H 130.089 1.13687 2.75895 0
M  V30 1401 C 128.838 -0.502869 3.44044 0
M  V30 1402 H 128.161 0.163328 3.99466 0
M  V30 1403 H 129.601 -0.863691 4.1511 0
M  V30 1404 C 128.06 -1.68898 2.91505 0
M  V30 1405 O 128.59 -2.78811 2.89184 0
M  V30 1406 N 126.796 -1.51679 2.47875 0
M  V30 1407 H 126.343 -0.622666 2.49961 0
M  V30 1408 H 126.301 -2.31184 2.13076 0
M  V30 1409 N 130.073 -1.45103 0.615059 0
M  V30 1410 C 131.322 -2.01396 0.110718 0
M  V30 1411 C 131.635 -1.48834 -1.26916 0
M  V30 1412 O 132.841 -1.97152 -1.86664 0
M  V30 1413 C 131.297 -3.59599 0.14723 0
M  V30 1414 C 130.905 -4.21158 1.52743 0
M  V30 1415 C 132.649 -4.23428 -0.30148 0
M  V30 1416 C 130.556 -5.71535 1.51992 0
M  V30 1417 H 129.486 -0.753061 0.0376241 0
M  V30 1418 H 132.137 -1.66494 0.77149 0
M  V30 1419 H 130.519 -3.91724 -0.580339 0
M  V30 1420 H 131.693 -4.00594 2.2773 0
M  V30 1421 H 130.008 -3.69552 1.91886 0
M  V30 1422 H 132.605 -5.33703 -0.326392 0
M  V30 1423 H 132.948 -3.94629 -1.32565 0
M  V30 1424 H 133.481 -3.96047 0.373065 0
M  V30 1425 H 130.22 -6.05044 2.52193 0
M  V30 1426 H 129.74 -5.94268 0.81274 0
M  V30 1427 H 131.419 -6.34873 1.24681 0
M  V30 1428 N 131.551 -0.354651 -1.53558 0
M  V30 1429 C 132.779 0.239515 -2.05509 0
M  V30 1430 C 133.194 1.4333 -1.2289 0
M  V30 1431 O 132.551 1.80538 -0.266899 0
M  V30 1432 C 132.602 0.643719 -3.55723 0
M  V30 1433 O 132.323 -0.502602 -4.35207 0
M  V30 1434 C 133.824 1.29743 -4.23889 0
M  V30 1435 H 131.044 0.0442697 -0.669538 0
M  V30 1436 H 133.588 -0.509856 -1.98042 0
M  V30 1437 H 131.743 1.34302 -3.63376 0
M  V30 1438 H 132.157 -0.178172 -5.24197 0
M  V30 1439 H 133.631 1.53091 -5.30346 0
M  V30 1440 H 134.108 2.25441 -3.76926 0
M  V30 1441 H 134.714 0.639865 -4.20459 0
M  V30 1442 N 133.029 1.57378 -0.0835403 0
M  V30 1443 C 133.959 2.1641 0.87686 0
M  V30 1444 C 134.94 1.09429 1.30228 0
M  V30 1445 O 136.125 1.37516 1.37124 0
M  V30 1446 C 133.255 2.73517 2.14022 0
M  V30 1447 C 132.209 3.85769 1.85381 0
M  V30 1448 C 131.535 4.29529 3.18448 0
M  V30 1449 C 132.835 5.09486 1.14984 0
M  V30 1450 H 134.529 2.96914 0.385059 0
M  V30 1451 H 132.075 1.42823 0.18377 0
M  V30 1452 H 134.028 3.13463 2.81636 0
M  V30 1453 H 132.752 1.90252 2.65465 0
M  V30 1454 H 131.411 3.46345 1.20169 0
M  V30 1455 H 131.059 3.43169 3.67755 0
M  V30 1456 H 130.759 5.05204 3.00071 0
M  V30 1457 H 132.283 4.72099 3.8724 0
M  V30 1458 H 133.697 5.46674 1.72687 0
M  V30 1459 H 132.094 5.90515 1.06826 0
M  V30 1460 H 133.164 4.84724 0.130749 0
M  V30 1461 N 134.507 -0.190092 1.56449 0
M  V30 1462 C 135.755 -0.907908 1.80559 0
M  V30 1463 C 136.076 -1.83583 0.657438 0
M  V30 1464 O 135.346 -1.93203 -0.323924 0
M  V30 1465 H 133.926 -0.338247 0.666032 0
M  V30 1466 H 136.588 -0.194403 1.93928 0
M  V30 1467 H 135.684 -1.49604 2.73907 0
M  V30 1468 N 135.985 -1.50799 -0.457987 0
M  V30 1469 C 137.225 -1.64088 -1.21879 0
M  V30 1470 C 137.589 -0.339848 -1.88968 0
M  V30 1471 O 138.79 -0.348301 -2.66534 0
M  V30 1472 C 137.061 -2.79726 -2.2246 0
M  V30 1473 S 138.62 -3.13225 -3.07303 0
M  V30 1474 H 135.438 -0.578314 -0.41361 0
M  V30 1475 H 138.04 -1.88632 -0.513645 0
M  V30 1476 H 136.744 -3.72722 -1.71775 0
M  V30 1477 H 136.275 -2.57308 -2.97584 0
M  V30 1478 H 138.29 -2.58062 -4.23814 0
M  V30 1479 N 137.463 0.71206 -1.40597 0
M  V30 1480 C 138.373 1.8562 -1.43466 0
M  V30 1481 C 139.389 1.70902 -0.326902 0
M  V30 1482 O 140.565 1.93105 -0.572043 0
M  V30 1483 C 137.63 3.21451 -1.29884 0
M  V30 1484 C 136.691 3.48398 -2.50833 0
M  V30 1485 C 135.924 4.77749 -2.3789 0
M  V30 1486 O 136.147 5.53089 -1.39459 0
M  V30 1487 O 135.081 5.05111 -3.27333 0
M  V30 1488 H 138.907 1.86155 -2.39958 0
M  V30 1489 H 136.492 0.86295 -1.21957 0
M  V30 1490 H 138.374 4.02579 -1.24531 0
M  V30 1491 H 137.049 3.21636 -0.364997 0
M  V30 1492 H 135.956 2.67265 -2.61763 0
M  V30 1493 H 137.289 3.53014 -3.4299 0
M  V30 1494 N 138.941 1.26152 0.944643 0
M  V30 1495 C 140.19 1.10883 1.68487 0
M  V30 1496 C 140.503 -0.348153 1.92477 0
M  V30 1497 O 141.709 -0.621459 2.64292 0
M  V30 1498 C 140.165 1.93624 3.03377 0
M  V30 1499 C 139.773 3.43875 2.87148 0
M  V30 1500 C 141.517 1.86954 3.81115 0
M  V30 1501 C 139.424 4.18875 4.1749 0
M  V30 1502 H 138.354 0.41135 0.631907 0
M  V30 1503 H 141.005 1.50433 1.05082 0
M  V30 1504 H 139.387 1.46904 3.67743 0
M  V30 1505 H 140.561 3.98338 2.31653 0
M  V30 1506 H 138.876 3.51744 2.22856 0
M  V30 1507 H 141.473 2.40275 4.77673 0
M  V30 1508 H 141.816 0.839518 4.07747 0
M  V30 1509 H 142.349 2.31477 3.23517 0
M  V30 1510 H 139.088 5.22332 3.96043 0
M  V30 1511 H 138.608 3.69193 4.72712 0
M  V30 1512 H 140.287 4.27134 4.85968 0
M  V30 1513 N 140.419 -1.14872 1.07899 0
M  V30 1514 C 141.835 -1.37776 0.805606 0
M  V30 1515 C 142.035 -1.92743 -0.587555 0
M  V30 1516 O 141.091 -2.13678 -1.34528 0
M  V30 1517 C 142.404 -2.34361 1.88402 0
M  V30 1518 C 143.952 -2.48012 1.90942 0
M  V30 1519 C 144.427 -3.47893 2.97883 0
M  V30 1520 N 145.918 -3.55433 2.97021 0
M  V30 1521 C 146.653 -4.32553 3.76412 0
M  V30 1522 N 146.149 -5.12959 4.65666 0
M  V30 1523 N 147.942 -4.27697 3.64735 0
M  V30 1524 H 140.093 -0.775365 1.97742 0
M  V30 1525 H 142.356 -0.403521 0.857831 0
M  V30 1526 H 142.062 -2.01098 2.88535 0
M  V30 1527 H 141.936 -3.34206 1.74889 0
M  V30 1528 H 144.323 -2.8057 0.914579 0
M  V30 1529 H 144.404 -1.48147 2.08534 0
M  V30 1530 H 144.048 -3.16069 3.97571 0
M  V30 1531 H 143.978 -4.47527 2.77538 0
M  V30 1532 H 146.469 -2.98048 2.32326 0
M  V30 1533 H 146.782 -5.69065 5.22862 0
M  V30 1534 H 145.127 -5.12245 4.69712 0
M  V30 1535 H 148.318 -3.63949 2.94378 0
M  V30 1536 H 148.491 -4.8755 4.26848 0
M  V30 1537 N 141.898 -0.863906 -1.31812 0
M  V30 1538 C 143.175 -0.39275 -1.91616 0
M  V30 1539 C 143.555 1.12461 -1.7865 0
M  V30 1540 O 142.903 1.95045 -1.19037 0
M  V30 1541 C 143.113 -0.867385 -3.38049 0
M  V30 1542 C 144.461 -0.889966 -4.15168 0
M  V30 1543 O 145.485 -0.812635 -3.46806 0
M  V30 1544 O 144.344 -1.00079 -5.37258 0
M  V30 1545 H 141.438 -0.116358 -0.818773 0
M  V30 1546 H 143.984 -0.951418 -1.40521 0
M  V30 1547 H 142.756 -1.91081 -3.41473 0
M  V30 1548 H 142.379 -0.286687 -3.96565 0
M  V30 1549 N 143.376 1.44774 -0.622745 0
M  V30 1550 C 144.601 2.06999 -0.128968 0
M  V30 1551 C 145.026 1.4617 1.1839 0
M  V30 1552 O 144.384 0.560007 1.72434 0
M  V30 1553 C 144.432 3.60595 -0.0188351 0
M  V30 1554 O 143.536 3.99398 1.02739 0
M  V30 1555 H 142.877 0.659047 -0.0809544 0
M  V30 1556 H 145.407 1.85784 -0.85705 0
M  V30 1557 H 145.417 4.07627 0.174476 0
M  V30 1558 H 144.092 4.04252 -0.977384 0
M  V30 1559 H 142.669 3.64011 0.809326 0
M  V30 1560 N 144.854 0.36279 1.53368 0
M  V30 1561 C 146.094 -0.227882 2.03126 0
M  V30 1562 C 146.458 -1.4622 1.24434 0
M  V30 1563 O 147.659 -2.12831 1.64184 0
M  V30 1564 C 145.93 -0.515427 3.53664 0
M  V30 1565 S 147.489 -1.08017 4.25297 0
M  V30 1566 H 144.307 -0.0665377 0.70788 0
M  V30 1567 H 146.909 0.50501 1.88865 0
M  V30 1568 H 145.613 0.390436 4.08539 0
M  V30 1569 H 145.144 -1.27747 3.72081 0
M  V30 1570 H 147.159 -2.36462 4.36234 0
M  V30 1571 N 146.332 -1.57332 0.0918853 0
M  V30 1572 C 147.578 -1.95328 -0.567313 0
M  V30 1573 C 147.933 -0.972866 -1.65991 0
M  V30 1574 O 147.226 0.00166256 -1.916 0
M  V30 1575 C 147.42 -3.37689 -1.17051 0
M  V30 1576 C 147.249 -4.49489 -0.137875 0
M  V30 1577 C 146.019 -5.04498 0.284515 0
M  V30 1578 C 148.217 -5.10393 0.63271 0
M  V30 1579 N 146.199 -5.99853 1.30576 0
M  V30 1580 C 147.57 -6.01435 1.50587 0
M  V30 1581 C 149.625 -4.93143 0.68658 0
M  V30 1582 C 148.328 -6.77077 2.42815 0
M  V30 1583 C 150.354 -5.69445 1.59645 0
M  V30 1584 C 149.716 -6.60151 2.45725 0
M  V30 1585 H 145.815 -0.761467 -0.178023 0
M  V30 1586 H 148.399 -1.93924 0.173706 0
M  V30 1587 H 146.57 -3.39793 -1.88136 0
M  V30 1588 H 148.302 -3.62872 -1.79181 0
M  V30 1589 H 145.057 -4.73489 -0.102593 0
M  V30 1590 H 145.481 -6.52231 1.81449 0
M  V30 1591 H 150.123 -4.22785 0.035244 0
M  V30 1592 H 147.841 -7.46699 3.08975 0
M  V30 1593 H 151.427 -5.58112 1.64323 0
M  V30 1594 H 150.307 -7.18159 3.14987 0
M  V30 1595 N 147.81 0.181792 -1.56548 0
M  V30 1596 C 148.76 1.22961 -1.92002 0
M  V30 1597 C 149.744 1.40331 -0.787146 0
M  V30 1598 O 150.936 1.42478 -1.05019 0
M  V30 1599 C 148.065 2.57144 -2.27446 0
M  V30 1600 C 147.151 2.43512 -3.47222 0
M  V30 1601 N 147.542 1.99577 -4.64761 0
M  V30 1602 C 145.84 2.74368 -3.51622 0
M  V30 1603 C 146.541 1.98156 -5.46909 0
M  V30 1604 N 145.517 2.40164 -4.8767 0
M  V30 1605 H 149.319 0.881462 -2.8037 0
M  V30 1606 H 146.833 0.390141 -1.57644 0
M  V30 1607 H 148.83 3.32847 -2.51035 0
M  V30 1608 H 147.49 2.92771 -1.40411 0
M  V30 1609 H 148.501 1.70078 -4.89177 0
M  V30 1610 H 145.178 3.14102 -2.75038 0
M  V30 1611 H 146.568 1.65975 -6.51077 0
M  V30 1612 N 149.288 1.51039 0.449983 0
M  V30 1613 C 150.513 1.6715 1.22783 0
M  V30 1614 C 150.938 0.363081 1.84563 0
M  V30 1615 O 150.296 -0.675433 1.68249 0
M  V30 1616 C 150.344 2.77985 2.29689 0
M  V30 1617 O 149.448 2.40707 3.34864 0
M  V30 1618 H 148.789 0.557746 0.360299 0
M  V30 1619 H 151.319 1.97535 0.533005 0
M  V30 1620 H 151.329 3.01693 2.74673 0
M  V30 1621 H 150.004 3.72935 1.84098 0
M  V30 1622 H 148.581 2.27523 2.95445 0
M  V30 1623 N 150.766 -0.704594 1.40972 0
M  V30 1624 C 151.729 -1.80035 1.41845 0
M  V30 1625 C 152.729 -1.57774 0.310474 0
M  V30 1626 O 153.919 -1.64613 0.56992 0
M  V30 1627 C 151.051 -3.18284 1.22098 0
M  V30 1628 H 152.244 -1.80658 2.3938 0
M  V30 1629 H 149.797 -0.911329 1.26982 0
M  V30 1630 H 150.532 -3.23306 0.253672 0
M  V30 1631 H 150.317 -3.35843 2.02366 0
M  V30 1632 H 151.807 -3.98289 1.25522 0
M  V30 1633 N 152.244 -1.26651 -0.937939 0
M  V30 1634 C 153.49 -1.12553 -1.687 0
M  V30 1635 C 153.823 0.329782 -1.91379 0
M  V30 1636 O 153.098 1.24202 -1.4968 0
M  V30 1637 C 153.381 -1.89862 -3.05981 0
M  V30 1638 C 153.234 -3.43318 -2.90607 0
M  V30 1639 C 154.553 -1.69499 -4.0615 0
M  V30 1640 H 151.672 -0.410257 -0.612257 0
M  V30 1641 H 154.314 -1.55685 -1.08913 0
M  V30 1642 H 152.464 -1.53204 -3.57017 0
M  V30 1643 H 154.136 -3.89747 -2.46769 0
M  V30 1644 H 152.379 -3.70179 -2.26164 0
M  V30 1645 H 153.05 -3.92642 -3.8799 0
M  V30 1646 H 155.526 -2.01442 -3.64088 0
M  V30 1647 H 154.402 -2.26002 -5.00214 0
M  V30 1648 H 154.663 -0.640365 -4.37438 0
M  V30 1649 N 153.722 1.14298 -1.08507 0
M  V30 1650 C 154.685 2.17607 -0.719711 0
M  V30 1651 C 155.685 1.58907 0.245997 0
M  V30 1652 O 156.875 1.74181 0.0254081 0
M  V30 1653 C 154.007 3.40842 -0.0627695 0
M  V30 1654 H 155.2 2.51443 -1.63452 0
M  V30 1655 H 152.753 1.28963 -0.88307 0
M  V30 1656 H 153.488 3.12587 0.863716 0
M  V30 1657 H 153.273 3.84713 -0.757504 0
M  V30 1658 H 154.763 4.17221 0.177786 0
M  V30 1659 N 155.201 0.870884 1.31352 0
M  V30 1660 C 156.131 0.343096 2.30966 0
M  V30 1661 C 157.112 -0.566507 1.60389 0
M  V30 1662 O 158.297 -0.483336 1.88089 0
M  V30 1663 C 155.427 -0.455487 3.443 0
M  V30 1664 C 154.381 0.361103 4.26474 0
M  V30 1665 C 153.707 -0.563221 5.31725 0
M  V30 1666 C 155.007 1.59566 4.97329 0
M  V30 1667 H 156.701 1.17548 2.75359 0
M  V30 1668 H 154.247 0.566686 1.32381 0
M  V30 1669 H 156.2 -0.83525 4.13039 0
M  V30 1670 H 154.924 -1.32139 2.98675 0
M  V30 1671 H 153.583 0.722825 3.59403 0
M  V30 1672 H 153.231 -1.42643 4.82351 0
M  V30 1673 H 152.931 -0.0207409 5.87596 0
M  V30 1674 H 154.455 -0.939808 6.03324 0
M  V30 1675 H 155.869 1.28728 5.58661 0
M  V30 1676 H 154.266 2.07728 5.63 0
M  V30 1677 H 155.336 2.34798 4.24262 0
M  V30 1678 N 156.679 -1.44442 0.630414 0
M  V30 1679 C 157.589 -2.34476 -0.0761693 0
M  V30 1680 C 158.605 -1.52576 -0.836449 0
M  V30 1681 O 159.781 -1.85307 -0.788874 0
M  V30 1682 C 156.846 -3.30545 -1.04599 0
M  V30 1683 C 155.907 -4.28352 -0.28516 0
M  V30 1684 C 155.14 -5.19831 -1.20878 0
M  V30 1685 O 155.363 -5.15223 -2.44747 0
M  V30 1686 O 154.297 -5.97892 -0.693491 0
M  V30 1687 H 158.123 -2.96345 0.664324 0
M  V30 1688 H 155.708 -1.44203 0.39061 0
M  V30 1689 H 157.59 -3.89681 -1.60396 0
M  V30 1690 H 156.265 -2.7121 -1.76711 0
M  V30 1691 H 155.172 -3.72764 0.315837 0
M  V30 1692 H 156.505 -4.90605 0.395924 0
M  V30 1693 N 158.157 -0.370918 -1.53173 0
M  V30 1694 C 159.089 0.507823 -2.23503 0
M  V30 1695 C 160.102 1.04182 -1.251 0
M  V30 1696 O 161.291 0.947286 -1.5129 0
M  V30 1697 C 158.391 1.71447 -2.92334 0
M  V30 1698 C 157.564 1.31105 -4.17289 0
M  V30 1699 C 156.623 2.38035 -4.69282 0
M  V30 1700 O 155.649 2.00204 -5.32829 0
M  V30 1701 N 156.851 3.69697 -4.47554 0
M  V30 1702 H 159.616 -0.0946382 -2.99551 0
M  V30 1703 H 157.177 -0.196358 -1.60705 0
M  V30 1704 H 159.169 2.42469 -3.24023 0
M  V30 1705 H 157.739 2.22368 -2.19707 0
M  V30 1706 H 156.959 0.430462 -3.91843 0
M  V30 1707 H 158.247 1.0179 -4.98514 0
M  V30 1708 H 157.645 4.03205 -3.9679 0
M  V30 1709 H 156.202 4.36807 -4.8378 0
M  V30 1710 N 159.635 1.57281 -0.100228 0
M  V30 1711 C 160.86 1.99302 0.573881 0
M  V30 1712 C 161.285 0.979059 1.60611 0
M  V30 1713 O 160.643 -0.0517803 1.81226 0
M  V30 1714 C 160.691 3.40274 1.19358 0
M  V30 1715 O 159.795 3.41676 2.30935 0
M  V30 1716 H 159.136 0.647944 0.145138 0
M  V30 1717 H 161.666 2.03779 -0.183156 0
M  V30 1718 H 161.676 3.78078 1.53365 0
M  V30 1719 H 160.351 4.13594 0.437385 0
M  V30 1720 H 158.928 3.15672 1.98509 0
M  V30 1721 N 161.113 -0.173488 1.56642 0
M  V30 1722 C 162.362 -0.888758 1.81063 0
M  V30 1723 C 162.675 -1.83506 0.67712 0
M  V30 1724 O 163.881 -2.59254 0.806206 0
M  V30 1725 C 162.337 -1.63091 3.20826 0
M  V30 1726 C 161.945 -0.728357 4.4204 0
M  V30 1727 C 163.689 -2.33454 3.54541 0
M  V30 1728 C 161.596 -1.47062 5.72823 0
M  V30 1729 H 160.526 -0.335618 0.675186 0
M  V30 1730 H 163.177 -0.141712 1.82952 0
M  V30 1731 H 161.559 -2.42263 3.13248 0
M  V30 1732 H 162.733 0.0262449 4.60793 0
M  V30 1733 H 161.048 -0.134492 4.16183 0
M  V30 1734 H 163.645 -2.89578 4.49498 0
M  V30 1735 H 163.988 -3.08687 2.79317 0
M  V30 1736 H 164.521 -1.61227 3.63663 0
M  V30 1737 H 161.26 -0.760658 6.51072 0
M  V30 1738 H 160.78 -2.1986 5.58052 0
M  V30 1739 H 162.459 -2.01868 6.14702 0
M  V30 1740 N 162.591 -1.51276 -0.441967 0
M  V30 1741 C 163.501 -1.75092 -1.56141 0
M  V30 1742 C 164.517 -0.634963 -1.62001 0
M  V30 1743 O 165.693 -0.916686 -1.79329 0
M  V30 1744 C 162.758 -1.86666 -2.92158 0
M  V30 1745 C 161.819 -3.10506 -2.96453 0
M  V30 1746 C 161.052 -3.21519 -4.25982 0
M  V30 1747 O 161.275 -2.38586 -5.18105 0
M  V30 1748 O 160.209 -4.14465 -4.36466 0
M  V30 1749 H 164.035 -2.70044 -1.38961 0
M  V30 1750 H 161.62 -1.35722 -0.624499 0
M  V30 1751 H 163.502 -1.96292 -3.72891 0
M  V30 1752 H 162.177 -0.949014 -3.09476 0
M  V30 1753 H 161.084 -3.06363 -2.14692 0
M  V30 1754 H 162.417 -4.01945 -2.84079 0
M  V30 1755 N 164.069 0.697108 -1.41344 0
M  V30 1756 C 165.316 1.45714 -1.40619 0
M  V30 1757 C 165.644 1.94494 -0.0147907 0
M  V30 1758 O 164.899 1.69794 0.973066 0
M  V30 1759 C 165.198 2.68553 -2.35826 0
M  V30 1760 C 164.864 2.38438 -3.82698 0
M  V30 1761 C 163.526 2.29936 -4.22709 0
M  V30 1762 C 165.878 2.13567 -4.75435 0
M  V30 1763 C 163.206 1.94656 -5.53467 0
M  V30 1764 C 165.558 1.79797 -6.06511 0
M  V30 1765 C 164.222 1.69789 -6.45545 0
M  V30 1766 H 163.492 0.533206 -0.51456 0
M  V30 1767 H 166.139 0.796901 -1.74131 0
M  V30 1768 H 164.444 3.39503 -1.95563 0
M  V30 1769 H 166.141 3.2669 -2.32539 0
M  V30 1770 H 162.731 2.4595 -3.51008 0
M  V30 1771 H 166.915 2.19082 -4.45328 0
M  V30 1772 H 162.171 1.8546 -5.82593 0
M  V30 1773 H 166.345 1.59572 -6.77872 0
M  V30 1774 H 163.972 1.4222 -7.46778 0
M  V30 1775 N 165.547 1.27147 0.931209 0
M  V30 1776 C 166.796 1.12664 1.67302 0
M  V30 1777 C 167.109 -0.327718 1.92835 0
M  V30 1778 O 168.315 -0.593392 2.64936 0
M  V30 1779 C 166.771 1.9683 3.01307 0
M  V30 1780 C 166.379 3.46901 2.83485 0
M  V30 1781 C 168.123 1.90985 3.79111 0
M  V30 1782 C 166.03 4.23279 4.13024 0
M  V30 1783 H 164.96 0.41803 0.627509 0
M  V30 1784 H 167.611 1.51539 1.03481 0
M  V30 1785 H 165.993 1.50797 3.66164 0
M  V30 1786 H 167.167 4.00773 2.27415 0
M  V30 1787 H 165.482 3.54088 2.19113 0
M  V30 1788 H 168.079 2.45328 4.75098 0
M  V30 1789 H 168.422 0.882718 4.06834 0
M  V30 1790 H 168.955 2.34895 3.21044 0
M  V30 1791 H 165.694 5.26503 3.90481 0
M  V30 1792 H 165.214 3.74186 4.6877 0
M  V30 1793 H 166.893 4.32265 4.81411 0
M  V30 1794 N 167.025 -1.13721 1.09112 0
M  V30 1795 C 168.441 -1.36914 0.820174 0
M  V30 1796 C 168.641 -1.93356 -0.567079 0
M  V30 1797 O 167.697 -2.15093 -1.32255 0
M  V30 1798 C 169.01 -2.3235 1.90877 0
M  V30 1799 C 170.558 -2.45973 1.93562 0
M  V30 1800 C 171.033 -3.44714 3.01556 0
M  V30 1801 N 172.524 -3.52263 3.00775 0
M  V30 1802 C 173.259 -4.28536 3.80978 0
M  V30 1803 N 172.755 -5.07991 4.71081 0
M  V30 1804 N 174.548 -4.23804 3.69251 0
M  V30 1805 H 166.699 -0.754348 1.98553 0
M  V30 1806 H 168.962 -0.3944 0.862063 0
M  V30 1807 H 168.668 -1.98027 2.90651 0
M  V30 1808 H 168.542 -3.32332 1.78424 0
M  V30 1809 H 170.929 -2.79584 0.944286 0
M  V30 1810 H 171.01 -1.45926 2.10093 0
M  V30 1811 H 170.654 -3.11835 4.00901 0
M  V30 1812 H 170.584 -4.44558 2.82269 0
M  V30 1813 H 173.075 -2.95567 2.35475 0
M  V30 1814 H 173.388 -5.63487 5.28869 0
M  V30 1815 H 171.733 -5.07235 4.75119 0
M  V30 1816 H 174.924 -3.60806 2.98222 0
M  V30 1817 H 175.097 -4.82995 4.31995 0
M  V30 1818 N 168.503 -0.877838 -1.30888 0
M  V30 1819 C 169.78 -0.413052 -1.91189 0
M  V30 1820 C 170.16 1.1056 -1.79832 0
M  V30 1821 O 169.508 1.93771 -1.21099 0
M  V30 1822 C 169.718 -0.903191 -3.3711 0
M  V30 1823 C 171.066 -0.93395 -4.14201 0
M  V30 1824 O 172.09 -0.849373 -3.45925 0
M  V30 1825 O 170.949 -1.05772 -5.36167 0
M  V30 1826 H 168.043 -0.125035 -0.817493 0
M  V30 1827 H 170.589 -0.966269 -1.39504 0
M  V30 1828 H 169.361 -1.94692 -3.39427 0
M  V30 1829 H 168.984 -0.328732 -3.96239 0
M  V30 1830 N 169.982 1.44106 -0.638065 0
M  V30 1831 C 171.207 2.0685 -0.150916 0
M  V30 1832 C 171.632 1.47417 1.16833 0
M  V30 1833 O 170.99 0.578264 1.71831 0
M  V30 1834 C 171.038 3.60555 -0.05708 0
M  V30 1835 O 170.142 4.00465 0.984972 0
M  V30 1836 H 169.483 0.658151 -0.0879399 0
M  V30 1837 H 172.013 1.84865 -0.876707 0
M  V30 1838 H 172.023 4.07789 0.131232 0
M  V30 1839 H 170.698 4.03193 -1.02021 0
M  V30 1840 H 169.275 3.64849 0.770672 0
M  V30 1841 N 171.46 0.379036 1.52974 0
M  V30 1842 C 172.39 -0.452706 2.29069 0
M  V30 1843 C 173.371 -1.07237 1.32039 0
M  V30 1844 O 174.556 -1.08708 1.60923 0
M  V30 1845 C 171.686 -1.5856 3.08992 0
M  V30 1846 C 170.64 -1.0925 4.13822 0
M  V30 1847 C 169.966 -2.31668 4.81907 0
M  V30 1848 C 171.266 -0.167702 5.22031 0
M  V30 1849 H 172.96 0.182181 2.98845 0
M  V30 1850 H 170.506 0.0890592 1.43724 0
M  V30 1851 H 172.459 -2.1742 3.6098 0
M  V30 1852 H 171.183 -2.24792 2.36931 0
M  V30 1853 H 169.842 -0.526494 3.628 0
M  V30 1854 H 169.49 -2.96386 4.06404 0
M  V30 1855 H 169.19 -1.9934 5.52754 0
M  V30 1856 H 170.714 -2.91189 5.36695 0
M  V30 1857 H 172.128 -0.664186 5.6944 0
M  V30 1858 H 170.525 0.0653265 6.00064 0
M  V30 1859 H 171.595 0.786347 4.78482 0
M  V30 1860 N 172.938 -1.57226 0.108567 0
M  V30 1861 C 174.187 -1.94008 -0.551703 0
M  V30 1862 C 174.5 -0.993442 -1.68494 0
M  V30 1863 O 175.706 -1.25551 -2.40726 0
M  V30 1864 C 174.162 -3.44763 -1.03279 0
M  V30 1865 C 173.77 -4.47943 0.0714193 0
M  V30 1866 C 175.514 -3.90483 -1.66503 0
M  V30 1867 C 173.421 -5.89865 -0.425779 0
M  V30 1868 H 172.351 -0.724206 -0.209863 0
M  V30 1869 H 175.002 -1.82547 0.186741 0
M  V30 1870 H 173.384 -3.51422 -1.82533 0
M  V30 1871 H 174.558 -4.52942 0.847365 0
M  V30 1872 H 172.873 -4.11913 0.609669 0
M  V30 1873 H 175.47 -4.93925 -2.04798 0
M  V30 1874 H 175.813 -3.29877 -2.53942 0
M  V30 1875 H 176.346 -3.86581 -0.938074 0
M  V30 1876 H 173.085 -6.54202 0.412316 0
M  V30 1877 H 172.605 -5.88309 -1.16843 0
M  V30 1878 H 174.284 -6.40844 -0.890397 0
M  V30 1879 N 174.416 0.165178 -1.56732 0
M  V30 1880 C 175.641 0.900253 -1.86843 0
M  V30 1881 C 176.066 1.74766 -0.695596 0
M  V30 1882 O 175.424 1.77786 0.35522 0
M  V30 1883 C 175.472 1.74777 -3.15413 0
M  V30 1884 O 174.576 2.85007 -2.98068 0
M  V30 1885 H 173.917 0.251832 -0.614391 0
M  V30 1886 H 176.447 0.161468 -2.03962 0
M  V30 1887 H 176.457 2.14646 -3.46974 0
M  V30 1888 H 175.132 1.12537 -4.00385 0
M  V30 1889 H 173.709 2.48676 -2.77875 0
M  V30 1890 N 175.894 1.51508 0.433938 0
M  V30 1891 C 177.119 1.68443 1.21003 0
M  V30 1892 C 177.544 0.382636 1.84167 0
M  V30 1893 O 176.902 -0.65755 1.68956 0
M  V30 1894 C 176.95 2.80405 2.26727 0
M  V30 1895 O 176.054 2.44245 3.32292 0
M  V30 1896 H 175.395 0.561536 0.354363 0
M  V30 1897 H 177.925 1.9809 0.512024 0
M  V30 1898 H 177.935 3.0459 2.71457 0
M  V30 1899 H 176.61 3.74867 1.80132 0
M  V30 1900 H 175.187 2.30644 2.93015 0
M  V30 1901 N 177.372 -0.689602 1.41712 0
M  V30 1902 C 178.282 -1.83314 1.46401 0
M  V30 1903 C 179.298 -1.7036 0.35405 0
M  V30 1904 O 180.474 -1.92171 0.602692 0
M  V30 1905 C 177.539 -3.19344 1.34982 0
M  V30 1906 C 176.6 -3.44363 2.56344 0
M  V30 1907 C 175.833 -4.73904 2.45461 0
M  V30 1908 O 176.056 -5.508 1.48241 0
M  V30 1909 O 174.99 -4.99839 3.35328 0
M  V30 1910 H 178.816 -1.82314 2.42889 0
M  V30 1911 H 176.401 -0.843438 1.23315 0
M  V30 1912 H 178.283 -4.00547 1.3092 0
M  V30 1913 H 176.958 -3.21014 0.41612 0
M  V30 1914 H 175.865 -2.63067 2.65982 0
M  V30 1915 H 177.198 -3.47512 3.48563 0
M  V30 1916 N 178.85 -1.27639 -0.924453 0
M  V30 1917 C 179.76 -1.12466 -2.05885 0
M  V30 1918 C 180.776 -0.053869 -1.73917 0
M  V30 1919 O 181.952 -0.261012 -1.99702 0
M  V30 1920 C 179.017 -0.776768 -3.37886 0
M  V30 1921 C 178.078 -1.92878 -3.83532 0
M  V30 1922 C 177.311 -1.59739 -5.09234 0
M  V30 1923 O 177.534 -0.506782 -5.68144 0
M  V30 1924 O 176.468 -2.43761 -5.50331 0
M  V30 1925 H 180.294 -2.07671 -2.21599 0
M  V30 1926 H 177.879 -1.06857 -1.04413 0
M  V30 1927 H 179.761 -0.596229 -4.17161 0
M  V30 1928 H 178.436 0.145732 -3.23372 0
M  V30 1929 H 177.343 -2.1644 -3.0513 0
M  V30 1930 H 178.676 -2.8316 -4.02593 0
M  V30 1931 N 180.328 1.1314 -1.09713 0
M  V30 1932 C 181.238 2.22242 -0.751367 0
M  V30 1933 C 182.254 1.72224 0.247938 0
M  V30 1934 O 183.43 2.01205 0.0885463 0
M  V30 1935 C 180.495 3.46231 -0.180274 0
M  V30 1936 C 179.556 4.11125 -1.2359 0
M  V30 1937 C 178.789 5.29195 -0.691966 0
M  V30 1938 O 179.012 5.68342 0.48414 0
M  V30 1939 O 177.946 5.84214 -1.44838 0
M  V30 1940 H 181.772 2.54197 -1.66186 0
M  V30 1941 H 179.357 1.21331 -0.871735 0
M  V30 1942 H 181.239 4.21185 0.134739 0
M  V30 1943 H 179.914 3.1597 0.703185 0
M  V30 1944 H 178.821 3.37985 -1.60366 0
M  V30 1945 H 180.154 4.45524 -2.09211 0
M  V30 1946 N 181.806 0.884767 1.30421 0
M  V30 1947 C 182.716 0.355398 2.31892 0
M  V30 1948 C 183.732 -0.542261 1.65335 0
M  V30 1949 O 184.908 -0.435432 1.96637 0
M  V30 1950 C 181.973 -0.421661 3.44126 0
M  V30 1951 C 181.034 0.505727 4.26311 0
M  V30 1952 C 180.267 -0.234343 5.33185 0
M  V30 1953 O 180.49 -1.46045 5.51386 0
M  V30 1954 O 179.424 0.415443 6.00465 0
M  V30 1955 H 183.25 1.19685 2.79122 0
M  V30 1956 H 180.835 0.648596 1.34587 0
M  V30 1957 H 182.717 -0.861641 4.12497 0
M  V30 1958 H 181.392 -1.23942 2.99032 0
M  V30 1959 H 180.299 0.994513 3.60639 0
M  V30 1960 H 181.632 1.28948 4.75009 0
M  V30 1961 N 183.284 -1.43765 0.645699 0
M  V30 1962 C 184.532 -2.01499 0.155731 0
M  V30 1963 C 184.853 -1.51151 -1.232 0
M  V30 1964 O 184.123 -0.721044 -1.82148 0
M  V30 1965 H 182.703 -0.745003 0.0545817 0
M  V30 1966 H 185.365 -1.76075 0.835677 0
M  V30 1967 H 184.461 -3.1181 0.134577 0
M  V30 1968 N 184.763 -0.387143 -1.52771 0
M  V30 1969 C 185.693 0.440551 -2.29306 0
M  V30 1970 C 186.674 1.06535 -1.32606 0
M  V30 1971 O 187.859 1.07853 -1.61497 0
M  V30 1972 C 184.989 1.56919 -3.09829 0
M  V30 1973 C 183.943 1.07054 -4.14395 0
M  V30 1974 C 183.269 2.29109 -4.83129 0
M  V30 1975 C 184.569 0.140015 -5.22112 0
M  V30 1976 H 186.263 -0.198026 -2.98744 0
M  V30 1977 H 183.809 -0.09668 -1.43675 0
M  V30 1978 H 185.762 2.15503 -3.62128 0
M  V30 1979 H 184.486 2.23532 -2.3812 0
M  V30 1980 H 183.145 0.507247 -3.63074 0
M  V30 1981 H 182.793 2.94227 -4.0797 0
M  V30 1982 H 182.493 1.96406 -5.53804 0
M  V30 1983 H 184.017 2.88339 -5.38231 0
M  V30 1984 H 185.431 0.633978 -5.69784 0
M  V30 1985 H 183.828 -0.0971485 -6.00021 0
M  V30 1986 H 184.898 -0.811711 -4.78058 0
M  V30 1987 N 186.241 1.57166 -0.116904 0
M  V30 1988 C 187.487 1.95412 0.542405 0
M  V30 1989 C 187.82 1.00019 1.66463 0
M  V30 1990 O 187.095 0.0370346 1.94465 0
M  V30 1991 C 187.378 3.43615 1.07708 0
M  V30 1992 C 187.231 4.49781 -0.0415868 0
M  V30 1993 C 188.55 3.93616 1.96861 0
M  V30 1994 H 185.669 0.710543 0.195696 0
M  V30 1995 H 188.311 1.89027 -0.192038 0
M  V30 1996 H 186.461 3.49187 1.70296 0
M  V30 1997 H 188.133 4.56308 -0.676793 0
M  V30 1998 H 186.376 4.28033 -0.705019 0
M  V30 1999 H 187.047 5.50733 0.373717 0
M  V30 2000 H 189.523 3.90335 1.44146 0
M  V30 2001 H 188.399 4.97838 2.3119 0
M  V30 2002 H 188.66 3.34188 2.89432 0
M  V30 2003 N 187.719 -0.156864 1.56817 0
M  V30 2004 C 189.135 -0.50916 1.5126 0
M  V30 2005 C 189.335 -1.83897 0.823658 0
M  V30 2006 O 188.391 -2.49469 0.390055 0
M  V30 2007 C 189.704 -0.52857 2.96018 0
M  V30 2008 C 191.252 -0.614771 3.06903 0
M  V30 2009 C 191.727 -0.664938 4.53147 0
M  V30 2010 N 193.218 -0.727433 4.57452 0
M  V30 2011 C 193.953 -0.787067 5.67973 0
M  V30 2012 N 193.449 -0.806649 6.88088 0
M  V30 2013 N 195.242 -0.827195 5.5598 0
M  V30 2014 H 187.393 0.714935 2.00006 0
M  V30 2015 H 189.656 0.259526 0.911784 0
M  V30 2016 H 189.362 0.380154 3.49639 0
M  V30 2017 H 189.236 -1.36998 3.51442 0
M  V30 2018 H 191.623 -1.51392 2.53307 0
M  V30 2019 H 191.704 0.253597 2.5454 0
M  V30 2020 H 191.348 0.230011 5.07379 0
M  V30 2021 H 191.278 -1.54966 5.03282 0
M  V30 2022 H 193.769 -0.719998 3.70978 0
M  V30 2023 H 194.082 -0.853727 7.6807 0
M  V30 2024 H 192.427 -0.774687 6.90669 0
M  V30 2025 H 195.618 -0.808998 4.61056 0
M  V30 2026 H 195.791 -0.870206 6.4213 0
M  V30 2027 N 189.197 -1.51736 -0.425897 0
M  V30 2028 C 190.437 -1.66636 -1.18371 0
M  V30 2029 C 190.801 -0.379854 -1.88205 0
M  V30 2030 O 192.002 -0.404758 -2.65735 0
M  V30 2031 C 190.273 -2.84382 -2.16476 0
M  V30 2032 S 191.832 -3.19673 -3.0059 0
M  V30 2033 H 188.65 -0.586957 -0.40125 0
M  V30 2034 H 191.252 -1.89679 -0.473518 0
M  V30 2035 H 189.956 -3.76281 -1.63831 0
M  V30 2036 H 189.487 -2.63562 -2.92059 0
M  V30 2037 H 191.502 -2.66994 -4.18245 0
M  V30 2038 N 190.675 0.682077 -1.42076 0
M  V30 2039 C 191.921 1.44428 -1.42367 0
M  V30 2040 C 192.254 1.94164 -0.0373056 0
M  V30 2041 O 191.529 1.70429 0.937239 0
M  V30 2042 C 191.812 2.64654 -2.44194 0
M  V30 2043 C 191.665 2.20596 -3.91991 0
M  V30 2044 C 192.984 3.66865 -2.431 0
M  V30 2045 H 190.103 0.523834 -0.518428 0
M  V30 2046 H 192.745 0.77576 -1.73442 0
M  V30 2047 H 190.895 3.2169 -2.17826 0
M  V30 2048 H 192.567 1.68783 -4.29313 0
M  V30 2049 H 190.81 1.52242 -4.06208 0
M  V30 2050 H 191.481 3.06921 -4.58807 0
M  V30 2051 H 193.957 3.19531 -2.66532 0
M  V30 2052 H 192.833 4.48577 -3.16339 0
M  V30 2053 H 193.094 4.17493 -1.45437 0
M  V30 2054 N 192.153 1.28127 0.917671 0
M  V30 2055 C 193.43 1.05761 1.64542 0
M  V30 2056 C 193.81 -0.404344 2.07191 0
M  V30 2057 O 193.158 -1.38963 1.81388 0
M  V30 2058 C 193.368 2.02857 2.83989 0
M  V30 2059 C 194.716 2.32786 3.551 0
M  V30 2060 O 195.74 2.0091 2.94132 0
M  V30 2061 O 194.599 2.87169 4.64969 0
M  V30 2062 H 191.693 0.403916 0.721652 0
M  V30 2063 H 194.239 1.39431 0.967322 0
M  V30 2064 H 193.011 3.01407 2.49538 0
M  V30 2065 H 192.634 1.69809 3.59514 0
M  V30 2066 N 193.631 -1.12557 1.10312 0
M  V30 2067 C 194.879 -1.83675 0.843091 0
M  V30 2068 C 195.2 -1.84435 -0.633131 0
M  V30 2069 O 194.47 -1.30657 -1.45964 0
M  V30 2070 H 193.05 -0.680138 0.308904 0
M  V30 2071 H 195.712 -1.36301 1.39313 0
M  V30 2072 H 194.808 -2.87908 1.2048 0
M  V30 2073 N 195.109 -0.891671 -1.2995 0
M  V30 2074 C 196.334 -0.527932 -2.00568 0
M  V30 2075 C 196.759 0.877969 -1.66353 0
M  V30 2076 O 196.117 1.58301 -0.883762 0
M  V30 2077 C 196.165 -0.717745 -3.53385 0
M  V30 2078 O 195.269 0.233376 -4.11739 0
M  V30 2079 H 194.61 -0.20722 -0.630837 0
M  V30 2080 H 197.14 -1.20105 -1.65638 0
M  V30 2081 H 197.15 -0.619307 -4.03272 0
M  V30 2082 H 195.825 -1.74276 -3.77625 0
M  V30 2083 H 194.402 0.0880706 -3.72796 0
M  V30 2084 N 196.587 1.43421 -0.653314 0
M  V30 2085 C 197.812 2.06678 -0.172846 0
M  V30 2086 C 198.237 1.48648 1.15262 0
M  V30 2087 O 197.595 0.596457 1.71208 0
M  V30 2088 C 197.643 3.60474 -0.0953184 0
M  V30 2089 O 196.747 4.01487 0.942442 0
M  V30 2090 H 196.088 0.657181 -0.0949155 0
M  V30 2091 H 198.618 1.83925 -0.896265 0
M  V30 2092 H 198.628 4.07905 0.0879728 0
M  V30 2093 H 197.303 4.02088 -1.06291 0
M  V30 2094 H 195.88 3.65646 0.731932 0
M  V30 2095 N 198.065 0.39524 1.52563 0
M  V30 2096 C 199.29 -0.187456 2.06551 0
M  V30 2097 C 199.715 -1.39249 1.26457 0
M  V30 2098 O 199.073 -1.78947 0.291151 0
M  V30 2099 C 199.121 -0.529985 3.56684 0
M  V30 2100 O 198.225 -1.62307 3.79118 0
M  V30 2101 H 197.566 -0.0202537 0.663691 0
M  V30 2102 H 200.096 0.564426 1.96661 0
M  V30 2103 H 200.106 -0.792598 4.00227 0
M  V30 2104 H 198.781 0.350987 4.14416 0
M  V30 2105 H 197.358 -1.3537 3.47461 0
M  V30 2106 N 199.544 -1.57102 0.125237 0
M  V30 2107 C 200.769 -2.0019 -0.542101 0
M  V30 2108 C 201.194 -1.00449 -1.59034 0
M  V30 2109 O 200.552 0.0229423 -1.81285 0
M  V30 2110 C 200.6 -3.42129 -1.13929 0
M  V30 2111 O 199.704 -3.45307 -2.2547 0
M  V30 2112 H 199.045 -0.650171 -0.134812 0
M  V30 2113 H 201.575 -2.03461 0.215553 0
M  V30 2114 H 201.585 -3.80471 -1.4733 0
M  V30 2115 H 200.26 -4.14237 -0.371531 0
M  V30 2116 H 198.837 -3.1879 -1.93462 0
M  V30 2117 N 201.022 0.148545 -1.56898 0
M  V30 2118 C 202.269 0.861418 -1.83264 0
M  V30 2119 C 202.597 1.81239 -0.705883 0
M  V30 2120 O 201.852 1.93305 0.305212 0
M  V30 2121 C 202.151 1.67064 -3.1595 0
M  V30 2122 C 201.817 0.866591 -4.42494 0
M  V30 2123 C 200.479 0.644762 -4.76861 0
M  V30 2124 C 202.831 0.30418 -5.20312 0
M  V30 2125 C 200.159 -0.15021 -5.86508 0
M  V30 2126 C 202.511 -0.477824 -6.30793 0
M  V30 2127 C 201.175 -0.710244 -6.63711 0
M  V30 2128 H 200.445 0.315215 -0.670612 0
M  V30 2129 H 203.092 0.125142 -1.91091 0
M  V30 2130 H 201.397 2.47698 -3.03567 0
M  V30 2131 H 203.094 2.22566 -3.33565 0
M  V30 2132 H 199.684 1.04955 -4.15551 0
M  V30 2133 H 203.868 0.462844 -4.94137 0
M  V30 2134 H 199.124 -0.339796 -6.10455 0
M  V30 2135 H 203.298 -0.92076 -6.90286 0
M  V30 2136 H 200.925 -1.3281 -7.48509 0
M  V30 2137 N 202.5 1.5196 0.417844 0
M  V30 2138 C 203.916 1.40569 0.755816 0
M  V30 2139 C 204.116 0.503316 1.95113 0
M  V30 2140 O 203.172 -0.0341925 2.52477 0
M  V30 2141 C 204.485 2.82947 1.01791 0
M  V30 2142 C 206.033 2.92231 1.12116 0
M  V30 2143 C 206.508 4.35559 1.41608 0
M  V30 2144 N 207.999 4.38753 1.48491 0
M  V30 2145 C 208.734 5.46705 1.7292 0
M  V30 2146 N 208.23 6.64788 1.95011 0
M  V30 2147 N 210.023 5.34209 1.74863 0
M  V30 2148 H 202.174 2.09168 -0.369098 0
M  V30 2149 H 204.437 0.942409 -0.102809 0
M  V30 2150 H 204.143 3.5106 0.212081 0
M  V30 2151 H 204.017 3.23462 1.94042 0
M  V30 2152 H 206.404 2.24304 1.9176 0
M  V30 2153 H 206.485 2.55185 0.177225 0
M  V30 2154 H 206.129 5.04042 0.624848 0
M  V30 2155 H 206.059 4.70133 2.37239 0
M  V30 2156 H 208.55 3.5363 1.33244 0
M  V30 2157 H 208.863 7.42845 2.13076 0
M  V30 2158 H 207.208 6.67869 1.92293 0
M  V30 2159 H 210.399 4.40937 1.57137 0
M  V30 2160 H 210.572 6.18415 1.93563 0
M  V30 2161 N 203.978 -0.674533 1.42435 0
M  V30 2162 C 205.203 -1.46784 1.46524 0
M  V30 2163 C 205.628 -1.87938 0.078066 0
M  V30 2164 O 204.986 -1.56014 -0.92354 0
M  V30 2165 C 205.034 -2.69307 2.39805 0
M  V30 2166 O 204.138 -3.67587 1.86959 0
M  V30 2167 H 203.479 -0.440959 0.496439 0
M  V30 2168 H 206.009 -0.827326 1.87127 0
M  V30 2169 H 206.019 -3.17374 2.56393 0
M  V30 2170 H 204.694 -2.38692 3.40586 0
M  V30 2171 H 203.271 -3.2662 1.79927 0
M  V30 2172 N 205.456 -1.28612 -0.910864 0
M  V30 2173 C 206.403 -1.12786 -2.01365 0
M  V30 2174 C 207.373 -0.024201 -1.66082 0
M  V30 2175 O 208.558 -0.189667 -1.89855 0
M  V30 2176 C 205.698 -0.798743 -3.35729 0
M  V30 2177 C 204.811 -1.98173 -3.83864 0
M  V30 2178 C 203.946 -1.59298 -5.06752 0
M  V30 2179 C 202.985 -2.74245 -5.47226 0
M  V30 2180 N 202.122 -2.35842 -6.61304 0
M  V30 2181 H 206.962 -2.07142 -2.14234 0
M  V30 2182 H 204.499 -1.03093 -1.0493 0
M  V30 2183 H 206.457 -0.588662 -4.13026 0
M  V30 2184 H 205.087 0.10789 -3.2262 0
M  V30 2185 H 204.139 -2.30386 -3.02699 0
M  V30 2186 H 205.451 -2.84343 -4.09818 0
M  V30 2187 H 204.605 -1.34513 -5.916 0
M  V30 2188 H 203.344 -0.702618 -4.82612 0
M  V30 2189 H 202.349 -2.99725 -4.60918 0
M  V30 2190 H 203.574 -3.63928 -5.73353 0
M  V30 2191 H 201.52 -1.49279 -6.38789 0
M  V30 2192 H 201.437 -3.15546 -6.86998 0
M  V30 2193 H 202.705 -2.14348 -7.4945 0
M  V30 2194 N 206.934 1.1197 -1.10907 0
M  V30 2195 C 207.881 2.17846 -0.762345 0
M  V30 2196 C 208.851 1.63995 0.263599 0
M  V30 2197 O 210.036 1.90273 0.141773 0
M  V30 2198 C 207.176 3.44487 -0.205651 0
M  V30 2199 C 206.289 4.12369 -1.28748 0
M  V30 2200 C 205.424 5.26674 -0.691919 0
M  V30 2201 C 204.463 5.86431 -1.75399 0
M  V30 2202 N 203.6 6.92142 -1.17833 0
M  V30 2203 H 208.44 2.46851 -1.6694 0
M  V30 2204 H 205.977 1.21188 -0.833776 0
M  V30 2205 H 207.935 4.16981 0.135037 0
M  V30 2206 H 206.565 3.15884 0.664613 0
M  V30 2207 H 205.617 3.38003 -1.74522 0
M  V30 2208 H 206.929 4.52844 -2.09125 0
M  V30 2209 H 206.083 6.05953 -0.300963 0
M  V30 2210 H 204.822 4.8749 0.143232 0
M  V30 2211 H 203.827 5.05835 -2.15432 0
M  V30 2212 H 205.052 6.27685 -2.59208 0
M  V30 2213 H 202.998 6.54985 -0.364725 0
M  V30 2214 H 202.915 7.31242 -1.91887 0
M  V30 2215 H 204.183 7.75237 -0.81408 0
M  V30 2216 N 208.412 0.89855 1.29475 0
M  V30 2217 C 209.823 0.572537 1.77705 0
M  V30 2218 C 210.174 -0.911778 1.73727 0
M  V30 2219 O 209.299 -1.71288 1.32247 0
M  V30 2220 C 209.894 1.03252 3.22683 0
M  V30 2221 C 208.453 0.757687 3.68695 0
M  V30 2222 C 207.6 1.20787 2.49612 0
M  V30 2223 H 210.551 1.08139 1.16153 0
M  V30 2224 H 210.572 0.367307 3.78723 0
M  V30 2225 H 210.084 2.11285 3.25546 0
M  V30 2226 H 208.185 -0.310079 3.71308 0
M  V30 2227 H 208.298 1.35476 4.59547 0
M  V30 2228 H 206.662 0.626888 2.46865 0
M  V30 2229 H 207.445 2.29622 2.55203 0
M  V30 2230 N 209.89 -1.43072 0.660911 0
M  V30 2231 C 211.139 -2.00942 0.174735 0
M  V30 2232 C 211.452 -1.52797 -1.22117 0
M  V30 2233 O 212.658 -2.02991 -1.80297 0
M  V30 2234 C 211.114 -3.58948 0.261559 0
M  V30 2235 C 210.722 -4.16085 1.66064 0
M  V30 2236 C 212.466 -4.24173 -0.166617 0
M  V30 2237 C 210.373 -5.6641 1.70098 0
M  V30 2238 H 209.303 -0.751483 0.0615631 0
M  V30 2239 H 211.954 -1.63955 0.824069 0
M  V30 2240 H 210.336 -3.93372 -0.455421 0
M  V30 2241 H 211.51 -3.93147 2.40359 0
M  V30 2242 H 209.825 -3.6326 2.03546 0
M  V30 2243 H 212.422 -5.34471 -0.156433 0
M  V30 2244 H 212.765 -3.98647 -1.19943 0
M  V30 2245 H 213.298 -3.94659 0.498875 0
M  V30 2246 H 210.037 -5.96715 2.71315 0
M  V30 2247 H 209.557 -5.91382 1.00139 0
M  V30 2248 H 211.236 -6.30585 1.44816 0
M  V30 2249 N 211.368 -0.403325 -1.52352 0
M  V30 2250 C 212.614 0.174605 -2.02047 0
M  V30 2251 C 212.947 1.45282 -1.28867 0
M  V30 2252 O 212.222 1.90483 -0.393257 0
M  V30 2253 C 212.505 0.428238 -3.57545 0
M  V30 2254 C 212.358 -0.866248 -4.4138 0
M  V30 2255 C 213.677 1.21287 -4.23057 0
M  V30 2256 H 210.796 0.0619851 -0.734389 0
M  V30 2257 H 213.438 -0.53565 -1.82293 0
M  V30 2258 H 211.588 1.03327 -3.74507 0
M  V30 2259 H 213.26 -1.50265 -4.3614 0
M  V30 2260 H 211.503 -1.47851 -4.07827 0
M  V30 2261 H 212.174 -0.643249 -5.48239 0
M  V30 2262 H 214.65 0.700703 -4.10158 0
M  V30 2263 H 213.526 1.35909 -5.31808 0
M  V30 2264 H 213.787 2.23193 -3.81625 0
M  V30 2265 N 212.846 1.57033 -0.133567 0
M  V30 2266 C 214.094 1.953 0.519848 0
M  V30 2267 C 214.415 1.01866 1.66278 0
M  V30 2268 O 213.685 0.0776513 1.95746 0
M  V30 2269 H 212.265 0.721091 0.195032 0
M  V30 2270 H 214.927 1.93809 -0.205921 0
M  V30 2271 H 214.023 2.98695 0.904854 0
M  V30 2272 N 214.325 -0.140222 1.56975 0
M  V30 2273 C 215.571 -0.852949 1.83991 0
M  V30 2274 C 215.904 -1.80512 0.716187 0
M  V30 2275 O 215.179 -1.92479 -0.279681 0
M  V30 2276 C 215.462 -1.6215 3.21527 0
M  V30 2277 C 215.315 -0.690363 4.4447 0
M  V30 2278 C 216.634 -2.58247 3.56366 0
M  V30 2279 H 213.753 -0.308634 0.669264 0
M  V30 2280 H 216.395 -0.117898 1.89634 0
M  V30 2281 H 214.545 -2.24812 3.16847 0
M  V30 2282 H 216.217 -0.0742264 4.6124 0
M  V30 2283 H 214.46 -0.000396433 4.338 0
M  V30 2284 H 215.131 -1.2643 5.37326 0
M  V30 2285 H 217.607 -2.05701 3.61699 0
M  V30 2286 H 216.483 -3.09067 4.53617 0
M  V30 2287 H 216.744 -3.39923 2.82674 0
M  V30 2288 N 215.803 -1.52179 -0.40978 0
M  V30 2289 C 217.052 -1.65434 -1.15388 0
M  V30 2290 C 217.365 -0.390056 -1.91671 0
M  V30 2291 O 218.571 -0.402399 -2.68501 0
M  V30 2292 C 217.027 -2.92279 -2.10003 0
M  V30 2293 C 216.635 -4.25813 -1.39239 0
M  V30 2294 C 218.379 -3.14897 -2.84675 0
M  V30 2295 C 216.286 -5.43782 -2.32498 0
M  V30 2296 H 215.216 -0.616267 -0.434432 0
M  V30 2297 H 217.867 -1.78666 -0.418401 0
M  V30 2298 H 216.249 -2.72744 -2.871 0
M  V30 2299 H 217.423 -4.55828 -0.675099 0
M  V30 2300 H 215.738 -4.09292 -0.766097 0
M  V30 2301 H 218.335 -4.0021 -3.54593 0
M  V30 2302 H 218.678 -2.29103 -3.47588 0
M  V30 2303 H 219.211 -3.34901 -2.14677 0
M  V30 2304 H 215.95 -6.3192 -1.74233 0
M  V30 2305 H 215.47 -5.18106 -3.02201 0
M  V30 2306 H 217.149 -5.76834 -2.93038 0
M  V30 2307 N 217.281 0.66697 -1.42791 0
M  V30 2308 C 218.529 1.42417 -1.43394 0
M  V30 2309 C 218.85 1.94925 -0.0542373 0
M  V30 2310 O 218.12 1.73564 0.908415 0
M  V30 2311 H 216.7 0.528515 -0.527902 0
M  V30 2312 H 219.362 0.787562 -1.78279 0
M  V30 2313 H 218.458 2.27333 -2.13837 0
M  V30 2314 N 218.759 1.29093 0.90403 0
M  V30 2315 C 220.17 1.15186 1.46932 0
M  V30 2316 C 220.521 -0.254587 1.94541 0
M  V30 2317 O 219.646 -1.14972 1.83332 0
M  V30 2318 C 220.241 2.08492 2.67051 0
M  V30 2319 C 218.8 1.98621 3.19729 0
M  V30 2320 C 217.947 1.9967 1.92425 0
M  V30 2321 H 220.898 1.41641 0.715789 0
M  V30 2322 H 220.919 1.65461 3.42641 0
M  V30 2323 H 220.431 3.10847 2.3237 0
M  V30 2324 H 218.532 0.993389 3.59114 0
M  V30 2325 H 218.645 2.86068 3.8432 0
M  V30 2326 H 217.009 1.44208 2.09943 0
M  V30 2327 H 217.792 3.03721 1.60026 0
M  V30 2328 N 220.237 -1.11381 1.11499 0
M  V30 2329 C 221.485 -1.8277 0.862524 0
M  V30 2330 C 221.806 -1.85097 -0.613534 0
M  V30 2331 O 221.076 -1.32198 -1.4457 0
M  V30 2332 H 219.656 -0.676823 0.316101 0
M  V30 2333 H 222.318 -1.34816 1.4075 0
M  V30 2334 H 221.414 -2.86614 1.23527 0
M  V30 2335 N 221.715 -0.905404 -1.28997 0
M  V30 2336 C 222.94 -0.549175 -1.99997 0
M  V30 2337 C 223.365 0.860276 -1.67275 0
M  V30 2338 O 222.723 1.57355 -0.900502 0
M  V30 2339 C 222.771 -0.755185 -3.52604 0
M  V30 2340 O 221.875 0.189692 -4.11964 0
M  V30 2341 H 221.216 -0.213899 -0.628604 0
M  V30 2342 H 223.746 -1.21856 -1.64354 0
M  V30 2343 H 223.756 -0.662045 -4.02593 0
M  V30 2344 H 222.431 -1.78271 -3.75755 0
M  V30 2345 H 221.008 0.0485257 -3.72868 0
M  V30 2346 N 223.193 1.4272 -0.668489 0
M  V30 2347 C 224.418 2.06484 -0.194758 0
M  V30 2348 C 224.843 1.49862 1.13679 0
M  V30 2349 O 224.201 0.614582 1.70565 0
M  V30 2350 C 224.249 3.60353 -0.133546 0
M  V30 2351 O 223.353 4.02464 0.899806 0
M  V30 2352 H 222.694 0.656137 -0.10188 0
M  V30 2353 H 225.224 1.82964 -0.915722 0
M  V30 2354 H 225.234 4.07976 0.0447041 0
M  V30 2355 H 223.909 4.00938 -1.1055 0
M  V30 2356 H 222.486 3.66402 0.693109 0
M  V30 2357 N 224.671 0.411399 1.52136 0
M  V30 2358 C 225.896 -0.165538 2.06738 0
M  V30 2359 C 226.321 -1.379 1.27926 0
M  V30 2360 O 225.679 -1.78628 0.310114 0
M  V30 2361 C 225.727 -0.492124 3.57226 0
M  V30 2362 O 224.831 -1.58276 3.80818 0
M  V30 2363 H 224.172 -0.0132132 0.663869 0
M  V30 2364 H 226.702 0.585253 1.96051 0
M  V30 2365 H 226.712 -0.750104 4.01045 0
M  V30 2366 H 225.387 0.394922 4.14021 0
M  V30 2367 H 223.964 -1.31677 3.48877 0
M  V30 2368 N 226.149 -1.5696 0.141893 0
M  V30 2369 C 227.395 -1.9625 -0.511248 0
M  V30 2370 C 227.728 -1.02654 -1.64851 0
M  V30 2371 O 227.003 -0.0679676 -1.94381 0
M  V30 2372 C 227.286 -3.45285 -1.02227 0
M  V30 2373 C 227.139 -4.49658 0.113138 0
M  V30 2374 C 228.458 -3.96698 -1.90574 0
M  V30 2375 H 225.577 -0.713567 -0.184367 0
M  V30 2376 H 228.219 -1.88698 0.222087 0
M  V30 2377 H 226.369 -3.51852 -1.64719 0
M  V30 2378 H 228.041 -4.55174 0.749302 0
M  V30 2379 H 226.284 -4.26857 0.773026 0
M  V30 2380 H 226.955 -5.51258 -0.286053 0
M  V30 2381 H 229.431 -3.92578 -1.37918 0
M  V30 2382 H 228.307 -5.01453 -2.2324 0
M  V30 2383 H 228.568 -3.3875 -2.84079 0
M  V30 2384 N 227.627 0.131896 -1.57047 0
M  V30 2385 C 228.59 1.14638 -1.98471 0
M  V30 2386 C 229.59 1.35029 -0.873148 0
M  V30 2387 O 230.78 1.31764 -1.13946 0
M  V30 2388 C 227.912 2.50358 -2.31373 0
M  V30 2389 H 229.105 0.79064 -2.8929 0
M  V30 2390 H 226.658 0.375761 -1.51716 0
M  V30 2391 H 227.393 2.90876 -1.43393 0
M  V30 2392 H 227.178 2.36915 -3.12432 0
M  V30 2393 H 228.668 3.23395 -2.64207 0
M  V30 2394 N 229.106 1.52395 0.401703 0
M  V30 2395 C 230.355 1.66044 1.14509 0
M  V30 2396 C 230.668 0.400216 1.91462 0
M  V30 2397 O 231.874 0.416632 2.68284 0
M  V30 2398 C 230.33 2.93388 2.0845 0
M  V30 2399 C 229.938 4.26545 1.36978 0
M  V30 2400 C 231.682 3.16402 2.83001 0
M  V30 2401 C 229.589 5.45007 2.29611 0
M  V30 2402 H 228.519 0.618562 0.431158 0
M  V30 2403 H 231.17 1.78886 0.40892 0
M  V30 2404 H 229.552 2.74263 2.8565 0
M  V30 2405 H 230.726 4.56179 0.650916 0
M  V30 2406 H 229.041 4.09692 0.74438 0
M  V30 2407 H 231.638 4.02085 3.52465 0
M  V30 2408 H 231.981 2.30943 3.46368 0
M  V30 2409 H 232.514 3.36034 2.12898 0
M  V30 2410 H 229.253 6.32835 1.70879 0
M  V30 2411 H 228.773 5.19702 2.9945 0
M  V30 2412 H 230.452 5.7838 2.89974 0
M  V30 2413 N 230.584 -0.659388 1.43143 0
M  V30 2414 C 231.516 -1.7849 1.43784 0
M  V30 2415 C 232.529 -1.5932 0.334787 0
M  V30 2416 O 233.718 -1.68155 0.598842 0
M  V30 2417 C 230.818 -3.15828 1.22906 0
M  V30 2418 C 229.991 -3.61711 2.45934 0
M  V30 2419 C 229.05 -4.77831 2.20371 0
M  V30 2420 O 228.076 -4.87586 2.93681 0
M  V30 2421 N 229.278 -5.67611 1.21647 0
M  V30 2422 H 232.043 -1.7842 2.40803 0
M  V30 2423 H 229.604 -0.84302 1.3822 0
M  V30 2424 H 231.596 -3.91189 1.03697 0
M  V30 2425 H 230.166 -3.10707 0.343542 0
M  V30 2426 H 229.386 -2.76861 2.80609 0
M  V30 2427 H 230.674 -3.89112 3.27825 0
M  V30 2428 H 230.072 -5.62397 0.610449 0
M  V30 2429 H 228.629 -6.42719 1.08423 0
M  V30 2430 N 232.062 -1.29571 -0.897171 0
M  V30 2431 C 233.308 -1.17863 -1.65034 0
M  V30 2432 C 233.641 0.268729 -1.92332 0
M  V30 2433 O 232.916 1.19378 -1.53555 0
M  V30 2434 C 233.199 -1.995 -2.99786 0
M  V30 2435 C 233.052 -3.5239 -2.79538 0
M  V30 2436 C 234.371 -1.82335 -4.00552 0
M  V30 2437 H 231.49 -0.429528 -0.598895 0
M  V30 2438 H 234.132 -1.59072 -1.03905 0
M  V30 2439 H 232.282 -1.64485 -3.51962 0
M  V30 2440 H 233.954 -3.97401 -2.34244 0
M  V30 2441 H 232.197 -3.77187 -2.14273 0
M  V30 2442 H 232.868 -4.04787 -3.75302 0
M  V30 2443 H 235.344 -2.12924 -3.57495 0
M  V30 2444 H 234.22 -2.41801 -4.92771 0
M  V30 2445 H 234.481 -0.779209 -4.35179 0
M  V30 2446 N 233.54 1.10788 -1.12088 0
M  V30 2447 C 234.472 2.16816 -0.743213 0
M  V30 2448 C 235.485 1.6119 0.228412 0
M  V30 2449 O 236.674 1.78497 0.0102931 0
M  V30 2450 C 233.774 3.38809 -0.0787313 0
M  V30 2451 C 232.947 4.23885 -1.0789 0
M  V30 2452 C 232.006 5.24334 -0.442713 0
M  V30 2453 O 231.032 5.58497 -1.09864 0
M  V30 2454 N 232.234 5.75079 0.791457 0
M  V30 2455 H 234.999 2.49825 -1.65552 0
M  V30 2456 H 232.56 1.26373 -1.012 0
M  V30 2457 H 234.552 4.03107 0.358766 0
M  V30 2458 H 233.122 3.03805 0.736275 0
M  V30 2459 H 232.342 3.55939 -1.69414 0
M  V30 2460 H 233.63 4.77562 -1.75533 0
M  V30 2461 H 233.028 5.49517 1.3434 0
M  V30 2462 H 231.585 6.4118 1.17183 0
M  V30 2463 N 235.018 0.912232 1.28515 0
M  V30 2464 C 235.966 0.389597 2.29314 0
M  V30 2465 C 236.96 -0.517915 1.61289 0
M  V30 2466 O 238.166 -0.399328 1.75515 0
M  V30 2467 H 234.541 0.107386 0.744293 0
M  V30 2468 H 236.512 1.25286 2.70825 0
M  V30 2469 C 235.261 -0.356496 3.45868 0
M  V30 2470 H 234.584 0.332608 3.98414 0
M  V30 2471 H 236.024 -0.686851 4.184 0
M  V30 2472 C 234.483 -1.56383 2.98406 0
M  V30 2473 O 235.013 -2.66294 3.00749 0
M  V30 2474 N 233.219 -1.41029 2.54085 0
M  V30 2475 H 232.766 -0.516089 2.52377 0
M  V30 2476 H 232.724 -2.21939 2.22689 0
M  V30 2477 N 236.496 -1.42363 0.676048 0
M  V30 2478 C 237.426 -2.33497 0.0124832 0
M  V30 2479 C 238.407 -1.50748 -0.787981 0
M  V30 2480 O 239.592 -1.79346 -0.744884 0
M  V30 2481 C 236.722 -3.34377 -0.938582 0
M  V30 2482 C 235.676 -4.27289 -0.246622 0
M  V30 2483 C 235.002 -5.18386 -1.31071 0
M  V30 2484 C 236.302 -5.14916 0.875125 0
M  V30 2485 H 237.996 -2.89233 0.773593 0
M  V30 2486 H 235.542 -1.39073 0.37346 0
M  V30 2487 H 237.495 -3.97044 -1.41188 0
M  V30 2488 H 236.219 -2.76947 -1.73113 0
M  V30 2489 H 234.878 -3.66018 0.206456 0
M  V30 2490 H 234.526 -4.57282 -2.09528 0
M  V30 2491 H 234.226 -5.81378 -0.852839 0
M  V30 2492 H 235.75 -5.83929 -1.78492 0
M  V30 2493 H 237.164 -5.71262 0.482983 0
M  V30 2494 H 235.561 -5.86747 1.25887 0
M  V30 2495 H 236.631 -4.53242 1.72335 0
M  V30 2496 N 237.974 -0.419461 -1.51915 0
M  V30 2497 C 238.904 0.391813 -2.30189 0
M  V30 2498 C 239.885 1.03699 -1.34836 0
M  V30 2499 O 241.07 1.04403 -1.63748 0
M  V30 2500 C 238.2 1.50312 -3.13087 0
M  V30 2501 C 237.154 0.9824 -4.16573 0
M  V30 2502 C 236.48 2.18809 -4.8788 0
M  V30 2503 C 237.78 0.0292356 -5.22292 0
M  V30 2504 H 239.474 -0.26135 -2.98257 0
M  V30 2505 H 237.02 -0.127134 -1.43438 0
M  V30 2506 H 238.973 2.07773 -3.66617 0
M  V30 2507 H 237.697 2.18431 -2.42807 0
M  V30 2508 H 236.356 0.430119 -3.64068 0
M  V30 2509 H 236.004 2.85507 -4.14119 0
M  V30 2510 H 235.704 1.84615 -5.57845 0
M  V30 2511 H 237.228 2.76858 -5.44226 0
M  V30 2512 H 238.642 0.512976 -5.71 0
M  V30 2513 H 237.039 -0.2244 -5.9968 0
M  V30 2514 H 238.109 -0.912931 -4.76228 0
M  V30 2515 N 239.452 1.56882 -0.150215 0
M  V30 2516 C 240.384 2.14057 0.819286 0
M  V30 2517 C 241.397 1.09082 1.20851 0
M  V30 2518 O 242.586 1.36347 1.15203 0
M  V30 2519 C 239.686 2.65102 2.11127 0
M  V30 2520 C 238.859 3.94511 1.88891 0
M  V30 2521 C 237.918 4.30834 3.02107 0
M  V30 2522 O 236.944 4.99099 2.73659 0
M  V30 2523 N 238.146 3.90676 4.29363 0
M  V30 2524 H 240.911 2.97871 0.330618 0
M  V30 2525 H 238.472 1.61866 0.0332538 0
M  V30 2526 H 240.464 2.86411 2.85921 0
M  V30 2527 H 239.034 1.85994 2.51247 0
M  V30 2528 H 238.254 3.81795 0.981152 0
M  V30 2529 H 239.542 4.7907 1.71376 0
M  V30 2530 H 238.94 3.35677 4.55343 0
M  V30 2531 H 237.497 4.1703 5.00928 0
M  V30 2532 N 240.93 -0.123565 1.57115 0
M  V30 2533 C 241.86 -1.15309 2.03042 0
M  V30 2534 C 242.841 -1.43454 0.914061 0
M  V30 2535 O 244.026 -1.53973 1.18347 0
M  V30 2536 C 241.156 -2.48043 2.43089 0
M  V30 2537 C 240.11 -2.3437 3.58127 0
M  V30 2538 C 239.436 -3.72026 3.84059 0
M  V30 2539 C 240.736 -1.80804 4.90007 0
M  V30 2540 H 242.43 -0.771102 2.893 0
M  V30 2541 H 239.976 -0.369479 1.39179 0
M  V30 2542 H 241.929 -3.20311 2.73823 0
M  V30 2543 H 240.653 -2.88122 1.53796 0
M  V30 2544 H 239.312 -1.64551 3.27595 0
M  V30 2545 H 238.96 -4.09582 2.91979 0
M  V30 2546 H 238.66 -3.63732 4.6149 0
M  V30 2547 H 240.184 -4.45806 4.1724 0
M  V30 2548 H 241.598 -2.42886 5.19307 0
M  V30 2549 H 239.995 -1.83343 5.71407 0
M  V30 2550 H 241.065 -0.76528 4.78823 0
M  V30 2551 N 242.408 -1.52605 -0.393616 0
M  V30 2552 C 243.655 -1.67424 -1.1391 0
M  V30 2553 C 243.983 -0.411859 -1.90089 0
M  V30 2554 O 243.238 0.605626 -1.86093 0
M  V30 2555 C 243.537 -2.85721 -2.14705 0
M  V30 2556 C 243.203 -4.23342 -1.55218 0
M  V30 2557 C 241.865 -4.60771 -1.3872 0
M  V30 2558 C 244.217 -5.09041 -1.11924 0
M  V30 2559 C 241.545 -5.81563 -0.774689 0
M  V30 2560 C 243.897 -6.30452 -0.520853 0
M  V30 2561 C 242.561 -6.66617 -0.343134 0
M  V30 2562 H 241.831 -0.612648 -0.416826 0
M  V30 2563 H 244.478 -1.8674 -0.424315 0
M  V30 2564 H 242.783 -2.60803 -2.92385 0
M  V30 2565 H 244.48 -2.94382 -2.72288 0
M  V30 2566 H 241.07 -3.93855 -1.69045 0
M  V30 2567 H 245.254 -4.80695 -1.23473 0
M  V30 2568 H 240.51 -6.08196 -0.625154 0
M  V30 2569 H 244.684 -6.96175 -0.177065 0
M  V30 2570 H 242.311 -7.60083 0.133571 0
M  V30 2571 N 243.887 0.651787 -1.4349 0
M  V30 2572 C 244.835 1.78586 -1.49029 0
M  V30 2573 C 245.829 1.65448 -0.363767 0
M  V30 2574 O 247.035 1.71777 -0.537821 0
M  V30 2575 H 243.41 0.589236 -0.467231 0
M  V30 2576 H 245.381 1.71035 -2.44519 0
M  V30 2577 C 244.13 3.16851 -1.43181 0
M  V30 2578 H 243.453 3.27598 -2.29171 0
M  V30 2579 H 244.893 3.96156 -1.51118 0
M  V30 2580 C 243.352 3.36568 -0.149616 0
M  V30 2581 O 243.882 3.93885 0.788509 0
M  V30 2582 N 242.088 2.90539 -0.0593484 0
M  V30 2583 H 241.635 2.4408 -0.823575 0
M  V30 2584 H 241.593 3.04108 0.797853 0
M  V30 2585 N 245.365 1.30045 0.890287 0
M  V30 2586 C 246.614 1.17929 1.63633 0
M  V30 2587 C 246.927 -0.266204 1.9378 0
M  V30 2588 O 248.133 -0.508804 2.6669 0
M  V30 2589 C 246.589 2.06317 2.94892 0
M  V30 2590 C 246.197 3.55745 2.72305 0
M  V30 2591 C 247.941 2.0295 3.72843 0
M  V30 2592 C 245.848 4.36205 3.99348 0
M  V30 2593 H 244.778 0.437782 0.613892 0
M  V30 2594 H 247.429 1.54754 0.986075 0
M  V30 2595 H 245.811 1.6237 3.61182 0
M  V30 2596 H 246.985 4.07805 2.1455 0
M  V30 2597 H 245.3 3.6088 2.07737 0
M  V30 2598 H 247.897 2.60319 4.67053 0
M  V30 2599 H 248.24 1.0117 4.0382 0
M  V30 2600 H 248.773 2.4499 3.13408 0
M  V30 2601 H 245.512 5.38659 3.73533 0
M  V30 2602 H 245.032 3.8891 4.56628 0
M  V30 2603 H 246.711 4.47362 4.67415 0
M  V30 2604 N 246.843 -1.10192 1.12674 0
M  V30 2605 C 248.254 -1.63707 0.897604 0
M  V30 2606 C 248.605 -1.87812 -0.567546 0
M  V30 2607 O 247.73 -1.62196 -1.43253 0
M  V30 2608 C 248.325 -2.974 1.62292 0
M  V30 2609 C 246.884 -3.47772 1.43986 0
M  V30 2610 C 246.031 -2.22332 1.65722 0
M  V30 2611 H 248.982 -0.936587 1.28116 0
M  V30 2612 H 249.003 -3.64986 1.07541 0
M  V30 2613 H 248.515 -2.79824 2.68924 0
M  V30 2614 H 246.616 -3.70487 0.396206 0
M  V30 2615 H 246.729 -4.25723 2.19765 0
M  V30 2616 H 245.093 -2.30599 1.08149 0
M  V30 2617 H 245.876 -2.07285 2.73657 0
M  V30 2618 N 248.321 -0.919034 -1.28029 0
M  V30 2619 C 249.253 -0.368762 -2.26214 0
M  V30 2620 C 250.266 0.495716 -1.55069 0
M  V30 2621 O 251.455 0.30974 -1.75792 0
M  V30 2622 C 248.555 0.491049 -3.35324 0
M  V30 2623 C 247.728 -0.352133 -4.3598 0
M  V30 2624 C 246.787 0.443622 -5.24327 0
M  V30 2625 O 245.813 -0.14566 -5.69014 0
M  V30 2626 N 247.015 1.74545 -5.53637 0
M  V30 2627 H 249.78 -1.21273 -2.74068 0
M  V30 2628 H 247.341 -0.785541 -1.41566 0
M  V30 2629 H 249.333 1.03026 -3.91366 0
M  V30 2630 H 247.903 1.23574 -2.87138 0
M  V30 2631 H 247.123 -1.07269 -3.79324 0
M  V30 2632 H 248.411 -0.928883 -5.00249 0
M  V30 2633 H 247.809 2.24666 -5.19174 0
M  V30 2634 H 246.366 2.23138 -6.12416 0
M  V30 2635 N 249.799 1.42003 -0.683588 0
M  V30 2636 C 251.048 2.00638 -0.206681 0
M  V30 2637 C 251.361 1.5472 1.19671 0
M  V30 2638 O 252.567 2.05833 1.77045 0
M  V30 2639 C 251.023 3.58487 -0.318632 0
M  V30 2640 C 250.631 4.1339 -1.72663 0
M  V30 2641 C 252.375 4.24384 0.0991141 0
M  V30 2642 C 250.282 5.63633 -1.79087 0
M  V30 2643 H 249.212 0.750408 -0.0735107 0
M  V30 2644 H 251.863 1.62624 -0.850048 0
M  V30 2645 H 250.245 3.94047 0.392781 0
M  V30 2646 H 251.419 3.89273 -2.46583 0
M  V30 2647 H 249.734 3.59976 -2.09299 0
M  V30 2648 H 252.331 5.34652 0.0713833 0
M  V30 2649 H 252.674 4.00505 1.13586 0
M  V30 2650 H 253.207 3.93816 -0.561599 0
M  V30 2651 H 249.946 5.92323 -2.80774 0
M  V30 2652 H 249.466 5.89714 -1.09535 0
M  V30 2653 H 251.145 6.28201 -1.5483 0
M  V30 2654 N 251.277 0.427512 1.51691 0
M  V30 2655 C 252.24 -0.377132 2.26076 0
M  V30 2656 C 253.24 -0.958089 1.29141 0
M  V30 2657 O 254.43 -0.83408 1.52934 0
M  V30 2658 C 251.562 -1.53262 3.04506 0
M  V30 2659 H 252.755 0.27464 2.9864 0
M  V30 2660 H 250.308 0.180445 1.55255 0
M  V30 2661 H 251.043 -2.22072 2.36335 0
M  V30 2662 H 250.828 -1.12232 3.75694 0
M  V30 2663 H 252.318 -2.10135 3.60878 0
M  V30 2664 N 252.755 -1.56801 0.158532 0
M  V30 2665 C 253.985 -2.00568 -0.495583 0
M  V30 2666 C 254.393 -1.03774 -1.58201 0
M  V30 2667 O 253.736 -0.0285797 -1.83678 0
M  V30 2668 C 253.798 -3.40768 -1.14532 0
M  V30 2669 C 253.462 -4.56553 -0.202101 0
M  V30 2670 C 254.459 -5.16714 0.574675 0
M  V30 2671 C 252.144 -5.02197 -0.101648 0
M  V30 2672 C 254.138 -6.20939 1.43924 0
M  V30 2673 C 251.825 -6.06274 0.766508 0
M  V30 2674 C 252.823 -6.65515 1.53555 0
M  V30 2675 O 252.511 -7.67575 2.38922 0
M  V30 2676 H 252.243 -0.662893 -0.13247 0
M  V30 2677 H 254.797 -2.03829 0.253559 0
M  V30 2678 H 253.027 -3.34381 -1.94233 0
M  V30 2679 H 254.716 -3.6857 -1.70033 0
M  V30 2680 H 255.482 -4.82341 0.507167 0
M  V30 2681 H 251.361 -4.55807 -0.689994 0
M  V30 2682 H 254.905 -6.67107 2.03996 0
M  V30 2683 H 250.802 -6.40073 0.835266 0
M  V30 2684 H 251.57 -7.84844 2.32296 0
M  V30 2685 N 254.233 0.115231 -1.57178 0
M  V30 2686 C 255.458 0.840354 -1.89612 0
M  V30 2687 C 255.883 1.72464 -0.750845 0
M  V30 2688 O 255.241 1.78826 0.298478 0
M  V30 2689 C 255.289 1.64654 -3.20814 0
M  V30 2690 O 254.393 2.7538 -3.06985 0
M  V30 2691 H 253.734 0.232158 -0.622092 0
M  V30 2692 H 256.264 0.0964977 -2.04372 0
M  V30 2693 H 256.274 2.03499 -3.53627 0
M  V30 2694 H 254.949 0.997416 -4.03763 0
M  V30 2695 H 253.526 2.3971 -2.85646 0
M  V30 2696 N 255.711 1.52812 0.385517 0
M  V30 2697 C 256.674 1.77188 1.45386 0
M  V30 2698 C 257.674 0.641953 1.4743 0
M  V30 2699 O 258.864 0.910033 1.4854 0
M  V30 2700 C 255.996 1.87582 2.8465 0
M  V30 2701 H 257.189 2.72583 1.25054 0
M  V30 2702 H 254.742 1.43586 0.617467 0
M  V30 2703 H 255.477 0.941849 3.10322 0
M  V30 2704 H 255.262 2.69748 2.84567 0
M  V30 2705 H 256.752 2.08102 3.62054 0
M  V30 2706 N 257.189 -0.644168 1.43834 0
M  V30 2707 C 258.417 -1.43147 1.49387 0
M  V30 2708 C 258.832 -1.88452 0.114583 0
M  V30 2709 O 258.189 -1.60047 -0.876989 0
M  V30 2710 C 258.24 -2.66046 2.44748 0
M  V30 2711 O 257.961 -2.22633 3.77314 0
M  V30 2712 C 259.462 -3.59311 2.59635 0
M  V30 2713 H 256.682 -0.439447 0.507077 0
M  V30 2714 H 259.226 -0.78895 1.88669 0
M  V30 2715 H 257.381 -3.26418 2.08638 0
M  V30 2716 H 257.795 -3.02216 4.28679 0
M  V30 2717 H 259.269 -4.42187 3.30416 0
M  V30 2718 H 259.746 -4.07259 1.64427 0
M  V30 2719 H 260.352 -3.04816 2.96593 0
M  V30 2720 N 258.668 -1.30515 -0.883378 0
M  V30 2721 C 259.893 -1.22487 -1.67367 0
M  V30 2722 C 260.318 0.208767 -1.86938 0
M  V30 2723 O 259.676 1.15015 -1.40148 0
M  V30 2724 C 259.724 -1.96041 -3.02655 0
M  V30 2725 O 258.828 -1.28859 -3.91751 0
M  V30 2726 H 258.169 -0.423573 -0.511353 0
M  V30 2727 H 260.699 -1.72362 -1.10239 0
M  V30 2728 H 260.709 -2.05124 -3.52687 0
M  V30 2729 H 259.384 -3.00307 -2.8773 0
M  V30 2730 H 257.961 -1.28141 -3.50192 0
M  V30 2731 N 260.146 1.09593 -1.13257 0
M  V30 2732 C 261.079 2.15451 -0.752061 0
M  V30 2733 C 262.057 1.60493 0.260913 0
M  V30 2734 O 263.241 1.8788 0.152819 0
M  V30 2735 C 260.368 3.38506 -0.114594 0
M  V30 2736 C 259.414 4.12183 -1.09579 0
M  V30 2737 S 260.247 4.6661 -2.62745 0
M  V30 2738 C 261.403 5.92966 -2.00354 0
M  V30 2739 H 261.636 2.47395 -1.64872 0
M  V30 2740 H 259.169 1.21515 -0.952545 0
M  V30 2741 H 261.127 4.09757 0.246808 0
M  V30 2742 H 259.788 3.04784 0.759309 0
M  V30 2743 H 258.981 5.00445 -0.597545 0
M  V30 2744 H 258.583 3.46785 -1.40057 0
M  V30 2745 H 260.875 6.63882 -1.35156 0
M  V30 2746 H 261.818 6.47467 -2.86691 0
M  V30 2747 H 262.226 5.45405 -1.4558 0
M  V30 2748 N 261.624 0.925811 1.2754 0
M  V30 2749 C 262.901 0.483726 1.89524 0
M  V30 2750 C 263.281 -1.03809 1.83812 0
M  V30 2751 O 262.629 -1.89143 1.28207 0
M  V30 2752 C 262.839 1.02769 3.33526 0
M  V30 2753 C 264.187 1.08703 4.10449 0
M  V30 2754 O 265.211 0.977175 3.42534 0
M  V30 2755 O 264.07 1.25599 5.31871 0
M  V30 2756 H 261.164 0.15529 0.812289 0
M  V30 2757 H 263.71 1.01738 1.35822 0
M  V30 2758 H 262.482 2.07155 3.31967 0
M  V30 2759 H 262.105 0.475567 3.94746 0
M  V30 2760 N 263.102 -1.41638 0.69111 0
M  V30 2761 C 264.032 -2.3347 0.037248 0
M  V30 2762 C 265.013 -1.51575 -0.771947 0
M  V30 2763 O 266.198 -1.80126 -0.72582 0
M  V30 2764 C 263.328 -3.35354 -0.903064 0
M  V30 2765 C 262.282 -4.27526 -0.201288 0
M  V30 2766 C 261.608 -5.19747 -1.25565 0
M  V30 2767 C 262.908 -5.13959 0.929689 0
M  V30 2768 H 264.602 -2.88397 0.804227 0
M  V30 2769 H 262.148 -1.38669 0.388189 0
M  V30 2770 H 264.101 -3.98519 -1.36969 0
M  V30 2771 H 262.825 -2.78767 -1.70166 0
M  V30 2772 H 261.484 -3.65779 0.245265 0
M  V30 2773 H 261.132 -4.59479 -2.04666 0
M  V30 2774 H 260.832 -5.8225 -0.791128 0
M  V30 2775 H 262.356 -5.85789 -1.72288 0
M  V30 2776 H 263.77 -5.70718 0.543546 0
M  V30 2777 H 262.167 -5.85379 1.32103 0
M  V30 2778 H 263.237 -4.51389 1.77133 0
M  V30 2779 N 264.58 -0.43555 -1.51462 0
M  V30 2780 C 265.805 0.132627 -2.06976 0
M  V30 2781 C 266.23 1.35848 -1.30104 0
M  V30 2782 O 265.588 1.78112 -0.338493 0
M  V30 2783 C 265.636 0.43523 -3.57964 0
M  V30 2784 O 264.74 1.52198 -3.83288 0
M  V30 2785 H 264.081 0.00265 -0.663995 0
M  V30 2786 H 266.611 -0.616369 -1.95095 0
M  V30 2787 H 266.621 0.686206 -4.02188 0
M  V30 2788 H 265.296 -0.460739 -4.1334 0
M  V30 2789 H 263.873 1.2611 -3.50928 0
M  V30 2790 N 266.058 1.56714 -0.166846 0
M  V30 2791 C 267.335 1.88412 0.525373 0
M  V30 2792 C 267.715 1.07602 1.81618 0
M  V30 2793 O 267.063 0.168621 2.27877 0
M  V30 2794 C 267.273 3.40363 0.771613 0
M  V30 2795 C 268.621 4.10007 1.1036 0
M  V30 2796 O 269.645 3.45655 0.860304 0
M  V30 2797 O 268.504 5.2369 1.56239 0
M  V30 2798 H 265.598 0.781587 0.270278 0
M  V30 2799 H 268.144 1.68458 -0.204946 0
M  V30 2800 H 266.916 3.91046 -0.141093 0
M  V30 2801 H 266.539 3.65914 1.55541 0
M  V30 2802 N 267.536 -0.106894 1.57237 0
M  V30 2803 C 268.483 -1.13049 2.01217 0
M  V30 2804 C 269.453 -1.40471 0.886403 0
M  V30 2805 O 270.638 -1.52133 1.15153 0
M  V30 2806 C 267.778 -2.4487 2.43172 0
M  V30 2807 C 266.891 -2.24281 3.69218 0
M  V30 2808 C 266.026 -3.49417 4.00101 0
M  V30 2809 C 265.065 -3.24038 5.19294 0
M  V30 2810 N 264.202 -4.41409 5.45988 0
M  V30 2811 H 269.042 -0.748456 2.88448 0
M  V30 2812 H 266.579 -0.358054 1.42676 0
M  V30 2813 H 268.537 -3.21786 2.65537 0
M  V30 2814 H 267.167 -2.80944 1.58967 0
M  V30 2815 H 266.219 -1.38224 3.54398 0
M  V30 2816 H 267.531 -2.01512 4.56283 0
M  V30 2817 H 266.685 -4.34746 4.2318 0
M  V30 2818 H 265.424 -3.75229 3.11535 0
M  V30 2819 H 264.429 -2.37102 4.96047 0
M  V30 2820 H 265.654 -2.99584 6.09447 0
M  V30 2821 H 263.6 -4.67319 4.60379 0
M  V30 2822 H 263.517 -4.21788 6.274 0
M  V30 2823 H 264.785 -5.27836 5.73593 0
M  V30 2824 N 269.014 -1.53014 -0.377408 0
M  V30 2825 C 270.242 -1.72515 -1.14219 0
M  V30 2826 C 270.657 -0.448735 -1.8339 0
M  V30 2827 O 270.014 0.577592 -1.73119 0
M  V30 2828 C 270.065 -2.8826 -2.18148 0
M  V30 2829 O 269.786 -4.10962 -1.51795 0
M  V30 2830 C 271.287 -3.19536 -3.07264 0
M  V30 2831 H 268.507 -0.577301 -0.342001 0
M  V30 2832 H 271.051 -1.99712 -0.439935 0
M  V30 2833 H 269.206 -2.63492 -2.83991 0
M  V30 2834 H 269.62 -4.75693 -2.20945 0
M  V30 2835 H 271.094 -4.03959 -3.76193 0
M  V30 2836 H 271.571 -2.34403 -3.71419 0
M  V30 2837 H 272.177 -3.46186 -2.47053 0
M  V30 2838 N 270.492 0.636531 -1.44174 0
M  V30 2839 C 271.422 1.76003 -1.53444 0
M  V30 2840 C 272.403 1.65619 -0.387841 0
M  V30 2841 O 273.588 1.84461 -0.607257 0
M  V30 2842 C 270.718 3.14511 -1.4731 0
M  V30 2843 C 269.672 3.39677 -2.60391 0
M  V30 2844 C 268.998 4.78159 -2.39308 0
M  V30 2845 C 270.298 3.32772 -4.02567 0
M  V30 2846 H 271.992 1.68501 -2.47483 0
M  V30 2847 H 269.538 0.809237 -1.19111 0
M  V30 2848 H 271.491 3.92878 -1.52397 0
M  V30 2849 H 270.215 3.22783 -0.49785 0
M  V30 2850 H 268.874 2.63688 -2.54684 0
M  V30 2851 H 268.522 4.83128 -1.39988 0
M  V30 2852 H 268.222 4.95956 -3.15122 0
M  V30 2853 H 269.746 5.58762 -2.46205 0
M  V30 2854 H 271.16 4.01051 -4.09672 0
M  V30 2855 H 269.557 3.62104 -4.7854 0
M  V30 2856 H 270.627 2.30669 -4.2652 0
M  V30 2857 N 271.97 1.30982 0.876444 0
M  V30 2858 C 273.217 1.20296 1.62896 0
M  V30 2859 C 273.545 -0.240395 1.93009 0
M  V30 2860 O 272.8 -1.18733 1.55567 0
M  V30 2861 C 273.099 1.98572 2.9716 0
M  V30 2862 C 272.765 3.48125 2.86566 0
M  V30 2863 C 271.427 3.88905 2.83383 0
M  V30 2864 C 273.779 4.43322 2.74071 0
M  V30 2865 C 271.107 5.2316 2.65556 0
M  V30 2866 C 273.459 5.77695 2.57781 0
M  V30 2867 C 272.123 6.17704 2.52979 0
M  V30 2868 H 271.393 0.440193 0.59608 0
M  V30 2869 H 274.04 1.62177 1.01837 0
M  V30 2870 H 272.345 1.49352 3.62217 0
M  V30 2871 H 274.042 1.8769 3.54364 0
M  V30 2872 H 270.632 3.15723 2.89856 0
M  V30 2873 H 274.816 4.12752 2.75589 0
M  V30 2874 H 270.072 5.53241 2.60259 0
M  V30 2875 H 274.246 6.51091 2.47089 0
M  V30 2876 H 271.873 7.21678 2.38924 0
M  V30 2877 N 273.449 -1.08991 1.13837 0
M  V30 2878 C 274.396 -2.15748 0.819835 0
M  V30 2879 C 275.366 -1.64636 -0.220026 0
M  V30 2880 O 276.551 -1.90582 -0.0912757 0
M  V30 2881 C 273.691 -3.4382 0.296913 0
M  V30 2882 C 272.804 -4.0881 1.39636 0
M  V30 2883 C 271.939 -5.24655 0.831314 0
M  V30 2884 C 270.978 -5.81575 1.90886 0
M  V30 2885 N 270.115 -6.88774 1.36142 0
M  V30 2886 H 274.955 -2.42338 1.73426 0
M  V30 2887 H 272.492 -1.18935 0.865613 0
M  V30 2888 H 274.45 -4.17193 -0.0244339 0
M  V30 2889 H 273.08 -3.17535 -0.580628 0
M  V30 2890 H 272.132 -3.33258 1.83422 0
M  V30 2891 H 273.444 -4.47141 2.21058 0
M  V30 2892 H 272.598 -6.04942 0.461515 0
M  V30 2893 H 271.337 -4.87698 -0.013932 0
M  V30 2894 H 270.342 -4.99946 2.28767 0
M  V30 2895 H 271.567 -6.20592 2.75758 0
M  V30 2896 H 269.513 -6.53788 0.538254 0
M  V30 2897 H 269.43 -7.25898 2.11208 0
M  V30 2898 H 270.698 -7.72806 1.01933 0
M  V30 2899 N 274.927 -0.932562 -1.27047 0
M  V30 2900 C 276.157 -0.591173 -1.97961 0
M  V30 2901 C 276.565 0.836219 -1.69717 0
M  V30 2902 O 275.908 1.56801 -0.957036 0
M  V30 2903 C 275.97 -0.743082 -3.51736 0
M  V30 2904 C 275.634 -2.1435 -4.03613 0
M  V30 2905 C 276.631 -3.11815 -4.16014 0
M  V30 2906 C 274.316 -2.46175 -4.37839 0
M  V30 2907 C 276.31 -4.39211 -4.61923 0
M  V30 2908 C 273.997 -3.73806 -4.83438 0
M  V30 2909 C 274.995 -4.70137 -4.95439 0
M  V30 2910 O 274.683 -5.95496 -5.40037 0
M  V30 2911 H 274.415 -0.222375 -0.638377 0
M  V30 2912 H 276.969 -1.25317 -1.62742 0
M  V30 2913 H 275.199 -0.0239739 -3.86693 0
M  V30 2914 H 276.888 -0.40603 -4.03864 0
M  V30 2915 H 277.654 -2.88549 -3.89826 0
M  V30 2916 H 273.533 -1.71936 -4.27737 0
M  V30 2917 H 277.077 -5.14404 -4.71205 0
M  V30 2918 H 272.974 -3.96888 -5.09068 0
M  V30 2919 H 273.742 -5.98554 -5.58279 0
M  V30 2920 N 276.405 1.4127 -0.698611 0
M  V30 2921 C 277.652 2.0118 -0.230865 0
M  V30 2922 C 277.98 1.55338 1.17049 0
M  V30 2923 O 277.235 0.756775 1.80475 0
M  V30 2924 C 277.534 3.56592 -0.240192 0
M  V30 2925 C 277.2 4.21955 -1.58948 0
M  V30 2926 C 275.862 4.39524 -1.95887 0
M  V30 2927 C 278.214 4.58576 -2.47704 0
M  V30 2928 C 275.542 4.90992 -3.2116 0
M  V30 2929 C 277.894 5.11435 -3.72313 0
M  V30 2930 C 276.558 5.27215 -4.0939 0
M  V30 2931 H 275.828 0.736169 -0.0844796 0
M  V30 2932 H 278.475 1.69124 -0.8983 0
M  V30 2933 H 276.78 3.88456 0.510797 0
M  V30 2934 H 278.477 4.00758 0.139296 0
M  V30 2935 H 275.067 4.08657 -1.29219 0
M  V30 2936 H 279.251 4.44654 -2.20445 0
M  V30 2937 H 274.507 5.01393 -3.49878 0
M  V30 2938 H 278.681 5.38752 -4.4127 0
M  V30 2939 H 276.308 5.66859 -5.06533 0
M  V30 2940 N 277.883 0.443576 1.51229 0
M  V30 2941 C 278.816 -0.410089 2.24485 0
M  V30 2942 C 279.794 -1.01949 1.26669 0
M  V30 2943 O 280.978 -1.06075 1.55821 0
M  V30 2944 C 278.105 -1.57211 3.00004 0
M  V30 2945 C 277.151 -1.08279 4.12526 0
M  V30 2946 S 277.984 -0.0197476 5.35496 0
M  V30 2947 C 279.14 -1.18629 6.14555 0
M  V30 2948 H 279.373 0.211832 2.96544 0
M  V30 2949 H 276.906 0.228156 1.52705 0
M  V30 2950 H 278.864 -2.23825 3.44111 0
M  V30 2951 H 277.525 -2.16547 2.27522 0
M  V30 2952 H 276.718 -1.95193 4.64667 0
M  V30 2953 H 276.32 -0.494797 3.70713 0
M  V30 2954 H 278.612 -2.10344 6.4402 0
M  V30 2955 H 279.555 -0.70472 7.04584 0
M  V30 2956 H 279.963 -1.42768 5.46148 0
M  V30 2957 N 279.361 -1.56624 0.175154 0
M  V30 2958 C 280.777 -1.58571 -0.180966 0
M  V30 2959 C 280.977 -1.19065 -1.6256 0
M  V30 2960 O 280.033 -0.904044 -2.35761 0
M  V30 2961 C 281.346 -3.00522 0.103326 0
M  V30 2962 C 282.894 -3.12972 0.0418426 0
M  V30 2963 C 283.369 -4.57022 0.299175 0
M  V30 2964 N 284.86 -4.62541 0.247086 0
M  V30 2965 C 285.595 -5.71857 0.420318 0
M  V30 2966 N 285.091 -6.89717 0.652816 0
M  V30 2967 N 286.884 -5.60972 0.355957 0
M  V30 2968 H 279.035 -1.80589 1.11809 0
M  V30 2969 H 281.298 -0.837178 0.444788 0
M  V30 2970 H 281.004 -3.33916 1.10422 0
M  V30 2971 H 280.878 -3.72344 -0.603299 0
M  V30 2972 H 283.265 -2.79403 -0.949636 0
M  V30 2973 H 283.346 -2.43578 0.781238 0
M  V30 2974 H 282.99 -4.913 1.28788 0
M  V30 2975 H 282.92 -5.24579 -0.460876 0
M  V30 2976 H 285.411 -3.77829 0.0731895 0
M  V30 2977 H 285.724 -7.68911 0.774347 0
M  V30 2978 H 284.069 -6.91572 0.689476 0
M  V30 2979 H 287.26 -4.67773 0.174882 0
M  V30 2980 H 287.433 -6.46111 0.494388 0
M  V30 2981 N 280.839 0.0985539 -1.57292 0
M  V30 2982 C 282.085 0.803867 -1.86188 0
M  V30 2983 C 282.418 1.78549 -0.763794 0
M  V30 2984 O 281.693 1.93153 0.22855 0
M  V30 2985 C 281.976 1.53568 -3.25713 0
M  V30 2986 C 281.829 0.572277 -4.46145 0
M  V30 2987 C 283.148 2.48708 -3.63087 0
M  V30 2988 H 280.267 0.290781 -0.677211 0
M  V30 2989 H 282.909 0.0675783 -1.8988 0
M  V30 2990 H 281.059 2.16332 -3.22696 0
M  V30 2991 H 282.731 -0.0480894 -4.61275 0
M  V30 2992 H 280.974 -0.114618 -4.33649 0
M  V30 2993 H 281.645 1.12139 -5.40489 0
M  V30 2994 H 284.121 1.96039 -3.67026 0
M  V30 2995 H 282.997 2.96932 -4.61652 0
M  V30 2996 H 283.258 3.32309 -2.91588 0
M  V30 2997 N 282.317 1.53212 0.369288 0
M  V30 2998 C 283.563 1.69466 1.11397 0
M  V30 2999 C 283.896 0.443257 1.89074 0
M  V30 3000 O 283.171 -0.559386 1.86282 0
M  V30 3001 C 283.454 2.9422 2.07621 0
M  V30 3002 C 283.307 4.29508 1.33577 0
M  V30 3003 C 284.626 3.14565 3.07794 0
M  V30 3004 H 281.745 0.616667 0.403597 0
M  V30 3005 H 284.387 1.85845 0.395179 0
M  V30 3006 H 282.537 2.80387 2.68916 0
M  V30 3007 H 284.209 4.55147 0.750955 0
M  V30 3008 H 282.452 4.29088 0.637618 0
M  V30 3009 H 283.123 5.12926 2.03989 0
M  V30 3010 H 285.599 3.2756 2.56601 0
M  V30 3011 H 284.475 4.03297 3.72348 0
M  V30 3012 H 284.736 2.29675 3.77759 0
M  V30 3013 N 283.795 -0.628877 1.44509 0
M  V30 3014 C 285.206 -1.21054 1.42137 0
M  V30 3015 C 285.557 -1.95715 0.137881 0
M  V30 3016 O 284.682 -2.02554 -0.761645 0
M  V30 3017 C 285.277 -2.20189 2.57493 0
M  V30 3018 C 283.836 -2.73777 2.58308 0
M  V30 3019 C 282.983 -1.48813 2.33987 0
M  V30 3020 H 285.934 -0.41942 1.53057 0
M  V30 3021 H 285.955 -3.02833 2.30375 0
M  V30 3022 H 285.467 -1.6582 3.50892 0
M  V30 3023 H 283.568 -3.32142 1.68856 0
M  V30 3024 H 283.681 -3.19662 3.56865 0
M  V30 3025 H 282.045 -1.77024 1.83124 0
M  V30 3026 H 282.828 -0.963442 3.29504 0
M  V30 3027 N 285.273 -1.31445 -0.869486 0
M  V30 3028 C 286.498 -1.24256 -1.66058 0
M  V30 3029 C 286.923 0.188928 -1.87149 0
M  V30 3030 O 286.281 1.13522 -1.4136 0
M  V30 3031 C 286.329 -1.9924 -3.00559 0
M  V30 3032 O 285.433 -1.33007 -3.90362 0
M  V30 3033 H 284.774 -0.428973 -0.506831 0
M  V30 3034 H 287.304 -1.73521 -1.08404 0
M  V30 3035 H 287.314 -2.08854 -3.50491 0
M  V30 3036 H 285.989 -3.03342 -2.84528 0
M  V30 3037 H 284.566 -1.31848 -3.48813 0
M  V30 3038 N 286.751 1.08385 -1.14413 0
M  V30 3039 C 288.028 1.77429 -0.823297 0
M  V30 3040 C 288.408 1.9974 0.683163 0
M  V30 3041 O 287.756 1.60739 1.62405 0
M  V30 3042 C 287.966 3.09004 -1.62227 0
M  V30 3043 C 289.314 3.83532 -1.82177 0
M  V30 3044 O 290.338 3.18786 -1.58915 0
M  V30 3045 O 289.197 4.99792 -2.21067 0
M  V30 3046 H 286.291 0.769999 -0.301712 0
M  V30 3047 H 288.837 1.14846 -1.24934 0
M  V30 3048 H 287.609 2.88316 -2.64555 0
M  V30 3049 H 287.232 3.79316 -1.19187 0
M  V30 3050 N 288.23 0.939286 1.26551 0
M  V30 3051 C 289.193 0.451987 2.24699 0
M  V30 3052 C 290.193 -0.435869 1.5478 0
M  V30 3053 O 291.383 -0.235314 1.72603 0
M  V30 3054 C 288.515 -0.348801 3.39111 0
M  V30 3055 H 289.708 1.3193 2.69322 0
M  V30 3056 H 287.261 0.721072 1.38673 0
M  V30 3057 H 287.996 -1.23444 2.99887 0
M  V30 3058 H 287.781 0.287945 3.91041 0
M  V30 3059 H 289.271 -0.679726 4.12031 0
M  V30 3060 N 289.708 -1.40897 0.706093 0
M  V30 3061 C 290.64 -2.29199 0.00815776 0
M  V30 3062 C 291.653 -1.45336 -0.733582 0
M  V30 3063 O 292.842 -1.68727 -0.582537 0
M  V30 3064 C 289.942 -3.23417 -1.01265 0
M  V30 3065 C 289.115 -4.36089 -0.338387 0
M  V30 3066 C 288.174 -5.10811 -1.26326 0
M  V30 3067 O 287.2 -5.64215 -0.751651 0
M  V30 3068 N 288.402 -5.19269 -2.595 0
M  V30 3069 H 291.167 -2.89738 0.766297 0
M  V30 3070 H 288.728 -1.52164 0.55296 0
M  V30 3071 H 290.72 -3.70276 -1.63334 0
M  V30 3072 H 289.29 -2.64112 -1.67223 0
M  V30 3073 H 288.51 -3.91479 0.462352 0
M  V30 3074 H 289.798 -5.08634 0.130031 0
M  V30 3075 H 289.196 -4.77347 -3.03573 0
M  V30 3076 H 287.753 -5.69667 -3.16737 0
M  V30 3077 N 291.186 -0.45159 -1.50991 0
M  V30 3078 C 292.118 0.388634 -2.25881 0
M  V30 3079 C 293.131 0.974041 -1.30446 0
M  V30 3080 O 294.32 0.865758 -1.56099 0
M  V30 3081 C 291.42 1.5571 -3.01011 0
M  V30 3082 C 290.593 1.08801 -4.23652 0
M  V30 3083 C 289.652 2.12825 -4.8124 0
M  V30 3084 O 288.678 1.71678 -5.42693 0
M  V30 3085 N 289.88 3.45453 -4.66522 0
M  V30 3086 H 292.645 -0.25329 -2.98628 0
M  V30 3087 H 290.206 -0.281268 -1.59438 0
M  V30 3088 H 292.198 2.24952 -3.3642 0
M  V30 3089 H 290.768 2.10409 -2.31186 0
M  V30 3090 H 289.988 0.22215 -3.93574 0
M  V30 3091 H 291.276 0.752213 -5.03209 0
M  V30 3092 H 290.674 3.81605 -4.17605 0
M  V30 3093 H 289.231 4.10549 -5.06254 0
M  V30 3094 N 292.664 1.56529 -0.183458 0
M  V30 3095 C 293.627 2.17324 0.728223 0
M  V30 3096 C 294.627 1.12453 1.14939 0
M  V30 3097 O 295.817 1.37902 1.06437 0
M  V30 3098 C 292.949 2.76591 1.99274 0
M  V30 3099 H 294.142 2.99241 0.198772 0
M  V30 3100 H 291.695 1.5616 0.0661391 0
M  V30 3101 H 292.43 1.98441 2.56499 0
M  V30 3102 H 292.215 3.5335 1.69959 0
M  V30 3103 H 293.705 3.23311 2.6431 0
M  V30 3104 N 294.142 -0.090211 1.57342 0
M  V30 3105 C 295.558 -0.444547 1.53284 0
M  V30 3106 C 295.758 -1.80238 0.900914 0
M  V30 3107 O 294.814 -2.4759 0.495513 0
M  V30 3108 C 296.127 -0.402543 2.97993 0
M  V30 3109 C 297.675 -0.48405 3.09234 0
M  V30 3110 C 298.15 -0.472144 4.5556 0
M  V30 3111 N 299.641 -0.532757 4.60126 0
M  V30 3112 C 300.376 -0.545462 5.708 0
M  V30 3113 N 299.872 -0.514082 6.9089 0
M  V30 3114 N 301.665 -0.59064 5.58988 0
M  V30 3115 H 293.816 0.799121 1.96794 0
M  V30 3116 H 296.079 0.297965 0.899956 0
M  V30 3117 H 295.785 0.528106 3.47712 0
M  V30 3118 H 295.659 -1.21969 3.56936 0
M  V30 3119 H 298.046 -1.40512 2.595 0
M  V30 3120 H 298.127 0.361328 2.53235 0
M  V30 3121 H 297.771 0.445 5.05947 0
M  V30 3122 H 297.701 -1.3348 5.09402 0
M  V30 3123 H 300.192 -0.562006 3.73698 0
M  V30 3124 H 300.505 -0.527195 7.71 0
M  V30 3125 H 298.85 -0.481054 6.93333 0
M  V30 3126 H 302.041 -0.61272 4.64073 0
M  V30 3127 H 302.214 -0.597073 6.45243 0
M  V30 3128 N 295.62 -1.53406 -0.361157 0
M  V30 3129 C 296.583 -1.79479 -1.42548 0
M  V30 3130 C 297.583 -0.665327 -1.4639 0
M  V30 3131 O 298.773 -0.933549 -1.47073 0
M  V30 3132 C 295.905 -1.92087 -2.8163 0
M  V30 3133 H 297.098 -2.74538 -1.20701 0
M  V30 3134 H 294.651 -1.4455 -0.594546 0
M  V30 3135 H 295.386 -0.991099 -3.08784 0
M  V30 3136 H 295.171 -2.74241 -2.80239 0
M  V30 3137 H 296.661 -2.13836 -3.58697 0
M  V30 3138 N 297.098 0.621204 -1.44841 0
M  V30 3139 C 298.031 1.7459 -1.46947 0
M  V30 3140 C 299.009 1.59273 -0.327238 0
M  V30 3141 O 300.193 1.81021 -0.525706 0
M  V30 3142 C 297.32 3.12274 -1.31159 0
M  V30 3143 C 296.366 3.46216 -2.49072 0
M  V30 3144 S 297.199 3.4258 -4.11581 0
M  V30 3145 C 298.355 4.82867 -3.98233 0
M  V30 3146 H 298.588 1.72538 -2.42111 0
M  V30 3147 H 296.121 0.796683 -1.32259 0
M  V30 3148 H 298.079 3.91722 -1.22737 0
M  V30 3149 H 296.74 3.11855 -0.374885 0
M  V30 3150 H 295.933 4.4643 -2.33915 0
M  V30 3151 H 295.535 2.74253 -2.54286 0
M  V30 3152 H 297.827 5.7234 -3.62537 0
M  V30 3153 H 298.77 5.0308 -4.98313 0
M  V30 3154 H 299.178 4.57908 -3.30121 0
M  V30 3155 N 298.576 1.31904 0.862503 0
M  V30 3156 C 299.822 1.22197 1.61851 0
M  V30 3157 C 300.155 -0.217641 1.92977 0
M  V30 3158 O 299.43 -1.15264 1.56666 0
M  V30 3159 C 299.713 2.07378 2.94391 0
M  V30 3160 C 299.566 3.59678 2.70096 0
M  V30 3161 C 300.885 1.92891 3.95577 0
M  V30 3162 H 298.004 0.445255 0.587296 0
M  V30 3163 H 300.646 1.6177 0.99651 0
M  V30 3164 H 298.796 1.73758 3.47477 0
M  V30 3165 H 300.468 4.03472 2.23625 0
M  V30 3166 H 298.711 3.82735 2.04197 0
M  V30 3167 H 299.382 4.14595 3.64438 0
M  V30 3168 H 301.858 2.22327 3.51724 0
M  V30 3169 H 300.734 2.54781 4.86187 0
M  V30 3170 H 300.995 0.894315 4.3296 0
M  V30 3171 N 300.054 -1.07777 1.14986 0
M  V30 3172 C 301.331 -1.7699 0.832695 0
M  V30 3173 C 301.711 -2.001 -0.672561 0
M  V30 3174 O 301.059 -1.61598 -1.6155 0
M  V30 3175 C 301.269 -3.08139 1.63863 0
M  V30 3176 C 302.617 -3.8256 1.84208 0
M  V30 3177 O 303.641 -3.17939 1.60603 0
M  V30 3178 O 302.5 -4.98612 2.23714 0
M  V30 3179 H 299.594 -0.768389 0.305791 0
M  V30 3180 H 302.14 -1.14182 1.25541 0
M  V30 3181 H 300.912 -2.86909 2.6608 0
M  V30 3182 H 300.535 -3.78678 1.21197 0
M  V30 3183 N 301.532 -0.945985 -1.26051 0
M  V30 3184 C 302.781 -0.591836 -1.92822 0
M  V30 3185 C 303.094 0.873956 -1.7499 0
M  V30 3186 O 304.3 1.33769 -2.36259 0
M  V30 3187 C 302.756 -1.00776 -3.45503 0
M  V30 3188 C 302.364 -2.4955 -3.7206 0
M  V30 3189 C 304.108 -0.725735 -4.1825 0
M  V30 3190 C 302.015 -2.84988 -5.18205 0
M  V30 3191 H 300.945 -0.217635 -0.721908 0
M  V30 3192 H 303.596 -1.14927 -1.43052 0
M  V30 3193 H 301.978 -0.378812 -3.94184 0
M  V30 3194 H 303.152 -3.1739 -3.34066 0
M  V30 3195 H 301.467 -2.75133 -3.12555 0
M  V30 3196 H 304.064 -0.966771 -5.25887 0
M  V30 3197 H 304.407 0.337639 -4.14929 0
M  V30 3198 H 304.94 -1.31463 -3.7545 0
M  V30 3199 H 301.679 -3.90307 -5.26631 0
M  V30 3200 H 301.199 -2.21813 -5.57278 0
M  V30 3201 H 302.878 -2.73712 -5.86252 0
M  V30 3202 N 303.011 1.40521 -0.713556 0
M  V30 3203 C 304.257 2.01221 -0.252564 0
M  V30 3204 C 304.59 1.56444 1.1506 0
M  V30 3205 O 303.865 0.783597 1.78017 0
M  V30 3206 C 304.148 3.58582 -0.330332 0
M  V30 3207 C 304.001 4.13437 -1.77173 0
M  V30 3208 C 305.32 4.39079 0.299641 0
M  V30 3209 H 302.439 0.731077 -0.0932471 0
M  V30 3210 H 305.081 1.67026 -0.905673 0
M  V30 3211 H 303.231 3.87844 0.225737 0
M  V30 3212 H 304.903 3.9498 -2.38303 0
M  V30 3213 H 303.146 3.67801 -2.3001 0
M  V30 3214 H 303.817 5.22597 -1.77755 0
M  V30 3215 H 306.293 4.15735 -0.174139 0
M  V30 3216 H 305.169 5.4848 0.214771 0
M  V30 3217 H 305.43 4.19915 1.38288 0
M  V30 3218 N 304.489 0.459591 1.5075 0
M  V30 3219 C 305.436 -0.340524 2.28274 0
M  V30 3220 C 306.406 -0.997371 1.32822 0
M  V30 3221 O 307.591 -1.01202 1.61749 0
M  V30 3222 C 304.731 -1.42317 3.14388 0
M  V30 3223 C 303.844 -0.782251 4.24859 0
M  V30 3224 C 302.979 -1.84182 4.98247 0
M  V30 3225 C 302.018 -1.18053 6.00608 0
M  V30 3226 N 301.155 -2.18244 6.67319 0
M  V30 3227 H 305.995 0.326899 2.96202 0
M  V30 3228 H 303.532 0.173057 1.46078 0
M  V30 3229 H 305.49 -2.06241 3.62658 0
M  V30 3230 H 304.12 -2.05992 2.4853 0
M  V30 3231 H 303.172 -0.0307404 3.80388 0
M  V30 3232 H 304.484 -0.259663 4.98124 0
M  V30 3233 H 303.638 -2.55714 5.50177 0
M  V30 3234 H 302.377 -2.39819 4.24662 0
M  V30 3235 H 301.382 -0.450776 5.47949 0
M  V30 3236 H 302.607 -0.631202 6.7616 0
M  V30 3237 H 300.553 -2.72919 5.96533 0
M  V30 3238 H 300.47 -1.70938 7.36421 0
M  V30 3239 H 301.738 -2.89191 7.23871 0
M  V30 3240 N 305.967 -1.56429 0.191757 0
M  V30 3241 C 307.383 -1.58754 -0.164137 0
M  V30 3242 C 307.583 -1.20782 -1.61288 0
M  V30 3243 O 306.639 -0.928999 -2.34789 0
M  V30 3244 C 307.952 -3.00396 0.135195 0
M  V30 3245 C 309.5 -3.1291 0.0750351 0
M  V30 3246 C 309.975 -4.56679 0.347632 0
M  V30 3247 N 311.466 -4.62252 0.296131 0
M  V30 3248 C 312.201 -5.71379 0.480948 0
M  V30 3249 N 311.697 -6.88986 0.725933 0
M  V30 3250 N 313.49 -5.60563 0.415435 0
M  V30 3251 H 305.641 -1.79393 1.13718 0
M  V30 3252 H 307.904 -0.832414 0.453643 0
M  V30 3253 H 307.61 -3.32726 1.13958 0
M  V30 3254 H 307.484 -3.72963 -0.563773 0
M  V30 3255 H 309.871 -2.80394 -0.919948 0
M  V30 3256 H 309.952 -2.42736 0.807029 0
M  V30 3257 H 309.596 -4.89907 1.33992 0
M  V30 3258 H 309.526 -5.25039 -0.405212 0
M  V30 3259 H 312.017 -3.7773 0.113259 0
M  V30 3260 H 312.33 -7.68046 0.855857 0
M  V30 3261 H 310.675 -6.90801 0.762788 0
M  V30 3262 H 313.866 -4.67561 0.224486 0
M  V30 3263 H 314.039 -6.45551 0.562889 0
M  V30 3264 N 307.445 0.0818655 -1.57387 0
M  V30 3265 C 308.675 0.794954 -1.90694 0
M  V30 3266 C 309.083 1.72147 -0.784982 0
M  V30 3267 O 308.426 1.81974 0.251196 0
M  V30 3268 C 308.488 1.65042 -3.19376 0
M  V30 3269 C 308.152 0.894337 -4.48164 0
M  V30 3270 C 309.149 0.21813 -5.19442 0
M  V30 3271 C 306.834 0.864495 -4.94805 0
M  V30 3272 C 308.828 -0.477802 -6.35607 0
M  V30 3273 C 306.515 0.164785 -6.10878 0
M  V30 3274 C 307.513 -0.505173 -6.81129 0
M  V30 3275 O 307.201 -1.19363 -7.94989 0
M  V30 3276 H 306.933 0.231779 -0.635023 0
M  V30 3277 H 309.487 0.059493 -2.05314 0
M  V30 3278 H 307.717 2.42844 -3.00938 0
M  V30 3279 H 309.406 2.24127 -3.38411 0
M  V30 3280 H 310.172 0.232558 -4.84442 0
M  V30 3281 H 306.051 1.37542 -4.40004 0
M  V30 3282 H 309.595 -1.00129 -6.90377 0
M  V30 3283 H 305.492 0.148249 -6.4533 0
M  V30 3284 H 306.26 -1.10188 -8.11049 0
M  V30 3285 N 308.923 1.53595 0.353017 0
M  V30 3286 C 309.871 1.81605 1.45335 0
M  V30 3287 C 310.865 0.685923 1.54892 0
M  V30 3288 O 312.071 0.869095 1.57628 0
M  V30 3289 H 308.446 0.575204 0.484401 0
M  V30 3290 H 310.417 2.73679 1.18921 0
M  V30 3291 C 309.166 2.03406 2.81995 0
M  V30 3292 H 308.489 2.89814 2.75405 0
M  V30 3293 H 309.929 2.26975 3.58132 0
M  V30 3294 C 308.388 0.816794 3.26849 0
M  V30 3295 O 308.918 0.0115856 4.01698 0
M  V30 3296 N 307.124 0.636682 2.8354 0
M  V30 3297 H 306.671 1.2931 2.22793 0
M  V30 3298 H 306.629 -0.176336 3.13905 0
M  V30 3299 N 310.401 -0.613514 1.45168 0
M  V30 3300 C 311.647 -1.37279 1.50087 0
M  V30 3301 C 312.002 -1.91902 0.138294 0
M  V30 3302 O 311.295 -1.71764 -0.84899 0
M  V30 3303 C 311.489 -2.54347 2.51083 0
M  V30 3304 C 311.318 -2.11186 3.97027 0
M  V30 3305 C 310.088 -1.97636 4.65046 0
M  V30 3306 C 312.286 -1.69016 4.85735 0
M  V30 3307 N 310.268 -1.48224 5.95737 0
M  V30 3308 C 311.639 -1.30976 6.06008 0
M  V30 3309 C 313.694 -1.56555 4.72647 0
M  V30 3310 C 312.397 -0.817197 7.14643 0
M  V30 3311 C 314.423 -1.08702 5.81324 0
M  V30 3312 C 313.785 -0.716233 7.00749 0
M  V30 3313 H 309.884 -0.496478 0.60418 0
M  V30 3314 H 312.468 -0.701988 1.81605 0
M  V30 3315 H 310.639 -3.19031 2.21527 0
M  V30 3316 H 312.371 -3.21208 2.46187 0
M  V30 3317 H 309.126 -2.18638 4.20112 0
M  V30 3318 H 309.55 -1.25767 6.65216 0
M  V30 3319 H 314.192 -1.83849 3.80736 0
M  V30 3320 H 311.91 -0.531797 8.06348 0
M  V30 3321 H 315.496 -0.994943 5.7323 0
M  V30 3322 H 314.376 -0.351642 7.83411 0
M  V30 3323 N 311.879 -1.3236 -0.855495 0
M  V30 3324 C 313.107 -1.2587 -1.64208 0
M  V30 3325 C 313.522 0.173457 -1.88002 0
M  V30 3326 O 312.879 1.11027 -1.44842 0
M  V30 3327 C 312.93 -2.01424 -3.00184 0
M  V30 3328 O 312.651 -3.39051 -2.77445 0
M  V30 3329 C 314.152 -2.01948 -3.94629 0
M  V30 3330 H 311.372 -0.434318 -0.511477 0
M  V30 3331 H 313.916 -1.74469 -1.0668 0
M  V30 3332 H 312.071 -1.56549 -3.5436 0
M  V30 3333 H 312.485 -3.77711 -3.63916 0
M  V30 3334 H 313.959 -2.59297 -4.87308 0
M  V30 3335 H 314.436 -1.00554 -4.27534 0
M  V30 3336 H 315.042 -2.46767 -3.4639 0
M  V30 3337 N 313.357 1.07166 -1.15556 0
M  V30 3338 C 314.587 1.83248 -0.954133 0
M  V30 3339 C 314.995 1.82449 0.500911 0
M  V30 3340 O 314.338 1.23575 1.35923 0
M  V30 3341 C 314.4 3.31393 -1.39351 0
M  V30 3342 C 314.064 3.5591 -2.86666 0
M  V30 3343 C 315.061 3.49695 -3.8472 0
M  V30 3344 C 312.746 3.83515 -3.24379 0
M  V30 3345 C 314.74 3.70737 -5.18491 0
M  V30 3346 C 312.427 4.04209 -4.58321 0
M  V30 3347 C 313.425 3.97815 -5.55186 0
M  V30 3348 O 313.113 4.17954 -6.86709 0
M  V30 3349 H 312.845 0.584941 -0.338851 0
M  V30 3350 H 315.399 1.36169 -1.53777 0
M  V30 3351 H 313.629 3.79292 -0.75329 0
M  V30 3352 H 315.318 3.88945 -1.16089 0
M  V30 3353 H 316.084 3.28368 -3.56931 0
M  V30 3354 H 311.963 3.87605 -2.49567 0
M  V30 3355 H 315.507 3.65663 -5.94085 0
M  V30 3356 H 311.404 4.25023 -4.85825 0
M  V30 3357 H 312.172 4.35291 -6.93155 0
M  V30 3358 N 314.835 0.952656 1.25548 0
M  V30 3359 C 316.081 0.607272 1.93494 0
M  V30 3360 C 316.414 -0.853245 1.74452 0
M  V30 3361 O 315.689 -1.61194 1.08843 0
M  V30 3362 C 315.972 0.96435 3.46947 0
M  V30 3363 C 315.825 2.48045 3.75225 0
M  V30 3364 C 317.144 0.487987 4.37386 0
M  V30 3365 H 314.263 0.222096 0.702739 0
M  V30 3366 H 316.905 1.18895 1.48203 0
M  V30 3367 H 315.055 0.469361 3.85654 0
M  V30 3368 H 316.727 3.04905 3.46166 0
M  V30 3369 H 314.97 2.919 3.209 0
M  V30 3370 H 315.641 2.6808 4.82532 0
M  V30 3371 H 318.117 0.912558 4.0597 0
M  V30 3372 H 316.993 0.766547 5.43521 0
M  V30 3373 H 317.254 -0.612063 4.37843 0
M  V30 3374 N 316.313 -1.40141 0.720998 0
M  V30 3375 C 317.538 -2.05618 0.271258 0
M  V30 3376 C 317.963 -1.53978 -1.08039 0
M  V30 3377 O 317.321 -0.677463 -1.68167 0
M  V30 3378 C 317.369 -3.59609 0.267197 0
M  V30 3379 O 316.473 -4.05526 -0.749814 0
M  V30 3380 H 315.814 -0.651904 0.126162 0
M  V30 3381 H 318.344 -1.79439 0.982997 0
M  V30 3382 H 318.354 -4.0786 0.106744 0
M  V30 3383 H 317.029 -3.96559 1.25354 0
M  V30 3384 H 315.606 -3.68722 -0.556644 0
M  V30 3385 N 317.792 -0.46758 -1.50504 0
M  V30 3386 C 318.755 0.317059 -2.26996 0
M  V30 3387 C 319.755 0.923513 -1.31635 0
M  V30 3388 O 320.945 0.793239 -1.55091 0
M  V30 3389 C 318.077 1.45134 -3.08462 0
M  V30 3390 H 319.27 -0.353723 -2.97807 0
M  V30 3391 H 316.823 -0.221545 -1.54722 0
M  V30 3392 H 317.558 2.15728 -2.4214 0
M  V30 3393 H 317.343 1.02232 -3.78538 0
M  V30 3394 H 318.833 2.00493 -3.66323 0
M  V30 3395 N 319.27 1.56325 -0.20005 0
M  V30 3396 C 320.516 1.98012 0.438059 0
M  V30 3397 C 320.849 1.08702 1.60927 0
M  V30 3398 O 320.124 0.140064 1.93995 0
M  V30 3399 C 320.407 3.48841 0.893419 0
M  V30 3400 C 320.26 4.48928 -0.279947 0
M  V30 3401 C 321.579 4.03498 1.75719 0
M  V30 3402 H 318.698 0.719918 0.157757 0
M  V30 3403 H 321.34 1.87743 -0.291968 0
M  V30 3404 H 319.49 3.57723 1.51547 0
M  V30 3405 H 321.162 4.52079 -0.91772 0
M  V30 3406 H 319.405 4.23694 -0.930919 0
M  V30 3407 H 320.076 5.5194 0.0812601 0
M  V30 3408 H 322.552 3.97427 1.23253 0
M  V30 3409 H 321.428 5.09393 2.04476 0
M  V30 3410 H 321.689 3.4906 2.71311 0
M  V30 3411 N 320.748 -0.0735177 1.57428 0
M  V30 3412 C 321.698 -1.09442 2.00016 0
M  V30 3413 C 322.682 -1.34575 0.881947 0
M  V30 3414 O 323.874 -1.34905 1.14585 0
M  V30 3415 C 321.003 -2.40865 2.4462 0
M  V30 3416 C 320.089 -2.19014 3.63172 0
M  V30 3417 N 320.48 -1.67087 4.77405 0
M  V30 3418 C 318.778 -2.49494 3.69688 0
M  V30 3419 C 319.479 -1.6001 5.5926 0
M  V30 3420 N 318.455 -2.05999 5.03056 0
M  V30 3421 H 322.257 -0.686227 2.85776 0
M  V30 3422 H 319.771 -0.280617 1.59957 0
M  V30 3423 H 321.768 -3.14763 2.73368 0
M  V30 3424 H 320.428 -2.82403 1.60246 0
M  V30 3425 H 321.439 -1.35975 4.99731 0
M  V30 3426 H 318.116 -2.94409 2.96023 0
M  V30 3427 H 319.506 -1.2073 6.60964 0
M  V30 3428 N 322.226 -1.5378 -0.344866 0
M  V30 3429 C 323.454 -1.74899 -1.10534 0
M  V30 3430 C 323.869 -0.487534 -1.82397 0
M  V30 3431 O 323.226 0.540741 -1.74305 0
M  V30 3432 C 323.277 -2.92822 -2.11984 0
M  V30 3433 O 322.998 -4.14089 -1.43044 0
M  V30 3434 C 324.499 -3.25982 -3.00417 0
M  V30 3435 H 321.719 -0.584426 -0.329678 0
M  V30 3436 H 324.263 -2.006 -0.397474 0
M  V30 3437 H 322.418 -2.69457 -2.78338 0
M  V30 3438 H 322.832 -4.80272 -2.10805 0
M  V30 3439 H 324.306 -4.11848 -3.67539 0
M  V30 3440 H 324.783 -2.42228 -3.66363 0
M  V30 3441 H 325.389 -3.51349 -2.39654 0
M  V30 3442 N 323.704 0.605807 -1.45491 0
M  V30 3443 C 324.614 1.74466 -1.56839 0
M  V30 3444 C 325.63 1.68006 -0.452772 0
M  V30 3445 O 326.806 1.8833 -0.713708 0
M  V30 3446 C 323.871 3.10931 -1.53371 0
M  V30 3447 C 322.932 3.28832 -2.75986 0
M  V30 3448 C 322.165 4.58787 -2.72673 0
M  V30 3449 O 322.388 5.4122 -1.80102 0
M  V30 3450 O 321.322 4.79438 -3.63899 0
M  V30 3451 H 325.148 1.67843 -2.53106 0
M  V30 3452 H 322.733 0.770108 -1.28022 0
M  V30 3453 H 324.615 3.92233 -1.54051 0
M  V30 3454 H 323.29 3.18042 -0.602572 0
M  V30 3455 H 322.197 2.47112 -2.80867 0
M  V30 3456 H 323.53 3.26599 -3.68231 0
M  V30 3457 N 325.182 1.32811 0.848464 0
M  V30 3458 C 326.43 1.23479 1.59991 0
M  V30 3459 C 326.751 -0.201853 1.93952 0
M  V30 3460 O 326.021 -1.12818 1.60153 0
M  V30 3461 H 324.601 0.454034 0.593179 0
M  V30 3462 H 327.263 1.66412 1.01455 0
M  V30 3463 H 326.359 1.82178 2.53412 0
M  V30 3464 N 326.66 -1.06551 1.16123 0
M  V30 3465 C 327.608 -2.16063 0.861371 0
M  V30 3466 C 328.602 -1.6856 -0.168517 0
M  V30 3467 O 329.808 -1.79986 -0.0227579 0
M  V30 3468 H 326.183 -0.705278 0.260934 0
M  V30 3469 H 328.154 -2.38567 1.79244 0
M  V30 3470 C 326.903 -3.45661 0.376018 0
M  V30 3471 H 326.226 -3.82604 1.15992 0
M  V30 3472 H 327.666 -4.23504 0.204951 0
M  V30 3473 C 326.125 -3.24546 -0.903954 0
M  V30 3474 O 326.655 -3.49865 -1.97377 0
M  V30 3475 N 324.861 -2.77992 -0.846679 0
M  V30 3476 H 324.408 -2.57589 0.0241017 0
M  V30 3477 H 324.366 -2.64244 -1.70359 0
M  V30 3478 N 328.138 -0.959301 -1.25041 0
M  V30 3479 C 329.368 -0.63303 -1.96663 0
M  V30 3480 C 329.776 0.800031 -1.71453 0
M  V30 3481 O 329.119 1.54736 -0.99008 0
M  V30 3482 C 329.181 -0.817523 -3.50081 0
M  V30 3483 C 328.845 -2.22863 -3.98975 0
M  V30 3484 C 329.842 -3.20569 -4.09306 0
M  V30 3485 C 327.527 -2.55407 -4.32519 0
M  V30 3486 C 329.521 -4.4891 -4.52503 0
M  V30 3487 C 327.208 -3.83976 -4.754 0
M  V30 3488 C 328.206 -4.8054 -4.85356 0
M  V30 3489 O 327.894 -6.06817 -5.27284 0
M  V30 3490 H 327.626 -0.235866 -0.633516 0
M  V30 3491 H 330.18 -1.2874 -1.60047 0
M  V30 3492 H 328.41 -0.105992 -3.86555 0
M  V30 3493 H 330.099 -0.491604 -4.02912 0
M  V30 3494 H 330.865 -2.96753 -3.83618 0
M  V30 3495 H 326.744 -1.8097 -4.23994 0
M  V30 3496 H 330.288 -5.24283 -4.60188 0
M  V30 3497 H 326.185 -4.07596 -5.00535 0
M  V30 3498 H 326.953 -6.10262 -5.45457 0
M  V30 3499 N 329.616 1.39756 -0.72842 0
M  V30 3500 C 330.864 2.00248 -0.272946 0
M  V30 3501 C 331.185 1.58077 1.14178 0
M  V30 3502 O 330.455 0.826014 1.77634 0
M  V30 3503 H 329.035 0.740554 -0.0979247 0
M  V30 3504 H 331.697 1.70903 -0.936912 0
M  V30 3505 H 330.793 3.10495 -0.316142 0
M  V30 3506 N 331.094 0.475555 1.50254 0
M  V30 3507 C 332.004 -0.321501 2.32387 0
M  V30 3508 C 333.02 -0.991755 1.42969 0
M  V30 3509 O 334.196 -0.978747 1.76018 0
M  V30 3510 C 331.261 -1.38667 3.17762 0
M  V30 3511 C 330.322 -0.732538 4.23004 0
M  V30 3512 C 329.555 -1.74695 5.04299 0
M  V30 3513 O 329.778 -2.97399 4.86734 0
M  V30 3514 O 328.712 -1.31631 5.8733 0
M  V30 3515 H 332.538 0.350071 3.01676 0
M  V30 3516 H 330.123 0.237321 1.47503 0
M  V30 3517 H 332.005 -2.00354 3.70724 0
M  V30 3518 H 330.68 -2.04163 2.51196 0
M  V30 3519 H 329.587 -0.0765902 3.74022 0
M  V30 3520 H 330.92 -0.120452 4.92053 0
M  V30 3521 N 332.573 -1.56217 0.208337 0
M  V30 3522 C 333.798 -2.02782 -0.435222 0
M  V30 3523 C 334.223 -1.08738 -1.53485 0
M  V30 3524 O 333.581 -0.0731855 -1.81152 0
M  V30 3525 C 333.629 -3.47687 -0.956335 0
M  V30 3526 O 332.733 -3.56773 -2.06849 0
M  V30 3527 H 332.074 -0.656403 -0.100158 0
M  V30 3528 H 334.604 -2.02033 0.3231 0
M  V30 3529 H 334.614 -3.87745 -1.26955 0
M  V30 3530 H 333.289 -4.15624 -0.15143 0
M  V30 3531 H 331.866 -3.28597 -1.76292 0
M  V30 3532 N 334.051 0.0651679 -1.57465 0
M  V30 3533 C 335.299 0.761555 -1.87202 0
M  V30 3534 C 335.62 1.77778 -0.801243 0
M  V30 3535 O 334.89 1.95166 0.16937 0
M  V30 3536 H 333.47 0.284251 -0.690804 0
M  V30 3537 H 336.132 0.0396827 -1.9486 0
M  V30 3538 H 335.228 1.27365 -2.84929 0
M  V30 3539 N 335.529 1.53961 0.336706 0
M  V30 3540 C 336.462 1.77255 1.43722 0
M  V30 3541 C 337.44 0.62193 1.50236 0
M  V30 3542 O 338.624 0.857874 1.67847 0
M  V30 3543 C 335.751 1.87733 2.81912 0
M  V30 3544 C 334.797 3.09933 2.92991 0
M  V30 3545 S 335.63 4.68836 2.58753 0
M  V30 3546 C 336.786 4.82202 3.99039 0
M  V30 3547 H 337.019 2.70322 1.23748 0
M  V30 3548 H 334.552 1.44917 0.532777 0
M  V30 3549 H 336.51 1.94455 3.61521 0
M  V30 3550 H 335.171 0.956666 2.99177 0
M  V30 3551 H 334.364 3.1396 3.94265 0
M  V30 3552 H 333.966 3.01472 2.21338 0
M  V30 3553 H 336.258 4.64032 4.9364 0
M  V30 3554 H 337.201 5.84298 4.00002 0
M  V30 3555 H 337.609 4.10604 3.87382 0
M  V30 3556 N 337.007 -0.598083 1.45811 0
M  V30 3557 C 337.917 -1.73632 1.57763 0
M  V30 3558 C 338.933 -1.67763 0.461676 0
M  V30 3559 O 340.109 -1.87949 0.723685 0
M  V30 3560 C 337.174 -3.10114 1.55018 0
M  V30 3561 C 336.235 -3.27364 2.77726 0
M  V30 3562 C 335.468 -4.57334 2.75102 0
M  V30 3563 O 335.691 -5.40258 1.8297 0
M  V30 3564 O 334.625 -4.77502 3.66437 0
M  V30 3565 H 338.451 -1.66498 2.53992 0
M  V30 3566 H 336.036 -0.763308 1.28429 0
M  V30 3567 H 337.918 -3.9141 1.56129 0
M  V30 3568 H 336.593 -3.17718 0.619431 0
M  V30 3569 H 335.5 -2.45619 2.82174 0
M  V30 3570 H 336.833 -3.24641 3.69958 0
M  V30 3571 N 338.485 -1.33259 -0.841409 0
M  V30 3572 C 339.448 -1.23221 -1.9326 0
M  V30 3573 C 340.448 -0.151895 -1.60081 0
M  V30 3574 O 341.638 -0.403246 -1.69468 0
M  V30 3575 C 338.77 -0.898123 -3.28856 0
M  V30 3576 H 339.963 -2.2021 -2.03587 0
M  V30 3577 H 337.516 -1.17281 -1.03319 0
M  V30 3578 H 338.251 0.0693841 -3.24226 0
M  V30 3579 H 338.036 -1.67934 -3.54317 0
M  V30 3580 H 339.526 -0.852563 -4.08805 0
M  V30 3581 N 339.963 1.05934 -1.16686 0
M  V30 3582 C 341.21 1.788 -0.950622 0
M  V30 3583 C 341.538 1.87384 0.521305 0
M  V30 3584 O 340.793 1.36438 1.40297 0
M  V30 3585 C 341.092 3.23105 -1.52767 0
M  V30 3586 C 340.758 3.34594 -3.02254 0
M  V30 3587 C 339.42 3.37437 -3.43059 0
M  V30 3588 C 341.772 3.36219 -3.98254 0
M  V30 3589 C 339.1 3.39525 -4.78477 0
M  V30 3590 C 341.452 3.39845 -5.33562 0
M  V30 3591 C 340.116 3.40971 -5.73842 0
M  V30 3592 H 339.386 0.654275 -0.347857 0
M  V30 3593 H 342.033 1.24555 -1.45459 0
M  V30 3594 H 340.338 3.80227 -0.94524 0
M  V30 3595 H 342.035 3.7809 -1.336 0
M  V30 3596 H 338.625 3.3309 -2.6972 0
M  V30 3597 H 342.809 3.33231 -3.67792 0
M  V30 3598 H 338.065 3.38703 -5.09009 0
M  V30 3599 H 342.239 3.4005 -6.07733 0
M  V30 3600 H 339.866 3.42342 -6.78753 0
M  V30 3601 N 341.441 0.965919 1.2453 0
M  V30 3602 C 342.388 0.49402 2.25451 0
M  V30 3603 C 343.358 -0.45948 1.59618 0
M  V30 3604 O 344.543 -0.370238 1.87173 0
M  V30 3605 C 341.683 -0.211359 3.44452 0
M  V30 3606 C 340.796 0.7807 4.24887 0
M  V30 3607 C 339.931 0.0516105 5.31175 0
M  V30 3608 C 338.97 1.03385 6.03306 0
M  V30 3609 N 338.107 0.334887 7.01301 0
M  V30 3610 H 342.947 1.35946 2.65184 0
M  V30 3611 H 340.484 0.681515 1.3036 0
M  V30 3612 H 342.442 -0.637 4.12308 0
M  V30 3613 H 341.072 -1.04077 3.05562 0
M  V30 3614 H 340.124 1.32479 3.56586 0
M  V30 3615 H 341.436 1.52978 4.74762 0
M  V30 3616 H 340.59 -0.432114 6.05159 0
M  V30 3617 H 339.329 -0.730179 4.82203 0
M  V30 3618 H 338.334 1.52847 5.28127 0
M  V30 3619 H 339.559 1.81606 6.54367 0
M  V30 3620 H 337.505 -0.427959 6.54603 0
M  V30 3621 H 337.422 1.02287 7.49048 0
M  V30 3622 H 338.69 -0.126928 7.79397 0
M  V30 3623 N 342.919 -1.39368 0.735821 0
M  V30 3624 C 344.196 -1.94465 0.210395 0
M  V30 3625 C 344.576 -1.67254 -1.28799 0
M  V30 3626 O 343.924 -1.00123 -2.05396 0
M  V30 3627 C 344.134 -3.4472 0.544897 0
M  V30 3628 C 345.482 -4.21708 0.494689 0
M  V30 3629 O 346.506 -3.52922 0.482136 0
M  V30 3630 O 345.365 -5.44299 0.489947 0
M  V30 3631 H 342.459 -0.826096 0.0386666 0
M  V30 3632 H 345.005 -1.48863 0.814735 0
M  V30 3633 H 343.777 -3.57963 1.58045 0
M  V30 3634 H 343.4 -3.97502 -0.08837 0
M  V30 3635 N 344.397 -0.483516 -1.5 0
M  V30 3636 C 345.33 0.350427 -2.25493 0
M  V30 3637 C 346.308 0.985549 -1.29328 0
M  V30 3638 O 347.492 1.01906 -1.58579 0
M  V30 3639 C 344.619 1.49202 -3.04066 0
M  V30 3640 C 343.665 0.973036 -4.15252 0
M  V30 3641 S 344.498 -0.122237 -5.3536 0
M  V30 3642 C 345.654 1.02294 -6.17484 0
M  V30 3643 H 345.887 -0.290381 -2.95878 0
M  V30 3644 H 343.42 -0.268562 -1.52046 0
M  V30 3645 H 345.378 2.14623 -3.49925 0
M  V30 3646 H 344.039 2.10438 -2.33183 0
M  V30 3647 H 343.232 1.82804 -4.69679 0
M  V30 3648 H 342.834 0.396335 -3.71894 0
M  V30 3649 H 345.126 1.93195 -6.49371 0
M  V30 3650 H 346.069 0.517664 -7.06205 0
M  V30 3651 H 346.477 1.28238 -5.49741 0
M  V30 3652 N 345.875 1.56104 -0.216619 0
M  V30 3653 C 347.1 2.0301 0.424462 0
M  V30 3654 C 347.525 1.0955 1.52907 0
M  V30 3655 O 346.883 0.0827914 1.81111 0
M  V30 3656 C 346.931 3.4819 0.937883 0
M  V30 3657 O 346.035 3.57865 2.04955 0
M  V30 3658 H 345.376 0.656925 0.0966755 0
M  V30 3659 H 347.906 2.01859 -0.33381 0
M  V30 3660 H 347.916 3.88413 1.24897 0
M  V30 3661 H 346.591 4.15699 0.129387 0
M  V30 3662 H 345.168 3.29527 1.74546 0
M  V30 3663 N 347.353 -0.0568162 1.57498 0
M  V30 3664 C 348.316 -1.05038 2.03715 0
M  V30 3665 C 349.316 -1.30709 0.936577 0
M  V30 3666 O 350.506 -1.26178 1.20103 0
M  V30 3667 C 347.638 -2.39034 2.43055 0
M  V30 3668 H 348.831 -0.651715 2.92733 0
M  V30 3669 H 346.384 -0.302947 1.53336 0
M  V30 3670 H 347.119 -2.83703 1.57108 0
M  V30 3671 H 346.904 -2.21739 3.2338 0
M  V30 3672 H 348.394 -3.10421 2.79336 0
M  V30 3673 N 348.832 -1.54138 -0.328536 0
M  V30 3674 C 349.779 -1.83176 -1.40411 0
M  V30 3675 C 350.749 -0.678494 -1.5161 0
M  V30 3676 O 351.934 -0.92443 -1.6691 0
M  V30 3677 C 349.074 -2.06035 -2.76846 0
M  V30 3678 C 348.187 -3.33727 -2.74318 0
M  V30 3679 C 347.322 -3.46574 -4.02567 0
M  V30 3680 C 346.361 -4.68159 -3.94327 0
M  V30 3681 N 345.498 -4.77959 -5.14296 0
M  V30 3682 H 350.338 -2.74938 -1.14948 0
M  V30 3683 H 347.875 -1.36166 -0.556538 0
M  V30 3684 H 349.833 -2.1728 -3.56153 0
M  V30 3685 H 348.463 -1.1757 -3.00628 0
M  V30 3686 H 347.515 -3.31246 -1.8703 0
M  V30 3687 H 348.827 -4.23139 -2.64111 0
M  V30 3688 H 347.981 -3.57333 -4.90304 0
M  V30 3689 H 346.72 -2.55245 -4.15574 0
M  V30 3690 H 345.725 -4.57461 -3.04974 0
M  V30 3691 H 346.95 -5.60868 -3.82889 0
M  V30 3692 H 344.896 -3.89544 -5.27818 0
M  V30 3693 H 344.813 -5.6133 -5.06404 0
M  V30 3694 H 346.081 -4.93044 -6.03761 0
M  V30 3695 N 350.31 0.590341 -1.46126 0
M  V30 3696 C 351.22 1.72793 -1.58681 0
M  V30 3697 C 352.236 1.67516 -0.470566 0
M  V30 3698 O 353.412 1.87562 -0.733642 0
M  V30 3699 C 350.477 3.09287 -1.5666 0
M  V30 3700 C 349.538 3.25886 -2.79458 0
M  V30 3701 C 348.771 4.55869 -2.77524 0
M  V30 3702 O 348.994 5.3928 -1.85832 0
M  V30 3703 O 347.928 4.75552 -3.68964 0
M  V30 3704 H 351.754 1.65149 -2.54872 0
M  V30 3705 H 349.339 0.756486 -1.28832 0
M  V30 3706 H 351.221 3.90577 -1.58202 0
M  V30 3707 H 349.896 3.17385 -0.636271 0
M  V30 3708 H 348.803 2.44119 -2.83472 0
M  V30 3709 H 350.136 3.22675 -3.71674 0
M  V30 3710 N 351.788 1.33704 0.83433 0
M  V30 3711 C 353.036 1.25169 1.58673 0
M  V30 3712 C 353.357 -0.18127 1.94156 0
M  V30 3713 O 352.627 -1.11113 1.6134 0
M  V30 3714 H 351.207 0.4603 0.58833 0
M  V30 3715 H 353.869 1.67478 0.996847 0
M  V30 3716 H 352.965 1.84856 2.51465 0
M  V30 3717 N 353.266 -1.05314 1.17247 0
M  V30 3718 C 354.515 -1.77685 0.954521 0
M  V30 3719 C 354.828 -1.88616 -0.518025 0
M  V30 3720 O 356.034 -2.57714 -0.854144 0
M  V30 3721 C 354.49 -3.19402 1.65863 0
M  V30 3722 C 354.098 -3.16605 3.16963 0
M  V30 3723 C 355.842 -3.96237 1.52303 0
M  V30 3724 C 353.749 -4.53103 3.80068 0
M  V30 3725 H 352.679 -0.666 0.353496 0
M  V30 3726 H 355.33 -1.1805 1.40486 0
M  V30 3727 H 353.712 -3.79355 1.13602 0
M  V30 3728 H 354.886 -2.66176 3.76148 0
M  V30 3729 H 353.201 -2.53268 3.30521 0
M  V30 3730 H 355.798 -4.97157 1.96822 0
M  V30 3731 H 356.141 -4.136 0.473401 0
M  V30 3732 H 356.674 -3.42829 2.01775 0
M  V30 3733 H 353.413 -4.40946 4.85023 0
M  V30 3734 H 352.933 -5.03686 3.2567 0
M  V30 3735 H 354.612 -5.22045 3.82202 0
M  V30 3736 N 354.744 -0.972509 -1.24016 0
M  V30 3737 C 355.984 -0.644951 -1.93958 0
M  V30 3738 C 356.348 0.80559 -1.74282 0
M  V30 3739 O 357.549 1.2436 -2.38302 0
M  V30 3740 C 355.82 -1.01521 -3.42678 0
M  V30 3741 S 357.379 -0.802927 -4.31391 0
M  V30 3742 H 354.197 -0.236452 -0.670531 0
M  V30 3743 H 356.799 -1.25048 -1.50277 0
M  V30 3744 H 355.503 -2.06769 -3.54506 0
M  V30 3745 H 355.034 -0.400648 -3.91355 0
M  V30 3746 H 357.049 0.317256 -4.95185 0
M  V30 3747 N 356.222 1.38976 -0.743202 0
M  V30 3748 C 357.471 1.99581 -0.291592 0
M  V30 3749 C 357.784 1.59656 1.13001 0
M  V30 3750 O 358.99 2.13157 1.68156 0
M  V30 3751 C 357.446 3.56813 -0.470391 0
M  V30 3752 C 357.054 4.05695 -1.90041 0
M  V30 3753 C 358.798 4.24423 -0.0809709 0
M  V30 3754 C 356.705 5.5553 -2.02832 0
M  V30 3755 H 355.635 0.746615 -0.105272 0
M  V30 3756 H 358.286 1.58872 -0.918258 0
M  V30 3757 H 356.668 3.95359 0.225299 0
M  V30 3758 H 357.842 3.78464 -2.62872 0
M  V30 3759 H 356.157 3.50775 -2.24379 0
M  V30 3760 H 358.754 5.34474 -0.155445 0
M  V30 3761 H 359.097 4.04962 0.96497 0
M  V30 3762 H 359.63 3.9108 -0.728124 0
M  V30 3763 H 356.369 5.79881 -3.05643 0
M  V30 3764 H 355.889 5.84537 -1.34448 0
M  V30 3765 H 357.568 6.21069 -1.81335 0
M  V30 3766 N 357.7 0.491464 1.49741 0
M  V30 3767 C 358.663 -0.280906 2.27472 0
M  V30 3768 C 359.663 -0.902454 1.33088 0
M  V30 3769 O 360.853 -0.768465 1.56334 0
M  V30 3770 C 357.985 -1.40209 3.10732 0
M  V30 3771 H 359.178 0.401056 2.97206 0
M  V30 3772 H 356.731 0.246131 1.5435 0
M  V30 3773 H 357.466 -2.11849 2.45541 0
M  V30 3774 H 357.251 -0.961969 3.80117 0
M  V30 3775 H 358.741 -1.9464 3.69466 0
M  V30 3776 N 359.178 -1.55987 0.224894 0
M  V30 3777 C 360.128 -2.17076 -0.697296 0
M  V30 3778 C 361.112 -1.12006 -1.15514 0
M  V30 3779 O 362.304 -1.37985 -1.10857 0
M  V30 3780 C 359.433 -2.85679 -1.90374 0
M  V30 3781 C 358.519 -3.97977 -1.46543 0
M  V30 3782 N 358.91 -5.00359 -0.739909 0
M  V30 3783 C 357.208 -4.10128 -1.75245 0
M  V30 3784 C 357.909 -5.79407 -0.515939 0
M  V30 3785 N 356.885 -5.32892 -1.07364 0
M  V30 3786 H 360.687 -2.93592 -0.134594 0
M  V30 3787 H 358.201 -1.62379 0.0262885 0
M  V30 3788 H 360.198 -3.27857 -2.57518 0
M  V30 3789 H 358.858 -2.1066 -2.47088 0
M  V30 3790 H 359.869 -5.16412 -0.392253 0
M  V30 3791 H 356.546 -3.46263 -2.33255 0
M  V30 3792 H 357.936 -6.71872 0.0617349 0
M  V30 3793 N 360.656 0.0484629 -1.57525 0
M  V30 3794 C 361.881 0.759177 -1.93006 0
M  V30 3795 C 362.306 1.69125 -0.823317 0
M  V30 3796 O 361.664 1.79931 0.222364 0
M  V30 3797 C 361.712 1.50899 -3.27509 0
M  V30 3798 O 360.816 2.62112 -3.18388 0
M  V30 3799 H 360.157 0.205564 -0.631379 0
M  V30 3800 H 362.687 0.00972959 -2.04598 0
M  V30 3801 H 362.697 1.88317 -3.6194 0
M  V30 3802 H 361.372 0.825269 -4.0763 0
M  V30 3803 H 359.949 2.27379 -2.95556 0
M  V30 3804 N 362.134 1.5431 0.320358 0
M  V30 3805 C 363.364 1.7638 1.07582 0
M  V30 3806 C 363.772 0.513944 1.82086 0
M  V30 3807 O 363.115 -0.525123 1.76035 0
M  V30 3808 C 363.177 2.9055 2.1171 0
M  V30 3809 C 362.841 4.2934 1.56575 0
M  V30 3810 C 363.838 5.10077 1.00586 0
M  V30 3811 C 361.523 4.75893 1.60722 0
M  V30 3812 C 363.517 6.35477 0.494756 0
M  V30 3813 C 361.204 6.0126 1.09224 0
M  V30 3814 C 362.202 6.80886 0.53696 0
M  V30 3815 O 361.89 8.03894 0.0297371 0
M  V30 3816 H 361.622 0.592369 0.325692 0
M  V30 3817 H 364.176 2.02019 0.37116 0
M  V30 3818 H 362.406 2.60489 2.85801 0
M  V30 3819 H 364.095 3.00373 2.73003 0
M  V30 3820 H 364.861 4.75265 0.966869 0
M  V30 3821 H 360.74 4.13957 2.02882 0
M  V30 3822 H 364.284 6.97574 0.0606842 0
M  V30 3823 H 360.181 6.35562 1.12831 0
M  V30 3824 H 360.949 8.18372 0.14486 0
M  V30 3825 N 363.613 -0.582584 1.46437 0
M  V30 3826 C 364.56 -1.69164 1.5701 0
M  V30 3827 C 365.53 -1.60847 0.414403 0
M  V30 3828 O 366.715 -1.80058 0.631171 0
M  V30 3829 C 363.855 -3.075 1.56646 0
M  V30 3830 C 362.968 -3.2644 2.82951 0
M  V30 3831 C 362.103 -4.55026 2.7409 0
M  V30 3832 C 361.142 -4.6731 3.95333 0
M  V30 3833 N 360.279 -5.87221 3.84858 0
M  V30 3834 H 365.119 -1.59464 2.51744 0
M  V30 3835 H 362.656 -0.777186 1.24893 0
M  V30 3836 H 364.614 -3.8757 1.5442 0
M  V30 3837 H 363.244 -3.16096 0.654439 0
M  V30 3838 H 362.296 -2.39974 2.95155 0
M  V30 3839 H 363.608 -3.31385 3.72808 0
M  V30 3840 H 362.762 -5.43324 2.6997 0
M  V30 3841 H 361.501 -4.52519 1.81873 0
M  V30 3842 H 360.506 -3.77429 3.99784 0
M  V30 3843 H 361.731 -4.71595 4.88646 0
M  V30 3844 H 359.677 -5.85712 2.95427 0
M  V30 3845 H 359.594 -5.93435 4.6837 0
M  V30 3846 H 360.862 -6.7795 3.84713 0
M  V30 3847 N 365.091 -1.34144 -0.827227 0
M  V30 3848 C 366.34 -1.25602 -1.5782 0
M  V30 3849 C 366.653 0.173445 -1.94829 0
M  V30 3850 O 367.859 0.380984 -2.68814 0
M  V30 3851 C 366.315 -2.20151 -2.84713 0
M  V30 3852 C 365.923 -3.68331 -2.55021 0
M  V30 3853 C 367.667 -2.20508 -3.62735 0
M  V30 3854 C 365.574 -4.54762 -3.78082 0
M  V30 3855 H 364.504 -0.466573 -0.592306 0
M  V30 3856 H 367.155 -1.59283 -0.911116 0
M  V30 3857 H 365.537 -1.79417 -3.53023 0
M  V30 3858 H 366.711 -4.17577 -1.94849 0
M  V30 3859 H 365.026 -3.7038 -1.90283 0
M  V30 3860 H 367.623 -2.82306 -4.54101 0
M  V30 3861 H 367.966 -1.20322 -3.98533 0
M  V30 3862 H 368.499 -2.59664 -3.01362 0
M  V30 3863 H 365.238 -5.55867 -3.47407 0
M  V30 3864 H 364.758 -4.10254 -4.37552 0
M  V30 3865 H 366.437 -4.69153 -4.45538 0
M  V30 3866 N 366.569 1.04691 -1.17803 0
M  V30 3867 C 367.799 1.81183 -0.992788 0
M  V30 3868 C 368.207 1.8347 0.462098 0
M  V30 3869 O 367.55 1.2643 1.33271 0
M  V30 3870 C 367.612 3.28363 -1.46349 0
M  V30 3871 C 367.276 3.49749 -2.94151 0
M  V30 3872 C 368.273 3.41456 -3.92051 0
M  V30 3873 C 365.958 3.76548 -3.32441 0
M  V30 3874 C 367.952 3.59656 -5.26238 0
M  V30 3875 C 365.639 3.94396 -4.66792 0
M  V30 3876 C 366.637 3.8595 -5.635 0
M  V30 3877 O 366.325 4.03294 -6.9542 0
M  V30 3878 H 366.057 0.577622 -0.351182 0
M  V30 3879 H 368.611 1.32876 -1.5663 0
M  V30 3880 H 366.841 3.77609 -0.833574 0
M  V30 3881 H 368.53 3.86395 -1.24313 0
M  V30 3882 H 369.296 3.20723 -3.63815 0
M  V30 3883 H 365.175 3.82224 -2.57732 0
M  V30 3884 H 368.719 3.52979 -6.01707 0
M  V30 3885 H 364.616 4.14622 -4.94731 0
M  V30 3886 H 365.384 4.2049 -7.02232 0
M  V30 3887 N 368.047 0.979072 1.23499 0
M  V30 3888 C 369.272 0.664845 1.96455 0
M  V30 3889 C 369.697 -0.761287 1.72006 0
M  V30 3890 O 369.055 -1.51837 0.990713 0
M  V30 3891 C 369.103 0.959479 3.47601 0
M  V30 3892 O 368.207 0.0508168 4.12369 0
M  V30 3893 H 367.548 0.250185 0.615064 0
M  V30 3894 H 370.078 1.31231 1.5697 0
M  V30 3895 H 370.088 0.895642 3.98048 0
M  V30 3896 H 368.763 1.99876 3.64723 0
M  V30 3897 H 367.34 0.16895 3.72517 0
M  V30 3898 N 369.525 -1.3858 0.750561 0
M  V30 3899 C 370.473 -2.32339 0.110162 0
M  V30 3900 C 371.467 -1.53864 -0.708674 0
M  V30 3901 O 372.673 -1.69417 -0.608112 0
M  V30 3902 H 369.048 -0.751812 0.0168275 0
M  V30 3903 H 371.019 -2.83959 0.917053 0
M  V30 3904 C 369.768 -3.39043 -0.771067 0
M  V30 3905 H 369.091 -3.99517 -0.150374 0
M  V30 3906 H 370.531 -4.07061 -1.1865 0
M  V30 3907 C 368.99 -2.77365 -1.91234 0
M  V30 3908 O 369.52 -2.66434 -3.00626 0
M  V30 3909 N 367.726 -2.35219 -1.70646 0
M  V30 3910 H 367.273 -2.4431 -0.81673 0
M  V30 3911 H 367.231 -1.94294 -2.47178 0
M  V30 3912 N 371.003 -0.499398 -1.49478 0
M  V30 3913 C 371.966 0.268838 -2.27618 0
M  V30 3914 C 372.966 0.895383 -1.33565 0
M  V30 3915 O 374.156 0.760164 -1.56739 0
M  V30 3916 C 371.288 1.38559 -3.11471 0
M  V30 3917 H 372.481 -0.416812 -2.96989 0
M  V30 3918 H 370.034 -0.254313 -1.54217 0
M  V30 3919 H 370.769 2.10544 -2.46661 0
M  V30 3920 H 370.554 0.941797 -3.80621 0
M  V30 3921 H 372.044 1.92678 -3.70493 0
M  V30 3922 N 372.481 1.55866 -0.233164 0
M  V30 3923 C 373.729 1.9821 0.394593 0
M  V30 3924 C 374.05 1.12234 1.59463 0
M  V30 3925 O 373.32 0.201981 1.94856 0
M  V30 3926 H 371.9 0.732034 0.148778 0
M  V30 3927 H 374.562 1.92107 -0.32876 0
M  V30 3928 H 373.658 3.03845 0.713063 0
M  V30 3929 N 373.959 -0.0401083 1.57549 0
M  V30 3930 C 374.869 -1.06133 2.0922 0
M  V30 3931 C 375.885 -1.40356 1.0284 0
M  V30 3932 O 377.061 -1.49897 1.34509 0
M  V30 3933 C 374.126 -2.34658 2.55218 0
M  V30 3934 C 373.187 -2.07117 3.76033 0
M  V30 3935 C 372.42 -3.29514 4.19829 0
M  V30 3936 O 372.643 -4.39794 3.63232 0
M  V30 3937 O 371.577 -3.15863 5.12362 0
M  V30 3938 H 375.403 -0.652244 2.96613 0
M  V30 3939 H 372.988 -0.256368 1.47184 0
M  V30 3940 H 374.87 -3.10239 2.85184 0
M  V30 3941 H 373.545 -2.74883 1.70941 0
M  V30 3942 H 372.452 -1.29139 3.51104 0
M  V30 3943 H 373.785 -1.71754 4.61261 0
M  V30 3944 N 375.437 -1.54477 -0.31217 0
M  V30 3945 C 376.369 -1.81011 -1.40598 0
M  V30 3946 C 377.382 -0.692546 -1.47335 0
M  V30 3947 O 378.571 -0.969847 -1.49854 0
M  V30 3948 C 375.671 -1.92307 -2.79054 0
M  V30 3949 C 374.844 -3.22594 -2.95384 0
M  V30 3950 C 373.903 -3.24448 -4.1427 0
M  V30 3951 O 372.929 -3.98035 -4.06887 0
M  V30 3952 N 374.131 -2.49042 -5.24365 0
M  V30 3953 H 376.896 -2.75408 -1.18196 0
M  V30 3954 H 374.457 -1.53914 -0.502202 0
M  V30 3955 H 376.449 -1.90962 -3.56813 0
M  V30 3956 H 375.019 -1.04955 -2.94454 0
M  V30 3957 H 374.239 -3.36806 -2.04831 0
M  V30 3958 H 375.527 -4.08593 -3.03198 0
M  V30 3959 H 374.925 -1.88867 -5.33241 0
M  V30 3960 H 373.482 -2.53463 -6.005 0
M  V30 3961 N 376.915 0.57481 -1.46744 0
M  V30 3962 C 378.14 1.36341 -1.56288 0
M  V30 3963 C 378.565 1.86954 -0.207347 0
M  V30 3964 O 377.923 1.62006 0.813871 0
M  V30 3965 C 377.971 2.52147 -2.57787 0
M  V30 3966 O 377.075 3.53834 -2.11838 0
M  V30 3967 H 376.416 0.405713 -0.525636 0
M  V30 3968 H 378.946 0.696453 -1.92382 0
M  V30 3969 H 378.956 2.98958 -2.77648 0
M  V30 3970 H 377.631 2.14663 -3.5622 0
M  V30 3971 H 376.208 3.1345 -2.01999 0
M  V30 3972 N 378.394 1.34581 0.820102 0
M  V30 3973 C 379.641 1.27096 1.57648 0
M  V30 3974 C 379.969 -0.158317 1.93855 0
M  V30 3975 O 379.224 -1.12028 1.60463 0
M  V30 3976 C 379.523 2.10997 2.8847 0
M  V30 3977 C 379.189 3.59966 2.71543 0
M  V30 3978 C 377.851 4.00575 2.66634 0
M  V30 3979 C 380.203 4.54548 2.55021 0
M  V30 3980 C 377.531 5.33953 2.43128 0
M  V30 3981 C 379.883 5.88109 2.33047 0
M  V30 3982 C 378.547 6.27878 2.26552 0
M  V30 3983 H 377.817 0.465078 0.576874 0
M  V30 3984 H 380.464 1.6635 0.948671 0
M  V30 3985 H 378.769 1.6458 3.55557 0
M  V30 3986 H 380.466 2.0255 3.46084 0
M  V30 3987 H 377.056 3.27733 2.76205 0
M  V30 3988 H 381.24 4.24069 2.57835 0
M  V30 3989 H 376.496 5.63781 2.3656 0
M  V30 3990 H 380.67 6.60985 2.19251 0
M  V30 3991 H 378.297 7.31162 2.081 0
M  V30 3992 N 379.872 -1.04064 1.18357 0
M  V30 3993 C 381.149 -1.74252 0.888581 0
M  V30 3994 C 381.529 -2.02138 -0.60856 0
M  V30 3995 O 380.877 -1.66656 -1.56327 0
M  V30 3996 C 381.087 -3.0277 1.73584 0
M  V30 3997 C 382.435 -3.76506 1.96286 0
M  V30 3998 O 383.459 -3.12668 1.70637 0
M  V30 3999 O 382.318 -4.91243 2.39464 0
M  V30 4000 H 379.412 -0.758271 0.330082 0
M  V30 4001 H 381.958 -1.1013 1.2911 0
M  V30 4002 H 380.73 -2.78299 2.75073 0
M  V30 4003 H 380.353 -3.74631 1.33183 0
M  V30 4004 N 381.35 -0.985608 -1.22978 0
M  V30 4005 C 382.297 -0.529825 -2.24636 0
M  V30 4006 C 383.267 0.434028 -1.60329 0
M  V30 4007 O 384.452 0.340414 -1.87739 0
M  V30 4008 C 381.592 0.156533 -3.44745 0
M  V30 4009 C 380.705 -0.848197 -4.23591 0
M  V30 4010 C 379.84 -0.136109 -5.31026 0
M  V30 4011 C 378.879 -1.1297 -6.01585 0
M  V30 4012 N 378.016 -0.446415 -7.00679 0
M  V30 4013 H 382.856 -1.40148 -2.62988 0
M  V30 4014 H 380.393 -0.702168 -1.29259 0
M  V30 4015 H 382.351 0.571324 -4.1327 0
M  V30 4016 H 380.981 0.992025 -3.07179 0
M  V30 4017 H 380.033 -1.38135 -3.54433 0
M  V30 4018 H 381.345 -1.60512 -4.72268 0
M  V30 4019 H 380.499 0.335784 -6.0577 0
M  V30 4020 H 379.238 0.653373 -4.83304 0
M  V30 4021 H 378.243 -1.6123 -5.25628 0
M  V30 4022 H 379.468 -1.91993 -6.51395 0
M  V30 4023 H 377.414 0.323763 -6.55201 0
M  V30 4024 H 377.331 -1.1419 -7.47326 0
M  V30 4025 H 378.599 0.00291697 -7.795 0
M  V30 4026 N 382.828 1.3818 -0.7579 0
M  V30 4027 C 383.758 2.33027 -0.148597 0
M  V30 4028 C 384.739 1.55085 0.69875 0
M  V30 4029 O 385.924 1.83384 0.639053 0
M  V30 4030 C 383.054 3.3928 0.742034 0
M  V30 4031 C 382.008 4.28 -0.00291946 0
M  V30 4032 C 381.334 5.25146 1.00625 0
M  V30 4033 C 382.634 5.08938 -1.17385 0
M  V30 4034 H 384.328 2.84231 -0.940909 0
M  V30 4035 H 381.874 1.36659 -0.453908 0
M  V30 4036 H 383.827 4.046 1.17799 0
M  V30 4037 H 382.551 2.86569 1.56671 0
M  V30 4038 H 381.21 3.64192 -0.419504 0
M  V30 4039 H 380.858 4.68721 1.8251 0
M  V30 4040 H 380.558 5.85361 0.512428 0
M  V30 4041 H 382.082 5.93342 1.44143 0
M  V30 4042 H 383.496 5.67474 -0.815224 0
M  V30 4043 H 381.893 5.7841 -1.59882 0
M  V30 4044 H 382.963 4.42424 -1.98468 0
M  V30 4045 N 384.306 0.507319 1.49211 0
M  V30 4046 C 385.236 -0.256939 2.32082 0
M  V30 4047 C 386.217 -0.956609 1.40652 0
M  V30 4048 O 387.402 -0.946788 1.69557 0
M  V30 4049 C 384.532 -1.31802 3.21318 0
M  V30 4050 C 383.486 -0.737855 4.21592 0
M  V30 4051 C 382.812 -1.89992 4.99807 0
M  V30 4052 C 384.112 0.275325 5.21574 0
M  V30 4053 H 385.806 0.434798 2.96226 0
M  V30 4054 H 383.352 0.210546 1.42452 0
M  V30 4055 H 385.305 -1.86045 3.78107 0
M  V30 4056 H 384.029 -2.03903 2.5513 0
M  V30 4057 H 382.688 -0.217126 3.65956 0
M  V30 4058 H 382.336 -2.60877 4.30061 0
M  V30 4059 H 382.036 -1.51777 5.6766 0
M  V30 4060 H 383.56 -2.44657 5.59442 0
M  V30 4061 H 384.974 -0.179193 5.7302 0
M  V30 4062 H 383.371 0.573649 5.97352 0
M  V30 4063 H 384.441 1.18903 4.70096 0
M  V30 4064 N 385.784 -1.5574 0.241426 0
M  V30 4065 C 386.731 -2.21149 -0.660432 0
M  V30 4066 C 387.701 -1.17356 -1.17545 0
M  V30 4067 O 388.886 -1.45784 -1.23093 0
M  V30 4068 C 386.026 -2.91059 -1.85414 0
M  V30 4069 C 385.139 -4.09495 -1.37616 0
M  V30 4070 C 384.274 -4.67135 -2.529 0
M  V30 4071 C 383.313 -5.77831 -2.01936 0
M  V30 4072 N 382.45 -6.29677 -3.10566 0
M  V30 4073 H 387.29 -2.97845 -0.095955 0
M  V30 4074 H 384.827 -1.47057 -0.0356024 0
M  V30 4075 H 386.785 -3.29788 -2.5553 0
M  V30 4076 H 385.415 -2.16846 -2.39118 0
M  V30 4077 H 384.467 -3.76117 -0.569235 0
M  V30 4078 H 385.779 -4.89423 -0.962618 0
M  V30 4079 H 384.933 -5.08409 -3.31067 0
M  V30 4080 H 383.672 -3.86411 -2.97553 0
M  V30 4081 H 382.677 -5.36039 -1.22238 0
M  V30 4082 H 383.902 -6.60402 -1.58259 0
M  V30 4083 H 381.848 -5.5186 -3.54664 0
M  V30 4084 H 381.765 -7.04783 -2.73526 0
M  V30 4085 H 383.033 -6.75609 -3.88809 0
M  V30 4086 N 387.262 0.0317525 -1.57568 0
M  V30 4087 C 388.209 1.0332 -2.06382 0
M  V30 4088 C 389.179 1.36082 -0.952414 0
M  V30 4089 O 390.364 1.46466 -1.2228 0
M  V30 4090 C 387.504 2.32989 -2.54578 0
M  V30 4091 C 386.617 2.0641 -3.79498 0
M  V30 4092 C 385.752 3.2993 -4.16317 0
M  V30 4093 C 384.791 2.98893 -5.34162 0
M  V30 4094 N 383.928 4.14857 -5.66426 0
M  V30 4095 H 388.768 0.609982 -2.9169 0
M  V30 4096 H 386.305 0.289573 -1.44222 0
M  V30 4097 H 388.263 3.0875 -2.80587 0
M  V30 4098 H 386.893 2.73039 -1.7219 0
M  V30 4099 H 385.945 1.21158 -3.6059 0
M  V30 4100 H 387.257 1.79513 -4.65378 0
M  V30 4101 H 386.411 4.1406 -4.4344 0
M  V30 4102 H 385.15 3.59938 -3.29083 0
M  V30 4103 H 384.155 2.13164 -5.06795 0
M  V30 4104 H 385.38 2.70165 -6.23047 0
M  V30 4105 H 383.326 4.44821 -4.82151 0
M  V30 4106 H 383.243 3.91374 -6.4681 0
M  V30 4107 H 384.511 4.99868 -5.98124 0
M  V30 4108 N 388.74 1.54641 0.303973 0
M  V30 4109 C 389.67 1.88386 1.3796 0
M  V30 4110 C 390.651 0.742485 1.5304 0
M  V30 4111 O 391.836 0.997959 1.66597 0
M  V30 4112 C 388.966 2.12854 2.74427 0
M  V30 4113 C 387.92 3.28702 2.74115 0
M  V30 4114 C 387.246 3.38582 4.13844 0
M  V30 4115 C 388.546 4.65881 2.3612 0
M  V30 4116 H 390.24 2.78474 1.09966 0
M  V30 4117 H 387.786 1.33988 0.527556 0
M  V30 4118 H 389.739 2.35047 3.49758 0
M  V30 4119 H 388.463 1.19535 3.03939 0
M  V30 4120 H 387.122 3.06428 2.0124 0
M  V30 4121 H 386.77 2.42784 4.40528 0
M  V30 4122 H 386.47 4.16453 4.14537 0
M  V30 4123 H 387.994 3.63031 4.90959 0
M  V30 4124 H 389.408 4.87823 3.01167 0
M  V30 4125 H 387.805 5.46444 2.48031 0
M  V30 4126 H 388.875 4.66799 1.3125 0
M  V30 4127 N 390.218 -0.567019 1.47046 0
M  V30 4128 C 391.446 -1.35027 1.56765 0
M  V30 4129 C 391.861 -1.8758 0.214316 0
M  V30 4130 O 391.218 -1.64471 -0.790919 0
M  V30 4131 C 391.269 -2.52698 2.58507 0
M  V30 4132 O 390.99 -2.0232 3.88585 0
M  V30 4133 C 392.491 -3.45043 2.78316 0
M  V30 4134 H 389.711 -0.41195 0.529658 0
M  V30 4135 H 392.255 -0.687832 1.92585 0
M  V30 4136 H 390.41 -3.149 2.25648 0
M  V30 4137 H 390.824 -2.79068 4.44096 0
M  V30 4138 H 392.298 -4.2405 3.53391 0
M  V30 4139 H 392.775 -3.97971 1.85784 0
M  V30 4140 H 393.381 -2.88665 3.12334 0
M  V30 4141 N 391.696 -1.35014 -0.812953 0
M  V30 4142 C 392.921 -1.31187 -1.60639 0
M  V30 4143 C 393.346 0.109382 -1.87782 0
M  V30 4144 O 392.704 1.07424 -1.46047 0
M  V30 4145 C 392.752 -2.11809 -2.91838 0
M  V30 4146 O 391.856 -1.49444 -3.8437 0
M  V30 4147 H 391.197 -0.450084 -0.488181 0
M  V30 4148 H 393.727 -1.77963 -1.00947 0
M  V30 4149 H 393.737 -2.23531 -3.41318 0
M  V30 4150 H 392.412 -3.15137 -2.71407 0
M  V30 4151 H 390.989 -1.46524 -3.42907 0
M  V30 4152 N 393.175 1.03435 -1.18907 0
M  V30 4153 C 394.125 2.09924 -0.889706 0
M  V30 4154 C 395.109 1.60261 0.143216 0
M  V30 4155 O 396.301 1.76892 -0.0617122 0
M  V30 4156 C 393.43 3.40669 -0.424168 0
M  V30 4157 C 392.516 3.97082 -1.48952 0
M  V30 4158 N 392.907 4.27227 -2.70759 0
M  V30 4159 C 391.205 4.25029 -1.35152 0
M  V30 4160 C 391.906 4.7246 -3.39347 0
M  V30 4161 N 390.882 4.7366 -2.66735 0
M  V30 4162 H 394.684 2.31116 -1.81555 0
M  V30 4163 H 392.198 1.21246 -1.08042 0
M  V30 4164 H 394.195 4.16461 -0.191176 0
M  V30 4165 H 392.855 3.20901 0.495263 0
M  V30 4166 H 393.866 4.16678 -3.0757 0
M  V30 4167 H 390.543 4.14554 -0.495126 0
M  V30 4168 H 391.933 5.04751 -4.43481 0
M  V30 4169 N 394.653 0.992116 1.22453 0
M  V30 4170 C 395.583 0.561677 2.26644 0
M  V30 4171 C 396.564 -0.411055 1.65059 0
M  V30 4172 O 397.749 -0.301861 1.9184 0
M  V30 4173 C 394.879 -0.125247 3.47074 0
M  V30 4174 C 393.833 0.765948 4.21091 0
M  V30 4175 C 393.159 -0.0538484 5.34673 0
M  V30 4176 C 394.459 2.06242 4.79856 0
M  V30 4177 H 396.153 1.43259 2.62902 0
M  V30 4178 H 393.699 0.690283 1.26377 0
M  V30 4179 H 395.652 -0.437764 4.1912 0
M  V30 4180 H 394.376 -1.03069 3.0991 0
M  V30 4181 H 393.035 1.0621 3.50878 0
M  V30 4182 H 392.683 -0.960188 4.9375 0
M  V30 4183 H 392.383 0.539415 5.85119 0
M  V30 4184 H 393.907 -0.360477 6.09535 0
M  V30 4185 H 395.321 1.8139 5.43848 0
M  V30 4186 H 393.718 2.60444 5.40638 0
M  V30 4187 H 394.788 2.74167 3.99951 0
M  V30 4188 N 396.131 -1.37776 0.765217 0
M  V30 4189 C 397.542 -1.82521 0.392819 0
M  V30 4190 C 397.893 -1.63789 -1.08017 0
M  V30 4191 O 397.018 -1.14542 -1.83601 0
M  V30 4192 C 397.613 -3.31358 0.706214 0
M  V30 4193 C 396.172 -3.74406 0.386952 0
M  V30 4194 C 395.319 -2.60394 0.953422 0
M  V30 4195 H 398.27 -1.2634 0.960412 0
M  V30 4196 H 398.291 -3.80498 -0.0114706 0
M  V30 4197 H 397.803 -3.44959 1.77833 0
M  V30 4198 H 395.904 -3.66377 -0.678112 0
M  V30 4199 H 396.017 -4.70749 0.890636 0
M  V30 4200 H 394.381 -2.51878 0.378064 0
M  V30 4201 H 395.164 -2.76791 2.03081 0
M  V30 4202 N 397.609 -0.515225 -1.4894 0
M  V30 4203 C 398.556 0.255567 -2.29381 0
M  V30 4204 C 399.526 0.947387 -1.36432 0
M  V30 4205 O 400.711 0.951288 -1.65394 0
M  V30 4206 C 397.851 1.30551 -3.19453 0
M  V30 4207 C 396.964 0.624029 -4.27469 0
M  V30 4208 C 396.099 1.65563 -5.0474 0
M  V30 4209 C 395.138 0.956802 -6.04576 0
M  V30 4210 N 394.275 1.93326 -6.74959 0
M  V30 4211 H 399.115 -0.436607 -2.94784 0
M  V30 4212 H 396.652 -0.227154 -1.45336 0
M  V30 4213 H 398.61 1.92639 -3.70062 0
M  V30 4214 H 397.24 1.96626 -2.56004 0
M  V30 4215 H 396.292 -0.110459 -3.8024 0
M  V30 4216 H 397.604 0.0746092 -4.98744 0
M  V30 4217 H 396.758 2.35119 -5.59289 0
M  V30 4218 H 395.497 2.23893 -4.3327 0
M  V30 4219 H 394.502 0.247097 -5.49244 0
M  V30 4220 H 395.727 0.379814 -6.78037 0
M  V30 4221 H 393.673 2.50591 -6.06251 0
M  V30 4222 H 393.59 1.43489 -7.42258 0
M  V30 4223 H 394.858 2.62126 -7.34105 0
M  V30 4224 N 399.087 1.5561 -0.249682 0
M  V30 4225 C 400.05 2.20217 0.635394 0
M  V30 4226 C 401.05 1.17227 1.10066 0
M  V30 4227 O 402.24 1.42292 1.00492 0
M  V30 4228 C 399.372 2.84794 1.87363 0
M  V30 4229 H 400.565 2.99814 0.0716752 0
M  V30 4230 H 398.118 1.563 -0.000153234 0
M  V30 4231 H 398.853 2.09142 2.47851 0
M  V30 4232 H 398.638 3.60241 1.5482 0
M  V30 4233 H 400.128 3.3423 2.5036 0
M  V30 4234 N 400.565 -0.0233959 1.57583 0
M  V30 4235 C 401.981 -0.379134 1.55031 0
M  V30 4236 C 402.181 -1.76255 0.976548 0
M  V30 4237 O 401.237 -2.45266 0.600078 0
M  V30 4238 C 402.55 -0.275792 2.99433 0
M  V30 4239 C 404.098 -0.352458 3.11009 0
M  V30 4240 C 404.573 -0.278501 4.57152 0
M  V30 4241 N 406.064 -0.337123 4.61972 0
M  V30 4242 C 406.799 -0.302876 5.726 0
M  V30 4243 N 406.295 -0.220589 6.92449 0
M  V30 4244 N 408.088 -0.353023 5.6099 0
M  V30 4245 H 400.239 0.881869 1.93227 0
M  V30 4246 H 402.502 0.335867 0.886509 0
M  V30 4247 H 402.208 0.675108 3.4516 0
M  V30 4248 H 402.082 -1.06721 3.61788 0
M  V30 4249 H 404.469 -1.29379 2.65226 0
M  V30 4250 H 404.55 0.468409 2.51475 0
M  V30 4251 H 404.194 0.659189 5.03604 0
M  V30 4252 H 404.124 -1.11755 5.14605 0
M  V30 4253 H 406.615 -0.403002 3.75745 0
M  V30 4254 H 406.928 -0.199713 7.72542 0
M  V30 4255 H 405.273 -0.186555 6.9475 0
M  V30 4256 H 408.464 -0.415339 4.66254 0
M  V30 4257 H 408.637 -0.322866 6.47195 0
M  V30 4258 N 402.043 -1.548 -0.295768 0
M  V30 4259 C 403.289 -1.74588 -1.03184 0
M  V30 4260 C 403.622 -0.532962 -1.86744 0
M  V30 4261 O 402.897 0.469872 -1.88739 0
M  V30 4262 C 403.18 -3.03791 -1.93347 0
M  V30 4263 C 403.033 -4.35392 -1.12933 0
M  V30 4264 C 404.352 -3.28892 -2.92435 0
M  V30 4265 H 401.471 -0.635221 -0.373715 0
M  V30 4266 H 404.113 -1.87519 -0.30606 0
M  V30 4267 H 402.263 -2.92898 -2.55232 0
M  V30 4268 H 403.935 -4.58211 -0.532943 0
M  V30 4269 H 402.178 -4.31642 -0.432168 0
M  V30 4270 H 402.849 -5.22074 -1.79284 0
M  V30 4271 H 405.325 -3.39429 -2.4068 0
M  V30 4272 H 404.201 -4.20603 -3.52682 0
M  V30 4273 H 404.462 -2.47437 -3.6637 0
M  V30 4274 N 403.521 0.559213 -1.47345 0
M  V30 4275 C 404.767 1.31843 -1.54095 0
M  V30 4276 C 405.1 1.93149 -0.201726 0
M  V30 4277 O 404.375 1.77759 0.789428 0
M  V30 4278 C 404.658 2.43006 -2.65744 0
M  V30 4279 C 404.511 1.86581 -4.09277 0
M  V30 4280 C 405.83 3.44943 -2.73318 0
M  V30 4281 H 402.949 0.478012 -0.560957 0
M  V30 4282 H 405.591 0.625977 -1.79392 0
M  V30 4283 H 403.741 3.02072 -2.44305 0
M  V30 4284 H 405.413 1.31792 -4.42073 0
M  V30 4285 H 403.656 1.17268 -4.17649 0
M  V30 4286 H 404.327 2.66933 -4.83168 0
M  V30 4287 H 406.803 2.95793 -2.92653 0
M  V30 4288 H 405.679 4.20153 -3.53218 0
M  V30 4289 H 405.94 4.03665 -1.80296 0
M  V30 4290 N 404.999 1.35443 0.805782 0
M  V30 4291 C 405.962 1.28301 1.89925 0
M  V30 4292 C 406.962 0.194285 1.59622 0
M  V30 4293 O 408.152 0.448036 1.6834 0
M  V30 4294 C 405.284 0.984997 3.2636 0
M  V30 4295 H 406.477 2.2553 1.97677 0
M  V30 4296 H 404.03 1.19979 1.00173 0
M  V30 4297 H 404.765 0.016603 3.24296 0
M  V30 4298 H 404.55 1.77269 3.4974 0
M  V30 4299 H 406.04 0.960651 4.064 0
M  V30 4300 N 406.477 -1.02803 1.19454 0
M  V30 4301 C 407.717 -1.77769 1.00883 0
M  V30 4302 C 408.081 -1.86596 -0.45233 0
M  V30 4303 O 409.282 -2.57895 -0.757877 0
M  V30 4304 C 407.553 -3.16486 1.66046 0
M  V30 4305 S 409.112 -4.07632 1.62424 0
M  V30 4306 H 405.93 -0.611949 0.361993 0
M  V30 4307 H 408.532 -1.23175 1.51816 0
M  V30 4308 H 407.236 -3.0768 2.7159 0
M  V30 4309 H 406.767 -3.76156 1.15196 0
M  V30 4310 H 408.782 -4.91937 0.64903 0
M  V30 4311 N 407.956 -0.998596 -1.21925 0
M  V30 4312 C 409.203 -0.677663 -1.90824 0
M  V30 4313 C 409.531 0.790905 -1.77693 0
M  V30 4314 O 408.786 1.58817 -1.14349 0
M  V30 4315 C 409.085 -1.03648 -3.42041 0
M  V30 4316 C 408.751 -2.49825 -3.75364 0
M  V30 4317 C 407.413 -2.8977 -3.8417 0
M  V30 4318 C 409.765 -3.44545 -3.91073 0
M  V30 4319 C 407.093 -4.23412 -4.06127 0
M  V30 4320 C 409.445 -4.77853 -4.14535 0
M  V30 4321 C 408.109 -5.17531 -4.21566 0
M  V30 4322 H 407.379 -0.247975 -0.698276 0
M  V30 4323 H 410.026 -1.25584 -1.44571 0
M  V30 4324 H 408.331 -0.376457 -3.89987 0
M  V30 4325 H 410.028 -0.766113 -3.93614 0
M  V30 4326 H 406.618 -2.17866 -3.69097 0
M  V30 4327 H 410.802 -3.14853 -3.83642 0
M  V30 4328 H 406.058 -4.53734 -4.09799 0
M  V30 4329 H 410.232 -5.51189 -4.25633 0
M  V30 4330 H 407.859 -6.21102 -4.38333 0
M  V30 4331 N 409.434 1.37368 -0.772513 0
M  V30 4332 C 410.674 2.01512 -0.342361 0
M  V30 4333 C 411.038 1.59997 1.06136 0
M  V30 4334 O 412.239 2.16609 1.59167 0
M  V30 4335 C 410.51 3.54134 -0.482048 0
M  V30 4336 S 412.069 4.38585 -0.137272 0
M  V30 4337 H 408.887 0.698699 -0.131686 0
M  V30 4338 H 411.489 1.67552 -1.0073 0
M  V30 4339 H 410.193 3.81837 -1.50428 0
M  V30 4340 H 409.724 3.92894 0.199413 0
M  V30 4341 H 411.739 4.84594 1.06692 0
M  V30 4342 N 410.912 0.523116 1.48665 0
M  V30 4343 C 411.822 -0.247406 2.33292 0
M  V30 4344 C 412.838 -0.945769 1.46052 0
M  V30 4345 O 414.014 -0.922253 1.79043 0
M  V30 4346 C 411.079 -1.28487 3.22012 0
M  V30 4347 C 410.14 -0.597592 4.2512 0
M  V30 4348 C 409.373 -1.58563 5.09601 0
M  V30 4349 O 409.596 -2.81763 4.95949 0
M  V30 4350 O 408.53 -1.12879 5.91221 0
M  V30 4351 H 412.356 0.445869 3.00409 0
M  V30 4352 H 409.941 0.284128 1.46673 0
M  V30 4353 H 411.823 -1.88459 3.7691 0
M  V30 4354 H 410.498 -1.96068 2.57564 0
M  V30 4355 H 409.405 0.0424407 3.74076 0
M  V30 4356 H 410.738 0.0361517 4.92187 0
M  V30 4357 N 412.39 -1.55475 0.257931 0
M  V30 4358 C 413.638 -1.98813 -0.363009 0
M  V30 4359 C 413.959 -1.14757 -1.57657 0
M  V30 4360 O 413.229 -0.232956 -1.9451 0
M  V30 4361 H 411.809 -0.734308 -0.137113 0
M  V30 4362 H 414.471 -1.9156 0.359281 0
M  V30 4363 H 413.567 -3.04941 -0.664634 0
M  V30 4364 N 413.868 0.0150385 -1.57593 0
M  V30 4365 C 414.801 1.04475 -2.0288 0
M  V30 4366 C 415.779 1.3436 -0.915764 0
M  V30 4367 O 416.963 1.46779 -1.18271 0
M  V30 4368 C 414.09 2.37608 -2.41371 0
M  V30 4369 C 413.136 2.23487 -3.63257 0
M  V30 4370 S 413.969 1.57505 -5.11813 0
M  V30 4371 C 415.125 2.921 -5.5356 0
M  V30 4372 H 415.358 0.65907 -2.89903 0
M  V30 4373 H 412.891 0.225452 -1.52745 0
M  V30 4374 H 414.849 3.14165 -2.64217 0
M  V30 4375 H 413.51 2.7332 -1.54775 0
M  V30 4376 H 412.703 3.21802 -3.87891 0
M  V30 4377 H 412.305 1.55074 -3.40335 0
M  V30 4378 H 414.597 3.88419 -5.55101 0
M  V30 4379 H 415.54 2.72184 -6.53698 0
M  V30 4380 H 415.948 2.95318 -4.8109 0
M  V30 4381 N 415.346 1.54954 0.287554 0
M  V30 4382 C 416.574 1.78881 1.03967 0
M  V30 4383 C 416.989 0.554894 1.80462 0
M  V30 4384 O 416.346 -0.475676 1.76192 0
M  V30 4385 C 416.397 3.00488 2.0097 0
M  V30 4386 O 416.118 4.19113 1.27577 0
M  V30 4387 C 417.619 3.36907 2.88112 0
M  V30 4388 H 414.839 0.596259 0.307761 0
M  V30 4389 H 417.383 2.01937 0.322749 0
M  V30 4390 H 415.538 2.79601 2.68145 0
M  V30 4391 H 415.952 4.87765 1.92835 0
M  V30 4392 H 417.426 4.25205 3.52001 0
M  V30 4393 H 417.903 2.55659 3.57121 0
M  V30 4394 H 418.509 3.60001 2.26449 0
M  V30 4395 N 416.824 -0.551391 1.4764 0
M  V30 4396 C 418.07 -1.31024 1.54792 0
M  V30 4397 C 418.403 -1.9304 0.211967 0
M  V30 4398 O 417.678 -1.78175 -0.77999 0
M  V30 4399 C 417.961 -2.41593 2.67029 0
M  V30 4400 C 417.814 -1.84408 4.10261 0
M  V30 4401 C 419.133 -3.43488 2.75143 0
M  V30 4402 H 416.252 -0.475031 0.563485 0
M  V30 4403 H 418.894 -0.616454 1.79722 0
M  V30 4404 H 417.044 -3.00772 2.45904 0
M  V30 4405 H 418.716 -1.29445 4.42766 0
M  V30 4406 H 416.959 -1.15051 4.18265 0
M  V30 4407 H 417.63 -2.64367 4.84576 0
M  V30 4408 H 420.106 -2.94236 2.94218 0
M  V30 4409 H 418.982 -4.18274 3.55441 0
M  V30 4410 H 419.243 -4.02703 1.82435 0
M  V30 4411 N 418.302 -1.35869 -0.798587 0
M  V30 4412 C 419.718 -1.16082 -1.09532 0
M  V30 4413 C 419.918 0.0213124 -2.01489 0
M  V30 4414 O 418.974 0.689488 -2.42904 0
M  V30 4415 C 420.287 -2.46748 -1.7186 0
M  V30 4416 C 421.835 -2.53028 -1.84244 0
M  V30 4417 C 422.31 -3.83758 -2.49988 0
M  V30 4418 N 423.801 -3.85053 -2.57465 0
M  V30 4419 C 424.536 -4.8294 -3.09122 0
M  V30 4420 N 424.032 -5.91217 -3.61157 0
M  V30 4421 N 425.825 -4.70369 -3.0775 0
M  V30 4422 H 417.976 -2.11571 -0.187461 0
M  V30 4423 H 420.239 -0.936726 -0.145765 0
M  V30 4424 H 419.945 -3.33471 -1.11759 0
M  V30 4425 H 419.819 -2.61883 -2.71472 0
M  V30 4426 H 422.206 -1.66729 -2.43486 0
M  V30 4427 H 422.287 -2.418 -0.834643 0
M  V30 4428 H 421.931 -4.70459 -1.91393 0
M  V30 4429 H 421.861 -3.92278 -3.5132 0
M  V30 4430 H 424.352 -3.06822 -2.20609 0
M  V30 4431 H 424.665 -6.61892 -3.98896 0
M  V30 4432 H 423.01 -5.94899 -3.59333 0
M  V30 4433 H 426.201 -3.84914 -2.66381 0
M  V30 4434 H 426.374 -5.46816 -3.47701 0
M  V30 4435 N 419.78 1.02168 -1.19998 0
M  V30 4436 C 421.028 1.75338 -1.00504 0
M  V30 4437 C 421.349 1.89387 0.464506 0
M  V30 4438 O 420.619 1.43268 1.33608 0
M  V30 4439 H 419.199 0.649564 -0.368885 0
M  V30 4440 H 421.861 1.23205 -1.51018 0
M  V30 4441 H 420.957 2.75892 -1.45912 0
M  V30 4442 N 421.258 1.00505 1.21394 0
M  V30 4443 C 422.188 0.585684 2.26035 0
M  V30 4444 C 423.169 -0.393525 1.65485 0
M  V30 4445 O 424.354 -0.281497 1.92149 0
M  V30 4446 C 421.484 -0.0884283 3.47187 0
M  V30 4447 C 420.438 0.810567 4.20254 0
M  V30 4448 C 419.764 0.00286382 5.347 0
M  V30 4449 C 421.064 2.1132 4.77641 0
M  V30 4450 H 422.758 1.46039 2.61368 0
M  V30 4451 H 420.304 0.703648 1.25638 0
M  V30 4452 H 422.257 -0.393286 4.19561 0
M  V30 4453 H 420.981 -0.997766 3.10986 0
M  V30 4454 H 419.64 1.09925 3.49731 0
M  V30 4455 H 419.288 -0.907765 4.94741 0
M  V30 4456 H 418.988 0.601444 5.84514 0
M  V30 4457 H 420.512 -0.295808 6.09883 0
M  V30 4458 H 421.926 1.87148 5.41893 0
M  V30 4459 H 420.323 2.66164 5.37845 0
M  V30 4460 H 421.393 2.78393 3.9702 0
M  V30 4461 N 422.737 -1.36956 0.779787 0
M  V30 4462 C 423.667 -2.32761 0.185651 0
M  V30 4463 C 424.648 -1.56177 -0.673989 0
M  V30 4464 O 425.833 -1.84378 -0.609797 0
M  V30 4465 C 422.963 -3.40418 -0.687964 0
M  V30 4466 C 421.917 -4.27941 0.0710102 0
M  V30 4467 C 421.243 -5.26681 -0.922573 0
M  V30 4468 C 422.543 -5.07006 1.25467 0
M  V30 4469 H 424.237 -2.82698 0.986008 0
M  V30 4470 H 421.783 -1.3592 0.475592 0
M  V30 4471 H 423.736 -4.06423 -1.11348 0
M  V30 4472 H 422.46 -2.89025 -1.52093 0
M  V30 4473 H 421.119 -3.63478 0.47739 0
M  V30 4474 H 420.767 -4.71565 -1.7503 0
M  V30 4475 H 420.467 -5.86103 -0.419237 0
M  V30 4476 H 421.991 -5.9556 -1.34686 0
M  V30 4477 H 423.405 -5.66105 0.905401 0
M  V30 4478 H 421.802 -5.75793 1.69063 0
M  V30 4479 H 422.872 -4.3921 2.05481 0
M  V30 4480 N 424.215 -0.530993 -1.48385 0
M  V30 4481 C 425.148 0.278511 -2.26494 0
M  V30 4482 C 426.126 0.943905 -1.32398 0
M  V30 4483 O 427.31 0.968098 -1.61741 0
M  V30 4484 C 424.437 1.39453 -3.08659 0
M  V30 4485 C 423.483 0.840434 -4.18137 0
M  V30 4486 S 424.316 -0.292496 -5.34701 0
M  V30 4487 C 425.472 0.825973 -6.20426 0
M  V30 4488 H 425.705 -0.384365 -2.94805 0
M  V30 4489 H 423.238 -0.316799 -1.51115 0
M  V30 4490 H 425.196 2.03382 -3.56575 0
M  V30 4491 H 423.857 2.02913 -2.3976 0
M  V30 4492 H 423.05 1.67769 -4.75257 0
M  V30 4493 H 422.652 0.277819 -3.72967 0
M  V30 4494 H 424.944 1.72438 -6.55188 0
M  V30 4495 H 425.887 0.292728 -7.07495 0
M  V30 4496 H 426.295 1.10683 -5.53543 0
M  V30 4497 N 425.693 1.55336 -0.266172 0
M  V30 4498 C 426.656 2.20878 0.612001 0
M  V30 4499 C 427.656 1.18388 1.08816 0
M  V30 4500 O 428.846 1.4335 0.989774 0
M  V30 4501 C 425.978 2.86765 1.84332 0
M  V30 4502 H 427.171 2.99873 0.0398718 0
M  V30 4503 H 424.724 1.56291 -0.0167309 0
M  V30 4504 H 425.459 2.11759 2.45619 0
M  V30 4505 H 425.244 3.61862 1.5099 0
M  V30 4506 H 426.734 3.36867 2.46801 0
M  V30 4507 N 427.171 -0.0066808 1.57599 0
M  V30 4508 C 428.104 -1.03397 2.03431 0
M  V30 4509 C 429.082 -1.33872 0.922877 0
M  V30 4510 O 430.266 -1.4615 1.19048 0
M  V30 4511 C 427.393 -2.36325 2.42628 0
M  V30 4512 C 426.439 -2.21557 3.64438 0
M  V30 4513 S 427.272 -1.54789 5.12641 0
M  V30 4514 C 428.428 -2.8916 5.55101 0
M  V30 4515 H 428.661 -0.643687 2.90248 0
M  V30 4516 H 426.194 -0.217349 1.52863 0
M  V30 4517 H 428.152 -3.12759 2.65879 0
M  V30 4518 H 426.813 -2.72495 1.56222 0
M  V30 4519 H 426.006 -3.1974 3.89592 0
M  V30 4520 H 425.608 -1.53267 3.41153 0
M  V30 4521 H 427.9 -3.8547 5.57153 0
M  V30 4522 H 428.843 -2.68713 6.55133 0
M  V30 4523 H 429.251 -2.92762 4.82649 0
M  V30 4524 N 428.649 -1.55105 -0.279332 0
M  V30 4525 C 430.065 -1.46803 -0.626187 0
M  V30 4526 C 430.265 -0.676939 -1.89789 0
M  V30 4527 O 429.321 -0.19326 -2.51759 0
M  V30 4528 C 430.634 -2.90962 -0.759034 0
M  V30 4529 C 432.182 -3.01138 -0.853504 0
M  V30 4530 C 432.657 -4.46539 -1.01818 0
M  V30 4531 N 434.148 -4.50341 -1.08386 0
M  V30 4532 C 434.883 -5.60053 -1.22996 0
M  V30 4533 N 434.379 -6.79645 -1.34366 0
M  V30 4534 N 436.172 -5.47783 -1.26056 0
M  V30 4535 H 428.323 -2.04996 0.555921 0
M  V30 4536 H 430.586 -0.929325 0.187239 0
M  V30 4537 H 430.292 -3.51544 0.104852 0
M  V30 4538 H 430.166 -3.39619 -1.64131 0
M  V30 4539 H 432.553 -2.40658 -1.70786 0
M  V30 4540 H 432.634 -2.55745 0.0532466 0
M  V30 4541 H 432.278 -5.0762 -0.168504 0
M  V30 4542 H 432.208 -4.89583 -1.93948 0
M  V30 4543 H 434.699 -3.64191 -1.00864 0
M  V30 4544 H 435.012 -7.59012 -1.4533 0
M  V30 4545 H 433.357 -6.82469 -1.31382 0
M  V30 4546 H 436.548 -4.53294 -1.168 0
M  V30 4547 H 436.721 -6.33331 -1.37098 0
M  V30 4548 N 430.127 0.543554 -1.4793 0
M  V30 4549 C 431.543 0.870806 -1.3375 0
M  V30 4550 C 431.743 1.9864 -0.338261 0
M  V30 4551 O 430.799 2.51305 0.245371 0
M  V30 4552 C 432.112 1.25114 -2.73435 0
M  V30 4553 C 433.66 1.3618 -2.81823 0
M  V30 4554 C 434.135 1.77563 -4.22179 0
M  V30 4555 N 435.626 1.8469 -4.24787 0
M  V30 4556 C 436.361 2.18067 -5.30315 0
M  V30 4557 N 435.857 2.49963 -6.46135 0
M  V30 4558 N 437.65 2.18958 -5.17701 0
M  V30 4559 H 429.801 -0.19275 -2.11524 0
M  V30 4560 H 432.064 -0.0235777 -0.947707 0
M  V30 4561 H 431.77 0.50514 -3.48053 0
M  V30 4562 H 431.644 2.20431 -3.06088 0
M  V30 4563 H 434.031 2.09859 -2.07468 0
M  V30 4564 H 434.112 0.390169 -2.52807 0
M  V30 4565 H 433.756 1.04449 -4.97044 0
M  V30 4566 H 433.686 2.75753 -4.48629 0
M  V30 4567 H 436.177 1.62372 -3.41239 0
M  V30 4568 H 436.49 2.74497 -7.22406 0
M  V30 4569 H 434.835 2.47513 -6.49432 0
M  V30 4570 H 438.026 1.93488 -4.2624 0
M  V30 4571 H 438.199 2.44639 -6.00047 0
M  V30 4572 N 431.605 1.3629 0.791371 0
M  V30 4573 C 432.535 1.33137 1.91825 0
M  V30 4574 C 433.516 0.203168 1.68882 0
M  V30 4575 O 434.701 0.400509 1.90025 0
M  V30 4576 C 431.831 1.11793 3.28816 0
M  V30 4577 C 430.785 2.21417 3.66277 0
M  V30 4578 C 430.111 1.85218 5.01596 0
M  V30 4579 C 431.411 3.63489 3.75064 0
M  V30 4580 H 433.105 2.2743 1.9472 0
M  V30 4581 H 430.651 1.09479 0.935437 0
M  V30 4582 H 432.604 1.08222 4.07266 0
M  V30 4583 H 431.328 0.139501 3.26302 0
M  V30 4584 H 429.987 2.2411 2.90121 0
M  V30 4585 H 429.635 0.859544 4.95602 0
M  V30 4586 H 429.335 2.58611 5.27631 0
M  V30 4587 H 430.859 1.832 5.82469 0
M  V30 4588 H 432.273 3.63034 4.43711 0
M  V30 4589 H 430.67 4.35771 4.12582 0
M  V30 4590 H 431.74 3.98536 2.76219 0
M  V30 4591 N 433.083 -1.0153 1.20538 0
M  V30 4592 C 434.331 -1.74803 1.01432 0
M  V30 4593 C 434.652 -1.8963 -0.454456 0
M  V30 4594 O 433.922 -1.43975 -1.32846 0
M  V30 4595 H 432.502 -0.647598 0.372324 0
M  V30 4596 H 435.164 -1.22402 1.5167 0
M  V30 4597 H 434.26 -2.75114 1.47373 0
M  V30 4598 N 434.561 -1.01147 -1.20859 0
M  V30 4599 C 435.491 -0.597663 -2.25722 0
M  V30 4600 C 436.472 0.384744 -1.65692 0
M  V30 4601 O 437.657 0.271303 -1.92296 0
M  V30 4602 C 434.787 0.0700149 -3.47229 0
M  V30 4603 C 433.741 -0.832843 -4.19819 0
M  V30 4604 C 433.067 -0.0312202 -5.34691 0
M  V30 4605 C 434.367 -2.1385 -4.76514 0
M  V30 4606 H 436.061 -1.47423 -2.60589 0
M  V30 4607 H 433.607 -0.710301 -1.25263 0
M  V30 4608 H 435.56 0.37103 -4.19763 0
M  V30 4609 H 434.284 0.981259 -3.11511 0
M  V30 4610 H 432.943 -1.11778 -3.49144 0
M  V30 4611 H 432.591 0.881515 -4.95215 0
M  V30 4612 H 432.291 -0.632434 -5.84187 0
M  V30 4613 H 433.815 0.26346 -6.10031 0
M  V30 4614 H 435.229 -1.9002 -5.40893 0
M  V30 4615 H 433.626 -2.69012 -5.36426 0
M  V30 4616 H 434.696 -2.80495 -3.95538 0
M  V30 4617 N 436.039 1.36541 -0.78704 0
M  V30 4618 C 437.002 2.28413 -0.189778 0
M  V30 4619 C 438.002 1.48719 0.611499 0
M  V30 4620 O 439.192 1.68737 0.432842 0
M  V30 4621 C 436.324 3.32824 0.737638 0
M  V30 4622 H 437.517 2.82743 -0.999831 0
M  V30 4623 H 435.07 1.46065 -0.556298 0
M  V30 4624 H 435.805 2.83646 1.57212 0
M  V30 4625 H 435.59 3.91752 0.165044 0
M  V30 4626 H 437.08 4.0144 1.15047 0
M  V30 4627 N 437.518 0.538854 1.48102 0
M  V30 4628 C 438.766 0.00798599 2.02098 0
M  V30 4629 C 439.087 -1.33922 1.41739 0
M  V30 4630 O 438.357 -1.86932 0.585934 0
M  V30 4631 H 436.937 -3.62179e-05 0.747 0
M  V30 4632 H 439.599 0.7047 1.81714 0
M  V30 4633 H 438.695 -0.0937672 3.11959 0
M  V30 4634 N 438.996 -1.55193 0.274407 0
M  V30 4635 C 439.906 -2.26164 -0.623473 0
M  V30 4636 C 440.922 -1.28729 -1.17068 0
M  V30 4637 O 442.098 -1.61663 -1.20112 0
M  V30 4638 C 439.163 -2.96833 -1.7914 0
M  V30 4639 C 438.224 -4.09745 -1.28093 0
M  V30 4640 C 437.457 -4.77034 -2.3932 0
M  V30 4641 O 437.68 -4.4353 -3.5866 0
M  V30 4642 O 436.614 -5.64996 -2.07516 0
M  V30 4643 H 440.44 -3.03661 -0.0485661 0
M  V30 4644 H 438.025 -1.49341 0.0418382 0
M  V30 4645 H 439.907 -3.41248 -2.4724 0
M  V30 4646 H 438.582 -2.22253 -2.35341 0
M  V30 4647 H 437.489 -3.69787 -0.566416 0
M  V30 4648 H 438.822 -4.86224 -0.764683 0
M  V30 4649 N 440.474 -0.00167713 -1.576 0
M  V30 4650 C 441.721 0.68282 -1.90641 0
M  V30 4651 C 442.049 1.73686 -0.875415 0
M  V30 4652 O 441.304 1.95334 0.119575 0
M  V30 4653 C 441.603 1.36189 -3.30435 0
M  V30 4654 C 441.269 0.440887 -4.48739 0
M  V30 4655 C 439.931 0.187312 -4.80835 0
M  V30 4656 C 442.283 -0.193134 -5.20842 0
M  V30 4657 C 439.611 -0.70855 -5.82406 0
M  V30 4658 C 441.963 -1.07688 -6.23367 0
M  V30 4659 C 440.627 -1.33962 -6.53919 0
M  V30 4660 H 439.897 0.249862 -0.697603 0
M  V30 4661 H 442.544 -0.0575642 -1.91413 0
M  V30 4662 H 440.849 2.17636 -3.25794 0
M  V30 4663 H 442.546 1.89759 -3.5326 0
M  V30 4664 H 439.136 0.648694 -4.23663 0
M  V30 4665 H 443.32 -0.0102445 -4.96299 0
M  V30 4666 H 438.576 -0.920097 -6.04437 0
M  V30 4667 H 442.75 -1.57451 -6.78367 0
M  V30 4668 H 440.377 -2.03549 -7.32442 0
M  V30 4669 N 441.952 1.55251 0.271103 0
M  V30 4670 C 442.882 1.9127 1.33933 0
M  V30 4671 C 443.863 0.77478 1.5143 0
M  V30 4672 O 445.048 1.03307 1.64442 0
M  V30 4673 C 442.178 2.18627 2.69851 0
M  V30 4674 C 441.132 3.34442 2.67081 0
M  V30 4675 C 440.458 3.47284 4.06569 0
M  V30 4676 C 441.758 4.70784 2.26185 0
M  V30 4677 H 443.452 2.80744 1.04035 0
M  V30 4678 H 440.998 1.35077 0.499017 0
M  V30 4679 H 442.951 2.42413 3.44694 0
M  V30 4680 H 441.675 1.25955 3.01335 0
M  V30 4681 H 440.334 3.10627 1.94695 0
M  V30 4682 H 439.982 2.52074 4.35279 0
M  V30 4683 H 439.682 4.25152 4.0561 0
M  V30 4684 H 441.206 3.73363 4.83148 0
M  V30 4685 H 442.62 4.94102 2.90751 0
M  V30 4686 H 441.017 5.51582 2.36384 0
M  V30 4687 H 442.087 4.69478 1.21319 0
M  V30 4688 N 443.43 -0.535701 1.48216 0
M  V30 4689 C 444.36 -1.65014 1.65204 0
M  V30 4690 C 445.341 -1.62554 0.501011 0
M  V30 4691 O 446.526 -1.7984 0.732886 0
M  V30 4692 C 443.656 -3.03616 1.68626 0
M  V30 4693 C 442.61 -3.20932 2.83172 0
M  V30 4694 C 441.936 -4.60537 2.71679 0
M  V30 4695 C 443.236 -3.04249 4.24535 0
M  V30 4696 H 444.93 -1.51053 2.58502 0
M  V30 4697 H 442.476 -0.725262 1.24402 0
M  V30 4698 H 444.429 -3.81446 1.79099 0
M  V30 4699 H 443.153 -3.18587 0.719026 0
M  V30 4700 H 441.812 -2.45517 2.72244 0
M  V30 4701 H 441.46 -4.72336 1.72937 0
M  V30 4702 H 441.16 -4.73069 3.48538 0
M  V30 4703 H 442.684 -5.40475 2.84112 0
M  V30 4704 H 444.098 -3.71877 4.36326 0
M  V30 4705 H 442.495 -3.28278 5.02348 0
M  V30 4706 H 443.565 -2.00739 4.41397 0
M  V30 4707 N 444.908 -1.36708 -0.784132 0
M  V30 4708 C 445.838 -1.34153 -1.91116 0
M  V30 4709 C 446.819 -0.212121 -1.68772 0
M  V30 4710 O 448.004 -0.410581 -1.8981 0
M  V30 4711 C 445.134 -1.13535 -3.28218 0
M  V30 4712 C 444.088 -2.23356 -3.65097 0
M  V30 4713 C 443.414 -1.87875 -5.00607 0
M  V30 4714 C 444.714 -3.65473 -3.73131 0
M  V30 4715 H 446.408 -2.28459 -1.93512 0
M  V30 4716 H 443.954 -1.09973 -0.929618 0
M  V30 4717 H 445.907 -1.10381 -4.06687 0
M  V30 4718 H 444.631 -0.156804 -3.26223 0
M  V30 4719 H 443.29 -2.25645 -2.88929 0
M  V30 4720 H 442.938 -0.885814 -4.95139 0
M  V30 4721 H 442.638 -2.61406 -5.26252 0
M  V30 4722 H 444.162 -1.86286 -5.81489 0
M  V30 4723 H 445.576 -3.65382 -4.41779 0
M  V30 4724 H 443.973 -4.37953 -4.10265 0
M  V30 4725 H 445.043 -3.99995 -2.74102 0
M  V30 4726 N 446.386 1.0089 -1.21074 0
M  V30 4727 C 447.634 1.74262 -1.02358 0
M  V30 4728 C 447.955 1.89869 0.444393 0
M  V30 4729 O 447.225 1.44677 1.32081 0
M  V30 4730 H 445.805 0.645615 -0.375754 0
M  V30 4731 H 448.467 1.21596 -1.52317 0
M  V30 4732 H 447.563 2.74328 -1.4883 0
M  V30 4733 N 447.864 1.01787 1.20321 0
M  V30 4734 C 449.089 0.727009 1.9424 0
M  V30 4735 C 449.514 -0.706179 1.74341 0
M  V30 4736 O 448.872 -1.48609 1.03852 0
M  V30 4737 C 448.92 1.06958 3.44372 0
M  V30 4738 O 448.024 0.181983 4.11998 0
M  V30 4739 H 447.365 0.269626 0.606793 0
M  V30 4740 H 449.895 1.36158 1.52716 0
M  V30 4741 H 449.905 1.02182 3.94997 0
M  V30 4742 H 448.58 2.11378 3.58179 0
M  V30 4743 H 447.157 0.287378 3.71791 0
M  V30 4744 N 449.342 -1.36122 0.79427 0
M  V30 4745 C 450.619 -1.93398 0.292685 0
M  V30 4746 C 450.999 -1.72567 -1.21589 0
M  V30 4747 O 450.347 -1.08745 -2.00965 0
M  V30 4748 C 450.557 -3.42099 0.690614 0
M  V30 4749 C 451.905 -4.19231 0.673105 0
M  V30 4750 O 452.929 -3.50559 0.631389 0
M  V30 4751 O 451.788 -5.41732 0.720362 0
M  V30 4752 H 448.882 -0.823712 0.0736693 0
M  V30 4753 H 451.428 -1.45273 0.87714 0
M  V30 4754 H 450.2 -3.50938 1.73085 0
M  V30 4755 H 449.823 -3.97519 0.0803036 0
M  V30 4756 N 450.82 -0.546701 -1.47814 0
M  V30 4757 C 452.068 -0.0187037 -2.02091 0
M  V30 4758 C 452.389 1.33168 -1.42447 0
M  V30 4759 O 451.659 1.86619 -0.595839 0
M  V30 4760 H 450.239 -0.00392531 -0.74699 0
M  V30 4761 H 452.901 -0.714327 -1.81338 0
M  V30 4762 H 451.997 0.0772219 -3.12004 0
M  V30 4763 N 452.299 1.55045 -0.282633 0
M  V30 4764 C 453.545 2.0078 0.325436 0
M  V30 4765 C 453.9 1.1676 1.52921 0
M  V30 4766 O 453.193 0.231475 1.90197 0
M  V30 4767 C 453.387 3.49422 0.750938 0
M  V30 4768 C 453.216 4.47827 -0.410056 0
M  V30 4769 C 451.986 4.97288 -0.896239 0
M  V30 4770 C 454.184 4.98903 -1.24902 0
M  V30 4771 N 452.166 5.79508 -2.02591 0
M  V30 4772 C 453.537 5.78644 -2.22646 0
M  V30 4773 C 455.592 4.81126 -1.2815 0
M  V30 4774 C 454.295 6.42502 -3.23393 0
M  V30 4775 C 456.321 5.45789 -2.27745 0
M  V30 4776 C 455.683 6.25348 -3.24222 0
M  V30 4777 H 451.782 0.77747 0.08405 0
M  V30 4778 H 454.366 1.90369 -0.408368 0
M  V30 4779 H 452.537 3.60159 1.45395 0
M  V30 4780 H 454.269 3.81978 1.33698 0
M  V30 4781 H 451.024 4.71219 -0.474277 0
M  V30 4782 H 451.448 6.25308 -2.59459 0
M  V30 4783 H 456.09 4.19215 -0.549397 0
M  V30 4784 H 453.808 7.03558 -3.97533 0
M  V30 4785 H 457.394 5.33972 -2.31009 0
M  V30 4786 H 456.274 6.74498 -4.00027 0
M  V30 4787 N 453.777 0.010035 1.57597 0
M  V30 4788 C 454.74 -0.963029 2.07986 0
M  V30 4789 C 455.74 -1.26619 0.991173 0
M  V30 4790 O 456.93 -1.2097 1.25347 0
M  V30 4791 C 454.062 -2.2851 2.52974 0
M  V30 4792 H 455.255 -0.526971 2.95234 0
M  V30 4793 H 452.808 -0.237639 1.54483 0
M  V30 4794 H 453.543 -2.76784 1.69 0
M  V30 4795 H 453.328 -2.07824 3.32493 0
M  V30 4796 H 454.818 -2.98294 2.9225 0
M  V30 4797 N 455.255 -1.55392 -0.262866 0
M  V30 4798 C 456.532 -1.67204 -1.01499 0
M  V30 4799 C 456.912 -0.545186 -2.03939 0
M  V30 4800 O 456.26 0.453467 -2.23955 0
M  V30 4801 C 456.47 -3.06847 -1.6627 0
M  V30 4802 C 457.818 -3.64928 -2.17054 0
M  V30 4803 O 458.842 -3.09545 -1.76239 0
M  V30 4804 O 457.701 -4.61984 -2.91947 0
M  V30 4805 H 454.795 -0.679467 -0.471438 0
M  V30 4806 H 457.341 -1.67729 -0.257918 0
M  V30 4807 H 456.113 -3.80309 -0.920915 0
M  V30 4808 H 455.736 -3.10266 -2.48638 0
M  V30 4809 N 456.733 0.527833 -1.48498 0
M  V30 4810 C 458.149 0.856571 -1.34666 0
M  V30 4811 C 458.349 1.98271 -0.35931 0
M  V30 4812 O 457.405 2.51551 0.218703 0
M  V30 4813 C 458.718 1.22207 -2.74747 0
M  V30 4814 C 460.266 1.33183 -2.83251 0
M  V30 4815 C 460.741 1.73075 -4.24039 0
M  V30 4816 N 462.232 1.80174 -4.26722 0
M  V30 4817 C 462.967 2.1243 -5.32598 0
M  V30 4818 N 462.463 2.43096 -6.4875 0
M  V30 4819 N 464.256 2.13454 -5.19994 0
M  V30 4820 H 456.407 -0.215174 -2.11307 0
M  V30 4821 H 458.67 -0.0336281 -0.947403 0
M  V30 4822 H 458.376 0.468195 -3.4857 0
M  V30 4823 H 458.25 2.17173 -3.08409 0
M  V30 4824 H 460.637 2.07647 -2.09683 0
M  V30 4825 H 460.718 0.363333 -2.53206 0
M  V30 4826 H 460.362 0.991712 -4.98124 0
M  V30 4827 H 460.292 2.70979 -4.51529 0
M  V30 4828 H 462.783 1.58744 -3.42942 0
M  V30 4829 H 463.096 2.6682 -7.25277 0
M  V30 4830 H 461.441 2.40611 -6.52021 0
M  V30 4831 H 464.632 1.88956 -4.28268 0
M  V30 4832 H 464.805 2.38261 -6.02608 0
M  V30 4833 N 458.211 1.37122 0.776871 0
M  V30 4834 C 459.441 1.35034 1.56363 0
M  V30 4835 C 459.849 -0.0674681 1.8908 0
M  V30 4836 O 459.192 -1.03826 1.51545 0
M  V30 4837 C 459.254 2.11894 2.90415 0
M  V30 4838 C 458.918 3.60897 2.80362 0
M  V30 4839 C 459.915 4.54887 2.51742 0
M  V30 4840 C 457.6 4.03951 2.98545 0
M  V30 4841 C 459.594 5.89909 2.41426 0
M  V30 4842 C 457.281 5.3906 2.87849 0
M  V30 4843 C 458.279 6.31852 2.5933 0
M  V30 4844 O 457.967 7.64479 2.48651 0
M  V30 4845 H 457.699 0.464402 0.49123 0
M  V30 4846 H 460.253 1.80992 0.971127 0
M  V30 4847 H 458.483 1.60618 3.51765 0
M  V30 4848 H 460.172 2.02505 3.51776 0
M  V30 4849 H 460.938 4.22934 2.37385 0
M  V30 4850 H 456.817 3.3209 3.19746 0
M  V30 4851 H 460.361 6.62304 2.19086 0
M  V30 4852 H 456.258 5.70617 3.01773 0
M  V30 4853 H 457.026 7.74742 2.64039 0
M  V30 4854 N 459.689 -1.00246 1.21608 0
M  V30 4855 C 460.966 -1.71336 0.943568 0
M  V30 4856 C 461.346 -2.03972 -0.543943 0
M  V30 4857 O 460.694 -1.71545 -1.50946 0
M  V30 4858 C 460.904 -2.97094 1.83128 0
M  V30 4859 C 462.252 -3.70071 2.08165 0
M  V30 4860 O 463.276 -3.07081 1.80498 0
M  V30 4861 O 462.135 -4.83376 2.54971 0
M  V30 4862 H 459.229 -0.747386 0.354039 0
M  V30 4863 H 461.775 -1.05967 1.32549 0
M  V30 4864 H 460.547 -2.69407 2.83788 0
M  V30 4865 H 460.17 -3.70204 1.45034 0
M  V30 4866 N 461.167 -1.02423 -1.1978 0
M  V30 4867 C 462.413 -0.719051 -1.89625 0
M  V30 4868 C 462.746 0.750083 -1.7913 0
M  V30 4869 O 462.021 1.54574 -1.18056 0
M  V30 4870 C 462.304 -1.16499 -3.40735 0
M  V30 4871 C 462.157 -2.695 -3.60125 0
M  V30 4872 C 463.476 -0.742166 -4.33797 0
M  V30 4873 H 460.595 -0.26269 -0.688595 0
M  V30 4874 H 463.237 -1.27333 -1.41018 0
M  V30 4875 H 461.387 -0.69341 -3.82262 0
M  V30 4876 H 463.059 -3.24569 -3.278 0
M  V30 4877 H 461.302 -3.10113 -3.03336 0
M  V30 4878 H 461.973 -2.95757 -4.66081 0
M  V30 4879 H 464.449 -1.1477 -3.99959 0
M  V30 4880 H 463.325 -1.08213 -5.38127 0
M  V30 4881 H 463.586 0.355747 -4.40666 0
M  V30 4882 N 462.645 1.35699 -0.801477 0
M  V30 4883 C 463.873 2.03157 -0.391768 0
M  V30 4884 C 464.288 1.60412 0.995668 0
M  V30 4885 O 463.645 0.799228 1.64069 0
M  V30 4886 C 463.696 3.58566 -0.459671 0
M  V30 4887 O 463.417 3.99756 -1.7924 0
M  V30 4888 C 464.918 4.4328 -0.0421205 0
M  V30 4889 H 462.138 0.651688 -0.159825 0
M  V30 4890 H 464.682 1.73426 -1.08368 0
M  V30 4891 H 462.837 3.86963 0.183939 0
M  V30 4892 H 463.251 4.94387 -1.75162 0
M  V30 4893 H 464.725 5.51821 -0.140754 0
M  V30 4894 H 465.202 4.27383 1.01196 0
M  V30 4895 H 465.808 4.20168 -0.658687 0
M  V30 4896 N 464.123 0.554532 1.47522 0
M  V30 4897 C 465.4 -0.0360704 1.95567 0
M  V30 4898 C 465.78 -1.48828 1.49711 0
M  V30 4899 O 465.128 -2.16366 0.734717 0
M  V30 4900 C 465.338 0.106631 3.48837 0
M  V30 4901 C 466.686 -0.0400899 4.24581 0
M  V30 4902 O 467.71 0.0340453 3.56184 0
M  V30 4903 O 466.569 -0.199111 5.46137 0
M  V30 4904 H 463.663 -0.0656294 0.824392 0
M  V30 4905 H 466.209 0.620867 1.57935 0
M  V30 4906 H 464.981 1.11727 3.7501 0
M  V30 4907 H 464.604 -0.58804 3.93227 0
M  V30 4908 N 465.601 -1.54893 0.290851 0
M  V30 4909 C 466.849 -1.99538 -0.320756 0
M  V30 4910 C 467.17 -1.18075 -1.55188 0
M  V30 4911 O 466.44 -0.274162 -1.93972 0
M  V30 4912 H 465.02 -0.737052 -0.121507 0
M  V30 4913 H 467.682 -1.90755 0.399832 0
M  V30 4914 H 466.778 -3.06282 -0.599802 0
M  V30 4915 N 467.08 -0.0183926 -1.57589 0
M  V30 4916 C 468.31 0.67207 -1.95363 0
M  V30 4917 C 468.718 1.66807 -0.892872 0
M  V30 4918 O 468.061 1.83204 0.134958 0
M  V30 4919 C 468.123 1.44397 -3.29226 0
M  V30 4920 C 467.787 0.607511 -4.52944 0
M  V30 4921 C 468.784 -0.112657 -5.19778 0
M  V30 4922 C 466.469 0.548068 -4.99301 0
M  V30 4923 C 468.463 -0.881057 -6.31281 0
M  V30 4924 C 466.15 -0.224044 -6.10689 0
M  V30 4925 C 467.148 -0.937323 -6.76538 0
M  V30 4926 O 466.836 -1.6968 -7.85789 0
M  V30 4927 H 466.568 0.190925 -0.648478 0
M  V30 4928 H 469.122 -0.0711994 -2.05277 0
M  V30 4929 H 467.352 2.23214 -3.15773 0
M  V30 4930 H 469.041 2.02152 -3.51979 0
M  V30 4931 H 469.807 -0.0759998 -4.8494 0
M  V30 4932 H 465.686 1.09281 -4.4786 0
M  V30 4933 H 469.23 -1.43832 -6.82611 0
M  V30 4934 H 465.127 -0.262457 -6.44966 0
M  V30 4935 H 465.895 -1.61544 -8.024 0
M  V30 4936 N 468.558 1.5553 0.254621 0
M  V30 4937 C 469.49 1.86104 1.33783 0
M  V30 4938 C 470.503 0.746752 1.44663 0
M  V30 4939 O 471.692 1.0248 1.46151 0
M  V30 4940 C 468.792 2.02532 2.71724 0
M  V30 4941 C 467.965 3.33335 2.83208 0
M  V30 4942 C 467.024 3.396 4.01943 0
M  V30 4943 O 466.05 4.12862 3.91834 0
M  V30 4944 N 467.252 2.68332 5.1476 0
M  V30 4945 H 470.017 2.79605 1.07893 0
M  V30 4946 H 467.578 1.55672 0.444732 0
M  V30 4947 H 469.57 2.04074 3.4948 0
M  V30 4948 H 468.14 1.15811 2.90356 0
M  V30 4949 H 467.36 3.44176 1.92189 0
M  V30 4950 H 468.648 4.19565 2.87824 0
M  V30 4951 H 468.046 2.08528 5.25864 0
M  V30 4952 H 466.603 2.75575 5.90679 0
M  V30 4953 N 470.036 -0.519951 1.48776 0
M  V30 4954 C 471.452 -0.849418 1.35119 0
M  V30 4955 C 471.652 -1.98077 0.36982 0
M  V30 4956 O 470.708 -2.51664 -0.205359 0
M  V30 4957 C 472.021 -1.20748 2.75391 0
M  V30 4958 C 473.569 -1.31679 2.83954 0
M  V30 4959 C 474.044 -1.70824 4.24951 0
M  V30 4960 N 475.535 -1.77908 4.27672 0
M  V30 4961 C 476.27 -2.09603 5.33717 0
M  V30 4962 N 475.766 -2.39652 6.5003 0
M  V30 4963 N 477.559 -2.10694 5.21119 0
M  V30 4964 H 469.71 0.226377 2.1119 0
M  V30 4965 H 471.973 0.0386519 0.947212 0
M  V30 4966 H 471.679 -0.449703 3.48813 0
M  V30 4967 H 471.553 -2.15534 3.09556 0
M  V30 4968 H 473.94 -2.06532 2.10781 0
M  V30 4969 H 474.021 -0.3499 2.53396 0
M  V30 4970 H 473.665 -0.965282 4.98643 0
M  V30 4971 H 473.595 -2.6858 4.52959 0
M  V30 4972 H 476.086 -1.56923 3.43779 0
M  V30 4973 H 476.399 -2.6297 7.26682 0
M  V30 4974 H 474.744 -2.37149 6.53288 0
M  V30 4975 H 477.935 -1.86682 4.29264 0
M  V30 4976 H 478.108 -2.35062 6.03863 0
M  V30 4977 N 471.514 -1.37532 -0.769588 0
M  V30 4978 C 472.424 -1.35668 -1.91393 0
M  V30 4979 C 473.44 -0.255954 -1.72107 0
M  V30 4980 O 474.616 -0.491704 -1.95305 0
M  V30 4981 C 471.681 -1.16481 -3.26547 0
M  V30 4982 C 470.742 -2.36212 -3.58472 0
M  V30 4983 C 469.975 -2.17932 -4.87177 0
M  V30 4984 O 470.198 -1.1647 -5.58382 0
M  V30 4985 O 469.132 -3.06167 -5.18214 0
M  V30 4986 H 472.958 -2.32055 -1.95918 0
M  V30 4987 H 470.543 -1.18284 -0.912641 0
M  V30 4988 H 472.425 -1.07778 -4.07384 0
M  V30 4989 H 471.1 -0.231687 -3.2287 0
M  V30 4990 H 470.007 -2.50488 -2.77861 0
M  V30 4991 H 471.34 -3.281 -3.66894 0
M  V30 4992 N 472.992 0.995999 -1.22138 0
M  V30 4993 C 473.955 2.06711 -0.990109 0
M  V30 4994 C 474.955 1.60744 0.0422978 0
M  V30 4995 O 476.145 1.73095 -0.195895 0
M  V30 4996 C 473.277 3.37288 -0.49491 0
M  V30 4997 H 474.47 2.28661 -1.94047 0
M  V30 4998 H 472.023 1.16711 -1.03963 0
M  V30 4999 H 472.758 3.21022 0.459948 0
M  V30 5000 H 472.543 3.71986 -1.23971 0
M  V30 5001 H 474.033 4.16103 -0.353253 0
M  V30 5002 N 474.47 1.03057 1.19235 0
M  V30 5003 C 475.716 0.729098 1.89241 0
M  V30 5004 C 476.049 -0.740573 1.79525 0
M  V30 5005 O 475.324 -1.53946 1.18874 0
M  V30 5006 C 475.607 1.18304 3.40112 0
M  V30 5007 C 475.46 2.71406 3.5869 0
M  V30 5008 C 476.779 0.765161 4.33397 0
M  V30 5009 H 473.898 0.266338 0.687192 0
M  V30 5010 H 476.54 1.28079 1.40341 0
M  V30 5011 H 474.69 0.713672 3.81889 0
M  V30 5012 H 476.362 3.26303 3.26074 0
M  V30 5013 H 474.605 3.11717 3.01687 0
M  V30 5014 H 475.276 2.98225 4.64506 0
M  V30 5015 H 477.752 1.16889 3.99345 0
M  V30 5016 H 476.628 1.11065 5.37546 0
M  V30 5017 H 476.889 -0.332372 4.40849 0
M  V30 5018 N 475.948 -1.35272 0.808662 0
M  V30 5019 C 477.196 -1.98316 0.389233 0
M  V30 5020 C 477.517 -1.64465 -1.04767 0
M  V30 5021 O 476.787 -0.928175 -1.72516 0
M  V30 5022 H 475.367 -0.733585 0.140935 0
M  V30 5023 H 478.029 -1.6515 1.03496 0
M  V30 5024 H 477.125 -3.08123 0.496631 0
M  V30 5025 N 477.426 -0.562348 -1.47226 0
M  V30 5026 C 478.674 -0.0401371 -2.0206 0
M  V30 5027 C 478.995 1.3165 -1.43852 0
M  V30 5028 O 478.265 1.85976 -0.615599 0
M  V30 5029 H 476.845 -0.0118479 -0.746906 0
M  V30 5030 H 479.507 -0.73352 -1.8057 0
M  V30 5031 H 478.603 0.0441254 -3.12069 0
M  V30 5032 N 478.904 1.54736 -0.299062 0
M  V30 5033 C 480.153 1.99279 0.311549 0
M  V30 5034 C 480.466 1.19107 1.55154 0
M  V30 5035 O 481.672 1.53908 2.23662 0
M  V30 5036 C 480.128 3.54768 0.605632 0
M  V30 5037 C 479.736 4.43746 -0.615914 0
M  V30 5038 C 481.48 4.07841 1.17754 0
M  V30 5039 C 479.387 5.90663 -0.29509 0
M  V30 5040 H 478.317 0.744359 0.120187 0
M  V30 5041 H 480.968 1.78919 -0.407464 0
M  V30 5042 H 479.35 3.71021 1.38419 0
M  V30 5043 H 480.524 4.39267 -1.39218 0
M  V30 5044 H 478.839 4.01434 -1.10633 0
M  V30 5045 H 481.436 5.15174 1.43179 0
M  V30 5046 H 481.779 3.58324 2.11918 0
M  V30 5047 H 482.312 3.95123 0.460739 0
M  V30 5048 H 479.051 6.44325 -1.20524 0
M  V30 5049 H 478.571 5.98155 0.44394 0
M  V30 5050 H 480.25 6.46916 0.104048 0
M  V30 5051 N 480.382 0.0267497 1.57577 0
M  V30 5052 C 481.61 -0.662661 1.96001 0
M  V30 5053 C 482.025 -1.65799 0.903117 0
M  V30 5054 O 481.382 -1.82135 -0.115317 0
M  V30 5055 C 481.433 -1.37112 3.34488 0
M  V30 5056 O 481.154 -0.415683 4.36123 0
M  V30 5057 C 482.655 -2.15257 3.8753 0
M  V30 5058 H 479.875 -0.18287 0.6456 0
M  V30 5059 H 482.419 0.0858116 2.0432 0
M  V30 5060 H 480.574 -2.07101 3.27395 0
M  V30 5061 H 480.988 -0.918496 5.16395 0
M  V30 5062 H 482.462 -2.60285 4.86781 0
M  V30 5063 H 482.939 -2.99063 3.21649 0
M  V30 5064 H 483.545 -1.50231 3.97883 0
M  V30 5065 N 481.861 -1.55662 -0.24637 0
M  V30 5066 C 483.11 -1.7672 -0.972254 0
M  V30 5067 C 483.423 -0.59078 -1.86465 0
M  V30 5068 O 484.629 -0.684391 -2.62732 0
M  V30 5069 C 483.085 -3.12869 -1.7788 0
M  V30 5070 C 482.693 -4.38161 -0.933768 0
M  V30 5071 C 484.437 -3.43265 -2.49738 0
M  V30 5072 C 482.344 -5.6534 -1.73623 0
M  V30 5073 H 481.274 -0.658795 -0.366749 0
M  V30 5074 H 483.925 -1.82092 -0.226902 0
M  V30 5075 H 482.307 -3.01606 -2.56612 0
M  V30 5076 H 483.481 -4.60413 -0.188736 0
M  V30 5077 H 481.796 -4.15102 -0.328488 0
M  V30 5078 H 484.393 -4.35501 -3.10231 0
M  V30 5079 H 484.736 -2.64614 -3.2138 0
M  V30 5080 H 485.269 -3.55746 -1.78016 0
M  V30 5081 H 482.008 -6.46814 -1.06354 0
M  V30 5082 H 481.528 -5.47188 -2.45653 0
M  V30 5083 H 483.207 -6.04616 -2.30323 0
M  V30 5084 N 483.339 0.512053 -1.4905 0
M  V30 5085 C 484.286 1.6148 -1.64902 0
M  V30 5086 C 485.256 1.58687 -0.490673 0
M  V30 5087 O 486.441 1.76842 -0.71636 0
M  V30 5088 C 483.581 2.99676 -1.71139 0
M  V30 5089 C 482.694 3.12568 -2.98203 0
M  V30 5090 C 481.829 4.4143 -2.95487 0
M  V30 5091 C 480.868 4.47916 -4.17179 0
M  V30 5092 N 480.005 5.68191 -4.12437 0
M  V30 5093 H 484.845 1.47271 -2.59066 0
M  V30 5094 H 482.382 0.716713 -1.28459 0
M  V30 5095 H 484.34 3.79761 -1.72736 0
M  V30 5096 H 482.97 3.12614 -0.804508 0
M  V30 5097 H 482.022 2.25618 -3.06269 0
M  V30 5098 H 483.334 3.1322 -3.88194 0
M  V30 5099 H 482.488 5.29825 -2.95585 0
M  V30 5100 H 481.227 4.43326 -2.03256 0
M  V30 5101 H 480.232 3.57925 -4.17337 0
M  V30 5102 H 481.457 4.47744 -5.1059 0
M  V30 5103 H 479.403 5.7095 -3.23036 0
M  V30 5104 H 479.32 5.70413 -4.96151 0
M  V30 5105 H 480.588 6.58823 -4.16621 0
M  V30 5106 N 484.817 1.37938 0.762283 0
M  V30 5107 C 485.747 1.37176 1.88958 0
M  V30 5108 C 486.728 0.238945 1.68413 0
M  V30 5109 O 487.913 0.440726 1.89133 0
M  V30 5110 C 485.043 1.18742 3.2637 0
M  V30 5111 C 483.997 2.29136 3.61498 0
M  V30 5112 C 483.323 1.95816 4.97554 0
M  V30 5113 C 484.623 3.71363 3.6727 0
M  V30 5114 H 486.317 2.31509 1.89853 0
M  V30 5115 H 483.863 1.11438 0.912005 0
M  V30 5116 H 485.816 1.16837 4.04879 0
M  V30 5117 H 484.54 0.208683 3.25933 0
M  V30 5118 H 483.199 2.30213 2.85303 0
M  V30 5119 H 482.847 0.964475 4.93667 0
M  V30 5120 H 482.547 2.69745 5.22026 0
M  V30 5121 H 484.071 1.95513 5.78452 0
M  V30 5122 H 485.485 3.72364 4.35911 0
M  V30 5123 H 483.882 4.44425 4.03245 0
M  V30 5124 H 484.952 4.04305 2.67704 0
M  V30 5125 N 486.295 -0.989507 1.22664 0
M  V30 5126 C 487.227 -2.0824 0.957542 0
M  V30 5127 C 488.24 -1.6267 -0.0651098 0
M  V30 5128 O 489.429 -1.77695 0.169312 0
M  V30 5129 C 486.529 -3.36298 0.419145 0
M  V30 5130 C 485.702 -4.10882 1.49982 0
M  V30 5131 C 484.761 -5.17221 0.967904 0
M  V30 5132 O 483.787 -5.44613 1.65487 0
M  V30 5133 N 484.989 -5.80124 -0.20896 0
M  V30 5134 H 487.754 -2.31904 1.89843 0
M  V30 5135 H 485.315 -1.15552 1.13399 0
M  V30 5136 H 487.307 -4.04671 0.0485451 0
M  V30 5137 H 485.877 -3.09671 -0.426937 0
M  V30 5138 H 485.097 -3.37092 2.04359 0
M  V30 5139 H 486.385 -4.57482 2.22682 0
M  V30 5140 H 485.783 -5.60244 -0.783818 0
M  V30 5141 H 484.34 -6.49715 -0.520913 0
M  V30 5142 N 487.773 -1.03688 -1.18687 0
M  V30 5143 C 488.998 -0.757819 -1.93059 0
M  V30 5144 C 489.423 0.678353 -1.75442 0
M  V30 5145 O 488.781 1.46938 -1.06203 0
M  V30 5146 C 488.829 -1.12423 -3.42627 0
M  V30 5147 O 487.933 -0.247505 -4.11657 0
M  V30 5148 H 487.274 -0.279245 -0.602427 0
M  V30 5149 H 489.804 -1.3857 -1.5053 0
M  V30 5150 H 489.814 -1.08454 -3.93322 0
M  V30 5151 H 488.489 -2.17049 -3.54771 0
M  V30 5152 H 487.066 -0.34649 -3.71287 0
M  V30 5153 N 489.251 1.34841 -0.815825 0
M  V30 5154 C 490.662 1.80937 -0.46029 0
M  V30 5155 C 491.013 1.67685 1.01863 0
M  V30 5156 O 490.138 1.21277 1.79223 0
M  V30 5157 C 490.733 3.28509 -0.828708 0
M  V30 5158 C 489.292 3.72712 -0.525644 0
M  V30 5159 C 488.439 2.56676 -1.04941 0
M  V30 5160 H 491.39 1.22688 -1.00664 0
M  V30 5161 H 491.411 3.80279 -0.129757 0
M  V30 5162 H 490.923 3.38122 -1.90513 0
M  V30 5163 H 489.024 3.68642 0.541666 0
M  V30 5164 H 489.137 4.67119 -1.06474 0
M  V30 5165 H 487.501 2.50302 -0.471286 0
M  V30 5166 H 488.284 2.69063 -2.13214 0
M  V30 5167 N 490.729 0.570148 1.46925 0
M  V30 5168 C 492.006 -0.0153259 1.95594 0
M  V30 5169 C 492.386 -1.47232 1.51281 0
M  V30 5170 O 491.734 -2.15574 0.757624 0
M  V30 5171 C 491.944 0.143624 3.48704 0
M  V30 5172 C 493.292 0.00494484 4.246 0
M  V30 5173 O 494.316 0.0718214 3.56128 0
M  V30 5174 O 493.175 -0.141175 5.46318 0
M  V30 5175 H 490.269 -0.0568819 0.825041 0
M  V30 5176 H 492.815 0.637583 1.57267 0
M  V30 5177 H 491.587 1.15699 3.73804 0
M  V30 5178 H 491.21 -0.5463 3.93829 0
M  V30 5179 N 492.207 -1.54576 0.307264 0
M  V30 5180 C 493.453 -2.0056 -0.300612 0
M  V30 5181 C 493.786 -1.1953 -1.53057 0
M  V30 5182 O 493.061 -0.27337 -1.92569 0
M  V30 5183 C 493.344 -3.54167 -0.650987 0
M  V30 5184 C 493.197 -4.45933 0.588539 0
M  V30 5185 C 494.516 -4.14645 -1.47506 0
M  V30 5186 H 491.635 -0.729075 -0.107788 0
M  V30 5187 H 494.277 -1.85286 0.420606 0
M  V30 5188 H 492.427 -3.67313 -1.26544 0
M  V30 5189 H 494.099 -4.44683 1.22697 0
M  V30 5190 H 492.342 -4.16274 1.22058 0
M  V30 5191 H 493.013 -5.51189 0.299153 0
M  V30 5192 H 495.489 -4.04973 -0.955821 0
M  V30 5193 H 494.365 -5.22269 -1.68899 0
M  V30 5194 H 494.626 -3.66921 -2.4662 0
M  V30 5195 N 493.685 -0.035106 -1.57561 0
M  V30 5196 C 494.632 0.94474 -2.10578 0
M  V30 5197 C 495.602 1.3192 -1.00927 0
M  V30 5198 O 496.787 1.41147 -1.28382 0
M  V30 5199 C 493.927 2.21982 -2.64231 0
M  V30 5200 C 493.04 1.90128 -3.87911 0
M  V30 5201 C 492.175 3.11975 -4.29936 0
M  V30 5202 C 491.214 2.75968 -5.46359 0
M  V30 5203 N 490.351 3.90459 -5.83512 0
M  V30 5204 H 495.191 0.485717 -2.94015 0
M  V30 5205 H 492.728 0.228143 -1.4532 0
M  V30 5206 H 494.686 2.96572 -2.9343 0
M  V30 5207 H 493.316 2.6549 -1.83616 0
M  V30 5208 H 492.368 1.05755 -3.65404 0
M  V30 5209 H 493.68 1.59613 -4.72573 0
M  V30 5210 H 492.834 3.9488 -4.60603 0
M  V30 5211 H 491.573 3.45657 -3.44053 0
M  V30 5212 H 490.578 1.91478 -5.1538 0
M  V30 5213 H 491.803 2.43497 -6.33945 0
M  V30 5214 H 489.749 4.23971 -5.00584 0
M  V30 5215 H 489.666 3.63588 -6.62827 0
M  V30 5216 H 490.934 4.7405 -6.18787 0
M  V30 5217 N 495.163 1.55791 0.238111 0
M  V30 5218 C 496.409 1.79211 0.962035 0
M  V30 5219 C 496.764 0.605463 1.82625 0
M  V30 5220 O 496.057 -0.40104 1.87356 0
M  V30 5221 C 496.251 3.05869 1.84875 0
M  V30 5222 C 496.08 4.36739 1.07186 0
M  V30 5223 C 494.85 4.99346 0.773424 0
M  V30 5224 C 497.048 5.1237 0.445168 0
M  V30 5225 N 495.03 6.13894 -0.0266037 0
M  V30 5226 C 496.401 6.19613 -0.219023 0
M  V30 5227 C 498.456 4.96622 0.356522 0
M  V30 5228 C 497.159 7.1282 -0.963358 0
M  V30 5229 C 499.185 5.90214 -0.374304 0
M  V30 5230 C 498.547 6.96872 -1.0271 0
M  V30 5231 H 494.646 0.707627 0.332849 0
M  V30 5232 H 497.23 1.93284 0.234368 0
M  V30 5233 H 495.401 2.93108 2.54837 0
M  V30 5234 H 497.133 3.17547 2.5089 0
M  V30 5235 H 493.888 4.60948 1.08738 0
M  V30 5236 H 494.312 6.75727 -0.414968 0
M  V30 5237 H 498.954 4.14232 0.846878 0
M  V30 5238 H 496.672 7.94704 -1.46529 0
M  V30 5239 H 500.258 5.80106 -0.443678 0
M  V30 5240 H 499.138 7.68045 -1.58358 0
M  V30 5241 N 496.642 -0.504142 1.49319 0
M  V30 5242 C 497.889 -1.25846 1.58647 0
M  V30 5243 C 498.217 -1.92592 0.27177 0
M  V30 5244 O 497.472 -1.81167 -0.74007 0
M  V30 5245 C 497.771 -2.35021 2.69258 0
M  V30 5246 C 497.437 -1.85755 4.1086 0
M  V30 5247 C 496.099 -1.72038 4.49395 0
M  V30 5248 C 498.451 -1.48844 4.99495 0
M  V30 5249 C 495.779 -1.19783 5.74342 0
M  V30 5250 C 498.131 -0.980422 6.24956 0
M  V30 5251 C 496.795 -0.829622 6.62324 0
M  V30 5252 H 496.065 -0.460505 0.580531 0
M  V30 5253 H 498.712 -0.559716 1.83138 0
M  V30 5254 H 497.017 -3.10672 2.38726 0
M  V30 5255 H 498.714 -2.93083 2.73685 0
M  V30 5256 H 495.304 -1.9739 3.80441 0
M  V30 5257 H 499.488 -1.5829 4.70381 0
M  V30 5258 H 494.744 -1.06817 6.01997 0
M  V30 5259 H 498.918 -0.685608 6.93017 0
M  V30 5260 H 496.545 -0.42253 7.59025 0
M  V30 5261 N 498.12 -1.38341 -0.754957 0
M  V30 5262 C 499.397 -1.24995 -1.50451 0
M  V30 5263 C 499.777 0.149244 -2.10572 0
M  V30 5264 O 499.125 1.15861 -1.96948 0
M  V30 5265 C 499.335 -2.35904 -2.57197 0
M  V30 5266 C 500.683 -2.74262 -3.24138 0
M  V30 5267 O 501.707 -2.35205 -2.67501 0
M  V30 5268 O 500.566 -3.4161 -4.26574 0
M  V30 5269 H 497.66 -0.48872 -0.667144 0
M  V30 5270 H 500.206 -1.50165 -0.790486 0
M  V30 5271 H 498.978 -3.2953 -2.11011 0
M  V30 5272 H 498.601 -2.12291 -3.36182 0
M  V30 5273 N 499.598 0.982988 -1.23187 0
M  V30 5274 C 500.875 1.69814 -0.970707 0
M  V30 5275 C 501.255 2.04811 0.511424 0
M  V30 5276 O 500.603 1.73924 1.48198 0
M  V30 5277 C 500.813 2.94143 -1.87831 0
M  V30 5278 C 502.161 3.66712 -2.14026 0
M  V30 5279 O 503.185 3.04171 -1.8536 0
M  V30 5280 O 502.044 4.79258 -2.62629 0
M  V30 5281 H 499.138 0.741659 -0.365884 0
M  V30 5282 H 501.684 1.03844 -1.34218 0
M  V30 5283 H 500.456 2.64858 -2.88038 0
M  V30 5284 H 500.079 3.6785 -1.50905 0
M  V30 5285 N 501.076 1.04316 1.18135 0
M  V30 5286 C 502.306 0.767003 1.91835 0
M  V30 5287 C 502.714 -0.68002 1.76557 0
M  V30 5288 O 502.057 -1.47548 1.09432 0
M  V30 5289 C 502.119 1.05674 3.43618 0
M  V30 5290 C 501.783 2.49818 3.82675 0
M  V30 5291 C 502.78 3.48003 3.86251 0
M  V30 5292 C 500.465 2.84596 4.13897 0
M  V30 5293 C 502.459 4.79016 4.20503 0
M  V30 5294 C 500.146 4.15813 4.4782 0
M  V30 5295 C 501.144 5.12834 4.51099 0
M  V30 5296 O 500.832 6.41699 4.84229 0
M  V30 5297 H 500.564 0.278948 0.615763 0
M  V30 5298 H 503.118 1.3946 1.50798 0
M  V30 5299 H 501.348 0.372029 3.84906 0
M  V30 5300 H 503.037 0.767994 3.98568 0
M  V30 5301 H 503.803 3.22475 3.62264 0
M  V30 5302 H 499.682 2.09748 4.1052 0
M  V30 5303 H 503.226 5.54739 4.22978 0
M  V30 5304 H 499.123 4.41109 4.71268 0
M  V30 5305 H 499.891 6.46387 5.02121 0
M  V30 5306 N 502.554 -1.34406 0.822964 0
M  V30 5307 C 503.784 -2.02214 0.423424 0
M  V30 5308 C 504.192 -1.62124 -0.975322 0
M  V30 5309 O 503.535 -0.822452 -1.6426 0
M  V30 5310 C 503.597 -3.56721 0.446107 0
M  V30 5311 C 503.261 -4.20136 1.79819 0
M  V30 5312 C 504.258 -4.4065 2.75904 0
M  V30 5313 C 501.943 -4.56906 2.08669 0
M  V30 5314 C 503.937 -4.9706 3.99012 0
M  V30 5315 C 501.624 -5.13026 3.32036 0
M  V30 5316 C 502.622 -5.33047 4.27024 0
M  V30 5317 O 502.31 -5.87979 5.48211 0
M  V30 5318 H 502.042 -0.654748 0.168169 0
M  V30 5319 H 504.596 -1.72659 1.11257 0
M  V30 5320 H 502.826 -3.85537 -0.299734 0
M  V30 5321 H 504.515 -4.05845 0.0666114 0
M  V30 5322 H 505.281 -4.12607 2.54912 0
M  V30 5323 H 501.16 -4.40626 1.35535 0
M  V30 5324 H 504.704 -5.12603 4.73164 0
M  V30 5325 H 500.601 -5.40498 3.52891 0
M  V30 5326 H 501.369 -6.06413 5.49732 0
M  V30 5327 N 504.032 -0.577932 -1.46621 0
M  V30 5328 C 504.962 0.145917 -2.33044 0
M  V30 5329 C 505.943 0.888412 -1.45056 0
M  V30 5330 O 507.128 0.864812 -1.73881 0
M  V30 5331 C 504.258 1.16322 -3.27241 0
M  V30 5332 C 503.212 0.535868 -4.24632 0
M  V30 5333 C 502.538 1.65929 -5.08303 0
M  V30 5334 C 503.838 -0.523861 -5.19666 0
M  V30 5335 H 505.532 -0.575636 -2.93814 0
M  V30 5336 H 503.078 -0.278272 -1.41286 0
M  V30 5337 H 505.031 1.67793 -3.86553 0
M  V30 5338 H 503.755 1.91498 -2.64567 0
M  V30 5339 H 502.414 0.0422759 -3.66576 0
M  V30 5340 H 502.062 2.40061 -4.42018 0
M  V30 5341 H 501.762 1.2452 -5.74255 0
M  V30 5342 H 503.286 2.17686 -5.70478 0
M  V30 5343 H 504.7 -0.0944059 -5.73222 0
M  V30 5344 H 503.097 -0.858 -5.93935 0
M  V30 5345 H 504.167 -1.41197 -4.63887 0
M  V30 5346 N 505.51 1.54411 -0.315457 0
M  V30 5347 C 506.457 2.24048 0.554166 0
M  V30 5348 C 507.427 1.2283 1.11812 0
M  V30 5349 O 508.612 1.51491 1.15997 0
M  V30 5350 C 505.752 2.99574 1.71316 0
M  V30 5351 C 504.865 4.15594 1.17922 0
M  V30 5352 C 504 4.78669 2.30324 0
M  V30 5353 C 503.039 5.86807 1.74137 0
M  V30 5354 N 502.176 6.43777 2.8017 0
M  V30 5355 H 507.016 2.97964 -0.0462602 0
M  V30 5356 H 504.553 1.47059 -0.0346009 0
M  V30 5357 H 506.511 3.41604 2.39505 0
M  V30 5358 H 505.141 2.28008 2.285 0
M  V30 5359 H 504.193 3.78404 0.389136 0
M  V30 5360 H 505.505 4.93459 0.728012 0
M  V30 5361 H 504.659 5.23626 3.06433 0
M  V30 5362 H 503.398 4.00168 2.78778 0
M  V30 5363 H 502.403 5.41261 0.965236 0
M  V30 5364 H 503.628 6.67201 1.2657 0
M  V30 5365 H 501.574 5.68153 3.2793 0
M  V30 5366 H 501.491 7.17031 2.39588 0
M  V30 5367 H 502.759 6.9339 3.56132 0
M  V30 5368 N 506.988 0.0434614 1.5754 0
M  V30 5369 C 507.918 -0.931651 2.14109 0
M  V30 5370 C 508.899 -1.32971 1.06079 0
M  V30 5371 O 510.084 -1.40579 1.33982 0
M  V30 5372 C 507.214 -2.20914 2.67982 0
M  V30 5373 C 506.168 -1.95139 3.80926 0
M  V30 5374 C 505.494 -3.29276 4.21285 0
M  V30 5375 C 506.794 -1.27913 5.06395 0
M  V30 5376 H 508.488 -0.460497 2.95837 0
M  V30 5377 H 506.034 -0.220058 1.42309 0
M  V30 5378 H 507.987 -2.89522 3.06194 0
M  V30 5379 H 506.711 -2.70221 1.83434 0
M  V30 5380 H 505.37 -1.28945 3.43175 0
M  V30 5381 H 505.018 -3.76369 3.33699 0
M  V30 5382 H 504.718 -3.12831 4.97404 0
M  V30 5383 H 506.242 -3.99129 4.62091 0
M  V30 5384 H 507.656 -1.86544 5.42102 0
M  V30 5385 H 506.053 -1.2182 5.87605 0
M  V30 5386 H 507.123 -0.254066 4.84234 0
M  V30 5387 N 508.466 -1.55915 -0.229846 0
M  V30 5388 C 509.882 -1.48721 -0.579166 0
M  V30 5389 C 510.082 -0.736976 -1.87539 0
M  V30 5390 O 509.138 -0.273258 -2.51017 0
M  V30 5391 C 510.451 -2.9323 -0.666082 0
M  V30 5392 C 511.999 -3.03701 -0.757267 0
M  V30 5393 C 512.474 -4.49552 -0.8756 0
M  V30 5394 N 513.965 -4.53561 -0.940035 0
M  V30 5395 C 514.7 -5.63683 -1.05116 0
M  V30 5396 N 514.196 -6.83576 -1.12675 0
M  V30 5397 N 515.989 -5.51516 -1.08565 0
M  V30 5398 H 508.14 -2.03123 0.620857 0
M  V30 5399 H 510.403 -0.922898 0.21671 0
M  V30 5400 H 510.109 -3.51032 0.21664 0
M  V30 5401 H 509.983 -3.44668 -1.53243 0
M  V30 5402 H 512.37 -2.45969 -1.63043 0
M  V30 5403 H 512.451 -2.55446 0.134583 0
M  V30 5404 H 512.095 -5.079 -0.00692351 0
M  V30 5405 H 512.025 -4.95506 -1.78274 0
M  V30 5406 H 514.516 -3.67215 -0.892269 0
M  V30 5407 H 514.829 -7.63251 -1.21109 0
M  V30 5408 H 513.174 -6.86303 -1.09603 0
M  V30 5409 H 516.365 -4.5678 -1.02319 0
M  V30 5410 H 516.538 -6.37372 -1.1688 0
M  V30 5411 N 509.944 0.496216 -1.49584 0
M  V30 5412 C 511.355 1.07765 -1.52459 0
M  V30 5413 C 511.706 1.93679 -0.31353 0
M  V30 5414 O 510.831 2.08588 0.576186 0
M  V30 5415 C 511.426 1.96111 -2.76271 0
M  V30 5416 C 509.985 2.49409 -2.81908 0
M  V30 5417 C 509.132 1.27142 -2.46435 0
M  V30 5418 H 512.083 0.279914 -1.56212 0
M  V30 5419 H 512.104 2.80862 -2.56704 0
M  V30 5420 H 511.616 1.33555 -3.64396 0
M  V30 5421 H 509.717 3.1559 -1.98074 0
M  V30 5422 H 509.83 2.86234 -3.84196 0
M  V30 5423 H 508.194 1.59818 -1.98319 0
M  V30 5424 H 508.977 0.662866 -3.3684 0
M  V30 5425 N 511.423 1.38739 0.74761 0
M  V30 5426 C 512.333 1.38696 1.89211 0
M  V30 5427 C 513.349 0.283303 1.71678 0
M  V30 5428 O 514.525 0.522713 1.94498 0
M  V30 5429 C 511.59 1.21662 3.24653 0
M  V30 5430 C 510.651 2.41886 3.54669 0
M  V30 5431 C 509.884 2.25655 4.83648 0
M  V30 5432 O 510.107 1.25339 5.56459 0
M  V30 5433 O 509.041 3.14372 5.13277 0
M  V30 5434 H 512.867 2.35143 1.92202 0
M  V30 5435 H 510.452 1.19721 0.893708 0
M  V30 5436 H 512.334 1.14246 4.05618 0
M  V30 5437 H 511.009 0.283024 3.2246 0
M  V30 5438 H 509.916 2.54877 2.73841 0
M  V30 5439 H 511.249 3.33895 3.61628 0
M  V30 5440 N 512.901 -0.976442 1.23707 0
M  V30 5441 C 514.129 -1.75341 1.09833 0
M  V30 5442 C 514.544 -1.8553 -0.349885 0
M  V30 5443 O 513.901 -1.33732 -1.24185 0
M  V30 5444 C 513.952 -3.17833 1.72233 0
M  V30 5445 O 513.673 -3.08167 3.11391 0
M  V30 5446 C 515.174 -4.11906 1.63853 0
M  V30 5447 H 512.394 -0.550137 0.384175 0
M  V30 5448 H 514.938 -1.2265 1.63638 0
M  V30 5449 H 513.093 -3.67538 1.22452 0
M  V30 5450 H 513.507 -3.97897 3.41729 0
M  V30 5451 H 514.981 -5.09579 2.12211 0
M  V30 5452 H 515.458 -4.35109 0.598092 0
M  V30 5453 H 516.064 -3.68107 2.13019 0
M  V30 5454 N 514.379 -1.04941 -1.1758 0
M  V30 5455 C 515.327 -0.64204 -2.23563 0
M  V30 5456 C 516.321 0.335453 -1.66045 0
M  V30 5457 O 517.527 0.20179 -1.78865 0
M  V30 5458 H 513.902 -0.18944 -0.727748 0
M  V30 5459 H 515.873 -1.54609 -2.55223 0
M  V30 5460 C 514.622 -0.0301051 -3.47687 0
M  V30 5461 H 513.945 -0.773339 -3.92249 0
M  V30 5462 H 515.385 0.217592 -4.23441 0
M  V30 5463 C 513.844 1.2225 -3.13937 0
M  V30 5464 O 514.374 2.3122 -3.28482 0
M  V30 5465 N 512.58 1.11917 -2.68185 0
M  V30 5466 H 512.127 0.232403 -2.5655 0
M  V30 5467 H 512.085 1.95814 -2.45976 0
M  V30 5468 N 515.857 1.33968 -0.830081 0
M  V30 5469 C 516.807 2.26845 -0.229242 0
M  V30 5470 C 517.791 1.48862 0.610659 0
M  V30 5471 O 518.983 1.70808 0.464067 0
M  V30 5472 C 516.112 3.3798 0.602057 0
M  V30 5473 C 515.198 4.23369 -0.248866 0
M  V30 5474 N 515.589 4.88182 -1.32334 0
M  V30 5475 C 513.887 4.45987 -0.0344077 0
M  V30 5476 C 514.588 5.51671 -1.84482 0
M  V30 5477 N 513.564 5.31348 -1.14762 0
M  V30 5478 H 517.366 2.74464 -1.05104 0
M  V30 5479 H 514.88 1.4777 -0.673623 0
M  V30 5480 H 516.877 4.03494 1.04873 0
M  V30 5481 H 515.537 2.9191 1.42193 0
M  V30 5482 H 516.548 4.88988 -1.70619 0
M  V30 5483 H 513.225 4.10658 0.752727 0
M  V30 5484 H 514.615 6.13308 -2.74413 0
M  V30 5485 N 517.335 0.585699 1.46312 0
M  V30 5486 C 518.751 0.247607 1.57668 0
M  V30 5487 C 518.951 -1.25007 1.58037 0
M  V30 5488 O 518.007 -2.03196 1.49893 0
M  V30 5489 C 519.32 0.899456 2.86933 0
M  V30 5490 C 520.868 0.873326 3.00569 0
M  V30 5491 C 521.343 1.50477 4.32574 0
M  V30 5492 N 522.834 1.46925 4.3928 0
M  V30 5493 C 523.569 1.92719 5.40044 0
M  V30 5494 N 523.065 2.46499 6.47464 0
M  V30 5495 N 524.858 1.83617 5.31264 0
M  V30 5496 H 517.009 1.55841 1.44317 0
M  V30 5497 H 519.272 0.651564 0.688599 0
M  V30 5498 H 518.978 1.95313 2.92482 0
M  V30 5499 H 518.852 0.409476 3.74971 0
M  V30 5500 H 521.239 -0.171736 2.946 0
M  V30 5501 H 521.32 1.40136 2.13999 0
M  V30 5502 H 520.964 2.54905 4.39302 0
M  V30 5503 H 520.894 0.951944 5.17924 0
M  V30 5504 H 523.385 1.07616 3.62253 0
M  V30 5505 H 523.698 2.79291 7.20567 0
M  V30 5506 H 522.043 2.50526 6.48276 0
M  V30 5507 H 525.234 1.41358 4.46246 0
M  V30 5508 H 525.407 2.19622 6.09648 0
M  V30 5509 N 518.813 -1.54241 0.323641 0
M  V30 5510 C 519.761 -2.25813 -0.557804 0
M  V30 5511 C 520.755 -1.27225 -1.11849 0
M  V30 5512 O 521.961 -1.45001 -1.06652 0
M  V30 5513 H 518.336 -0.72532 -0.198532 0
M  V30 5514 H 520.307 -2.98322 0.0681112 0
M  V30 5515 C 519.056 -3.02913 -1.70701 0
M  V30 5516 H 518.379 -3.78593 -1.28482 0
M  V30 5517 H 519.819 -3.56238 -2.29935 0
M  V30 5518 C 518.278 -2.11217 -2.62467 0
M  V30 5519 O 518.808 -1.69508 -3.64184 0
M  V30 5520 N 517.014 -1.76704 -2.30703 0
M  V30 5521 H 516.561 -2.1082 -1.48029 0
M  V30 5522 H 516.519 -1.15631 -2.92364 0
M  V30 5523 N 520.291 -0.0518155 -1.57515 0
M  V30 5524 C 521.702 0.483787 -1.80323 0
M  V30 5525 C 522.053 1.70879 -0.964099 0
M  V30 5526 O 521.178 2.15643 -0.180872 0
M  V30 5527 C 521.773 0.884459 -3.27052 0
M  V30 5528 C 520.332 1.36504 -3.50776 0
M  V30 5529 C 519.479 0.340539 -2.75201 0
M  V30 5530 H 522.43 -0.277691 -1.56252 0
M  V30 5531 H 522.451 1.74733 -3.38007 0
M  V30 5532 H 521.963 -0.00731093 -3.88099 0
M  V30 5533 H 520.064 2.27598 -2.95009 0
M  V30 5534 H 520.177 1.35675 -4.59488 0
M  V30 5535 H 518.541 0.81356 -2.41357 0
M  V30 5536 H 519.324 -0.543156 -3.38976 0
M  V30 5537 N 521.769 1.56035 0.221574 0
M  V30 5538 C 523.015 1.80221 0.942973 0
M  V30 5539 C 523.37 0.624799 1.81973 0
M  V30 5540 O 522.663 -0.381145 1.87771 0
M  V30 5541 C 522.857 3.07813 1.8162 0
M  V30 5542 C 522.686 4.37852 1.02548 0
M  V30 5543 C 521.456 5.00138 0.720418 0
M  V30 5544 C 523.654 5.12813 0.390799 0
M  V30 5545 N 521.636 6.13831 -0.0917139 0
M  V30 5546 C 523.007 6.19346 -0.284728 0
M  V30 5547 C 525.062 4.96972 0.303828 0
M  V30 5548 C 523.765 7.11758 -1.03891 0
M  V30 5549 C 525.791 5.89784 -0.436883 0
M  V30 5550 C 525.153 6.95743 -1.10095 0
M  V30 5551 H 521.252 0.711117 0.325325 0
M  V30 5552 H 523.836 1.93522 0.213854 0
M  V30 5553 H 522.007 2.95795 2.51714 0
M  V30 5554 H 523.739 3.20191 2.47508 0
M  V30 5555 H 520.494 4.62075 1.03843 0
M  V30 5556 H 520.918 6.75249 -0.486615 0
M  V30 5557 H 525.56 4.15107 0.802896 0
M  V30 5558 H 523.278 7.93105 -1.54949 0
M  V30 5559 H 526.864 5.79603 -0.505181 0
M  V30 5560 H 525.744 7.66322 -1.66495 0
M  V30 5561 N 523.247 -0.488276 1.49845 0
M  V30 5562 C 524.494 -1.24157 1.59973 0
M  V30 5563 C 524.822 -1.92293 0.292182 0
M  V30 5564 O 524.077 -1.81942 -0.720813 0
M  V30 5565 C 524.376 -2.32152 2.71735 0
M  V30 5566 C 524.042 -1.81387 4.12807 0
M  V30 5567 C 522.704 -1.67262 4.51195 0
M  V30 5568 C 525.056 -1.43537 5.01045 0
M  V30 5569 C 522.384 -1.13685 5.7558 0
M  V30 5570 C 524.736 -0.914081 6.25961 0
M  V30 5571 C 523.4 -0.759327 6.63167 0
M  V30 5572 H 522.67 -0.454322 0.585383 0
M  V30 5573 H 525.317 -0.540261 1.83721 0
M  V30 5574 H 523.622 -3.08122 2.42008 0
M  V30 5575 H 525.319 -2.90164 2.76778 0
M  V30 5576 H 521.909 -1.93344 3.82513 0
M  V30 5577 H 526.093 -1.53292 4.72033 0
M  V30 5578 H 521.349 -1.00426 6.03096 0
M  V30 5579 H 525.523 -0.612066 6.93705 0
M  V30 5580 H 523.15 -0.342002 7.5943 0
M  V30 5581 N 524.725 -1.39134 -0.740242 0
M  V30 5582 C 525.657 -1.33332 -1.86428 0
M  V30 5583 C 526.67 -0.243042 -1.60976 0
M  V30 5584 O 527.859 -0.501608 -1.71307 0
M  V30 5585 C 524.959 -1.04626 -3.22346 0
M  V30 5586 C 524.132 -2.24826 -3.75196 0
M  V30 5587 C 523.191 -1.92659 -4.89662 0
M  V30 5588 O 522.217 -2.6529 -5.03597 0
M  V30 5589 N 523.419 -0.889575 -5.73643 0
M  V30 5590 H 526.184 -2.30196 -1.91911 0
M  V30 5591 H 523.745 -1.33168 -0.920756 0
M  V30 5592 H 525.737 -0.811347 -3.96484 0
M  V30 5593 H 524.307 -0.165129 -3.12164 0
M  V30 5594 H 523.527 -2.64301 -2.9247 0
M  V30 5595 H 524.815 -3.05015 -4.07239 0
M  V30 5596 H 524.213 -0.287529 -5.64969 0
M  V30 5597 H 522.77 -0.714557 -6.47871 0
M  V30 5598 N 526.204 0.969867 -1.24223 0
M  V30 5599 C 527.114 2.09806 -1.0497 0
M  V30 5600 C 528.13 1.73998 0.00886455 0
M  V30 5601 O 529.306 2.00513 -0.188848 0
M  V30 5602 C 526.371 3.40467 -0.654452 0
M  V30 5603 C 525.432 3.90236 -1.78926 0
M  V30 5604 C 524.665 5.14662 -1.41277 0
M  V30 5605 O 524.888 5.69602 -0.301632 0
M  V30 5606 O 523.822 5.58761 -2.23763 0
M  V30 5607 H 527.648 2.28942 -1.99548 0
M  V30 5608 H 525.233 1.08197 -1.03023 0
M  V30 5609 H 527.115 4.19039 -0.445452 0
M  V30 5610 H 525.79 3.22636 0.262216 0
M  V30 5611 H 524.697 3.12735 -2.05299 0
M  V30 5612 H 526.03 4.1254 -2.68462 0
M  V30 5613 N 527.682 1.05563 1.17022 0
M  V30 5614 C 528.929 0.767937 1.87374 0
M  V30 5615 C 529.257 -0.705224 1.81265 0
M  V30 5616 O 528.512 -1.5318 1.21796 0
M  V30 5617 C 528.811 1.19849 3.36706 0
M  V30 5618 C 528.477 2.6745 3.63017 0
M  V30 5619 C 527.139 3.0777 3.69907 0
M  V30 5620 C 529.491 3.62811 3.74189 0
M  V30 5621 C 526.819 4.42307 3.85463 0
M  V30 5622 C 529.171 4.97087 3.91264 0
M  V30 5623 C 527.835 5.37055 3.96394 0
M  V30 5624 H 527.105 0.281008 0.68565 0
M  V30 5625 H 529.752 1.32339 1.38415 0
M  V30 5626 H 528.057 0.562096 3.87747 0
M  V30 5627 H 529.754 0.953038 3.8951 0
M  V30 5628 H 526.344 2.35228 3.58282 0
M  V30 5629 H 530.528 3.32798 3.68183 0
M  V30 5630 H 525.784 4.72769 3.87684 0
M  V30 5631 H 529.958 5.70869 3.9885 0
M  V30 5632 H 527.585 6.41308 4.082 0
M  V30 5633 N 529.16 -1.33526 0.837174 0
M  V30 5634 C 530.406 -1.98541 0.44193 0
M  V30 5635 C 530.761 -1.65124 -0.987517 0
M  V30 5636 O 530.054 -0.919948 -1.6807 0
M  V30 5637 C 530.248 -3.52367 0.597675 0
M  V30 5638 C 530.077 -4.00731 2.04071 0
M  V30 5639 C 528.847 -4.28649 2.67559 0
M  V30 5640 C 531.045 -4.17073 3.00923 0
M  V30 5641 N 529.027 -4.63142 4.02955 0
M  V30 5642 C 530.398 -4.54905 4.21261 0
M  V30 5643 C 532.453 -3.99358 2.97351 0
M  V30 5644 C 531.156 -4.76874 5.38501 0
M  V30 5645 C 533.182 -4.22501 4.1382 0
M  V30 5646 C 532.544 -4.60634 5.32912 0
M  V30 5647 H 528.643 -0.753246 0.210105 0
M  V30 5648 H 531.227 -1.61674 1.08488 0
M  V30 5649 H 529.398 -3.88397 -0.0154658 0
M  V30 5650 H 531.13 -4.04326 0.17404 0
M  V30 5651 H 527.885 -4.20077 2.18706 0
M  V30 5652 H 528.309 -4.84601 4.72748 0
M  V30 5653 H 532.951 -3.68993 2.06408 0
M  V30 5654 H 530.669 -5.06101 6.2999 0
M  V30 5655 H 534.255 -4.10316 4.12471 0
M  V30 5656 H 533.135 -4.78187 6.21536 0
M  V30 5657 N 530.638 -0.59345 -1.46 0
M  V30 5658 C 531.57 0.171569 -2.28557 0
M  V30 5659 C 532.583 0.845273 -1.39137 0
M  V30 5660 O 533.772 0.713033 -1.6364 0
M  V30 5661 C 530.872 1.26311 -3.14482 0
M  V30 5662 C 530.045 0.679258 -4.32094 0
M  V30 5663 C 529.104 1.65987 -4.99334 0
M  V30 5664 O 528.13 1.19171 -5.56585 0
M  V30 5665 N 529.332 2.99414 -4.97324 0
M  V30 5666 H 532.097 -0.536771 -2.94854 0
M  V30 5667 H 529.658 -0.431954 -1.56031 0
M  V30 5668 H 531.65 1.91863 -3.5633 0
M  V30 5669 H 530.22 1.87416 -2.50188 0
M  V30 5670 H 529.44 -0.153992 -3.93899 0
M  V30 5671 H 530.728 0.26916 -5.08088 0
M  V30 5672 H 530.126 3.40064 -4.52076 0
M  V30 5673 H 528.683 3.60426 -5.4308 0
M  V30 5674 N 532.116 1.54067 -0.331816 0
M  V30 5675 C 533.066 2.21363 0.546101 0
M  V30 5676 C 534.05 1.19698 1.07523 0
M  V30 5677 O 535.242 1.45293 1.01088 0
M  V30 5678 C 532.371 2.98115 1.70242 0
M  V30 5679 C 531.457 4.07127 1.18779 0
M  V30 5680 N 531.848 5.04267 0.393465 0
M  V30 5681 C 530.146 4.21226 1.46576 0
M  V30 5682 C 530.847 5.81585 0.115572 0
M  V30 5683 N 529.823 5.39022 0.703987 0
M  V30 5684 H 533.625 2.93821 -0.0679751 0
M  V30 5685 H 531.139 1.61812 -0.138085 0
M  V30 5686 H 533.136 3.44818 2.34321 0
M  V30 5687 H 531.796 2.27181 2.31989 0
M  V30 5688 H 532.807 5.17888 0.0355757 0
M  V30 5689 H 529.484 3.61509 2.08848 0
M  V30 5690 H 530.874 6.6985 -0.524426 0
M  V30 5691 N 533.594 0.0601682 1.57485 0
M  V30 5692 C 535.01 -0.296422 1.56823 0
M  V30 5693 C 535.21 -1.70831 1.0686 0
M  V30 5694 O 534.266 -2.4174 0.729245 0
M  V30 5695 C 535.579 -0.116681 3.00474 0
M  V30 5696 C 537.127 -0.187103 3.1244 0
M  V30 5697 C 537.602 -0.035783 4.57986 0
M  V30 5698 N 539.093 -0.0917676 4.63109 0
M  V30 5699 C 539.828 0.00107251 5.734 0
M  V30 5700 N 539.324 0.146773 6.92645 0
M  V30 5701 N 541.117 -0.0551577 5.62073 0
M  V30 5702 H 533.268 0.983055 1.88281 0
M  V30 5703 H 535.531 0.382386 0.867459 0
M  V30 5704 H 535.237 0.85712 3.41096 0
M  V30 5705 H 535.111 -0.873929 3.66936 0
M  V30 5706 H 537.498 -1.15138 2.71712 0
M  V30 5707 H 537.579 0.601052 2.48638 0
M  V30 5708 H 537.223 0.925212 4.99402 0
M  V30 5709 H 537.153 -0.843196 5.19806 0
M  V30 5710 H 539.644 -0.203261 3.77353 0
M  V30 5711 H 539.957 0.210076 7.72514 0
M  V30 5712 H 538.302 0.181979 6.94762 0
M  V30 5713 H 541.493 -0.167605 4.678 0
M  V30 5714 H 541.666 0.020652 6.47997 0
M  V30 5715 N 535.072 -1.5615 -0.213296 0
M  V30 5716 C 536.319 -1.79546 -0.936462 0
M  V30 5717 C 536.647 -0.630337 -1.84003 0
M  V30 5718 O 535.902 0.384883 -1.91878 0
M  V30 5719 C 536.201 -3.08772 -1.79985 0
M  V30 5720 C 535.867 -4.38532 -1.04882 0
M  V30 5721 C 534.529 -4.73787 -0.841393 0
M  V30 5722 C 536.881 -5.18609 -0.51907 0
M  V30 5723 C 534.209 -5.86627 -0.0924403 0
M  V30 5724 C 536.561 -6.32229 0.216581 0
M  V30 5725 C 535.225 -6.6608 0.435191 0
M  V30 5726 H 534.495 -0.657004 -0.342676 0
M  V30 5727 H 537.142 -1.9041 -0.204051 0
M  V30 5728 H 535.447 -2.93065 -2.60038 0
M  V30 5729 H 537.144 -3.24077 -2.36168 0
M  V30 5730 H 533.734 -4.10855 -1.22048 0
M  V30 5731 H 537.918 -4.91801 -0.666775 0
M  V30 5732 H 533.174 -6.11338 0.087081 0
M  V30 5733 H 537.348 -6.93503 0.634538 0
M  V30 5734 H 534.975 -7.5336 1.01746 0
M  V30 5735 N 536.55 0.480323 -1.50102 0
M  V30 5736 C 537.482 1.59669 -1.64433 0
M  V30 5737 C 538.495 1.54063 -0.52615 0
M  V30 5738 O 539.684 1.59619 -0.798992 0
M  V30 5739 C 536.784 2.98527 -1.6042 0
M  V30 5740 C 535.957 3.291 -2.88117 0
M  V30 5741 C 535.016 4.47468 -2.76873 0
M  V30 5742 O 534.042 4.4823 -3.50825 0
M  V30 5743 N 535.244 5.48593 -1.89806 0
M  V30 5744 H 538.009 1.47795 -2.60723 0
M  V30 5745 H 535.57 0.66858 -1.4745 0
M  V30 5746 H 537.562 3.75666 -1.50523 0
M  V30 5747 H 536.132 3.04218 -0.719036 0
M  V30 5748 H 535.352 2.40662 -3.12211 0
M  V30 5749 H 536.64 3.46334 -3.72734 0
M  V30 5750 H 536.038 5.50791 -1.2902 0
M  V30 5751 H 534.595 6.24752 -1.85819 0
M  V30 5752 N 538.028 1.39524 0.732853 0
M  V30 5753 C 539.268 1.383 1.50508 0
M  V30 5754 C 539.632 -0.0208271 1.91989 0
M  V30 5755 O 540.833 -0.158091 2.68335 0
M  V30 5756 C 539.104 2.33007 2.71003 0
M  V30 5757 S 540.663 2.49989 3.60626 0
M  V30 5758 H 537.481 0.490417 0.514794 0
M  V30 5759 H 540.083 1.75641 0.858524 0
M  V30 5760 H 538.787 3.33862 2.38672 0
M  V30 5761 H 538.318 1.96889 3.40585 0
M  V30 5762 H 540.333 1.7394 4.64714 0
M  V30 5763 N 539.506 -0.963266 1.24736 0
M  V30 5764 C 540.922 -1.23273 1.01371 0
M  V30 5765 C 541.122 -1.99618 -0.274776 0
M  V30 5766 O 540.178 -2.32293 -0.989769 0
M  V30 5767 C 541.491 -2.01554 2.23152 0
M  V30 5768 C 543.039 -2.14629 2.27823 0
M  V30 5769 C 543.514 -2.96307 3.49237 0
M  V30 5770 N 545.005 -3.03887 3.49581 0
M  V30 5771 C 545.74 -3.67456 4.40186 0
M  V30 5772 N 545.236 -4.32706 5.41052 0
M  V30 5773 N 547.029 -3.64511 4.27888 0
M  V30 5774 H 539.18 -0.452294 2.07528 0
M  V30 5775 H 541.443 -0.262521 0.910926 0
M  V30 5776 H 541.149 -1.52847 3.1675 0
M  V30 5777 H 541.023 -3.02278 2.25628 0
M  V30 5778 H 543.41 -2.62537 1.34753 0
M  V30 5779 H 543.491 -1.13238 2.2937 0
M  V30 5780 H 543.135 -2.49091 4.42624 0
M  V30 5781 H 543.065 -3.97905 3.44933 0
M  V30 5782 H 545.556 -2.57477 2.76611 0
M  V30 5783 H 545.869 -4.79042 6.06415 0
M  V30 5784 H 544.214 -4.31361 5.44934 0
M  V30 5785 H 547.405 -3.12715 3.4832 0
M  V30 5786 H 547.578 -4.13768 4.98698 0
M  V30 5787 N 540.985 -1.06182 -1.16461 0
M  V30 5788 C 541.915 -0.692861 -2.22984 0
M  V30 5789 C 542.896 0.314122 -1.67174 0
M  V30 5790 O 544.081 0.189499 -1.93273 0
M  V30 5791 C 541.211 -0.07732 -3.47214 0
M  V30 5792 C 540.165 -1.01015 -4.15909 0
M  V30 5793 C 539.491 -0.257973 -5.34077 0
M  V30 5794 C 540.791 -2.33868 -4.67015 0
M  V30 5795 H 542.485 -1.58343 -2.54102 0
M  V30 5796 H 540.031 -0.76279 -1.22137 0
M  V30 5797 H 541.984 0.19266 -4.20959 0
M  V30 5798 H 540.708 0.848254 -3.15392 0
M  V30 5799 H 539.367 -1.26486 -3.44088 0
M  V30 5800 H 539.015 0.670684 -4.98509 0
M  V30 5801 H 538.715 -0.879638 -5.80979 0
M  V30 5802 H 540.239 0.00448788 -6.106 0
M  V30 5803 H 541.653 -2.1279 -5.32347 0
M  V30 5804 H 540.05 -2.91522 -5.24533 0
M  V30 5805 H 541.12 -2.97019 -3.83286 0
M  V30 5806 N 542.463 1.3308 -0.844243 0
M  V30 5807 C 543.373 2.32876 -0.283922 0
M  V30 5808 C 544.389 1.63589 0.592846 0
M  V30 5809 O 545.565 1.95205 0.495693 0
M  V30 5810 C 542.63 3.42667 0.527283 0
M  V30 5811 C 541.691 4.27664 -0.374394 0
M  V30 5812 C 540.924 5.32212 0.39819 0
M  V30 5813 O 541.147 5.46635 1.62932 0
M  V30 5814 O 540.081 6.01458 -0.2306 0
M  V30 5815 H 543.907 2.82671 -1.11045 0
M  V30 5816 H 541.492 1.36518 -0.606903 0
M  V30 5817 H 543.374 4.09652 0.988078 0
M  V30 5818 H 542.049 2.95079 1.33078 0
M  V30 5819 H 540.956 3.63526 -0.883144 0
M  V30 5820 H 542.289 4.78749 -1.1428 0
M  V30 5821 N 543.941 0.601185 1.45683 0
M  V30 5822 C 545.189 0.0936957 2.01883 0
M  V30 5823 C 545.51 -1.2779 1.47291 0
M  V30 5824 O 544.78 -1.84279 0.664691 0
M  V30 5825 H 543.36 0.0316466 0.746329 0
M  V30 5826 H 546.022 0.781137 1.78562 0
M  V30 5827 H 545.118 0.0386297 3.12076 0
M  V30 5828 N 545.419 -1.53889 0.339982 0
M  V30 5829 C 546.666 -2.00855 -0.257621 0
M  V30 5830 C 546.994 -1.22788 -1.50842 0
M  V30 5831 O 546.249 -0.302567 -1.93347 0
M  V30 5832 C 546.548 -3.51968 -0.620735 0
M  V30 5833 C 546.214 -4.47741 0.532771 0
M  V30 5834 C 544.876 -4.73645 0.849339 0
M  V30 5835 C 547.228 -5.04551 1.3068 0
M  V30 5836 C 544.556 -5.53614 1.94237 0
M  V30 5837 C 546.908 -5.85713 2.39005 0
M  V30 5838 C 545.572 -6.09912 2.71225 0
M  V30 5839 H 544.842 -0.734979 -0.0942703 0
M  V30 5840 H 547.489 -1.85714 0.467159 0
M  V30 5841 H 545.794 -3.64921 -1.42618 0
M  V30 5842 H 547.491 -3.85762 -1.09495 0
M  V30 5843 H 544.081 -4.27711 0.275973 0
M  V30 5844 H 548.265 -4.84507 1.07549 0
M  V30 5845 H 543.521 -5.7059 2.19628 0
M  V30 5846 H 547.695 -6.28748 2.99415 0
M  V30 5847 H 545.322 -6.71665 3.56047 0
M  V30 5848 N 546.897 -0.0685191 -1.57451 0
M  V30 5849 C 548.308 0.464634 -1.80826 0
M  V30 5850 C 548.659 1.69847 -0.982169 0
M  V30 5851 O 547.784 2.15439 -0.203734 0
M  V30 5852 C 548.379 0.849721 -3.27971 0
M  V30 5853 C 546.938 1.32776 -3.52204 0
M  V30 5854 C 546.085 0.311332 -2.75547 0
M  V30 5855 H 549.036 -0.294248 -1.55948 0
M  V30 5856 H 549.057 1.71138 -3.39841 0
M  V30 5857 H 548.569 -0.0484736 -3.8807 0
M  V30 5858 H 546.67 2.24456 -2.97406 0
M  V30 5859 H 546.783 1.30794 -4.60901 0
M  V30 5860 H 545.147 0.787915 -2.42206 0
M  V30 5861 H 545.93 -0.579078 -3.38381 0
M  V30 5862 N 548.375 1.56261 0.205012 0
M  V30 5863 C 549.307 1.90266 1.27795 0
M  V30 5864 C 550.32 0.792397 1.42214 0
M  V30 5865 O 551.509 1.07077 1.42817 0
M  V30 5866 C 548.609 2.11074 2.65143 0
M  V30 5867 C 547.782 3.42176 2.7246 0
M  V30 5868 C 546.841 3.52216 3.90936 0
M  V30 5869 O 545.867 4.25119 3.78501 0
M  V30 5870 N 547.069 2.84573 5.05963 0
M  V30 5871 H 549.834 2.82896 0.989434 0
M  V30 5872 H 547.395 1.57008 0.394981 0
M  V30 5873 H 549.387 2.15089 3.4281 0
M  V30 5874 H 547.957 1.2499 2.86524 0
M  V30 5875 H 547.177 3.50116 1.81142 0
M  V30 5876 H 548.465 4.28509 2.74331 0
M  V30 5877 H 547.863 2.25152 5.18963 0
M  V30 5878 H 546.42 2.94228 5.81613 0
M  V30 5879 N 549.853 -0.472356 1.50355 0
M  V30 5880 C 550.763 -1.59637 1.7191 0
M  V30 5881 C 551.779 -1.63247 0.602195 0
M  V30 5882 O 552.955 -1.81139 0.880369 0
M  V30 5883 C 550.02 -2.9586 1.80742 0
M  V30 5884 C 549.081 -3.02649 3.04471 0
M  V30 5885 C 548.314 -4.32374 3.12872 0
M  V30 5886 O 548.537 -5.22807 2.28099 0
M  V30 5887 O 547.471 -4.44728 4.05587 0
M  V30 5888 H 551.297 -1.44373 2.67189 0
M  V30 5889 H 548.882 -0.651717 1.34436 0
M  V30 5890 H 550.764 -3.7677 1.88739 0
M  V30 5891 H 549.439 -3.11325 0.88647 0
M  V30 5892 H 548.346 -2.20821 3.01975 0
M  V30 5893 H 549.679 -2.92119 3.9614 0
M  V30 5894 N 551.331 -1.39911 -0.725443 0
M  V30 5895 C 552.279 -1.39552 -1.86086 0
M  V30 5896 C 553.273 -0.277334 -1.67114 0
M  V30 5897 O 554.479 -0.447865 -1.74339 0
M  V30 5898 H 550.854 -0.435993 -0.612711 0
M  V30 5899 H 552.825 -2.35305 -1.83505 0
M  V30 5900 C 551.574 -1.26529 -3.2386 0
M  V30 5901 H 550.897 -2.11845 -3.3906 0
M  V30 5902 H 552.337 -1.30336 -4.03471 0
M  V30 5903 C 550.796 0.0254168 -3.3689 0
M  V30 5904 O 551.326 0.992048 -3.89257 0
M  V30 5905 N 549.532 0.0916528 -2.90455 0
M  V30 5906 H 549.079 -0.695675 -2.48028 0
M  V30 5907 H 549.037 0.954745 -2.99553 0
M  V30 5908 N 552.809 0.956637 -1.25245 0
M  V30 5909 C 554.034 1.74104 -1.12706 0
M  V30 5910 C 554.459 1.85436 0.315429 0
M  V30 5911 O 553.817 1.33334 1.22848 0
M  V30 5912 C 553.865 3.1338 -1.78396 0
M  V30 5913 O 552.969 3.98485 -1.06224 0
M  V30 5914 H 552.31 0.53476 -0.393609 0
M  V30 5915 H 554.84 1.19924 -1.65769 0
M  V30 5916 H 554.85 3.6385 -1.846 0
M  V30 5917 H 553.525 3.04448 -2.83345 0
M  V30 5918 H 552.102 3.56952 -1.07886 0
M  V30 5919 N 554.287 1.06798 1.15896 0
M  V30 5920 C 555.234 0.683314 2.20453 0
M  V30 5921 C 556.204 -0.32255 1.62938 0
M  V30 5922 O 557.389 -0.210276 1.89638 0
M  V30 5923 C 554.529 0.0813266 3.45004 0
M  V30 5924 C 553.642 1.13799 4.16742 0
M  V30 5925 C 552.777 0.501598 5.28826 0
M  V30 5926 C 551.816 1.54144 5.92373 0
M  V30 5927 N 550.953 0.928038 6.9594 0
M  V30 5928 H 555.793 1.57932 2.52708 0
M  V30 5929 H 553.33 0.789544 1.24115 0
M  V30 5930 H 555.288 -0.285274 4.16224 0
M  V30 5931 H 553.918 -0.77806 3.13283 0
M  V30 5932 H 552.97 1.62223 3.44075 0
M  V30 5933 H 554.282 1.92664 4.60089 0
M  V30 5934 H 553.436 0.0823162 6.06644 0
M  V30 5935 H 552.175 -0.318883 4.86656 0
M  V30 5936 H 551.18 1.97056 5.13273 0
M  V30 5937 H 552.405 2.3641 6.36621 0
M  V30 5938 H 550.351 0.12836 6.55874 0
M  V30 5939 H 550.268 1.65401 7.37685 0
M  V30 5940 H 551.536 0.534071 7.77668 0
M  V30 5941 N 555.766 -1.3263 0.851289 0
M  V30 5942 C 556.996 -2.01271 0.466222 0
M  V30 5943 C 557.404 -1.64156 -0.940714 0
M  V30 5944 O 556.747 -0.857109 -1.62479 0
M  V30 5945 C 556.809 -3.55695 0.521672 0
M  V30 5946 C 556.473 -4.16227 1.88691 0
M  V30 5947 C 557.47 -4.34699 2.85189 0
M  V30 5948 C 555.155 -4.52377 2.18313 0
M  V30 5949 C 557.149 -4.88484 4.09465 0
M  V30 5950 C 554.836 -5.05868 3.42843 0
M  V30 5951 C 555.834 -5.23869 4.38235 0
M  V30 5952 O 555.522 -5.76218 5.6056 0
M  V30 5953 H 555.254 -0.651034 0.18202 0
M  V30 5954 H 557.808 -1.7026 1.14894 0
M  V30 5955 H 556.038 -3.86086 -0.217888 0
M  V30 5956 H 557.727 -4.05613 0.152682 0
M  V30 5957 H 558.493 -4.07107 2.63607 0
M  V30 5958 H 554.372 -4.37652 1.44851 0
M  V30 5959 H 557.916 -5.02451 4.83931 0
M  V30 5960 H 553.813 -5.32891 3.64277 0
M  V30 5961 H 554.581 -5.94616 5.62471 0
M  V30 5962 N 557.244 -0.608902 -1.45362 0
M  V30 5963 C 558.192 0.121639 -2.32282 0
M  V30 5964 C 559.186 0.858301 -1.46046 0
M  V30 5965 O 560.392 0.773718 -1.62523 0
M  V30 5966 H 556.767 0.058086 -0.749753 0
M  V30 5967 H 558.738 -0.629866 -2.91677 0
M  V30 5968 C 557.487 1.1047 -3.29684 0
M  V30 5969 H 556.81 0.547278 -3.96036 0
M  V30 5970 H 558.25 1.58576 -3.9323 0
M  V30 5971 C 556.709 2.17891 -2.56954 0
M  V30 5972 O 557.239 3.25652 -2.35189 0
M  V30 5973 N 555.445 1.93211 -2.17066 0
M  V30 5974 H 554.992 1.05584 -2.34967 0
M  V30 5975 H 554.95 2.6529 -1.68727 0
M  V30 5976 N 558.722 1.53707 -0.348139 0
M  V30 5977 C 559.669 2.25173 0.506518 0
M  V30 5978 C 560.639 1.25174 1.09182 0
M  V30 5979 O 561.824 1.53917 1.12757 0
M  V30 5980 C 558.964 3.03141 1.64923 0
M  V30 5981 C 558.077 4.18002 1.0908 0
M  V30 5982 C 557.212 4.83447 2.20119 0
M  V30 5983 C 556.251 5.90369 1.61651 0
M  V30 5984 N 555.388 6.49575 2.66451 0
M  V30 5985 H 560.228 2.97799 -0.109452 0
M  V30 5986 H 557.765 1.46953 -0.0657866 0
M  V30 5987 H 559.723 3.46607 2.32205 0
M  V30 5988 H 558.353 2.32803 2.23612 0
M  V30 5989 H 557.405 3.79145 0.308783 0
M  V30 5990 H 558.717 4.94892 0.623178 0
M  V30 5991 H 557.871 5.30008 2.95257 0
M  V30 5992 H 556.61 4.05991 2.70227 0
M  V30 5993 H 555.615 5.43186 0.850209 0
M  V30 5994 H 556.84 6.69735 1.1239 0
M  V30 5995 H 554.786 5.74981 3.15805 0
M  V30 5996 H 554.703 7.21952 2.24325 0
M  V30 5997 H 555.971 7.00789 3.41344 0
M  V30 5998 N 560.2 0.0768682 1.57412 0
M  V30 5999 C 561.428 -0.59997 1.9801 0
M  V30 6000 C 561.843 -1.62842 0.955408 0
M  V30 6001 O 561.2 -1.8241 -0.057314 0
M  V30 6002 C 561.251 -1.26401 3.38681 0
M  V30 6003 O 560.972 -0.276723 4.37225 0
M  V30 6004 C 562.473 -2.0282 3.94182 0
M  V30 6005 H 559.693 -0.162239 0.651091 0
M  V30 6006 H 562.237 0.150771 2.03943 0
M  V30 6007 H 560.392 -1.96581 3.33819 0
M  V30 6008 H 560.806 -0.753744 5.19056 0
M  V30 6009 H 562.28 -2.44667 4.94815 0
M  V30 6010 H 562.757 -2.88678 3.31001 0
M  V30 6011 H 563.363 -1.37496 4.02461 0
M  V30 6012 N 561.678 -1.56367 -0.196722 0
M  V30 6013 C 562.918 -1.82315 -0.92415 0
M  V30 6014 C 563.282 -0.654117 -1.80514 0
M  V30 6015 O 564.483 -0.79345 -2.56823 0
M  V30 6016 C 562.754 -3.13279 -1.72021 0
M  V30 6017 S 564.313 -3.60627 -2.49988 0
M  V30 6018 H 561.131 -0.639862 -0.309997 0
M  V30 6019 H 563.733 -1.94597 -0.187684 0
M  V30 6020 H 562.437 -3.96379 -1.06358 0
M  V30 6021 H 561.968 -3.03871 -2.49852 0
M  V30 6022 H 563.983 -3.25934 -3.74141 0
M  V30 6023 N 563.156 0.464375 -1.50603 0
M  V30 6024 C 564.104 1.58224 -1.70493 0
M  V30 6025 C 565.098 1.59492 -0.570836 0
M  V30 6026 O 566.304 1.63561 -0.751517 0
M  V30 6027 H 562.679 0.525161 -0.538247 0
M  V30 6028 H 564.65 1.38613 -2.64252 0
M  V30 6029 C 563.399 2.96113 -1.82243 0
M  V30 6030 H 562.722 2.95858 -2.68901 0
M  V30 6031 H 564.162 3.73769 -2.00182 0
M  V30 6032 C 562.621 3.31946 -0.575628 0
M  V30 6033 O 563.151 4.00708 0.282152 0
M  V30 6034 N 561.357 2.87436 -0.427665 0
M  V30 6035 H 560.904 2.31652 -1.12674 0
M  V30 6036 H 560.862 3.11776 0.405379 0
M  V30 6037 N 564.634 1.40294 0.718013 0
M  V30 6038 C 565.859 1.41941 1.5122 0
M  V30 6039 C 566.284 0.0202371 1.88089 0
M  V30 6040 O 565.642 -0.971078 1.53101 0
M  V30 6041 C 565.69 2.3141 2.76554 0
M  V30 6042 O 564.794 1.75567 3.73162 0
M  V30 6043 H 564.135 0.482644 0.456016 0
M  V30 6044 H 566.665 1.84494 0.884478 0
M  V30 6045 H 566.675 2.46513 3.25108 0
M  V30 6046 H 565.35 3.33085 2.49053 0
M  V30 6047 H 563.927 1.69798 3.31999 0
M  V30 6048 N 566.112 -0.949982 1.2575 0
M  V30 6049 C 567.337 -1.73503 1.13628 0
M  V30 6050 C 567.762 -1.85601 -0.30559 0
M  V30 6051 O 567.12 -1.33984 -1.22139 0
M  V30 6052 C 567.168 -3.1243 1.80055 0
M  V30 6053 O 566.272 -3.97916 1.08336 0
M  V30 6054 H 565.613 -0.532665 0.396439 0
M  V30 6055 H 568.143 -1.19043 1.66403 0
M  V30 6056 H 568.153 -3.62866 1.86527 0
M  V30 6057 H 566.828 -3.02941 2.84956 0
M  V30 6058 H 565.405 -3.56375 1.09777 0
M  V30 6059 N 567.59 -1.07411 -1.15328 0
M  V30 6060 C 568.52 -0.716472 -2.22236 0
M  V30 6061 C 569.501 0.296373 -1.67498 0
M  V30 6062 O 570.686 0.168989 -1.93463 0
M  V30 6063 C 567.816 -0.114142 -3.47112 0
M  V30 6064 C 566.77 -1.05421 -4.14814 0
M  V30 6065 C 566.096 -0.314604 -5.33774 0
M  V30 6066 C 567.396 -2.38808 -4.64508 0
M  V30 6067 H 569.09 -1.61029 -2.52408 0
M  V30 6068 H 566.636 -0.775702 -1.21321 0
M  V30 6069 H 568.589 0.148001 -4.2114 0
M  V30 6070 H 567.313 0.814755 -3.16274 0
M  V30 6071 H 565.972 -1.30128 -3.42728 0
M  V30 6072 H 565.62 0.617772 -4.99192 0
M  V30 6073 H 565.32 -0.941209 -5.80013 0
M  V30 6074 H 566.844 -0.0602747 -6.1057 0
M  V30 6075 H 568.258 -2.18424 -5.3006 0
M  V30 6076 H 566.655 -2.97069 -5.21412 0
M  V30 6077 H 567.725 -3.01067 -3.80114 0
M  V30 6078 N 569.068 1.32177 -0.85831 0
M  V30 6079 C 570.296 2.01313 -0.477582 0
M  V30 6080 C 570.711 1.6449 0.926736 0
M  V30 6081 O 570.068 0.868096 1.60531 0
M  V30 6082 C 570.119 3.56293 -0.611337 0
M  V30 6083 O 569.84 3.91794 -1.96034 0
M  V30 6084 C 571.341 4.42702 -0.230093 0
M  V30 6085 H 568.561 0.644323 -0.187322 0
M  V30 6086 H 571.105 1.68674 -1.15626 0
M  V30 6087 H 569.26 3.87395 0.0196494 0
M  V30 6088 H 569.674 4.86513 -1.95973 0
M  V30 6089 H 571.148 5.50727 -0.374674 0
M  V30 6090 H 571.625 4.3129 0.829779 0
M  V30 6091 H 572.231 4.16997 -0.836302 0
M  V30 6092 N 570.547 0.616602 1.45037 0
M  V30 6093 C 571.477 -0.0840787 2.33349 0
M  V30 6094 C 572.458 -0.849641 1.4736 0
M  V30 6095 O 573.643 -0.818407 1.76113 0
M  V30 6096 C 570.773 -1.07604 3.3021 0
M  V30 6097 C 569.727 -0.423096 4.25904 0
M  V30 6098 C 569.053 -1.52394 5.12523 0
M  V30 6099 C 570.353 0.661457 5.18095 0
M  V30 6100 H 572.047 0.653333 2.92185 0
M  V30 6101 H 569.593 0.315634 1.40498 0
M  V30 6102 H 571.546 -1.57485 3.90866 0
M  V30 6103 H 570.27 -1.84416 2.69552 0
M  V30 6104 H 568.929 0.05493 3.66559 0
M  V30 6105 H 568.577 -2.28257 4.48227 0
M  V30 6106 H 568.277 -1.09251 5.77354 0
M  V30 6107 H 569.801 -2.02485 5.76049 0
M  V30 6108 H 571.215 0.246353 5.7277 0
M  V30 6109 H 569.612 1.01517 5.91451 0
M  V30 6110 H 570.682 1.53446 4.59981 0
M  V30 6111 N 572.025 -1.5352 0.356285 0
M  V30 6112 C 572.972 -2.25439 -0.494569 0
M  V30 6113 C 573.942 -1.25752 -1.08516 0
M  V30 6114 O 575.127 -1.54513 -1.1194 0
M  V30 6115 C 572.267 -3.04011 -1.63313 0
M  V30 6116 C 571.38 -4.18574 -1.06862 0
M  V30 6117 C 570.515 -4.84607 -2.17552 0
M  V30 6118 C 569.554 -5.91218 -1.58518 0
M  V30 6119 N 568.691 -6.50979 -2.63003 0
M  V30 6120 H 573.531 -2.97737 0.125244 0
M  V30 6121 H 571.068 -1.46916 0.0735789 0
M  V30 6122 H 573.026 -3.47834 -2.30363 0
M  V30 6123 H 571.656 -2.33986 -2.22374 0
M  V30 6124 H 570.708 -3.79303 -0.288672 0
M  V30 6125 H 572.02 -4.95215 -0.596924 0
M  V30 6126 H 571.174 -5.31566 -2.92442 0
M  V30 6127 H 569.913 -4.07418 -2.6807 0
M  V30 6128 H 568.918 -5.4363 -0.821391 0
M  V30 6129 H 570.143 -6.70322 -1.08836 0
M  V30 6130 H 568.089 -5.76648 -3.12751 0
M  V30 6131 H 568.006 -7.23131 -2.20493 0
M  V30 6132 H 569.274 -7.02589 -3.37623 0
M  V30 6133 N 573.503 -0.0852151 -1.57369 0
M  V30 6134 C 574.731 0.58946 -1.98325 0
M  V30 6135 C 575.146 1.62333 -0.96403 0
M  V30 6136 O 574.503 1.82438 0.0476395 0
M  V30 6137 C 574.554 1.24604 -3.39347 0
M  V30 6138 O 574.275 0.253532 -4.37366 0
M  V30 6139 C 575.776 2.00726 -3.95252 0
M  V30 6140 H 572.996 0.158783 -0.651942 0
M  V30 6141 H 575.54 -0.161584 -2.03861 0
M  V30 6142 H 573.695 1.94808 -3.34856 0
M  V30 6143 H 574.109 0.726207 -5.19448 0
M  V30 6144 H 575.583 2.42039 -4.96106 0
M  V30 6145 H 576.06 2.86919 -3.32527 0
M  V30 6146 H 576.666 1.3536 -4.03185 0
M  V30 6147 N 574.981 1.5647 0.188427 0
M  V30 6148 C 575.931 1.91479 1.23774 0
M  V30 6149 C 576.915 0.78119 1.40664 0
M  V30 6150 O 578.107 1.04414 1.42922 0
M  V30 6151 C 575.236 2.26354 2.58106 0
M  V30 6152 C 574.322 3.46186 2.44981 0
M  V30 6153 N 574.713 4.63911 2.01546 0
M  V30 6154 C 573.011 3.50456 2.75856 0
M  V30 6155 C 573.712 5.46064 2.00472 0
M  V30 6156 N 572.688 4.86648 2.42229 0
M  V30 6157 H 576.49 2.79994 0.893339 0
M  V30 6158 H 574.004 1.57477 0.39682 0
M  V30 6159 H 576.001 2.49622 3.33908 0
M  V30 6160 H 574.661 1.39168 2.93364 0
M  V30 6161 H 575.672 4.88451 1.7215 0
M  V30 6162 H 572.349 2.73704 3.15265 0
M  V30 6163 H 573.739 6.50368 1.68734 0
M  V30 6164 N 576.459 -0.456382 1.50847 0
M  V30 6165 C 577.409 -1.55045 1.67168 0
M  V30 6166 C 578.393 -1.52061 0.525958 0
M  V30 6167 O 579.585 -1.58836 0.781036 0
M  V30 6168 C 576.714 -2.93386 1.78268 0
M  V30 6169 C 575.8 -3.01198 2.98564 0
M  V30 6170 N 576.191 -2.78792 4.22029 0
M  V30 6171 C 574.489 -3.32346 2.97426 0
M  V30 6172 C 575.19 -2.91953 5.03128 0
M  V30 6173 N 574.166 -3.22797 4.37382 0
M  V30 6174 H 577.968 -1.36444 2.60308 0
M  V30 6175 H 575.482 -0.663375 1.48233 0
M  V30 6176 H 577.479 -3.72071 1.88067 0
M  V30 6177 H 576.139 -3.13022 0.862965 0
M  V30 6178 H 577.15 -2.54087 4.51287 0
M  V30 6179 H 573.827 -3.57877 2.15012 0
M  V30 6180 H 575.217 -2.78745 6.11351 0
M  V30 6181 N 577.937 -1.40673 -0.710563 0
M  V30 6182 C 579.183 -1.39428 -1.47267 0
M  V30 6183 C 579.516 0.00182129 -1.942 0
M  V30 6184 O 578.791 0.971387 -1.68506 0
M  V30 6185 C 579.074 -2.38812 -2.6952 0
M  V30 6186 C 578.927 -3.87467 -2.28449 0
M  V30 6187 C 580.246 -2.3566 -3.71689 0
M  V30 6188 H 577.365 -0.507768 -0.534173 0
M  V30 6189 H 580.007 -1.71843 -0.810547 0
M  V30 6190 H 578.157 -2.113 -3.26013 0
M  V30 6191 H 579.829 -4.25825 -1.77399 0
M  V30 6192 H 578.072 -4.03058 -1.60395 0
M  V30 6193 H 578.743 -4.5253 -3.16103 0
M  V30 6194 H 581.219 -2.6004 -3.24836 0
M  V30 6195 H 580.095 -3.07237 -4.54859 0
M  V30 6196 H 580.356 -1.36996 -4.20339 0
M  V30 6197 N 579.415 0.9433 -1.26252 0
M  V30 6198 C 580.347 2.04542 -1.03417 0
M  V30 6199 C 581.36 1.62799 0.0046911 0
M  V30 6200 O 582.549 1.76944 -0.235146 0
M  V30 6201 C 579.649 3.34511 -0.543671 0
M  V30 6202 C 578.822 4.05033 -1.65128 0
M  V30 6203 C 577.881 5.13273 -1.1592 0
M  V30 6204 O 576.907 5.38095 -1.85586 0
M  V30 6205 N 578.109 5.805 -0.00649279 0
M  V30 6206 H 580.874 2.24699 -1.98319 0
M  V30 6207 H 578.435 1.11264 -1.1761 0
M  V30 6208 H 580.427 4.04212 -0.198703 0
M  V30 6209 H 578.997 3.11042 0.311711 0
M  V30 6210 H 578.217 3.29275 -2.16729 0
M  V30 6211 H 579.505 4.48903 -2.39508 0
M  V30 6212 H 578.903 5.62767 0.575347 0
M  V30 6213 H 577.46 6.51201 0.279416 0
M  V30 6214 N 580.893 1.08022 1.14757 0
M  V30 6215 C 582.17 0.720386 1.81851 0
M  V30 6216 C 582.55 -0.796375 1.95502 0
M  V30 6217 O 581.898 -1.71339 1.51179 0
M  V30 6218 C 582.108 1.44273 3.17783 0
M  V30 6219 C 583.456 1.59925 3.93331 0
M  V30 6220 O 584.48 1.40407 3.2736 0
M  V30 6221 O 583.339 1.92096 5.11626 0
M  V30 6222 H 580.433 0.257142 0.786007 0
M  V30 6223 H 582.979 1.18155 1.21809 0
M  V30 6224 H 581.751 2.47618 3.02987 0
M  V30 6225 H 581.374 0.97279 3.85516 0
M  V30 6226 N 582.371 -1.3172 0.865308 0
M  V30 6227 C 583.596 -2.01591 0.487415 0
M  V30 6228 C 584.021 -1.6455 -0.911307 0
M  V30 6229 O 583.379 -0.851689 -1.6005 0
M  V30 6230 C 583.427 -3.54759 0.646401 0
M  V30 6231 O 582.531 -4.11185 -0.316284 0
M  V30 6232 H 581.872 -0.634884 0.194468 0
M  V30 6233 H 584.402 -1.68024 1.16744 0
M  V30 6234 H 584.412 -4.04438 0.537932 0
M  V30 6235 H 583.087 -3.8106 1.66632 0
M  V30 6236 H 581.664 -3.72543 -0.163162 0
M  V30 6237 N 583.85 -0.624285 -1.44708 0
M  V30 6238 C 584.797 0.0847135 -2.30644 0
M  V30 6239 C 585.767 0.843575 -1.43084 0
M  V30 6240 O 586.952 0.825982 -1.71995 0
M  V30 6241 C 584.091 1.06495 -3.28257 0
M  V30 6242 C 583.205 0.305224 -4.3092 0
M  V30 6243 C 582.34 1.27667 -5.1563 0
M  V30 6244 C 581.379 0.505706 -6.10007 0
M  V30 6245 N 580.516 1.42727 -6.8744 0
M  V30 6246 H 585.356 -0.654068 -2.90733 0
M  V30 6247 H 582.893 -0.334334 -1.4325 0
M  V30 6248 H 584.851 1.64658 -3.83332 0
M  V30 6249 H 583.481 1.77094 -2.69884 0
M  V30 6250 H 582.533 -0.392207 -3.78373 0
M  V30 6251 H 583.845 -0.295553 -4.97924 0
M  V30 6252 H 582.999 1.92984 -5.75189 0
M  V30 6253 H 581.738 1.91137 -4.48685 0
M  V30 6254 H 580.743 -0.160999 -5.49564 0
M  V30 6255 H 581.968 -0.124183 -6.78986 0
M  V30 6256 H 579.913 2.04931 -6.23169 0
M  V30 6257 H 579.831 0.880345 -7.50857 0
M  V30 6258 H 581.099 2.0695 -7.51526 0
M  V30 6259 N 585.328 1.53329 -0.364422 0
M  V30 6260 C 586.261 2.22052 0.526145 0
M  V30 6261 C 587.239 1.21203 1.08391 0
M  V30 6262 O 588.423 1.50101 1.14026 0
M  V30 6263 C 585.55 2.91432 1.72583 0
M  V30 6264 C 584.596 4.06345 1.29562 0
M  V30 6265 S 585.429 5.34671 0.297885 0
M  V30 6266 C 586.585 6.07563 1.50392 0
M  V30 6267 H 586.818 2.97244 -0.0575055 0
M  V30 6268 H 584.351 1.53684 -0.148525 0
M  V30 6269 H 586.309 3.3202 2.41398 0
M  V30 6270 H 584.97 2.15966 2.28073 0
M  V30 6271 H 584.163 4.53901 2.19067 0
M  V30 6272 H 583.765 3.67642 0.686696 0
M  V30 6273 H 586.057 6.32224 2.43513 0
M  V30 6274 H 587 6.99973 1.06977 0
M  V30 6275 H 587.408 5.37994 1.70945 0
M  V30 6276 N 586.806 0.0935595 1.57322 0
M  V30 6277 C 588.054 -0.569383 1.93913 0
M  V30 6278 C 588.375 -1.68817 0.976009 0
M  V30 6279 O 587.645 -1.9588 0.0278099 0
M  V30 6280 H 586.225 -0.21332 0.715894 0
M  V30 6281 H 588.887 0.156531 1.9427 0
M  V30 6282 H 587.983 -0.980577 2.96296 0
M  V30 6283 N 588.284 -1.56567 -0.180126 0
M  V30 6284 C 589.531 -1.81492 -0.898167 0
M  V30 6285 C 589.859 -0.669225 -1.82624 0
M  V30 6286 O 589.114 0.344096 -1.92651 0
M  V30 6287 C 589.413 -3.1252 -1.73395 0
M  V30 6288 C 589.079 -4.40658 -0.955567 0
M  V30 6289 C 587.741 -4.75465 -0.740707 0
M  V30 6290 C 590.093 -5.19593 -0.408948 0
M  V30 6291 C 587.421 -5.86691 0.0320128 0
M  V30 6292 C 589.773 -6.31627 0.350638 0
M  V30 6293 C 588.437 -6.65007 0.576378 0
M  V30 6294 H 587.707 -0.664125 -0.328662 0
M  V30 6295 H 590.354 -1.908 -0.163616 0
M  V30 6296 H 588.659 -2.98515 -2.53763 0
M  V30 6297 H 590.356 -3.29013 -2.29241 0
M  V30 6298 H 586.946 -4.13352 -1.13306 0
M  V30 6299 H 591.13 -4.93104 -0.562307 0
M  V30 6300 H 586.386 -6.11016 0.216735 0
M  V30 6301 H 590.56 -6.92001 0.781497 0
M  V30 6302 H 588.187 -7.51033 1.17703 0
M  V30 6303 N 589.762 0.448376 -1.51087 0
M  V30 6304 C 591.008 1.20049 -1.6345 0
M  V30 6305 C 591.341 1.91121 -0.344444 0
M  V30 6306 O 590.616 1.83125 0.655396 0
M  V30 6307 C 590.899 2.22624 -2.83038 0
M  V30 6308 C 590.752 1.55708 -4.21989 0
M  V30 6309 C 592.071 3.23718 -2.98152 0
M  V30 6310 H 589.19 0.435085 -0.59487 0
M  V30 6311 H 591.832 0.491183 -1.83541 0
M  V30 6312 H 589.982 2.83117 -2.66039 0
M  V30 6313 H 591.654 0.986367 -4.50631 0
M  V30 6314 H 589.897 0.859647 -4.25197 0
M  V30 6315 H 590.568 2.30357 -5.01637 0
M  V30 6316 H 593.044 2.73269 -3.13788 0
M  V30 6317 H 591.92 3.92795 -3.83411 0
M  V30 6318 H 592.181 3.89179 -2.09743 0
M  V30 6319 N 591.24 1.41047 0.703093 0
M  V30 6320 C 592.489 1.39301 1.4587 0
M  V30 6321 C 592.802 0.00267077 1.956 0
M  V30 6322 O 594.008 -0.137414 2.71152 0
M  V30 6323 C 592.464 2.44891 2.63735 0
M  V30 6324 C 592.072 3.89796 2.20824 0
M  V30 6325 C 593.816 2.5227 3.41409 0
M  V30 6326 C 591.723 4.86955 3.35602 0
M  V30 6327 H 590.653 0.518005 0.547893 0
M  V30 6328 H 593.304 1.66839 0.764009 0
M  V30 6329 H 591.686 2.10472 3.35436 0
M  V30 6330 H 592.86 4.33424 1.56461 0
M  V30 6331 H 591.175 3.86008 1.56163 0
M  V30 6332 H 593.772 3.22044 4.26839 0
M  V30 6333 H 594.115 1.55714 3.86081 0
M  V30 6334 H 594.648 2.85742 2.7676 0
M  V30 6335 H 591.387 5.84888 2.9595 0
M  V30 6336 H 590.907 4.47982 3.98839 0
M  V30 6337 H 592.586 5.07361 4.01489 0
M  V30 6338 N 592.718 -0.936591 1.26751 0
M  V30 6339 C 593.666 -2.0573 1.08527 0
M  V30 6340 C 594.66 -1.69397 0.0108784 0
M  V30 6341 O 595.866 -1.79215 0.167915 0
M  V30 6342 H 592.241 -0.673691 0.334133 0
M  V30 6343 H 594.212 -2.1825 2.03493 0
M  V30 6344 C 592.961 -3.39738 0.739845 0
M  V30 6345 H 592.284 -3.68174 1.55845 0
M  V30 6346 H 593.724 -4.18955 0.652149 0
M  V30 6347 C 592.183 -3.32292 -0.555288 0
M  V30 6348 O 592.713 -3.68794 -1.59229 0
M  V30 6349 N 590.919 -2.85394 -0.54762 0
M  V30 6350 H 590.466 -2.55886 0.296667 0
M  V30 6351 H 590.424 -2.80795 -1.41427 0
M  V30 6352 N 594.196 -1.08629 -1.14182 0
M  V30 6353 C 595.159 -0.722027 -2.1753 0
M  V30 6354 C 596.159 0.244305 -1.58933 0
M  V30 6355 O 597.349 0.0235545 -1.74184 0
M  V30 6356 C 594.481 -0.0663966 -3.40835 0
M  V30 6357 H 595.674 -1.63719 -2.51269 0
M  V30 6358 H 593.227 -0.884442 -1.28869 0
M  V30 6359 H 593.962 0.860389 -3.12678 0
M  V30 6360 H 593.747 -0.761598 -3.84632 0
M  V30 6361 H 595.237 0.173346 -4.1724 0
M  V30 6362 N 595.674 1.31259 -0.872281 0
M  V30 6363 C 596.923 1.95893 -0.480493 0
M  V30 6364 C 597.236 1.697 0.972688 0
M  V30 6365 O 598.442 2.28214 1.47073 0
M  V30 6366 C 596.898 3.50705 -0.808342 0
M  V30 6367 C 596.506 3.85735 -2.27844 0
M  V30 6368 C 598.25 4.21719 -0.485136 0
M  V30 6369 C 596.157 5.33668 -2.54858 0
M  V30 6370 H 595.087 0.733182 -0.175955 0
M  V30 6371 H 597.738 1.49396 -1.0655 0
M  V30 6372 H 596.12 3.95706 -0.152558 0
M  V30 6373 H 597.294 3.51686 -2.97748 0
M  V30 6374 H 595.609 3.27792 -2.56791 0
M  V30 6375 H 598.206 5.30559 -0.664166 0
M  V30 6376 H 598.549 4.12316 0.574592 0
M  V30 6377 H 599.082 3.82359 -1.09756 0
M  V30 6378 H 595.821 5.48109 -3.59523 0
M  V30 6379 H 595.341 5.69061 -1.8955 0
M  V30 6380 H 597.02 6.00958 -2.39706 0
M  V30 6381 N 597.152 0.631951 1.44375 0
M  V30 6382 C 598.382 0.143658 2.061 0
M  V30 6383 C 598.79 -1.18733 1.47306 0
M  V30 6384 O 598.133 -1.73943 0.590724 0
M  V30 6385 C 598.195 -0.0446102 3.59472 0
M  V30 6386 C 597.859 1.20835 4.40736 0
M  V30 6387 C 598.856 2.13224 4.74164 0
M  V30 6388 C 596.541 1.44399 4.81097 0
M  V30 6389 C 598.535 3.27487 5.46838 0
M  V30 6390 C 596.222 2.58959 5.53519 0
M  V30 6391 C 597.22 3.50329 5.86309 0
M  V30 6392 O 596.908 4.62891 6.57257 0
M  V30 6393 H 596.64 0.0772939 0.671567 0
M  V30 6394 H 599.194 0.866677 1.8622 0
M  V30 6395 H 597.424 -0.822783 3.77845 0
M  V30 6396 H 599.113 -0.487561 4.02961 0
M  V30 6397 H 599.879 1.96253 4.4352 0
M  V30 6398 H 595.758 0.741696 4.54994 0
M  V30 6399 H 599.302 3.98826 5.72349 0
M  V30 6400 H 595.199 2.75873 5.83579 0
M  V30 6401 H 595.967 4.61883 6.75726 0
M  V30 6402 N 598.631 -1.53133 0.372548 0
M  V30 6403 C 599.856 -2.0625 -0.218098 0
M  V30 6404 C 600.281 -1.24375 -1.41111 0
M  V30 6405 O 599.639 -0.264554 -1.79359 0
M  V30 6406 C 599.687 -3.55858 -0.582876 0
M  V30 6407 O 598.791 -3.76667 -1.67917 0
M  V30 6408 H 598.132 -0.663317 -0.030104 0
M  V30 6409 H 600.662 -1.97477 0.535169 0
M  V30 6410 H 600.672 -3.99007 -0.851925 0
M  V30 6411 H 599.347 -4.14892 0.289428 0
M  V30 6412 H 597.924 -3.45413 -1.40513 0
M  V30 6413 N 600.109 -0.101901 -1.5727 0
M  V30 6414 C 601.042 0.891377 -2.10071 0
M  V30 6415 C 602.02 1.27197 -1.01291 0
M  V30 6416 O 603.204 1.37602 -1.28833 0
M  V30 6417 C 600.331 2.19049 -2.58331 0
M  V30 6418 C 599.377 1.95925 -3.78834 0
M  V30 6419 S 600.21 1.19106 -5.22086 0
M  V30 6420 C 601.366 2.50234 -5.73702 0
M  V30 6421 H 601.599 0.442212 -2.93993 0
M  V30 6422 H 599.132 0.111529 -1.53997 0
M  V30 6423 H 601.09 2.937 -2.86793 0
M  V30 6424 H 599.751 2.61086 -1.74622 0
M  V30 6425 H 598.944 2.92143 -4.10693 0
M  V30 6426 H 598.546 1.29401 -3.50901 0
M  V30 6427 H 600.838 3.46173 -5.82384 0
M  V30 6428 H 601.781 2.22944 -6.72088 0
M  V30 6429 H 602.189 2.58818 -5.01671 0
M  V30 6430 N 601.587 1.56661 0.17182 0
M  V30 6431 C 602.55 1.9549 1.19651 0
M  V30 6432 C 603.55 0.838501 1.37207 0
M  V30 6433 O 604.74 1.10556 1.34622 0
M  V30 6434 C 601.872 2.24927 2.56166 0
M  V30 6435 H 603.065 2.87184 0.864007 0
M  V30 6436 H 600.618 1.50711 0.41425 0
M  V30 6437 H 601.353 1.35944 2.94431 0
M  V30 6438 H 601.138 3.06301 2.4479 0
M  V30 6439 H 602.628 2.55891 3.30014 0
M  V30 6440 N 603.065 -0.440357 1.51323 0
M  V30 6441 C 604.295 -1.21079 1.67402 0
M  V30 6442 C 604.703 -1.85555 0.369599 0
M  V30 6443 O 604.046 -1.71375 -0.661525 0
M  V30 6444 C 604.108 -2.33839 2.73056 0
M  V30 6445 C 603.772 -1.89755 4.15743 0
M  V30 6446 C 604.769 -1.40268 5.0062 0
M  V30 6447 C 602.454 -1.97539 4.61826 0
M  V30 6448 C 604.448 -0.991474 6.29642 0
M  V30 6449 C 602.135 -1.56029 5.90845 0
M  V30 6450 C 603.133 -1.06915 6.7458 0
M  V30 6451 O 602.821 -0.659933 8.01187 0
M  V30 6452 H 602.553 -0.371133 0.56501 0
M  V30 6453 H 605.107 -0.528409 1.98487 0
M  V30 6454 H 603.337 -3.05345 2.37279 0
M  V30 6455 H 605.026 -2.95713 2.78044 0
M  V30 6456 H 605.792 -1.33652 4.66221 0
M  V30 6457 H 601.671 -2.34713 3.96776 0
M  V30 6458 H 605.215 -0.607425 6.9495 0
M  V30 6459 H 601.112 -1.62315 6.24759 0
M  V30 6460 H 601.88 -0.786052 8.14717 0
M  V30 6461 N 604.543 -1.41418 -0.695603 0
M  V30 6462 C 605.791 -1.40496 -1.45277 0
M  V30 6463 C 606.112 -0.0149538 -1.94994 0
M  V30 6464 O 605.382 0.9432 -1.71699 0
M  V30 6465 H 603.962 -0.517147 -0.539044 0
M  V30 6466 H 606.624 -1.76656 -0.823321 0
M  V30 6467 H 605.72 -2.09214 -2.31595 0
M  V30 6468 N 606.021 0.929856 -1.27246 0
M  V30 6469 C 606.951 2.04722 -1.12299 0
M  V30 6470 C 607.932 1.70082 -0.0250464 0
M  V30 6471 O 609.117 1.93176 -0.199141 0
M  V30 6472 C 606.247 3.38721 -0.767145 0
M  V30 6473 C 605.201 3.87466 -1.81808 0
M  V30 6474 C 604.527 5.18246 -1.31626 0
M  V30 6475 C 605.827 4.11095 -3.22177 0
M  V30 6476 H 607.521 2.17485 -2.05769 0
M  V30 6477 H 605.067 1.04503 -0.990715 0
M  V30 6478 H 607.02 4.16366 -0.649413 0
M  V30 6479 H 605.744 3.25967 0.203259 0
M  V30 6480 H 604.403 3.12012 -1.92468 0
M  V30 6481 H 604.051 5.01881 -0.335378 0
M  V30 6482 H 603.751 5.51829 -2.01887 0
M  V30 6483 H 605.275 5.98462 -1.21143 0
M  V30 6484 H 606.689 4.79316 -3.1453 0
M  V30 6485 H 605.086 4.55982 -3.90129 0
M  V30 6486 H 606.156 3.16468 -3.67391 0
M  V30 6487 N 607.499 1.09233 1.13605 0
M  V30 6488 C 608.449 0.6994 2.17008 0
M  V30 6489 C 609.433 -0.285238 1.58352 0
M  V30 6490 O 610.625 -0.09592 1.7674 0
M  V30 6491 C 607.754 0.11938 3.43092 0
M  V30 6492 C 606.84 1.13031 4.0876 0
M  V30 6493 N 607.231 2.31673 4.49623 0
M  V30 6494 C 605.529 0.967999 4.35369 0
M  V30 6495 C 606.23 2.95964 5.00779 0
M  V30 6496 N 605.206 2.23534 4.95513 0
M  V30 6497 H 609.008 1.60272 2.46354 0
M  V30 6498 H 606.522 0.968257 1.30378 0
M  V30 6499 H 608.519 -0.180122 4.16511 0
M  V30 6500 H 607.179 -0.778816 3.15221 0
M  V30 6501 H 608.19 2.69277 4.42391 0
M  V30 6502 H 604.867 0.124319 4.17315 0
M  V30 6503 H 606.257 3.96813 5.42208 0
M  V30 6504 N 608.977 -1.30795 0.87923 0
M  V30 6505 C 609.925 -2.30231 0.331112 0
M  V30 6506 C 610.919 -1.59918 -0.558794 0
M  V30 6507 O 612.125 -1.74441 -0.443866 0
M  V30 6508 H 608.5 -0.746785 0.088409 0
M  V30 6509 H 610.471 -2.73925 1.18353 0
M  V30 6510 C 609.22 -3.44848 -0.444401 0
M  V30 6511 H 608.543 -3.99131 0.231106 0
M  V30 6512 H 609.983 -4.16516 -0.793109 0
M  V30 6513 C 608.442 -2.94329 -1.63926 0
M  V30 6514 O 608.972 -2.93875 -2.73862 0
M  V30 6515 N 607.178 -2.50413 -1.4745 0
M  V30 6516 H 606.725 -2.50982 -0.58015 0
M  V30 6517 H 606.683 -2.16969 -2.27534 0
M  V30 6518 N 610.455 -0.639598 -1.44038 0
M  V30 6519 C 611.388 0.109736 -2.27936 0
M  V30 6520 C 612.366 0.843095 -1.39035 0
M  V30 6521 O 613.55 0.845456 -1.68476 0
M  V30 6522 C 610.677 1.16173 -3.18153 0
M  V30 6523 C 609.723 0.527954 -4.2322 0
M  V30 6524 S 610.556 -0.688318 -5.31058 0
M  V30 6525 C 611.712 0.363481 -6.24844 0
M  V30 6526 H 611.945 -0.601986 -2.91142 0
M  V30 6527 H 609.478 -0.42802 -1.48349 0
M  V30 6528 H 611.436 1.76372 -3.7068 0
M  V30 6529 H 610.097 1.84569 -2.54151 0
M  V30 6530 H 609.29 1.32054 -4.86393 0
M  V30 6531 H 608.892 0.000396444 -3.74 0
M  V30 6532 H 611.184 1.23362 -6.66174 0
M  V30 6533 H 612.127 -0.23288 -7.07717 0
M  V30 6534 H 612.535 0.693179 -5.60228 0
M  V30 6535 N 611.933 1.52934 -0.380664 0
M  V30 6536 C 612.865 2.23822 0.493581 0
M  V30 6537 C 613.878 1.25761 1.03383 0
M  V30 6538 O 615.067 1.5189 0.937633 0
M  V30 6539 C 612.167 2.9342 1.69582 0
M  V30 6540 C 611.34 4.18115 1.28445 0
M  V30 6541 C 610.399 4.70788 2.35042 0
M  V30 6542 O 609.425 5.34093 1.96807 0
M  V30 6543 N 610.627 4.49899 3.66839 0
M  V30 6544 H 613.392 2.99484 -0.11371 0
M  V30 6545 H 610.953 1.60577 -0.206587 0
M  V30 6546 H 612.945 3.2556 2.40401 0
M  V30 6547 H 611.515 2.21119 2.20965 0
M  V30 6548 H 610.735 3.92109 0.405503 0
M  V30 6549 H 612.023 4.99152 0.986132 0
M  V30 6550 H 611.421 3.99349 4.0067 0
M  V30 6551 H 609.978 4.86551 4.33718 0
M  V30 6552 N 613.412 0.11024 1.57214 0
M  V30 6553 C 614.345 -0.880224 2.1054 0
M  V30 6554 C 615.323 -1.26658 1.01964 0
M  V30 6555 O 616.507 -1.36917 1.29561 0
M  V30 6556 C 613.634 -2.17676 2.59489 0
M  V30 6557 C 612.68 -1.93914 3.79868 0
M  V30 6558 S 613.513 -1.16336 5.2271 0
M  V30 6559 C 614.669 -2.47188 5.75021 0
M  V30 6560 H 614.902 -0.426614 2.94223 0
M  V30 6561 H 612.435 -0.10336 1.54054 0
M  V30 6562 H 614.393 -2.92175 2.88347 0
M  V30 6563 H 613.054 -2.60156 1.76005 0
M  V30 6564 H 612.247 -2.8996 4.12236 0
M  V30 6565 H 611.849 -1.27539 3.51582 0
M  V30 6566 H 614.141 -3.43079 5.84211 0
M  V30 6567 H 615.084 -2.19377 6.7326 0
M  V30 6568 H 615.492 -2.56154 5.03036 0
M  V30 6569 N 614.89 -1.56749 -0.16351 0
M  V30 6570 C 616.115 -1.86938 -0.898264 0
M  V30 6571 C 616.54 -0.697456 -1.74692 0
M  V30 6572 O 615.898 0.353327 -1.77824 0
M  V30 6573 C 615.946 -3.15599 -1.74441 0
M  V30 6574 O 615.05 -2.98371 -2.8469 0
M  V30 6575 H 614.391 -0.614659 -0.251178 0
M  V30 6576 H 616.921 -2.03979 -0.159298 0
M  V30 6577 H 616.931 -3.47202 -2.14277 0
M  V30 6578 H 615.606 -4.00505 -1.1211 0
M  V30 6579 H 614.183 -2.7814 -2.4838 0
M  V30 6580 N 616.368 0.432326 -1.51554 0
M  V30 6581 C 617.298 1.53242 -1.76179 0
M  V30 6582 C 618.279 1.58717 -0.611801 0
M  V30 6583 O 619.464 1.74364 -0.855033 0
M  V30 6584 C 616.594 2.91278 -1.89141 0
M  V30 6585 C 615.548 3.00663 -3.04608 0
M  V30 6586 C 614.874 4.40728 -3.02759 0
M  V30 6587 C 616.174 2.74281 -4.44485 0
M  V30 6588 H 617.868 1.32886 -2.68294 0
M  V30 6589 H 615.414 0.637841 -1.29103 0
M  V30 6590 H 617.367 3.68203 -2.04951 0
M  V30 6591 H 616.091 3.12877 -0.936785 0
M  V30 6592 H 614.75 2.26179 -2.88511 0
M  V30 6593 H 614.398 4.59301 -2.05065 0
M  V30 6594 H 614.098 4.47936 -3.80299 0
M  V30 6595 H 615.622 5.19619 -3.20669 0
M  V30 6596 H 617.036 3.40936 -4.60907 0
M  V30 6597 H 615.433 2.92893 -5.23769 0
M  V30 6598 H 616.503 1.69856 -4.54177 0
M  V30 6599 N 617.846 1.41785 0.688094 0
M  V30 6600 C 619.086 1.43018 1.46032 0
M  V30 6601 C 619.45 0.0402632 1.91958 0
M  V30 6602 O 620.651 -0.0726425 2.68702 0
M  V30 6603 C 618.922 2.4151 2.63453 0
M  V30 6604 S 620.481 2.61335 3.5249 0
M  V30 6605 H 617.299 0.506546 0.498931 0
M  V30 6606 H 619.901 1.78283 0.80221 0
M  V30 6607 H 618.605 3.41286 2.27929 0
M  V30 6608 H 618.136 2.07624 3.34149 0
M  V30 6609 H 620.151 1.88637 4.58945 0
M  V30 6610 N 619.324 -0.923095 1.27737 0
M  V30 6611 C 620.735 -1.48626 1.12993 0
M  V30 6612 C 621.086 -1.94142 -0.283439 0
M  V30 6613 O 620.211 -1.81605 -1.17681 0
M  V30 6614 C 620.806 -2.70117 2.04505 0
M  V30 6615 C 619.365 -3.22642 1.93853 0
M  V30 6616 C 618.512 -1.95368 1.96791 0
M  V30 6617 H 621.463 -0.736737 1.40563 0
M  V30 6618 H 621.484 -3.4506 1.60356 0
M  V30 6619 H 620.996 -2.36959 3.07363 0
M  V30 6620 H 619.097 -3.60549 0.939968 0
M  V30 6621 H 619.21 -3.88525 2.80331 0
M  V30 6622 H 617.574 -2.12061 1.41076 0
M  V30 6623 H 618.357 -1.64517 3.01312 0
M  V30 6624 N 620.802 -1.09834 -1.13024 0
M  V30 6625 C 622.05 -0.835297 -1.8403 0
M  V30 6626 C 622.371 0.640944 -1.84165 0
M  V30 6627 O 621.641 1.46517 -1.30037 0
M  V30 6628 H 620.221 -0.306018 -0.681441 0
M  V30 6629 H 622.883 -1.38734 -1.36891 0
M  V30 6630 H 621.979 -1.19258 -2.88416 0
M  V30 6631 N 622.28 1.30327 -0.886154 0
M  V30 6632 C 623.51 1.99964 -0.519421 0
M  V30 6633 C 623.918 1.66593 0.89686 0
M  V30 6634 O 623.261 0.899886 1.60149 0
M  V30 6635 C 623.323 3.54187 -0.615795 0
M  V30 6636 C 622.987 4.11078 -1.9966 0
M  V30 6637 C 623.984 4.26985 -2.96614 0
M  V30 6638 C 621.669 4.46429 -2.30231 0
M  V30 6639 C 623.663 4.77456 -4.22273 0
M  V30 6640 C 621.35 4.966 -3.56135 0
M  V30 6641 C 622.348 5.12066 -4.5197 0
M  V30 6642 O 622.036 5.61154 -5.7564 0
M  V30 6643 H 621.768 0.645979 -0.199217 0
M  V30 6644 H 624.322 1.67154 -1.19368 0
M  V30 6645 H 622.552 3.86528 0.115448 0
M  V30 6646 H 624.241 4.05065 -0.26017 0
M  V30 6647 H 625.007 3.99975 -2.74308 0
M  V30 6648 H 620.886 4.33658 -1.56404 0
M  V30 6649 H 624.43 4.89444 -4.97082 0
M  V30 6650 H 620.327 5.23045 -3.78277 0
M  V30 6651 H 621.095 5.79494 -5.78039 0
M  V30 6652 N 623.758 0.647228 1.43697 0
M  V30 6653 C 624.721 -0.0385101 2.29168 0
M  V30 6654 C 625.721 -0.756487 1.41894 0
M  V30 6655 O 626.911 -0.598641 1.63591 0
M  V30 6656 C 624.043 -1.06524 3.23829 0
M  V30 6657 H 625.236 0.713445 2.9129 0
M  V30 6658 H 622.789 0.408153 1.50877 0
M  V30 6659 H 623.524 -1.84664 2.66589 0
M  V30 6660 H 623.309 -0.554147 3.88164 0
M  V30 6661 H 624.799 -1.54432 3.87996 0
M  V30 6662 N 625.236 -1.5273 0.388769 0
M  V30 6663 C 626.484 -2.01174 -0.193208 0
M  V30 6664 C 626.805 -1.27705 -1.47365 0
M  V30 6665 O 626.075 -0.396966 -1.91836 0
M  V30 6666 H 624.655 -0.743287 -0.0743871 0
M  V30 6667 H 627.317 -1.87826 0.520336 0
M  V30 6668 H 626.413 -3.09477 -0.403803 0
M  V30 6669 N 626.714 -0.118576 -1.57153 0
M  V30 6670 C 627.644 0.828436 -2.1831 0
M  V30 6671 C 628.625 1.27758 -1.12303 0
M  V30 6672 O 629.81 1.34026 -1.40537 0
M  V30 6673 C 626.94 2.07876 -2.78217 0
M  V30 6674 C 625.894 1.76742 -3.89803 0
M  V30 6675 C 625.22 3.08801 -4.36516 0
M  V30 6676 C 626.52 1.03606 -5.11921 0
M  V30 6677 H 628.214 0.318824 -2.97698 0
M  V30 6678 H 625.76 0.151911 -1.43196 0
M  V30 6679 H 627.713 2.74584 -3.19659 0
M  V30 6680 H 626.437 2.61161 -1.96118 0
M  V30 6681 H 625.096 1.12424 -3.48936 0
M  V30 6682 H 624.744 3.6002 -3.51276 0
M  V30 6683 H 624.444 2.88743 -5.11763 0
M  V30 6684 H 625.968 3.76627 -4.80608 0
M  V30 6685 H 627.382 1.60467 -5.50385 0
M  V30 6686 H 625.779 0.936454 -5.92748 0
M  V30 6687 H 626.849 0.0227421 -4.84895 0
M  V30 6688 N 628.193 1.56834 0.155195 0
M  V30 6689 C 629.433 1.84701 0.875488 0
M  V30 6690 C 629.797 0.701747 1.78716 0
M  V30 6691 O 630.998 0.861263 2.54629 0
M  V30 6692 C 629.269 3.1773 1.63654 0
M  V30 6693 S 630.828 3.67128 2.40338 0
M  V30 6694 H 627.646 0.647856 0.292923 0
M  V30 6695 H 630.248 1.95026 0.136024 0
M  V30 6696 H 628.952 3.99059 0.958117 0
M  V30 6697 H 628.483 3.10388 2.41708 0
M  V30 6698 H 630.498 3.35739 3.65368 0
M  V30 6699 N 629.671 -0.424282 1.51781 0
M  V30 6700 C 630.948 -1.18464 1.55646 0
M  V30 6701 C 631.328 -2.08529 0.328438 0
M  V30 6702 O 630.676 -2.17969 -0.685693 0
M  V30 6703 C 630.886 -1.97514 2.87731 0
M  V30 6704 C 632.234 -2.54106 3.40169 0
M  V30 6705 O 633.258 -2.07711 2.89369 0
M  V30 6706 O 632.117 -3.38759 4.28841 0
M  V30 6707 H 629.211 -0.540055 0.626314 0
M  V30 6708 H 631.757 -0.432291 1.64102 0
M  V30 6709 H 630.529 -1.31444 3.68562 0
M  V30 6710 H 630.152 -2.79787 2.82498 0
M  V30 6711 N 631.149 -1.42148 -0.680565 0
M  V30 6712 C 632.112 -1.4488 -1.77602 0
M  V30 6713 C 633.112 -0.337209 -1.57224 0
M  V30 6714 O 634.302 -0.597778 -1.63622 0
M  V30 6715 C 631.434 -1.27483 -3.16166 0
M  V30 6716 H 632.627 -2.42412 -1.76568 0
M  V30 6717 H 630.18 -1.28511 -0.889645 0
M  V30 6718 H 630.915 -0.30851 -3.22829 0
M  V30 6719 H 630.7 -2.08037 -3.3236 0
M  V30 6720 H 632.19 -1.32265 -3.96101 0
M  V30 6721 N 632.627 0.916307 -1.28225 0
M  V30 6722 C 633.56 2.01954 -1.06254 0
M  V30 6723 C 634.538 1.62587 0.0205983 0
M  V30 6724 O 635.722 1.88073 -0.126824 0
M  V30 6725 C 632.849 3.33086 -0.614141 0
M  V30 6726 C 631.895 3.91435 -1.69354 0
M  V30 6727 S 632.728 4.22603 -3.28887 0
M  V30 6728 C 633.884 5.568 -2.85876 0
M  V30 6729 H 634.117 2.20281 -1.99659 0
M  V30 6730 H 631.65 1.06085 -1.12184 0
M  V30 6731 H 633.608 4.089 -0.36213 0
M  V30 6732 H 632.269 3.12664 0.300036 0
M  V30 6733 H 631.462 4.86098 -1.33136 0
M  V30 6734 H 631.064 3.22248 -1.89821 0
M  V30 6735 H 633.356 6.3658 -2.31888 0
M  V30 6736 H 634.299 5.97927 -3.79326 0
M  V30 6737 H 634.707 5.17865 -2.24669 0
M  V30 6738 N 634.105 1.10431 1.1244 0
M  V30 6739 C 635.052 0.753103 2.18167 0
M  V30 6740 C 636.022 -0.270549 1.63882 0
M  V30 6741 O 637.207 -0.149837 1.90211 0
M  V30 6742 C 634.347 0.191046 3.44571 0
M  V30 6743 C 633.46 1.26999 4.12911 0
M  V30 6744 C 632.595 0.669586 5.26963 0
M  V30 6745 C 631.634 1.72912 5.87169 0
M  V30 6746 N 630.771 1.14898 6.92635 0
M  V30 6747 H 635.611 1.65892 2.47556 0
M  V30 6748 H 633.148 0.828631 1.21541 0
M  V30 6749 H 635.106 -0.152712 4.1692 0
M  V30 6750 H 633.736 -0.677997 3.15599 0
M  V30 6751 H 632.788 1.73087 3.3874 0
M  V30 6752 H 634.1 2.07204 4.53727 0
M  V30 6753 H 633.254 0.275274 6.06075 0
M  V30 6754 H 631.993 -0.163895 4.87425 0
M  V30 6755 H 630.998 2.13286 5.06744 0
M  V30 6756 H 632.223 2.56544 6.28778 0
M  V30 6757 H 630.169 0.336956 6.55134 0
M  V30 6758 H 630.086 1.88786 7.32049 0
M  V30 6759 H 631.354 0.78121 7.75576 0
M  V30 6760 N 635.583 -1.29855 0.893053 0
M  V30 6761 C 636.994 -1.77946 0.564998 0
M  V30 6762 C 637.345 -1.73339 -0.919134 0
M  V30 6763 O 636.47 -1.3152 -1.71847 0
M  V30 6764 C 637.065 -3.23118 1.01883 0
M  V30 6765 C 635.624 -3.69013 0.742051 0
M  V30 6766 C 634.771 -2.50121 1.19727 0
M  V30 6767 H 637.722 -1.16611 1.07646 0
M  V30 6768 H 637.743 -3.78875 0.351249 0
M  V30 6769 H 637.255 -3.26439 2.09903 0
M  V30 6770 H 635.356 -3.71173 -0.325816 0
M  V30 6771 H 635.469 -4.60117 1.33527 0
M  V30 6772 H 633.833 -2.47128 0.616418 0
M  V30 6773 H 634.616 -2.56174 2.28538 0
M  V30 6774 N 637.061 -0.65484 -1.43351 0
M  V30 6775 C 638.31 -0.166215 -2.01014 0
M  V30 6776 C 638.623 1.22764 -1.52278 0
M  V30 6777 O 639.829 1.81156 -2.02224 0
M  V30 6778 C 638.285 -0.246341 -3.59056 0
M  V30 6779 C 637.893 -1.64299 -4.16785 0
M  V30 6780 C 639.637 0.184597 -4.24098 0
M  V30 6781 C 637.544 -1.67695 -5.67126 0
M  V30 6782 H 636.474 -0.0583769 -0.751737 0
M  V30 6783 H 639.125 -0.817111 -1.64303 0
M  V30 6784 H 637.507 0.472092 -3.93176 0
M  V30 6785 H 638.681 -2.3869 -3.94162 0
M  V30 6786 H 636.996 -2.02004 -3.6412 0
M  V30 6787 H 639.593 0.179088 -5.344 0
M  V30 6788 H 639.936 1.21632 -3.98135 0
M  V30 6789 H 640.469 -0.482141 -3.94867 0
M  V30 6790 H 637.208 -2.68783 -5.9786 0
M  V30 6791 H 636.728 -0.976313 -5.91801 0
M  V30 6792 H 638.407 -1.42142 -6.31193 0
M  V30 6793 N 638.539 1.52521 -0.396863 0
M  V30 6794 C 639.816 1.94112 0.240842 0
M  V30 6795 C 640.196 1.33288 1.637 0
M  V30 6796 O 639.544 0.503901 2.22875 0
M  V30 6797 C 639.754 3.48033 0.259567 0
M  V30 6798 C 641.102 4.21822 0.484866 0
M  V30 6799 O 642.126 3.54579 0.339453 0
M  V30 6800 O 640.985 5.41042 0.770412 0
M  V30 6801 H 638.079 0.812973 0.151671 0
M  V30 6802 H 640.625 1.63572 -0.451918 0
M  V30 6803 H 639.397 3.84655 -0.718078 0
M  V30 6804 H 639.02 3.84899 0.996937 0
M  V30 6805 N 640.017 0.126909 1.57088 0
M  V30 6806 C 641.265 -0.528123 1.95078 0
M  V30 6807 C 641.586 -1.66708 1.0116 0
M  V30 6808 O 640.856 -1.95777 0.0693527 0
M  V30 6809 H 639.436 -0.198087 0.720257 0
M  V30 6810 H 642.098 0.197703 1.93895 0
M  V30 6811 H 641.194 -0.917507 2.98309 0
M  V30 6812 N 641.495 -1.56914 -0.146875 0
M  V30 6813 C 642.911 -1.51582 -0.499518 0
M  V30 6814 C 643.111 -0.83535 -1.83369 0
M  V30 6815 O 642.167 -0.405932 -2.49216 0
M  V30 6816 C 643.48 -2.96349 -0.509711 0
M  V30 6817 C 645.028 -3.07288 -0.595217 0
M  V30 6818 C 645.503 -4.53562 -0.636071 0
M  V30 6819 N 646.994 -4.57906 -0.69829 0
M  V30 6820 C 647.729 -5.68462 -0.750886 0
M  V30 6821 N 647.225 -6.88588 -0.76282 0
M  V30 6822 N 649.018 -5.56496 -0.791777 0
M  V30 6823 H 641.169 -1.99547 0.727656 0
M  V30 6824 H 643.432 -0.910113 0.265327 0
M  V30 6825 H 643.138 -3.4939 0.402409 0
M  V30 6826 H 643.012 -3.52307 -1.34758 0
M  V30 6827 H 645.399 -2.54266 -1.49776 0
M  V30 6828 H 645.48 -2.54373 0.2698 0
M  V30 6829 H 645.124 -5.07222 0.262313 0
M  V30 6830 H 645.054 -5.04259 -1.51758 0
M  V30 6831 H 647.545 -3.71429 -0.696362 0
M  V30 6832 H 647.858 -7.68598 -0.804804 0
M  V30 6833 H 646.203 -6.91148 -0.730694 0
M  V30 6834 H 649.394 -4.61562 -0.779624 0
M  V30 6835 H 649.567 -6.42671 -0.829301 0
M  V30 6836 N 642.974 0.416227 -1.52004 0
M  V30 6837 C 643.921 1.50666 -1.74838 0
M  V30 6838 C 644.891 1.55245 -0.590599 0
M  V30 6839 O 646.076 1.71928 -0.827374 0
M  V30 6840 C 643.216 2.88185 -1.89851 0
M  V30 6841 C 642.329 2.92971 -3.17478 0
M  V30 6842 C 641.464 4.21745 -3.22962 0
M  V30 6843 C 640.503 4.20478 -4.4482 0
M  V30 6844 N 639.64 5.40811 -4.47736 0
M  V30 6845 H 644.48 1.30498 -2.67907 0
M  V30 6846 H 642.017 0.633568 -1.32757 0
M  V30 6847 H 643.975 3.68007 -1.96537 0
M  V30 6848 H 642.605 3.06865 -1.00169 0
M  V30 6849 H 641.657 2.05684 -3.19997 0
M  V30 6850 H 642.969 2.87899 -4.07328 0
M  V30 6851 H 642.123 5.09954 -3.28682 0
M  V30 6852 H 640.862 4.29503 -2.31038 0
M  V30 6853 H 639.867 3.30659 -4.39254 0
M  V30 6854 H 641.092 4.14366 -5.38031 0
M  V30 6855 H 639.038 5.4925 -3.58692 0
M  V30 6856 H 638.955 5.37705 -5.31422 0
M  V30 6857 H 640.223 6.30993 -4.57676 0
M  V30 6858 N 644.452 1.42507 0.673017 0
M  V30 6859 C 645.382 1.48916 1.79851 0
M  V30 6860 C 646.363 0.345566 1.66553 0
M  V30 6861 O 647.548 0.560116 1.85947 0
M  V30 6862 C 644.678 1.39258 3.18158 0
M  V30 6863 C 643.632 2.51662 3.46194 0
M  V30 6864 C 642.958 2.27062 4.84094 0
M  V30 6865 C 644.258 3.93968 3.42909 0
M  V30 6866 H 645.952 2.43114 1.74745 0
M  V30 6867 H 643.498 1.17013 0.839288 0
M  V30 6868 H 645.451 1.42349 3.96629 0
M  V30 6869 H 644.175 0.415542 3.23946 0
M  V30 6870 H 642.834 2.47891 2.70084 0
M  V30 6871 H 642.482 1.27648 4.86534 0
M  V30 6872 H 642.182 3.02398 5.03815 0
M  V30 6873 H 643.706 2.31905 5.64847 0
M  V30 6874 H 645.12 3.99332 4.11347 0
M  V30 6875 H 643.517 4.6917 3.74165 0
M  V30 6876 H 644.587 4.20512 2.41449 0
M  V30 6877 N 645.93 -0.909495 1.28709 0
M  V30 6878 C 646.86 -2.0291 1.15542 0
M  V30 6879 C 647.841 -1.7002 0.0521017 0
M  V30 6880 O 649.026 -1.92835 0.229849 0
M  V30 6881 C 646.156 -3.37458 0.820935 0
M  V30 6882 C 645.11 -3.84524 1.87949 0
M  V30 6883 C 644.436 -5.16086 1.39854 0
M  V30 6884 C 645.736 -4.05918 3.28676 0
M  V30 6885 H 647.43 -2.14183 2.09203 0
M  V30 6886 H 644.976 -1.02913 1.00722 0
M  V30 6887 H 646.929 -4.1528 0.715571 0
M  V30 6888 H 645.653 -3.26249 -0.151374 0
M  V30 6889 H 644.312 -3.08911 1.97408 0
M  V30 6890 H 643.96 -5.01284 0.41518 0
M  V30 6891 H 643.66 -5.48547 2.1064 0
M  V30 6892 H 645.184 -5.96459 1.30649 0
M  V30 6893 H 646.598 -4.74252 3.22115 0
M  V30 6894 H 644.995 -4.49717 3.97334 0
M  V30 6895 H 646.065 -3.10583 3.72379 0
M  V30 6896 N 647.408 -1.11026 -1.11852 0
M  V30 6897 C 648.318 -0.777252 -2.2135 0
M  V30 6898 C 649.334 0.227821 -1.72502 0
M  V30 6899 O 650.51 0.0650587 -2.01295 0
M  V30 6900 C 647.575 -0.220668 -3.45997 0
M  V30 6901 C 646.636 -1.2838 -4.09655 0
M  V30 6902 C 645.869 -0.753678 -5.28352 0
M  V30 6903 O 646.092 0.417779 -5.68868 0
M  V30 6904 O 645.026 -1.51647 -5.82483 0
M  V30 6905 H 648.852 -1.69141 -2.5224 0
M  V30 6906 H 646.437 -0.885836 -1.20305 0
M  V30 6907 H 648.319 0.0855756 -4.21313 0
M  V30 6908 H 646.994 0.666262 -3.16769 0
M  V30 6909 H 645.901 -1.64299 -3.3609 0
M  V30 6910 H 647.234 -2.14396 -4.43052 0
M  V30 6911 N 648.886 1.2938 -0.899927 0
M  V30 6912 C 650.111 2.00228 -0.540692 0
M  V30 6913 C 650.536 1.66909 0.867359 0
M  V30 6914 O 649.894 0.893824 1.57735 0
M  V30 6915 C 649.942 3.52921 -0.740232 0
M  V30 6916 O 649.046 4.11879 0.207154 0
M  V30 6917 H 648.387 0.629505 -0.211233 0
M  V30 6918 H 650.917 1.6487 -1.21158 0
M  V30 6919 H 650.927 4.0287 -0.644973 0
M  V30 6920 H 649.602 3.76508 -1.76677 0
M  V30 6921 H 648.179 3.72845 0.0643315 0
M  V30 6922 N 650.364 0.662433 1.43002 0
M  V30 6923 C 651.294 -0.00979809 2.33498 0
M  V30 6924 C 652.275 -0.802329 1.49989 0
M  V30 6925 O 653.46 -0.761964 1.78627 0
M  V30 6926 C 650.59 -0.970446 3.33466 0
M  V30 6927 C 649.544 -0.287383 4.27034 0
M  V30 6928 C 648.87 -1.36012 5.17112 0
M  V30 6929 C 650.17 0.82595 5.15728 0
M  V30 6930 H 651.864 0.745959 2.89958 0
M  V30 6931 H 649.41 0.360172 1.39423 0
M  V30 6932 H 651.363 -1.44971 3.95679 0
M  V30 6933 H 650.087 -1.75748 2.75282 0
M  V30 6934 H 648.746 0.17152 3.66199 0
M  V30 6935 H 648.394 -2.13882 4.55262 0
M  V30 6936 H 648.094 -0.908276 5.80538 0
M  V30 6937 H 649.618 -1.84056 5.82199 0
M  V30 6938 H 651.032 0.42845 5.71697 0
M  V30 6939 H 649.429 1.20282 5.87922 0
M  V30 6940 H 650.499 1.68003 4.54866 0
M  V30 6941 N 651.842 -1.52309 0.404946 0
M  V30 6942 C 652.775 -2.23369 -0.467087 0
M  V30 6943 C 653.753 -1.24034 -1.0514 0
M  V30 6944 O 654.937 -1.53071 -1.10006 0
M  V30 6945 C 652.064 -2.95906 -1.64795 0
M  V30 6946 C 651.11 -4.09637 -1.18743 0
M  V30 6947 S 651.943 -5.35273 -0.156022 0
M  V30 6948 C 653.099 -6.11337 -1.34231 0
M  V30 6949 H 653.332 -2.96987 0.136294 0
M  V30 6950 H 650.865 -1.53236 0.189219 0
M  V30 6951 H 652.823 -3.38304 -2.3251 0
M  V30 6952 H 651.484 -2.21937 -2.22267 0
M  V30 6953 H 650.677 -4.59549 -2.06955 0
M  V30 6954 H 650.279 -3.69333 -0.588981 0
M  V30 6955 H 652.571 -6.38458 -2.26665 0
M  V30 6956 H 653.514 -7.02563 -0.883804 0
M  V30 6957 H 653.922 -5.42338 -1.56621 0
M  V30 6958 N 653.32 -0.135238 -1.57019 0
M  V30 6959 C 654.267 0.808908 -2.1616 0
M  V30 6960 C 655.237 1.25234 -1.09113 0
M  V30 6961 O 656.422 1.32697 -1.37099 0
M  V30 6962 C 653.562 2.04729 -2.77813 0
M  V30 6963 C 652.675 1.65074 -3.99218 0
M  V30 6964 C 651.81 2.84002 -4.48906 0
M  V30 6965 C 650.849 2.40663 -5.62803 0
M  V30 6966 N 649.986 3.5256 -6.07162 0
M  V30 6967 H 654.826 0.297751 -2.96509 0
M  V30 6968 H 652.363 0.135264 -1.46477 0
M  V30 6969 H 654.321 2.7731 -3.11697 0
M  V30 6970 H 652.951 2.53275 -2.00128 0
M  V30 6971 H 652.003 0.823029 -3.7139 0
M  V30 6972 H 653.315 1.29236 -4.81767 0
M  V30 6973 H 652.469 3.64788 -4.84783 0
M  V30 6974 H 651.208 3.23076 -3.65339 0
M  V30 6975 H 650.213 1.58314 -5.26514 0
M  V30 6976 H 651.438 2.02687 -6.48147 0
M  V30 6977 H 649.384 3.91278 -5.26534 0
M  V30 6978 H 649.301 3.20699 -6.84608 0
M  V30 6979 H 650.569 4.33738 -6.47682 0
M  V30 6980 N 654.798 1.5699 0.138552 0
M  V30 6981 C 656.026 1.87976 0.864437 0
M  V30 6982 C 656.441 0.724372 1.74351 0
M  V30 6983 O 655.798 -0.305575 1.79924 0
M  V30 6984 C 655.849 3.18276 1.71414 0
M  V30 6985 O 655.57 4.29365 0.870487 0
M  V30 6986 C 657.071 3.62834 2.54688 0
M  V30 6987 H 654.291 0.622878 0.249528 0
M  V30 6988 H 656.835 2.04094 0.128805 0
M  V30 6989 H 654.99 3.03886 2.40274 0
M  V30 6990 H 655.404 5.03924 1.45466 0
M  V30 6991 H 656.878 4.5682 3.0987 0
M  V30 6992 H 657.355 2.88533 3.31127 0
M  V30 6993 H 657.961 3.79946 1.91105 0
M  V30 6994 N 656.276 -0.40816 1.52223 0
M  V30 6995 C 657.224 -1.51788 1.76248 0
M  V30 6996 C 658.218 -1.57264 0.629638 0
M  V30 6997 O 659.424 -1.60659 0.811704 0
M  V30 6998 H 655.799 -0.504823 0.557367 0
M  V30 6999 H 657.77 -1.2871 2.69214 0
M  V30 7000 C 656.519 -2.89145 1.93107 0
M  V30 7001 H 655.842 -2.85674 2.79697 0
M  V30 7002 H 657.282 -3.66082 2.13916 0
M  V30 7003 C 655.741 -3.29581 0.698431 0
M  V30 7004 O 656.271 -4.01479 -0.133238 0
M  V30 7005 N 654.477 -2.85651 0.53405 0
M  V30 7006 H 654.024 -2.2731 1.21194 0
M  V30 7007 H 653.982 -3.13065 -0.289387 0
M  V30 7008 N 657.755 -1.42862 -0.66545 0
M  V30 7009 C 659.002 -1.4383 -1.42546 0
M  V30 7010 C 659.33 -0.0581114 -1.94413 0
M  V30 7011 O 658.585 0.935002 -1.71919 0
M  V30 7012 C 658.884 -2.4175 -2.63233 0
M  V30 7013 C 658.55 -3.87915 -2.29854 0
M  V30 7014 C 657.212 -4.27726 -2.20463 0
M  V30 7015 C 659.564 -4.80074 -2.02924 0
M  V30 7016 C 656.892 -5.57666 -1.82279 0
M  V30 7017 C 659.244 -6.10366 -1.66242 0
M  V30 7018 C 657.908 -6.49167 -1.55367 0
M  V30 7019 H 657.178 -0.52631 -0.521612 0
M  V30 7020 H 659.825 -1.75863 -0.757914 0
M  V30 7021 H 658.13 -2.03077 -3.35063 0
M  V30 7022 H 659.827 -2.39759 -3.21429 0
M  V30 7023 H 656.417 -3.564 -2.3807 0
M  V30 7024 H 660.601 -4.50097 -2.09108 0
M  V30 7025 H 655.857 -5.8658 -1.72436 0
M  V30 7026 H 660.031 -6.81258 -1.44432 0
M  V30 7027 H 657.658 -7.49761 -1.2555 0
M  V30 7028 N 659.233 0.902656 -1.29189 0
M  V30 7029 C 660.461 1.68639 -1.19869 0
M  V30 7030 C 660.876 1.87254 0.241121 0
M  V30 7031 O 660.233 1.40745 1.16177 0
M  V30 7032 C 660.284 3.07251 -1.90471 0
M  V30 7033 O 660.005 2.89488 -3.28829 0
M  V30 7034 C 661.506 4.01653 -1.8759 0
M  V30 7035 H 658.726 0.526802 -0.415596 0
M  V30 7036 H 661.27 1.12901 -1.7051 0
M  V30 7037 H 659.425 3.59774 -1.43672 0
M  V30 7038 H 659.839 3.77296 -3.64346 0
M  V30 7039 H 661.313 4.96339 -2.4156 0
M  V30 7040 H 661.79 4.30881 -0.850756 0
M  V30 7041 H 662.396 3.55061 -2.34119 0
M  V30 7042 N 660.711 1.11618 1.11262 0
M  V30 7043 C 661.959 0.864469 1.82678 0
M  V30 7044 C 662.28 -0.611564 1.85162 0
M  V30 7045 O 661.55 -1.44429 1.32352 0
M  V30 7046 H 660.13 0.316821 0.676486 0
M  V30 7047 H 662.792 1.40894 1.34666 0
M  V30 7048 H 661.888 1.23832 2.86482 0
M  V30 7049 N 662.189 -1.289 0.906776 0
M  V30 7050 C 663.435 -1.95558 0.53712 0
M  V30 7051 C 663.768 -1.71262 -0.915582 0
M  V30 7052 O 663.043 -1.02961 -1.65013 0
M  V30 7053 C 663.326 -3.50198 0.838645 0
M  V30 7054 C 663.179 -3.83923 2.34357 0
M  V30 7055 C 664.498 -4.38861 0.329988 0
M  V30 7056 H 661.617 -0.710289 0.196617 0
M  V30 7057 H 664.259 -1.52392 1.13475 0
M  V30 7058 H 662.409 -3.87096 0.330024 0
M  V30 7059 H 664.081 -3.56933 2.92227 0
M  V30 7060 H 662.324 -3.31215 2.80141 0
M  V30 7061 H 662.995 -4.91883 2.5051 0
M  V30 7062 H 665.471 -4.08996 0.765609 0
M  V30 7063 H 664.347 -5.45931 0.570105 0
M  V30 7064 H 664.608 -4.35352 -0.769511 0
M  V30 7065 N 663.667 -0.670007 -1.42649 0
M  V30 7066 C 664.892 -0.196955 -2.06463 0
M  V30 7067 C 665.317 1.1352 -1.49983 0
M  V30 7068 O 664.675 1.705 -0.616397 0
M  V30 7069 C 664.723 -0.137381 -3.60338 0
M  V30 7070 O 663.827 0.895523 -4.02559 0
M  V30 7071 H 663.168 -0.102579 -0.656029 0
M  V30 7072 H 665.698 -0.917669 -1.82866 0
M  V30 7073 H 665.708 0.0403625 -4.0798 0
M  V30 7074 H 664.383 -1.10977 -4.0082 0
M  V30 7075 H 662.96 0.689209 -3.66476 0
M  V30 7076 N 665.145 1.52092 -0.413018 0
M  V30 7077 C 666.393 2.01456 0.161178 0
M  V30 7078 C 666.714 1.30034 1.45314 0
M  V30 7079 O 665.984 0.427435 1.9118 0
M  V30 7080 H 664.564 0.744376 0.0625526 0
M  V30 7081 H 667.226 1.86974 -0.550151 0
M  V30 7082 H 666.322 3.1008 0.354517 0
M  V30 7083 N 666.623 0.143563 1.56945 0
M  V30 7084 C 667.9 -0.553285 1.87612 0
M  V30 7085 C 668.28 -1.83195 1.04894 0
M  V30 7086 O 667.628 -2.28102 0.134773 0
M  V30 7087 C 667.838 -0.822055 3.3918 0
M  V30 7088 C 669.186 -1.16435 4.08324 0
M  V30 7089 O 670.21 -0.911522 3.4434 0
M  V30 7090 O 669.069 -1.63996 5.21313 0
M  V30 7091 H 666.163 -0.281851 0.777489 0
M  V30 7092 H 668.709 0.179916 1.68744 0
M  V30 7093 H 667.481 0.0830265 3.91212 0
M  V30 7094 H 667.104 -1.60956 3.63564 0
M  V30 7095 N 668.101 -1.57061 -0.130224 0
M  V30 7096 C 669.329 -1.88432 -0.854456 0
M  V30 7097 C 669.744 -0.733608 -1.73964 0
M  V30 7098 O 669.101 0.296029 -1.80083 0
M  V30 7099 C 669.152 -3.1918 -1.69724 0
M  V30 7100 O 668.873 -4.2982 -0.847705 0
M  V30 7101 C 670.374 -3.6418 -2.5276 0
M  V30 7102 H 667.594 -0.624193 -0.246221 0
M  V30 7103 H 670.138 -2.04159 -0.11798 0
M  V30 7104 H 668.293 -3.05156 -2.3866 0
M  V30 7105 H 668.707 -5.04689 -1.42792 0
M  V30 7106 H 670.181 -4.58457 -3.07443 0
M  V30 7107 H 670.658 -2.90285 -3.29592 0
M  V30 7108 H 671.264 -3.80954 -1.89087 0
M  V30 7109 N 669.579 0.400081 -1.52437 0
M  V30 7110 C 670.828 1.14332 -1.66166 0
M  V30 7111 C 671.141 1.91419 -0.402253 0
M  V30 7112 O 672.347 2.6824 -0.419487 0
M  V30 7113 C 670.803 2.08137 -2.9361 0
M  V30 7114 C 670.411 1.36524 -4.26691 0
M  V30 7115 C 672.155 2.82664 -3.16703 0
M  V30 7116 C 670.062 2.29031 -5.45251 0
M  V30 7117 H 668.992 0.430499 -0.61902 0
M  V30 7118 H 671.643 0.407017 -1.78929 0
M  V30 7119 H 670.025 2.85358 -2.74567 0
M  V30 7120 H 671.199 0.646061 -4.56249 0
M  V30 7121 H 669.514 0.74002 -4.09771 0
M  V30 7122 H 672.111 3.52037 -4.0246 0
M  V30 7123 H 672.454 3.46122 -2.31312 0
M  V30 7124 H 672.987 2.12541 -3.36261 0
M  V30 7125 H 669.726 1.70206 -6.33017 0
M  V30 7126 H 669.246 2.98896 -5.2002 0
M  V30 7127 H 670.925 2.89359 -5.78689 0
M  V30 7128 N 671.057 1.43213 0.657864 0
M  V30 7129 C 671.987 1.50815 1.78262 0
M  V30 7130 C 672.968 0.363211 1.66177 0
M  V30 7131 O 674.153 0.579806 1.85343 0
M  V30 7132 C 671.283 1.42625 3.16663 0
M  V30 7133 C 670.237 2.5532 3.43505 0
M  V30 7134 C 669.563 2.32184 4.81658 0
M  V30 7135 C 670.863 3.97583 3.38711 0
M  V30 7136 H 672.557 2.44954 1.72157 0
M  V30 7137 H 670.103 1.17896 0.82683 0
M  V30 7138 H 672.056 1.46548 3.95097 0
M  V30 7139 H 670.78 0.449877 3.23487 0
M  V30 7140 H 669.439 2.50742 2.6744 0
M  V30 7141 H 669.087 1.32801 4.85153 0
M  V30 7142 H 668.787 3.07724 5.00579 0
M  V30 7143 H 670.311 2.37883 5.62356 0
M  V30 7144 H 671.725 4.03673 4.07089 0
M  V30 7145 H 670.122 4.73112 3.69168 0
M  V30 7146 H 671.192 4.23049 2.36976 0
M  V30 7147 N 672.536 -0.895792 1.29666 0
M  V30 7148 C 673.783 -1.64664 1.17864 0
M  V30 7149 C 674.111 -1.92631 -0.26902 0
M  V30 7150 O 673.366 -1.53787 -1.21029 0
M  V30 7151 C 673.665 -3.00075 1.94139 0
M  V30 7152 C 673.331 -2.91702 3.43833 0
M  V30 7153 C 671.993 -2.89126 3.84656 0
M  V30 7154 C 674.345 -2.80622 4.39205 0
M  V30 7155 C 671.673 -2.73293 5.1916 0
M  V30 7156 C 674.025 -2.66329 5.73805 0
M  V30 7157 C 672.689 -2.62121 6.1388 0
M  V30 7158 H 671.959 -0.602549 0.431295 0
M  V30 7159 H 674.606 -1.04234 1.60648 0
M  V30 7160 H 672.911 -3.64394 1.43958 0
M  V30 7161 H 674.608 -3.57111 1.82408 0
M  V30 7162 H 671.198 -2.94511 3.11386 0
M  V30 7163 H 675.382 -2.81686 4.08615 0
M  V30 7164 H 670.638 -2.68443 5.49316 0
M  V30 7165 H 674.812 -2.56727 6.47352 0
M  V30 7166 H 672.439 -2.49611 7.18052 0
M  V30 7167 N 674.014 -1.12206 -1.10668 0
M  V30 7168 C 675.291 -0.787382 -1.79052 0
M  V30 7169 C 675.671 0.723267 -1.98323 0
M  V30 7170 O 675.019 1.6561 -1.57434 0
M  V30 7171 C 675.229 -1.55968 -3.1221 0
M  V30 7172 C 676.577 -1.74413 -3.87125 0
M  V30 7173 O 677.601 -1.5246 -3.21923 0
M  V30 7174 O 676.46 -2.10952 -5.04144 0
M  V30 7175 H 673.554 -0.286137 -0.775922 0
M  V30 7176 H 676.1 -1.22595 -1.1734 0
M  V30 7177 H 674.872 -2.58692 -2.93588 0
M  V30 7178 H 674.495 -1.1152 -3.8164 0
M  V30 7179 N 675.492 1.28418 -0.913599 0
M  V30 7180 C 676.402 2.31043 -0.406965 0
M  V30 7181 C 677.418 1.66501 0.505298 0
M  V30 7182 O 678.594 1.97558 0.391522 0
M  V30 7183 C 675.659 3.4498 0.344901 0
M  V30 7184 C 674.72 4.25078 -0.600563 0
M  V30 7185 C 673.953 5.33575 0.115516 0
M  V30 7186 O 674.176 5.54503 1.33727 0
M  V30 7187 O 673.11 5.9939 -0.549095 0
M  V30 7188 H 676.936 2.76387 -1.25873 0
M  V30 7189 H 674.521 1.33109 -0.678415 0
M  V30 7190 H 676.403 4.14314 0.769542 0
M  V30 7191 H 675.078 3.01719 1.1725 0
M  V30 7192 H 673.985 3.58334 -1.0746 0
M  V30 7193 H 675.318 4.72018 -1.39497 0
M  V30 7194 N 676.97 0.677563 1.42291 0
M  V30 7195 C 677.918 -0.0106755 2.32598 0
M  V30 7196 C 678.912 -0.787643 1.49975 0
M  V30 7197 O 680.118 -0.695295 1.66029 0
M  V30 7198 H 676.493 -0.0222482 0.751671 0
M  V30 7199 H 678.464 0.768312 2.88339 0
M  V30 7200 C 677.213 -0.946142 3.3458 0
M  V30 7201 H 676.536 -0.357701 3.98197 0
M  V30 7202 H 677.976 -1.39634 4.00348 0
M  V30 7203 C 676.435 -2.05383 2.67057 0
M  V30 7204 O 676.965 -3.1406 2.50458 0
M  V30 7205 N 675.171 -1.82635 2.26038 0
M  V30 7206 H 674.718 -0.942534 2.39737 0
M  V30 7207 H 674.676 -2.56937 1.81192 0
M  V30 7208 N 678.448 -1.51871 0.421078 0
M  V30 7209 C 679.696 -2.01539 -0.150492 0
M  V30 7210 C 680.017 -1.30803 -1.44623 0
M  V30 7211 O 679.287 -0.437568 -1.90951 0
M  V30 7212 H 677.867 -0.744698 -0.0586041 0
M  V30 7213 H 680.529 -1.8668 0.560059 0
M  V30 7214 H 679.625 -3.10264 -0.338068 0
M  V30 7215 N 679.926 -0.151884 -1.56866 0
M  V30 7216 C 681.203 0.543328 -1.87902 0
M  V30 7217 C 681.583 1.82636 -1.05864 0
M  V30 7218 O 680.931 2.28028 -0.146868 0
M  V30 7219 C 681.141 0.804056 -3.39611 0
M  V30 7220 C 682.489 1.14267 -4.08935 0
M  V30 7221 O 683.513 0.893248 -3.44818 0
M  V30 7222 O 682.372 1.61229 -5.22176 0
M  V30 7223 H 679.466 0.277724 -0.778973 0
M  V30 7224 H 682.012 -0.188862 -1.68646 0
M  V30 7225 H 680.784 -0.103772 -3.91162 0
M  V30 7226 H 680.407 1.59025 -3.64413 0
M  V30 7227 N 681.404 1.57128 0.121893 0
M  V30 7228 C 682.629 1.89254 0.848385 0
M  V30 7229 C 683.054 0.743527 1.72781 0
M  V30 7230 O 682.412 -0.306056 1.78698 0
M  V30 7231 C 682.46 3.20113 1.66012 0
M  V30 7232 O 681.564 3.05815 2.76679 0
M  V30 7233 H 680.905 0.621103 0.234793 0
M  V30 7234 H 683.435 2.0433 0.10516 0
M  V30 7235 H 683.445 3.52761 2.04996 0
M  V30 7236 H 682.12 4.03336 1.01452 0
M  V30 7237 H 680.697 2.84627 2.40918 0
M  V30 7238 N 682.882 -0.391992 1.52647 0
M  V30 7239 C 684.293 -0.970064 1.5952 0
M  V30 7240 C 684.644 -1.91059 0.446207 0
M  V30 7241 O 683.769 -2.12062 -0.431125 0
M  V30 7242 C 684.364 -1.76614 2.89125 0
M  V30 7243 C 682.923 -2.29396 2.9842 0
M  V30 7244 C 682.07 -1.09864 2.54608 0
M  V30 7245 H 685.021 -0.171638 1.57769 0
M  V30 7246 H 685.042 -2.62511 2.75442 0
M  V30 7247 H 684.554 -1.08135 3.72731 0
M  V30 7248 H 682.655 -3.01196 2.19344 0
M  V30 7249 H 682.768 -2.59088 4.03002 0
M  V30 7250 H 681.132 -1.45777 2.08857 0
M  V30 7251 H 681.915 -0.429249 3.40606 0
M  V30 7252 N 684.36 -1.4356 -0.65026 0
M  V30 7253 C 685.608 -1.45046 -1.40734 0
M  V30 7254 C 685.929 -0.0769822 -1.94848 0
M  V30 7255 O 685.199 0.888098 -1.74613 0
M  V30 7256 H 683.779 -0.534034 -0.522318 0
M  V30 7257 H 686.441 -1.79186 -0.766703 0
M  V30 7258 H 685.537 -2.16476 -2.24822 0
M  V30 7259 N 685.838 0.888903 -1.30139 0
M  V30 7260 C 687.254 1.17153 -1.08385 0
M  V30 7261 C 687.454 2.0088 0.157925 0
M  V30 7262 O 686.51 2.37668 0.852652 0
M  V30 7263 C 687.823 1.882 -2.34523 0
M  V30 7264 C 689.371 2.00981 -2.39949 0
M  V30 7265 C 689.846 2.75441 -3.65918 0
M  V30 7266 N 691.337 2.82989 -3.66704 0
M  V30 7267 C 692.072 3.41167 -4.60861 0
M  V30 7268 N 691.568 4.00425 -5.6536 0
M  V30 7269 N 693.361 3.38944 -4.48412 0
M  V30 7270 H 685.512 0.33053 -2.09812 0
M  V30 7271 H 687.775 0.208964 -0.924683 0
M  V30 7272 H 687.481 1.34119 -3.25123 0
M  V30 7273 H 687.355 2.88609 -2.42868 0
M  V30 7274 H 689.742 2.54234 -1.4983 0
M  V30 7275 H 689.823 0.996725 -2.35582 0
M  V30 7276 H 689.467 2.22861 -4.56394 0
M  V30 7277 H 689.397 3.77118 -3.67546 0
M  V30 7278 H 691.888 2.40912 -2.91153 0
M  V30 7279 H 692.201 4.42871 -6.33313 0
M  V30 7280 H 690.546 3.98856 -5.69157 0
M  V30 7281 H 693.737 2.91875 -3.6596 0
M  V30 7282 H 693.91 3.83989 -5.21974 0
M  V30 7283 N 687.317 1.12792 1.10072 0
M  V30 7284 C 688.547 0.907189 1.85617 0
M  V30 7285 C 688.955 -0.547181 1.81115 0
M  V30 7286 O 688.298 -1.39024 1.20075 0
M  V30 7287 C 688.36 1.30872 3.34832 0
M  V30 7288 C 688.024 2.77516 3.6309 0
M  V30 7289 C 689.021 3.75696 3.59373 0
M  V30 7290 C 686.706 3.14513 3.91646 0
M  V30 7291 C 688.7 5.08888 3.83812 0
M  V30 7292 C 686.387 4.47886 4.15742 0
M  V30 7293 C 687.385 5.44882 4.11816 0
M  V30 7294 O 687.073 6.7585 4.35295 0
M  V30 7295 H 686.805 0.323855 0.593375 0
M  V30 7296 H 689.359 1.50262 1.40038 0
M  V30 7297 H 687.589 0.656518 3.81086 0
M  V30 7298 H 689.278 1.06153 3.91773 0
M  V30 7299 H 690.044 3.48458 3.37345 0
M  V30 7300 H 685.923 2.39622 3.93831 0
M  V30 7301 H 689.467 5.84586 3.80663 0
M  V30 7302 H 685.364 4.74851 4.37249 0
M  V30 7303 H 686.132 6.81853 4.52791 0
M  V30 7304 N 688.795 -1.27931 0.920396 0
M  V30 7305 C 689.705 -2.30824 0.419212 0
M  V30 7306 C 690.721 -1.66767 -0.496461 0
M  V30 7307 O 691.897 -1.97763 -0.38104 0
M  V30 7308 C 688.962 -3.45158 -0.326601 0
M  V30 7309 C 688.023 -4.24754 0.623098 0
M  V30 7310 C 687.256 -5.33629 -0.0872172 0
M  V30 7311 O 687.479 -5.55204 -1.30784 0
M  V30 7312 O 686.413 -5.99091 0.580875 0
M  V30 7313 H 690.239 -2.75716 1.27337 0
M  V30 7314 H 687.824 -1.32747 0.685465 0
M  V30 7315 H 689.706 -4.14716 -0.747559 0
M  V30 7316 H 688.381 -3.02336 -1.15648 0
M  V30 7317 H 687.288 -3.57759 1.09359 0
M  V30 7318 H 688.621 -4.71272 1.41998 0
M  V30 7319 N 690.273 -0.685099 -1.4193 0
M  V30 7320 C 691.522 -0.208816 -2.00616 0
M  V30 7321 C 691.835 1.19506 -1.54847 0
M  V30 7322 O 693.041 1.76826 -2.06021 0
M  V30 7323 C 691.497 -0.322446 -3.58453 0
M  V30 7324 C 691.105 -1.73102 -4.13206 0
M  V30 7325 C 692.849 0.0945979 -4.24395 0
M  V30 7326 C 690.756 -1.79687 -5.63442 0
M  V30 7327 H 689.686 -0.0743092 -0.750329 0
M  V30 7328 H 692.337 -0.851778 -1.62533 0
M  V30 7329 H 690.719 0.388588 -3.94089 0
M  V30 7330 H 691.893 -2.46997 -3.8901 0
M  V30 7331 H 690.208 -2.09682 -3.59753 0
M  V30 7332 H 692.805 0.0656937 -5.3466 0
M  V30 7333 H 693.148 1.1316 -4.00625 0
M  V30 7334 H 693.681 -0.56579 -3.93756 0
M  V30 7335 H 690.42 -2.81404 -5.92024 0
M  V30 7336 H 689.94 -1.10162 -5.89597 0
M  V30 7337 H 691.619 -1.55498 -6.28036 0
M  V30 7338 N 691.751 1.51645 -0.429126 0
M  V30 7339 C 692.684 2.24083 0.431492 0
M  V30 7340 C 693.662 1.25691 1.03153 0
M  V30 7341 O 694.846 1.54802 1.07557 0
M  V30 7342 C 691.973 2.9849 1.60067 0
M  V30 7343 C 691.019 4.11474 1.12211 0
M  V30 7344 S 691.852 5.35453 0.0708449 0
M  V30 7345 C 693.008 6.13395 1.24488 0
M  V30 7346 H 693.241 2.96733 -0.183525 0
M  V30 7347 H 690.774 1.52916 -0.213574 0
M  V30 7348 H 692.732 3.4196 2.27099 0
M  V30 7349 H 691.393 2.25445 2.18708 0
M  V30 7350 H 690.586 4.62784 1.99618 0
M  V30 7351 H 690.188 3.70223 0.530149 0
M  V30 7352 H 692.48 6.41984 2.16479 0
M  V30 7353 H 693.423 7.0388 0.771921 0
M  V30 7354 H 693.831 5.44761 1.47973 0
M  V30 7355 N 693.229 0.160201 1.56784 0
M  V30 7356 C 694.177 -0.791402 2.18723 0
M  V30 7357 C 695.171 -1.24567 1.14801 0
M  V30 7358 O 696.377 -1.21262 1.33025 0
M  V30 7359 H 692.752 -0.273458 0.700517 0
M  V30 7360 H 694.723 -0.244931 2.97393 0
M  V30 7361 C 693.472 -2.01509 2.83354 0
M  V30 7362 H 692.795 -1.67454 3.63041 0
M  V30 7363 H 694.235 -2.66006 3.30177 0
M  V30 7364 C 692.694 -2.83159 1.82545 0
M  V30 7365 O 693.224 -3.79944 1.30405 0
M  V30 7366 N 691.43 -2.47953 1.51552 0
M  V30 7367 H 690.977 -1.69309 1.94144 0
M  V30 7368 H 690.935 -3.02873 0.843519 0
M  V30 7369 N 694.707 -1.5719 -0.113559 0
M  V30 7370 C 695.954 -1.85138 -0.820382 0
M  V30 7371 C 696.282 -0.74608 -1.79622 0
M  V30 7372 O 695.537 0.262077 -1.93937 0
M  V30 7373 C 695.836 -3.19593 -1.59984 0
M  V30 7374 C 695.502 -4.44315 -0.767809 0
M  V30 7375 C 694.164 -4.78179 -0.538379 0
M  V30 7376 C 696.516 -5.2086 -0.188203 0
M  V30 7377 C 693.844 -5.86028 0.28082 0
M  V30 7378 C 696.196 -6.29572 0.618217 0
M  V30 7379 C 694.86 -6.61964 0.857912 0
M  V30 7380 H 694.13 -0.677467 -0.300199 0
M  V30 7381 H 696.777 -1.91322 -0.0825443 0
M  V30 7382 H 695.082 -3.0901 -2.40874 0
M  V30 7383 H 696.779 -3.3844 -2.1508 0
M  V30 7384 H 693.369 -4.17786 -0.956724 0
M  V30 7385 H 697.553 -4.95045 -0.352658 0
M  V30 7386 H 692.809 -6.09547 0.475693 0
M  V30 7387 H 696.983 -6.88064 1.0743 0
M  V30 7388 H 694.61 -7.45365 1.49451 0
M  V30 7389 N 696.185 0.383891 -1.52853 0
M  V30 7390 C 697.132 1.46924 -1.77995 0
M  V30 7391 C 698.102 1.53958 -0.623396 0
M  V30 7392 O 699.287 1.70134 -0.863657 0
M  V30 7393 C 696.427 2.84093 -1.95921 0
M  V30 7394 C 695.54 2.86171 -3.23621 0
M  V30 7395 C 694.675 4.14799 -3.31836 0
M  V30 7396 C 693.714 4.10948 -4.53639 0
M  V30 7397 N 692.851 5.31192 -4.59107 0
M  V30 7398 H 697.691 1.24786 -2.70615 0
M  V30 7399 H 695.228 0.605265 -1.34071 0
M  V30 7400 H 697.186 3.63755 -2.04299 0
M  V30 7401 H 695.816 3.04671 -1.06656 0
M  V30 7402 H 694.868 1.9885 -3.24288 0
M  V30 7403 H 696.18 2.79194 -4.13343 0
M  V30 7404 H 695.334 5.02867 -3.39425 0
M  V30 7405 H 694.073 4.24505 -2.40097 0
M  V30 7406 H 693.078 3.21268 -4.46169 0
M  V30 7407 H 694.303 4.0286 -5.467 0
M  V30 7408 H 692.249 5.41518 -3.70262 0
M  V30 7409 H 692.166 5.26311 -5.42708 0
M  V30 7410 H 693.434 6.21143 -4.70958 0
M  V30 7411 N 697.663 1.43903 0.642637 0
M  V30 7412 C 698.573 1.52349 1.78401 0
M  V30 7413 C 699.589 0.409869 1.69104 0
M  V30 7414 O 700.765 0.665548 1.90085 0
M  V30 7415 C 697.83 1.45408 3.14734 0
M  V30 7416 C 696.891 2.67528 3.35749 0
M  V30 7417 C 696.124 2.60909 4.65577 0
M  V30 7418 O 696.347 1.6627 5.45628 0
M  V30 7419 O 695.281 3.5158 4.88544 0
M  V30 7420 H 699.107 2.48752 1.7423 0
M  V30 7421 H 696.692 1.26021 0.802439 0
M  V30 7422 H 698.574 1.44019 3.96026 0
M  V30 7423 H 697.249 0.521437 3.19473 0
M  V30 7424 H 696.156 2.74487 2.5418 0
M  V30 7425 H 697.489 3.598 3.35864 0
M  V30 7426 N 699.141 -0.881989 1.30609 0
M  V30 7427 C 700.074 -1.99066 1.11571 0
M  V30 7428 C 701.052 -1.62584 0.022516 0
M  V30 7429 O 702.236 -1.87671 0.176644 0
M  V30 7430 C 699.363 -3.3134 0.702237 0
M  V30 7431 C 698.409 -3.86807 1.79673 0
M  V30 7432 S 699.242 -4.13735 3.39976 0
M  V30 7433 C 700.398 -5.49024 3.00538 0
M  V30 7434 H 700.631 -2.1491 2.05429 0
M  V30 7435 H 698.164 -1.03074 1.14957 0
M  V30 7436 H 700.122 -4.07796 0.470415 0
M  V30 7437 H 698.783 -3.13349 -0.217034 0
M  V30 7438 H 697.976 -4.82397 1.45977 0
M  V30 7439 H 697.578 -3.17102 1.98298 0
M  V30 7440 H 699.87 -6.30208 2.48684 0
M  V30 7441 H 700.813 -5.8766 3.95046 0
M  V30 7442 H 701.221 -5.11726 2.3832 0
M  V30 7443 N 700.619 -1.13374 -1.09472 0
M  V30 7444 C 701.867 -0.893422 -1.8128 0
M  V30 7445 C 702.188 0.582029 -1.86111 0
M  V30 7446 O 701.458 1.42305 -1.34633 0
M  V30 7447 H 700.038 -0.327543 -0.67136 0
M  V30 7448 H 702.7 -1.43018 -1.32408 0
M  V30 7449 H 701.796 -1.28374 -2.84476 0
M  V30 7450 N 702.098 1.27442 -0.927168 0
M  V30 7451 C 703.045 2.26863 -0.424459 0
M  V30 7452 C 704.015 1.5813 0.508346 0
M  V30 7453 O 705.2 1.85946 0.42762 0
M  V30 7454 C 702.34 3.43639 0.31718 0
M  V30 7455 C 701.453 4.27087 -0.649675 0
M  V30 7456 C 700.588 5.31082 0.111753 0
M  V30 7457 C 699.627 6.062 -0.847843 0
M  V30 7458 N 698.764 7.01999 -0.119074 0
M  V30 7459 H 703.604 2.69239 -1.27728 0
M  V30 7460 H 701.141 1.32394 -0.641106 0
M  V30 7461 H 703.099 4.10155 0.763486 0
M  V30 7462 H 701.729 3.02217 1.13424 0
M  V30 7463 H 700.781 3.60491 -1.21451 0
M  V30 7464 H 702.093 4.79242 -1.38307 0
M  V30 7465 H 701.247 6.03544 0.618 0
M  V30 7466 H 699.986 4.7973 0.878114 0
M  V30 7467 H 698.991 5.32577 -1.36534 0
M  V30 7468 H 700.216 6.59642 -1.61398 0
M  V30 7469 H 698.162 6.52977 0.629051 0
M  V30 7470 H 698.079 7.5184 -0.792046 0
M  V30 7471 H 699.347 7.78638 0.366537 0
M  V30 7472 N 703.576 0.692616 1.41565 0
M  V30 7473 C 704.853 0.150496 1.9502 0
M  V30 7474 C 705.233 -1.33881 1.63215 0
M  V30 7475 O 704.581 -2.08378 0.937598 0
M  V30 7476 C 704.791 0.438636 3.46233 0
M  V30 7477 C 706.139 0.364777 4.2303 0
M  V30 7478 O 707.163 0.373383 3.54238 0
M  V30 7479 O 706.022 0.32234 5.45549 0
M  V30 7480 H 703.116 0.0132454 0.826894 0
M  V30 7481 H 705.662 0.768574 1.51298 0
M  V30 7482 H 704.434 1.46962 3.62654 0
M  V30 7483 H 704.057 -0.210562 3.97042 0
M  V30 7484 N 705.054 -1.51416 0.437162 0
M  V30 7485 C 706.284 -2.06204 -0.127859 0
M  V30 7486 C 706.692 -1.30463 -1.37026 0
M  V30 7487 O 706.035 -0.357516 -1.80187 0
M  V30 7488 C 706.097 -3.55783 -0.515632 0
M  V30 7489 C 705.761 -4.52776 0.619937 0
M  V30 7490 C 706.758 -4.98031 1.49201 0
M  V30 7491 C 704.443 -4.95878 0.800618 0
M  V30 7492 C 706.437 -5.85061 2.52947 0
M  V30 7493 C 704.124 -5.82699 1.84135 0
M  V30 7494 C 705.122 -6.27188 2.70416 0
M  V30 7495 O 704.81 -7.12284 3.72702 0
M  V30 7496 H 704.542 -0.675903 -0.011442 0
M  V30 7497 H 707.096 -1.95977 0.614986 0
M  V30 7498 H 705.326 -3.63793 -1.31118 0
M  V30 7499 H 707.015 -3.93087 -1.01179 0
M  V30 7500 H 707.781 -4.65426 1.36395 0
M  V30 7501 H 703.66 -4.60792 0.138617 0
M  V30 7502 H 707.204 -6.19708 3.20325 0
M  V30 7503 H 703.101 -6.14717 1.9696 0
M  V30 7504 H 703.869 -7.30462 3.69281 0
M  V30 7505 N 706.532 -0.168513 -1.56696 0
M  V30 7506 C 707.779 0.477158 -1.96798 0
M  V30 7507 C 708.107 1.63442 -1.05437 0
M  V30 7508 O 707.362 1.95503 -0.0878903 0
M  V30 7509 C 707.661 1.00441 -3.42996 0
M  V30 7510 C 707.327 -0.0366556 -4.50885 0
M  V30 7511 C 705.989 -0.322785 -4.80116 0
M  V30 7512 C 708.341 -0.743447 -5.1587 0
M  V30 7513 C 705.669 -1.32114 -5.71632 0
M  V30 7514 C 708.021 -1.73077 -6.08463 0
M  V30 7515 C 706.685 -2.02437 -6.36062 0
M  V30 7516 H 705.955 0.174604 -0.720135 0
M  V30 7517 H 708.602 -0.259884 -1.89728 0
M  V30 7518 H 706.907 1.81922 -3.47004 0
M  V30 7519 H 708.604 1.51294 -3.71364 0
M  V30 7520 H 705.194 0.196532 -4.28149 0
M  V30 7521 H 709.378 -0.535602 -4.93401 0
M  V30 7522 H 704.634 -1.55482 -5.913 0
M  V30 7523 H 708.808 -2.28382 -6.57886 0
M  V30 7524 H 706.435 -2.79946 -7.06777 0
M  V30 7525 N 708.01 1.57248 0.105221 0
M  V30 7526 C 709.287 1.76566 0.841647 0
M  V30 7527 C 709.667 0.747566 1.9742 0
M  V30 7528 O 709.015 -0.225886 2.27381 0
M  V30 7529 C 709.225 3.22016 1.3456 0
M  V30 7530 C 710.573 3.84911 1.79244 0
M  V30 7531 O 711.597 3.25703 1.44207 0
M  V30 7532 O 710.456 4.89008 2.43995 0
M  V30 7533 H 707.55 0.723443 0.400698 0
M  V30 7534 H 710.096 1.69472 0.0878893 0
M  V30 7535 H 708.868 3.87644 0.533685 0
M  V30 7536 H 708.491 3.33703 2.16167 0
M  V30 7537 N 709.488 -0.375779 1.53054 0
M  V30 7538 C 710.718 -1.1387 1.72386 0
M  V30 7539 C 711.126 -1.8382 0.447966 0
M  V30 7540 O 710.469 -1.74027 -0.588244 0
M  V30 7541 C 710.531 -2.22047 2.82728 0
M  V30 7542 C 710.195 -1.71951 4.23417 0
M  V30 7543 C 711.192 -1.18909 5.06119 0
M  V30 7544 C 708.877 -1.77773 4.69789 0
M  V30 7545 C 710.871 -0.723529 6.3328 0
M  V30 7546 C 708.558 -1.30829 5.96931 0
M  V30 7547 C 709.556 -0.782077 6.78508 0
M  V30 7548 O 709.244 -0.319529 8.03265 0
M  V30 7549 H 708.976 -0.346835 0.580242 0
M  V30 7550 H 711.53 -0.443748 2.00549 0
M  V30 7551 H 709.76 -2.95006 2.50017 0
M  V30 7552 H 711.449 -2.83654 2.90336 0
M  V30 7553 H 712.215 -1.13758 4.7147 0
M  V30 7554 H 708.094 -2.17673 4.06373 0
M  V30 7555 H 711.638 -0.312126 6.96901 0
M  V30 7556 H 707.535 -1.3567 6.31081 0
M  V30 7557 H 708.303 -0.439796 8.17318 0
M  V30 7558 N 710.966 -1.44241 -0.634997 0
M  V30 7559 C 712.215 -1.46102 -1.39058 0
M  V30 7560 C 712.528 -0.0959909 -1.95364 0
M  V30 7561 O 713.734 0.00788751 -2.71499 0
M  V30 7562 C 712.19 -2.57195 -2.51751 0
M  V30 7563 C 711.798 -3.99888 -2.01974 0
M  V30 7564 C 713.542 -2.68272 -3.28984 0
M  V30 7565 C 711.449 -5.02412 -3.11987 0
M  V30 7566 H 710.379 -0.543556 -0.522554 0
M  V30 7567 H 713.03 -1.70294 -0.683538 0
M  V30 7568 H 711.412 -2.26237 -3.25012 0
M  V30 7569 H 712.586 -4.40396 -1.35604 0
M  V30 7570 H 710.901 -3.93019 -1.37568 0
M  V30 7571 H 713.498 -3.42042 -4.10988 0
M  V30 7572 H 713.841 -1.73957 -3.78212 0
M  V30 7573 H 714.374 -2.98622 -2.62812 0
M  V30 7574 H 711.113 -5.98342 -2.67707 0
M  V30 7575 H 710.633 -4.66501 -3.77011 0
M  V30 7576 H 712.312 -5.25939 -3.76825 0
M  V30 7577 N 712.444 0.87505 -1.31075 0
M  V30 7578 C 713.392 2.00317 -1.18219 0
M  V30 7579 C 714.386 1.69152 -0.0916872 0
M  V30 7580 O 715.592 1.7821 -0.253229 0
M  V30 7581 H 711.967 0.656981 -0.365895 0
M  V30 7582 H 713.938 2.08293 -2.13674 0
M  V30 7583 C 712.687 3.35821 -0.901095 0
M  V30 7584 H 712.01 3.6032 -1.73233 0
M  V30 7585 H 713.45 4.15366 -0.851295 0
M  V30 7586 C 711.909 3.34563 0.396114 0
M  V30 7587 O 712.439 3.75971 1.41452 0
M  V30 7588 N 710.645 2.87681 0.410832 0
M  V30 7589 H 710.192 2.54179 -0.418415 0
M  V30 7590 H 710.15 2.87223 1.27869 0
M  V30 7591 N 713.922 1.13953 1.08869 0
M  V30 7592 C 715.168 0.906151 1.8143 0
M  V30 7593 C 715.501 -0.566089 1.85766 0
M  V30 7594 O 714.776 -1.41915 1.33006 0
M  V30 7595 C 715.059 1.50183 3.27287 0
M  V30 7596 C 714.912 3.04359 3.31189 0
M  V30 7597 C 716.231 1.17477 4.24131 0
M  V30 7598 H 713.35 0.330624 0.658678 0
M  V30 7599 H 715.992 1.40873 1.27495 0
M  V30 7600 H 714.142 1.07442 3.73348 0
M  V30 7601 H 715.814 3.55896 2.93488 0
M  V30 7602 H 714.057 3.39053 2.70602 0
M  V30 7603 H 714.728 3.41141 4.33966 0
M  V30 7604 H 717.204 1.5442 3.86385 0
M  V30 7605 H 716.08 1.61795 5.24513 0
M  V30 7606 H 716.341 0.0893312 4.4201 0
M  V30 7607 N 715.4 -1.26948 0.933913 0
M  V30 7608 C 716.648 -1.93704 0.576484 0
M  V30 7609 C 716.969 -1.73702 -0.886145 0
M  V30 7610 O 716.239 -1.08838 -1.62884 0
M  V30 7611 H 714.819 -0.716812 0.210214 0
M  V30 7612 H 717.481 -1.54534 1.18766 0
M  V30 7613 H 716.577 -3.01987 0.788055 0
M  V30 7614 N 716.879 -0.700114 -1.41195 0
M  V30 7615 C 718.104 -0.240704 -2.05998 0
M  V30 7616 C 718.529 1.10313 -1.52357 0
M  V30 7617 O 717.887 1.69154 -0.652424 0
M  V30 7618 C 717.935 -0.213783 -3.59966 0
M  V30 7619 O 717.039 0.809933 -4.04368 0
M  V30 7620 H 716.38 -0.116471 -0.653705 0
M  V30 7621 H 718.91 -0.956251 -1.80878 0
M  V30 7622 H 718.92 -0.0461852 -4.07974 0
M  V30 7623 H 717.595 -1.19454 -3.98376 0
M  V30 7624 H 716.172 0.611319 -3.67855 0
M  V30 7625 N 718.357 1.51182 -0.445186 0
M  V30 7626 C 719.603 2.03097 0.111049 0
M  V30 7627 C 719.958 1.32293 1.397 0
M  V30 7628 O 719.251 0.431529 1.86677 0
M  V30 7629 C 719.445 3.55408 0.376797 0
M  V30 7630 C 719.274 4.40969 -0.88185 0
M  V30 7631 C 718.044 4.85006 -1.41766 0
M  V30 7632 C 720.242 4.82876 -1.77017 0
M  V30 7633 N 718.224 5.54804 -2.62803 0
M  V30 7634 C 719.595 5.51821 -2.82654 0
M  V30 7635 C 721.65 4.64855 -1.78365 0
M  V30 7636 C 720.353 6.04655 -3.89595 0
M  V30 7637 C 722.379 5.18612 -2.84246 0
M  V30 7638 C 721.741 5.87509 -3.88603 0
M  V30 7639 H 717.84 0.781999 0.0012696 0
M  V30 7640 H 720.424 1.84976 -0.60761 0
M  V30 7641 H 718.595 3.73528 1.06449 0
M  V30 7642 H 720.327 3.93985 0.925082 0
M  V30 7643 H 717.082 4.6355 -0.970476 0
M  V30 7644 H 717.506 5.94326 -3.24201 0
M  V30 7645 H 722.148 4.11043 -0.990119 0
M  V30 7646 H 719.866 6.57518 -4.69782 0
M  V30 7647 H 723.452 5.06515 -2.86241 0
M  V30 7648 H 722.332 6.28358 -4.69186 0
M  V30 7649 N 719.835 0.176821 1.56605 0
M  V30 7650 C 721.112 -0.513365 1.88743 0
M  V30 7651 C 721.492 -1.80929 1.08757 0
M  V30 7652 O 720.84 -2.27765 0.183127 0
M  V30 7653 C 721.05 -0.749925 3.40848 0
M  V30 7654 C 722.398 -1.07747 4.10701 0
M  V30 7655 O 723.422 -0.838277 3.46196 0
M  V30 7656 O 722.281 -1.52901 5.24675 0
M  V30 7657 H 719.375 -0.265296 0.783292 0
M  V30 7658 H 721.921 0.215669 1.68324 0
M  V30 7659 H 720.693 0.16599 3.90948 0
M  V30 7660 H 720.316 -1.53208 3.66897 0
M  V30 7661 N 721.313 -1.57302 -0.09688 0
M  V30 7662 C 722.261 -2.02942 -1.13654 0
M  V30 7663 C 723.255 -0.930173 -1.41577 0
M  V30 7664 O 724.461 -1.11535 -1.41279 0
M  V30 7665 H 720.836 -0.646726 -0.383731 0
M  V30 7666 H 722.807 -2.89452 -0.725267 0
M  V30 7667 C 721.556 -2.46815 -2.44903 0
M  V30 7668 H 720.879 -3.30979 -2.24261 0
M  V30 7669 H 722.319 -2.82527 -3.16156 0
M  V30 7670 C 720.778 -1.34071 -3.09074 0
M  V30 7671 O 721.308 -0.668856 -3.96092 0
M  V30 7672 N 719.514 -1.09214 -2.69296 0
M  V30 7673 H 719.061 -1.64029 -1.98626 0
M  V30 7674 H 719.019 -0.339785 -3.12559 0
M  V30 7675 N 722.791 0.367657 -1.53252 0
M  V30 7676 C 724.039 1.10832 -1.68999 0
M  V30 7677 C 724.36 1.89894 -0.443306 0
M  V30 7678 O 723.63 1.88235 0.54262 0
M  V30 7679 H 722.21 0.412153 -0.623008 0
M  V30 7680 H 724.872 0.414775 -1.90435 0
M  V30 7681 H 723.968 1.7993 -2.55013 0
M  V30 7682 N 724.269 1.44576 0.627338 0
M  V30 7683 C 725.179 1.54232 1.76776 0
M  V30 7684 C 726.195 0.427782 1.6866 0
M  V30 7685 O 727.371 0.685671 1.89369 0
M  V30 7686 C 724.436 1.48738 3.13174 0
M  V30 7687 C 723.497 2.71074 3.32893 0
M  V30 7688 C 722.73 2.65832 4.62784 0
M  V30 7689 O 722.953 1.72048 5.43834 0
M  V30 7690 O 721.887 3.56742 4.84787 0
M  V30 7691 H 725.713 2.50586 1.71582 0
M  V30 7692 H 723.298 1.26865 0.789028 0
M  V30 7693 H 725.18 1.48211 3.94476 0
M  V30 7694 H 723.855 0.555292 3.18902 0
M  V30 7695 H 722.762 2.77168 2.51254 0
M  V30 7696 H 724.095 3.63342 3.32029 0
M  V30 7697 N 725.747 -0.868086 1.31537 0
M  V30 7698 C 726.677 -1.99131 1.21939 0
M  V30 7699 C 727.658 -1.69768 0.106166 0
M  V30 7700 O 728.843 -1.92006 0.291081 0
M  V30 7701 C 725.973 -3.34676 0.927879 0
M  V30 7702 C 724.927 -3.7835 2.00088 0
M  V30 7703 C 724.253 -5.11375 1.56203 0
M  V30 7704 C 725.553 -3.95256 3.41424 0
M  V30 7705 H 727.247 -2.07419 2.15911 0
M  V30 7706 H 724.793 -0.996569 1.03945 0
M  V30 7707 H 726.746 -4.12793 0.847327 0
M  V30 7708 H 725.47 -3.26565 -0.0475042 0
M  V30 7709 H 724.129 -3.02474 2.07135 0
M  V30 7710 H 723.777 -4.99709 0.57445 0
M  V30 7711 H 723.477 -5.41568 2.27985 0
M  V30 7712 H 725.001 -5.92001 1.49558 0
M  V30 7713 H 726.415 -4.63764 3.3704 0
M  V30 7714 H 724.812 -4.36849 4.1144 0
M  V30 7715 H 725.882 -2.98579 3.82072 0
M  V30 7716 N 727.225 -1.14528 -1.08264 0
M  V30 7717 C 728.172 -0.833556 -2.15222 0
M  V30 7718 C 729.142 0.209539 -1.64773 0
M  V30 7719 O 730.327 0.0791388 -1.90636 0
M  V30 7720 C 727.467 -0.318799 -3.43624 0
M  V30 7721 C 726.58 -1.42237 -4.07913 0
M  V30 7722 C 725.715 -0.864704 -5.24115 0
M  V30 7723 C 724.754 -1.94585 -5.80347 0
M  V30 7724 N 723.891 -1.40525 -6.87893 0
M  V30 7725 H 728.731 -1.74965 -2.41228 0
M  V30 7726 H 726.268 -0.873169 -1.18381 0
M  V30 7727 H 728.226 -0.00213088 -4.172 0
M  V30 7728 H 726.856 0.560397 -3.17898 0
M  V30 7729 H 725.908 -1.8554 -3.32083 0
M  V30 7730 H 727.22 -2.23901 -4.45724 0
M  V30 7731 H 726.374 -0.500025 -6.04636 0
M  V30 7732 H 725.113 -0.0171219 -4.87697 0
M  V30 7733 H 724.118 -2.31946 -4.98479 0
M  V30 7734 H 725.343 -2.79704 -6.18823 0
M  V30 7735 H 723.289 -0.579873 -6.53432 0
M  V30 7736 H 723.206 -2.15825 -7.24538 0
M  V30 7737 H 724.474 -1.06852 -7.72142 0
M  V30 7738 N 728.703 1.26451 -0.940633 0
M  V30 7739 C 729.636 2.24771 -0.394094 0
M  V30 7740 C 730.614 1.54169 0.516781 0
M  V30 7741 O 731.798 1.82942 0.454352 0
M  V30 7742 C 728.925 3.3591 0.433807 0
M  V30 7743 C 727.971 4.24472 -0.415464 0
M  V30 7744 S 728.804 5.0293 -1.83907 0
M  V30 7745 C 729.96 6.17546 -1.01921 0
M  V30 7746 H 730.193 2.70782 -1.22737 0
M  V30 7747 H 727.726 1.35308 -0.743709 0
M  V30 7748 H 729.684 4.00387 0.905576 0
M  V30 7749 H 728.345 2.88512 1.24175 0
M  V30 7750 H 727.538 5.03525 0.218833 0
M  V30 7751 H 727.14 3.64857 -0.821897 0
M  V30 7752 H 729.432 6.76996 -0.261227 0
M  V30 7753 H 730.375 6.8528 -1.78318 0
M  V30 7754 H 730.783 5.6176 -0.555511 0
M  V30 7755 N 730.181 0.707592 1.40822 0
M  V30 7756 C 731.458 0.171172 1.9485 0
M  V30 7757 C 731.838 -1.32143 1.64625 0
M  V30 7758 O 731.186 -2.07372 0.959647 0
M  V30 7759 C 731.396 0.475334 3.45748 0
M  V30 7760 C 732.744 0.409625 4.22619 0
M  V30 7761 O 733.768 0.410934 3.53822 0
M  V30 7762 O 732.627 0.380185 5.45176 0
M  V30 7763 H 729.721 0.022015 0.826707 0
M  V30 7764 H 732.267 0.784577 1.50474 0
M  V30 7765 H 731.039 1.50801 3.61075 0
M  V30 7766 H 730.662 -0.168439 3.97243 0
M  V30 7767 N 731.66 -1.50943 0.453197 0
M  V30 7768 C 732.937 -1.94872 -0.168633 0
M  V30 7769 C 733.317 -1.39272 -1.5864 0
M  V30 7770 O 732.665 -0.586272 -2.20851 0
M  V30 7771 C 732.875 -3.48757 -0.130217 0
M  V30 7772 C 734.223 -4.23331 -0.327975 0
M  V30 7773 O 735.247 -3.55594 -0.207619 0
M  V30 7774 O 734.106 -5.43529 -0.569077 0
M  V30 7775 H 731.2 -0.818042 -0.121394 0
M  V30 7776 H 733.746 -1.61782 0.512316 0
M  V30 7777 H 732.518 -3.81725 0.860346 0
M  V30 7778 H 732.141 -3.88333 -0.853397 0
M  V30 7779 N 733.138 -0.185124 -1.56509 0
M  V30 7780 C 734.415 0.503348 -1.89013 0
M  V30 7781 C 734.795 1.80349 -1.09715 0
M  V30 7782 O 734.143 2.27665 -0.195203 0
M  V30 7783 C 734.353 0.731839 -3.41241 0
M  V30 7784 C 735.701 1.05568 -4.11267 0
M  V30 7785 O 736.725 0.819906 -3.46635 0
M  V30 7786 O 735.584 1.50116 -5.25478 0
M  V30 7787 H 732.678 0.261139 -0.784688 0
M  V30 7788 H 735.224 -0.224592 -1.68207 0
M  V30 7789 H 733.996 -0.18672 -3.90854 0
M  V30 7790 H 733.619 1.5126 -3.67704 0
M  V30 7791 N 734.616 1.57351 0.0885366 0
M  V30 7792 C 735.526 2.05858 1.12516 0
M  V30 7793 C 736.542 0.984758 1.43452 0
M  V30 7794 O 737.718 1.29836 1.53963 0
M  V30 7795 C 734.783 2.47882 2.42395 0
M  V30 7796 C 733.844 3.69487 2.18582 0
M  V30 7797 C 733.077 4.09497 3.42268 0
M  V30 7798 O 733.3 3.49536 4.50755 0
M  V30 7799 O 732.234 5.02406 3.31469 0
M  V30 7800 H 736.06 2.94467 0.743146 0
M  V30 7801 H 733.645 1.46326 0.301507 0
M  V30 7802 H 735.527 2.75509 3.18862 0
M  V30 7803 H 734.202 1.62408 2.8001 0
M  V30 7804 H 733.109 3.46967 1.39875 0
M  V30 7805 H 734.442 4.55761 1.85857 0
M  V30 7806 N 736.094 -0.359525 1.53444 0
M  V30 7807 C 737.34 -1.10315 1.70172 0
M  V30 7808 C 737.673 -1.88788 0.455287 0
M  V30 7809 O 736.948 -1.86635 -0.547514 0
M  V30 7810 C 737.231 -2.05744 2.95536 0
M  V30 7811 C 737.084 -1.3084 4.3035 0
M  V30 7812 C 738.403 -3.05784 3.16518 0
M  V30 7813 H 735.522 -0.399662 0.619225 0
M  V30 7814 H 738.164 -0.383338 1.86093 0
M  V30 7815 H 736.314 -2.67125 2.82093 0
M  V30 7816 H 737.986 -0.721959 4.55615 0
M  V30 7817 H 736.229 -0.610283 4.29486 0
M  V30 7818 H 736.9 -2.00718 5.14214 0
M  V30 7819 H 739.376 -2.5451 3.29187 0
M  V30 7820 H 738.252 -3.69772 4.05659 0
M  V30 7821 H 738.513 -3.76289 2.32076 0
M  V30 7822 N 737.572 -1.44907 -0.619662 0
M  V30 7823 C 738.818 -1.49504 -1.37914 0
M  V30 7824 C 739.173 -0.130158 -1.91959 0
M  V30 7825 O 738.466 0.856263 -1.71402 0
M  V30 7826 C 738.66 -2.50002 -2.55409 0
M  V30 7827 C 738.489 -3.96128 -2.12867 0
M  V30 7828 C 737.259 -4.64204 -1.99606 0
M  V30 7829 C 739.457 -4.85014 -1.71074 0
M  V30 7830 N 737.439 -5.95104 -1.50748 0
M  V30 7831 C 738.81 -6.05447 -1.33544 0
M  V30 7832 C 740.865 -4.71979 -1.58557 0
M  V30 7833 C 739.568 -7.1429 -0.847484 0
M  V30 7834 C 741.594 -5.80858 -1.11165 0
M  V30 7835 C 740.956 -7.00439 -0.745932 0
M  V30 7836 H 737.055 -0.60207 -0.499034 0
M  V30 7837 H 739.639 -1.81305 -0.70968 0
M  V30 7838 H 737.81 -2.20172 -3.19967 0
M  V30 7839 H 739.542 -2.44823 -3.22248 0
M  V30 7840 H 736.297 -4.19182 -2.20417 0
M  V30 7841 H 736.721 -6.64676 -1.28585 0
M  V30 7842 H 741.363 -3.79953 -1.85461 0
M  V30 7843 H 739.081 -8.06116 -0.565974 0
M  V30 7844 H 742.667 -5.72803 -1.01923 0
M  V30 7845 H 741.547 -7.83255 -0.384848 0
M  V30 7846 N 739.05 0.861098 -1.31996 0
M  V30 7847 C 740.275 1.65264 -1.2531 0
M  V30 7848 C 740.7 1.87265 0.177007 0
M  V30 7849 O 740.058 1.4208 1.12619 0
M  V30 7850 C 740.106 2.99284 -2.0115 0
M  V30 7851 O 739.21 3.89508 -1.3549 0
M  V30 7852 H 738.551 0.50409 -0.432192 0
M  V30 7853 H 741.081 1.07297 -1.74208 0
M  V30 7854 H 741.091 3.49154 -2.11081 0
M  V30 7855 H 739.766 2.82591 -3.05148 0
M  V30 7856 H 738.343 3.47966 -1.34066 0
M  V30 7857 N 740.528 1.15101 1.07655 0
M  V30 7858 C 741.475 0.844958 2.14777 0
M  V30 7859 C 742.445 -0.200798 1.64882 0
M  V30 7860 O 743.63 -0.0690278 1.90675 0
M  V30 7861 C 740.77 0.337018 3.4345 0
M  V30 7862 C 739.883 1.44398 4.07153 0
M  V30 7863 C 739.018 0.892487 5.23649 0
M  V30 7864 C 738.057 1.9766 5.79307 0
M  V30 7865 N 737.194 1.44171 6.87138 0
M  V30 7866 H 742.034 1.76242 2.40297 0
M  V30 7867 H 739.571 0.879435 1.17917 0
M  V30 7868 H 741.529 0.024256 4.17193 0
M  V30 7869 H 740.159 -0.543531 3.18191 0
M  V30 7870 H 739.211 1.87299 3.31094 0
M  V30 7871 H 740.523 2.26262 4.4453 0
M  V30 7872 H 739.677 0.532083 6.04362 0
M  V30 7873 H 738.416 0.0429854 4.87681 0
M  V30 7874 H 737.421 2.34586 4.97242 0
M  V30 7875 H 738.646 2.82982 6.17331 0
M  V30 7876 H 736.592 0.614518 6.53115 0
M  V30 7877 H 736.509 2.19665 7.23383 0
M  V30 7878 H 737.777 1.10945 7.71564 0
M  V30 7879 N 742.006 -1.2595 0.947325 0
M  V30 7880 C 742.953 -2.26159 0.460497 0
M  V30 7881 C 743.923 -1.58919 -0.483125 0
M  V30 7882 O 745.108 -1.86603 -0.397983 0
M  V30 7883 C 742.248 -3.441 -0.26247 0
M  V30 7884 C 741.361 -4.25999 0.717539 0
M  V30 7885 C 740.496 -5.31193 -0.0272486 0
M  V30 7886 C 739.535 -6.04774 0.944177 0
M  V30 7887 N 738.672 -7.01721 0.230741 0
M  V30 7888 H 743.512 -2.67173 1.31995 0
M  V30 7889 H 741.049 -1.31358 0.662088 0
M  V30 7890 H 743.007 -4.11317 -0.698137 0
M  V30 7891 H 741.637 -3.03983 -1.08602 0
M  V30 7892 H 740.689 -3.58513 1.27171 0
M  V30 7893 H 742.001 -4.76981 1.45913 0
M  V30 7894 H 741.155 -6.04451 -0.521903 0
M  V30 7895 H 739.894 -4.81066 -0.801682 0
M  V30 7896 H 738.899 -5.30338 1.4499 0
M  V30 7897 H 740.124 -6.56991 1.71872 0
M  V30 7898 H 738.07 -6.53895 -0.525088 0
M  V30 7899 H 737.987 -7.50484 0.911556 0
M  V30 7900 H 739.255 -7.79122 -0.242616 0
M  V30 7901 N 743.484 -0.715051 -1.40445 0
M  V30 7902 C 744.709 -0.26254 -2.05732 0
M  V30 7903 C 745.134 1.08691 -1.53519 0
M  V30 7904 O 744.492 1.68453 -0.670328 0
M  V30 7905 C 744.54 -0.25195 -3.59719 0
M  V30 7906 O 743.644 0.766998 -4.05205 0
M  V30 7907 H 742.985 -0.123398 -0.652433 0
M  V30 7908 H 745.515 -0.975382 -1.79854 0
M  V30 7909 H 745.525 -0.0894537 -4.07902 0
M  V30 7910 H 744.2 -1.23672 -3.97087 0
M  V30 7911 H 742.777 0.572269 -3.68483 0
M  V30 7912 N 744.962 1.50701 -0.461195 0
M  V30 7913 C 745.91 2.29918 0.352231 0
M  V30 7914 C 746.904 1.36778 0.999403 0
M  V30 7915 O 748.11 1.54015 0.931639 0
M  V30 7916 H 744.485 0.740249 0.132423 0
M  V30 7917 H 746.456 2.96497 -0.336424 0
M  V30 7918 C 745.205 3.17052 1.42736 0
M  V30 7919 H 744.528 3.88623 0.938747 0
M  V30 7920 H 745.968 3.75493 1.96928 0
M  V30 7921 C 744.427 2.3399 2.42384 0
M  V30 7922 O 744.957 2.01608 3.47444 0
M  V30 7923 N 743.163 1.96758 2.13857 0
M  V30 7924 H 742.71 2.23292 1.28447 0
M  V30 7925 H 742.668 1.41484 2.80766 0
M  V30 7926 N 746.441 0.193421 1.56409 0
M  V30 7927 C 747.69 -0.445995 1.96707 0
M  V30 7928 C 748.003 -1.62876 1.08309 0
M  V30 7929 O 749.209 -2.33586 1.38383 0
M  V30 7930 C 747.665 -0.844863 3.49843 0
M  V30 7931 C 747.273 0.31352 4.46902 0
M  V30 7932 C 749.017 -1.45146 3.98915 0
M  V30 7933 C 746.924 -0.106214 5.91305 0
M  V30 7934 H 745.854 -0.170398 0.734493 0
M  V30 7935 H 748.505 0.285172 1.81271 0
M  V30 7936 H 746.887 -1.63265 3.60778 0
M  V30 7937 H 748.061 1.09103 4.47698 0
M  V30 7938 H 746.376 0.8315 4.08014 0
M  V30 7939 H 748.973 -1.77792 5.04276 0
M  V30 7940 H 749.316 -2.35734 3.43126 0
M  V30 7941 H 749.849 -0.727675 3.91088 0
M  V30 7942 H 746.588 0.765442 6.51016 0
M  V30 7943 H 746.108 -0.848623 5.93766 0
M  V30 7944 H 747.787 -0.542588 6.44721 0
M  V30 7945 N 747.919 -1.57396 -0.0801906 0
M  V30 7946 C 749.168 -1.8602 -0.779702 0
M  V30 7947 C 749.481 -0.784864 -1.79163 0
M  V30 7948 O 750.687 -0.958691 -2.54011 0
M  V30 7949 C 749.143 -3.29942 -1.43758 0
M  V30 7950 C 748.751 -4.45584 -0.464654 0
M  V30 7951 C 750.495 -3.67775 -2.11995 0
M  V30 7952 C 748.402 -5.80544 -1.12797 0
M  V30 7953 H 747.332 -0.69392 -0.294943 0
M  V30 7954 H 749.983 -1.83471 -0.0328527 0
M  V30 7955 H 748.365 -3.27078 -2.2324 0
M  V30 7956 H 749.539 -4.59824 0.299749 0
M  V30 7957 H 747.854 -4.16247 0.112813 0
M  V30 7958 H 750.451 -4.65896 -2.62383 0
M  V30 7959 H 750.794 -2.9715 -2.91561 0
M  V30 7960 H 751.327 -3.72593 -1.39354 0
M  V30 7961 H 748.066 -6.54439 -0.372807 0
M  V30 7962 H 747.586 -5.70119 -1.86344 0
M  V30 7963 H 749.265 -6.25602 -1.6502 0
M  V30 7964 N 749.397 0.351382 -1.53633 0
M  V30 7965 C 750.813 0.693987 -1.43722 0
M  V30 7966 C 751.013 1.9274 -0.587669 0
M  V30 7967 O 750.069 2.52387 -0.0756082 0
M  V30 7968 C 751.382 0.893937 -2.87105 0
M  V30 7969 C 752.93 0.993051 -2.96829 0
M  V30 7970 C 753.405 1.22537 -4.41303 0
M  V30 7971 N 754.896 1.29275 -4.44795 0
M  V30 7972 C 755.631 1.48988 -5.53706 0
M  V30 7973 N 755.127 1.65924 -6.72637 0
M  V30 7974 N 756.92 1.51472 -5.41306 0
M  V30 7975 H 749.071 -0.459688 -2.07366 0
M  V30 7976 H 751.334 -0.143684 -0.937048 0
M  V30 7977 H 751.04 0.0592517 -3.5165 0
M  V30 7978 H 750.914 1.79795 -3.31592 0
M  V30 7979 H 753.301 1.81827 -2.32429 0
M  V30 7980 H 753.382 0.0661119 -2.55715 0
M  V30 7981 H 753.026 0.405117 -5.06282 0
M  V30 7982 H 752.956 2.16575 -4.80003 0
M  V30 7983 H 755.447 1.17743 -3.59089 0
M  V30 7984 H 755.76 1.80578 -7.51406 0
M  V30 7985 H 754.105 1.63075 -6.75597 0
M  V30 7986 H 757.296 1.37818 -4.47352 0
M  V30 7987 H 757.469 1.66493 -6.26246 0
M  V30 7988 N 750.875 1.45233 0.611969 0
M  V30 7989 C 752.1 1.52767 1.40274 0
M  V30 7990 C 752.525 0.159701 1.87421 0
M  V30 7991 O 751.883 -0.854837 1.59882 0
M  V30 7992 C 751.931 2.51286 2.58626 0
M  V30 7993 O 751.035 2.02764 3.59111 0
M  V30 7994 H 750.376 0.515141 0.418958 0
M  V30 7995 H 752.906 1.90547 0.745188 0
M  V30 7996 H 752.916 2.69949 3.05927 0
M  V30 7997 H 751.591 3.50641 2.23659 0
M  V30 7998 H 750.168 1.93957 3.18489 0
M  V30 7999 N 752.353 -0.854086 1.3245 0
M  V30 8000 C 753.599 -1.61069 1.23225 0
M  V30 8001 C 753.932 -1.93111 -0.205349 0
M  V30 8002 O 753.207 -1.57397 -1.14265 0
M  V30 8003 C 753.49 -2.93065 2.09249 0
M  V30 8004 C 753.343 -2.67801 3.6139 0
M  V30 8005 C 754.662 -3.94341 1.95406 0
M  V30 8006 H 751.781 -0.584449 0.448986 0
M  V30 8007 H 754.423 -0.986189 1.62402 0
M  V30 8008 H 752.573 -3.46364 1.75967 0
M  V30 8009 H 754.245 -2.21052 4.04887 0
M  V30 8010 H 752.488 -2.01756 3.84027 0
M  V30 8011 H 753.159 -3.6179 4.16907 0
M  V30 8012 H 755.635 -3.50301 2.24562 0
M  V30 8013 H 754.511 -4.84555 2.57872 0
M  V30 8014 H 754.772 -4.32382 0.921865 0
M  V30 8015 N 753.831 -1.1567 -1.07043 0
M  V30 8016 C 755.071 -0.944089 -1.81291 0
M  V30 8017 C 755.435 0.519305 -1.84844 0
M  V30 8018 O 756.636 0.850357 -2.54995 0
M  V30 8019 C 754.907 -1.54528 -3.22267 0
M  V30 8020 S 756.466 -1.47623 -4.13223 0
M  V30 8021 H 753.284 -0.339696 -0.624602 0
M  V30 8022 H 755.886 -1.47277 -1.28568 0
M  V30 8023 H 754.59 -2.60321 -3.17271 0
M  V30 8024 H 754.121 -1.0156 -3.80065 0
M  V30 8025 H 756.136 -0.471261 -4.93957 0
M  V30 8026 N 755.309 1.25446 -0.953992 0
M  V30 8027 C 756.534 1.97755 -0.625129 0
M  V30 8028 C 756.959 1.70437 0.795787 0
M  V30 8029 O 756.317 0.95992 1.53803 0
M  V30 8030 C 756.365 3.49463 -0.889251 0
M  V30 8031 O 755.469 4.12387 0.0322757 0
M  V30 8032 H 754.81 0.61998 -0.237742 0
M  V30 8033 H 757.34 1.59582 -1.28041 0
M  V30 8034 H 757.35 3.99772 -0.815263 0
M  V30 8035 H 756.025 3.68676 -1.92487 0
M  V30 8036 H 754.602 3.72782 -0.0938625 0
M  V30 8037 N 756.787 0.722489 1.40064 0
M  V30 8038 C 757.697 0.0755984 2.34478 0
M  V30 8039 C 758.713 -0.736046 1.57665 0
M  V30 8040 O 759.889 -0.667407 1.9002 0
M  V30 8041 C 756.954 -0.830075 3.36616 0
M  V30 8042 C 756.015 -0.00759884 4.29299 0
M  V30 8043 C 755.248 -0.870139 5.26559 0
M  V30 8044 O 755.471 -2.10921 5.2997 0
M  V30 8045 O 754.405 -0.305454 6.01124 0
M  V30 8046 H 758.231 0.854545 2.9143 0
M  V30 8047 H 755.816 0.483032 1.41376 0
M  V30 8048 H 757.698 -1.34864 3.99236 0
M  V30 8049 H 756.373 -1.58805 2.82069 0
M  V30 8050 H 755.28 0.556199 3.69942 0
M  V30 8051 H 756.613 0.712312 4.87018 0
M  V30 8052 N 758.265 -1.50454 0.469181 0
M  V30 8053 C 759.676 -1.86695 0.0136034 0
M  V30 8054 C 760.027 -1.38413 -1.39055 0
M  V30 8055 O 759.152 -0.748294 -2.03051 0
M  V30 8056 C 759.747 -3.38795 0.0179098 0
M  V30 8057 C 758.306 -3.74455 -0.382191 0
M  V30 8058 C 757.453 -2.74338 0.404207 0
M  V30 8059 H 760.404 -1.43225 0.683547 0
M  V30 8060 H 760.425 -3.72321 -0.78468 0
M  V30 8061 H 759.937 -3.73906 1.04 0
M  V30 8062 H 758.038 -3.44944 -1.4087 0
M  V30 8063 H 758.151 -4.79025 -0.084862 0
M  V30 8064 H 756.515 -2.54305 -0.141829 0
M  V30 8065 H 757.298 -3.12293 1.42577 0
M  V30 8066 N 759.743 -0.201713 -1.56304 0
M  V30 8067 C 760.983 0.437395 -1.99665 0
M  V30 8068 C 761.347 1.58341 -1.08592 0
M  V30 8069 O 762.548 2.28716 -1.41217 0
M  V30 8070 C 760.819 0.879572 -3.46408 0
M  V30 8071 S 762.378 1.51558 -4.11795 0
M  V30 8072 H 759.196 0.139621 -0.697156 0
M  V30 8073 H 761.798 -0.306337 -1.93085 0
M  V30 8074 H 760.502 0.0355295 -4.10385 0
M  V30 8075 H 760.033 1.65661 -3.56819 0
M  V30 8076 H 762.048 2.80445 -4.09347 0
M  V30 8077 N 761.222 1.57436 0.0718424 0
M  V30 8078 C 762.132 2.07039 1.10326 0
M  V30 8079 C 763.148 0.999918 1.424 0
M  V30 8080 O 764.324 1.31462 1.52577 0
M  V30 8081 C 761.389 2.50439 2.39752 0
M  V30 8082 C 760.45 3.71784 2.14651 0
M  V30 8083 C 759.683 4.13104 3.37906 0
M  V30 8084 O 759.906 3.54298 4.47023 0
M  V30 8085 O 758.84 5.05894 3.26121 0
M  V30 8086 H 762.666 2.95239 0.711872 0
M  V30 8087 H 760.251 1.46638 0.28597 0
M  V30 8088 H 762.133 2.78876 3.15921 0
M  V30 8089 H 760.808 1.65368 2.78271 0
M  V30 8090 H 759.715 3.48431 1.36187 0
M  V30 8091 H 761.048 4.57707 1.81012 0
M  V30 8092 N 762.7 -0.34323 1.53817 0
M  V30 8093 C 763.647 -1.42153 1.81827 0
M  V30 8094 C 764.617 -1.52251 0.663996 0
M  V30 8095 O 765.802 -1.67784 0.908461 0
M  V30 8096 C 762.942 -2.78799 2.03384 0
M  V30 8097 C 762.055 -2.7749 3.31094 0
M  V30 8098 C 761.19 -4.05856 3.42717 0
M  V30 8099 C 760.229 -3.98776 4.64375 0
M  V30 8100 N 759.366 -5.18833 4.73029 0
M  V30 8101 H 764.206 -1.17567 2.73829 0
M  V30 8102 H 761.743 -0.569506 1.35628 0
M  V30 8103 H 763.701 -3.58211 2.13872 0
M  V30 8104 H 762.331 -3.01736 1.14696 0
M  V30 8105 H 761.383 -1.90182 3.29446 0
M  V30 8106 H 762.695 -2.68137 4.206 0
M  V30 8107 H 761.849 -4.93691 3.52638 0
M  V30 8108 H 760.588 -4.1799 2.51267 0
M  V30 8109 H 759.593 -3.09325 4.5453 0
M  V30 8110 H 760.818 -3.88224 5.57189 0
M  V30 8111 H 758.764 -5.31511 3.84489 0
M  V30 8112 H 758.681 -5.11737 5.56472 0
M  V30 8113 H 759.949 -6.08439 4.87261 0
M  V30 8114 N 764.178 -1.45556 -0.604258 0
M  V30 8115 C 765.426 -1.4945 -1.36048 0
M  V30 8116 C 765.747 -0.138933 -1.94504 0
M  V30 8117 O 765.017 0.832097 -1.7735 0
M  V30 8118 H 763.597 -0.550381 -0.505064 0
M  V30 8119 H 766.259 -1.81535 -0.709308 0
M  V30 8120 H 765.355 -2.23519 -2.17821 0
M  V30 8121 N 765.656 0.84705 -1.32902 0
M  V30 8122 C 766.588 1.96308 -1.18304 0
M  V30 8123 C 767.601 1.62386 -0.116082 0
M  V30 8124 O 768.79 1.74713 -0.365751 0
M  V30 8125 C 765.89 3.29556 -0.790305 0
M  V30 8126 C 765.063 3.91668 -1.94717 0
M  V30 8127 C 764.122 5.0326 -1.53674 0
M  V30 8128 O 763.148 5.22847 -2.24989 0
M  V30 8129 N 764.35 5.78852 -0.437075 0
M  V30 8130 H 767.115 2.09369 -2.14441 0
M  V30 8131 H 764.676 1.02233 -1.25539 0
M  V30 8132 H 766.668 4.01624 -0.49799 0
M  V30 8133 H 765.238 3.12497 0.0801286 0
M  V30 8134 H 764.458 3.12292 -2.40557 0
M  V30 8135 H 765.746 4.299 -2.72146 0
M  V30 8136 H 765.144 5.65484 0.156316 0
M  V30 8137 H 763.701 6.51479 -0.204399 0
M  V30 8138 N 767.134 1.16236 1.06428 0
M  V30 8139 C 768.383 0.937523 1.78587 0
M  V30 8140 C 768.696 -0.536 1.88113 0
M  V30 8141 O 769.902 -0.878697 2.56887 0
M  V30 8142 C 768.358 1.62808 3.2097 0
M  V30 8143 C 767.966 3.13927 3.19615 0
M  V30 8144 C 769.71 1.48515 3.97673 0
M  V30 8145 C 767.617 3.75727 4.56709 0
M  V30 8146 H 766.547 0.347125 0.669343 0
M  V30 8147 H 769.198 1.39353 1.19385 0
M  V30 8148 H 767.58 1.09977 3.80422 0
M  V30 8149 H 768.754 3.7359 2.69753 0
M  V30 8150 H 767.069 3.28089 2.56411 0
M  V30 8151 H 769.666 1.92069 4.99013 0
M  V30 8152 H 770.009 0.433913 4.14032 0
M  V30 8153 H 770.542 1.98494 3.44739 0
M  V30 8154 H 767.281 4.80793 4.45554 0
M  V30 8155 H 766.801 3.20849 5.0677 0
M  V30 8156 H 768.48 3.77203 5.25668 0
M  V30 8157 N 768.612 -1.24939 0.960631 0
M  V30 8158 C 769.559 -2.25658 0.484459 0
M  V30 8159 C 770.529 -1.59422 -0.466242 0
M  V30 8160 O 771.714 -1.87015 -0.378169 0
M  V30 8161 C 768.854 -3.44359 -0.225958 0
M  V30 8162 C 767.967 -4.25214 0.762682 0
M  V30 8163 C 767.102 -5.31192 0.0290931 0
M  V30 8164 C 766.141 -6.03739 1.00827 0
M  V30 8165 N 765.278 -7.01437 0.305155 0
M  V30 8166 H 770.118 -2.65758 1.34821 0
M  V30 8167 H 767.655 -1.30648 0.675983 0
M  V30 8168 H 769.613 -4.12035 -0.654472 0
M  V30 8169 H 768.243 -3.05118 -1.05371 0
M  V30 8170 H 767.295 -3.57144 1.30966 0
M  V30 8171 H 768.607 -4.75406 1.50964 0
M  V30 8172 H 767.761 -6.04971 -0.457763 0
M  V30 8173 H 766.5 -4.81889 -0.750614 0
M  V30 8174 H 765.505 -5.2877 1.50607 0
M  V30 8175 H 766.73 -6.55131 1.7883 0
M  V30 8176 H 764.676 -6.54415 -0.455704 0
M  V30 8177 H 764.593 -7.49475 0.991104 0
M  V30 8178 H 765.861 -7.79336 -0.159966 0
M  V30 8179 N 770.09 -0.729906 -1.39679 0
M  V30 8180 C 771.336 -0.27603 -2.00913 0
M  V30 8181 C 771.669 1.13227 -1.57776 0
M  V30 8182 O 770.944 1.7709 -0.804319 0
M  V30 8183 C 771.227 -0.372157 -3.58172 0
M  V30 8184 C 771.08 -1.81986 -4.11341 0
M  V30 8185 C 772.399 0.248378 -4.39399 0
M  V30 8186 H 769.518 -0.101773 -0.729939 0
M  V30 8187 H 772.16 -0.925104 -1.65957 0
M  V30 8188 H 770.31 0.180459 -3.88081 0
M  V30 8189 H 771.982 -2.42896 -3.92172 0
M  V30 8190 H 770.225 -2.34287 -3.65092 0
M  V30 8191 H 770.896 -1.83842 -5.20486 0
M  V30 8192 H 773.372 -0.222645 -4.15504 0
M  V30 8193 H 772.248 0.150746 -5.48693 0
M  V30 8194 H 772.509 1.33378 -4.21501 0
M  V30 8195 N 771.568 1.50203 -0.477153 0
M  V30 8196 C 772.817 2.01551 0.0774548 0
M  V30 8197 C 773.13 1.36359 1.40234 0
M  V30 8198 O 774.336 1.78898 2.04225 0
M  V30 8199 C 772.792 3.59406 0.188539 0
M  V30 8200 C 772.4 4.3356 -1.12828 0
M  V30 8201 C 774.144 4.18776 0.694782 0
M  V30 8202 C 772.051 5.83213 -0.98066 0
M  V30 8203 H 770.981 0.75329 0.0327212 0
M  V30 8204 H 773.632 1.72959 -0.612969 0
M  V30 8205 H 772.014 3.84611 0.942881 0
M  V30 8206 H 773.188 4.20074 -1.89405 0
M  V30 8207 H 771.503 3.85827 -1.5661 0
M  V30 8208 H 774.1 5.28338 0.822356 0
M  V30 8209 H 774.443 3.80557 1.68766 0
M  V30 8210 H 774.976 3.978 -0.00234519 0
M  V30 8211 H 771.715 6.25914 -1.94709 0
M  V30 8212 H 771.235 5.99256 -0.255375 0
M  V30 8213 H 772.914 6.4373 -0.649717 0
M  V30 8214 N 773.046 0.209999 1.56195 0
M  V30 8215 C 774.462 -0.145598 1.58934 0
M  V30 8216 C 774.662 -1.59868 1.22656 0
M  V30 8217 O 773.718 -2.33689 0.956336 0
M  V30 8218 C 775.031 0.170243 3.00218 0
M  V30 8219 C 776.579 0.111548 3.12801 0
M  V30 8220 C 777.054 0.400904 4.56242 0
M  V30 8221 N 778.545 0.350058 4.61875 0
M  V30 8222 C 779.28 0.547598 5.70779 0
M  V30 8223 N 778.776 0.806291 6.88092 0
M  V30 8224 N 780.569 0.480827 5.6004 0
M  V30 8225 H 772.72 1.15804 1.78054 0
M  V30 8226 H 774.983 0.463326 0.827063 0
M  V30 8227 H 774.689 1.17833 3.31373 0
M  V30 8228 H 774.563 -0.520208 3.73596 0
M  V30 8229 H 776.95 -0.887162 2.81449 0
M  V30 8230 H 777.031 0.835302 2.41777 0
M  V30 8231 H 776.675 1.397 4.8831 0
M  V30 8232 H 776.605 -0.34391 5.25476 0
M  V30 8233 H 779.096 0.157334 3.77572 0
M  V30 8234 H 779.409 0.945433 7.66995 0
M  V30 8235 H 777.754 0.843355 6.89864 0
M  V30 8236 H 780.945 0.279037 4.67268 0
M  V30 8237 H 781.118 0.638189 6.4485 0
M  V30 8238 N 774.524 -1.57472 -0.0634922 0
M  V30 8239 C 775.471 -2.04258 -1.07457 0
M  V30 8240 C 776.441 -0.924804 -1.37973 0
M  V30 8241 O 777.626 -1.19305 -1.48899 0
M  V30 8242 C 774.766 -2.49832 -2.38071 0
M  V30 8243 C 773.879 -3.75263 -2.14014 0
M  V30 8244 C 773.014 -4.09585 -3.38251 0
M  V30 8245 C 772.053 -5.28032 -3.09594 0
M  V30 8246 N 771.19 -5.57953 -4.26185 0
M  V30 8247 H 776.03 -2.90402 -0.668626 0
M  V30 8248 H 773.567 -1.43609 -0.318572 0
M  V30 8249 H 775.525 -2.7431 -3.14341 0
M  V30 8250 H 774.155 -1.66654 -2.76453 0
M  V30 8251 H 773.207 -3.58075 -1.28399 0
M  V30 8252 H 774.519 -4.61667 -1.88852 0
M  V30 8253 H 773.673 -4.35008 -4.2291 0
M  V30 8254 H 772.412 -3.21765 -3.66495 0
M  V30 8255 H 771.417 -5.02397 -2.23332 0
M  V30 8256 H 772.642 -6.17477 -2.82663 0
M  V30 8257 H 770.588 -4.73092 -4.54445 0
M  V30 8258 H 770.505 -6.38793 -4.04326 0
M  V30 8259 H 771.773 -5.87931 -5.11817 0
M  V30 8260 N 776.003 0.335068 -1.53997 0
M  V30 8261 C 777.251 1.07223 -1.71312 0
M  V30 8262 C 777.572 1.88911 -0.483486 0
M  V30 8263 O 776.842 1.89344 0.50257 0
M  V30 8264 H 775.422 0.398846 -0.63161 0
M  V30 8265 H 778.084 0.374288 -1.91272 0
M  V30 8266 H 777.18 1.7448 -2.58772 0
M  V30 8267 N 777.481 1.45874 0.596531 0
M  V30 8268 C 778.391 1.57947 1.73464 0
M  V30 8269 C 779.407 0.463461 1.67714 0
M  V30 8270 O 780.583 0.725685 1.87872 0
M  V30 8271 C 777.648 1.55348 3.09948 0
M  V30 8272 C 776.709 2.78074 3.27068 0
M  V30 8273 C 775.942 2.75589 4.57041 0
M  V30 8274 O 776.165 1.83545 5.40063 0
M  V30 8275 O 775.099 3.66945 4.77111 0
M  V30 8276 H 778.925 2.54169 1.66228 0
M  V30 8277 H 776.51 1.2851 0.76194 0
M  V30 8278 H 778.392 1.56545 3.91244 0
M  V30 8279 H 777.067 0.622811 3.17652 0
M  V30 8280 H 775.974 2.82435 2.45319 0
M  V30 8281 H 777.307 3.70303 3.24248 0
M  V30 8282 N 778.959 -0.83999 1.33349 0
M  V30 8283 C 780.205 -1.59753 1.24927 0
M  V30 8284 C 780.538 -1.93318 -0.184855 0
M  V30 8285 O 779.813 -1.586 -1.12589 0
M  V30 8286 C 780.096 -2.90829 2.12345 0
M  V30 8287 C 779.949 -2.63953 3.6421 0
M  V30 8288 C 781.268 -3.92246 1.99577 0
M  V30 8289 H 778.387 -0.579654 0.45516 0
M  V30 8290 H 781.029 -0.968909 1.63439 0
M  V30 8291 H 779.179 -3.44478 1.79631 0
M  V30 8292 H 780.851 -2.16745 4.07209 0
M  V30 8293 H 779.094 -1.97671 3.86146 0
M  V30 8294 H 779.765 -3.57348 4.20721 0
M  V30 8295 H 782.241 -3.479 2.28265 0
M  V30 8296 H 781.117 -4.81793 2.62996 0
M  V30 8297 H 781.378 -4.3138 0.967673 0
M  V30 8298 N 780.437 -1.16799 -1.0581 0
M  V30 8299 C 781.662 -0.977402 -1.82925 0
M  V30 8300 C 782.087 0.469514 -1.82146 0
M  V30 8301 O 781.445 1.33576 -1.22585 0
M  V30 8302 C 781.493 -1.51543 -3.27211 0
M  V30 8303 O 780.597 -0.725021 -4.05977 0
M  V30 8304 H 779.938 -0.347474 -0.565825 0
M  V30 8305 H 782.468 -1.55151 -1.33376 0
M  V30 8306 H 782.478 -1.53502 -3.78023 0
M  V30 8307 H 781.153 -2.56872 -3.27093 0
M  V30 8308 H 779.73 -0.77634 -3.64729 0
M  V30 8309 N 781.915 1.24427 -0.967243 0
M  V30 8310 C 783.155 1.9423 -0.636723 0
M  V30 8311 C 783.519 1.73939 0.812971 0
M  V30 8312 O 784.72 2.37773 1.25369 0
M  V30 8313 C 782.991 3.43105 -1.00067 0
M  V30 8314 S 784.55 4.31728 -0.784633 0
M  V30 8315 H 781.368 0.671527 -0.233607 0
M  V30 8316 H 783.97 1.50806 -1.2441 0
M  V30 8317 H 782.674 3.5538 -2.05264 0
M  V30 8318 H 782.205 3.91521 -0.384054 0
M  V30 8319 H 784.22 4.95046 0.338244 0
M  V30 8320 N 783.393 0.737304 1.3929 0
M  V30 8321 C 784.633 0.290966 2.02318 0
M  V30 8322 C 784.997 -1.10174 1.57244 0
M  V30 8323 O 786.198 -1.64628 2.12488 0
M  V30 8324 C 784.469 0.391767 3.55246 0
M  V30 8325 S 786.028 0.0256103 4.38793 0
M  V30 8326 H 782.846 0.113862 0.701824 0
M  V30 8327 H 785.448 0.964329 1.70062 0
M  V30 8328 H 784.152 1.40662 3.85542 0
M  V30 8329 H 783.683 -0.299338 3.9226 0
M  V30 8330 H 785.698 -1.18991 4.81722 0
M  V30 8331 N 784.871 -1.49948 0.485112 0
M  V30 8332 C 786.117 -2.0332 -0.0571625 0
M  V30 8333 C 786.472 -1.35951 -1.36144 0
M  V30 8334 O 785.765 -0.480871 -1.85467 0
M  V30 8335 C 785.959 -3.56282 -0.282434 0
M  V30 8336 C 785.788 -4.38476 0.998455 0
M  V30 8337 C 784.558 -4.81076 1.54576 0
M  V30 8338 C 786.756 -4.78013 1.89758 0
M  V30 8339 N 784.738 -5.47641 2.77421 0
M  V30 8340 C 786.109 -5.44133 2.97186 0
M  V30 8341 C 788.164 -4.59963 1.90627 0
M  V30 8342 C 786.867 -5.94113 4.0549 0
M  V30 8343 C 788.893 -5.10893 2.97897 0
M  V30 8344 C 788.255 -5.77 4.04043 0
M  V30 8345 H 784.354 -0.781758 0.0194642 0
M  V30 8346 H 786.938 -1.833 0.65644 0
M  V30 8347 H 785.109 -3.76219 -0.965083 0
M  V30 8348 H 786.841 -3.96299 -0.820298 0
M  V30 8349 H 783.596 -4.60814 1.09304 0
M  V30 8350 H 784.02 -5.85521 3.39844 0
M  V30 8351 H 788.662 -4.08274 1.09875 0
M  V30 8352 H 786.38 -6.44832 4.8705 0
M  V30 8353 H 789.966 -4.98748 2.9957 0
M  V30 8354 H 788.846 -6.15698 4.85681 0
M  V30 8355 N 786.349 -0.21828 -1.56081 0
M  V30 8356 C 787.577 0.419258 -2.02608 0
M  V30 8357 C 787.992 1.53578 -1.09814 0
M  V30 8358 O 787.349 1.82185 -0.107149 0
M  V30 8359 C 787.4 0.953955 -3.48686 0
M  V30 8360 O 787.121 -0.11805 -4.37941 0
M  V30 8361 C 788.622 1.66506 -4.10841 0
M  V30 8362 H 785.842 0.10296 -0.663054 0
M  V30 8363 H 788.386 -0.333776 -2.01758 0
M  V30 8364 H 786.541 1.65727 -3.50162 0
M  V30 8365 H 786.955 0.283359 -5.23734 0
M  V30 8366 H 788.429 1.99123 -5.14834 0
M  V30 8367 H 788.906 2.57705 -3.55647 0
M  V30 8368 H 789.512 1.00703 -4.13206 0
M  V30 8369 N 787.827 1.57504 0.0551401 0
M  V30 8370 C 789.067 1.89895 0.756252 0
M  V30 8371 C 789.431 0.813983 1.73892 0
M  V30 8372 O 790.632 1.02145 2.48636 0
M  V30 8373 C 788.903 3.27494 1.43116 0
M  V30 8374 S 790.462 3.81669 2.16504 0
M  V30 8375 H 787.28 0.665173 0.251129 0
M  V30 8376 H 789.882 1.95496 0.0117193 0
M  V30 8377 H 788.586 4.04345 0.702391 0
M  V30 8378 H 788.117 3.25132 2.21479 0
M  V30 8379 H 790.132 3.58295 3.43277 0
M  V30 8380 N 789.305 -0.326896 1.54172 0
M  V30 8381 C 790.533 -1.08486 1.76177 0
M  V30 8382 C 790.948 -1.81815 0.508788 0
M  V30 8383 O 790.305 -1.74924 -0.520362 0
M  V30 8384 C 790.356 -2.08552 2.95276 0
M  V30 8385 O 790.077 -1.38202 4.15731 0
M  V30 8386 C 791.578 -2.96593 3.29466 0
M  V30 8387 H 788.798 -0.322835 0.588233 0
M  V30 8388 H 791.342 -0.374036 2.0105 0
M  V30 8389 H 789.497 -2.75174 2.72687 0
M  V30 8390 H 789.911 -2.05186 4.827 0
M  V30 8391 H 791.385 -3.62708 4.16109 0
M  V30 8392 H 791.862 -3.63511 2.46487 0
M  V30 8393 H 792.468 -2.35537 3.54122 0
M  V30 8394 N 790.784 -1.46188 -0.588786 0
M  V30 8395 C 792.195 -1.45421 -1.17088 0
M  V30 8396 C 792.546 -0.191801 -1.9526 0
M  V30 8397 O 791.671 0.705497 -2.04577 0
M  V30 8398 C 792.266 -2.63467 -2.13004 0
M  V30 8399 C 790.825 -2.6576 -2.6655 0
M  V30 8400 C 789.972 -2.38002 -1.42304 0
M  V30 8401 H 792.923 -1.54156 -0.377052 0
M  V30 8402 H 792.944 -2.38638 -2.96365 0
M  V30 8403 H 792.456 -3.55331 -1.56081 0
M  V30 8404 H 790.557 -1.77952 -3.27359 0
M  V30 8405 H 790.67 -3.65545 -3.09699 0
M  V30 8406 H 789.034 -1.87936 -1.71907 0
M  V30 8407 H 789.817 -3.32035 -0.872209 0
M  V30 8408 N 792.262 0.832906 -1.33792 0
M  V30 8409 C 793.502 1.60217 -1.26925 0
M  V30 8410 C 793.866 1.91323 0.161146 0
M  V30 8411 O 795.067 2.66461 0.353864 0
M  V30 8412 C 793.338 2.87314 -2.12568 0
M  V30 8413 S 794.897 3.77939 -2.22952 0
M  V30 8414 H 791.715 0.549273 -0.451464 0
M  V30 8415 H 794.317 0.984648 -1.68893 0
M  V30 8416 H 793.021 2.62444 -3.15518 0
M  V30 8417 H 792.552 3.5407 -1.71459 0
M  V30 8418 H 794.567 4.76188 -1.39496 0
M  V30 8419 N 793.74 1.17359 1.05189 0
M  V30 8420 C 794.687 0.890325 2.12936 0
M  V30 8421 C 795.657 -0.165779 1.65271 0
M  V30 8422 O 796.842 -0.0285672 1.90779 0
M  V30 8423 C 793.982 0.409793 3.42658 0
M  V30 8424 C 793.095 1.53002 4.03998 0
M  V30 8425 C 792.23 1.00336 5.21638 0
M  V30 8426 C 791.269 2.09903 5.74984 0
M  V30 8427 N 790.406 1.58714 6.83926 0
M  V30 8428 H 795.246 1.81299 2.36505 0
M  V30 8429 H 792.783 0.904249 1.16025 0
M  V30 8430 H 794.741 0.112743 4.17048 0
M  V30 8431 H 793.371 -0.475915 3.19272 0
M  V30 8432 H 792.423 1.9428 3.27047 0
M  V30 8433 H 793.735 2.3564 4.39631 0
M  V30 8434 H 792.889 0.660158 6.03098 0
M  V30 8435 H 791.628 0.14642 4.8748 0
M  V30 8436 H 790.633 2.45081 4.92154 0
M  V30 8437 H 791.858 2.96013 6.1119 0
M  V30 8438 H 789.804 0.752915 6.51665 0
M  V30 8439 H 789.721 2.34959 7.18561 0
M  V30 8440 H 790.989 1.27287 7.69037 0
M  V30 8441 N 795.218 -1.23913 0.973828 0
M  V30 8442 C 796.128 -2.28838 0.516735 0
M  V30 8443 C 797.144 -1.68723 -0.425282 0
M  V30 8444 O 798.32 -1.99201 -0.296819 0
M  V30 8445 C 795.385 -3.46233 -0.179914 0
M  V30 8446 C 794.446 -4.21729 0.80269 0
M  V30 8447 C 793.679 -5.33518 0.139191 0
M  V30 8448 O 793.902 -5.60252 -1.07118 0
M  V30 8449 O 792.836 -5.96088 0.834447 0
M  V30 8450 H 796.662 -2.70067 1.38916 0
M  V30 8451 H 794.247 -1.2972 0.74115 0
M  V30 8452 H 796.129 -4.17514 -0.570991 0
M  V30 8453 H 794.804 -3.06969 -1.02721 0
M  V30 8454 H 793.711 -3.52799 1.24434 0
M  V30 8455 H 795.044 -4.64825 1.61859 0
M  V30 8456 N 796.696 -0.74468 -1.38897 0
M  V30 8457 C 797.644 -0.100312 -2.32384 0
M  V30 8458 C 798.638 0.715191 -1.53562 0
M  V30 8459 O 799.844 0.615288 -1.69157 0
M  V30 8460 H 796.219 -0.0136403 -0.751876 0
M  V30 8461 H 798.19 -0.905007 -2.84345 0
M  V30 8462 C 796.939 0.785432 -3.38713 0
M  V30 8463 H 796.262 0.167308 -3.9945 0
M  V30 8464 H 797.702 1.20374 -4.06554 0
M  V30 8465 C 796.161 1.92408 -2.76552 0
M  V30 8466 O 796.691 3.01752 -2.65157 0
M  V30 8467 N 794.897 1.71642 -2.34494 0
M  V30 8468 H 794.444 0.827079 -2.43961 0
M  V30 8469 H 794.402 2.48 -1.93244 0
M  V30 8470 N 798.174 1.49689 -0.493057 0
M  V30 8471 C 799.084 2.32746 0.294358 0
M  V30 8472 C 800.1 1.44117 0.975003 0
M  V30 8473 O 801.276 1.77149 0.958138 0
M  V30 8474 C 798.341 3.19358 1.34949 0
M  V30 8475 C 797.402 4.2383 0.683122 0
M  V30 8476 C 796.635 5.06303 1.68798 0
M  V30 8477 O 796.858 4.90172 2.91698 0
M  V30 8478 O 795.792 5.88826 1.24768 0
M  V30 8479 H 799.618 3.01247 -0.385254 0
M  V30 8480 H 797.203 1.47216 -0.254519 0
M  V30 8481 H 799.085 3.73037 1.96014 0
M  V30 8482 H 797.76 2.53561 2.01217 0
M  V30 8483 H 796.667 3.74086 0.0329351 0
M  V30 8484 H 798 4.9216 0.0630192 0
M  V30 8485 N 799.652 0.226554 1.55963 0
M  V30 8486 C 800.882 -0.407915 2.02533 0
M  V30 8487 C 801.29 -1.53539 1.10554 0
M  V30 8488 O 800.633 -1.8338 0.108409 0
M  V30 8489 C 800.695 -0.996081 3.45425 0
M  V30 8490 C 800.359 -0.00341651 4.57 0
M  V30 8491 C 801.356 0.798782 5.13727 0
M  V30 8492 C 799.041 0.116786 5.02164 0
M  V30 8493 C 801.035 1.70784 6.14094 0
M  V30 8494 C 798.722 1.02937 6.02368 0
M  V30 8495 C 799.72 1.82344 6.5821 0
M  V30 8496 O 799.408 2.72067 7.56462 0
M  V30 8497 H 799.14 -0.103524 0.668026 0
M  V30 8498 H 801.694 0.341937 2.02534 0
M  V30 8499 H 799.924 -1.79512 3.42509 0
M  V30 8500 H 801.613 -1.53848 3.75614 0
M  V30 8501 H 802.379 0.716393 4.7968 0
M  V30 8502 H 798.258 -0.491172 4.58376 0
M  V30 8503 H 801.802 2.32807 6.57607 0
M  V30 8504 H 797.699 1.11276 6.35836 0
M  V30 8505 H 798.467 2.66199 7.74003 0
M  V30 8506 N 801.13 -1.57531 -0.0467866 0
M  V30 8507 C 802.376 -1.8873 -0.742218 0
M  V30 8508 C 802.709 -0.822084 -1.75941 0
M  V30 8509 O 801.984 0.164922 -1.938 0
M  V30 8510 C 802.267 -3.30586 -1.42776 0
M  V30 8511 C 802.12 -4.47785 -0.425285 0
M  V30 8512 C 803.439 -3.71068 -2.36636 0
M  V30 8513 H 800.558 -0.686406 -0.268359 0
M  V30 8514 H 803.2 -1.89999 -0.00511341 0
M  V30 8515 H 801.35 -3.29634 -2.05605 0
M  V30 8516 H 803.022 -4.60867 0.199721 0
M  V30 8517 H 801.265 -4.33037 0.25713 0
M  V30 8518 H 801.936 -5.43884 -0.943086 0
M  V30 8519 H 804.412 -3.73273 -1.83866 0
M  V30 8520 H 803.288 -4.71165 -2.81593 0
M  V30 8521 H 803.549 -3.02355 -3.22542 0
M  V30 8522 N 802.608 0.318715 -1.54344 0
M  V30 8523 C 803.855 1.05608 -1.72781 0
M  V30 8524 C 804.183 1.87854 -0.504083 0
M  V30 8525 O 803.438 1.88826 0.51414 0
M  V30 8526 C 803.737 2.00514 -2.95853 0
M  V30 8527 C 803.403 1.34385 -4.30409 0
M  V30 8528 C 802.065 1.16081 -4.66989 0
M  V30 8529 C 804.417 0.869627 -5.13894 0
M  V30 8530 C 801.745 0.490114 -5.84649 0
M  V30 8531 C 804.097 0.212735 -6.32242 0
M  V30 8532 C 802.761 0.0175882 -6.67498 0
M  V30 8533 H 802.031 0.386449 -0.632249 0
M  V30 8534 H 804.678 0.332729 -1.88587 0
M  V30 8535 H 802.983 2.79317 -2.74753 0
M  V30 8536 H 804.68 2.57605 -3.07312 0
M  V30 8537 H 801.27 1.49634 -4.01631 0
M  V30 8538 H 805.454 0.998809 -4.86146 0
M  V30 8539 H 800.71 0.327767 -6.10521 0
M  V30 8540 H 804.884 -0.162699 -6.9621 0
M  V30 8541 H 802.511 -0.504137 -7.58527 0
M  V30 8542 N 804.086 1.46499 0.581025 0
M  V30 8543 C 805.363 1.42372 1.34125 0
M  V30 8544 C 805.743 0.108073 2.10823 0
M  V30 8545 O 805.091 -0.910366 2.09582 0
M  V30 8546 C 805.301 2.65445 2.26583 0
M  V30 8547 C 806.649 3.11664 2.88359 0
M  V30 8548 O 807.673 2.66006 2.36896 0
M  V30 8549 O 806.532 3.90974 3.81839 0
M  V30 8550 H 803.626 0.566262 0.602724 0
M  V30 8551 H 806.172 1.58667 0.601903 0
M  V30 8552 H 804.944 3.52756 1.69348 0
M  V30 8553 H 804.567 2.51618 3.07854 0
M  V30 8554 N 805.565 -0.825799 1.34232 0
M  V30 8555 C 806.475 -1.9684 1.27638 0
M  V30 8556 C 807.491 -1.73018 0.184569 0
M  V30 8557 O 808.667 -1.97172 0.410525 0
M  V30 8558 C 805.732 -3.31084 1.02879 0
M  V30 8559 C 804.793 -3.67933 2.21188 0
M  V30 8560 C 804.026 -4.95772 1.976 0
M  V30 8561 O 804.249 -5.62721 0.93281 0
M  V30 8562 O 803.183 -5.30431 2.84477 0
M  V30 8563 H 807.009 -2.05346 2.23756 0
M  V30 8564 H 804.594 -0.960772 1.1441 0
M  V30 8565 H 806.476 -4.11492 0.908406 0
M  V30 8566 H 805.151 -3.23552 0.0979821 0
M  V30 8567 H 804.058 -2.87981 2.38784 0
M  V30 8568 H 805.391 -3.80147 3.12648 0
M  V30 8569 N 807.043 -1.17915 -1.04565 0
M  V30 8570 C 808.273 -0.994716 -1.81077 0
M  V30 8571 C 808.681 0.460146 -1.83519 0
M  V30 8572 O 808.024 1.33136 -1.26572 0
M  V30 8573 C 808.086 -1.46698 -3.28207 0
M  V30 8574 C 807.75 -2.94523 -3.49436 0
M  V30 8575 C 808.747 -3.92414 -3.41038 0
M  V30 8576 C 806.432 -3.32841 -3.76194 0
M  V30 8577 C 808.426 -5.2662 -3.59096 0
M  V30 8578 C 806.113 -4.67212 -3.93899 0
M  V30 8579 C 807.111 -5.6391 -3.8535 0
M  V30 8580 O 806.799 -6.95849 -4.02554 0
M  V30 8581 H 806.531 -0.351797 -0.577248 0
M  V30 8582 H 809.085 -1.56772 -1.32709 0
M  V30 8583 H 807.315 -0.837592 -3.7752 0
M  V30 8584 H 809.004 -1.24724 -3.86263 0
M  V30 8585 H 809.77 -3.64157 -3.20336 0
M  V30 8586 H 805.649 -2.58139 -3.81949 0
M  V30 8587 H 809.193 -6.02082 -3.52339 0
M  V30 8588 H 805.09 -4.95172 -4.14095 0
M  V30 8589 H 805.858 -7.02679 -4.19743 0
M  V30 8590 N 808.521 1.23394 -0.980386 0
M  V30 8591 C 809.749 1.95844 -0.667286 0
M  V30 8592 C 810.164 1.72574 0.765735 0
M  V30 8593 O 809.521 1.01715 1.51526 0
M  V30 8594 C 809.572 3.48844 -0.948151 0
M  V30 8595 O 809.293 3.71325 -2.32485 0
M  V30 8596 C 810.794 4.38494 -0.651002 0
M  V30 8597 H 808.014 0.623535 -0.247882 0
M  V30 8598 H 810.558 1.56885 -1.31176 0
M  V30 8599 H 808.713 3.85819 -0.349681 0
M  V30 8600 H 809.127 4.65619 -2.41452 0
M  V30 8601 H 810.601 5.44648 -0.897887 0
M  V30 8602 H 811.078 4.37236 0.414922 0
M  V30 8603 H 811.684 4.07127 -1.22995 0
M  V30 8604 N 809.999 0.752036 1.385 0
M  V30 8605 C 811.239 0.312408 2.01998 0
M  V30 8606 C 811.603 -1.085 1.58404 0
M  V30 8607 O 812.804 -1.62365 2.14222 0
M  V30 8608 C 811.075 0.429423 3.54811 0
M  V30 8609 S 812.634 0.0721487 4.38741 0
M  V30 8610 H 809.452 0.1213 0.700576 0
M  V30 8611 H 812.054 0.982312 1.69029 0
M  V30 8612 H 810.758 1.44743 3.84028 0
M  V30 8613 H 810.289 -0.257716 3.92555 0
M  V30 8614 H 812.304 -1.13875 4.82957 0
M  V30 8615 N 811.477 -1.49425 0.500989 0
M  V30 8616 C 812.424 -2.29126 -0.277443 0
M  V30 8617 C 813.394 -1.35522 -0.960363 0
M  V30 8618 O 814.579 -1.64479 -0.967027 0
M  V30 8619 C 811.719 -3.18193 -1.33593 0
M  V30 8620 C 810.832 -4.26854 -0.664791 0
M  V30 8621 C 809.967 -5.03137 -1.70372 0
M  V30 8622 C 809.006 -6.03635 -1.01445 0
M  V30 8623 N 808.143 -6.73083 -1.99758 0
M  V30 8624 H 812.983 -2.95187 0.408458 0
M  V30 8625 H 810.52 -1.45546 0.213275 0
M  V30 8626 H 812.478 -3.68207 -1.96161 0
M  V30 8627 H 811.108 -2.54116 -1.9906 0
M  V30 8628 H 810.16 -3.80328 0.0741708 0
M  V30 8629 H 811.472 -4.9865 -0.122197 0
M  V30 8630 H 810.626 -5.5702 -2.40445 0
M  V30 8631 H 809.365 -4.31114 -2.28017 0
M  V30 8632 H 808.37 -5.48984 -0.299496 0
M  V30 8633 H 809.595 -6.77644 -0.444497 0
M  V30 8634 H 807.541 -6.03832 -2.56365 0
M  V30 8635 H 807.458 -7.40855 -1.50565 0
M  V30 8636 H 808.726 -7.3157 -2.69119 0
M  V30 8637 N 812.955 -0.234822 -1.55841 0
M  V30 8638 C 813.918 0.656378 -2.196 0
M  V30 8639 C 814.918 1.11179 -1.16171 0
M  V30 8640 O 816.108 1.01845 -1.41326 0
M  V30 8641 C 813.24 1.90072 -2.82993 0
M  V30 8642 H 814.433 0.100281 -2.99732 0
M  V30 8643 H 811.986 0.0147613 -1.56293 0
M  V30 8644 H 812.721 2.49836 -2.06767 0
M  V30 8645 H 812.506 1.5825 -3.58747 0
M  V30 8646 H 813.996 2.53538 -3.31826 0
M  V30 8647 N 814.433 1.57553 0.0384317 0
M  V30 8648 C 815.673 1.90687 0.736069 0
M  V30 8649 C 816.037 0.832381 1.73019 0
M  V30 8650 O 817.238 1.04777 2.47538 0
M  V30 8651 C 815.509 3.28994 1.39635 0
M  V30 8652 S 817.068 3.83944 2.12444 0
M  V30 8653 H 813.886 0.667799 0.244059 0
M  V30 8654 H 816.488 1.95498 -0.00901643 0
M  V30 8655 H 815.192 4.05067 0.659465 0
M  V30 8656 H 814.723 3.27463 2.18018 0
M  V30 8657 H 816.738 3.61916 3.39457 0
M  V30 8658 N 815.911 -0.310526 1.54511 0
M  V30 8659 C 816.843 -1.40405 1.8116 0
M  V30 8660 C 817.856 -1.47261 0.694114 0
M  V30 8661 O 819.045 -1.49751 0.971441 0
M  V30 8662 C 816.145 -2.78849 1.92604 0
M  V30 8663 C 815.318 -2.95041 3.22908 0
M  V30 8664 C 814.377 -4.13925 3.24889 0
M  V30 8665 O 813.403 -4.06463 3.98467 0
M  V30 8666 N 814.605 -5.24099 2.496 0
M  V30 8667 H 817.37 -1.17903 2.75534 0
M  V30 8668 H 814.931 -0.500564 1.53967 0
M  V30 8669 H 816.923 -3.5661 1.91342 0
M  V30 8670 H 815.493 -2.94342 1.05268 0
M  V30 8671 H 814.713 -2.04472 3.37023 0
M  V30 8672 H 816.001 -3.02763 4.08916 0
M  V30 8673 H 815.399 -5.33039 1.89435 0
M  V30 8674 H 813.956 -6.0023 2.54102 0
M  V30 8675 N 817.389 -1.46805 -0.573248 0
M  V30 8676 C 818.319 -1.60951 -1.69165 0
M  V30 8677 C 819.3 -0.45948 -1.63777 0
M  V30 8678 O 820.485 -0.68688 -1.81647 0
M  V30 8679 C 817.615 -1.60844 -3.07809 0
M  V30 8680 C 816.569 -2.74913 -3.28035 0
M  V30 8681 C 815.895 -2.59871 -4.67302 0
M  V30 8682 C 817.195 -4.16654 -3.14955 0
M  V30 8683 H 818.889 -2.54574 -1.57582 0
M  V30 8684 H 816.435 -1.22516 -0.756686 0
M  V30 8685 H 818.388 -1.69334 -3.85881 0
M  V30 8686 H 817.112 -0.637714 -3.20314 0
M  V30 8687 H 815.771 -2.65908 -2.52366 0
M  V30 8688 H 815.419 -1.60861 -4.76585 0
M  V30 8689 H 815.119 -3.36386 -4.81786 0
M  V30 8690 H 816.643 -2.70265 -5.4753 0
M  V30 8691 H 818.057 -4.26721 -3.82861 0
M  V30 8692 H 816.454 -4.93831 -3.40956 0
M  V30 8693 H 817.524 -4.36146 -2.11908 0
M  V30 8694 N 818.867 0.818669 -1.34668 0
M  V30 8695 C 820.115 1.57201 -1.27013 0
M  V30 8696 C 820.436 1.94354 0.158599 0
M  V30 8697 O 819.706 1.62626 1.09223 0
M  V30 8698 H 818.286 0.582919 -0.467135 0
M  V30 8699 H 820.948 0.977234 -1.6863 0
M  V30 8700 H 820.044 2.49291 -1.87778 0
M  V30 8701 N 820.346 1.18468 1.03938 0
M  V30 8702 C 821.571 1.00638 1.81347 0
M  V30 8703 C 821.996 -0.440477 1.8287 0
M  V30 8704 O 821.354 -1.31609 1.24695 0
M  V30 8705 C 821.402 1.5673 3.24759 0
M  V30 8706 O 820.506 0.789517 4.04772 0
M  V30 8707 H 819.847 0.356432 0.560225 0
M  V30 8708 H 822.377 1.57253 1.30891 0
M  V30 8709 H 822.387 1.59496 3.75533 0
M  V30 8710 H 821.062 2.62043 3.22965 0
M  V30 8711 H 819.639 0.834267 3.63448 0
M  V30 8712 N 821.824 -1.22873 0.986916 0
M  V30 8713 C 823.07 -1.92047 0.670042 0
M  V30 8714 C 823.425 -1.75497 -0.788587 0
M  V30 8715 O 822.718 -1.10934 -1.56218 0
M  V30 8716 C 822.912 -3.43014 1.00379 0
M  V30 8717 C 822.741 -3.74251 2.49332 0
M  V30 8718 C 821.511 -3.94589 3.15638 0
M  V30 8719 C 823.709 -3.79208 3.47428 0
M  V30 8720 N 821.691 -4.13086 4.54129 0
M  V30 8721 C 823.062 -4.02775 4.71352 0
M  V30 8722 C 825.117 -3.62029 3.41818 0
M  V30 8723 C 823.82 -4.10946 5.90352 0
M  V30 8724 C 825.846 -3.71457 4.60189 0
M  V30 8725 C 825.208 -3.95468 5.82911 0
M  V30 8726 H 821.307 -0.723668 0.29636 0
M  V30 8727 H 823.891 -1.47946 1.26571 0
M  V30 8728 H 822.062 -3.85936 0.436762 0
M  V30 8729 H 823.794 -3.99551 0.643522 0
M  V30 8730 H 820.549 -3.91762 2.66119 0
M  V30 8731 H 820.973 -4.26275 5.25945 0
M  V30 8732 H 825.615 -3.42457 2.47958 0
M  V30 8733 H 823.333 -4.29324 6.84621 0
M  V30 8734 H 826.919 -3.59511 4.57431 0
M  V30 8735 H 825.799 -4.02584 6.72975 0
M  V30 8736 N 823.302 -0.75937 -1.38099 0
M  V30 8737 C 824.713 -0.385078 -1.82686 0
M  V30 8738 C 825.064 1.0871 -1.6333 0
M  V30 8739 O 824.189 1.84084 -1.13762 0
M  V30 8740 C 824.784 -0.692161 -3.31654 0
M  V30 8741 C 823.343 -0.371077 -3.74566 0
M  V30 8742 C 822.49 -0.942375 -2.60796 0
M  V30 8743 H 825.441 -0.955048 -1.26746 0
M  V30 8744 H 825.462 0.0276001 -3.8049 0
M  V30 8745 H 824.974 -1.76369 -3.4571 0
M  V30 8746 H 823.075 0.693637 -3.66087 0
M  V30 8747 H 823.188 -0.870672 -4.71122 0
M  V30 8748 H 821.552 -0.367383 -2.52036 0
M  V30 8749 H 822.335 -2.01905 -2.77649 0
M  V30 8750 N 824.78 1.49157 -0.508906 0
M  V30 8751 C 826.008 2.06879 0.0293734 0
M  V30 8752 C 826.423 1.36823 1.30095 0
M  V30 8753 O 825.78 0.449034 1.7689 0
M  V30 8754 C 825.831 3.60423 0.278791 0
M  V30 8755 O 825.552 4.27844 -0.942389 0
M  V30 8756 C 827.053 4.34881 0.859825 0
M  V30 8757 H 824.273 0.67057 -0.0240184 0
M  V30 8758 H 826.817 1.91834 -0.708526 0
M  V30 8759 H 824.972 3.75145 0.966689 0
M  V30 8760 H 825.386 5.19671 -0.710097 0
M  V30 8761 H 826.86 5.43161 0.983884 0
M  V30 8762 H 827.337 3.9789 1.85958 0
M  V30 8763 H 827.943 4.24785 0.209152 0
M  V30 8764 N 826.258 0.243083 1.55714 0
M  V30 8765 C 827.535 -0.432851 1.90751 0
M  V30 8766 C 827.915 -1.76153 1.16333 0
M  V30 8767 O 827.263 -2.26783 0.279565 0
M  V30 8768 C 827.473 -0.604685 3.43722 0
M  V30 8769 C 828.821 -0.90231 4.14902 0
M  V30 8770 O 829.845 -0.690689 3.49439 0
M  V30 8771 O 828.704 -1.3051 5.30688 0
M  V30 8772 H 825.798 -0.231835 0.79384 0
M  V30 8773 H 828.344 0.286867 1.67258 0
M  V30 8774 H 827.116 0.331655 3.89892 0
M  V30 8775 H 826.739 -1.37509 3.73065 0
M  V30 8776 N 827.736 -1.57571 -0.0300757 0
M  V30 8777 C 829.013 -1.80381 -0.756447 0
M  V30 8778 C 829.393 -0.840906 -1.93628 0
M  V30 8779 O 828.741 0.117143 -2.282 0
M  V30 8780 C 828.951 -3.2807 -1.19043 0
M  V30 8781 C 830.299 -3.93025 -1.60676 0
M  V30 8782 O 831.323 -3.32213 -1.28503 0
M  V30 8783 O 830.182 -5.00092 -2.20386 0
M  V30 8784 H 827.276 -0.741737 -0.365725 0
M  V30 8785 H 829.822 -1.69699 -0.00693177 0
M  V30 8786 H 828.594 -3.89748 -0.348128 0
M  V30 8787 H 828.217 -3.43637 -1.99999 0
M  V30 8788 N 829.214 0.302327 -1.54673 0
M  V30 8789 C 830.144 1.37759 -1.88533 0
M  V30 8790 C 831.125 1.52961 -0.744113 0
M  V30 8791 O 832.31 1.6649 -0.999731 0
M  V30 8792 C 829.44 2.74201 -2.13146 0
M  V30 8793 C 828.394 2.73765 -3.28993 0
M  V30 8794 C 827.72 4.13483 -3.39022 0
M  V30 8795 C 829.02 2.35624 -4.66132 0
M  V30 8796 H 830.714 1.0967 -2.78591 0
M  V30 8797 H 828.26 0.52613 -1.34044 0
M  V30 8798 H 830.213 3.49508 -2.35419 0
M  V30 8799 H 828.937 3.03812 -1.19858 0
M  V30 8800 H 827.596 2.00914 -3.06642 0
M  V30 8801 H 827.244 4.40269 -2.43253 0
M  V30 8802 H 826.944 4.14093 -4.16894 0
M  V30 8803 H 828.468 4.90572 -3.63553 0
M  V30 8804 H 829.882 3.00647 -4.88143 0
M  V30 8805 H 828.279 2.47449 -5.46707 0
M  V30 8806 H 829.349 1.30753 -4.66939 0
M  V30 8807 N 830.692 1.47107 0.565454 0
M  V30 8808 C 831.92 1.56909 1.3486 0
M  V30 8809 C 832.335 0.216312 1.87557 0
M  V30 8810 O 831.692 -0.789168 1.64555 0
M  V30 8811 C 831.743 2.58776 2.52423 0
M  V30 8812 O 831.464 3.888 2.01906 0
M  V30 8813 C 832.965 2.78683 3.44747 0
M  V30 8814 H 830.185 0.530096 0.411387 0
M  V30 8815 H 832.729 1.92658 0.685782 0
M  V30 8816 H 830.884 2.25983 3.1466 0
M  V30 8817 H 831.298 4.44393 2.78595 0
M  V30 8818 H 832.772 3.53842 4.23674 0
M  V30 8819 H 833.249 1.86208 3.97773 0
M  V30 8820 H 833.855 3.12641 2.88333 0
M  V30 8821 N 832.17 -0.811516 1.35101 0
M  V30 8822 C 833.418 -1.56525 1.27845 0
M  V30 8823 C 833.739 -1.94435 -0.14829 0
M  V30 8824 O 833.009 -1.63203 -1.08359 0
M  V30 8825 H 831.589 -0.580433 0.47022 0
M  V30 8826 H 834.251 -0.968277 1.69146 0
M  V30 8827 H 833.347 -2.48291 1.89097 0
M  V30 8828 N 833.648 -1.19017 -1.03309 0
M  V30 8829 C 834.888 -1.00129 -1.78195 0
M  V30 8830 C 835.252 0.460236 -1.86402 0
M  V30 8831 O 836.453 0.768802 -2.57571 0
M  V30 8832 C 834.724 -1.64703 -3.17187 0
M  V30 8833 S 836.283 -1.60695 -4.08317 0
M  V30 8834 H 833.101 -0.359395 -0.613479 0
M  V30 8835 H 835.703 -1.51293 -1.23818 0
M  V30 8836 H 834.407 -2.70283 -3.08829 0
M  V30 8837 H 833.938 -1.136 -3.76641 0
M  V30 8838 H 835.953 -0.628171 -4.92208 0
M  V30 8839 N 835.127 1.22348 -0.993418 0
M  V30 8840 C 836.404 1.86632 -0.585495 0
M  V30 8841 C 836.784 1.89156 0.937187 0
M  V30 8842 O 836.132 1.38247 1.81934 0
M  V30 8843 C 836.342 3.27481 -1.20652 0
M  V30 8844 C 837.69 4.03971 -1.30738 0
M  V30 8845 O 838.714 3.3675 -1.16096 0
M  V30 8846 O 837.573 5.24302 -1.54173 0
M  V30 8847 H 834.667 0.802704 -0.198984 0
M  V30 8848 H 837.213 1.30122 -1.08933 0
M  V30 8849 H 835.985 3.20281 -2.24802 0
M  V30 8850 H 835.608 3.91597 -0.688312 0
M  V30 8851 N 836.605 0.766683 1.37694 0
M  V30 8852 C 837.535 0.163432 2.32927 0
M  V30 8853 C 838.516 -0.688861 1.55527 0
M  V30 8854 O 839.701 -0.627363 1.83787 0
M  V30 8855 C 836.831 -0.720416 3.39746 0
M  V30 8856 C 835.785 0.0301718 4.27989 0
M  V30 8857 C 835.111 -0.972788 5.25776 0
M  V30 8858 C 836.411 1.20623 5.0818 0
M  V30 8859 H 838.105 0.958988 2.83626 0
M  V30 8860 H 835.651 0.462601 1.36367 0
M  V30 8861 H 837.604 -1.15221 4.05342 0
M  V30 8862 H 836.328 -1.54844 2.8756 0
M  V30 8863 H 834.987 0.442685 3.63917 0
M  V30 8864 H 834.635 -1.79522 4.69873 0
M  V30 8865 H 834.335 -0.475145 5.85676 0
M  V30 8866 H 835.859 -1.40362 5.94248 0
M  V30 8867 H 837.273 0.851341 5.66944 0
M  V30 8868 H 835.67 1.63561 5.7738 0
M  V30 8869 H 836.74 2.01281 4.41151 0
M  V30 8870 N 838.083 -1.48885 0.516809 0
M  V30 8871 C 839.332 -2.01686 -0.0239899 0
M  V30 8872 C 839.645 -1.40029 -1.3657 0
M  V30 8873 O 840.851 -1.84249 -1.9941 0
M  V30 8874 C 839.307 -3.59779 -0.0931825 0
M  V30 8875 C 838.915 -4.30416 1.24283 0
M  V30 8876 C 840.659 -4.20471 -0.583507 0
M  V30 8877 C 838.566 -5.80408 1.13494 0
M  V30 8878 H 837.496 -0.753892 -0.0127376 0
M  V30 8879 H 840.147 -1.71273 0.65861 0
M  V30 8880 H 838.529 -3.86976 -0.840577 0
M  V30 8881 H 839.703 -4.14905 2.00476 0
M  V30 8882 H 838.018 -3.81539 1.66785 0
M  V30 8883 H 840.615 -5.30333 -0.681987 0
M  V30 8884 H 840.958 -3.84898 -1.58617 0
M  V30 8885 H 841.491 -3.97654 0.107814 0
M  V30 8886 H 838.23 -6.20532 2.11235 0
M  V30 8887 H 837.75 -5.98368 0.414167 0
M  V30 8888 H 839.429 -6.41781 0.820162 0
M  V30 8889 N 839.561 -0.251338 -1.55583 0
M  V30 8890 C 840.972 0.25098 -1.85005 0
M  V30 8891 C 841.323 1.57259 -1.17321 0
M  V30 8892 O 840.448 2.11603 -0.453136 0
M  V30 8893 C 841.043 0.462161 -3.35633 0
M  V30 8894 C 839.602 0.908737 -3.65266 0
M  V30 8895 C 838.749 -0.0115418 -2.77298 0
M  V30 8896 H 841.7 -0.473782 -1.51463 0
M  V30 8897 H 841.721 1.30415 -3.57452 0
M  V30 8898 H 841.233 -0.499886 -3.84867 0
M  V30 8899 H 839.334 1.8831 -3.21512 0
M  V30 8900 H 839.447 0.762526 -4.72993 0
M  V30 8901 H 837.811 0.500612 -2.49732 0
M  V30 8902 H 838.594 -0.969042 -3.29339 0
M  V30 8903 N 841.039 1.57585 0.0217189 0
M  V30 8904 C 842.285 1.89887 0.712099 0
M  V30 8905 C 842.618 0.849971 1.74611 0
M  V30 8906 O 841.893 -0.13407 1.94037 0
M  V30 8907 C 842.176 3.32815 1.37499 0
M  V30 8908 C 842.029 4.48405 0.353993 0
M  V30 8909 C 843.348 3.74786 2.30703 0
M  V30 8910 H 840.467 0.690588 0.257405 0
M  V30 8911 H 843.109 1.89983 -0.0251145 0
M  V30 8912 H 841.259 3.32863 2.00335 0
M  V30 8913 H 842.931 4.60491 -0.273015 0
M  V30 8914 H 841.174 4.32573 -0.32599 0
M  V30 8915 H 841.845 5.45316 0.85644 0
M  V30 8916 H 844.321 3.76151 1.77904 0
M  V30 8917 H 843.197 4.75585 2.74061 0
M  V30 8918 H 843.458 3.07449 3.17691 0
M  V30 8919 N 842.517 -0.29412 1.54831 0
M  V30 8920 C 843.449 -1.38476 1.82639 0
M  V30 8921 C 844.462 -1.46517 0.709694 0
M  V30 8922 O 845.651 -1.48712 0.987269 0
M  V30 8923 C 842.751 -2.76791 1.95551 0
M  V30 8924 C 841.924 -2.91599 3.26019 0
M  V30 8925 C 840.983 -4.10456 3.29261 0
M  V30 8926 O 840.009 -4.02214 4.02756 0
M  V30 8927 N 841.211 -5.21422 2.55145 0
M  V30 8928 H 843.976 -1.14974 2.76769 0
M  V30 8929 H 841.537 -0.484206 1.5449 0
M  V30 8930 H 843.529 -3.5456 1.95113 0
M  V30 8931 H 842.099 -2.93209 1.08384 0
M  V30 8932 H 841.319 -2.00886 3.39173 0
M  V30 8933 H 842.607 -2.98409 4.12104 0
M  V30 8934 H 842.005 -5.31 1.95078 0
M  V30 8935 H 840.562 -5.97501 2.60454 0
M  V30 8936 N 843.995 -1.47404 -0.557645 0
M  V30 8937 C 845.225 -1.57393 -1.33832 0
M  V30 8938 C 845.633 -0.222978 -1.87881 0
M  V30 8939 O 844.976 0.793854 -1.65661 0
M  V30 8940 C 845.038 -2.53882 -2.54528 0
M  V30 8941 C 844.702 -3.99585 -2.21767 0
M  V30 8942 C 845.699 -4.88082 -1.79087 0
M  V30 8943 C 843.384 -4.44917 -2.3314 0
M  V30 8944 C 845.378 -6.1993 -1.48209 0
M  V30 8945 C 843.065 -5.76793 -2.01874 0
M  V30 8946 C 844.063 -6.64121 -1.59476 0
M  V30 8947 O 843.751 -7.93546 -1.28607 0
M  V30 8948 H 843.483 -0.534172 -0.41429 0
M  V30 8949 H 846.037 -1.93733 -0.682404 0
M  V30 8950 H 844.267 -2.12609 -3.23009 0
M  V30 8951 H 845.956 -2.54003 -3.16603 0
M  V30 8952 H 846.722 -4.54307 -1.69794 0
M  V30 8953 H 842.601 -3.77152 -2.65099 0
M  V30 8954 H 846.145 -6.88049 -1.15043 0
M  V30 8955 H 842.042 -6.1011 -2.10799 0
M  V30 8956 H 842.81 -8.06046 -1.42241 0
M  V30 8957 N 845.473 0.80434 -1.35529 0
M  V30 8958 C 846.403 1.93086 -1.31301 0
M  V30 8959 C 847.384 1.69068 -0.187044 0
M  V30 8960 O 848.569 1.90399 -0.382359 0
M  V30 8961 C 845.699 3.29867 -1.0865 0
M  V30 8962 C 844.653 3.68373 -2.17911 0
M  V30 8963 C 843.979 5.0334 -1.80423 0
M  V30 8964 C 845.279 3.78516 -3.59893 0
M  V30 8965 H 846.973 1.96882 -2.25561 0
M  V30 8966 H 844.519 0.945841 -1.08581 0
M  V30 8967 H 846.472 4.08281 -1.04331 0
M  V30 8968 H 845.196 3.2642 -0.108359 0
M  V30 8969 H 843.855 2.92247 -2.21331 0
M  V30 8970 H 843.503 4.96399 -0.812213 0
M  V30 8971 H 843.203 5.30074 -2.53565 0
M  V30 8972 H 844.727 5.84191 -1.77633 0
M  V30 8973 H 846.141 4.47155 -3.58783 0
M  V30 8974 H 844.538 4.16721 -4.31814 0
M  V30 8975 H 845.608 2.8001 -3.95882 0
M  V30 8976 N 846.951 1.19563 1.02676 0
M  V30 8977 C 848.367 0.948304 1.28372 0
M  V30 8978 C 848.567 -0.378096 1.97921 0
M  V30 8979 O 847.623 -1.1091 2.26838 0
M  V30 8980 C 848.936 2.12381 2.12873 0
M  V30 8981 C 850.484 2.16366 2.26174 0
M  V30 8982 C 850.959 3.33374 3.14048 0
M  V30 8983 N 852.45 3.33323 3.21636 0
M  V30 8984 C 853.185 4.20504 3.89825 0
M  V30 8985 N 852.681 5.17845 4.60227 0
M  V30 8986 N 854.474 4.08375 3.86246 0
M  V30 8987 H 846.625 2.04899 0.559485 0
M  V30 8988 H 848.888 0.89606 0.309484 0
M  V30 8989 H 848.594 3.08383 1.69094 0
M  V30 8990 H 848.468 2.09621 3.1359 0
M  V30 8991 H 850.855 1.20933 2.69182 0
M  V30 8992 H 850.936 2.23179 1.25 0
M  V30 8993 H 850.58 4.29087 2.71747 0
M  V30 8994 H 850.51 3.23798 4.15286 0
M  V30 8995 H 853.001 2.62863 2.71498 0
M  V30 8996 H 853.314 5.80712 5.09896 0
M  V30 8997 H 851.659 5.21791 4.59085 0
M  V30 8998 H 854.85 3.31606 3.30386 0
M  V30 8999 H 855.023 4.76532 4.39114 0
M  V30 9000 N 848.429 -1.21819 0.999893 0
M  V30 9001 C 849.675 -1.91325 0.690373 0
M  V30 9002 C 850.03 -1.76323 -0.769929 0
M  V30 9003 O 849.323 -1.12585 -1.55033 0
M  V30 9004 C 849.517 -3.4193 1.04012 0
M  V30 9005 C 849.346 -3.71585 2.53287 0
M  V30 9006 C 848.116 -3.91219 3.19806 0
M  V30 9007 C 850.314 -3.75502 3.5143 0
M  V30 9008 N 848.296 -4.08246 4.58485 0
M  V30 9009 C 849.667 -3.97753 4.75597 0
M  V30 9010 C 851.722 -3.58383 3.45638 0
M  V30 9011 C 850.425 -4.04662 5.94677 0
M  V30 9012 C 852.451 -3.66555 4.64103 0
M  V30 9013 C 851.813 -3.89263 5.87072 0
M  V30 9014 H 847.912 -0.720484 0.304018 0
M  V30 9015 H 850.496 -1.46595 1.28133 0
M  V30 9016 H 848.667 -3.85452 0.477671 0
M  V30 9017 H 850.399 -3.98846 0.685864 0
M  V30 9018 H 847.154 -3.88917 2.7026 0
M  V30 9019 H 847.578 -4.20673 5.30437 0
M  V30 9020 H 852.22 -3.39807 2.51576 0
M  V30 9021 H 849.938 -4.22039 6.89136 0
M  V30 9022 H 853.524 -3.54639 4.61218 0
M  V30 9023 H 852.404 -3.95424 6.77207 0
M  V30 9024 N 849.908 -0.773975 -1.37286 0
M  V30 9025 C 851.156 -0.338636 -1.99243 0
M  V30 9026 C 851.477 1.08919 -1.61746 0
M  V30 9027 O 850.747 1.74822 -0.88397 0
M  V30 9028 H 849.327 -0.12222 -0.736934 0
M  V30 9029 H 851.989 -0.992595 -1.67731 0
M  V30 9030 H 851.085 -0.418055 -3.09287 0
M  V30 9031 N 851.386 1.48609 -0.524698 0
M  V30 9032 C 852.663 1.95454 0.075465 0
M  V30 9033 C 853.043 1.46682 1.51814 0
M  V30 9034 O 852.391 0.690975 2.17802 0
M  V30 9035 C 852.601 3.48981 -0.0363273 0
M  V30 9036 C 853.949 4.24414 0.125624 0
M  V30 9037 O 854.973 3.5618 0.0377239 0
M  V30 9038 O 853.832 5.45625 0.309104 0
M  V30 9039 H 850.926 0.822902 0.0822256 0
M  V30 9040 H 853.472 1.59153 -0.588921 0
M  V30 9041 H 852.244 3.77185 -1.04149 0
M  V30 9042 H 851.867 3.91963 0.667146 0
M  V30 9043 N 852.864 0.259585 1.55447 0
M  V30 9044 C 854.275 -0.241165 1.85136 0
M  V30 9045 C 854.626 -1.56634 1.18153 0
M  V30 9046 O 853.751 -2.11359 0.464351 0
M  V30 9047 C 854.346 -0.444355 3.35873 0
M  V30 9048 C 852.905 -0.889354 3.65742 0
M  V30 9049 C 852.052 0.0262474 2.77288 0
M  V30 9050 H 855.003 0.481808 1.51209 0
M  V30 9051 H 855.024 -1.28517 3.58139 0
M  V30 9052 H 854.536 0.520289 3.84597 0
M  V30 9053 H 852.637 -1.86602 3.22507 0
M  V30 9054 H 852.75 -0.737432 4.73391 0
M  V30 9055 H 851.114 -0.487361 2.49994 0
M  V30 9056 H 851.897 0.986494 3.28821 0
M  V30 9057 N 854.342 -1.57594 -0.0133615 0
M  V30 9058 C 855.252 -2.10991 -1.02566 0
M  V30 9059 C 856.268 -1.05208 -1.3859 0
M  V30 9060 O 857.444 -1.37034 -1.47593 0
M  V30 9061 C 854.509 -2.59165 -2.30292 0
M  V30 9062 C 853.57 -3.79495 -2.00704 0
M  V30 9063 C 852.803 -4.25361 -3.22341 0
M  V30 9064 O 853.026 -3.70645 -4.33565 0
M  V30 9065 O 851.96 -5.17649 -3.07121 0
M  V30 9066 H 855.786 -2.97678 -0.601806 0
M  V30 9067 H 853.371 -1.47598 -0.23135 0
M  V30 9068 H 855.253 -2.90409 -3.05354 0
M  V30 9069 H 853.928 -1.75582 -2.71942 0
M  V30 9070 H 852.835 -3.53245 -1.23161 0
M  V30 9071 H 854.168 -4.64109 -1.639 0
M  V30 9072 N 855.82 0.285905 -1.54985 0
M  V30 9073 C 857.231 0.857869 -1.65824 0
M  V30 9074 C 857.582 1.87531 -0.576763 0
M  V30 9075 O 856.707 2.14528 0.284016 0
M  V30 9076 C 857.302 1.56277 -3.00604 0
M  V30 9077 C 855.861 2.08294 -3.13513 0
M  V30 9078 C 855.008 0.920633 -2.61571 0
M  V30 9079 H 857.959 0.0625463 -1.58577 0
M  V30 9080 H 857.98 2.42912 -2.92872 0
M  V30 9081 H 857.492 0.822017 -3.79295 0
M  V30 9082 H 855.593 2.8537 -2.39572 0
M  V30 9083 H 855.706 2.3071 -4.19892 0
M  V30 9084 H 854.07 1.31043 -2.18403 0
M  V30 9085 H 854.853 0.193594 -3.42754 0
M  V30 9086 N 857.298 1.47698 0.54982 0
M  V30 9087 C 858.547 1.53961 1.30303 0
M  V30 9088 C 858.86 0.209731 1.94472 0
M  V30 9089 O 860.066 0.150418 2.71083 0
M  V30 9090 C 858.522 2.71436 2.36328 0
M  V30 9091 C 858.13 4.10983 1.78316 0
M  V30 9092 C 859.874 2.86996 3.12783 0
M  V30 9093 C 857.781 5.19747 2.82164 0
M  V30 9094 H 856.711 0.573098 0.489975 0
M  V30 9095 H 859.362 1.73989 0.583089 0
M  V30 9096 H 857.744 2.44801 3.11269 0
M  V30 9097 H 858.918 4.47552 1.09697 0
M  V30 9098 H 857.233 4.00371 1.1442 0
M  V30 9099 H 859.83 3.65422 3.90347 0
M  V30 9100 H 860.173 1.95712 3.67427 0
M  V30 9101 H 860.706 3.13436 2.44954 0
M  V30 9102 H 857.445 6.12932 2.32366 0
M  V30 9103 H 856.965 4.87688 3.49171 0
M  V30 9104 H 858.644 5.47014 3.4552 0
M  V30 9105 N 858.776 -0.797141 1.35954 0
M  V30 9106 C 859.739 -1.89104 1.29508 0
M  V30 9107 C 860.739 -1.59495 0.204444 0
M  V30 9108 O 861.929 -1.68051 0.458746 0
M  V30 9109 C 859.061 -3.25726 1.00576 0
M  V30 9110 H 860.254 -1.96237 2.26785 0
M  V30 9111 H 857.807 -0.994075 1.20614 0
M  V30 9112 H 858.542 -3.24279 0.0372519 0
M  V30 9113 H 858.327 -3.48604 1.79492 0
M  V30 9114 H 859.817 -4.0578 0.986508 0
M  V30 9115 N 860.254 -1.20106 -1.0204 0
M  V30 9116 C 861.217 -0.948261 -2.08664 0
M  V30 9117 C 862.217 0.0746753 -1.60627 0
M  V30 9118 O 863.407 -0.160981 -1.73455 0
M  V30 9119 C 860.539 -0.426854 -3.38217 0
M  V30 9120 H 861.732 -1.894 -2.32524 0
M  V30 9121 H 859.285 -1.0159 -1.18782 0
M  V30 9122 H 860.02 0.524532 -3.2003 0
M  V30 9123 H 859.805 -1.16451 -3.74408 0
M  V30 9124 H 861.295 -0.269346 -4.1673 0
M  V30 9125 N 861.732 1.21287 -1.00634 0
M  V30 9126 C 862.978 1.90671 -0.690822 0
M  V30 9127 C 863.311 1.77996 0.776592 0
M  V30 9128 O 862.586 1.15748 1.5631 0
M  V30 9129 C 862.869 3.42426 -1.11428 0
M  V30 9130 C 862.722 3.64086 -2.64124 0
M  V30 9131 C 864.041 4.34851 -0.677686 0
M  V30 9132 H 861.16 0.692419 -0.252439 0
M  V30 9133 H 863.802 1.42893 -1.25226 0
M  V30 9134 H 861.952 3.83249 -0.636586 0
M  V30 9135 H 863.624 3.32582 -3.19667 0
M  V30 9136 H 861.867 3.07906 -3.05576 0
M  V30 9137 H 862.538 4.7042 -2.88806 0
M  V30 9138 H 865.014 4.01619 -1.0882 0
M  V30 9139 H 863.89 5.39675 -1.00213 0
M  V30 9140 H 864.151 4.4009 0.421125 0
M  V30 9141 N 863.21 0.781244 1.36873 0
M  V30 9142 C 864.456 0.350407 1.9975 0
M  V30 9143 C 864.789 -1.07293 1.6187 0
M  V30 9144 O 864.064 -1.73983 0.869491 0
M  V30 9145 C 864.347 0.504834 3.56544 0
M  V30 9146 C 864.2 1.97127 4.04303 0
M  V30 9147 C 865.519 -0.0851272 4.40018 0
M  V30 9148 H 862.638 0.128794 0.725659 0
M  V30 9149 H 865.28 0.98606 1.6241 0
M  V30 9150 H 863.43 -0.0363006 3.88483 0
M  V30 9151 H 865.102 2.57284 3.82887 0
M  V30 9152 H 863.345 2.47676 3.56145 0
M  V30 9153 H 864.016 2.03033 5.13305 0
M  V30 9154 H 866.492 0.376704 4.14391 0
M  V30 9155 H 865.368 0.0530015 5.48874 0
M  V30 9156 H 865.629 -1.17642 4.2616 0
M  V30 9157 N 864.689 -1.48329 0.532571 0
M  V30 9158 C 865.936 -2.025 -0.000582356 0
M  V30 9159 C 866.264 -1.40942 -1.34036 0
M  V30 9160 O 865.519 -0.545545 -1.87942 0
M  V30 9161 C 865.818 -3.57 -0.168943 0
M  V30 9162 C 865.484 -4.37357 1.0968 0
M  V30 9163 C 864.146 -4.59033 1.44369 0
M  V30 9164 C 866.498 -4.83882 1.93669 0
M  V30 9165 C 863.826 -5.24481 2.62939 0
M  V30 9166 C 866.178 -5.50637 3.11419 0
M  V30 9167 C 864.842 -5.70551 3.46451 0
M  V30 9168 H 864.112 -0.741 -0.000213099 0
M  V30 9169 H 866.759 -1.78282 0.699117 0
M  V30 9170 H 865.064 -3.80072 -0.951429 0
M  V30 9171 H 866.761 -3.9654 -0.596422 0
M  V30 9172 H 863.351 -4.20748 0.816655 0
M  V30 9173 H 867.535 -4.66936 1.6818 0
M  V30 9174 H 862.791 -5.38096 2.9028 0
M  V30 9175 H 866.965 -5.85655 3.76803 0
M  V30 9176 H 864.592 -6.21037 4.38425 0
M  V30 9177 N 866.167 -0.267825 -1.55308 0
M  V30 9178 C 867.13 0.60965 -2.20943 0
M  V30 9179 C 868.13 1.0869 -1.18504 0
M  V30 9180 O 869.32 0.988248 -1.43455 0
M  V30 9181 C 866.452 1.84027 -2.86961 0
M  V30 9182 H 867.645 0.0366806 -2.99878 0
M  V30 9183 H 865.198 -0.0183941 -1.56289 0
M  V30 9184 H 865.933 2.45394 -2.1202 0
M  V30 9185 H 865.718 1.50605 -3.62023 0
M  V30 9186 H 867.208 2.46442 -3.37129 0
M  V30 9187 N 867.645 1.57599 0.00500368 0
M  V30 9188 C 868.885 1.92205 0.695456 0
M  V30 9189 C 869.249 0.868894 1.71214 0
M  V30 9190 O 870.45 1.10004 2.4526 0
M  V30 9191 C 868.721 3.31882 1.32625 0
M  V30 9192 S 870.28 3.88364 2.04252 0
M  V30 9193 H 867.098 0.672826 0.22984 0
M  V30 9194 H 869.7 1.95435 -0.0504824 0
M  V30 9195 H 868.404 4.06375 0.573396 0
M  V30 9196 H 867.935 3.32013 2.11023 0
M  V30 9197 H 869.95 3.69035 3.31704 0
M  V30 9198 N 869.123 -0.277682 1.55134 0
M  V30 9199 C 870.053 -1.34742 1.90701 0
M  V30 9200 C 871.034 -1.51757 0.768354 0
M  V30 9201 O 872.219 -1.64879 1.02609 0
M  V30 9202 C 869.349 -2.70775 2.17481 0
M  V30 9203 C 868.303 -2.68497 3.33307 0
M  V30 9204 C 867.629 -4.08037 3.45557 0
M  V30 9205 C 868.929 -2.28178 4.69821 0
M  V30 9206 H 870.623 -1.05224 2.803 0
M  V30 9207 H 868.169 -0.504738 1.34864 0
M  V30 9208 H 870.122 -3.45719 2.40949 0
M  V30 9209 H 868.846 -3.01867 1.24676 0
M  V30 9210 H 867.505 -1.9601 3.09799 0
M  V30 9211 H 867.153 -4.36344 2.50226 0
M  V30 9212 H 866.853 -4.07409 4.23429 0
M  V30 9213 H 868.377 -4.84726 3.71312 0
M  V30 9214 H 869.791 -2.92843 4.92865 0
M  V30 9215 H 868.188 -2.3872 5.50575 0
M  V30 9216 H 869.258 -1.23308 4.6896 0
M  V30 9217 N 870.601 -1.47988 -0.541979 0
M  V30 9218 C 871.849 -1.55086 -1.29587 0
M  V30 9219 C 872.17 -0.221304 -1.9374 0
M  V30 9220 O 871.44 0.756128 -1.80719 0
M  V30 9221 H 870.02 -0.571307 -0.481266 0
M  V30 9222 H 872.682 -1.8438 -0.631675 0
M  V30 9223 H 871.778 -2.32556 -2.08144 0
M  V30 9224 N 872.079 0.78992 -1.36375 0
M  V30 9225 C 873.009 1.91683 -1.33341 0
M  V30 9226 C 873.99 1.68861 -0.204965 0
M  V30 9227 O 875.175 1.89982 -0.402531 0
M  V30 9228 C 872.305 3.28696 -1.12143 0
M  V30 9229 C 871.259 3.66041 -2.21806 0
M  V30 9230 C 870.585 5.01399 -1.85751 0
M  V30 9231 C 871.885 3.74677 -3.63888 0
M  V30 9232 H 873.579 1.94478 -2.27637 0
M  V30 9233 H 871.125 0.934271 -1.09578 0
M  V30 9234 H 873.078 4.07151 -1.08656 0
M  V30 9235 H 871.802 3.26287 -0.142974 0
M  V30 9236 H 870.461 2.89883 -2.24418 0
M  V30 9237 H 870.109 4.9551 -0.864817 0
M  V30 9238 H 869.809 5.27355 -2.59173 0
M  V30 9239 H 871.333 5.82274 -1.83819 0
M  V30 9240 H 872.747 4.43324 -3.63506 0
M  V30 9241 H 871.144 4.12118 -4.3621 0
M  V30 9242 H 872.214 2.75795 -3.9883 0
M  V30 9243 N 873.557 1.20646 1.01402 0
M  V30 9244 C 874.487 0.98155 2.11867 0
M  V30 9245 C 875.468 -0.0903712 1.6986 0
M  V30 9246 O 876.653 0.0676586 1.94082 0
M  V30 9247 C 873.783 0.535636 3.43145 0
M  V30 9248 C 872.737 1.55109 3.98905 0
M  V30 9249 C 872.063 0.961725 5.2598 0
M  V30 9250 C 873.363 2.93552 4.32001 0
M  V30 9251 H 875.057 1.90544 2.3094 0
M  V30 9252 H 872.603 0.917554 1.10982 0
M  V30 9253 H 874.556 0.365512 4.19812 0
M  V30 9254 H 873.28 -0.423882 3.23838 0
M  V30 9255 H 871.939 1.70862 3.24348 0
M  V30 9256 H 871.587 -0.00580108 5.03 0
M  V30 9257 H 871.287 1.63993 5.64252 0
M  V30 9258 H 872.811 0.802726 6.053 0
M  V30 9259 H 874.225 2.81295 4.99546 0
M  V30 9260 H 872.622 3.58303 4.81393 0
M  V30 9261 H 873.692 3.4508 3.40658 0
M  V30 9262 N 875.035 -1.20752 1.01276 0
M  V30 9263 C 875.998 -2.2162 0.584583 0
M  V30 9264 C 876.998 -1.57094 -0.343215 0
M  V30 9265 O 878.188 -1.73696 -0.132433 0
M  V30 9266 C 875.32 -3.40583 -0.146872 0
M  V30 9267 H 876.513 -2.61015 1.47686 0
M  V30 9268 H 874.066 -1.34148 0.802123 0
M  V30 9269 H 874.801 -3.06686 -1.05424 0
M  V30 9270 H 874.586 -3.88642 0.51958 0
M  V30 9271 H 876.076 -4.15339 -0.433924 0
M  V30 9272 N 876.513 -0.788492 -1.36457 0
M  V30 9273 C 877.741 -0.372365 -2.03522 0
M  V30 9274 C 878.156 1.01093 -1.59454 0
M  V30 9275 O 877.513 1.64824 -0.783535 0
M  V30 9276 C 877.564 -0.425435 -3.58988 0
M  V30 9277 O 877.285 -1.75418 -4.01448 0
M  V30 9278 C 878.786 0.000180167 -4.433 0
M  V30 9279 H 876.006 -0.1536 -0.653183 0
M  V30 9280 H 878.55 -1.06708 -1.74452 0
M  V30 9281 H 876.705 0.220856 -3.8677 0
M  V30 9282 H 877.119 -1.70437 -4.96036 0
M  V30 9283 H 878.593 -0.0880919 -5.5193 0
M  V30 9284 H 879.07 1.05269 -4.26398 0
M  V30 9285 H 879.676 -0.618563 -4.20778 0
M  V30 9286 N 877.991 1.48044 -0.54043 0
M  V30 9287 C 878.921 2.32597 0.205178 0
M  V30 9288 C 879.902 1.42748 0.925041 0
M  V30 9289 O 881.087 1.71624 0.908784 0
M  V30 9290 C 878.217 3.24175 1.24612 0
M  V30 9291 C 877.171 4.23131 0.64376 0
M  V30 9292 C 876.497 5.03915 1.78812 0
M  V30 9293 C 877.797 5.20831 -0.39144 0
M  V30 9294 H 879.491 2.95184 -0.500676 0
M  V30 9295 H 877.037 1.41948 -0.242225 0
M  V30 9296 H 878.99 3.82158 1.77576 0
M  V30 9297 H 877.714 2.59608 1.98169 0
M  V30 9298 H 876.373 3.66349 0.135554 0
M  V30 9299 H 876.021 4.35765 2.51232 0
M  V30 9300 H 875.721 5.709 1.39094 0
M  V30 9301 H 877.245 5.64753 2.32134 0
M  V30 9302 H 878.659 5.73277 0.0515064 0
M  V30 9303 H 877.056 5.95926 -0.706569 0
M  V30 9304 H 878.126 4.6733 -1.29345 0
M  V30 9305 N 879.47 0.276058 1.55163 0
M  V30 9306 C 880.717 -0.340455 1.99618 0
M  V30 9307 C 881.045 -1.5579 1.16446 0
M  V30 9308 O 880.3 -1.94433 0.222359 0
M  V30 9309 C 880.599 -0.765744 3.491 0
M  V30 9310 C 880.265 0.347174 4.49561 0
M  V30 9311 C 878.927 0.65276 4.76752 0
M  V30 9312 C 881.279 1.09705 5.09523 0
M  V30 9313 C 878.607 1.71179 5.61173 0
M  V30 9314 C 880.959 2.14581 5.95095 0
M  V30 9315 C 879.623 2.45773 6.20606 0
M  V30 9316 H 878.893 -0.124581 0.730452 0
M  V30 9317 H 881.54 0.389966 1.87487 0
M  V30 9318 H 879.845 -1.57585 3.58712 0
M  V30 9319 H 881.542 -1.25352 3.80904 0
M  V30 9320 H 878.132 0.0988779 4.28486 0
M  V30 9321 H 882.316 0.874223 4.8854 0
M  V30 9322 H 877.572 1.95846 5.79184 0
M  V30 9323 H 881.746 2.7316 6.40591 0
M  V30 9324 H 879.373 3.27969 6.85813 0
M  V30 9325 N 880.948 -1.576 0.00335426 0
M  V30 9326 C 882.194 -1.90996 -0.681799 0
M  V30 9327 C 882.527 -0.877643 -1.73237 0
M  V30 9328 O 881.802 0.103183 -1.94226 0
M  V30 9329 C 882.085 -3.34961 -1.32187 0
M  V30 9330 C 881.938 -4.48911 -0.28261 0
M  V30 9331 C 883.257 -3.78408 -2.24711 0
M  V30 9332 H 880.376 -0.694596 -0.246386 0
M  V30 9333 H 883.018 -1.89919 0.055336 0
M  V30 9334 H 881.168 -3.36008 -1.95014 0
M  V30 9335 H 882.84 -4.59999 0.346241 0
M  V30 9336 H 881.083 -4.32 0.394768 0
M  V30 9337 H 881.754 -5.46609 -0.769576 0
M  V30 9338 H 884.23 -3.78934 -1.71897 0
M  V30 9339 H 883.106 -4.79885 -2.66461 0
M  V30 9340 H 883.367 -3.12464 -3.1276 0
M  V30 9341 N 882.426 0.269451 -1.5528 0
M  V30 9342 C 883.654 1.01872 -1.80082 0
M  V30 9343 C 884.069 1.79802 -0.575917 0
M  V30 9344 O 883.426 1.76735 0.455081 0
M  V30 9345 C 883.477 1.9745 -3.02813 0
M  V30 9346 O 883.198 1.22677 -4.20573 0
M  V30 9347 C 884.699 2.8416 -3.40247 0
M  V30 9348 H 881.919 0.300781 -0.59981 0
M  V30 9349 H 884.463 0.29916 -2.023 0
M  V30 9350 H 882.618 2.64864 -2.82712 0
M  V30 9351 H 883.032 1.87129 -4.89982 0
M  V30 9352 H 884.506 3.47014 -4.29284 0
M  V30 9353 H 884.983 3.54113 -2.59809 0
M  V30 9354 H 885.589 2.22232 -3.6262 0
M  V30 9355 N 883.904 1.48273 0.534124 0
M  V30 9356 C 885.15 1.56311 1.29208 0
M  V30 9357 C 885.483 0.234481 1.92779 0
M  V30 9358 O 884.758 -0.759143 1.79073 0
M  V30 9359 C 885.041 2.69831 2.3846 0
M  V30 9360 C 884.894 4.12385 1.79608 0
M  V30 9361 C 886.213 2.79133 3.40254 0
M  V30 9362 H 883.332 0.56899 0.468422 0
M  V30 9363 H 885.974 1.80429 0.595438 0
M  V30 9364 H 884.124 2.49397 2.97881 0
M  V30 9365 H 885.796 4.44246 1.24269 0
M  V30 9366 H 884.039 4.19579 1.10162 0
M  V30 9367 H 884.71 4.87629 2.58693 0
M  V30 9368 H 887.186 2.97632 2.90783 0
M  V30 9369 H 886.062 3.60298 4.14097 0
M  V30 9370 H 886.323 1.87122 4.00547 0
M  V30 9371 N 885.382 -0.782676 1.36792 0
M  V30 9372 C 886.628 -1.54311 1.3159 0
M  V30 9373 C 886.961 -1.93928 -0.102696 0
M  V30 9374 O 886.236 -1.63233 -1.05761 0
M  V30 9375 C 886.519 -2.81561 2.24489 0
M  V30 9376 C 886.372 -2.48268 3.75078 0
M  V30 9377 C 887.691 -3.83428 2.16034 0
M  V30 9378 H 884.81 -0.559828 0.479335 0
M  V30 9379 H 887.452 -0.898717 1.67401 0
M  V30 9380 H 885.602 -3.36549 1.9408 0
M  V30 9381 H 887.274 -1.99279 4.16036 0
M  V30 9382 H 885.517 -1.81116 3.94182 0
M  V30 9383 H 886.188 -3.39183 4.35499 0
M  V30 9384 H 888.664 -3.37905 2.42815 0
M  V30 9385 H 887.54 -4.70204 2.83194 0
M  V30 9386 H 887.801 -4.26887 1.14976 0
M  V30 9387 N 886.86 -1.21182 -1.00761 0
M  V30 9388 C 888.107 -1.02746 -1.74498 0
M  V30 9389 C 888.435 0.439344 -1.89473 0
M  V30 9390 O 887.69 1.34232 -1.42409 0
M  V30 9391 C 887.989 -1.6667 -3.16158 0
M  V30 9392 C 887.655 -3.16515 -3.21137 0
M  V30 9393 C 886.317 -3.57405 -3.22203 0
M  V30 9394 C 888.669 -4.12495 -3.18587 0
M  V30 9395 C 885.997 -4.92786 -3.18401 0
M  V30 9396 C 888.349 -5.47833 -3.16326 0
M  V30 9397 C 887.013 -5.88124 -3.157 0
M  V30 9398 H 886.283 -0.375974 -0.638533 0
M  V30 9399 H 888.93 -1.50736 -1.18114 0
M  V30 9400 H 887.235 -1.10966 -3.75758 0
M  V30 9401 H 888.932 -1.49911 -3.71924 0
M  V30 9402 H 885.522 -2.83947 -3.21048 0
M  V30 9403 H 889.706 -3.81932 -3.16925 0
M  V30 9404 H 884.962 -5.23253 -3.16253 0
M  V30 9405 H 889.136 -6.21942 -3.13306 0
M  V30 9406 H 886.763 -6.92995 -3.12508 0
M  V30 9407 N 888.338 1.20213 -1.01915 0
M  V30 9408 C 889.587 1.88968 -0.705261 0
M  V30 9409 C 889.9 1.79869 0.768531 0
M  V30 9410 O 891.106 2.43783 1.19508 0
M  V30 9411 C 889.562 3.38911 -1.21109 0
M  V30 9412 C 889.17 3.5659 -2.71197 0
M  V30 9413 C 890.914 4.13204 -0.97275 0
M  V30 9414 C 888.821 5.00372 -3.15248 0
M  V30 9415 H 887.751 0.707715 -0.260107 0
M  V30 9416 H 890.402 1.35977 -1.23217 0
M  V30 9417 H 888.784 3.9124 -0.612152 0
M  V30 9418 H 889.958 3.14635 -3.36662 0
M  V30 9419 H 888.273 2.95671 -2.93202 0
M  V30 9420 H 890.87 5.19221 -1.27726 0
M  V30 9421 H 891.213 4.16201 0.09072 0
M  V30 9422 H 891.746 3.66983 -1.5352 0
M  V30 9423 H 888.485 5.02532 -4.20882 0
M  V30 9424 H 888.005 5.43127 -2.54505 0
M  V30 9425 H 889.684 5.68969 -3.08032 0
M  V30 9426 N 889.816 0.795718 1.36037 0
M  V30 9427 C 891.065 0.367575 1.98322 0
M  V30 9428 C 891.378 -1.06823 1.63854 0
M  V30 9429 O 892.584 -1.59895 2.19421 0
M  V30 9430 C 891.04 0.606272 3.54757 0
M  V30 9431 C 890.648 2.0539 3.98144 0
M  V30 9432 C 892.392 0.242947 4.23804 0
M  V30 9433 C 890.299 2.23893 5.47381 0
M  V30 9434 H 889.229 0.133699 0.742052 0
M  V30 9435 H 891.88 0.978242 1.5525 0
M  V30 9436 H 890.262 -0.0741957 3.9593 0
M  V30 9437 H 891.436 2.77129 3.68152 0
M  V30 9438 H 889.751 2.37607 3.41953 0
M  V30 9439 H 892.348 0.359382 5.33491 0
M  V30 9440 H 892.691 -0.809661 4.08351 0
M  V30 9441 H 893.224 0.876899 3.88015 0
M  V30 9442 H 889.963 3.27559 5.6779 0
M  V30 9443 H 889.483 1.56666 5.78978 0
M  V30 9444 H 891.162 2.04914 6.13693 0
M  V30 9445 N 891.294 -1.47756 0.548274 0
M  V30 9446 C 892.524 -2.06584 0.0254503 0
M  V30 9447 C 892.932 -1.40268 -1.26971 0
M  V30 9448 O 892.275 -0.49019 -1.77039 0
M  V30 9449 C 892.337 -3.58628 -0.250301 0
M  V30 9450 C 892.001 -4.4693 0.954087 0
M  V30 9451 C 892.998 -4.85592 1.85733 0
M  V30 9452 C 890.683 -4.88573 1.16624 0
M  V30 9453 C 892.677 -5.64686 2.95648 0
M  V30 9454 C 890.364 -5.67435 2.2685 0
M  V30 9455 C 891.362 -6.05401 3.16194 0
M  V30 9456 O 891.05 -6.82676 4.24511 0
M  V30 9457 H 890.782 -0.67489 0.0387264 0
M  V30 9458 H 893.336 -1.90876 0.758663 0
M  V30 9459 H 891.566 -3.72516 -1.03771 0
M  V30 9460 H 893.255 -3.9951 -0.717419 0
M  V30 9461 H 894.021 -4.54026 1.70544 0
M  V30 9462 H 889.9 -4.58494 0.480039 0
M  V30 9463 H 893.444 -5.9424 3.65411 0
M  V30 9464 H 889.341 -5.98413 2.42016 0
M  V30 9465 H 890.109 -7.01057 4.22447 0
M  V30 9466 N 892.772 -0.284283 -1.55015 0
M  V30 9467 C 894.188 0.069603 -1.59448 0
M  V30 9468 C 894.388 1.53833 -1.30144 0
M  V30 9469 O 893.444 2.2886 -1.06674 0
M  V30 9470 C 894.757 -0.313287 -2.99064 0
M  V30 9471 C 896.305 -0.260662 -3.11913 0
M  V30 9472 C 896.78 -0.618127 -4.5381 0
M  V30 9473 N 898.271 -0.570026 -4.59679 0
M  V30 9474 C 899.006 -0.8193 -5.67517 0
M  V30 9475 N 898.502 -1.13367 -6.83462 0
M  V30 9476 N 900.295 -0.747482 -5.57108 0
M  V30 9477 H 892.446 -1.24167 -1.72326 0
M  V30 9478 H 894.709 -0.502259 -0.804015 0
M  V30 9479 H 894.415 -1.33509 -3.25374 0
M  V30 9480 H 894.289 0.341369 -3.75652 0
M  V30 9481 H 896.676 0.751869 -2.85361 0
M  V30 9482 H 896.757 -0.949706 -2.37517 0
M  V30 9483 H 896.401 -1.62839 -4.81088 0
M  V30 9484 H 896.331 0.092807 -5.26518 0
M  V30 9485 H 898.822 -0.3373 -3.76392 0
M  V30 9486 H 899.135 -1.3103 -7.61611 0
M  V30 9487 H 897.48 -1.17154 -6.85055 0
M  V30 9488 H 900.671 -0.501658 -4.65404 0
M  V30 9489 H 900.844 -0.945128 -6.4107 0
M  V30 9490 N 894.251 1.57596 -0.0117121 0
M  V30 9491 C 895.528 1.82323 0.708356 0
M  V30 9492 C 895.908 0.891947 1.91331 0
M  V30 9493 O 895.256 -0.0565984 2.2843 0
M  V30 9494 C 895.466 3.31111 1.10303 0
M  V30 9495 C 896.814 3.97147 1.50199 0
M  V30 9496 O 897.838 3.35503 1.1965 0
M  V30 9497 O 896.697 5.0576 2.07049 0
M  V30 9498 H 893.791 0.751173 0.345931 0
M  V30 9499 H 896.337 1.69657 -0.0380632 0
M  V30 9500 H 895.109 3.90534 0.24467 0
M  V30 9501 H 894.732 3.48818 1.90818 0
M  V30 9502 N 895.729 -0.261212 1.5542 0
M  V30 9503 C 896.957 -1.00916 1.8062 0
M  V30 9504 C 897.372 -1.79494 0.585444 0
M  V30 9505 O 896.729 -1.76974 -0.445702 0
M  V30 9506 C 896.78 -1.95841 3.03856 0
M  V30 9507 O 896.501 -1.20445 4.21218 0
M  V30 9508 C 898.002 -2.82352 3.41749 0
M  V30 9509 H 895.222 -0.297596 0.601397 0
M  V30 9510 H 897.766 -0.288427 2.02456 0
M  V30 9511 H 895.921 -2.63361 2.84112 0
M  V30 9512 H 896.335 -1.84528 4.90968 0
M  V30 9513 H 897.809 -3.44733 4.31118 0
M  V30 9514 H 898.286 -3.5273 2.61683 0
M  V30 9515 H 898.892 -2.20306 3.63793 0
M  V30 9516 N 897.207 -1.48554 -0.526253 0
M  V30 9517 C 898.618 -1.50256 -1.10815 0
M  V30 9518 C 898.969 -0.274445 -1.94271 0
M  V30 9519 O 898.094 0.618094 -2.07385 0
M  V30 9520 C 898.689 -2.72264 -2.01638 0
M  V30 9521 C 897.248 -2.76826 -2.55038 0
M  V30 9522 C 896.395 -2.43823 -1.32081 0
M  V30 9523 H 899.346 -1.55616 -0.31133 0
M  V30 9524 H 899.367 -2.50993 -2.85977 0
M  V30 9525 H 898.879 -3.61632 -1.4087 0
M  V30 9526 H 896.98 -1.91676 -3.19517 0
M  V30 9527 H 897.093 -3.78351 -2.93917 0
M  V30 9528 H 895.457 -1.95058 -1.63781 0
M  V30 9529 H 896.24 -3.35436 -0.730596 0
M  V30 9530 N 898.685 0.775411 -1.37205 0
M  V30 9531 C 899.931 1.53611 -1.32407 0
M  V30 9532 C 900.264 1.9398 0.0924103 0
M  V30 9533 O 899.539 1.63791 1.04893 0
M  V30 9534 C 899.822 2.80367 -2.25979 0
M  V30 9535 C 899.675 2.46275 -3.76389 0
M  V30 9536 C 900.994 3.82277 -2.18064 0
M  V30 9537 H 898.113 0.557278 -0.482297 0
M  V30 9538 H 900.755 0.889826 -1.67875 0
M  V30 9539 H 898.905 3.35515 -1.95862 0
M  V30 9540 H 900.577 1.9707 -4.17087 0
M  V30 9541 H 898.82 1.79023 -3.95137 0
M  V30 9542 H 899.491 3.36868 -4.37291 0
M  V30 9543 H 901.967 3.36613 -2.44604 0
M  V30 9544 H 900.843 4.68696 -2.85684 0
M  V30 9545 H 901.104 4.26272 -1.17239 0
M  V30 9546 N 900.163 1.21714 1.00117 0
M  V30 9547 C 901.409 1.03823 1.74208 0
M  V30 9548 C 901.742 -0.426733 1.89454 0
M  V30 9549 O 901.017 -1.31658 1.43166 0
M  V30 9550 C 901.3 1.74047 3.15246 0
M  V30 9551 C 901.153 3.28087 3.077 0
M  V30 9552 C 902.472 1.48614 4.14249 0
M  V30 9553 H 899.591 0.378573 0.632338 0
M  V30 9554 H 902.233 1.49942 1.16694 0
M  V30 9555 H 900.383 1.3484 3.64349 0
M  V30 9556 H 902.055 3.76686 2.6628 0
M  V30 9557 H 900.298 3.58191 2.44707 0
M  V30 9558 H 900.969 3.72392 4.07466 0
M  V30 9559 H 903.445 1.82656 3.73866 0
M  V30 9560 H 902.321 2.00257 5.11066 0
M  V30 9561 H 902.582 0.416957 4.40129 0
M  V30 9562 N 901.641 -1.19671 1.02551 0
M  V30 9563 C 902.588 -2.22773 0.603394 0
M  V30 9564 C 903.558 -1.61669 -0.381081 0
M  V30 9565 O 904.743 -1.88756 -0.278505 0
M  V30 9566 C 901.883 -3.45073 -0.0431034 0
M  V30 9567 C 900.996 -4.20574 0.987006 0
M  V30 9568 C 900.131 -5.30291 0.310626 0
M  V30 9569 C 899.17 -5.97545 1.32688 0
M  V30 9570 N 898.307 -6.98833 0.676542 0
M  V30 9571 H 903.147 -2.58238 1.48719 0
M  V30 9572 H 900.684 -1.26881 0.744286 0
M  V30 9573 H 902.642 -4.14925 -0.435141 0
M  V30 9574 H 901.272 -3.10274 -0.890495 0
M  V30 9575 H 900.324 -3.497 1.49713 0
M  V30 9576 H 901.636 -4.66736 1.75952 0
M  V30 9577 H 900.79 -6.06547 -0.136438 0
M  V30 9578 H 899.529 -4.8519 -0.49412 0
M  V30 9579 H 898.534 -5.20043 1.78424 0
M  V30 9580 H 899.759 -6.4473 2.13306 0
M  V30 9581 H 897.705 -6.55911 -0.108172 0
M  V30 9582 H 897.622 -7.43168 1.38699 0
M  V30 9583 H 898.89 -7.79088 0.253367 0
M  V30 9584 N 903.119 -0.802921 -1.35613 0
M  V30 9585 C 904.344 -0.392846 -2.03645 0
M  V30 9586 C 904.769 0.987075 -1.6012 0
M  V30 9587 O 904.127 1.63849 -0.776101 0
M  V30 9588 C 904.175 -0.480208 -3.57388 0
M  V30 9589 O 903.279 0.507751 -4.09262 0
M  V30 9590 H 902.62 -0.16464 -0.643265 0
M  V30 9591 H 905.15 -1.08779 -1.73287 0
M  V30 9592 H 905.16 -0.348683 -4.06507 0
M  V30 9593 H 903.835 -1.48675 -3.88418 0
M  V30 9594 H 902.412 0.336769 -3.71376 0
M  V30 9595 N 904.597 1.47463 -0.556102 0
M  V30 9596 C 905.822 2.07371 -0.0344729 0
M  V30 9597 C 906.247 1.40621 1.2493 0
M  V30 9598 O 905.605 0.48082 1.74808 0
M  V30 9599 C 905.653 3.60306 0.145563 0
M  V30 9600 O 904.757 3.94299 1.20839 0
M  V30 9601 H 904.098 0.662052 -0.0508274 0
M  V30 9602 H 906.628 1.89498 -0.771469 0
M  V30 9603 H 906.638 4.06408 0.360112 0
M  V30 9604 H 905.313 4.08288 -0.792089 0
M  V30 9605 H 903.89 3.59944 0.97442 0
M  V30 9606 N 906.075 0.2925 1.54862 0
M  V30 9607 C 907.3 -0.32494 2.04839 0
M  V30 9608 C 907.725 -1.47381 1.16877 0
M  V30 9609 O 907.083 -1.80492 0.171028 0
M  V30 9610 C 907.131 -0.76694 3.5235 0
M  V30 9611 O 906.235 -1.87256 3.67436 0
M  V30 9612 H 905.576 -0.0645195 0.660858 0
M  V30 9613 H 908.106 0.431867 1.9999 0
M  V30 9614 H 908.116 -1.05804 3.94043 0
M  V30 9615 H 906.791 0.0735212 4.15835 0
M  V30 9616 H 905.368 -1.58266 3.37648 0
M  V30 9617 N 907.553 -1.57587 0.0200696 0
M  V30 9618 C 908.969 -1.56018 -0.336237 0
M  V30 9619 C 909.169 -1.02478 -1.73495 0
M  V30 9620 O 908.225 -0.667487 -2.43518 0
M  V30 9621 C 909.538 -3.00079 -0.193112 0
M  V30 9622 C 911.086 -3.11863 -0.266557 0
M  V30 9623 C 911.561 -4.57747 -0.152326 0
M  V30 9624 N 913.052 -4.62726 -0.209596 0
M  V30 9625 C 913.787 -5.73217 -0.144855 0
M  V30 9626 N 913.283 -6.92794 -0.0295487 0
M  V30 9627 N 915.076 -5.61751 -0.198184 0
M  V30 9628 H 907.227 -1.90722 0.93482 0
M  V30 9629 H 909.49 -0.876909 0.360186 0
M  V30 9630 H 909.196 -3.43167 0.770036 0
M  V30 9631 H 909.07 -3.64593 -0.967029 0
M  V30 9632 H 911.457 -2.68693 -1.22016 0
M  V30 9633 H 911.538 -2.50087 0.53758 0
M  V30 9634 H 911.182 -5.01595 0.797817 0
M  V30 9635 H 911.112 -5.17491 -0.97521 0
M  V30 9636 H 913.603 -3.76713 -0.299229 0
M  V30 9637 H 913.916 -7.72799 0.0134071 0
M  V30 9638 H 912.261 -6.95 0.00510737 0
M  V30 9639 H 915.452 -4.67222 -0.286603 0
M  V30 9640 H 915.625 -6.47839 -0.144266 0
M  V30 9641 N 909.032 0.252966 -1.55557 0
M  V30 9642 C 909.942 1.33472 -1.92931 0
M  V30 9643 C 910.958 1.52983 -0.828985 0
M  V30 9644 O 912.134 1.66723 -1.12984 0
M  V30 9645 C 909.199 2.6704 -2.21112 0
M  V30 9646 C 908.26 2.56103 -3.44542 0
M  V30 9647 C 907.493 3.83302 -3.71369 0
M  V30 9648 O 907.716 4.84907 -3.00368 0
M  V30 9649 O 906.65 3.823 -4.64898 0
M  V30 9650 H 910.476 1.04768 -2.85057 0
M  V30 9651 H 908.061 0.453208 -1.4236 0
M  V30 9652 H 909.943 3.45981 -2.40572 0
M  V30 9653 H 908.618 2.95489 -1.32166 0
M  V30 9654 H 907.525 1.7547 -3.30396 0
M  V30 9655 H 908.858 2.32601 -4.33772 0
M  V30 9656 N 910.51 1.48831 0.518367 0
M  V30 9657 C 911.44 1.67119 1.63075 0
M  V30 9658 C 912.421 0.519948 1.61958 0
M  V30 9659 O 913.606 0.753824 1.78972 0
M  V30 9660 C 910.736 1.72158 3.01627 0
M  V30 9661 C 909.69 2.86898 3.17606 0
M  V30 9662 C 909.016 2.77035 4.57335 0
M  V30 9663 C 910.316 4.28057 2.99274 0
M  V30 9664 H 912.01 2.60248 1.48025 0
M  V30 9665 H 909.556 1.2524 0.710694 0
M  V30 9666 H 911.509 1.83539 3.7933 0
M  V30 9667 H 910.233 0.756157 3.17726 0
M  V30 9668 H 908.892 2.75091 2.42323 0
M  V30 9669 H 908.54 1.78438 4.70286 0
M  V30 9670 H 908.24 3.54036 4.6897 0
M  V30 9671 H 909.764 2.904 5.37122 0
M  V30 9672 H 911.178 4.40636 3.6676 0
M  V30 9673 H 909.575 5.06145 3.22393 0
M  V30 9674 H 910.645 4.4371 1.95574 0
M  V30 9675 N 911.988 -0.768124 1.37614 0
M  V30 9676 C 913.228 -1.53979 1.34424 0
M  V30 9677 C 913.592 -1.91874 -0.0696803 0
M  V30 9678 O 914.793 -2.67845 -0.22633 0
M  V30 9679 C 913.064 -2.76845 2.26034 0
M  V30 9680 S 914.623 -3.66871 2.4073 0
M  V30 9681 H 911.441 -0.527108 0.477157 0
M  V30 9682 H 914.043 -0.902945 1.73399 0
M  V30 9683 H 912.747 -2.47091 3.2768 0
M  V30 9684 H 912.278 -3.45486 1.88157 0
M  V30 9685 H 914.293 -4.6899 1.62057 0
M  V30 9686 N 913.466 -1.22244 -0.994698 0
M  V30 9687 C 914.696 -1.07062 -1.76695 0
M  V30 9688 C 915.104 0.381895 -1.85306 0
M  V30 9689 O 914.447 1.27648 -1.32105 0
M  V30 9690 C 914.509 -1.60487 -3.2169 0
M  V30 9691 C 914.173 -3.09079 -3.36629 0
M  V30 9692 C 915.17 -4.06526 -3.24088 0
M  V30 9693 C 912.855 -3.48497 -3.61739 0
M  V30 9694 C 914.849 -5.41377 -3.36437 0
M  V30 9695 C 912.536 -4.83498 -3.73729 0
M  V30 9696 C 913.534 -5.79747 -3.61086 0
M  V30 9697 O 913.222 -7.12297 -3.72678 0
M  V30 9698 H 912.954 -0.375963 -0.561807 0
M  V30 9699 H 915.508 -1.62259 -1.25941 0
M  V30 9700 H 913.738 -0.996957 -3.73628 0
M  V30 9701 H 915.427 -1.40994 -3.80625 0
M  V30 9702 H 916.193 -3.77415 -3.04602 0
M  V30 9703 H 912.072 -2.74106 -3.70657 0
M  V30 9704 H 915.616 -6.16485 -3.26485 0
M  V30 9705 H 911.513 -5.1229 -3.92721 0
M  V30 9706 H 912.281 -7.1985 -3.89562 0
M  V30 9707 N 914.944 1.19125 -1.03184 0
M  V30 9708 C 916.193 1.8821 -0.725264 0
M  V30 9709 C 916.506 1.80674 0.749411 0
M  V30 9710 O 917.712 2.45037 1.16915 0
M  V30 9711 C 916.168 3.37607 -1.24697 0
M  V30 9712 C 915.776 3.53693 -2.74964 0
M  V30 9713 C 917.52 4.12149 -1.01652 0
M  V30 9714 C 915.427 4.97001 -3.20538 0
M  V30 9715 H 914.357 0.704916 -0.267599 0
M  V30 9716 H 917.008 1.34663 -1.24652 0
M  V30 9717 H 915.39 3.90569 -0.653614 0
M  V30 9718 H 916.564 3.11046 -3.39981 0
M  V30 9719 H 914.879 2.92544 -2.96322 0
M  V30 9720 H 917.476 5.17837 -1.33226 0
M  V30 9721 H 917.819 4.16274 0.0465712 0
M  V30 9722 H 918.352 3.65334 -1.57403 0
M  V30 9723 H 915.091 4.9804 -4.26189 0
M  V30 9724 H 914.611 5.40398 -2.60251 0
M  V30 9725 H 916.29 5.65669 -3.14049 0
M  V30 9726 N 916.422 0.810101 1.35185 0
M  V30 9727 C 917.671 0.388589 1.97921 0
M  V30 9728 C 917.984 -1.05079 1.64978 0
M  V30 9729 O 919.19 -1.57559 2.21105 0
M  V30 9730 C 917.646 0.643864 3.54094 0
M  V30 9731 C 917.254 2.09602 3.95943 0
M  V30 9732 C 918.998 0.287883 4.23523 0
M  V30 9733 C 916.905 2.29686 5.44976 0
M  V30 9734 H 915.835 0.141562 0.740592 0
M  V30 9735 H 918.486 0.994653 1.54204 0
M  V30 9736 H 916.868 -0.0321978 3.95987 0
M  V30 9737 H 918.042 2.81018 3.65192 0
M  V30 9738 H 916.357 2.4122 3.39414 0
M  V30 9739 H 918.954 0.415946 5.3308 0
M  V30 9740 H 919.297 -0.766305 4.09186 0
M  V30 9741 H 919.83 0.918004 3.87063 0
M  V30 9742 H 916.569 3.33563 5.64284 0
M  V30 9743 H 916.089 1.62798 5.77284 0
M  V30 9744 H 917.768 2.11411 6.11485 0
M  V30 9745 N 917.9 -1.47166 0.563914 0
M  V30 9746 C 918.83 -2.32894 -0.168148 0
M  V30 9747 C 919.811 -1.44202 -0.902214 0
M  V30 9748 O 920.996 -1.73048 -0.881365 0
M  V30 9749 C 918.126 -3.26116 -1.19439 0
M  V30 9750 C 917.08 -4.24101 -0.576363 0
M  V30 9751 C 916.406 -5.06696 -1.70772 0
M  V30 9752 C 917.706 -5.20142 0.47425 0
M  V30 9753 H 919.4 -2.9435 0.547573 0
M  V30 9754 H 916.946 -1.41545 0.264778 0
M  V30 9755 H 918.899 -3.84935 -1.71474 0
M  V30 9756 H 917.623 -2.62728 -1.94014 0
M  V30 9757 H 916.282 -3.66519 -0.0772534 0
M  V30 9758 H 915.93 -4.39707 -2.44268 0
M  V30 9759 H 915.63 -5.7304 -1.29994 0
M  V30 9760 H 917.154 -5.68375 -2.2312 0
M  V30 9761 H 918.568 -5.73286 0.0397035 0
M  V30 9762 H 916.965 -5.94726 0.801287 0
M  V30 9763 H 918.035 -4.65214 1.36764 0
M  V30 9764 N 919.378 -0.300708 -1.54705 0
M  V30 9765 C 920.341 0.562648 -2.22187 0
M  V30 9766 C 921.341 1.06152 -1.20782 0
M  V30 9767 O 922.531 0.957596 -1.45519 0
M  V30 9768 C 919.663 1.77899 -2.908 0
M  V30 9769 H 920.856 -0.0269361 -2.99888 0
M  V30 9770 H 918.409 -0.0515412 -1.56215 0
M  V30 9771 H 919.144 2.40841 -2.17177 0
M  V30 9772 H 918.929 1.42892 -3.65136 0
M  V30 9773 H 920.419 2.39236 -3.42281 0
M  V30 9774 N 920.856 1.57574 -0.0284266 0
M  V30 9775 C 922.104 1.91393 0.649079 0
M  V30 9776 C 922.425 0.905368 1.72708 0
M  V30 9777 O 921.695 -0.0532107 1.95828 0
M  V30 9778 H 920.275 0.70646 0.24274 0
M  V30 9779 H 922.937 1.94752 -0.076066 0
M  V30 9780 H 922.033 2.91988 1.10226 0
M  V30 9781 N 922.334 -0.244713 1.55689 0
M  V30 9782 C 923.583 -0.970373 1.76824 0
M  V30 9783 C 923.896 -1.86402 0.592764 0
M  V30 9784 O 925.102 -2.62659 0.687186 0
M  V30 9785 C 923.558 -1.77547 3.13058 0
M  V30 9786 C 923.166 -0.929104 4.3826 0
M  V30 9787 C 924.91 -2.49373 3.43531 0
M  V30 9788 C 922.817 -1.73021 5.65524 0
M  V30 9789 H 921.747 -0.366048 0.659185 0
M  V30 9790 H 924.398 -0.224964 1.82116 0
M  V30 9791 H 922.78 -2.56291 3.01879 0
M  V30 9792 H 923.954 -0.183836 4.60433 0
M  V30 9793 H 922.269 -0.324071 4.15137 0
M  V30 9794 H 924.866 -3.09767 4.35831 0
M  V30 9795 H 925.209 -3.21099 2.64955 0
M  V30 9796 H 925.742 -1.77637 3.55935 0
M  V30 9797 H 922.481 -1.05666 6.46927 0
M  V30 9798 H 922.001 -2.45071 5.47449 0
M  V30 9799 H 923.68 -2.2968 6.0486 0
M  V30 9800 N 923.813 -1.49104 -0.510467 0
M  V30 9801 C 925.053 -1.59723 -1.27545 0
M  V30 9802 C 925.417 -0.273525 -1.90042 0
M  V30 9803 O 926.618 -0.254835 -2.67589 0
M  V30 9804 C 924.889 -2.71771 -2.3211 0
M  V30 9805 S 926.448 -3.02282 -3.18074 0
M  V30 9806 H 923.266 -0.563489 -0.433591 0
M  V30 9807 H 925.868 -1.86719 -0.579328 0
M  V30 9808 H 924.572 -3.66483 -1.84711 0
M  V30 9809 H 924.103 -2.46739 -3.06404 0
M  V30 9810 H 926.118 -2.43076 -4.32583 0
M  V30 9811 N 925.291 0.760815 -1.38019 0
M  V30 9812 C 926.221 1.88811 -1.37377 0
M  V30 9813 C 927.202 1.68388 -0.240737 0
M  V30 9814 O 928.387 1.89086 -0.442739 0
M  V30 9815 C 925.517 3.26244 -1.1909 0
M  V30 9816 C 924.471 3.61254 -2.29521 0
M  V30 9817 C 923.797 4.97346 -1.96345 0
M  V30 9818 C 925.097 3.66874 -3.71753 0
M  V30 9819 H 926.791 1.89606 -2.31711 0
M  V30 9820 H 924.337 0.910818 -1.11535 0
M  V30 9821 H 926.29 4.04755 -1.17267 0
M  V30 9822 H 925.014 3.2591 -0.212152 0
M  V30 9823 H 923.673 2.85057 -2.30517 0
M  V30 9824 H 923.321 4.93564 -0.969728 0
M  V30 9825 H 923.021 5.21739 -2.703 0
M  V30 9826 H 924.545 5.78244 -1.96129 0
M  V30 9827 H 925.959 4.35514 -3.72828 0
M  V30 9828 H 924.356 4.02772 -4.44853 0
M  V30 9829 H 925.426 2.67273 -4.0459 0
M  V30 9830 N 926.769 1.22769 0.988202 0
M  V30 9831 C 928.017 1.05301 1.725 0
M  V30 9832 C 928.338 -0.412103 1.90596 0
M  V30 9833 O 927.608 -1.29606 1.46898 0
M  V30 9834 H 926.188 0.386658 0.639144 0
M  V30 9835 H 928.85 1.54359 1.18993 0
M  V30 9836 H 927.946 1.53465 2.71763 0
M  V30 9837 N 928.247 -1.18576 1.03814 0
M  V30 9838 C 929.477 -1.92158 0.758864 0
M  V30 9839 C 929.885 -1.76267 -0.687498 0
M  V30 9840 O 929.228 -1.08806 -1.4801 0
M  V30 9841 C 929.29 -3.44063 1.04217 0
M  V30 9842 C 928.954 -3.8373 2.48193 0
M  V30 9843 C 929.951 -3.87722 3.46363 0
M  V30 9844 C 927.636 -4.151 2.82838 0
M  V30 9845 C 929.63 -4.2253 4.77229 0
M  V30 9846 C 927.317 -4.49578 4.13911 0
M  V30 9847 C 928.315 -4.53269 5.10917 0
M  V30 9848 O 928.003 -4.86945 6.39641 0
M  V30 9849 H 927.735 -0.61694 0.276335 0
M  V30 9850 H 930.289 -1.51388 1.38819 0
M  V30 9851 H 928.519 -3.85061 0.355709 0
M  V30 9852 H 930.208 -3.9889 0.751091 0
M  V30 9853 H 930.974 -3.63627 3.20936 0
M  V30 9854 H 926.853 -4.11406 2.08006 0
M  V30 9855 H 930.397 -4.25326 5.52941 0
M  V30 9856 H 926.294 -4.73133 4.39107 0
M  V30 9857 H 927.062 -5.04857 6.44253 0
M  V30 9858 N 929.725 -0.817259 -1.34754 0
M  V30 9859 C 930.655 -0.249769 -2.3216 0
M  V30 9860 C 931.636 0.630663 -1.57977 0
M  V30 9861 O 932.821 0.558719 -1.85989 0
M  V30 9862 C 929.951 0.593825 -3.42186 0
M  V30 9863 C 928.905 -0.188997 -4.27583 0
M  V30 9864 C 928.231 0.776979 -5.29025 0
M  V30 9865 C 929.531 -1.39401 -5.03354 0
M  V30 9866 H 931.225 -1.06359 -2.79872 0
M  V30 9867 H 928.771 -0.512894 -1.34556 0
M  V30 9868 H 930.724 1.00097 -4.09339 0
M  V30 9869 H 929.448 1.44064 -2.93109 0
M  V30 9870 H 928.107 -0.577445 -3.62024 0
M  V30 9871 H 927.755 1.61959 -4.76212 0
M  V30 9872 H 927.455 0.257448 -5.87036 0
M  V30 9873 H 928.979 1.18211 -5.99048 0
M  V30 9874 H 930.393 -1.06117 -5.63393 0
M  V30 9875 H 928.79 -1.84878 -5.70912 0
M  V30 9876 H 929.86 -2.17515 -4.33377 0
M  V30 9877 N 931.203 1.46865 -0.571711 0
M  V30 9878 C 932.443 2.04324 -0.0556487 0
M  V30 9879 C 932.807 1.43486 1.27576 0
M  V30 9880 O 934.008 1.92079 1.8804 0
M  V30 9881 C 932.279 3.57394 0.0206263 0
M  V30 9882 S 933.838 4.36159 0.480709 0
M  V30 9883 H 930.656 0.710273 -0.0321467 0
M  V30 9884 H 933.258 1.8005 -0.761725 0
M  V30 9885 H 931.962 3.99193 -0.952509 0
M  V30 9886 H 931.493 3.86188 0.749812 0
M  V30 9887 H 933.508 4.6478 1.73763 0
M  V30 9888 N 932.681 0.308908 1.54543 0
M  V30 9889 C 933.909 -0.300418 2.04707 0
M  V30 9890 C 934.324 -1.46915 1.18581 0
M  V30 9891 O 933.681 -1.81251 0.213186 0
M  V30 9892 C 933.732 -0.749038 3.53655 0
M  V30 9893 O 933.453 0.373181 4.36508 0
M  V30 9894 C 934.954 -1.4227 4.1985 0
M  V30 9895 H 932.174 -0.0641267 0.667929 0
M  V30 9896 H 934.718 0.450839 1.99469 0
M  V30 9897 H 932.873 -1.4503 3.59228 0
M  V30 9898 H 933.287 0.0224752 5.24495 0
M  V30 9899 H 934.761 -1.68768 5.25568 0
M  V30 9900 H 935.238 -2.36531 3.70067 0
M  V30 9901 H 935.844 -0.764404 4.18374 0
M  V30 9902 N 934.159 -1.57557 0.0367827 0
M  V30 9903 C 935.406 -1.92114 -0.640185 0
M  V30 9904 C 935.734 -0.913887 -1.71693 0
M  V30 9905 O 934.989 0.0760343 -1.95552 0
M  V30 9906 C 935.288 -3.33387 -1.28794 0
M  V30 9907 C 934.954 -4.4961 -0.340819 0
M  V30 9908 C 933.616 -4.81133 -0.0801574 0
M  V30 9909 C 935.968 -5.20283 0.309106 0
M  V30 9910 C 933.296 -5.80683 0.838107 0
M  V30 9911 C 935.648 -6.20813 1.21547 0
M  V30 9912 C 934.312 -6.50773 1.48495 0
M  V30 9913 H 933.582 -0.702996 -0.23426 0
M  V30 9914 H 936.229 -1.91238 0.100188 0
M  V30 9915 H 934.534 -3.30561 -2.10324 0
M  V30 9916 H 936.231 -3.57399 -1.81843 0
M  V30 9917 H 932.821 -4.25002 -0.554161 0
M  V30 9918 H 937.005 -4.96153 0.120794 0
M  V30 9919 H 932.261 -6.02238 1.05451 0
M  V30 9920 H 936.435 -6.74692 1.72522 0
M  V30 9921 H 934.062 -7.27727 2.19814 0
M  V30 9922 N 935.637 0.236453 -1.55816 0
M  V30 9923 C 936.877 0.970249 -1.79904 0
M  V30 9924 C 937.241 1.8212 -0.607965 0
M  V30 9925 O 938.442 2.58759 -0.727833 0
M  V30 9926 C 936.713 1.79938 -3.088 0
M  V30 9927 S 938.272 2.59084 -3.54148 0
M  V30 9928 H 935.09 0.32618 -0.631765 0
M  V30 9929 H 937.692 0.237147 -1.94056 0
M  V30 9930 H 936.396 1.16412 -3.93544 0
M  V30 9931 H 935.927 2.57504 -2.97414 0
M  V30 9932 H 937.942 3.82315 -3.16306 0
M  V30 9933 N 937.115 1.49373 0.502552 0
M  V30 9934 C 938.045 1.68839 1.61294 0
M  V30 9935 C 939.026 0.537096 1.61398 0
M  V30 9936 O 940.211 0.772764 1.78163 0
M  V30 9937 C 937.341 1.75347 2.99784 0
M  V30 9938 C 936.295 2.90251 3.14545 0
M  V30 9939 C 935.621 2.8187 4.54371 0
M  V30 9940 C 936.921 4.31207 2.94717 0
M  V30 9941 H 938.615 2.61803 1.45257 0
M  V30 9942 H 936.161 1.25987 0.697371 0
M  V30 9943 H 938.114 1.87552 3.77362 0
M  V30 9944 H 936.838 0.789814 3.16906 0
M  V30 9945 H 935.497 2.77646 2.39392 0
M  V30 9946 H 935.145 1.83416 4.68367 0
M  V30 9947 H 934.845 3.5899 4.65188 0
M  V30 9948 H 936.369 2.96081 5.34012 0
M  V30 9949 H 937.783 4.44501 3.62065 0
M  V30 9950 H 936.18 5.09536 3.17007 0
M  V30 9951 H 937.25 4.45759 1.90857 0
M  V30 9952 N 938.594 -0.753485 1.38421 0
M  V30 9953 C 939.843 -1.50797 1.33952 0
M  V30 9954 C 940.156 -1.95482 -0.0678464 0
M  V30 9955 O 941.362 -2.7048 -0.235078 0
M  V30 9956 C 939.818 -2.72393 2.35224 0
M  V30 9957 C 939.426 -2.34733 3.81582 0
M  V30 9958 C 941.17 -3.50281 2.39798 0
M  V30 9959 C 939.077 -3.52939 4.7454 0
M  V30 9960 H 938.007 -0.566211 0.497916 0
M  V30 9961 H 940.658 -0.823659 1.63976 0
M  V30 9962 H 939.04 -3.42806 1.98243 0
M  V30 9963 H 940.214 -1.71985 4.27502 0
M  V30 9964 H 938.529 -1.69978 3.80127 0
M  V30 9965 H 941.126 -4.38172 3.06447 0
M  V30 9966 H 941.469 -3.91444 1.41695 0
M  V30 9967 H 942.002 -2.86881 2.75579 0
M  V30 9968 H 938.741 -3.16843 5.73839 0
M  V30 9969 H 938.261 -4.1473 4.33312 0
M  V30 9970 H 939.94 -4.19519 4.92557 0
M  V30 9971 N 940.072 -1.23292 -0.981677 0
M  V30 9972 C 941.035 -1.01417 -2.05542 0
M  V30 9973 C 942.035 0.0235354 -1.60783 0
M  V30 9974 O 943.225 -0.216082 -1.72855 0
M  V30 9975 C 940.357 -0.534239 -3.36688 0
M  V30 9976 H 941.55 -1.96702 -2.26381 0
M  V30 9977 H 939.103 -1.05318 -1.1549 0
M  V30 9978 H 939.838 0.422452 -3.21537 0
M  V30 9979 H 939.623 -1.28304 -3.70514 0
M  V30 9980 H 941.113 -0.40179 -4.15663 0
M  V30 9981 N 941.55 1.18024 -1.04442 0
M  V30 9982 C 942.497 2.21785 -0.638759 0
M  V30 9983 C 943.467 1.62255 0.355312 0
M  V30 9984 O 944.652 1.89176 0.24844 0
M  V30 9985 C 941.792 3.45098 -0.0118002 0
M  V30 9986 C 940.905 4.1895 -1.05379 0
M  V30 9987 C 940.04 5.2973 -0.394951 0
M  V30 9988 C 939.079 5.95359 -1.42178 0
M  V30 9989 N 938.216 6.97668 -0.787635 0
M  V30 9990 H 943.056 2.55839 -1.52808 0
M  V30 9991 H 940.593 1.25681 -0.764378 0
M  V30 9992 H 942.551 4.15564 0.369075 0
M  V30 9993 H 941.181 3.11652 0.84102 0
M  V30 9994 H 940.233 3.47274 -1.55258 0
M  V30 9995 H 941.545 4.63877 -1.83355 0
M  V30 9996 H 940.699 6.06687 0.0399244 0
M  V30 9997 H 939.438 4.85915 0.416867 0
M  V30 9998 H 938.443 5.17139 -1.86675 0
M  V30 9999 H 939.668 6.41255 -2.23536 0
M  V30 10000 H 937.614 6.56 0.00380893 0
M  V30 10001 H 937.531 7.40867 -1.50505 0
M  V30 10002 H 938.799 7.78586 -0.377282 0
M  V30 10003 N 943.028 0.824394 1.34319 0
M  V30 10004 C 944.439 0.471802 1.8064 0
M  V30 10005 C 944.79 -1.00793 1.6833 0
M  V30 10006 O 943.915 -1.78447 1.22416 0
M  V30 10007 C 944.51 0.849609 3.27974 0
M  V30 10008 C 943.069 0.549365 3.72369 0
M  V30 10009 C 942.216 1.06573 2.56003 0
M  V30 10010 H 945.167 1.01443 1.22045 0
M  V30 10011 H 945.188 0.153968 3.80188 0
M  V30 10012 H 944.7 1.92663 3.36902 0
M  V30 10013 H 942.801 -0.518182 3.68979 0
M  V30 10014 H 942.914 1.09446 4.66432 0
M  V30 10015 H 941.278 0.487214 2.49997 0
M  V30 10016 H 942.061 2.14923 2.677 0
M  V30 10017 N 944.506 -1.46559 0.579492 0
M  V30 10018 C 945.453 -2.30275 -0.155598 0
M  V30 10019 C 946.423 -1.40422 -0.887175 0
M  V30 10020 O 947.608 -1.69373 -0.878481 0
M  V30 10021 C 944.748 -3.24827 -1.16539 0
M  V30 10022 C 943.861 -4.29778 -0.43759 0
M  V30 10023 C 942.996 -5.11461 -1.43462 0
M  V30 10024 C 942.035 -6.08164 -0.693048 0
M  V30 10025 N 941.172 -6.82726 -1.63799 0
M  V30 10026 H 946.012 -2.92607 0.564356 0
M  V30 10027 H 943.549 -1.44211 0.290126 0
M  V30 10028 H 945.507 -3.78088 -1.76368 0
M  V30 10029 H 944.137 -2.64311 -1.8531 0
M  V30 10030 H 943.189 -3.794 0.27567 0
M  V30 10031 H 944.501 -4.98597 0.142298 0
M  V30 10032 H 943.655 -5.68982 -2.1058 0
M  V30 10033 H 942.394 -4.42595 -2.04844 0
M  V30 10034 H 941.399 -5.49799 -0.00807093 0
M  V30 10035 H 942.624 -6.79047 -0.0846678 0
M  V30 10036 H 940.57 -6.16572 -2.23997 0
M  V30 10037 H 940.487 -7.47795 -1.11082 0
M  V30 10038 H 941.755 -7.44807 -2.29962 0
M  V30 10039 N 945.984 -0.3171 -1.54377 0
M  V30 10040 C 946.916 0.58571 -2.2159 0
M  V30 10041 C 947.929 1.08495 -1.21378 0
M  V30 10042 O 949.118 0.999638 -1.47883 0
M  V30 10043 C 946.218 1.8157 -2.86156 0
M  V30 10044 C 945.391 1.45625 -4.12447 0
M  V30 10045 C 944.45 2.54308 -4.60667 0
M  V30 10046 O 943.476 2.18724 -5.25498 0
M  V30 10047 N 944.678 3.85129 -4.34345 0
M  V30 10048 H 947.443 0.0102247 -2.99698 0
M  V30 10049 H 945.004 -0.140011 -1.61293 0
M  V30 10050 H 946.996 2.53657 -3.15341 0
M  V30 10051 H 945.566 2.29919 -2.11793 0
M  V30 10052 H 944.786 0.567294 -3.90097 0
M  V30 10053 H 946.074 1.19169 -4.94648 0
M  V30 10054 H 945.472 4.16841 -3.8244 0
M  V30 10055 H 944.029 4.53466 -4.68201 0
M  V30 10056 N 947.462 1.57535 -0.0451378 0
M  V30 10057 C 948.711 1.91628 0.629415 0
M  V30 10058 C 949.024 0.924754 1.72359 0
M  V30 10059 O 950.23 1.15751 2.45589 0
M  V30 10060 C 948.686 3.40322 1.17084 0
M  V30 10061 C 948.294 4.47867 0.109101 0
M  V30 10062 C 950.038 3.83458 1.82099 0
M  V30 10063 C 947.945 5.87671 0.663072 0
M  V30 10064 H 946.875 0.715163 0.238868 0
M  V30 10065 H 949.526 1.83151 -0.113046 0
M  V30 10066 H 947.908 3.43783 1.96543 0
M  V30 10067 H 949.082 4.55988 -0.664201 0
M  V30 10068 H 947.397 4.14034 -0.443227 0
M  V30 10069 H 949.994 4.85273 2.2453 0
M  V30 10070 H 950.337 3.19379 2.67026 0
M  V30 10071 H 950.87 3.82488 1.09305 0
M  V30 10072 H 947.609 6.55332 -0.148423 0
M  V30 10073 H 947.129 5.83124 1.4045 0
M  V30 10074 H 948.808 6.36737 1.14785 0
M  V30 10075 N 948.94 -0.228186 1.55939 0
M  V30 10076 C 950.17 -0.969211 1.82455 0
M  V30 10077 C 950.578 -1.78714 0.621133 0
M  V30 10078 O 949.921 -1.78841 -0.419694 0
M  V30 10079 C 949.983 -1.94088 3.02605 0
M  V30 10080 C 949.647 -1.30811 4.37878 0
M  V30 10081 C 950.644 -0.701275 5.15149 0
M  V30 10082 C 948.329 -1.32187 4.84595 0
M  V30 10083 C 950.323 -0.116631 6.37293 0
M  V30 10084 C 948.01 -0.733375 6.06683 0
M  V30 10085 C 949.008 -0.131804 6.82873 0
M  V30 10086 O 948.696 0.447549 8.02653 0
M  V30 10087 H 948.428 -0.289951 0.610659 0
M  V30 10088 H 950.982 -0.250576 2.03866 0
M  V30 10089 H 949.212 -2.69833 2.76996 0
M  V30 10090 H 950.901 -2.5469 3.1605 0
M  V30 10091 H 951.667 -0.683022 4.80166 0
M  V30 10092 H 947.546 -1.77949 4.25271 0
M  V30 10093 H 951.09 0.353539 6.96704 0
M  V30 10094 H 946.987 -0.749019 6.4114 0
M  V30 10095 H 947.755 0.341224 8.17788 0
M  V30 10096 N 950.418 -1.49637 -0.494624 0
M  V30 10097 C 951.658 -1.61067 -1.25844 0
M  V30 10098 C 952.022 -0.293666 -1.89741 0
M  V30 10099 O 953.223 -0.283202 -2.67304 0
M  V30 10100 C 951.494 -2.74218 -2.29215 0
M  V30 10101 S 953.053 -3.05639 -3.1485 0
M  V30 10102 H 949.871 -0.568056 -0.42759 0
M  V30 10103 H 952.473 -1.87323 -0.559491 0
M  V30 10104 H 951.177 -3.68422 -1.80813 0
M  V30 10105 H 950.708 -2.49975 -3.0377 0
M  V30 10106 H 952.723 -2.47651 -4.29981 0
M  V30 10107 N 951.896 0.746133 -1.38819 0
M  V30 10108 C 953.126 1.53316 -1.38484 0
M  V30 10109 C 953.534 1.89183 0.0253332 0
M  V30 10110 O 952.877 1.5382 1.00424 0
M  V30 10111 C 952.939 2.85623 -2.18311 0
M  V30 10112 C 952.603 2.72253 -3.67052 0
M  V30 10113 C 953.6 2.41547 -4.60381 0
M  V30 10114 C 951.285 2.89472 -4.10501 0
M  V30 10115 C 953.279 2.28226 -5.9514 0
M  V30 10116 C 950.966 2.7577 -5.45338 0
M  V30 10117 C 951.964 2.45191 -6.37472 0
M  V30 10118 O 951.652 2.31561 -7.69828 0
M  V30 10119 H 951.384 0.480763 -0.475229 0
M  V30 10120 H 953.938 0.93057 -1.83111 0
M  V30 10121 H 952.168 3.481 -1.68414 0
M  V30 10122 H 953.857 3.47178 -2.10291 0
M  V30 10123 H 954.623 2.27905 -4.28117 0
M  V30 10124 H 950.502 3.12269 -3.3913 0
M  V30 10125 H 954.046 2.04279 -6.6702 0
M  V30 10126 H 949.943 2.88987 -5.77197 0
M  V30 10127 H 950.711 2.46716 -7.80432 0
M  V30 10128 N 953.375 1.23811 0.975125 0
M  V30 10129 C 954.305 1.04846 2.08638 0
M  V30 10130 C 955.286 -0.0362859 1.70061 0
M  V30 10131 O 956.471 0.12937 1.93769 0
M  V30 10132 C 953.601 0.644534 3.41267 0
M  V30 10133 C 952.555 1.67722 3.93768 0
M  V30 10134 C 951.881 1.12857 5.22654 0
M  V30 10135 C 953.181 3.07147 4.22443 0
M  V30 10136 H 954.875 1.97795 2.24761 0
M  V30 10137 H 952.421 0.952397 1.08006 0
M  V30 10138 H 954.374 0.498887 4.18436 0
M  V30 10139 H 953.098 -0.320641 3.25022 0
M  V30 10140 H 951.757 1.81095 3.18748 0
M  V30 10141 H 951.405 0.154227 5.02764 0
M  V30 10142 H 951.105 1.81862 5.58749 0
M  V30 10143 H 952.629 0.994891 6.0244 0
M  V30 10144 H 954.043 2.97045 4.90344 0
M  V30 10145 H 952.44 3.73437 4.6975 0
M  V30 10146 H 953.51 3.55743 3.29507 0
M  V30 10147 N 954.853 -1.17469 1.05066 0
M  V30 10148 C 955.785 -2.20974 0.608526 0
M  V30 10149 C 956.798 -1.59481 -0.327066 0
M  V30 10150 O 957.987 -1.78096 -0.12 0
M  V30 10151 C 955.087 -3.38652 -0.12969 0
M  V30 10152 C 954.26 -4.29716 0.816285 0
M  V30 10153 C 953.319 -5.26064 0.119556 0
M  V30 10154 O 952.345 -5.64194 0.753241 0
M  V30 10155 N 953.547 -5.69126 -1.14347 0
M  V30 10156 H 956.312 -2.59529 1.49882 0
M  V30 10157 H 953.873 -1.32355 0.932406 0
M  V30 10158 H 955.865 -4.00139 -0.605886 0
M  V30 10159 H 954.435 -2.98705 -0.921638 0
M  V30 10160 H 953.655 -3.6568 1.47213 0
M  V30 10161 H 954.943 -4.87449 1.45845 0
M  V30 10162 H 954.341 -5.4022 -1.67866 0
M  V30 10163 H 952.898 -6.32764 -1.56376 0
M  V30 10164 N 956.331 -0.831506 -1.3388 0
M  V30 10165 C 957.747 -0.518349 -1.50948 0
M  V30 10166 C 957.947 0.955807 -1.77388 0
M  V30 10167 O 957.003 1.73993 -1.82983 0
M  V30 10168 C 958.316 -1.38531 -2.66889 0
M  V30 10169 C 959.864 -1.38332 -2.80772 0
M  V30 10170 C 960.339 -2.23497 -3.99766 0
M  V30 10171 N 961.83 -2.21167 -4.06988 0
M  V30 10172 C 962.565 -2.83805 -4.98239 0
M  V30 10173 N 962.061 -3.55468 -5.94655 0
M  V30 10174 N 963.854 -2.73314 -4.91178 0
M  V30 10175 H 956.005 -1.78588 -1.14978 0
M  V30 10176 H 958.268 -0.761508 -0.564633 0
M  V30 10177 H 957.974 -2.43255 -2.54007 0
M  V30 10178 H 957.848 -1.05611 -3.62114 0
M  V30 10179 H 960.235 -0.343832 -2.9309 0
M  V30 10180 H 960.316 -1.75256 -1.86331 0
M  V30 10181 H 959.96 -3.27501 -3.88208 0
M  V30 10182 H 959.89 -1.83919 -4.93438 0
M  V30 10183 H 962.381 -1.69046 -3.37982 0
M  V30 10184 H 962.694 -4.00487 -6.60931 0
M  V30 10185 H 961.039 -3.59575 -5.94753 0
M  V30 10186 H 964.23 -2.16897 -4.14817 0
M  V30 10187 H 964.403 -3.22416 -5.62096 0
M  V30 10188 N 957.809 1.4625 -0.587256 0
M  V30 10189 C 959.058 2.01571 -0.0722643 0
M  V30 10190 C 959.371 1.46385 1.29733 0
M  V30 10191 O 960.577 1.93554 1.90392 0
M  V30 10192 C 959.033 3.59814 -0.078579 0
M  V30 10193 C 958.641 4.23996 -1.44678 0
M  V30 10194 C 960.385 4.22776 0.382231 0
M  V30 10195 C 958.292 5.74332 -1.41057 0
M  V30 10196 H 957.222 0.753642 -0.0232461 0
M  V30 10197 H 959.873 1.67936 -0.739577 0
M  V30 10198 H 958.255 3.90546 0.654988 0
M  V30 10199 H 959.429 4.04867 -2.20043 0
M  V30 10200 H 957.744 3.73147 -1.84799 0
M  V30 10201 H 960.341 5.32983 0.428182 0
M  V30 10202 H 960.684 3.92027 1.40072 0
M  V30 10203 H 961.217 3.96687 -0.297417 0
M  V30 10204 H 957.956 6.09747 -2.40601 0
M  V30 10205 H 957.476 5.95711 -0.699185 0
M  V30 10206 H 959.155 6.37137 -1.12543 0
M  V30 10207 N 959.287 0.325282 1.54207 0
M  V30 10208 C 960.535 -0.276229 2.00203 0
M  V30 10209 C 960.856 -1.52519 1.21503 0
M  V30 10210 O 960.126 -1.93313 0.317302 0
M  V30 10211 H 958.706 -0.105059 0.739575 0
M  V30 10212 H 961.368 0.442225 1.89817 0
M  V30 10213 H 960.464 -0.531427 3.07542 0
M  V30 10214 N 960.765 -1.57509 0.0534917 0
M  V30 10215 C 962.014 -1.91959 -0.619244 0
M  V30 10216 C 962.327 -0.933882 -1.71866 0
M  V30 10217 O 963.533 -1.17052 -2.44972 0
M  V30 10218 C 961.989 -3.40938 -1.15278 0
M  V30 10219 C 961.597 -4.47919 -0.085348 0
M  V30 10220 C 963.341 -3.84419 -1.80063 0
M  V30 10221 C 961.248 -5.88014 -0.631897 0
M  V30 10222 H 960.178 -0.71642 -0.235072 0
M  V30 10223 H 962.829 -1.83089 0.122758 0
M  V30 10224 H 961.211 -3.44821 -1.94717 0
M  V30 10225 H 962.385 -4.55629 0.688374 0
M  V30 10226 H 960.7 -4.13793 0.465178 0
M  V30 10227 H 963.297 -4.86457 -2.21954 0
M  V30 10228 H 963.64 -3.20791 -2.65328 0
M  V30 10229 H 964.173 -3.83062 -1.07275 0
M  V30 10230 H 960.912 -6.55244 0.183175 0
M  V30 10231 H 960.432 -5.83861 -1.37355 0
M  V30 10232 H 962.111 -6.37336 -1.11407 0
M  V30 10233 N 962.243 0.219913 -1.56058 0
M  V30 10234 C 963.491 0.942199 -1.78793 0
M  V30 10235 C 963.812 1.84804 -0.622284 0
M  V30 10236 O 963.082 1.9255 0.360735 0
M  V30 10237 H 961.662 0.350895 -0.659455 0
M  V30 10238 H 964.324 0.231376 -1.93522 0
M  V30 10239 H 963.42 1.54804 -2.71002 0
M  V30 10240 N 963.721 1.49897 0.486681 0
M  V30 10241 C 964.651 1.7054 1.59494 0
M  V30 10242 C 965.632 0.554184 1.60819 0
M  V30 10243 O 966.817 0.791617 1.77333 0
M  V30 10244 C 963.947 1.78517 2.97908 0
M  V30 10245 C 962.901 2.93571 3.11449 0
M  V30 10246 C 962.227 2.86674 4.51356 0
M  V30 10247 C 963.527 4.34308 2.90127 0
M  V30 10248 H 965.221 2.63329 1.42472 0
M  V30 10249 H 962.767 1.2672 0.683969 0
M  V30 10250 H 964.72 1.91544 3.75352 0
M  V30 10251 H 963.444 0.823381 3.16051 0
M  V30 10252 H 962.103 2.80169 2.36433 0
M  V30 10253 H 961.751 1.88373 4.66395 0
M  V30 10254 H 961.451 3.63903 4.61355 0
M  V30 10255 H 962.975 3.01728 5.30841 0
M  V30 10256 H 964.389 4.48317 3.57331 0
M  V30 10257 H 962.786 5.12869 3.11585 0
M  V30 10258 H 963.856 4.47759 1.86119 0
M  V30 10259 N 965.199 -0.738761 1.39212 0
M  V30 10260 C 966.424 -1.5331 1.39681 0
M  V30 10261 C 966.849 -1.88098 -0.00768715 0
M  V30 10262 O 966.207 -1.51642 -0.993699 0
M  V30 10263 C 966.255 -2.79958 2.27279 0
M  V30 10264 O 965.359 -3.75727 1.70008 0
M  V30 10265 H 964.7 -0.463131 0.475821 0
M  V30 10266 H 967.23 -0.911768 1.83161 0
M  V30 10267 H 967.24 -3.28732 2.41659 0
M  V30 10268 H 965.915 -2.5397 3.29351 0
M  V30 10269 H 964.492 -3.34483 1.64851 0
M  V30 10270 N 966.677 -1.24326 -0.968545 0
M  V30 10271 C 968.088 -1.07561 -1.52603 0
M  V30 10272 C 968.439 0.353245 -1.92994 0
M  V30 10273 O 967.564 1.24151 -1.77244 0
M  V30 10274 C 968.159 -1.94634 -2.77314 0
M  V30 10275 C 966.718 -1.82095 -3.29421 0
M  V30 10276 C 965.865 -1.8962 -2.02335 0
M  V30 10277 H 968.816 -1.37815 -0.786932 0
M  V30 10278 H 968.837 -1.47812 -3.50616 0
M  V30 10279 H 968.349 -2.98621 -2.47885 0
M  V30 10280 H 966.45 -0.809376 -3.63703 0
M  V30 10281 H 966.563 -2.66142 -3.98378 0
M  V30 10282 H 964.927 -1.33339 -2.17009 0
M  V30 10283 H 965.71 -2.95185 -1.75273 0
M  V30 10284 N 968.156 1.1691 -1.05688 0
M  V30 10285 C 969.119 2.19297 -0.666433 0
M  V30 10286 C 970.119 1.5826 0.284674 0
M  V30 10287 O 971.309 1.74068 0.0678757 0
M  V30 10288 C 968.441 3.40894 0.0203656 0
M  V30 10289 H 969.634 2.55354 -1.57272 0
M  V30 10290 H 967.187 1.31078 -0.851359 0
M  V30 10291 H 967.922 3.10388 0.939686 0
M  V30 10292 H 967.707 3.86446 -0.663464 0
M  V30 10293 H 969.197 4.16664 0.279475 0
M  V30 10294 N 969.634 0.838594 1.33437 0
M  V30 10295 C 970.567 0.216651 2.27169 0
M  V30 10296 C 971.545 -0.636065 1.49643 0
M  V30 10297 O 972.729 -0.596388 1.78817 0
M  V30 10298 C 969.856 -0.69584 3.31475 0
M  V30 10299 C 968.902 0.0813808 4.26422 0
M  V30 10300 S 969.735 1.43909 5.15801 0
M  V30 10301 C 970.891 0.531887 6.23636 0
M  V30 10302 H 971.124 1.01128 2.79572 0
M  V30 10303 H 968.657 0.635332 1.40723 0
M  V30 10304 H 970.615 -1.21671 3.92054 0
M  V30 10305 H 969.276 -1.46413 2.77888 0
M  V30 10306 H 968.469 -0.612944 5.00259 0
M  V30 10307 H 968.071 0.533304 3.70178 0
M  V30 10308 H 970.363 -0.270371 6.7696 0
M  V30 10309 H 971.306 1.24041 6.97151 0
M  V30 10310 H 971.714 0.113357 5.64386 0
M  V30 10311 N 971.112 -1.45937 0.595003 0
M  V30 10312 C 972.337 -2.07207 0.0894416 0
M  V30 10313 C 972.762 -1.43884 -1.21157 0
M  V30 10314 O 972.12 -0.526998 -1.73472 0
M  V30 10315 C 972.168 -3.60565 -0.0499828 0
M  V30 10316 O 971.272 -3.97364 -1.10342 0
M  V30 10317 H 970.613 -0.660471 0.0683627 0
M  V30 10318 H 973.143 -1.87386 0.82144 0
M  V30 10319 H 973.153 -4.0722 -0.252234 0
M  V30 10320 H 971.828 -4.06044 0.90006 0
M  V30 10321 H 970.405 -3.62401 -0.878645 0
M  V30 10322 N 972.59 -0.333456 -1.54032 0
M  V30 10323 C 973.82 0.267425 -2.04862 0
M  V30 10324 C 974.228 1.45559 -1.20869 0
M  V30 10325 O 973.571 1.82197 -0.234478 0
M  V30 10326 C 973.633 0.755759 -3.51466 0
M  V30 10327 C 973.297 -0.311409 -4.55938 0
M  V30 10328 C 974.294 -1.15078 -5.07004 0
M  V30 10329 C 971.979 -0.462439 -5.00167 0
M  V30 10330 C 973.973 -2.12682 -6.0087 0
M  V30 10331 C 971.66 -1.44188 -5.93846 0
M  V30 10332 C 972.658 -2.27253 -6.44085 0
M  V30 10333 O 972.346 -3.23532 -7.35923 0
M  V30 10334 H 972.078 0.0572596 -0.673571 0
M  V30 10335 H 974.632 -0.480646 -1.99697 0
M  V30 10336 H 972.862 1.55491 -3.54062 0
M  V30 10337 H 974.551 1.27607 -3.8532 0
M  V30 10338 H 975.317 -1.04513 -4.73605 0
M  V30 10339 H 971.196 0.17424 -4.60671 0
M  V30 10340 H 974.74 -2.77555 -6.40007 0
M  V30 10341 H 970.637 -1.54813 -6.2666 0
M  V30 10342 H 971.405 -3.18886 -7.53826 0
M  V30 10343 N 974.068 1.57479 -0.061844 0
M  V30 10344 C 975.293 1.97843 0.622311 0
M  V30 10345 C 975.718 0.939602 1.62951 0
M  V30 10346 O 975.076 -0.095958 1.81046 0
M  V30 10347 C 975.124 3.37262 1.2762 0
M  V30 10348 O 974.228 3.35943 2.39199 0
M  V30 10349 H 973.569 0.644212 0.160896 0
M  V30 10350 H 976.099 2.04165 -0.133409 0
M  V30 10351 H 976.109 3.74226 1.62539 0
M  V30 10352 H 974.784 4.12404 0.538112 0
M  V30 10353 H 973.361 3.10737 2.06148 0
M  V30 10354 N 975.546 -0.211634 1.56173 0
M  V30 10355 C 976.509 -1.24588 1.92381 0
M  V30 10356 C 977.509 -1.39297 0.803311 0
M  V30 10357 O 978.699 -1.37392 1.07094 0
M  V30 10358 C 975.831 -2.61807 2.18335 0
M  V30 10359 H 977.024 -0.936814 2.84893 0
M  V30 10360 H 974.577 -0.452471 1.49607 0
M  V30 10361 H 975.312 -2.97795 1.28407 0
M  V30 10362 H 975.097 -2.52506 2.99972 0
M  V30 10363 H 976.587 -3.3642 2.4741 0
M  V30 10364 N 977.024 -1.50153 -0.478725 0
M  V30 10365 C 977.954 -1.71384 -1.58587 0
M  V30 10366 C 978.935 -0.562705 -1.60523 0
M  V30 10367 O 980.12 -0.80101 -1.76911 0
M  V30 10368 C 977.25 -1.80094 -2.96957 0
M  V30 10369 C 976.204 -2.95218 -3.09888 0
M  V30 10370 C 975.53 -2.89063 -4.49829 0
M  V30 10371 C 976.83 -4.35841 -2.8782 0
M  V30 10372 H 978.524 -2.64081 -1.41073 0
M  V30 10373 H 976.07 -1.27081 -0.677239 0
M  V30 10374 H 978.023 -1.93531 -3.74331 0
M  V30 10375 H 976.747 -0.840131 -3.1561 0
M  V30 10376 H 975.406 -2.81419 -2.34944 0
M  V30 10377 H 975.054 -1.90844 -4.6539 0
M  V30 10378 H 974.754 -3.66345 -4.59418 0
M  V30 10379 H 976.278 -3.04539 -5.29234 0
M  V30 10380 H 977.692 -4.50205 -3.54948 0
M  V30 10381 H 976.089 -5.14515 -3.0886 0
M  V30 10382 H 977.159 -4.48739 -1.83742 0
M  V30 10383 N 978.502 0.731368 -1.39602 0
M  V30 10384 C 979.748 1.49321 -1.37227 0
M  V30 10385 C 980.081 1.94176 0.0306502 0
M  V30 10386 O 979.356 1.67046 0.996294 0
M  V30 10387 C 979.639 2.73035 -2.34784 0
M  V30 10388 C 979.492 2.34176 -3.84033 0
M  V30 10389 C 980.811 3.75146 -2.30116 0
M  V30 10390 H 977.93 0.541652 -0.499783 0
M  V30 10391 H 980.572 0.835968 -1.70621 0
M  V30 10392 H 978.722 3.29114 -2.06437 0
M  V30 10393 H 980.394 1.83701 -4.23145 0
M  V30 10394 H 978.637 1.66361 -4.00633 0
M  V30 10395 H 979.308 3.22786 -4.47787 0
M  V30 10396 H 981.784 3.28661 -2.55189 0
M  V30 10397 H 980.66 4.5937 -3.00451 0
M  V30 10398 H 980.921 4.22326 -1.30741 0
M  V30 10399 N 979.98 1.24838 0.961938 0
M  V30 10400 C 981.208 1.11871 1.74047 0
M  V30 10401 C 981.623 -0.328209 1.85925 0
M  V30 10402 O 980.98 -1.22616 1.35173 0
M  V30 10403 C 981.031 1.75931 3.15801 0
M  V30 10404 O 980.752 3.14967 3.04512 0
M  V30 10405 C 982.253 1.68649 4.09966 0
M  V30 10406 H 979.473 0.390569 0.545616 0
M  V30 10407 H 982.017 1.65058 1.20732 0
M  V30 10408 H 980.172 1.26733 3.66084 0
M  V30 10409 H 980.586 3.46349 3.93882 0
M  V30 10410 H 982.06 2.18144 5.07067 0
M  V30 10411 H 982.537 0.648831 4.34381 0
M  V30 10412 H 983.143 2.17301 3.65596 0
M  V30 10413 N 981.458 -1.16348 1.06306 0
M  V30 10414 C 982.405 -2.20741 0.673962 0
M  V30 10415 C 983.375 -1.628 -0.329454 0
M  V30 10416 O 984.56 -1.89547 -0.218313 0
M  V30 10417 C 981.7 -3.45036 0.0667008 0
M  V30 10418 C 980.813 -4.17221 1.12031 0
M  V30 10419 C 979.948 -5.29034 0.479176 0
M  V30 10420 C 978.987 -5.93021 1.51631 0
M  V30 10421 N 978.124 -6.96327 0.898528 0
M  V30 10422 H 982.964 -2.53376 1.56859 0
M  V30 10423 H 980.501 -1.24449 0.784276 0
M  V30 10424 H 982.459 -4.16099 -0.302916 0
M  V30 10425 H 981.089 -3.1295 -0.791333 0
M  V30 10426 H 980.141 -3.4476 1.60763 0
M  V30 10427 H 981.453 -4.60902 1.90712 0
M  V30 10428 H 980.607 -6.06674 0.0565993 0
M  V30 10429 H 979.346 -4.86517 -0.33951 0
M  V30 10430 H 978.351 -5.14104 1.94878 0
M  V30 10431 H 979.576 -6.37618 2.3371 0
M  V30 10432 H 977.522 -6.55923 0.100555 0
M  V30 10433 H 977.439 -7.38379 1.62272 0
M  V30 10434 H 978.707 -7.77888 0.5011 0
M  V30 10435 N 982.937 -0.845659 -1.3299 0
M  V30 10436 C 984.165 -0.45835 -2.01759 0
M  V30 10437 C 984.58 0.94239 -1.63598 0
M  V30 10438 O 983.937 1.61353 -0.852738 0
M  V30 10439 C 983.988 -0.577311 -3.5686 0
M  V30 10440 O 983.709 -1.92287 -3.93646 0
M  V30 10441 C 985.21 -0.187839 -4.42902 0
M  V30 10442 H 982.43 -0.181165 -0.646081 0
M  V30 10443 H 984.974 -1.14011 -1.6977 0
M  V30 10444 H 983.129 0.0566146 -3.87359 0
M  V30 10445 H 983.543 -1.91322 -4.88361 0
M  V30 10446 H 985.017 -0.322105 -5.51059 0
M  V30 10447 H 985.494 0.870896 -4.30479 0
M  V30 10448 H 986.1 -0.796473 -4.17776 0
M  V30 10449 N 984.415 1.45619 -0.602734 0
M  V30 10450 C 985.363 2.32228 0.131484 0
M  V30 10451 C 986.357 1.45681 0.864484 0
M  V30 10452 O 987.563 1.62193 0.7806 0
M  V30 10453 H 983.938 0.7495 0.0612638 0
M  V30 10454 H 985.909 2.91941 -0.617496 0
M  V30 10455 C 984.658 3.29213 1.11866 0
M  V30 10456 H 983.981 3.95801 0.564061 0
M  V30 10457 H 985.421 3.92554 1.60242 0
M  V30 10458 C 983.88 2.56028 2.18978 0
M  V30 10459 O 984.41 2.33806 3.26646 0
M  V30 10460 N 982.616 2.16245 1.94129 0
M  V30 10461 H 982.163 2.34518 1.06579 0
M  V30 10462 H 982.121 1.67601 2.66003 0
M  V30 10463 N 985.893 0.34162 1.53853 0
M  V30 10464 C 987.309 -0.0103769 1.59597 0
M  V30 10465 C 987.509 -1.48897 1.35764 0
M  V30 10466 O 986.565 -2.24743 1.15095 0
M  V30 10467 C 987.878 0.424067 2.97695 0
M  V30 10468 C 989.426 0.376247 3.1073 0
M  V30 10469 C 989.901 0.786129 4.51203 0
M  V30 10470 N 991.392 0.74024 4.57247 0
M  V30 10471 C 992.127 1.02937 5.64085 0
M  V30 10472 N 991.623 1.38655 6.78783 0
M  V30 10473 N 993.416 0.953734 5.5395 0
M  V30 10474 H 985.567 1.30477 1.67599 0
M  V30 10475 H 987.83 0.531753 0.78482 0
M  V30 10476 H 987.536 1.45493 3.20195 0
M  V30 10477 H 987.41 -0.201713 3.7666 0
M  V30 10478 H 989.797 -0.645441 2.87955 0
M  V30 10479 H 989.878 1.0372 2.33828 0
M  V30 10480 H 989.522 1.80582 4.74713 0
M  V30 10481 H 989.452 0.102671 5.265 0
M  V30 10482 H 991.943 0.476763 3.7488 0
M  V30 10483 H 992.256 1.59206 7.56223 0
M  V30 10484 H 990.601 1.42498 6.80235 0
M  V30 10485 H 993.792 0.674044 4.63222 0
M  V30 10486 H 993.965 1.18241 6.37121 0
M  V30 10487 N 987.371 -1.57444 0.0701946 0
M  V30 10488 C 988.62 -1.92605 -0.598849 0
M  V30 10489 C 988.933 -0.952058 -1.70866 0
M  V30 10490 O 990.139 -1.19643 -2.43716 0
M  V30 10491 C 988.595 -3.42142 -1.11655 0
M  V30 10492 C 988.203 -4.47984 -0.0378355 0
M  V30 10493 C 989.947 -3.86307 -1.75975 0
M  V30 10494 C 987.854 -5.88652 -0.569495 0
M  V30 10495 H 986.784 -0.718873 -0.22746 0
M  V30 10496 H 989.435 -1.82948 0.14217 0
M  V30 10497 H 987.817 -3.46866 -1.91049 0
M  V30 10498 H 988.991 -4.54874 0.736661 0
M  V30 10499 H 987.306 -4.13277 0.50904 0
M  V30 10500 H 989.903 -4.88784 -2.16782 0
M  V30 10501 H 990.246 -3.23587 -2.61911 0
M  V30 10502 H 990.779 -3.84179 -1.03206 0
M  V30 10503 H 987.518 -6.55013 0.252662 0
M  V30 10504 H 987.038 -5.85285 -1.31155 0
M  V30 10505 H 988.717 -6.38482 -1.04641 0
M  V30 10506 N 988.849 0.203349 -1.56283 0
M  V30 10507 C 989.812 1.23566 -1.93039 0
M  V30 10508 C 990.812 1.38869 -0.810687 0
M  V30 10509 O 992.002 1.36822 -1.07821 0
M  V30 10510 C 989.134 2.60645 -2.1972 0
M  V30 10511 H 990.327 0.921692 -2.85385 0
M  V30 10512 H 987.88 0.44453 -1.49845 0
M  V30 10513 H 988.615 2.9711 -1.29985 0
M  V30 10514 H 988.4 2.50911 -3.01307 0
M  V30 10515 H 989.89 3.35103 -2.4919 0
M  V30 10516 N 990.327 1.50405 0.470755 0
M  V30 10517 C 991.743 1.37838 0.804534 0
M  V30 10518 C 991.943 0.434743 1.96754 0
M  V30 10519 O 990.999 -0.122507 2.52203 0
M  V30 10520 C 992.312 2.79212 1.11629 0
M  V30 10521 C 993.86 2.88129 1.22272 0
M  V30 10522 C 994.335 4.30337 1.5676 0
M  V30 10523 N 995.826 4.3329 1.63751 0
M  V30 10524 C 996.561 5.4032 1.91942 0
M  V30 10525 N 996.057 6.57558 2.18151 0
M  V30 10526 N 997.85 5.27764 1.93446 0
M  V30 10527 H 990.001 2.10332 -0.295689 0
M  V30 10528 H 992.264 0.945429 -0.0697733 0
M  V30 10529 H 991.97 3.50103 0.334778 0
M  V30 10530 H 991.844 3.16475 2.0524 0
M  V30 10531 H 994.231 2.17457 1.9949 0
M  V30 10532 H 994.312 2.54409 0.2664 0
M  V30 10533 H 993.956 5.01547 0.800817 0
M  V30 10534 H 993.886 4.61545 2.53543 0
M  V30 10535 H 996.377 3.48752 1.45535 0
M  V30 10536 H 996.69 7.34935 2.38936 0
M  V30 10537 H 995.035 6.60732 2.15542 0
M  V30 10538 H 998.226 4.35169 1.72468 0
M  V30 10539 H 998.399 6.11264 2.15081 0
M  V30 10540 N 991.805 -0.723954 1.39988 0
M  V30 10541 C 993.054 -1.47922 1.3712 0
M  V30 10542 C 993.367 -1.95582 -0.0263665 0
M  V30 10543 O 994.573 -2.70918 -0.177652 0
M  V30 10544 C 993.029 -2.67342 2.40949 0
M  V30 10545 C 992.637 -2.26586 3.86475 0
M  V30 10546 C 994.381 -3.45116 2.47174 0
M  V30 10547 C 992.288 -3.42794 4.81919 0
M  V30 10548 H 991.218 -0.555522 0.509815 0
M  V30 10549 H 993.869 -0.788692 1.65686 0
M  V30 10550 H 992.251 -3.38524 2.0547 0
M  V30 10551 H 993.425 -1.62878 4.31054 0
M  V30 10552 H 991.74 -1.61876 3.83647 0
M  V30 10553 H 994.337 -4.31573 3.15672 0
M  V30 10554 H 994.68 -3.8835 1.49966 0
M  V30 10555 H 995.213 -2.80971 2.81602 0
M  V30 10556 H 991.952 -3.046 5.8043 0
M  V30 10557 H 991.472 -4.05445 4.42012 0
M  V30 10558 H 993.151 -4.08977 5.01345 0
M  V30 10559 N 993.283 -1.25346 -0.955304 0
M  V30 10560 C 994.213 -1.08152 -2.06943 0
M  V30 10561 C 995.194 0.00922598 -1.70097 0
M  V30 10562 O 996.379 -0.160181 -1.93538 0
M  V30 10563 C 993.509 -0.698745 -3.40198 0
M  V30 10564 C 992.463 -1.73965 -3.9105 0
M  V30 10565 C 991.789 -1.21158 -5.20792 0
M  V30 10566 C 993.089 -3.13829 -4.17503 0
M  V30 10567 H 994.783 -2.01345 -2.21586 0
M  V30 10568 H 992.329 -0.969459 -1.06478 0
M  V30 10569 H 994.282 -0.565394 -4.1759 0
M  V30 10570 H 993.006 0.268892 -3.25491 0
M  V30 10571 H 991.665 -1.86143 -3.15827 0
M  V30 10572 H 991.313 -0.234193 -5.02455 0
M  V30 10573 H 991.013 -1.90728 -5.55785 0
M  V30 10574 H 992.537 -1.09061 -6.00781 0
M  V30 10575 H 993.951 -3.04809 -4.85556 0
M  V30 10576 H 992.348 -3.80863 -4.63749 0
M  V30 10577 H 993.418 -3.6094 -3.23806 0
M  V30 10578 N 994.761 1.15782 -1.06922 0
M  V30 10579 C 995.724 2.18578 -0.689654 0
M  V30 10580 C 996.724 1.58553 0.267872 0
M  V30 10581 O 997.914 1.7413 0.0494097 0
M  V30 10582 C 995.046 3.40896 -0.0157919 0
M  V30 10583 H 996.239 2.53672 -1.59971 0
M  V30 10584 H 993.792 1.30168 -0.865214 0
M  V30 10585 H 994.527 3.11367 0.906712 0
M  V30 10586 H 994.312 3.85721 -0.704415 0
M  V30 10587 H 995.802 4.16937 0.235266 0
M  V30 10588 N 996.239 0.8527 1.3254 0
M  V30 10589 C 997.487 0.454224 1.96929 0
M  V30 10590 C 997.808 -0.993034 1.67821 0
M  V30 10591 O 997.078 -1.69371 0.984393 0
M  V30 10592 H 995.658 0.164977 0.728554 0
M  V30 10593 H 998.32 1.0887 1.61658 0
M  V30 10594 H 997.416 0.597667 3.06324 0
M  V30 10595 N 997.718 -1.45297 0.610449 0
M  V30 10596 C 998.943 -2.07101 0.111414 0
M  V30 10597 C 999.368 -1.45161 -1.19625 0
M  V30 10598 O 998.726 -0.545368 -1.72903 0
M  V30 10599 C 998.774 -3.60598 -0.0117372 0
M  V30 10600 O 997.878 -3.98512 -1.06122 0
M  V30 10601 H 997.219 -0.659709 0.075364 0
M  V30 10602 H 999.749 -1.86504 0.841269 0
M  V30 10603 H 999.759 -4.07464 -0.209028 0
M  V30 10604 H 998.434 -4.05067 0.943076 0
M  V30 10605 H 997.011 -3.63312 -0.840158 0
M  V30 10606 N 999.196 -0.349774 -1.5367 0
M  V30 10607 C 1000.14 0.504121 -2.25227 0
M  V30 10608 C 1001.11 1.09048 -1.2529 0
M  V30 10609 O 1002.3 1.12594 -1.54037 0
M  V30 10610 C 999.438 1.64601 -3.03316 0
M  V30 10611 C 998.551 1.08635 -4.18118 0
M  V30 10612 C 997.686 2.19605 -4.83681 0
M  V30 10613 C 996.725 1.61023 -5.90541 0
M  V30 10614 N 995.862 2.6576 -6.49858 0
M  V30 10615 H 1000.7 -0.112621 -2.97787 0
M  V30 10616 H 998.239 -0.0673503 -1.46946 0
M  V30 10617 H 1000.2 2.31836 -3.46854 0
M  V30 10618 H 998.827 2.23364 -2.33041 0
M  V30 10619 H 997.879 0.304748 -3.79177 0
M  V30 10620 H 999.191 0.617911 -4.94958 0
M  V30 10621 H 998.345 2.94693 -5.30322 0
M  V30 10622 H 997.084 2.69795 -4.06278 0
M  V30 10623 H 996.089 0.844428 -5.43277 0
M  V30 10624 H 997.314 1.11677 -6.69855 0
M  V30 10625 H 995.26 3.15193 -5.75317 0
M  V30 10626 H 995.177 2.23557 -7.2219 0
M  V30 10627 H 996.445 3.40598 -7.01151 0
M  V30 10628 N 1000.67 1.57404 -0.0785433 0
M  V30 10629 C 1001.62 2.13104 0.88631 0
M  V30 10630 C 1002.59 1.04527 1.29086 0
M  V30 10631 O 1003.78 1.32226 1.37553 0
M  V30 10632 C 1000.92 2.70252 2.14611 0
M  V30 10633 C 1000.03 3.93007 1.79358 0
M  V30 10634 C 999.164 4.38376 3 0
M  V30 10635 C 998.203 5.53761 2.60796 0
M  V30 10636 N 997.34 5.94058 3.74219 0
M  V30 10637 H 1002.18 2.95243 0.404452 0
M  V30 10638 H 999.717 1.45894 0.187982 0
M  V30 10639 H 1001.67 3.01497 2.88367 0
M  V30 10640 H 1000.3 1.90868 2.60326 0
M  V30 10641 H 999.357 3.68181 0.956384 0
M  V30 10642 H 1000.67 4.76795 1.4652 0
M  V30 10643 H 999.823 4.71317 3.82027 0
M  V30 10644 H 998.562 3.53455 3.36037 0
M  V30 10645 H 997.567 5.20464 1.77192 0
M  V30 10646 H 998.792 6.40419 2.25922 0
M  V30 10647 H 996.738 5.12085 4.10005 0
M  V30 10648 H 996.655 6.72602 3.45171 0
M  V30 10649 H 997.923 6.31624 4.56805 0
M  V30 10650 N 1002.15 -0.195058 1.56388 0
M  V30 10651 C 1003.1 -1.24175 1.94549 0
M  V30 10652 C 1004.07 -1.45229 0.806089 0
M  V30 10653 O 1005.25 -1.58362 1.06425 0
M  V30 10654 C 1002.39 -2.58145 2.29031 0
M  V30 10655 C 1001.51 -2.44669 3.56035 0
M  V30 10656 C 1000.64 -3.71342 3.7984 0
M  V30 10657 C 999.681 -3.52699 5.0027 0
M  V30 10658 N 998.818 -4.71385 5.20328 0
M  V30 10659 H 1003.66 -0.909319 2.83788 0
M  V30 10660 H 1001.19 -0.437641 1.40439 0
M  V30 10661 H 1003.15 -3.36195 2.4704 0
M  V30 10662 H 1001.78 -2.8943 1.42933 0
M  V30 10663 H 1000.83 -1.57916 3.46073 0
M  V30 10664 H 1002.15 -2.26827 4.44242 0
M  V30 10665 H 1001.3 -4.57832 3.98088 0
M  V30 10666 H 1000.04 -3.92138 2.89964 0
M  V30 10667 H 999.045 -2.64594 4.81944 0
M  V30 10668 H 1000.27 -3.33349 5.91655 0
M  V30 10669 H 998.216 -4.92444 4.33399 0
M  V30 10670 H 998.133 -4.56368 6.02714 0
M  V30 10671 H 999.401 -5.59226 5.43035 0
M  V30 10672 N 1003.63 -1.50653 -0.462772 0
M  V30 10673 C 1004.88 -1.61296 -1.21105 0
M  V30 10674 C 1005.19 -0.322757 -1.92919 0
M  V30 10675 O 1006.4 -0.308211 -2.69745 0
M  V30 10676 C 1004.85 -2.84752 -2.201 0
M  V30 10677 C 1004.46 -4.20681 -1.54051 0
M  V30 10678 C 1006.21 -3.04744 -2.95518 0
M  V30 10679 C 1004.11 -5.35314 -2.51381 0
M  V30 10680 H 1003.04 -0.60069 -0.455728 0
M  V30 10681 H 1005.69 -1.77093 -0.480656 0
M  V30 10682 H 1004.08 -2.62532 -2.96467 0
M  V30 10683 H 1005.25 -4.53187 -0.834168 0
M  V30 10684 H 1003.56 -4.06361 -0.908828 0
M  V30 10685 H 1006.16 -3.87559 -3.68378 0
M  V30 10686 H 1006.5 -2.16802 -3.55391 0
M  V30 10687 H 1007.04 -3.27185 -2.26263 0
M  V30 10688 H 1003.78 -6.25437 -1.96235 0
M  V30 10689 H 1003.3 -5.07216 -3.20144 0
M  V30 10690 H 1004.98 -5.66229 -3.1304 0
M  V30 10691 N 1005.11 0.71652 -1.4037 0
M  V30 10692 C 1006.35 1.48883 -1.40047 0
M  V30 10693 C 1006.71 1.92 -0.00158027 0
M  V30 10694 O 1007.91 2.68501 0.126765 0
M  V30 10695 C 1006.18 2.68265 -2.36154 0
M  V30 10696 S 1007.74 3.57684 -2.5418 0
M  V30 10697 H 1004.56 0.509035 -0.496391 0
M  V30 10698 H 1007.16 0.837967 -1.76631 0
M  V30 10699 H 1005.87 2.34759 -3.36625 0
M  V30 10700 H 1005.4 3.38264 -2.0085 0
M  V30 10701 H 1007.41 4.62653 -1.79352 0
M  V30 10702 N 1006.59 1.25851 0.948643 0
M  V30 10703 C 1007.81 1.13711 1.72851 0
M  V30 10704 C 1008.23 -0.308471 1.86263 0
M  V30 10705 O 1007.59 -1.21175 1.36465 0
M  V30 10706 C 1007.64 1.79271 3.13918 0
M  V30 10707 O 1007.36 3.18179 3.01154 0
M  V30 10708 C 1008.86 1.72988 4.08154 0
M  V30 10709 H 1006.08 0.396334 0.541443 0
M  V30 10710 H 1008.62 1.66329 1.18974 0
M  V30 10711 H 1006.78 1.30609 3.64719 0
M  V30 10712 H 1007.19 3.50507 3.90186 0
M  V30 10713 H 1008.67 2.2351 5.04725 0
M  V30 10714 H 1009.14 0.694866 4.33668 0
M  V30 10715 H 1009.75 2.21166 3.63271 0
M  V30 10716 N 1008.06 -1.15214 1.07534 0
M  V30 10717 C 1009.01 -2.20013 0.697337 0
M  V30 10718 C 1009.98 -1.6314 -0.312168 0
M  V30 10719 O 1011.17 -1.89768 -0.198196 0
M  V30 10720 C 1008.31 -3.44945 0.103293 0
M  V30 10721 C 1007.42 -4.16009 1.1645 0
M  V30 10722 C 1006.55 -5.28496 0.535261 0
M  V30 10723 C 1005.59 -5.9138 1.57912 0
M  V30 10724 N 1004.73 -6.95335 0.972332 0
M  V30 10725 H 1009.57 -2.51698 1.59538 0
M  V30 10726 H 1007.11 -1.2361 0.797431 0
M  V30 10727 H 1009.07 -4.16397 -0.258766 0
M  V30 10728 H 1007.7 -3.13772 -0.758096 0
M  V30 10729 H 1006.75 -3.43035 1.64411 0
M  V30 10730 H 1008.06 -4.58853 1.9559 0
M  V30 10731 H 1007.21 -6.06579 0.120942 0
M  V30 10732 H 1005.95 -4.8685 -0.287889 0
M  V30 10733 H 1004.96 -5.12008 2.0032 0
M  V30 10734 H 1006.18 -6.35103 2.40459 0
M  V30 10735 H 1004.13 -6.55779 0.170119 0
M  V30 10736 H 1004.05 -7.36616 1.70095 0
M  V30 10737 H 1005.31 -7.77312 0.583577 0
M  V30 10738 N 1009.54 -0.859717 -1.32086 0
M  V30 10739 C 1010.49 -0.306042 -2.28762 0
M  V30 10740 C 1011.46 0.589801 -1.55276 0
M  V30 10741 O 1012.64 0.523633 -1.83474 0
M  V30 10742 C 1009.78 0.495256 -3.41528 0
M  V30 10743 C 1008.9 -0.426947 -4.29885 0
M  V30 10744 C 1008.03 0.387474 -5.29785 0
M  V30 10745 C 1007.07 -0.531807 -6.09785 0
M  V30 10746 N 1006.21 0.245741 -7.0167 0
M  V30 10747 H 1011.05 -1.1357 -2.7551 0
M  V30 10748 H 1008.59 -0.571468 -1.35546 0
M  V30 10749 H 1010.54 0.97551 -4.05635 0
M  V30 10750 H 1009.17 1.28969 -2.95917 0
M  V30 10751 H 1008.23 -1.02561 -3.66313 0
M  V30 10752 H 1009.54 -1.13226 -4.85779 0
M  V30 10753 H 1008.69 0.930677 -5.99519 0
M  V30 10754 H 1007.43 1.12612 -4.74521 0
M  V30 10755 H 1006.44 -1.08685 -5.3895 0
M  V30 10756 H 1007.66 -1.26915 -6.67135 0
M  V30 10757 H 1005.61 0.967391 -6.48828 0
M  V30 10758 H 1005.52 -0.400432 -7.54939 0
M  V30 10759 H 1006.79 0.770507 -7.75683 0
M  V30 10760 N 1011.02 1.44971 -0.618145 0
M  V30 10761 C 1012.43 1.85611 -0.201334 0
M  V30 10762 C 1012.78 1.51698 1.24427 0
M  V30 10763 O 1011.91 0.94875 1.94493 0
M  V30 10764 C 1012.5 3.36897 -0.358619 0
M  V30 10765 C 1011.06 3.764 0.00358196 0
M  V30 10766 C 1010.21 2.68881 -0.678118 0
M  V30 10767 H 1013.16 1.35622 -0.824152 0
M  V30 10768 H 1013.18 3.78326 0.406176 0
M  V30 10769 H 1012.69 3.61548 -1.41084 0
M  V30 10770 H 1010.79 3.57365 1.05457 0
M  V30 10771 H 1010.91 4.77449 -0.397427 0
M  V30 10772 H 1009.27 2.54442 -0.114699 0
M  V30 10773 H 1010.05 2.96367 -1.73268 0
M  V30 10774 N 1012.5 0.357919 1.53482 0
M  V30 10775 C 1013.91 0.00655107 1.59599 0
M  V30 10776 C 1014.11 -1.47449 1.37336 0
M  V30 10777 O 1013.17 -2.2351 1.17472 0
M  V30 10778 C 1014.48 0.455617 2.97228 0
M  V30 10779 C 1016.03 0.409183 3.10314 0
M  V30 10780 C 1016.51 0.833941 4.50344 0
M  V30 10781 N 1018 0.788695 4.56436 0
M  V30 10782 C 1018.73 1.08914 5.62961 0
M  V30 10783 N 1018.23 1.45847 6.77274 0
M  V30 10784 N 1020.02 1.01243 5.52907 0
M  V30 10785 H 1012.17 1.32248 1.66206 0
M  V30 10786 H 1014.44 0.540047 0.779136 0
M  V30 10787 H 1014.14 1.48881 3.18634 0
M  V30 10788 H 1014.02 -0.161751 3.76853 0
M  V30 10789 H 1016.4 -0.614863 2.88623 0
M  V30 10790 H 1016.48 1.06195 2.32715 0
M  V30 10791 H 1016.13 1.85607 4.72771 0
M  V30 10792 H 1016.06 0.158507 5.26361 0
M  V30 10793 H 1018.55 0.516497 3.74354 0
M  V30 10794 H 1018.86 1.67218 7.54492 0
M  V30 10795 H 1017.21 1.49705 6.78685 0
M  V30 10796 H 1020.4 0.723137 4.62481 0
M  V30 10797 H 1020.57 1.24991 6.35831 0
M  V30 10798 N 1013.98 -1.5736 0.0868897 0
M  V30 10799 C 1015.22 -1.94054 -0.578741 0
M  V30 10800 C 1015.55 -0.968047 -1.68698 0
M  V30 10801 O 1014.81 0.0137824 -1.95695 0
M  V30 10802 C 1015.11 -3.37316 -1.18123 0
M  V30 10803 C 1014.77 -4.50467 -0.197607 0
M  V30 10804 C 1013.43 -4.81145 0.072952 0
M  V30 10805 C 1015.79 -5.19036 0.474473 0
M  V30 10806 C 1013.11 -5.77723 1.02242 0
M  V30 10807 C 1015.47 -6.16632 1.41236 0
M  V30 10808 C 1014.13 -6.45719 1.69124 0
M  V30 10809 H 1013.4 -0.710093 -0.211776 0
M  V30 10810 H 1016.05 -1.90822 0.160978 0
M  V30 10811 H 1014.35 -3.37085 -1.99701 0
M  V30 10812 H 1016.05 -3.63003 -1.7038 0
M  V30 10813 H 1012.64 -4.2655 -0.418669 0
M  V30 10814 H 1016.82 -4.95518 0.278581 0
M  V30 10815 H 1012.08 -5.98578 1.24557 0
M  V30 10816 H 1016.25 -6.68862 1.939 0
M  V30 10817 H 1013.88 -7.20365 2.42855 0
M  V30 10818 N 1015.45 0.186762 -1.56489 0
M  V30 10819 C 1016.39 1.25971 -1.9028 0
M  V30 10820 C 1017.37 1.43543 -0.763822 0
M  V30 10821 O 1018.55 1.58799 -1.01564 0
M  V30 10822 C 1015.68 2.62507 -2.14028 0
M  V30 10823 C 1014.72 2.61758 -3.36727 0
M  V30 10824 S 1015.56 2.12366 -4.9159 0
M  V30 10825 C 1016.71 3.5071 -5.18414 0
M  V30 10826 H 1016.94 0.971203 -2.80989 0
M  V30 10827 H 1014.48 0.390636 -1.49377 0
M  V30 10828 H 1016.44 3.41098 -2.28391 0
M  V30 10829 H 1015.1 2.88564 -1.24054 0
M  V30 10830 H 1014.29 3.62173 -3.50495 0
M  V30 10831 H 1013.89 1.91254 -3.214 0
M  V30 10832 H 1016.18 4.46622 -5.09445 0
M  V30 10833 H 1017.13 3.41829 -6.20128 0
M  V30 10834 H 1017.53 3.46008 -4.46026 0
M  V30 10835 N 1016.93 1.50896 0.454776 0
M  V30 10836 C 1018.16 1.66759 1.23313 0
M  V30 10837 C 1018.58 0.35722 1.84677 0
M  V30 10838 O 1017.94 -0.680771 1.68033 0
M  V30 10839 C 1017.99 2.77254 2.3057 0
M  V30 10840 O 1017.09 2.39642 3.35627 0
M  V30 10841 H 1016.43 0.556599 0.362068 0
M  V30 10842 H 1018.96 1.97365 0.539274 0
M  V30 10843 H 1018.97 3.0082 2.75629 0
M  V30 10844 H 1017.65 3.72349 1.85281 0
M  V30 10845 H 1016.23 2.26584 2.96165 0
M  V30 10846 N 1018.41 -0.709066 1.40748 0
M  V30 10847 C 1019.37 -1.80485 1.41272 0
M  V30 10848 C 1020.37 -1.57872 0.305463 0
M  V30 10849 O 1021.56 -1.64793 0.564691 0
M  V30 10850 C 1018.7 -3.1867 1.21087 0
M  V30 10851 H 1019.89 -1.81417 2.38805 0
M  V30 10852 H 1017.44 -0.915356 1.26692 0
M  V30 10853 H 1018.18 -3.23385 0.243406 0
M  V30 10854 H 1017.96 -3.36484 2.01299 0
M  V30 10855 H 1019.45 -3.98685 1.24257 0
M  V30 10856 N 1019.89 -1.26353 -0.941956 0
M  V30 10857 C 1021.13 -1.13071 -1.70277 0
M  V30 10858 C 1021.49 0.320699 -1.89303 0
M  V30 10859 O 1022.69 0.575624 -2.62564 0
M  V30 10860 C 1020.97 -1.87777 -3.04096 0
M  V30 10861 S 1022.52 -1.9054 -3.95272 0
M  V30 10862 H 1019.34 -0.403912 -0.585129 0
M  V30 10863 H 1021.94 -1.6006 -1.12254 0
M  V30 10864 H 1020.65 -2.92447 -2.87929 0
M  V30 10865 H 1020.18 -1.41226 -3.67177 0
M  V30 10866 H 1022.19 -0.991548 -4.86192 0
M  V30 10867 N 1021.37 1.14642 -1.08144 0
M  V30 10868 C 1022.33 2.17834 -0.712799 0
M  V30 10869 C 1023.33 1.58828 0.251041 0
M  V30 10870 O 1024.52 1.74173 0.0309381 0
M  V30 10871 C 1021.65 3.4086 -0.0519477 0
M  V30 10872 H 1022.85 2.51961 -1.62653 0
M  V30 10873 H 1020.4 1.29243 -0.878971 0
M  V30 10874 H 1021.13 3.12311 0.873636 0
M  V30 10875 H 1020.92 3.84952 -0.745286 0
M  V30 10876 H 1022.41 4.17163 0.191031 0
M  V30 10877 N 1022.85 0.866709 1.31628 0
M  V30 10878 C 1023.78 0.277328 2.27516 0
M  V30 10879 C 1024.79 -0.557786 1.52946 0
M  V30 10880 O 1025.98 -0.38031 1.74402 0
M  V30 10881 C 1023.08 -0.625742 3.33073 0
M  V30 10882 C 1022.25 0.176204 4.37045 0
M  V30 10883 C 1021.31 -0.654497 5.22114 0
M  V30 10884 O 1020.34 -0.0836961 5.69138 0
M  V30 10885 N 1021.54 -1.96708 5.46156 0
M  V30 10886 H 1024.3 1.10133 2.78731 0
M  V30 10887 H 1021.87 0.72787 1.44616 0
M  V30 10888 H 1023.86 -1.18709 3.86898 0
M  V30 10889 H 1022.43 -1.35042 2.81926 0
M  V30 10890 H 1021.65 0.918999 3.83338 0
M  V30 10891 H 1022.94 0.726594 5.03585 0
M  V30 10892 H 1022.33 -2.454 5.09701 0
M  V30 10893 H 1020.89 -2.47629 6.02929 0
M  V30 10894 N 1024.32 -1.44642 0.625825 0
M  V30 10895 C 1025.25 -2.33397 -0.0692188 0
M  V30 10896 C 1026.23 -1.47898 -0.840241 0
M  V30 10897 O 1027.42 -1.7663 -0.807176 0
M  V30 10898 C 1024.55 -3.30888 -1.055 0
M  V30 10899 C 1023.5 -4.26164 -0.395968 0
M  V30 10900 C 1022.83 -5.13483 -1.49128 0
M  V30 10901 C 1024.13 -5.17663 0.694433 0
M  V30 10902 H 1025.82 -2.91763 0.671925 0
M  V30 10903 H 1023.37 -1.40294 0.324573 0
M  V30 10904 H 1025.32 -3.91861 -1.54993 0
M  V30 10905 H 1024.05 -2.7072 -1.82696 0
M  V30 10906 H 1022.71 -3.66516 0.0782691 0
M  V30 10907 H 1022.35 -4.49672 -2.25399 0
M  V30 10908 H 1022.05 -5.78038 -1.05573 0
M  V30 10909 H 1023.58 -5.77327 -1.98813 0
M  V30 10910 H 1024.99 -5.72602 0.282818 0
M  V30 10911 H 1023.39 -5.90793 1.05281 0
M  V30 10912 H 1024.46 -4.58994 1.56372 0
M  V30 10913 N 1025.8 -0.366053 -1.5329 0
M  V30 10914 C 1027.05 0.223824 -2.01561 0
M  V30 10915 C 1027.38 1.48382 -1.25286 0
M  V30 10916 O 1026.66 1.91385 -0.34669 0
M  V30 10917 C 1026.94 0.5153 -3.56394 0
M  V30 10918 C 1026.79 -0.758357 -4.43361 0
M  V30 10919 C 1028.11 1.31568 -4.19974 0
M  V30 10920 H 1025.23 0.0798751 -0.732659 0
M  V30 10921 H 1027.87 -0.491038 -1.83545 0
M  V30 10922 H 1026.02 1.12429 -3.71876 0
M  V30 10923 H 1027.69 -1.39584 -4.39675 0
M  V30 10924 H 1025.94 -1.37862 -4.11311 0
M  V30 10925 H 1026.61 -0.509366 -5.49645 0
M  V30 10926 H 1029.08 0.800514 -4.08327 0
M  V30 10927 H 1027.96 1.48837 -5.28336 0
M  V30 10928 H 1028.22 2.32432 -3.76069 0
M  V30 10929 N 1027.28 1.57312 -0.0952337 0
M  V30 10930 C 1028.53 1.93533 0.568131 0
M  V30 10931 C 1028.84 0.979121 1.6933 0
M  V30 10932 O 1030.05 1.23506 2.41782 0
M  V30 10933 C 1028.5 3.43875 1.06198 0
M  V30 10934 C 1028.11 4.47988 -0.0334397 0
M  V30 10935 C 1029.86 3.89057 1.69807 0
M  V30 10936 C 1027.76 5.89483 0.475774 0
M  V30 10937 H 1026.69 0.7224 0.215995 0
M  V30 10938 H 1029.34 1.82699 -0.171257 0
M  V30 10939 H 1027.73 3.49862 1.85506 0
M  V30 10940 H 1028.9 4.53644 -0.808934 0
M  V30 10941 H 1027.21 4.12415 -0.574725 0
M  V30 10942 H 1029.81 4.92171 2.08978 0
M  V30 10943 H 1030.15 3.27713 2.5673 0
M  V30 10944 H 1030.69 3.85772 0.970815 0
M  V30 10945 H 1027.43 6.54528 -0.356837 0
M  V30 10946 H 1026.95 5.87297 1.21827 0
M  V30 10947 H 1028.63 6.40066 0.944697 0
M  V30 10948 N 1028.76 -0.17846 1.56586 0
M  V30 10949 C 1029.72 -1.20479 1.94981 0
M  V30 10950 C 1030.72 -1.37561 0.832677 0
M  V30 10951 O 1031.91 -1.35089 1.09984 0
M  V30 10952 C 1029.04 -2.57117 2.23839 0
M  V30 10953 H 1030.24 -0.876173 2.86816 0
M  V30 10954 H 1027.79 -0.420635 1.50534 0
M  V30 10955 H 1028.52 -2.95005 1.34695 0
M  V30 10956 H 1028.31 -2.46086 3.05261 0
M  V30 10957 H 1029.8 -3.31096 2.5449 0
M  V30 10958 N 1030.24 -1.51135 -0.446768 0
M  V30 10959 C 1031.48 -1.63336 -1.19698 0
M  V30 10960 C 1031.81 -0.345099 -1.91414 0
M  V30 10961 O 1031.07 0.670365 -1.8386 0
M  V30 10962 C 1031.36 -2.78034 -2.2457 0
M  V30 10963 C 1031.03 -4.17652 -1.69934 0
M  V30 10964 C 1029.69 -4.55636 -1.54756 0
M  V30 10965 C 1032.04 -5.04813 -1.29665 0
M  V30 10966 C 1029.37 -5.78496 -0.977689 0
M  V30 10967 C 1031.72 -6.28244 -0.741112 0
M  V30 10968 C 1030.39 -6.65009 -0.576156 0
M  V30 10969 H 1029.66 -0.597689 -0.438006 0
M  V30 10970 H 1032.31 -1.85141 -0.48939 0
M  V30 10971 H 1030.61 -2.50413 -3.01331 0
M  V30 10972 H 1032.31 -2.84675 -2.8242 0
M  V30 10973 H 1028.9 -3.87699 -1.82722 0
M  V30 10974 H 1033.08 -4.76081 -1.40216 0
M  V30 10975 H 1028.34 -6.05636 -0.837563 0
M  V30 10976 H 1032.51 -6.95129 -0.42053 0
M  V30 10977 H 1030.14 -7.60085 -0.132443 0
M  V30 10978 N 1031.71 0.701592 -1.41122 0
M  V30 10979 C 1032.96 1.45722 -1.39456 0
M  V30 10980 C 1033.28 1.95599 -0.00475228 0
M  V30 10981 O 1034.48 2.71166 0.134529 0
M  V30 10982 C 1032.94 2.63475 -2.45172 0
M  V30 10983 C 1032.55 2.20409 -3.90031 0
M  V30 10984 C 1034.29 3.4114 -2.52633 0
M  V30 10985 C 1032.2 3.35084 -4.87312 0
M  V30 10986 H 1031.13 0.547341 -0.518588 0
M  V30 10987 H 1033.78 0.762233 -1.6692 0
M  V30 10988 H 1032.16 3.35212 -2.10829 0
M  V30 10989 H 1033.33 1.56 -4.3359 0
M  V30 10990 H 1031.65 1.55752 -3.86174 0
M  V30 10991 H 1034.25 4.26496 -3.22498 0
M  V30 10992 H 1034.59 3.85915 -1.56125 0
M  V30 10993 H 1035.12 2.76456 -2.86037 0
M  V30 10994 H 1031.86 2.95327 -5.85203 0
M  V30 10995 H 1031.38 3.98362 -4.48406 0
M  V30 10996 H 1033.06 4.00949 -5.07788 0
M  V30 10997 N 1033.19 1.2685 0.935242 0
M  V30 10998 C 1034.12 1.1143 2.05196 0
M  V30 10999 C 1035.1 0.0178362 1.70091 0
M  V30 11000 O 1036.29 0.190951 1.93259 0
M  V30 11001 C 1033.42 0.752779 3.39044 0
M  V30 11002 C 1032.37 1.80164 3.88233 0
M  V30 11003 C 1031.7 1.29428 5.18799 0
M  V30 11004 C 1033 3.20431 4.12457 0
M  V30 11005 H 1034.69 2.04845 2.18355 0
M  V30 11006 H 1032.24 0.986276 1.04922 0
M  V30 11007 H 1034.19 0.631757 4.16637 0
M  V30 11008 H 1032.91 -0.217075 3.25878 0
M  V30 11009 H 1031.57 1.91144 3.12825 0
M  V30 11010 H 1031.22 0.3141 5.02018 0
M  V30 11011 H 1030.92 1.99546 5.5268 0
M  V30 11012 H 1032.45 1.18605 5.9897 0
M  V30 11013 H 1033.86 3.12495 4.80645 0
M  V30 11014 H 1032.26 3.88193 4.57631 0
M  V30 11015 H 1033.33 3.66046 3.18023 0
M  V30 11016 N 1034.67 -1.14067 1.0875 0
M  V30 11017 C 1035.92 -1.84535 0.814235 0
M  V30 11018 C 1036.23 -1.84044 -0.662355 0
M  V30 11019 O 1037.44 -2.50336 -1.05091 0
M  V30 11020 C 1035.89 -3.31273 1.40663 0
M  V30 11021 C 1035.5 -3.40171 2.91526 0
M  V30 11022 C 1037.25 -4.0683 1.21201 0
M  V30 11023 C 1035.15 -4.81141 3.43885 0
M  V30 11024 H 1034.08 -0.691346 0.300926 0
M  V30 11025 H 1036.73 -1.28562 1.30935 0
M  V30 11026 H 1035.12 -3.87005 0.839215 0
M  V30 11027 H 1036.29 -2.94471 3.54434 0
M  V30 11028 H 1034.61 -2.78073 3.09942 0
M  V30 11029 H 1037.2 -5.10891 1.57781 0
M  V30 11030 H 1037.55 -4.16022 0.152092 0
M  V30 11031 H 1038.08 -3.57408 1.74655 0
M  V30 11032 H 1034.82 -4.77138 4.49466 0
M  V30 11033 H 1034.34 -5.27365 2.85738 0
M  V30 11034 H 1036.02 -5.50042 3.40681 0
M  V30 11035 N 1036.15 -0.873678 -1.31166 0
M  V30 11036 C 1037.39 -0.493006 -1.98365 0
M  V30 11037 C 1037.75 0.937973 -1.67529 0
M  V30 11038 O 1038.95 1.42419 -2.2797 0
M  V30 11039 C 1037.22 -0.747128 -3.49504 0
M  V30 11040 S 1038.78 -0.466869 -4.36309 0
M  V30 11041 H 1035.6 -0.183882 -0.68681 0
M  V30 11042 H 1038.2 -1.13051 -1.59499 0
M  V30 11043 H 1036.91 -1.78731 -3.69437 0
M  V30 11044 H 1036.44 -0.096761 -3.93281 0
M  V30 11045 H 1038.45 0.699298 -4.91248 0
M  V30 11046 N 1037.63 1.44308 -0.633487 0
M  V30 11047 C 1038.88 2.01239 -0.136356 0
M  V30 11048 C 1039.19 1.50438 1.25011 0
M  V30 11049 O 1040.39 1.99513 1.84138 0
M  V30 11050 C 1038.85 3.59382 -0.193011 0
M  V30 11051 C 1038.46 4.19178 -1.58093 0
M  V30 11052 C 1040.2 4.23778 0.247534 0
M  V30 11053 C 1038.11 5.69553 -1.59258 0
M  V30 11054 H 1037.04 0.752521 -0.0472109 0
M  V30 11055 H 1039.69 1.65498 -0.79263 0
M  V30 11056 H 1038.07 3.92432 0.530408 0
M  V30 11057 H 1039.25 3.97662 -2.32813 0
M  V30 11058 H 1037.56 3.67079 -1.96576 0
M  V30 11059 H 1040.16 5.34075 0.258401 0
M  V30 11060 H 1040.5 3.96285 1.27529 0
M  V30 11061 H 1041.03 3.9554 -0.423469 0
M  V30 11062 H 1037.77 6.01784 -2.59878 0
M  V30 11063 H 1037.29 5.93185 -0.888352 0
M  V30 11064 H 1038.97 6.33234 -1.32756 0
M  V30 11065 N 1039.1 0.374177 1.53094 0
M  V30 11066 C 1040.04 -0.503065 2.23611 0
M  V30 11067 C 1041.05 -1.03915 1.25321 0
M  V30 11068 O 1042.24 -0.944064 1.51492 0
M  V30 11069 C 1039.34 -1.70825 2.92698 0
M  V30 11070 C 1038.51 -1.30217 4.17567 0
M  V30 11071 C 1037.57 -2.37036 4.69788 0
M  V30 11072 O 1036.6 -1.99069 5.33254 0
M  V30 11073 N 1037.8 -3.68743 4.4834 0
M  V30 11074 H 1040.56 0.101013 2.9953 0
M  V30 11075 H 1038.12 0.199778 1.60663 0
M  V30 11076 H 1040.12 -2.41779 3.24538 0
M  V30 11077 H 1038.69 -2.219 2.2018 0
M  V30 11078 H 1037.91 -0.422121 3.91933 0
M  V30 11079 H 1039.19 -1.00728 4.9873 0
M  V30 11080 H 1038.59 -4.0236 3.97647 0
M  V30 11081 H 1037.15 -4.35776 4.84709 0
M  V30 11082 N 1040.58 -1.57259 0.103575 0
M  V30 11083 C 1041.51 -2.17509 -0.84923 0
M  V30 11084 C 1042.49 -1.11079 -1.28824 0
M  V30 11085 O 1043.68 -1.39252 -1.35361 0
M  V30 11086 C 1040.81 -2.76221 -2.10522 0
M  V30 11087 C 1039.76 -3.88098 -1.80454 0
M  V30 11088 C 1039.09 -4.33549 -3.12952 0
M  V30 11089 C 1040.39 -5.10909 -1.08486 0
M  V30 11090 H 1042.08 -2.9738 -0.347217 0
M  V30 11091 H 1039.63 -1.43045 -0.165568 0
M  V30 11092 H 1041.58 -3.17024 -2.77621 0
M  V30 11093 H 1040.31 -1.93617 -2.63021 0
M  V30 11094 H 1038.96 -3.47847 -1.15749 0
M  V30 11095 H 1038.61 -3.47825 -3.63355 0
M  V30 11096 H 1038.31 -5.08984 -2.93614 0
M  V30 11097 H 1039.84 -4.76992 -3.81196 0
M  V30 11098 H 1041.25 -5.48828 -1.65711 0
M  V30 11099 H 1039.65 -5.91828 -0.992973 0
M  V30 11100 H 1040.72 -4.84851 -0.0690108 0
M  V30 11101 N 1042.06 0.170153 -1.56679 0
M  V30 11102 C 1043.31 0.884841 -1.817 0
M  V30 11103 C 1043.63 1.82731 -0.680763 0
M  V30 11104 O 1042.9 1.936 0.299294 0
M  V30 11105 H 1041.48 0.329738 -0.670285 0
M  V30 11106 H 1044.14 0.169691 -1.9416 0
M  V30 11107 H 1043.24 1.46104 -2.7579 0
M  V30 11108 N 1043.54 1.5137 0.438746 0
M  V30 11109 C 1044.79 1.63202 1.18524 0
M  V30 11110 C 1045.1 0.353408 1.92381 0
M  V30 11111 O 1046.31 0.351086 2.6922 0
M  V30 11112 C 1044.76 2.88218 2.15542 0
M  V30 11113 C 1044.37 4.23078 1.47339 0
M  V30 11114 C 1046.11 3.09407 2.90633 0
M  V30 11115 C 1044.02 5.39246 2.42833 0
M  V30 11116 H 1042.95 0.607864 0.446114 0
M  V30 11117 H 1045.6 1.77835 0.452421 0
M  V30 11118 H 1043.98 2.67216 2.92253 0
M  V30 11119 H 1045.16 4.54457 0.761964 0
M  V30 11120 H 1043.47 4.07755 0.844065 0
M  V30 11121 H 1046.07 3.9337 3.62165 0
M  V30 11122 H 1046.41 2.22428 3.51897 0
M  V30 11123 H 1046.95 3.30743 2.21029 0
M  V30 11124 H 1043.69 6.2848 1.8626 0
M  V30 11125 H 1043.21 5.12245 3.12034 0
M  V30 11126 H 1044.88 5.71137 3.03992 0
M  V30 11127 N 1045.02 -0.694098 1.41492 0
M  V30 11128 C 1046.27 -1.4498 1.40227 0
M  V30 11129 C 1046.58 -1.95594 0.0151253 0
M  V30 11130 O 1047.78 -2.71234 -0.120146 0
M  V30 11131 C 1046.24 -2.62171 2.46565 0
M  V30 11132 C 1045.85 -2.18337 3.91194 0
M  V30 11133 C 1047.59 -3.39796 2.54439 0
M  V30 11134 C 1045.5 -3.32495 4.89082 0
M  V30 11135 H 1044.43 -0.544584 0.521483 0
M  V30 11136 H 1047.08 -0.75337 1.67322 0
M  V30 11137 H 1045.46 -3.34089 2.12604 0
M  V30 11138 H 1046.64 -1.53698 4.34412 0
M  V30 11139 H 1044.95 -1.53702 3.86994 0
M  V30 11140 H 1047.55 -4.2478 3.24755 0
M  V30 11141 H 1047.89 -3.85082 1.5817 0
M  V30 11142 H 1048.42 -2.74935 2.87499 0
M  V30 11143 H 1045.16 -2.92219 5.86761 0
M  V30 11144 H 1044.68 -3.95978 4.50512 0
M  V30 11145 H 1046.36 -3.98251 5.09907 0
M  V30 11146 N 1046.49 -1.27344 -0.928501 0
M  V30 11147 C 1047.74 -1.13804 -1.67859 0
M  V30 11148 C 1048.07 0.31555 -1.91619 0
M  V30 11149 O 1047.35 1.23087 -1.50599 0
M  V30 11150 C 1047.63 -1.9213 -3.04562 0
M  V30 11151 C 1047.48 -3.45468 -2.88048 0
M  V30 11152 C 1048.8 -1.72513 -4.04879 0
M  V30 11153 H 1045.92 -0.414796 -0.609191 0
M  V30 11154 H 1048.56 -1.5649 -1.07753 0
M  V30 11155 H 1046.71 -1.55853 -3.55868 0
M  V30 11156 H 1048.39 -3.9157 -2.43865 0
M  V30 11157 H 1046.63 -3.71849 -2.23407 0
M  V30 11158 H 1047.3 -3.95515 -3.85061 0
M  V30 11159 H 1049.78 -2.04143 -3.62581 0
M  V30 11160 H 1048.65 -2.29713 -4.98521 0
M  V30 11161 H 1048.91 -0.672856 -4.3695 0
M  V30 11162 N 1047.97 1.13488 -1.09353 0
M  V30 11163 C 1048.94 2.17066 -0.735863 0
M  V30 11164 C 1049.94 1.59086 0.234181 0
M  V30 11165 O 1051.13 1.74196 0.012463 0
M  V30 11166 C 1048.26 3.40786 -0.0880975 0
M  V30 11167 H 1049.45 2.50221 -1.65316 0
M  V30 11168 H 1047 1.28304 -0.89263 0
M  V30 11169 H 1047.74 3.1322 0.840462 0
M  V30 11170 H 1047.52 3.8414 -0.786073 0
M  V30 11171 H 1049.01 4.17342 0.146775 0
M  V30 11172 N 1049.45 0.880621 1.30701 0
M  V30 11173 C 1050.38 0.360251 2.30704 0
M  V30 11174 C 1051.36 -0.554572 1.60806 0
M  V30 11175 O 1052.55 -0.469345 1.88443 0
M  V30 11176 C 1049.68 -0.429888 3.44629 0
M  V30 11177 C 1048.63 0.392786 4.26194 0
M  V30 11178 C 1047.96 -0.52369 5.32129 0
M  V30 11179 C 1049.26 1.63258 4.96129 0
M  V30 11180 H 1050.95 1.19591 2.74478 0
M  V30 11181 H 1048.5 0.576508 1.31956 0
M  V30 11182 H 1050.45 -0.804532 4.13649 0
M  V30 11183 H 1049.17 -1.29916 2.99649 0
M  V30 11184 H 1047.83 0.749514 3.58856 0
M  V30 11185 H 1047.48 -1.39054 4.83397 0
M  V30 11186 H 1047.18 0.0229272 5.87596 0
M  V30 11187 H 1048.71 -0.894946 6.04006 0
M  V30 11188 H 1050.12 1.32877 5.57689 0
M  V30 11189 H 1048.52 2.11906 5.61441 0
M  V30 11190 H 1049.59 2.37944 4.22505 0
M  V30 11191 N 1050.93 -1.4397 0.641131 0
M  V30 11192 C 1052.18 -2.01946 0.149629 0
M  V30 11193 C 1052.5 -1.50496 -1.23212 0
M  V30 11194 O 1051.76 -0.683453 -1.83378 0
M  V30 11195 C 1052.06 -3.5727 0.0963368 0
M  V30 11196 C 1051.72 -4.28016 1.4182 0
M  V30 11197 C 1050.39 -4.47059 1.78021 0
M  V30 11198 C 1052.74 -4.68183 2.29028 0
M  V30 11199 C 1050.07 -5.03532 3.01119 0
M  V30 11200 C 1052.42 -5.26019 3.51406 0
M  V30 11201 C 1051.08 -5.4328 3.87818 0
M  V30 11202 H 1050.35 -0.738974 0.0547531 0
M  V30 11203 H 1053 -1.72605 0.829436 0
M  V30 11204 H 1051.3 -3.86083 -0.666879 0
M  V30 11205 H 1053 -3.99871 -0.300635 0
M  V30 11206 H 1049.59 -4.13531 1.12651 0
M  V30 11207 H 1053.78 -4.53175 2.02353 0
M  V30 11208 H 1049.03 -5.15082 3.29395 0
M  V30 11209 H 1053.21 -5.56092 4.19208 0
M  V30 11210 H 1050.83 -5.86805 4.83284 0
M  V30 11211 N 1052.41 -0.382291 -1.52893 0
M  V30 11212 C 1053.66 0.203342 -2.00672 0
M  V30 11213 C 1053.97 1.48487 -1.27322 0
M  V30 11214 O 1055.18 2.15013 -1.65776 0
M  V30 11215 C 1053.63 0.412922 -3.57523 0
M  V30 11216 C 1053.24 -0.854949 -4.39767 0
M  V30 11217 C 1054.98 0.955301 -4.13611 0
M  V30 11218 C 1052.89 -0.614033 -5.88204 0
M  V30 11219 H 1051.82 0.0797635 -0.749769 0
M  V30 11220 H 1054.47 -0.50361 -1.76454 0
M  V30 11221 H 1052.85 1.18155 -3.77962 0
M  V30 11222 H 1054.03 -1.62765 -4.31096 0
M  V30 11223 H 1052.34 -1.32176 -3.94865 0
M  V30 11224 H 1054.94 1.15114 -5.22162 0
M  V30 11225 H 1055.28 1.92233 -3.69259 0
M  V30 11226 H 1055.82 0.24642 -3.97036 0
M  V30 11227 H 1052.55 -1.55187 -6.36865 0
M  V30 11228 H 1052.07 0.119865 -5.9968 0
M  V30 11229 H 1053.75 -0.245895 -6.46533 0
M  V30 11230 N 1053.89 1.57202 -0.111913 0
M  V30 11231 C 1054.82 2.10634 0.877983 0
M  V30 11232 C 1055.8 1.02098 1.26549 0
M  V30 11233 O 1056.98 1.29707 1.36779 0
M  V30 11234 C 1054.11 2.59721 2.174 0
M  V30 11235 C 1053.15 3.80074 1.93509 0
M  V30 11236 S 1053.99 5.22834 1.1578 0
M  V30 11237 C 1055.14 5.75284 2.46576 0
M  V30 11238 H 1055.38 2.94268 0.423483 0
M  V30 11239 H 1052.91 1.54065 0.101721 0
M  V30 11240 H 1054.87 2.88657 2.91868 0
M  V30 11241 H 1053.53 1.76281 2.59969 0
M  V30 11242 H 1052.72 4.12545 2.89522 0
M  V30 11243 H 1052.32 3.51718 1.27164 0
M  V30 11244 H 1054.61 5.84576 3.42457 0
M  V30 11245 H 1055.56 6.73493 2.1866 0
M  V30 11246 H 1055.97 5.03308 2.55619 0
M  V30 11247 N 1055.36 -0.161842 1.56767 0
M  V30 11248 C 1056.27 -1.21996 2.00385 0
M  V30 11249 C 1057.29 -1.4789 0.916768 0
M  V30 11250 O 1058.47 -1.59852 1.22513 0
M  V30 11251 C 1055.53 -2.53695 2.36305 0
M  V30 11252 C 1054.59 -2.3558 3.58888 0
M  V30 11253 C 1053.82 -3.60998 3.93085 0
M  V30 11254 O 1054.05 -4.6657 3.28129 0
M  V30 11255 O 1052.98 -3.54544 4.86397 0
M  V30 11256 H 1056.81 -0.879701 2.9068 0
M  V30 11257 H 1054.39 -0.369437 1.4476 0
M  V30 11258 H 1056.27 -3.31366 2.60335 0
M  V30 11259 H 1054.95 -2.87281 1.49169 0
M  V30 11260 H 1053.86 -1.55908 3.40064 0
M  V30 11261 H 1055.19 -2.06915 4.46595 0
M  V30 11262 N 1056.84 -1.516 -0.430713 0
M  V30 11263 C 1058.25 -1.57 -1.01035 0
M  V30 11264 C 1058.6 -0.397439 -1.92132 0
M  V30 11265 O 1057.73 0.484954 -2.10896 0
M  V30 11266 C 1058.32 -2.84536 -1.83915 0
M  V30 11267 C 1056.88 -2.92485 -2.36917 0
M  V30 11268 C 1056.03 -2.5173 -1.16308 0
M  V30 11269 H 1058.98 -1.57281 -0.211734 0
M  V30 11270 H 1059 -2.68672 -2.69435 0
M  V30 11271 H 1058.51 -3.69858 -1.17586 0
M  V30 11272 H 1056.61 -2.11608 -3.0668 0
M  V30 11273 H 1056.73 -3.96277 -2.6926 0
M  V30 11274 H 1055.09 -2.05079 -1.51045 0
M  V30 11275 H 1055.87 -3.39403 -0.515793 0
M  V30 11276 N 1058.32 0.686584 -1.41858 0
M  V30 11277 C 1059.73 1.26682 -1.37145 0
M  V30 11278 C 1060.08 1.96112 -0.058922 0
M  V30 11279 O 1059.21 1.99321 0.842629 0
M  V30 11280 C 1059.8 2.30383 -2.48413 0
M  V30 11281 C 1058.36 2.83961 -2.47069 0
M  V30 11282 C 1057.51 1.58119 -2.27802 0
M  V30 11283 H 1060.46 0.480742 -1.51243 0
M  V30 11284 H 1060.48 3.11868 -2.17987 0
M  V30 11285 H 1059.99 1.79822 -3.43927 0
M  V30 11286 H 1058.09 3.38675 -1.55338 0
M  V30 11287 H 1058.21 3.3378 -3.43697 0
M  V30 11288 H 1056.57 1.84258 -1.75844 0
M  V30 11289 H 1057.35 1.09541 -3.25355 0
M  V30 11290 N 1059.8 1.27835 0.921735 0
M  V30 11291 C 1061.07 1.05238 1.64877 0
M  V30 11292 C 1061.45 -0.410921 2.07062 0
M  V30 11293 O 1060.8 -1.39538 1.80946 0
M  V30 11294 C 1061.01 2.01955 2.84632 0
M  V30 11295 C 1062.36 2.31657 3.55837 0
M  V30 11296 O 1063.38 1.99975 2.94768 0
M  V30 11297 O 1062.24 2.85692 4.65878 0
M  V30 11298 H 1059.34 0.401622 0.72293 0
M  V30 11299 H 1061.88 1.39123 0.971744 0
M  V30 11300 H 1060.66 3.00614 2.50494 0
M  V30 11301 H 1060.28 1.68667 3.60052 0
M  V30 11302 N 1061.28 -1.12907 1.09954 0
M  V30 11303 C 1062.52 -1.83661 0.833761 0
M  V30 11304 C 1062.84 -1.84736 -0.642798 0
M  V30 11305 O 1064.04 -2.51437 -1.0243 0
M  V30 11306 C 1062.5 -3.29763 1.44168 0
M  V30 11307 C 1062.11 -3.3706 2.95118 0
M  V30 11308 C 1063.85 -4.05522 1.25509 0
M  V30 11309 C 1061.76 -4.77467 3.48969 0
M  V30 11310 H 1060.69 -0.688115 0.308242 0
M  V30 11311 H 1063.34 -1.27166 1.32291 0
M  V30 11312 H 1061.72 -3.86094 0.880215 0
M  V30 11313 H 1062.9 -2.90695 3.57537 0
M  V30 11314 H 1061.21 -2.7477 3.12874 0
M  V30 11315 H 1063.81 -5.09188 1.63191 0
M  V30 11316 H 1064.15 -4.15837 0.196208 0
M  V30 11317 H 1064.68 -3.55536 1.78435 0
M  V30 11318 H 1061.42 -4.72344 4.54501 0
M  V30 11319 H 1060.94 -5.24305 2.91315 0
M  V30 11320 H 1062.62 -5.46397 3.46495 0
M  V30 11321 N 1062.75 -0.88754 -1.30232 0
M  V30 11322 C 1063.69 -0.300814 -2.26209 0
M  V30 11323 C 1064.66 0.580088 -1.519 0
M  V30 11324 O 1065.85 0.529611 -1.80907 0
M  V30 11325 C 1062.98 0.572336 -3.33829 0
M  V30 11326 C 1062.02 -0.239589 -4.25827 0
M  V30 11327 S 1062.85 -1.62953 -5.10104 0
M  V30 11328 C 1064.01 -0.762979 -6.21232 0
M  V30 11329 H 1064.24 -1.11435 -2.75626 0
M  V30 11330 H 1061.78 -0.687123 -1.38268 0
M  V30 11331 H 1063.73 1.07036 -3.963 0
M  V30 11332 H 1062.4 1.35999 -2.83131 0
M  V30 11333 H 1061.59 0.426854 -5.02189 0
M  V30 11334 H 1061.19 -0.670325 -3.67944 0
M  V30 11335 H 1063.48 0.0189354 -6.77497 0
M  V30 11336 H 1064.43 -1.49829 -6.92067 0
M  V30 11337 H 1064.83 -0.322747 -5.63577 0
M  V30 11338 N 1064.23 1.43628 -0.648757 0
M  V30 11339 C 1065.18 2.27899 0.0677939 0
M  V30 11340 C 1066.17 1.39653 0.799115 0
M  V30 11341 O 1067.36 1.6332 0.682317 0
M  V30 11342 C 1064.49 3.27276 1.0366 0
M  V30 11343 C 1063.57 4.23009 0.303982 0
M  V30 11344 N 1063.96 5.01248 -0.677056 0
M  V30 11345 C 1062.26 4.42645 0.546041 0
M  V30 11346 C 1062.96 5.70982 -1.11151 0
M  V30 11347 N 1061.94 5.41762 -0.446669 0
M  V30 11348 H 1065.74 2.85804 -0.685073 0
M  V30 11349 H 1063.26 1.55277 -0.475674 0
M  V30 11350 H 1065.25 3.86423 1.5647 0
M  V30 11351 H 1063.91 2.70932 1.78958 0
M  V30 11352 H 1064.92 5.07028 -1.0556 0
M  V30 11353 H 1061.6 3.97377 1.28053 0
M  V30 11354 H 1062.99 6.43794 -1.923 0
M  V30 11355 N 1065.71 0.390394 1.52688 0
M  V30 11356 C 1066.99 -0.249068 1.94008 0
M  V30 11357 C 1067.37 -1.64263 1.32593 0
M  V30 11358 O 1066.72 -2.23086 0.494448 0
M  V30 11359 C 1066.93 -0.274318 3.4792 0
M  V30 11360 C 1068.27 -0.502743 4.21613 0
M  V30 11361 O 1069.3 -0.35448 3.54432 0
M  V30 11362 O 1068.16 -0.79334 5.40711 0
M  V30 11363 H 1065.25 -0.155116 0.812323 0
M  V30 11364 H 1067.8 0.44498 1.63762 0
M  V30 11365 H 1066.57 0.701766 3.84956 0
M  V30 11366 H 1066.19 -1.01324 3.84473 0
M  V30 11367 N 1067.19 -1.57141 0.120249 0
M  V30 11368 C 1068.42 -1.993 -0.544346 0
M  V30 11369 C 1068.83 -0.998858 -1.60684 0
M  V30 11370 O 1068.17 0.0162197 -1.83693 0
M  V30 11371 C 1068.23 -3.37874 -1.22808 0
M  V30 11372 C 1067.9 -4.55924 -0.313374 0
M  V30 11373 C 1068.89 -5.17962 0.448501 0
M  V30 11374 C 1066.58 -5.018 -0.224082 0
M  V30 11375 C 1068.57 -6.24264 1.28739 0
M  V30 11376 C 1066.26 -6.07963 0.618437 0
M  V30 11377 C 1067.26 -6.69061 1.3728 0
M  V30 11378 O 1066.94 -7.73173 2.20133 0
M  V30 11379 H 1066.68 -0.659466 -0.148596 0
M  V30 11380 H 1069.23 -2.04387 0.203779 0
M  V30 11381 H 1067.46 -3.29545 -2.02329 0
M  V30 11382 H 1069.15 -3.64314 -1.7897 0
M  V30 11383 H 1069.92 -4.83434 0.389395 0
M  V30 11384 H 1065.79 -4.53989 -0.80094 0
M  V30 11385 H 1069.34 -6.71883 1.87667 0
M  V30 11386 H 1065.24 -6.4192 0.678932 0
M  V30 11387 H 1066 -7.90276 2.13088 0
M  V30 11388 N 1068.67 0.153526 -1.5685 0
M  V30 11389 C 1070.08 0.714247 -1.72498 0
M  V30 11390 C 1070.43 1.81968 -0.733621 0
M  V30 11391 O 1069.55 2.16163 0.10118 0
M  V30 11392 C 1070.15 1.30238 -3.12767 0
M  V30 11393 C 1068.71 1.80974 -3.30038 0
M  V30 11394 C 1067.85 0.695638 -2.68433 0
M  V30 11395 H 1070.81 -0.0720733 -1.58536 0
M  V30 11396 H 1070.83 2.17217 -3.12405 0
M  V30 11397 H 1070.34 0.497605 -3.84897 0
M  V30 11398 H 1068.44 2.64039 -2.62895 0
M  V30 11399 H 1068.55 1.94294 -4.37934 0
M  V30 11400 H 1066.92 1.12061 -2.28723 0
M  V30 11401 H 1067.7 -0.0975885 -3.43161 0
M  V30 11402 N 1070.14 1.51827 0.422667 0
M  V30 11403 C 1071.37 1.69337 1.19748 0
M  V30 11404 C 1071.79 0.396312 1.83878 0
M  V30 11405 O 1071.15 -0.644976 1.6944 0
M  V30 11406 C 1071.2 2.82082 2.24637 0
M  V30 11407 O 1070.3 2.46708 3.30468 0
M  V30 11408 H 1069.65 0.564154 0.35018 0
M  V30 11409 H 1072.18 1.98465 0.497289 0
M  V30 11410 H 1072.19 3.06599 2.69186 0
M  V30 11411 H 1070.86 3.76195 1.77341 0
M  V30 11412 H 1069.44 2.32815 2.91293 0
M  V30 11413 N 1071.62 -0.679052 1.4222 0
M  V30 11414 C 1072.87 -1.43485 1.41757 0
M  V30 11415 C 1073.18 -1.95567 0.0358698 0
M  V30 11416 O 1074.39 -2.71346 -0.0913713 0
M  V30 11417 C 1072.85 -2.59541 2.49332 0
M  V30 11418 C 1072.45 -2.14176 3.93488 0
M  V30 11419 C 1074.2 -3.37078 2.58029 0
M  V30 11420 C 1072.11 -3.27289 4.92581 0
M  V30 11421 H 1071.04 -0.539022 0.52723 0
M  V30 11422 H 1073.69 -0.735581 1.68111 0
M  V30 11423 H 1072.07 -3.31815 2.16135 0
M  V30 11424 H 1073.24 -1.49082 4.36017 0
M  V30 11425 H 1071.56 -1.49589 3.88603 0
M  V30 11426 H 1074.15 -4.21312 3.29242 0
M  V30 11427 H 1074.5 -3.83383 1.62245 0
M  V30 11428 H 1075.03 -2.7187 2.90399 0
M  V30 11429 H 1071.77 -2.8598 5.89827 0
M  V30 11430 H 1071.29 -3.91178 4.54687 0
M  V30 11431 H 1072.97 -3.9282 5.14103 0
M  V30 11432 N 1073.1 -1.28322 -0.914942 0
M  V30 11433 C 1074.52 -1.06003 -1.19313 0
M  V30 11434 C 1074.72 0.198366 -2.00521 0
M  V30 11435 O 1073.77 0.900364 -2.35902 0
M  V30 11436 C 1075.09 -2.30684 -1.92887 0
M  V30 11437 C 1076.63 -2.35851 -2.05775 0
M  V30 11438 C 1077.11 -3.60295 -2.82757 0
M  V30 11439 N 1078.6 -3.60928 -2.9032 0
M  V30 11440 C 1079.33 -4.53894 -3.50383 0
M  V30 11441 N 1078.83 -5.57178 -4.11734 0
M  V30 11442 N 1080.62 -4.41492 -3.4791 0
M  V30 11443 H 1072.77 -2.09104 -0.372735 0
M  V30 11444 H 1075.04 -0.920285 -0.227552 0
M  V30 11445 H 1074.74 -3.22355 -1.40643 0
M  V30 11446 H 1074.62 -2.37003 -2.93444 0
M  V30 11447 H 1077 -1.44678 -2.57201 0
M  V30 11448 H 1077.09 -2.33526 -1.04399 0
M  V30 11449 H 1076.73 -4.51811 -2.32011 0
M  V30 11450 H 1076.66 -3.59873 -3.84446 0
M  V30 11451 H 1079.15 -2.8624 -2.46729 0
M  V30 11452 H 1079.46 -6.24261 -4.55541 0
M  V30 11453 H 1077.81 -5.61005 -4.10242 0
M  V30 11454 H 1081 -3.60005 -2.99189 0
M  V30 11455 H 1081.17 -5.14132 -3.94427 0
M  V30 11456 N 1074.58 1.12322 -1.10551 0
M  V30 11457 C 1075.49 2.21678 -0.767862 0
M  V30 11458 C 1076.5 1.72404 0.235132 0
M  V30 11459 O 1077.68 2.01266 0.0735912 0
M  V30 11460 C 1074.75 3.46087 -0.205999 0
M  V30 11461 C 1073.81 4.10195 -1.26642 0
M  V30 11462 C 1073.04 5.28666 -0.731274 0
M  V30 11463 O 1073.26 5.68686 0.44189 0
M  V30 11464 O 1072.2 5.83121 -1.49176 0
M  V30 11465 H 1076.02 2.52955 -1.6807 0
M  V30 11466 H 1073.61 1.2068 -0.880728 0
M  V30 11467 H 1075.49 4.21273 0.103435 0
M  V30 11468 H 1074.16 3.16484 0.679685 0
M  V30 11469 H 1073.07 3.36784 -1.62873 0
M  V30 11470 H 1074.4 4.43957 -2.12516 0
M  V30 11471 N 1076.06 0.894434 1.2976 0
M  V30 11472 C 1077.3 0.518435 1.96061 0
M  V30 11473 C 1077.64 -0.931882 1.70381 0
M  V30 11474 O 1076.91 -1.65988 1.01381 0
M  V30 11475 C 1077.19 0.80519 3.50982 0
M  V30 11476 C 1077.05 2.30683 3.86142 0
M  V30 11477 C 1078.37 0.288096 4.39156 0
M  V30 11478 H 1075.48 0.18983 0.712133 0
M  V30 11479 H 1078.13 1.12016 1.53468 0
M  V30 11480 H 1076.28 0.293071 3.87393 0
M  V30 11481 H 1077.95 2.88808 3.59705 0
M  V30 11482 H 1076.19 2.76968 3.33873 0
M  V30 11483 H 1076.86 2.45805 4.94251 0
M  V30 11484 H 1079.34 0.726547 4.09708 0
M  V30 11485 H 1078.21 0.517985 5.4645 0
M  V30 11486 H 1078.48 -0.811018 4.34597 0
M  V30 11487 N 1077.53 -1.43282 0.656365 0
M  V30 11488 C 1078.76 -2.05826 0.178619 0
M  V30 11489 C 1079.17 -1.493 -1.16216 0
M  V30 11490 O 1078.52 -0.620163 -1.72915 0
M  V30 11491 C 1078.58 -3.59496 0.0164101 0
M  V30 11492 C 1078.24 -4.38621 1.28298 0
M  V30 11493 C 1079.24 -4.70477 2.21241 0
M  V30 11494 C 1076.92 -4.78577 1.52544 0
M  V30 11495 C 1078.92 -5.412 3.36721 0
M  V30 11496 C 1076.6 -5.49044 2.68316 0
M  V30 11497 C 1077.6 -5.80279 3.6023 0
M  V30 11498 O 1077.29 -6.49306 4.7398 0
M  V30 11499 H 1077.02 -0.670158 0.0886814 0
M  V30 11500 H 1079.58 -1.84722 0.89816 0
M  V30 11501 H 1077.81 -3.79188 -0.758532 0
M  V30 11502 H 1079.5 -4.03731 -0.419096 0
M  V30 11503 H 1080.26 -4.40125 2.03753 0
M  V30 11504 H 1076.14 -4.5367 0.818816 0
M  V30 11505 H 1079.68 -5.65497 4.08483 0
M  V30 11506 H 1075.58 -5.78813 2.85738 0
M  V30 11507 H 1076.35 -6.67789 4.73286 0
M  V30 11508 N 1079.01 -0.398486 -1.52479 0
M  V30 11509 C 1079.94 0.423498 -2.29627 0
M  V30 11510 C 1080.92 1.05547 -1.33394 0
M  V30 11511 O 1082.11 1.0665 -1.62294 0
M  V30 11512 C 1079.24 1.54612 -3.10986 0
M  V30 11513 C 1078.19 1.03971 -4.15179 0
M  V30 11514 C 1077.52 2.25512 -4.84818 0
M  V30 11515 C 1078.82 0.10121 -5.22202 0
M  V30 11516 H 1080.51 -0.220222 -2.98589 0
M  V30 11517 H 1078.06 -0.107355 -1.43599 0
M  V30 11518 H 1080.01 2.12806 -3.63719 0
M  V30 11519 H 1078.74 2.21756 -2.39774 0
M  V30 11520 H 1077.4 0.480251 -3.63441 0
M  V30 11521 H 1077.04 2.91187 -4.10145 0
M  V30 11522 H 1076.74 1.92285 -5.55248 0
M  V30 11523 H 1078.27 2.84331 -5.40359 0
M  V30 11524 H 1079.68 0.591617 -5.70239 0
M  V30 11525 H 1078.08 -0.141737 -5.99933 0
M  V30 11526 H 1079.15 -0.847216 -4.77441 0
M  V30 11527 N 1080.49 1.57075 -0.12858 0
M  V30 11528 C 1081.74 1.94695 0.526952 0
M  V30 11529 C 1082.05 1.01482 1.67215 0
M  V30 11530 O 1083.26 1.28606 2.39108 0
M  V30 11531 C 1081.72 3.4605 0.988801 0
M  V30 11532 C 1081.32 4.47816 -0.128457 0
M  V30 11533 C 1083.07 3.92572 1.61517 0
M  V30 11534 C 1080.97 5.9036 0.350628 0
M  V30 11535 H 1079.9 0.726819 0.200623 0
M  V30 11536 H 1082.56 1.82295 -0.209972 0
M  V30 11537 H 1080.94 3.53718 1.78043 0
M  V30 11538 H 1082.11 4.51826 -0.904976 0
M  V30 11539 H 1080.43 4.11103 -0.662075 0
M  V30 11540 H 1083.02 4.96493 1.98491 0
M  V30 11541 H 1083.37 3.33085 2.49721 0
M  V30 11542 H 1083.9 3.87744 0.888768 0
M  V30 11543 H 1080.64 6.53624 -0.495592 0
M  V30 11544 H 1080.16 5.89749 1.09342 0
M  V30 11545 H 1081.84 6.41926 0.808717 0
M  V30 11546 N 1081.97 -0.145205 1.5693 0
M  V30 11547 C 1083.21 -0.863709 1.85255 0
M  V30 11548 C 1083.57 -1.78266 0.713112 0
M  V30 11549 O 1084.77 -2.54075 0.877459 0
M  V30 11550 C 1083.05 -1.61628 3.18765 0
M  V30 11551 S 1084.6 -2.37996 3.68651 0
M  V30 11552 H 1081.42 -0.288792 0.649708 0
M  V30 11553 H 1084.02 -0.123603 1.95109 0
M  V30 11554 H 1082.73 -0.932688 3.99661 0
M  V30 11555 H 1082.26 -2.39726 3.11921 0
M  V30 11556 H 1084.27 -3.63223 3.38058 0
M  V30 11557 N 1083.45 -1.52049 -0.414609 0
M  V30 11558 C 1084.4 -1.75603 -1.52533 0
M  V30 11559 C 1085.39 -0.622965 -1.57529 0
M  V30 11560 O 1086.6 -0.804886 -1.61002 0
M  V30 11561 H 1082.97 -0.555222 -0.507181 0
M  V30 11562 H 1084.94 -2.68666 -1.2985 0
M  V30 11563 C 1083.69 -1.9188 -2.89961 0
M  V30 11564 H 1083.01 -2.78483 -2.86857 0
M  V30 11565 H 1084.45 -2.12363 -3.66985 0
M  V30 11566 C 1082.91 -0.684453 -3.29874 0
M  V30 11567 O 1083.44 0.150256 -4.01419 0
M  V30 11568 N 1081.65 -0.521936 -2.85874 0
M  V30 11569 H 1081.2 -1.20229 -2.27822 0
M  V30 11570 H 1081.15 0.302655 -3.1294 0
M  V30 11571 N 1084.93 0.6715 -1.42579 0
M  V30 11572 C 1086.15 1.45972 -1.46628 0
M  V30 11573 C 1086.57 1.88636 -0.0785986 0
M  V30 11574 O 1085.93 1.58345 0.907372 0
M  V30 11575 C 1085.98 2.70668 -2.39627 0
M  V30 11576 O 1085.7 2.29793 -3.72997 0
M  V30 11577 C 1087.2 3.64201 -2.52731 0
M  V30 11578 H 1084.42 0.449044 -0.498598 0
M  V30 11579 H 1086.96 0.824811 -1.87129 0
M  V30 11580 H 1085.12 3.3034 -2.02371 0
M  V30 11581 H 1085.53 3.10341 -4.22834 0
M  V30 11582 H 1087.01 4.48412 -3.21918 0
M  V30 11583 H 1087.48 4.10323 -1.56626 0
M  V30 11584 H 1088.09 3.1042 -2.90722 0
M  V30 11585 N 1086.4 1.28806 0.908124 0
M  V30 11586 C 1087.63 1.19153 1.69146 0
M  V30 11587 C 1088.05 -0.249056 1.8715 0
M  V30 11588 O 1087.4 -1.16772 1.40251 0
M  V30 11589 C 1087.45 1.89167 3.08055 0
M  V30 11590 O 1087.18 3.27599 2.90879 0
M  V30 11591 C 1088.68 1.85886 4.02444 0
M  V30 11592 H 1085.9 0.413359 0.528559 0
M  V30 11593 H 1088.44 1.7003 1.13622 0
M  V30 11594 H 1086.6 1.42146 3.60379 0
M  V30 11595 H 1087.01 3.62743 3.78837 0
M  V30 11596 H 1088.48 2.39454 4.97359 0
M  V30 11597 H 1088.96 0.832483 4.31238 0
M  V30 11598 H 1089.57 2.32612 3.5605 0
M  V30 11599 N 1087.88 -1.11734 1.11145 0
M  V30 11600 C 1088.83 -2.19765 0.761982 0
M  V30 11601 C 1089.82 -1.67616 -0.24518 0
M  V30 11602 O 1091.03 -1.79695 -0.104781 0
M  V30 11603 H 1087.4 -0.71644 0.228513 0
M  V30 11604 H 1089.38 -2.4649 1.68183 0
M  V30 11605 C 1088.12 -3.47016 0.218057 0
M  V30 11606 H 1087.45 -3.87494 0.984299 0
M  V30 11607 H 1088.89 -4.23998 0.0116825 0
M  V30 11608 C 1087.35 -3.20088 -1.05096 0
M  V30 11609 O 1087.88 -3.40503 -2.1312 0
M  V30 11610 N 1086.08 -2.73844 -0.972523 0
M  V30 11611 H 1085.63 -2.57431 -0.0933459 0
M  V30 11612 H 1085.59 -2.56204 -1.82228 0
M  V30 11613 N 1089.36 -0.901303 -1.29284 0
M  V30 11614 C 1090.29 -0.396909 -2.30102 0
M  V30 11615 C 1091.27 0.528919 -1.61668 0
M  V30 11616 O 1092.46 0.439306 -1.89166 0
M  V30 11617 C 1089.59 0.375006 -3.45269 0
M  V30 11618 C 1088.54 -0.46054 -4.25515 0
M  V30 11619 C 1087.87 0.438967 -5.32895 0
M  V30 11620 C 1089.17 -1.7113 -4.93469 0
M  V30 11621 H 1090.86 -1.23943 -2.72541 0
M  V30 11622 H 1088.41 -0.597428 -1.31022 0
M  V30 11623 H 1090.36 0.738622 -4.14876 0
M  V30 11624 H 1089.08 1.25132 -3.01678 0
M  V30 11625 H 1087.74 -0.80651 -3.57618 0
M  V30 11626 H 1087.39 1.31346 -4.85548 0
M  V30 11627 H 1087.09 -0.116406 -5.87485 0
M  V30 11628 H 1088.61 0.79874 -6.05353 0
M  V30 11629 H 1090.03 -1.41732 -5.55504 0
M  V30 11630 H 1088.42 -2.20811 -5.57999 0
M  V30 11631 H 1089.49 -2.44636 -4.18666 0
M  V30 11632 N 1090.84 1.42931 -0.663954 0
M  V30 11633 C 1092.09 2.01284 -0.181379 0
M  V30 11634 C 1092.41 1.52708 1.21265 0
M  V30 11635 O 1091.68 0.744181 1.81215 0
M  V30 11636 H 1090.26 0.744248 -0.0640646 0
M  V30 11637 H 1092.92 1.74997 -0.858031 0
M  V30 11638 H 1092.01 3.11613 -0.174273 0
M  V30 11639 N 1092.32 0.406567 1.52266 0
M  V30 11640 C 1093.56 -0.170305 2.02084 0
M  V30 11641 C 1093.89 -1.45008 1.29176 0
M  V30 11642 O 1093.17 -1.90399 0.39731 0
M  V30 11643 C 1093.45 -0.420627 3.57635 0
M  V30 11644 C 1093.31 0.87564 4.41194 0
M  V30 11645 C 1094.62 -1.20387 4.23314 0
M  V30 11646 H 1091.74 -0.0604219 0.734519 0
M  V30 11647 H 1094.39 0.539529 1.82179 0
M  V30 11648 H 1092.54 -1.0253 3.74726 0
M  V30 11649 H 1094.21 1.51192 4.35819 0
M  V30 11650 H 1092.45 1.48718 4.07511 0
M  V30 11651 H 1093.12 0.654916 5.48101 0
M  V30 11652 H 1095.6 -0.691972 4.10306 0
M  V30 11653 H 1094.47 -1.34776 5.32096 0
M  V30 11654 H 1094.73 -2.2238 3.82099 0
M  V30 11655 N 1093.79 -1.57004 0.136909 0
M  V30 11656 C 1095.04 -1.96087 -0.517477 0
M  V30 11657 C 1095.37 -1.0213 -1.65176 0
M  V30 11658 O 1094.65 -0.0617958 -1.94402 0
M  V30 11659 C 1094.93 -3.44958 -1.03323 0
M  V30 11660 C 1094.78 -4.49691 0.0988609 0
M  V30 11661 C 1096.1 -3.96091 -1.91832 0
M  V30 11662 H 1093.22 -0.712978 -0.186632 0
M  V30 11663 H 1095.86 -1.88767 0.216095 0
M  V30 11664 H 1094.01 -3.51327 -1.65836 0
M  V30 11665 H 1095.69 -4.55409 0.734847 0
M  V30 11666 H 1093.93 -4.271 0.75947 0
M  V30 11667 H 1094.6 -5.51165 -0.303554 0
M  V30 11668 H 1097.08 -3.92139 -1.39164 0
M  V30 11669 H 1095.95 -5.00742 -2.24831 0
M  V30 11670 H 1096.21 -3.37846 -2.85153 0
M  V30 11671 N 1095.27 0.136881 -1.57004 0
M  V30 11672 C 1096.5 0.862436 -1.88068 0
M  V30 11673 C 1096.92 1.74274 -0.726227 0
M  V30 11674 O 1096.27 1.79956 0.30366 0
M  V30 11675 C 1096.32 1.71076 -3.18458 0
M  V30 11676 O 1096.04 0.865918 -4.29457 0
M  V30 11677 C 1097.55 2.54302 -3.63105 0
M  V30 11678 H 1094.77 0.248865 -0.623143 0
M  V30 11679 H 1097.31 0.126633 -2.04108 0
M  V30 11680 H 1095.46 2.39951 -3.04142 0
M  V30 11681 H 1095.88 1.4493 -5.04079 0
M  V30 11682 H 1097.35 3.09384 -4.57149 0
M  V30 11683 H 1097.83 3.3082 -2.88886 0
M  V30 11684 H 1098.44 1.907 -3.80149 0
M  V30 11685 N 1096.75 1.52266 0.40654 0
M  V30 11686 C 1098.16 1.58587 0.985241 0
M  V30 11687 C 1098.51 0.427955 1.91476 0
M  V30 11688 O 1097.64 -0.451341 2.11641 0
M  V30 11689 C 1098.23 2.87426 1.79365 0
M  V30 11690 C 1096.79 2.96217 2.32233 0
M  V30 11691 C 1095.94 2.53548 1.12288 0
M  V30 11692 H 1098.89 1.57598 0.186685 0
M  V30 11693 H 1098.91 2.72925 2.65127 0
M  V30 11694 H 1098.42 3.71682 1.11687 0
M  V30 11695 H 1096.52 2.1646 3.03275 0
M  V30 11696 H 1096.64 4.00511 2.62922 0
M  V30 11697 H 1095 2.07457 1.47763 0
M  V30 11698 H 1095.78 3.40181 0.461731 0
M  V30 11699 N 1098.23 -0.663929 1.42933 0
M  V30 11700 C 1099.16 -1.78899 1.50058 0
M  V30 11701 C 1100.14 -1.66329 0.356164 0
M  V30 11702 O 1101.32 -1.85587 0.571944 0
M  V30 11703 C 1098.45 -3.17265 1.41281 0
M  V30 11704 C 1097.41 -3.44584 2.53861 0
M  V30 11705 C 1096.73 -4.82638 2.3014 0
M  V30 11706 C 1098.03 -3.40394 3.96143 0
M  V30 11707 H 1099.73 -1.73194 2.44222 0
M  V30 11708 H 1097.27 -0.83182 1.17545 0
M  V30 11709 H 1099.23 -3.95715 1.44872 0
M  V30 11710 H 1097.95 -3.23675 0.43616 0
M  V30 11711 H 1096.61 -2.685 2.49606 0
M  V30 11712 H 1096.26 -4.85711 1.30743 0
M  V30 11713 H 1095.96 -5.01879 3.056 0
M  V30 11714 H 1097.48 -5.63359 2.35497 0
M  V30 11715 H 1098.9 -4.08796 4.01943 0
M  V30 11716 H 1097.29 -3.7117 4.71543 0
M  V30 11717 H 1098.36 -2.38767 4.22041 0
M  V30 11718 N 1099.71 -1.29285 -0.901281 0
M  V30 11719 C 1100.95 -1.16934 -1.64836 0
M  V30 11720 C 1101.28 0.279826 -1.92982 0
M  V30 11721 O 1100.55 1.19179 -1.55478 0
M  V30 11722 H 1099.13 -0.429768 -0.61099 0
M  V30 11723 H 1101.79 -1.62189 -1.08077 0
M  V30 11724 H 1100.88 -1.71821 -2.60545 0
M  V30 11725 N 1101.18 1.11143 -1.11736 0
M  V30 11726 C 1102.41 1.86474 -0.889435 0
M  V30 11727 C 1102.82 1.80584 0.564438 0
M  V30 11728 O 1102.17 1.18743 1.40163 0
M  V30 11729 C 1102.23 3.36066 -1.27671 0
M  V30 11730 C 1101.89 3.65721 -2.74038 0
M  V30 11731 C 1102.89 3.62941 -3.7225 0
M  V30 11732 C 1100.57 3.94629 -3.10762 0
M  V30 11733 C 1102.57 3.88651 -5.05202 0
M  V30 11734 C 1100.25 4.19997 -4.43899 0
M  V30 11735 C 1101.25 4.16996 -5.40928 0
M  V30 11736 O 1100.94 4.41724 -6.71666 0
M  V30 11737 H 1100.67 0.596438 -0.318178 0
M  V30 11738 H 1103.23 1.41465 -1.48918 0
M  V30 11739 H 1101.46 3.81695 -0.620124 0
M  V30 11740 H 1103.15 3.92769 -1.02409 0
M  V30 11741 H 1103.91 3.40655 -3.45223 0
M  V30 11742 H 1099.79 3.96099 -2.35853 0
M  V30 11743 H 1103.33 3.86224 -5.80927 0
M  V30 11744 H 1099.23 4.4176 -4.70657 0
M  V30 11745 H 1100 4.59276 -6.77501 0
M  V30 11746 N 1102.66 0.908147 1.28804 0
M  V30 11747 C 1103.61 0.382315 2.29437 0
M  V30 11748 C 1104.6 -0.523033 1.61123 0
M  V30 11749 O 1105.81 -0.404898 1.75387 0
M  V30 11750 H 1102.19 0.105022 0.74463 0
M  V30 11751 H 1104.16 1.24425 2.71221 0
M  V30 11752 C 1102.91 -0.367475 3.45753 0
M  V30 11753 H 1102.23 0.319957 3.98518 0
M  V30 11754 H 1103.67 -0.700131 4.1818 0
M  V30 11755 C 1102.13 -1.57329 2.97908 0
M  V30 11756 O 1102.66 -2.67248 2.99902 0
M  V30 11757 N 1100.86 -1.41835 2.53636 0
M  V30 11758 H 1100.41 -0.524099 2.52212 0
M  V30 11759 H 1100.37 -2.22645 2.21984 0
M  V30 11760 N 1104.14 -1.42577 0.671525 0
M  V30 11761 C 1105.39 -2.01185 0.192051 0
M  V30 11762 C 1105.71 -1.53349 -1.20454 0
M  V30 11763 O 1104.98 -0.753781 -1.80817 0
M  V30 11764 H 1103.56 -0.743898 0.0680106 0
M  V30 11765 H 1106.22 -1.74539 0.8673 0
M  V30 11766 H 1105.32 -3.11516 0.190796 0
M  V30 11767 N 1105.62 -0.414636 -1.52048 0
M  V30 11768 C 1106.55 0.399119 -2.30064 0
M  V30 11769 C 1107.53 1.04126 -1.34506 0
M  V30 11770 O 1108.71 1.04923 -1.63416 0
M  V30 11771 C 1105.84 1.51305 -3.12608 0
M  V30 11772 C 1104.8 0.995621 -4.16259 0
M  V30 11773 C 1104.12 2.20357 -4.87183 0
M  V30 11774 C 1105.42 0.0458178 -5.2228 0
M  V30 11775 H 1107.12 -0.251879 -2.98339 0
M  V30 11776 H 1104.66 -0.122579 -1.43477 0
M  V30 11777 H 1106.62 2.08936 -3.65956 0
M  V30 11778 H 1105.34 2.19201 -2.42113 0
M  V30 11779 H 1104 0.441676 -3.6393 0
M  V30 11780 H 1103.65 2.8682 -4.13211 0
M  V30 11781 H 1103.35 1.86385 -5.57256 0
M  V30 11782 H 1104.87 2.78584 -5.43345 0
M  V30 11783 H 1106.29 0.531102 -5.70835 0
M  V30 11784 H 1104.68 -0.20536 -5.99749 0
M  V30 11785 H 1105.75 -0.897807 -4.76516 0
M  V30 11786 N 1107.1 1.56929 -0.145233 0
M  V30 11787 C 1108.03 2.19685 0.791263 0
M  V30 11788 C 1109.01 1.14455 1.25833 0
M  V30 11789 O 1110.19 1.42791 1.31622 0
M  V30 11790 C 1107.32 2.81705 2.03124 0
M  V30 11791 C 1106.28 3.92746 1.70101 0
M  V30 11792 C 1105.6 4.41694 3.01347 0
M  V30 11793 C 1106.9 5.13606 0.949025 0
M  V30 11794 H 1108.6 2.98196 0.26825 0
M  V30 11795 H 1106.14 1.43434 0.127584 0
M  V30 11796 H 1108.1 3.24273 2.69119 0
M  V30 11797 H 1106.82 2.00523 2.57795 0
M  V30 11798 H 1105.48 3.50794 1.06486 0
M  V30 11799 H 1105.13 3.57336 3.54006 0
M  V30 11800 H 1104.83 5.1659 2.80016 0
M  V30 11801 H 1106.35 4.86931 3.68416 0
M  V30 11802 H 1107.76 5.53029 1.51102 0
M  V30 11803 H 1106.16 5.94252 0.835711 0
M  V30 11804 H 1107.23 4.84863 -0.0595631 0
M  V30 11805 N 1108.58 -0.128553 1.57075 0
M  V30 11806 C 1109.82 -0.836536 1.83535 0
M  V30 11807 C 1110.14 -1.81491 0.7294 0
M  V30 11808 O 1111.34 -2.56838 0.880128 0
M  V30 11809 C 1109.8 -1.53836 3.25365 0
M  V30 11810 C 1109.41 -0.601454 4.43944 0
M  V30 11811 C 1111.15 -2.23204 3.61082 0
M  V30 11812 C 1109.06 -1.30596 5.768 0
M  V30 11813 H 1107.99 -0.316142 0.684522 0
M  V30 11814 H 1110.64 -0.0892555 1.83283 0
M  V30 11815 H 1109.02 -2.33192 3.20058 0
M  V30 11816 H 1110.2 0.158209 4.60528 0
M  V30 11817 H 1108.51 -0.0152393 4.16397 0
M  V30 11818 H 1111.11 -2.76585 4.57608 0
M  V30 11819 H 1111.45 -3.0056 2.88044 0
M  V30 11820 H 1111.98 -1.50746 3.68131 0
M  V30 11821 H 1108.72 -0.573874 6.52983 0
M  V30 11822 H 1108.24 -2.03787 5.6412 0
M  V30 11823 H 1109.92 -1.8418 6.20231 0
M  V30 11824 N 1110.05 -1.5248 -0.398459 0
M  V30 11825 C 1110.98 -1.79549 -1.49279 0
M  V30 11826 C 1111.96 -0.647004 -1.57315 0
M  V30 11827 O 1113.15 -0.893661 -1.72416 0
M  V30 11828 C 1110.28 -1.95582 -2.86993 0
M  V30 11829 C 1109.23 -3.1123 -2.93803 0
M  V30 11830 C 1108.56 -3.12501 -4.33874 0
M  V30 11831 C 1109.86 -4.50485 -2.64312 0
M  V30 11832 H 1111.55 -2.71187 -1.26877 0
M  V30 11833 H 1109.1 -1.30492 -0.608924 0
M  V30 11834 H 1111.05 -2.13102 -3.63546 0
M  V30 11835 H 1109.78 -1.00625 -3.10712 0
M  V30 11836 H 1108.44 -2.93477 -2.19697 0
M  V30 11837 H 1108.08 -2.15245 -4.54619 0
M  V30 11838 H 1107.78 -3.90183 -4.39353 0
M  V30 11839 H 1109.31 -3.32164 -5.12347 0
M  V30 11840 H 1110.72 -4.68387 -3.30585 0
M  V30 11841 H 1109.12 -5.30163 -2.81153 0
M  V30 11842 H 1110.19 -4.57848 -1.59696 0
M  V30 11843 N 1111.53 0.65634 -1.43283 0
M  V30 11844 C 1112.76 1.44906 -1.48382 0
M  V30 11845 C 1113.18 1.87823 -0.101993 0
M  V30 11846 O 1112.54 1.57178 0.903597 0
M  V30 11847 C 1112.59 2.66231 -2.43215 0
M  V30 11848 O 1111.69 3.65176 -1.91625 0
M  V30 11849 H 1111.03 0.434601 -0.502014 0
M  V30 11850 H 1113.56 0.803429 -1.88165 0
M  V30 11851 H 1113.57 3.14083 -2.60414 0
M  V30 11852 H 1112.25 2.34336 -3.43598 0
M  V30 11853 H 1110.82 3.24302 -1.84072 0
M  V30 11854 N 1113.01 1.29761 0.894412 0
M  V30 11855 C 1114.25 1.19313 1.65963 0
M  V30 11856 C 1114.61 -0.25022 1.90363 0
M  V30 11857 O 1115.81 -0.477779 2.6452 0
M  V30 11858 C 1114.09 1.98934 2.96917 0
M  V30 11859 S 1115.64 2.05079 3.87928 0
M  V30 11860 H 1112.46 0.42535 0.569735 0
M  V30 11861 H 1115.06 1.64116 1.06236 0
M  V30 11862 H 1113.77 3.02932 2.76876 0
M  V30 11863 H 1113.3 1.54756 3.61682 0
M  V30 11864 H 1115.31 1.17131 4.82177 0
M  V30 11865 N 1114.49 -1.10549 1.12324 0
M  V30 11866 C 1115.72 -1.8627 0.900618 0
M  V30 11867 C 1116.13 -1.80609 -0.550069 0
M  V30 11868 O 1115.49 -1.19396 -1.38025 0
M  V30 11869 C 1115.54 -3.34716 1.36556 0
M  V30 11870 O 1115.26 -3.40279 2.75938 0
M  V30 11871 C 1116.76 -4.27315 1.17969 0
M  V30 11872 H 1113.98 -0.588741 0.321908 0
M  V30 11873 H 1116.52 -1.39759 1.49291 0
M  V30 11874 H 1114.68 -3.78697 0.81652 0
M  V30 11875 H 1115.09 -4.32781 2.96312 0
M  V30 11876 H 1116.57 -5.29677 1.55391 0
M  V30 11877 H 1117.04 -4.39036 0.120158 0
M  V30 11878 H 1117.65 -3.89137 1.71617 0
M  V30 11879 N 1115.97 -0.914965 -1.28321 0
M  V30 11880 C 1117.21 -0.548749 -1.94923 0
M  V30 11881 C 1117.54 0.907776 -1.72016 0
M  V30 11882 O 1116.8 1.66097 -1.03491 0
M  V30 11883 C 1117.09 -0.805805 -3.48198 0
M  V30 11884 C 1116.76 -2.24207 -3.91206 0
M  V30 11885 C 1115.42 -2.63475 -4.02659 0
M  V30 11886 C 1117.77 -3.17667 -4.13204 0
M  V30 11887 C 1115.1 -3.95353 -4.3349 0
M  V30 11888 C 1117.45 -4.4911 -4.45514 0
M  V30 11889 C 1116.12 -4.8823 -4.55179 0
M  V30 11890 H 1115.39 -0.200801 -0.713274 0
M  V30 11891 H 1118.04 -1.15652 -1.52633 0
M  V30 11892 H 1116.34 -0.115244 -3.9163 0
M  V30 11893 H 1118.04 -0.501609 -3.9785 0
M  V30 11894 H 1114.63 -1.92737 -3.82819 0
M  V30 11895 H 1118.81 -2.88537 -4.03807 0
M  V30 11896 H 1114.07 -4.25362 -4.39178 0
M  V30 11897 H 1118.24 -5.21542 -4.61483 0
M  V30 11898 H 1115.87 -5.90451 -4.78823 0
M  V30 11899 N 1117.44 1.42219 -0.679077 0
M  V30 11900 C 1118.67 2.05516 -0.211342 0
M  V30 11901 C 1119.08 1.5113 1.13826 0
M  V30 11902 O 1118.42 0.647593 1.71907 0
M  V30 11903 C 1118.49 3.59425 -0.0736007 0
M  V30 11904 C 1118.15 4.36525 -1.3526 0
M  V30 11905 C 1119.15 4.66897 -2.28698 0
M  V30 11906 C 1116.83 4.76089 -1.60139 0
M  V30 11907 C 1118.83 5.35775 -3.45288 0
M  V30 11908 C 1116.51 5.44706 -2.77017 0
M  V30 11909 C 1117.51 5.74474 -3.69416 0
M  V30 11910 O 1117.2 6.41683 -4.8425 0
M  V30 11911 H 1116.93 0.668662 -0.0993318 0
M  V30 11912 H 1119.49 1.8327 -0.927434 0
M  V30 11913 H 1117.72 3.80346 0.69811 0
M  V30 11914 H 1119.4 4.04346 0.354813 0
M  V30 11915 H 1120.17 4.36828 -2.10729 0
M  V30 11916 H 1116.05 4.5231 -0.890887 0
M  V30 11917 H 1119.59 5.58927 -4.17428 0
M  V30 11918 H 1115.49 5.74194 -2.9491 0
M  V30 11919 H 1116.26 6.60175 -4.8385 0
M  V30 11920 N 1118.92 0.422693 1.51826 0
M  V30 11921 C 1119.88 -0.384307 2.25955 0
M  V30 11922 C 1120.88 -0.962184 1.28836 0
M  V30 11923 O 1122.07 -0.838931 1.52668 0
M  V30 11924 C 1119.21 -1.54228 3.04018 0
M  V30 11925 H 1120.4 0.265157 2.98726 0
M  V30 11926 H 1117.95 0.175515 1.55311 0
M  V30 11927 H 1118.69 -2.22822 2.35629 0
M  V30 11928 H 1118.47 -1.13425 3.75336 0
M  V30 11929 H 1119.96 -2.1128 3.60209 0
M  V30 11930 N 1120.4 -1.5685 0.153553 0
M  V30 11931 C 1121.65 -1.96334 -0.495915 0
M  V30 11932 C 1121.97 -1.03873 -1.64441 0
M  V30 11933 O 1121.23 -0.069231 -1.95578 0
M  V30 11934 C 1121.53 -3.42022 -1.0371 0
M  V30 11935 C 1121.19 -4.509 -0.00637049 0
M  V30 11936 C 1119.86 -4.80402 0.276956 0
M  V30 11937 C 1122.21 -5.16556 0.694187 0
M  V30 11938 C 1119.54 -5.72866 1.26653 0
M  V30 11939 C 1121.89 -6.10087 1.67263 0
M  V30 11940 C 1120.55 -6.37965 1.96359 0
M  V30 11941 H 1119.82 -0.718436 -0.181468 0
M  V30 11942 H 1122.47 -1.89968 0.241768 0
M  V30 11943 H 1120.77 -3.45252 -1.85225 0
M  V30 11944 H 1122.47 -3.69903 -1.54831 0
M  V30 11945 H 1119.06 -4.27942 -0.237378 0
M  V30 11946 H 1123.25 -4.9389 0.488496 0
M  V30 11947 H 1118.5 -5.92756 1.49833 0
M  V30 11948 H 1122.68 -6.60036 2.22094 0
M  V30 11949 H 1120.3 -7.09416 2.73189 0
M  V30 11950 N 1121.88 0.120221 -1.57141 0
M  V30 11951 C 1122.82 1.14751 -2.00252 0
M  V30 11952 C 1123.79 1.41217 -0.874462 0
M  V30 11953 O 1124.98 1.53104 -1.13859 0
M  V30 11954 C 1122.12 2.46923 -2.41087 0
M  V30 11955 C 1121.23 2.27403 -3.67303 0
M  V30 11956 C 1120.37 3.52797 -3.97125 0
M  V30 11957 C 1119.41 3.28429 -5.16528 0
M  V30 11958 N 1118.54 4.46022 -5.42226 0
M  V30 11959 H 1123.38 0.772884 -2.87803 0
M  V30 11960 H 1120.92 0.370137 -1.42367 0
M  V30 11961 H 1122.88 3.24025 -2.62799 0
M  V30 11962 H 1121.51 2.82281 -1.5658 0
M  V30 11963 H 1120.56 1.41224 -3.53214 0
M  V30 11964 H 1121.87 2.05373 -4.54558 0
M  V30 11965 H 1121.03 4.38318 -4.19479 0
M  V30 11966 H 1119.77 3.77857 -3.08343 0
M  V30 11967 H 1118.77 2.41299 -4.94019 0
M  V30 11968 H 1120 3.0474 -6.06886 0
M  V30 11969 H 1117.94 4.71205 -4.56401 0
M  V30 11970 H 1117.86 4.27092 -6.23802 0
M  V30 11971 H 1119.13 5.3268 -5.69098 0
M  V30 11972 N 1123.36 1.52689 0.390367 0
M  V30 11973 C 1124.58 1.71541 1.15678 0
M  V30 11974 C 1125 0.433171 1.83764 0
M  V30 11975 O 1124.36 -0.592248 1.72623 0
M  V30 11976 C 1124.41 2.864 2.20584 0
M  V30 11977 O 1124.13 4.0966 1.55274 0
M  V30 11978 C 1125.63 3.1692 3.09962 0
M  V30 11979 H 1122.85 0.574381 0.346883 0
M  V30 11980 H 1125.39 1.99332 0.456851 0
M  V30 11981 H 1123.55 2.61075 2.86214 0
M  V30 11982 H 1123.96 4.73802 2.2497 0
M  V30 11983 H 1125.44 4.00755 3.79604 0
M  V30 11984 H 1125.91 2.31245 3.73393 0
M  V30 11985 H 1126.52 3.4408 2.49979 0
M  V30 11986 N 1124.83 -0.648732 1.43629 0
M  V30 11987 C 1126.25 -0.964917 1.27128 0
M  V30 11988 C 1126.45 -2.00561 0.194251 0
M  V30 11989 O 1125.51 -2.48884 -0.42581 0
M  V30 11990 C 1126.82 -1.44491 2.6371 0
M  V30 11991 C 1128.37 -1.56133 2.71278 0
M  V30 11992 C 1128.84 -2.07521 4.08288 0
M  V30 11993 N 1130.33 -2.14817 4.10375 0
M  V30 11994 C 1131.07 -2.55712 5.13224 0
M  V30 11995 N 1130.56 -2.9587 6.26444 0
M  V30 11996 N 1132.36 -2.55691 5.00578 0
M  V30 11997 H 1124.51 0.0398357 2.12363 0
M  V30 11998 H 1126.77 -0.0447705 0.946942 0
M  V30 11999 H 1126.48 -0.754616 3.43509 0
M  V30 12000 H 1126.35 -2.41914 2.89409 0
M  V30 12001 H 1128.74 -2.24263 1.91808 0
M  V30 12002 H 1128.82 -0.571314 2.49338 0
M  V30 12003 H 1128.46 -1.39992 4.88226 0
M  V30 12004 H 1128.39 -3.07362 4.27594 0
M  V30 12005 H 1130.88 -1.86538 3.28652 0
M  V30 12006 H 1131.2 -3.25837 7.0075 0
M  V30 12007 H 1129.54 -2.93664 6.2991 0
M  V30 12008 H 1132.73 -2.23697 4.1119 0
M  V30 12009 H 1132.91 -2.87239 5.80859 0
M  V30 12010 N 1126.31 -1.30234 -0.887518 0
M  V30 12011 C 1127.26 -1.16302 -2.01436 0
M  V30 12012 C 1128.25 -0.0755422 -1.69231 0
M  V30 12013 O 1129.46 -0.236213 -1.78443 0
M  V30 12014 H 1125.84 -0.35961 -0.660443 0
M  V30 12015 H 1127.81 -2.11677 -2.10322 0
M  V30 12016 C 1126.56 -0.869009 -3.36665 0
M  V30 12017 H 1125.88 -1.69787 -3.61956 0
M  V30 12018 H 1127.32 -0.811621 -4.16159 0
M  V30 12019 C 1125.78 0.428021 -3.3417 0
M  V30 12020 O 1126.31 1.45033 -3.74604 0
M  V30 12021 N 1124.51 0.438264 -2.87276 0
M  V30 12022 H 1124.06 -0.394142 -2.54567 0
M  V30 12023 H 1124.02 1.30604 -2.85989 0
M  V30 12024 N 1127.79 1.09952 -1.12909 0
M  V30 12025 C 1129.04 1.82286 -0.888797 0
M  V30 12026 C 1129.37 1.85218 0.58379 0
M  V30 12027 O 1128.64 1.31645 1.43177 0
M  V30 12028 C 1128.93 3.28706 -1.47053 0
M  V30 12029 C 1128.78 3.34078 -3.01184 0
M  V30 12030 C 1130.1 4.25233 -1.13424 0
M  V30 12031 H 1127.22 0.661803 -0.324324 0
M  V30 12032 H 1129.86 1.28833 -1.3965 0
M  V30 12033 H 1128.01 3.74356 -1.03874 0
M  V30 12034 H 1129.68 2.96871 -3.5308 0
M  V30 12035 H 1127.93 2.73825 -3.36455 0
M  V30 12036 H 1128.6 4.37202 -3.36984 0
M  V30 12037 H 1131.07 3.87841 -1.50726 0
M  V30 12038 H 1129.95 5.26033 -1.56783 0
M  V30 12039 H 1130.21 4.42075 -0.0471496 0
M  V30 12040 N 1129.27 0.921757 1.27833 0
M  V30 12041 C 1130.68 0.604496 1.76643 0
M  V30 12042 C 1131.03 -0.880294 1.75343 0
M  V30 12043 O 1130.16 -1.68875 1.35315 0
M  V30 12044 C 1130.75 1.09055 3.20768 0
M  V30 12045 C 1129.31 0.824066 3.67268 0
M  V30 12046 C 1128.46 1.25269 2.47392 0
M  V30 12047 H 1131.41 1.10217 1.14184 0
M  V30 12048 H 1131.43 0.435558 3.77999 0
M  V30 12049 H 1130.94 2.17122 3.21682 0
M  V30 12050 H 1129.04 -0.243055 3.71806 0
M  V30 12051 H 1129.15 1.43743 4.57028 0
M  V30 12052 H 1127.52 0.671313 2.45694 0
M  V30 12053 H 1128.3 2.34188 2.5102 0
M  V30 12054 N 1130.75 -1.41857 0.686609 0
M  V30 12055 C 1131.71 -2.29187 0.0247022 0
M  V30 12056 C 1132.71 -1.43926 -0.717069 0
M  V30 12057 O 1133.9 -1.65179 -0.5533 0
M  V30 12058 C 1131.03 -3.26644 -0.975537 0
M  V30 12059 H 1132.22 -2.89212 0.793503 0
M  V30 12060 H 1129.78 -1.49694 0.449605 0
M  V30 12061 H 1130.51 -2.7158 -1.77242 0
M  V30 12062 H 1130.3 -3.89545 -0.446892 0
M  V30 12063 H 1131.79 -3.92107 -1.43673 0
M  V30 12064 N 1132.22 -0.430739 -1.51599 0
M  V30 12065 C 1133.17 0.398482 -2.29161 0
M  V30 12066 C 1134.17 1.02676 -1.34737 0
M  V30 12067 O 1135.37 0.96248 -1.52106 0
M  V30 12068 H 1131.75 0.14731 -0.737431 0
M  V30 12069 H 1133.72 -0.276619 -2.97115 0
M  V30 12070 C 1132.47 1.49094 -3.14112 0
M  V30 12071 H 1131.79 1.01685 -3.86652 0
M  V30 12072 H 1133.23 2.04453 -3.7145 0
M  V30 12073 C 1131.69 2.47049 -2.29059 0
M  V30 12074 O 1132.22 3.51435 -1.94567 0
M  V30 12075 N 1130.43 2.17778 -1.92409 0
M  V30 12076 H 1129.97 1.3292 -2.20658 0
M  V30 12077 H 1129.93 2.8356 -1.35798 0
M  V30 12078 N 1133.7 1.56767 -0.161869 0
M  V30 12079 C 1134.95 1.96594 0.485496 0
M  V30 12080 C 1135.28 1.04743 1.63887 0
M  V30 12081 O 1134.53 0.079602 1.95538 0
M  V30 12082 C 1134.83 3.42567 1.01894 0
M  V30 12083 C 1134.5 4.50897 -0.0175419 0
M  V30 12084 C 1133.16 4.80249 -0.302429 0
M  V30 12085 C 1135.51 5.16181 -0.721572 0
M  V30 12086 C 1132.84 5.72187 -1.2969 0
M  V30 12087 C 1135.19 6.09191 -1.70496 0
M  V30 12088 C 1133.86 6.36915 -1.99739 0
M  V30 12089 H 1133.13 0.719388 0.177656 0
M  V30 12090 H 1135.77 1.89837 -0.251839 0
M  V30 12091 H 1134.08 3.4623 1.83391 0
M  V30 12092 H 1135.77 3.70719 1.52867 0
M  V30 12093 H 1132.36 4.28062 0.21468 0
M  V30 12094 H 1136.55 4.93624 -0.514681 0
M  V30 12095 H 1131.8 5.91953 -1.52974 0
M  V30 12096 H 1135.98 6.58849 -2.25591 0
M  V30 12097 H 1133.61 7.07958 -2.76948 0
M  V30 12098 N 1135.18 -0.111886 1.57202 0
M  V30 12099 C 1136.13 -1.15585 2.01849 0
M  V30 12100 C 1137.12 -1.42458 0.916621 0
M  V30 12101 O 1138.33 -1.42337 1.10182 0
M  V30 12102 H 1134.7 -0.389885 0.643035 0
M  V30 12103 H 1136.67 -0.752854 2.88747 0
M  V30 12104 C 1135.42 -2.47247 2.44467 0
M  V30 12105 H 1134.75 -2.27409 3.28824 0
M  V30 12106 H 1136.19 -3.18837 2.79497 0
M  V30 12107 C 1134.65 -3.10339 1.31115 0
M  V30 12108 O 1135.18 -3.96713 0.631029 0
M  V30 12109 N 1133.38 -2.70326 1.0664 0
M  V30 12110 H 1132.93 -2.00182 1.62126 0
M  V30 12111 H 1132.89 -3.12869 0.309944 0
M  V30 12112 N 1136.66 -1.52894 -0.382264 0
M  V30 12113 C 1137.57 -1.81084 -1.4915 0
M  V30 12114 C 1138.58 -0.698045 -1.59384 0
M  V30 12115 O 1139.76 -0.98635 -1.75594 0
M  V30 12116 C 1136.83 -1.97987 -2.84608 0
M  V30 12117 C 1135.89 -3.219 -2.8404 0
M  V30 12118 C 1135.12 -3.37988 -4.13037 0
M  V30 12119 O 1135.34 -2.58733 -5.08344 0
M  V30 12120 O 1134.28 -4.31273 -4.19866 0
M  V30 12121 H 1138.1 -2.75289 -1.28257 0
M  V30 12122 H 1135.69 -1.38068 -0.57076 0
M  V30 12123 H 1137.57 -2.10773 -3.64901 0
M  V30 12124 H 1136.24 -1.06972 -3.05514 0
M  V30 12125 H 1135.15 -3.14551 -2.02505 0
M  V30 12126 H 1136.48 -4.12783 -2.68087 0
M  V30 12127 N 1138.14 0.641106 -1.43971 0
M  V30 12128 C 1139.1 1.73539 -1.49723 0
M  V30 12129 C 1140.1 1.56235 -0.380438 0
M  V30 12130 O 1141.29 1.61912 -0.642673 0
M  V30 12131 C 1138.42 3.1253 -1.36153 0
M  V30 12132 H 1139.62 1.69816 -2.47189 0
M  V30 12133 H 1137.17 0.853867 -1.30915 0
M  V30 12134 H 1137.9 3.21856 -0.39742 0
M  V30 12135 H 1137.69 3.26496 -2.17124 0
M  V30 12136 H 1139.18 3.92303 -1.43138 0
M  V30 12137 N 1139.62 1.30703 0.880598 0
M  V30 12138 C 1140.56 1.17455 1.98678 0
M  V30 12139 C 1141.53 0.0629569 1.65981 0
M  V30 12140 O 1142.72 0.233926 1.89361 0
M  V30 12141 C 1139.86 0.876882 3.33774 0
M  V30 12142 C 1138.97 2.07078 3.79134 0
M  V30 12143 C 1138.11 1.71082 5.02896 0
M  V30 12144 C 1137.14 2.86942 5.40676 0
M  V30 12145 N 1136.28 2.51212 6.55619 0
M  V30 12146 H 1141.12 2.12086 2.09341 0
M  V30 12147 H 1138.66 1.05514 1.02495 0
M  V30 12148 H 1140.62 0.684899 4.1154 0
M  V30 12149 H 1139.25 -0.0325633 3.22784 0
M  V30 12150 H 1138.3 2.37388 2.97239 0
M  V30 12151 H 1139.61 2.9383 4.0307 0
M  V30 12152 H 1138.76 1.48284 5.883 0
M  V30 12153 H 1137.5 0.815064 4.80841 0
M  V30 12154 H 1136.51 3.10401 4.53797 0
M  V30 12155 H 1137.73 3.77211 5.64703 0
M  V30 12156 H 1135.68 1.64147 6.35131 0
M  V30 12157 H 1135.6 3.31495 6.79446 0
M  V30 12158 H 1136.86 2.31781 7.44243 0
M  V30 12159 N 1141.09 -1.09351 1.1349 0
M  V30 12160 C 1142.32 -1.85036 0.918989 0
M  V30 12161 C 1142.73 -1.8146 -0.535638 0
M  V30 12162 O 1142.07 -1.20958 -1.38256 0
M  V30 12163 C 1142.14 -3.33992 1.33001 0
M  V30 12164 C 1141.8 -3.61315 2.79822 0
M  V30 12165 C 1142.8 -3.56973 3.77976 0
M  V30 12166 C 1140.48 -3.89636 3.17001 0
M  V30 12167 C 1142.48 -3.80564 5.11321 0
M  V30 12168 C 1140.16 -4.12882 4.50524 0
M  V30 12169 C 1141.16 -4.08338 5.47494 0
M  V30 12170 O 1140.85 -4.30983 6.78608 0
M  V30 12171 H 1140.58 -0.591301 0.327627 0
M  V30 12172 H 1143.14 -1.39078 1.5115 0
M  V30 12173 H 1141.37 -3.8066 0.68077 0
M  V30 12174 H 1143.05 -3.9109 1.08645 0
M  V30 12175 H 1143.82 -3.3512 3.50599 0
M  V30 12176 H 1139.7 -3.92297 2.42124 0
M  V30 12177 H 1143.24 -3.76933 5.86998 0
M  V30 12178 H 1139.14 -4.34216 4.77626 0
M  V30 12179 H 1139.91 -4.4844 6.84722 0
M  V30 12180 N 1142.57 -0.928524 -1.27343 0
M  V30 12181 C 1143.82 -0.565207 -1.93619 0
M  V30 12182 C 1144.13 0.897988 -1.73769 0
M  V30 12183 O 1145.34 1.37012 -2.34393 0
M  V30 12184 C 1143.8 -0.960052 -3.46859 0
M  V30 12185 C 1143.4 -2.44399 -3.75464 0
M  V30 12186 C 1145.15 -0.668026 -4.19211 0
M  V30 12187 C 1143.05 -2.77819 -5.22083 0
M  V30 12188 H 1141.98 -0.207665 -0.724839 0
M  V30 12189 H 1144.64 -1.12945 -1.44623 0
M  V30 12190 H 1143.02 -0.324454 -3.94669 0
M  V30 12191 H 1144.19 -3.12756 -3.38408 0
M  V30 12192 H 1142.51 -2.70799 -3.16317 0
M  V30 12193 H 1145.1 -0.894207 -5.2717 0
M  V30 12194 H 1145.45 0.394788 -4.14424 0
M  V30 12195 H 1145.98 -1.26276 -3.77226 0
M  V30 12196 H 1142.72 -3.83013 -5.3196 0
M  V30 12197 H 1142.24 -2.14112 -5.60282 0
M  V30 12198 H 1143.92 -2.65607 -5.89968 0
M  V30 12199 N 1144.05 1.41491 -0.694123 0
M  V30 12200 C 1145.01 2.2917 -0.0368562 0
M  V30 12201 C 1146.01 1.44305 0.709426 0
M  V30 12202 O 1147.2 1.6547 0.544533 0
M  V30 12203 C 1144.33 3.27156 0.958201 0
M  V30 12204 H 1145.53 2.88787 -0.808829 0
M  V30 12205 H 1143.08 1.49453 -0.457538 0
M  V30 12206 H 1143.82 2.72516 1.75799 0
M  V30 12207 H 1143.6 3.89776 0.426227 0
M  V30 12208 H 1145.09 3.92863 1.41592 0
M  V30 12209 N 1145.53 0.438773 1.51369 0
M  V30 12210 C 1146.77 -0.127213 2.021 0
M  V30 12211 C 1147.1 -1.42587 1.32284 0
M  V30 12212 O 1146.36 -1.90986 0.426949 0
M  V30 12213 C 1146.66 -0.39186 3.55245 0
M  V30 12214 C 1146.32 0.821158 4.4336 0
M  V30 12215 C 1144.98 1.15381 4.67162 0
M  V30 12216 C 1147.34 1.6303 4.95046 0
M  V30 12217 C 1144.66 2.29626 5.39897 0
M  V30 12218 C 1147.02 2.76376 5.69033 0
M  V30 12219 C 1145.68 3.10094 5.91099 0
M  V30 12220 H 1144.95 -0.0465505 0.739536 0
M  V30 12221 H 1147.6 0.586261 1.82305 0
M  V30 12222 H 1145.9 -1.18724 3.73379 0
M  V30 12223 H 1147.6 -0.843228 3.92034 0
M  V30 12224 H 1144.19 0.551946 4.25031 0
M  V30 12225 H 1148.37 1.38651 4.76539 0
M  V30 12226 H 1143.63 2.56062 5.55196 0
M  V30 12227 H 1147.8 3.39442 6.08072 0
M  V30 12228 H 1145.43 3.98731 6.47238 0
M  V30 12229 N 1147.01 -1.56678 0.170181 0
M  V30 12230 C 1148.23 -2.01223 -0.481362 0
M  V30 12231 C 1148.65 -1.05039 -1.56883 0
M  V30 12232 O 1148.01 -0.0510751 -1.82429 0
M  V30 12233 C 1148.06 -3.45588 -1.06073 0
M  V30 12234 O 1147.78 -4.38097 -0.0166754 0
M  V30 12235 C 1149.28 -4.05527 -1.79061 0
M  V30 12236 H 1146.5 -0.659574 -0.1233 0
M  V30 12237 H 1149.04 -2.02689 0.271576 0
M  V30 12238 H 1147.2 -3.449 -1.76417 0
M  V30 12239 H 1147.61 -5.22615 -0.444276 0
M  V30 12240 H 1149.09 -5.08467 -2.1486 0
M  V30 12241 H 1149.56 -3.47554 -2.68519 0
M  V30 12242 H 1150.17 -4.09914 -1.13361 0
M  V30 12243 N 1148.48 0.103547 -1.57259 0
M  V30 12244 C 1149.42 1.15707 -1.9669 0
M  V30 12245 C 1150.39 1.39292 -0.838837 0
M  V30 12246 O 1151.58 1.53192 -1.09839 0
M  V30 12247 C 1148.71 2.50793 -2.27642 0
M  V30 12248 C 1147.75 2.43541 -3.50129 0
M  V30 12249 S 1148.58 1.86009 -5.02156 0
M  V30 12250 C 1149.74 3.22737 -5.36276 0
M  V30 12251 H 1149.97 0.820891 -2.85742 0
M  V30 12252 H 1147.51 0.310906 -1.51237 0
M  V30 12253 H 1149.46 3.28512 -2.46151 0
M  V30 12254 H 1148.13 2.81583 -1.39176 0
M  V30 12255 H 1147.32 3.43085 -3.692 0
M  V30 12256 H 1146.92 1.73948 -3.31086 0
M  V30 12257 H 1149.21 4.1899 -5.32404 0
M  V30 12258 H 1150.16 3.08477 -6.37375 0
M  V30 12259 H 1150.56 3.21878 -4.6374 0
M  V30 12260 N 1149.96 1.53094 0.37415 0
M  V30 12261 C 1151.19 1.72508 1.13687 0
M  V30 12262 C 1151.6 0.449922 1.83773 0
M  V30 12263 O 1150.94 -0.586391 1.74089 0
M  V30 12264 C 1151 2.82965 2.21746 0
M  V30 12265 C 1150.67 4.23599 1.71501 0
M  V30 12266 C 1151.67 5.06245 1.1837 0
M  V30 12267 C 1149.35 4.69978 1.77273 0
M  V30 12268 C 1151.34 6.33357 0.71679 0
M  V30 12269 C 1149.03 5.9707 1.30194 0
M  V30 12270 C 1150.03 6.7859 0.774856 0
M  V30 12271 O 1149.72 8.03298 0.310981 0
M  V30 12272 H 1149.45 0.580611 0.346218 0
M  V30 12273 H 1152 2.00596 0.441614 0
M  V30 12274 H 1150.23 2.5033 2.9474 0
M  V30 12275 H 1151.92 2.90638 2.83345 0
M  V30 12276 H 1152.69 4.71591 1.13256 0
M  V30 12277 H 1148.57 4.06605 2.17241 0
M  V30 12278 H 1152.11 6.96934 0.30471 0
M  V30 12279 H 1148.01 6.31225 1.34999 0
M  V30 12280 H 1148.78 8.17364 0.431098 0
M  V30 12281 N 1151.44 -0.633461 1.44309 0
M  V30 12282 C 1152.67 -1.42033 1.50447 0
M  V30 12283 C 1153.08 -1.88362 0.128585 0
M  V30 12284 O 1152.44 -1.60695 -0.865071 0
M  V30 12285 C 1152.49 -2.6422 2.46719 0
M  V30 12286 O 1152.21 -2.19823 3.78958 0
M  V30 12287 C 1153.71 -3.57372 2.62298 0
M  V30 12288 H 1150.93 -0.435667 0.510329 0
M  V30 12289 H 1153.48 -0.774907 1.8925 0
M  V30 12290 H 1151.63 -3.24859 2.11058 0
M  V30 12291 H 1152.05 -2.99022 4.30913 0
M  V30 12292 H 1153.52 -4.39719 3.33693 0
M  V30 12293 H 1154 -4.06026 1.67449 0
M  V30 12294 H 1154.6 -3.02603 2.9885 0
M  V30 12295 N 1152.92 -1.31168 -0.873655 0
M  V30 12296 C 1154.15 -1.23595 -1.65927 0
M  V30 12297 C 1154.56 0.199349 -1.87745 0
M  V30 12298 O 1153.92 1.13013 -1.43298 0
M  V30 12299 C 1153.97 -1.97268 -3.02932 0
M  V30 12300 O 1153.69 -3.35196 -2.82091 0
M  V30 12301 C 1155.19 -1.9649 -3.97374 0
M  V30 12302 H 1152.41 -0.427228 -0.517414 0
M  V30 12303 H 1154.96 -1.72983 -1.09074 0
M  V30 12304 H 1153.11 -1.51651 -3.56484 0
M  V30 12305 H 1153.52 -3.7266 -3.69087 0
M  V30 12306 H 1155 -2.52557 -4.90835 0
M  V30 12307 H 1155.48 -0.946525 -4.28879 0
M  V30 12308 H 1156.08 -2.4197 -3.49758 0
M  V30 12309 N 1154.4 1.08748 -1.14068 0
M  V30 12310 C 1155.64 1.82672 -0.917072 0
M  V30 12311 C 1156 1.84052 0.546688 0
M  V30 12312 O 1157.2 2.53704 0.888118 0
M  V30 12313 C 1155.47 3.24525 -1.49727 0
M  V30 12314 S 1157.03 4.15369 -1.41472 0
M  V30 12315 H 1153.85 0.629576 -0.330387 0
M  V30 12316 H 1156.45 1.3074 -1.45352 0
M  V30 12317 H 1155.16 3.21101 -2.55583 0
M  V30 12318 H 1154.69 3.8153 -0.959069 0
M  V30 12319 H 1156.7 4.94602 -0.39788 0
M  V30 12320 N 1155.87 0.935264 1.26849 0
M  V30 12321 C 1157.12 0.575467 1.93317 0
M  V30 12322 C 1157.44 -0.88876 1.74242 0
M  V30 12323 O 1158.64 -1.35767 2.35116 0
M  V30 12324 C 1157.1 0.978433 3.46345 0
M  V30 12325 C 1156.71 2.46386 3.74163 0
M  V30 12326 C 1158.45 0.690249 4.18851 0
M  V30 12327 C 1156.36 2.80584 5.20602 0
M  V30 12328 H 1155.29 0.211506 0.723727 0
M  V30 12329 H 1157.94 1.1371 1.44022 0
M  V30 12330 H 1156.32 0.345379 3.94491 0
M  V30 12331 H 1157.49 3.14547 3.36745 0
M  V30 12332 H 1155.81 2.72473 3.14877 0
M  V30 12333 H 1158.41 0.922151 5.26688 0
M  V30 12334 H 1158.75 -0.372805 4.14627 0
M  V30 12335 H 1159.28 1.28275 3.76551 0
M  V30 12336 H 1156.02 3.85828 5.29921 0
M  V30 12337 H 1155.54 2.1708 5.59139 0
M  V30 12338 H 1157.22 2.68732 5.88551 0
M  V30 12339 N 1157.35 -1.41121 0.701616 0
M  V30 12340 C 1158.6 -2.00359 0.232214 0
M  V30 12341 C 1158.91 -1.56231 -1.17691 0
M  V30 12342 O 1160.12 -2.08071 -1.74409 0
M  V30 12343 C 1158.58 -3.58052 0.364257 0
M  V30 12344 C 1158.18 -4.11158 1.77913 0
M  V30 12345 C 1159.93 -4.24476 -0.0450628 0
M  V30 12346 C 1157.84 -5.61306 1.8625 0
M  V30 12347 H 1156.77 -0.749411 0.0830609 0
M  V30 12348 H 1159.42 -1.61528 0.870689 0
M  V30 12349 H 1157.8 -3.94515 -0.342569 0
M  V30 12350 H 1158.97 -3.86101 2.5152 0
M  V30 12351 H 1157.29 -3.57282 2.13866 0
M  V30 12352 H 1159.88 -5.347 -0.00329209 0
M  V30 12353 H 1160.23 -4.01919 -1.08477 0
M  V30 12354 H 1160.76 -3.93069 0.611704 0
M  V30 12355 H 1157.5 -5.88699 2.88294 0
M  V30 12356 H 1157.02 -5.88271 1.17036 0
M  V30 12357 H 1158.7 -6.26179 1.62817 0
M  V30 12358 N 1158.83 -0.446794 -1.51134 0
M  V30 12359 C 1160.08 0.108888 -2.03108 0
M  V30 12360 C 1160.43 1.3956 -1.32442 0
M  V30 12361 O 1159.72 1.86631 -0.433515 0
M  V30 12362 C 1159.92 0.373015 -3.55448 0
M  V30 12363 C 1159.75 -0.886542 -4.40875 0
M  V30 12364 C 1158.52 -1.42283 -4.84854 0
M  V30 12365 C 1160.72 -1.77531 -4.82688 0
M  V30 12366 N 1158.7 -2.63394 -5.54524 0
M  V30 12367 C 1160.07 -2.83241 -5.5152 0
M  V30 12368 C 1162.12 -1.7886 -4.64665 0
M  V30 12369 C 1160.83 -3.90239 -6.0424 0
M  V30 12370 C 1162.85 -2.84798 -5.18309 0
M  V30 12371 C 1162.21 -3.89228 -5.87095 0
M  V30 12372 H 1158.31 0.000437421 -0.782 0
M  V30 12373 H 1160.9 -0.609578 -1.84911 0
M  V30 12374 H 1159.07 1.06052 -3.73641 0
M  V30 12375 H 1160.8 0.920889 -3.94083 0
M  V30 12376 H 1157.56 -0.975408 -4.63447 0
M  V30 12377 H 1157.98 -3.24833 -5.9398 0
M  V30 12378 H 1162.62 -0.994493 -4.10938 0
M  V30 12379 H 1160.34 -4.70482 -6.57018 0
M  V30 12380 H 1163.93 -2.8678 -5.0621 0
M  V30 12381 H 1162.81 -4.69854 -6.27859 0
M  V30 12382 N 1160.31 1.56586 -0.178487 0
M  V30 12383 C 1161.24 2.21313 0.744486 0
M  V30 12384 C 1162.22 1.17098 1.23377 0
M  V30 12385 O 1163.4 1.45551 1.28563 0
M  V30 12386 C 1160.53 2.8595 1.97103 0
M  V30 12387 C 1159.49 3.96266 1.61732 0
M  V30 12388 C 1158.81 4.47987 2.91911 0
M  V30 12389 C 1160.11 5.15503 0.839868 0
M  V30 12390 H 1161.81 2.98698 0.204938 0
M  V30 12391 H 1159.35 1.43672 0.0971306 0
M  V30 12392 H 1161.31 3.29909 2.6218 0
M  V30 12393 H 1160.03 2.05946 2.53484 0
M  V30 12394 H 1158.69 3.52974 0.990208 0
M  V30 12395 H 1158.34 3.64765 3.46346 0
M  V30 12396 H 1158.04 5.22413 2.68995 0
M  V30 12397 H 1159.56 4.94637 3.58004 0
M  V30 12398 H 1160.98 5.5611 1.39337 0
M  V30 12399 H 1159.37 5.95891 0.709473 0
M  V30 12400 H 1160.44 4.84628 -0.162396 0
M  V30 12401 N 1161.79 -0.095206 1.57312 0
M  V30 12402 C 1162.75 -1.09974 2.01093 0
M  V30 12403 C 1163.75 -1.32954 0.904424 0
M  V30 12404 O 1164.94 -1.29069 1.16991 0
M  V30 12405 C 1162.07 -2.4489 2.37153 0
M  V30 12406 H 1163.26 -0.722906 2.91057 0
M  V30 12407 H 1160.82 -0.340249 1.52552 0
M  V30 12408 H 1161.55 -2.8745 1.50143 0
M  V30 12409 H 1161.34 -2.29559 3.17876 0
M  V30 12410 H 1162.83 -3.17141 2.71683 0
M  V30 12411 N 1163.26 -1.53291 -0.366026 0
M  V30 12412 C 1164.51 -1.69451 -1.10872 0
M  V30 12413 C 1164.84 -0.446078 -1.89316 0
M  V30 12414 O 1164.09 0.571962 -1.87155 0
M  V30 12415 C 1164.39 -2.89547 -2.09517 0
M  V30 12416 C 1164.06 -4.26073 -1.47556 0
M  V30 12417 C 1162.72 -4.63199 -1.30386 0
M  V30 12418 C 1165.07 -5.10977 -1.02724 0
M  V30 12419 C 1162.4 -5.82866 -0.669666 0
M  V30 12420 C 1164.75 -6.31289 -0.407052 0
M  V30 12421 C 1163.42 -6.67128 -0.222839 0
M  V30 12422 H 1162.69 -0.620066 -0.405708 0
M  V30 12423 H 1165.33 -1.87475 -0.390563 0
M  V30 12424 H 1163.64 -2.66034 -2.87634 0
M  V30 12425 H 1165.34 -2.99245 -2.66933 0
M  V30 12426 H 1161.93 -3.9684 -1.61914 0
M  V30 12427 H 1166.11 -4.82844 -1.14783 0
M  V30 12428 H 1161.37 -6.09224 -0.515351 0
M  V30 12429 H 1165.54 -6.96381 -0.0514661 0
M  V30 12430 H 1163.17 -7.59718 0.270647 0
M  V30 12431 N 1164.74 0.6258 -1.44643 0
M  V30 12432 C 1165.99 1.3873 -1.47925 0
M  V30 12433 C 1166.32 1.93868 -0.113469 0
M  V30 12434 O 1165.6 1.73976 0.869639 0
M  V30 12435 C 1165.88 2.54867 -2.54391 0
M  V30 12436 C 1165.73 2.05044 -4.00346 0
M  V30 12437 C 1167.05 3.57043 -2.57309 0
M  V30 12438 H 1164.17 0.503087 -0.538584 0
M  V30 12439 H 1166.81 0.707102 -1.76352 0
M  V30 12440 H 1164.96 3.12894 -2.30281 0
M  V30 12441 H 1166.63 1.51807 -4.35606 0
M  V30 12442 H 1164.88 1.36185 -4.11869 0
M  V30 12443 H 1165.55 2.88681 -4.70497 0
M  V30 12444 H 1168.02 3.08826 -2.78865 0
M  V30 12445 H 1166.9 4.35818 -3.33698 0
M  V30 12446 H 1167.16 4.11464 -1.61708 0
M  V30 12447 N 1166.22 1.31629 0.866686 0
M  V30 12448 C 1167.63 1.19347 1.43573 0
M  V30 12449 C 1167.98 -0.198765 1.95191 0
M  V30 12450 O 1167.11 -1.09674 1.86549 0
M  V30 12451 C 1167.7 2.16055 2.6097 0
M  V30 12452 C 1166.26 2.07697 3.13909 0
M  V30 12453 C 1165.41 2.05099 1.86627 0
M  V30 12454 H 1168.36 1.43633 0.674929 0
M  V30 12455 H 1168.38 1.75207 3.37761 0
M  V30 12456 H 1167.89 3.17375 2.23371 0
M  V30 12457 H 1165.99 1.09583 3.56121 0
M  V30 12458 H 1166.11 2.96958 3.75969 0
M  V30 12459 H 1164.47 1.50162 2.05727 0
M  V30 12460 H 1165.25 3.0818 1.51261 0
M  V30 12461 N 1167.7 -1.08142 1.14644 0
M  V30 12462 C 1168.95 -1.79959 0.910908 0
M  V30 12463 C 1169.26 -1.87296 -0.563866 0
M  V30 12464 O 1170.47 -2.55555 -0.916735 0
M  V30 12465 C 1168.92 -3.23351 1.58025 0
M  V30 12466 C 1168.53 -3.2424 3.09148 0
M  V30 12467 C 1170.28 -3.99834 1.42595 0
M  V30 12468 C 1168.18 -4.62236 3.68906 0
M  V30 12469 H 1167.11 -0.674423 0.33715 0
M  V30 12470 H 1169.76 -1.21441 1.37566 0
M  V30 12471 H 1168.15 -3.82013 1.04318 0
M  V30 12472 H 1169.32 -2.75269 3.69545 0
M  V30 12473 H 1167.63 -2.61253 3.24246 0
M  V30 12474 H 1170.23 -5.01809 1.8464 0
M  V30 12475 H 1170.57 -4.14631 0.372402 0
M  V30 12476 H 1171.11 -3.47648 1.93354 0
M  V30 12477 H 1167.85 -4.52642 4.74126 0
M  V30 12478 H 1167.37 -5.11477 3.1329 0
M  V30 12479 H 1169.05 -5.3121 3.69358 0
M  V30 12480 N 1169.18 -0.941978 -1.26351 0
M  V30 12481 C 1170.41 -0.605868 -1.97517 0
M  V30 12482 C 1170.82 0.823583 -1.70334 0
M  V30 12483 O 1170.16 1.56085 -0.968662 0
M  V30 12484 C 1170.22 -0.769201 -3.51175 0
M  V30 12485 C 1169.88 -2.17343 -4.02009 0
M  V30 12486 C 1170.88 -3.14898 -4.13685 0
M  V30 12487 C 1168.57 -2.49422 -4.35998 0
M  V30 12488 C 1170.56 -4.42631 -4.58646 0
M  V30 12489 C 1168.25 -3.77388 -4.80647 0
M  V30 12490 C 1169.25 -4.73806 -4.91932 0
M  V30 12491 O 1168.93 -5.99493 -5.35596 0
M  V30 12492 H 1168.67 -0.227113 -0.636707 0
M  V30 12493 H 1171.22 -1.26523 -1.61806 0
M  V30 12494 H 1169.45 -0.0527104 -3.86664 0
M  V30 12495 H 1171.14 -0.436032 -4.03551 0
M  V30 12496 H 1171.9 -2.91438 -3.87671 0
M  V30 12497 H 1167.78 -1.7511 -4.26448 0
M  V30 12498 H 1171.33 -5.17892 -4.67369 0
M  V30 12499 H 1167.22 -4.0066 -5.06105 0
M  V30 12500 H 1167.99 -6.02687 -5.53815 0
M  V30 12501 N 1170.66 1.40747 -0.709091 0
M  V30 12502 C 1171.9 2.01003 -0.24581 0
M  V30 12503 C 1172.23 1.56203 1.15891 0
M  V30 12504 O 1171.49 0.770166 1.79908 0
M  V30 12505 C 1171.78 3.56404 -0.266685 0
M  V30 12506 C 1171.45 4.20762 -1.6208 0
M  V30 12507 C 1170.11 4.38056 -1.99148 0
M  V30 12508 C 1172.46 4.56723 -2.51105 0
M  V30 12509 C 1169.79 4.88591 -3.248 0
M  V30 12510 C 1172.14 5.08654 -3.76103 0
M  V30 12511 C 1170.81 5.24158 -4.13297 0
M  V30 12512 H 1170.08 0.73552 -0.0899481 0
M  V30 12513 H 1172.73 1.68451 -0.910844 0
M  V30 12514 H 1171.03 3.88825 0.481915 0
M  V30 12515 H 1172.73 4.0085 0.109509 0
M  V30 12516 H 1169.32 4.07685 -1.32252 0
M  V30 12517 H 1173.5 4.43004 -2.23744 0
M  V30 12518 H 1168.76 4.98779 -3.53595 0
M  V30 12519 H 1172.93 5.35457 -4.45262 0
M  V30 12520 H 1170.56 5.63079 -5.10731 0
M  V30 12521 N 1172.13 0.454803 1.50895 0
M  V30 12522 C 1173.38 -0.105562 2.01824 0
M  V30 12523 C 1173.7 -1.41673 1.33992 0
M  V30 12524 O 1172.97 -1.89929 0.479994 0
M  V30 12525 H 1171.55 -0.0420011 0.745818 0
M  V30 12526 H 1174.21 0.601504 1.85386 0
M  V30 12527 H 1173.31 -0.268872 3.1094 0
M  V30 12528 N 1173.61 -1.56489 0.186789 0
M  V30 12529 C 1174.84 -2.02163 -0.463126 0
M  V30 12530 C 1175.26 -1.06612 -1.54969 0
M  V30 12531 O 1174.62 -0.0482139 -1.81236 0
M  V30 12532 C 1174.67 -3.46337 -1.00416 0
M  V30 12533 O 1173.77 -3.53889 -2.11747 0
M  V30 12534 H 1173.11 -0.65496 -0.109194 0
M  V30 12535 H 1175.64 -2.02459 0.295227 0
M  V30 12536 H 1175.65 -3.85959 -1.32287 0
M  V30 12537 H 1174.33 -4.15376 -0.208693 0
M  V30 12538 H 1172.9 -3.26136 -1.80803 0
M  V30 12539 N 1175.09 0.086862 -1.5736 0
M  V30 12540 C 1176.04 1.12359 -2.03662 0
M  V30 12541 C 1177.03 1.40982 -0.939169 0
M  V30 12542 O 1178.24 1.40566 -1.12433 0
M  V30 12543 H 1174.61 0.379605 -0.649156 0
M  V30 12544 H 1176.58 0.706822 -2.89908 0
M  V30 12545 C 1175.33 2.43327 -2.48369 0
M  V30 12546 H 1174.66 2.22148 -3.324 0
M  V30 12547 H 1176.1 3.14351 -2.84534 0
M  V30 12548 C 1174.55 3.08214 -1.36036 0
M  V30 12549 O 1175.08 3.95659 -0.694063 0
M  V30 12550 N 1173.29 2.68596 -1.10927 0
M  V30 12551 H 1172.84 1.97578 -1.6529 0
M  V30 12552 H 1172.8 3.12336 -0.359679 0
M  V30 12553 N 1176.57 1.53483 0.357892 0
M  V30 12554 C 1177.8 1.73704 1.11851 0
M  V30 12555 C 1178.21 0.469388 1.83285 0
M  V30 12556 O 1177.55 -0.567894 1.74702 0
M  V30 12557 C 1177.61 2.85301 2.18732 0
M  V30 12558 C 1177.27 4.25395 1.66998 0
M  V30 12559 C 1178.27 5.07472 1.12994 0
M  V30 12560 C 1175.96 4.71832 1.72279 0
M  V30 12561 C 1177.95 6.34081 0.649574 0
M  V30 12562 C 1175.64 5.98417 1.23854 0
M  V30 12563 C 1176.64 6.79374 0.702839 0
M  V30 12564 O 1176.32 8.03583 0.225763 0
M  V30 12565 H 1176.06 0.584251 0.34004 0
M  V30 12566 H 1178.61 2.01054 0.420313 0
M  V30 12567 H 1176.84 2.53442 2.92068 0
M  V30 12568 H 1178.53 2.93627 2.80247 0
M  V30 12569 H 1179.29 4.72766 1.08248 0
M  V30 12570 H 1175.17 4.08886 2.12916 0
M  V30 12571 H 1178.72 6.97218 0.230774 0
M  V30 12572 H 1174.61 6.32622 1.28296 0
M  V30 12573 H 1175.38 8.17775 0.344381 0
M  V30 12574 N 1178.05 -0.61812 1.44973 0
M  V30 12575 C 1178.99 -1.72942 1.52838 0
M  V30 12576 C 1179.96 -1.6181 0.375056 0
M  V30 12577 O 1181.15 -1.81544 0.587075 0
M  V30 12578 C 1178.29 -3.11228 1.49101 0
M  V30 12579 C 1177.4 -3.33243 2.74906 0
M  V30 12580 C 1176.54 -4.61574 2.62912 0
M  V30 12581 C 1175.57 -4.76811 3.8382 0
M  V30 12582 N 1174.71 -5.96432 3.70424 0
M  V30 12583 H 1179.55 -1.65556 2.47781 0
M  V30 12584 H 1177.09 -0.807411 1.2296 0
M  V30 12585 H 1179.05 -3.9122 1.44923 0
M  V30 12586 H 1177.68 -3.17598 0.577163 0
M  V30 12587 H 1176.73 -2.471 2.89216 0
M  V30 12588 H 1178.04 -3.40377 3.64616 0
M  V30 12589 H 1177.19 -5.49746 2.56641 0
M  V30 12590 H 1175.93 -4.5682 1.70784 0
M  V30 12591 H 1174.94 -3.87066 3.90461 0
M  V30 12592 H 1176.16 -4.83371 4.77001 0
M  V30 12593 H 1174.11 -5.92742 2.81057 0
M  V30 12594 H 1174.03 -6.0468 4.5376 0
M  V30 12595 H 1175.29 -6.8713 3.68067 0
M  V30 12596 N 1179.52 -1.32087 -0.859693 0
M  V30 12597 C 1180.77 -1.21716 -1.60836 0
M  V30 12598 C 1181.09 0.220904 -1.94349 0
M  V30 12599 O 1182.29 0.446422 -2.67805 0
M  V30 12600 C 1180.75 -2.13143 -2.89997 0
M  V30 12601 C 1180.36 -3.62003 -2.63928 0
M  V30 12602 C 1182.1 -2.11596 -3.68004 0
M  V30 12603 C 1180.01 -4.45407 -3.89059 0
M  V30 12604 H 1178.94 -0.45199 -0.603507 0
M  V30 12605 H 1181.59 -1.57013 -0.949687 0
M  V30 12606 H 1179.97 -1.70755 -3.57294 0
M  V30 12607 H 1181.14 -4.12701 -2.04974 0
M  V30 12608 H 1179.46 -3.6563 -1.99258 0
M  V30 12609 H 1182.06 -2.71149 -4.6085 0
M  V30 12610 H 1182.4 -1.10568 -4.01348 0
M  V30 12611 H 1182.93 -2.52238 -3.07605 0
M  V30 12612 H 1179.67 -5.4723 -3.60859 0
M  V30 12613 H 1179.19 -3.99462 -4.47427 0
M  V30 12614 H 1180.87 -4.58149 -4.56846 0
M  V30 12615 N 1181 1.07532 -1.15215 0
M  V30 12616 C 1182.25 1.79474 -0.920439 0
M  V30 12617 C 1182.56 1.87593 0.553926 0
M  V30 12618 O 1183.77 2.56037 0.903169 0
M  V30 12619 C 1182.23 3.22509 -1.59738 0
M  V30 12620 C 1181.83 3.22596 -3.10863 0
M  V30 12621 C 1183.58 3.99072 -1.44714 0
M  V30 12622 C 1181.48 4.60273 -3.71352 0
M  V30 12623 H 1180.41 0.672625 -0.340722 0
M  V30 12624 H 1183.07 1.2071 -1.38208 0
M  V30 12625 H 1181.45 3.81454 -1.06342 0
M  V30 12626 H 1182.62 2.73306 -3.70999 0
M  V30 12627 H 1180.94 2.5953 -3.25627 0
M  V30 12628 H 1183.53 5.00823 -1.87299 0
M  V30 12629 H 1183.88 4.14428 -0.394386 0
M  V30 12630 H 1184.41 3.46617 -1.95195 0
M  V30 12631 H 1181.15 4.50122 -4.76519 0
M  V30 12632 H 1180.67 5.09809 -3.15998 0
M  V30 12633 H 1182.35 5.29243 -3.7217 0
M  V30 12634 N 1182.48 0.948665 1.2585 0
M  V30 12635 C 1183.71 0.617229 1.97479 0
M  V30 12636 C 1184.12 -0.809406 1.7057 0
M  V30 12637 O 1183.48 -1.54066 0.97826 0
M  V30 12638 C 1183.53 0.859065 3.51144 0
M  V30 12639 O 1183.25 2.2296 3.77121 0
M  V30 12640 C 1184.75 0.539197 4.40009 0
M  V30 12641 H 1181.97 0.231933 0.629641 0
M  V30 12642 H 1184.52 1.27141 1.60173 0
M  V30 12643 H 1182.67 0.25138 3.86584 0
M  V30 12644 H 1183.09 2.29524 4.71613 0
M  V30 12645 H 1184.56 0.758986 5.46757 0
M  V30 12646 H 1185.04 -0.526062 4.36038 0
M  V30 12647 H 1185.64 1.12594 4.10125 0
M  V30 12648 N 1183.96 -1.40369 0.716545 0
M  V30 12649 C 1184.89 -2.28196 0.013671 0
M  V30 12650 C 1185.87 -1.4339 -0.766685 0
M  V30 12651 O 1187.05 -1.72801 -0.753123 0
M  V30 12652 C 1184.18 -3.23969 -0.988006 0
M  V30 12653 C 1183.23 -4.25455 -0.298345 0
M  V30 12654 S 1184.06 -5.26559 0.974456 0
M  V30 12655 C 1185.22 -6.25895 -0.0250932 0
M  V30 12656 H 1185.45 -2.87461 0.758526 0
M  V30 12657 H 1182.98 -1.45817 0.507606 0
M  V30 12658 H 1184.94 -3.79674 -1.56071 0
M  V30 12659 H 1183.6 -2.63759 -1.70557 0
M  V30 12660 H 1182.79 -4.92821 -1.05561 0
M  V30 12661 H 1182.4 -3.73455 0.201828 0
M  V30 12662 H 1184.69 -6.7187 -0.871615 0
M  V30 12663 H 1185.63 -7.05422 0.615206 0
M  V30 12664 H 1186.04 -5.63156 -0.389248 0
M  V30 12665 N 1185.44 -0.462799 -1.50652 0
M  V30 12666 C 1186.68 0.0938945 -2.04184 0
M  V30 12667 C 1187.04 1.37726 -1.33774 0
M  V30 12668 O 1188.24 2.01581 -1.77817 0
M  V30 12669 C 1186.51 0.281884 -3.56287 0
M  V30 12670 S 1188.07 0.798326 -4.31477 0
M  V30 12671 H 1184.89 0.0198719 -0.710722 0
M  V30 12672 H 1187.49 -0.62804 -1.85138 0
M  V30 12673 H 1186.2 -0.658084 -4.05089 0
M  V30 12674 H 1185.73 1.03017 -3.79672 0
M  V30 12675 H 1187.74 2.07281 -4.50832 0
M  V30 12676 N 1186.91 1.56388 -0.195085 0
M  V30 12677 C 1188.16 1.9758 0.443686 0
M  V30 12678 C 1188.49 1.08196 1.61629 0
M  V30 12679 O 1187.74 0.121061 1.95325 0
M  V30 12680 C 1188.04 3.44651 0.946051 0
M  V30 12681 C 1187.71 4.50758 -0.11318 0
M  V30 12682 C 1186.37 4.79499 -0.404229 0
M  V30 12683 C 1188.72 5.14534 -0.830899 0
M  V30 12684 C 1186.05 5.69307 -1.41797 0
M  V30 12685 C 1188.4 6.05438 -1.83379 0
M  V30 12686 C 1187.07 6.32535 -2.13204 0
M  V30 12687 H 1186.34 0.722995 0.162356 0
M  V30 12688 H 1188.98 1.8926 -0.292049 0
M  V30 12689 H 1187.29 3.50042 1.76006 0
M  V30 12690 H 1188.99 3.73878 1.44969 0
M  V30 12691 H 1185.58 4.28421 0.123833 0
M  V30 12692 H 1189.76 4.92421 -0.61927 0
M  V30 12693 H 1185.02 5.88575 -1.65496 0
M  V30 12694 H 1189.19 6.53915 -2.39516 0
M  V30 12695 H 1186.82 7.01924 -2.91902 0
M  V30 12696 N 1188.39 -0.0785156 1.57404 0
M  V30 12697 C 1189.62 -0.795871 1.91522 0
M  V30 12698 C 1190.04 -1.70665 0.790892 0
M  V30 12699 O 1189.4 -1.79474 -0.25666 0
M  V30 12700 C 1189.45 -1.57121 3.24569 0
M  V30 12701 O 1188.55 -2.6814 3.13328 0
M  V30 12702 H 1187.89 -0.217575 0.627341 0
M  V30 12703 H 1190.42 -0.0487724 2.04542 0
M  V30 12704 H 1190.43 -1.9519 3.5828 0
M  V30 12705 H 1189.11 -0.902909 4.05981 0
M  V30 12706 H 1187.69 -2.32978 2.91163 0
M  V30 12707 N 1189.87 -1.5367 -0.349747 0
M  V30 12708 C 1191.12 -1.7087 -1.0923 0
M  V30 12709 C 1191.45 -0.467299 -1.88494 0
M  V30 12710 O 1190.72 0.535619 -1.8698 0
M  V30 12711 C 1191.01 -2.9684 -2.03858 0
M  V30 12712 C 1190.86 -4.31174 -1.28097 0
M  V30 12713 C 1192.18 -3.18459 -3.03763 0
M  V30 12714 H 1189.3 -0.621757 -0.395711 0
M  V30 12715 H 1191.94 -1.86333 -0.371481 0
M  V30 12716 H 1190.09 -2.83788 -2.65323 0
M  V30 12717 H 1191.76 -4.56066 -0.692933 0
M  V30 12718 H 1190.01 -4.29866 -0.582924 0
M  V30 12719 H 1190.68 -5.15482 -1.9744 0
M  V30 12720 H 1193.15 -3.30801 -2.52409 0
M  V30 12721 H 1192.03 -4.08006 -3.67182 0
M  V30 12722 H 1192.29 -2.34467 -3.74803 0
M  V30 12723 N 1191.35 0.610423 -1.45298 0
M  V30 12724 C 1192.57 1.40112 -1.52917 0
M  V30 12725 C 1193 1.87404 -0.161696 0
M  V30 12726 O 1192.36 1.59973 0.853135 0
M  V30 12727 C 1192.4 2.58359 -2.51561 0
M  V30 12728 O 1191.51 3.58895 -2.03146 0
M  V30 12729 H 1190.85 0.41841 -0.515586 0
M  V30 12730 H 1193.38 0.743159 -1.90626 0
M  V30 12731 H 1193.39 3.0564 -2.70275 0
M  V30 12732 H 1192.06 2.23286 -3.50879 0
M  V30 12733 H 1190.64 3.18282 -1.94296 0
M  V30 12734 N 1192.83 1.32541 0.852676 0
M  V30 12735 C 1193.76 1.24254 1.97694 0
M  V30 12736 C 1194.74 0.125971 1.69633 0
M  V30 12737 O 1195.92 0.31347 1.91653 0
M  V30 12738 C 1193.05 0.966874 3.3357 0
M  V30 12739 C 1192.01 2.0449 3.75989 0
M  V30 12740 C 1191.33 1.6216 5.09518 0
M  V30 12741 C 1192.63 3.46013 3.91244 0
M  V30 12742 H 1194.33 2.18317 2.04886 0
M  V30 12743 H 1191.87 1.05101 0.984371 0
M  V30 12744 H 1193.83 0.895444 4.11776 0
M  V30 12745 H 1192.55 -0.0093893 3.26599 0
M  V30 12746 H 1191.21 2.10651 3.00036 0
M  V30 12747 H 1190.86 0.632729 4.99005 0
M  V30 12748 H 1190.56 2.3429 5.38871 0
M  V30 12749 H 1192.08 1.56457 5.90215 0
M  V30 12750 H 1193.49 3.4243 4.59799 0
M  V30 12751 H 1191.89 4.1651 4.32017 0
M  V30 12752 H 1192.96 3.8553 2.941 0
M  V30 12753 N 1194.3 -1.0692 1.15784 0
M  V30 12754 C 1195.53 -1.83849 0.959903 0
M  V30 12755 C 1195.95 -1.8169 -0.486873 0
M  V30 12756 O 1195.31 -1.21305 -1.34739 0
M  V30 12757 C 1195.36 -3.28642 1.48414 0
M  V30 12758 O 1194.46 -4.0665 0.686249 0
M  V30 12759 H 1193.81 -0.569115 0.342059 0
M  V30 12760 H 1196.34 -1.34851 1.53871 0
M  V30 12761 H 1196.35 -3.7947 1.49888 0
M  V30 12762 H 1195.02 -3.29529 2.53739 0
M  V30 12763 H 1193.6 -3.65453 0.741501 0
M  V30 12764 N 1195.78 -0.955326 -1.25345 0
M  V30 12765 C 1196.75 -0.480564 -2.24105 0
M  V30 12766 C 1197.75 0.416123 -1.55322 0
M  V30 12767 O 1198.94 0.213315 -1.72889 0
M  V30 12768 C 1196.07 0.305589 -3.39528 0
M  V30 12769 H 1197.26 -1.35349 -2.6762 0
M  V30 12770 H 1194.81 -0.738673 -1.37744 0
M  V30 12771 H 1195.55 1.19615 -3.01434 0
M  V30 12772 H 1195.33 -0.337719 -3.90643 0
M  V30 12773 H 1196.82 0.627201 -4.12863 0
M  V30 12774 N 1197.26 1.39987 -0.723979 0
M  V30 12775 C 1198.49 2.05037 -0.27702 0
M  V30 12776 C 1198.9 1.54565 1.08421 0
M  V30 12777 O 1198.26 0.705795 1.683 0
M  V30 12778 C 1198.31 3.60582 -0.25751 0
M  V30 12779 O 1198.03 4.09194 -1.565 0
M  V30 12780 C 1199.53 4.42817 0.206972 0
M  V30 12781 H 1196.75 0.659637 -0.122963 0
M  V30 12782 H 1199.3 1.7924 -0.98454 0
M  V30 12783 H 1197.45 3.85319 0.401037 0
M  V30 12784 H 1197.87 5.03447 -1.47112 0
M  V30 12785 H 1199.34 5.5174 0.16947 0
M  V30 12786 H 1199.82 4.21023 1.25045 0
M  V30 12787 H 1200.42 4.23205 -0.421604 0
M  V30 12788 N 1198.74 0.470782 1.50404 0
M  V30 12789 C 1199.99 -0.0844409 2.02624 0
M  V30 12790 C 1200.32 -1.39398 1.3521 0
M  V30 12791 O 1199.59 -1.88542 0.477707 0
M  V30 12792 C 1199.88 -0.268563 3.59097 0
M  V30 12793 C 1199.73 1.06198 4.37084 0
M  V30 12794 C 1201.05 -1.02324 4.28039 0
M  V30 12795 H 1198.17 -0.0292141 0.736421 0
M  V30 12796 H 1200.81 0.616312 1.79726 0
M  V30 12797 H 1198.96 -0.865441 3.78738 0
M  V30 12798 H 1200.63 1.69541 4.29015 0
M  V30 12799 H 1198.87 1.65868 4.00837 0
M  V30 12800 H 1199.55 0.886795 5.4483 0
M  V30 12801 H 1202.02 -0.517325 4.12872 0
M  V30 12802 H 1200.9 -1.12087 5.37334 0
M  V30 12803 H 1201.16 -2.05974 3.91187 0
M  V30 12804 N 1200.22 -1.56282 0.203376 0
M  V30 12805 C 1201.18 -2.18233 -0.700489 0
M  V30 12806 C 1202.18 -1.13908 -1.13497 0
M  V30 12807 O 1203.37 -1.39246 -1.04672 0
M  V30 12808 C 1200.5 -2.79107 -1.95735 0
M  V30 12809 H 1201.7 -2.99469 -0.160649 0
M  V30 12810 H 1199.25 -1.56232 -0.0462475 0
M  V30 12811 H 1199.98 -2.01691 -2.53951 0
M  V30 12812 H 1199.77 -3.55486 -1.65446 0
M  V30 12813 H 1201.26 -3.2665 -2.60172 0
M  V30 12814 N 1201.7 0.070167 -1.57444 0
M  V30 12815 C 1202.63 1.08351 -2.06839 0
M  V30 12816 C 1203.61 1.40269 -0.962224 0
M  V30 12817 O 1204.79 1.49867 -1.23505 0
M  V30 12818 C 1201.92 2.39649 -2.51368 0
M  V30 12819 C 1200.88 2.22079 -3.65875 0
M  V30 12820 C 1200.2 3.58776 -3.96464 0
M  V30 12821 C 1201.5 1.64069 -4.95862 0
M  V30 12822 H 1203.2 0.672465 -2.9175 0
M  V30 12823 H 1200.74 0.322027 -1.40353 0
M  V30 12824 H 1202.69 3.10833 -2.84537 0
M  V30 12825 H 1201.42 2.82736 -1.63487 0
M  V30 12826 H 1200.08 1.53337 -3.32992 0
M  V30 12827 H 1199.73 3.99436 -3.05712 0
M  V30 12828 H 1199.43 3.47859 -4.7357 0
M  V30 12829 H 1200.95 4.31387 -4.32131 0
M  V30 12830 H 1202.36 2.2512 -5.27251 0
M  V30 12831 H 1200.76 1.63843 -5.773 0
M  V30 12832 H 1201.83 0.60232 -4.81145 0
M  V30 12833 N 1203.17 1.53854 0.341593 0
M  V30 12834 C 1204.42 1.70856 1.07948 0
M  V30 12835 C 1204.74 0.475474 1.89114 0
M  V30 12836 O 1204.01 -0.510592 1.89129 0
M  V30 12837 H 1202.59 0.629914 0.401519 0
M  V30 12838 H 1205.25 1.91112 0.382393 0
M  V30 12839 H 1204.35 2.5803 1.75575 0
M  V30 12840 N 1204.65 -0.602709 1.4562 0
M  V30 12841 C 1205.89 -1.37284 1.51435 0
M  V30 12842 C 1206.26 -1.9138 0.154148 0
M  V30 12843 O 1207.46 -2.68659 0.0870009 0
M  V30 12844 C 1205.73 -2.48651 2.56724 0
M  V30 12845 S 1207.29 -3.36354 2.818 0
M  V30 12846 H 1204.1 -0.46798 0.535272 0
M  V30 12847 H 1206.71 -0.694957 1.82731 0
M  V30 12848 H 1205.41 -2.07267 3.54215 0
M  V30 12849 H 1204.94 -3.21234 2.27095 0
M  V30 12850 H 1206.96 -4.46937 2.15549 0
M  V30 12851 N 1206.13 -1.32992 -0.845635 0
M  V30 12852 C 1207.06 -1.17018 -1.95913 0
M  V30 12853 C 1208.04 -0.0673433 -1.6246 0
M  V30 12854 O 1209.22 -0.22833 -1.87112 0
M  V30 12855 C 1206.35 -0.793343 -3.29278 0
M  V30 12856 C 1205.4 -1.90271 -3.81705 0
M  V30 12857 S 1206.23 -3.51256 -4.04202 0
M  V30 12858 C 1207.39 -3.15564 -5.40528 0
M  V30 12859 H 1207.62 -2.11278 -2.09163 0
M  V30 12860 H 1205.15 -1.17756 -0.998644 0
M  V30 12861 H 1207.11 -0.582694 -4.06343 0
M  V30 12862 H 1205.77 0.130539 -3.13829 0
M  V30 12863 H 1204.96 -1.59225 -4.78188 0
M  V30 12864 H 1204.57 -2.06968 -3.11513 0
M  V30 12865 H 1206.86 -2.65969 -6.23111 0
M  V30 12866 H 1207.8 -4.11102 -5.76542 0
M  V30 12867 H 1208.21 -2.52341 -5.04959 0
M  V30 12868 N 1207.61 1.06304 -1.1635 0
M  V30 12869 C 1208.85 1.79101 -0.94494 0
M  V30 12870 C 1209.18 1.87217 0.527251 0
M  V30 12871 O 1208.44 1.35992 1.40729 0
M  V30 12872 C 1208.74 3.23589 -1.51741 0
M  V30 12873 C 1208.4 3.35552 -3.0119 0
M  V30 12874 C 1207.06 3.38525 -3.41986 0
M  V30 12875 C 1209.42 3.37482 -3.97184 0
M  V30 12876 C 1206.74 3.41042 -4.77396 0
M  V30 12877 C 1209.1 3.41537 -5.3248 0
M  V30 12878 C 1207.76 3.42792 -5.72757 0
M  V30 12879 H 1207.03 0.655377 -0.345778 0
M  V30 12880 H 1209.68 1.25017 -1.45062 0
M  V30 12881 H 1207.98 3.80525 -0.933164 0
M  V30 12882 H 1209.68 3.78512 -1.32399 0
M  V30 12883 H 1206.27 3.33944 -2.68662 0
M  V30 12884 H 1210.45 3.34397 -3.66732 0
M  V30 12885 H 1205.71 3.40317 -5.07931 0
M  V30 12886 H 1209.88 3.41977 -6.0665 0
M  V30 12887 H 1207.51 3.44495 -6.77663 0
M  V30 12888 N 1209.09 0.96196 1.24836 0
M  V30 12889 C 1210.33 0.621634 1.93038 0
M  V30 12890 C 1210.66 -0.840257 1.75081 0
M  V30 12891 O 1209.94 -1.60381 1.10038 0
M  V30 12892 C 1210.22 0.990107 3.46221 0
M  V30 12893 C 1210.08 2.50827 3.73371 0
M  V30 12894 C 1211.39 0.520478 4.37011 0
M  V30 12895 H 1208.51 0.227312 0.701069 0
M  V30 12896 H 1211.16 1.19993 1.47315 0
M  V30 12897 H 1209.31 0.498008 3.85295 0
M  V30 12898 H 1210.98 3.07469 3.4389 0
M  V30 12899 H 1209.22 2.94277 3.18722 0
M  V30 12900 H 1209.89 2.71659 4.80526 0
M  V30 12901 H 1212.37 0.942703 4.05281 0
M  V30 12902 H 1211.24 0.806918 5.42937 0
M  V30 12903 H 1211.5 -0.579507 4.38285 0
M  V30 12904 N 1210.56 -1.39601 0.731392 0
M  V30 12905 C 1211.97 -1.83424 0.348194 0
M  V30 12906 C 1212.33 -1.61106 -1.11979 0
M  V30 12907 O 1211.45 -1.1003 -1.86339 0
M  V30 12908 C 1212.05 -3.32982 0.6252 0
M  V30 12909 C 1210.6 -3.75238 0.295536 0
M  V30 12910 C 1209.75 -2.62642 0.88964 0
M  V30 12911 H 1212.7 -1.28644 0.929318 0
M  V30 12912 H 1212.72 -3.80357 -0.104254 0
M  V30 12913 H 1212.24 -3.49193 1.69368 0
M  V30 12914 H 1210.34 -3.64615 -0.767254 0
M  V30 12915 H 1210.45 -4.72781 0.775576 0
M  V30 12916 H 1208.81 -2.52726 0.316529 0
M  V30 12917 H 1209.6 -2.81661 1.96271 0
M  V30 12918 N 1212.04 -0.478751 -1.50152 0
M  V30 12919 C 1212.99 0.311426 -2.28689 0
M  V30 12920 C 1213.96 0.980375 -1.34082 0
M  V30 12921 O 1215.14 0.991337 -1.63025 0
M  V30 12922 C 1212.28 1.38302 -3.16175 0
M  V30 12923 C 1211.4 0.728084 -4.2582 0
M  V30 12924 C 1210.53 1.77822 -5.00552 0
M  V30 12925 C 1209.57 1.10395 -6.02063 0
M  V30 12926 N 1208.71 2.09728 -6.70044 0
M  V30 12927 H 1213.55 -0.364592 -2.95761 0
M  V30 12928 H 1211.09 -0.191645 -1.45846 0
M  V30 12929 H 1213.04 2.01606 -3.65255 0
M  V30 12930 H 1211.67 2.0281 -2.51133 0
M  V30 12931 H 1210.73 -0.0177026 -3.80396 0
M  V30 12932 H 1212.04 0.196209 -4.98414 0
M  V30 12933 H 1211.19 2.48687 -5.53389 0
M  V30 12934 H 1209.93 2.34392 -4.27682 0
M  V30 12935 H 1208.94 0.38096 -5.48479 0
M  V30 12936 H 1210.16 0.545045 -6.76909 0
M  V30 12937 H 1208.11 2.65301 -5.9996 0
M  V30 12938 H 1208.02 1.61546 -7.38538 0
M  V30 12939 H 1209.29 2.7995 -7.27495 0
M  V30 12940 N 1213.52 1.56172 -0.211661 0
M  V30 12941 C 1214.77 1.98332 0.423332 0
M  V30 12942 C 1215.1 1.09895 1.60115 0
M  V30 12943 O 1214.37 0.154477 1.93886 0
M  V30 12944 C 1214.66 3.49495 0.86747 0
M  V30 12945 C 1214.51 4.48708 -0.313302 0
M  V30 12946 C 1215.83 4.04793 1.72716 0
M  V30 12947 H 1212.95 0.72107 0.152402 0
M  V30 12948 H 1215.59 1.87521 -0.305912 0
M  V30 12949 H 1213.74 3.58839 1.48885 0
M  V30 12950 H 1215.41 4.51385 -0.951291 0
M  V30 12951 H 1213.66 4.2299 -0.96238 0
M  V30 12952 H 1214.33 5.51985 0.0402402 0
M  V30 12953 H 1216.8 3.98332 1.20296 0
M  V30 12954 H 1215.68 5.10898 2.00684 0
M  V30 12955 H 1215.94 3.51067 2.68709 0
M  V30 12956 N 1215 -0.0618163 1.57479 0
M  V30 12957 C 1216.23 -0.770605 1.9169 0
M  V30 12958 C 1216.64 -1.71134 0.806841 0
M  V30 12959 O 1215.98 -1.8228 -0.228002 0
M  V30 12960 C 1216.04 -1.60962 3.21452 0
M  V30 12961 C 1215.71 -0.837193 4.49266 0
M  V30 12962 C 1216.7 -0.151964 5.19678 0
M  V30 12963 C 1214.39 -0.801414 4.95866 0
M  V30 12964 C 1216.38 0.558705 6.34947 0
M  V30 12965 C 1214.07 -0.0869788 6.11038 0
M  V30 12966 C 1215.07 0.591871 6.80431 0
M  V30 12967 O 1214.75 1.29478 7.93405 0
M  V30 12968 H 1214.49 -0.223673 0.637923 0
M  V30 12969 H 1217.04 -0.0333424 2.05373 0
M  V30 12970 H 1215.27 -2.38992 3.04006 0
M  V30 12971 H 1216.96 -2.19799 3.41238 0
M  V30 12972 H 1217.73 -0.170848 4.84699 0
M  V30 12973 H 1213.6 -1.31927 4.4172 0
M  V30 12974 H 1217.15 1.08913 6.89046 0
M  V30 12975 H 1213.05 -0.066057 6.45466 0
M  V30 12976 H 1213.81 1.20507 8.0958 0
M  V30 12977 N 1216.48 -1.54033 -0.333429 0
M  V30 12978 C 1217.73 -1.70979 -1.07 0
M  V30 12979 C 1218.04 -0.485095 -1.89489 0
M  V30 12980 O 1219.24 -0.535712 -2.66162 0
M  V30 12981 C 1217.7 -3.02382 -1.95175 0
M  V30 12982 C 1217.31 -4.32223 -1.17844 0
M  V30 12983 C 1219.05 -3.28693 -2.68628 0
M  V30 12984 C 1216.96 -5.54693 -2.05109 0
M  V30 12985 H 1215.89 -0.637152 -0.403179 0
M  V30 12986 H 1218.54 -1.80529 -0.328839 0
M  V30 12987 H 1216.92 -2.86714 -2.73151 0
M  V30 12988 H 1218.1 -4.58626 -0.447089 0
M  V30 12989 H 1216.41 -4.12601 -0.561166 0
M  V30 12990 H 1219.01 -4.17385 -3.34207 0
M  V30 12991 H 1219.35 -2.46141 -3.35738 0
M  V30 12992 H 1219.88 -3.45183 -1.9772 0
M  V30 12993 H 1216.62 -6.39818 -1.42523 0
M  V30 12994 H 1216.14 -5.32524 -2.76005 0
M  V30 12995 H 1217.82 -5.90722 -2.63926 0
M  V30 12996 N 1217.95 0.594978 -1.45938 0
M  V30 12997 C 1219.2 1.34976 -1.49881 0
M  V30 12998 C 1219.52 1.95025 -0.14983 0
M  V30 12999 O 1220.72 2.71417 -0.0669868 0
M  V30 13000 C 1219.18 2.44563 -2.6404 0
M  V30 13001 C 1218.79 1.9087 -4.05306 0
M  V30 13002 C 1220.53 3.21461 -2.77242 0
M  V30 13003 C 1218.44 2.98013 -5.10825 0
M  V30 13004 H 1217.37 0.507366 -0.55776 0
M  V30 13005 H 1220.02 0.636316 -1.72114 0
M  V30 13006 H 1218.4 3.1865 -2.35114 0
M  V30 13007 H 1219.57 1.23408 -4.43968 0
M  V30 13008 H 1217.89 1.26678 -3.96663 0
M  V30 13009 H 1220.49 4.01399 -3.53246 0
M  V30 13010 H 1220.83 3.73271 -1.84321 0
M  V30 13011 H 1221.36 2.54477 -3.05756 0
M  V30 13012 H 1218.1 2.51104 -6.05497 0
M  V30 13013 H 1217.62 3.64003 -4.7672 0
M  V30 13014 H 1219.3 3.62178 -5.36131 0
M  V30 13015 N 1219.43 1.33438 0.838571 0
M  V30 13016 C 1220.36 1.26344 1.96365 0
M  V30 13017 C 1221.34 0.143956 1.6949 0
M  V30 13018 O 1222.53 0.333779 1.9131 0
M  V30 13019 C 1219.66 1.0022 3.32526 0
M  V30 13020 C 1218.61 2.08466 3.73799 0
M  V30 13021 C 1217.94 1.67555 5.07769 0
M  V30 13022 C 1219.24 3.50144 3.87552 0
M  V30 13023 H 1220.93 2.20478 2.02558 0
M  V30 13024 H 1218.48 1.06139 0.973168 0
M  V30 13025 H 1220.43 0.939068 4.10803 0
M  V30 13026 H 1219.16 0.0252514 3.2659 0
M  V30 13027 H 1217.81 2.13822 2.97785 0
M  V30 13028 H 1217.46 0.685619 4.98305 0
M  V30 13029 H 1217.16 2.39993 5.36356 0
M  V30 13030 H 1218.69 1.62708 5.88522 0
M  V30 13031 H 1220.1 3.47287 4.56141 0
M  V30 13032 H 1218.5 4.21069 4.27575 0
M  V30 13033 H 1219.57 3.88628 2.89994 0
M  V30 13034 N 1220.91 -1.05686 1.16912 0
M  V30 13035 C 1221.87 -2.11481 0.883647 0
M  V30 13036 C 1222.87 -1.60321 -0.124034 0
M  V30 13037 O 1224.06 -1.73868 0.107566 0
M  V30 13038 C 1221.2 -3.3937 0.322649 0
M  V30 13039 H 1222.39 -2.38239 1.8216 0
M  V30 13040 H 1219.94 -1.2185 0.978895 0
M  V30 13041 H 1220.68 -3.18266 -0.622695 0
M  V30 13042 H 1220.46 -3.77812 1.04883 0
M  V30 13043 H 1221.95 -4.17362 0.141072 0
M  V30 13044 N 1222.39 -0.968567 -1.24324 0
M  V30 13045 C 1223.34 -0.498817 -2.25345 0
M  V30 13046 C 1224.31 0.456082 -1.59716 0
M  V30 13047 O 1225.49 0.366254 -1.87252 0
M  V30 13048 C 1222.63 0.204027 -3.44496 0
M  V30 13049 C 1221.74 -0.789741 -4.2472 0
M  V30 13050 C 1220.88 -0.0629156 -5.31163 0
M  V30 13051 C 1219.92 -1.04669 -6.03084 0
M  V30 13052 N 1219.05 -0.349812 -7.01228 0
M  V30 13053 H 1223.89 -1.36511 -2.64894 0
M  V30 13054 H 1221.43 -0.684288 -1.30215 0
M  V30 13055 H 1223.39 0.628223 -4.12443 0
M  V30 13056 H 1222.02 1.03426 -3.05782 0
M  V30 13057 H 1221.07 -1.33237 -3.56303 0
M  V30 13058 H 1222.38 -1.53988 -4.74436 0
M  V30 13059 H 1221.54 0.419233 -6.0525 0
M  V30 13060 H 1220.28 0.719915 -4.82357 0
M  V30 13061 H 1219.28 -1.53971 -5.278 0
M  V30 13062 H 1220.51 -1.82998 -6.53979 0
M  V30 13063 H 1218.45 0.414026 -6.54692 0
M  V30 13064 H 1218.37 -1.03881 -7.48829 0
M  V30 13065 H 1219.64 0.11034 -7.79422 0
M  V30 13066 N 1223.87 1.39211 -0.738786 0
M  V30 13067 C 1225.28 1.83237 -0.357916 0
M  V30 13068 C 1225.63 1.61698 1.11123 0
M  V30 13069 O 1224.75 1.11017 1.85753 0
M  V30 13070 C 1225.35 3.32645 -0.64285 0
M  V30 13071 C 1223.91 3.75076 -0.315432 0
M  V30 13072 C 1223.05 2.62166 -0.903556 0
M  V30 13073 H 1226.01 1.2815 -0.936127 0
M  V30 13074 H 1226.03 3.80407 0.0840812 0
M  V30 13075 H 1225.54 3.4829 -1.71218 0
M  V30 13076 H 1223.64 3.65017 0.747907 0
M  V30 13077 H 1223.75 4.72363 -0.800638 0
M  V30 13078 H 1222.12 2.52554 -0.329927 0
M  V30 13079 H 1222.9 2.80616 -1.97761 0
M  V30 13080 N 1225.34 0.486708 1.49896 0
M  V30 13081 C 1226.25 -0.304222 2.32619 0
M  V30 13082 C 1227.27 -0.981103 1.43702 0
M  V30 13083 O 1228.45 -0.965639 1.76741 0
M  V30 13084 C 1225.51 -1.36301 3.18783 0
M  V30 13085 C 1224.57 -0.701082 4.23537 0
M  V30 13086 C 1223.81 -1.70943 5.05583 0
M  V30 13087 O 1224.03 -2.93773 4.88931 0
M  V30 13088 O 1222.96 -1.27263 5.88292 0
M  V30 13089 H 1226.79 0.37248 3.01407 0
M  V30 13090 H 1224.37 0.248277 1.47323 0
M  V30 13091 H 1226.26 -1.97594 3.72202 0
M  V30 13092 H 1224.93 -2.0229 2.52706 0
M  V30 13093 H 1223.84 -0.0487926 3.74068 0
M  V30 13094 H 1225.17 -0.0838817 4.92129 0
M  V30 13095 N 1226.82 -1.56058 0.219941 0
M  V30 13096 C 1228.24 -1.59024 -0.135476 0
M  V30 13097 C 1228.44 -1.23672 -1.59083 0
M  V30 13098 O 1227.5 -0.971197 -2.33075 0
M  V30 13099 C 1228.81 -3.00103 0.189356 0
M  V30 13100 C 1230.36 -3.12724 0.131463 0
M  V30 13101 C 1230.83 -4.55977 0.429947 0
M  V30 13102 N 1232.32 -4.61643 0.37946 0
M  V30 13103 C 1233.06 -5.70419 0.58393 0
M  V30 13104 N 1232.55 -6.87565 0.850088 0
M  V30 13105 N 1234.35 -5.59722 0.516477 0
M  V30 13106 H 1226.5 -1.77313 1.16935 0
M  V30 13107 H 1228.76 -0.824096 0.468583 0
M  V30 13108 H 1228.47 -3.30616 1.19941 0
M  V30 13109 H 1228.34 -3.73919 -0.49641 0
M  V30 13110 H 1230.73 -2.82008 -0.869223 0
M  V30 13111 H 1230.81 -2.41241 0.85068 0
M  V30 13112 H 1230.45 -4.8741 1.42806 0
M  V30 13113 H 1230.38 -5.25684 -0.310444 0
M  V30 13114 H 1232.87 -3.77465 0.181373 0
M  V30 13115 H 1233.19 -7.66378 0.994251 0
M  V30 13116 H 1231.53 -6.89313 0.887265 0
M  V30 13117 H 1234.72 -4.6708 0.308784 0
M  V30 13118 H 1234.9 -6.4443 0.679236 0
M  V30 13119 N 1228.3 0.053464 -1.57509 0
M  V30 13120 C 1229.25 1.08014 -2.05999 0
M  V30 13121 C 1230.24 1.38958 -0.968862 0
M  V30 13122 O 1231.45 1.3815 -1.15389 0
M  V30 13123 H 1227.82 0.36575 -0.657062 0
M  V30 13124 H 1229.8 0.645169 -2.91342 0
M  V30 13125 C 1228.54 2.38004 -2.53475 0
M  V30 13126 H 1227.87 2.15048 -3.37038 0
M  V30 13127 H 1229.31 3.08244 -2.91138 0
M  V30 13128 C 1227.77 3.05259 -1.42543 0
M  V30 13129 O 1228.3 3.94097 -0.777832 0
M  V30 13130 N 1226.5 2.66182 -1.16599 0
M  V30 13131 H 1226.05 1.94027 -1.69444 0
M  V30 13132 H 1226.01 3.11503 -0.42585 0
M  V30 13133 N 1229.78 1.54207 0.325255 0
M  V30 13134 C 1231.03 1.72587 1.06497 0
M  V30 13135 C 1231.36 0.497228 1.87727 0
M  V30 13136 O 1230.63 -0.505804 1.87808 0
M  V30 13137 C 1230.92 3.00046 1.99109 0
M  V30 13138 C 1230.77 4.33158 1.21221 0
M  V30 13139 C 1232.09 3.23251 2.98658 0
M  V30 13140 H 1229.21 0.627974 0.38577 0
M  V30 13141 H 1231.85 1.869 0.34179 0
M  V30 13142 H 1230 2.87973 2.60775 0
M  V30 13143 H 1231.67 4.57111 0.620289 0
M  V30 13144 H 1229.91 4.30739 0.514462 0
M  V30 13145 H 1230.59 5.18558 1.89214 0
M  V30 13146 H 1233.06 3.34774 2.47114 0
M  V30 13147 H 1231.94 4.13796 3.60645 0
M  V30 13148 H 1232.2 2.40401 3.71026 0
M  V30 13149 N 1231.26 -0.58723 1.46251 0
M  V30 13150 C 1232.67 -0.910129 1.31106 0
M  V30 13151 C 1232.87 -1.99557 0.279141 0
M  V30 13152 O 1231.93 -2.50466 -0.319867 0
M  V30 13153 C 1233.24 -1.33177 2.69601 0
M  V30 13154 C 1234.79 -1.44486 2.77656 0
M  V30 13155 C 1235.27 -1.90018 4.16722 0
M  V30 13156 N 1236.76 -1.97219 4.19117 0
M  V30 13157 C 1237.49 -2.33714 5.23608 0
M  V30 13158 N 1236.99 -2.69034 6.3843 0
M  V30 13159 N 1238.78 -2.3423 5.10972 0
M  V30 13160 H 1230.93 0.12987 2.12003 0
M  V30 13161 H 1233.19 -0.00456718 0.947989 0
M  V30 13162 H 1232.9 -0.608243 3.464 0
M  V30 13163 H 1232.77 -2.29421 2.99409 0
M  V30 13164 H 1235.16 -2.15926 2.01147 0
M  V30 13165 H 1235.24 -0.465047 2.51537 0
M  V30 13166 H 1234.89 -1.19159 4.93724 0
M  V30 13167 H 1234.82 -2.88949 4.40245 0
M  V30 13168 H 1237.31 -1.72431 3.36268 0
M  V30 13169 H 1237.62 -2.95822 7.13939 0
M  V30 13170 H 1235.97 -2.66683 6.41798 0
M  V30 13171 H 1239.16 -2.06056 4.20308 0
M  V30 13172 H 1239.33 -2.62345 5.92519 0
M  V30 13173 N 1232.74 -1.33881 -0.831482 0
M  V30 13174 C 1233.96 -1.28961 -1.62431 0
M  V30 13175 C 1234.39 0.135249 -1.87613 0
M  V30 13176 O 1233.74 1.09426 -1.44553 0
M  V30 13177 C 1233.79 -2.07767 -2.94729 0
M  V30 13178 O 1232.9 -1.44133 -3.86393 0
M  V30 13179 H 1232.24 -0.443313 -0.494337 0
M  V30 13180 H 1234.77 -1.76555 -1.0339 0
M  V30 13181 H 1234.78 -2.18806 -3.44366 0
M  V30 13182 H 1233.45 -3.11367 -2.75724 0
M  V30 13183 H 1232.03 -1.41784 -3.44894 0
M  V30 13184 N 1234.21 1.05064 -1.1747 0
M  V30 13185 C 1235.18 2.1101 -0.89485 0
M  V30 13186 C 1236.18 1.60384 0.11553 0
M  V30 13187 O 1237.37 1.73808 -0.116785 0
M  V30 13188 C 1234.5 3.39194 -0.340642 0
M  V30 13189 H 1235.69 2.37269 -1.83421 0
M  V30 13190 H 1233.24 1.21329 -0.985343 0
M  V30 13191 H 1233.98 3.18591 0.605808 0
M  V30 13192 H 1233.76 3.77251 -1.06885 0
M  V30 13193 H 1235.25 4.17281 -0.163204 0
M  V30 13194 N 1235.69 0.975146 1.23809 0
M  V30 13195 C 1236.94 0.641124 1.92083 0
M  V30 13196 C 1237.27 -0.824671 1.76152 0
M  V30 13197 O 1236.52 -1.6097 1.11298 0
M  V30 13198 C 1236.82 0.971016 3.43956 0
M  V30 13199 C 1236.49 2.42616 3.80063 0
M  V30 13200 C 1235.15 2.82386 3.8963 0
M  V30 13201 C 1237.5 3.37019 3.97577 0
M  V30 13202 C 1234.83 4.15585 4.14133 0
M  V30 13203 C 1237.18 4.69855 4.23579 0
M  V30 13204 C 1235.84 5.09391 4.31366 0
M  V30 13205 H 1235.11 0.234604 0.702881 0
M  V30 13206 H 1237.76 1.22803 1.46941 0
M  V30 13207 H 1236.07 0.301965 3.90635 0
M  V30 13208 H 1237.76 0.690858 3.95004 0
M  V30 13209 H 1234.35 2.10782 3.73187 0
M  V30 13210 H 1238.54 3.07474 3.89581 0
M  V30 13211 H 1233.79 4.45831 4.18383 0
M  V30 13212 H 1237.97 5.42966 4.36074 0
M  V30 13213 H 1235.59 6.12624 4.50106 0
M  V30 13214 N 1237.17 -1.38817 0.746158 0
M  V30 13215 C 1238.4 -2.0457 0.309605 0
M  V30 13216 C 1238.81 -1.5627 -1.05948 0
M  V30 13217 O 1238.17 -0.73248 -1.67156 0
M  V30 13218 C 1238.22 -3.60126 0.314843 0
M  V30 13219 O 1237.94 -4.06652 1.6299 0
M  V30 13220 C 1239.44 -4.4309 -0.136497 0
M  V30 13221 H 1236.66 -0.657597 0.133441 0
M  V30 13222 H 1239.21 -1.77651 1.01293 0
M  V30 13223 H 1237.36 -3.85908 -0.339685 0
M  V30 13224 H 1237.78 -5.01042 1.55103 0
M  V30 13225 H 1239.25 -5.5194 -0.0816714 0
M  V30 13226 H 1239.73 -4.22959 -1.18332 0
M  V30 13227 H 1240.33 -4.22481 0.488879 0
M  V30 13228 N 1238.65 -0.49465 -1.49636 0
M  V30 13229 C 1239.88 0.0491129 -2.06842 0
M  V30 13230 C 1240.29 1.31395 -1.35576 0
M  V30 13231 O 1239.65 1.7731 -0.432135 0
M  V30 13232 C 1239.7 0.313171 -3.60141 0
M  V30 13233 O 1239.42 -0.90152 -4.28724 0
M  V30 13234 C 1240.92 0.901284 -4.34041 0
M  V30 13235 H 1238.14 -0.0176186 -0.670769 0
M  V30 13236 H 1240.68 -0.690188 -1.92501 0
M  V30 13237 H 1238.84 1.00244 -3.74206 0
M  V30 13238 H 1239.25 -0.660477 -5.20325 0
M  V30 13239 H 1240.73 1.03567 -5.42197 0
M  V30 13240 H 1241.2 1.89746 -3.96097 0
M  V30 13241 H 1241.81 0.249677 -4.24566 0
M  V30 13242 N 1240.13 1.55939 -0.228214 0
M  V30 13243 C 1241.35 2.0332 0.409364 0
M  V30 13244 C 1241.78 1.10683 1.52088 0
M  V30 13245 O 1241.13 0.0962484 1.81044 0
M  V30 13246 C 1241.18 3.48877 0.911981 0
M  V30 13247 O 1240.29 3.59378 2.02289 0
M  V30 13248 H 1239.63 0.657625 0.0917909 0
M  V30 13249 H 1242.16 2.01605 -0.348802 0
M  V30 13250 H 1242.17 3.89331 1.22007 0
M  V30 13251 H 1240.84 4.15783 0.0984902 0
M  V30 13252 H 1239.42 3.30815 1.72093 0
M  V30 13253 N 1241.6 -0.0451101 1.57535 0
M  V30 13254 C 1242.83 -0.75132 1.92777 0
M  V30 13255 C 1243.25 -1.69743 0.826599 0
M  V30 13256 O 1242.6 -1.8142 -0.198224 0
M  V30 13257 C 1242.66 -1.52218 3.2789 0
M  V30 13258 O 1242.38 -0.614059 4.33775 0
M  V30 13259 C 1243.88 -2.32699 3.77314 0
M  V30 13260 H 1241.1 -0.21211 0.636593 0
M  V30 13261 H 1243.64 -0.0074174 2.04499 0
M  V30 13262 H 1241.8 -2.2181 3.17614 0
M  V30 13263 H 1242.21 -1.15294 5.11671 0
M  V30 13264 H 1243.68 -2.82205 4.7441 0
M  V30 13265 H 1244.16 -3.13414 3.07682 0
M  V30 13266 H 1244.77 -1.68212 3.90621 0
M  V30 13267 N 1243.08 -1.54377 -0.317073 0
M  V30 13268 C 1244.33 -1.73149 -1.05581 0
M  V30 13269 C 1244.66 -0.507176 -1.8746 0
M  V30 13270 O 1243.94 0.495837 -1.88074 0
M  V30 13271 C 1244.22 -3.01098 -1.97515 0
M  V30 13272 C 1244.07 -4.33794 -1.18922 0
M  V30 13273 C 1245.39 -3.24831 -2.9694 0
M  V30 13274 H 1242.51 -0.630011 -0.382434 0
M  V30 13275 H 1245.15 -1.87079 -0.331873 0
M  V30 13276 H 1243.3 -2.89352 -2.59244 0
M  V30 13277 H 1244.97 -4.57433 -0.596039 0
M  V30 13278 H 1243.22 -4.31005 -0.491612 0
M  V30 13279 H 1243.89 -5.19554 -1.86462 0
M  V30 13280 H 1246.36 -3.3608 -2.45335 0
M  V30 13281 H 1245.24 -4.15702 -3.58445 0
M  V30 13282 H 1245.5 -2.42365 -3.69745 0
M  V30 13283 N 1244.56 0.579466 -1.4656 0
M  V30 13284 C 1245.81 1.33954 -1.52264 0
M  V30 13285 C 1246.14 1.93409 -0.175089 0
M  V30 13286 O 1245.41 1.76654 0.81385 0
M  V30 13287 C 1245.7 2.46645 -2.6237 0
M  V30 13288 C 1245.55 1.92204 -4.06667 0
M  V30 13289 C 1246.87 3.48676 -2.68538 0
M  V30 13290 H 1243.99 0.485697 -0.554317 0
M  V30 13291 H 1246.63 0.650639 -1.78512 0
M  V30 13292 H 1244.78 3.0541 -2.40119 0
M  V30 13293 H 1246.45 1.37871 -4.40215 0
M  V30 13294 H 1244.7 1.23012 -4.15993 0
M  V30 13295 H 1245.37 2.73566 -4.79443 0
M  V30 13296 H 1247.84 2.99798 -2.88549 0
M  V30 13297 H 1246.72 4.24981 -3.47394 0
M  V30 13298 H 1246.98 4.06112 -1.74716 0
M  V30 13299 N 1246.04 1.3432 0.824371 0
M  V30 13300 C 1247.45 1.1397 1.11727 0
M  V30 13301 C 1247.65 -0.0597597 2.01411 0
M  V30 13302 O 1246.71 -0.735717 2.41544 0
M  V30 13303 C 1248.02 2.43423 1.76538 0
M  V30 13304 C 1249.57 2.49466 1.89039 0
M  V30 13305 C 1250.05 3.78917 2.57266 0
M  V30 13306 N 1251.54 3.8007 2.64767 0
M  V30 13307 C 1252.27 4.76953 3.18282 0
M  V30 13308 N 1251.77 5.84217 3.72373 0
M  V30 13309 N 1253.56 4.6441 3.1667 0
M  V30 13310 H 1245.71 2.11175 0.227802 0
M  V30 13311 H 1247.98 0.933774 0.163615 0
M  V30 13312 H 1247.68 3.31278 1.18102 0
M  V30 13313 H 1247.56 2.56655 2.7642 0
M  V30 13314 H 1249.94 1.62052 2.46623 0
M  V30 13315 H 1250.02 2.40163 0.880635 0
M  V30 13316 H 1249.67 4.6672 2.00336 0
M  V30 13317 H 1249.6 3.85502 3.58742 0
M  V30 13318 H 1252.09 3.02556 2.26425 0
M  V30 13319 H 1252.4 6.54159 4.11455 0
M  V30 13320 H 1250.75 5.87933 3.70621 0
M  V30 13321 H 1253.94 3.7976 2.73678 0
M  V30 13322 H 1254.11 5.40081 3.58073 0
M  V30 13323 N 1247.52 -1.0444 1.18026 0
M  V30 13324 C 1248.45 -2.11888 0.847277 0
M  V30 13325 C 1249.43 -1.61496 -0.189171 0
M  V30 13326 O 1250.61 -1.88374 -0.0689859 0
M  V30 13327 C 1247.74 -3.3766 0.26525 0
M  V30 13328 C 1246.78 -4.06893 1.27829 0
M  V30 13329 S 1247.62 -4.54445 2.83267 0
M  V30 13330 C 1248.77 -5.83454 2.26565 0
M  V30 13331 H 1249.01 -2.39806 1.75727 0
M  V30 13332 H 1246.54 -1.17152 1.00572 0
M  V30 13333 H 1248.5 -4.1045 -0.0640578 0
M  V30 13334 H 1247.16 -3.07864 -0.622806 0
M  V30 13335 H 1246.35 -4.97287 0.819849 0
M  V30 13336 H 1245.95 -3.40203 1.55364 0
M  V30 13337 H 1248.25 -6.57203 1.64591 0
M  V30 13338 H 1249.19 -6.34056 3.15244 0
M  V30 13339 H 1249.6 -5.3838 1.69728 0
M  V30 13340 N 1248.99 -0.981699 -1.2329 0
M  V30 13341 C 1249.94 -0.494116 -2.22581 0
M  V30 13342 C 1250.93 0.431573 -1.55004 0
M  V30 13343 O 1252.12 0.260215 -1.75077 0
M  V30 13344 C 1249.25 0.200884 -3.42712 0
M  V30 13345 C 1248.34 -0.744451 -4.17515 0
M  V30 13346 N 1248.73 -1.88762 -4.69257 0
M  V30 13347 C 1247.02 -0.558044 -4.42495 0
M  V30 13348 C 1247.73 -2.48006 -5.26182 0
M  V30 13349 N 1246.7 -1.76382 -5.14189 0
M  V30 13350 H 1250.5 -1.36616 -2.60218 0
M  V30 13351 H 1248.02 -0.842537 -1.38835 0
M  V30 13352 H 1250.01 0.567506 -4.13019 0
M  V30 13353 H 1248.67 1.0692 -3.06591 0
M  V30 13354 H 1249.69 -2.26877 -4.65561 0
M  V30 13355 H 1246.36 0.265139 -4.16657 0
M  V30 13356 H 1247.75 -3.44555 -5.76829 0
M  V30 13357 N 1250.47 1.3842 -0.753509 0
M  V30 13358 C 1251.72 2.00415 -0.310091 0
M  V30 13359 C 1252.05 1.59675 1.10532 0
M  V30 13360 O 1251.33 0.834261 1.757 0
M  V30 13361 C 1251.61 3.57488 -0.432897 0
M  V30 13362 C 1251.46 4.08193 -1.88941 0
M  V30 13363 C 1252.78 4.39757 0.173763 0
M  V30 13364 H 1249.9 0.728107 -0.114147 0
M  V30 13365 H 1252.54 1.64363 -0.953138 0
M  V30 13366 H 1250.69 3.88331 0.114563 0
M  V30 13367 H 1252.36 3.87993 -2.49517 0
M  V30 13368 H 1250.61 3.61063 -2.4045 0
M  V30 13369 H 1251.28 5.17291 -1.9265 0
M  V30 13370 H 1253.75 4.15066 -0.293137 0
M  V30 13371 H 1252.63 5.4887 0.057594 0
M  V30 13372 H 1252.89 4.23704 1.26205 0
M  V30 13373 N 1251.95 0.502579 1.49372 0
M  V30 13374 C 1253.2 -0.0412993 2.02058 0
M  V30 13375 C 1253.52 -1.37338 1.38431 0
M  V30 13376 O 1252.79 -1.88305 0.540175 0
M  V30 13377 H 1251.37 -0.0182522 0.746777 0
M  V30 13378 H 1254.03 0.660179 1.83378 0
M  V30 13379 H 1253.13 -0.169812 3.11638 0
M  V30 13380 N 1253.43 -1.55816 0.23648 0
M  V30 13381 C 1254.71 -1.90565 -0.440933 0
M  V30 13382 C 1255.09 -1.15585 -1.76645 0
M  V30 13383 O 1254.43 -0.269949 -2.269 0
M  V30 13384 C 1254.64 -3.43462 -0.61925 0
M  V30 13385 C 1255.99 -4.14516 -0.91989 0
M  V30 13386 O 1257.02 -3.49144 -0.705496 0
M  V30 13387 O 1255.87 -5.3013 -1.32759 0
M  V30 13388 H 1252.97 -0.79285 -0.235199 0
M  V30 13389 H 1255.51 -1.67378 0.279774 0
M  V30 13390 H 1254.29 -3.90029 0.315124 0
M  V30 13391 H 1253.91 -3.72478 -1.39089 0
M  V30 13392 N 1254.91 0.036755 -1.57557 0
M  V30 13393 C 1256.15 0.727665 -1.88546 0
M  V30 13394 C 1256.48 1.76304 -0.833179 0
M  V30 13395 O 1255.75 1.9544 0.13414 0
M  V30 13396 H 1254.33 0.271744 -0.695819 0
M  V30 13397 H 1256.99 0.00452915 -1.94899 0
M  V30 13398 H 1256.08 1.22205 -2.8718 0
M  V30 13399 N 1256.39 1.54543 0.308881 0
M  V30 13400 C 1257.33 1.84949 1.38067 0
M  V30 13401 C 1258.3 0.697746 1.50734 0
M  V30 13402 O 1259.49 0.94561 1.65719 0
M  V30 13403 C 1256.63 2.09544 2.74199 0
M  V30 13404 C 1255.74 3.37193 2.70046 0
M  V30 13405 C 1254.88 3.51672 3.98121 0
M  V30 13406 C 1253.91 4.73143 3.88333 0
M  V30 13407 N 1253.05 4.84469 5.08167 0
M  V30 13408 H 1257.89 2.76379 1.11438 0
M  V30 13409 H 1255.43 1.36863 0.539153 0
M  V30 13410 H 1257.39 2.21798 3.53358 0
M  V30 13411 H 1256.02 1.21389 2.99106 0
M  V30 13412 H 1255.07 3.33601 1.82796 0
M  V30 13413 H 1256.38 4.26468 2.58701 0
M  V30 13414 H 1255.53 3.63548 4.85714 0
M  V30 13415 H 1254.27 2.60516 4.1229 0
M  V30 13416 H 1253.28 4.61308 2.99124 0
M  V30 13417 H 1254.5 5.65698 3.75716 0
M  V30 13418 H 1252.45 3.96234 5.22814 0
M  V30 13419 H 1252.37 5.67733 4.99215 0
M  V30 13420 H 1253.63 5.00693 5.97434 0
M  V30 13421 N 1257.86 -0.571685 1.46866 0
M  V30 13422 C 1259.09 -1.36008 1.56578 0
M  V30 13423 C 1259.51 -1.86909 0.211326 0
M  V30 13424 O 1258.87 -1.62179 -0.810421 0
M  V30 13425 C 1258.92 -2.51598 2.58323 0
M  V30 13426 O 1258.02 -3.53383 2.1259 0
M  V30 13427 H 1257.36 -0.404593 0.526498 0
M  V30 13428 H 1259.89 -0.692357 1.92529 0
M  V30 13429 H 1259.9 -2.98366 2.78283 0
M  V30 13430 H 1258.58 -2.13904 3.56676 0
M  V30 13431 H 1257.16 -3.13019 2.02666 0
M  V30 13432 N 1259.34 -1.34755 -0.817236 0
M  V30 13433 C 1260.57 -1.30676 -1.61054 0
M  V30 13434 C 1260.99 0.115343 -1.87746 0
M  V30 13435 O 1260.35 1.07887 -1.45705 0
M  V30 13436 C 1260.4 -2.10881 -2.92509 0
M  V30 13437 O 1259.5 -1.48223 -3.84842 0
M  V30 13438 H 1258.84 -0.448531 -0.489608 0
M  V30 13439 H 1261.37 -1.77642 -1.01512 0
M  V30 13440 H 1261.38 -2.22446 -3.42026 0
M  V30 13441 H 1260.06 -3.14274 -2.72406 0
M  V30 13442 H 1258.63 -1.45434 -3.4337 0
M  V30 13443 N 1260.82 1.03812 -1.18578 0
M  V30 13444 C 1262.04 1.8124 -1.00831 0
M  V30 13445 C 1262.47 1.82917 0.43853 0
M  V30 13446 O 1261.83 1.24835 1.31476 0
M  V30 13447 C 1261.88 3.24592 -1.57075 0
M  V30 13448 O 1260.98 4.04688 -0.793824 0
M  V30 13449 H 1260.32 0.559846 -0.357028 0
M  V30 13450 H 1262.85 1.30724 -1.57393 0
M  V30 13451 H 1262.86 3.75363 -1.59896 0
M  V30 13452 H 1261.54 3.22686 -2.62387 0
M  V30 13453 H 1260.11 3.63359 -0.838134 0
M  V30 13454 N 1262.3 0.988223 1.22768 0
M  V30 13455 C 1263.26 0.539813 2.22752 0
M  V30 13456 C 1264.26 -0.374796 1.56371 0
M  V30 13457 O 1265.45 -0.167402 1.73394 0
M  V30 13458 C 1262.58 -0.215461 3.40218 0
M  V30 13459 H 1263.78 1.42397 2.63938 0
M  V30 13460 H 1261.33 0.774933 1.35737 0
M  V30 13461 H 1262.06 -1.11581 3.045 0
M  V30 13462 H 1261.85 0.441173 3.8961 0
M  V30 13463 H 1263.34 -0.517517 4.14381 0
M  V30 13464 N 1263.78 -1.38018 0.760839 0
M  V30 13465 C 1264.74 -2.28734 0.146154 0
M  V30 13466 C 1265.74 -1.47525 -0.639768 0
M  V30 13467 O 1266.93 -1.6788 -0.464964 0
M  V30 13468 C 1264.06 -3.31356 -0.801019 0
M  V30 13469 H 1265.25 -2.84599 0.945692 0
M  V30 13470 H 1262.81 -1.471 0.528323 0
M  V30 13471 H 1263.54 -2.80594 -1.62597 0
M  V30 13472 H 1263.33 -3.91366 -0.239775 0
M  V30 13473 H 1264.82 -3.99171 -1.22687 0
M  V30 13474 N 1265.25 -0.510493 -1.49103 0
M  V30 13475 C 1266.48 0.0293113 -2.07379 0
M  V30 13476 C 1266.9 1.29195 -1.36713 0
M  V30 13477 O 1266.26 1.76204 -0.426838 0
M  V30 13478 C 1266.31 0.25629 -3.59688 0
M  V30 13479 O 1265.41 1.32907 -3.90397 0
M  V30 13480 H 1264.75 -0.0304449 -0.663302 0
M  V30 13481 H 1267.28 -0.712832 -1.91781 0
M  V30 13482 H 1267.29 0.484915 -4.05108 0
M  V30 13483 H 1265.97 -0.666163 -4.1053 0
M  V30 13484 H 1264.55 1.08464 -3.56777 0
M  V30 13485 N 1266.73 1.55688 -0.24474 0
M  V30 13486 C 1268.15 1.59219 0.110159 0
M  V30 13487 C 1268.35 1.26187 1.57096 0
M  V30 13488 O 1267.4 1.00815 2.31501 0
M  V30 13489 C 1268.72 2.99764 -0.237075 0
M  V30 13490 C 1270.26 3.12475 -0.181198 0
M  V30 13491 C 1270.74 4.55236 -0.502435 0
M  V30 13492 N 1272.23 4.60981 -0.452855 0
M  V30 13493 C 1272.97 5.69418 -0.674605 0
M  V30 13494 N 1272.46 6.86125 -0.959366 0
M  V30 13495 N 1274.25 5.5883 -0.605459 0
M  V30 13496 H 1266.41 1.7543 -1.19741 0
M  V30 13497 H 1268.67 0.816537 -0.481634 0
M  V30 13498 H 1268.37 3.28666 -1.25185 0
M  V30 13499 H 1268.25 3.74662 0.436859 0
M  V30 13500 H 1270.64 2.83355 0.824248 0
M  V30 13501 H 1270.72 2.39857 -0.888952 0
M  V30 13502 H 1270.36 4.85077 -1.50543 0
M  V30 13503 H 1270.29 5.26111 0.226773 0
M  V30 13504 H 1272.78 3.77128 -0.241401 0
M  V30 13505 H 1273.09 7.64699 -1.11605 0
M  V30 13506 H 1271.44 6.87814 -0.996816 0
M  V30 13507 H 1274.63 4.6653 -0.383053 0
M  V30 13508 H 1274.8 6.43268 -0.781673 0
M  V30 13509 N 1268.21 -0.0283989 1.57574 0
M  V30 13510 C 1269.43 -0.734537 1.93957 0
M  V30 13511 C 1269.86 -1.68062 0.844787 0
M  V30 13512 O 1269.22 -1.802 -0.199432 0
M  V30 13513 C 1269.27 -1.46716 3.29404 0
M  V30 13514 O 1268.37 -2.58036 3.217 0
M  V30 13515 H 1267.71 -0.197507 0.633946 0
M  V30 13516 H 1270.24 0.0163258 2.04593 0
M  V30 13517 H 1270.25 -1.83693 3.64309 0
M  V30 13518 H 1268.93 -0.773292 4.08648 0
M  V30 13519 H 1267.5 -2.23597 2.98427 0
M  V30 13520 N 1269.69 -1.54705 -0.300681 0
M  V30 13521 C 1270.91 -1.78318 -1.05913 0
M  V30 13522 C 1271.34 -0.541177 -1.80147 0
M  V30 13523 O 1270.7 0.508291 -1.74029 0
M  V30 13524 C 1270.74 -2.99041 -2.01511 0
M  V30 13525 O 1269.85 -2.72188 -3.09818 0
M  V30 13526 H 1269.19 -0.590197 -0.304242 0
M  V30 13527 H 1271.72 -2.01789 -0.338006 0
M  V30 13528 H 1271.73 -3.2702 -2.43971 0
M  V30 13529 H 1270.4 -3.89098 -1.46886 0
M  V30 13530 H 1268.98 -2.55227 -2.71871 0
M  V30 13531 N 1271.17 0.563888 -1.47167 0
M  V30 13532 C 1272.39 1.35176 -1.57297 0
M  V30 13533 C 1272.82 1.86794 -0.221235 0
M  V30 13534 O 1272.17 1.62606 0.801809 0
M  V30 13535 C 1272.22 2.50225 -2.59654 0
M  V30 13536 O 1271.33 3.5225 -2.14461 0
M  V30 13537 H 1270.67 0.401795 -0.528637 0
M  V30 13538 H 1273.2 0.682137 -1.92894 0
M  V30 13539 H 1273.21 2.96886 -2.79862 0
M  V30 13540 H 1271.88 2.1201 -3.57805 0
M  V30 13541 H 1270.46 3.1194 -2.04323 0
M  V30 13542 N 1272.64 1.35187 0.810078 0
M  V30 13543 C 1273.57 1.30481 1.93641 0
M  V30 13544 C 1274.56 0.179875 1.69146 0
M  V30 13545 O 1275.74 0.374284 1.90559 0
M  V30 13546 C 1272.87 1.07251 3.30325 0
M  V30 13547 C 1271.82 2.16348 3.69293 0
M  V30 13548 C 1271.15 1.78288 5.04101 0
M  V30 13549 C 1272.45 3.58285 3.80038 0
M  V30 13550 H 1274.14 2.24725 1.97836 0
M  V30 13551 H 1271.69 1.08179 0.950436 0
M  V30 13552 H 1273.64 1.02599 4.08719 0
M  V30 13553 H 1272.37 0.0945203 3.26463 0
M  V30 13554 H 1271.03 2.2009 2.93182 0
M  V30 13555 H 1270.67 0.791163 4.96739 0
M  V30 13556 H 1270.37 2.51315 5.31144 0
M  V30 13557 H 1271.9 1.75155 5.84938 0
M  V30 13558 H 1273.31 3.56884 4.48672 0
M  V30 13559 H 1271.71 4.30044 4.18548 0
M  V30 13560 H 1272.78 3.94691 2.81685 0
M  V30 13561 N 1274.12 -1.03182 1.19127 0
M  V30 13562 C 1275.37 -1.76794 0.993563 0
M  V30 13563 C 1275.7 -1.88306 -0.474809 0
M  V30 13564 O 1274.98 -1.39769 -1.35258 0
M  V30 13565 C 1275.26 -3.19573 1.65968 0
M  V30 13566 C 1275.11 -3.1595 3.2015 0
M  V30 13567 C 1276.43 -4.17897 1.38023 0
M  V30 13568 H 1273.55 -0.641768 0.362357 0
M  V30 13569 H 1276.19 -1.20472 1.46924 0
M  V30 13570 H 1274.34 -3.67663 1.25524 0
M  V30 13571 H 1276.01 -2.7578 3.69788 0
M  V30 13572 H 1274.26 -2.53743 3.51848 0
M  V30 13573 H 1274.93 -4.16811 3.61901 0
M  V30 13574 H 1277.4 -3.78394 1.73082 0
M  V30 13575 H 1276.28 -5.15997 1.87186 0
M  V30 13576 H 1276.54 -4.41048 0.304812 0
M  V30 13577 N 1275.6 -0.99472 -1.22242 0
M  V30 13578 C 1276.55 -0.53946 -2.26258 0
M  V30 13579 C 1277.54 0.410796 -1.64344 0
M  V30 13580 O 1278.75 0.283116 -1.7776 0
M  V30 13581 H 1275.12 -0.156069 -0.735627 0
M  V30 13582 H 1277.09 -1.42814 -2.62005 0
M  V30 13583 C 1275.84 0.12842 -3.47463 0
M  V30 13584 H 1275.17 -0.593727 -3.95367 0
M  V30 13585 H 1276.61 0.410393 -4.22009 0
M  V30 13586 C 1275.07 1.36433 -3.08038 0
M  V30 13587 O 1275.6 2.45953 -3.176 0
M  V30 13588 N 1273.8 1.24026 -2.62804 0
M  V30 13589 H 1273.35 0.349111 -2.55223 0
M  V30 13590 H 1273.31 2.06824 -2.36794 0
M  V30 13591 N 1277.08 1.37613 -0.768148 0
M  V30 13592 C 1278.01 2.3291 -0.165911 0
M  V30 13593 C 1278.99 1.556 0.687205 0
M  V30 13594 O 1280.17 1.83854 0.625407 0
M  V30 13595 C 1277.3 3.39822 0.7168 0
M  V30 13596 C 1276.26 4.27986 -0.0347264 0
M  V30 13597 C 1275.58 5.2588 0.967192 0
M  V30 13598 C 1276.88 5.08052 -1.21164 0
M  V30 13599 H 1278.58 2.83524 -0.962006 0
M  V30 13600 H 1276.12 1.36318 -0.464051 0
M  V30 13601 H 1278.08 4.05464 1.14789 0
M  V30 13602 H 1276.8 2.87725 1.54538 0
M  V30 13603 H 1275.46 3.6387 -0.446557 0
M  V30 13604 H 1275.11 4.70064 1.79022 0
M  V30 13605 H 1274.81 5.85726 0.468913 0
M  V30 13606 H 1276.33 5.94397 1.3973 0
M  V30 13607 H 1277.75 5.66853 -0.857373 0
M  V30 13608 H 1276.14 5.77206 -1.64176 0
M  V30 13609 H 1277.21 4.40936 -2.0175 0
M  V30 13610 N 1278.56 0.518393 1.4883 0
M  V30 13611 C 1279.8 -0.0118581 2.03397 0
M  V30 13612 C 1280.16 -1.33082 1.3895 0
M  V30 13613 O 1279.45 -1.8435 0.522066 0
M  V30 13614 C 1279.64 -0.203001 3.56823 0
M  V30 13615 C 1279.47 1.09588 4.36143 0
M  V30 13616 C 1278.24 1.65254 4.77514 0
M  V30 13617 C 1280.44 2.00358 4.73668 0
M  V30 13618 N 1278.42 2.89551 5.41326 0
M  V30 13619 C 1279.79 3.09233 5.37378 0
M  V30 13620 C 1281.85 2.00826 4.55602 0
M  V30 13621 C 1280.55 4.18623 5.84933 0
M  V30 13622 C 1282.58 3.09203 5.0413 0
M  V30 13623 C 1281.94 4.16796 5.67856 0
M  V30 13624 H 1278.04 0.0368733 0.78113 0
M  V30 13625 H 1280.62 0.697108 1.81792 0
M  V30 13626 H 1278.79 -0.881039 3.78275 0
M  V30 13627 H 1280.53 -0.731818 3.98028 0
M  V30 13628 H 1277.28 1.19541 4.58265 0
M  V30 13629 H 1277.71 3.52802 5.77806 0
M  V30 13630 H 1282.35 1.18942 4.05725 0
M  V30 13631 H 1280.07 5.01293 6.33823 0
M  V30 13632 H 1283.65 3.10605 4.91951 0
M  V30 13633 H 1282.53 4.99275 6.04726 0
M  V30 13634 N 1280.03 -1.55556 0.252993 0
M  V30 13635 C 1280.98 -2.21634 -0.643979 0
M  V30 13636 C 1281.95 -1.18226 -1.1667 0
M  V30 13637 O 1283.14 -1.46694 -1.22006 0
M  V30 13638 C 1280.28 -2.92429 -1.83246 0
M  V30 13639 C 1279.39 -4.10506 -1.34569 0
M  V30 13640 C 1278.52 -4.69001 -2.49421 0
M  V30 13641 C 1277.56 -5.79315 -1.97636 0
M  V30 13642 N 1276.7 -6.31967 -3.05878 0
M  V30 13643 H 1281.54 -2.97909 -0.0738178 0
M  V30 13644 H 1279.08 -1.47079 -0.0246728 0
M  V30 13645 H 1281.04 -3.31678 -2.53072 0
M  V30 13646 H 1279.67 -2.18617 -2.375 0
M  V30 13647 H 1278.72 -3.76529 -0.541268 0
M  V30 13648 H 1280.03 -4.90125 -0.92622 0
M  V30 13649 H 1279.18 -5.10855 -3.27279 0
M  V30 13650 H 1277.92 -3.88612 -2.94673 0
M  V30 13651 H 1276.93 -5.36933 -1.18251 0
M  V30 13652 H 1278.15 -6.6156 -1.53347 0
M  V30 13653 H 1276.1 -5.5448 -3.50553 0
M  V30 13654 H 1276.02 -7.06797 -2.68281 0
M  V30 13655 H 1277.28 -6.7848 -3.83777 0
M  V30 13656 N 1281.51 0.0200419 -1.57587 0
M  V30 13657 C 1282.93 0.375834 -1.55112 0
M  V30 13658 C 1283.13 1.76047 -0.980297 0
M  V30 13659 O 1282.18 2.45138 -0.605297 0
M  V30 13660 C 1283.5 0.269418 -2.99491 0
M  V30 13661 C 1285.05 0.345838 -3.11084 0
M  V30 13662 C 1285.52 0.268771 -4.57211 0
M  V30 13663 N 1287.01 0.32729 -4.62042 0
M  V30 13664 C 1287.75 0.290688 -5.72663 0
M  V30 13665 N 1287.24 0.205851 -6.92494 0
M  V30 13666 N 1289.04 0.341082 -5.61064 0
M  V30 13667 H 1281.19 -0.885979 -1.93039 0
M  V30 13668 H 1283.45 -0.337753 -0.885792 0
M  V30 13669 H 1283.16 -0.682452 -3.45015 0
M  V30 13670 H 1283.03 1.0595 -3.62014 0
M  V30 13671 H 1285.42 1.28814 -2.65501 0
M  V30 13672 H 1285.5 -0.47376 -2.51375 0
M  V30 13673 H 1285.14 -0.669906 -5.03463 0
M  V30 13674 H 1285.07 1.10659 -5.14842 0
M  V30 13675 H 1287.56 0.395004 -3.7583 0
M  V30 13676 H 1287.88 0.18327 -7.72583 0
M  V30 13677 H 1286.22 0.171768 -6.94788 0
M  V30 13678 H 1289.41 0.405415 -4.66341 0
M  V30 13679 H 1289.58 0.309091 -6.47262 0
M  V30 13680 N 1282.99 1.54862 0.292472 0
M  V30 13681 C 1284.41 1.46267 0.638611 0
M  V30 13682 C 1284.61 0.660824 1.90356 0
M  V30 13683 O 1283.66 0.171909 2.51914 0
M  V30 13684 C 1284.98 2.90309 0.783675 0
M  V30 13685 C 1286.52 3.00404 0.879004 0
M  V30 13686 C 1287 4.4566 1.056 0
M  V30 13687 N 1288.49 4.49406 1.122 0
M  V30 13688 C 1289.22 5.5899 1.2774 0
M  V30 13689 N 1288.72 6.78482 1.40123 0
M  V30 13690 N 1290.51 5.46695 1.30696 0
M  V30 13691 H 1282.66 2.0546 -0.538521 0
M  V30 13692 H 1284.93 0.930879 -0.179354 0
M  V30 13693 H 1284.63 3.5162 -0.0750437 0
M  V30 13694 H 1284.51 3.38215 1.67004 0
M  V30 13695 H 1286.89 2.39201 1.7282 0
M  V30 13696 H 1286.98 2.55781 -0.0315624 0
M  V30 13697 H 1286.62 5.07459 0.211535 0
M  V30 13698 H 1286.55 4.87921 1.98092 0
M  V30 13699 H 1289.04 3.63322 1.03948 0
M  V30 13700 H 1289.35 7.57752 1.5176 0
M  V30 13701 H 1287.7 6.81331 1.37163 0
M  V30 13702 H 1290.89 4.52288 1.20638 0
M  V30 13703 H 1291.06 6.32146 1.42463 0
M  V30 13704 N 1284.47 -0.556076 1.47464 0
M  V30 13705 C 1285.72 -1.31061 1.53842 0
M  V30 13706 C 1286.04 -1.93943 0.202806 0
M  V30 13707 O 1285.31 -1.7999 -0.773338 0
M  V30 13708 H 1283.89 -0.486696 0.566689 0
M  V30 13709 H 1286.55 -0.64924 1.83769 0
M  V30 13710 H 1285.65 -2.10354 2.30559 0
M  V30 13711 N 1285.95 -1.35615 -0.802897 0
M  V30 13712 C 1287.17 -1.32377 -1.59659 0
M  V30 13713 C 1287.6 0.0954235 -1.87858 0
M  V30 13714 O 1286.96 1.06336 -1.46842 0
M  V30 13715 C 1287 -2.13972 -2.90256 0
M  V30 13716 O 1286.11 -1.52296 -3.83249 0
M  V30 13717 H 1285.45 -0.453699 -0.484823 0
M  V30 13718 H 1287.98 -1.78708 -0.996217 0
M  V30 13719 H 1287.99 -2.26061 -3.39647 0
M  V30 13720 H 1286.66 -3.17145 -2.69057 0
M  V30 13721 H 1285.24 -1.49068 -3.41809 0
M  V30 13722 N 1287.43 1.02549 -1.19673 0
M  V30 13723 C 1288.65 1.8016 -1.02748 0
M  V30 13724 C 1289.08 1.83372 0.419105 0
M  V30 13725 O 1288.43 1.26222 1.30144 0
M  V30 13726 C 1288.48 3.22907 -1.60509 0
M  V30 13727 O 1287.59 4.03823 -0.836702 0
M  V30 13728 H 1286.93 0.556027 -0.362946 0
M  V30 13729 H 1289.46 1.29047 -1.5877 0
M  V30 13730 H 1289.47 3.73646 -1.63868 0
M  V30 13731 H 1288.14 3.19885 -2.65794 0
M  V30 13732 H 1286.72 3.6245 -0.876626 0
M  V30 13733 N 1288.9 1.00119 1.21713 0
M  V30 13734 C 1290.15 0.680377 1.90303 0
M  V30 13735 C 1290.47 -0.790927 1.7824 0
M  V30 13736 O 1289.74 -1.5676 1.17486 0
M  V30 13737 H 1288.32 0.248665 0.704397 0
M  V30 13738 H 1290.98 1.26948 1.47886 0
M  V30 13739 H 1290.08 0.950188 2.97284 0
M  V30 13740 N 1290.38 -1.37203 0.775435 0
M  V30 13741 C 1291.29 -2.34019 0.165062 0
M  V30 13742 C 1292.31 -1.6036 -0.675316 0
M  V30 13743 O 1293.48 -1.9243 -0.594375 0
M  V30 13744 C 1290.55 -3.3954 -0.700957 0
M  V30 13745 C 1289.61 -4.29015 0.156304 0
M  V30 13746 C 1288.84 -5.29497 -0.668476 0
M  V30 13747 O 1289.07 -5.37636 -1.90535 0
M  V30 13748 O 1288 -6.01852 -0.0757351 0
M  V30 13749 H 1291.83 -2.87955 0.965184 0
M  V30 13750 H 1289.41 -1.39429 0.536654 0
M  V30 13751 H 1291.29 -4.04094 -1.19524 0
M  V30 13752 H 1289.97 -2.87926 -1.4792 0
M  V30 13753 H 1288.87 -3.67549 0.69703 0
M  V30 13754 H 1290.21 -4.83944 0.897725 0
M  V30 13755 N 1291.86 -0.526279 -1.48553 0
M  V30 13756 C 1293.09 0.0052277 -2.06899 0
M  V30 13757 C 1293.5 1.2849 -1.38332 0
M  V30 13758 O 1292.86 1.76354 -0.469648 0
M  V30 13759 C 1292.91 0.236709 -3.60724 0
M  V30 13760 O 1292.63 -0.992256 -4.26715 0
M  V30 13761 C 1294.13 0.809014 -4.35855 0
M  V30 13762 H 1291.35 -0.0318426 -0.670244 0
M  V30 13763 H 1293.9 -0.730865 -1.90994 0
M  V30 13764 H 1292.05 0.922842 -3.76248 0
M  V30 13765 H 1292.47 -0.770697 -5.18807 0
M  V30 13766 H 1293.94 0.920428 -5.44272 0
M  V30 13767 H 1294.42 1.81302 -4.00033 0
M  V30 13768 H 1295.02 0.159564 -4.25001 0
M  V30 13769 N 1293.34 1.5542 -0.261239 0
M  V30 13770 C 1294.27 2.24949 0.626126 0
M  V30 13771 C 1295.25 1.23474 1.16997 0
M  V30 13772 O 1296.43 1.52161 1.20667 0
M  V30 13773 C 1293.56 2.95996 1.81669 0
M  V30 13774 C 1292.52 4.04282 1.40499 0
M  V30 13775 C 1291.84 4.62831 2.67753 0
M  V30 13776 C 1293.14 5.1923 0.56543 0
M  V30 13777 H 1294.84 2.99364 0.0463164 0
M  V30 13778 H 1292.38 1.43985 0.0208366 0
M  V30 13779 H 1294.34 3.43343 2.44323 0
M  V30 13780 H 1293.06 2.19093 2.42211 0
M  V30 13781 H 1291.72 3.57726 0.801712 0
M  V30 13782 H 1291.37 3.82611 3.26524 0
M  V30 13783 H 1291.07 5.35938 2.40925 0
M  V30 13784 H 1292.59 5.12918 3.31281 0
M  V30 13785 H 1294.01 5.62714 1.09663 0
M  V30 13786 H 1292.4 5.98814 0.392607 0
M  V30 13787 H 1293.47 4.83086 -0.419059 0
M  V30 13788 N 1294.82 -0.0116844 1.57596 0
M  V30 13789 C 1296.23 -0.367602 1.55309 0
M  V30 13790 C 1296.43 -1.75524 0.98962 0
M  V30 13791 O 1295.49 -2.44813 0.618289 0
M  V30 13792 C 1296.8 -0.253532 2.99629 0
M  V30 13793 C 1298.35 -0.329335 3.11263 0
M  V30 13794 C 1298.82 -0.24452 4.57347 0
M  V30 13795 N 1300.31 -0.302782 4.62209 0
M  V30 13796 C 1301.05 -0.260315 5.72809 0
M  V30 13797 N 1300.55 -0.169124 6.92594 0
M  V30 13798 N 1302.34 -0.311323 5.61237 0
M  V30 13799 H 1294.49 0.896204 1.92567 0
M  V30 13800 H 1296.75 0.342445 0.883988 0
M  V30 13801 H 1296.46 0.70074 3.44648 0
M  V30 13802 H 1296.33 -1.04029 3.62571 0
M  V30 13803 H 1298.72 -1.27405 2.66181 0
M  V30 13804 H 1298.8 0.487084 2.5112 0
M  V30 13805 H 1298.44 0.696597 5.031 0
M  V30 13806 H 1298.37 -1.07927 5.15421 0
M  V30 13807 H 1300.87 -0.375067 3.76034 0
M  V30 13808 H 1301.18 -0.142296 7.72669 0
M  V30 13809 H 1299.52 -0.134919 6.94869 0
M  V30 13810 H 1302.71 -0.380678 4.6655 0
M  V30 13811 H 1302.89 -0.274761 6.47417 0
M  V30 13812 N 1296.29 -1.55015 -0.284256 0
M  V30 13813 C 1297.52 -1.78842 -1.03436 0
M  V30 13814 C 1297.93 -0.556301 -1.80837 0
M  V30 13815 O 1297.27 0.483895 -1.77212 0
M  V30 13816 C 1297.34 -2.95412 -2.04871 0
M  V30 13817 C 1297 -4.32878 -1.46512 0
M  V30 13818 C 1298 -5.12286 -0.886535 0
M  V30 13819 C 1295.68 -4.79514 -1.49571 0
M  V30 13820 C 1297.68 -6.36459 -0.346305 0
M  V30 13821 C 1295.36 -6.03645 -0.951613 0
M  V30 13822 C 1296.36 -6.81954 -0.3779 0
M  V30 13823 O 1296.05 -8.03745 0.157894 0
M  V30 13824 H 1295.78 -0.599809 -0.311778 0
M  V30 13825 H 1298.34 -2.0283 -0.323909 0
M  V30 13826 H 1296.57 -2.67089 -2.79644 0
M  V30 13827 H 1298.25 -3.06663 -2.65918 0
M  V30 13828 H 1299.02 -4.77392 -0.855682 0
M  V30 13829 H 1294.9 -4.18579 -1.93165 0
M  V30 13830 H 1298.44 -6.97525 0.102141 0
M  V30 13831 H 1294.34 -6.38023 -0.979669 0
M  V30 13832 H 1295.11 -8.18487 0.046182 0
M  V30 13833 N 1297.77 0.548248 -1.47757 0
M  V30 13834 C 1298.72 1.65453 -1.60916 0
M  V30 13835 C 1299.69 1.59836 -0.451831 0
M  V30 13836 O 1300.87 1.78536 -0.673023 0
M  V30 13837 C 1298.01 3.0376 -1.6378 0
M  V30 13838 C 1297.13 3.19747 -2.90492 0
M  V30 13839 C 1296.26 4.48505 -2.84635 0
M  V30 13840 C 1295.3 4.57956 -4.06132 0
M  V30 13841 N 1294.44 5.78079 -3.98458 0
M  V30 13842 H 1299.28 1.53545 -2.55398 0
M  V30 13843 H 1296.81 0.747826 -1.26673 0
M  V30 13844 H 1298.77 3.8386 -1.63424 0
M  V30 13845 H 1297.4 3.14483 -0.728036 0
M  V30 13846 H 1296.45 2.3302 -3.00676 0
M  V30 13847 H 1297.77 3.22594 -3.8044 0
M  V30 13848 H 1296.92 5.36875 -2.82577 0
M  V30 13849 H 1295.66 4.48151 -1.92385 0
M  V30 13850 H 1294.66 3.67995 -4.08484 0
M  V30 13851 H 1295.89 4.60062 -4.9952 0
M  V30 13852 H 1293.84 5.78657 -3.09017 0
M  V30 13853 H 1293.75 5.82342 -4.82093 0
M  V30 13854 H 1295.02 6.68786 -4.00431 0
M  V30 13855 N 1299.25 1.36039 0.795694 0
M  V30 13856 C 1300.53 1.20474 1.54096 0
M  V30 13857 C 1300.91 -0.211691 2.10036 0
M  V30 13858 O 1300.25 -1.21656 1.93422 0
M  V30 13859 C 1300.46 2.28164 2.64087 0
M  V30 13860 C 1301.81 2.64519 3.32137 0
M  V30 13861 O 1302.84 2.2716 2.74366 0
M  V30 13862 O 1301.7 3.28796 4.36527 0
M  V30 13863 H 1298.79 0.468699 0.681359 0
M  V30 13864 H 1301.34 1.47752 0.834716 0
M  V30 13865 H 1300.11 3.23121 2.20701 0
M  V30 13866 H 1299.73 2.02217 3.42336 0
M  V30 13867 N 1300.73 -1.01913 1.20215 0
M  V30 13868 C 1302.14 -1.27766 0.956459 0
M  V30 13869 C 1302.34 -1.98158 -0.365486 0
M  V30 13870 O 1301.4 -2.27539 -1.09463 0
M  V30 13871 C 1302.71 -2.11516 2.13732 0
M  V30 13872 C 1304.26 -2.24792 2.17802 0
M  V30 13873 C 1304.74 -3.11919 3.35367 0
M  V30 13874 N 1306.23 -3.19507 3.35364 0
M  V30 13875 C 1306.96 -3.8714 4.22978 0
M  V30 13876 N 1306.46 -4.5692 5.20765 0
M  V30 13877 N 1308.25 -3.83638 4.10827 0
M  V30 13878 H 1300.4 -0.546426 2.05251 0
M  V30 13879 H 1302.67 -0.303772 0.898012 0
M  V30 13880 H 1302.37 -1.67127 3.09453 0
M  V30 13881 H 1302.25 -3.12249 2.11614 0
M  V30 13882 H 1304.63 -2.68407 1.22645 0
M  V30 13883 H 1304.71 -1.23576 2.2397 0
M  V30 13884 H 1304.36 -2.6901 4.30809 0
M  V30 13885 H 1304.29 -4.13215 3.26436 0
M  V30 13886 H 1306.78 -2.69819 2.64587 0
M  V30 13887 H 1307.09 -5.06188 5.83947 0
M  V30 13888 H 1305.44 -4.55753 5.24704 0
M  V30 13889 H 1308.63 -3.28268 3.33703 0
M  V30 13890 H 1308.8 -4.36071 4.79318 0
M  V30 13891 N 1302.21 -1.00763 -1.2118 0
M  V30 13892 C 1303.62 -0.720905 -1.42391 0
M  V30 13893 C 1303.82 0.702918 -1.88842 0
M  V30 13894 O 1302.88 1.47191 -2.05161 0
M  V30 13895 C 1304.19 -1.739 -2.45315 0
M  V30 13896 C 1305.74 -1.75611 -2.59094 0
M  V30 13897 C 1306.21 -2.76323 -3.65253 0
M  V30 13898 N 1307.71 -2.75007 -3.72727 0
M  V30 13899 C 1308.44 -3.49594 -4.54502 0
M  V30 13900 N 1307.94 -4.33828 -5.40153 0
M  V30 13901 N 1309.73 -3.38232 -4.4895 0
M  V30 13902 H 1301.88 -1.92697 -0.893404 0
M  V30 13903 H 1304.14 -0.831888 -0.454606 0
M  V30 13904 H 1303.85 -2.75859 -2.18162 0
M  V30 13905 H 1303.72 -1.5438 -3.44161 0
M  V30 13906 H 1306.11 -0.743416 -2.85582 0
M  V30 13907 H 1306.19 -1.99203 -1.60474 0
M  V30 13908 H 1305.84 -3.77751 -3.39509 0
M  V30 13909 H 1305.77 -2.49996 -4.63476 0
M  V30 13910 H 1308.26 -2.13897 -3.11539 0
M  V30 13911 H 1308.57 -4.8753 -5.99612 0
M  V30 13912 H 1306.91 -4.3791 -5.39685 0
M  V30 13913 H 1310.11 -2.71855 -3.81068 0
M  V30 13914 H 1310.28 -3.96615 -5.12445 0
M  V30 13915 N 1303.68 1.3679 -0.7827 0
M  V30 13916 C 1304.61 2.32721 -0.190604 0
M  V30 13917 C 1305.6 1.56321 0.670663 0
M  V30 13918 O 1306.78 1.84507 0.605871 0
M  V30 13919 C 1303.91 3.40564 0.680717 0
M  V30 13920 C 1302.86 4.27925 -0.080118 0
M  V30 13921 C 1302.19 5.26876 0.911361 0
M  V30 13922 C 1303.49 5.06738 -1.26545 0
M  V30 13923 H 1305.18 2.82488 -0.992023 0
M  V30 13924 H 1302.73 1.35818 -0.478484 0
M  V30 13925 H 1304.68 4.06659 1.10482 0
M  V30 13926 H 1303.41 2.89348 1.51477 0
M  V30 13927 H 1302.07 3.63376 -0.485125 0
M  V30 13928 H 1301.71 4.71936 1.74026 0
M  V30 13929 H 1301.41 5.8619 0.406762 0
M  V30 13930 H 1302.94 5.95846 1.33418 0
M  V30 13931 H 1304.35 5.65911 -0.917448 0
M  V30 13932 H 1302.75 5.75432 -1.70289 0
M  V30 13933 H 1303.82 4.38772 -2.06415 0
M  V30 13934 N 1305.16 0.53415 1.48272 0
M  V30 13935 C 1306.13 -0.215641 2.28183 0
M  V30 13936 C 1307.13 -0.863966 1.35618 0
M  V30 13937 O 1308.32 -0.723375 1.58471 0
M  V30 13938 C 1305.45 -1.31251 3.1462 0
M  V30 13939 H 1306.64 0.486014 2.95936 0
M  V30 13940 H 1304.19 0.290237 1.53582 0
M  V30 13941 H 1304.93 -2.04729 2.51508 0
M  V30 13942 H 1304.71 -0.852706 3.82716 0
M  V30 13943 H 1306.2 -1.83978 3.74889 0
M  V30 13944 N 1306.64 -1.55279 0.269478 0
M  V30 13945 C 1307.57 -2.19684 -0.653573 0
M  V30 13946 C 1308.59 -1.17985 -1.12176 0
M  V30 13947 O 1309.77 -1.44739 -1.04464 0
M  V30 13948 C 1306.87 -2.80438 -1.90284 0
M  V30 13949 C 1306.05 -4.07774 -1.58239 0
M  V30 13950 C 1305.11 -4.52629 -2.68354 0
M  V30 13951 O 1304.13 -5.18524 -2.3478 0
M  V30 13952 N 1305.33 -4.22297 -3.98303 0
M  V30 13953 H 1308.1 -2.99525 -0.102379 0
M  V30 13954 H 1305.66 -1.61648 0.0903465 0
M  V30 13955 H 1307.65 -3.07392 -2.63234 0
M  V30 13956 H 1306.22 -2.04622 -2.36323 0
M  V30 13957 H 1305.44 -3.88168 -0.686983 0
M  V30 13958 H 1306.73 -4.90749 -1.34323 0
M  V30 13959 H 1306.13 -3.69441 -4.28404 0
M  V30 13960 H 1304.69 -4.54035 -4.67649 0
M  V30 13961 N 1308.12 0.00332656 -1.576 0
M  V30 13962 C 1309.07 1.00425 -2.04692 0
M  V30 13963 C 1310.05 1.30514 -0.941011 0
M  V30 13964 O 1311.24 1.29667 -1.2048 0
M  V30 13965 C 1308.37 2.29731 -2.55105 0
M  V30 13966 C 1307.46 2.02621 -3.72566 0
M  V30 13967 N 1307.85 1.45657 -4.84373 0
M  V30 13968 C 1306.15 2.3278 -3.80433 0
M  V30 13969 C 1306.85 1.34942 -5.65832 0
M  V30 13970 N 1305.83 1.83389 -5.11732 0
M  V30 13971 H 1309.63 0.558262 -2.88549 0
M  V30 13972 H 1307.14 0.209094 -1.61048 0
M  V30 13973 H 1309.14 3.02274 -2.87116 0
M  V30 13974 H 1307.8 2.74985 -1.72665 0
M  V30 13975 H 1308.81 1.13582 -5.05291 0
M  V30 13976 H 1305.49 2.80932 -3.08842 0
M  V30 13977 H 1306.88 0.911707 -6.65686 0
M  V30 13978 N 1309.6 1.55164 0.276031 0
M  V30 13979 C 1310.54 1.87836 1.34113 0
M  V30 13980 C 1311.51 0.729562 1.4922 0
M  V30 13981 O 1312.7 0.980549 1.63676 0
M  V30 13982 C 1309.84 2.15313 2.69693 0
M  V30 13983 C 1308.95 3.42845 2.62833 0
M  V30 13984 C 1308.09 3.60038 3.90572 0
M  V30 13985 C 1307.13 4.81273 3.7821 0
M  V30 13986 N 1306.26 4.95139 4.97777 0
M  V30 13987 H 1311.1 2.78681 1.0555 0
M  V30 13988 H 1308.64 1.37976 0.510001 0
M  V30 13989 H 1310.6 2.29243 3.48573 0
M  V30 13990 H 1309.23 1.27706 2.96464 0
M  V30 13991 H 1308.28 3.37403 1.75679 0
M  V30 13992 H 1309.59 4.3186 2.49597 0
M  V30 13993 H 1308.75 3.73769 4.77893 0
M  V30 13994 H 1307.48 2.69203 4.06671 0
M  V30 13995 H 1306.49 4.67549 2.89271 0
M  V30 13996 H 1307.71 5.7354 3.63632 0
M  V30 13997 H 1305.66 4.07234 5.14292 0
M  V30 13998 H 1305.58 5.78194 4.8706 0
M  V30 13999 H 1306.85 5.13253 5.86679 0
M  V30 14000 N 1311.07 -0.540404 1.48045 0
M  V30 14001 C 1312.3 -1.32656 1.59427 0
M  V30 14002 C 1312.72 -1.86419 0.250924 0
M  V30 14003 O 1312.08 -1.63861 -0.775838 0
M  V30 14004 C 1312.13 -2.46062 2.63602 0
M  V30 14005 O 1311.23 -3.48794 2.20038 0
M  V30 14006 H 1310.58 -0.393334 0.534962 0
M  V30 14007 H 1313.11 -0.651363 1.93955 0
M  V30 14008 H 1313.12 -2.92396 2.84549 0
M  V30 14009 H 1311.79 -2.06291 3.61133 0
M  V30 14010 H 1310.37 -3.0865 2.0926 0
M  V30 14011 N 1312.55 -1.36459 -0.788468 0
M  V30 14012 C 1313.46 -1.33017 -1.93245 0
M  V30 14013 C 1314.48 -0.232212 -1.72444 0
M  V30 14014 O 1315.65 -0.464743 -1.95965 0
M  V30 14015 C 1312.72 -1.1197 -3.28121 0
M  V30 14016 C 1311.78 -2.3125 -3.61693 0
M  V30 14017 C 1311.01 -2.11197 -4.90134 0
M  V30 14018 O 1311.24 -1.08764 -5.59934 0
M  V30 14019 O 1310.17 -2.98996 -5.22384 0
M  V30 14020 H 1314 -2.29333 -1.99098 0
M  V30 14021 H 1311.58 -1.17016 -0.928856 0
M  V30 14022 H 1313.46 -1.02154 -4.08831 0
M  V30 14023 H 1312.14 -0.187171 -3.23158 0
M  V30 14024 H 1311.05 -2.46635 -2.81286 0
M  V30 14025 H 1312.38 -3.23012 -3.71381 0
M  V30 14026 N 1314.03 1.01274 -1.20754 0
M  V30 14027 C 1315.28 1.74342 -1.01428 0
M  V30 14028 C 1315.59 1.90265 0.453708 0
M  V30 14029 O 1316.8 2.60465 0.76618 0
M  V30 14030 C 1315.25 3.13588 -1.76609 0
M  V30 14031 C 1314.86 3.05664 -3.27526 0
M  V30 14032 C 1316.61 3.9084 -1.65664 0
M  V30 14033 C 1314.51 4.39942 -3.95228 0
M  V30 14034 H 1313.44 0.653619 -0.375897 0
M  V30 14035 H 1316.09 1.13214 -1.44412 0
M  V30 14036 H 1314.48 3.75281 -1.26413 0
M  V30 14037 H 1315.65 2.53256 -3.84965 0
M  V30 14038 H 1313.97 2.41904 -3.38927 0
M  V30 14039 H 1316.56 4.9019 -2.13583 0
M  V30 14040 H 1316.91 4.11754 -0.61351 0
M  V30 14041 H 1317.44 3.35783 -2.13294 0
M  V30 14042 H 1314.18 4.24229 -4.9971 0
M  V30 14043 H 1313.7 4.92342 -3.42578 0
M  V30 14044 H 1315.38 5.08771 -3.99701 0
M  V30 14045 N 1315.51 1.01404 1.20644 0
M  V30 14046 C 1316.42 0.591693 2.27016 0
M  V30 14047 C 1317.44 -0.36958 1.7003 0
M  V30 14048 O 1318.61 -0.231165 2.00069 0
M  V30 14049 C 1315.68 -0.0659827 3.46637 0
M  V30 14050 C 1314.74 0.940911 4.18862 0
M  V30 14051 C 1313.97 0.314526 5.32772 0
M  V30 14052 O 1314.19 -0.886404 5.63471 0
M  V30 14053 O 1313.13 1.02998 5.93022 0
M  V30 14054 H 1316.95 1.4772 2.65353 0
M  V30 14055 H 1314.54 0.783399 1.27213 0
M  V30 14056 H 1316.42 -0.433412 4.19165 0
M  V30 14057 H 1315.1 -0.925729 3.10181 0
M  V30 14058 H 1314 1.35966 3.48517 0
M  V30 14059 H 1315.34 1.77054 4.59252 0
M  V30 14060 N 1316.99 -1.36373 0.789944 0
M  V30 14061 C 1318.23 -2.0106 0.367995 0
M  V30 14062 C 1318.59 -1.61336 -1.0409 0
M  V30 14063 O 1319.79 -2.18618 -1.56396 0
M  V30 14064 C 1318.06 -3.53492 0.527106 0
M  V30 14065 S 1319.62 -4.38375 0.193113 0
M  V30 14066 H 1316.44 -0.696965 0.140573 0
M  V30 14067 H 1319.04 -1.66256 1.02855 0
M  V30 14068 H 1317.75 -3.7989 1.55279 0
M  V30 14069 H 1317.28 -3.93116 -0.149364 0
M  V30 14070 H 1319.29 -4.85913 -1.00513 0
M  V30 14071 N 1318.47 -0.542005 -1.47987 0
M  V30 14072 C 1319.71 -0.0123116 -2.02496 0
M  V30 14073 C 1320.04 1.33136 -1.41793 0
M  V30 14074 O 1319.3 1.87591 -0.557501 0
M  V30 14075 C 1319.59 0.146208 -3.57101 0
M  V30 14076 C 1319.26 -1.12463 -4.3665 0
M  V30 14077 C 1317.92 -1.47289 -4.58104 0
M  V30 14078 C 1320.27 -1.96746 -4.82639 0
M  V30 14079 C 1317.6 -2.66273 -5.22796 0
M  V30 14080 C 1319.95 -3.14919 -5.48643 0
M  V30 14081 C 1318.62 -3.50077 -5.68333 0
M  V30 14082 H 1317.89 -0.00450514 -0.740986 0
M  V30 14083 H 1320.54 -0.710455 -1.77834 0
M  V30 14084 H 1318.84 0.927209 -3.80671 0
M  V30 14085 H 1320.54 0.571161 -3.96912 0
M  V30 14086 H 1317.13 -0.843429 -4.20219 0
M  V30 14087 H 1321.31 -1.71149 -4.65856 0
M  V30 14088 H 1316.57 -2.937 -5.36237 0
M  V30 14089 H 1320.74 -3.80525 -5.83244 0
M  V30 14090 H 1318.37 -4.42371 -6.18233 0
M  V30 14091 N 1319.94 1.55134 -0.277709 0
M  V30 14092 C 1321.17 2.04061 0.341601 0
M  V30 14093 C 1321.59 1.15597 1.49274 0
M  V30 14094 O 1320.94 0.176625 1.81643 0
M  V30 14095 C 1320.99 3.52074 0.820139 0
M  V30 14096 O 1320.72 4.37171 -0.28516 0
M  V30 14097 C 1322.22 4.16899 1.507 0
M  V30 14098 H 1319.44 0.666501 0.0775708 0
M  V30 14099 H 1321.98 2.00336 -0.410559 0
M  V30 14100 H 1320.14 3.56233 1.52238 0
M  V30 14101 H 1320.55 5.24434 0.0832022 0
M  V30 14102 H 1322.02 5.22061 1.79323 0
M  V30 14103 H 1322.5 3.65227 2.43939 0
M  V30 14104 H 1323.11 4.16749 0.848541 0
M  V30 14105 N 1321.42 0.00503138 1.57599 0
M  V30 14106 C 1322.83 -0.537106 1.78807 0
M  V30 14107 C 1323.18 -1.73666 0.912945 0
M  V30 14108 O 1322.31 -2.16085 0.116775 0
M  V30 14109 C 1322.9 -0.98116 3.24282 0
M  V30 14110 C 1321.46 -1.46857 3.46569 0
M  V30 14111 C 1320.61 -0.422088 2.74069 0
M  V30 14112 H 1323.56 0.231182 1.57007 0
M  V30 14113 H 1323.58 -1.8469 3.32671 0
M  V30 14114 H 1323.09 -0.107907 3.8795 0
M  V30 14115 H 1321.19 -2.36255 2.88122 0
M  V30 14116 H 1321.31 -1.49256 4.55258 0
M  V30 14117 H 1319.67 -0.884853 2.38836 0
M  V30 14118 H 1320.45 0.442285 3.40439 0
M  V30 14119 N 1322.9 -1.55308 -0.267798 0
M  V30 14120 C 1323.85 -1.88544 -1.33115 0
M  V30 14121 C 1324.82 -0.737465 -1.48831 0
M  V30 14122 O 1326 -0.989215 -1.63154 0
M  V30 14123 C 1323.14 -2.1674 -2.68547 0
M  V30 14124 C 1322.25 -3.44234 -2.61011 0
M  V30 14125 C 1321.39 -3.62104 -3.88657 0
M  V30 14126 C 1320.43 -4.83272 -3.75652 0
M  V30 14127 N 1319.57 -4.97772 -4.95144 0
M  V30 14128 H 1324.41 -2.79237 -1.04071 0
M  V30 14129 H 1321.94 -1.38245 -0.502677 0
M  V30 14130 H 1323.9 -2.31088 -3.47353 0
M  V30 14131 H 1322.53 -1.29276 -2.95783 0
M  V30 14132 H 1321.58 -3.3833 -1.73887 0
M  V30 14133 H 1322.89 -4.33177 -2.47303 0
M  V30 14134 H 1322.05 -3.76298 -4.75904 0
M  V30 14135 H 1320.79 -2.71356 -4.05238 0
M  V30 14136 H 1319.79 -4.69076 -2.86788 0
M  V30 14137 H 1321.02 -5.75461 -3.60585 0
M  V30 14138 H 1318.96 -4.09956 -5.12125 0
M  V30 14139 H 1318.88 -5.80769 -4.83987 0
M  V30 14140 H 1320.15 -5.16357 -5.83949 0
M  V30 14141 N 1324.38 0.532545 -1.4833 0
M  V30 14142 C 1325.63 1.28597 -1.55908 0
M  V30 14143 C 1325.95 1.93595 -0.233635 0
M  V30 14144 O 1325.22 1.81197 0.744605 0
M  V30 14145 H 1323.8 0.477619 -0.57436 0
M  V30 14146 H 1326.46 0.619922 -1.84778 0
M  V30 14147 H 1325.55 2.0666 -2.33877 0
M  V30 14148 N 1325.86 1.36875 0.78122 0
M  V30 14149 C 1327.08 1.349 1.57533 0
M  V30 14150 C 1327.51 -0.0655249 1.87986 0
M  V30 14151 O 1326.86 -1.03986 1.48515 0
M  V30 14152 C 1326.91 2.18562 2.86815 0
M  V30 14153 O 1326.02 1.58374 3.80777 0
M  V30 14154 H 1325.36 0.461355 0.477543 0
M  V30 14155 H 1327.89 1.80271 0.96766 0
M  V30 14156 H 1327.9 2.31436 3.36008 0
M  V30 14157 H 1326.57 3.21385 2.63978 0
M  V30 14158 H 1325.15 1.54487 3.39394 0
M  V30 14159 N 1327.33 -1.00632 1.21289 0
M  V30 14160 C 1328.27 -2.09085 0.914258 0
M  V30 14161 C 1329.24 -1.62016 -0.137697 0
M  V30 14162 O 1330.43 -1.88498 -0.00902131 0
M  V30 14163 C 1327.56 -3.36645 0.37254 0
M  V30 14164 C 1326.6 -4.0262 1.40709 0
M  V30 14165 S 1327.43 -4.45203 2.97582 0
M  V30 14166 C 1328.59 -5.75951 2.45013 0
M  V30 14167 H 1328.82 -2.34094 1.83268 0
M  V30 14168 H 1326.36 -1.13893 1.04248 0
M  V30 14169 H 1328.31 -4.10446 0.0665561 0
M  V30 14170 H 1326.98 -3.09689 -0.524546 0
M  V30 14171 H 1326.17 -4.94427 0.977642 0
M  V30 14172 H 1325.77 -3.35088 1.66108 0
M  V30 14173 H 1328.06 -6.51634 1.85416 0
M  V30 14174 H 1329.01 -6.23706 3.35257 0
M  V30 14175 H 1329.41 -5.32707 1.8677 0
M  V30 14176 N 1328.81 -1.02043 -1.20104 0
M  V30 14177 C 1330.06 -0.710566 -1.89197 0
M  V30 14178 C 1330.38 0.762471 -1.79475 0
M  V30 14179 O 1329.65 1.54871 -1.19965 0
M  V30 14180 H 1328.23 -0.259839 -0.700352 0
M  V30 14181 H 1330.89 -1.29285 -1.45848 0
M  V30 14182 H 1329.99 -0.997363 -2.95735 0
M  V30 14183 N 1330.29 1.35952 -0.797165 0
M  V30 14184 C 1331.24 2.31831 -0.188958 0
M  V30 14185 C 1332.23 1.56181 0.656042 0
M  V30 14186 O 1333.44 1.71383 0.550259 0
M  V30 14187 H 1329.81 0.750807 -0.0423354 0
M  V30 14188 H 1331.78 2.80683 -1.0129 0
M  V30 14189 C 1330.53 3.41464 0.655547 0
M  V30 14190 H 1329.86 3.99797 0.0146854 0
M  V30 14191 H 1331.3 4.10853 1.04765 0
M  V30 14192 C 1329.76 2.83696 1.81709 0
M  V30 14193 O 1330.29 2.76484 2.91409 0
M  V30 14194 N 1328.49 2.40876 1.62564 0
M  V30 14195 H 1328.04 2.46941 0.733337 0
M  V30 14196 H 1328 2.02572 2.40441 0
M  V30 14197 N 1331.77 0.549846 1.47697 0
M  V30 14198 C 1333.02 0.0230048 2.02087 0
M  V30 14199 C 1333.34 -1.32865 1.4273 0
M  V30 14200 O 1332.61 -1.86492 0.59981 0
M  V30 14201 H 1331.19 0.00551514 0.74698 0
M  V30 14202 H 1333.85 0.718185 1.81185 0
M  V30 14203 H 1332.95 -0.0705813 3.1202 0
M  V30 14204 N 1333.25 -1.54984 0.285932 0
M  V30 14205 C 1334.49 -1.99436 -0.32709 0
M  V30 14206 C 1334.82 -1.17582 -1.55562 0
M  V30 14207 O 1334.09 -0.268002 -1.94058 0
M  V30 14208 H 1332.67 -0.736662 -0.123846 0
M  V30 14209 H 1335.33 -1.90881 0.393774 0
M  V30 14210 H 1334.42 -3.0609 -0.609523 0
M  V30 14211 N 1334.72 -0.0133892 -1.57594 0
M  V30 14212 C 1336.14 0.342848 -1.55874 0
M  V30 14213 C 1336.34 1.73928 -1.01742 0
M  V30 14214 O 1335.4 2.43798 -0.657158 0
M  V30 14215 C 1336.71 0.205831 -2.99995 0
M  V30 14216 C 1338.26 0.279774 -3.11747 0
M  V30 14217 C 1338.73 0.171729 -4.57678 0
M  V30 14218 N 1340.22 0.22921 -4.62633 0
M  V30 14219 C 1340.96 0.169153 -5.7315 0
M  V30 14220 N 1340.45 0.0589166 -6.92775 0
M  V30 14221 N 1342.25 0.221995 -5.61661 0
M  V30 14222 H 1334.4 -0.926727 -1.91117 0
M  V30 14223 H 1336.66 -0.356466 -0.878428 0
M  V30 14224 H 1336.37 -0.755482 -3.4349 0
M  V30 14225 H 1336.24 0.982476 -3.6418 0
M  V30 14226 H 1338.63 1.23154 -2.68174 0
M  V30 14227 H 1338.71 -0.526974 -2.50313 0
M  V30 14228 H 1338.35 -0.776547 -5.01928 0
M  V30 14229 H 1338.28 0.997138 -5.17073 0
M  V30 14230 H 1340.77 0.315196 -3.76583 0
M  V30 14231 H 1341.09 0.0193526 -7.72798 0
M  V30 14232 H 1339.43 0.0243543 -6.94996 0
M  V30 14233 H 1342.62 0.306406 -4.67096 0
M  V30 14234 H 1342.8 0.171727 -6.47772 0
M  V30 14235 N 1336.2 1.55448 0.259558 0
M  V30 14236 C 1337.17 1.88459 1.30445 0
M  V30 14237 C 1338.17 0.760096 1.41701 0
M  V30 14238 O 1339.36 1.02819 1.4062 0
M  V30 14239 C 1336.49 2.10181 2.68397 0
M  V30 14240 H 1337.68 2.81877 1.02398 0
M  V30 14241 H 1335.23 1.48145 0.498262 0
M  V30 14242 H 1335.97 1.19189 3.01603 0
M  V30 14243 H 1335.75 2.92066 2.6161 0
M  V30 14244 H 1337.24 2.36947 3.43869 0
M  V30 14245 N 1337.68 -0.524672 1.4861 0
M  V30 14246 C 1338.91 -1.30482 1.60568 0
M  V30 14247 C 1339.32 -1.86889 0.267952 0
M  V30 14248 O 1338.68 -1.66669 -0.743488 0
M  V30 14249 C 1338.73 -2.45191 2.65638 0
M  V30 14250 O 1338.45 -1.91107 3.9422 0
M  V30 14251 C 1339.95 -3.36931 2.88084 0
M  V30 14252 H 1337.17 -0.396612 0.541239 0
M  V30 14253 H 1339.72 -0.632392 1.94476 0
M  V30 14254 H 1337.87 -3.08308 2.34574 0
M  V30 14255 H 1338.29 -2.66234 4.51907 0
M  V30 14256 H 1339.76 -4.13755 3.65391 0
M  V30 14257 H 1340.24 -3.92487 1.97106 0
M  V30 14258 H 1340.84 -2.79601 3.20473 0
M  V30 14259 N 1339.16 -1.37287 -0.77395 0
M  V30 14260 C 1340.09 -1.27239 -1.89435 0
M  V30 14261 C 1341.07 -0.153365 -1.61875 0
M  V30 14262 O 1342.25 -0.327193 -1.85639 0
M  V30 14263 C 1339.38 -0.966771 -3.24609 0
M  V30 14264 C 1338.43 -2.10237 -3.71083 0
M  V30 14265 S 1339.26 -3.72188 -3.85014 0
M  V30 14266 C 1340.42 -3.43773 -5.2304 0
M  V30 14267 H 1340.65 -2.22068 -1.97669 0
M  V30 14268 H 1338.18 -1.22884 -0.93482 0
M  V30 14269 H 1340.14 -0.797268 -4.02683 0
M  V30 14270 H 1338.8 -0.0359985 -3.14079 0
M  V30 14271 H 1337.99 -1.84349 -4.69075 0
M  V30 14272 H 1337.6 -2.23189 -3.00104 0
M  V30 14273 H 1339.89 -2.98625 -6.08136 0
M  V30 14274 H 1340.83 -4.41085 -5.5394 0
M  V30 14275 H 1341.24 -2.78753 -4.90873 0
M  V30 14276 N 1340.64 0.999871 -1.21821 0
M  V30 14277 C 1341.86 1.7794 -1.06546 0
M  V30 14278 C 1342.29 1.84219 0.380115 0
M  V30 14279 O 1341.64 1.28955 1.27438 0
M  V30 14280 C 1341.69 3.1943 -1.67322 0
M  V30 14281 O 1340.8 4.01957 -0.922171 0
M  V30 14282 H 1340.14 0.548204 -0.374658 0
M  V30 14283 H 1342.67 1.2565 -1.61472 0
M  V30 14284 H 1342.68 3.70086 -1.71757 0
M  V30 14285 H 1341.35 3.14175 -2.7252 0
M  V30 14286 H 1339.93 3.60509 -0.95331 0
M  V30 14287 N 1342.11 1.02678 1.19562 0
M  V30 14288 C 1343.34 0.741424 1.93695 0
M  V30 14289 C 1343.76 -0.693203 1.74861 0
M  V30 14290 O 1343.12 -1.47833 1.04953 0
M  V30 14291 C 1343.17 1.09514 3.43568 0
M  V30 14292 O 1342.27 0.212596 4.11852 0
M  V30 14293 H 1341.62 0.274128 0.604773 0
M  V30 14294 H 1344.15 1.37289 1.517 0
M  V30 14295 H 1344.16 1.05115 3.94227 0
M  V30 14296 H 1342.83 2.14034 3.56598 0
M  V30 14297 H 1341.41 0.315 3.71567 0
M  V30 14298 N 1343.59 -1.35528 0.804364 0
M  V30 14299 C 1344.82 -2.03604 0.395013 0
M  V30 14300 C 1345.24 -1.60225 -0.985371 0
M  V30 14301 O 1344.6 -0.777844 -1.63766 0
M  V30 14302 C 1344.65 -3.57337 0.484011 0
M  V30 14303 O 1343.75 -4.09316 -0.503395 0
M  V30 14304 H 1343.09 -0.643089 0.165325 0
M  V30 14305 H 1345.62 -1.73171 1.08963 0
M  V30 14306 H 1345.63 -4.0647 0.353009 0
M  V30 14307 H 1344.31 -3.8826 1.49088 0
M  V30 14308 H 1342.89 -3.71412 -0.332817 0
M  V30 14309 N 1345.07 -0.557671 -1.47404 0
M  V30 14310 C 1346.02 0.202834 -2.31714 0
M  V30 14311 C 1347.01 0.908873 -1.42954 0
M  V30 14312 O 1348.22 0.830106 -1.59716 0
M  V30 14313 H 1344.59 0.0842824 -0.747262 0
M  V30 14314 H 1346.57 -0.527431 -2.93702 0
M  V30 14315 C 1345.31 1.21937 -3.25617 0
M  V30 14316 H 1344.64 0.685506 -3.93879 0
M  V30 14317 H 1346.08 1.72237 -3.87441 0
M  V30 14318 C 1344.54 2.26748 -2.49173 0
M  V30 14319 O 1345.07 3.33681 -2.23651 0
M  V30 14320 N 1343.27 2.00687 -2.10174 0
M  V30 14321 H 1342.82 1.13741 -2.3113 0
M  V30 14322 H 1342.78 2.71031 -1.59342 0
M  V30 14323 N 1346.55 1.54831 -0.294147 0
M  V30 14324 C 1347.8 1.99606 0.316509 0
M  V30 14325 C 1348.12 1.18405 1.54936 0
M  V30 14326 O 1347.39 0.278289 1.93913 0
M  V30 14327 H 1345.97 0.737309 0.119938 0
M  V30 14328 H 1348.63 1.90669 -0.403891 0
M  V30 14329 H 1347.73 3.06409 0.593282 0
M  V30 14330 N 1348.03 0.0217466 1.57585 0
M  V30 14331 C 1348.97 -0.962559 2.0977 0
M  V30 14332 C 1349.94 -1.32771 0.998053 0
M  V30 14333 O 1351.13 -1.42231 1.27181 0
M  V30 14334 C 1348.27 -2.24214 2.62339 0
M  V30 14335 C 1347.38 -1.9341 3.86286 0
M  V30 14336 C 1346.52 -3.15609 4.27275 0
M  V30 14337 C 1345.56 -2.8059 5.43999 0
M  V30 14338 N 1344.69 -3.95392 5.8018 0
M  V30 14339 H 1349.53 -0.510626 2.93593 0
M  V30 14340 H 1347.07 -0.240456 1.45121 0
M  V30 14341 H 1349.03 -2.99049 2.90905 0
M  V30 14342 H 1347.66 -2.67037 1.81358 0
M  V30 14343 H 1346.71 -1.08849 3.64494 0
M  V30 14344 H 1348.02 -1.63614 4.71203 0
M  V30 14345 H 1347.18 -3.9877 4.57239 0
M  V30 14346 H 1345.92 -3.48561 3.41111 0
M  V30 14347 H 1344.92 -1.9584 5.13738 0
M  V30 14348 H 1346.15 -2.48863 6.31858 0
M  V30 14349 H 1344.09 -4.282 4.96971 0
M  V30 14350 H 1344.01 -3.69195 6.59721 0
M  V30 14351 H 1345.28 -4.79279 6.14746 0
M  V30 14352 N 1349.51 -1.55583 -0.251311 0
M  V30 14353 C 1350.73 -1.81597 -1.00186 0
M  V30 14354 C 1351.16 -0.598216 -1.78334 0
M  V30 14355 O 1350.51 0.452667 -1.75558 0
M  V30 14356 C 1350.56 -3.05301 -1.91895 0
M  V30 14357 O 1349.67 -2.81907 -3.01002 0
M  V30 14358 H 1349.01 -0.599578 -0.285311 0
M  V30 14359 H 1351.54 -2.02762 -0.273638 0
M  V30 14360 H 1351.55 -3.34616 -2.33444 0
M  V30 14361 H 1350.22 -3.93574 -1.34433 0
M  V30 14362 H 1348.8 -2.63747 -2.63613 0
M  V30 14363 N 1350.98 0.516783 -1.48886 0
M  V30 14364 C 1352.23 1.27375 -1.57808 0
M  V30 14365 C 1352.56 1.92492 -0.256963 0
M  V30 14366 O 1351.84 1.79947 0.738193 0
M  V30 14367 C 1352.12 2.35295 -2.72595 0
M  V30 14368 C 1351.97 1.74783 -4.14453 0
M  V30 14369 C 1353.29 3.36973 -2.83085 0
M  V30 14370 H 1350.41 0.46175 -0.574418 0
M  V30 14371 H 1353.05 0.57434 -1.81111 0
M  V30 14372 H 1351.2 2.94951 -2.52857 0
M  V30 14373 H 1352.88 1.19076 -4.45666 0
M  V30 14374 H 1351.12 1.05258 -4.20836 0
M  V30 14375 H 1351.79 2.52985 -4.90615 0
M  V30 14376 H 1354.27 2.87289 -3.01005 0
M  V30 14377 H 1353.14 4.09864 -3.65106 0
M  V30 14378 H 1353.4 3.98336 -1.91784 0
M  V30 14379 N 1352.46 1.37696 0.766659 0
M  V30 14380 C 1353.69 1.3639 1.55581 0
M  V30 14381 C 1354.1 -0.0495272 1.88735 0
M  V30 14382 O 1353.46 -1.01268 1.51826 0
M  V30 14383 C 1353.51 2.20717 2.86298 0
M  V30 14384 O 1353.23 3.56552 2.54563 0
M  V30 14385 C 1354.73 2.27446 3.80504 0
M  V30 14386 H 1351.95 0.466993 0.481828 0
M  V30 14387 H 1354.5 1.81103 0.949834 0
M  V30 14388 H 1352.65 1.79499 3.43306 0
M  V30 14389 H 1353.07 4.00811 3.38306 0
M  V30 14390 H 1354.54 2.90762 4.69214 0
M  V30 14391 H 1355.02 1.28434 4.20002 0
M  V30 14392 H 1355.62 2.68998 3.29424 0
M  V30 14393 N 1353.94 -0.993397 1.22349 0
M  V30 14394 C 1355.19 -1.73635 1.05936 0
M  V30 14395 C 1355.54 -1.88166 -0.401414 0
M  V30 14396 O 1354.83 -1.41338 -1.2936 0
M  V30 14397 C 1355.03 -3.14191 1.70349 0
M  V30 14398 C 1354.86 -3.13367 3.22539 0
M  V30 14399 C 1353.63 -3.19289 3.91641 0
M  V30 14400 C 1355.82 -2.97559 4.1948 0
M  V30 14401 N 1353.81 -3.08213 5.30922 0
M  V30 14402 C 1355.18 -2.94506 5.45588 0
M  V30 14403 C 1357.23 -2.81947 4.10378 0
M  V30 14404 C 1355.94 -2.7744 6.63641 0
M  V30 14405 C 1357.96 -2.66241 5.28081 0
M  V30 14406 C 1357.32 -2.63875 6.53107 0
M  V30 14407 H 1353.42 -0.64505 0.44208 0
M  V30 14408 H 1356.01 -1.17981 1.54882 0
M  V30 14409 H 1354.18 -3.6809 1.23954 0
M  V30 14410 H 1355.91 -3.77046 1.47032 0
M  V30 14411 H 1352.66 -3.26951 3.42637 0
M  V30 14412 H 1353.09 -3.05986 6.03905 0
M  V30 14413 H 1357.73 -2.82574 3.14502 0
M  V30 14414 H 1355.45 -2.75558 7.59666 0
M  V30 14415 H 1359.03 -2.55144 5.2287 0
M  V30 14416 H 1357.91 -2.5187 7.42652 0
M  V30 14417 N 1355.42 -1.03311 -1.19015 0
M  V30 14418 C 1356.38 -0.622114 -2.20596 0
M  V30 14419 C 1357.38 0.316502 -1.57654 0
M  V30 14420 O 1358.57 0.102932 -1.73896 0
M  V30 14421 C 1355.7 0.0890432 -3.40784 0
M  V30 14422 H 1356.9 -1.52095 -2.58471 0
M  V30 14423 H 1354.45 -0.824777 -1.32767 0
M  V30 14424 H 1355.18 1.00203 -3.08431 0
M  V30 14425 H 1354.97 -0.58547 -3.87704 0
M  V30 14426 H 1356.46 0.363366 -4.16016 0
M  V30 14427 N 1356.9 1.35099 -0.81154 0
M  V30 14428 C 1357.83 2.28468 -0.183012 0
M  V30 14429 C 1358.84 1.50509 0.620553 0
M  V30 14430 O 1360.03 1.7268 0.4521 0
M  V30 14431 C 1357.13 3.30201 0.762933 0
M  V30 14432 C 1356.3 4.374 0.00466561 0
M  V30 14433 C 1355.36 5.18961 0.869832 0
M  V30 14434 O 1354.39 5.68306 0.318964 0
M  V30 14435 N 1355.59 5.37555 2.19123 0
M  V30 14436 H 1358.35 2.83046 -0.985132 0
M  V30 14437 H 1355.92 1.47502 -0.667449 0
M  V30 14438 H 1357.91 3.81659 1.34606 0
M  V30 14439 H 1356.48 2.76101 1.46584 0
M  V30 14440 H 1355.7 3.8681 -0.759702 0
M  V30 14441 H 1356.99 5.06159 -0.517739 0
M  V30 14442 H 1356.38 4.99118 2.66266 0
M  V30 14443 H 1354.94 5.92174 2.72348 0
M  V30 14444 N 1358.37 0.56548 1.47106 0
M  V30 14445 C 1359.32 -0.190542 2.31818 0
M  V30 14446 C 1360.32 -0.901279 1.43434 0
M  V30 14447 O 1361.52 -0.821625 1.60154 0
M  V30 14448 H 1357.9 -0.0803183 0.747698 0
M  V30 14449 H 1359.87 0.542999 2.93418 0
M  V30 14450 C 1358.62 -1.20208 3.2626 0
M  V30 14451 H 1357.94 -0.664608 3.94237 0
M  V30 14452 H 1359.38 -1.7018 3.88349 0
M  V30 14453 C 1357.84 -2.25423 2.50372 0
M  V30 14454 O 1358.37 -3.3249 2.25418 0
M  V30 14455 N 1356.57 -1.9957 2.11235 0
M  V30 14456 H 1356.12 -1.12513 2.31729 0
M  V30 14457 H 1356.08 -2.70182 1.60777 0
M  V30 14458 N 1359.85 -1.54672 0.302354 0
M  V30 14459 C 1360.76 -2.27251 -0.582578 0
M  V30 14460 C 1361.78 -1.30819 -1.14727 0
M  V30 14461 O 1362.95 -1.63803 -1.17177 0
M  V30 14462 C 1360.02 -3.00016 -1.73757 0
M  V30 14463 C 1359.08 -4.11988 -1.20682 0
M  V30 14464 C 1358.31 -4.81273 -2.30676 0
M  V30 14465 O 1358.54 -4.49927 -3.50602 0
M  V30 14466 O 1357.47 -5.68647 -1.97291 0
M  V30 14467 H 1361.3 -3.03699 0.00621365 0
M  V30 14468 H 1358.88 -1.49242 0.0687684 0
M  V30 14469 H 1360.76 -3.45652 -2.41045 0
M  V30 14470 H 1359.44 -2.26462 -2.31294 0
M  V30 14471 H 1358.35 -3.70749 -0.499625 0
M  V30 14472 H 1359.68 -4.87524 -0.676858 0
M  V30 14473 N 1361.33 -0.0301034 -1.57571 0
M  V30 14474 C 1362.28 0.951421 -2.10277 0
M  V30 14475 C 1363.25 1.3224 -1.00508 0
M  V30 14476 O 1364.43 1.41554 -1.27934 0
M  V30 14477 C 1361.57 2.2282 -2.63525 0
M  V30 14478 C 1360.69 1.91359 -3.87306 0
M  V30 14479 C 1359.82 3.13339 -4.28943 0
M  V30 14480 C 1358.86 2.77701 -5.4548 0
M  V30 14481 N 1358 3.9231 -5.82269 0
M  V30 14482 H 1362.84 0.495049 -2.93859 0
M  V30 14483 H 1360.37 0.232756 -1.45247 0
M  V30 14484 H 1362.33 2.97502 -2.92487 0
M  V30 14485 H 1360.96 2.66072 -1.82772 0
M  V30 14486 H 1360.01 1.06915 -3.65066 0
M  V30 14487 H 1361.33 1.61112 -4.72064 0
M  V30 14488 H 1360.48 3.9634 -4.59347 0
M  V30 14489 H 1359.22 3.46747 -3.42954 0
M  V30 14490 H 1358.22 1.93113 -5.14769 0
M  V30 14491 H 1359.45 2.45508 -6.33169 0
M  V30 14492 H 1357.39 4.25559 -4.99235 0
M  V30 14493 H 1357.31 3.65691 -6.61669 0
M  V30 14494 H 1358.58 4.76012 -6.17279 0
M  V30 14495 N 1362.81 1.55714 0.243056 0
M  V30 14496 C 1364.03 1.82126 0.992219 0
M  V30 14497 C 1364.46 0.607665 1.78014 0
M  V30 14498 O 1363.82 -0.443351 1.75796 0
M  V30 14499 C 1363.86 3.06314 1.90274 0
M  V30 14500 O 1362.97 2.83499 2.99503 0
M  V30 14501 H 1362.31 0.601082 0.282128 0
M  V30 14502 H 1364.84 2.02904 0.262881 0
M  V30 14503 H 1364.85 3.35849 2.31666 0
M  V30 14504 H 1363.52 3.94282 1.32344 0
M  V30 14505 H 1362.1 2.65141 2.62211 0
M  V30 14506 N 1364.29 -0.50888 1.49158 0
M  V30 14507 C 1365.51 -1.29245 1.62205 0
M  V30 14508 C 1365.94 -1.85845 0.29041 0
M  V30 14509 O 1365.29 -1.6547 -0.740906 0
M  V30 14510 C 1365.34 -2.40415 2.68762 0
M  V30 14511 O 1364.45 -3.44048 2.27387 0
M  V30 14512 H 1363.79 -0.381898 0.543185 0
M  V30 14513 H 1366.32 -0.610076 1.95293 0
M  V30 14514 H 1366.33 -2.86295 2.90688 0
M  V30 14515 H 1365 -1.98584 3.65427 0
M  V30 14516 H 1363.58 -3.04141 2.1576 0
M  V30 14517 N 1365.76 -1.381 -0.759346 0
M  V30 14518 C 1367.18 -1.19171 -1.06162 0
M  V30 14519 C 1367.38 -0.0364043 -2.01467 0
M  V30 14520 O 1366.44 0.619635 -2.44779 0
M  V30 14521 C 1367.75 -2.51569 -1.64723 0
M  V30 14522 C 1369.3 -2.58201 -1.76921 0
M  V30 14523 C 1369.77 -3.9076 -2.38894 0
M  V30 14524 N 1371.26 -3.92269 -2.46331 0
M  V30 14525 C 1372 -4.91595 -2.95164 0
M  V30 14526 N 1371.49 -6.01318 -3.44075 0
M  V30 14527 N 1373.29 -4.7899 -2.94152 0
M  V30 14528 H 1365.44 -2.12021 -0.126788 0
M  V30 14529 H 1367.7 -0.940517 -0.118877 0
M  V30 14530 H 1367.41 -3.36535 -1.02162 0
M  V30 14531 H 1367.28 -2.69551 -2.6386 0
M  V30 14532 H 1369.67 -1.73634 -2.38611 0
M  V30 14533 H 1369.75 -2.44092 -0.765047 0
M  V30 14534 H 1369.39 -4.75747 -1.7784 0
M  V30 14535 H 1369.32 -4.02179 -3.39941 0
M  V30 14536 H 1371.81 -3.13015 -2.11731 0
M  V30 14537 H 1372.13 -6.73046 -3.79776 0
M  V30 14538 H 1370.47 -6.04946 -3.42148 0
M  V30 14539 H 1373.66 -3.92385 -2.55248 0
M  V30 14540 H 1373.84 -5.5655 -3.31897 0
M  V30 14541 N 1367.24 0.986894 -1.22875 0
M  V30 14542 C 1368.49 1.72388 -1.05484 0
M  V30 14543 C 1368.81 1.90639 0.410074 0
M  V30 14544 O 1368.08 1.47036 1.2945 0
M  V30 14545 H 1366.66 0.638732 -0.387337 0
M  V30 14546 H 1369.32 1.18829 -1.54485 0
M  V30 14547 H 1368.42 2.71599 -1.53754 0
M  V30 14548 N 1368.72 1.0394 1.18466 0
M  V30 14549 C 1369.65 0.587413 2.21545 0
M  V30 14550 C 1370.67 -0.34227 1.59161 0
M  V30 14551 O 1371.85 -0.136988 1.77974 0
M  V30 14552 C 1368.95 -0.161999 3.38513 0
M  V30 14553 C 1368.13 0.775243 4.30475 0
M  V30 14554 C 1367.19 0.0693526 5.26154 0
M  V30 14555 O 1366.21 0.69937 5.64887 0
M  V30 14556 N 1367.41 -1.19773 5.68009 0
M  V30 14557 H 1370.18 1.47399 2.60948 0
M  V30 14558 H 1367.74 0.919734 1.33239 0
M  V30 14559 H 1369.73 -0.644041 3.99542 0
M  V30 14560 H 1368.3 -0.950099 2.97812 0
M  V30 14561 H 1367.52 1.43717 3.67068 0
M  V30 14562 H 1368.81 1.41187 4.88819 0
M  V30 14563 H 1368.21 -1.73013 5.38593 0
M  V30 14564 H 1366.77 -1.62407 6.31243 0
M  V30 14565 N 1370.2 -1.34667 0.818693 0
M  V30 14566 C 1371.15 -2.27031 0.210001 0
M  V30 14567 C 1372.13 -1.48338 -0.623258 0
M  V30 14568 O 1373.32 -1.70409 -0.478531 0
M  V30 14569 C 1370.45 -3.37457 -0.63069 0
M  V30 14570 C 1369.54 -4.23565 0.212964 0
M  V30 14571 N 1369.93 -4.89286 1.28191 0
M  V30 14572 C 1368.23 -4.46 -0.00340477 0
M  V30 14573 C 1368.93 -5.53216 1.79798 0
M  V30 14574 N 1367.91 -5.32302 1.10253 0
M  V30 14575 H 1371.71 -2.75345 1.02773 0
M  V30 14576 H 1369.22 -1.48336 0.661071 0
M  V30 14577 H 1371.22 -4.0259 -1.0829 0
M  V30 14578 H 1369.88 -2.90694 -1.44663 0
M  V30 14579 H 1370.89 -4.90417 1.66467 0
M  V30 14580 H 1367.57 -4.10005 -0.787516 0
M  V30 14581 H 1368.96 -6.15613 2.69203 0
M  V30 14582 N 1371.68 -0.573274 -1.46804 0
M  V30 14583 C 1372.61 0.153316 -2.32996 0
M  V30 14584 C 1373.59 0.893013 -1.44773 0
M  V30 14585 O 1374.77 0.870329 -1.73606 0
M  V30 14586 C 1371.9 1.1736 -3.2687 0
M  V30 14587 C 1370.86 0.549347 -4.2446 0
M  V30 14588 C 1370.18 1.67542 -5.07773 0
M  V30 14589 C 1371.48 -0.50736 -5.1983 0
M  V30 14590 H 1373.18 -0.566305 -2.93995 0
M  V30 14591 H 1370.72 -0.273785 -1.41373 0
M  V30 14592 H 1372.68 1.6902 -3.86019 0
M  V30 14593 H 1371.4 1.92337 -2.63958 0
M  V30 14594 H 1370.06 0.0539142 -3.6656 0
M  V30 14595 H 1369.71 2.41463 -4.41253 0
M  V30 14596 H 1369.41 1.26343 -5.73856 0
M  V30 14597 H 1370.93 2.19496 -5.69784 0
M  V30 14598 H 1372.34 -0.0762061 -5.73249 0
M  V30 14599 H 1370.74 -0.839139 -5.94204 0
M  V30 14600 H 1371.81 -1.39723 -4.64333 0
M  V30 14601 N 1373.15 1.5451 -0.310553 0
M  V30 14602 C 1374.4 2.01334 0.289169 0
M  V30 14603 C 1374.76 1.195 1.5079 0
M  V30 14604 O 1374.05 0.265743 1.89748 0
M  V30 14605 C 1374.24 3.5072 0.68779 0
M  V30 14606 C 1374.07 4.47014 -0.490764 0
M  V30 14607 C 1372.84 4.95591 -0.98579 0
M  V30 14608 C 1375.04 4.96569 -1.3388 0
M  V30 14609 N 1373.02 5.7576 -2.13011 0
M  V30 14610 C 1374.39 5.74534 -2.33047 0
M  V30 14611 C 1376.45 4.78736 -1.36807 0
M  V30 14612 C 1375.15 6.36565 -3.3493 0
M  V30 14613 C 1377.18 5.41593 -2.37553 0
M  V30 14614 C 1376.54 6.19398 -3.35448 0
M  V30 14615 H 1372.64 0.77886 0.070013 0
M  V30 14616 H 1375.22 1.89602 -0.442639 0
M  V30 14617 H 1373.39 3.62723 1.38875 0
M  V30 14618 H 1375.12 3.84327 1.26787 0
M  V30 14619 H 1371.88 4.70287 -0.559195 0
M  V30 14620 H 1372.3 6.20526 -2.70696 0
M  V30 14621 H 1376.95 4.18156 -0.624923 0
M  V30 14622 H 1374.66 6.96273 -4.10158 0
M  V30 14623 H 1378.25 5.29718 -2.40603 0
M  V30 14624 H 1377.13 6.67173 -4.12128 0
M  V30 14625 N 1374.63 0.0384594 1.57553 0
M  V30 14626 C 1375.57 -0.969185 2.077 0
M  V30 14627 C 1376.58 -1.2829 1.00227 0
M  V30 14628 O 1377.77 -1.24592 1.27824 0
M  V30 14629 C 1374.87 -2.29414 2.49444 0
M  V30 14630 C 1374.04 -2.16422 3.80106 0
M  V30 14631 C 1373.1 -3.31931 4.08299 0
M  V30 14632 O 1372.13 -3.08401 4.78412 0
M  V30 14633 N 1373.33 -4.56015 3.59208 0
M  V30 14634 H 1376.09 -0.541252 2.94772 0
M  V30 14635 H 1373.65 -0.148084 1.61221 0
M  V30 14636 H 1375.65 -3.05533 2.6539 0
M  V30 14637 H 1374.22 -2.63817 1.67688 0
M  V30 14638 H 1373.44 -1.24973 3.73866 0
M  V30 14639 H 1374.72 -2.04954 4.65694 0
M  V30 14640 H 1374.12 -4.78025 3.02503 0
M  V30 14641 H 1372.68 -5.29271 3.80415 0
M  V30 14642 N 1376.11 -1.55841 -0.234795 0
M  V30 14643 C 1377.53 -1.48536 -0.583885 0
M  V30 14644 C 1377.73 -0.731018 -1.87772 0
M  V30 14645 O 1376.78 -0.265287 -2.51103 0
M  V30 14646 C 1378.1 -2.93017 -0.675389 0
M  V30 14647 C 1379.64 -3.03459 -0.766906 0
M  V30 14648 C 1380.12 -4.49272 -0.889868 0
M  V30 14649 N 1381.61 -4.5326 -0.95443 0
M  V30 14650 C 1382.35 -5.63346 -1.06905 0
M  V30 14651 N 1381.84 -6.83215 -1.14845 0
M  V30 14652 N 1383.63 -5.51169 -1.10315 0
M  V30 14653 H 1375.79 -2.0332 0.614405 0
M  V30 14654 H 1378.05 -0.923581 0.213779 0
M  V30 14655 H 1377.75 -3.51099 0.205493 0
M  V30 14656 H 1377.63 -3.4418 -1.54337 0
M  V30 14657 H 1380.02 -2.4545 -1.63823 0
M  V30 14658 H 1380.1 -2.55487 0.126472 0
M  V30 14659 H 1379.74 -5.07895 -0.0230489 0
M  V30 14660 H 1379.67 -4.94937 -1.79847 0
M  V30 14661 H 1382.16 -3.6693 -0.903923 0
M  V30 14662 H 1382.47 -7.62863 -1.23532 0
M  V30 14663 H 1380.82 -6.85952 -1.11781 0
M  V30 14664 H 1384.01 -4.56453 -1.03769 0
M  V30 14665 H 1384.18 -6.36998 -1.18903 0
M  V30 14666 N 1377.59 0.500963 -1.49426 0
M  V30 14667 C 1378.52 1.61114 -1.69011 0
M  V30 14668 C 1379.5 1.61341 -0.538813 0
M  V30 14669 O 1380.69 1.78081 -0.77466 0
M  V30 14670 C 1377.82 2.99598 -1.75666 0
M  V30 14671 C 1376.77 3.14236 -2.90585 0
M  V30 14672 C 1376.1 4.54071 -2.82354 0
M  V30 14673 C 1377.4 2.94258 -4.3152 0
M  V30 14674 H 1379.09 1.44978 -2.61957 0
M  V30 14675 H 1376.64 0.69603 -1.26061 0
M  V30 14676 H 1378.59 3.77163 -1.87953 0
M  V30 14677 H 1377.31 3.16822 -0.793186 0
M  V30 14678 H 1375.97 2.39096 -2.779 0
M  V30 14679 H 1375.62 4.68172 -1.83914 0
M  V30 14680 H 1375.32 4.64806 -3.59485 0
M  V30 14681 H 1376.84 5.33696 -2.96649 0
M  V30 14682 H 1378.26 3.61592 -4.44886 0
M  V30 14683 H 1376.65 3.16464 -5.09873 0
M  V30 14684 H 1377.72 1.90383 -4.45962 0
M  V30 14685 N 1379.07 1.38501 0.752011 0
M  V30 14686 C 1380.29 1.38212 1.54636 0
M  V30 14687 C 1380.72 -0.0256356 1.88083 0
M  V30 14688 O 1380.08 -1.00812 1.50687 0
M  V30 14689 C 1380.12 2.24597 2.82114 0
M  V30 14690 O 1379.23 1.66415 3.77332 0
M  V30 14691 H 1378.57 0.47138 0.46765 0
M  V30 14692 H 1381.1 1.82283 0.929205 0
M  V30 14693 H 1381.11 2.38511 3.31023 0
M  V30 14694 H 1379.78 3.26913 2.57101 0
M  V30 14695 H 1378.36 1.61651 3.36041 0
M  V30 14696 N 1380.55 -0.980364 1.23396 0
M  V30 14697 C 1381.79 -1.71592 1.06015 0
M  V30 14698 C 1382.11 -1.91401 -0.403103 0
M  V30 14699 O 1383.31 -2.62405 -0.696853 0
M  V30 14700 C 1381.77 -3.08795 1.84861 0
M  V30 14701 C 1381.38 -2.96873 3.35515 0
M  V30 14702 C 1383.12 -3.8631 1.75968 0
M  V30 14703 C 1381.03 -4.29308 4.06753 0
M  V30 14704 H 1379.96 -0.643423 0.393095 0
M  V30 14705 H 1382.61 -1.09345 1.47363 0
M  V30 14706 H 1380.99 -3.71797 1.36318 0
M  V30 14707 H 1382.17 -2.4296 3.91544 0
M  V30 14708 H 1380.48 -2.32833 3.45221 0
M  V30 14709 H 1383.08 -4.84355 2.26504 0
M  V30 14710 H 1383.42 -4.09983 0.722464 0
M  V30 14711 H 1383.95 -3.3001 2.22122 0
M  V30 14712 H 1380.69 -4.10831 5.10782 0
M  V30 14713 H 1380.21 -4.83086 3.55511 0
M  V30 14714 H 1381.89 -4.97995 4.1305 0
M  V30 14715 N 1382.02 -1.04567 -1.17913 0
M  V30 14716 C 1382.97 -0.611407 -2.19649 0
M  V30 14717 C 1383.96 0.348802 -1.57074 0
M  V30 14718 O 1385.15 0.167045 -1.7621 0
M  V30 14719 C 1382.28 0.0189379 -3.43295 0
M  V30 14720 C 1381.36 -0.96472 -4.12982 0
M  V30 14721 N 1381.76 -2.13371 -4.58592 0
M  V30 14722 C 1380.05 -0.791817 -4.38915 0
M  V30 14723 C 1380.75 -2.75549 -5.12296 0
M  V30 14724 N 1379.73 -2.0339 -5.04117 0
M  V30 14725 H 1383.53 -1.50217 -2.5261 0
M  V30 14726 H 1381.05 -0.914946 -1.34173 0
M  V30 14727 H 1383.04 0.347776 -4.15447 0
M  V30 14728 H 1381.7 0.905177 -3.11828 0
M  V30 14729 H 1382.71 -2.51236 -4.52881 0
M  V30 14730 H 1379.39 0.0439054 -4.17477 0
M  V30 14731 H 1380.78 -3.74647 -5.57754 0
M  V30 14732 N 1383.5 1.34231 -0.825823 0
M  V30 14733 C 1384.75 1.97454 -0.411661 0
M  V30 14734 C 1385.06 1.66193 1.03147 0
M  V30 14735 O 1386.27 2.22929 1.54968 0
M  V30 14736 C 1384.73 3.53318 -0.685145 0
M  V30 14737 C 1384.33 3.9347 -2.14208 0
M  V30 14738 C 1386.08 4.23158 -0.337291 0
M  V30 14739 C 1383.98 5.42258 -2.3603 0
M  V30 14740 H 1382.91 0.738889 -0.150196 0
M  V30 14741 H 1385.57 1.53033 -1.01258 0
M  V30 14742 H 1383.95 3.95998 -0.0140178 0
M  V30 14743 H 1385.12 3.61888 -2.85261 0
M  V30 14744 H 1383.44 3.36575 -2.45165 0
M  V30 14745 H 1386.03 5.32558 -0.47813 0
M  V30 14746 H 1386.38 4.10053 0.718499 0
M  V30 14747 H 1386.91 3.85965 -0.963113 0
M  V30 14748 H 1383.65 5.60352 -3.40126 0
M  V30 14749 H 1383.17 5.75345 -1.69524 0
M  V30 14750 H 1384.85 6.08976 -2.18533 0
M  V30 14751 N 1384.98 0.581051 1.46498 0
M  V30 14752 C 1385.93 -0.165944 2.32007 0
M  V30 14753 C 1386.92 -0.886015 1.44382 0
M  V30 14754 O 1388.13 -0.804592 1.61017 0
M  V30 14755 H 1384.5 -0.0723834 0.748508 0
M  V30 14756 H 1386.47 0.574089 2.92826 0
M  V30 14757 C 1385.22 -1.16741 3.27516 0
M  V30 14758 H 1384.55 -0.622756 3.9492 0
M  V30 14759 H 1385.99 -1.66052 3.90132 0
M  V30 14760 C 1384.44 -2.22755 2.52749 0
M  V30 14761 O 1384.97 -3.30081 2.28932 0
M  V30 14762 N 1383.18 -1.97318 2.1334 0
M  V30 14763 H 1382.73 -1.10049 2.3291 0
M  V30 14764 H 1382.69 -2.68461 1.63633 0
M  V30 14765 N 1386.46 -1.54343 0.318742 0
M  V30 14766 C 1387.4 -2.24166 -0.549397 0
M  V30 14767 C 1388.37 -1.23068 -1.1155 0
M  V30 14768 O 1389.56 -1.51737 -1.15674 0
M  V30 14769 C 1386.7 -2.99938 -1.70678 0
M  V30 14770 C 1385.81 -4.15844 -1.17037 0
M  V30 14771 C 1384.95 -4.79158 -2.29305 0
M  V30 14772 C 1383.99 -5.87176 -1.72888 0
M  V30 14773 N 1383.12 -6.44372 -2.78799 0
M  V30 14774 H 1387.96 -2.97954 0.0526018 0
M  V30 14775 H 1385.5 -1.47052 0.0377307 0
M  V30 14776 H 1387.46 -3.42113 -2.38777 0
M  V30 14777 H 1386.09 -2.28494 -2.28014 0
M  V30 14778 H 1385.14 -3.78486 -0.381082 0
M  V30 14779 H 1386.45 -4.93612 -0.717507 0
M  V30 14780 H 1385.61 -5.24277 -3.05317 0
M  V30 14781 H 1384.35 -4.0076 -2.77926 0
M  V30 14782 H 1383.35 -5.41465 -0.953714 0
M  V30 14783 H 1384.58 -6.67469 -1.2515 0
M  V30 14784 H 1382.52 -5.6885 -3.2672 0
M  V30 14785 H 1382.44 -7.17539 -2.38062 0
M  V30 14786 H 1383.71 -6.94147 -3.54655 0
M  V30 14787 N 1387.94 -0.0468143 -1.5753 0
M  V30 14788 C 1388.88 0.929065 -2.11275 0
M  V30 14789 C 1389.85 1.31166 -1.01905 0
M  V30 14790 O 1391.04 1.40189 -1.29428 0
M  V30 14791 C 1388.18 2.20012 -2.65873 0
M  V30 14792 C 1387.29 1.8724 -3.89314 0
M  V30 14793 C 1386.43 3.08772 -4.32242 0
M  V30 14794 C 1385.46 2.719 -5.48395 0
M  V30 14795 N 1384.6 3.86112 -5.86397 0
M  V30 14796 H 1389.44 0.463854 -2.94368 0
M  V30 14797 H 1386.98 0.217338 -1.45486 0
M  V30 14798 H 1388.94 2.94383 -2.95626 0
M  V30 14799 H 1387.57 2.64118 -1.85584 0
M  V30 14800 H 1386.62 1.03037 -3.6618 0
M  V30 14801 H 1387.93 1.56096 -4.73746 0
M  V30 14802 H 1387.08 3.91446 -4.63525 0
M  V30 14803 H 1385.82 3.4309 -3.46613 0
M  V30 14804 H 1384.83 1.87642 -5.16789 0
M  V30 14805 H 1386.05 2.38779 -6.35737 0
M  V30 14806 H 1384 4.2024 -5.03721 0
M  V30 14807 H 1383.92 3.58652 -6.65511 0
M  V30 14808 H 1385.18 4.69438 -6.22293 0
M  V30 14809 N 1389.41 1.55964 0.226527 0
M  V30 14810 C 1390.32 1.95169 1.30178 0
M  V30 14811 C 1391.34 0.854831 1.51554 0
M  V30 14812 O 1392.52 1.15798 1.64781 0
M  V30 14813 C 1389.58 2.25612 2.63249 0
M  V30 14814 C 1388.64 3.4884 2.50219 0
M  V30 14815 C 1387.88 3.77822 3.76944 0
M  V30 14816 O 1388.1 3.08556 4.79739 0
M  V30 14817 O 1387.03 4.7132 3.74354 0
M  V30 14818 H 1390.86 2.86794 0.999145 0
M  V30 14819 H 1388.44 1.43109 0.42898 0
M  V30 14820 H 1390.33 2.4641 3.41848 0
M  V30 14821 H 1389 1.37162 2.93203 0
M  V30 14822 H 1387.91 3.33326 1.69836 0
M  V30 14823 H 1389.24 4.37657 2.25205 0
M  V30 14824 N 1390.89 -0.493031 1.4969 0
M  V30 14825 C 1391.84 -1.61449 1.67442 0
M  V30 14826 C 1392.83 -1.60553 0.540296 0
M  V30 14827 O 1394.04 -1.64965 0.720167 0
M  V30 14828 H 1390.42 -0.535337 0.528127 0
M  V30 14829 H 1392.39 -1.43631 2.61558 0
M  V30 14830 C 1391.14 -2.99537 1.76559 0
M  V30 14831 H 1390.46 -3.00936 2.63206 0
M  V30 14832 H 1391.9 -3.77521 1.93013 0
M  V30 14833 C 1390.36 -3.32984 0.512176 0
M  V30 14834 O 1390.89 -4.00096 -0.35857 0
M  V30 14835 N 1389.09 -2.882 0.372734 0
M  V30 14836 H 1388.64 -2.3376 1.08232 0
M  V30 14837 H 1388.6 -3.10945 -0.464804 0
M  V30 14838 N 1392.37 -1.38898 -0.744656 0
M  V30 14839 C 1393.78 -1.31789 -1.32244 0
M  V30 14840 C 1394.13 0.0222208 -1.96187 0
M  V30 14841 O 1393.26 0.924328 -1.95666 0
M  V30 14842 C 1393.85 -2.38674 -2.40458 0
M  V30 14843 C 1392.41 -2.35116 -2.93935 0
M  V30 14844 C 1391.56 -2.21069 -1.67403 0
M  V30 14845 H 1394.51 -1.49126 -0.54287 0
M  V30 14846 H 1394.53 -2.04905 -3.20615 0
M  V30 14847 H 1394.04 -3.36197 -1.9389 0
M  V30 14848 H 1392.14 -1.41201 -3.44809 0
M  V30 14849 H 1392.26 -3.29602 -3.47706 0
M  V30 14850 H 1390.62 -1.68074 -1.91372 0
M  V30 14851 H 1391.4 -3.20547 -1.229 0
M  V30 14852 N 1393.85 0.973806 -1.23914 0
M  V30 14853 C 1394.8 2.08861 -1.02372 0
M  V30 14854 C 1395.79 1.69354 0.039415 0
M  V30 14855 O 1397 1.79635 -0.114637 0
M  V30 14856 H 1393.37 0.683313 -0.313986 0
M  V30 14857 H 1395.34 2.24195 -1.96924 0
M  V30 14858 C 1394.09 3.41784 -0.638661 0
M  V30 14859 H 1393.41 3.72639 -1.44846 0
M  V30 14860 H 1394.85 4.20706 -0.527487 0
M  V30 14861 C 1393.31 3.30497 0.65369 0
M  V30 14862 O 1393.84 3.63905 1.70107 0
M  V30 14863 N 1392.05 2.83642 0.632104 0
M  V30 14864 H 1391.6 2.56654 -0.220571 0
M  V30 14865 H 1391.55 2.76472 1.49701 0
M  V30 14866 N 1395.33 1.05191 1.17357 0
M  V30 14867 C 1396.26 0.610878 2.20909 0
M  V30 14868 C 1397.27 -0.325369 1.59515 0
M  V30 14869 O 1398.46 -0.118104 1.78109 0
M  V30 14870 C 1395.56 -0.126086 3.38665 0
M  V30 14871 C 1394.73 0.820857 4.29629 0
M  V30 14872 C 1393.79 0.125154 5.26051 0
M  V30 14873 O 1392.82 0.759245 5.64114 0
M  V30 14874 N 1394.02 -1.13742 5.69248 0
M  V30 14875 H 1396.79 1.50158 2.5937 0
M  V30 14876 H 1394.35 0.933814 1.32256 0
M  V30 14877 H 1396.34 -0.601627 4.00203 0
M  V30 14878 H 1394.91 -0.918459 2.98803 0
M  V30 14879 H 1394.13 1.47602 3.65523 0
M  V30 14880 H 1395.42 1.46363 4.87294 0
M  V30 14881 H 1394.81 -1.67291 5.40398 0
M  V30 14882 H 1393.37 -1.55703 6.3293 0
M  V30 14883 N 1396.8 -1.33791 0.83293 0
M  V30 14884 C 1398.03 -2.02187 0.439077 0
M  V30 14885 C 1398.45 -1.62692 -0.957958 0
M  V30 14886 O 1397.8 -0.837302 -1.62159 0
M  V30 14887 C 1397.86 -3.57395 0.543232 0
M  V30 14888 O 1397.58 -3.95463 1.88522 0
M  V30 14889 C 1399.08 -4.43061 0.145567 0
M  V30 14890 H 1396.3 -0.64778 0.174992 0
M  V30 14891 H 1398.84 -1.7085 1.12386 0
M  V30 14892 H 1397 -3.87287 -0.0935746 0
M  V30 14893 H 1397.41 -4.90164 1.86653 0
M  V30 14894 H 1398.88 -5.51342 0.269507 0
M  V30 14895 H 1399.36 -4.29628 -0.911934 0
M  V30 14896 H 1399.97 -4.18517 0.756572 0
M  V30 14897 N 1398.28 -0.588812 -1.46187 0
M  V30 14898 C 1399.25 0.130803 -2.28826 0
M  V30 14899 C 1400.25 0.813037 -1.38731 0
M  V30 14900 O 1401.44 0.664061 -1.61046 0
M  V30 14901 C 1398.57 1.19484 -3.19275 0
M  V30 14902 H 1399.76 -0.595514 -2.93928 0
M  V30 14903 H 1397.31 -0.347038 -1.52399 0
M  V30 14904 H 1398.05 1.95254 -2.58933 0
M  V30 14905 H 1397.83 0.710077 -3.85617 0
M  V30 14906 H 1399.32 1.69938 -3.81459 0
M  V30 14907 N 1399.76 1.54172 -0.326923 0
M  V30 14908 C 1401.01 2.00926 0.275047 0
M  V30 14909 C 1401.34 1.21469 1.51522 0
M  V30 14910 O 1400.61 0.297871 1.92206 0
M  V30 14911 C 1400.9 3.54967 0.605833 0
M  V30 14912 C 1400.75 4.45147 -0.645279 0
M  V30 14913 C 1402.07 4.16489 1.42213 0
M  V30 14914 H 1399.19 0.730389 0.098495 0
M  V30 14915 H 1401.83 1.84735 -0.444168 0
M  V30 14916 H 1399.98 3.68895 1.21857 0
M  V30 14917 H 1401.65 4.43085 -1.2835 0
M  V30 14918 H 1399.9 4.14686 -1.27349 0
M  V30 14919 H 1400.57 5.50763 -0.36932 0
M  V30 14920 H 1403.04 4.06158 0.904172 0
M  V30 14921 H 1401.92 5.24377 1.62234 0
M  V30 14922 H 1402.18 3.70032 2.41928 0
M  V30 14923 N 1401.24 0.0551678 1.57503 0
M  V30 14924 C 1402.49 -0.617201 1.92025 0
M  V30 14925 C 1402.8 -1.71767 0.93571 0
M  V30 14926 O 1404.01 -2.44847 1.17312 0
M  V30 14927 C 1402.46 -1.14915 3.41061 0
M  V30 14928 C 1402.07 -0.0805814 4.47928 0
M  V30 14929 C 1403.81 -1.79654 3.8461 0
M  V30 14930 C 1401.72 -0.625639 5.88081 0
M  V30 14931 H 1400.65 -0.23431 0.716669 0
M  V30 14932 H 1403.3 0.124706 1.83076 0
M  V30 14933 H 1401.68 -1.9435 3.45028 0
M  V30 14934 H 1402.86 0.693222 4.55556 0
M  V30 14935 H 1401.17 0.469581 4.13744 0
M  V30 14936 H 1403.77 -2.21436 4.86693 0
M  V30 14937 H 1404.11 -2.64987 3.21073 0
M  V30 14938 H 1404.65 -1.06868 3.83176 0
M  V30 14939 H 1401.39 0.190148 6.55224 0
M  V30 14940 H 1400.91 -1.36734 5.84007 0
M  V30 14941 H 1402.58 -1.10728 6.37454 0
M  V30 14942 N 1402.72 -1.56081 -0.218252 0
M  V30 14943 C 1403.66 -1.92684 -1.27049 0
M  V30 14944 C 1404.63 -0.784441 -1.46409 0
M  V30 14945 O 1405.82 -1.04062 -1.59924 0
M  V30 14946 C 1402.96 -2.25174 -2.61516 0
M  V30 14947 C 1402.07 -3.52364 -2.49927 0
M  V30 14948 C 1401.21 -3.74286 -3.7694 0
M  V30 14949 C 1400.25 -4.94979 -3.60087 0
M  V30 14950 N 1399.38 -5.13273 -4.79057 0
M  V30 14951 H 1404.22 -2.82406 -0.951347 0
M  V30 14952 H 1401.76 -1.39774 -0.458441 0
M  V30 14953 H 1403.72 -2.42022 -3.39825 0
M  V30 14954 H 1402.35 -1.38621 -2.9152 0
M  V30 14955 H 1401.4 -3.43691 -1.63036 0
M  V30 14956 H 1402.71 -4.40826 -2.33397 0
M  V30 14957 H 1401.87 -3.91248 -4.63692 0
M  V30 14958 H 1400.6 -2.84111 -3.96399 0
M  V30 14959 H 1399.61 -4.77963 -2.71719 0
M  V30 14960 H 1400.83 -5.86641 -3.42095 0
M  V30 14961 H 1398.78 -4.26041 -4.98824 0
M  V30 14962 H 1398.7 -5.95873 -4.65265 0
M  V30 14963 H 1399.97 -5.34673 -5.67226 0
M  V30 14964 N 1404.2 0.485086 -1.49949 0
M  V30 14965 C 1405.61 1.06629 -1.53255 0
M  V30 14966 C 1405.96 1.9344 -0.327915 0
M  V30 14967 O 1405.08 2.09011 0.560669 0
M  V30 14968 C 1405.68 1.94053 -2.77721 0
M  V30 14969 C 1404.24 2.47307 -2.83754 0
M  V30 14970 C 1403.38 1.25307 -2.47373 0
M  V30 14971 H 1406.33 0.268297 -1.56416 0
M  V30 14972 H 1406.36 2.78946 -2.58784 0
M  V30 14973 H 1405.87 1.30843 -3.65379 0
M  V30 14974 H 1403.97 3.1411 -2.00414 0
M  V30 14975 H 1404.08 2.83371 -3.86313 0
M  V30 14976 H 1402.45 1.5834 -1.99501 0
M  V30 14977 H 1403.23 0.637815 -3.37323 0
M  V30 14978 N 1405.67 1.39291 0.737279 0
M  V30 14979 C 1406.92 1.3639 1.49679 0
M  V30 14980 C 1407.25 -0.0408859 1.94457 0
M  V30 14981 O 1406.5 -1.02127 1.66939 0
M  V30 14982 C 1406.8 2.28043 2.75193 0
M  V30 14983 C 1406.47 3.75717 2.49294 0
M  V30 14984 C 1405.13 4.15955 2.41941 0
M  V30 14985 C 1407.48 4.69127 2.27088 0
M  V30 14986 C 1404.81 5.47669 2.10419 0
M  V30 14987 C 1407.16 6.01116 1.97084 0
M  V30 14988 C 1405.83 6.4042 1.88197 0
M  V30 14989 H 1405.1 0.499088 0.547716 0
M  V30 14990 H 1407.74 1.71779 0.846416 0
M  V30 14991 H 1406.05 1.85765 3.44962 0
M  V30 14992 H 1407.75 2.23093 3.33212 0
M  V30 14993 H 1404.34 3.43825 2.55896 0
M  V30 14994 H 1408.52 4.38875 2.31739 0
M  V30 14995 H 1403.78 5.77046 2.02059 0
M  V30 14996 H 1407.95 6.73026 1.78909 0
M  V30 14997 H 1405.58 7.42401 1.63537 0
M  V30 14998 N 1407.15 -0.967221 1.24429 0
M  V30 14999 C 1408.56 -1.52488 1.07723 0
M  V30 15000 C 1408.91 -1.93031 -0.351191 0
M  V30 15001 O 1408.04 -1.77376 -1.23963 0
M  V30 15002 C 1408.63 -2.77107 1.94929 0
M  V30 15003 C 1407.19 -3.29227 1.82446 0
M  V30 15004 C 1406.34 -2.02133 1.89835 0
M  V30 15005 H 1409.29 -0.785465 1.37899 0
M  V30 15006 H 1409.31 -3.50459 1.48186 0
M  V30 15007 H 1408.82 -2.47567 2.98885 0
M  V30 15008 H 1406.92 -3.63617 0.813246 0
M  V30 15009 H 1407.04 -3.98095 2.66566 0
M  V30 15010 H 1405.4 -2.16867 1.3357 0
M  V30 15011 H 1406.18 -1.74958 2.95372 0
M  V30 15012 N 1408.63 -1.05812 -1.16797 0
M  V30 15013 C 1409.58 -0.664599 -2.21024 0
M  V30 15014 C 1410.55 0.336352 -1.62659 0
M  V30 15015 O 1411.73 0.226346 -1.89453 0
M  V30 15016 C 1408.87 -0.0520739 -3.45061 0
M  V30 15017 C 1407.98 -1.10261 -4.17692 0
M  V30 15018 C 1407.12 -0.456746 -5.29233 0
M  V30 15019 C 1406.16 -1.49116 -5.93659 0
M  V30 15020 N 1405.3 -0.869002 -6.96701 0
M  V30 15021 H 1410.14 -1.55784 -2.54038 0
M  V30 15022 H 1407.67 -0.778993 -1.2478 0
M  V30 15023 H 1409.63 0.320552 -4.15967 0
M  V30 15024 H 1408.26 0.804592 -3.12612 0
M  V30 15025 H 1407.31 -1.593 -3.45438 0
M  V30 15026 H 1408.62 -1.88757 -4.61706 0
M  V30 15027 H 1407.78 -0.0308814 -6.06692 0
M  V30 15028 H 1406.52 0.360131 -4.86369 0
M  V30 15029 H 1405.52 -1.92697 -5.14925 0
M  V30 15030 H 1406.75 -2.31005 -6.38603 0
M  V30 15031 H 1404.69 -0.0727494 -6.5596 0
M  V30 15032 H 1404.61 -1.59141 -7.3906 0
M  V30 15033 H 1405.88 -0.46812 -7.78093 0
M  V30 15034 N 1410.11 1.33347 -0.840014 0
M  V30 15035 C 1411.33 2.02485 -0.448856 0
M  V30 15036 C 1411.76 1.62781 0.942543 0
M  V30 15037 O 1411.12 0.82099 1.61646 0
M  V30 15038 C 1411.16 3.55928 -0.578582 0
M  V30 15039 O 1410.27 4.10507 0.394695 0
M  V30 15040 H 1409.61 0.63848 -0.182317 0
M  V30 15041 H 1412.14 1.70221 -1.13516 0
M  V30 15042 H 1412.15 4.05391 -0.460653 0
M  V30 15043 H 1410.82 3.8417 -1.5933 0
M  V30 15044 H 1409.4 3.72164 0.234227 0
M  V30 15045 N 1411.59 0.596556 1.45873 0
M  V30 15046 C 1412.81 0.0934926 2.06689 0
M  V30 15047 C 1413.23 -1.21743 1.44305 0
M  V30 15048 O 1412.59 -1.73912 0.553253 0
M  V30 15049 C 1412.64 -0.0643337 3.61443 0
M  V30 15050 O 1412.36 1.19472 4.21495 0
M  V30 15051 C 1413.86 -0.600141 4.39219 0
M  V30 15052 H 1411.08 0.0637846 0.667961 0
M  V30 15053 H 1413.62 0.821159 1.87289 0
M  V30 15054 H 1411.78 -0.742278 3.80222 0
M  V30 15055 H 1412.19 1.01735 5.14539 0
M  V30 15056 H 1413.67 -0.6597 5.48044 0
M  V30 15057 H 1414.14 -1.62009 4.08227 0
M  V30 15058 H 1414.75 0.0433915 4.25278 0
M  V30 15059 N 1413.06 -1.53996 0.335095 0
M  V30 15060 C 1413.97 -2.28436 -0.534244 0
M  V30 15061 C 1414.99 -1.33224 -1.11926 0
M  V30 15062 O 1416.17 -1.66252 -1.13676 0
M  V30 15063 C 1413.23 -3.03634 -1.67354 0
M  V30 15064 C 1412.29 -4.14455 -1.11916 0
M  V30 15065 C 1411.52 -4.86058 -2.20416 0
M  V30 15066 O 1411.75 -4.57263 -3.40979 0
M  V30 15067 O 1410.68 -5.72704 -1.85185 0
M  V30 15068 H 1414.51 -3.03618 0.0706314 0
M  V30 15069 H 1412.09 -1.49062 0.100409 0
M  V30 15070 H 1413.97 -3.50687 -2.33659 0
M  V30 15071 H 1412.65 -2.31317 -2.26438 0
M  V30 15072 H 1411.56 -3.71725 -0.420871 0
M  V30 15073 H 1412.89 -4.8885 -0.573295 0
M  V30 15074 N 1414.54 -0.0635198 -1.57472 0
M  V30 15075 C 1415.77 0.620205 -1.9791 0
M  V30 15076 C 1416.19 1.62851 -0.941335 0
M  V30 15077 O 1415.55 1.81056 0.0940313 0
M  V30 15078 C 1415.6 1.27261 -3.37397 0
M  V30 15079 O 1414.7 2.38841 -3.36197 0
M  V30 15080 H 1414.04 0.16021 -0.644382 0
M  V30 15081 H 1416.57 -0.135582 -2.0415 0
M  V30 15082 H 1416.58 1.6214 -3.74399 0
M  V30 15083 H 1415.26 0.533723 -4.12461 0
M  V30 15084 H 1413.83 2.05817 -3.10956 0
M  V30 15085 N 1416.02 1.56195 0.209972 0
M  V30 15086 C 1417.44 1.49446 0.56018 0
M  V30 15087 C 1417.64 0.760799 1.86585 0
M  V30 15088 O 1416.69 0.305201 2.50649 0
M  V30 15089 C 1418 2.94054 0.628687 0
M  V30 15090 C 1419.55 3.04641 0.718531 0
M  V30 15091 C 1420.03 4.50631 0.81828 0
M  V30 15092 N 1421.52 4.54721 0.8822 0
M  V30 15093 C 1422.25 5.64976 0.979292 0
M  V30 15094 N 1421.75 6.84955 1.03961 0
M  V30 15095 N 1423.54 5.52854 1.01533 0
M  V30 15096 H 1415.69 2.02316 -0.646674 0
M  V30 15097 H 1417.96 0.920063 -0.228446 0
M  V30 15098 H 1417.66 3.50728 -0.261324 0
M  V30 15099 H 1417.54 3.46592 1.48842 0
M  V30 15100 H 1419.92 2.48026 1.59898 0
M  V30 15101 H 1420 2.55254 -0.167102 0
M  V30 15102 H 1419.65 5.07867 -0.0577557 0
M  V30 15103 H 1419.58 4.97736 1.7195 0
M  V30 15104 H 1422.07 3.68322 0.845433 0
M  V30 15105 H 1422.38 7.64732 1.11379 0
M  V30 15106 H 1420.73 6.87643 1.00854 0
M  V30 15107 H 1423.92 4.58046 0.96494 0
M  V30 15108 H 1424.09 6.38809 1.08754 0
M  V30 15109 N 1417.5 -0.477127 1.50204 0
M  V30 15110 C 1418.75 -1.22722 1.60573 0
M  V30 15111 C 1419.07 -1.92595 0.305326 0
M  V30 15112 O 1418.34 -1.83836 -0.676842 0
M  V30 15113 H 1416.92 -0.455973 0.591691 0
M  V30 15114 H 1419.58 -0.550915 1.86952 0
M  V30 15115 H 1418.67 -1.97837 2.41385 0
M  V30 15116 N 1418.98 -1.3968 -0.729882 0
M  V30 15117 C 1419.91 -1.41549 -1.85704 0
M  V30 15118 C 1420.89 -0.278186 -1.6781 0
M  V30 15119 O 1422.07 -0.484749 -1.88053 0
M  V30 15120 C 1419.2 -1.26327 -3.2351 0
M  V30 15121 C 1418.16 -2.37511 -3.56051 0
M  V30 15122 C 1417.48 -2.07375 -4.92849 0
M  V30 15123 C 1418.78 -3.79833 -3.58502 0
M  V30 15124 H 1420.48 -2.35877 -1.84398 0
M  V30 15125 H 1418.02 -1.13536 -0.885747 0
M  V30 15126 H 1419.98 -1.26254 -4.02042 0
M  V30 15127 H 1418.7 -0.284697 -3.25357 0
M  V30 15128 H 1417.36 -2.36809 -2.79852 0
M  V30 15129 H 1417.01 -1.07943 -4.91281 0
M  V30 15130 H 1416.71 -2.81855 -5.15588 0
M  V30 15131 H 1418.23 -2.08961 -5.73731 0
M  V30 15132 H 1419.64 -3.82436 -4.27101 0
M  V30 15133 H 1418.04 -4.53715 -3.92763 0
M  V30 15134 H 1419.11 -4.10443 -2.58195 0
M  V30 15135 N 1420.45 0.960609 -1.2494 0
M  V30 15136 C 1421.7 1.70111 -1.09117 0
M  V30 15137 C 1422.02 1.91466 0.369544 0
M  V30 15138 O 1421.29 1.49749 1.26302 0
M  V30 15139 H 1419.87 0.630372 -0.400799 0
M  V30 15140 H 1422.54 1.15525 -1.56971 0
M  V30 15141 H 1421.63 2.68277 -1.5948 0
M  V30 15142 N 1421.93 1.0643 1.16234 0
M  V30 15143 C 1422.9 0.680383 2.18869 0
M  V30 15144 C 1423.9 -0.274591 1.58438 0
M  V30 15145 O 1425.09 -0.0567907 1.74107 0
M  V30 15146 C 1422.22 0.00134091 3.409 0
M  V30 15147 H 1423.41 1.58894 2.54347 0
M  V30 15148 H 1420.96 0.859688 1.30534 0
M  V30 15149 H 1421.7 -0.919903 3.1098 0
M  V30 15150 H 1421.48 0.688057 3.86016 0
M  V30 15151 H 1422.97 -0.252938 4.16833 0
M  V30 15152 N 1423.41 -1.329 0.847073 0
M  V30 15153 C 1424.66 -1.9712 0.445872 0
M  V30 15154 C 1424.98 -1.67398 -1.00014 0
M  V30 15155 O 1424.25 -0.977204 -1.69787 0
M  V30 15156 H 1422.83 -0.729247 0.161887 0
M  V30 15157 H 1425.49 -1.62118 1.08184 0
M  V30 15158 H 1424.59 -3.06575 0.584676 0
M  V30 15159 N 1424.89 -0.604284 -1.45555 0
M  V30 15160 C 1425.85 0.106526 -2.28952 0
M  V30 15161 C 1426.85 0.798277 -1.39586 0
M  V30 15162 O 1428.04 0.646943 -1.61741 0
M  V30 15163 C 1425.17 1.16091 -3.20524 0
M  V30 15164 H 1426.37 -0.626655 -2.9328 0
M  V30 15165 H 1423.92 -0.363183 -1.52022 0
M  V30 15166 H 1424.65 1.92496 -2.6099 0
M  V30 15167 H 1424.44 0.669137 -3.86348 0
M  V30 15168 H 1425.93 1.65882 -3.8324 0
M  V30 15169 N 1426.37 1.53816 -0.343257 0
M  V30 15170 C 1427.61 2.00512 0.252845 0
M  V30 15171 C 1427.94 1.23274 1.51091 0
M  V30 15172 O 1427.21 0.339841 1.9293 0
M  V30 15173 H 1425.79 0.740751 0.0964202 0
M  V30 15174 H 1428.45 1.89288 -0.464347 0
M  V30 15175 H 1427.54 3.08142 0.495499 0
M  V30 15176 N 1427.84 0.0718701 1.57436 0
M  V30 15177 C 1428.81 -0.880671 2.11605 0
M  V30 15178 C 1429.81 -1.22632 1.0401 0
M  V30 15179 O 1431 -1.15958 1.29997 0
M  V30 15180 C 1428.13 -2.18407 2.61746 0
M  V30 15181 H 1429.32 -0.410712 2.97074 0
M  V30 15182 H 1426.88 -0.176836 1.55296 0
M  V30 15183 H 1427.61 -2.6994 1.79731 0
M  V30 15184 H 1427.4 -1.94616 3.40392 0
M  V30 15185 H 1428.89 -2.86596 3.03731 0
M  V30 15186 N 1429.32 -1.56304 -0.201686 0
M  V30 15187 C 1430.57 -1.79881 -0.921269 0
M  V30 15188 C 1430.89 -0.643809 -1.84065 0
M  V30 15189 O 1430.16 0.338239 -1.92958 0
M  V30 15190 H 1428.74 -0.663506 -0.343175 0
M  V30 15191 H 1431.4 -1.93779 -0.208775 0
M  V30 15192 H 1430.5 -2.7279 -1.51631 0
M  V30 15193 N 1430.8 0.469154 -1.50455 0
M  V30 15194 C 1432.05 1.21868 -1.61222 0
M  V30 15195 C 1432.37 1.9243 -0.315535 0
M  V30 15196 O 1431.64 1.84192 0.667083 0
M  V30 15197 H 1430.22 0.452828 -0.594101 0
M  V30 15198 H 1432.88 0.540993 -1.87241 0
M  V30 15199 H 1431.98 1.96554 -2.42431 0
M  V30 15200 N 1432.28 1.40065 0.722464 0
M  V30 15201 C 1433.5 1.4146 1.5167 0
M  V30 15202 C 1433.93 0.0142653 1.88095 0
M  V30 15203 O 1433.29 -0.975934 1.52791 0
M  V30 15204 C 1433.33 2.30531 2.77287 0
M  V30 15205 O 1432.44 1.74382 3.73717 0
M  V30 15206 H 1431.78 0.481194 0.457546 0
M  V30 15207 H 1434.31 1.84213 0.890331 0
M  V30 15208 H 1434.32 2.45479 3.25889 0
M  V30 15209 H 1432.99 3.32292 2.50109 0
M  V30 15210 H 1431.57 1.68743 3.32536 0
M  V30 15211 N 1433.76 -0.95397 1.25448 0
M  V30 15212 C 1434.72 -2.03231 1.0597 0
M  V30 15213 C 1435.72 -1.60795 0.0122855 0
M  V30 15214 O 1436.91 -1.7233 0.254533 0
M  V30 15215 C 1434.04 -3.35414 0.609105 0
M  V30 15216 H 1435.24 -2.21943 2.01696 0
M  V30 15217 H 1432.79 -1.13115 1.07864 0
M  V30 15218 H 1433.52 -3.22398 -0.350723 0
M  V30 15219 H 1433.31 -3.67564 1.36526 0
M  V30 15220 H 1434.8 -4.14664 0.49428 0
M  V30 15221 N 1435.24 -1.07045 -1.15668 0
M  V30 15222 C 1436.48 -0.790172 -1.86013 0
M  V30 15223 C 1436.8 0.685663 -1.82548 0
M  V30 15224 O 1436.07 1.49644 -1.26426 0
M  V30 15225 H 1434.65 -0.28931 -0.688701 0
M  V30 15226 H 1437.32 -1.35354 -1.40233 0
M  V30 15227 H 1436.41 -1.1219 -2.91239 0
M  V30 15228 N 1436.71 1.32449 -0.85411 0
M  V30 15229 C 1437.96 1.96881 -0.45632 0
M  V30 15230 C 1438.28 1.67926 0.991248 0
M  V30 15231 O 1437.55 0.986195 1.69266 0
M  V30 15232 H 1436.13 0.728378 -0.165752 0
M  V30 15233 H 1438.79 1.61542 -1.09042 0
M  V30 15234 H 1437.89 3.0626 -0.600927 0
M  V30 15235 N 1438.19 0.611994 1.45232 0
M  V30 15236 C 1439.44 0.109073 2.02506 0
M  V30 15237 C 1439.77 -1.25876 1.47881 0
M  V30 15238 O 1439.05 -1.83131 0.65524 0
M  V30 15239 C 1439.33 0.0749288 3.60022 0
M  V30 15240 C 1439.18 1.47374 4.24972 0
M  V30 15241 C 1440.5 -0.610602 4.35844 0
M  V30 15242 H 1437.62 0.0411101 0.735853 0
M  V30 15243 H 1440.26 0.78481 1.73034 0
M  V30 15244 H 1438.41 -0.500511 3.85262 0
M  V30 15245 H 1440.08 2.0966 4.10902 0
M  V30 15246 H 1438.33 2.03319 3.83202 0
M  V30 15247 H 1439 1.40206 5.33897 0
M  V30 15248 H 1441.47 -0.121445 4.15923 0
M  V30 15249 H 1440.35 -0.603614 5.45571 0
M  V30 15250 H 1440.61 -1.6775 4.09038 0
M  V30 15251 N 1439.67 -1.53632 0.351409 0
M  V30 15252 C 1440.92 -2.00643 -0.242208 0
M  V30 15253 C 1441.24 -1.24074 -1.50435 0
M  V30 15254 O 1440.51 -0.350067 -1.92747 0
M  V30 15255 H 1439.09 -0.741252 -0.0924904 0
M  V30 15256 H 1441.75 -1.89039 0.474379 0
M  V30 15257 H 1440.85 -3.084 -0.479151 0
M  V30 15258 N 1441.15 -0.0802183 -1.57396 0
M  V30 15259 C 1442.11 0.869437 -2.12069 0
M  V30 15260 C 1443.11 1.22079 -1.04658 0
M  V30 15261 O 1444.3 1.15267 -1.3061 0
M  V30 15262 C 1441.43 2.17016 -2.62901 0
M  V30 15263 H 1442.63 0.394952 -2.97288 0
M  V30 15264 H 1440.18 0.168597 -1.55388 0
M  V30 15265 H 1440.91 2.68983 -1.8116 0
M  V30 15266 H 1440.7 1.92808 -3.4142 0
M  V30 15267 H 1442.19 2.84982 -3.05246 0
M  V30 15268 N 1442.63 1.56409 0.193394 0
M  V30 15269 C 1443.85 1.84837 0.929676 0
M  V30 15270 C 1444.27 0.662928 1.76779 0
M  V30 15271 O 1443.63 -0.368339 1.78744 0
M  V30 15272 C 1443.68 3.12083 1.82445 0
M  V30 15273 O 1443.4 4.26056 1.02018 0
M  V30 15274 C 1444.9 3.53701 2.67227 0
M  V30 15275 H 1442.12 0.613766 0.271168 0
M  V30 15276 H 1444.66 2.03518 0.200134 0
M  V30 15277 H 1442.82 2.95294 2.5076 0
M  V30 15278 H 1443.23 4.98526 1.63008 0
M  V30 15279 H 1444.71 4.45699 3.25663 0
M  V30 15280 H 1445.18 2.76771 3.41019 0
M  V30 15281 H 1445.79 3.73027 2.04281 0
M  V30 15282 N 1444.1 -0.461169 1.50702 0
M  V30 15283 C 1445.35 -1.21012 1.61866 0
M  V30 15284 C 1445.67 -1.9226 0.325736 0
M  V30 15285 O 1444.94 -1.84543 -0.657306 0
M  V30 15286 H 1443.52 -0.449671 0.596494 0
M  V30 15287 H 1446.18 -0.531056 1.87525 0
M  V30 15288 H 1445.28 -1.95266 2.4347 0
M  V30 15289 N 1445.58 -1.40446 -0.715026 0
M  V30 15290 C 1446.83 -1.3848 -1.47199 0
M  V30 15291 C 1447.15 0.0119198 -1.94996 0
M  V30 15292 O 1446.42 0.966772 -1.70383 0
M  V30 15293 H 1445 -0.509669 -0.54612 0
M  V30 15294 H 1447.66 -1.75505 -0.847588 0
M  V30 15295 H 1446.76 -2.06002 -2.34456 0
M  V30 15296 N 1447.06 0.947303 -1.25952 0
M  V30 15297 C 1448.02 2.02667 -1.07046 0
M  V30 15298 C 1449.02 1.60787 -0.0208127 0
M  V30 15299 O 1450.21 1.72193 -0.263668 0
M  V30 15300 C 1447.34 3.35087 -0.626885 0
M  V30 15301 H 1448.54 2.20871 -2.0287 0
M  V30 15302 H 1446.09 1.12541 -1.08462 0
M  V30 15303 H 1446.83 3.22579 0.333621 0
M  V30 15304 H 1446.61 3.66835 -1.38473 0
M  V30 15305 H 1448.1 4.14397 -0.516264 0
M  V30 15306 N 1448.54 1.07657 1.15099 0
M  V30 15307 C 1449.79 0.800025 1.85591 0
M  V30 15308 C 1450.11 -0.675973 1.82909 0
M  V30 15309 O 1449.38 -1.48971 1.27218 0
M  V30 15310 H 1447.96 0.292958 0.687157 0
M  V30 15311 H 1450.62 1.36096 1.39513 0
M  V30 15312 H 1449.72 1.13733 2.90639 0
M  V30 15313 N 1450.02 -1.31994 0.861122 0
M  V30 15314 C 1451.26 -1.98827 0.474055 0
M  V30 15315 C 1451.62 -1.66627 -0.953916 0
M  V30 15316 O 1452.82 -2.26601 -1.44587 0
M  V30 15317 C 1451.09 -3.50201 0.713743 0
M  V30 15318 S 1452.65 -4.36735 0.425214 0
M  V30 15319 H 1449.47 -0.688534 0.17732 0
M  V30 15320 H 1452.07 -1.6057 1.11523 0
M  V30 15321 H 1450.78 -3.71125 1.75198 0
M  V30 15322 H 1450.31 -3.93355 0.0592289 0
M  V30 15323 H 1452.32 -4.90558 -0.746142 0
M  V30 15324 N 1451.49 -0.619688 -1.44906 0
M  V30 15325 C 1452.46 0.0822364 -2.29052 0
M  V30 15326 C 1453.46 0.783427 -1.40425 0
M  V30 15327 O 1454.65 0.629751 -1.62419 0
M  V30 15328 C 1451.78 1.12685 -3.21737 0
M  V30 15329 H 1452.97 -0.657726 -2.92599 0
M  V30 15330 H 1450.53 -0.379286 -1.51628 0
M  V30 15331 H 1451.26 1.89717 -2.63017 0
M  V30 15332 H 1451.05 0.628122 -3.87036 0
M  V30 15333 H 1452.54 1.61808 -3.84978 0
M  V30 15334 N 1452.97 1.53444 -0.359552 0
M  V30 15335 C 1454.22 2.00769 0.231564 0
M  V30 15336 C 1454.54 1.2487 1.49775 0
M  V30 15337 O 1453.81 0.360284 1.92558 0
M  V30 15338 H 1452.39 0.741732 0.0885581 0
M  V30 15339 H 1455.05 1.88785 -0.484397 0
M  V30 15340 H 1454.15 3.0865 0.462789 0
M  V30 15341 N 1454.45 0.0885642 1.57351 0
M  V30 15342 C 1455.41 -0.858178 2.12528 0
M  V30 15343 C 1456.41 -1.21522 1.05304 0
M  V30 15344 O 1457.6 -1.14573 1.3122 0
M  V30 15345 C 1454.74 -2.15619 2.64048 0
M  V30 15346 H 1455.93 -0.37918 2.97493 0
M  V30 15347 H 1453.48 -0.160354 1.55475 0
M  V30 15348 H 1454.22 -2.68018 1.82584 0
M  V30 15349 H 1454 -1.90995 3.42437 0
M  V30 15350 H 1455.49 -2.83359 3.06753 0
M  V30 15351 N 1455.93 -1.56509 -0.185096 0
M  V30 15352 C 1457.18 -1.80848 -0.902139 0
M  V30 15353 C 1457.5 -0.663295 -1.83372 0
M  V30 15354 O 1456.77 0.317754 -1.93306 0
M  V30 15355 H 1455.35 -0.667108 -0.336119 0
M  V30 15356 H 1458.01 -1.93989 -0.188211 0
M  V30 15357 H 1457.11 -2.74383 -1.48729 0
M  V30 15358 N 1457.41 0.45317 -1.50944 0
M  V30 15359 C 1458.82 1.03354 -1.55482 0
M  V30 15360 C 1459.17 1.92701 -0.368873 0
M  V30 15361 O 1458.29 2.10153 0.516208 0
M  V30 15362 C 1458.89 1.88118 -2.81775 0
M  V30 15363 C 1457.45 2.41232 -2.88936 0
M  V30 15364 C 1456.59 1.20032 -2.49975 0
M  V30 15365 H 1459.55 0.235059 -1.5695 0
M  V30 15366 H 1459.57 2.73394 -2.64643 0
M  V30 15367 H 1459.08 1.23064 -3.68072 0
M  V30 15368 H 1457.18 3.09788 -2.07032 0
M  V30 15369 H 1457.29 2.75113 -3.92237 0
M  V30 15370 H 1455.66 1.54072 -2.02815 0
M  V30 15371 H 1456.44 0.56612 -3.386 0
M  V30 15372 N 1458.88 1.40823 0.707568 0
M  V30 15373 C 1460.13 1.39259 1.46463 0
M  V30 15374 C 1460.45 -0.00157854 1.95 0
M  V30 15375 O 1459.72 -0.957723 1.70893 0
M  V30 15376 H 1458.3 0.512558 0.543409 0
M  V30 15377 H 1460.97 1.75952 0.838269 0
M  V30 15378 H 1460.06 2.07243 2.3336 0
M  V30 15379 N 1460.36 -0.94061 1.26453 0
M  V30 15380 C 1461.61 -1.68354 1.11809 0
M  V30 15381 C 1461.93 -1.9203 -0.339037 0
M  V30 15382 O 1461.2 -1.51739 -1.23903 0
M  V30 15383 H 1459.78 -0.623916 0.410777 0
M  V30 15384 H 1462.44 -1.13014 1.58789 0
M  V30 15385 H 1461.54 -2.65706 1.63728 0
M  V30 15386 N 1461.84 -1.08266 -1.14527 0
M  V30 15387 C 1463.25 -0.832702 -1.67102 0
M  V30 15388 C 1463.6 0.640776 -1.85441 0
M  V30 15389 O 1462.73 1.49505 -1.56452 0
M  V30 15390 C 1463.32 -1.50502 -3.03537 0
M  V30 15391 C 1461.88 -1.30234 -3.53152 0
M  V30 15392 C 1461.03 -1.56873 -2.28661 0
M  V30 15393 H 1463.98 -1.24344 -0.986118 0
M  V30 15394 H 1464 -0.931426 -3.68924 0
M  V30 15395 H 1463.51 -2.57741 -2.90157 0
M  V30 15396 H 1461.61 -0.250582 -3.71756 0
M  V30 15397 H 1461.73 -2.02898 -4.34015 0
M  V30 15398 H 1460.09 -0.990214 -2.34663 0
M  V30 15399 H 1460.87 -2.65316 -2.17859 0
M  V30 15400 N 1463.32 1.31536 -0.86811 0
M  V30 15401 C 1464.23 2.32326 -0.32588 0
M  V30 15402 C 1465.25 1.64632 0.563243 0
M  V30 15403 O 1466.42 1.96067 0.460403 0
M  V30 15404 C 1463.49 3.43562 0.46539 0
M  V30 15405 C 1462.55 4.26919 -0.451472 0
M  V30 15406 C 1461.78 5.32844 0.302129 0
M  V30 15407 O 1462 5.49485 1.53045 0
M  V30 15408 O 1460.94 6.00944 -0.339048 0
M  V30 15409 H 1464.76 2.80622 -1.16126 0
M  V30 15410 H 1462.35 1.35401 -0.631428 0
M  V30 15411 H 1464.23 4.11368 0.914028 0
M  V30 15412 H 1462.91 2.97432 1.27734 0
M  V30 15413 H 1461.81 3.61874 -0.948571 0
M  V30 15414 H 1463.15 4.7661 -1.22897 0
M  V30 15415 N 1464.8 0.627364 1.44575 0
M  V30 15416 C 1466.02 0.135576 2.06956 0
M  V30 15417 C 1466.45 -1.17922 1.46547 0
M  V30 15418 O 1465.81 -1.72255 0.565509 0
M  V30 15419 C 1465.85 0.030347 3.60587 0
M  V30 15420 O 1464.96 -1.01464 3.99724 0
M  V30 15421 H 1464.3 0.083058 0.658785 0
M  V30 15422 H 1466.83 0.862977 1.8551 0
M  V30 15423 H 1466.84 -0.161461 4.0768 0
M  V30 15424 H 1465.51 0.990285 4.03938 0
M  V30 15425 H 1464.09 -0.797701 3.64268 0
M  V30 15426 N 1466.28 -1.53251 0.367684 0
M  V30 15427 C 1467.69 -1.86369 -0.111073 0
M  V30 15428 C 1468.04 -1.2882 -1.47986 0
M  V30 15429 O 1467.16 -0.611058 -2.07593 0
M  V30 15430 C 1467.76 -3.38159 -0.208325 0
M  V30 15431 C 1466.32 -3.71067 -0.63134 0
M  V30 15432 C 1465.46 -2.76425 0.220144 0
M  V30 15433 H 1468.41 -1.47469 0.586398 0
M  V30 15434 H 1468.44 -3.66252 -1.03151 0
M  V30 15435 H 1467.95 -3.80015 0.788038 0
M  V30 15436 H 1466.05 -3.34769 -1.63586 0
M  V30 15437 H 1466.16 -4.77389 -0.404491 0
M  V30 15438 H 1464.53 -2.5279 -0.311298 0
M  V30 15439 H 1465.31 -3.21115 1.21409 0
M  V30 15440 N 1467.75 -0.0969077 -1.57302 0
M  V30 15441 C 1469.03 0.608737 -1.85886 0
M  V30 15442 C 1469.41 1.86228 -0.994096 0
M  V30 15443 O 1468.76 2.28402 -0.0669975 0
M  V30 15444 C 1468.97 0.922385 -3.3659 0
M  V30 15445 C 1470.32 1.28505 -4.04687 0
M  V30 15446 O 1471.34 1.01334 -3.41482 0
M  V30 15447 O 1470.2 1.794 -5.16215 0
M  V30 15448 H 1467.29 0.304808 -0.768779 0
M  V30 15449 H 1469.84 -0.129742 -1.69203 0
M  V30 15450 H 1468.61 0.0331488 -3.91286 0
M  V30 15451 H 1468.23 1.71678 -3.58626 0
M  V30 15452 N 1469.23 1.56605 0.176793 0
M  V30 15453 C 1470.19 1.95109 1.20271 0
M  V30 15454 C 1471.19 0.83414 1.37473 0
M  V30 15455 O 1472.38 1.10128 1.34972 0
M  V30 15456 C 1469.52 2.24112 2.56878 0
M  V30 15457 H 1470.71 2.86909 0.87312 0
M  V30 15458 H 1468.26 1.50578 0.419033 0
M  V30 15459 H 1469 1.35009 2.94861 0
M  V30 15460 H 1468.78 3.05523 2.45761 0
M  V30 15461 H 1470.27 2.54842 3.30825 0
M  V30 15462 N 1470.71 -0.445159 1.51182 0
M  V30 15463 C 1471.96 -1.19288 1.6314 0
M  V30 15464 C 1472.28 -1.91904 0.346109 0
M  V30 15465 O 1471.55 -1.8523 -0.637695 0
M  V30 15466 H 1470.13 -0.443319 0.601229 0
M  V30 15467 H 1472.79 -0.511136 1.88078 0
M  V30 15468 H 1471.89 -1.92672 2.45528 0
M  V30 15469 N 1472.19 -1.41197 -0.700089 0
M  V30 15470 C 1473.6 -1.3593 -1.27985 0
M  V30 15471 C 1473.95 -0.0402059 -1.96159 0
M  V30 15472 O 1473.07 0.861611 -1.98508 0
M  V30 15473 C 1473.67 -2.46203 -2.32743 0
M  V30 15474 C 1472.23 -2.44348 -2.86306 0
M  V30 15475 C 1471.38 -2.26283 -1.60285 0
M  V30 15476 H 1474.33 -1.50778 -0.495152 0
M  V30 15477 H 1474.35 -2.15001 -3.13934 0
M  V30 15478 H 1473.86 -3.42195 -1.83096 0
M  V30 15479 H 1471.96 -1.521 -3.40142 0
M  V30 15480 H 1472.07 -3.40497 -3.37044 0
M  V30 15481 H 1470.44 -1.74078 -1.85928 0
M  V30 15482 H 1471.22 -3.24295 -1.1264 0
M  V30 15483 N 1473.67 0.933891 -1.2695 0
M  V30 15484 C 1474.61 2.03365 -1.09139 0
M  V30 15485 C 1475.58 1.66099 0.00573029 0
M  V30 15486 O 1476.77 1.90166 -0.155425 0
M  V30 15487 C 1473.91 3.37114 -0.738117 0
M  V30 15488 C 1473.02 3.87372 -1.91224 0
M  V30 15489 C 1472.16 5.0954 -1.50141 0
M  V30 15490 C 1471.19 5.52079 -2.64339 0
M  V30 15491 N 1470.33 6.65446 -2.23887 0
M  V30 15492 H 1475.17 2.17932 -2.03248 0
M  V30 15493 H 1472.71 1.0677 -1.01186 0
M  V30 15494 H 1474.67 4.1402 -0.514141 0
M  V30 15495 H 1473.3 3.22373 0.166007 0
M  V30 15496 H 1472.35 3.06801 -2.24894 0
M  V30 15497 H 1473.66 4.14875 -2.76912 0
M  V30 15498 H 1472.81 5.93928 -1.23831 0
M  V30 15499 H 1471.55 4.838 -0.615539 0
M  V30 15500 H 1470.56 4.66244 -2.9137 0
M  V30 15501 H 1471.78 5.79817 -3.53537 0
M  V30 15502 H 1469.73 6.41376 -1.37744 0
M  V30 15503 H 1469.65 6.92573 -3.03116 0
M  V30 15504 H 1470.91 7.53191 -2.00809 0
M  V30 15505 N 1475.14 1.08871 1.13951 0
M  V30 15506 C 1476.11 0.726655 2.17376 0
M  V30 15507 C 1477.11 -0.240922 1.58985 0
M  V30 15508 O 1478.3 -0.0198472 1.74189 0
M  V30 15509 C 1475.43 0.0736505 3.4082 0
M  V30 15510 H 1476.62 1.64254 2.5092 0
M  V30 15511 H 1474.17 0.887183 1.28681 0
M  V30 15512 H 1474.91 -0.853733 3.12861 0
M  V30 15513 H 1474.69 0.769782 3.84469 0
M  V30 15514 H 1476.18 -0.164465 4.17276 0
M  V30 15515 N 1476.62 -1.31073 0.875073 0
M  V30 15516 C 1477.55 -2.30855 0.350468 0
M  V30 15517 C 1478.53 -1.60569 -0.561384 0
M  V30 15518 O 1479.72 -1.88242 -0.477329 0
M  V30 15519 C 1476.85 -3.44444 -0.444493 0
M  V30 15520 C 1475.8 -4.26357 0.374716 0
M  V30 15521 C 1475.13 -5.31903 -0.546243 0
M  V30 15522 C 1476.43 -4.96817 1.61153 0
M  V30 15523 H 1478.12 -2.74983 1.18427 0
M  V30 15524 H 1475.67 -1.32199 0.570909 0
M  V30 15525 H 1477.62 -4.13304 -0.82206 0
M  V30 15526 H 1476.34 -2.99096 -1.31185 0
M  V30 15527 H 1475 -3.59171 0.734295 0
M  V30 15528 H 1474.65 -4.82803 -1.41102 0
M  V30 15529 H 1474.35 -5.876 -0.00198173 0
M  V30 15530 H 1475.88 -6.03621 -0.920542 0
M  V30 15531 H 1477.29 -5.58247 1.30511 0
M  V30 15532 H 1475.69 -5.62334 2.09524 0
M  V30 15533 H 1476.76 -4.2351 2.36151 0
M  V30 15534 N 1478.1 -0.635022 -1.4424 0
M  V30 15535 C 1479.33 -0.148045 -2.06069 0
M  V30 15536 C 1479.74 1.1842 -1.47558 0
M  V30 15537 O 1479.08 1.73817 -0.594425 0
M  V30 15538 C 1479.14 0.0369593 -3.59481 0
M  V30 15539 C 1478.81 -1.21773 -4.40478 0
M  V30 15540 C 1479.8 -2.14233 -4.73709 0
M  V30 15541 C 1477.49 -1.45423 -4.80788 0
M  V30 15542 C 1479.48 -3.2865 -5.46139 0
M  V30 15543 C 1477.17 -2.60136 -5.52967 0
M  V30 15544 C 1478.17 -3.51576 -5.85562 0
M  V30 15545 O 1477.86 -4.64289 -6.5627 0
M  V30 15546 H 1477.59 -0.0787231 -0.671401 0
M  V30 15547 H 1480.14 -0.870639 -1.86035 0
M  V30 15548 H 1478.37 0.814739 -3.7802 0
M  V30 15549 H 1480.06 0.478984 -4.03064 0
M  V30 15550 H 1480.83 -1.97196 -4.43101 0
M  V30 15551 H 1476.71 -0.751378 -4.54835 0
M  V30 15552 H 1480.25 -4.00043 -5.71499 0
M  V30 15553 H 1476.15 -2.77114 -5.82991 0
M  V30 15554 H 1476.92 -4.6332 -6.74742 0
M  V30 15555 N 1479.58 1.53054 -0.375806 0
M  V30 15556 C 1480.86 1.93761 0.26757 0
M  V30 15557 C 1481.24 1.31019 1.65521 0
M  V30 15558 O 1480.58 0.473138 2.23548 0
M  V30 15559 C 1480.79 3.47643 0.307505 0
M  V30 15560 C 1482.14 4.21114 0.542951 0
M  V30 15561 O 1483.17 3.54077 0.388285 0
M  V30 15562 O 1482.02 5.39929 0.8449 0
M  V30 15563 H 1479.12 0.810805 0.16286 0
M  V30 15564 H 1481.66 1.64179 -0.429334 0
M  V30 15565 H 1480.44 3.85608 -0.665001 0
M  V30 15566 H 1480.06 3.83488 1.04988 0
M  V30 15567 N 1481.06 0.105248 1.57248 0
M  V30 15568 C 1482.3 -0.556878 1.95004 0
M  V30 15569 C 1482.64 -1.672 0.987818 0
M  V30 15570 O 1481.91 -1.94487 0.022616 0
M  V30 15571 C 1482.19 -1.10252 3.42807 0
M  V30 15572 C 1482.05 0.00823908 4.49799 0
M  V30 15573 C 1483.37 -1.99774 3.92146 0
M  V30 15574 H 1480.48 -0.200959 0.709073 0
M  V30 15575 H 1483.13 0.178019 1.89164 0
M  V30 15576 H 1481.28 -1.7288 3.47915 0
M  V30 15577 H 1482.95 0.642944 4.56797 0
M  V30 15578 H 1481.19 0.673265 4.28544 0
M  V30 15579 H 1481.86 -0.414538 5.50441 0
M  V30 15580 H 1484.34 -1.47036 3.89255 0
M  V30 15581 H 1483.21 -2.34874 4.9611 0
M  V30 15582 H 1483.48 -2.91902 3.32033 0
M  V30 15583 N 1482.53 -1.56697 -0.168486 0
M  V30 15584 C 1483.5 -1.95744 -1.19235 0
M  V30 15585 C 1484.5 -0.841419 -1.37028 0
M  V30 15586 O 1485.69 -1.10842 -1.34386 0
M  V30 15587 C 1482.82 -2.25471 -2.55686 0
M  V30 15588 H 1484.01 -2.87368 -0.857892 0
M  V30 15589 H 1481.57 -1.50798 -0.411041 0
M  V30 15590 H 1482.3 -1.36571 -2.94141 0
M  V30 15591 H 1482.09 -3.06822 -2.44137 0
M  V30 15592 H 1483.58 -2.56593 -3.29469 0
M  V30 15593 N 1484.01 0.437135 -1.51416 0
M  V30 15594 C 1484.92 1.55581 -1.75589 0
M  V30 15595 C 1485.94 1.61797 -0.640132 0
M  V30 15596 O 1487.11 1.79035 -0.922406 0
M  V30 15597 C 1484.18 2.91561 -1.87598 0
M  V30 15598 C 1483.24 2.9546 -3.11451 0
M  V30 15599 C 1482.47 4.24954 -3.22878 0
M  V30 15600 O 1482.7 5.17341 -2.40238 0
M  V30 15601 O 1481.63 4.35141 -4.15856 0
M  V30 15602 H 1485.46 1.38098 -2.70486 0
M  V30 15603 H 1483.04 0.620163 -1.3592 0
M  V30 15604 H 1484.92 3.72262 -1.97481 0
M  V30 15605 H 1483.6 3.09171 -0.958889 0
M  V30 15606 H 1482.51 2.13713 -3.07046 0
M  V30 15607 H 1483.84 2.82794 -4.0285 0
M  V30 15608 N 1485.49 1.41566 0.692592 0
M  V30 15609 C 1486.45 1.43369 1.78824 0
M  V30 15610 C 1487.45 0.323867 1.57505 0
M  V30 15611 O 1488.64 0.583885 1.64123 0
M  V30 15612 C 1485.78 1.24798 3.17235 0
M  V30 15613 H 1486.97 2.40906 1.78617 0
M  V30 15614 H 1484.52 1.27752 0.900508 0
M  V30 15615 H 1485.26 0.281129 3.23079 0
M  V30 15616 H 1485.04 2.05212 3.34111 0
M  V30 15617 H 1486.53 1.28902 3.97208 0
M  V30 15618 N 1486.97 -0.927146 1.27443 0
M  V30 15619 C 1487.88 -2.06122 1.12031 0
M  V30 15620 C 1488.89 -1.73928 0.0501979 0
M  V30 15621 O 1490.07 -1.99756 0.256796 0
M  V30 15622 C 1487.14 -3.3805 0.769634 0
M  V30 15623 C 1486.2 -3.83938 1.92068 0
M  V30 15624 C 1485.43 -5.0957 1.58664 0
M  V30 15625 O 1485.65 -5.6825 0.494789 0
M  V30 15626 O 1484.59 -5.50844 2.42599 0
M  V30 15627 H 1488.41 -2.22037 2.07203 0
M  V30 15628 H 1486 -1.04638 1.06636 0
M  V30 15629 H 1487.88 -4.17286 0.587423 0
M  V30 15630 H 1486.55 -3.2334 -0.152557 0
M  V30 15631 H 1485.46 -3.05587 2.15795 0
M  V30 15632 H 1486.79 -4.0319 2.8231 0
M  V30 15633 N 1488.45 -1.09474 -1.13372 0
M  V30 15634 C 1489.36 -0.746674 -2.224 0
M  V30 15635 C 1490.37 0.251572 -1.72172 0
M  V30 15636 O 1491.55 0.092793 -2.01186 0
M  V30 15637 C 1488.61 -0.172965 -3.46268 0
M  V30 15638 C 1487.67 -1.22722 -4.11385 0
M  V30 15639 C 1486.91 -0.680794 -5.2934 0
M  V30 15640 O 1487.13 0.496135 -5.68238 0
M  V30 15641 O 1486.06 -1.43605 -5.84518 0
M  V30 15642 H 1489.89 -1.65649 -2.54547 0
M  V30 15643 H 1487.48 -0.869172 -1.21514 0
M  V30 15644 H 1489.36 0.143629 -4.21155 0
M  V30 15645 H 1488.03 0.709853 -3.15821 0
M  V30 15646 H 1486.94 -1.59652 -3.38323 0
M  V30 15647 H 1488.27 -2.0827 -4.45965 0
M  V30 15648 N 1489.92 1.30607 -0.882012 0
M  V30 15649 C 1490.87 2.2577 -0.318082 0
M  V30 15650 C 1491.86 1.51143 0.551774 0
M  V30 15651 O 1493.05 1.72498 0.396682 0
M  V30 15652 C 1490.18 3.40082 0.468967 0
M  V30 15653 C 1489.27 4.22067 -0.41481 0
M  V30 15654 N 1489.66 4.82613 -1.51389 0
M  V30 15655 C 1487.95 4.45508 -0.209391 0
M  V30 15656 C 1488.66 5.44007 -2.05988 0
M  V30 15657 N 1487.63 5.26435 -1.35524 0
M  V30 15658 H 1491.43 2.70128 -1.15793 0
M  V30 15659 H 1488.95 1.45013 -0.731091 0
M  V30 15660 H 1490.94 4.07298 0.889584 0
M  V30 15661 H 1489.6 2.97265 1.30629 0
M  V30 15662 H 1490.62 4.81916 -1.89676 0
M  V30 15663 H 1487.29 4.13296 0.591 0
M  V30 15664 H 1488.68 6.02068 -2.98268 0
M  V30 15665 N 1491.4 0.642663 1.43901 0
M  V30 15666 C 1492.65 0.151778 2.0193 0
M  V30 15667 C 1492.98 -1.23052 1.50627 0
M  V30 15668 O 1492.23 -1.83305 0.685404 0
M  V30 15669 C 1492.53 0.100139 3.5726 0
M  V30 15670 C 1492.2 1.42276 4.27865 0
M  V30 15671 C 1490.86 1.78497 4.46869 0
M  V30 15672 C 1493.21 2.29526 4.67939 0
M  V30 15673 C 1490.54 3.01655 5.03211 0
M  V30 15674 C 1492.89 3.51966 5.25645 0
M  V30 15675 C 1491.56 3.88396 5.42867 0
M  V30 15676 H 1490.83 0.0555394 0.738916 0
M  V30 15677 H 1493.47 0.831273 1.72517 0
M  V30 15678 H 1491.78 -0.66277 3.86154 0
M  V30 15679 H 1493.47 -0.29638 3.99903 0
M  V30 15680 H 1490.06 1.13091 4.13411 0
M  V30 15681 H 1494.25 2.02835 4.52959 0
M  V30 15682 H 1489.5 3.29943 5.14731 0
M  V30 15683 H 1493.68 4.19799 5.55645 0
M  V30 15684 H 1491.31 4.83909 5.8629 0
M  V30 15685 N 1492.88 -1.52852 0.383918 0
M  V30 15686 C 1494.29 -1.86477 -0.0912997 0
M  V30 15687 C 1494.64 -1.30382 -1.46611 0
M  V30 15688 O 1493.77 -0.633042 -2.06934 0
M  V30 15689 C 1494.36 -3.38361 -0.172447 0
M  V30 15690 C 1492.92 -3.71716 -0.591948 0
M  V30 15691 C 1492.07 -2.76176 0.24945 0
M  V30 15692 H 1495.02 -1.46839 0.602006 0
M  V30 15693 H 1495.04 -3.67325 -0.992603 0
M  V30 15694 H 1494.55 -3.79158 0.8283 0
M  V30 15695 H 1492.65 -3.36486 -1.60026 0
M  V30 15696 H 1492.77 -4.77792 -0.353835 0
M  V30 15697 H 1491.13 -2.53106 -0.284469 0
M  V30 15698 H 1491.91 -3.19809 1.24808 0
M  V30 15699 N 1494.36 -0.113586 -1.5719 0
M  V30 15700 C 1495.32 0.824258 -2.13866 0
M  V30 15701 C 1496.32 1.19831 -1.07224 0
M  V30 15702 O 1497.51 1.12471 -1.33026 0
M  V30 15703 C 1494.64 2.11391 -2.67445 0
M  V30 15704 H 1495.84 0.331803 -2.98059 0
M  V30 15705 H 1493.39 0.135599 -1.55711 0
M  V30 15706 H 1494.13 2.65079 -1.86824 0
M  V30 15707 H 1493.91 1.85523 -3.45433 0
M  V30 15708 H 1495.4 2.78443 -3.11222 0
M  V30 15709 N 1495.84 1.56784 0.160173 0
M  V30 15710 C 1497.25 1.72193 0.721552 0
M  V30 15711 C 1497.6 0.725901 1.82278 0
M  V30 15712 O 1496.72 -0.110343 2.16118 0
M  V30 15713 C 1497.32 3.12212 1.31563 0
M  V30 15714 C 1495.88 3.29268 1.82371 0
M  V30 15715 C 1495.03 2.68136 0.70701 0
M  V30 15716 H 1497.98 1.58565 -0.0653521 0
M  V30 15717 H 1498 3.11481 2.1854 0
M  V30 15718 H 1497.51 3.84682 0.513917 0
M  V30 15719 H 1495.61 2.61774 2.65152 0
M  V30 15720 H 1495.72 4.37107 1.96149 0
M  V30 15721 H 1494.09 2.28246 1.1303 0
M  V30 15722 H 1494.87 3.432 -0.0830407 0
M  V30 15723 N 1497.32 -0.429099 1.51646 0
M  V30 15724 C 1498.28 -1.50398 1.72954 0
M  V30 15725 C 1499.28 -1.49207 0.599491 0
M  V30 15726 O 1500.47 -1.51084 0.867143 0
M  V30 15727 C 1497.6 -2.89903 1.79358 0
M  V30 15728 H 1498.79 -1.32805 2.68892 0
M  V30 15729 H 1496.35 -0.658313 1.4176 0
M  V30 15730 H 1497.08 -3.12891 0.852639 0
M  V30 15731 H 1496.87 -2.92171 2.61492 0
M  V30 15732 H 1498.36 -3.67862 1.97654 0
M  V30 15733 N 1498.79 -1.41931 -0.685074 0
M  V30 15734 C 1500.21 -1.24631 -0.996957 0
M  V30 15735 C 1500.41 -0.143146 -2.00991 0
M  V30 15736 O 1499.47 0.489012 -2.47719 0
M  V30 15737 C 1500.78 -2.59947 -1.51156 0
M  V30 15738 C 1502.33 -2.67216 -1.62986 0
M  V30 15739 C 1502.8 -4.02874 -2.17845 0
M  V30 15740 N 1504.29 -4.04775 -2.25192 0
M  V30 15741 C 1505.03 -5.0655 -2.68691 0
M  V30 15742 N 1504.52 -6.18712 -3.11717 0
M  V30 15743 N 1506.32 -4.93909 -2.68348 0
M  V30 15744 H 1498.47 -2.12395 -0.0142223 0
M  V30 15745 H 1500.73 -0.945496 -0.0688552 0
M  V30 15746 H 1500.44 -3.41477 -0.841793 0
M  V30 15747 H 1500.31 -2.83159 -2.49201 0
M  V30 15748 H 1502.7 -1.86038 -2.29071 0
M  V30 15749 H 1502.78 -2.47804 -0.634584 0
M  V30 15750 H 1502.42 -4.84505 -1.52372 0
M  V30 15751 H 1502.35 -4.19633 -3.18144 0
M  V30 15752 H 1504.84 -3.23798 -1.94841 0
M  V30 15753 H 1505.16 -6.9223 -3.43565 0
M  V30 15754 H 1503.5 -6.22232 -3.096 0
M  V30 15755 H 1506.69 -4.05364 -2.34089 0
M  V30 15756 H 1506.87 -5.73361 -3.01929 0
M  V30 15757 N 1500.27 0.920374 -1.27933 0
M  V30 15758 C 1501.68 1.48385 -1.13309 0
M  V30 15759 C 1502.03 1.94202 0.279307 0
M  V30 15760 O 1501.16 1.81855 1.17294 0
M  V30 15761 C 1501.75 2.69681 -2.05079 0
M  V30 15762 C 1500.31 3.22229 -1.94539 0
M  V30 15763 C 1499.46 1.94948 -1.97207 0
M  V30 15764 H 1502.41 0.733744 -1.40719 0
M  V30 15765 H 1502.43 3.44717 -1.6109 0
M  V30 15766 H 1501.94 2.36304 -3.07867 0
M  V30 15767 H 1500.04 3.60348 -0.94764 0
M  V30 15768 H 1500.16 3.87927 -2.81157 0
M  V30 15769 H 1498.52 2.1176 -1.41527 0
M  V30 15770 H 1499.3 1.63875 -3.01662 0
M  V30 15771 N 1501.75 1.10074 1.1279 0
M  V30 15772 C 1503.17 0.831776 1.36212 0
M  V30 15773 C 1503.37 -0.550632 1.93831 0
M  V30 15774 O 1502.42 -1.30422 2.16209 0
M  V30 15775 C 1503.73 1.92844 2.3072 0
M  V30 15776 C 1505.28 1.95645 2.4432 0
M  V30 15777 C 1505.76 3.04474 3.4214 0
M  V30 15778 N 1507.25 3.03756 3.49695 0
M  V30 15779 C 1507.98 3.84605 4.25284 0
M  V30 15780 N 1507.48 4.7538 5.0397 0
M  V30 15781 N 1509.27 3.72838 4.20652 0
M  V30 15782 H 1501.42 1.99187 0.737452 0
M  V30 15783 H 1503.69 0.865383 0.387062 0
M  V30 15784 H 1503.39 2.92323 1.9555 0
M  V30 15785 H 1503.27 1.81241 3.30805 0
M  V30 15786 H 1505.65 0.968004 2.78772 0
M  V30 15787 H 1505.73 2.11325 1.44136 0
M  V30 15788 H 1505.38 4.03536 3.08418 0
M  V30 15789 H 1505.31 2.86036 4.42144 0
M  V30 15790 H 1507.8 2.37977 2.93556 0
M  V30 15791 H 1508.11 5.33637 5.58974 0
M  V30 15792 H 1506.46 4.79411 5.0318 0
M  V30 15793 H 1509.65 3.01276 3.5826 0
M  V30 15794 H 1509.82 4.36083 4.79308 0
M  V30 15795 N 1503.23 -1.30138 0.888926 0
M  V30 15796 C 1504.45 -2.00679 0.523697 0
M  V30 15797 C 1504.88 -1.66167 -0.881479 0
M  V30 15798 O 1504.24 -0.880418 -1.58488 0
M  V30 15799 C 1504.28 -3.53535 0.710284 0
M  V30 15800 O 1503.39 -4.11689 -0.242066 0
M  V30 15801 H 1502.73 -0.631273 0.205888 0
M  V30 15802 H 1505.26 -1.65891 1.19756 0
M  V30 15803 H 1505.27 -4.03402 0.610794 0
M  V30 15804 H 1503.94 -3.77992 1.73478 0
M  V30 15805 H 1502.52 -3.72777 -0.0959393 0
M  V30 15806 N 1504.71 -0.650285 -1.43559 0
M  V30 15807 C 1506.12 -0.24263 -1.85117 0
M  V30 15808 C 1506.47 1.21017 -1.54432 0
M  V30 15809 O 1505.59 1.92332 -0.991839 0
M  V30 15810 C 1506.19 -0.433575 -3.36014 0
M  V30 15811 C 1504.75 -0.0802635 -3.76314 0
M  V30 15812 C 1503.89 -0.737844 -2.67303 0
M  V30 15813 H 1506.84 -0.854158 -1.33753 0
M  V30 15814 H 1506.87 0.321801 -3.79137 0
M  V30 15815 H 1506.38 -1.49102 -3.58316 0
M  V30 15816 H 1504.48 0.974703 -3.59625 0
M  V30 15817 H 1504.59 -0.503683 -4.76445 0
M  V30 15818 H 1502.96 -0.171349 -2.54123 0
M  V30 15819 H 1503.74 -1.79826 -2.92434 0
M  V30 15820 N 1506.18 1.52647 -0.392018 0
M  V30 15821 C 1507.41 2.06511 0.191815 0
M  V30 15822 C 1507.83 1.26162 1.39516 0
M  V30 15823 O 1507.19 0.287373 1.79008 0
M  V30 15824 C 1507.24 3.56571 0.537512 0
M  V30 15825 O 1506.34 3.78774 1.63106 0
M  V30 15826 H 1505.68 0.663647 0.0216546 0
M  V30 15827 H 1508.21 1.96779 -0.560274 0
M  V30 15828 H 1508.22 4.00059 0.801044 0
M  V30 15829 H 1506.9 4.14489 -0.342239 0
M  V30 15830 H 1505.48 3.47175 1.36103 0
M  V30 15831 N 1507.66 0.121921 1.57128 0
M  V30 15832 C 1509.07 -0.402991 1.82299 0
M  V30 15833 C 1509.42 -1.66415 1.03925 0
M  V30 15834 O 1508.55 -2.14623 0.27674 0
M  V30 15835 C 1509.14 -0.737913 3.30666 0
M  V30 15836 C 1507.7 -1.20745 3.56508 0
M  V30 15837 C 1506.85 -0.217628 2.76445 0
M  V30 15838 H 1509.8 0.347009 1.5486 0
M  V30 15839 H 1509.82 -1.59505 3.45454 0
M  V30 15840 H 1509.33 0.180162 3.87682 0
M  V30 15841 H 1507.44 -2.14232 3.04853 0
M  V30 15842 H 1507.55 -1.15075 4.65075 0
M  V30 15843 H 1505.91 -0.705253 2.44741 0
M  V30 15844 H 1506.7 0.693596 3.3622 0
M  V30 15845 N 1509.14 -1.56867 -0.151857 0
M  V30 15846 C 1510.39 -1.82273 -0.863689 0
M  V30 15847 C 1510.7 -0.702377 -1.82554 0
M  V30 15848 O 1511.91 -0.841903 -2.58117 0
M  V30 15849 C 1510.36 -3.23046 -1.58649 0
M  V30 15850 C 1509.97 -4.43003 -0.667292 0
M  V30 15851 C 1511.72 -3.57729 -2.28539 0
M  V30 15852 C 1509.62 -5.74798 -1.39144 0
M  V30 15853 H 1508.55 -0.679753 -0.326269 0
M  V30 15854 H 1511.2 -1.8313 -0.116454 0
M  V30 15855 H 1509.59 -3.16561 -2.37918 0
M  V30 15856 H 1510.76 -4.60712 0.0898254 0
M  V30 15857 H 1509.08 -4.16329 -0.0770521 0
M  V30 15858 H 1511.67 -4.53451 -2.83348 0
M  V30 15859 H 1512.02 -2.8355 -3.04803 0
M  V30 15860 H 1512.55 -3.65853 -1.56194 0
M  V30 15861 H 1509.29 -6.52059 -0.670747 0
M  V30 15862 H 1508.81 -5.61032 -2.12139 0
M  V30 15863 H 1510.49 -6.17429 -1.93367 0
M  V30 15864 N 1510.62 0.421051 -1.51871 0
M  V30 15865 C 1511.84 1.19568 -1.69465 0
M  V30 15866 C 1512.27 1.83835 -0.398269 0
M  V30 15867 O 1511.63 1.69508 0.643172 0
M  V30 15868 C 1511.67 2.24337 -2.82321 0
M  V30 15869 O 1510.78 3.30205 -2.47059 0
M  V30 15870 H 1510.12 0.349579 -0.564527 0
M  V30 15871 H 1512.65 0.495177 -1.98517 0
M  V30 15872 H 1512.66 2.6886 -3.06885 0
M  V30 15873 H 1511.33 1.76941 -3.76384 0
M  V30 15874 H 1509.91 2.91045 -2.33125 0
M  V30 15875 N 1512.1 1.42293 0.677538 0
M  V30 15876 C 1513.32 1.46008 1.46592 0
M  V30 15877 C 1513.74 0.0706015 1.88668 0
M  V30 15878 O 1513.1 -0.914076 1.57959 0
M  V30 15879 C 1513.15 2.38477 2.71682 0
M  V30 15880 O 1512.87 3.72019 2.31372 0
M  V30 15881 C 1514.37 2.51185 3.65269 0
M  V30 15882 H 1511.59 0.49669 0.451154 0
M  V30 15883 H 1514.13 1.86777 0.832736 0
M  V30 15884 H 1512.29 2.00969 3.31195 0
M  V30 15885 H 1512.7 4.21514 3.12131 0
M  V30 15886 H 1514.18 3.20014 4.49772 0
M  V30 15887 H 1514.65 1.54885 4.10983 0
M  V30 15888 H 1515.26 2.89404 3.1165 0
M  V30 15889 N 1513.57 -0.913576 1.28419 0
M  V30 15890 C 1514.5 -2.03275 1.14897 0
M  V30 15891 C 1515.49 -1.70036 0.0467034 0
M  V30 15892 O 1516.67 -1.92907 0.223725 0
M  V30 15893 C 1513.8 -3.37717 0.810217 0
M  V30 15894 C 1512.75 -3.85119 1.86728 0
M  V30 15895 C 1512.08 -5.16527 1.38215 0
M  V30 15896 C 1513.38 -4.06959 3.27386 0
M  V30 15897 H 1515.07 -2.14847 2.08522 0
M  V30 15898 H 1512.62 -1.03233 1.00394 0
M  V30 15899 H 1514.57 -4.15505 0.702382 0
M  V30 15900 H 1513.3 -3.26199 -0.161732 0
M  V30 15901 H 1511.96 -3.09536 1.96426 0
M  V30 15902 H 1511.6 -5.01413 0.399263 0
M  V30 15903 H 1511.3 -5.49213 2.08898 0
M  V30 15904 H 1512.83 -5.96871 1.28754 0
M  V30 15905 H 1514.24 -4.75272 3.20608 0
M  V30 15906 H 1512.64 -4.50977 3.95904 0
M  V30 15907 H 1513.71 -3.11764 3.71391 0
M  V30 15908 N 1515.05 -1.1067 -1.12204 0
M  V30 15909 C 1516.28 -0.873095 -1.88127 0
M  V30 15910 C 1516.7 0.571099 -1.79221 0
M  V30 15911 O 1516.06 1.40251 -1.14888 0
M  V30 15912 C 1516.11 -1.32922 -3.35208 0
M  V30 15913 O 1515.21 -0.495807 -4.09409 0
M  V30 15914 H 1514.55 -0.315138 -0.584452 0
M  V30 15915 H 1517.08 -1.47413 -1.41882 0
M  V30 15916 H 1517.09 -1.32023 -3.86049 0
M  V30 15917 H 1515.77 -2.38091 -3.41007 0
M  V30 15918 H 1514.35 -0.570216 -3.68515 0
M  V30 15919 N 1516.53 1.29665 -0.895815 0
M  V30 15920 C 1517.48 2.2542 -0.34201 0
M  V30 15921 C 1518.46 1.5172 0.535712 0
M  V30 15922 O 1519.66 1.72909 0.378364 0
M  V30 15923 C 1516.79 3.4056 0.43287 0
M  V30 15924 C 1515.87 4.21603 -0.459552 0
M  V30 15925 N 1516.26 4.8098 -1.565 0
M  V30 15926 C 1514.56 4.45261 -0.256632 0
M  V30 15927 C 1515.26 5.41792 -2.11746 0
M  V30 15928 N 1514.24 5.24968 -1.411 0
M  V30 15929 H 1518.04 2.68885 -1.18651 0
M  V30 15930 H 1515.55 1.4423 -0.74643 0
M  V30 15931 H 1517.55 4.08219 0.846334 0
M  V30 15932 H 1516.21 2.98633 1.27468 0
M  V30 15933 H 1517.22 4.79877 -1.94777 0
M  V30 15934 H 1513.9 4.13899 0.547131 0
M  V30 15935 H 1515.29 5.9887 -3.04637 0
M  V30 15936 N 1518.01 0.657889 1.43212 0
M  V30 15937 C 1519.42 0.325876 1.56238 0
M  V30 15938 C 1519.62 -1.16975 1.6407 0
M  V30 15939 O 1518.68 -1.95473 1.59833 0
M  V30 15940 C 1519.99 1.04134 2.82093 0
M  V30 15941 C 1521.54 1.02204 2.95844 0
M  V30 15942 C 1522.02 1.71849 4.24537 0
M  V30 15943 N 1523.51 1.68635 4.31412 0
M  V30 15944 C 1524.24 2.19393 5.29768 0
M  V30 15945 N 1523.74 2.7846 6.34375 0
M  V30 15946 N 1525.53 2.09866 5.21452 0
M  V30 15947 H 1517.68 1.62839 1.36371 0
M  V30 15948 H 1519.95 0.685072 0.655271 0
M  V30 15949 H 1519.65 2.09647 2.82385 0
M  V30 15950 H 1519.53 0.595842 3.72464 0
M  V30 15951 H 1521.91 -0.0247029 2.9509 0
M  V30 15952 H 1521.99 1.50627 2.06749 0
M  V30 15953 H 1521.64 2.76482 4.26052 0
M  V30 15954 H 1521.57 1.20888 5.12536 0
M  V30 15955 H 1524.06 1.25536 3.56439 0
M  V30 15956 H 1524.37 3.14855 7.05752 0
M  V30 15957 H 1522.72 2.82523 6.34985 0
M  V30 15958 H 1525.91 1.63422 4.38647 0
M  V30 15959 H 1526.08 2.49732 5.97945 0
M  V30 15960 N 1519.49 -1.52437 0.400108 0
M  V30 15961 C 1520.45 -2.2536 -0.417808 0
M  V30 15962 C 1521.45 -1.27393 -0.981204 0
M  V30 15963 O 1522.64 -1.51406 -0.861503 0
M  V30 15964 C 1519.77 -3.01695 -1.58724 0
M  V30 15965 H 1520.96 -2.99086 0.220782 0
M  V30 15966 H 1518.52 -1.55555 0.152439 0
M  V30 15967 H 1519.25 -2.32295 -2.26295 0
M  V30 15968 H 1519.04 -3.73611 -1.18984 0
M  V30 15969 H 1520.53 -3.57033 -2.16604 0
M  V30 15970 N 1520.96 -0.130252 -1.57061 0
M  V30 15971 C 1522.21 0.523969 -1.9519 0
M  V30 15972 C 1522.53 1.66493 -1.01514 0
M  V30 15973 O 1521.8 1.95762 -0.0735194 0
M  V30 15974 H 1520.38 0.196553 -0.720677 0
M  V30 15975 H 1523.05 -0.20183 -1.93852 0
M  V30 15976 H 1522.14 0.911156 -2.98504 0
M  V30 15977 N 1522.44 1.56945 0.143535 0
M  V30 15978 C 1523.67 1.88067 0.874385 0
M  V30 15979 C 1524.09 0.719645 1.73789 0
M  V30 15980 O 1523.45 -0.330654 1.78259 0
M  V30 15981 C 1523.5 3.17795 1.70408 0
M  V30 15982 O 1522.6 3.01973 2.80867 0
M  V30 15983 H 1521.94 0.617808 0.24333 0
M  V30 15984 H 1524.47 2.04165 0.133309 0
M  V30 15985 H 1524.48 3.49903 2.09838 0
M  V30 15986 H 1523.16 4.019 1.07001 0
M  V30 15987 H 1521.74 2.8128 2.44818 0
M  V30 15988 N 1523.92 -0.412991 1.52093 0
M  V30 15989 C 1524.88 -1.48555 1.7454 0
M  V30 15990 C 1525.88 -1.48563 0.615283 0
M  V30 15991 O 1527.07 -1.50155 0.883119 0
M  V30 15992 C 1524.21 -2.87984 1.82423 0
M  V30 15993 H 1525.4 -1.29945 2.70285 0
M  V30 15994 H 1522.95 -0.643241 1.4245 0
M  V30 15995 H 1523.69 -3.11969 0.885777 0
M  V30 15996 H 1523.47 -2.89381 2.64577 0
M  V30 15997 H 1524.96 -3.65745 2.01545 0
M  V30 15998 N 1525.4 -1.4265 -0.669982 0
M  V30 15999 C 1526.62 -1.46992 -1.46315 0
M  V30 16000 C 1527.05 -0.0840655 -1.87912 0
M  V30 16001 O 1526.41 0.918554 -1.56308 0
M  V30 16002 C 1526.46 -2.40663 -2.6854 0
M  V30 16003 O 1525.56 -1.88132 -3.66988 0
M  V30 16004 H 1524.9 -0.497844 -0.439372 0
M  V30 16005 H 1527.43 -1.8739 -0.821348 0
M  V30 16006 H 1527.44 -2.57405 -3.16554 0
M  V30 16007 H 1526.12 -3.41346 -2.37604 0
M  V30 16008 H 1524.69 -1.80969 -3.26044 0
M  V30 16009 N 1526.88 0.906753 -1.28902 0
M  V30 16010 C 1528.29 1.18635 -1.06761 0
M  V30 16011 C 1528.49 2.00643 0.185594 0
M  V30 16012 O 1527.55 2.3647 0.885324 0
M  V30 16013 C 1528.86 1.91414 -2.31907 0
M  V30 16014 C 1530.41 2.04269 -2.37156 0
M  V30 16015 C 1530.89 2.80458 -3.62088 0
M  V30 16016 N 1532.38 2.88016 -3.62769 0
M  V30 16017 C 1533.11 3.47485 -4.56116 0
M  V30 16018 N 1532.61 4.08178 -5.59788 0
M  V30 16019 N 1534.4 3.45092 -4.43698 0
M  V30 16020 H 1526.55 0.359413 -2.09337 0
M  V30 16021 H 1528.81 0.221688 -0.921715 0
M  V30 16022 H 1528.52 1.38587 -3.23244 0
M  V30 16023 H 1528.39 2.91929 -2.38867 0
M  V30 16024 H 1530.78 2.56275 -1.46312 0
M  V30 16025 H 1530.86 1.0291 -2.34186 0
M  V30 16026 H 1530.51 2.2913 -4.53279 0
M  V30 16027 H 1530.44 3.82147 -3.62314 0
M  V30 16028 H 1532.93 2.44902 -2.87805 0
M  V30 16029 H 1533.24 4.51557 -6.27149 0
M  V30 16030 H 1531.59 4.06661 -5.63606 0
M  V30 16031 H 1534.78 2.96891 -3.61903 0
M  V30 16032 H 1534.95 3.91145 -5.16633 0
M  V30 16033 N 1528.36 1.11264 1.11616 0
M  V30 16034 C 1529.58 0.882802 1.87121 0
M  V30 16035 C 1530 -0.567279 1.80076 0
M  V30 16036 O 1529.36 -1.39158 1.18074 0
M  V30 16037 C 1529.41 1.33355 3.36004 0
M  V30 16038 O 1529.13 2.72678 3.42897 0
M  V30 16039 C 1530.63 1.13886 4.28421 0
M  V30 16040 H 1527.85 0.316275 0.591786 0
M  V30 16041 H 1530.39 1.4795 1.41177 0
M  V30 16042 H 1528.55 0.780347 3.79459 0
M  V30 16043 H 1528.96 2.92168 4.35589 0
M  V30 16044 H 1530.44 1.50329 5.31136 0
M  V30 16045 H 1530.91 0.078259 4.3913 0
M  V30 16046 H 1531.52 1.67896 3.90757 0
M  V30 16047 N 1529.83 -1.29188 0.902679 0
M  V30 16048 C 1531.11 -1.90365 0.449496 0
M  V30 16049 C 1531.49 -1.81911 -1.07105 0
M  V30 16050 O 1530.84 -1.24778 -1.91423 0
M  V30 16051 C 1531.05 -3.35324 0.967418 0
M  V30 16052 C 1532.4 -4.12342 1.0129 0
M  V30 16053 O 1533.42 -3.44239 0.915293 0
M  V30 16054 O 1532.28 -5.34048 1.15994 0
M  V30 16055 H 1529.37 -0.814956 0.140628 0
M  V30 16056 H 1531.92 -1.37633 0.992739 0
M  V30 16057 H 1530.69 -3.35646 2.0114 0
M  V30 16058 H 1530.31 -3.95539 0.404358 0
M  V30 16059 N 1531.31 -0.665475 -1.42861 0
M  V30 16060 C 1532.59 -0.113252 -1.95272 0
M  V30 16061 C 1532.97 1.36972 -1.6063 0
M  V30 16062 O 1532.32 2.10129 -0.897662 0
M  V30 16063 C 1532.53 -0.372482 -3.47007 0
M  V30 16064 C 1533.87 -0.283982 -4.23649 0
M  V30 16065 O 1534.9 -0.305714 -3.54886 0
M  V30 16066 O 1533.76 -0.218171 -5.46064 0
M  V30 16067 H 1530.85 0.00253712 -0.826996 0
M  V30 16068 H 1533.4 -0.739561 -1.52737 0
M  V30 16069 H 1532.17 -1.40015 -3.65392 0
M  V30 16070 H 1531.79 0.286294 -3.96568 0
M  V30 16071 N 1532.79 1.52222 -0.408187 0
M  V30 16072 C 1534.07 1.94285 0.22641 0
M  V30 16073 C 1534.45 1.34501 1.62705 0
M  V30 16074 O 1533.79 0.52045 2.22494 0
M  V30 16075 C 1534 3.48217 0.233695 0
M  V30 16076 C 1535.35 4.22171 0.453504 0
M  V30 16077 O 1536.38 3.54821 0.313093 0
M  V30 16078 O 1535.24 5.416 0.730183 0
M  V30 16079 H 1532.33 0.814078 0.145625 0
M  V30 16080 H 1534.88 1.63232 -0.464062 0
M  V30 16081 H 1533.65 3.84111 -0.746644 0
M  V30 16082 H 1533.27 3.85629 0.968305 0
M  V30 16083 N 1534.27 0.138579 1.5699 0
M  V30 16084 C 1535.51 -0.51539 1.96142 0
M  V30 16085 C 1535.85 -1.65067 1.02306 0
M  V30 16086 O 1535.12 -1.94395 0.0638645 0
M  V30 16087 C 1535.4 -1.02956 3.45068 0
M  V30 16088 C 1535.26 0.103646 4.49681 0
M  V30 16089 C 1536.58 -1.91411 3.96295 0
M  V30 16090 H 1533.7 -0.185873 0.713176 0
M  V30 16091 H 1536.34 0.218103 1.88744 0
M  V30 16092 H 1534.49 -1.65462 3.51503 0
M  V30 16093 H 1536.16 0.739693 4.55331 0
M  V30 16094 H 1534.4 0.764014 4.27019 0
M  V30 16095 H 1535.07 -0.297688 5.51197 0
M  V30 16096 H 1537.55 -1.38746 3.92286 0
M  V30 16097 H 1536.43 -2.24298 5.0098 0
M  V30 16098 H 1536.69 -2.84793 3.38149 0
M  V30 16099 N 1535.75 -1.57019 -0.13521 0
M  V30 16100 C 1537.16 -1.73319 -0.694067 0
M  V30 16101 C 1537.51 -0.754808 -1.811 0
M  V30 16102 O 1536.63 0.0759463 -2.16267 0
M  V30 16103 C 1537.23 -3.14266 -1.26579 0
M  V30 16104 C 1535.79 -3.32128 -1.7711 0
M  V30 16105 C 1534.93 -2.69226 -0.664263 0
M  V30 16106 H 1537.88 -1.58441 0.0905702 0
M  V30 16107 H 1537.91 -3.14919 -2.13557 0
M  V30 16108 H 1537.42 -3.85451 -0.452652 0
M  V30 16109 H 1535.52 -2.65959 -2.60953 0
M  V30 16110 H 1535.63 -4.40172 -1.8917 0
M  V30 16111 H 1534 -2.30016 -1.09384 0
M  V30 16112 H 1534.78 -3.43024 0.13763 0
M  V30 16113 N 1537.22 0.404919 -1.52309 0
M  V30 16114 C 1538.45 1.17764 -1.70723 0
M  V30 16115 C 1538.87 1.83403 -0.417744 0
M  V30 16116 O 1538.23 1.70181 0.625157 0
M  V30 16117 C 1538.28 2.2133 -2.84685 0
M  V30 16118 O 1537.38 3.27566 -2.50548 0
M  V30 16119 H 1536.73 0.343572 -0.568203 0
M  V30 16120 H 1539.26 0.474093 -1.99031 0
M  V30 16121 H 1539.27 2.6559 -3.09719 0
M  V30 16122 H 1537.94 1.72939 -3.78239 0
M  V30 16123 H 1536.52 2.88556 -2.36199 0
M  V30 16124 N 1538.7 1.43003 0.662408 0
M  V30 16125 C 1539.63 1.50248 1.78739 0
M  V30 16126 C 1540.61 0.357934 1.66291 0
M  V30 16127 O 1541.8 0.573919 1.85526 0
M  V30 16128 C 1538.93 1.41618 3.17114 0
M  V30 16129 C 1537.88 2.54228 3.44314 0
M  V30 16130 C 1537.21 2.30653 4.82393 0
M  V30 16131 C 1538.51 3.96505 3.39972 0
M  V30 16132 H 1540.2 2.44406 1.72934 0
M  V30 16133 H 1537.75 1.17633 0.830569 0
M  V30 16134 H 1539.7 1.45293 3.9556 0
M  V30 16135 H 1538.43 0.439605 3.23628 0
M  V30 16136 H 1537.08 2.49891 2.68235 0
M  V30 16137 H 1536.73 1.3126 4.85572 0
M  V30 16138 H 1536.43 3.06134 5.01554 0
M  V30 16139 H 1537.96 2.36096 5.63108 0
M  V30 16140 H 1539.37 4.02378 4.08368 0
M  V30 16141 H 1537.77 4.71937 3.70668 0
M  V30 16142 H 1538.84 4.22295 2.38318 0
M  V30 16143 N 1540.18 -0.899904 1.29381 0
M  V30 16144 C 1541.13 -1.9909 1.11119 0
M  V30 16145 C 1542.11 -1.60871 0.030676 0
M  V30 16146 O 1543.31 -1.75192 0.252365 0
M  V30 16147 C 1540.44 -3.34097 0.789552 0
M  V30 16148 C 1539.52 -3.78676 1.90959 0
M  V30 16149 N 1539.91 -3.95492 3.15309 0
M  V30 16150 C 1538.21 -4.0795 1.80258 0
M  V30 16151 C 1538.91 -4.33054 3.8838 0
M  V30 16152 N 1537.89 -4.42087 3.16322 0
M  V30 16153 H 1541.69 -2.1016 2.0545 0
M  V30 16154 H 1539.2 -1.08871 1.20503 0
M  V30 16155 H 1541.2 -4.11962 0.639765 0
M  V30 16156 H 1539.86 -3.24372 -0.14585 0
M  V30 16157 H 1540.87 -3.8103 3.50766 0
M  V30 16158 H 1537.55 -4.06783 0.939877 0
M  V30 16159 H 1538.94 -4.53912 4.95393 0
M  V30 16160 N 1541.66 -1.11854 -1.11024 0
M  V30 16161 C 1542.88 -0.892999 -1.8719 0
M  V30 16162 C 1543.31 0.552058 -1.79816 0
M  V30 16163 O 1542.67 1.39025 -1.16369 0
M  V30 16164 C 1542.71 -1.3647 -3.33779 0
M  V30 16165 O 1541.82 -0.539202 -4.0886 0
M  V30 16166 H 1541.16 -0.321319 -0.581076 0
M  V30 16167 H 1543.69 -1.4891 -1.4031 0
M  V30 16168 H 1543.7 -1.3611 -3.84627 0
M  V30 16169 H 1542.37 -2.41694 -3.38462 0
M  V30 16170 H 1540.95 -0.60927 -3.67889 0
M  V30 16171 N 1543.14 1.28707 -0.909517 0
M  V30 16172 C 1544.05 2.31171 -0.399628 0
M  V30 16173 C 1545.06 1.6634 0.510582 0
M  V30 16174 O 1546.24 1.97432 0.397792 0
M  V30 16175 C 1543.3 3.44869 0.355852 0
M  V30 16176 C 1542.36 4.25267 -0.587065 0
M  V30 16177 C 1541.6 5.33536 0.132456 0
M  V30 16178 O 1541.82 5.54075 1.35486 0
M  V30 16179 O 1540.75 5.99561 -0.530062 0
M  V30 16180 H 1544.58 2.76785 -1.24995 0
M  V30 16181 H 1542.17 1.33323 -0.674186 0
M  V30 16182 H 1544.05 4.14068 0.782692 0
M  V30 16183 H 1542.72 3.01345 1.18207 0
M  V30 16184 H 1541.63 3.58673 -1.06322 0
M  V30 16185 H 1542.96 4.72459 -1.37998 0
M  V30 16186 N 1544.61 0.673042 1.42506 0
M  V30 16187 C 1546.03 0.272049 1.84707 0
M  V30 16188 C 1546.38 -1.18545 1.56338 0
M  V30 16189 O 1545.5 -1.9073 1.02231 0
M  V30 16190 C 1546.1 0.486977 3.35282 0
M  V30 16191 C 1544.66 0.140122 3.76139 0
M  V30 16192 C 1543.8 0.780276 2.66096 0
M  V30 16193 H 1546.75 0.875329 1.32377 0
M  V30 16194 H 1546.77 -0.261443 3.79601 0
M  V30 16195 H 1546.29 1.54784 3.55898 0
M  V30 16196 H 1544.39 -0.917366 3.6113 0
M  V30 16197 H 1544.5 0.579417 4.75583 0
M  V30 16198 H 1542.86 0.211756 2.53818 0
M  V30 16199 H 1543.65 1.84456 2.89536 0
M  V30 16200 N 1546.09 -1.52004 0.416254 0
M  V30 16201 C 1547.34 -2.02188 -0.157434 0
M  V30 16202 C 1547.67 -1.30097 -1.44182 0
M  V30 16203 O 1546.95 -0.409426 -1.90142 0
M  V30 16204 C 1547.23 -3.57896 -0.397847 0
M  V30 16205 C 1547.08 -4.40628 0.903715 0
M  V30 16206 C 1548.4 -4.24072 -1.17689 0
M  V30 16207 H 1545.52 -0.734889 -0.0557437 0
M  V30 16208 H 1548.16 -1.81831 0.551118 0
M  V30 16209 H 1546.31 -3.75372 -1.00142 0
M  V30 16210 H 1547.98 -4.34848 1.53964 0
M  V30 16211 H 1546.23 -4.06556 1.5131 0
M  V30 16212 H 1546.9 -5.47673 0.689802 0
M  V30 16213 H 1549.37 -4.10738 -0.665832 0
M  V30 16214 H 1548.25 -5.32944 -1.31386 0
M  V30 16215 H 1548.51 -3.83507 -2.19942 0
M  V30 16216 N 1547.57 -0.146903 -1.56914 0
M  V30 16217 C 1548.53 0.778709 -2.15566 0
M  V30 16218 C 1549.53 1.1753 -1.09742 0
M  V30 16219 O 1550.72 1.09624 -1.35382 0
M  V30 16220 C 1547.86 2.0567 -2.71869 0
M  V30 16221 H 1549.05 0.268506 -2.98696 0
M  V30 16222 H 1546.6 0.10254 -1.55963 0
M  V30 16223 H 1547.34 2.61057 -1.92405 0
M  V30 16224 H 1547.12 1.78154 -3.4929 0
M  V30 16225 H 1548.61 2.71779 -3.17059 0
M  V30 16226 N 1549.05 1.57088 0.126881 0
M  V30 16227 C 1550.46 1.52205 0.480175 0
M  V30 16228 C 1550.66 0.858634 1.8229 0
M  V30 16229 O 1549.72 0.437636 2.48679 0
M  V30 16230 C 1551.03 2.96974 0.471931 0
M  V30 16231 C 1552.58 3.08021 0.556037 0
M  V30 16232 C 1553.06 4.54335 0.57826 0
M  V30 16233 N 1554.55 4.58758 0.639922 0
M  V30 16234 C 1555.28 5.69372 0.678434 0
M  V30 16235 N 1554.78 6.89503 0.67507 0
M  V30 16236 N 1556.57 5.57459 0.720845 0
M  V30 16237 H 1548.72 1.98604 -0.753008 0
M  V30 16238 H 1550.99 0.90666 -0.276895 0
M  V30 16239 H 1550.69 3.48849 -0.44687 0
M  V30 16240 H 1550.57 3.53994 1.3026 0
M  V30 16241 H 1552.95 2.56153 1.46526 0
M  V30 16242 H 1553.03 2.54009 -0.302171 0
M  V30 16243 H 1552.68 5.06847 -0.326884 0
M  V30 16244 H 1552.61 5.06151 1.45324 0
M  V30 16245 H 1555.1 3.72285 0.649005 0
M  V30 16246 H 1555.41 7.6956 0.706862 0
M  V30 16247 H 1553.76 6.92023 0.64262 0
M  V30 16248 H 1556.95 4.62517 0.720783 0
M  V30 16249 H 1557.12 6.43675 0.747392 0
M  V30 16250 N 1550.53 -0.396836 1.52522 0
M  V30 16251 C 1551.75 -1.16857 1.71345 0
M  V30 16252 C 1552.18 -1.83178 0.427465 0
M  V30 16253 O 1551.53 -1.7051 -0.616123 0
M  V30 16254 C 1551.58 -2.19817 2.85855 0
M  V30 16255 O 1550.69 -3.26233 2.52281 0
M  V30 16256 H 1550.03 -0.340554 0.570017 0
M  V30 16257 H 1552.56 -0.463532 1.9928 0
M  V30 16258 H 1552.57 -2.63944 3.11123 0
M  V30 16259 H 1551.24 -1.70931 3.79151 0
M  V30 16260 H 1549.82 -2.87299 2.37726 0
M  V30 16261 N 1552.01 -1.43353 -0.654814 0
M  V30 16262 C 1553.23 -1.48536 -1.44748 0
M  V30 16263 C 1553.66 -0.103991 -1.87812 0
M  V30 16264 O 1553.01 0.901924 -1.57274 0
M  V30 16265 C 1553.06 -2.43498 -2.65972 0
M  V30 16266 O 1552.17 -1.92014 -3.64972 0
M  V30 16267 H 1551.51 -0.502476 -0.434067 0
M  V30 16268 H 1554.04 -1.88251 -0.801427 0
M  V30 16269 H 1554.05 -2.60748 -3.13806 0
M  V30 16270 H 1552.72 -3.43847 -2.3397 0
M  V30 16271 H 1551.3 -1.84417 -3.24106 0
M  V30 16272 N 1553.48 0.89303 -1.29857 0
M  V30 16273 C 1554.71 1.6827 -1.21243 0
M  V30 16274 C 1555.13 1.86778 0.222621 0
M  V30 16275 O 1554.49 1.39291 1.1605 0
M  V30 16276 C 1554.54 3.041 -1.93792 0
M  V30 16277 O 1553.64 3.92696 -1.25951 0
M  V30 16278 H 1552.98 0.514479 -0.419771 0
M  V30 16279 H 1555.51 1.11513 -1.7154 0
M  V30 16280 H 1555.52 3.54198 -2.02504 0
M  V30 16281 H 1554.2 2.89948 -2.98166 0
M  V30 16282 H 1552.78 3.51132 -1.25541 0
M  V30 16283 N 1554.96 1.12442 1.10429 0
M  V30 16284 C 1556.19 0.902914 1.86714 0
M  V30 16285 C 1556.61 -0.542514 1.80107 0
M  V30 16286 O 1555.97 -1.38406 1.17105 0
M  V30 16287 C 1556.02 1.38238 3.33051 0
M  V30 16288 O 1555.12 0.560877 4.08568 0
M  V30 16289 H 1554.46 0.324397 0.579364 0
M  V30 16290 H 1556.99 1.49652 1.39519 0
M  V30 16291 H 1557 1.38148 3.839 0
M  V30 16292 H 1555.68 2.43486 3.37176 0
M  V30 16293 H 1554.25 0.628771 3.67561 0
M  V30 16294 N 1556.44 -1.28223 0.91633 0
M  V30 16295 C 1557.37 -2.26291 0.363986 0
M  V30 16296 C 1558.38 -1.54964 -0.498988 0
M  V30 16297 O 1559.57 -1.75726 -0.31345 0
M  V30 16298 C 1556.67 -3.35219 -0.498126 0
M  V30 16299 C 1555.85 -4.36054 0.34293 0
M  V30 16300 C 1554.91 -5.24232 -0.454688 0
M  V30 16301 O 1553.93 -5.69043 0.133649 0
M  V30 16302 N 1555.13 -5.53268 -1.75714 0
M  V30 16303 H 1557.9 -2.74323 1.20694 0
M  V30 16304 H 1555.46 -1.41731 0.782551 0
M  V30 16305 H 1557.45 -3.91148 -1.03852 0
M  V30 16306 H 1556.02 -2.86876 -1.2418 0
M  V30 16307 H 1555.24 -3.7955 1.06468 0
M  V30 16308 H 1556.53 -5.00444 0.918322 0
M  V30 16309 H 1555.93 -5.18698 -2.25762 0
M  V30 16310 H 1554.48 -6.11943 -2.2443 0
M  V30 16311 N 1557.92 -0.68059 -1.42147 0
M  V30 16312 C 1559.17 -0.204857 -2.01059 0
M  V30 16313 C 1559.49 1.19475 -1.54113 0
M  V30 16314 O 1558.76 1.80334 -0.765279 0
M  V30 16315 H 1557.34 -0.0727459 -0.743449 0
M  V30 16316 H 1560 -0.878396 -1.73983 0
M  V30 16317 H 1559.09 -0.210628 -3.11388 0
M  V30 16318 N 1559.4 1.51781 -0.424309 0
M  V30 16319 C 1560.62 2.06871 0.147968 0
M  V30 16320 C 1561.05 1.29093 1.36808 0
M  V30 16321 O 1560.4 0.325279 1.78358 0
M  V30 16322 C 1560.45 3.57631 0.461757 0
M  V30 16323 O 1559.56 3.82149 1.55035 0
M  V30 16324 H 1558.9 0.663957 0.00757275 0
M  V30 16325 H 1561.43 1.95547 -0.601888 0
M  V30 16326 H 1561.44 4.01668 0.716005 0
M  V30 16327 H 1560.11 4.1367 -0.430081 0
M  V30 16328 H 1558.69 3.49984 1.28709 0
M  V30 16329 N 1560.87 0.155222 1.56834 0
M  V30 16330 C 1561.8 -0.777258 2.20184 0
M  V30 16331 C 1562.78 -1.25102 1.15254 0
M  V30 16332 O 1563.97 -1.3071 1.43627 0
M  V30 16333 C 1561.1 -2.01326 2.82993 0
M  V30 16334 C 1560.05 -1.67596 3.93822 0
M  V30 16335 C 1559.38 -2.98529 4.43604 0
M  V30 16336 C 1560.68 -0.916302 5.142 0
M  V30 16337 H 1562.37 -0.249257 2.98361 0
M  V30 16338 H 1559.92 -0.118448 1.43512 0
M  V30 16339 H 1561.87 -2.67048 3.2598 0
M  V30 16340 H 1560.6 -2.56513 2.0216 0
M  V30 16341 H 1559.26 -1.0425 3.51465 0
M  V30 16342 H 1558.9 -3.51723 3.59583 0
M  V30 16343 H 1558.6 -2.76721 5.18362 0
M  V30 16344 H 1560.13 -3.65308 4.89267 0
M  V30 16345 H 1561.54 -1.47577 5.5398 0
M  V30 16346 H 1559.94 -0.797856 5.94772 0
M  V30 16347 H 1561.01 0.0904351 4.84816 0
M  V30 16348 N 1562.35 -1.57153 -0.118549 0
M  V30 16349 C 1563.28 -1.95577 -1.17579 0
M  V30 16350 C 1564.26 -0.825508 -1.40086 0
M  V30 16351 O 1565.45 -1.08372 -1.54233 0
M  V30 16352 C 1562.57 -2.25238 -2.52954 0
M  V30 16353 C 1561.62 -3.47789 -2.46871 0
M  V30 16354 S 1562.45 -5.00358 -1.90792 0
M  V30 16355 C 1563.61 -5.33172 -3.27839 0
M  V30 16356 H 1563.84 -2.84946 -0.84812 0
M  V30 16357 H 1561.37 -1.50934 -0.325323 0
M  V30 16358 H 1563.33 -2.43005 -3.30846 0
M  V30 16359 H 1561.99 -1.36482 -2.82898 0
M  V30 16360 H 1561.19 -3.6591 -3.46592 0
M  V30 16361 H 1560.79 -3.29411 -1.771 0
M  V30 16362 H 1563.08 -5.28381 -4.24051 0
M  V30 16363 H 1564.02 -6.34403 -3.14545 0
M  V30 16364 H 1564.43 -4.60647 -3.26289 0
M  V30 16365 N 1563.83 0.388742 -1.5273 0
M  V30 16366 C 1564.74 1.49916 -1.8045 0
M  V30 16367 C 1565.76 1.59679 -0.691282 0
M  V30 16368 O 1566.93 1.7601 -0.978898 0
M  V30 16369 C 1564 2.85445 -1.96779 0
M  V30 16370 C 1563.06 2.85402 -3.20693 0
M  V30 16371 C 1562.29 4.14466 -3.36234 0
M  V30 16372 O 1562.51 5.09436 -2.56576 0
M  V30 16373 O 1561.45 4.2169 -4.29489 0
M  V30 16374 H 1565.27 1.29423 -2.74743 0
M  V30 16375 H 1562.86 0.576607 -1.37825 0
M  V30 16376 H 1564.74 3.65791 -2.09224 0
M  V30 16377 H 1563.42 3.05964 -1.05676 0
M  V30 16378 H 1562.32 2.03836 -3.1369 0
M  V30 16379 H 1563.66 2.69835 -4.11643 0
M  V30 16380 N 1565.31 1.43698 0.647203 0
M  V30 16381 C 1566.24 1.45295 1.77262 0
M  V30 16382 C 1567.25 0.34831 1.5903 0
M  V30 16383 O 1568.44 0.613106 1.6764 0
M  V30 16384 C 1565.54 1.25584 3.14773 0
M  V30 16385 C 1564.71 2.48998 3.59609 0
M  V30 16386 C 1563.77 2.24423 4.75942 0
M  V30 16387 O 1562.8 2.97813 4.85073 0
M  V30 16388 N 1564 1.26465 5.66557 0
M  V30 16389 H 1566.77 2.42311 1.76368 0
M  V30 16390 H 1564.33 1.38931 0.831247 0
M  V30 16391 H 1566.32 1.07016 3.90294 0
M  V30 16392 H 1564.89 0.369927 3.10403 0
M  V30 16393 H 1564.11 2.82951 2.74467 0
M  V30 16394 H 1565.4 3.31119 3.86313 0
M  V30 16395 H 1564.8 0.658206 5.61858 0
M  V30 16396 H 1563.35 1.13879 6.41775 0
M  V30 16397 N 1566.79 -0.886131 1.30328 0
M  V30 16398 C 1568.04 -1.63255 1.18451 0
M  V30 16399 C 1568.35 -1.93864 -0.260016 0
M  V30 16400 O 1569.55 -2.66851 -0.500288 0
M  V30 16401 C 1568.01 -2.94232 2.07257 0
M  V30 16402 C 1567.62 -2.71168 3.56612 0
M  V30 16403 C 1569.36 -3.72193 2.04139 0
M  V30 16404 C 1567.27 -3.97954 4.37478 0
M  V30 16405 H 1566.2 -0.612491 0.439739 0
M  V30 16406 H 1568.85 -0.981129 1.55068 0
M  V30 16407 H 1567.23 -3.60661 1.63522 0
M  V30 16408 H 1568.41 -2.13247 4.08488 0
M  V30 16409 H 1566.72 -2.06584 3.61541 0
M  V30 16410 H 1569.32 -4.66219 2.61809 0
M  V30 16411 H 1569.66 -4.03495 1.02459 0
M  V30 16412 H 1570.19 -3.12624 2.45989 0
M  V30 16413 H 1566.93 -3.71811 5.39849 0
M  V30 16414 H 1566.45 -4.55384 3.90366 0
M  V30 16415 H 1568.13 -4.65984 4.48852 0
M  V30 16416 N 1568.26 -1.13026 -1.09832 0
M  V30 16417 C 1569.49 -0.912803 -1.86233 0
M  V30 16418 C 1569.91 0.532955 -1.80392 0
M  V30 16419 O 1569.27 1.37783 -1.17837 0
M  V30 16420 C 1569.32 -1.40002 -3.32313 0
M  V30 16421 O 1568.42 -0.582537 -4.08265 0
M  V30 16422 H 1567.77 -0.327464 -0.577636 0
M  V30 16423 H 1570.3 -1.5039 -1.38723 0
M  V30 16424 H 1570.31 -1.40182 -3.83162 0
M  V30 16425 H 1568.98 -2.4527 -3.3588 0
M  V30 16426 H 1567.56 -0.648255 -3.67222 0
M  V30 16427 N 1569.74 1.27735 -0.923117 0
M  V30 16428 C 1570.97 1.9922 -0.57672 0
M  V30 16429 C 1571.39 1.68446 0.837113 0
M  V30 16430 O 1570.75 0.922129 1.56098 0
M  V30 16431 C 1570.8 3.51528 -0.803768 0
M  V30 16432 O 1569.9 4.12186 0.132829 0
M  V30 16433 H 1569.24 0.625593 -0.222553 0
M  V30 16434 H 1571.77 1.62657 -1.24112 0
M  V30 16435 H 1571.78 4.01641 -0.717534 0
M  V30 16436 H 1570.46 3.7326 -1.83439 0
M  V30 16437 H 1569.04 3.729 -0.00292957 0
M  V30 16438 N 1571.22 0.688118 1.41784 0
M  V30 16439 C 1572.47 0.216263 2.01644 0
M  V30 16440 C 1572.8 -1.17861 1.54345 0
M  V30 16441 O 1572.07 -1.794 0.751392 0
M  V30 16442 C 1572.36 0.265663 3.59119 0
M  V30 16443 C 1572.21 1.69694 4.16562 0
M  V30 16444 C 1573.53 -0.378713 4.38468 0
M  V30 16445 H 1570.65 0.0800582 0.732639 0
M  V30 16446 H 1573.29 0.875428 1.68631 0
M  V30 16447 H 1571.44 -0.295588 3.87374 0
M  V30 16448 H 1573.11 2.31146 3.9921 0
M  V30 16449 H 1571.36 2.23345 3.71886 0
M  V30 16450 H 1572.03 1.68309 5.25715 0
M  V30 16451 H 1574.5 0.0991969 4.15982 0
M  V30 16452 H 1573.38 -0.31357 5.48004 0
M  V30 16453 H 1573.64 -1.45832 4.17355 0
M  V30 16454 N 1572.7 -1.51554 0.432352 0
M  V30 16455 C 1573.94 -2.02344 -0.13598 0
M  V30 16456 C 1574.28 -1.31619 -1.42794 0
M  V30 16457 O 1573.55 -0.42957 -1.89697 0
M  V30 16458 C 1573.84 -3.58297 -0.359865 0
M  V30 16459 C 1573.69 -4.39645 0.950399 0
M  V30 16460 C 1575.01 -4.25297 -1.13184 0
M  V30 16461 H 1572.13 -0.735439 -0.0479461 0
M  V30 16462 H 1574.77 -1.81237 0.570373 0
M  V30 16463 H 1572.92 -3.76413 -0.961547 0
M  V30 16464 H 1574.59 -4.3319 1.58568 0
M  V30 16465 H 1572.83 -4.04928 1.55614 0
M  V30 16466 H 1573.5 -5.46911 0.747852 0
M  V30 16467 H 1575.98 -4.11421 -0.622231 0
M  V30 16468 H 1574.86 -5.34307 -1.25726 0
M  V30 16469 H 1575.12 -3.85818 -2.15862 0
M  V30 16470 N 1574.18 -0.163538 -1.56749 0
M  V30 16471 C 1575.4 0.489888 -2.01017 0
M  V30 16472 C 1575.82 1.57327 -1.04373 0
M  V30 16473 O 1575.18 1.82449 -0.0433414 0
M  V30 16474 C 1575.23 1.07537 -3.45135 0
M  V30 16475 O 1574.95 0.0352465 -4.38086 0
M  V30 16476 C 1576.45 1.80779 -4.04764 0
M  V30 16477 H 1573.67 0.126095 -0.659046 0
M  V30 16478 H 1576.21 -0.262982 -2.02802 0
M  V30 16479 H 1574.37 1.77877 -3.44149 0
M  V30 16480 H 1574.78 0.466426 -5.22422 0
M  V30 16481 H 1576.26 2.17014 -5.07552 0
M  V30 16482 H 1576.73 2.6999 -3.46413 0
M  V30 16483 H 1577.34 1.15098 -4.09429 0
M  V30 16484 N 1575.65 1.57214 0.110213 0
M  V30 16485 C 1577.07 1.52706 0.464004 0
M  V30 16486 C 1577.27 0.87792 1.81369 0
M  V30 16487 O 1576.33 0.463987 2.482 0
M  V30 16488 C 1577.64 2.97457 0.440406 0
M  V30 16489 C 1579.19 3.08594 0.523336 0
M  V30 16490 C 1579.66 4.54923 0.53004 0
M  V30 16491 N 1581.15 4.59411 0.591228 0
M  V30 16492 C 1581.89 5.7006 0.618007 0
M  V30 16493 N 1581.38 6.9018 0.601901 0
M  V30 16494 N 1583.18 5.58192 0.661679 0
M  V30 16495 H 1575.33 1.97794 -0.77403 0
M  V30 16496 H 1577.59 0.903673 -0.286496 0
M  V30 16497 H 1577.3 3.48356 -0.483845 0
M  V30 16498 H 1577.17 3.55356 1.26498 0
M  V30 16499 H 1579.56 2.57692 1.43801 0
M  V30 16500 H 1579.64 2.53674 -0.329095 0
M  V30 16501 H 1579.28 5.06472 -0.380623 0
M  V30 16502 H 1579.21 5.07663 1.39948 0
M  V30 16503 H 1581.7 3.72953 0.609483 0
M  V30 16504 H 1582.02 7.70267 0.6252 0
M  V30 16505 H 1580.36 6.92665 0.569186 0
M  V30 16506 H 1583.55 4.63256 0.671686 0
M  V30 16507 H 1583.73 6.44432 0.67908 0
M  V30 16508 N 1577.13 -0.380637 1.52934 0
M  V30 16509 C 1578.38 -1.12483 1.68386 0
M  V30 16510 C 1578.71 -1.89733 0.427993 0
M  V30 16511 O 1577.96 -1.86601 -0.589795 0
M  V30 16512 C 1578.26 -2.1227 2.87535 0
M  V30 16513 C 1577.93 -1.51615 4.24645 0
M  V30 16514 C 1576.59 -1.348 4.61933 0
M  V30 16515 C 1578.94 -1.07595 5.09973 0
M  V30 16516 C 1576.27 -0.725254 5.822 0
M  V30 16517 C 1578.62 -0.467273 6.30872 0
M  V30 16518 C 1577.29 -0.286488 6.66885 0
M  V30 16519 H 1576.56 -0.411606 0.616167 0
M  V30 16520 H 1579.2 -0.408435 1.87094 0
M  V30 16521 H 1577.51 -2.90159 2.63277 0
M  V30 16522 H 1579.2 -2.69777 2.96684 0
M  V30 16523 H 1575.79 -1.65693 3.95277 0
M  V30 16524 H 1579.98 -1.19385 4.81727 0
M  V30 16525 H 1575.23 -0.573461 6.08705 0
M  V30 16526 H 1579.41 -0.117914 6.963 0
M  V30 16527 H 1577.04 0.198141 7.59942 0
M  V30 16528 N 1578.61 -1.44039 -0.639573 0
M  V30 16529 C 1579.84 -1.49844 -1.42669 0
M  V30 16530 C 1580.25 -0.120599 -1.88414 0
M  V30 16531 O 1579.61 0.871875 -1.60327 0
M  V30 16532 C 1579.66 -2.45597 -2.65263 0
M  V30 16533 O 1579.38 -3.78023 -2.21427 0
M  V30 16534 C 1580.88 -2.60781 -3.5848 0
M  V30 16535 H 1578.1 -0.508477 -0.437826 0
M  V30 16536 H 1580.65 -1.88919 -0.782923 0
M  V30 16537 H 1578.8 -2.09679 -3.2575 0
M  V30 16538 H 1579.22 -4.29642 -3.00846 0
M  V30 16539 H 1580.69 -3.31826 -4.4113 0
M  V30 16540 H 1581.17 -1.65727 -4.06732 0
M  V30 16541 H 1581.77 -2.97565 -3.03867 0
M  V30 16542 N 1580.09 0.879207 -1.30796 0
M  V30 16543 C 1581.05 1.96707 -1.17639 0
M  V30 16544 C 1582.05 1.6045 -0.106013 0
M  V30 16545 O 1583.24 1.70553 -0.354573 0
M  V30 16546 C 1580.37 3.31292 -0.803625 0
M  V30 16547 H 1581.57 2.09806 -2.14293 0
M  V30 16548 H 1579.12 1.06634 -1.14276 0
M  V30 16549 H 1579.85 3.23894 0.162159 0
M  V30 16550 H 1579.64 3.58979 -1.57723 0
M  V30 16551 H 1581.13 4.11077 -0.735201 0
M  V30 16552 N 1581.57 1.13606 1.09231 0
M  V30 16553 C 1582.52 0.810747 2.18013 0
M  V30 16554 C 1583.51 -0.207782 1.68121 0
M  V30 16555 O 1584.72 -0.0647274 1.79884 0
M  V30 16556 H 1581.09 0.244415 0.711172 0
M  V30 16557 H 1583.06 1.73632 2.42682 0
M  V30 16558 C 1581.81 0.295302 3.46444 0
M  V30 16559 H 1581.13 1.07037 3.85205 0
M  V30 16560 H 1582.57 0.106127 4.23867 0
M  V30 16561 C 1581.03 -0.979398 3.2235 0
M  V30 16562 O 1581.56 -2.05483 3.45166 0
M  V30 16563 N 1579.77 -0.911282 2.75942 0
M  V30 16564 H 1579.32 -0.035979 2.57575 0
M  V30 16565 H 1579.27 -1.76476 2.60199 0
M  V30 16566 N 1583.05 -1.27244 0.929878 0
M  V30 16567 C 1584.29 -1.93559 0.567267 0
M  V30 16568 C 1584.61 -1.73864 -0.896138 0
M  V30 16569 O 1585.81 -2.34538 -1.36763 0
M  V30 16570 C 1584.27 -3.46756 0.963743 0
M  V30 16571 C 1583.88 -3.75204 2.44798 0
M  V30 16572 C 1585.62 -4.19139 0.672487 0
M  V30 16573 C 1583.53 -5.21787 2.78375 0
M  V30 16574 H 1582.46 -0.724617 0.208437 0
M  V30 16575 H 1585.11 -1.44502 1.13099 0
M  V30 16576 H 1583.49 -3.94634 0.328654 0
M  V30 16577 H 1584.67 -3.38075 3.13116 0
M  V30 16578 H 1582.98 -3.16029 2.71136 0
M  V30 16579 H 1585.58 -5.27074 0.899816 0
M  V30 16580 H 1585.92 -4.14466 -0.390378 0
M  V30 16581 H 1586.45 -3.77091 1.26678 0
M  V30 16582 H 1583.19 -5.31552 3.83579 0
M  V30 16583 H 1582.71 -5.60054 2.14708 0
M  V30 16584 H 1584.39 -5.89685 2.66234 0
M  V30 16585 N 1584.52 -0.695628 -1.41417 0
M  V30 16586 C 1585.75 -0.234163 -2.06074 0
M  V30 16587 C 1586.17 1.10796 -1.52006 0
M  V30 16588 O 1585.53 1.6936 -0.64705 0
M  V30 16589 C 1585.58 -0.202353 -3.60032 0
M  V30 16590 O 1584.68 0.822767 -4.04109 0
M  V30 16591 H 1584.02 -0.114395 -0.654072 0
M  V30 16592 H 1586.55 -0.950503 -1.81181 0
M  V30 16593 H 1586.56 -0.0332321 -4.07986 0
M  V30 16594 H 1585.24 -1.18188 -3.98754 0
M  V30 16595 H 1583.82 0.622995 -3.67659 0
M  V30 16596 N 1586 1.51322 -0.440383 0
M  V30 16597 C 1586.91 2.31574 0.37561 0
M  V30 16598 C 1587.93 1.40617 1.02483 0
M  V30 16599 O 1589.1 1.73688 1.01953 0
M  V30 16600 C 1586.17 3.14441 1.4604 0
M  V30 16601 C 1585.23 4.21181 0.830991 0
M  V30 16602 C 1584.46 5.00087 1.86409 0
M  V30 16603 O 1584.69 4.79666 3.08669 0
M  V30 16604 O 1583.62 5.84101 1.45293 0
M  V30 16605 H 1587.45 3.0241 -0.27962 0
M  V30 16606 H 1585.03 1.48016 -0.202857 0
M  V30 16607 H 1586.91 3.6595 2.08946 0
M  V30 16608 H 1585.59 2.46366 2.09965 0
M  V30 16609 H 1584.49 3.73741 0.163798 0
M  V30 16610 H 1585.83 4.91638 0.235174 0
M  V30 16611 N 1587.48 0.171848 1.5666 0
M  V30 16612 C 1588.41 -0.753861 2.20996 0
M  V30 16613 C 1589.39 -1.23873 1.16574 0
M  V30 16614 O 1590.58 -1.29179 1.45005 0
M  V30 16615 C 1587.71 -1.98314 2.85112 0
M  V30 16616 C 1586.66 -1.6341 3.95577 0
M  V30 16617 C 1585.99 -2.93807 4.46745 0
M  V30 16618 C 1587.29 -0.861713 5.15142 0
M  V30 16619 H 1588.98 -0.217598 2.98608 0
M  V30 16620 H 1586.53 -0.10322 1.4363 0
M  V30 16621 H 1588.48 -2.63576 3.28794 0
M  V30 16622 H 1587.2 -2.54354 2.04869 0
M  V30 16623 H 1585.86 -1.00516 3.52551 0
M  V30 16624 H 1585.51 -3.47889 3.63293 0
M  V30 16625 H 1585.21 -2.71207 5.21268 0
M  V30 16626 H 1586.73 -3.60098 4.93114 0
M  V30 16627 H 1588.15 -1.41693 5.55514 0
M  V30 16628 H 1586.54 -0.734727 5.95585 0
M  V30 16629 H 1587.61 0.141851 4.84692 0
M  V30 16630 N 1588.96 -1.5727 -0.101874 0
M  V30 16631 C 1589.91 -2.0258 -1.14297 0
M  V30 16632 C 1590.9 -0.925674 -1.41872 0
M  V30 16633 O 1592.11 -1.11086 -1.41633 0
M  V30 16634 H 1588.48 -0.645504 -0.385782 0
M  V30 16635 H 1590.45 -2.8922 -0.734453 0
M  V30 16636 C 1589.2 -2.46036 -2.45686 0
M  V30 16637 H 1588.52 -3.30266 -2.2531 0
M  V30 16638 H 1589.96 -2.81522 -3.17051 0
M  V30 16639 C 1588.42 -1.33089 -3.09498 0
M  V30 16640 O 1588.95 -0.656277 -3.96303 0
M  V30 16641 N 1587.16 -1.08359 -2.69642 0
M  V30 16642 H 1586.71 -1.63397 -1.99146 0
M  V30 16643 H 1586.66 -0.329859 -3.12665 0
M  V30 16644 N 1590.44 0.372521 -1.53134 0
M  V30 16645 C 1591.66 1.14116 -1.73183 0
M  V30 16646 C 1592.09 1.82475 -0.456553 0
M  V30 16647 O 1591.44 1.71468 0.588919 0
M  V30 16648 C 1591.49 2.15241 -2.89316 0
M  V30 16649 O 1590.6 3.22178 -2.57439 0
M  V30 16650 H 1589.94 0.331442 -0.575362 0
M  V30 16651 H 1592.47 0.431769 -1.99992 0
M  V30 16652 H 1592.48 2.58961 -3.15283 0
M  V30 16653 H 1591.15 1.64877 -3.81822 0
M  V30 16654 H 1589.73 2.83481 -2.42267 0
M  V30 16655 N 1591.91 1.44376 0.631925 0
M  V30 16656 C 1592.85 1.45649 1.75675 0
M  V30 16657 C 1593.82 0.31542 1.59511 0
M  V30 16658 O 1595.01 0.512271 1.81406 0
M  V30 16659 C 1592.14 1.2884 3.13238 0
M  V30 16660 C 1591.18 2.46499 3.48053 0
M  V30 16661 S 1592.01 4.0903 3.45622 0
M  V30 16662 C 1593.17 3.94643 4.85807 0
M  V30 16663 H 1593.4 2.40825 1.74328 0
M  V30 16664 H 1590.94 1.31664 0.806467 0
M  V30 16665 H 1592.89 1.19829 3.92621 0
M  V30 16666 H 1591.56 0.351754 3.12124 0
M  V30 16667 H 1590.75 2.30599 4.48152 0
M  V30 16668 H 1590.35 2.52245 2.76131 0
M  V30 16669 H 1592.64 3.58283 5.75012 0
M  V30 16670 H 1593.59 4.94569 5.06761 0
M  V30 16671 H 1593.99 3.26717 4.60343 0
M  V30 16672 N 1593.39 -0.872258 1.31261 0
M  V30 16673 C 1594.32 -1.98231 1.13047 0
M  V30 16674 C 1595.3 -1.62563 0.0345979 0
M  V30 16675 O 1596.49 -1.87534 0.190586 0
M  V30 16676 C 1593.61 -3.30809 0.726841 0
M  V30 16677 C 1592.66 -3.85461 1.82542 0
M  V30 16678 S 1593.49 -4.11197 3.43041 0
M  V30 16679 C 1594.65 -5.46776 3.0461 0
M  V30 16680 H 1594.88 -2.13377 2.07021 0
M  V30 16681 H 1592.41 -1.02217 1.1572 0
M  V30 16682 H 1594.37 -4.07435 0.500707 0
M  V30 16683 H 1593.03 -3.13502 -0.193741 0
M  V30 16684 H 1592.23 -4.81299 1.49558 0
M  V30 16685 H 1591.83 -3.1562 2.0065 0
M  V30 16686 H 1594.12 -6.28343 2.53361 0
M  V30 16687 H 1595.06 -5.84708 3.99402 0
M  V30 16688 H 1595.47 -5.09941 2.42116 0
M  V30 16689 N 1594.87 -1.14184 -1.08627 0
M  V30 16690 C 1595.8 -0.849455 -2.17501 0
M  V30 16691 C 1596.78 0.194617 -1.68983 0
M  V30 16692 O 1597.97 0.0517757 -1.94131 0
M  V30 16693 C 1595.1 -0.323685 -3.45788 0
M  V30 16694 C 1594.05 -1.30294 -4.07685 0
M  V30 16695 C 1593.38 -0.636575 -5.30897 0
M  V30 16696 C 1594.68 -2.66441 -4.49229 0
M  V30 16697 H 1596.37 -1.75987 -2.42217 0
M  V30 16698 H 1593.92 -0.847595 -1.16412 0
M  V30 16699 H 1595.87 -0.106754 -4.21265 0
M  V30 16700 H 1594.59 0.62215 -3.20619 0
M  V30 16701 H 1593.25 -1.50601 -3.34238 0
M  V30 16702 H 1592.9 0.314995 -5.02013 0
M  V30 16703 H 1592.6 -1.28998 -5.73266 0
M  V30 16704 H 1594.12 -0.429117 -6.0909 0
M  V30 16705 H 1595.54 -2.50055 -5.15893 0
M  V30 16706 H 1593.93 -3.28033 -5.02508 0
M  V30 16707 H 1595 -3.23486 -3.61226 0
M  V30 16708 N 1596.35 1.26749 -0.936613 0
M  V30 16709 C 1597.57 1.98597 -0.597817 0
M  V30 16710 C 1598 1.69324 0.8192 0
M  V30 16711 O 1597.36 0.938634 1.55111 0
M  V30 16712 C 1597.4 3.50656 -0.841007 0
M  V30 16713 O 1596.51 4.12304 0.0891038 0
M  V30 16714 H 1595.85 0.623197 -0.229176 0
M  V30 16715 H 1598.38 1.61332 -1.2583 0
M  V30 16716 H 1598.39 4.00857 -0.760093 0
M  V30 16717 H 1597.06 3.71293 -1.87388 0
M  V30 16718 H 1595.64 3.72876 -0.0424804 0
M  V30 16719 N 1597.83 0.703118 1.41046 0
M  V30 16720 C 1599.05 0.246552 2.05426 0
M  V30 16721 C 1599.47 -1.10704 1.52938 0
M  V30 16722 O 1598.83 -1.69329 0.680733 0
M  V30 16723 C 1598.88 0.203953 3.60924 0
M  V30 16724 O 1598.6 1.50408 4.11472 0
M  V30 16725 C 1600.1 -0.272686 4.42461 0
M  V30 16726 H 1597.32 0.113157 0.66139 0
M  V30 16727 H 1599.86 0.957823 1.80682 0
M  V30 16728 H 1598.02 -0.458194 3.84681 0
M  V30 16729 H 1598.43 1.39622 5.05575 0
M  V30 16730 H 1599.91 -0.251357 5.51427 0
M  V30 16731 H 1600.38 -1.31282 4.1912 0
M  V30 16732 H 1600.99 0.358733 4.23784 0
M  V30 16733 N 1599.3 -1.51086 0.448402 0
M  V30 16734 C 1600.27 -2.26575 -0.3459 0
M  V30 16735 C 1601.27 -1.3045 -0.940178 0
M  V30 16736 O 1602.46 -1.5407 -0.812898 0
M  V30 16737 C 1599.59 -3.06591 -1.49045 0
M  V30 16738 H 1600.78 -2.98232 0.315822 0
M  V30 16739 H 1598.34 -1.54991 0.201851 0
M  V30 16740 H 1599.07 -2.39377 -2.1879 0
M  V30 16741 H 1598.86 -3.77207 -1.07038 0
M  V30 16742 H 1600.35 -3.63743 -2.05135 0
M  V30 16743 N 1600.78 -0.180154 -1.56567 0
M  V30 16744 C 1601.75 0.732809 -2.17169 0
M  V30 16745 C 1602.75 1.15176 -1.1221 0
M  V30 16746 O 1603.94 1.06728 -1.37677 0
M  V30 16747 C 1601.07 1.99857 -2.7617 0
M  V30 16748 H 1602.26 0.205088 -2.99198 0
M  V30 16749 H 1599.81 0.0694351 -1.56146 0
M  V30 16750 H 1600.55 2.56917 -1.97899 0
M  V30 16751 H 1600.33 1.70705 -3.5299 0
M  V30 16752 H 1601.82 2.64992 -3.22752 0
M  V30 16753 N 1602.26 1.57322 0.0935319 0
M  V30 16754 C 1603.67 1.75099 0.64787 0
M  V30 16755 C 1604.02 0.802558 1.79035 0
M  V30 16756 O 1603.15 -0.0185803 2.16392 0
M  V30 16757 C 1603.74 3.17512 1.18203 0
M  V30 16758 C 1602.3 3.36707 1.68242 0
M  V30 16759 C 1601.45 2.70893 0.592649 0
M  V30 16760 H 1604.4 1.58146 -0.132546 0
M  V30 16761 H 1604.42 3.2047 2.05132 0
M  V30 16762 H 1603.93 3.86516 0.350297 0
M  V30 16763 H 1602.03 2.72784 2.5381 0
M  V30 16764 H 1602.15 4.45033 1.77433 0
M  V30 16765 H 1600.51 2.32835 1.03248 0
M  V30 16766 H 1601.29 3.42539 -0.228529 0
M  V30 16767 N 1603.74 -0.364395 1.53329 0
M  V30 16768 C 1604.96 -1.13196 1.73786 0
M  V30 16769 C 1605.39 -1.82231 0.466224 0
M  V30 16770 O 1604.75 -1.71778 -0.579817 0
M  V30 16771 C 1604.79 -2.13704 2.90453 0
M  V30 16772 O 1603.9 -3.20808 2.59144 0
M  V30 16773 H 1603.24 -0.328387 0.577112 0
M  V30 16774 H 1605.77 -0.421157 2.00218 0
M  V30 16775 H 1605.78 -2.57285 3.16652 0
M  V30 16776 H 1604.45 -1.6285 3.82691 0
M  V30 16777 H 1603.03 -2.82192 2.43767 0
M  V30 16778 N 1605.22 -1.44709 -0.62426 0
M  V30 16779 C 1606.63 -1.42523 -1.20599 0
M  V30 16780 C 1606.98 -0.144129 -1.9567 0
M  V30 16781 O 1606.1 0.755175 -2.02796 0
M  V30 16782 C 1606.7 -2.58194 -2.19365 0
M  V30 16783 C 1605.26 -2.59181 -2.72951 0
M  V30 16784 C 1604.4 -2.34461 -1.48065 0
M  V30 16785 H 1607.36 -1.5319 -0.414532 0
M  V30 16786 H 1607.38 -2.3134 -3.02096 0
M  V30 16787 H 1606.89 -3.5142 -1.64699 0
M  V30 16788 H 1604.99 -1.69916 -3.31601 0
M  V30 16789 H 1605.1 -3.57884 -3.18521 0
M  V30 16790 H 1603.47 -1.83688 -1.76439 0
M  V30 16791 H 1604.25 -3.2981 -0.952918 0
M  V30 16792 N 1606.69 0.865285 -1.31722 0
M  V30 16793 C 1607.94 1.61549 -1.21435 0
M  V30 16794 C 1608.26 1.9368 0.226501 0
M  V30 16795 O 1607.53 1.58705 1.14846 0
M  V30 16796 H 1606.11 0.598905 -0.446454 0
M  V30 16797 H 1608.78 1.03563 -1.65108 0
M  V30 16798 H 1607.87 2.55708 -1.78941 0
M  V30 16799 N 1608.17 1.14759 1.0802 0
M  V30 16800 C 1609.42 0.919609 1.80751 0
M  V30 16801 C 1609.75 -0.552268 1.86182 0
M  V30 16802 O 1609.03 -1.40922 1.34057 0
M  V30 16803 C 1609.31 1.52611 3.26162 0
M  V30 16804 C 1609.16 3.06811 3.28918 0
M  V30 16805 C 1610.48 1.20625 4.23246 0
M  V30 16806 H 1607.6 0.33551 0.656203 0
M  V30 16807 H 1610.24 1.41816 1.26444 0
M  V30 16808 H 1608.39 1.10213 3.72539 0
M  V30 16809 H 1610.06 3.58068 2.90835 0
M  V30 16810 H 1608.31 3.41055 2.68075 0
M  V30 16811 H 1608.98 3.44357 4.31419 0
M  V30 16812 H 1611.45 1.57287 3.85227 0
M  V30 16813 H 1610.33 1.65689 5.23296 0
M  V30 16814 H 1610.59 0.122177 4.41931 0
M  V30 16815 N 1609.65 -1.26251 0.943322 0
M  V30 16816 C 1610.9 -1.9327 0.590863 0
M  V30 16817 C 1611.22 -1.74356 -0.873212 0
M  V30 16818 O 1610.49 -1.10046 -1.6207 0
M  V30 16819 H 1609.07 -0.71523 0.215535 0
M  V30 16820 H 1611.73 -1.53647 1.19911 0
M  V30 16821 H 1610.83 -3.01393 0.810475 0
M  V30 16822 N 1611.13 -0.710588 -1.40671 0
M  V30 16823 C 1612.09 -0.0635988 -2.29112 0
M  V30 16824 C 1613.09 0.692537 -1.45123 0
M  V30 16825 O 1614.28 0.525184 -1.66095 0
M  V30 16826 C 1611.41 0.919955 -3.28252 0
M  V30 16827 H 1612.61 -0.842477 -2.87823 0
M  V30 16828 H 1610.16 -0.474948 -1.48909 0
M  V30 16829 H 1610.9 1.72607 -2.7455 0
M  V30 16830 H 1610.68 0.38071 -3.90247 0
M  V30 16831 H 1612.17 1.36997 -3.94489 0
M  V30 16832 N 1612.61 1.50847 -0.456408 0
M  V30 16833 C 1614.02 1.867 0.00222532 0
M  V30 16834 C 1614.37 1.37229 1.40224 0
M  V30 16835 O 1613.49 0.731052 2.03678 0
M  V30 16836 C 1614.09 3.38798 0.0108142 0
M  V30 16837 C 1612.65 3.74117 0.413924 0
M  V30 16838 C 1611.8 2.74671 -0.380933 0
M  V30 16839 H 1614.75 1.43799 -0.671379 0
M  V30 16840 H 1614.77 3.71642 0.816217 0
M  V30 16841 H 1614.28 3.74774 -1.00826 0
M  V30 16842 H 1612.38 3.43737 1.43789 0
M  V30 16843 H 1612.49 4.78936 0.125471 0
M  V30 16844 H 1610.86 2.54175 0.163385 0
M  V30 16845 H 1611.64 3.1349 -1.39924 0
M  V30 16846 N 1614.09 0.188454 1.56469 0
M  V30 16847 C 1615.02 -0.730379 2.21783 0
M  V30 16848 C 1616 -1.22629 1.17882 0
M  V30 16849 O 1617.18 -1.27634 1.46367 0
M  V30 16850 C 1614.31 -1.95278 2.872 0
M  V30 16851 C 1613.27 -1.59205 3.97288 0
M  V30 16852 C 1612.59 -2.89052 4.49836 0
M  V30 16853 C 1613.89 -0.807027 5.16027 0
M  V30 16854 H 1615.59 -0.185914 2.98822 0
M  V30 16855 H 1613.13 -0.0879804 1.43731 0
M  V30 16856 H 1615.08 -2.60074 3.31571 0
M  V30 16857 H 1613.81 -2.52167 2.07556 0
M  V30 16858 H 1612.47 -0.967713 3.53597 0
M  V30 16859 H 1612.12 -3.44017 3.66963 0
M  V30 16860 H 1611.82 -2.65663 5.24115 0
M  V30 16861 H 1613.34 -3.54847 4.96906 0
M  V30 16862 H 1614.75 -1.35794 5.56986 0
M  V30 16863 H 1613.15 -0.671516 5.96331 0
M  V30 16864 H 1614.22 0.193251 4.84515 0
M  V30 16865 N 1615.56 -1.5737 -0.0851874 0
M  V30 16866 C 1616.8 -1.88417 -0.792354 0
M  V30 16867 C 1617.17 -0.78065 -1.75413 0
M  V30 16868 O 1618.37 -0.973819 -2.5054 0
M  V30 16869 C 1616.64 -3.24703 -1.4934 0
M  V30 16870 S 1618.2 -3.77468 -2.23748 0
M  V30 16871 H 1615.02 -0.66026 -0.263777 0
M  V30 16872 H 1617.62 -1.95439 -0.0490248 0
M  V30 16873 H 1616.32 -4.02931 -0.779426 0
M  V30 16874 H 1615.85 -3.20846 -2.27643 0
M  V30 16875 H 1617.87 -3.51679 -3.50052 0
M  V30 16876 N 1617.04 0.356258 -1.53521 0
M  V30 16877 C 1618.27 1.12273 -1.74383 0
M  V30 16878 C 1618.69 1.81981 -0.475881 0
M  V30 16879 O 1618.05 1.72083 0.570699 0
M  V30 16880 C 1618.1 2.12161 -2.91582 0
M  V30 16881 O 1617.2 3.1943 -2.60842 0
M  V30 16882 H 1616.54 0.325321 -0.578845 0
M  V30 16883 H 1619.07 0.410533 -2.00439 0
M  V30 16884 H 1619.08 2.55602 -3.18012 0
M  V30 16885 H 1617.76 1.60818 -3.8355 0
M  V30 16886 H 1616.33 2.80895 -2.4526 0
M  V30 16887 N 1618.52 1.45038 0.616577 0
M  V30 16888 C 1619.74 1.52321 1.40759 0
M  V30 16889 C 1620.17 0.15375 1.87471 0
M  V30 16890 O 1619.53 -0.859908 1.5961 0
M  V30 16891 C 1619.58 2.50464 2.59423 0
M  V30 16892 O 1618.68 2.01623 3.59753 0
M  V30 16893 H 1618.02 0.513808 0.420592 0
M  V30 16894 H 1620.55 1.90309 0.751234 0
M  V30 16895 H 1620.56 2.68977 3.06783 0
M  V30 16896 H 1619.24 3.4993 2.24771 0
M  V30 16897 H 1617.81 1.92945 3.19103 0
M  V30 16898 N 1620 -0.858287 1.32179 0
M  V30 16899 C 1621.23 -1.64235 1.25341 0
M  V30 16900 C 1621.64 -1.88327 -0.181568 0
M  V30 16901 O 1620.98 -1.44996 -1.12791 0
M  V30 16902 C 1621.04 -3.02686 1.93963 0
M  V30 16903 C 1620.7 -3.01651 3.43301 0
M  V30 16904 C 1621.7 -2.78762 4.38848 0
M  V30 16905 C 1619.39 -3.22402 3.85178 0
M  V30 16906 C 1621.38 -2.76621 5.74247 0
M  V30 16907 C 1619.07 -3.19888 5.20687 0
M  V30 16908 C 1620.07 -2.97026 6.15032 0
M  V30 16909 O 1619.75 -2.94379 7.48061 0
M  V30 16910 H 1619.49 -0.518387 0.433879 0
M  V30 16911 H 1622.04 -1.07869 1.74795 0
M  V30 16912 H 1620.27 -3.60826 1.39074 0
M  V30 16913 H 1621.96 -3.63367 1.80884 0
M  V30 16914 H 1622.72 -2.62501 4.07821 0
M  V30 16915 H 1618.6 -3.39223 3.12167 0
M  V30 16916 H 1622.15 -2.58696 6.4786 0
M  V30 16917 H 1618.04 -3.35693 5.51344 0
M  V30 16918 H 1618.81 -3.10359 7.57377 0
M  V30 16919 N 1621.48 -1.1533 -1.07409 0
M  V30 16920 C 1622.41 -0.872476 -2.16587 0
M  V30 16921 C 1623.39 0.176683 -1.6918 0
M  V30 16922 O 1624.57 0.0311826 -1.94175 0
M  V30 16923 C 1621.7 -0.360342 -3.45426 0
M  V30 16924 C 1620.66 -1.34611 -4.06281 0
M  V30 16925 C 1619.98 -0.692848 -5.30192 0
M  V30 16926 C 1621.28 -2.71191 -4.46378 0
M  V30 16927 H 1622.98 -1.78546 -2.40336 0
M  V30 16928 H 1620.52 -0.859895 -1.15507 0
M  V30 16929 H 1622.47 -0.151429 -4.21128 0
M  V30 16930 H 1621.2 0.588109 -3.21261 0
M  V30 16931 H 1619.86 -1.54137 -3.32622 0
M  V30 16932 H 1619.51 0.261732 -5.02319 0
M  V30 16933 H 1619.21 -1.35071 -5.71865 0
M  V30 16934 H 1620.73 -0.493695 -6.08601 0
M  V30 16935 H 1622.14 -2.55513 -5.13212 0
M  V30 16936 H 1620.54 -3.33345 -4.99 0
M  V30 16937 H 1621.61 -3.273 -3.57775 0
M  V30 16938 N 1622.95 1.25748 -0.950004 0
M  V30 16939 C 1624.2 1.92632 -0.597988 0
M  V30 16940 C 1624.52 1.75268 0.868365 0
M  V30 16941 O 1625.72 2.36684 1.33014 0
M  V30 16942 C 1624.18 3.45179 -1.01879 0
M  V30 16943 C 1623.79 3.71262 -2.50736 0
M  V30 16944 C 1625.53 4.18017 -0.739084 0
M  V30 16945 C 1623.44 5.17292 -2.8664 0
M  V30 16946 H 1622.37 0.72121 -0.219938 0
M  V30 16947 H 1625.02 1.42685 -1.15383 0
M  V30 16948 H 1623.4 3.94061 -0.391395 0
M  V30 16949 H 1624.57 3.33051 -3.18455 0
M  V30 16950 H 1622.89 3.11676 -2.76129 0
M  V30 16951 H 1625.49 5.25576 -0.983555 0
M  V30 16952 H 1625.83 4.15034 0.32439 0
M  V30 16953 H 1626.36 3.75028 -1.32661 0
M  V30 16954 H 1623.1 5.25383 -3.91987 0
M  V30 16955 H 1622.62 5.56567 -2.23591 0
M  V30 16956 H 1624.3 5.85375 -2.75582 0
M  V30 16957 N 1624.43 0.718038 1.40292 0
M  V30 16958 C 1625.84 0.330675 1.83748 0
M  V30 16959 C 1626.19 -1.13511 1.6003 0
M  V30 16960 O 1625.32 -1.87381 1.08247 0
M  V30 16961 C 1625.91 0.593398 3.33563 0
M  V30 16962 C 1624.47 0.259717 3.75503 0
M  V30 16963 C 1623.62 0.864537 2.63479 0
M  V30 16964 H 1626.57 0.917 1.29525 0
M  V30 16965 H 1626.59 -0.140544 3.8024 0
M  V30 16966 H 1626.1 1.66028 3.50794 0
M  V30 16967 H 1624.2 -0.802011 3.63866 0
M  V30 16968 H 1624.32 0.730427 4.73499 0
M  V30 16969 H 1622.68 0.292399 2.53016 0
M  V30 16970 H 1623.46 1.93574 2.83521 0
M  V30 16971 N 1625.91 -1.50602 0.464402 0
M  V30 16972 C 1626.86 -2.28382 -0.333234 0
M  V30 16973 C 1627.83 -1.3314 -0.993125 0
M  V30 16974 O 1629.01 -1.62072 -1.00685 0
M  V30 16975 C 1626.15 -3.14841 -1.41313 0
M  V30 16976 C 1625.27 -4.25106 -0.768684 0
M  V30 16977 C 1624.4 -4.98833 -1.82591 0
M  V30 16978 C 1623.44 -6.00982 -1.16135 0
M  V30 16979 N 1622.58 -6.68012 -2.16112 0
M  V30 16980 H 1627.42 -2.96096 0.336354 0
M  V30 16981 H 1624.95 -1.46022 0.17772 0
M  V30 16982 H 1626.91 -3.63314 -2.05082 0
M  V30 16983 H 1625.54 -2.49186 -2.05197 0
M  V30 16984 H 1624.59 -3.80395 -0.0185964 0
M  V30 16985 H 1625.91 -4.98204 -0.243759 0
M  V30 16986 H 1625.06 -5.50991 -2.53957 0
M  V30 16987 H 1623.8 -4.25426 -2.38462 0
M  V30 16988 H 1622.8 -5.4809 -0.43328 0
M  V30 16989 H 1624.03 -6.76358 -0.609612 0
M  V30 16990 H 1621.97 -5.97401 -2.71013 0
M  V30 16991 H 1621.89 -7.36963 -1.68586 0
M  V30 16992 H 1623.16 -7.2479 -2.86879 0
M  V30 16993 N 1627.39 -0.19675 -1.56367 0
M  V30 16994 C 1628.3 0.735372 -2.22777 0
M  V30 16995 C 1629.31 1.23336 -1.22737 0
M  V30 16996 O 1630.49 1.28017 -1.55479 0
M  V30 16997 C 1627.56 1.93706 -2.8754 0
M  V30 16998 C 1626.62 1.48348 -4.02854 0
M  V30 16999 C 1625.85 2.62788 -4.64519 0
M  V30 17000 O 1626.07 3.80311 -4.25111 0
M  V30 17001 O 1625.01 2.35406 -5.53956 0
M  V30 17002 H 1628.83 0.199788 -3.03042 0
M  V30 17003 H 1626.42 0.0326149 -1.49364 0
M  V30 17004 H 1628.3 2.63934 -3.28507 0
M  V30 17005 H 1626.97 2.46121 -2.10252 0
M  V30 17006 H 1625.88 0.749939 -3.66506 0
M  V30 17007 H 1627.21 1.00597 -4.8181 0
M  V30 17008 N 1628.87 1.57413 0.0768405 0
M  V30 17009 C 1630.12 1.86186 0.775741 0
M  V30 17010 C 1630.43 0.788676 1.78995 0
M  V30 17011 O 1631.63 0.964095 2.53806 0
M  V30 17012 C 1630.09 3.30247 1.43055 0
M  V30 17013 C 1629.7 4.45682 0.45517 0
M  V30 17014 C 1631.44 3.68225 2.11211 0
M  V30 17015 C 1629.35 5.80782 1.11561 0
M  V30 17016 H 1628.28 0.694546 0.293466 0
M  V30 17017 H 1630.93 1.83477 0.0289478 0
M  V30 17018 H 1629.31 3.27552 2.22544 0
M  V30 17019 H 1630.49 4.59759 -0.309535 0
M  V30 17020 H 1628.8 4.16222 -0.121671 0
M  V30 17021 H 1631.4 4.66454 2.6139 0
M  V30 17022 H 1631.74 2.9777 2.90928 0
M  V30 17023 H 1632.27 3.72888 1.38561 0
M  V30 17024 H 1629.01 6.54517 0.358877 0
M  V30 17025 H 1628.53 5.70515 1.8513 0
M  V30 17026 H 1630.21 6.25951 1.63689 0
M  V30 17027 N 1630.34 -0.348112 1.53707 0
M  V30 17028 C 1631.28 -1.44781 1.77682 0
M  V30 17029 C 1632.29 -1.4891 0.657997 0
M  V30 17030 O 1633.48 -1.52075 0.934635 0
M  V30 17031 C 1630.58 -2.83463 1.85747 0
M  V30 17032 C 1629.75 -3.02827 3.15618 0
M  V30 17033 C 1628.81 -4.21724 3.14698 0
M  V30 17034 O 1627.84 -4.16059 3.88437 0
M  V30 17035 N 1629.04 -5.3003 2.36746 0
M  V30 17036 H 1631.8 -1.24587 2.72577 0
M  V30 17037 H 1629.36 -0.537961 1.52701 0
M  V30 17038 H 1631.36 -3.6117 1.82589 0
M  V30 17039 H 1629.93 -2.96822 0.980595 0
M  V30 17040 H 1629.15 -2.1263 3.31937 0
M  V30 17041 H 1630.43 -3.12645 4.01411 0
M  V30 17042 H 1629.83 -5.375 1.7638 0
M  V30 17043 H 1628.39 -6.06247 2.39389 0
M  V30 17044 N 1631.82 -1.45363 -0.608876 0
M  V30 17045 C 1632.75 -1.56778 -1.7304 0
M  V30 17046 C 1633.73 -0.419405 -1.64848 0
M  V30 17047 O 1634.92 -0.64238 -1.83268 0
M  V30 17048 C 1632.05 -1.5329 -3.1164 0
M  V30 17049 C 1631 -2.66832 -3.34641 0
M  V30 17050 C 1630.33 -2.48398 -4.735 0
M  V30 17051 C 1631.63 -4.0885 -3.25021 0
M  V30 17052 H 1633.32 -2.50656 -1.63743 0
M  V30 17053 H 1630.87 -1.20635 -0.786338 0
M  V30 17054 H 1632.82 -1.59873 -3.89895 0
M  V30 17055 H 1631.55 -0.559414 -3.21773 0
M  V30 17056 H 1630.2 -2.59675 -2.58775 0
M  V30 17057 H 1629.85 -1.49191 -4.80366 0
M  V30 17058 H 1629.55 -3.24537 -4.89846 0
M  V30 17059 H 1631.08 -2.56833 -5.53958 0
M  V30 17060 H 1632.49 -4.17257 -3.93153 0
M  V30 17061 H 1630.89 -4.85369 -3.52897 0
M  V30 17062 H 1631.96 -4.30849 -2.2248 0
M  V30 17063 N 1633.3 0.851265 -1.32632 0
M  V30 17064 C 1634.71 1.4217 -1.21015 0
M  V30 17065 C 1635.06 1.95409 0.175972 0
M  V30 17066 O 1634.19 1.87816 1.07489 0
M  V30 17067 C 1634.78 2.58431 -2.19086 0
M  V30 17068 C 1633.34 3.11464 -2.11346 0
M  V30 17069 C 1632.49 1.84221 -2.07263 0
M  V30 17070 H 1635.44 0.65812 -1.44411 0
M  V30 17071 H 1635.46 3.35694 -1.79137 0
M  V30 17072 H 1634.97 2.19652 -3.1996 0
M  V30 17073 H 1633.07 3.54818 -1.13732 0
M  V30 17074 H 1633.19 3.72478 -3.01325 0
M  V30 17075 H 1631.55 2.0396 -1.52553 0
M  V30 17076 H 1632.33 1.47654 -3.09924 0
M  V30 17077 N 1634.78 1.15898 1.06796 0
M  V30 17078 C 1636.01 0.961372 1.83208 0
M  V30 17079 C 1636.42 -0.490392 1.8232 0
M  V30 17080 O 1635.78 -1.34025 1.2387 0
M  V30 17081 C 1635.83 1.47486 3.30045 0
M  V30 17082 O 1635.55 2.86976 3.31023 0
M  V30 17083 C 1637.05 1.31955 4.23205 0
M  V30 17084 H 1634.27 0.34109 0.57784 0
M  V30 17085 H 1636.82 1.53805 1.34775 0
M  V30 17086 H 1634.97 0.940586 3.75808 0
M  V30 17087 H 1635.38 3.1038 4.22805 0
M  V30 17088 H 1636.86 1.72721 5.24282 0
M  V30 17089 H 1637.34 0.264439 4.38403 0
M  V30 17090 H 1637.94 1.84319 3.83284 0
M  V30 17091 N 1636.26 -1.25243 0.956659 0
M  V30 17092 C 1637.48 -1.97082 0.629791 0
M  V30 17093 C 1637.9 -1.71082 -0.798529 0
M  V30 17094 O 1637.26 -0.98805 -1.5344 0
M  V30 17095 C 1637.31 -3.5059 0.881406 0
M  V30 17096 O 1637.03 -3.75694 2.25356 0
M  V30 17097 C 1638.53 -4.39656 0.567203 0
M  V30 17098 H 1635.75 -0.628152 0.235938 0
M  V30 17099 H 1638.29 -1.5936 1.28159 0
M  V30 17100 H 1636.45 -3.86416 0.27599 0
M  V30 17101 H 1636.86 -4.70142 2.32523 0
M  V30 17102 H 1638.34 -5.46263 0.793785 0
M  V30 17103 H 1638.81 -4.36364 -0.498287 0
M  V30 17104 H 1639.42 -4.094 1.15203 0
M  V30 17105 N 1637.73 -0.725468 -1.3991 0
M  V30 17106 C 1638.67 -0.0282009 -2.28183 0
M  V30 17107 C 1639.65 0.757539 -1.43875 0
M  V30 17108 O 1640.83 0.742105 -1.73277 0
M  V30 17109 C 1637.96 0.967357 -3.24592 0
M  V30 17110 C 1637 0.271249 -4.25637 0
M  V30 17111 S 1637.84 -1.00796 -5.25928 0
M  V30 17112 C 1638.99 -0.0147605 -6.25898 0
M  V30 17113 H 1639.22 -0.776815 -2.86972 0
M  V30 17114 H 1636.76 -0.516881 -1.45491 0
M  V30 17115 H 1638.72 1.5365 -3.8066 0
M  V30 17116 H 1637.38 1.68874 -2.6484 0
M  V30 17117 H 1636.57 1.02421 -4.93483 0
M  V30 17118 H 1636.17 -0.225603 -3.73319 0
M  V30 17119 H 1638.46 0.828816 -6.72411 0
M  V30 17120 H 1639.41 -0.66011 -7.05016 0
M  V30 17121 H 1639.81 0.353381 -5.63393 0
M  V30 17122 N 1639.21 1.50354 -0.472382 0
M  V30 17123 C 1640.44 2.06746 0.0798134 0
M  V30 17124 C 1640.86 1.3361 1.33393 0
M  V30 17125 O 1640.21 0.405765 1.77932 0
M  V30 17126 C 1640.26 3.59636 0.3666 0
M  V30 17127 O 1639.98 4.30015 -0.837776 0
M  V30 17128 C 1641.49 4.32655 0.965618 0
M  V30 17129 H 1638.71 0.670956 -0.00765904 0
M  V30 17130 H 1641.25 1.93504 -0.661535 0
M  V30 17131 H 1639.4 3.72676 1.05788 0
M  V30 17132 H 1639.82 5.21248 -0.583161 0
M  V30 17133 H 1641.29 5.406 1.11604 0
M  V30 17134 H 1641.77 3.93237 1.95606 0
M  V30 17135 H 1642.38 4.24149 0.312676 0
M  V30 17136 N 1640.69 0.205039 1.56261 0
M  V30 17137 C 1641.92 -0.43642 2.02245 0
M  V30 17138 C 1642.33 -1.54504 1.08508 0
M  V30 17139 O 1641.69 -1.82269 0.0916991 0
M  V30 17140 C 1641.74 -0.983483 3.47865 0
M  V30 17141 O 1641.46 0.0809166 4.38025 0
M  V30 17142 C 1642.96 -1.69983 4.09415 0
M  V30 17143 H 1640.18 -0.108577 0.662157 0
M  V30 17144 H 1642.73 0.316659 2.02033 0
M  V30 17145 H 1640.88 -1.6869 3.48744 0
M  V30 17146 H 1641.3 -0.327751 5.23475 0
M  V30 17147 H 1642.77 -2.03481 5.13127 0
M  V30 17148 H 1643.25 -2.60711 3.5345 0
M  V30 17149 H 1643.85 -1.04202 4.12337 0
M  V30 17150 N 1642.17 -1.57451 -0.0684915 0
M  V30 17151 C 1643.42 -1.87411 -0.76702 0
M  V30 17152 C 1643.74 -0.797219 -1.77411 0
M  V30 17153 O 1643 0.206424 -1.94608 0
M  V30 17154 C 1643.3 -3.24044 -1.50765 0
M  V30 17155 C 1642.96 -4.46331 -0.640238 0
M  V30 17156 C 1641.63 -4.79525 -0.401205 0
M  V30 17157 C 1643.98 -5.21185 -0.0389475 0
M  V30 17158 C 1641.31 -5.84983 0.448547 0
M  V30 17159 C 1643.66 -6.27543 0.798278 0
M  V30 17160 C 1642.32 -6.59235 1.04715 0
M  V30 17161 H 1641.59 -0.685787 -0.280673 0
M  V30 17162 H 1644.24 -1.9148 -0.0277143 0
M  V30 17163 H 1642.54 -3.15782 -2.31925 0
M  V30 17164 H 1644.24 -3.44461 -2.05299 0
M  V30 17165 H 1640.83 -4.20354 -0.836675 0
M  V30 17166 H 1645.02 -4.95852 -0.210729 0
M  V30 17167 H 1640.27 -6.07934 0.650077 0
M  V30 17168 H 1644.45 -6.84705 1.27092 0
M  V30 17169 H 1642.07 -7.40779 1.70737 0
M  V30 17170 N 1643.65 0.339955 -1.5389 0
M  V30 17171 C 1644.61 1.40058 -1.81429 0
M  V30 17172 C 1645.61 1.45458 -0.685463 0
M  V30 17173 O 1646.8 1.45771 -0.953754 0
M  V30 17174 C 1643.93 2.78952 -1.95955 0
M  V30 17175 H 1645.13 1.16902 -2.76178 0
M  V30 17176 H 1642.68 0.574543 -1.45357 0
M  V30 17177 H 1643.41 3.07387 -1.03361 0
M  V30 17178 H 1643.2 2.76429 -2.78082 0
M  V30 17179 H 1644.69 3.55713 -2.18765 0
M  V30 17180 N 1645.13 1.45684 0.601159 0
M  V30 17181 C 1646.04 1.57396 1.73965 0
M  V30 17182 C 1647.05 0.458133 1.6786 0
M  V30 17183 O 1648.23 0.719717 1.88101 0
M  V30 17184 C 1645.29 1.54363 3.1044 0
M  V30 17185 C 1644.35 2.77034 3.27949 0
M  V30 17186 C 1643.59 2.74136 4.57914 0
M  V30 17187 O 1643.81 1.81829 5.40643 0
M  V30 17188 O 1642.74 3.65428 4.78274 0
M  V30 17189 H 1646.57 2.5364 1.67034 0
M  V30 17190 H 1644.15 1.28267 0.766017 0
M  V30 17191 H 1646.04 1.55302 3.91739 0
M  V30 17192 H 1644.71 0.612723 3.17848 0
M  V30 17193 H 1643.62 2.81655 2.46214 0
M  V30 17194 H 1644.95 3.69272 3.25422 0
M  V30 17195 N 1646.6 -0.84422 1.33082 0
M  V30 17196 C 1647.85 -1.59404 1.23585 0
M  V30 17197 C 1648.17 -1.94593 -0.198208 0
M  V30 17198 O 1649.37 -2.68307 -0.415138 0
M  V30 17199 C 1647.83 -2.87489 2.16513 0
M  V30 17200 C 1647.44 -2.59685 3.65059 0
M  V30 17201 C 1649.18 -3.6551 2.15877 0
M  V30 17202 C 1647.09 -3.83834 4.49917 0
M  V30 17203 H 1646.02 -0.598191 0.459003 0
M  V30 17204 H 1648.67 -0.931299 1.58111 0
M  V30 17205 H 1647.05 -3.55276 1.74913 0
M  V30 17206 H 1648.22 -2.00143 4.15065 0
M  V30 17207 H 1646.54 -1.94977 3.6793 0
M  V30 17208 H 1649.14 -4.57654 2.76509 0
M  V30 17209 H 1649.48 -4.00031 1.15244 0
M  V30 17210 H 1650.01 -3.0464 2.55811 0
M  V30 17211 H 1646.75 -3.54448 5.51404 0
M  V30 17212 H 1646.27 -4.42734 4.04656 0
M  V30 17213 H 1647.95 -4.51468 4.63449 0
M  V30 17214 N 1648.08 -1.16463 -1.0618 0
M  V30 17215 C 1649.01 -0.829995 -2.13644 0
M  V30 17216 C 1650.03 0.16326 -1.61979 0
M  V30 17217 O 1651.22 -0.0616575 -1.78393 0
M  V30 17218 C 1648.32 -0.215222 -3.38216 0
M  V30 17219 C 1647.49 -1.24886 -4.19192 0
M  V30 17220 C 1646.55 -0.653683 -5.22124 0
M  V30 17221 O 1645.57 -1.32285 -5.53615 0
M  V30 17222 N 1646.78 0.559031 -5.77802 0
M  V30 17223 H 1649.54 -1.75487 -2.42949 0
M  V30 17224 H 1647.1 -1.06212 -1.22191 0
M  V30 17225 H 1649.09 0.196005 -4.04225 0
M  V30 17226 H 1647.66 0.613229 -3.06526 0
M  V30 17227 H 1646.88 -1.83622 -3.48822 0
M  V30 17228 H 1648.17 -1.94639 -4.70099 0
M  V30 17229 H 1647.57 1.12083 -5.54485 0
M  V30 17230 H 1646.13 0.912453 -6.45382 0
M  V30 17231 N 1649.56 1.24734 -0.963288 0
M  V30 17232 C 1650.97 1.7456 -0.662246 0
M  V30 17233 C 1651.32 1.78143 0.822169 0
M  V30 17234 O 1650.45 1.40794 1.64335 0
M  V30 17235 C 1651.04 3.1701 -1.19542 0
M  V30 17236 C 1649.6 3.64361 -0.944371 0
M  V30 17237 C 1648.75 2.4314 -1.33335 0
M  V30 17238 H 1651.7 1.10498 -1.13911 0
M  V30 17239 H 1651.72 3.76362 -0.559601 0
M  V30 17240 H 1651.23 3.1437 -2.27581 0
M  V30 17241 H 1649.33 3.72405 0.120682 0
M  V30 17242 H 1649.45 4.52055 -1.58692 0
M  V30 17243 H 1647.81 2.43354 -0.751729 0
M  V30 17244 H 1648.59 2.43185 -2.42314 0
M  V30 17245 N 1651.04 0.732878 1.39523 0
M  V30 17246 C 1651.97 0.106583 2.33257 0
M  V30 17247 C 1652.95 -0.726582 1.53801 0
M  V30 17248 O 1654.13 -0.671994 1.82203 0
M  V30 17249 C 1651.26 -0.803051 3.37888 0
M  V30 17250 C 1650.22 -0.0742048 4.27936 0
M  V30 17251 C 1649.54 -1.10071 5.23248 0
M  V30 17252 C 1650.84 1.08195 5.10971 0
M  V30 17253 H 1652.54 0.889539 2.8588 0
M  V30 17254 H 1650.08 0.429209 1.37455 0
M  V30 17255 H 1652.04 -1.25071 4.02412 0
M  V30 17256 H 1650.76 -1.6181 2.83699 0
M  V30 17257 H 1649.42 0.35381 3.64889 0
M  V30 17258 H 1649.07 -1.90927 4.65356 0
M  V30 17259 H 1648.77 -0.617825 5.84343 0
M  V30 17260 H 1650.29 -1.54812 5.90649 0
M  V30 17261 H 1651.71 0.712835 5.68851 0
M  V30 17262 H 1650.1 1.49433 5.81197 0
M  V30 17263 H 1651.17 1.90463 4.45928 0
M  V30 17264 N 1652.52 -1.50101 0.480349 0
M  V30 17265 C 1653.93 -1.8668 0.0274773 0
M  V30 17266 C 1654.28 -1.39442 -1.38023 0
M  V30 17267 O 1653.4 -0.763363 -2.02489 0
M  V30 17268 C 1654 -3.38773 0.043087 0
M  V30 17269 C 1652.56 -3.74728 -0.354352 0
M  V30 17270 C 1651.7 -2.7403 0.424583 0
M  V30 17271 H 1654.65 -1.42713 0.694172 0
M  V30 17272 H 1654.68 -3.72894 -0.756989 0
M  V30 17273 H 1654.19 -3.73123 1.06775 0
M  V30 17274 H 1652.29 -3.45981 -1.38303 0
M  V30 17275 H 1652.4 -4.79075 -0.0492608 0
M  V30 17276 H 1650.77 -2.54403 -0.122927 0
M  V30 17277 H 1651.55 -3.11225 1.44894 0
M  V30 17278 N 1653.99 -0.213323 -1.5615 0
M  V30 17279 C 1654.96 0.686579 -2.18675 0
M  V30 17280 C 1655.96 1.1277 -1.14628 0
M  V30 17281 O 1657.15 1.03783 -1.39909 0
M  V30 17282 C 1654.28 1.93954 -2.80347 0
M  V30 17283 H 1655.47 0.141578 -2.99566 0
M  V30 17284 H 1653.02 0.0362987 -1.56258 0
M  V30 17285 H 1653.76 2.52661 -2.03304 0
M  V30 17286 H 1653.54 1.63179 -3.56532 0
M  V30 17287 H 1655.03 2.58087 -3.283 0
M  V30 17288 N 1655.47 1.57485 0.0601405 0
M  V30 17289 C 1656.72 1.86998 0.75595 0
M  V30 17290 C 1657.03 0.807616 1.78149 0
M  V30 17291 O 1658.24 0.99096 2.52769 0
M  V30 17292 C 1656.7 3.31746 1.39545 0
M  V30 17293 C 1656.3 4.46139 0.407874 0
M  V30 17294 C 1658.05 3.70445 2.07294 0
M  V30 17295 C 1655.96 5.81933 1.05395 0
M  V30 17296 H 1654.89 0.697619 0.286083 0
M  V30 17297 H 1657.54 1.83498 0.00948593 0
M  V30 17298 H 1655.92 3.29894 2.19057 0
M  V30 17299 H 1657.09 4.59405 -0.358281 0
M  V30 17300 H 1655.41 4.1607 -0.16581 0
M  V30 17301 H 1658 4.692 2.56428 0
M  V30 17302 H 1658.35 3.00839 2.87753 0
M  V30 17303 H 1658.88 3.74337 1.34598 0
M  V30 17304 H 1655.62 6.54861 0.289437 0
M  V30 17305 H 1655.14 5.72446 1.79068 0
M  V30 17306 H 1656.82 6.27652 1.5704 0
M  V30 17307 N 1656.95 -0.331789 1.54068 0
M  V30 17308 C 1657.86 -1.43116 1.8589 0
M  V30 17309 C 1658.88 -1.57003 0.75007 0
M  V30 17310 O 1660.05 -1.72256 1.04355 0
M  V30 17311 C 1657.12 -2.77945 2.07238 0
M  V30 17312 C 1656.18 -2.73303 3.31065 0
M  V30 17313 C 1655.41 -4.01702 3.51385 0
M  V30 17314 O 1655.63 -4.99562 2.75306 0
M  V30 17315 O 1654.57 -4.0546 4.44844 0
M  V30 17316 H 1658.39 -1.19137 2.79357 0
M  V30 17317 H 1655.98 -0.525057 1.3987 0
M  V30 17318 H 1657.86 -3.57774 2.22656 0
M  V30 17319 H 1656.54 -3.01831 1.16959 0
M  V30 17320 H 1655.44 -1.92054 3.21039 0
M  V30 17321 H 1656.78 -2.54371 4.21374 0
M  V30 17322 N 1658.43 -1.46001 -0.593424 0
M  V30 17323 C 1659.67 -1.50978 -1.35401 0
M  V30 17324 C 1660.01 -0.156626 -1.93567 0
M  V30 17325 O 1659.28 0.83067 -1.7587 0
M  V30 17326 C 1659.57 -2.60005 -2.49137 0
M  V30 17327 C 1659.42 -4.04814 -1.96075 0
M  V30 17328 C 1660.74 -2.65199 -3.51223 0
M  V30 17329 H 1657.86 -0.549657 -0.490965 0
M  V30 17330 H 1660.5 -1.77883 -0.667644 0
M  V30 17331 H 1658.65 -2.37194 -3.07687 0
M  V30 17332 H 1660.32 -4.38879 -1.42066 0
M  V30 17333 H 1658.56 -4.148 -1.26976 0
M  V30 17334 H 1659.23 -4.76811 -2.78128 0
M  V30 17335 H 1661.71 -2.85675 -3.02537 0
M  V30 17336 H 1660.59 -3.43323 -4.28276 0
M  V30 17337 H 1660.85 -1.70833 -4.0776 0
M  V30 17338 N 1659.91 0.83715 -1.33527 0
M  V30 17339 C 1661.13 1.62456 -1.28124 0
M  V30 17340 C 1661.55 1.88223 0.147499 0
M  V30 17341 O 1660.91 1.4636 1.09018 0
M  V30 17342 C 1660.96 2.97376 -2.05547 0
M  V30 17343 O 1660.68 2.7274 -3.42847 0
M  V30 17344 C 1662.18 3.91805 -2.07374 0
M  V30 17345 H 1659.4 0.505436 -0.441334 0
M  V30 17346 H 1661.94 1.04263 -1.75925 0
M  V30 17347 H 1660.1 3.52166 -1.61424 0
M  V30 17348 H 1660.51 3.58669 -3.82696 0
M  V30 17349 H 1661.99 4.83684 -2.65996 0
M  V30 17350 H 1662.46 4.26106 -1.06444 0
M  V30 17351 H 1663.07 3.42952 -2.51523 0
M  V30 17352 N 1661.38 1.17024 1.05561 0
M  V30 17353 C 1662.63 0.954436 1.78143 0
M  V30 17354 C 1662.95 -0.518525 1.8798 0
M  V30 17355 O 1662.22 -1.37654 1.39385 0
M  V30 17356 H 1660.8 0.350141 0.659856 0
M  V30 17357 H 1663.47 1.4743 1.27477 0
M  V30 17358 H 1662.56 1.37955 2.79955 0
M  V30 17359 N 1662.86 -1.24221 0.969889 0
M  V30 17360 C 1664.11 -1.91973 0.631725 0
M  V30 17361 C 1664.43 -1.76169 -0.836032 0
M  V30 17362 O 1663.7 -1.13459 -1.597 0
M  V30 17363 H 1662.28 -0.710497 0.230658 0
M  V30 17364 H 1664.94 -1.51069 1.23143 0
M  V30 17365 H 1664.04 -2.99606 0.874223 0
M  V30 17366 N 1664.34 -0.740267 -1.39132 0
M  V30 17367 C 1665.3 -0.112183 -2.28925 0
M  V30 17368 C 1666.3 0.661598 -1.46559 0
M  V30 17369 O 1667.49 0.489835 -1.67171 0
M  V30 17370 C 1664.63 0.850121 -3.3013 0
M  V30 17371 H 1665.82 -0.903339 -2.85972 0
M  V30 17372 H 1663.37 -0.506427 -1.47868 0
M  V30 17373 H 1664.11 1.66744 -2.78149 0
M  V30 17374 H 1663.89 0.297847 -3.90967 0
M  V30 17375 H 1665.38 1.28599 -3.97306 0
M  V30 17376 N 1665.82 1.49844 -0.488302 0
M  V30 17377 C 1666.75 2.26762 0.333396 0
M  V30 17378 C 1667.76 1.32785 0.941918 0
M  V30 17379 O 1668.95 1.58165 0.827407 0
M  V30 17380 C 1666.05 3.04721 1.48318 0
M  V30 17381 C 1665.23 4.26181 0.984303 0
M  V30 17382 C 1664.28 4.8629 2.01018 0
M  V30 17383 O 1663.31 5.4672 1.58384 0
M  V30 17384 N 1664.51 4.74813 3.33965 0
M  V30 17385 H 1667.28 2.97921 -0.32609 0
M  V30 17386 H 1664.84 1.58704 -0.320092 0
M  V30 17387 H 1666.83 3.4181 2.16676 0
M  V30 17388 H 1665.4 2.36251 2.04705 0
M  V30 17389 H 1664.62 3.93998 0.126039 0
M  V30 17390 H 1665.91 5.04895 0.62919 0
M  V30 17391 H 1665.31 4.26793 3.71301 0
M  V30 17392 H 1663.86 5.16122 3.98072 0
M  V30 17393 N 1667.3 0.221601 1.56034 0
M  V30 17394 C 1668.71 -0.28624 1.84493 0
M  V30 17395 C 1669.06 -1.59469 1.14298 0
M  V30 17396 O 1668.18 -2.12429 0.412672 0
M  V30 17397 C 1668.78 -0.526128 3.3469 0
M  V30 17398 C 1667.34 -0.978278 3.63465 0
M  V30 17399 C 1666.48 -0.0413786 2.77269 0
M  V30 17400 H 1669.44 0.444792 1.52339 0
M  V30 17401 H 1669.46 -1.37212 3.54899 0
M  V30 17402 H 1668.97 0.426348 3.85751 0
M  V30 17403 H 1667.07 -1.94411 3.1786 0
M  V30 17404 H 1667.18 -0.852651 4.71452 0
M  V30 17405 H 1665.55 -0.548179 2.48731 0
M  V30 17406 H 1666.33 0.906016 3.31129 0
M  V30 17407 N 1668.77 -1.57515 -0.0517878 0
M  V30 17408 C 1669.74 -2.04049 -1.04387 0
M  V30 17409 C 1670.74 -0.940745 -1.30409 0
M  V30 17410 O 1671.93 -1.20505 -1.25794 0
M  V30 17411 C 1669.06 -2.43816 -2.38257 0
M  V30 17412 H 1670.25 -2.9294 -0.642367 0
M  V30 17413 H 1667.81 -1.53432 -0.29805 0
M  V30 17414 H 1668.54 -1.58013 -2.832 0
M  V30 17415 H 1668.33 -3.24086 -2.20705 0
M  V30 17416 H 1669.82 -2.80325 -3.09528 0
M  V30 17417 N 1670.25 0.323614 -1.54242 0
M  V30 17418 C 1671.22 1.38126 -1.82904 0
M  V30 17419 C 1672.22 1.44723 -0.700853 0
M  V30 17420 O 1673.41 1.44751 -0.969161 0
M  V30 17421 C 1670.54 2.76858 -1.98903 0
M  V30 17422 H 1671.73 1.13966 -2.77402 0
M  V30 17423 H 1669.28 0.559094 -1.45958 0
M  V30 17424 H 1670.02 3.06274 -1.06616 0
M  V30 17425 H 1669.8 2.73464 -2.80998 0
M  V30 17426 H 1671.29 3.53372 -2.22526 0
M  V30 17427 N 1671.73 1.46313 0.585673 0
M  V30 17428 C 1672.98 1.51171 1.34134 0
M  V30 17429 C 1673.3 0.163691 1.94312 0
M  V30 17430 O 1672.57 -0.809444 1.78395 0
M  V30 17431 H 1671.15 0.556768 0.498014 0
M  V30 17432 H 1673.81 1.82423 0.686133 0
M  V30 17433 H 1672.91 2.26274 2.14957 0
M  V30 17434 N 1673.21 -0.830057 1.33969 0
M  V30 17435 C 1674.17 -1.92206 1.24858 0
M  V30 17436 C 1675.17 -1.59946 0.16549 0
M  V30 17437 O 1676.36 -1.6912 0.417629 0
M  V30 17438 C 1673.49 -3.28082 0.926029 0
M  V30 17439 H 1674.69 -2.01708 2.21932 0
M  V30 17440 H 1672.24 -1.02319 1.18154 0
M  V30 17441 H 1672.98 -3.24273 -0.0418364 0
M  V30 17442 H 1672.76 -3.52878 1.70938 0
M  V30 17443 H 1674.25 -4.08065 0.887263 0
M  V30 17444 N 1674.69 -1.17582 -1.04939 0
M  V30 17445 C 1675.62 -0.852608 -2.12752 0
M  V30 17446 C 1676.63 0.14607 -1.62143 0
M  V30 17447 O 1677.82 -0.0805751 -1.78318 0
M  V30 17448 C 1674.92 -0.251083 -3.37969 0
M  V30 17449 C 1674.09 -1.29325 -4.17844 0
M  V30 17450 C 1673.15 -0.709025 -5.21401 0
M  V30 17451 O 1672.18 -1.38149 -5.52181 0
M  V30 17452 N 1673.38 0.497716 -5.78362 0
M  V30 17453 H 1676.15 -1.78054 -2.41074 0
M  V30 17454 H 1673.71 -1.07502 -1.21058 0
M  V30 17455 H 1675.7 0.15312 -4.0441 0
M  V30 17456 H 1674.27 0.580684 -3.07159 0
M  V30 17457 H 1673.49 -1.87311 -3.46855 0
M  V30 17458 H 1674.78 -1.99614 -4.68008 0
M  V30 17459 H 1674.18 1.06196 -5.55643 0
M  V30 17460 H 1672.73 0.843951 -6.46313 0
M  V30 17461 N 1676.17 1.23705 -0.976463 0
M  V30 17462 C 1677.13 2.23257 -0.518533 0
M  V30 17463 C 1678.13 1.56006 0.3897 0
M  V30 17464 O 1679.32 1.73226 0.18394 0
M  V30 17465 C 1676.45 3.39997 0.247916 0
M  V30 17466 H 1677.64 2.65284 -1.39872 0
M  V30 17467 H 1675.2 1.3647 -0.761946 0
M  V30 17468 H 1675.93 3.03421 1.14482 0
M  V30 17469 H 1675.72 3.90013 -0.403975 0
M  V30 17470 H 1677.21 4.13868 0.557034 0
M  V30 17471 N 1677.64 0.747635 1.38738 0
M  V30 17472 C 1678.61 0.124321 2.28863 0
M  V30 17473 C 1679.61 -0.653816 1.46908 0
M  V30 17474 O 1680.8 -0.480963 1.67429 0
M  V30 17475 C 1677.93 -0.832601 3.30576 0
M  V30 17476 H 1679.12 0.918492 2.85489 0
M  V30 17477 H 1676.67 0.514262 1.47598 0
M  V30 17478 H 1677.41 -1.65267 2.79029 0
M  V30 17479 H 1677.19 -0.277109 3.9112 0
M  V30 17480 H 1678.68 -1.2649 3.97982 0
M  V30 17481 N 1679.12 -1.49583 0.496242 0
M  V30 17482 C 1680.37 -2.02038 -0.0498643 0
M  V30 17483 C 1680.69 -1.37848 -1.37924 0
M  V30 17484 O 1679.96 -0.532188 -1.88533 0
M  V30 17485 H 1678.54 -0.746693 -0.0214177 0
M  V30 17486 H 1681.2 -1.83657 0.652399 0
M  V30 17487 H 1680.3 -3.11563 -0.183021 0
M  V30 17488 N 1680.6 -0.229873 -1.55915 0
M  V30 17489 C 1681.88 0.449007 -1.90377 0
M  V30 17490 C 1682.26 1.77133 -1.14835 0
M  V30 17491 O 1681.6 2.27012 -0.260328 0
M  V30 17492 C 1681.81 0.633805 -3.43197 0
M  V30 17493 C 1683.16 0.937453 -4.14122 0
M  V30 17494 O 1684.19 0.72029 -3.48841 0
M  V30 17495 O 1683.05 1.35005 -5.29562 0
M  V30 17496 H 1680.14 0.238557 -0.791846 0
M  V30 17497 H 1682.69 -0.272676 -1.67495 0
M  V30 17498 H 1681.46 -0.298587 -3.90159 0
M  V30 17499 H 1681.08 1.40667 -3.71885 0
M  V30 17500 N 1682.08 1.5754 0.0434337 0
M  V30 17501 C 1683.04 2.046 1.03303 0
M  V30 17502 C 1684.04 0.947648 1.29909 0
M  V30 17503 O 1685.23 1.21171 1.25153 0
M  V30 17504 C 1682.36 2.45077 2.36961 0
M  V30 17505 H 1683.56 2.93276 0.626822 0
M  V30 17506 H 1681.11 1.53588 0.289909 0
M  V30 17507 H 1681.84 1.59513 2.82358 0
M  V30 17508 H 1681.63 3.25252 2.18983 0
M  V30 17509 H 1683.12 2.81963 3.08037 0
M  V30 17510 N 1683.56 -0.31543 1.54411 0
M  V30 17511 C 1684.52 -1.37154 1.83634 0
M  V30 17512 C 1685.52 -1.44349 0.708518 0
M  V30 17513 O 1686.71 -1.44235 0.976824 0
M  V30 17514 C 1683.84 -2.758 2.00368 0
M  V30 17515 H 1685.03 -1.12493 2.78002 0
M  V30 17516 H 1682.59 -0.551346 1.46253 0
M  V30 17517 H 1683.32 -3.05704 1.08238 0
M  V30 17518 H 1683.11 -2.7197 2.82445 0
M  V30 17519 H 1684.6 -3.52187 2.24397 0
M  V30 17520 N 1685.03 -1.46622 -0.577906 0
M  V30 17521 C 1686.45 -1.31683 -0.901762 0
M  V30 17522 C 1686.65 -0.291842 -1.99375 0
M  V30 17523 O 1685.71 0.303913 -2.50664 0
M  V30 17524 C 1687.02 -2.70443 -1.31457 0
M  V30 17525 C 1688.57 -2.7857 -1.42715 0
M  V30 17526 C 1689.04 -4.17923 -1.87361 0
M  V30 17527 N 1690.53 -4.20364 -1.94546 0
M  V30 17528 C 1691.27 -5.25085 -2.30376 0
M  V30 17529 N 1690.76 -6.4013 -2.64964 0
M  V30 17530 N 1692.56 -5.12453 -2.30972 0
M  V30 17531 H 1684.71 -2.11916 0.143367 0
M  V30 17532 H 1686.97 -0.947999 0.00146914 0
M  V30 17533 H 1686.68 -3.46781 -0.586174 0
M  V30 17534 H 1686.55 -3.00864 -2.2751 0
M  V30 17535 H 1688.94 -2.02518 -2.14641 0
M  V30 17536 H 1689.02 -2.51828 -0.449021 0
M  V30 17537 H 1688.66 -4.94473 -1.16012 0
M  V30 17538 H 1688.59 -4.42076 -2.8614 0
M  V30 17539 H 1691.08 -3.37359 -1.70286 0
M  V30 17540 H 1691.4 -7.15808 -2.91271 0
M  V30 17541 H 1689.74 -6.43483 -2.62591 0
M  V30 17542 H 1692.93 -4.21611 -2.03376 0
M  V30 17543 H 1693.11 -5.94178 -2.58566 0
M  V30 17544 N 1686.51 0.822941 -1.34408 0
M  V30 17545 C 1687.42 1.96567 -1.28056 0
M  V30 17546 C 1688.44 1.72979 -0.188251 0
M  V30 17547 O 1689.61 1.97084 -0.41472 0
M  V30 17548 C 1686.68 3.30865 -1.03583 0
M  V30 17549 C 1685.74 3.67461 -2.2197 0
M  V30 17550 C 1684.97 4.9535 -1.98655 0
M  V30 17551 O 1685.2 5.62521 -0.944785 0
M  V30 17552 O 1684.13 5.29824 -2.85605 0
M  V30 17553 H 1687.96 2.0487 -2.24192 0
M  V30 17554 H 1685.54 0.958334 -1.14614 0
M  V30 17555 H 1687.42 4.11298 -0.917162 0
M  V30 17556 H 1686.1 3.2353 -0.104868 0
M  V30 17557 H 1685.01 2.87472 -2.39396 0
M  V30 17558 H 1686.34 3.79481 -3.13456 0
M  V30 17559 N 1687.99 1.18137 1.04314 0
M  V30 17560 C 1689.22 1.00062 1.81666 0
M  V30 17561 C 1689.64 -0.446281 1.82729 0
M  V30 17562 O 1689 -1.32004 1.24277 0
M  V30 17563 C 1689.05 1.55698 3.25255 0
M  V30 17564 O 1688.15 0.776662 4.05021 0
M  V30 17565 H 1687.49 0.354651 0.561354 0
M  V30 17566 H 1690.02 1.56837 1.3139 0
M  V30 17567 H 1690.03 1.58303 3.76037 0
M  V30 17568 H 1688.71 2.61016 3.23795 0
M  V30 17569 H 1687.28 0.822723 3.63711 0
M  V30 17570 N 1689.47 -1.23186 0.98301 0
M  V30 17571 C 1690.88 -1.73484 0.689933 0
M  V30 17572 C 1691.23 -1.79428 -0.793724 0
M  V30 17573 O 1690.36 -1.43391 -1.62074 0
M  V30 17574 C 1690.95 -3.15068 1.24571 0
M  V30 17575 C 1689.51 -3.62812 1.00222 0
M  V30 17576 C 1688.66 -2.40988 1.37186 0
M  V30 17577 H 1691.61 -1.08672 1.15655 0
M  V30 17578 H 1691.63 -3.75425 0.619406 0
M  V30 17579 H 1691.14 -3.10709 2.32554 0
M  V30 17580 H 1689.24 -3.72549 -0.0614202 0
M  V30 17581 H 1689.35 -4.49473 1.65863 0
M  V30 17582 H 1687.72 -2.42127 0.79035 0
M  V30 17583 H 1688.5 -2.39299 2.46152 0
M  V30 17584 N 1690.95 -0.754982 -1.38339 0
M  V30 17585 C 1691.91 -0.136457 -2.28793 0
M  V30 17586 C 1692.91 0.646016 -1.47252 0
M  V30 17587 O 1694.1 0.472077 -1.67681 0
M  V30 17588 C 1691.23 0.815058 -3.31013 0
M  V30 17589 H 1692.42 -0.933619 -2.84997 0
M  V30 17590 H 1689.98 -0.522082 -1.47323 0
M  V30 17591 H 1690.71 1.63785 -2.79902 0
M  V30 17592 H 1690.5 0.256363 -3.91261 0
M  V30 17593 H 1691.99 1.24378 -3.98648 0
M  V30 17594 N 1692.42 1.49318 -0.504168 0
M  V30 17595 C 1693.39 2.27703 0.26157 0
M  V30 17596 C 1694.39 1.3385 0.891114 0
M  V30 17597 O 1695.58 1.56981 0.755156 0
M  V30 17598 C 1692.71 3.11912 1.37564 0
M  V30 17599 H 1693.9 2.96855 -0.426292 0
M  V30 17600 H 1691.46 1.54135 -0.259236 0
M  V30 17601 H 1692.19 2.47332 2.09755 0
M  V30 17602 H 1691.98 3.8092 0.929641 0
M  V30 17603 H 1693.47 3.71106 1.91494 0
M  V30 17604 N 1693.9 0.238138 1.5579 0
M  V30 17605 C 1695.15 -0.388263 1.98335 0
M  V30 17606 C 1695.47 -1.59104 1.12743 0
M  V30 17607 O 1694.74 -1.9479 0.208201 0
M  V30 17608 H 1693.32 -0.14644 0.732505 0
M  V30 17609 H 1695.98 0.334891 1.92001 0
M  V30 17610 H 1695.08 -0.703359 3.04071 0
M  V30 17611 N 1695.38 -1.57561 -0.0350783 0
M  V30 17612 C 1696.79 -1.77383 -0.582437 0
M  V30 17613 C 1697.14 -0.868453 -1.75933 0
M  V30 17614 O 1696.27 -0.061745 -2.16312 0
M  V30 17615 C 1696.86 -3.2168 -1.06337 0
M  V30 17616 C 1695.42 -3.42719 -1.55629 0
M  V30 17617 C 1694.57 -2.72906 -0.4917 0
M  V30 17618 H 1697.52 -1.57545 0.19115 0
M  V30 17619 H 1697.54 -3.27863 -1.93097 0
M  V30 17620 H 1697.05 -3.8755 -0.206603 0
M  V30 17621 H 1695.15 -2.82016 -2.43511 0
M  V30 17622 H 1695.27 -4.51312 -1.60794 0
M  V30 17623 H 1693.63 -2.36506 -0.945349 0
M  V30 17624 H 1694.41 -3.41454 0.355502 0
M  V30 17625 N 1696.86 0.307236 -1.54576 0
M  V30 17626 C 1697.77 1.4014 -1.88143 0
M  V30 17627 C 1698.78 1.5579 -0.774952 0
M  V30 17628 O 1699.96 1.70574 -1.07082 0
M  V30 17629 C 1697.03 2.74613 -2.11633 0
M  V30 17630 C 1696.09 2.68001 -3.35371 0
M  V30 17631 C 1695.32 3.96061 -3.57731 0
M  V30 17632 O 1695.54 4.95119 -2.83219 0
M  V30 17633 O 1694.48 3.98331 -4.51238 0
M  V30 17634 H 1698.3 1.14677 -2.81217 0
M  V30 17635 H 1695.89 0.502739 -1.40687 0
M  V30 17636 H 1697.77 3.54186 -2.2832 0
M  V30 17637 H 1696.44 2.99933 -1.21746 0
M  V30 17638 H 1695.35 1.86922 -3.24054 0
M  V30 17639 H 1696.68 2.47635 -4.25368 0
M  V30 17640 N 1698.34 1.46926 0.570122 0
M  V30 17641 C 1699.3 1.58009 1.6603 0
M  V30 17642 C 1700.3 0.456188 1.54193 0
M  V30 17643 O 1701.49 0.720879 1.58584 0
M  V30 17644 C 1698.62 1.51235 3.05517 0
M  V30 17645 H 1699.81 2.55178 1.57558 0
M  V30 17646 H 1697.37 1.34924 0.788998 0
M  V30 17647 H 1698.1 0.553929 3.19534 0
M  V30 17648 H 1697.89 2.3279 3.15518 0
M  V30 17649 H 1699.38 1.62101 3.84854 0
M  V30 17650 N 1699.82 -0.815801 1.34842 0
M  V30 17651 C 1700.78 -1.90871 1.2689 0
M  V30 17652 C 1701.78 -1.59762 0.182445 0
M  V30 17653 O 1702.97 -1.68667 0.435543 0
M  V30 17654 C 1700.1 -3.27081 0.960774 0
M  V30 17655 H 1701.29 -1.99343 2.24059 0
M  V30 17656 H 1698.85 -1.0106 1.19233 0
M  V30 17657 H 1699.58 -3.24299 -0.00744059 0
M  V30 17658 H 1699.37 -3.51045 1.74671 0
M  V30 17659 H 1700.86 -4.07101 0.930494 0
M  V30 17660 N 1701.29 -1.18689 -1.03686 0
M  V30 17661 C 1702.26 -0.919415 -2.09951 0
M  V30 17662 C 1703.26 0.0968042 -1.60508 0
M  V30 17663 O 1704.45 -0.137062 -1.7366 0
M  V30 17664 C 1701.58 -0.380204 -3.38773 0
M  V30 17665 H 1702.77 -1.86178 -2.35112 0
M  V30 17666 H 1700.32 -0.999435 -1.20171 0
M  V30 17667 H 1701.06 0.568586 -3.19277 0
M  V30 17668 H 1700.84 -1.11281 -3.75977 0
M  V30 17669 H 1702.33 -0.211891 -4.17062 0
M  V30 17670 N 1702.77 1.22662 -0.989529 0
M  V30 17671 C 1703.73 2.22695 -0.542183 0
M  V30 17672 C 1704.73 1.56411 0.373132 0
M  V30 17673 O 1705.92 1.73412 0.165556 0
M  V30 17674 C 1703.06 3.40241 0.211841 0
M  V30 17675 H 1704.25 2.63786 -1.42678 0
M  V30 17676 H 1701.8 1.35654 -0.776377 0
M  V30 17677 H 1702.54 3.04618 1.11257 0
M  V30 17678 H 1702.32 3.89563 -0.445319 0
M  V30 17679 H 1703.81 4.14436 0.513107 0
M  V30 17680 N 1704.25 0.762308 1.37937 0
M  V30 17681 C 1705.2 0.140412 2.30372 0
M  V30 17682 C 1706.17 -0.700152 1.50622 0
M  V30 17683 O 1707.35 -0.654474 1.79224 0
M  V30 17684 C 1704.49 -0.740056 3.37071 0
M  V30 17685 C 1703.6 0.116084 4.31844 0
M  V30 17686 C 1702.74 -0.768203 5.25616 0
M  V30 17687 C 1701.78 0.0910442 6.12032 0
M  V30 17688 N 1700.92 -0.75069 6.98075 0
M  V30 17689 H 1705.76 0.934224 2.82977 0
M  V30 17690 H 1703.29 0.472316 1.39311 0
M  V30 17691 H 1705.25 -1.26525 3.97551 0
M  V30 17692 H 1703.88 -1.49956 2.85855 0
M  V30 17693 H 1702.93 0.758999 3.72751 0
M  V30 17694 H 1704.24 0.779285 4.92675 0
M  V30 17695 H 1703.4 -1.36024 5.91255 0
M  V30 17696 H 1702.14 -1.46511 4.65173 0
M  V30 17697 H 1701.14 0.695687 5.45381 0
M  V30 17698 H 1702.37 0.785145 6.74546 0
M  V30 17699 H 1700.31 -1.43239 6.40171 0
M  V30 17700 H 1700.23 -0.144579 7.55862 0
M  V30 17701 H 1701.5 -1.32742 7.68114 0
M  V30 17702 N 1705.73 -1.49049 0.51208 0
M  V30 17703 C 1707.14 -1.86579 0.0670687 0
M  V30 17704 C 1707.49 -1.42339 -1.35034 0
M  V30 17705 O 1706.61 -0.806142 -2.00824 0
M  V30 17706 C 1707.21 -3.38605 0.114936 0
M  V30 17707 C 1705.77 -3.75396 -0.274787 0
M  V30 17708 C 1704.92 -2.73068 0.482613 0
M  V30 17709 H 1707.87 -1.41208 0.724287 0
M  V30 17710 H 1707.89 -3.74416 -0.677722 0
M  V30 17711 H 1707.4 -3.70774 1.14666 0
M  V30 17712 H 1705.5 -3.48837 -1.30933 0
M  V30 17713 H 1705.61 -4.79071 0.0523691 0
M  V30 17714 H 1703.98 -2.54607 -0.0689364 0
M  V30 17715 H 1704.76 -3.08081 1.51463 0
M  V30 17716 N 1707.21 -0.246397 -1.55662 0
M  V30 17717 C 1708.48 0.42879 -1.90842 0
M  V30 17718 C 1708.86 1.75905 -1.16707 0
M  V30 17719 O 1708.21 2.26723 -0.284391 0
M  V30 17720 C 1708.42 0.597368 -3.4385 0
M  V30 17721 C 1709.77 0.893477 -4.15093 0
M  V30 17722 O 1710.79 0.683251 -3.49586 0
M  V30 17723 O 1709.65 1.2938 -5.30964 0
M  V30 17724 H 1706.75 0.230145 -0.794331 0
M  V30 17725 H 1709.29 -0.290426 -1.67196 0
M  V30 17726 H 1708.06 -0.339952 -3.8982 0
M  V30 17727 H 1707.69 1.36714 -3.73356 0
M  V30 17728 N 1708.68 1.57577 0.026722 0
M  V30 17729 C 1709.61 2.09748 1.02605 0
M  V30 17730 C 1710.59 1.00054 1.37562 0
M  V30 17731 O 1711.78 1.2759 1.46405 0
M  V30 17732 C 1708.91 2.57881 2.32626 0
M  V30 17733 C 1707.86 3.7186 2.11905 0
M  V30 17734 C 1707.19 4.06208 3.47706 0
M  V30 17735 C 1708.49 5.00198 1.50332 0
M  V30 17736 H 1710.18 2.93494 0.591753 0
M  V30 17737 H 1707.73 1.41188 0.283199 0
M  V30 17738 H 1709.68 2.93 3.02868 0
M  V30 17739 H 1708.41 1.71222 2.7812 0
M  V30 17740 H 1707.07 3.37094 1.44096 0
M  V30 17741 H 1706.71 3.16611 3.90853 0
M  V30 17742 H 1706.41 4.82982 3.34667 0
M  V30 17743 H 1707.94 4.43863 4.19306 0
M  V30 17744 H 1709.35 5.33259 2.10494 0
M  V30 17745 H 1707.75 5.81599 1.4786 0
M  V30 17746 H 1708.82 4.82623 0.469405 0
M  V30 17747 N 1710.16 -0.299034 1.54737 0
M  V30 17748 C 1711.07 -1.39141 1.88884 0
M  V30 17749 C 1712.09 -1.55377 0.783203 0
M  V30 17750 O 1713.26 -1.70003 1.07985 0
M  V30 17751 C 1710.33 -2.73487 2.13087 0
M  V30 17752 C 1709.39 -2.66219 3.36788 0
M  V30 17753 C 1708.62 -3.94158 3.59827 0
M  V30 17754 O 1708.85 -4.9361 2.85841 0
M  V30 17755 O 1707.78 -3.95933 4.53344 0
M  V30 17756 H 1711.61 -1.13184 2.81821 0
M  V30 17757 H 1709.19 -0.495271 1.40952 0
M  V30 17758 H 1711.07 -3.5297 2.30195 0
M  V30 17759 H 1709.75 -2.99283 1.23335 0
M  V30 17760 H 1708.65 -1.85201 3.25041 0
M  V30 17761 H 1709.99 -2.45376 4.26675 0
M  V30 17762 N 1711.64 -1.47227 -0.562322 0
M  V30 17763 C 1712.55 -1.61953 -1.69731 0
M  V30 17764 C 1713.57 -0.502478 -1.66587 0
M  V30 17765 O 1714.74 -0.769335 -1.86127 0
M  V30 17766 C 1711.81 -1.62539 -3.06238 0
M  V30 17767 C 1710.87 -2.85632 -3.20489 0
M  V30 17768 C 1710.1 -2.86181 -4.50485 0
M  V30 17769 O 1710.32 -1.96099 -5.35632 0
M  V30 17770 O 1709.26 -3.7798 -4.68417 0
M  V30 17771 H 1713.08 -2.5798 -1.6025 0
M  V30 17772 H 1710.67 -1.30253 -0.73174 0
M  V30 17773 H 1712.55 -1.65634 -3.87483 0
M  V30 17774 H 1711.23 -0.696779 -3.16112 0
M  V30 17775 H 1710.13 -2.88084 -2.3866 0
M  V30 17776 H 1711.47 -3.7777 -3.15517 0
M  V30 17777 N 1713.12 0.808639 -1.35273 0
M  V30 17778 C 1714.05 1.93502 -1.30687 0
M  V30 17779 C 1715.03 1.69127 -0.181675 0
M  V30 17780 O 1716.21 1.90519 -0.376312 0
M  V30 17781 C 1713.34 3.30211 -1.07602 0
M  V30 17782 C 1712.3 3.69063 -2.16741 0
M  V30 17783 C 1711.62 5.03911 -1.78824 0
M  V30 17784 C 1712.92 3.79656 -3.5869 0
M  V30 17785 H 1714.62 1.97597 -2.24935 0
M  V30 17786 H 1712.16 0.949284 -1.0828 0
M  V30 17787 H 1714.12 4.0861 -1.03034 0
M  V30 17788 H 1712.84 3.26453 -0.0979944 0
M  V30 17789 H 1711.5 2.92948 -2.20402 0
M  V30 17790 H 1711.15 4.96655 -0.796449 0
M  V30 17791 H 1710.85 5.30877 -2.51881 0
M  V30 17792 H 1712.37 5.84752 -1.75777 0
M  V30 17793 H 1713.79 4.48292 -3.57362 0
M  V30 17794 H 1712.18 4.1809 -4.30489 0
M  V30 17795 H 1713.25 2.81265 -3.94991 0
M  V30 17796 N 1714.6 1.19237 1.03055 0
M  V30 17797 C 1715.84 0.995444 1.76688 0
M  V30 17798 C 1716.18 -0.472805 1.88357 0
M  V30 17799 O 1715.45 -1.3511 1.39913 0
M  V30 17800 C 1715.73 1.66308 3.19396 0
M  V30 17801 C 1715.59 3.20486 3.15609 0
M  V30 17802 C 1716.91 1.38468 4.17749 0
M  V30 17803 H 1714.02 0.36304 0.641382 0
M  V30 17804 H 1716.67 1.47052 1.20315 0
M  V30 17805 H 1714.82 1.25915 3.67529 0
M  V30 17806 H 1716.49 3.70081 2.75387 0
M  V30 17807 H 1714.73 3.52118 2.53369 0
M  V30 17808 H 1715.4 3.62345 4.16426 0
M  V30 17809 H 1717.88 1.73485 3.78209 0
M  V30 17810 H 1716.75 1.87735 5.15797 0
M  V30 17811 H 1717.02 0.309505 4.41015 0
M  V30 17812 N 1716.07 -1.22136 0.99602 0
M  V30 17813 C 1717.04 -2.22404 0.553986 0
M  V30 17814 C 1718.04 -1.56607 -0.364832 0
M  V30 17815 O 1719.23 -1.73497 -0.156358 0
M  V30 17816 C 1716.36 -3.40349 -0.193794 0
M  V30 17817 H 1717.55 -2.63026 1.44075 0
M  V30 17818 H 1715.11 -1.35241 0.78356 0
M  V30 17819 H 1715.84 -3.05204 -1.0964 0
M  V30 17820 H 1715.63 -3.89321 0.465972 0
M  V30 17821 H 1717.12 -4.14702 -0.491121 0
M  V30 17822 N 1717.55 -0.769612 -1.37531 0
M  V30 17823 C 1718.48 -0.168389 -2.32892 0
M  V30 17824 C 1719.46 0.685549 -1.55673 0
M  V30 17825 O 1720.65 0.62345 -1.8392 0
M  V30 17826 C 1717.78 0.713183 -3.39898 0
M  V30 17827 C 1716.73 -0.0392808 -4.27982 0
M  V30 17828 C 1716.06 0.961596 -5.25982 0
M  V30 17829 C 1717.36 -1.21704 -5.07923 0
M  V30 17830 H 1719.05 -0.965022 -2.83421 0
M  V30 17831 H 1716.6 -0.465502 -1.36268 0
M  V30 17832 H 1718.55 1.14358 -4.05586 0
M  V30 17833 H 1717.28 1.54231 -2.87889 0
M  V30 17834 H 1715.93 -0.450429 -3.63822 0
M  V30 17835 H 1715.58 1.78522 -4.70254 0
M  V30 17836 H 1715.28 0.462679 -5.85776 0
M  V30 17837 H 1716.81 1.39097 -5.94545 0
M  V30 17838 H 1718.22 -0.863405 -5.66761 0
M  V30 17839 H 1716.62 -1.6479 -5.77031 0
M  V30 17840 H 1717.69 -2.02219 -4.40722 0
M  V30 17841 N 1719.03 1.48775 -0.519977 0
M  V30 17842 C 1720.26 2.06895 0.0139983 0
M  V30 17843 C 1720.67 1.37786 1.29075 0
M  V30 17844 O 1720.03 0.462168 1.76551 0
M  V30 17845 C 1720.08 3.60621 0.251999 0
M  V30 17846 O 1719.8 4.27132 -0.974158 0
M  V30 17847 C 1721.3 4.35508 0.827483 0
M  V30 17848 H 1718.52 0.670373 -0.0290011 0
M  V30 17849 H 1721.07 1.91302 -0.722762 0
M  V30 17850 H 1719.22 3.75853 0.938783 0
M  V30 17851 H 1719.64 5.19129 -0.748697 0
M  V30 17852 H 1721.11 5.43877 0.943492 0
M  V30 17853 H 1721.59 3.99261 1.82996 0
M  V30 17854 H 1722.19 4.24929 0.177578 0
M  V30 17855 N 1720.51 0.254649 1.55529 0
M  V30 17856 C 1721.92 -0.247042 1.85058 0
M  V30 17857 C 1722.27 -1.57009 1.17655 0
M  V30 17858 O 1721.4 -2.11506 0.457638 0
M  V30 17859 C 1721.99 -0.455017 3.35731 0
M  V30 17860 C 1720.55 -0.900961 3.65458 0
M  V30 17861 C 1719.7 0.0174436 2.77295 0
M  V30 17862 H 1722.65 0.477005 1.51362 0
M  V30 17863 H 1722.67 -1.29654 3.57729 0
M  V30 17864 H 1722.18 0.508076 3.8476 0
M  V30 17865 H 1720.28 -1.87625 3.21913 0
M  V30 17866 H 1720.39 -0.752458 4.73154 0
M  V30 17867 H 1718.76 -0.495296 2.49838 0
M  V30 17868 H 1719.54 0.976049 3.29132 0
M  V30 17869 N 1721.99 -1.57589 -0.0183649 0
M  V30 17870 C 1723.4 -1.7799 -0.563591 0
M  V30 17871 C 1723.75 -0.887064 -1.75002 0
M  V30 17872 O 1722.87 -0.0846843 -2.16234 0
M  V30 17873 C 1723.47 -3.2279 -1.02919 0
M  V30 17874 C 1722.03 -3.44351 -1.51986 0
M  V30 17875 C 1721.17 -2.73412 -0.462727 0
M  V30 17876 H 1724.13 -1.57333 0.207849 0
M  V30 17877 H 1724.15 -3.29892 -1.89609 0
M  V30 17878 H 1723.66 -3.87747 -0.165487 0
M  V30 17879 H 1721.76 -2.84583 -2.40506 0
M  V30 17880 H 1721.87 -4.52992 -1.55998 0
M  V30 17881 H 1720.24 -2.37496 -0.920211 0
M  V30 17882 H 1721.02 -3.41058 0.391698 0
M  V30 17883 N 1723.46 0.290824 -1.54893 0
M  V30 17884 C 1724.69 1.04775 -1.78988 0
M  V30 17885 C 1725.11 1.79799 -0.552637 0
M  V30 17886 O 1724.47 1.74349 0.497199 0
M  V30 17887 C 1724.52 1.99603 -3.00318 0
M  V30 17888 O 1723.62 3.08079 -2.74155 0
M  V30 17889 H 1722.97 0.300478 -0.592123 0
M  V30 17890 H 1725.5 0.325151 -2.02 0
M  V30 17891 H 1725.51 2.41884 -3.28567 0
M  V30 17892 H 1724.18 1.44406 -3.90025 0
M  V30 17893 H 1722.76 2.7024 -2.56953 0
M  V30 17894 N 1724.94 1.47523 0.554506 0
M  V30 17895 C 1726.35 1.48114 1.13662 0
M  V30 17896 C 1726.7 0.237321 1.94759 0
M  V30 17897 O 1725.83 -0.657558 2.06168 0
M  V30 17898 C 1726.42 2.68366 2.06797 0
M  V30 17899 C 1724.98 2.71908 2.60274 0
M  V30 17900 C 1724.13 2.41258 1.3671 0
M  V30 17901 H 1727.08 1.54994 0.34097 0
M  V30 17902 H 1727.1 2.4549 2.90714 0
M  V30 17903 H 1726.61 3.58877 1.47745 0
M  V30 17904 H 1724.72 1.85543 3.23117 0
M  V30 17905 H 1724.83 3.72673 3.01084 0
M  V30 17906 H 1723.19 1.91897 1.67474 0
M  V30 17907 H 1723.98 3.3398 0.794476 0
M  V30 17908 N 1726.42 -0.801453 1.357 0
M  V30 17909 C 1727.67 -1.55879 1.2926 0
M  V30 17910 C 1728 -1.94055 -0.131552 0
M  V30 17911 O 1727.25 -1.61993 -1.09803 0
M  V30 17912 C 1727.55 -2.85531 2.14957 0
M  V30 17913 C 1727.22 -2.6655 3.63679 0
M  V30 17914 C 1725.88 -2.61081 4.04216 0
M  V30 17915 C 1728.23 -2.48725 4.58023 0
M  V30 17916 C 1725.56 -2.35737 5.37257 0
M  V30 17917 C 1727.91 -2.2491 5.91268 0
M  V30 17918 C 1726.57 -2.17867 6.30944 0
M  V30 17919 H 1725.84 -0.570401 0.472994 0
M  V30 17920 H 1728.49 -0.925627 1.67644 0
M  V30 17921 H 1726.8 -3.53252 1.69471 0
M  V30 17922 H 1728.49 -3.43256 2.07307 0
M  V30 17923 H 1725.08 -2.71656 3.31513 0
M  V30 17924 H 1729.27 -2.51959 4.27587 0
M  V30 17925 H 1724.52 -2.28758 5.66992 0
M  V30 17926 H 1728.7 -2.1011 6.63948 0
M  V30 17927 H 1726.32 -1.97991 7.33964 0
M  V30 17928 N 1727.9 -1.19782 -1.02421 0
M  V30 17929 C 1729.31 -0.951034 -1.2817 0
M  V30 17930 C 1729.51 0.373883 -1.98001 0
M  V30 17931 O 1728.57 1.10427 -2.27073 0
M  V30 17932 C 1729.88 -2.12833 -2.12421 0
M  V30 17933 C 1731.43 -2.16847 -2.25713 0
M  V30 17934 C 1731.91 -3.34041 -3.13337 0
M  V30 17935 N 1733.4 -3.34007 -3.20926 0
M  V30 17936 C 1734.13 -4.21333 -3.88929 0
M  V30 17937 N 1733.63 -5.18823 -4.59123 0
M  V30 17938 N 1735.42 -4.09197 -3.85376 0
M  V30 17939 H 1727.57 -2.05017 -0.555122 0
M  V30 17940 H 1729.84 -0.896717 -0.307576 0
M  V30 17941 H 1729.54 -3.08742 -1.68437 0
M  V30 17942 H 1729.42 -2.10288 -3.13143 0
M  V30 17943 H 1731.8 -1.21506 -2.68924 0
M  V30 17944 H 1731.88 -2.23444 -1.24525 0
M  V30 17945 H 1731.53 -4.29665 -2.70833 0
M  V30 17946 H 1731.46 -3.24682 -4.14595 0
M  V30 17947 H 1733.95 -2.63441 -2.70938 0
M  V30 17948 H 1734.26 -5.81796 -5.08658 0
M  V30 17949 H 1732.61 -5.22767 -4.57973 0
M  V30 17950 H 1735.8 -3.32308 -3.2968 0
M  V30 17951 H 1735.97 -4.77465 -4.38099 0
M  V30 17952 N 1729.38 1.21606 -1.00248 0
M  V30 17953 C 1730.65 1.86191 -0.599348 0
M  V30 17954 C 1731.03 1.89847 0.923104 0
M  V30 17955 O 1730.38 1.39595 1.80902 0
M  V30 17956 C 1730.59 3.26576 -1.23082 0
M  V30 17957 C 1731.94 4.02989 -1.33736 0
M  V30 17958 O 1732.96 3.35877 -1.18595 0
M  V30 17959 O 1731.82 5.23142 -1.58065 0
M  V30 17960 H 1728.92 0.801204 -0.204943 0
M  V30 17961 H 1731.46 1.29309 -1.09897 0
M  V30 17962 H 1730.24 3.18601 -2.27176 0
M  V30 17963 H 1729.86 3.91074 -0.717394 0
M  V30 17964 N 1730.86 0.776895 1.37121 0
M  V30 17965 C 1732.08 0.353911 2.04358 0
M  V30 17966 C 1732.51 -1.01745 1.58207 0
M  V30 17967 O 1731.86 -1.653 0.744691 0
M  V30 17968 C 1731.91 0.411918 3.5824 0
M  V30 17969 O 1731.02 -0.58576 4.08219 0
M  V30 17970 H 1730.36 0.152335 0.64629 0
M  V30 17971 H 1732.89 1.05452 1.75331 0
M  V30 17972 H 1732.9 0.271043 4.07099 0
M  V30 17973 H 1731.57 1.41236 3.91185 0
M  V30 17974 H 1730.15 -0.40758 3.70666 0
M  V30 17975 N 1732.33 -1.48497 0.527859 0
M  V30 17976 C 1733.58 -2.02799 -0.00702196 0
M  V30 17977 C 1733.91 -1.40433 -1.34135 0
M  V30 17978 O 1733.19 -0.54934 -1.86581 0
M  V30 17979 C 1733.47 -3.59861 -0.131272 0
M  V30 17980 C 1733.32 -4.32711 1.22807 0
M  V30 17981 C 1734.64 -4.31634 -0.85908 0
M  V30 17982 H 1731.76 -0.736999 -0.00107787 0
M  V30 17983 H 1734.4 -1.77242 0.684478 0
M  V30 17984 H 1732.55 -3.81766 -0.720216 0
M  V30 17985 H 1734.23 -4.22229 1.85796 0
M  V30 17986 H 1732.47 -3.94212 1.8105 0
M  V30 17987 H 1733.14 -5.41047 1.09415 0
M  V30 17988 H 1735.62 -4.14546 -0.359322 0
M  V30 17989 H 1734.49 -5.41221 -0.914911 0
M  V30 17990 H 1734.75 -3.98765 -1.90889 0
M  V30 17991 N 1733.81 -0.262893 -1.55392 0
M  V30 17992 C 1735.09 0.408525 -1.91286 0
M  V30 17993 C 1735.47 1.74657 -1.18566 0
M  V30 17994 O 1734.82 2.26409 -0.308422 0
M  V30 17995 C 1735.03 0.560865 -3.44464 0
M  V30 17996 C 1736.37 0.849401 -4.16017 0
M  V30 17997 O 1737.4 0.646134 -3.50291 0
M  V30 17998 O 1736.26 1.23741 -5.32307 0
M  V30 17999 H 1733.35 0.221707 -0.796728 0
M  V30 18000 H 1735.9 -0.308143 -1.66879 0
M  V30 18001 H 1734.67 -0.381279 -3.89438 0
M  V30 18002 H 1734.29 1.32747 -3.74785 0
M  V30 18003 N 1735.29 1.57597 0.0100073 0
M  V30 18004 C 1736.51 1.94801 0.711852 0
M  V30 18005 C 1736.94 0.864343 1.67065 0
M  V30 18006 O 1736.3 -0.178388 1.8042 0
M  V30 18007 C 1736.35 3.31094 1.42862 0
M  V30 18008 O 1735.45 3.2469 2.54264 0
M  V30 18009 H 1734.79 0.636207 0.190095 0
M  V30 18010 H 1737.32 2.04561 -0.0402016 0
M  V30 18011 H 1737.33 3.66428 1.79429 0
M  V30 18012 H 1736.01 4.09522 0.725549 0
M  V30 18013 H 1734.58 3.01017 2.20099 0
M  V30 18014 N 1736.77 -0.282606 1.55045 0
M  V30 18015 C 1738.02 -1.01346 1.74852 0
M  V30 18016 C 1738.34 -1.87161 0.547327 0
M  V30 18017 O 1737.61 -1.9094 -0.438015 0
M  V30 18018 H 1736.19 -0.377178 0.644784 0
M  V30 18019 H 1738.85 -0.309152 1.92432 0
M  V30 18020 H 1737.94 -1.65596 2.64545 0
M  V30 18021 N 1738.25 -1.47815 -0.546675 0
M  V30 18022 C 1739.47 -1.58864 -1.33331 0
M  V30 18023 C 1739.9 -0.24302 -1.86524 0
M  V30 18024 O 1739.25 0.782777 -1.63531 0
M  V30 18025 C 1739.3 -2.62556 -2.47177 0
M  V30 18026 O 1738.41 -2.18558 -3.49723 0
M  V30 18027 H 1737.75 -0.53329 -0.395598 0
M  V30 18028 H 1740.28 -1.93677 -0.659579 0
M  V30 18029 H 1740.29 -2.83307 -2.936 0
M  V30 18030 H 1738.96 -3.60255 -2.0782 0
M  V30 18031 H 1737.54 -2.0795 -3.09534 0
M  V30 18032 N 1739.72 0.794246 -1.36123 0
M  V30 18033 C 1740.95 1.58297 -1.33228 0
M  V30 18034 C 1741.37 1.88597 0.0875426 0
M  V30 18035 O 1740.72 1.49754 1.04307 0
M  V30 18036 C 1740.77 2.90687 -2.14904 0
M  V30 18037 O 1740.5 2.61695 -3.51351 0
M  V30 18038 C 1742 3.85009 -2.19734 0
M  V30 18039 H 1739.22 0.491139 -0.457191 0
M  V30 18040 H 1741.76 0.986129 -1.79153 0
M  V30 18041 H 1739.92 3.46852 -1.72546 0
M  V30 18042 H 1740.33 3.46313 -3.93913 0
M  V30 18043 H 1741.8 4.74976 -2.8125 0
M  V30 18044 H 1742.28 4.22504 -1.19946 0
M  V30 18045 H 1742.89 3.34777 -2.62307 0
M  V30 18046 N 1741.2 1.20323 1.01785 0
M  V30 18047 C 1742.43 1.03821 1.78966 0
M  V30 18048 C 1742.84 -0.412622 1.84236 0
M  V30 18049 O 1742.2 -1.2865 1.29443 0
M  V30 18050 C 1742.25 1.61352 3.23493 0
M  V30 18051 O 1741.97 3.00758 3.18553 0
M  V30 18052 C 1743.47 1.49786 4.17228 0
M  V30 18053 H 1740.69 0.365291 0.562853 0
M  V30 18054 H 1743.24 1.59383 1.2813 0
M  V30 18055 H 1741.39 1.09913 3.71481 0
M  V30 18056 H 1741.81 3.28034 4.09261 0
M  V30 18057 H 1743.28 1.94802 5.16484 0
M  V30 18058 H 1743.76 0.450143 4.36887 0
M  V30 18059 H 1744.36 2.00409 3.75122 0
M  V30 18060 N 1742.68 -1.21073 1.00892 0
M  V30 18061 C 1744.09 -1.71982 0.726576 0
M  V30 18062 C 1744.44 -1.81071 -0.755486 0
M  V30 18063 O 1743.57 -1.46797 -1.58996 0
M  V30 18064 C 1744.16 -3.12354 1.31226 0
M  V30 18065 C 1742.72 -3.60605 1.07895 0
M  V30 18066 C 1741.87 -2.38024 1.42267 0
M  V30 18067 H 1744.82 -1.06195 1.17934 0
M  V30 18068 H 1744.84 -3.74026 0.6989 0
M  V30 18069 H 1744.35 -3.05707 2.39092 0
M  V30 18070 H 1742.45 -3.72596 0.0176168 0
M  V30 18071 H 1742.57 -4.45854 1.7536 0
M  V30 18072 H 1740.93 -2.40396 0.841531 0
M  V30 18073 H 1741.71 -2.34024 2.51173 0
M  V30 18074 N 1744.16 -0.784156 -1.36707 0
M  V30 18075 C 1745.11 -0.166827 -2.32001 0
M  V30 18076 C 1746.1 0.670916 -1.55548 0
M  V30 18077 O 1747.31 0.566588 -1.7085 0
M  V30 18078 H 1743.68 -0.0351691 -0.751177 0
M  V30 18079 H 1745.65 -0.986074 -2.81637 0
M  V30 18080 C 1744.4 0.6881 -3.40823 0
M  V30 18081 H 1743.72 0.0528343 -3.99765 0
M  V30 18082 H 1745.16 1.08681 -4.09835 0
M  V30 18083 C 1743.62 1.84408 -2.81949 0
M  V30 18084 O 1744.15 2.94034 -2.73691 0
M  V30 18085 N 1742.36 1.64855 -2.39314 0
M  V30 18086 H 1741.91 0.756867 -2.4623 0
M  V30 18087 H 1741.86 2.42363 -2.00268 0
M  V30 18088 N 1745.64 1.48215 -0.535727 0
M  V30 18089 C 1746.86 2.07399 -0.00589172 0
M  V30 18090 C 1747.29 1.38886 1.26856 0
M  V30 18091 O 1746.64 0.456684 1.75454 0
M  V30 18092 C 1746.69 3.60071 0.195203 0
M  V30 18093 O 1745.8 3.92596 1.26261 0
M  V30 18094 H 1745.14 0.662689 -0.0416988 0
M  V30 18095 H 1747.67 1.90543 -0.745281 0
M  V30 18096 H 1747.68 4.05873 0.416085 0
M  V30 18097 H 1746.35 4.0934 -0.735747 0
M  V30 18098 H 1744.93 3.58567 1.02393 0
M  V30 18099 N 1747.11 0.27113 1.5525 0
M  V30 18100 C 1748.53 -0.2274 1.8531 0
M  V30 18101 C 1748.88 -1.55752 1.19314 0
M  V30 18102 O 1748 -2.11008 0.480046 0
M  V30 18103 C 1748.6 -0.419382 3.36194 0
M  V30 18104 C 1747.16 -0.862149 3.66393 0
M  V30 18105 C 1746.3 0.0468534 2.7726 0
M  V30 18106 H 1749.25 0.493032 1.50847 0
M  V30 18107 H 1749.27 -1.25852 3.59084 0
M  V30 18108 H 1748.79 0.548856 3.84199 0
M  V30 18109 H 1746.89 -1.842 3.23884 0
M  V30 18110 H 1747 -0.702231 4.73926 0
M  V30 18111 H 1745.36 -0.468769 2.50349 0
M  V30 18112 H 1746.15 1.0109 3.28079 0
M  V30 18113 N 1748.59 -1.576 -0.00164943 0
M  V30 18114 C 1749.84 -1.90778 -0.68786 0
M  V30 18115 C 1750.17 -0.872138 -1.73515 0
M  V30 18116 O 1749.45 0.109349 -1.94192 0
M  V30 18117 C 1749.73 -3.34539 -1.3325 0
M  V30 18118 C 1749.58 -4.48819 -0.296862 0
M  V30 18119 C 1750.9 -3.77693 -2.25911 0
M  V30 18120 H 1748.02 -0.69381 -0.24859 0
M  V30 18121 H 1750.66 -1.89936 0.0493059 0
M  V30 18122 H 1748.81 -3.35388 -1.9608 0
M  V30 18123 H 1750.48 -4.60106 0.331635 0
M  V30 18124 H 1748.73 -4.32123 0.38105 0
M  V30 18125 H 1749.4 -5.46362 -0.786927 0
M  V30 18126 H 1751.87 -3.78386 -1.73099 0
M  V30 18127 H 1750.75 -4.79037 -2.67983 0
M  V30 18128 H 1751.01 -3.11469 -3.1375 0
M  V30 18129 N 1750.07 0.274379 -1.55193 0
M  V30 18130 C 1751.3 1.02871 -1.8009 0
M  V30 18131 C 1751.72 1.79202 -0.571676 0
M  V30 18132 O 1751.08 1.74867 0.478679 0
M  V30 18133 C 1751.13 1.96406 -3.02418 0
M  V30 18134 O 1750.23 3.05154 -2.77408 0
M  V30 18135 H 1749.57 0.294181 -0.595276 0
M  V30 18136 H 1752.1 0.303708 -2.02333 0
M  V30 18137 H 1752.11 2.38385 -3.31114 0
M  V30 18138 H 1750.79 1.40261 -3.91535 0
M  V30 18139 H 1749.36 2.675 -2.59805 0
M  V30 18140 N 1751.55 1.48103 0.538828 0
M  V30 18141 C 1752.46 1.64632 1.67133 0
M  V30 18142 C 1753.47 0.528917 1.65766 0
M  V30 18143 O 1754.65 0.798849 1.84879 0
M  V30 18144 C 1751.72 1.67391 3.03614 0
M  V30 18145 C 1750.78 2.90694 3.15904 0
M  V30 18146 C 1750.01 2.93311 4.45875 0
M  V30 18147 O 1750.23 2.04596 5.32444 0
M  V30 18148 O 1749.17 3.85384 4.62345 0
M  V30 18149 H 1752.99 2.60496 1.56126 0
M  V30 18150 H 1750.58 1.31401 0.710925 0
M  V30 18151 H 1752.46 1.71777 3.84799 0
M  V30 18152 H 1751.13 0.746982 3.14963 0
M  V30 18153 H 1750.04 2.91844 2.34047 0
M  V30 18154 H 1751.37 3.82742 3.09467 0
M  V30 18155 N 1753.03 -0.787016 1.36542 0
M  V30 18156 C 1754.25 -1.58103 1.34231 0
M  V30 18157 C 1754.68 -1.87956 -0.0734932 0
M  V30 18158 O 1754.03 -1.48073 -1.04615 0
M  V30 18159 C 1754.08 -2.87739 2.17345 0
M  V30 18160 O 1753.19 -3.81445 1.56759 0
M  V30 18161 H 1752.53 -0.479495 0.459326 0
M  V30 18162 H 1755.06 -0.975294 1.79859 0
M  V30 18163 H 1755.07 -3.36986 2.3001 0
M  V30 18164 H 1753.74 -2.65338 3.20264 0
M  V30 18165 H 1752.32 -3.40046 1.53047 0
M  V30 18166 N 1754.5 -1.20861 -1.01145 0
M  V30 18167 C 1755.47 -0.963742 -2.07954 0
M  V30 18168 C 1756.47 0.0627362 -1.60678 0
M  V30 18169 O 1757.66 -0.173867 -1.7333 0
M  V30 18170 C 1754.79 -0.451977 -3.3789 0
M  V30 18171 H 1755.98 -1.91123 -2.3111 0
M  V30 18172 H 1753.54 -1.0247 -1.18024 0
M  V30 18173 H 1754.27 0.500735 -3.20411 0
M  V30 18174 H 1754.06 -1.19231 -3.73532 0
M  V30 18175 H 1755.55 -0.300308 -4.16519 0
M  V30 18176 N 1755.98 1.20536 -1.01532 0
M  V30 18177 C 1756.91 2.2553 -0.604866 0
M  V30 18178 C 1757.89 1.65814 0.379452 0
M  V30 18179 O 1759.08 1.92381 0.265162 0
M  V30 18180 C 1756.21 3.4725 0.0589292 0
M  V30 18181 C 1755.16 4.19551 -0.846241 0
M  V30 18182 C 1754.49 5.34678 -0.0482901 0
M  V30 18183 C 1755.79 4.75829 -2.1537 0
M  V30 18184 H 1757.48 2.60117 -1.48254 0
M  V30 18185 H 1755.03 1.25035 -0.714297 0
M  V30 18186 H 1756.98 4.1988 0.357627 0
M  V30 18187 H 1755.71 3.11822 0.97131 0
M  V30 18188 H 1754.36 3.48785 -1.12892 0
M  V30 18189 H 1754.01 4.95494 0.8657 0
M  V30 18190 H 1753.71 5.83982 -0.651081 0
M  V30 18191 H 1755.24 6.10112 0.243983 0
M  V30 18192 H 1756.65 5.40284 -1.91745 0
M  V30 18193 H 1755.05 5.35564 -2.70723 0
M  V30 18194 H 1756.12 3.94641 -2.81756 0
M  V30 18195 N 1757.46 0.791395 1.36289 0
M  V30 18196 C 1758.7 0.370134 2.01021 0
M  V30 18197 C 1759.06 -1.03918 1.61447 0
M  V30 18198 O 1760.27 -1.56163 2.18784 0
M  V30 18199 C 1758.54 0.530868 3.53435 0
M  V30 18200 S 1760.1 0.197778 4.38354 0
M  V30 18201 H 1756.91 0.141315 0.696815 0
M  V30 18202 H 1759.52 1.03032 1.66147 0
M  V30 18203 H 1758.22 1.55683 3.79725 0
M  V30 18204 H 1757.75 -0.14518 3.93132 0
M  V30 18205 H 1759.77 -0.999956 4.8602 0
M  V30 18206 N 1758.94 -1.47929 0.54358 0
M  V30 18207 C 1760.19 -2.01696 0.0123924 0
M  V30 18208 C 1760.5 -1.42469 -1.34022 0
M  V30 18209 O 1761.71 -1.87816 -1.96054 0
M  V30 18210 C 1760.16 -3.59889 -0.0282734 0
M  V30 18211 C 1759.77 -4.28104 1.32027 0
M  V30 18212 C 1761.52 -4.21455 -0.507571 0
M  V30 18213 C 1759.42 -5.78266 1.23945 0
M  V30 18214 H 1758.35 -0.754 0.000862593 0
M  V30 18215 H 1761 -1.70058 0.689396 0
M  V30 18216 H 1759.39 -3.88429 -0.770641 0
M  V30 18217 H 1760.56 -4.11221 2.07927 0
M  V30 18218 H 1758.87 -3.78468 1.7364 0
M  V30 18219 H 1761.47 -5.31477 -0.586219 0
M  V30 18220 H 1761.81 -3.87696 -1.51648 0
M  V30 18221 H 1762.35 -3.97395 0.179522 0
M  V30 18222 H 1759.09 -6.16621 2.22393 0
M  V30 18223 H 1758.61 -5.97524 0.522029 0
M  V30 18224 H 1760.29 -6.40197 0.935788 0
M  V30 18225 N 1760.42 -0.27936 -1.55104 0
M  V30 18226 C 1761.83 0.217569 -1.85428 0
M  V30 18227 C 1762.18 1.55117 -1.20138 0
M  V30 18228 O 1761.3 2.10751 -0.491229 0
M  V30 18229 C 1761.9 0.401547 -3.36412 0
M  V30 18230 C 1760.46 0.842706 -3.66845 0
M  V30 18231 C 1759.61 -0.0615565 -2.77232 0
M  V30 18232 H 1762.56 -0.501025 -1.50584 0
M  V30 18233 H 1762.58 1.23946 -3.59747 0
M  V30 18234 H 1762.09 -0.569224 -3.83903 0
M  V30 18235 H 1760.19 1.8248 -3.24857 0
M  V30 18236 H 1760.3 0.677088 -4.74291 0
M  V30 18237 H 1758.67 0.455486 -2.50594 0
M  V30 18238 H 1759.45 -1.02829 -3.27538 0
M  V30 18239 N 1761.9 1.57599 -0.0067085 0
M  V30 18240 C 1763.12 1.95545 0.69115 0
M  V30 18241 C 1763.55 0.882014 1.66139 0
M  V30 18242 O 1762.9 -0.159242 1.80599 0
M  V30 18243 C 1762.95 3.3259 1.39342 0
M  V30 18244 O 1762.06 3.27368 2.50806 0
M  V30 18245 H 1761.4 0.638188 0.183336 0
M  V30 18246 H 1763.93 2.04506 -0.0618957 0
M  V30 18247 H 1763.94 3.6831 1.75532 0
M  V30 18248 H 1762.61 4.10269 0.682072 0
M  V30 18249 H 1761.19 3.03334 2.16894 0
M  V30 18250 N 1763.37 -0.266145 1.55336 0
M  V30 18251 C 1764.6 -1.01915 1.80633 0
M  V30 18252 C 1765.02 -1.78897 0.581172 0
M  V30 18253 O 1764.38 -1.75118 -0.469399 0
M  V30 18254 C 1764.43 -1.948 3.03456 0
M  V30 18255 O 1763.53 -3.03678 2.79022 0
M  V30 18256 H 1762.87 -0.29102 0.596828 0
M  V30 18257 H 1765.4 -0.292973 2.02492 0
M  V30 18258 H 1765.41 -2.36626 3.32373 0
M  V30 18259 H 1764.09 -1.38182 3.92273 0
M  V30 18260 H 1762.67 -2.66118 2.61219 0
M  V30 18261 N 1764.85 -1.48386 -0.530967 0
M  V30 18262 C 1766.26 -1.49904 -1.11291 0
M  V30 18263 C 1766.61 -0.268276 -1.94357 0
M  V30 18264 O 1765.74 0.624676 -2.07188 0
M  V30 18265 C 1766.33 -2.71622 -2.02501 0
M  V30 18266 C 1764.89 -2.76015 -2.55916 0
M  V30 18267 C 1764.04 -2.43403 -1.32855 0
M  V30 18268 H 1766.99 -1.55517 -0.316269 0
M  V30 18269 H 1767.01 -2.50084 -2.86772 0
M  V30 18270 H 1766.52 -3.61182 -1.42017 0
M  V30 18271 H 1764.62 -1.9066 -3.20124 0
M  V30 18272 H 1764.74 -3.77416 -2.95116 0
M  V30 18273 H 1763.1 -1.94537 -1.644 0
M  V30 18274 H 1763.88 -3.35202 -0.741242 0
M  V30 18275 N 1766.33 0.779763 -1.36958 0
M  V30 18276 C 1767.28 1.89278 -1.32071 0
M  V30 18277 C 1768.25 1.65037 -0.18766 0
M  V30 18278 O 1769.43 1.87064 -0.375736 0
M  V30 18279 C 1766.57 3.2623 -1.12552 0
M  V30 18280 C 1765.68 3.62479 -2.35017 0
M  V30 18281 C 1764.82 4.88599 -2.08434 0
M  V30 18282 C 1763.86 5.17555 -3.26808 0
M  V30 18283 N 1763 6.3486 -2.99828 0
M  V30 18284 H 1767.84 1.9279 -2.27235 0
M  V30 18285 H 1765.37 0.942656 -1.12927 0
M  V30 18286 H 1767.33 4.0522 -0.992595 0
M  V30 18287 H 1765.96 3.22114 -0.210387 0
M  V30 18288 H 1765.01 2.78536 -2.59079 0
M  V30 18289 H 1766.32 3.7982 -3.23324 0
M  V30 18290 H 1765.48 5.75476 -1.92127 0
M  V30 18291 H 1764.22 4.73346 -1.17453 0
M  V30 18292 H 1763.22 4.29156 -3.43664 0
M  V30 18293 H 1764.45 5.34721 -4.18629 0
M  V30 18294 H 1762.39 6.20981 -2.11468 0
M  V30 18295 H 1762.31 6.52579 -3.81676 0
M  V30 18296 H 1763.58 7.24695 -2.8712 0
M  V30 18297 N 1767.81 1.21396 1.00503 0
M  V30 18298 C 1769.04 1.0556 1.77597 0
M  V30 18299 C 1769.45 -0.397591 1.84975 0
M  V30 18300 O 1768.79 -1.28764 1.31018 0
M  V30 18301 C 1768.85 1.57754 3.23039 0
M  V30 18302 C 1768.51 3.06214 3.39238 0
M  V30 18303 C 1769.51 4.03763 3.27523 0
M  V30 18304 C 1767.2 3.45418 3.6468 0
M  V30 18305 C 1769.19 5.38505 3.41015 0
M  V30 18306 C 1766.88 4.80312 3.77814 0
M  V30 18307 C 1767.88 5.76665 3.65988 0
M  V30 18308 O 1767.56 7.09111 3.78704 0
M  V30 18309 H 1767.3 0.371187 0.564975 0
M  V30 18310 H 1769.85 1.61186 1.27312 0
M  V30 18311 H 1768.08 0.965245 3.74459 0
M  V30 18312 H 1769.77 1.37762 3.81807 0
M  V30 18313 H 1770.53 3.74819 3.07791 0
M  V30 18314 H 1766.41 2.70954 3.72968 0
M  V30 18315 H 1769.96 6.13694 3.317 0
M  V30 18316 H 1765.85 5.08942 3.9705 0
M  V30 18317 H 1766.62 7.16521 3.95651 0
M  V30 18318 N 1769.29 -1.19996 1.0217 0
M  V30 18319 C 1770.56 -1.85214 0.628894 0
M  V30 18320 C 1770.94 -1.91292 -0.892784 0
M  V30 18321 O 1770.29 -1.42455 -1.78658 0
M  V30 18322 C 1770.5 -3.24576 1.28262 0
M  V30 18323 C 1771.85 -4.0081 1.4013 0
M  V30 18324 O 1772.87 -3.33948 1.23923 0
M  V30 18325 O 1771.73 -5.20561 1.66368 0
M  V30 18326 H 1768.83 -0.797842 0.217664 0
M  V30 18327 H 1771.37 -1.27544 1.1194 0
M  V30 18328 H 1770.14 -3.14947 2.32216 0
M  V30 18329 H 1769.77 -3.89884 0.77952 0
M  V30 18330 N 1770.76 -0.798611 -1.35867 0
M  V30 18331 C 1771.99 -0.387479 -2.03239 0
M  V30 18332 C 1772.41 0.999052 -1.60201 0
M  V30 18333 O 1771.76 1.64237 -0.795763 0
M  V30 18334 C 1771.81 -0.452101 -3.58662 0
M  V30 18335 O 1771.54 -1.78396 -4.00133 0
M  V30 18336 C 1773.04 -0.0327638 -4.43288 0
M  V30 18337 H 1770.26 -0.15845 -0.652024 0
M  V30 18338 H 1772.8 -1.08002 -1.73655 0
M  V30 18339 H 1770.96 0.192107 -3.86923 0
M  V30 18340 H 1771.37 -1.74118 -4.94756 0
M  V30 18341 H 1772.84 -0.129106 -5.51849 0
M  V30 18342 H 1773.32 1.02098 -4.27168 0
M  V30 18343 H 1773.93 -0.649817 -4.20306 0
M  V30 18344 N 1772.24 1.47639 -0.551417 0
M  V30 18345 C 1773.17 2.32743 0.187887 0
M  V30 18346 C 1774.15 1.43432 0.914407 0
M  V30 18347 O 1775.34 1.72295 0.896005 0
M  V30 18348 C 1772.47 3.25092 1.22199 0
M  V30 18349 C 1771.42 4.23598 0.612298 0
M  V30 18350 C 1770.75 5.0523 1.75062 0
M  V30 18351 C 1772.05 5.20526 -0.430135 0
M  V30 18352 H 1773.74 2.94804 -0.522598 0
M  V30 18353 H 1771.29 1.41764 -0.252768 0
M  V30 18354 H 1773.24 3.83467 1.74731 0
M  V30 18355 H 1771.96 2.61074 1.96235 0
M  V30 18356 H 1770.62 3.6644 0.108324 0
M  V30 18357 H 1770.27 4.3762 2.47987 0
M  V30 18358 H 1769.97 5.71918 1.34848 0
M  V30 18359 H 1771.5 5.66463 2.27931 0
M  V30 18360 H 1772.91 5.73299 0.00890168 0
M  V30 18361 H 1771.31 5.95384 -0.750836 0
M  V30 18362 H 1772.38 4.66356 -1.32815 0
M  V30 18363 N 1773.72 0.287581 1.54954 0
M  V30 18364 C 1774.97 -0.326315 1.99043 0
M  V30 18365 C 1775.28 -1.56033 1.17954 0
M  V30 18366 O 1776.49 -2.24797 1.52246 0
M  V30 18367 C 1774.94 -0.631918 3.54309 0
M  V30 18368 C 1774.55 0.582998 4.4419 0
M  V30 18369 C 1776.3 -1.20775 4.06957 0
M  V30 18370 C 1774.2 0.251291 5.90866 0
M  V30 18371 H 1773.13 -0.125703 0.743448 0
M  V30 18372 H 1775.78 0.394188 1.79216 0
M  V30 18373 H 1774.17 -1.41166 3.69984 0
M  V30 18374 H 1775.34 1.35957 4.40287 0
M  V30 18375 H 1773.66 1.07653 4.02243 0
M  V30 18376 H 1776.25 -1.46995 5.14098 0
M  V30 18377 H 1776.6 -2.14569 3.56743 0
M  V30 18378 H 1777.13 -0.490021 3.9477 0
M  V30 18379 H 1773.87 1.15744 6.452 0
M  V30 18380 H 1773.39 -0.488274 5.97809 0
M  V30 18381 H 1775.07 -0.152008 6.46821 0
M  V30 18382 N 1775.2 -1.57593 0.0150662 0
M  V30 18383 C 1776.45 -1.90392 -0.66587 0
M  V30 18384 C 1776.76 -0.891694 -1.74092 0
M  V30 18385 O 1777.97 -1.11043 -2.47753 0
M  V30 18386 C 1776.42 -3.38026 -1.23558 0
M  V30 18387 C 1776.03 -4.47577 -0.19455 0
M  V30 18388 C 1777.77 -3.79913 -1.89384 0
M  V30 18389 C 1775.68 -5.86299 -0.7751 0
M  V30 18390 H 1774.61 -0.710474 -0.252473 0
M  V30 18391 H 1777.26 -1.83334 0.0780739 0
M  V30 18392 H 1775.64 -3.3997 -2.03068 0
M  V30 18393 H 1776.82 -4.57172 0.577061 0
M  V30 18394 H 1775.13 -4.14805 0.364134 0
M  V30 18395 H 1777.73 -4.809 -2.3375 0
M  V30 18396 H 1778.07 -3.14225 -2.73072 0
M  V30 18397 H 1778.61 -3.80333 -1.16585 0
M  V30 18398 H 1775.35 -6.55496 0.0233354 0
M  V30 18399 H 1774.87 -5.80338 -1.51552 0
M  V30 18400 H 1776.54 -6.3443 -1.26915 0
M  V30 18401 N 1776.68 0.257904 -1.55475 0
M  V30 18402 C 1778.09 0.605871 -1.47653 0
M  V30 18403 C 1778.29 1.88837 -0.703063 0
M  V30 18404 O 1777.35 2.51469 -0.227981 0
M  V30 18405 C 1778.66 0.718813 -2.91982 0
M  V30 18406 C 1780.21 0.81187 -3.02287 0
M  V30 18407 C 1780.68 0.956465 -4.47901 0
M  V30 18408 N 1782.18 1.02161 -4.51793 0
M  V30 18409 C 1782.91 1.15256 -5.61697 0
M  V30 18410 N 1782.41 1.24975 -6.81435 0
M  V30 18411 N 1784.2 1.18485 -5.4947 0
M  V30 18412 H 1776.35 -0.584154 -2.04209 0
M  V30 18413 H 1778.61 -0.200045 -0.926653 0
M  V30 18414 H 1778.32 -0.15335 -3.51366 0
M  V30 18415 H 1778.19 1.59429 -3.41851 0
M  V30 18416 H 1780.58 1.67449 -2.42991 0
M  V30 18417 H 1780.66 -0.0885307 -2.55647 0
M  V30 18418 H 1780.31 0.0984438 -5.07805 0
M  V30 18419 H 1780.24 1.87174 -4.92213 0
M  V30 18420 H 1782.73 0.958295 -3.65548 0
M  V30 18421 H 1783.04 1.34843 -7.60945 0
M  V30 18422 H 1781.38 1.21952 -6.84217 0
M  V30 18423 H 1784.58 1.10534 -4.54863 0
M  V30 18424 H 1784.75 1.28346 -6.35162 0
M  V30 18425 N 1778.15 1.48666 0.52309 0
M  V30 18426 C 1779.43 1.47526 1.28435 0
M  V30 18427 C 1779.81 0.190719 2.10237 0
M  V30 18428 O 1779.16 -0.827423 2.12993 0
M  V30 18429 C 1779.37 2.74132 2.15992 0
M  V30 18430 C 1780.72 3.22739 2.75907 0
M  V30 18431 O 1781.74 2.75097 2.26275 0
M  V30 18432 O 1780.6 4.05657 3.66203 0
M  V30 18433 H 1777.69 0.589478 0.580039 0
M  V30 18434 H 1780.24 1.60907 0.539176 0
M  V30 18435 H 1779.01 3.5913 1.55375 0
M  V30 18436 H 1778.64 2.63505 2.97743 0
M  V30 18437 N 1779.63 -0.772489 1.37369 0
M  V30 18438 C 1780.86 -1.55931 1.35532 0
M  V30 18439 C 1781.27 -1.891 -0.0614314 0
M  V30 18440 O 1780.61 -1.51876 -1.03342 0
M  V30 18441 C 1780.68 -2.89737 2.1282 0
M  V30 18442 C 1780.34 -2.79208 3.6179 0
M  V30 18443 C 1781.34 -2.50289 4.55688 0
M  V30 18444 C 1779.02 -2.97253 4.04902 0
M  V30 18445 C 1781.02 -2.39542 5.90676 0
M  V30 18446 C 1778.7 -2.86127 5.39976 0
M  V30 18447 C 1779.7 -2.57311 6.32677 0
M  V30 18448 O 1779.39 -2.4621 7.65269 0
M  V30 18449 H 1779.12 -0.489744 0.465968 0
M  V30 18450 H 1781.67 -0.965344 1.81302 0
M  V30 18451 H 1779.9 -3.51251 1.6174 0
M  V30 18452 H 1781.59 -3.51128 2.03627 0
M  V30 18453 H 1782.36 -2.36034 4.2369 0
M  V30 18454 H 1778.24 -3.18684 3.33109 0
M  V30 18455 H 1781.78 -2.16971 6.63 0
M  V30 18456 H 1777.68 -2.9995 5.71577 0
M  V30 18457 H 1778.45 -2.61564 7.75581 0
M  V30 18458 N 1781.11 -1.21927 -0.998575 0
M  V30 18459 C 1782.34 -1.06655 -1.77291 0
M  V30 18460 C 1782.75 0.38326 -1.84869 0
M  V30 18461 O 1782.11 1.26575 -1.31473 0
M  V30 18462 C 1782.16 -1.66478 -3.20885 0
M  V30 18463 O 1781.88 -3.05788 -3.13728 0
M  V30 18464 C 1783.38 -1.56404 -4.14792 0
M  V30 18465 H 1780.6 -0.3742 -0.55697 0
M  V30 18466 H 1783.15 -1.61401 -1.25579 0
M  V30 18467 H 1781.3 -1.15809 -3.69685 0
M  V30 18468 H 1781.72 -3.34503 -4.0399 0
M  V30 18469 H 1783.19 -2.02995 -5.1332 0
M  V30 18470 H 1783.67 -0.519591 -4.36116 0
M  V30 18471 H 1784.27 -2.06352 -3.71886 0
M  V30 18472 N 1782.59 1.19452 -1.02805 0
M  V30 18473 C 1783.52 2.22095 -0.566246 0
M  V30 18474 C 1784.53 1.58828 0.357442 0
M  V30 18475 O 1785.72 1.77835 0.153965 0
M  V30 18476 C 1782.82 3.38343 0.194294 0
M  V30 18477 C 1782 4.31195 -0.734131 0
M  V30 18478 C 1781.05 5.26197 -0.0191426 0
M  V30 18479 O 1780.08 5.65529 -0.645436 0
M  V30 18480 N 1781.28 5.66841 1.25187 0
M  V30 18481 H 1784.05 2.62342 -1.44902 0
M  V30 18482 H 1781.61 1.3411 -0.906978 0
M  V30 18483 H 1783.6 3.9891 0.682136 0
M  V30 18484 H 1782.17 2.96892 0.978474 0
M  V30 18485 H 1781.39 3.68423 -1.40208 0
M  V30 18486 H 1782.68 4.90144 -1.36516 0
M  V30 18487 H 1782.08 5.36918 1.78145 0
M  V30 18488 H 1780.63 6.29664 1.68423 0
M  V30 18489 N 1784.07 0.805805 1.35442 0
M  V30 18490 C 1785.29 0.397179 2.03561 0
M  V30 18491 C 1785.72 -0.983665 1.6033 0
M  V30 18492 O 1785.07 -1.63683 0.779586 0
M  V30 18493 C 1785.12 0.487813 3.57285 0
M  V30 18494 O 1784.23 -0.499039 4.09369 0
M  V30 18495 H 1783.57 0.166009 0.642913 0
M  V30 18496 H 1786.1 1.09147 1.73055 0
M  V30 18497 H 1786.11 0.357334 4.06432 0
M  V30 18498 H 1784.78 1.49501 3.88101 0
M  V30 18499 H 1783.36 -0.328864 3.71447 0
M  V30 18500 N 1785.54 -1.47344 0.559239 0
M  V30 18501 C 1786.77 -2.07364 0.0388864 0
M  V30 18502 C 1787.19 -1.40886 -1.2463 0
M  V30 18503 O 1786.55 -0.48454 -1.74705 0
M  V30 18504 C 1786.6 -3.60336 -0.137894 0
M  V30 18505 O 1785.7 -3.94555 -1.2 0
M  V30 18506 H 1785.05 -0.661942 0.0522363 0
M  V30 18507 H 1787.58 -1.89333 0.7755 0
M  V30 18508 H 1787.59 -4.06483 -0.351462 0
M  V30 18509 H 1786.26 -4.08118 0.800776 0
M  V30 18510 H 1784.84 -3.6015 -0.966757 0
M  V30 18511 N 1787.02 -0.295795 -1.54799 0
M  V30 18512 C 1788.25 0.32058 -2.04907 0
M  V30 18513 C 1788.67 1.47132 -1.17191 0
M  V30 18514 O 1788.03 1.80455 -0.174869 0
M  V30 18515 C 1788.08 0.759439 -3.52512 0
M  V30 18516 O 1787.18 1.86474 -3.67833 0
M  V30 18517 H 1786.52 0.0631128 -0.660994 0
M  V30 18518 H 1789.05 -0.436123 -1.99898 0
M  V30 18519 H 1789.06 1.04965 -3.94267 0
M  V30 18520 H 1787.74 -0.0823715 -4.15818 0
M  V30 18521 H 1786.32 1.57547 -3.37984 0
M  V30 18522 N 1788.5 1.57583 -0.0234236 0
M  V30 18523 C 1789.73 1.96267 0.670371 0
M  V30 18524 C 1790.15 0.899586 1.65194 0
M  V30 18525 O 1789.51 -0.140079 1.80758 0
M  V30 18526 C 1789.56 3.34049 1.35806 0
M  V30 18527 O 1788.66 3.3001 2.4732 0
M  V30 18528 H 1788 0.640097 0.176557 0
M  V30 18529 H 1790.53 2.04429 -0.0835829 0
M  V30 18530 H 1790.54 3.70151 1.71616 0
M  V30 18531 H 1789.22 4.10969 0.63852 0
M  V30 18532 H 1787.79 3.05618 2.13664 0
M  V30 18533 N 1789.98 -0.249655 1.5561 0
M  V30 18534 C 1790.91 -1.31281 1.931 0
M  V30 18535 C 1791.89 -1.50347 0.795601 0
M  V30 18536 O 1793.08 -1.63001 1.05566 0
M  V30 18537 C 1790.21 -2.66808 2.2233 0
M  V30 18538 C 1789.16 -2.62441 3.38096 0
M  V30 18539 C 1788.49 -4.01738 3.52861 0
M  V30 18540 C 1789.79 -2.19667 4.7386 0
M  V30 18541 H 1791.48 -1.00151 2.82153 0
M  V30 18542 H 1789.03 -0.480331 1.35753 0
M  V30 18543 H 1790.98 -3.41316 2.47146 0
M  V30 18544 H 1789.7 -2.99569 1.30101 0
M  V30 18545 H 1788.36 -1.90391 3.13284 0
M  V30 18546 H 1788.01 -4.31759 2.58056 0
M  V30 18547 H 1787.71 -3.99705 4.30708 0
M  V30 18548 H 1789.23 -4.7795 3.79995 0
M  V30 18549 H 1790.65 -2.83906 4.98067 0
M  V30 18550 H 1789.04 -2.28751 5.54791 0
M  V30 18551 H 1790.11 -1.14829 4.71108 0
M  V30 18552 O 1791.5 -1.56587 -0.395306 0
M  V30 18553 H 1792.19 -1.62942 -1.04736 0
M  V30 END ATOM
M  V30 BEGIN BOND
M  V30 END BOND
M  V30 END CTAB
M  END
$$$$
