drugbank_target|P41743 Protein kinase C iota type (DB03777; DB12010)
 OpenBabel12092120433D

  0  0  0     0  0            999 V3000
M  V30 BEGIN CTAB
M  V30 COUNTS 9425 9539 0 0 0
M  V30 BEGIN ATOM
M  V30 1 H -0.908 1.98254 -0.117106 0
M  V30 2 N 0 1.576 0 0
M  V30 3 C 0.933 2.03868 1.02534 0
M  V30 4 C 1.911 0.928543 1.3348 0
M  V30 5 O 3.095 1.19667 1.45644 0
M  V30 6 C 0.222 2.43627 2.35294 0
M  V30 7 C -0.732 3.65373 2.2001 0
M  V30 8 S 0.101 5.13292 1.52614 0
M  V30 9 C 1.257 5.56322 2.86805 0
M  V30 10 H 1.49 2.90518 0.631377 0
M  V30 11 H -0.977 1.52953 0.210867 0
M  V30 12 H 0.981 2.67203 3.11629 0
M  V30 13 H -0.358 1.57376 2.7183 0
M  V30 14 H -1.165 3.90944 3.18086 0
M  V30 15 H -1.563 3.418 1.51819 0
M  V30 16 H 0.729 5.58782 3.83104 0
M  V30 17 H 1.672 6.56266 2.65933 0
M  V30 18 H 2.08 4.83886 2.90714 0
M  V30 19 N 1.4781 -0.272755 1.55222 0
M  V30 20 C 2.8891 -0.84378 1.66545 0
M  V30 21 C 3.2401 -1.87035 0.592641 0
M  V30 22 O 2.3651 -2.14761 -0.265818 0
M  V30 23 C 2.9601 -1.53723 3.01918 0
M  V30 24 C 1.5191 -2.05628 3.15268 0
M  V30 25 C 0.6661 -0.898424 2.62343 0
M  V30 26 H 3.6171 -0.0490998 1.58624 0
M  V30 27 H 3.6381 -2.40421 2.94921 0
M  V30 28 H 3.1501 -0.78983 3.79978 0
M  V30 29 H 1.2511 -2.83329 2.41983 0
M  V30 30 H 1.3641 -2.27142 4.21833 0
M  V30 31 H -0.2719 -1.29186 2.19506 0
M  V30 32 H 0.5111 -0.164528 3.42906 0
M  V30 33 N 2.9562 -1.48159 -0.537278 0
M  V30 34 C 4.1842 -1.59454 -1.31841 0
M  V30 35 C 4.5992 -0.252065 -1.8711 0
M  V30 36 O 3.9562 0.757621 -1.66031 0
M  V30 37 C 4.0072 -2.63546 -2.47439 0
M  V30 38 O 3.7282 -3.92583 -1.94449 0
M  V30 39 C 5.2292 -2.85212 -3.39366 0
M  V30 40 H 2.4492 -0.53785 -0.401196 0
M  V30 41 H 4.9932 -1.93932 -0.648891 0
M  V30 42 H 3.1482 -2.31946 -3.1029 0
M  V30 43 H 3.5622 -4.49629 -2.70063 0
M  V30 44 H 5.0362 -3.61863 -4.16844 0
M  V30 45 H 5.5132 -1.93765 -3.94147 0
M  V30 46 H 6.1192 -3.18086 -2.82314 0
M  V30 47 N 4.4343 0.785586 -1.36625 0
M  V30 48 C 5.3663 1.90711 -1.2713 0
M  V30 49 C 6.3793 1.61688 -0.189986 0
M  V30 50 O 7.5683 1.72864 -0.445014 0
M  V30 51 C 4.6683 3.25611 -0.939713 0
M  V30 52 C 3.8413 3.82385 -2.12369 0
M  V30 53 C 2.9003 4.95732 -1.76456 0
M  V30 54 O 1.9263 5.12047 -2.48589 0
M  V30 55 N 3.1283 5.76258 -0.700492 0
M  V30 56 H 5.8933 1.99376 -2.23762 0
M  V30 57 H 3.4543 0.964041 -1.30069 0
M  V30 58 H 5.4463 3.98937 -0.680554 0
M  V30 59 H 4.0163 3.12538 -0.0624074 0
M  V30 60 H 3.2363 3.01001 -2.54543 0
M  V30 61 H 4.5243 4.17047 -2.9146 0
M  V30 62 H 3.9223 5.65609 -0.101624 0
M  V30 63 H 2.4793 6.4987 -0.501165 0
M  V30 64 N 5.9124 1.20967 1.01018 0
M  V30 65 C 7.3284 0.965905 1.27053 0
M  V30 66 C 7.5284 -0.350785 1.98423 0
M  V30 67 O 6.5844 -1.07773 2.28344 0
M  V30 68 C 7.8974 2.15294 2.09926 0
M  V30 69 C 9.4454 2.19463 2.23171 0
M  V30 70 C 9.9204 3.3767 3.09424 0
M  V30 71 N 11.4114 3.37724 3.17012 0
M  V30 72 C 12.1464 4.25837 3.83993 0
M  V30 73 N 11.6424 5.24138 4.53047 0
M  V30 74 N 13.4354 4.1366 3.80581 0
M  V30 75 H 5.5864 2.0565 0.531194 0
M  V30 76 H 7.8494 0.90024 0.297106 0
M  V30 77 H 7.5554 3.10684 1.64828 0
M  V30 78 H 7.4294 2.13923 3.10672 0
M  V30 79 H 9.8164 1.24632 2.6749 0
M  V30 80 H 9.8974 2.2488 1.21912 0
M  V30 81 H 9.5414 4.32791 2.65808 0
M  V30 82 H 9.4714 3.29491 4.10784 0
M  V30 83 H 11.9624 2.6658 2.6785 0
M  V30 84 H 12.2754 5.87684 5.01844 0
M  V30 85 H 10.6204 5.28068 4.5185 0
M  V30 86 H 13.8114 3.36127 3.25785 0
M  V30 87 H 13.9844 4.82538 4.32505 0
M  V30 88 N 7.3905 -1.2043 1.01659 0
M  V30 89 C 8.6675 -1.8548 0.621004 0
M  V30 90 C 9.0475 -1.9091 -0.900919 0
M  V30 91 O 8.3955 -1.41694 -1.79263 0
M  V30 92 C 8.6055 -3.25119 1.2688 0
M  V30 93 C 9.9535 -4.01403 1.38423 0
M  V30 94 O 10.9775 -3.34473 1.22501 0
M  V30 95 O 9.8365 -5.21265 1.64151 0
M  V30 96 H 6.9305 -0.798761 0.214266 0
M  V30 97 H 9.4765 -1.28019 1.11396 0
M  V30 98 H 8.2485 -3.15932 2.30873 0
M  V30 99 H 7.8715 -3.90212 0.762917 0
M  V30 100 N 8.8686 -0.792821 -1.36206 0
M  V30 101 C 10.0936 -0.377701 -2.03932 0
M  V30 102 C 10.5186 0.998947 -1.59382 0
M  V30 103 O 9.8766 1.64421 -0.763903 0
M  V30 104 C 9.9246 -0.453635 -3.57735 0
M  V30 105 O 9.0286 0.538151 -4.08874 0
M  V30 106 H 8.3696 -0.159855 -0.644471 0
M  V30 107 H 10.8996 -1.07488 -1.7409 0
M  V30 108 H 10.9096 -0.318464 -4.06755 0
M  V30 109 H 9.5846 -1.45784 -3.89512 0
M  V30 110 H 8.1616 0.364359 -3.71116 0
M  V30 111 N 10.3467 1.47872 -0.545128 0
M  V30 112 C 11.5717 2.07391 -0.0190611 0
M  V30 113 C 11.9967 1.39688 1.25971 0
M  V30 114 O 11.3547 0.467816 1.7516 0
M  V30 115 C 11.4027 3.60188 0.172335 0
M  V30 116 O 10.5067 3.9339 1.23766 0
M  V30 117 H 9.8477 0.662411 -0.0459059 0
M  V30 118 H 12.3777 1.90066 -0.757365 0
M  V30 119 H 12.3877 4.06129 0.390305 0
M  V30 120 H 11.0627 4.08865 -0.761725 0
M  V30 121 H 9.6397 3.5921 1.00114 0
M  V30 122 N 11.8248 0.280983 1.55075 0
M  V30 123 C 13.0528 -0.337293 2.04132 0
M  V30 124 C 13.4678 -1.4903 1.15912 0
M  V30 125 O 12.8248 -1.81606 0.180459 0
M  V30 126 C 12.8758 -0.812706 3.52246 0
M  V30 127 O 12.5968 0.294387 4.3711 0
M  V30 128 C 14.0978 -1.4982 4.17216 0
M  V30 129 H 11.3178 -0.0761638 0.666663 0
M  V30 130 H 13.8618 0.414787 2.00249 0
M  V30 131 H 12.0168 -1.51486 3.56554 0
M  V30 132 H 12.4308 -0.0721325 5.2445 0
M  V30 133 H 13.9048 -1.7822 5.22438 0
M  V30 134 H 14.3818 -2.43168 3.65741 0
M  V30 135 H 14.9878 -0.839742 4.16927 0
M  V30 136 N 13.3029 -1.57598 0.00835791 0
M  V30 137 C 14.2359 -2.04409 -1.01451 0
M  V30 138 C 15.2139 -0.935609 -1.32985 0
M  V30 139 O 16.3979 -1.20437 -1.45007 0
M  V30 140 C 13.5249 -2.44872 -2.33999 0
M  V30 141 C 12.5709 -3.66535 -2.18069 0
M  V30 142 S 13.4039 -5.14095 -1.4989 0
M  V30 143 C 14.5599 -5.57835 -2.8385 0
M  V30 144 H 14.7929 -2.90849 -0.615961 0
M  V30 145 H 12.3259 -1.53063 -0.202752 0
M  V30 146 H 14.2839 -2.68852 -3.10208 0
M  V30 147 H 12.9449 -1.58815 -2.70992 0
M  V30 148 H 12.1379 -3.92626 -3.16008 0
M  V30 149 H 11.7399 -3.426 -1.50004 0
M  V30 150 H 14.0319 -5.60806 -3.80136 0
M  V30 151 H 14.9749 -6.57667 -2.62449 0
M  V30 152 H 15.3829 -4.85421 -2.88144 0
M  V30 153 N 14.781 0.264519 -1.55364 0
M  V30 154 C 16.006 1.01726 -1.80739 0
M  V30 155 C 16.431 1.78836 -0.583044 0
M  V30 156 O 15.789 1.75167 0.467566 0
M  V30 157 C 15.837 1.94482 -3.03659 0
M  V30 158 O 14.941 3.03386 -2.7934 0
M  V30 159 H 14.282 0.290395 -0.597132 0
M  V30 160 H 16.812 0.290854 -2.02522 0
M  V30 161 H 16.822 2.36278 -3.32621 0
M  V30 162 H 15.497 1.37772 -3.92418 0
M  V30 163 H 14.074 2.65844 -2.61498 0
M  V30 164 N 16.2591 1.48442 0.529413 0
M  V30 165 C 17.2091 1.59407 1.63014 0
M  V30 166 C 18.1931 0.451166 1.54445 0
M  V30 167 O 19.3851 0.702635 1.62456 0
M  V30 168 C 16.5141 1.63746 3.01732 0
M  V30 169 C 15.6001 2.83518 3.15402 0
M  V30 170 N 15.9911 4.07929 2.99045 0
M  V30 171 C 14.2891 2.80862 3.46457 0
M  V30 172 C 14.9901 4.8829 3.16146 0
M  V30 173 N 13.9661 4.21117 3.43746 0
M  V30 174 H 17.7681 2.53343 1.48978 0
M  V30 175 H 15.2821 1.44821 0.734885 0
M  V30 176 H 17.2791 1.69695 3.80801 0
M  V30 177 H 15.9391 0.709264 3.16859 0
M  V30 178 H 16.9501 4.38357 2.75796 0
M  V30 179 H 13.6271 1.97301 3.67938 0
M  V30 180 H 15.0171 5.97028 3.08232 0
M  V30 181 N 17.7372 -0.778329 1.37039 0
M  V30 182 C 18.9652 -1.56734 1.35063 0
M  V30 183 C 19.3802 -1.88686 -0.0655597 0
M  V30 184 O 18.7372 -1.5096 -1.02554 0
M  V30 185 C 18.7882 -2.88163 2.18276 0
M  V30 186 O 18.5092 -2.57583 3.54376 0
M  V30 187 C 20.0102 -3.82422 2.24206 0
M  V30 188 H 17.2302 -0.485778 0.462883 0
M  V30 189 H 19.7742 -0.965185 1.8029 0
M  V30 190 H 17.9292 -3.44818 1.76576 0
M  V30 191 H 18.3432 -3.41699 3.97922 0
M  V30 192 H 19.8172 -4.71667 2.86765 0
M  V30 193 H 20.2942 -4.21078 1.24861 0
M  V30 194 H 20.9002 -3.31697 2.6619 0
M  V30 195 N 19.2153 -1.21501 -1.00376 0
M  V30 196 C 20.4613 -1.03452 -1.74429 0
M  V30 197 C 20.7943 0.430764 -1.89362 0
M  V30 198 O 20.0693 1.31962 -1.42886 0
M  V30 199 C 20.3523 -1.73375 -3.15615 0
M  V30 200 C 20.2053 -3.27431 -3.08397 0
M  V30 201 C 21.5243 -1.47732 -4.14564 0
M  V30 202 H 18.6433 -0.377226 -0.633143 0
M  V30 203 H 21.2853 -1.49693 -1.17013 0
M  V30 204 H 19.4353 -1.34064 -3.64636 0
M  V30 205 H 21.1073 -3.76119 -2.67081 0
M  V30 206 H 19.3503 -3.5767 -2.45468 0
M  V30 207 H 20.0213 -3.71524 -4.08258 0
M  V30 208 H 22.4973 -1.8186 -3.74254 0
M  V30 209 H 21.3733 -1.99169 -5.11491 0
M  V30 210 H 21.6343 -0.407589 -4.40217 0
M  V30 211 N 20.6934 1.19889 -1.02296 0
M  V30 212 C 21.6564 2.21116 -0.603351 0
M  V30 213 C 22.6564 1.5738 0.329884 0
M  V30 214 O 23.8464 1.73802 0.117702 0
M  V30 215 C 20.9784 3.40696 0.117992 0
M  V30 216 H 22.1714 2.59754 -1.49893 0
M  V30 217 H 19.7244 1.33463 -0.813468 0
M  V30 218 H 20.4594 3.07569 1.0282 0
M  V30 219 H 20.2444 3.88188 -0.552511 0
M  V30 220 H 21.7344 4.15692 0.398696 0
M  V30 221 N 22.1715 0.800033 1.35784 0
M  V30 222 C 23.4195 0.376597 1.9856 0
M  V30 223 C 23.7405 -1.05812 1.63795 0
M  V30 224 O 23.0105 -1.73103 0.917171 0
M  V30 225 H 21.5905 0.136261 0.734467 0
M  V30 226 H 24.2525 1.02442 1.65806 0
M  V30 227 H 23.3485 0.477002 3.08433 0
M  V30 228 N 23.6496 -1.47581 0.552962 0
M  V30 229 C 24.8976 -2.02082 0.0272703 0
M  V30 230 C 25.2186 -1.4301 -1.32563 0
M  V30 231 O 24.4886 -0.603745 -1.86365 0
M  V30 232 H 23.0686 -0.746966 0.00709182 0
M  V30 233 H 25.7306 -1.81033 0.722008 0
M  V30 234 H 24.8266 -3.12034 -0.0639951 0
M  V30 235 N 25.1277 -0.289203 -1.54924 0
M  V30 236 C 26.3757 0.322879 -1.99504 0
M  V30 237 C 26.6967 1.55313 -1.1791 0
M  V30 238 O 25.9667 1.94001 -0.272097 0
M  V30 239 H 24.5467 0.122291 -0.736922 0
M  V30 240 H 27.2087 -0.397802 -1.90797 0
M  V30 241 H 26.3047 0.603061 -3.06218 0
M  V30 242 N 26.6058 1.57591 -0.0167156 0
M  V30 243 C 27.8308 1.9598 0.67872 0
M  V30 244 C 28.2558 0.892546 1.65575 0
M  V30 245 O 27.6138 -0.147772 1.80697 0
M  V30 246 C 27.6618 3.33468 1.37227 0
M  V30 247 O 26.7658 3.28954 2.48722 0
M  V30 248 H 26.1068 0.639339 0.17928 0
M  V30 249 H 28.6368 2.04463 -0.0748802 0
M  V30 250 H 28.6468 3.69417 1.7319 0
M  V30 251 H 27.3218 4.10694 0.656007 0
M  V30 252 H 25.8988 3.04705 2.14963 0
M  V30 253 N 28.0839 -0.256276 1.55502 0
M  V30 254 C 29.3319 -0.983672 1.76545 0
M  V30 255 C 29.6529 -1.86206 0.578982 0
M  V30 256 O 28.9229 -1.91656 -0.405577 0
M  V30 257 H 27.5029 -0.366191 0.651086 0
M  V30 258 H 30.1649 -0.276479 1.92929 0
M  V30 259 H 29.2609 -1.61087 2.67315 0
M  V30 260 N 29.562 -1.4872 -0.521534 0
M  V30 261 C 30.839 -1.4766 -1.2828 0
M  V30 262 C 31.219 -0.19292 -2.10217 0
M  V30 263 O 30.567 0.825193 -2.13079 0
M  V30 264 C 30.777 -2.74358 -2.15705 0
M  V30 265 C 32.125 -3.23028 -2.75569 0
M  V30 266 O 33.149 -2.75333 -2.25987 0
M  V30 267 O 32.008 -4.0604 -3.65778 0
M  V30 268 H 29.102 -0.590085 -0.579421 0
M  V30 269 H 31.648 -1.60963 -0.537492 0
M  V30 270 H 30.42 -3.59292 -1.54999 0
M  V30 271 H 30.043 -2.63816 -2.97467 0
M  V30 272 N 31.0401 0.771051 -1.3745 0
M  V30 273 C 31.9901 1.87456 -1.29785 0
M  V30 274 C 32.9741 1.59827 -0.185541 0
M  V30 275 O 34.1661 1.71945 -0.419997 0
M  V30 276 C 31.2951 3.24935 -1.1078 0
M  V30 277 C 30.3811 3.58514 -2.26558 0
M  V30 278 N 30.7721 3.6327 -3.5195 0
M  V30 279 C 29.0701 3.88683 -2.18727 0
M  V30 280 C 29.7711 3.93616 -4.283 0
M  V30 281 N 28.7471 4.09551 -3.57448 0
M  V30 282 H 32.5491 1.89386 -2.24745 0
M  V30 283 H 30.0631 0.967531 -1.30432 0
M  V30 284 H 32.0601 4.03881 -1.03374 0
M  V30 285 H 30.7201 3.24268 -0.16738 0
M  V30 286 H 31.7311 3.45458 -3.85848 0
M  V30 287 H 28.4081 3.95834 -1.32746 0
M  V30 288 H 29.7981 4.04066 -5.36824 0
M  V30 289 N 32.5182 1.22032 0.997298 0
M  V30 290 C 33.7432 1.06921 1.77715 0
M  V30 291 C 34.1682 -0.376226 1.84299 0
M  V30 292 O 33.5262 -1.27165 1.29223 0
M  V30 293 C 33.5742 1.67996 3.19076 0
M  V30 294 O 32.6782 0.930653 4.01762 0
M  V30 295 H 32.0192 0.375814 0.547412 0
M  V30 296 H 34.5492 1.61737 1.25309 0
M  V30 297 H 34.5592 1.72538 3.69723 0
M  V30 298 H 33.2342 2.73182 3.13599 0
M  V30 299 H 31.8112 0.960917 3.60307 0
M  V30 300 N 33.9963 -1.19345 1.0293 0
M  V30 301 C 34.9463 -2.20472 0.58104 0
M  V30 302 C 35.9303 -1.56578 -0.370442 0
M  V30 303 O 37.1223 -1.75963 -0.191344 0
M  V30 304 C 34.2513 -3.43236 -0.066306 0
M  V30 305 C 33.3373 -4.14274 0.907642 0
M  V30 306 N 33.7283 -4.61492 2.07023 0
M  V30 307 C 32.0263 -4.39966 0.731177 0
M  V30 308 C 32.7273 -5.1605 2.68454 0
M  V30 309 N 31.7033 -5.06875 1.96414 0
M  V30 310 H 35.5053 -2.54659 1.46717 0
M  V30 311 H 33.0193 -1.35423 0.896345 0
M  V30 312 H 35.0163 -4.14927 -0.405068 0
M  V30 313 H 33.6763 -3.10549 -0.948118 0
M  V30 314 H 34.6873 -4.56304 2.44963 0
M  V30 315 H 31.3643 -4.17377 -0.101507 0
M  V30 316 H 32.7543 -5.6287 3.66915 0
M  V30 317 N 35.4744 -0.807222 -1.35358 0
M  V30 318 C 36.4064 -0.175717 -2.28525 0
M  V30 319 C 37.4194 0.625354 -1.5031 0
M  V30 320 O 38.6084 0.457611 -1.72535 0
M  V30 321 C 35.7084 0.773471 -3.29956 0
M  V30 322 C 34.8814 0.0186296 -4.37396 0
M  V30 323 C 33.9404 0.886395 -5.18681 0
M  V30 324 O 32.9664 0.337106 -5.68201 0
M  V30 325 N 34.1684 2.20839 -5.36852 0
M  V30 326 H 36.9334 -0.976091 -2.83359 0
M  V30 327 H 34.4944 -0.662737 -1.47714 0
M  V30 328 H 36.4864 1.35824 -3.81227 0
M  V30 329 H 35.0564 1.47465 -2.75632 0
M  V30 330 H 34.2764 -0.747349 -3.87051 0
M  V30 331 H 35.5644 -0.501577 -5.06322 0
M  V30 332 H 34.9624 2.67858 -4.98265 0
M  V30 333 H 33.5194 2.74237 -5.91301 0
M  V30 334 N 36.9525 1.47285 -0.560781 0
M  V30 335 C 38.1985 2.02764 -0.0381184 0
M  V30 336 C 38.5315 1.43384 1.30976 0
M  V30 337 O 37.8065 0.590733 1.85312 0
M  V30 338 C 38.0895 3.60064 0.0511427 0
M  V30 339 C 37.9425 4.2987 -1.32408 0
M  V30 340 C 39.2615 4.33439 0.762795 0
M  V30 341 H 36.3805 0.736841 -0.0153264 0
M  V30 342 H 39.0225 1.75675 -0.723759 0
M  V30 343 H 37.1725 3.83274 0.635065 0
M  V30 344 H 38.8445 4.17989 -1.95148 0
M  V30 345 H 37.0875 3.90085 -1.8978 0
M  V30 346 H 37.7585 5.38478 -1.21431 0
M  V30 347 H 40.2345 4.15243 0.266965 0
M  V30 348 H 39.1105 5.43124 0.794221 0
M  V30 349 H 39.3715 4.02915 1.81966 0
M  V30 350 N 38.4306 0.297415 1.54768 0
M  V30 351 C 39.8466 -0.0560823 1.59501 0
M  V30 352 C 40.0466 -1.52725 1.31444 0
M  V30 353 O 39.1026 -2.27947 1.08611 0
M  V30 354 C 40.4156 0.338631 2.98787 0
M  V30 355 C 41.9636 0.287097 3.11681 0
M  V30 356 C 42.4386 0.656579 4.53269 0
M  V30 357 N 43.9296 0.608977 4.59179 0
M  V30 358 C 44.6646 0.867385 5.66802 0
M  V30 359 N 44.1606 1.19157 6.82476 0
M  V30 360 N 45.9536 0.794687 5.56454 0
M  V30 361 H 38.1046 1.25624 1.71267 0
M  V30 362 H 40.3676 0.509057 0.799728 0
M  V30 363 H 40.0736 1.36263 3.2423 0
M  V30 364 H 39.9476 -0.309508 3.75928 0
M  V30 365 H 42.3346 -0.727649 2.85988 0
M  V30 366 H 42.4156 0.969809 2.36703 0
M  V30 367 H 42.0596 1.66912 4.7969 0
M  V30 368 H 41.9896 -0.0481649 5.26578 0
M  V30 369 H 44.4806 0.369198 3.76092 0
M  V30 370 H 44.7936 1.37482 7.60473 0
M  V30 371 H 43.1386 1.22958 6.84037 0
M  V30 372 H 46.3296 0.541098 4.64962 0
M  V30 373 H 46.5026 0.999445 6.40246 0
M  V30 374 N 39.9087 -1.5758 0.0250728 0
M  V30 375 C 41.1547 -1.91917 -0.655413 0
M  V30 376 C 41.4877 -0.901433 -1.72011 0
M  V30 377 O 40.7627 0.0764069 -1.9435 0
M  V30 378 C 41.0457 -3.36751 -1.27558 0
M  V30 379 C 40.8987 -4.49258 -0.220719 0
M  V30 380 C 42.2177 -3.81469 -2.19475 0
M  V30 381 H 39.3367 -0.697925 -0.23679 0
M  V30 382 H 41.9787 -1.89825 0.0815036 0
M  V30 383 H 40.1287 -3.38664 -1.90365 0
M  V30 384 H 41.8007 -4.59478 0.409601 0
M  V30 385 H 40.0437 -4.31415 0.454264 0
M  V30 386 H 40.7147 -5.47618 -0.694175 0
M  V30 387 H 43.1907 -3.81266 -1.66659 0
M  V30 388 H 42.0667 -4.83512 -2.59822 0
M  V30 389 H 42.3277 -3.16744 -3.08424 0
M  V30 390 N 41.3868 0.248026 -1.55636 0
M  V30 391 C 42.3338 1.30707 -1.90222 0
M  V30 392 C 43.3038 1.47881 -0.756332 0
M  V30 393 O 44.4888 1.61883 -1.00988 0
M  V30 394 C 41.6288 2.65769 -2.20138 0
M  V30 395 C 40.7418 2.56612 -3.47526 0
M  V30 396 C 39.8768 3.8402 -3.67017 0
M  V30 397 C 38.9158 3.69476 -4.8801 0
M  V30 398 N 38.0528 4.88774 -5.04029 0
M  V30 399 H 42.8928 1.00512 -2.80538 0
M  V30 400 H 40.4298 0.485055 -1.38873 0
M  V30 401 H 42.3878 3.44386 -2.35487 0
M  V30 402 H 41.0178 2.94115 -1.33027 0
M  V30 403 H 40.0698 1.69571 -3.40514 0
M  V30 404 H 41.3818 2.41774 -4.36287 0
M  V30 405 H 40.5358 4.7108 -3.8232 0
M  V30 406 H 39.2748 4.01754 -2.76487 0
M  V30 407 H 38.2798 2.80799 -4.72686 0
M  V30 408 H 39.5048 3.53238 -5.8 0
M  V30 409 H 37.4508 5.0687 -4.16435 0
M  V30 410 H 37.3678 4.76562 -5.86877 0
M  V30 411 H 38.6358 5.77335 -5.23741 0
M  V30 412 N 42.8649 1.48995 0.513639 0
M  V30 413 C 43.8279 1.64229 1.59879 0
M  V30 414 C 44.8279 0.514696 1.5234 0
M  V30 415 O 46.0179 0.78087 1.55718 0
M  V30 416 C 43.1499 1.62783 2.99524 0
M  V30 417 H 44.3429 2.61004 1.47705 0
M  V30 418 H 41.8959 1.37837 0.736936 0
M  V30 419 H 42.6309 0.675461 3.17188 0
M  V30 420 H 42.4159 2.4466 3.06404 0
M  V30 421 H 43.9059 1.76669 3.78388 0
M  V30 422 N 44.343 -0.763751 1.37857 0
M  V30 423 C 45.573 -1.55067 1.3652 0
M  V30 424 C 45.981 -1.89135 -0.0494227 0
M  V30 425 O 45.324 -1.52529 -1.02375 0
M  V30 426 C 45.386 -2.8838 2.14656 0
M  V30 427 C 45.05 -2.76905 3.63555 0
M  V30 428 C 46.047 -2.4739 4.57268 0
M  V30 429 C 43.732 -2.94676 4.06781 0
M  V30 430 C 45.726 -2.35786 5.92186 0
M  V30 431 C 43.413 -2.82692 5.41782 0
M  V30 432 C 44.411 -2.53289 6.34298 0
M  V30 433 O 44.099 -2.41345 7.66817 0
M  V30 434 H 43.831 -0.486776 0.469069 0
M  V30 435 H 46.385 -0.953812 1.81911 0
M  V30 436 H 44.615 -3.50217 1.63967 0
M  V30 437 H 46.304 -3.49828 2.05852 0
M  V30 438 H 47.07 -2.33339 4.2518 0
M  V30 439 H 42.949 -3.16563 3.35126 0
M  V30 440 H 46.493 -2.12757 6.64365 0
M  V30 441 H 42.39 -2.96314 5.7347 0
M  V30 442 H 43.158 -2.56634 7.77226 0
M  V30 443 N 45.8211 -1.22559 -0.990812 0
M  V30 444 C 47.0511 -1.07623 -1.76355 0
M  V30 445 C 47.4591 0.37601 -1.85426 0
M  V30 446 O 46.8021 1.27228 -1.32509 0
M  V30 447 C 46.8641 -1.61507 -3.21179 0
M  V30 448 C 46.5281 -3.10146 -3.35646 0
M  V30 449 C 47.5251 -4.07553 -3.22796 0
M  V30 450 C 45.2101 -3.49644 -3.60631 0
M  V30 451 C 47.2041 -5.42442 -3.34716 0
M  V30 452 C 44.8911 -4.84682 -3.72192 0
M  V30 453 C 45.8891 -5.8089 -3.59243 0
M  V30 454 O 45.5771 -7.13476 -3.70415 0
M  V30 455 H 45.3091 -0.377745 -0.560611 0
M  V30 456 H 47.8631 -1.62658 -1.25425 0
M  V30 457 H 46.0931 -1.00881 -3.73309 0
M  V30 458 H 47.7821 -1.42202 -3.80175 0
M  V30 459 H 48.5481 -3.78381 -3.03403 0
M  V30 460 H 44.4271 -2.75282 -3.69785 0
M  V30 461 H 47.9711 -6.17518 -3.24526 0
M  V30 462 H 43.8681 -5.13534 -3.91092 0
M  V30 463 H 44.6361 -7.21083 -3.87275 0
M  V30 464 N 47.2992 1.18797 -1.03562 0
M  V30 465 C 48.7152 1.40671 -0.753917 0
M  V30 466 C 48.9152 1.9043 0.658686 0
M  V30 467 O 47.9712 2.08538 1.42366 0
M  V30 468 C 49.2842 2.41192 -1.79574 0
M  V30 469 C 50.8322 2.54928 -1.81606 0
M  V30 470 C 51.3072 3.58709 -2.84766 0
M  V30 471 N 52.7982 3.66212 -2.83625 0
M  V30 472 C 53.5332 4.46225 -3.60098 0
M  V30 473 N 53.0292 5.29888 -4.46308 0
M  V30 474 N 54.8222 4.40939 -3.4861 0
M  V30 475 H 46.9732 0.848221 -1.94728 0
M  V30 476 H 49.2362 0.435081 -0.842264 0
M  V30 477 H 48.9422 2.11669 -2.80872 0
M  V30 478 H 48.8162 3.40467 -1.62365 0
M  V30 479 H 51.2032 2.83771 -0.809817 0
M  V30 480 H 51.2842 1.55784 -2.02891 0
M  V30 481 H 50.9282 3.30607 -3.85566 0
M  V30 482 H 50.8582 4.57519 -2.60737 0
M  V30 483 H 53.3492 3.06466 -2.21105 0
M  V30 484 H 53.6622 5.88078 -5.01382 0
M  V30 485 H 52.0072 5.29326 -4.50377 0
M  V30 486 H 55.1982 3.74624 -2.80668 0
M  V30 487 H 55.3712 5.03056 -4.08459 0
M  V30 488 N 48.7773 0.814389 1.34928 0
M  V30 489 C 50.0253 0.397636 1.9815 0
M  V30 490 C 50.3463 -1.04069 1.64908 0
M  V30 491 O 49.6163 -1.72121 0.93548 0
M  V30 492 H 48.1963 0.144043 0.732981 0
M  V30 493 H 50.8583 1.04195 1.6471 0
M  V30 494 H 49.9543 0.509688 3.0791 0
M  V30 495 N 50.2554 -1.46986 0.568584 0
M  V30 496 C 51.5324 -1.95592 -0.0174074 0
M  V30 497 C 51.9124 -1.51124 -1.47393 0
M  V30 498 O 51.2604 -0.755329 -2.15655 0
M  V30 499 C 51.4704 -3.48719 0.139913 0
M  V30 500 C 52.8184 -4.246 0.000426376 0
M  V30 501 O 53.8424 -3.56135 0.0680316 0
M  V30 502 O 52.7014 -5.46302 -0.146988 0
M  V30 503 H 49.7954 -0.82498 -0.0577599 0
M  V30 504 H 52.3414 -1.57335 0.635909 0
M  V30 505 H 51.1134 -3.73927 1.15301 0
M  V30 506 H 50.7364 -3.93771 -0.550491 0
M  V30 507 N 51.7335 -0.305618 -1.54608 0
M  V30 508 C 52.9825 0.303098 -1.9941 0
M  V30 509 C 53.2955 1.54648 -1.19764 0
M  V30 510 O 54.5015 2.23007 -1.54855 0
M  V30 511 C 52.9575 0.590588 -3.55021 0
M  V30 512 C 52.5655 -0.634719 -4.43481 0
M  V30 513 C 54.3095 1.16025 -4.08336 0
M  V30 514 C 52.2165 -0.320126 -5.90533 0
M  V30 515 H 51.1465 0.117031 -0.744862 0
M  V30 516 H 53.7975 -0.415045 -1.78745 0
M  V30 517 H 52.1795 1.36845 -3.71604 0
M  V30 518 H 53.3535 -1.41079 -4.38672 0
M  V30 519 H 51.6685 -1.12333 -4.00962 0
M  V30 520 H 54.2655 1.40994 -5.15776 0
M  V30 521 H 54.6085 2.10397 -3.5922 0
M  V30 522 H 55.1415 0.443985 -3.95315 0
M  V30 523 H 51.8805 -1.23254 -6.43808 0
M  V30 524 H 51.4005 0.418579 -5.98338 0
M  V30 525 H 53.0795 0.0766241 -6.46955 0
M  V30 526 N 53.2116 1.57565 -0.0334293 0
M  V30 527 C 54.1446 2.05997 0.981866 0
M  V30 528 C 55.1226 0.956647 1.3148 0
M  V30 529 O 56.3066 1.22729 1.43073 0
M  V30 530 C 53.4336 2.48564 2.30074 0
M  V30 531 C 52.4796 3.69958 2.12211 0
M  V30 532 S 53.3126 5.16414 1.41692 0
M  V30 533 C 54.4686 5.6228 2.7494 0
M  V30 534 H 54.7016 2.91792 0.569612 0
M  V30 535 H 52.2346 1.53366 0.178376 0
M  V30 536 H 54.1926 2.73753 3.05892 0
M  V30 537 H 52.8536 1.63106 2.68431 0
M  V30 538 H 52.0466 3.97603 3.09722 0
M  V30 539 H 51.6486 3.44943 1.44535 0
M  V30 540 H 53.9406 5.66783 3.71165 0
M  V30 541 H 54.8836 6.61759 2.51953 0
M  V30 542 H 55.2916 4.89944 2.80384 0
M  V30 543 N 54.6897 -0.239769 1.55765 0
M  V30 544 C 55.9387 -0.964754 1.77131 0
M  V30 545 C 56.2517 -1.86213 0.59868 0
M  V30 546 O 57.4577 -2.6244 0.695522 0
M  V30 547 C 55.9137 -1.76552 3.1362 0
M  V30 548 C 55.5217 -0.915185 4.38553 0
M  V30 549 C 57.2657 -2.48281 3.44321 0
M  V30 550 C 55.1727 -1.71225 5.66071 0
M  V30 551 H 54.1027 -0.363953 0.660344 0
M  V30 552 H 56.7537 -0.219181 1.82186 0
M  V30 553 H 55.1357 -2.55331 3.02691 0
M  V30 554 H 56.3097 -0.169217 4.60489 0
M  V30 555 H 54.6247 -0.310889 4.15238 0
M  V30 556 H 57.2217 -3.08382 4.36812 0
M  V30 557 H 57.5647 -3.20256 2.65973 0
M  V30 558 H 58.0977 -1.76507 3.56497 0
M  V30 559 H 54.8367 -1.03612 6.4726 0
M  V30 560 H 54.3567 -2.43331 5.48224 0
M  V30 561 H 56.0357 -2.27758 6.05587 0
M  V30 562 N 56.1678 -1.49265 -0.50573 0
M  V30 563 C 57.3958 -1.62215 -1.28429 0
M  V30 564 C 57.8108 -0.291697 -1.86533 0
M  V30 565 O 57.1678 0.722233 -1.67601 0
M  V30 566 C 57.2188 -2.68735 -2.41793 0
M  V30 567 O 56.9398 -3.96619 -1.86078 0
M  V30 568 C 58.4408 -2.92346 -3.3324 0
M  V30 569 H 55.6608 -0.546239 -0.389697 0
M  V30 570 H 58.2048 -1.95265 -0.607609 0
M  V30 571 H 56.3598 -2.38476 -3.053 0
M  V30 572 H 56.7738 -4.55256 -2.60465 0
M  V30 573 H 58.2478 -3.70623 -4.09075 0
M  V30 574 H 58.7248 -2.02081 -3.89948 0
M  V30 575 H 59.3308 -3.24003 -2.75503 0
M  V30 576 N 57.6459 0.756429 -1.3826 0
M  V30 577 C 58.5959 1.86069 -1.31766 0
M  V30 578 C 59.5799 1.59621 -0.202483 0
M  V30 579 O 60.7719 1.7149 -0.438211 0
M  V30 580 C 57.9009 3.23742 -1.1422 0
M  V30 581 C 56.9869 3.56091 -2.30348 0
M  V30 582 N 57.3779 3.59517 -3.55783 0
M  V30 583 C 55.6759 3.86341 -2.22838 0
M  V30 584 C 56.3769 3.89052 -4.32451 0
M  V30 585 N 55.3529 4.05736 -3.61772 0
M  V30 586 H 59.1549 1.86992 -2.26741 0
M  V30 587 H 56.6689 0.953643 -1.31451 0
M  V30 588 H 58.6659 4.02761 -1.07652 0
M  V30 589 H 57.3259 3.24073 -0.201763 0
M  V30 590 H 58.3369 3.41347 -3.89491 0
M  V30 591 H 55.0139 3.94404 -1.36937 0
M  V30 592 H 56.4039 3.98349 -5.4108 0
M  V30 593 N 59.124 1.23083 0.984299 0
M  V30 594 C 60.371 1.06057 1.72505 0
M  V30 595 C 60.699 -0.403105 1.90277 0
M  V30 596 O 59.954 -1.3149 1.44944 0
M  V30 597 C 60.253 1.72673 3.1292 0
M  V30 598 C 59.919 3.22586 3.15038 0
M  V30 599 C 58.581 3.63489 3.15324 0
M  V30 600 C 60.933 4.185 3.10657 0
M  V30 601 C 58.261 4.98772 3.08939 0
M  V30 602 C 60.613 5.53769 3.05814 0
M  V30 603 C 59.277 5.94041 3.04419 0
M  V30 604 H 58.547 0.388091 0.631242 0
M  V30 605 H 61.194 1.52963 1.15215 0
M  V30 606 H 59.499 1.18116 3.73572 0
M  V30 607 H 61.196 1.56982 3.68996 0
M  V30 608 H 57.786 2.90022 3.15571 0
M  V30 609 H 61.97 3.87911 3.09579 0
M  V30 610 H 57.226 5.29193 3.0621 0
M  V30 611 H 61.4 6.27808 3.0138 0
M  V30 612 H 59.027 6.98833 2.99227 0
M  V30 613 N 60.6021 -1.18246 1.0419 0
M  V30 614 C 61.5121 -2.25574 0.644476 0
M  V30 615 C 62.5281 -1.70845 -0.329826 0
M  V30 616 O 63.7041 -2.00554 -0.184443 0
M  V30 617 C 60.7691 -3.46697 0.014877 0
M  V30 618 C 59.8301 -4.16554 1.03834 0
M  V30 619 C 59.0631 -5.31894 0.438692 0
M  V30 620 O 59.2861 -5.65385 -0.754752 0
M  V30 621 O 58.2201 -5.90459 1.168 0
M  V30 622 H 62.0461 -2.61836 1.53869 0
M  V30 623 H 59.6311 -1.25352 0.812854 0
M  V30 624 H 61.5131 -4.20062 -0.335538 0
M  V30 625 H 60.1881 -3.12255 -0.853138 0
M  V30 626 H 59.0951 -3.45251 1.44057 0
M  V30 627 H 60.4281 -4.54998 1.87716 0
M  V30 628 N 62.0802 -0.821533 -1.34494 0
M  V30 629 C 63.4912 -0.467956 -1.8074 0
M  V30 630 C 63.8422 1.01151 -1.68116 0
M  V30 631 O 62.9672 1.78707 -1.22036 0
M  V30 632 C 63.5622 -0.842627 -3.28154 0
M  V30 633 C 62.1212 -0.541439 -3.72485 0
M  V30 634 C 61.2682 -1.06028 -2.56229 0
M  V30 635 H 64.2192 -1.01183 -1.22261 0
M  V30 636 H 64.2402 -0.145876 -3.8022 0
M  V30 637 H 63.7522 -1.91945 -3.37311 0
M  V30 638 H 61.8532 0.526034 -3.68868 0
M  V30 639 H 61.9662 -1.08453 -4.66663 0
M  V30 640 H 60.3302 -0.481892 -2.501 0
M  V30 641 H 61.1132 -2.14352 -2.68157 0
M  V30 642 N 63.5583 1.46682 -0.576371 0
M  V30 643 C 64.7833 2.07304 -0.0630475 0
M  V30 644 C 65.2083 1.42329 1.2298 0
M  V30 645 O 64.5663 0.504865 1.74129 0
M  V30 646 C 64.6143 3.60472 0.095895 0
M  V30 647 O 63.7183 3.95927 1.15394 0
M  V30 648 H 63.0593 0.661288 -0.0599463 0
M  V30 649 H 65.5893 1.88417 -0.797511 0
M  V30 650 H 65.5993 4.06865 0.304071 0
M  V30 651 H 64.2743 4.07157 -0.84828 0
M  V30 652 H 62.8513 3.61252 0.924724 0
M  V30 653 N 65.0364 0.313813 1.54444 0
M  V30 654 C 66.2854 -0.292519 1.99568 0
M  V30 655 C 66.5984 -1.54011 1.20582 0
M  V30 656 O 67.8044 -2.22183 1.56035 0
M  V30 657 C 66.2604 -0.571752 3.55329 0
M  V30 658 C 65.8684 0.658229 4.43138 0
M  V30 659 C 67.6124 -1.13857 4.08946 0
M  V30 660 C 65.5194 0.351439 5.90355 0
M  V30 661 H 64.4494 -0.113079 0.745472 0
M  V30 662 H 67.1004 0.424518 1.78522 0
M  V30 663 H 65.4824 -1.34872 3.72325 0
M  V30 664 H 66.6564 1.43403 4.37918 0
M  V30 665 H 64.9714 1.14458 4.0036 0
M  V30 666 H 67.5684 -1.38257 5.16516 0
M  V30 667 H 67.9114 -2.08489 3.6033 0
M  V30 668 H 68.4444 -0.423015 3.95544 0
M  V30 669 H 65.1834 1.26667 6.43145 0
M  V30 670 H 64.7034 -0.386842 5.98551 0
M  V30 671 H 66.3824 -0.0423134 6.46986 0
M  V30 672 N 66.5145 -1.57545 0.0417849 0
M  V30 673 C 67.7395 -1.97035 -0.647455 0
M  V30 674 C 68.1645 -0.918775 -1.64135 0
M  V30 675 O 67.5225 0.119006 -1.80909 0
M  V30 676 C 67.5705 -3.35609 -1.31905 0
M  V30 677 O 66.6745 -3.3287 -2.43457 0
M  V30 678 H 66.0155 -0.64211 -0.169086 0
M  V30 679 H 68.5455 -2.04318 0.107399 0
M  V30 680 H 68.5555 -3.72126 -1.67291 0
M  V30 681 H 67.2305 -4.11685 -0.590586 0
M  V30 682 H 65.8075 -3.08087 -2.10088 0
M  V30 683 N 67.9926 0.231505 -1.5589 0
M  V30 684 C 69.2396 0.957352 -1.78441 0
M  V30 685 C 69.5676 1.84726 -0.60882 0
M  V30 686 O 68.8226 1.91416 0.40725 0
M  V30 687 C 69.1216 1.83577 -3.0665 0
M  V30 688 C 68.7876 1.09993 -4.37278 0
M  V30 689 C 67.4496 0.896629 -4.72773 0
M  V30 690 C 69.8016 0.579558 -5.17968 0
M  V30 691 C 67.1296 0.160896 -5.86479 0
M  V30 692 C 69.4816 -0.142783 -6.32439 0
M  V30 693 C 68.1456 -0.357427 -6.66542 0
M  V30 694 H 67.4156 0.35032 -0.65296 0
M  V30 695 H 70.0626 0.226259 -1.90159 0
M  V30 696 H 68.3676 2.63441 -2.90011 0
M  V30 697 H 70.0646 2.39934 -3.21298 0
M  V30 698 H 66.6546 1.26835 -4.09403 0
M  V30 699 H 70.8386 0.724125 -4.90989 0
M  V30 700 H 66.0946 -0.0157293 -6.11398 0
M  V30 701 H 70.2686 -0.553559 -6.94196 0
M  V30 702 H 67.8956 -0.929466 -7.54497 0
M  V30 703 N 69.4707 1.49531 0.497807 0
M  V30 704 C 70.3807 1.69176 1.62532 0
M  V30 705 C 71.3967 0.5744 1.64246 0
M  V30 706 O 72.5727 0.849497 1.82608 0
M  V30 707 C 69.6377 1.75695 2.98885 0
M  V30 708 C 68.6987 2.9929 3.07773 0
M  V30 709 C 67.9317 3.05488 4.37622 0
M  V30 710 O 68.1547 2.19192 5.26603 0
M  V30 711 O 67.0887 3.9798 4.51548 0
M  V30 712 H 70.9147 2.647 1.48887 0
M  V30 713 H 68.4997 1.3331 0.674441 0
M  V30 714 H 70.3817 1.82317 3.79919 0
M  V30 715 H 69.0567 0.8335 3.12785 0
M  V30 716 H 67.9637 2.98183 2.25915 0
M  V30 717 H 69.2967 3.91125 2.98801 0
M  V30 718 N 70.9488 -0.749086 1.3866 0
M  V30 719 C 72.1968 -1.50535 1.34847 0
M  V30 720 C 72.5178 -1.94909 -0.0595016 0
M  V30 721 O 71.7878 -1.67973 -1.00806 0
M  V30 722 H 70.3678 -0.558395 0.49619 0
M  V30 723 H 73.0298 -0.890165 1.73384 0
M  V30 724 H 72.1258 -2.39413 2.00219 0
M  V30 725 N 72.4269 -1.23603 -0.977757 0
M  V30 726 C 73.3569 -1.04401 -2.0886 0
M  V30 727 C 74.3379 0.0399052 -1.70053 0
M  V30 728 O 75.5229 -0.125246 -1.93796 0
M  V30 729 C 72.6529 -0.637269 -3.41403 0
M  V30 730 C 71.6069 -1.66883 -3.94124 0
M  V30 731 C 70.9329 -1.11745 -5.22893 0
M  V30 732 C 72.2329 -3.06247 -4.23096 0
M  V30 733 H 73.9269 -1.97316 -2.25182 0
M  V30 734 H 71.4729 -0.950096 -1.08209 0
M  V30 735 H 73.4259 -0.48998 -4.18542 0
M  V30 736 H 72.1499 0.327557 -3.24953 0
M  V30 737 H 70.8089 -1.80416 -3.19133 0
M  V30 738 H 70.4569 -0.143527 -5.02795 0
M  V30 739 H 70.1569 -1.80672 -5.59134 0
M  V30 740 H 71.6809 -0.982067 -6.02651 0
M  V30 741 H 73.0949 -2.96001 -4.90975 0
M  V30 742 H 71.4919 -3.72436 -4.70544 0
M  V30 743 H 72.5619 -3.55041 -3.30263 0
M  V30 744 N 73.905 1.17692 -1.04816 0
M  V30 745 C 75.145 1.89545 -0.764979 0
M  V30 746 C 75.509 1.78979 0.695028 0
M  V30 747 O 76.71 2.45613 1.09215 0
M  V30 748 C 74.981 3.35659 -1.22751 0
M  V30 749 S 76.54 4.25526 -1.07112 0
M  V30 750 H 73.358 0.654432 -0.27792 0
M  V30 751 H 75.96 1.42163 -1.34201 0
M  V30 752 H 74.664 3.40882 -2.28533 0
M  V30 753 H 74.195 3.88083 -0.644594 0
M  V30 754 H 76.21 4.962 0.00697508 0
M  V30 755 N 75.3831 0.828654 1.34056 0
M  V30 756 C 76.3311 0.242973 2.31327 0
M  V30 757 C 77.3251 -0.61944 1.57668 0
M  V30 758 O 78.5311 -0.51014 1.7262 0
M  V30 759 H 74.9061 0.059834 0.749616 0
M  V30 760 H 76.8771 1.07809 2.78244 0
M  V30 761 C 75.6261 -0.575733 3.429 0
M  V30 762 H 74.9491 0.0785582 3.99723 0
M  V30 763 H 76.3891 -0.951547 4.13185 0
M  V30 764 C 74.8481 -1.75044 2.87856 0
M  V30 765 O 75.3781 -2.84882 2.83205 0
M  V30 766 N 73.5841 -1.56903 2.44602 0
M  V30 767 H 73.1311 -0.675547 2.48584 0
M  V30 768 H 73.0891 -2.35652 2.08124 0
M  V30 769 N 76.8612 -1.46375 0.584142 0
M  V30 770 C 77.7712 -2.34115 -0.150728 0
M  V30 771 C 78.7872 -1.49838 -0.884567 0
M  V30 772 O 79.9632 -1.82704 -0.847429 0
M  V30 773 C 77.0282 -3.2705 -1.15062 0
M  V30 774 C 76.0892 -4.27228 -0.421293 0
M  V30 775 C 75.3222 -5.15722 -1.37355 0
M  V30 776 O 75.5452 -5.07176 -2.61014 0
M  V30 777 O 74.4792 -5.95383 -0.883355 0
M  V30 778 H 78.3052 -2.98309 0.569708 0
M  V30 779 H 75.8902 -1.45373 0.344535 0
M  V30 780 H 77.7722 -3.84381 -1.72712 0
M  V30 781 H 76.4472 -2.65451 -1.8525 0
M  V30 782 H 75.3542 -3.7358 0.197085 0
M  V30 783 H 76.6872 -4.91616 0.239641 0
M  V30 784 N 78.3393 -0.321999 -1.54275 0
M  V30 785 C 79.5853 0.281461 -2.00837 0
M  V30 786 C 79.9183 1.51909 -1.20985 0
M  V30 787 O 79.1933 1.923 -0.291733 0
M  V30 788 C 79.4763 0.617162 -3.54772 0
M  V30 789 C 79.3293 -0.631064 -4.45351 0
M  V30 790 C 80.6483 1.43542 -4.16033 0
M  V30 791 H 77.7673 0.100826 -0.730071 0
M  V30 792 H 80.4093 -0.438268 -1.84876 0
M  V30 793 H 78.5593 1.23034 -3.68504 0
M  V30 794 H 80.2313 -1.26934 -4.43492 0
M  V30 795 H 78.4743 -1.26025 -4.15091 0
M  V30 796 H 79.1453 -0.351735 -5.50878 0
M  V30 797 H 81.6213 0.917134 -4.05867 0
M  V30 798 H 80.4973 1.63907 -5.23856 0
M  V30 799 H 80.7583 2.43108 -3.69257 0
M  V30 800 N 79.8174 1.5752 -0.0501392 0
M  V30 801 C 81.2334 1.56631 0.306402 0
M  V30 802 C 81.4334 1.0577 1.71508 0
M  V30 803 O 80.4894 0.713837 2.422 0
M  V30 804 C 81.8024 3.00393 0.135811 0
M  V30 805 C 83.3504 3.12315 0.206993 0
M  V30 806 C 83.8254 4.57954 0.064944 0
M  V30 807 N 85.3164 4.63041 0.121254 0
M  V30 808 C 86.0514 5.73389 0.0354381 0
M  V30 809 N 85.5474 6.92724 -0.102666 0
M  V30 810 N 87.3404 5.62026 0.090946 0
M  V30 811 H 79.4914 1.88903 -0.971046 0
M  V30 812 H 81.7544 0.869876 -0.376855 0
M  V30 813 H 81.4604 3.41635 -0.835384 0
M  V30 814 H 81.3344 3.66373 0.897275 0
M  V30 815 H 83.7214 2.70973 1.16866 0
M  V30 816 H 83.8024 2.49016 -0.585208 0
M  V30 817 H 83.4464 4.99981 -0.893394 0
M  V30 818 H 83.3764 5.19258 0.876277 0
M  V30 819 H 85.8674 3.77216 0.227284 0
M  V30 820 H 86.1804 7.72633 -0.160882 0
M  V30 821 H 84.5254 6.94864 -0.137737 0
M  V30 822 H 87.7164 4.67684 0.197388 0
M  V30 823 H 87.8894 6.47997 0.0206089 0
M  V30 824 N 81.2955 -0.223234 1.56011 0
M  V30 825 C 82.5725 -0.972108 1.69733 0
M  V30 826 C 82.9525 -2.02485 0.59691 0
M  V30 827 O 82.3005 -2.25037 -0.396324 0
M  V30 828 C 82.5105 -1.58407 3.10979 0
M  V30 829 C 83.8585 -2.07696 3.70334 0
M  V30 830 O 84.8825 -1.68304 3.1393 0
M  V30 831 O 83.7415 -2.80096 4.69264 0
M  V30 832 H 80.8355 -0.453993 0.691245 0
M  V30 833 H 83.3815 -0.215149 1.68331 0
M  V30 834 H 82.1535 -0.823831 3.82529 0
M  V30 835 H 81.7765 -2.40661 3.16493 0
M  V30 836 N 82.7736 -1.49793 -0.48987 0
M  V30 837 C 83.7066 -1.61898 -1.60823 0
M  V30 838 C 84.6846 -0.467651 -1.5573 0
M  V30 839 O 85.8686 -0.684682 -1.75626 0
M  V30 840 C 82.9956 -1.58422 -2.99366 0
M  V30 841 C 82.0416 -2.78889 -3.22682 0
M  V30 842 S 82.8746 -4.40429 -3.04602 0
M  V30 843 C 84.0306 -4.39617 -4.4552 0
M  V30 844 H 84.2636 -2.56502 -1.50312 0
M  V30 845 H 81.7966 -1.38822 -0.675849 0
M  V30 846 H 83.7546 -1.57103 -3.79248 0
M  V30 847 H 82.4156 -0.650866 -3.07283 0
M  V30 848 H 81.6086 -2.72708 -4.23847 0
M  V30 849 H 81.2106 -2.77678 -2.50541 0
M  V30 850 H 83.5026 -4.12022 -5.37814 0
M  V30 851 H 84.4456 -5.41097 -4.56749 0
M  V30 852 H 84.8536 -3.69554 -4.2672 0
M  V30 853 N 84.2517 0.741722 -1.39055 0
M  V30 854 C 85.4917 1.51385 -1.37338 0
M  V30 855 C 85.8557 1.91972 0.0330513 0
M  V30 856 O 87.0567 2.68229 0.175174 0
M  V30 857 C 85.3277 2.72481 -2.31276 0
M  V30 858 S 86.8867 3.62211 -2.47687 0
M  V30 859 H 83.7047 0.517906 -0.487129 0
M  V30 860 H 86.3067 0.86969 -1.7509 0
M  V30 861 H 85.0107 2.40793 -3.32336 0
M  V30 862 H 84.5417 3.41832 -1.94716 0
M  V30 863 H 86.5567 4.65812 -1.70978 0
M  V30 864 N 85.7298 1.2412 0.971189 0
M  V30 865 C 86.9548 1.10667 1.75407 0
M  V30 866 C 87.3798 -0.337048 1.85056 0
M  V30 867 O 86.7378 -1.24396 1.31892 0
M  V30 868 C 86.7858 1.74726 3.15441 0
M  V30 869 O 85.8898 1.01566 3.99697 0
M  V30 870 H 85.2308 0.387341 0.539317 0
M  V30 871 H 87.7608 1.64358 1.2185 0
M  V30 872 H 87.7708 1.80341 3.6598 0
M  V30 873 H 86.4458 2.79773 3.07734 0
M  V30 874 H 85.0228 1.03713 3.58187 0
M  V30 875 N 87.2079 -1.17134 1.05439 0
M  V30 876 C 88.4549 -1.87456 0.765942 0
M  V30 877 C 88.7829 -1.81189 -0.707153 0
M  V30 878 O 88.0379 -1.21633 -1.5331 0
M  V30 879 C 88.3369 -3.36833 1.19491 0
M  V30 880 C 88.0029 -3.63301 2.67063 0
M  V30 881 C 86.6649 -3.70234 3.07376 0
M  V30 882 C 89.0169 -3.74575 3.62413 0
M  V30 883 C 86.3449 -3.85933 4.41896 0
M  V30 884 C 88.6969 -3.91793 4.9667 0
M  V30 885 C 87.3609 -3.96966 5.36633 0
M  V30 886 H 86.6309 -0.685948 0.280278 0
M  V30 887 H 89.2779 -1.38556 1.32192 0
M  V30 888 H 87.5829 -3.87807 0.557969 0
M  V30 889 H 89.2799 -3.89611 0.948893 0
M  V30 890 H 85.8699 -3.58532 2.34846 0
M  V30 891 H 90.0539 -3.68537 3.32406 0
M  V30 892 H 85.3099 -3.88187 4.72357 0
M  V30 893 H 89.4839 -3.99458 5.70444 0
M  V30 894 H 87.1109 -4.08883 6.40874 0
M  V30 895 N 88.686 -0.835752 -1.33615 0
M  V30 896 C 89.963 -0.352017 -1.92406 0
M  V30 897 C 90.343 1.16225 -1.76224 0
M  V30 898 O 89.691 1.97526 -1.14873 0
M  V30 899 C 89.901 -0.795485 -3.39813 0
M  V30 900 C 91.249 -0.801703 -4.16963 0
M  V30 901 O 92.273 -0.738889 -3.48452 0
M  V30 902 O 91.132 -0.886607 -5.3926 0
M  V30 903 H 88.226 -0.0989641 -0.821057 0
M  V30 904 H 90.772 -0.921397 -1.42507 0
M  V30 905 H 89.544 -1.83795 -3.45449 0
M  V30 906 H 89.167 -0.202505 -3.97084 0
M  V30 907 N 90.1641 1.46063 -0.591896 0
M  V30 908 C 91.1121 2.32124 0.148739 0
M  V30 909 C 92.1061 1.45035 0.875286 0
M  V30 910 O 93.3121 1.61609 0.792632 0
M  V30 911 H 89.6871 0.749024 0.066832 0
M  V30 912 H 91.6581 2.92392 -0.595783 0
M  V30 913 C 90.4071 3.28373 1.1431 0
M  V30 914 H 89.7301 3.95371 0.59346 0
M  V30 915 H 91.1701 3.91352 1.63155 0
M  V30 916 C 89.6291 2.54393 2.20875 0
M  V30 917 O 90.1591 2.31373 3.28374 0
M  V30 918 N 88.3651 2.14797 1.95731 0
M  V30 919 H 87.9121 2.33719 1.08319 0
M  V30 920 H 87.8701 1.65619 2.67241 0
M  V30 921 N 91.6422 0.330177 1.54103 0
M  V30 922 C 92.5522 -0.541534 2.28264 0
M  V30 923 C 93.5682 -1.12351 1.32866 0
M  V30 924 O 94.7442 -1.14206 1.65888 0
M  V30 925 C 91.8092 -1.68322 3.03098 0
M  V30 926 C 90.8702 -1.13238 4.14096 0
M  V30 927 C 90.1032 -2.21966 4.85352 0
M  V30 928 O 90.3262 -3.42437 4.56172 0
M  V30 929 O 89.2602 -1.87013 5.7211 0
M  V30 930 H 93.0862 0.060938 3.03639 0
M  V30 931 H 90.6712 0.09565 1.49093 0
M  V30 932 H 92.5532 -2.34777 3.49939 0
M  V30 933 H 91.2282 -2.27176 2.30593 0
M  V30 934 H 90.1352 -0.432736 3.71589 0
M  V30 935 H 91.4682 -0.588898 4.88664 0
M  V30 936 N 93.1203 -1.57491 0.0584922 0
M  V30 937 C 94.0523 -2.08916 -0.942694 0
M  V30 938 C 95.0653 -1.0185 -1.27006 0
M  V30 939 O 96.2543 -1.29398 -1.22957 0
M  V30 940 C 93.3543 -2.52341 -2.26224 0
M  V30 941 C 92.5273 -3.82827 -2.1157 0
M  V30 942 C 91.5863 -4.12487 -3.26712 0
M  V30 943 O 90.6123 -4.82295 -3.02292 0
M  V30 944 N 91.8143 -3.64978 -4.5141 0
M  V30 945 H 94.5793 -2.95437 -0.503722 0
M  V30 946 H 92.1403 -1.61397 -0.12757 0
M  V30 947 H 94.1323 -2.69254 -3.02133 0
M  V30 948 H 92.7023 -1.7103 -2.61663 0
M  V30 949 H 91.9223 -3.75425 -1.20208 0
M  V30 950 H 93.2103 -4.68263 -1.99015 0
M  V30 951 H 92.6083 -3.08558 -4.7414 0
M  V30 952 H 91.1653 -3.87115 -5.2439 0
M  V30 953 N 94.5984 0.214957 -1.56127 0
M  V30 954 C 95.5284 1.2695 -1.95974 0
M  V30 955 C 96.5094 1.48539 -0.828868 0
M  V30 956 O 97.6944 1.60611 -1.09168 0
M  V30 957 C 94.8244 2.61794 -2.28214 0
M  V30 958 C 93.7784 2.54851 -3.43853 0
M  V30 959 C 93.1044 3.93785 -3.61715 0
M  V30 960 C 94.4044 2.09065 -4.78632 0
M  V30 961 H 96.0984 0.93846 -2.84312 0
M  V30 962 H 93.6444 0.449996 -1.36788 0
M  V30 963 H 95.5974 3.35731 -2.54682 0
M  V30 964 H 94.3214 2.96599 -1.36736 0
M  V30 965 H 92.9804 1.8337 -3.17444 0
M  V30 966 H 92.6284 4.25908 -2.67602 0
M  V30 967 H 92.3284 3.90019 -4.39498 0
M  V30 968 H 93.8524 4.69374 -3.90539 0
M  V30 969 H 95.2664 2.7275 -5.04262 0
M  V30 970 H 93.6634 2.16346 -5.59745 0
M  V30 971 H 94.7334 1.04315 -4.73547 0
M  V30 972 N 96.0765 1.50051 0.48192 0
M  V30 973 C 97.3235 1.60498 1.23477 0
M  V30 974 C 97.6515 0.300331 1.92167 0
M  V30 975 O 96.9065 -0.713094 1.82246 0
M  V30 976 C 97.2055 2.72717 2.30998 0
M  V30 977 C 96.8715 4.13572 1.79636 0
M  V30 978 C 95.5335 4.519 1.65348 0
M  V30 979 C 97.8855 5.01649 1.41412 0
M  V30 980 C 95.2135 5.76057 1.11244 0
M  V30 981 C 97.5655 6.26343 0.887538 0
M  V30 982 C 96.2295 6.63483 0.731207 0
M  V30 983 H 95.4995 0.587303 0.451836 0
M  V30 984 H 98.1465 1.83948 0.532468 0
M  V30 985 H 96.4515 2.43312 3.07094 0
M  V30 986 H 98.1485 2.78006 2.88988 0
M  V30 987 H 94.7385 3.83329 1.91721 0
M  V30 988 H 98.9225 4.72679 1.51289 0
M  V30 989 H 94.1785 6.03516 0.978686 0
M  V30 990 H 98.3525 6.93958 0.582654 0
M  V30 991 H 95.9795 7.59568 0.309806 0
M  V30 992 N 97.5546 -0.734337 1.39446 0
M  V30 993 C 98.7826 -1.52358 1.39981 0
M  V30 994 C 99.1976 -1.88799 -0.0054975 0
M  V30 995 O 98.5546 -1.54146 -0.976998 0
M  V30 996 C 98.6056 -2.81072 2.27333 0
M  V30 997 O 98.3266 -2.46178 3.62392 0
M  V30 998 C 99.8276 -3.75096 2.36259 0
M  V30 999 H 97.0476 -0.470806 0.478103 0
M  V30 1000 H 99.5916 -0.907339 1.83269 0
M  V30 1001 H 97.7466 -3.39026 1.87457 0
M  V30 1002 H 98.1606 -3.28866 4.08592 0
M  V30 1003 H 99.6346 -4.62305 3.01626 0
M  V30 1004 H 100.112 -4.16892 1.38194 0
M  V30 1005 H 100.718 -3.23061 2.76608 0
M  V30 1006 N 99.0327 -1.24633 -0.964593 0
M  V30 1007 C 99.9657 -0.984662 -2.05863 0
M  V30 1008 C 100.944 0.0826554 -1.6239 0
M  V30 1009 O 102.128 -0.0549296 -1.8842 0
M  V30 1010 C 99.2547 -0.486529 -3.35187 0
M  V30 1011 C 98.3007 -1.54286 -3.97615 0
M  V30 1012 S 99.1337 -3.12513 -4.34851 0
M  V30 1013 C 100.29 -2.6441 -5.67308 0
M  V30 1014 H 100.523 -1.91104 -2.27743 0
M  V30 1015 H 98.0557 -1.08052 -1.10291 0
M  V30 1016 H 100.014 -0.205757 -4.09984 0
M  V30 1017 H 98.6747 0.419186 -3.1129 0
M  V30 1018 H 97.8677 -1.14481 -4.90826 0
M  V30 1019 H 97.4697 -1.7738 -3.2926 0
M  V30 1020 H 99.7617 -2.07416 -6.44969 0
M  V30 1021 H 100.705 -3.56222 -6.11973 0
M  V30 1022 H 101.113 -2.04734 -5.26065 0
M  V30 1023 N 100.511 1.16574 -1.06058 0
M  V30 1024 C 101.458 2.20883 -0.669263 0
M  V30 1025 C 102.428 1.62729 0.332918 0
M  V30 1026 O 103.613 1.895 0.222346 0
M  V30 1027 C 100.753 3.45049 -0.0593572 0
M  V30 1028 C 99.8658 4.17458 -1.11143 0
M  V30 1029 C 99.0008 5.29135 -0.467916 0
M  V30 1030 C 98.0398 5.93343 -1.50369 0
M  V30 1031 N 97.1768 6.96516 -0.883706 0
M  V30 1032 H 102.017 2.53709 -1.5632 0
M  V30 1033 H 99.5538 1.24616 -0.781625 0
M  V30 1034 H 101.512 4.16033 0.311771 0
M  V30 1035 H 100.142 3.12781 0.797992 0
M  V30 1036 H 99.1938 3.45101 -1.60029 0
M  V30 1037 H 100.506 4.61307 -1.89731 0
M  V30 1038 H 99.6598 6.06684 -0.0436871 0
M  V30 1039 H 98.3988 4.86443 0.349864 0
M  V30 1040 H 97.4038 5.14517 -1.93784 0
M  V30 1041 H 98.6288 6.38114 -2.32352 0
M  V30 1042 H 96.5748 6.55943 -0.086595 0
M  V30 1043 H 96.4918 7.38723 -1.607 0
M  V30 1044 H 97.7598 7.77993 -0.484543 0
M  V30 1045 N 101.989 0.842826 1.3317 0
M  V30 1046 C 103.235 0.450342 1.98352 0
M  V30 1047 C 103.59 -0.980508 1.65541 0
M  V30 1048 O 102.883 -1.67678 0.927065 0
M  V30 1049 C 103.077 0.612607 3.52111 0
M  V30 1050 C 102.906 2.05768 3.99862 0
M  V30 1051 C 101.676 2.69374 4.27511 0
M  V30 1052 C 103.874 3.02688 4.15794 0
M  V30 1053 N 101.856 4.04915 4.61429 0
M  V30 1054 C 103.227 4.23186 4.53115 0
M  V30 1055 C 105.282 2.99041 3.98094 0
M  V30 1056 C 103.985 5.40518 4.74587 0
M  V30 1057 C 106.011 4.15607 4.20743 0
M  V30 1058 C 105.373 5.3486 4.58371 0
M  V30 1059 H 101.472 0.213296 0.752349 0
M  V30 1060 H 104.056 1.09173 1.61212 0
M  V30 1061 H 102.227 0.000998822 3.884 0
M  V30 1062 H 103.959 0.191179 4.04248 0
M  V30 1063 H 100.714 2.20485 4.19146 0
M  V30 1064 H 101.138 4.74798 4.82593 0
M  V30 1065 H 105.78 2.0797 3.68114 0
M  V30 1066 H 103.498 6.3213 5.03425 0
M  V30 1067 H 107.084 4.14207 4.08563 0
M  V30 1068 H 105.964 6.23558 4.75547 0
M  V30 1069 N 103.467 -1.45747 0.599634 0
M  V30 1070 C 104.716 -2.01502 0.0893511 0
M  V30 1071 C 105.029 -1.4748 -1.28488 0
M  V30 1072 O 106.235 -1.95161 -1.88745 0
M  V30 1073 C 104.691 -3.59735 0.109082 0
M  V30 1074 C 104.299 -4.22754 1.48267 0
M  V30 1075 C 106.043 -4.23085 -0.346374 0
M  V30 1076 C 103.95 -5.73115 1.45921 0
M  V30 1077 H 102.88 -0.753417 0.0296347 0
M  V30 1078 H 105.531 -1.67303 0.753788 0
M  V30 1079 H 103.913 -3.91087 -0.621854 0
M  V30 1080 H 105.087 -4.02987 2.23468 0
M  V30 1081 H 103.402 -3.71567 1.87955 0
M  V30 1082 H 105.999 -5.33327 -0.38298 0
M  V30 1083 H 106.342 -3.93201 -1.36743 0
M  V30 1084 H 106.875 -3.9642 0.331038 0
M  V30 1085 H 103.614 -6.07685 2.45762 0
M  V30 1086 H 103.134 -5.95097 0.749665 0
M  V30 1087 H 104.813 -6.3616 1.17941 0
M  V30 1088 N 104.945 -0.338344 -1.53925 0
M  V30 1089 C 106.222 0.314774 -1.93051 0
M  V30 1090 C 106.602 1.68669 -1.26941 0
M  V30 1091 O 105.95 2.24636 -0.418445 0
M  V30 1092 C 106.16 0.392249 -3.46789 0
M  V30 1093 C 107.508 0.645554 -4.19664 0
M  V30 1094 O 108.532 0.474575 -3.53024 0
M  V30 1095 O 107.391 0.976408 -5.37707 0
M  V30 1096 H 104.485 0.182598 -0.80659 0
M  V30 1097 H 107.031 -0.389141 -1.65178 0
M  V30 1098 H 105.803 -0.570702 -3.87116 0
M  V30 1099 H 105.426 1.14316 -3.80812 0
M  V30 1100 N 106.423 1.57458 -0.0668435 0
M  V30 1101 C 107.333 2.15937 0.916975 0
M  V30 1102 C 108.349 1.12123 1.33058 0
M  V30 1103 O 109.525 1.44366 1.40429 0
M  V30 1104 C 106.59 2.70547 2.16807 0
M  V30 1105 C 105.651 3.89215 1.81135 0
M  V30 1106 C 104.884 4.41211 3.0028 0
M  V30 1107 O 105.107 3.92225 4.14144 0
M  V30 1108 O 104.041 5.32605 2.80384 0
M  V30 1109 H 107.867 3.00354 0.449561 0
M  V30 1110 H 105.452 1.48584 0.155949 0
M  V30 1111 H 107.334 3.0557 2.90181 0
M  V30 1112 H 106.009 1.89192 2.62656 0
M  V30 1113 H 104.916 3.59054 1.05028 0
M  V30 1114 H 106.249 4.71848 1.40073 0
M  V30 1115 N 107.901 -0.206675 1.56239 0
M  V30 1116 C 108.811 -1.27686 1.96808 0
M  V30 1117 C 109.827 -1.50455 0.874035 0
M  V30 1118 O 111.003 -1.63295 1.17884 0
M  V30 1119 C 108.068 -2.60358 2.28942 0
M  V30 1120 C 107.129 -2.45762 3.51994 0
M  V30 1121 C 106.362 -3.72108 3.82585 0
M  V30 1122 O 106.585 -4.75776 3.14631 0
M  V30 1123 O 105.519 -3.6833 4.76043 0
M  V30 1124 H 109.345 -0.962593 2.88041 0
M  V30 1125 H 106.93 -0.410746 1.43643 0
M  V30 1126 H 108.812 -3.38687 2.50737 0
M  V30 1127 H 107.487 -2.91435 1.4088 0
M  V30 1128 H 106.394 -1.65584 3.35459 0
M  V30 1129 H 107.727 -2.19621 4.40486 0
M  V30 1130 N 109.379 -1.50304 -0.473955 0
M  V30 1131 C 110.627 -1.60832 -1.22382 0
M  V30 1132 C 110.948 -0.30939 -1.9253 0
M  V30 1133 O 110.218 0.67296 -1.83978 0
M  V30 1134 H 108.798 -0.592652 -0.454723 0
M  V30 1135 H 111.46 -1.87068 -0.546968 0
M  V30 1136 H 110.556 -2.41803 -1.97327 0
M  V30 1137 N 110.857 0.726932 -1.39834 0
M  V30 1138 C 112.134 1.47902 -1.28001 0
M  V30 1139 C 112.514 2.1083 0.106789 0
M  V30 1140 O 111.862 1.99242 1.11869 0
M  V30 1141 C 112.072 2.52392 -2.41038 0
M  V30 1142 C 113.42 3.18546 -2.80737 0
M  V30 1143 O 114.444 2.62708 -2.40547 0
M  V30 1144 O 113.303 4.19604 -3.50135 0
M  V30 1145 H 110.397 0.657163 -0.502062 0
M  V30 1146 H 112.943 0.760071 -1.51727 0
M  V30 1147 H 111.715 2.04329 -3.33715 0
M  V30 1148 H 111.338 3.31837 -2.19021 0
M  V30 1149 N 112.336 1.25143 0.95797 0
M  V30 1150 C 113.747 1.08851 1.51685 0
M  V30 1151 C 114.098 -0.33687 1.93286 0
M  V30 1152 O 113.223 -1.22644 1.7829 0
M  V30 1153 C 113.818 1.96978 2.75654 0
M  V30 1154 C 112.377 1.84881 3.27866 0
M  V30 1155 C 111.524 1.91329 2.0072 0
M  V30 1156 H 114.475 1.38478 0.77522 0
M  V30 1157 H 114.496 1.5078 3.4935 0
M  V30 1158 H 114.008 3.00712 2.45345 0
M  V30 1159 H 112.109 0.840182 3.63004 0
M  V30 1160 H 112.222 2.6951 3.96107 0
M  V30 1161 H 110.586 1.35174 2.15871 0
M  V30 1162 H 111.369 2.96661 1.72764 0
M  V30 1163 N 113.814 -1.1601 1.06675 0
M  V30 1164 C 115.054 -1.88304 0.795037 0
M  V30 1165 C 115.418 -1.80062 -0.666466 0
M  V30 1166 O 116.619 -2.47319 -1.05293 0
M  V30 1167 C 114.89 -3.33664 1.28076 0
M  V30 1168 S 116.449 -4.23768 1.13868 0
M  V30 1169 H 113.267 -0.649928 0.288296 0
M  V30 1170 H 115.869 -1.4001 1.36445 0
M  V30 1171 H 114.573 -3.37203 2.33927 0
M  V30 1172 H 114.104 -3.87009 0.706253 0
M  V30 1173 H 116.119 -4.96148 0.0719668 0
M  V30 1174 N 115.292 -0.849877 -1.32721 0
M  V30 1175 C 116.52 -0.464754 -2.01613 0
M  V30 1176 C 116.935 0.937191 -1.63897 0
M  V30 1177 O 116.292 1.61081 -0.857856 0
M  V30 1178 C 116.343 -0.588638 -3.56675 0
M  V30 1179 O 116.064 -1.93535 -3.93034 0
M  V30 1180 C 117.565 -0.2019 -4.4284 0
M  V30 1181 H 114.785 -0.183215 -0.645502 0
M  V30 1182 H 117.329 -1.1455 -1.69407 0
M  V30 1183 H 115.484 0.0443159 -3.87375 0
M  V30 1184 H 115.898 -1.92871 -4.87751 0
M  V30 1185 H 117.372 -0.339599 -5.50954 0
M  V30 1186 H 117.849 0.857224 -4.30753 0
M  V30 1187 H 118.455 -0.809733 -4.17521 0
M  V30 1188 N 116.77 1.45427 -0.607355 0
M  V30 1189 C 118.016 2.0254 -0.102607 0
M  V30 1190 C 118.349 1.47478 1.26348 0
M  V30 1191 O 117.624 0.64939 1.83339 0
M  V30 1192 C 117.907 3.60044 -0.0634347 0
M  V30 1193 C 117.76 4.2544 -1.46017 0
M  V30 1194 C 119.079 4.35646 0.624514 0
M  V30 1195 H 116.198 0.73598 -0.0387607 0
M  V30 1196 H 118.84 1.73284 -0.779282 0
M  V30 1197 H 116.99 3.85101 0.512808 0
M  V30 1198 H 118.662 4.11569 -2.08347 0
M  V30 1199 H 116.905 3.83849 -2.02094 0
M  V30 1200 H 117.576 5.34342 -1.385 0
M  V30 1201 H 120.052 4.15882 0.134723 0
M  V30 1202 H 118.928 5.45376 0.621028 0
M  V30 1203 H 119.189 4.08501 1.69055 0
M  V30 1204 N 118.248 0.346503 1.53744 0
M  V30 1205 C 119.473 -0.253074 2.0585 0
M  V30 1206 C 119.898 -1.43202 1.21962 0
M  V30 1207 O 119.256 -1.79783 0.234073 0
M  V30 1208 C 119.304 -0.643193 3.54817 0
M  V30 1209 O 118.408 -1.74286 3.73762 0
M  V30 1210 H 117.749 -0.0413583 0.662711 0
M  V30 1211 H 120.279 0.501574 1.98357 0
M  V30 1212 H 120.289 -0.919526 3.97503 0
M  V30 1213 H 118.964 0.218966 4.15323 0
M  V30 1214 H 117.541 -1.46356 3.42979 0
M  V30 1215 N 119.726 -1.57421 0.075193 0
M  V30 1216 C 120.951 -1.98364 -0.605515 0
M  V30 1217 C 121.376 -0.953383 -1.62149 0
M  V30 1218 O 120.734 0.0806053 -1.81121 0
M  V30 1219 C 120.782 -3.38332 -1.24756 0
M  V30 1220 O 119.886 -3.37959 -2.36342 0
M  V30 1221 H 119.227 -0.645553 -0.155428 0
M  V30 1222 H 121.757 -2.04044 0.150714 0
M  V30 1223 H 121.767 -3.75591 -1.5936 0
M  V30 1224 H 120.442 -4.12846 -0.503129 0
M  V30 1225 H 119.019 -3.12474 -2.03506 0
M  V30 1226 N 121.204 0.198386 -1.56346 0
M  V30 1227 C 122.136 1.26987 -1.90806 0
M  V30 1228 C 123.149 1.41877 -0.798419 0
M  V30 1229 O 124.338 1.42362 -1.07682 0
M  V30 1230 C 121.438 2.64246 -2.12196 0
M  V30 1231 C 120.611 2.71007 -3.43328 0
M  V30 1232 C 119.67 3.89439 -3.5387 0
M  V30 1233 O 118.696 3.76695 -4.26719 0
M  V30 1234 N 119.898 5.04752 -2.86715 0
M  V30 1235 H 122.663 0.977433 -2.83313 0
M  V30 1236 H 120.224 0.388322 -1.57174 0
M  V30 1237 H 122.216 3.41896 -2.1654 0
M  V30 1238 H 120.786 2.85992 -1.26204 0
M  V30 1239 H 120.006 1.79657 -3.50881 0
M  V30 1240 H 121.294 2.72512 -4.29668 0
M  V30 1241 H 120.692 5.18004 -2.2735 0
M  V30 1242 H 119.249 5.8036 -2.96691 0
M  V30 1243 N 122.682 1.50554 0.465978 0
M  V30 1244 C 123.612 1.72722 1.57128 0
M  V30 1245 C 124.593 0.576294 1.6004 0
M  V30 1246 O 125.778 0.81598 1.76225 0
M  V30 1247 C 122.908 1.82605 2.95419 0
M  V30 1248 C 121.862 2.97835 3.07373 0
M  V30 1249 C 121.188 2.92867 4.47363 0
M  V30 1250 C 122.488 4.38265 2.84114 0
M  V30 1251 H 124.182 2.65267 1.38829 0
M  V30 1252 H 121.728 1.2765 0.666441 0
M  V30 1253 H 123.681 1.96698 3.72677 0
M  V30 1254 H 122.405 0.866858 3.14886 0
M  V30 1255 H 121.064 2.83401 2.3255 0
M  V30 1256 H 120.712 1.94783 4.63755 0
M  V30 1257 H 120.412 3.70227 4.56296 0
M  V30 1258 H 121.936 3.09015 5.26633 0
M  V30 1259 H 123.35 4.53198 3.51118 0
M  V30 1260 H 121.747 5.17115 3.04487 0
M  V30 1261 H 122.817 4.50281 1.7993 0
M  V30 1262 N 124.16 -0.719506 1.40217 0
M  V30 1263 C 125.07 -1.86378 1.42479 0
M  V30 1264 C 126.086 -1.71073 0.317834 0
M  V30 1265 O 127.262 -1.93406 0.561794 0
M  V30 1266 C 124.327 -3.22136 1.28178 0
M  V30 1267 C 123.388 -3.49723 2.48982 0
M  V30 1268 C 122.621 -4.79004 2.35353 0
M  V30 1269 O 122.844 -5.53821 1.36524 0
M  V30 1270 O 121.778 -5.06839 3.2465 0
M  V30 1271 H 125.604 -1.87425 2.38968 0
M  V30 1272 H 123.189 -0.869405 1.21498 0
M  V30 1273 H 125.071 -4.03234 1.22395 0
M  V30 1274 H 123.746 -3.21825 0.347934 0
M  V30 1275 H 122.653 -2.6865 2.60342 0
M  V30 1276 H 123.986 -3.54828 3.41113 0
M  V30 1277 N 125.638 -1.25649 -0.95132 0
M  V30 1278 C 126.568 -1.08808 -2.06599 0
M  V30 1279 C 127.549 0.00382547 -1.701 0
M  V30 1280 O 128.734 -0.166325 -1.93486 0
M  V30 1281 C 125.864 -0.709542 -3.39975 0
M  V30 1282 C 124.818 -1.75206 -3.90496 0
M  V30 1283 C 124.144 -1.22811 -5.20405 0
M  V30 1284 C 125.444 -3.15153 -4.16504 0
M  V30 1285 H 127.138 -2.02048 -2.20946 0
M  V30 1286 H 124.684 -0.972835 -1.06169 0
M  V30 1287 H 126.637 -0.578649 -4.17408 0
M  V30 1288 H 125.361 0.258556 -3.25575 0
M  V30 1289 H 124.02 -1.87145 -3.15234 0
M  V30 1290 H 123.668 -0.250145 -5.02378 0
M  V30 1291 H 123.368 -1.92492 -5.55176 0
M  V30 1292 H 124.892 -1.10968 -6.00432 0
M  V30 1293 H 126.306 -3.06349 -4.84586 0
M  V30 1294 H 124.703 -3.82333 -4.62538 0
M  V30 1295 H 125.773 -3.61966 -3.22658 0
M  V30 1296 N 127.117 1.15442 -1.07289 0
M  V30 1297 C 128.027 2.23786 -0.704057 0
M  V30 1298 C 129.043 1.7166 0.284413 0
M  V30 1299 O 130.219 2.00972 0.131205 0
M  V30 1300 C 127.284 3.46535 -0.106792 0
M  V30 1301 C 126.345 4.13654 -1.14842 0
M  V30 1302 C 125.578 5.30544 -0.57956 0
M  V30 1303 O 125.801 5.67187 0.604585 0
M  V30 1304 O 124.735 5.87154 -1.32414 0
M  V30 1305 H 128.561 2.57664 -1.60757 0
M  V30 1306 H 126.146 1.23152 -0.845803 0
M  V30 1307 H 128.028 4.20804 0.224048 0
M  V30 1308 H 126.703 3.14407 0.770049 0
M  V30 1309 H 125.61 3.4131 -1.5316 0
M  V30 1310 H 126.943 4.49861 -1.99714 0
M  V30 1311 N 128.595 0.856903 1.32268 0
M  V30 1312 C 129.505 0.306131 2.32594 0
M  V30 1313 C 130.521 -0.577209 1.64147 0
M  V30 1314 O 131.697 -0.477043 1.95669 0
M  V30 1315 C 128.762 -0.494561 3.43154 0
M  V30 1316 C 127.823 0.415186 4.27288 0
M  V30 1317 C 127.056 -0.347387 5.32568 0
M  V30 1318 O 127.279 -1.57708 5.48165 0
M  V30 1319 O 126.213 0.287982 6.01211 0
M  V30 1320 H 130.039 1.13737 2.81598 0
M  V30 1321 H 127.624 0.619902 1.35932 0
M  V30 1322 H 129.506 -0.948944 4.10576 0
M  V30 1323 H 128.181 -1.30257 2.96336 0
M  V30 1324 H 127.088 0.917793 3.62667 0
M  V30 1325 H 128.421 1.18844 4.77637 0
M  V30 1326 N 130.073 -1.45103 0.615059 0
M  V30 1327 C 131.036 -2.29025 -0.0895485 0
M  V30 1328 C 132.036 -1.40174 -0.787906 0
M  V30 1329 O 133.226 -1.62217 -0.634933 0
M  V30 1330 C 130.358 -3.21376 -1.13711 0
M  V30 1331 H 131.551 -2.92807 0.648382 0
M  V30 1332 H 129.104 -1.51749 0.374444 0
M  V30 1333 H 129.839 -2.6241 -1.90556 0
M  V30 1334 H 129.624 -3.86834 -0.640475 0
M  V30 1335 H 131.114 -3.84459 -1.63036 0
M  V30 1336 N 131.551 -0.354651 -1.53558 0
M  V30 1337 C 132.798 0.238443 -2.01091 0
M  V30 1338 C 133.126 1.49663 -1.24222 0
M  V30 1339 O 132.381 1.93049 -0.321003 0
M  V30 1340 C 132.68 0.587121 -3.52545 0
M  V30 1341 C 132.346 -0.575472 -4.47213 0
M  V30 1342 C 131.008 -0.894497 -4.72813 0
M  V30 1343 C 133.36 -1.35489 -5.03281 0
M  V30 1344 C 130.688 -1.99511 -5.51736 0
M  V30 1345 C 133.04 -2.44583 -5.83405 0
M  V30 1346 C 131.704 -2.77033 -6.07296 0
M  V30 1347 H 130.974 0.0872526 -0.735845 0
M  V30 1348 H 133.621 -0.484859 -1.8526 0
M  V30 1349 H 131.926 1.39129 -3.66265 0
M  V30 1350 H 133.623 1.05809 -3.86789 0
M  V30 1351 H 130.213 -0.316774 -4.27428 0
M  V30 1352 H 134.397 -1.12167 -4.83459 0
M  V30 1353 H 129.653 -2.25063 -5.68469 0
M  V30 1354 H 133.827 -3.05401 -6.25862 0
M  V30 1355 H 131.454 -3.6244 -6.68237 0
M  V30 1356 N 133.029 1.57378 -0.0835403 0
M  V30 1357 C 134.445 1.57246 0.273109 0
M  V30 1358 C 134.645 1.09385 1.69225 0
M  V30 1359 O 133.701 0.765051 2.40631 0
M  V30 1360 C 135.014 3.00614 0.0720628 0
M  V30 1361 C 136.562 3.12684 0.1407 0
M  V30 1362 C 137.037 4.57989 -0.0322094 0
M  V30 1363 N 138.528 4.63194 0.0230085 0
M  V30 1364 C 139.263 5.73335 -0.0861941 0
M  V30 1365 N 138.759 6.9235 -0.24958 0
M  V30 1366 N 140.552 5.62093 -0.0282886 0
M  V30 1367 H 132.703 1.86801 -1.0109 0
M  V30 1368 H 134.966 0.861687 -0.395222 0
M  V30 1369 H 134.672 3.39786 -0.907662 0
M  V30 1370 H 134.546 3.68193 0.81936 0
M  V30 1371 H 136.933 2.73391 1.11092 0
M  V30 1372 H 137.014 2.47719 -0.637896 0
M  V30 1373 H 136.658 4.97973 -0.999247 0
M  V30 1374 H 136.588 5.21 0.765937 0
M  V30 1375 H 139.079 3.77613 0.14722 0
M  V30 1376 H 139.392 7.72117 -0.324733 0
M  V30 1377 H 137.737 6.94415 -0.285097 0
M  V30 1378 H 140.928 4.67997 0.0981408 0
M  V30 1379 H 141.101 6.47895 -0.116845 0
M  V30 1380 N 134.507 -0.190092 1.56449 0
M  V30 1381 C 135.437 -1.23816 1.97969 0
M  V30 1382 C 136.418 -1.47201 0.852395 0
M  V30 1383 O 137.603 -1.58854 1.1171 0
M  V30 1384 C 134.733 -2.5813 2.3235 0
M  V30 1385 C 133.687 -2.49348 3.47864 0
M  V30 1386 C 133.013 -3.8798 3.67934 0
M  V30 1387 C 134.313 -2.01424 4.81898 0
M  V30 1388 H 136.007 -0.89311 2.85769 0
M  V30 1389 H 133.553 -0.428177 1.37487 0
M  V30 1390 H 135.506 -3.31637 2.59991 0
M  V30 1391 H 134.23 -2.94386 1.41438 0
M  V30 1392 H 132.889 -1.78297 3.20321 0
M  V30 1393 H 132.537 -4.21597 2.74344 0
M  V30 1394 H 132.237 -3.82978 4.45648 0
M  V30 1395 H 133.761 -4.63101 3.97957 0
M  V30 1396 H 135.175 -2.64693 5.08538 0
M  V30 1397 H 133.572 -2.07413 5.63116 0
M  V30 1398 H 134.642 -0.967677 4.75146 0
M  V30 1399 N 135.985 -1.50799 -0.457987 0
M  V30 1400 C 137.215 -1.65977 -1.23025 0
M  V30 1401 C 137.623 -0.347918 -1.85974 0
M  V30 1402 O 136.966 0.68148 -1.70592 0
M  V30 1403 C 137.028 -2.70309 -2.3701 0
M  V30 1404 C 136.692 -4.135 -1.94594 0
M  V30 1405 C 137.689 -4.98949 -1.46101 0
M  V30 1406 C 135.374 -4.5949 -2.02915 0
M  V30 1407 C 137.368 -6.28442 -1.06489 0
M  V30 1408 C 135.055 -5.88984 -1.62914 0
M  V30 1409 C 136.053 -6.73286 -1.1478 0
M  V30 1410 O 135.741 -8.00362 -0.75339 0
M  V30 1411 H 135.473 -0.56064 -0.377702 0
M  V30 1412 H 138.027 -1.97857 -0.551537 0
M  V30 1413 H 136.257 -2.337 -3.08093 0
M  V30 1414 H 137.946 -2.74574 -2.98938 0
M  V30 1415 H 138.712 -4.6463 -1.39084 0
M  V30 1416 H 134.591 -3.94009 -2.39328 0
M  V30 1417 H 138.135 -6.94194 -0.688488 0
M  V30 1418 H 134.032 -6.22822 -1.69595 0
M  V30 1419 H 134.8 -8.13744 -0.88108 0
M  V30 1420 N 137.463 0.71206 -1.40597 0
M  V30 1421 C 138.373 1.8562 -1.43466 0
M  V30 1422 C 139.389 1.70902 -0.326902 0
M  V30 1423 O 140.565 1.93105 -0.572043 0
M  V30 1424 C 137.63 3.21451 -1.29884 0
M  V30 1425 C 136.691 3.48398 -2.50833 0
M  V30 1426 C 135.924 4.77749 -2.3789 0
M  V30 1427 O 136.147 5.53089 -1.39459 0
M  V30 1428 O 135.081 5.05111 -3.27333 0
M  V30 1429 H 138.907 1.86155 -2.39958 0
M  V30 1430 H 136.492 0.86295 -1.21957 0
M  V30 1431 H 138.374 4.02579 -1.24531 0
M  V30 1432 H 137.049 3.21636 -0.364997 0
M  V30 1433 H 135.956 2.67265 -2.61763 0
M  V30 1434 H 137.289 3.53014 -3.4299 0
M  V30 1435 N 138.941 1.26152 0.944643 0
M  V30 1436 C 139.871 1.09902 2.06019 0
M  V30 1437 C 140.852 0.00519538 1.70099 0
M  V30 1438 O 142.037 0.176583 1.93396 0
M  V30 1439 C 139.167 0.727562 3.39594 0
M  V30 1440 C 138.121 1.77274 3.89561 0
M  V30 1441 C 137.447 1.25569 5.19747 0
M  V30 1442 C 138.747 3.17357 4.14827 0
M  V30 1443 H 140.441 2.03217 2.19871 0
M  V30 1444 H 137.987 0.978452 1.05652 0
M  V30 1445 H 139.94 0.600777 4.17095 0
M  V30 1446 H 138.664 -0.241287 3.25707 0
M  V30 1447 H 137.323 1.88814 3.14237 0
M  V30 1448 H 136.971 0.276783 5.02238 0
M  V30 1449 H 136.671 1.95433 5.54148 0
M  V30 1450 H 138.195 1.1415 5.99835 0
M  V30 1451 H 139.609 3.08914 4.82954 0
M  V30 1452 H 138.006 3.84781 4.60504 0
M  V30 1453 H 139.076 3.63673 3.20734 0
M  V30 1454 N 140.419 -1.14872 1.07899 0
M  V30 1455 C 141.367 -2.21857 0.698727 0
M  V30 1456 C 142.361 -1.66845 -0.293086 0
M  V30 1457 O 143.567 -1.79321 -0.156204 0
M  V30 1458 H 139.942 -0.722691 0.207899 0
M  V30 1459 H 141.913 -2.51205 1.61054 0
M  V30 1460 C 140.662 -3.47498 0.11858 0
M  V30 1461 H 139.985 -3.90154 0.872914 0
M  V30 1462 H 141.425 -4.23858 -0.109759 0
M  V30 1463 C 139.884 -3.16947 -1.1422 0
M  V30 1464 O 140.414 -3.3426 -2.22785 0
M  V30 1465 N 138.62 -2.70946 -1.05055 0
M  V30 1466 H 138.167 -2.57058 -0.167038 0
M  V30 1467 H 138.125 -2.50879 -1.89491 0
M  V30 1468 N 141.898 -0.863906 -1.31812 0
M  V30 1469 C 142.845 -0.313303 -2.28664 0
M  V30 1470 C 143.815 0.584868 -1.55462 0
M  V30 1471 O 145 0.517805 -1.83639 0
M  V30 1472 C 142.14 0.48441 -3.41683 0
M  V30 1473 C 141.253 -0.440594 -4.29747 0
M  V30 1474 C 140.388 0.370652 -5.29905 0
M  V30 1475 C 139.427 -0.551164 -6.09613 0
M  V30 1476 N 138.564 0.223462 -7.01744 0
M  V30 1477 H 143.404 -1.14444 -2.75148 0
M  V30 1478 H 140.941 -0.575769 -1.35364 0
M  V30 1479 H 142.899 0.962627 -4.05943 0
M  V30 1480 H 141.529 1.28029 -2.96325 0
M  V30 1481 H 140.581 -1.03724 -3.65986 0
M  V30 1482 H 141.893 -1.14767 -4.85417 0
M  V30 1483 H 141.047 0.911638 -5.99812 0
M  V30 1484 H 139.786 1.11105 -4.74876 0
M  V30 1485 H 138.791 -1.10396 -5.38603 0
M  V30 1486 H 140.016 -1.29032 -6.66729 0
M  V30 1487 H 137.962 0.946787 -6.49132 0
M  V30 1488 H 137.879 -0.424399 -7.54808 0
M  V30 1489 H 139.147 0.745876 -7.75923 0
M  V30 1490 N 143.376 1.44774 -0.622745 0
M  V30 1491 C 144.653 1.95522 -0.0551974 0
M  V30 1492 C 145.033 1.5649 1.41683 0
M  V30 1493 O 144.381 0.834848 2.12703 0
M  V30 1494 C 144.591 3.4796 -0.269242 0
M  V30 1495 C 145.939 4.24306 -0.158014 0
M  V30 1496 O 146.963 3.55637 -0.200162 0
M  V30 1497 O 145.822 5.46471 -0.0558693 0
M  V30 1498 H 142.916 0.826556 0.0271015 0
M  V30 1499 H 145.462 1.54866 -0.693864 0
M  V30 1500 H 144.234 3.6939 -1.29099 0
M  V30 1501 H 143.857 3.95543 0.403966 0
M  V30 1502 N 144.854 0.36279 1.53368 0
M  V30 1503 C 146.079 -0.231226 2.06107 0
M  V30 1504 C 146.504 -1.419 1.23474 0
M  V30 1505 O 145.862 -1.79524 0.253128 0
M  V30 1506 C 145.91 -0.605523 3.5548 0
M  V30 1507 O 145.014 -1.70312 3.7559 0
M  V30 1508 H 144.355 -0.034327 0.663112 0
M  V30 1509 H 146.885 0.522584 1.97814 0
M  V30 1510 H 146.895 -0.877314 3.98456 0
M  V30 1511 H 145.57 0.263004 4.15068 0
M  V30 1512 H 144.147 -1.4271 3.44512 0
M  V30 1513 N 146.332 -1.57332 0.0918853 0
M  V30 1514 C 147.242 -2.17368 -0.882505 0
M  V30 1515 C 148.258 -1.14226 -1.31257 0
M  V30 1516 O 149.434 -1.46582 -1.38115 0
M  V30 1517 C 146.499 -2.73962 -2.12476 0
M  V30 1518 C 145.56 -3.92048 -1.7492 0
M  V30 1519 C 144.793 -4.45933 -2.93223 0
M  V30 1520 O 145.016 -3.98764 -4.07852 0
M  V30 1521 O 143.95 -5.36999 -2.71875 0
M  V30 1522 H 147.776 -3.01031 -0.40172 0
M  V30 1523 H 145.361 -1.48813 -0.132291 0
M  V30 1524 H 147.243 -3.10147 -2.85283 0
M  V30 1525 H 145.918 -1.93347 -2.59613 0
M  V30 1526 H 144.825 -3.6068 -0.993025 0
M  V30 1527 H 146.158 -4.74017 -1.32548 0
M  V30 1528 N 147.81 0.181792 -1.56548 0
M  V30 1529 C 148.74 1.22765 -1.98623 0
M  V30 1530 C 149.721 1.46747 -0.860189 0
M  V30 1531 O 150.906 1.58259 -1.12551 0
M  V30 1532 C 148.036 2.56894 -2.33715 0
M  V30 1533 C 146.99 2.475 -3.49182 0
M  V30 1534 C 146.316 3.86023 -3.69986 0
M  V30 1535 C 147.616 1.98866 -4.82959 0
M  V30 1536 H 149.31 0.877942 -2.86239 0
M  V30 1537 H 146.856 0.42088 -1.37712 0
M  V30 1538 H 148.809 3.30253 -2.61746 0
M  V30 1539 H 147.533 2.93632 -1.42997 0
M  V30 1540 H 146.192 1.76596 -3.21262 0
M  V30 1541 H 145.84 4.20136 -2.76576 0
M  V30 1542 H 145.54 3.80609 -4.47672 0
M  V30 1543 H 147.064 4.60984 -4.00407 0
M  V30 1544 H 148.478 2.61992 -5.09934 0
M  V30 1545 H 146.875 2.04424 -5.64208 0
M  V30 1546 H 147.945 0.942465 -4.75653 0
M  V30 1547 N 149.288 1.51039 0.449983 0
M  V30 1548 C 150.218 1.74379 1.55288 0
M  V30 1549 C 151.199 0.593236 1.5942 0
M  V30 1550 O 152.384 0.834625 1.7535 0
M  V30 1551 C 149.514 1.85728 2.93466 0
M  V30 1552 C 148.468 3.01078 3.04197 0
M  V30 1553 C 147.794 2.97595 4.44231 0
M  V30 1554 C 149.094 4.41254 2.7945 0
M  V30 1555 H 150.788 2.66725 1.36008 0
M  V30 1556 H 148.334 1.2835 0.652864 0
M  V30 1557 H 150.287 2.0064 3.70569 0
M  V30 1558 H 149.011 0.900207 3.13949 0
M  V30 1559 H 147.67 2.85851 2.29531 0
M  V30 1560 H 147.318 1.99691 4.61663 0
M  V30 1561 H 147.018 3.75046 4.52343 0
M  V30 1562 H 148.542 3.14583 5.23326 0
M  V30 1563 H 149.956 4.56897 3.46292 0
M  V30 1564 H 148.353 5.20315 2.98985 0
M  V30 1565 H 149.423 4.52164 1.75144 0
M  V30 1566 N 150.766 -0.704594 1.40972 0
M  V30 1567 C 152.015 -1.46018 1.39146 0
M  V30 1568 C 152.328 -1.956 0.000589254 0
M  V30 1569 O 153.534 -2.71137 -0.1403 0
M  V30 1570 C 151.99 -2.63996 2.4461 0
M  V30 1571 C 151.598 -2.21238 3.89561 0
M  V30 1572 C 153.342 -3.41677 2.51907 0
M  V30 1573 C 151.249 -3.3612 4.86598 0
M  V30 1574 H 150.179 -0.548444 0.517422 0
M  V30 1575 H 152.83 -0.765784 1.66757 0
M  V30 1576 H 151.212 -3.3566 2.10115 0
M  V30 1577 H 152.386 -1.56923 4.33257 0
M  V30 1578 H 150.701 -1.56574 3.85841 0
M  V30 1579 H 153.298 -4.27182 3.2159 0
M  V30 1580 H 153.641 -3.86247 1.55303 0
M  V30 1581 H 154.174 -2.77064 2.85448 0
M  V30 1582 H 150.913 -2.96572 5.84573 0
M  V30 1583 H 150.433 -3.99315 4.47557 0
M  V30 1584 H 152.112 -4.02029 5.06934 0
M  V30 1585 N 152.244 -1.26651 -0.937939 0
M  V30 1586 C 153.194 -1.05156 -2.02302 0
M  V30 1587 C 154.178 0.0171233 -1.60891 0
M  V30 1588 O 155.37 -0.200213 -1.75864 0
M  V30 1589 C 152.499 -0.689962 -3.36295 0
M  V30 1590 C 151.585 -1.79626 -3.84181 0
M  V30 1591 N 151.976 -3.03422 -4.04684 0
M  V30 1592 C 150.274 -1.6806 -4.13124 0
M  V30 1593 C 150.975 -3.75345 -4.444 0
M  V30 1594 N 149.951 -3.03051 -4.51288 0
M  V30 1595 H 153.753 -1.99117 -2.1617 0
M  V30 1596 H 151.267 -1.17216 -1.12402 0
M  V30 1597 H 153.264 -0.517112 -4.13681 0
M  V30 1598 H 151.924 0.242139 -3.23796 0
M  V30 1599 H 152.935 -3.39293 -3.91281 0
M  V30 1600 H 149.612 -0.818629 -4.09396 0
M  V30 1601 H 151.002 -4.81691 -4.68427 0
M  V30 1602 N 153.722 1.14298 -1.08507 0
M  V30 1603 C 154.968 1.85633 -0.816581 0
M  V30 1604 C 155.301 1.82784 0.656021 0
M  V30 1605 O 154.576 1.25926 1.48233 0
M  V30 1606 C 154.859 3.34223 -1.34041 0
M  V30 1607 C 154.712 3.45639 -2.87843 0
M  V30 1608 C 156.031 4.29356 -0.9665 0
M  V30 1609 H 153.15 0.67402 -0.298104 0
M  V30 1610 H 155.792 1.34214 -1.34487 0
M  V30 1611 H 153.942 3.78144 -0.89104 0
M  V30 1612 H 155.614 3.10498 -3.41158 0
M  V30 1613 H 153.857 2.86817 -3.25451 0
M  V30 1614 H 154.528 4.50089 -3.19569 0
M  V30 1615 H 157.004 3.93457 -1.35391 0
M  V30 1616 H 155.88 5.3178 -1.3602 0
M  V30 1617 H 156.141 4.41919 0.126362 0
M  V30 1618 N 155.201 0.870884 1.31352 0
M  V30 1619 C 156.448 0.482273 1.96673 0
M  V30 1620 C 156.776 -0.965638 1.68836 0
M  V30 1621 O 156.031 -1.69514 0.977937 0
M  V30 1622 C 156.33 0.687157 3.50732 0
M  V30 1623 C 155.996 2.108 3.9859 0
M  V30 1624 C 154.658 2.49656 4.1137 0
M  V30 1625 C 157.01 3.03459 4.23748 0
M  V30 1626 C 154.338 3.80412 4.46659 0
M  V30 1627 C 156.69 4.3373 4.60501 0
M  V30 1628 C 155.354 4.725 4.71487 0
M  V30 1629 H 154.624 0.176476 0.719679 0
M  V30 1630 H 157.271 1.10405 1.56471 0
M  V30 1631 H 155.576 -0.0177476 3.91796 0
M  V30 1632 H 157.273 0.366284 3.99324 0
M  V30 1633 H 153.863 1.79633 3.8914 0
M  V30 1634 H 158.047 2.74665 4.13368 0
M  V30 1635 H 153.303 4.1021 4.53362 0
M  V30 1636 H 157.477 5.05578 4.78919 0
M  V30 1637 H 155.104 5.73859 4.98588 0
M  V30 1638 N 156.679 -1.44442 0.630414 0
M  V30 1639 C 158.09 -1.85434 0.217063 0
M  V30 1640 C 158.441 -1.52748 -1.23136 0
M  V30 1641 O 157.566 -0.965205 -1.93682 0
M  V30 1642 C 158.161 -3.36581 0.387168 0
M  V30 1643 C 156.72 -3.76389 0.0283297 0
M  V30 1644 C 155.867 -2.68296 0.700889 0
M  V30 1645 H 158.818 -1.34919 0.83562 0
M  V30 1646 H 158.839 -3.78657 -0.374086 0
M  V30 1647 H 158.351 -3.60339 1.44144 0
M  V30 1648 H 156.452 -3.58246 -1.02423 0
M  V30 1649 H 156.565 -4.77095 0.437892 0
M  V30 1650 H 154.929 -2.54335 0.136267 0
M  V30 1651 H 155.712 -2.94887 1.75774 0
M  V30 1652 N 158.157 -0.370918 -1.53173 0
M  V30 1653 C 159.397 0.217106 -2.03244 0
M  V30 1654 C 159.761 1.45558 -1.25207 0
M  V30 1655 O 160.962 2.11957 -1.65311 0
M  V30 1656 C 159.233 0.496664 -3.53932 0
M  V30 1657 S 160.792 1.0576 -4.25864 0
M  V30 1658 H 157.61 0.0627827 -0.708223 0
M  V30 1659 H 160.212 -0.515019 -1.88594 0
M  V30 1660 H 158.916 -0.412096 -4.08326 0
M  V30 1661 H 158.447 1.25772 -3.72753 0
M  V30 1662 H 160.462 2.34145 -4.37482 0
M  V30 1663 N 159.635 1.57281 -0.100228 0
M  V30 1664 C 160.881 1.94826 0.563101 0
M  V30 1665 C 161.214 0.982475 1.67514 0
M  V30 1666 O 160.489 0.0164069 1.94493 0
M  V30 1667 C 160.772 3.42453 1.11346 0
M  V30 1668 C 160.625 4.498 0.00612081 0
M  V30 1669 C 161.944 3.91506 2.01024 0
M  V30 1670 H 159.063 0.708428 0.203221 0
M  V30 1671 H 161.705 1.8922 -0.171979 0
M  V30 1672 H 159.855 3.47361 1.7399 0
M  V30 1673 H 161.527 4.57 -0.628357 0
M  V30 1674 H 159.77 4.28756 -0.659581 0
M  V30 1675 H 160.441 5.50306 0.432109 0
M  V30 1676 H 162.917 3.88784 1.48278 0
M  V30 1677 H 161.793 4.95358 2.36457 0
M  V30 1678 H 162.054 3.31099 2.92961 0
M  V30 1679 N 161.113 -0.173488 1.56642 0
M  V30 1680 C 162.524 -0.736155 1.71574 0
M  V30 1681 C 162.875 -1.82888 0.710389 0
M  V30 1682 O 162 -2.16017 -0.1287 0
M  V30 1683 C 162.595 -1.34211 3.11083 0
M  V30 1684 C 161.154 -1.85162 3.27707 0
M  V30 1685 C 160.301 -0.729765 2.67525 0
M  V30 1686 H 163.252 0.0518786 1.58615 0
M  V30 1687 H 163.273 -2.21178 3.09613 0
M  V30 1688 H 162.785 -0.546579 3.84232 0
M  V30 1689 H 160.886 -2.67366 2.59512 0
M  V30 1690 H 160.999 -1.99855 4.35425 0
M  V30 1691 H 159.363 -1.14965 2.27278 0
M  V30 1692 H 160.146 0.0538806 3.43258 0
M  V30 1693 N 162.591 -1.51276 -0.441967 0
M  V30 1694 C 163.501 -1.75092 -1.56141 0
M  V30 1695 C 164.517 -0.634963 -1.62001 0
M  V30 1696 O 165.693 -0.916686 -1.79329 0
M  V30 1697 C 162.758 -1.86666 -2.92158 0
M  V30 1698 C 161.819 -3.10506 -2.96453 0
M  V30 1699 C 161.052 -3.21519 -4.25982 0
M  V30 1700 O 161.275 -2.38586 -5.18105 0
M  V30 1701 O 160.209 -4.14465 -4.36466 0
M  V30 1702 H 164.035 -2.70044 -1.38961 0
M  V30 1703 H 161.62 -1.35722 -0.624499 0
M  V30 1704 H 163.502 -1.96292 -3.72891 0
M  V30 1705 H 162.177 -0.949014 -3.09476 0
M  V30 1706 H 161.084 -3.06363 -2.14692 0
M  V30 1707 H 162.417 -4.01945 -2.84079 0
M  V30 1708 N 164.069 0.697108 -1.41344 0
M  V30 1709 C 165.485 1.00751 -1.2378 0
M  V30 1710 C 165.685 2.01105 -0.126066 0
M  V30 1711 O 164.741 2.47295 0.51004 0
M  V30 1712 C 166.054 1.53359 -2.58653 0
M  V30 1713 C 167.602 1.6525 -2.65822 0
M  V30 1714 C 168.077 2.2126 -4.01009 0
M  V30 1715 N 169.568 2.28622 -4.02847 0
M  V30 1716 C 170.303 2.72984 -5.04249 0
M  V30 1717 N 169.799 3.16962 -6.16041 0
M  V30 1718 N 171.592 2.72534 -4.91611 0
M  V30 1719 H 163.743 0.0322662 -2.12375 0
M  V30 1720 H 166.006 0.0768853 -0.944877 0
M  V30 1721 H 165.712 0.870773 -3.4075 0
M  V30 1722 H 165.586 2.51597 -2.81032 0
M  V30 1723 H 167.973 2.30644 -1.84086 0
M  V30 1724 H 168.054 0.655614 -2.47256 0
M  V30 1725 H 167.698 1.56482 -4.83193 0
M  V30 1726 H 167.628 3.21698 -4.16915 0
M  V30 1727 H 170.119 1.97585 -3.22131 0
M  V30 1728 H 170.432 3.49434 -6.89287 0
M  V30 1729 H 168.777 3.14875 -6.1958 0
M  V30 1730 H 171.968 2.37525 -4.0336 0
M  V30 1731 H 172.141 3.06789 -5.70775 0
M  V30 1732 N 165.547 1.27147 0.931209 0
M  V30 1733 C 166.958 1.12044 1.49342 0
M  V30 1734 C 167.309 -0.295795 1.93957 0
M  V30 1735 O 166.434 -1.18835 1.80852 0
M  V30 1736 C 167.029 2.02781 2.71414 0
M  V30 1737 C 165.588 1.91794 3.2387 0
M  V30 1738 C 164.735 1.95543 1.96617 0
M  V30 1739 H 167.686 1.40091 0.745672 0
M  V30 1740 H 167.707 1.58156 3.46074 0
M  V30 1741 H 167.219 3.05848 2.38911 0
M  V30 1742 H 165.32 0.916992 3.6114 0
M  V30 1743 H 165.433 2.77852 3.90302 0
M  V30 1744 H 163.797 1.39722 2.12955 0
M  V30 1745 H 164.58 3.00259 1.66432 0
M  V30 1746 N 167.025 -1.13721 1.09112 0
M  V30 1747 C 168.273 -1.84559 0.823562 0
M  V30 1748 C 168.594 -1.83754 -0.652658 0
M  V30 1749 O 167.864 -1.29102 -1.47342 0
M  V30 1750 H 166.444 -0.683376 0.301673 0
M  V30 1751 H 169.106 -1.37771 1.37859 0
M  V30 1752 H 168.202 -2.8917 1.17419 0
M  V30 1753 N 168.503 -0.877838 -1.30888 0
M  V30 1754 C 169.436 -0.283995 -2.26426 0
M  V30 1755 C 170.414 0.591361 -1.51465 0
M  V30 1756 O 171.598 0.54304 -1.80509 0
M  V30 1757 C 168.725 0.597129 -3.33395 0
M  V30 1758 C 167.771 -0.207937 -4.25993 0
M  V30 1759 S 168.604 -1.59158 -5.11301 0
M  V30 1760 C 169.76 -0.716791 -6.21782 0
M  V30 1761 H 169.993 -1.09383 -2.76446 0
M  V30 1762 H 167.526 -0.676828 -1.38775 0
M  V30 1763 H 169.484 1.09978 -3.95493 0
M  V30 1764 H 168.145 1.38099 -2.82113 0
M  V30 1765 H 167.338 0.464163 -5.01858 0
M  V30 1766 H 166.94 -0.642963 -3.68432 0
M  V30 1767 H 169.232 0.0692833 -6.77465 0
M  V30 1768 H 170.175 -1.44682 -6.93161 0
M  V30 1769 H 170.583 -0.280855 -5.63801 0
M  V30 1770 N 169.982 1.44106 -0.638065 0
M  V30 1771 C 171.393 1.85316 -0.226894 0
M  V30 1772 C 171.744 1.53399 1.22324 0
M  V30 1773 O 170.869 0.975463 1.93167 0
M  V30 1774 C 171.464 3.3637 -0.405013 0
M  V30 1775 C 170.023 3.76369 -0.0482902 0
M  V30 1776 C 169.17 2.67921 -0.715108 0
M  V30 1777 H 172.121 1.34474 -0.842764 0
M  V30 1778 H 172.142 3.7885 0.354 0
M  V30 1779 H 171.654 3.59569 -1.46053 0
M  V30 1780 H 169.755 3.58784 1.00522 0
M  V30 1781 H 169.868 4.76856 -0.463187 0
M  V30 1782 H 168.232 2.54259 -0.149753 0
M  V30 1783 H 169.015 2.93951 -1.77335 0
M  V30 1784 N 171.46 0.379036 1.52974 0
M  V30 1785 C 172.7 -0.206325 2.03356 0
M  V30 1786 C 173.064 -1.44892 1.25977 0
M  V30 1787 O 174.265 -2.11078 1.66432 0
M  V30 1788 C 172.536 -0.477887 3.54191 0
M  V30 1789 S 174.095 -1.035 4.26419 0
M  V30 1790 H 170.913 -0.0590259 0.708546 0
M  V30 1791 H 173.515 0.525013 1.88319 0
M  V30 1792 H 172.219 0.433745 4.08101 0
M  V30 1793 H 171.75 -1.23793 3.73415 0
M  V30 1794 H 173.765 -2.31821 4.38718 0
M  V30 1795 N 172.938 -1.57226 0.108567 0
M  V30 1796 C 174.349 -1.8195 -0.418464 0
M  V30 1797 C 174.7 -1.02508 -1.67292 0
M  V30 1798 O 173.825 -0.258496 -2.14851 0
M  V30 1799 C 174.42 -3.30028 -0.765979 0
M  V30 1800 C 172.979 -3.55469 -1.23769 0
M  V30 1801 C 172.126 -2.7625 -0.241106 0
M  V30 1802 H 175.077 -1.55149 0.33384 0
M  V30 1803 H 175.098 -3.44086 -1.62434 0
M  V30 1804 H 174.61 -3.87821 0.147219 0
M  V30 1805 H 172.711 -3.03022 -2.16814 0
M  V30 1806 H 172.824 -4.6408 -1.19022 0
M  V30 1807 H 171.188 -2.44133 -0.72602 0
M  V30 1808 H 171.971 -3.36797 0.665007 0
M  V30 1809 N 174.416 0.165178 -1.56732 0
M  V30 1810 C 175.664 0.879068 -1.8198 0
M  V30 1811 C 175.985 1.82514 -0.686561 0
M  V30 1812 O 175.255 1.93694 0.293146 0
M  V30 1813 H 173.835 0.327608 -0.671329 0
M  V30 1814 H 176.497 0.163526 -1.94213 0
M  V30 1815 H 175.593 1.45228 -2.76252 0
M  V30 1816 N 175.894 1.51508 0.433938 0
M  V30 1817 C 176.804 1.75917 1.5521 0
M  V30 1818 C 177.82 0.643545 1.61662 0
M  V30 1819 O 178.996 0.926183 1.7884 0
M  V30 1820 C 176.061 1.88213 2.91164 0
M  V30 1821 C 175.122 3.12074 2.94802 0
M  V30 1822 C 174.355 3.23774 4.24271 0
M  V30 1823 O 174.578 2.4133 5.16833 0
M  V30 1824 O 173.512 4.16774 4.34262 0
M  V30 1825 H 177.338 2.70777 1.37527 0
M  V30 1826 H 174.923 1.36051 0.617293 0
M  V30 1827 H 176.805 1.98267 3.71845 0
M  V30 1828 H 175.48 0.965413 3.08968 0
M  V30 1829 H 174.387 3.07497 2.13065 0
M  V30 1830 H 175.72 4.03446 2.81943 0
M  V30 1831 N 177.372 -0.689602 1.41712 0
M  V30 1832 C 178.649 -1.44457 1.31877 0
M  V30 1833 C 179.029 -2.11039 -0.0508537 0
M  V30 1834 O 178.377 -2.02138 -1.06547 0
M  V30 1835 C 178.587 -2.45913 2.47645 0
M  V30 1836 C 179.935 -3.10991 2.89084 0
M  V30 1837 O 180.959 -2.56238 2.47428 0
M  V30 1838 O 179.818 -4.10174 3.61137 0
M  V30 1839 H 176.912 -0.64362 0.519309 0
M  V30 1840 H 179.458 -0.719576 1.53689 0
M  V30 1841 H 178.23 -1.95409 3.39015 0
M  V30 1842 H 177.853 -3.25913 2.27742 0
M  V30 1843 N 178.85 -1.27639 -0.924453 0
M  V30 1844 C 179.797 -1.10644 -2.0255 0
M  V30 1845 C 180.767 -0.00658438 -1.66099 0
M  V30 1846 O 181.952 -0.16952 -1.90045 0
M  V30 1847 C 179.092 -0.76309 -3.36557 0
M  V30 1848 C 178.205 -1.94091 -3.85944 0
M  V30 1849 C 177.34 -1.53914 -5.08413 0
M  V30 1850 C 176.379 -2.68425 -5.50104 0
M  V30 1851 N 175.516 -2.28815 -6.63768 0
M  V30 1852 H 180.356 -2.04858 -2.16419 0
M  V30 1853 H 177.893 -1.01974 -1.06017 0
M  V30 1854 H 179.851 -0.544822 -4.13627 0
M  V30 1855 H 178.481 0.142102 -3.22487 0
M  V30 1856 H 177.533 -2.27162 -3.05125 0
M  V30 1857 H 178.845 -2.7998 -4.12811 0
M  V30 1858 H 177.999 -1.28231 -5.92994 0
M  V30 1859 H 176.738 -0.651391 -4.8333 0
M  V30 1860 H 175.743 -2.94819 -4.64071 0
M  V30 1861 H 176.968 -3.57826 -5.7718 0
M  V30 1862 H 174.914 -1.42495 -6.40337 0
M  V30 1863 H 174.831 -3.08242 -6.90306 0
M  V30 1864 H 176.099 -2.06387 -7.51681 0
M  V30 1865 N 180.328 1.1314 -1.09713 0
M  V30 1866 C 181.553 1.88862 -0.857081 0
M  V30 1867 C 181.978 1.78729 0.586304 0
M  V30 1868 O 181.336 1.13692 1.41222 0
M  V30 1869 C 181.384 3.36325 -1.30069 0
M  V30 1870 O 180.488 4.09815 -0.461007 0
M  V30 1871 H 179.829 0.587108 -0.310162 0
M  V30 1872 H 182.359 1.43129 -1.46203 0
M  V30 1873 H 182.369 3.87157 -1.28738 0
M  V30 1874 H 181.044 3.43017 -2.35185 0
M  V30 1875 H 179.621 3.68986 -0.538888 0
M  V30 1876 N 181.806 0.884767 1.30421 0
M  V30 1877 C 183.055 0.499164 1.95426 0
M  V30 1878 C 183.368 -0.95645 1.70621 0
M  V30 1879 O 184.574 -1.44889 2.29607 0
M  V30 1880 C 183.03 0.84177 3.49917 0
M  V30 1881 C 182.638 2.31514 3.83543 0
M  V30 1882 C 184.382 0.525355 4.21237 0
M  V30 1883 C 182.289 2.59939 5.31212 0
M  V30 1884 H 181.219 0.182944 0.73147 0
M  V30 1885 H 183.87 1.07971 1.48373 0
M  V30 1886 H 182.252 0.190311 3.95542 0
M  V30 1887 H 183.426 3.0109 3.48829 0
M  V30 1888 H 181.741 2.59907 3.25326 0
M  V30 1889 H 184.338 0.714762 5.29901 0
M  V30 1890 H 184.681 -0.535222 4.12845 0
M  V30 1891 H 185.214 1.134 3.81294 0
M  V30 1892 H 181.953 3.64736 5.44654 0
M  V30 1893 H 181.473 1.94972 5.67227 0
M  V30 1894 H 183.152 2.45429 5.98643 0
M  V30 1895 N 183.284 -1.43765 0.645699 0
M  V30 1896 C 184.514 -2.05953 0.163318 0
M  V30 1897 C 184.922 -1.48432 -1.17322 0
M  V30 1898 O 184.265 -0.607295 -1.73371 0
M  V30 1899 C 184.327 -3.59499 -0.0103065 0
M  V30 1900 C 183.991 -4.39563 1.25035 0
M  V30 1901 C 184.988 -4.72108 2.17739 0
M  V30 1902 C 182.673 -4.79697 1.48983 0
M  V30 1903 C 184.667 -5.43688 3.3269 0
M  V30 1904 C 182.354 -5.51023 2.64229 0
M  V30 1905 C 183.352 -5.8294 3.55908 0
M  V30 1906 O 183.04 -6.5281 4.69142 0
M  V30 1907 H 182.772 -0.670798 0.0836986 0
M  V30 1908 H 185.326 -1.85384 0.884407 0
M  V30 1909 H 183.556 -3.78613 -0.78669 0
M  V30 1910 H 185.245 -4.03408 -0.449087 0
M  V30 1911 H 186.011 -4.41627 2.00476 0
M  V30 1912 H 181.89 -4.54266 0.785078 0
M  V30 1913 H 185.434 -5.68517 4.04269 0
M  V30 1914 H 181.331 -5.8092 2.81429 0
M  V30 1915 H 182.099 -6.71288 4.6831 0
M  V30 1916 N 184.763 -0.387143 -1.52771 0
M  V30 1917 C 186.179 -0.037007 -1.59557 0
M  V30 1918 C 186.379 1.44801 -1.40124 0
M  V30 1919 O 185.435 2.21227 -1.21716 0
M  V30 1920 C 186.748 -0.512256 -2.96305 0
M  V30 1921 C 188.296 -0.468328 -3.09476 0
M  V30 1922 C 188.771 -0.919731 -4.4867 0
M  V30 1923 N 190.262 -0.875656 -4.54848 0
M  V30 1924 C 190.997 -1.19637 -5.6078 0
M  V30 1925 N 190.493 -1.58745 -6.74368 0
M  V30 1926 N 192.286 -1.11776 -5.50874 0
M  V30 1927 H 184.437 -1.35395 -1.63652 0
M  V30 1928 H 186.7 -0.554818 -0.768688 0
M  V30 1929 H 186.406 -1.54935 -3.15734 0
M  V30 1930 H 186.28 0.089805 -3.77093 0
M  V30 1931 H 188.667 0.559671 -2.89744 0
M  V30 1932 H 188.748 -1.10616 -2.30646 0
M  V30 1933 H 188.392 -1.94595 -4.69143 0
M  V30 1934 H 188.322 -0.258927 -5.25963 0
M  V30 1935 H 190.813 -0.587843 -3.733 0
M  V30 1936 H 191.126 -1.81586 -7.51163 0
M  V30 1937 H 189.471 -1.6263 -6.75705 0
M  V30 1938 H 192.662 -0.811264 -4.61016 0
M  V30 1939 H 192.835 -1.37103 -6.3333 0
M  V30 1940 N 186.241 1.57166 -0.116904 0
M  V30 1941 C 187.657 1.5779 0.239693 0
M  V30 1942 C 187.857 1.1295 1.66867 0
M  V30 1943 O 186.913 0.81592 2.38954 0
M  V30 1944 C 188.226 3.00699 0.00828202 0
M  V30 1945 C 189.774 3.12912 0.0743438 0
M  V30 1946 C 190.249 4.57817 -0.129348 0
M  V30 1947 N 191.74 4.63139 -0.075247 0
M  V30 1948 C 192.475 5.73023 -0.207788 0
M  V30 1949 N 191.971 6.91665 -0.396382 0
M  V30 1950 N 193.764 5.61906 -0.14751 0
M  V30 1951 H 185.915 1.84615 -1.05029 0
M  V30 1952 H 188.178 0.85311 -0.41341 0
M  V30 1953 H 187.884 3.37784 -0.979531 0
M  V30 1954 H 187.758 3.69848 0.741077 0
M  V30 1955 H 190.145 2.75686 1.05268 0
M  V30 1956 H 190.226 2.4631 -0.690297 0
M  V30 1957 H 189.87 4.95742 -1.10465 0
M  V30 1958 H 189.8 5.22507 0.655253 0
M  V30 1959 H 192.291 3.7784 0.0670898 0
M  V30 1960 H 192.604 7.71255 -0.488437 0
M  V30 1961 H 190.949 6.93654 -0.432329 0
M  V30 1962 H 194.14 4.681 -0.00115036 0
M  V30 1963 H 194.313 6.47501 -0.254247 0
M  V30 1964 N 187.719 -0.156864 1.56817 0
M  V30 1965 C 188.967 -0.869404 1.82444 0
M  V30 1966 C 189.288 -1.82147 0.69623 0
M  V30 1967 O 188.558 -1.93847 -0.28287 0
M  V30 1968 H 187.138 -0.324043 0.673056 0
M  V30 1969 H 189.8 -0.153224 1.94297 0
M  V30 1970 H 188.896 -1.43761 2.77019 0
M  V30 1971 N 189.197 -1.51736 -0.425897 0
M  V30 1972 C 190.16 -1.73271 -1.50032 0
M  V30 1973 C 191.16 -0.602639 -1.4908 0
M  V30 1974 O 192.35 -0.87033 -1.509 0
M  V30 1975 C 189.482 -1.79969 -2.89523 0
M  V30 1976 H 190.675 -2.69172 -1.32237 0
M  V30 1977 H 188.228 -1.41899 -0.65532 0
M  V30 1978 H 188.963 -0.859241 -3.1271 0
M  V30 1979 H 188.748 -2.62109 -2.91619 0
M  V30 1980 H 190.238 -1.9843 -3.67444 0
M  V30 1981 N 190.675 0.682077 -1.42076 0
M  V30 1982 C 192.091 0.994324 -1.24841 0
M  V30 1983 C 192.291 2.0096 -0.147389 0
M  V30 1984 O 191.347 2.47822 0.483782 0
M  V30 1985 C 192.66 1.50607 -2.60265 0
M  V30 1986 C 194.208 1.62421 -2.6756 0
M  V30 1987 C 194.683 2.16994 -4.03333 0
M  V30 1988 N 196.174 2.24337 -4.0525 0
M  V30 1989 C 196.909 2.67621 -5.07116 0
M  V30 1990 N 196.405 3.1041 -6.19368 0
M  V30 1991 N 198.198 2.67305 -4.94474 0
M  V30 1992 H 190.349 0.00973908 -2.12398 0
M  V30 1993 H 192.612 0.0668593 -0.945639 0
M  V30 1994 H 192.318 0.834583 -3.41654 0
M  V30 1995 H 192.192 2.48602 -2.83684 0
M  V30 1996 H 194.579 2.28678 -1.86521 0
M  V30 1997 H 194.66 0.629352 -2.47937 0
M  V30 1998 H 194.304 1.51349 -4.84826 0
M  V30 1999 H 194.234 3.17258 -4.20304 0
M  V30 2000 H 196.725 1.94158 -3.24209 0
M  V30 2001 H 197.038 3.42103 -6.92954 0
M  V30 2002 H 195.383 3.08286 -6.22884 0
M  V30 2003 H 198.574 2.33233 -4.05857 0
M  V30 2004 H 198.747 3.00718 -5.73997 0
M  V30 2005 N 192.153 1.28127 0.917671 0
M  V30 2006 C 193.569 1.05749 1.19538 0
M  V30 2007 C 193.769 -0.202633 2.00479 0
M  V30 2008 O 192.825 -0.905382 2.3571 0
M  V30 2009 C 194.138 2.30273 1.93378 0
M  V30 2010 C 195.686 2.35412 2.06277 0
M  V30 2011 C 196.161 3.59692 2.83524 0
M  V30 2012 N 197.652 3.60309 2.91087 0
M  V30 2013 C 198.387 4.53147 3.51348 0
M  V30 2014 N 197.883 5.563 4.12919 0
M  V30 2015 N 199.676 4.40751 3.48849 0
M  V30 2016 H 191.827 2.09024 0.377184 0
M  V30 2017 H 194.09 0.919798 0.22951 0
M  V30 2018 H 193.796 3.22055 1.41328 0
M  V30 2019 H 193.67 2.36378 2.93947 0
M  V30 2020 H 196.057 1.4413 2.57508 0
M  V30 2021 H 196.138 2.33304 1.04895 0
M  V30 2022 H 195.782 4.51316 2.32973 0
M  V30 2023 H 195.712 3.59054 3.85211 0
M  V30 2024 H 198.203 2.85714 2.47338 0
M  V30 2025 H 198.516 6.2329 4.56869 0
M  V30 2026 H 196.861 5.60131 4.11435 0
M  V30 2027 H 200.052 3.59367 2.99955 0
M  V30 2028 H 200.225 5.13291 3.9552 0
M  V30 2029 N 193.631 -1.12557 1.10312 0
M  V30 2030 C 194.877 -1.84515 0.855901 0
M  V30 2031 C 195.232 -1.82409 -0.611936 0
M  V30 2032 O 194.525 -1.25778 -1.44535 0
M  V30 2033 C 194.719 -3.31462 1.33669 0
M  V30 2034 C 194.548 -3.47879 2.84974 0
M  V30 2035 C 193.318 -3.61589 3.52961 0
M  V30 2036 C 195.516 -3.43152 3.83081 0
M  V30 2037 N 193.498 -3.66359 4.926 0
M  V30 2038 C 194.869 -3.54401 5.08724 0
M  V30 2039 C 196.924 -3.2661 3.75807 0
M  V30 2040 C 195.627 -3.50815 6.2795 0
M  V30 2041 C 197.653 -3.24335 4.94531 0
M  V30 2042 C 197.015 -3.36144 6.19021 0
M  V30 2043 H 193.114 -0.690967 0.366182 0
M  V30 2044 H 195.698 -1.34763 1.40524 0
M  V30 2045 H 193.869 -3.7976 0.814686 0
M  V30 2046 H 195.601 -3.91272 1.03385 0
M  V30 2047 H 192.356 -3.63652 3.03404 0
M  V30 2048 H 192.78 -3.72411 5.65366 0
M  V30 2049 H 197.422 -3.16375 2.80476 0
M  V30 2050 H 195.14 -3.5982 7.23571 0
M  V30 2051 H 198.726 -3.12719 4.9061 0
M  V30 2052 H 197.606 -3.34357 7.09348 0
M  V30 2053 N 195.109 -0.891671 -1.2995 0
M  V30 2054 C 196.525 -0.58662 -1.48428 0
M  V30 2055 C 196.725 0.873951 -1.81561 0
M  V30 2056 O 195.781 1.65471 -1.90724 0
M  V30 2057 C 197.094 -1.50553 -2.60296 0
M  V30 2058 C 198.642 -1.50988 -2.74175 0
M  V30 2059 C 199.117 -2.41488 -3.89163 0
M  V30 2060 N 200.608 -2.39489 -3.96483 0
M  V30 2061 C 201.343 -3.06223 -4.84784 0
M  V30 2062 N 200.839 -3.82206 -5.77833 0
M  V30 2063 N 202.632 -2.95421 -4.78208 0
M  V30 2064 H 194.783 -1.83644 -1.06718 0
M  V30 2065 H 197.046 -0.786455 -0.529332 0
M  V30 2066 H 196.752 -2.54581 -2.42654 0
M  V30 2067 H 196.626 -1.22008 -3.56923 0
M  V30 2068 H 199.013 -0.47708 -2.91218 0
M  V30 2069 H 199.094 -1.83567 -1.78148 0
M  V30 2070 H 198.738 -3.44857 -3.72876 0
M  V30 2071 H 198.668 -2.06222 -4.84541 0
M  V30 2072 H 201.159 -1.84278 -3.29924 0
M  V30 2073 H 201.472 -4.302 -6.41988 0
M  V30 2074 H 199.817 -3.86313 -5.77743 0
M  V30 2075 H 203.008 -2.35581 -4.04499 0
M  V30 2076 H 203.181 -3.47704 -5.46814 0
M  V30 2077 N 196.587 1.43421 -0.653314 0
M  V30 2078 C 197.534 2.30768 0.0382271 0
M  V30 2079 C 198.504 1.44755 0.814576 0
M  V30 2080 O 199.689 1.73624 0.791162 0
M  V30 2081 C 196.829 3.30336 0.998599 0
M  V30 2082 C 195.942 4.31448 0.218342 0
M  V30 2083 C 195.077 5.18098 1.17252 0
M  V30 2084 C 194.116 6.10902 0.382702 0
M  V30 2085 N 193.253 6.90176 1.28848 0
M  V30 2086 H 198.093 2.89357 -0.712511 0
M  V30 2087 H 195.63 1.42548 -0.363128 0
M  V30 2088 H 197.588 3.86572 1.56901 0
M  V30 2089 H 196.218 2.73397 1.71621 0
M  V30 2090 H 195.27 3.77506 -0.46836 0
M  V30 2091 H 196.582 4.97227 -0.395812 0
M  V30 2092 H 195.736 5.7896 1.81356 0
M  V30 2093 H 194.475 4.52444 1.82058 0
M  V30 2094 H 193.48 5.49128 -0.27169 0
M  V30 2095 H 194.705 6.78598 -0.260957 0
M  V30 2096 H 192.651 6.27171 1.92334 0
M  V30 2097 H 192.568 7.52478 0.728887 0
M  V30 2098 H 193.836 7.55543 1.91766 0
M  V30 2099 N 198.065 0.39524 1.52563 0
M  V30 2100 C 198.995 -0.428384 2.29537 0
M  V30 2101 C 199.976 -1.05831 1.33169 0
M  V30 2102 O 201.161 -1.06995 1.62067 0
M  V30 2103 C 198.291 -1.55274 3.10656 0
M  V30 2104 C 197.245 -1.04855 4.14957 0
M  V30 2105 C 196.571 -2.26543 4.84337 0
M  V30 2106 C 197.871 -0.112324 5.22179 0
M  V30 2107 H 199.565 0.213867 2.98635 0
M  V30 2108 H 197.111 0.104298 1.43622 0
M  V30 2109 H 199.064 -2.1358 3.63265 0
M  V30 2110 H 197.788 -2.22266 2.39302 0
M  V30 2111 H 196.447 -0.487985 3.63338 0
M  V30 2112 H 196.095 -2.92059 4.09525 0
M  V30 2113 H 195.795 -1.93466 5.54837 0
M  V30 2114 H 197.319 -2.85481 5.39753 0
M  V30 2115 H 198.733 -0.603752 5.70112 0
M  V30 2116 H 197.13 0.128968 5.99961 0
M  V30 2117 H 198.2 0.837052 4.77621 0
M  V30 2118 N 199.544 -1.57102 0.125237 0
M  V30 2119 C 200.774 -1.99472 -0.538015 0
M  V30 2120 C 201.182 -1.00395 -1.60366 0
M  V30 2121 O 200.525 0.0103875 -1.83697 0
M  V30 2122 C 200.587 -3.38262 -1.21734 0
M  V30 2123 C 200.251 -4.56021 -0.298897 0
M  V30 2124 C 201.248 -5.17817 0.464943 0
M  V30 2125 C 198.933 -5.01869 -0.208149 0
M  V30 2126 C 200.927 -6.23852 1.3072 0
M  V30 2127 C 198.614 -6.07763 0.637736 0
M  V30 2128 C 199.612 -6.68622 1.39403 0
M  V30 2129 O 199.3 -7.7247 2.22586 0
M  V30 2130 H 199.032 -0.659934 -0.146501 0
M  V30 2131 H 201.586 -2.04321 0.210267 0
M  V30 2132 H 199.816 -3.30185 -2.01282 0
M  V30 2133 H 201.505 -3.6488 -1.77813 0
M  V30 2134 H 202.271 -4.83308 0.404741 0
M  V30 2135 H 198.15 -4.54241 -0.786522 0
M  V30 2136 H 201.694 -6.71284 1.898 0
M  V30 2137 H 197.591 -6.41701 0.699309 0
M  V30 2138 H 198.359 -7.89595 2.15596 0
M  V30 2139 N 201.022 0.148545 -1.56898 0
M  V30 2140 C 202.262 0.86765 -1.85071 0
M  V30 2141 C 202.626 1.78417 -0.709317 0
M  V30 2142 O 203.827 2.54261 -0.872049 0
M  V30 2143 C 202.098 1.62306 -3.1842 0
M  V30 2144 S 203.657 2.3878 -3.68143 0
M  V30 2145 H 200.475 0.290174 -0.649092 0
M  V30 2146 H 203.077 0.127755 -1.95082 0
M  V30 2147 H 201.781 0.941192 -3.99462 0
M  V30 2148 H 201.312 2.4039 -3.1141 0
M  V30 2149 H 203.327 3.63942 -3.37285 0
M  V30 2150 N 202.5 1.5196 0.417844 0
M  V30 2151 C 203.463 1.74065 1.49111 0
M  V30 2152 C 204.463 0.610537 1.48758 0
M  V30 2153 O 205.653 0.87832 1.50437 0
M  V30 2154 C 202.785 1.81502 2.88565 0
M  V30 2155 H 203.978 2.69869 1.30807 0
M  V30 2156 H 201.531 1.42244 0.647785 0
M  V30 2157 H 202.266 0.875813 3.1225 0
M  V30 2158 H 202.051 2.63651 2.90225 0
M  V30 2159 H 203.541 2.00376 3.66387 0
M  V30 2160 N 203.978 -0.674533 1.42435 0
M  V30 2161 C 204.926 -1.80934 1.46169 0
M  V30 2162 C 205.92 -1.66006 0.3374 0
M  V30 2163 O 207.126 -1.72611 0.510425 0
M  V30 2164 H 203.501 -0.596594 0.457798 0
M  V30 2165 H 205.472 -1.74903 2.41767 0
M  V30 2166 C 204.221 -3.19088 1.38123 0
M  V30 2167 H 203.544 -3.31203 2.23931 0
M  V30 2168 H 204.984 -3.9851 1.44797 0
M  V30 2169 C 203.443 -3.36763 0.0960517 0
M  V30 2170 O 203.973 -3.92581 -0.851073 0
M  V30 2171 N 202.179 -2.90597 0.0131186 0
M  V30 2172 H 201.726 -2.45359 0.784639 0
M  V30 2173 H 201.684 -3.028 -0.846133 0
M  V30 2174 N 205.456 -1.28612 -0.910864 0
M  V30 2175 C 206.704 -1.15705 -1.65701 0
M  V30 2176 C 207.025 0.29416 -1.92769 0
M  V30 2177 O 206.295 1.20331 -1.54588 0
M  V30 2178 H 204.875 -0.425216 -0.614167 0
M  V30 2179 H 207.537 -1.61381 -1.0928 0
M  V30 2180 H 206.633 -1.6988 -2.61815 0
M  V30 2181 N 206.934 1.1197 -1.10907 0
M  V30 2182 C 207.884 2.15946 -0.731538 0
M  V30 2183 C 208.868 1.58758 0.261699 0
M  V30 2184 O 210.06 1.76863 0.0696722 0
M  V30 2185 C 207.189 3.42877 -0.170299 0
M  V30 2186 C 206.275 4.07037 -1.19087 0
M  V30 2187 N 206.666 4.46135 -2.38322 0
M  V30 2188 C 204.964 4.33884 -1.03252 0
M  V30 2189 C 205.665 4.96331 -3.03366 0
M  V30 2190 N 204.641 4.9214 -2.30865 0
M  V30 2191 H 208.443 2.43947 -1.63912 0
M  V30 2192 H 205.957 1.28927 -0.987505 0
M  V30 2193 H 207.954 4.16732 0.118271 0
M  V30 2194 H 206.614 3.16343 0.731935 0
M  V30 2195 H 207.625 4.38345 -2.75815 0
M  V30 2196 H 204.302 4.17084 -0.186256 0
M  V30 2197 H 205.692 5.36257 -4.04818 0
M  V30 2198 N 208.412 0.89855 1.29475 0
M  V30 2199 C 209.64 0.539261 1.99749 0
M  V30 2200 C 210.055 -0.875716 1.67262 0
M  V30 2201 O 209.412 -1.57786 0.917049 0
M  V30 2202 C 209.463 0.72061 3.54245 0
M  V30 2203 O 209.184 2.07989 3.8558 0
M  V30 2204 C 210.685 0.366118 4.41786 0
M  V30 2205 H 207.905 0.207047 0.638258 0
M  V30 2206 H 210.449 1.20758 1.65039 0
M  V30 2207 H 208.604 0.0994862 3.87272 0
M  V30 2208 H 209.018 2.10841 4.80257 0
M  V30 2209 H 210.492 0.543848 5.49314 0
M  V30 2210 H 210.969 -0.696763 4.33638 0
M  V30 2211 H 211.575 0.964135 4.14228 0
M  V30 2212 N 209.89 -1.43072 0.660911 0
M  V30 2213 C 211.137 -2.01721 0.177445 0
M  V30 2214 C 211.465 -1.5218 -1.21126 0
M  V30 2215 O 210.72 -0.708659 -1.82419 0
M  V30 2216 C 211.019 -3.57103 0.145563 0
M  V30 2217 C 210.685 -4.26021 1.47705 0
M  V30 2218 C 209.347 -4.44563 1.84165 0
M  V30 2219 C 211.699 -4.64983 2.35458 0
M  V30 2220 C 209.027 -4.99334 3.0803 0
M  V30 2221 C 211.379 -5.21127 3.58622 0
M  V30 2222 C 210.043 -5.37884 3.95268 0
M  V30 2223 H 209.313 -0.73815 0.0649317 0
M  V30 2224 H 211.96 -1.71446 0.853144 0
M  V30 2225 H 210.265 -3.86965 -0.61361 0
M  V30 2226 H 211.962 -4.00248 -0.2455 0
M  V30 2227 H 208.552 -4.11939 1.18339 0
M  V30 2228 H 212.736 -4.50343 2.08579 0
M  V30 2229 H 207.992 -5.10493 3.36462 0
M  V30 2230 H 212.166 -5.50262 4.26831 0
M  V30 2231 H 209.793 -5.80089 4.91325 0
M  V30 2232 N 211.368 -0.403325 -1.52352 0
M  V30 2233 C 212.3 0.4603 -2.2453 0
M  V30 2234 C 213.313 1.01505 -1.27282 0
M  V30 2235 O 214.502 0.914982 -1.53266 0
M  V30 2236 C 211.602 1.65208 -2.95905 0
M  V30 2237 C 210.775 1.22224 -4.19976 0
M  V30 2238 C 209.834 2.28028 -4.74226 0
M  V30 2239 O 208.86 1.88857 -5.36956 0
M  V30 2240 N 210.062 3.6012 -4.55295 0
M  V30 2241 H 212.827 -0.158156 -2.99282 0
M  V30 2242 H 210.388 -0.230402 -1.60252 0
M  V30 2243 H 212.38 2.35541 -3.29093 0
M  V30 2244 H 210.95 2.17658 -2.24374 0
M  V30 2245 H 210.17 0.34725 -3.92668 0
M  V30 2246 H 211.458 0.911924 -5.00561 0
M  V30 2247 H 210.856 3.94698 -4.05253 0
M  V30 2248 H 209.413 4.26447 -4.92936 0
M  V30 2249 N 212.846 1.57033 -0.133567 0
M  V30 2250 C 213.809 2.14897 0.796995 0
M  V30 2251 C 214.809 1.0874 1.18458 0
M  V30 2252 O 215.999 1.34446 1.1077 0
M  V30 2253 C 213.131 2.70112 2.07973 0
M  V30 2254 H 214.324 2.98457 0.293873 0
M  V30 2255 H 211.877 1.55871 0.115787 0
M  V30 2256 H 212.612 1.9018 2.62682 0
M  V30 2257 H 212.397 3.47764 1.81115 0
M  V30 2258 H 213.887 3.14738 2.74462 0
M  V30 2259 N 214.325 -0.140222 1.56975 0
M  V30 2260 C 215.272 -1.17292 1.98774 0
M  V30 2261 C 216.242 -1.4232 0.856408 0
M  V30 2262 O 217.427 -1.54541 1.119 0
M  V30 2263 C 214.567 -2.49973 2.37923 0
M  V30 2264 C 213.68 -2.32062 3.64378 0
M  V30 2265 C 212.815 -3.57825 3.926 0
M  V30 2266 C 211.854 -3.3498 5.12303 0
M  V30 2267 N 210.991 -4.52891 5.36502 0
M  V30 2268 H 215.831 -0.809472 2.86795 0
M  V30 2269 H 213.368 -0.388237 1.41884 0
M  V30 2270 H 215.326 -3.27346 2.58652 0
M  V30 2271 H 213.956 -2.84252 1.52972 0
M  V30 2272 H 213.008 -1.45711 3.51387 0
M  V30 2273 H 214.32 -2.11145 4.51906 0
M  V30 2274 H 213.474 -4.43624 4.13863 0
M  V30 2275 H 212.213 -3.81753 3.03506 0
M  V30 2276 H 211.218 -2.4757 4.90906 0
M  V30 2277 H 212.443 -3.12444 6.02956 0
M  V30 2278 H 210.389 -4.76979 4.50363 0
M  V30 2279 H 210.306 -4.35001 6.18312 0
M  V30 2280 H 211.574 -5.39884 5.62268 0
M  V30 2281 N 215.803 -1.52179 -0.40978 0
M  V30 2282 C 217.219 -1.40968 -0.74835 0
M  V30 2283 C 217.419 -0.513657 -1.94843 0
M  V30 2284 O 216.475 0.0208026 -2.52491 0
M  V30 2285 C 217.788 -2.83483 -1.0029 0
M  V30 2286 C 219.336 -2.92821 -1.10565 0
M  V30 2287 C 219.811 -4.36303 -1.39296 0
M  V30 2288 N 221.302 -4.39535 -1.46162 0
M  V30 2289 C 222.037 -5.47614 -1.70018 0
M  V30 2290 N 221.533 -6.65812 -1.91483 0
M  V30 2291 N 223.326 -5.35129 -1.72027 0
M  V30 2292 H 215.477 -2.0897 0.380186 0
M  V30 2293 H 217.74 -0.94185 0.107805 0
M  V30 2294 H 217.446 -3.51168 -0.193461 0
M  V30 2295 H 217.32 -3.24487 -1.92323 0
M  V30 2296 H 219.707 -2.25318 -1.90568 0
M  V30 2297 H 219.788 -2.55276 -0.16369 0
M  V30 2298 H 219.432 -5.04366 -0.598109 0
M  V30 2299 H 219.362 -4.71385 -2.34743 0
M  V30 2300 H 221.853 -3.54332 -1.31367 0
M  V30 2301 H 222.166 -7.43964 -2.09134 0
M  V30 2302 H 220.511 -6.68879 -1.88749 0
M  V30 2303 H 223.702 -4.41764 -1.54796 0
M  V30 2304 H 223.875 -6.19433 -1.9028 0
M  V30 2305 N 217.281 0.66697 -1.42791 0
M  V30 2306 C 218.528 1.42699 -1.43678 0
M  V30 2307 C 218.856 1.94419 -0.0560425 0
M  V30 2308 O 218.111 1.7182 0.936831 0
M  V30 2309 C 218.41 2.6349 -2.4147 0
M  V30 2310 C 218.076 2.30267 -3.8767 0
M  V30 2311 C 216.738 2.20918 -4.27491 0
M  V30 2312 C 219.09 2.03435 -4.79858 0
M  V30 2313 C 216.418 1.82873 -5.57471 0
M  V30 2314 C 218.77 1.66892 -6.10188 0
M  V30 2315 C 217.434 1.56058 -6.49001 0
M  V30 2316 H 216.704 0.522171 -0.525755 0
M  V30 2317 H 219.351 0.759785 -1.75783 0
M  V30 2318 H 217.656 3.35279 -2.0272 0
M  V30 2319 H 219.353 3.21684 -2.39417 0
M  V30 2320 H 215.943 2.38449 -3.56146 0
M  V30 2321 H 220.127 2.09586 -4.49875 0
M  V30 2322 H 215.383 1.7306 -5.86396 0
M  V30 2323 H 219.557 1.45157 -6.81104 0
M  V30 2324 H 217.184 1.26348 -7.49627 0
M  V30 2325 N 218.759 1.29093 0.90403 0
M  V30 2326 C 219.707 1.13727 2.02901 0
M  V30 2327 C 220.701 0.0539853 1.69314 0
M  V30 2328 O 221.907 0.213469 1.7873 0
M  V30 2329 H 218.282 0.35117 0.664969 0
M  V30 2330 H 220.253 2.08982 2.13001 0
M  V30 2331 C 219.002 0.826066 3.37745 0
M  V30 2332 H 218.325 1.65164 3.64089 0
M  V30 2333 H 219.765 0.758559 4.17159 0
M  V30 2334 C 218.224 -0.470541 3.33598 0
M  V30 2335 O 218.754 -1.49792 3.72727 0
M  V30 2336 N 216.96 -0.474812 2.86695 0
M  V30 2337 H 216.507 0.361692 2.55048 0
M  V30 2338 H 216.465 -1.34236 2.84303 0
M  V30 2339 N 220.237 -1.11381 1.11499 0
M  V30 2340 C 221.653 -1.35143 0.849031 0
M  V30 2341 C 221.853 -1.94515 -0.525938 0
M  V30 2342 O 220.909 -2.1785 -1.27662 0
M  V30 2343 C 222.222 -2.28249 1.95762 0
M  V30 2344 C 223.77 -2.41812 1.98736 0
M  V30 2345 C 224.245 -3.3824 3.088 0
M  V30 2346 N 225.736 -3.45803 3.08179 0
M  V30 2347 C 226.471 -4.20358 3.89982 0
M  V30 2348 N 225.967 -4.97884 4.8175 0
M  V30 2349 N 227.76 -4.15877 3.78157 0
M  V30 2350 H 219.911 -0.712062 2.00109 0
M  V30 2351 H 222.174 -0.376025 0.870235 0
M  V30 2352 H 221.88 -1.91817 2.94787 0
M  V30 2353 H 221.754 -3.28473 1.85433 0
M  V30 2354 H 224.141 -2.77518 1.00338 0
M  V30 2355 H 224.222 -1.41437 2.13141 0
M  V30 2356 H 223.866 -3.03261 4.07425 0
M  V30 2357 H 223.796 -4.38471 2.91635 0
M  V30 2358 H 226.287 -2.90506 2.41691 0
M  V30 2359 H 226.6 -5.52142 5.40702 0
M  V30 2360 H 224.945 -4.97043 4.85771 0
M  V30 2361 H 228.136 -3.544 3.05808 0
M  V30 2362 H 228.309 -4.73723 4.42143 0
M  V30 2363 N 221.715 -0.905404 -1.28997 0
M  V30 2364 C 223.131 -0.60233 -1.47798 0
M  V30 2365 C 223.331 0.854645 -1.82478 0
M  V30 2366 O 222.387 1.63439 -1.92468 0
M  V30 2367 C 223.7 -1.53306 -2.58685 0
M  V30 2368 C 225.248 -1.53887 -2.72558 0
M  V30 2369 C 225.723 -2.45602 -3.86579 0
M  V30 2370 N 227.214 -2.43681 -3.93921 0
M  V30 2371 C 227.949 -3.11347 -4.81509 0
M  V30 2372 N 227.445 -3.88313 -5.73746 0
M  V30 2373 N 229.238 -3.00476 -4.75048 0
M  V30 2374 H 221.389 -1.84765 -1.04764 0
M  V30 2375 H 223.652 -0.792025 -0.520961 0
M  V30 2376 H 223.358 -2.57141 -2.39941 0
M  V30 2377 H 223.232 -1.25787 -3.55609 0
M  V30 2378 H 225.619 -0.507941 -2.90696 0
M  V30 2379 H 225.7 -1.85447 -1.76191 0
M  V30 2380 H 225.344 -3.48792 -3.69197 0
M  V30 2381 H 225.274 -2.11349 -4.82327 0
M  V30 2382 H 227.765 -1.87767 -3.27951 0
M  V30 2383 H 228.078 -4.36985 -6.37389 0
M  V30 2384 H 226.423 -3.92419 -5.73614 0
M  V30 2385 H 229.614 -2.39858 -4.01977 0
M  V30 2386 H 229.787 -3.53485 -5.43095 0
M  V30 2387 N 223.193 1.4272 -0.668489 0
M  V30 2388 C 224.156 2.292 0.00448567 0
M  V30 2389 C 225.156 1.43001 0.735339 0
M  V30 2390 O 226.346 1.64461 0.57429 0
M  V30 2391 C 223.478 3.25375 1.01705 0
M  V30 2392 H 224.671 2.90199 -0.756608 0
M  V30 2393 H 222.224 1.50254 -0.430506 0
M  V30 2394 H 222.959 2.69301 1.80686 0
M  V30 2395 H 222.744 3.88944 0.496463 0
M  V30 2396 H 224.234 3.90245 1.48655 0
M  V30 2397 N 224.671 0.411399 1.52136 0
M  V30 2398 C 225.621 -0.430376 2.23901 0
M  V30 2399 C 226.605 -1.0116 1.25121 0
M  V30 2400 O 227.797 -0.934044 1.50348 0
M  V30 2401 C 224.926 -1.54527 3.06556 0
M  V30 2402 C 224.012 -0.9747 4.12747 0
M  V30 2403 N 224.403 -0.130991 5.0563 0
M  V30 2404 C 222.701 -1.24497 4.28271 0
M  V30 2405 C 223.402 0.186689 5.814 0
M  V30 2406 N 222.378 -0.42304 5.41951 0
M  V30 2407 H 226.18 0.220509 2.93072 0
M  V30 2408 H 223.694 0.221952 1.60876 0
M  V30 2409 H 225.691 -2.16093 3.56524 0
M  V30 2410 H 224.351 -2.19875 2.38925 0
M  V30 2411 H 225.362 0.23349 5.17373 0
M  V30 2412 H 222.039 -1.89787 3.7187 0
M  V30 2413 H 223.429 0.871673 6.66222 0
M  V30 2414 N 226.149 -1.5696 0.141893 0
M  V30 2415 C 227.389 -1.9785 -0.513304 0
M  V30 2416 C 227.753 -1.02467 -1.62371 0
M  V30 2417 O 228.954 -1.32382 -2.33941 0
M  V30 2418 C 227.225 -3.42797 -1.01118 0
M  V30 2419 S 228.784 -4.05709 -1.67169 0
M  V30 2420 H 225.602 -0.691318 -0.166135 0
M  V30 2421 H 228.204 -1.94114 0.232398 0
M  V30 2422 H 226.908 -4.0995 -0.192179 0
M  V30 2423 H 226.439 -3.50235 -1.79162 0
M  V30 2424 H 228.454 -3.98342 -2.95868 0
M  V30 2425 N 227.627 0.131896 -1.57047 0
M  V30 2426 C 228.59 1.14638 -1.98471 0
M  V30 2427 C 229.59 1.35029 -0.873148 0
M  V30 2428 O 230.78 1.31764 -1.13946 0
M  V30 2429 C 227.912 2.50358 -2.31373 0
M  V30 2430 H 229.105 0.79064 -2.8929 0
M  V30 2431 H 226.658 0.375761 -1.51716 0
M  V30 2432 H 227.393 2.90876 -1.43393 0
M  V30 2433 H 227.178 2.36915 -3.12432 0
M  V30 2434 H 228.668 3.23395 -2.64207 0
M  V30 2435 N 229.106 1.52395 0.401703 0
M  V30 2436 C 230.355 1.66044 1.14509 0
M  V30 2437 C 230.668 0.400216 1.91462 0
M  V30 2438 O 231.874 0.416632 2.68284 0
M  V30 2439 C 230.33 2.93388 2.0845 0
M  V30 2440 C 229.938 4.26545 1.36978 0
M  V30 2441 C 231.682 3.16402 2.83001 0
M  V30 2442 C 229.589 5.45007 2.29611 0
M  V30 2443 H 228.519 0.618562 0.431158 0
M  V30 2444 H 231.17 1.78886 0.40892 0
M  V30 2445 H 229.552 2.74263 2.8565 0
M  V30 2446 H 230.726 4.56179 0.650916 0
M  V30 2447 H 229.041 4.09692 0.74438 0
M  V30 2448 H 231.638 4.02085 3.52465 0
M  V30 2449 H 231.981 2.30943 3.46368 0
M  V30 2450 H 232.514 3.36034 2.12898 0
M  V30 2451 H 229.253 6.32835 1.70879 0
M  V30 2452 H 228.773 5.19702 2.9945 0
M  V30 2453 H 230.452 5.7838 2.89974 0
M  V30 2454 N 230.584 -0.659388 1.43143 0
M  V30 2455 C 231.824 -1.43121 1.45931 0
M  V30 2456 C 232.188 -1.91838 0.0789298 0
M  V30 2457 O 233.389 -2.68794 -0.018491 0
M  V30 2458 C 231.66 -2.58534 2.46769 0
M  V30 2459 S 233.219 -3.47154 2.68384 0
M  V30 2460 H 230.037 -0.488624 0.516496 0
M  V30 2461 H 232.639 -0.766128 1.79863 0
M  V30 2462 H 231.343 -2.21007 3.45809 0
M  V30 2463 H 230.874 -3.29898 2.14315 0
M  V30 2464 H 232.889 -4.55051 1.97845 0
M  V30 2465 N 232.062 -1.29571 -0.897171 0
M  V30 2466 C 233.29 -1.20583 -1.68129 0
M  V30 2467 C 233.705 0.233181 -1.87354 0
M  V30 2468 O 233.062 1.15579 -1.41236 0
M  V30 2469 C 233.113 -1.91772 -3.06441 0
M  V30 2470 O 232.834 -3.30053 -2.88091 0
M  V30 2471 C 234.335 -1.89291 -4.00854 0
M  V30 2472 H 231.555 -0.417826 -0.525036 0
M  V30 2473 H 234.099 -1.70987 -1.12177 0
M  V30 2474 H 232.254 -1.45196 -3.59161 0
M  V30 2475 H 232.668 -3.65942 -3.75748 0
M  V30 2476 H 234.142 -2.43662 -4.95311 0
M  V30 2477 H 234.619 -0.869014 -4.30517 0
M  V30 2478 H 235.225 -2.35622 -3.54066 0
M  V30 2479 N 233.54 1.10788 -1.12088 0
M  V30 2480 C 234.817 1.79136 -0.785476 0
M  V30 2481 C 235.197 1.98246 0.725377 0
M  V30 2482 O 234.545 1.57258 1.65778 0
M  V30 2483 C 234.755 3.12375 -1.55636 0
M  V30 2484 C 236.103 3.8731 -1.74001 0
M  V30 2485 O 237.127 3.22085 -1.52117 0
M  V30 2486 O 235.986 5.04369 -2.10415 0
M  V30 2487 H 233.08 0.776226 -0.285311 0
M  V30 2488 H 235.626 1.1747 -1.2247 0
M  V30 2489 H 234.398 2.93863 -2.5838 0
M  V30 2490 H 234.021 3.81758 -1.11114 0
M  V30 2491 N 235.018 0.912232 1.28515 0
M  V30 2492 C 236.434 0.610159 1.47476 0
M  V30 2493 C 236.634 -0.844955 1.82928 0
M  V30 2494 O 235.69 -1.62416 1.93332 0
M  V30 2495 C 237.003 1.54675 2.57868 0
M  V30 2496 C 238.551 1.55331 2.71738 0
M  V30 2497 C 239.026 2.47649 3.85272 0
M  V30 2498 N 240.517 2.45767 3.92623 0
M  V30 2499 C 241.252 3.13896 4.79851 0
M  V30 2500 N 240.748 3.9135 5.71679 0
M  V30 2501 N 242.541 3.02991 4.73448 0
M  V30 2502 H 234.692 1.85318 1.03783 0
M  V30 2503 H 236.955 0.794777 0.516753 0
M  V30 2504 H 236.661 2.5841 2.38574 0
M  V30 2505 H 236.535 1.27671 3.54937 0
M  V30 2506 H 238.922 0.52335 2.90422 0
M  V30 2507 H 239.003 1.86378 1.75205 0
M  V30 2508 H 238.647 3.50745 3.67342 0
M  V30 2509 H 238.577 2.13904 4.81199 0
M  V30 2510 H 241.068 1.89503 3.26951 0
M  V30 2511 H 241.381 4.40359 6.35062 0
M  V30 2512 H 239.726 3.95455 5.71524 0
M  V30 2513 H 242.917 2.41987 4.007 0
M  V30 2514 H 243.09 3.5636 5.41213 0
M  V30 2515 N 236.496 -1.42363 0.676048 0
M  V30 2516 C 237.745 -2.00745 0.196037 0
M  V30 2517 C 238.058 -1.54083 -1.20489 0
M  V30 2518 O 239.264 -2.04891 -1.78134 0
M  V30 2519 C 237.72 -3.58651 0.299616 0
M  V30 2520 C 237.328 -4.143 1.70468 0
M  V30 2521 C 239.072 -4.24326 -0.121619 0
M  V30 2522 C 236.979 -5.64574 1.76096 0
M  V30 2523 H 235.909 -0.750787 0.0695301 0
M  V30 2524 H 238.56 -1.63072 0.841412 0
M  V30 2525 H 236.942 -3.93833 -0.413673 0
M  V30 2526 H 238.116 -3.90575 2.44515 0
M  V30 2527 H 236.431 -3.61081 2.07387 0
M  V30 2528 H 239.028 -5.34607 -0.0997362 0
M  V30 2529 H 239.371 -3.99897 -1.15708 0
M  V30 2530 H 239.904 -3.94108 0.540706 0
M  V30 2531 H 236.643 -5.93804 2.77628 0
M  V30 2532 H 236.163 -5.90286 1.06406 0
M  V30 2533 H 237.842 -6.29013 1.51496 0
M  V30 2534 N 237.974 -0.419461 -1.51915 0
M  V30 2535 C 239.22 0.145505 -2.02879 0
M  V30 2536 C 239.575 1.41926 -1.29903 0
M  V30 2537 O 238.868 1.87383 -0.399782 0
M  V30 2538 C 239.062 0.437067 -3.54717 0
M  V30 2539 C 238.891 -0.806877 -4.42402 0
M  V30 2540 C 237.661 -1.33514 -4.87342 0
M  V30 2541 C 239.859 -1.68796 -4.85811 0
M  V30 2542 N 237.841 -2.53349 -5.59185 0
M  V30 2543 C 239.212 -2.73247 -5.56539 0
M  V30 2544 C 241.267 -1.70449 -4.67816 0
M  V30 2545 C 239.97 -3.79276 -6.11181 0
M  V30 2546 C 241.996 -2.75403 -5.23361 0
M  V30 2547 C 241.358 -3.78575 -5.9402 0
M  V30 2548 H 237.457 0.0145424 -0.781865 0
M  V30 2549 H 240.041 -0.576126 -1.85981 0
M  V30 2550 H 238.212 1.12774 -3.71667 0
M  V30 2551 H 239.944 0.99182 -3.92358 0
M  V30 2552 H 236.699 -0.891657 -4.65131 0
M  V30 2553 H 237.123 -3.14066 -5.99743 0
M  V30 2554 H 241.765 -0.920209 -4.12664 0
M  V30 2555 H 239.483 -4.58554 -6.65397 0
M  V30 2556 H 243.069 -2.77603 -5.113 0
M  V30 2557 H 241.949 -4.58453 -6.36231 0
M  V30 2558 N 239.452 1.56882 -0.150215 0
M  V30 2559 C 240.7 1.9584 0.499105 0
M  V30 2560 C 241.021 1.03623 1.65188 0
M  V30 2561 O 240.291 0.0984084 1.95653 0
M  V30 2562 H 238.871 0.723119 0.187373 0
M  V30 2563 H 241.533 1.9358 -0.226466 0
M  V30 2564 H 240.629 2.99638 0.873122 0
M  V30 2565 N 240.93 -0.123565 1.57115 0
M  V30 2566 C 241.86 -1.15309 2.03042 0
M  V30 2567 C 242.841 -1.43454 0.914061 0
M  V30 2568 O 244.026 -1.53973 1.18347 0
M  V30 2569 C 241.156 -2.48043 2.43089 0
M  V30 2570 C 240.11 -2.3437 3.58127 0
M  V30 2571 C 239.436 -3.72026 3.84059 0
M  V30 2572 C 240.736 -1.80804 4.90007 0
M  V30 2573 H 242.43 -0.771102 2.893 0
M  V30 2574 H 239.976 -0.369479 1.39179 0
M  V30 2575 H 241.929 -3.20311 2.73823 0
M  V30 2576 H 240.653 -2.88122 1.53796 0
M  V30 2577 H 239.312 -1.64551 3.27595 0
M  V30 2578 H 238.96 -4.09582 2.91979 0
M  V30 2579 H 238.66 -3.63732 4.6149 0
M  V30 2580 H 240.184 -4.45806 4.1724 0
M  V30 2581 H 241.598 -2.42886 5.19307 0
M  V30 2582 H 239.995 -1.83343 5.71407 0
M  V30 2583 H 241.065 -0.76528 4.78823 0
M  V30 2584 N 242.408 -1.52605 -0.393616 0
M  V30 2585 C 243.656 -1.67093 -1.13685 0
M  V30 2586 C 243.977 -0.411011 -1.90619 0
M  V30 2587 O 243.247 0.574491 -1.87287 0
M  V30 2588 H 241.827 -0.615923 -0.422668 0
M  V30 2589 H 244.489 -1.89704 -0.447039 0
M  V30 2590 H 243.585 -2.51922 -1.84232 0
M  V30 2591 N 243.887 0.651787 -1.4349 0
M  V30 2592 C 245.303 0.96762 -1.26922 0
M  V30 2593 C 245.503 2.00602 -0.189982 0
M  V30 2594 O 244.559 2.48793 0.431107 0
M  V30 2595 C 245.872 1.45052 -2.63401 0
M  V30 2596 C 247.42 1.5671 -2.70945 0
M  V30 2597 C 247.895 2.0839 -4.07845 0
M  V30 2598 N 249.386 2.1569 -4.09917 0
M  V30 2599 C 250.121 2.56804 -5.12679 0
M  V30 2600 N 249.617 2.97203 -6.25813 0
M  V30 2601 N 251.41 2.56756 -5.00033 0
M  V30 2602 H 243.561 -0.0353158 -2.12371 0
M  V30 2603 H 245.824 0.0467858 -0.946845 0
M  V30 2604 H 245.53 0.761926 -3.43348 0
M  V30 2605 H 245.404 2.42529 -2.88894 0
M  V30 2606 H 247.791 2.2467 -1.9133 0
M  V30 2607 H 247.872 0.57662 -2.49216 0
M  V30 2608 H 247.516 1.41031 -4.87927 0
M  V30 2609 H 247.446 3.08271 -4.26938 0
M  V30 2610 H 249.937 1.87237 -3.28254 0
M  V30 2611 H 250.25 3.27328 -7.00055 0
M  V30 2612 H 248.595 2.95004 -6.29283 0
M  V30 2613 H 251.786 2.24572 -4.10713 0
M  V30 2614 H 251.959 2.88475 -5.80247 0
M  V30 2615 N 245.365 1.30045 0.890287 0
M  V30 2616 C 246.297 1.11786 2.00091 0
M  V30 2617 C 247.31 0.0626307 1.62679 0
M  V30 2618 O 248.499 0.308112 1.75821 0
M  V30 2619 C 245.599 0.681527 3.31977 0
M  V30 2620 C 244.772 1.81735 3.97858 0
M  V30 2621 C 243.831 1.37045 5.08041 0
M  V30 2622 O 242.857 2.07677 5.29961 0
M  V30 2623 N 244.059 0.246525 5.79976 0
M  V30 2624 H 246.824 2.07441 2.16306 0
M  V30 2625 H 244.385 1.2211 1.06305 0
M  V30 2626 H 246.377 0.365675 4.03045 0
M  V30 2627 H 244.947 -0.182828 3.12065 0
M  V30 2628 H 244.167 2.30159 3.20032 0
M  V30 2629 H 245.455 2.57865 4.38615 0
M  V30 2630 H 244.853 -0.34215 5.64664 0
M  V30 2631 H 243.41 -0.00990438 6.51799 0
M  V30 2632 N 246.843 -1.10192 1.12674 0
M  V30 2633 C 248.091 -1.81845 0.881861 0
M  V30 2634 C 248.412 -1.85737 -0.593867 0
M  V30 2635 O 247.682 -1.33724 -1.4316 0
M  V30 2636 H 246.262 -0.673432 0.323261 0
M  V30 2637 H 248.924 -1.33316 1.42172 0
M  V30 2638 H 248.02 -2.85288 1.2656 0
M  V30 2639 N 248.321 -0.919034 -1.28029 0
M  V30 2640 C 249.551 -0.570143 -1.98577 0
M  V30 2641 C 249.959 0.854172 -1.68821 0
M  V30 2642 O 249.302 1.57807 -0.940351 0
M  V30 2643 C 249.364 -0.705734 -3.52505 0
M  V30 2644 C 249.028 -2.10057 -4.05863 0
M  V30 2645 C 250.025 -3.07385 -4.19298 0
M  V30 2646 C 247.71 -2.41517 -4.40426 0
M  V30 2647 C 249.704 -4.34287 -4.66555 0
M  V30 2648 C 247.391 -3.68657 -4.87376 0
M  V30 2649 C 248.389 -4.64856 -5.00398 0
M  V30 2650 O 248.077 -5.89735 -5.46322 0
M  V30 2651 H 247.809 -0.215592 -0.6407 0
M  V30 2652 H 250.363 -1.23583 -1.64062 0
M  V30 2653 H 248.593 0.0170414 -3.86696 0
M  V30 2654 H 250.282 -0.363172 -4.04272 0
M  V30 2655 H 251.048 -2.84398 -3.92865 0
M  V30 2656 H 246.927 -1.67389 -4.29537 0
M  V30 2657 H 250.471 -5.09377 -4.76635 0
M  V30 2658 H 246.368 -3.91466 -5.13249 0
M  V30 2659 H 247.136 -5.92599 -5.64596 0
M  V30 2660 N 249.799 1.42003 -0.683588 0
M  V30 2661 C 250.746 2.30798 -0.0107309 0
M  V30 2662 C 251.716 1.4645 0.783688 0
M  V30 2663 O 252.901 1.75263 0.754156 0
M  V30 2664 C 250.041 3.3238 0.928306 0
M  V30 2665 C 249.154 4.31814 0.126776 0
M  V30 2666 C 248.289 5.20468 1.06236 0
M  V30 2667 C 247.328 6.11577 0.253035 0
M  V30 2668 N 246.465 6.92754 1.14179 0
M  V30 2669 H 251.305 2.8778 -0.773727 0
M  V30 2670 H 248.842 1.41745 -0.393283 0
M  V30 2671 H 250.8 3.89813 1.48666 0
M  V30 2672 H 249.43 2.76976 1.65783 0
M  V30 2673 H 248.482 3.76427 -0.54833 0
M  V30 2674 H 249.794 4.96276 -0.501192 0
M  V30 2675 H 248.948 5.82677 1.69035 0
M  V30 2676 H 247.687 4.56204 1.7242 0
M  V30 2677 H 246.692 5.48428 -0.388108 0
M  V30 2678 H 247.917 6.77892 -0.404839 0
M  V30 2679 H 245.863 6.3111 1.78987 0
M  V30 2680 H 245.78 7.53855 0.569111 0
M  V30 2681 H 247.048 7.59441 1.75697 0
M  V30 2682 N 251.277 0.427512 1.51691 0
M  V30 2683 C 252.517 -0.141524 2.03909 0
M  V30 2684 C 252.881 -1.40811 1.30523 0
M  V30 2685 O 254.082 -2.05676 1.73063 0
M  V30 2686 C 252.353 -0.364962 3.55532 0
M  V30 2687 S 253.912 -0.898812 4.29496 0
M  V30 2688 H 250.73 -0.0364542 0.710065 0
M  V30 2689 H 253.332 0.584659 1.86553 0
M  V30 2690 H 252.036 0.56336 4.06515 0
M  V30 2691 H 251.567 -1.1185 3.77164 0
M  V30 2692 H 253.582 -2.17747 4.45871 0
M  V30 2693 N 252.755 -1.56801 0.158532 0
M  V30 2694 C 254.004 -1.95665 -0.489702 0
M  V30 2695 C 254.317 -1.04654 -1.65248 0
M  V30 2696 O 255.523 -1.33146 -2.3661 0
M  V30 2697 C 253.979 -3.47874 -0.922582 0
M  V30 2698 C 253.587 -4.47489 0.213893 0
M  V30 2699 C 255.331 -3.95583 -1.53996 0
M  V30 2700 C 253.238 -5.90921 -0.237903 0
M  V30 2701 H 252.168 -0.730516 -0.186716 0
M  V30 2702 H 254.819 -1.81861 0.244722 0
M  V30 2703 H 253.201 -3.57051 -1.71261 0
M  V30 2704 H 254.375 -4.50017 0.991036 0
M  V30 2705 H 252.69 -4.09764 0.740407 0
M  V30 2706 H 255.287 -5.0019 -1.8898 0
M  V30 2707 H 255.63 -3.37789 -2.43319 0
M  V30 2708 H 256.163 -3.8937 -0.814611 0
M  V30 2709 H 252.902 -6.52559 0.620236 0
M  V30 2710 H 252.422 -5.91729 -0.980676 0
M  V30 2711 H 254.101 -6.43352 -0.686067 0
M  V30 2712 N 254.233 0.115231 -1.57178 0
M  V30 2713 C 255.181 1.16014 -2.01602 0
M  V30 2714 C 256.175 1.42653 -0.913587 0
M  V30 2715 O 257.381 1.42571 -1.09879 0
M  V30 2716 H 253.756 0.391252 -0.642204 0
M  V30 2717 H 255.727 0.758998 -2.88586 0
M  V30 2718 C 254.476 2.47767 -2.4394 0
M  V30 2719 H 253.799 2.28108 -3.28339 0
M  V30 2720 H 255.239 3.19432 -2.78818 0
M  V30 2721 C 253.698 3.10617 -1.30455 0
M  V30 2722 O 254.228 3.96846 -0.622585 0
M  V30 2723 N 252.434 2.70553 -1.06064 0
M  V30 2724 H 251.981 2.00527 -1.61699 0
M  V30 2725 H 251.939 3.12934 -0.303284 0
M  V30 2726 N 255.711 1.52812 0.385517 0
M  V30 2727 C 256.951 1.69716 1.13911 0
M  V30 2728 C 257.315 0.42962 1.87132 0
M  V30 2729 O 258.516 0.475071 2.64569 0
M  V30 2730 C 256.787 2.90021 2.0886 0
M  V30 2731 S 258.346 3.27531 2.92009 0
M  V30 2732 H 255.164 0.59739 0.385547 0
M  V30 2733 H 257.766 1.90868 0.423061 0
M  V30 2734 H 256.47 3.80493 1.53797 0
M  V30 2735 H 256.001 2.71213 2.84969 0
M  V30 2736 H 258.016 2.77989 4.11019 0
M  V30 2737 N 257.189 -0.644168 1.43834 0
M  V30 2738 C 258.136 -1.75671 1.49694 0
M  V30 2739 C 259.106 -1.6246 0.345809 0
M  V30 2740 O 260.291 -1.82573 0.554234 0
M  V30 2741 C 257.431 -3.13867 1.43463 0
M  V30 2742 C 256.544 -3.38147 2.6885 0
M  V30 2743 C 255.679 -4.66241 2.54544 0
M  V30 2744 C 254.718 -4.83657 3.75157 0
M  V30 2745 N 253.855 -6.03016 3.59605 0
M  V30 2746 H 258.695 -1.69998 2.44754 0
M  V30 2747 H 256.232 -0.829458 1.21484 0
M  V30 2748 H 258.19 -3.9377 1.37843 0
M  V30 2749 H 256.82 -3.18588 0.519783 0
M  V30 2750 H 255.872 -2.52276 2.84712 0
M  V30 2751 H 257.184 -3.46899 3.58417 0
M  V30 2752 H 256.338 -5.54285 2.46683 0
M  V30 2753 H 255.077 -4.59826 1.62516 0
M  V30 2754 H 254.082 -3.94046 3.83416 0
M  V30 2755 H 255.307 -4.91896 4.68204 0
M  V30 2756 H 253.253 -5.97715 2.7032 0
M  V30 2757 H 253.17 -6.12766 4.42779 0
M  V30 2758 H 254.438 -6.93657 3.55613 0
M  V30 2759 N 258.668 -1.30515 -0.883378 0
M  V30 2760 C 259.598 -1.19607 -2.00541 0
M  V30 2761 C 260.579 -0.086346 -1.69881 0
M  V30 2762 O 261.764 -0.268654 -1.92333 0
M  V30 2763 C 258.894 -0.888758 -3.35736 0
M  V30 2764 C 257.848 -1.95659 -3.8066 0
M  V30 2765 C 257.174 -1.50224 -5.13164 0
M  V30 2766 C 258.474 -3.36788 -3.99213 0
M  V30 2767 H 260.168 -2.13476 -2.09925 0
M  V30 2768 H 257.714 -1.02775 -1.00863 0
M  V30 2769 H 259.667 -0.799094 -4.13754 0
M  V30 2770 H 258.391 0.0856125 -3.26488 0
M  V30 2771 H 257.05 -2.03591 -3.04871 0
M  V30 2772 H 256.698 -0.516092 -5.00345 0
M  V30 2773 H 256.398 -2.2165 -5.44192 0
M  V30 2774 H 257.922 -1.42639 -5.93706 0
M  V30 2775 H 259.336 -3.31605 -4.67665 0
M  V30 2776 H 257.733 -4.06314 -4.41621 0
M  V30 2777 H 258.803 -3.78561 -3.03017 0
M  V30 2778 N 260.146 1.09593 -1.13257 0
M  V30 2779 C 261.076 2.18214 -0.830946 0
M  V30 2780 C 262.057 1.68812 0.208966 0
M  V30 2781 O 263.242 1.9408 0.0682666 0
M  V30 2782 C 260.372 3.46051 -0.294296 0
M  V30 2783 C 259.326 4.08778 -1.26826 0
M  V30 2784 C 258.652 5.31419 -0.591449 0
M  V30 2785 C 259.952 4.51476 -2.62615 0
M  V30 2786 H 261.646 2.43703 -1.73923 0
M  V30 2787 H 259.192 1.17128 -0.837675 0
M  V30 2788 H 261.145 4.2134 -0.0709606 0
M  V30 2789 H 259.869 3.20079 0.649366 0
M  V30 2790 H 258.528 3.35505 -1.47756 0
M  V30 2791 H 258.176 5.01727 0.357633 0
M  V30 2792 H 257.876 5.74341 -1.24123 0
M  V30 2793 H 259.4 6.09433 -0.377355 0
M  V30 2794 H 260.814 5.17999 -2.45663 0
M  V30 2795 H 259.211 5.05277 -3.23752 0
M  V30 2796 H 260.281 3.63962 -3.20406 0
M  V30 2797 N 261.624 0.925811 1.2754 0
M  V30 2798 C 262.87 0.566092 1.94739 0
M  V30 2799 C 263.203 -0.890057 1.72603 0
M  V30 2800 O 262.478 -1.63467 1.05399 0
M  V30 2801 C 262.761 0.89054 3.48915 0
M  V30 2802 C 262.614 2.4003 3.80402 0
M  V30 2803 C 263.933 0.395101 4.38323 0
M  V30 2804 H 261.052 0.20714 0.707292 0
M  V30 2805 H 263.694 1.15725 1.50691 0
M  V30 2806 H 261.844 0.387452 3.86563 0
M  V30 2807 H 263.516 2.97494 3.52555 0
M  V30 2808 H 261.759 2.85028 3.2702 0
M  V30 2809 H 262.43 2.57785 4.8811 0
M  V30 2810 H 264.906 0.826241 4.07814 0
M  V30 2811 H 263.782 0.651086 5.45025 0
M  V30 2812 H 264.043 -0.704798 4.36446 0
M  V30 2813 N 263.102 -1.41638 0.69111 0
M  V30 2814 C 264.052 -2.28 -0.000107832 0
M  V30 2815 C 265.036 -1.41964 -0.757304 0
M  V30 2816 O 266.228 -1.65274 -0.633532 0
M  V30 2817 C 263.357 -3.30209 -0.938983 0
M  V30 2818 C 262.443 -4.23725 -0.17827 0
M  V30 2819 N 262.834 -4.99017 0.825563 0
M  V30 2820 C 261.132 -4.44071 -0.414392 0
M  V30 2821 C 261.833 -5.67431 1.28052 0
M  V30 2822 N 260.809 -5.40197 0.607304 0
M  V30 2823 H 264.611 -2.83644 0.769617 0
M  V30 2824 H 262.125 -1.53797 0.521562 0
M  V30 2825 H 264.122 -3.90898 -1.44929 0
M  V30 2826 H 262.782 -2.76126 -1.70836 0
M  V30 2827 H 263.793 -5.03671 1.20566 0
M  V30 2828 H 260.47 -4.01004 -1.162 0
M  V30 2829 H 261.86 -6.37801 2.11327 0
M  V30 2830 N 264.58 -0.43555 -1.51462 0
M  V30 2831 C 265.527 0.376797 -2.27703 0
M  V30 2832 C 266.497 1.01838 -1.31219 0
M  V30 2833 O 267.682 1.03762 -1.60119 0
M  V30 2834 C 264.822 1.47301 -3.12084 0
M  V30 2835 C 263.935 0.849744 -4.2356 0
M  V30 2836 C 263.07 1.92086 -4.95254 0
M  V30 2837 C 262.109 1.27593 -5.98654 0
M  V30 2838 N 261.246 2.28833 -6.63762 0
M  V30 2839 H 266.086 -0.279734 -2.96684 0
M  V30 2840 H 263.623 -0.149795 -1.46335 0
M  V30 2841 H 265.581 2.11984 -3.59331 0
M  V30 2842 H 264.211 2.0992 -2.45221 0
M  V30 2843 H 263.263 0.0912529 -3.80291 0
M  V30 2844 H 264.575 0.338878 -4.97648 0
M  V30 2845 H 263.729 2.64435 -5.46039 0
M  V30 2846 H 262.468 2.46545 -4.20793 0
M  V30 2847 H 261.473 0.537893 -5.47162 0
M  V30 2848 H 262.698 0.738693 -6.7507 0
M  V30 2849 H 260.644 2.82375 -5.92115 0
M  V30 2850 H 260.561 1.82632 -7.33608 0
M  V30 2851 H 261.829 3.00671 -7.19178 0
M  V30 2852 N 266.058 1.56714 -0.166846 0
M  V30 2853 C 267.005 2.17746 0.765193 0
M  V30 2854 C 267.975 1.11614 1.23011 0
M  V30 2855 O 269.16 1.39745 1.29908 0
M  V30 2856 C 266.3 2.81882 1.9909 0
M  V30 2857 C 265.413 4.02462 1.56997 0
M  V30 2858 C 264.548 4.54537 2.749 0
M  V30 2859 C 263.587 5.67538 2.29275 0
M  V30 2860 N 262.724 6.14142 3.40255 0
M  V30 2861 H 267.564 2.97048 0.237952 0
M  V30 2862 H 265.101 1.4672 0.105725 0
M  V30 2863 H 267.059 3.17221 2.70974 0
M  V30 2864 H 265.689 2.05191 2.49192 0
M  V30 2865 H 264.741 3.72973 0.748037 0
M  V30 2866 H 266.053 4.84273 1.19503 0
M  V30 2867 H 265.207 4.92035 3.54946 0
M  V30 2868 H 263.946 3.71774 3.1565 0
M  V30 2869 H 262.951 5.29597 1.47674 0
M  V30 2870 H 264.176 6.52099 1.89588 0
M  V30 2871 H 262.122 5.3431 3.8059 0
M  V30 2872 H 262.039 6.9093 3.06841 0
M  V30 2873 H 263.307 6.56289 4.206 0
M  V30 2874 N 267.536 -0.106894 1.57237 0
M  V30 2875 C 268.776 -0.818277 1.87306 0
M  V30 2876 C 269.14 -1.76474 0.756371 0
M  V30 2877 O 270.341 -2.5186 0.939155 0
M  V30 2878 C 268.612 -1.53806 3.22612 0
M  V30 2879 S 270.171 -2.28935 3.74345 0
M  V30 2880 H 266.989 -0.272862 0.656557 0
M  V30 2881 H 269.591 -0.075988 1.95352 0
M  V30 2882 H 268.295 -0.834951 4.01817 0
M  V30 2883 H 267.826 -2.32049 3.17674 0
M  V30 2884 H 269.841 -3.54871 3.46815 0
M  V30 2885 N 269.014 -1.53014 -0.377408 0
M  V30 2886 C 269.964 -1.74996 -1.46152 0
M  V30 2887 C 270.948 -0.604236 -1.49123 0
M  V30 2888 O 272.14 -0.862489 -1.54564 0
M  V30 2889 C 269.269 -1.93267 -2.8373 0
M  V30 2890 C 268.355 -3.13807 -2.85283 0
M  V30 2891 N 268.746 -4.35941 -2.56493 0
M  V30 2892 C 267.044 -3.14288 -3.16448 0
M  V30 2893 C 267.745 -5.17615 -2.65424 0
M  V30 2894 N 266.721 -4.53559 -2.99641 0
M  V30 2895 H 270.523 -2.67044 -1.22738 0
M  V30 2896 H 268.037 -1.51479 -0.585479 0
M  V30 2897 H 270.034 -2.0714 -3.61799 0
M  V30 2898 H 268.694 -1.0244 -3.08117 0
M  V30 2899 H 269.705 -4.63876 -2.30302 0
M  V30 2900 H 266.382 -2.33312 -3.46225 0
M  V30 2901 H 267.772 -6.25006 -2.46612 0
M  V30 2902 N 270.492 0.636531 -1.44174 0
M  V30 2903 C 271.439 1.74875 -1.50624 0
M  V30 2904 C 272.409 1.62275 -0.35442 0
M  V30 2905 O 273.594 1.82276 -0.563908 0
M  V30 2906 C 270.734 3.13102 -1.45125 0
M  V30 2907 C 269.847 3.36717 -2.7064 0
M  V30 2908 C 268.982 4.64885 -2.57013 0
M  V30 2909 C 268.021 4.8166 -3.77717 0
M  V30 2910 N 267.158 6.01101 -3.62798 0
M  V30 2911 H 271.998 1.68697 -2.45653 0
M  V30 2912 H 269.535 0.823004 -1.21922 0
M  V30 2913 H 271.493 3.93034 -1.39929 0
M  V30 2914 H 270.123 3.18308 -0.536671 0
M  V30 2915 H 269.175 2.50763 -2.86046 0
M  V30 2916 H 270.487 3.44993 -3.60252 0
M  V30 2917 H 269.641 5.52969 -2.49619 0
M  V30 2918 H 268.38 4.58957 -1.64953 0
M  V30 2919 H 267.385 3.92007 -3.85501 0
M  V30 2920 H 268.61 4.89406 -4.70807 0
M  V30 2921 H 266.556 5.96273 -2.73486 0
M  V30 2922 H 266.473 6.10409 -4.46023 0
M  V30 2923 H 267.741 6.91761 -3.59286 0
M  V30 2924 N 271.97 1.30982 0.876444 0
M  V30 2925 C 272.9 1.20668 1.99903 0
M  V30 2926 C 273.881 0.095354 1.69833 0
M  V30 2927 O 275.066 0.27885 1.92188 0
M  V30 2928 C 272.196 0.90655 3.3526 0
M  V30 2929 C 271.15 1.97675 3.79617 0
M  V30 2930 C 270.476 1.52943 5.1236 0
M  V30 2931 C 271.776 3.389 3.97422 0
M  V30 2932 H 273.47 2.14586 2.0879 0
M  V30 2933 H 271.016 1.03308 1.00317 0
M  V30 2934 H 272.969 0.821025 4.13324 0
M  V30 2935 H 271.693 -0.0682969 3.26529 0
M  V30 2936 H 270.352 2.05205 3.03787 0
M  V30 2937 H 270 0.54262 5.00065 0
M  V30 2938 H 269.7 2.24532 5.43009 0
M  V30 2939 H 271.224 1.45786 5.92941 0
M  V30 2940 H 272.638 3.34081 4.659 0
M  V30 2941 H 271.035 4.0865 4.3946 0
M  V30 2942 H 272.105 3.80163 3.01006 0
M  V30 2943 N 273.449 -1.08991 1.13837 0
M  V30 2944 C 274.695 -1.81526 0.90422 0
M  V30 2945 C 275.028 -1.85706 -0.568066 0
M  V30 2946 O 274.303 -1.32855 -1.42056 0
M  V30 2947 C 274.586 -3.27447 1.49835 0
M  V30 2948 C 274.439 -3.31512 3.04006 0
M  V30 2949 C 275.758 -4.24256 1.17025 0
M  V30 2950 H 272.877 -0.659029 0.329923 0
M  V30 2951 H 275.519 -1.27644 1.40737 0
M  V30 2952 H 273.669 -3.73462 1.07044 0
M  V30 2953 H 275.341 -2.93867 3.55584 0
M  V30 2954 H 273.584 -2.70963 3.38765 0
M  V30 2955 H 274.255 -4.34329 3.40679 0
M  V30 2956 H 276.731 -3.86549 1.54009 0
M  V30 2957 H 275.607 -5.24684 1.61237 0
M  V30 2958 H 275.868 -4.42019 0.0846274 0
M  V30 2959 N 274.927 -0.932562 -1.27047 0
M  V30 2960 C 276.155 -0.592031 -1.98249 0
M  V30 2961 C 276.57 0.831062 -1.69525 0
M  V30 2962 O 275.927 1.55299 -0.958561 0
M  V30 2963 C 275.978 -0.814279 -3.5221 0
M  V30 2964 O 275.699 -2.18139 -3.7993 0
M  V30 2965 C 277.2 -0.483121 -4.4066 0
M  V30 2966 H 274.42 -0.223896 -0.632544 0
M  V30 2967 H 276.964 -1.25091 -1.61779 0
M  V30 2968 H 275.119 -0.20213 -3.86872 0
M  V30 2969 H 275.533 -2.235 -4.74498 0
M  V30 2970 H 277.007 -0.689298 -5.47679 0
M  V30 2971 H 277.484 0.581546 -4.35333 0
M  V30 2972 H 278.09 -1.07362 -4.11526 0
M  V30 2973 N 276.405 1.4127 -0.698611 0
M  V30 2974 C 277.654 2.00408 -0.227949 0
M  V30 2975 C 277.967 1.55981 1.18023 0
M  V30 2976 O 279.173 2.07699 1.74852 0
M  V30 2977 C 277.629 3.58129 -0.356636 0
M  V30 2978 C 277.237 4.11536 -1.77037 0
M  V30 2979 C 278.981 4.24466 0.0540969 0
M  V30 2980 C 276.888 5.61701 -1.85055 0
M  V30 2981 H 275.818 0.749586 -0.0814657 0
M  V30 2982 H 278.469 1.61713 -0.867249 0
M  V30 2983 H 276.851 3.94442 0.350965 0
M  V30 2984 H 278.025 3.86636 -2.50698 0
M  V30 2985 H 276.34 3.57736 -2.13105 0
M  V30 2986 H 278.937 5.34698 0.0146723 0
M  V30 2987 H 279.28 4.01687 1.09332 0
M  V30 2988 H 279.813 3.93198 -0.603337 0
M  V30 2989 H 276.552 5.89312 -2.8704 0
M  V30 2990 H 276.072 5.88519 -1.15783 0
M  V30 2991 H 277.751 6.26524 -1.61484 0
M  V30 2992 N 277.883 0.443576 1.51229 0
M  V30 2993 C 278.793 -0.370721 2.31652 0
M  V30 2994 C 279.809 -1.02186 1.40833 0
M  V30 2995 O 280.985 -1.01586 1.73903 0
M  V30 2996 C 278.05 -1.45376 3.14749 0
M  V30 2997 C 277.111 -0.822099 4.21355 0
M  V30 2998 C 276.344 -1.85353 5.0048 0
M  V30 2999 O 276.567 -3.07656 4.80316 0
M  V30 3000 O 275.501 -1.4406 5.84406 0
M  V30 3001 H 279.327 0.286002 3.0235 0
M  V30 3002 H 276.912 0.20598 1.47973 0
M  V30 3003 H 278.794 -2.08173 3.66391 0
M  V30 3004 H 277.469 -2.09445 2.46809 0
M  V30 3005 H 276.376 -0.155909 3.73775 0
M  V30 3006 H 277.709 -0.224797 4.91686 0
M  V30 3007 N 279.361 -1.56624 0.175154 0
M  V30 3008 C 280.601 -1.98894 -0.471221 0
M  V30 3009 C 280.965 -1.05889 -1.60161 0
M  V30 3010 O 282.166 -1.37315 -2.3108 0
M  V30 3011 C 280.437 -3.44865 -0.938241 0
M  V30 3012 S 281.996 -4.09164 -1.58526 0
M  V30 3013 H 278.814 -0.694686 -0.151434 0
M  V30 3014 H 281.416 -1.93577 0.27352 0
M  V30 3015 H 280.12 -4.10265 -0.10518 0
M  V30 3016 H 279.651 -3.53956 -1.71693 0
M  V30 3017 H 281.666 -4.04528 -2.87352 0
M  V30 3018 N 280.839 0.0985539 -1.57292 0
M  V30 3019 C 282.087 0.801092 -1.85545 0
M  V30 3020 C 282.408 1.79438 -0.763353 0
M  V30 3021 O 281.678 1.94763 0.21073 0
M  V30 3022 H 280.258 0.29884 -0.684619 0
M  V30 3023 H 282.92 0.0810064 -1.94732 0
M  V30 3024 H 282.016 1.3338 -2.82163 0
M  V30 3025 N 282.317 1.53212 0.369288 0
M  V30 3026 C 283.733 1.42902 0.710712 0
M  V30 3027 C 283.933 0.565135 1.93413 0
M  V30 3028 O 282.989 0.0461484 2.52458 0
M  V30 3029 C 284.302 2.86042 0.927382 0
M  V30 3030 C 285.85 2.9565 1.02762 0
M  V30 3031 C 286.325 4.39843 1.27679 0
M  V30 3032 N 287.816 4.43256 1.34457 0
M  V30 3033 C 288.551 5.51929 1.55439 0
M  V30 3034 N 288.047 6.70655 1.73762 0
M  V30 3035 N 289.84 5.39502 1.57779 0
M  V30 3036 H 281.991 2.07888 -0.435457 0
M  V30 3037 H 284.254 0.938661 -0.132739 0
M  V30 3038 H 283.96 3.51557 0.100287 0
M  V30 3039 H 283.834 3.29472 1.83653 0
M  V30 3040 H 286.221 2.30291 1.84527 0
M  V30 3041 H 286.302 2.5562 0.0959504 0
M  V30 3042 H 285.946 5.05774 0.464175 0
M  V30 3043 H 285.876 4.77443 2.22162 0
M  V30 3044 H 288.367 3.5769 1.21926 0
M  V30 3045 H 288.68 7.49248 1.89335 0
M  V30 3046 H 287.025 6.73648 1.70948 0
M  V30 3047 H 290.216 4.45713 1.43029 0
M  V30 3048 H 290.389 6.2426 1.7379 0
M  V30 3049 N 283.795 -0.628877 1.44509 0
M  V30 3050 C 284.745 -1.7345 1.47983 0
M  V30 3051 C 285.729 -1.5715 0.345373 0
M  V30 3052 O 286.921 -1.66848 0.590829 0
M  V30 3053 C 284.05 -3.12143 1.42904 0
M  V30 3054 C 283.136 -3.33906 2.61472 0
M  V30 3055 N 283.527 -3.26024 3.86706 0
M  V30 3056 C 281.825 -3.64709 2.56716 0
M  V30 3057 C 282.526 -3.48536 4.65722 0
M  V30 3058 N 281.502 -3.71517 3.96832 0
M  V30 3059 H 285.304 -1.65818 2.42655 0
M  V30 3060 H 282.818 -0.831419 1.39503 0
M  V30 3061 H 284.815 -3.91433 1.43476 0
M  V30 3062 H 283.475 -3.2094 0.492717 0
M  V30 3063 H 284.486 -3.04893 4.18641 0
M  V30 3064 H 281.163 -3.80473 1.71891 0
M  V30 3065 H 282.553 -3.48016 5.74747 0
M  V30 3066 N 285.273 -1.31445 -0.869486 0
M  V30 3067 C 286.498 -1.24256 -1.66058 0
M  V30 3068 C 286.923 0.188928 -1.87149 0
M  V30 3069 O 286.281 1.13522 -1.4136 0
M  V30 3070 C 286.329 -1.9924 -3.00559 0
M  V30 3071 O 285.433 -1.33007 -3.90362 0
M  V30 3072 H 284.774 -0.428973 -0.506831 0
M  V30 3073 H 287.304 -1.73521 -1.08404 0
M  V30 3074 H 287.314 -2.08854 -3.50491 0
M  V30 3075 H 285.989 -3.03342 -2.84528 0
M  V30 3076 H 284.566 -1.31848 -3.48813 0
M  V30 3077 N 286.751 1.08385 -1.14413 0
M  V30 3078 C 287.681 2.17321 -0.854044 0
M  V30 3079 C 288.662 1.69024 0.191049 0
M  V30 3080 O 289.847 1.94141 0.0476779 0
M  V30 3081 C 286.977 3.45719 -0.330983 0
M  V30 3082 C 285.931 4.07409 -1.31155 0
M  V30 3083 C 285.257 5.30762 -0.64778 0
M  V30 3084 C 286.557 4.48665 -2.67388 0
M  V30 3085 H 288.251 2.41845 -1.76498 0
M  V30 3086 H 285.797 1.16233 -0.850051 0
M  V30 3087 H 287.75 4.21241 -0.115645 0
M  V30 3088 H 286.474 3.2075 0.615381 0
M  V30 3089 H 285.133 3.33919 -1.51306 0
M  V30 3090 H 284.781 5.02078 0.304398 0
M  V30 3091 H 284.481 5.72992 -1.30207 0
M  V30 3092 H 286.005 6.08998 -0.441972 0
M  V30 3093 H 287.419 5.15364 -2.51143 0
M  V30 3094 H 285.816 5.01814 -3.29093 0
M  V30 3095 H 286.886 3.60543 -3.24248 0
M  V30 3096 N 288.23 0.939286 1.26551 0
M  V30 3097 C 289.641 0.628782 1.75793 0
M  V30 3098 C 289.992 -0.856046 1.7654 0
M  V30 3099 O 289.117 -1.66994 1.3763 0
M  V30 3100 C 289.712 1.13465 3.19235 0
M  V30 3101 C 288.271 0.874601 3.66098 0
M  V30 3102 C 287.418 1.28667 2.45642 0
M  V30 3103 H 290.369 1.1178 1.12654 0
M  V30 3104 H 290.39 0.487609 3.77363 0
M  V30 3105 H 289.902 2.21535 3.1866 0
M  V30 3106 H 288.003 -0.191793 3.72106 0
M  V30 3107 H 288.116 1.50028 4.55004 0
M  V30 3108 H 286.48 0.705109 2.44745 0
M  V30 3109 H 287.263 2.37625 2.47769 0
M  V30 3110 N 289.708 -1.40897 0.706093 0
M  V30 3111 C 290.64 -2.29199 0.00815776 0
M  V30 3112 C 291.653 -1.45336 -0.733582 0
M  V30 3113 O 292.842 -1.68727 -0.582537 0
M  V30 3114 C 289.942 -3.23417 -1.01265 0
M  V30 3115 C 289.115 -4.36089 -0.338387 0
M  V30 3116 C 288.174 -5.10811 -1.26326 0
M  V30 3117 O 287.2 -5.64215 -0.751651 0
M  V30 3118 N 288.402 -5.19269 -2.595 0
M  V30 3119 H 291.167 -2.89738 0.766297 0
M  V30 3120 H 288.728 -1.52164 0.55296 0
M  V30 3121 H 290.72 -3.70276 -1.63334 0
M  V30 3122 H 289.29 -2.64112 -1.67223 0
M  V30 3123 H 288.51 -3.91479 0.462352 0
M  V30 3124 H 289.798 -5.08634 0.130031 0
M  V30 3125 H 289.196 -4.77347 -3.03573 0
M  V30 3126 H 287.753 -5.69667 -3.16737 0
M  V30 3127 N 291.186 -0.45159 -1.50991 0
M  V30 3128 C 292.096 0.358431 -2.31846 0
M  V30 3129 C 293.112 1.01438 -1.41373 0
M  V30 3130 O 294.288 1.00663 -1.74439 0
M  V30 3131 C 291.353 1.43704 -3.15515 0
M  V30 3132 C 290.414 0.799742 -4.21785 0
M  V30 3133 C 289.647 1.82696 -5.01456 0
M  V30 3134 O 289.87 3.05105 -4.81941 0
M  V30 3135 O 288.804 1.40958 -5.85162 0
M  V30 3136 H 292.63 -0.302032 -3.02194 0
M  V30 3137 H 290.215 -0.213825 -1.47862 0
M  V30 3138 H 292.097 2.06227 -3.67489 0
M  V30 3139 H 290.772 2.08133 -2.47916 0
M  V30 3140 H 289.679 0.136084 -3.73852 0
M  V30 3141 H 291.012 0.198718 -4.91799 0
M  V30 3142 N 292.664 1.56529 -0.183458 0
M  V30 3143 C 294.075 1.83739 0.331177 0
M  V30 3144 C 294.426 1.10373 1.62211 0
M  V30 3145 O 293.551 0.36071 2.13373 0
M  V30 3146 C 294.146 3.33306 0.607646 0
M  V30 3147 C 292.705 3.60969 1.06668 0
M  V30 3148 C 291.852 2.77086 0.109029 0
M  V30 3149 H 294.803 1.53379 -0.407484 0
M  V30 3150 H 294.824 3.51444 1.45832 0
M  V30 3151 H 294.336 3.86677 -0.332086 0
M  V30 3152 H 292.437 3.13021 2.0211 0
M  V30 3153 H 292.55 4.69231 0.967447 0
M  V30 3154 H 290.914 2.47319 0.608714 0
M  V30 3155 H 291.697 3.33241 -0.82494 0
M  V30 3156 N 294.142 -0.090211 1.57342 0
M  V30 3157 C 295.388 -0.793982 1.86611 0
M  V30 3158 C 295.721 -1.78142 0.773252 0
M  V30 3159 O 294.996 -1.93271 -0.218304 0
M  V30 3160 C 295.279 -1.51839 3.26523 0
M  V30 3161 C 295.132 -0.548609 4.46442 0
M  V30 3162 C 296.451 -2.46779 3.64401 0
M  V30 3163 H 293.57 -0.287186 0.678744 0
M  V30 3164 H 296.212 -0.0575076 1.89913 0
M  V30 3165 H 294.362 -2.14617 3.23839 0
M  V30 3166 H 296.034 0.0725513 4.61243 0
M  V30 3167 H 294.277 0.137614 4.33582 0
M  V30 3168 H 294.948 -1.09271 5.41076 0
M  V30 3169 H 297.424 -1.94089 3.68061 0
M  V30 3170 H 296.3 -2.94479 4.63221 0
M  V30 3171 H 296.561 -3.30758 2.93346 0
M  V30 3172 N 295.62 -1.53406 -0.361157 0
M  V30 3173 C 296.553 -1.74946 -1.46524 0
M  V30 3174 C 297.531 -0.59795 -1.51206 0
M  V30 3175 O 298.715 -0.831062 -1.69191 0
M  V30 3176 C 295.842 -1.83224 -2.84863 0
M  V30 3177 C 294.888 -3.05233 -2.97885 0
M  V30 3178 S 295.721 -4.6466 -2.66179 0
M  V30 3179 C 296.877 -4.75793 -4.06659 0
M  V30 3180 H 297.11 -2.68319 -1.28033 0
M  V30 3181 H 294.643 -1.44051 -0.555764 0
M  V30 3182 H 296.601 -1.88679 -3.64569 0
M  V30 3183 H 295.262 -0.908948 -3.00661 0
M  V30 3184 H 294.455 -3.07648 -3.9921 0
M  V30 3185 H 294.057 -2.97913 -2.26106 0
M  V30 3186 H 296.349 -4.5612 -5.0096 0
M  V30 3187 H 297.292 -5.7786 -4.09247 0
M  V30 3188 H 297.7 -4.04389 -3.93865 0
M  V30 3189 N 297.098 0.621204 -1.44841 0
M  V30 3190 C 298.509 1.20298 -1.42777 0
M  V30 3191 C 298.86 1.95639 -0.148259 0
M  V30 3192 O 297.985 2.02955 0.750892 0
M  V30 3193 C 298.58 2.1882 -2.58657 0
M  V30 3194 C 297.139 2.72403 -2.59756 0
M  V30 3195 C 296.286 1.4757 -2.34773 0
M  V30 3196 H 299.237 0.411297 -1.53278 0
M  V30 3197 H 299.258 3.01607 -2.31977 0
M  V30 3198 H 298.77 1.63957 -3.51766 0
M  V30 3199 H 296.871 3.31242 -1.70615 0
M  V30 3200 H 296.984 3.17765 -3.58556 0
M  V30 3201 H 295.348 1.76051 -1.8406 0
M  V30 3202 H 296.131 0.945954 -3.3001 0
M  V30 3203 N 298.576 1.31904 0.862503 0
M  V30 3204 C 299.509 1.14514 1.97388 0
M  V30 3205 C 300.487 0.0466493 1.62533 0
M  V30 3206 O 301.671 0.204484 1.87388 0
M  V30 3207 C 298.798 0.751347 3.30261 0
M  V30 3208 C 297.844 1.85395 3.84098 0
M  V30 3209 S 298.677 3.46081 4.08642 0
M  V30 3210 C 299.833 3.08655 5.44502 0
M  V30 3211 H 300.066 2.08597 2.11836 0
M  V30 3212 H 297.599 1.16475 1.01356 0
M  V30 3213 H 299.557 0.530901 4.07052 0
M  V30 3214 H 298.218 -0.170493 3.13637 0
M  V30 3215 H 297.411 1.53122 4.80177 0
M  V30 3216 H 297.013 2.02984 3.14123 0
M  V30 3217 H 299.305 2.58012 6.26447 0
M  V30 3218 H 300.248 4.03726 5.81731 0
M  V30 3219 H 300.656 2.45891 5.08132 0
M  V30 3220 N 300.054 -1.07777 1.14986 0
M  V30 3221 C 301.331 -1.7699 0.832695 0
M  V30 3222 C 301.711 -2.001 -0.672561 0
M  V30 3223 O 301.059 -1.61598 -1.6155 0
M  V30 3224 C 301.269 -3.08139 1.63863 0
M  V30 3225 C 302.617 -3.8256 1.84208 0
M  V30 3226 O 303.641 -3.17939 1.60603 0
M  V30 3227 O 302.5 -4.98612 2.23714 0
M  V30 3228 H 299.594 -0.768389 0.305791 0
M  V30 3229 H 302.14 -1.14182 1.25541 0
M  V30 3230 H 300.912 -2.86909 2.6608 0
M  V30 3231 H 300.535 -3.78678 1.21197 0
M  V30 3232 N 301.532 -0.945985 -1.26051 0
M  V30 3233 C 302.464 -0.416662 -2.25381 0
M  V30 3234 C 303.477 0.462712 -1.56086 0
M  V30 3235 O 304.666 0.272383 -1.7641 0
M  V30 3236 C 301.766 0.419812 -3.3629 0
M  V30 3237 C 300.939 -0.444531 -4.35135 0
M  V30 3238 C 299.998 0.332305 -5.2515 0
M  V30 3239 O 299.024 -0.266324 -5.68577 0
M  V30 3240 N 300.226 1.62763 -5.57215 0
M  V30 3241 H 302.991 -1.27059 -2.71433 0
M  V30 3242 H 300.552 -0.815392 -1.39868 0
M  V30 3243 H 302.544 0.947013 -3.93464 0
M  V30 3244 H 301.114 1.17456 -2.89694 0
M  V30 3245 H 300.334 -1.15291 -3.76964 0
M  V30 3246 H 301.622 -1.03478 -4.98166 0
M  V30 3247 H 301.02 2.13603 -5.23823 0
M  V30 3248 H 299.577 2.10097 -6.17011 0
M  V30 3249 N 303.011 1.40521 -0.713556 0
M  V30 3250 C 304.236 2.05759 -0.26035 0
M  V30 3251 C 304.661 1.53403 1.08854 0
M  V30 3252 O 304.019 0.668535 1.68524 0
M  V30 3253 C 304.067 3.59745 -0.248122 0
M  V30 3254 O 303.171 4.05123 0.77131 0
M  V30 3255 H 302.512 0.652564 -0.122703 0
M  V30 3256 H 305.042 1.79958 -0.973467 0
M  V30 3257 H 305.052 4.07911 -0.0851129 0
M  V30 3258 H 303.727 3.97218 -1.2325 0
M  V30 3259 H 302.304 3.68422 0.57619 0
M  V30 3260 N 304.489 0.459591 1.5075 0
M  V30 3261 C 305.714 -0.0996819 2.0716 0
M  V30 3262 C 306.139 -1.33761 1.32249 0
M  V30 3263 O 305.497 -1.77551 0.366786 0
M  V30 3264 C 305.545 -0.378226 3.58611 0
M  V30 3265 O 304.649 -1.46081 3.85661 0
M  V30 3266 H 303.99 0.00791392 0.663953 0
M  V30 3267 H 306.52 0.647329 1.9409 0
M  V30 3268 H 306.53 -0.622135 4.03229 0
M  V30 3269 H 305.205 0.526439 4.12555 0
M  V30 3270 H 303.782 -1.20511 3.5289 0
M  V30 3271 N 305.967 -1.56429 0.191757 0
M  V30 3272 C 306.9 -2.14829 -0.76967 0
M  V30 3273 C 307.878 -1.08405 -1.2119 0
M  V30 3274 O 309.062 -1.36498 -1.30002 0
M  V30 3275 C 306.189 -2.70446 -2.03903 0
M  V30 3276 C 305.235 -3.89428 -1.7392 0
M  V30 3277 S 306.068 -5.28048 -0.890265 0
M  V30 3278 C 307.224 -5.87085 -2.16984 0
M  V30 3279 H 307.457 -2.96042 -0.273204 0
M  V30 3280 H 304.99 -1.54383 -0.0231975 0
M  V30 3281 H 306.948 -3.03134 -2.76803 0
M  V30 3282 H 305.609 -1.89281 -2.50662 0
M  V30 3283 H 304.802 -4.26742 -2.68155 0
M  V30 3284 H 304.404 -3.57732 -1.09103 0
M  V30 3285 H 306.696 -6.01244 -3.12269 0
M  V30 3286 H 307.639 -6.83747 -1.84108 0
M  V30 3287 H 308.047 -5.15663 -2.29678 0
M  V30 3288 N 307.445 0.0818655 -1.57387 0
M  V30 3289 C 308.395 1.10501 -1.99433 0
M  V30 3290 C 309.379 1.35041 -0.874798 0
M  V30 3291 O 310.571 1.35511 -1.13868 0
M  V30 3292 C 307.7 2.42159 -2.43339 0
M  V30 3293 C 306.786 2.20937 -3.62005 0
M  V30 3294 N 307.177 1.69616 -4.76512 0
M  V30 3295 C 305.475 2.51451 -3.68359 0
M  V30 3296 C 306.176 1.62973 -5.58404 0
M  V30 3297 N 305.152 2.08664 -5.01956 0
M  V30 3298 H 308.954 0.701373 -2.85408 0
M  V30 3299 H 306.468 0.289096 -1.59806 0
M  V30 3300 H 308.465 3.16208 -2.71695 0
M  V30 3301 H 307.125 2.83249 -1.58746 0
M  V30 3302 H 308.136 1.38624 -4.99003 0
M  V30 3303 H 304.813 2.95975 -2.94457 0
M  V30 3304 H 306.203 1.24233 -6.60315 0
M  V30 3305 N 308.923 1.53595 0.353017 0
M  V30 3306 C 310.148 1.7462 1.11904 0
M  V30 3307 C 310.573 0.479721 1.8188 0
M  V30 3308 O 309.931 -0.567066 1.72204 0
M  V30 3309 C 309.979 2.92029 2.11545 0
M  V30 3310 O 309.083 2.61516 3.18878 0
M  V30 3311 H 308.424 0.579531 0.324099 0
M  V30 3312 H 310.954 2.00525 0.406301 0
M  V30 3313 H 310.964 3.18551 2.5493 0
M  V30 3314 H 309.639 3.83888 1.60008 0
M  V30 3315 H 308.216 2.45852 2.80377 0
M  V30 3316 N 310.401 -0.613514 1.45168 0
M  V30 3317 C 311.678 -1.37263 1.39349 0
M  V30 3318 C 312.058 -2.11012 0.0610848 0
M  V30 3319 O 311.406 -2.07502 -0.956825 0
M  V30 3320 C 311.616 -2.3244 2.60332 0
M  V30 3321 C 312.964 -2.9523 3.05163 0
M  V30 3322 O 313.988 -2.42762 2.60663 0
M  V30 3323 O 312.847 -3.90454 3.82372 0
M  V30 3324 H 309.941 -0.615188 0.552696 0
M  V30 3325 H 312.487 -0.637097 1.57287 0
M  V30 3326 H 311.259 -1.77164 3.48896 0
M  V30 3327 H 310.882 -3.13383 2.44698 0
M  V30 3328 N 311.879 -1.3236 -0.855495 0
M  V30 3329 C 312.829 -1.17809 -1.95205 0
M  V30 3330 C 313.813 -0.0852319 -1.60674 0
M  V30 3331 O 315.005 -0.311651 -1.74235 0
M  V30 3332 C 312.134 -0.902437 -3.31226 0
M  V30 3333 C 311.22 -2.03695 -3.7198 0
M  V30 3334 N 311.611 -3.28544 -3.84568 0
M  V30 3335 C 309.909 -1.93993 -4.016 0
M  V30 3336 C 310.61 -4.02847 -4.19629 0
M  V30 3337 N 309.586 -3.31138 -4.31102 0
M  V30 3338 H 313.388 -2.12462 -2.0307 0
M  V30 3339 H 310.902 -1.24127 -1.0472 0
M  V30 3340 H 312.899 -0.77915 -4.09554 0
M  V30 3341 H 311.559 0.0357267 -3.2468 0
M  V30 3342 H 312.57 -3.6349 -3.68911 0
M  V30 3343 H 309.247 -1.07733 -4.03361 0
M  V30 3344 H 310.637 -5.10506 -4.36845 0
M  V30 3345 N 313.357 1.07166 -1.15556 0
M  V30 3346 C 314.32 2.12589 -0.856644 0
M  V30 3347 C 315.32 1.6015 0.14444 0
M  V30 3348 O 316.51 1.7399 -0.0854163 0
M  V30 3349 C 313.642 3.39753 -0.279405 0
M  V30 3350 H 314.835 2.40539 -1.79112 0
M  V30 3351 H 312.388 1.23086 -0.963298 0
M  V30 3352 H 313.123 3.17447 0.663174 0
M  V30 3353 H 312.908 3.79117 -1.00063 0
M  V30 3354 H 314.398 4.17507 -0.0879113 0
M  V30 3355 N 314.835 0.952656 1.25548 0
M  V30 3356 C 315.767 0.428609 2.25157 0
M  V30 3357 C 316.78 -0.454428 1.56329 0
M  V30 3358 O 317.969 -0.263023 1.76552 0
M  V30 3359 C 315.069 -0.401972 3.36508 0
M  V30 3360 C 314.242 0.467601 4.34893 0
M  V30 3361 C 313.301 -0.30445 5.25319 0
M  V30 3362 O 312.327 0.296473 5.68427 0
M  V30 3363 N 313.529 -1.59805 5.5807 0
M  V30 3364 H 316.294 1.28497 2.70756 0
M  V30 3365 H 313.855 0.822798 1.39433 0
M  V30 3366 H 315.847 -0.926134 3.9396 0
M  V30 3367 H 314.417 -1.15918 2.90313 0
M  V30 3368 H 313.637 1.17288 3.76347 0
M  V30 3369 H 314.925 1.06119 4.97611 0
M  V30 3370 H 314.323 -2.10823 5.24948 0
M  V30 3371 H 312.88 -2.06822 6.18116 0
M  V30 3372 N 316.313 -1.40141 0.720998 0
M  V30 3373 C 317.541 -2.05096 0.272656 0
M  V30 3374 C 317.956 -1.54334 -1.0875 0
M  V30 3375 O 317.313 -0.702211 -1.6845 0
M  V30 3376 C 317.364 -3.60636 0.249835 0
M  V30 3377 O 317.085 -4.09526 1.55629 0
M  V30 3378 C 318.586 -4.42772 -0.216396 0
M  V30 3379 H 315.806 -0.659897 0.121558 0
M  V30 3380 H 318.35 -1.79449 0.980723 0
M  V30 3381 H 316.505 -3.85232 -0.409237 0
M  V30 3382 H 316.919 -5.03758 1.4604 0
M  V30 3383 H 318.393 -5.51702 -0.181212 0
M  V30 3384 H 318.87 -4.20756 -1.25941 0
M  V30 3385 H 319.476 -4.23294 0.412596 0
M  V30 3386 N 317.792 -0.46758 -1.50504 0
M  V30 3387 C 319.038 0.0887532 -2.02606 0
M  V30 3388 C 319.371 1.39686 -1.34913 0
M  V30 3389 O 318.646 1.88644 -0.473694 0
M  V30 3390 C 318.929 0.276206 -3.59039 0
M  V30 3391 C 318.782 -1.05267 -4.37309 0
M  V30 3392 C 320.101 1.03235 -4.27821 0
M  V30 3393 H 317.22 0.0307814 -0.736357 0
M  V30 3394 H 319.862 -0.612485 -1.79857 0
M  V30 3395 H 318.012 0.8735 -3.78553 0
M  V30 3396 H 319.684 -1.68628 -4.29374 0
M  V30 3397 H 317.927 -1.65015 -4.01189 0
M  V30 3398 H 318.598 -0.875197 -5.45018 0
M  V30 3399 H 321.074 0.526111 -4.12761 0
M  V30 3400 H 319.95 1.1323 -5.37094 0
M  V30 3401 H 320.211 2.06806 -3.90748 0
M  V30 3402 N 319.27 1.56325 -0.20005 0
M  V30 3403 C 320.519 1.96895 0.437652 0
M  V30 3404 C 320.832 1.08999 1.62415 0
M  V30 3405 O 322.038 1.39372 2.32997 0
M  V30 3406 C 320.494 3.50198 0.830025 0
M  V30 3407 C 320.102 4.46765 -0.332461 0
M  V30 3408 C 321.846 3.99526 1.43453 0
M  V30 3409 C 319.753 5.91344 0.0811468 0
M  V30 3410 H 318.683 0.735209 0.167282 0
M  V30 3411 H 321.334 1.81148 -0.292853 0
M  V30 3412 H 319.716 3.61467 1.61734 0
M  V30 3413 H 320.89 4.47231 -1.11 0
M  V30 3414 H 319.205 4.07657 -0.848789 0
M  V30 3415 H 321.802 5.05025 1.75652 0
M  V30 3416 H 322.145 3.44122 2.34277 0
M  V30 3417 H 322.678 3.91393 0.71109 0
M  V30 3418 H 319.417 6.50685 -0.793033 0
M  V30 3419 H 318.937 5.94121 0.823445 0
M  V30 3420 H 320.616 6.44945 0.515252 0
M  V30 3421 N 320.748 -0.0735177 1.57428 0
M  V30 3422 C 322.159 -0.625551 1.75908 0
M  V30 3423 C 322.51 -1.78 0.825261 0
M  V30 3424 O 321.635 -2.16398 0.00893964 0
M  V30 3425 C 322.23 -1.14155 3.18989 0
M  V30 3426 C 320.789 -1.63946 3.38819 0
M  V30 3427 C 319.936 -0.558151 2.71625 0
M  V30 3428 H 322.887 0.152647 1.57964 0
M  V30 3429 H 322.908 -2.0104 3.23053 0
M  V30 3430 H 322.42 -0.301116 3.8693 0
M  V30 3431 H 320.521 -2.50321 2.7599 0
M  V30 3432 H 320.634 -1.71759 4.47253 0
M  V30 3433 H 318.998 -1.00278 2.34129 0
M  V30 3434 H 319.781 0.272071 3.4222 0
M  V30 3435 N 322.226 -1.5378 -0.344866 0
M  V30 3436 C 323.456 -1.74646 -1.10374 0
M  V30 3437 C 323.864 -0.48491 -1.8288 0
M  V30 3438 O 323.207 0.553062 -1.75177 0
M  V30 3439 C 323.269 -2.87145 -2.16306 0
M  V30 3440 C 322.933 -4.26795 -1.63386 0
M  V30 3441 C 323.93 -5.08412 -1.08688 0
M  V30 3442 C 321.615 -4.73276 -1.68272 0
M  V30 3443 C 323.609 -6.34609 -0.595792 0
M  V30 3444 C 321.296 -5.99446 -1.18776 0
M  V30 3445 C 322.294 -6.79946 -0.645215 0
M  V30 3446 O 321.982 -8.03745 -0.157626 0
M  V30 3447 H 321.714 -0.587112 -0.335075 0
M  V30 3448 H 324.268 -2.01403 -0.403252 0
M  V30 3449 H 322.498 -2.55909 -2.89909 0
M  V30 3450 H 324.187 -2.95992 -2.77747 0
M  V30 3451 H 324.953 -4.73666 -1.04236 0
M  V30 3452 H 320.832 -4.10677 -2.09442 0
M  V30 3453 H 324.376 -6.97389 -0.171654 0
M  V30 3454 H 320.273 -6.33687 -1.22928 0
M  V30 3455 H 321.041 -8.18038 -0.275037 0
M  V30 3456 N 323.704 0.605807 -1.45491 0
M  V30 3457 C 324.652 1.73754 -1.54636 0
M  V30 3458 C 325.646 1.64207 -0.416219 0
M  V30 3459 O 326.852 1.69979 -0.592199 0
M  V30 3460 H 323.227 0.574073 -0.485741 0
M  V30 3461 H 325.198 1.63169 -2.49837 0
M  V30 3462 C 323.947 3.12135 -1.53189 0
M  V30 3463 H 323.27 3.20141 -2.39478 0
M  V30 3464 H 324.71 3.91147 -1.63645 0
M  V30 3465 C 323.169 3.35921 -0.256616 0
M  V30 3466 O 323.699 3.96194 0.662798 0
M  V30 3467 N 321.905 2.90204 -0.151751 0
M  V30 3468 H 321.452 2.41336 -0.90081 0
M  V30 3469 H 321.41 3.06492 0.700699 0
M  V30 3470 N 325.182 1.32811 0.848464 0
M  V30 3471 C 326.593 1.21315 1.41914 0
M  V30 3472 C 326.944 -0.171847 1.95446 0
M  V30 3473 O 326.069 -1.07093 1.88043 0
M  V30 3474 C 326.664 2.19631 2.57968 0
M  V30 3475 C 325.223 2.12003 3.11017 0
M  V30 3476 C 324.37 2.07651 1.83783 0
M  V30 3477 H 327.321 1.44549 0.655071 0
M  V30 3478 H 327.342 1.79845 3.35315 0
M  V30 3479 H 326.854 3.20423 2.18976 0
M  V30 3480 H 324.955 1.14481 3.54577 0
M  V30 3481 H 325.068 3.02111 3.71841 0
M  V30 3482 H 323.432 1.52983 2.03638 0
M  V30 3483 H 324.215 3.10235 1.47 0
M  V30 3484 N 326.66 -1.06551 1.16123 0
M  V30 3485 C 327.885 -1.83544 0.965735 0
M  V30 3486 C 328.31 -1.81843 -0.481102 0
M  V30 3487 O 327.668 -1.21732 -1.34354 0
M  V30 3488 C 327.716 -3.28169 1.49457 0
M  V30 3489 O 326.82 -4.0643 0.699157 0
M  V30 3490 H 326.161 -0.568026 0.343864 0
M  V30 3491 H 328.691 -1.34362 1.54299 0
M  V30 3492 H 328.701 -3.78992 1.51092 0
M  V30 3493 H 327.376 -3.28722 2.54784 0
M  V30 3494 H 325.953 -3.65216 0.7531 0
M  V30 3495 N 328.138 -0.959301 -1.25041 0
M  V30 3496 C 329.363 -0.633507 -1.97488 0
M  V30 3497 C 329.788 0.788555 -1.70773 0
M  V30 3498 O 329.146 1.53394 -0.966431 0
M  V30 3499 C 329.194 -0.904057 -3.49083 0
M  V30 3500 O 328.298 0.0147939 -4.12397 0
M  V30 3501 H 327.639 -0.240368 -0.618966 0
M  V30 3502 H 330.169 -1.28717 -1.59038 0
M  V30 3503 H 330.179 -0.832203 -3.99423 0
M  V30 3504 H 328.854 -1.94048 -3.67856 0
M  V30 3505 H 327.431 -0.109664 -3.72739 0
M  V30 3506 N 329.616 1.39756 -0.72842 0
M  V30 3507 C 330.566 2.2792 -0.0603424 0
M  V30 3508 C 331.55 1.43922 0.719399 0
M  V30 3509 O 332.742 1.66895 0.589489 0
M  V30 3510 C 329.871 3.32582 0.851104 0
M  V30 3511 C 328.957 4.24049 0.0658641 0
M  V30 3512 N 329.348 4.96653 -0.957578 0
M  V30 3513 C 327.646 4.45013 0.296509 0
M  V30 3514 C 328.347 5.63836 -1.43052 0
M  V30 3515 N 327.323 5.38397 -0.750315 0
M  V30 3516 H 331.125 2.81504 -0.84455 0
M  V30 3517 H 328.639 1.5236 -0.562155 0
M  V30 3518 H 330.636 3.94603 1.34514 0
M  V30 3519 H 329.296 2.80558 1.63454 0
M  V30 3520 H 330.307 5.00297 -1.33877 0
M  V30 3521 H 326.984 4.03943 1.05527 0
M  V30 3522 H 328.374 6.31974 -2.28163 0
M  V30 3523 N 331.094 0.475555 1.50254 0
M  V30 3524 C 332.004 -0.321501 2.32387 0
M  V30 3525 C 333.02 -0.991755 1.42969 0
M  V30 3526 O 334.196 -0.978747 1.76018 0
M  V30 3527 C 331.261 -1.38667 3.17762 0
M  V30 3528 C 330.322 -0.732538 4.23004 0
M  V30 3529 C 329.555 -1.74695 5.04299 0
M  V30 3530 O 329.778 -2.97399 4.86734 0
M  V30 3531 O 328.712 -1.31631 5.8733 0
M  V30 3532 H 332.538 0.350071 3.01676 0
M  V30 3533 H 330.123 0.237321 1.47503 0
M  V30 3534 H 332.005 -2.00354 3.70724 0
M  V30 3535 H 330.68 -2.04163 2.51196 0
M  V30 3536 H 329.587 -0.0765902 3.74022 0
M  V30 3537 H 330.92 -0.120452 4.92053 0
M  V30 3538 N 332.573 -1.56217 0.208337 0
M  V30 3539 C 333.798 -2.02782 -0.435222 0
M  V30 3540 C 334.223 -1.08738 -1.53485 0
M  V30 3541 O 333.581 -0.0731855 -1.81152 0
M  V30 3542 C 333.629 -3.47687 -0.956335 0
M  V30 3543 O 332.733 -3.56773 -2.06849 0
M  V30 3544 H 332.074 -0.656403 -0.100158 0
M  V30 3545 H 334.604 -2.02033 0.3231 0
M  V30 3546 H 334.614 -3.87745 -1.26955 0
M  V30 3547 H 333.289 -4.15624 -0.15143 0
M  V30 3548 H 331.866 -3.28597 -1.76292 0
M  V30 3549 N 334.051 0.0651679 -1.57465 0
M  V30 3550 C 334.981 1.07693 -2.07182 0
M  V30 3551 C 335.962 1.39962 -0.966673 0
M  V30 3552 O 337.147 1.49475 -1.2398 0
M  V30 3553 C 334.277 2.3885 -2.52127 0
M  V30 3554 C 333.231 2.20917 -3.66579 0
M  V30 3555 C 332.557 3.57515 -3.97601 0
M  V30 3556 C 333.857 1.62493 -4.9638 0
M  V30 3557 H 335.551 0.663199 -2.91962 0
M  V30 3558 H 333.097 0.317569 -1.40455 0
M  V30 3559 H 335.05 3.09928 -2.85522 0
M  V30 3560 H 333.774 2.82215 -1.64384 0
M  V30 3561 H 332.433 1.52279 -3.33477 0
M  V30 3562 H 332.081 3.98463 -3.06979 0
M  V30 3563 H 331.781 3.46353 -4.74672 0
M  V30 3564 H 333.305 4.30013 -4.33499 0
M  V30 3565 H 334.719 2.23445 -5.27963 0
M  V30 3566 H 333.116 1.62009 -5.77818 0
M  V30 3567 H 334.186 0.587041 -4.81333 0
M  V30 3568 N 335.529 1.53961 0.336706 0
M  V30 3569 C 336.806 1.62171 1.09361 0
M  V30 3570 C 337.186 0.447263 2.06307 0
M  V30 3571 O 336.534 -0.559802 2.21537 0
M  V30 3572 C 336.744 2.98565 1.80721 0
M  V30 3573 C 338.092 3.54157 2.34218 0
M  V30 3574 O 339.116 3.00784 1.90807 0
M  V30 3575 O 337.975 4.47528 3.13657 0
M  V30 3576 H 335.069 0.6562 0.503319 0
M  V30 3577 H 337.615 1.66307 0.33765 0
M  V30 3578 H 336.387 3.75482 1.10132 0
M  V30 3579 H 336.01 2.9805 2.63158 0
M  V30 3580 N 337.007 -0.598083 1.45811 0
M  V30 3581 C 337.939 -1.72231 1.51225 0
M  V30 3582 C 338.952 -1.57757 0.402059 0
M  V30 3583 O 340.141 -1.65464 0.669624 0
M  V30 3584 C 337.241 -3.10331 1.3619 0
M  V30 3585 C 336.414 -3.50955 2.61054 0
M  V30 3586 C 335.473 -4.68055 2.40439 0
M  V30 3587 O 334.499 -4.74691 3.14097 0
M  V30 3588 N 335.701 -5.61941 1.45612 0
M  V30 3589 H 338.466 -1.68046 2.48154 0
M  V30 3590 H 336.027 -0.783637 1.41671 0
M  V30 3591 H 338.019 -3.86439 1.20195 0
M  V30 3592 H 336.589 -3.0897 0.475015 0
M  V30 3593 H 335.809 -2.64711 2.92099 0
M  V30 3594 H 337.097 -3.74858 3.44034 0
M  V30 3595 H 336.495 -5.59301 0.848431 0
M  V30 3596 H 335.052 -6.37542 1.35585 0
M  V30 3597 N 338.485 -1.33259 -0.841409 0
M  V30 3598 C 339.731 -1.24757 -1.59886 0
M  V30 3599 C 340.064 0.186913 -1.93298 0
M  V30 3600 O 339.339 1.12757 -1.5848 0
M  V30 3601 C 339.622 -2.12036 -2.91055 0
M  V30 3602 C 339.475 -3.63929 -2.6434 0
M  V30 3603 C 340.794 -1.9916 -3.92458 0
M  V30 3604 H 337.913 -0.454542 -0.580138 0
M  V30 3605 H 340.555 -1.63335 -0.970647 0
M  V30 3606 H 338.705 -1.79265 -3.44669 0
M  V30 3607 H 340.377 -4.06978 -2.17178 0
M  V30 3608 H 338.62 -3.85935 -1.98082 0
M  V30 3609 H 339.291 -4.20341 -3.57796 0
M  V30 3610 H 341.767 -2.27895 -3.48143 0
M  V30 3611 H 340.643 -2.62484 -4.82072 0
M  V30 3612 H 340.904 -0.963082 -4.31482 0
M  V30 3613 N 339.963 1.05934 -1.16686 0
M  V30 3614 C 341.211 1.78447 -0.948744 0
M  V30 3615 C 341.532 1.87813 0.524523 0
M  V30 3616 O 340.802 1.38945 1.38098 0
M  V30 3617 H 339.382 0.660971 -0.348033 0
M  V30 3618 H 342.044 1.27947 -1.47022 0
M  V30 3619 H 341.14 2.80394 -1.37061 0
M  V30 3620 N 341.441 0.965919 1.2453 0
M  V30 3621 C 342.351 0.502154 2.29163 0
M  V30 3622 C 343.367 -0.436017 1.68448 0
M  V30 3623 O 344.543 -0.309497 1.99008 0
M  V30 3624 C 341.608 -0.201956 3.46111 0
M  V30 3625 C 340.669 0.775821 4.22232 0
M  V30 3626 C 339.902 0.105217 5.33596 0
M  V30 3627 O 340.125 -1.10683 5.59558 0
M  V30 3628 O 339.059 0.796475 5.96607 0
M  V30 3629 H 342.885 1.37194 2.70946 0
M  V30 3630 H 340.47 0.732875 1.30189 0
M  V30 3631 H 342.352 -0.597564 4.17142 0
M  V30 3632 H 341.027 -1.04673 3.06309 0
M  V30 3633 H 339.934 1.22185 3.53584 0
M  V30 3634 H 341.267 1.58896 4.65846 0
M  V30 3635 N 342.919 -1.39368 0.735821 0
M  V30 3636 C 343.829 -2.34395 0.0979693 0
M  V30 3637 C 344.845 -1.58361 -0.720968 0
M  V30 3638 O 346.021 -1.90648 -0.649245 0
M  V30 3639 C 343.086 -3.37393 -0.797916 0
M  V30 3640 C 342.147 -4.29287 0.0333662 0
M  V30 3641 C 341.38 -5.27365 -0.819854 0
M  V30 3642 O 341.603 -5.31959 -2.05855 0
M  V30 3643 O 340.537 -6.01389 -0.248079 0
M  V30 3644 H 344.363 -2.90601 0.882315 0
M  V30 3645 H 341.948 -1.40909 0.4965 0
M  V30 3646 H 343.83 -4.00505 -1.31048 0
M  V30 3647 H 342.505 -2.83571 -1.56106 0
M  V30 3648 H 341.412 -3.69395 0.591475 0
M  V30 3649 H 342.745 -4.86317 0.758752 0
M  V30 3650 N 344.397 -0.483516 -1.5 0
M  V30 3651 C 345.344 0.304164 -2.28787 0
M  V30 3652 C 346.314 0.976114 -1.34392 0
M  V30 3653 O 347.499 0.986156 -1.63339 0
M  V30 3654 C 344.639 1.37298 -3.16612 0
M  V30 3655 C 343.752 0.714561 -4.26049 0
M  V30 3656 C 342.887 1.76232 -5.01114 0
M  V30 3657 C 341.926 1.08483 -6.0241 0
M  V30 3658 N 341.063 2.076 -6.70706 0
M  V30 3659 H 345.903 -0.373981 -2.95644 0
M  V30 3660 H 343.44 -0.196275 -1.45785 0
M  V30 3661 H 345.398 2.00445 -3.65893 0
M  V30 3662 H 344.028 2.02012 -2.51776 0
M  V30 3663 H 343.08 -0.0297798 -3.80388 0
M  V30 3664 H 344.392 0.180383 -4.98474 0
M  V30 3665 H 343.546 2.46929 -5.54176 0
M  V30 3666 H 342.285 2.33033 -4.28424 0
M  V30 3667 H 341.29 0.363545 -5.48597 0
M  V30 3668 H 342.515 0.523551 -6.77079 0
M  V30 3669 H 340.461 2.63394 -6.00799 0
M  V30 3670 H 340.378 1.59201 -7.39047 0
M  V30 3671 H 341.646 2.77639 -7.2838 0
M  V30 3672 N 345.875 1.56104 -0.216619 0
M  V30 3673 C 346.785 2.23694 0.706982 0
M  V30 3674 C 347.801 1.24295 1.21765 0
M  V30 3675 O 348.977 1.57094 1.2603 0
M  V30 3676 C 346.042 2.8998 1.90033 0
M  V30 3677 C 345.103 4.04708 1.43213 0
M  V30 3678 C 344.336 4.67824 2.56859 0
M  V30 3679 O 344.559 4.29913 3.74874 0
M  V30 3680 O 343.493 5.56905 2.28343 0
M  V30 3681 H 347.319 3.03272 0.161235 0
M  V30 3682 H 344.904 1.49394 0.0136177 0
M  V30 3683 H 346.786 3.31837 2.59735 0
M  V30 3684 H 345.461 2.13365 2.43428 0
M  V30 3685 H 344.368 3.6743 0.70327 0
M  V30 3686 H 345.701 4.83051 0.944615 0
M  V30 3687 N 347.353 -0.0568162 1.57498 0
M  V30 3688 C 348.316 -1.05038 2.03715 0
M  V30 3689 C 349.316 -1.30709 0.936577 0
M  V30 3690 O 350.506 -1.26178 1.20103 0
M  V30 3691 C 347.638 -2.39034 2.43055 0
M  V30 3692 H 348.831 -0.651715 2.92733 0
M  V30 3693 H 346.384 -0.302947 1.53336 0
M  V30 3694 H 347.119 -2.83703 1.57108 0
M  V30 3695 H 346.904 -2.21739 3.2338 0
M  V30 3696 H 348.394 -3.10421 2.79336 0
M  V30 3697 N 348.832 -1.54138 -0.328536 0
M  V30 3698 C 349.765 -1.78014 -1.4278 0
M  V30 3699 C 350.743 -0.629889 -1.49904 0
M  V30 3700 O 351.927 -0.866763 -1.6739 0
M  V30 3701 C 349.054 -1.89225 -2.80912 0
M  V30 3702 C 348.1 -3.11483 -2.91343 0
M  V30 3703 S 348.933 -4.70201 -2.56263 0
M  V30 3704 C 350.089 -4.84312 -3.96476 0
M  V30 3705 H 350.322 -2.70974 -1.22313 0
M  V30 3706 H 347.855 -1.45197 -0.525084 0
M  V30 3707 H 349.813 -1.9637 -3.60485 0
M  V30 3708 H 348.474 -0.972518 -2.98665 0
M  V30 3709 H 347.667 -3.16046 -3.92595 0
M  V30 3710 H 347.269 -3.02642 -2.19736 0
M  V30 3711 H 349.561 -4.66643 -4.91173 0
M  V30 3712 H 350.504 -5.86411 -3.96898 0
M  V30 3713 H 350.912 -4.12652 -3.85199 0
M  V30 3714 N 350.31 0.590341 -1.46126 0
M  V30 3715 C 351.258 1.72105 -1.5647 0
M  V30 3716 C 352.252 1.63756 -0.433612 0
M  V30 3717 O 353.458 1.69342 -0.610194 0
M  V30 3718 H 349.833 0.568889 -0.491802 0
M  V30 3719 H 351.804 1.6051 -2.51553 0
M  V30 3720 C 350.553 3.10493 -1.56491 0
M  V30 3721 H 349.876 3.17583 -2.4286 0
M  V30 3722 H 351.316 3.8939 -1.67785 0
M  V30 3723 C 349.775 3.3563 -0.292231 0
M  V30 3724 O 350.305 3.96875 0.620739 0
M  V30 3725 N 348.511 2.90026 -0.182523 0
M  V30 3726 H 348.058 2.40367 -0.926356 0
M  V30 3727 H 348.016 3.07218 0.668152 0
M  V30 3728 N 351.788 1.33704 0.83433 0
M  V30 3729 C 353.016 1.28467 1.62185 0
M  V30 3730 C 353.431 -0.143526 1.88254 0
M  V30 3731 O 352.788 -1.08709 1.4659 0
M  V30 3732 C 352.839 2.06174 2.96942 0
M  V30 3733 O 352.56 3.43422 2.72016 0
M  V30 3734 C 354.061 2.08201 3.91366 0
M  V30 3735 H 351.281 0.4424 0.504503 0
M  V30 3736 H 353.825 1.76145 1.03891 0
M  V30 3737 H 351.98 1.62167 3.51825 0
M  V30 3738 H 352.394 3.83453 3.57861 0
M  V30 3739 H 353.868 2.67017 4.83121 0
M  V30 3740 H 354.345 1.07343 4.2588 0
M  V30 3741 H 354.951 2.52246 3.42421 0
M  V30 3742 N 353.266 -1.05314 1.17247 0
M  V30 3743 C 354.682 -1.30452 0.919473 0
M  V30 3744 C 354.882 -1.9703 -0.42209 0
M  V30 3745 O 353.938 -2.24311 -1.15935 0
M  V30 3746 C 355.251 -2.17551 2.07586 0
M  V30 3747 C 356.799 -2.30937 2.11275 0
M  V30 3748 C 357.274 -3.21396 3.26296 0
M  V30 3749 N 358.765 -3.28981 3.26076 0
M  V30 3750 C 359.5 -3.99095 4.11716 0
M  V30 3751 N 358.996 -4.71648 5.07465 0
M  V30 3752 N 360.789 -3.95247 3.9967 0
M  V30 3753 H 352.94 -0.604988 2.03602 0
M  V30 3754 H 355.203 -0.329368 0.888944 0
M  V30 3755 H 354.909 -1.75921 3.0454 0
M  V30 3756 H 354.783 -3.18182 2.02584 0
M  V30 3757 H 357.17 -2.71809 1.14907 0
M  V30 3758 H 357.251 -1.2994 2.20339 0
M  V30 3759 H 356.895 -2.81238 4.22927 0
M  V30 3760 H 356.825 -4.22395 3.14467 0
M  V30 3761 H 359.316 -2.77286 2.5675 0
M  V30 3762 H 359.629 -5.22705 5.6921 0
M  V30 3763 H 357.974 -4.70594 5.11435 0
M  V30 3764 H 361.165 -3.37691 3.24164 0
M  V30 3765 H 361.338 -4.4962 4.66632 0
M  V30 3766 N 354.744 -0.972509 -1.24016 0
M  V30 3767 C 355.654 -0.5143 -2.28893 0
M  V30 3768 C 356.67 0.427078 -1.68677 0
M  V30 3769 O 357.846 0.298939 -1.99169 0
M  V30 3770 C 354.911 0.183598 -3.46214 0
M  V30 3771 C 353.972 -0.798202 -4.21814 0
M  V30 3772 C 353.205 -0.133514 -5.33533 0
M  V30 3773 O 353.428 1.07714 -5.60137 0
M  V30 3774 O 352.362 -0.828103 -5.96176 0
M  V30 3775 H 356.188 -1.38629 -2.70214 0
M  V30 3776 H 353.773 -0.739769 -1.29799 0
M  V30 3777 H 355.655 0.575433 -4.17453 0
M  V30 3778 H 354.33 1.03048 -3.0686 0
M  V30 3779 H 353.237 -1.24059 -3.52931 0
M  V30 3780 H 354.57 -1.61364 -4.64997 0
M  V30 3781 N 356.222 1.38976 -0.743202 0
M  V30 3782 C 357.447 2.05161 -0.303936 0
M  V30 3783 C 357.872 1.55677 1.05576 0
M  V30 3784 O 357.23 0.704131 1.67068 0
M  V30 3785 C 357.278 3.59138 -0.324373 0
M  V30 3786 O 356.382 4.06668 0.685204 0
M  V30 3787 H 355.723 0.649815 -0.136518 0
M  V30 3788 H 358.253 1.77852 -1.01142 0
M  V30 3789 H 358.263 4.07639 -0.171618 0
M  V30 3790 H 356.938 3.94515 -1.31647 0
M  V30 3791 H 355.515 3.69561 0.497913 0
M  V30 3792 N 357.7 0.491464 1.49741 0
M  V30 3793 C 358.948 -0.0563141 2.02022 0
M  V30 3794 C 359.269 -1.38363 1.37407 0
M  V30 3795 O 358.539 -1.88702 0.526166 0
M  V30 3796 H 357.119 -0.0238014 0.746621 0
M  V30 3797 H 359.781 0.646533 1.83864 0
M  V30 3798 H 358.877 -0.192967 3.11503 0
M  V30 3799 N 359.178 -1.55987 0.224894 0
M  V30 3800 C 360.125 -2.20436 -0.68385 0
M  V30 3801 C 361.095 -1.16102 -1.18783 0
M  V30 3802 O 362.28 -1.4447 -1.24632 0
M  V30 3803 C 359.42 -2.89076 -1.88491 0
M  V30 3804 C 358.533 -4.08012 -1.41951 0
M  V30 3805 C 357.668 -4.64426 -2.5784 0
M  V30 3806 C 356.707 -5.75656 -2.08053 0
M  V30 3807 N 355.844 -6.26347 -3.17227 0
M  V30 3808 H 360.684 -2.97727 -0.12754 0
M  V30 3809 H 358.221 -1.47011 -0.0511978 0
M  V30 3810 H 360.179 -3.27059 -2.59014 0
M  V30 3811 H 358.809 -2.14298 -2.41405 0
M  V30 3812 H 357.861 -3.75492 -0.609095 0
M  V30 3813 H 359.173 -4.88375 -1.01447 0
M  V30 3814 H 358.327 -5.04869 -3.3644 0
M  V30 3815 H 357.066 -3.83233 -3.01635 0
M  V30 3816 H 356.071 -5.34712 -1.27916 0
M  V30 3817 H 357.296 -6.58686 -1.65255 0
M  V30 3818 H 355.242 -5.48067 -3.60497 0
M  V30 3819 H 355.159 -7.01843 -2.80986 0
M  V30 3820 H 356.427 -6.71447 -3.95953 0
M  V30 3821 N 360.656 0.0484629 -1.57525 0
M  V30 3822 C 361.619 1.03956 -2.04269 0
M  V30 3823 C 362.619 1.30211 -0.943496 0
M  V30 3824 O 363.809 1.25539 -1.20771 0
M  V30 3825 C 360.941 2.37742 -2.44319 0
M  V30 3826 H 362.134 0.636182 -2.93075 0
M  V30 3827 H 359.687 0.294811 -1.53494 0
M  V30 3828 H 360.422 2.82866 -1.5861 0
M  V30 3829 H 360.207 2.20021 -3.24551 0
M  V30 3830 H 361.697 3.08936 -2.80978 0
M  V30 3831 N 362.134 1.5431 0.320358 0
M  V30 3832 C 363.359 1.76954 1.08175 0
M  V30 3833 C 363.784 0.518193 1.80821 0
M  V30 3834 O 363.142 -0.530411 1.73368 0
M  V30 3835 C 363.19 2.96451 2.05303 0
M  V30 3836 O 362.294 2.68221 3.13259 0
M  V30 3837 H 361.635 0.586275 0.311733 0
M  V30 3838 H 364.165 2.01342 0.363676 0
M  V30 3839 H 364.175 3.23887 2.48116 0
M  V30 3840 H 362.85 3.87196 1.51829 0
M  V30 3841 H 361.427 2.51744 2.75099 0
M  V30 3842 N 363.613 -0.582584 1.46437 0
M  V30 3843 C 364.838 -1.37168 1.55563 0
M  V30 3844 C 365.263 -1.87061 0.19743 0
M  V30 3845 O 364.621 -1.61572 -0.822451 0
M  V30 3846 C 364.669 -2.53511 2.56446 0
M  V30 3847 O 363.773 -3.54953 2.09958 0
M  V30 3848 H 363.114 -0.408494 0.523477 0
M  V30 3849 H 365.644 -0.706646 1.9201 0
M  V30 3850 H 365.654 -3.00426 2.76058 0
M  V30 3851 H 364.329 -2.16549 3.55076 0
M  V30 3852 H 362.906 -3.14516 2.00334 0
M  V30 3853 N 365.091 -1.34144 -0.827227 0
M  V30 3854 C 366.316 -1.29476 -1.62021 0
M  V30 3855 C 366.741 0.129292 -1.87655 0
M  V30 3856 O 366.099 1.08967 -1.449 0
M  V30 3857 C 366.147 -2.08702 -2.94068 0
M  V30 3858 O 365.251 -1.45359 -3.85933 0
M  V30 3859 H 364.592 -0.444881 -0.492927 0
M  V30 3860 H 367.122 -1.76882 -1.02829 0
M  V30 3861 H 367.132 -2.19898 -3.43669 0
M  V30 3862 H 365.807 -3.12241 -2.74734 0
M  V30 3863 H 364.384 -1.42879 -3.44442 0
M  V30 3864 N 366.569 1.04691 -1.17803 0
M  V30 3865 C 367.499 2.14494 -0.92275 0
M  V30 3866 C 368.48 1.69546 0.137179 0
M  V30 3867 O 369.665 1.94195 -0.0141108 0
M  V30 3868 C 366.795 3.44491 -0.440803 0
M  V30 3869 C 365.749 4.03031 -1.4405 0
M  V30 3870 C 365.075 5.28432 -0.81631 0
M  V30 3871 C 366.375 4.39932 -2.81527 0
M  V30 3872 H 368.069 2.36107 -1.84103 0
M  V30 3873 H 365.615 1.1347 -0.886599 0
M  V30 3874 H 367.568 4.2066 -0.249602 0
M  V30 3875 H 366.292 3.22546 0.513025 0
M  V30 3876 H 364.951 3.28937 -1.61853 0
M  V30 3877 H 364.599 5.02792 0.144511 0
M  V30 3878 H 364.299 5.68559 -1.48371 0
M  V30 3879 H 365.823 6.07284 -0.635496 0
M  V30 3880 H 367.237 5.07113 -2.67412 0
M  V30 3881 H 365.634 4.9109 -3.44892 0
M  V30 3882 H 366.704 3.50045 -3.35554 0
M  V30 3883 N 368.047 0.979072 1.23499 0
M  V30 3884 C 369.295 0.645941 1.91499 0
M  V30 3885 C 369.616 -0.822948 1.76784 0
M  V30 3886 O 368.886 -1.58854 1.14639 0
M  V30 3887 H 367.466 0.235919 0.708767 0
M  V30 3888 H 370.128 1.2426 1.50152 0
M  V30 3889 H 369.224 0.896411 2.9895 0
M  V30 3890 N 369.525 -1.3858 0.750561 0
M  V30 3891 C 370.455 -2.33102 0.136237 0
M  V30 3892 C 371.436 -1.54713 -0.706965 0
M  V30 3893 O 372.621 -1.83043 -0.648769 0
M  V30 3894 C 369.751 -3.38882 -0.760017 0
M  V30 3895 C 368.705 -4.27995 -0.0197785 0
M  V30 3896 C 368.031 -5.24605 -1.03408 0
M  V30 3897 C 369.331 -5.09554 1.14684 0
M  V30 3898 H 371.025 -2.84726 0.925822 0
M  V30 3899 H 368.571 -1.36898 0.446654 0
M  V30 3900 H 370.524 -4.0397 -1.19943 0
M  V30 3901 H 369.248 -2.85734 -1.58189 0
M  V30 3902 H 367.907 -3.64409 0.400184 0
M  V30 3903 H 367.555 -4.67746 -1.84994 0
M  V30 3904 H 367.255 -5.85081 -0.543464 0
M  V30 3905 H 368.779 -5.9257 -1.47288 0
M  V30 3906 H 370.193 -5.67899 0.785118 0
M  V30 3907 H 368.59 -5.7925 1.56812 0
M  V30 3908 H 369.66 -4.4347 1.96118 0
M  V30 3909 N 371.003 -0.499398 -1.49478 0
M  V30 3910 C 371.935 0.316575 -2.27003 0
M  V30 3911 C 372.948 0.932047 -1.33479 0
M  V30 3912 O 374.137 0.815658 -1.58774 0
M  V30 3913 C 371.237 1.46055 -3.05812 0
M  V30 3914 C 370.41 0.952679 -4.26899 0
M  V30 3915 C 369.469 1.97407 -4.87767 0
M  V30 3916 O 368.495 1.54326 -5.4788 0
M  V30 3917 N 369.697 3.30436 -4.77276 0
M  V30 3918 H 372.462 -0.348168 -2.97671 0
M  V30 3919 H 370.023 -0.33185 -1.58463 0
M  V30 3920 H 372.015 2.14135 -3.43407 0
M  V30 3921 H 370.585 2.02948 -2.37762 0
M  V30 3922 H 369.805 0.0968248 -3.94081 0
M  V30 3923 H 371.093 0.59174 -5.05347 0
M  V30 3924 H 370.491 3.68126 -4.29534 0
M  V30 3925 H 369.048 3.94235 -5.19059 0
M  V30 3926 N 372.481 1.55866 -0.233164 0
M  V30 3927 C 373.758 1.90471 0.444988 0
M  V30 3928 C 374.138 1.15209 1.7689 0
M  V30 3929 O 373.486 0.265119 2.26957 0
M  V30 3930 C 373.696 3.4333 0.626559 0
M  V30 3931 C 375.044 4.14319 0.92871 0
M  V30 3932 O 376.068 3.48993 0.712926 0
M  V30 3933 O 374.927 5.29846 1.33887 0
M  V30 3934 H 372.021 0.792347 0.236885 0
M  V30 3935 H 374.567 1.67437 -0.276211 0
M  V30 3936 H 373.339 3.90095 -0.306822 0
M  V30 3937 H 372.962 3.72181 1.39881 0
M  V30 3938 N 373.959 -0.0401083 1.57549 0
M  V30 3939 C 375.206 -0.733125 1.88763 0
M  V30 3940 C 375.534 -1.75946 0.829058 0
M  V30 3941 O 374.789 -1.94949 -0.171323 0
M  V30 3942 C 375.088 -1.44902 3.26708 0
M  V30 3943 C 374.754 -0.559707 4.47413 0
M  V30 3944 C 373.416 -0.314731 4.8017 0
M  V30 3945 C 375.768 0.0549743 5.21171 0
M  V30 3946 C 373.096 0.553886 5.8408 0
M  V30 3947 C 375.448 0.911229 6.26003 0
M  V30 3948 C 374.112 1.16577 6.57241 0
M  V30 3949 H 373.382 -0.268269 0.690733 0
M  V30 3950 H 376.029 0.00679408 1.91499 0
M  V30 3951 H 374.334 -2.26197 3.1991 0
M  V30 3952 H 376.031 -1.99058 3.48105 0
M  V30 3953 H 372.621 -0.760793 4.21794 0
M  V30 3954 H 376.805 -0.121344 4.96152 0
M  V30 3955 H 372.061 0.759518 6.06664 0
M  V30 3956 H 376.235 1.3941 6.82303 0
M  V30 3957 H 373.862 1.84058 7.37582 0
M  V30 3958 N 375.437 -1.54477 -0.31217 0
M  V30 3959 C 376.714 -1.63891 -1.06767 0
M  V30 3960 C 377.094 -0.480028 -2.0557 0
M  V30 3961 O 376.442 0.524487 -2.22399 0
M  V30 3962 C 376.652 -3.01402 -1.75948 0
M  V30 3963 C 378 -3.57838 -2.28554 0
M  V30 3964 O 379.024 -3.03782 -1.85998 0
M  V30 3965 O 377.883 -4.52462 -3.06497 0
M  V30 3966 H 374.977 -0.664125 -0.492816 0
M  V30 3967 H 377.523 -1.66823 -0.311149 0
M  V30 3968 H 376.295 -3.77187 -1.04144 0
M  V30 3969 H 375.918 -3.02199 -2.58383 0
M  V30 3970 N 376.915 0.57481 -1.46744 0
M  V30 3971 C 377.845 1.69337 -1.60771 0
M  V30 3972 C 378.826 1.63825 -0.457736 0
M  V30 3973 O 380.011 1.8172 -0.684947 0
M  V30 3974 C 377.141 3.0798 -1.60517 0
M  V30 3975 C 376.095 3.28327 -2.74564 0
M  V30 3976 C 375.421 4.67578 -2.59373 0
M  V30 3977 C 376.721 3.15398 -4.16319 0
M  V30 3978 H 378.415 1.57853 -2.54407 0
M  V30 3979 H 375.961 0.75799 -1.22436 0
M  V30 3980 H 377.914 3.86061 -1.68923 0
M  V30 3981 H 376.638 3.20381 -0.634305 0
M  V30 3982 H 375.297 2.52649 -2.65639 0
M  V30 3983 H 374.945 4.76755 -1.60353 0
M  V30 3984 H 374.645 4.82144 -3.35873 0
M  V30 3985 H 376.169 5.47817 -2.69682 0
M  V30 3986 H 377.583 3.83315 -4.26313 0
M  V30 3987 H 375.98 3.41482 -4.93468 0
M  V30 3988 H 377.05 2.12372 -4.3592 0
M  V30 3989 N 378.394 1.34581 0.820102 0
M  V30 3990 C 379.324 1.29038 1.94606 0
M  V30 3991 C 380.305 0.1673 1.69275 0
M  V30 3992 O 381.49 0.360112 1.90832 0
M  V30 3993 C 378.62 1.04793 3.31113 0
M  V30 3994 C 377.574 2.13597 3.70891 0
M  V30 3995 C 376.9 1.74537 5.05412 0
M  V30 3996 C 378.2 3.55451 3.8269 0
M  V30 3997 H 379.894 2.23248 1.99501 0
M  V30 3998 H 377.44 1.0747 0.958449 0
M  V30 3999 H 379.393 0.995592 4.0947 0
M  V30 4000 H 378.117 0.0702565 3.26524 0
M  V30 4001 H 376.776 2.17905 2.9481 0
M  V30 4002 H 376.424 0.754226 4.97313 0
M  V30 4003 H 376.124 2.47361 5.32997 0
M  V30 4004 H 377.648 1.70803 5.86224 0
M  V30 4005 H 379.062 3.5354 4.51312 0
M  V30 4006 H 377.459 4.26922 4.21732 0
M  V30 4007 H 378.529 3.92587 2.84611 0
M  V30 4008 N 379.872 -1.04064 1.18357 0
M  V30 4009 C 381.288 -1.2947 0.933258 0
M  V30 4010 C 381.488 -1.97466 -0.401169 0
M  V30 4011 O 380.544 -2.25528 -1.13549 0
M  V30 4012 C 381.857 -2.15337 2.09882 0
M  V30 4013 C 383.405 -2.28683 2.13712 0
M  V30 4014 C 383.88 -3.17917 3.29686 0
M  V30 4015 N 385.371 -3.25504 3.29547 0
M  V30 4016 C 386.106 -3.94706 4.15926 0
M  V30 4017 N 385.602 -4.66239 5.12439 0
M  V30 4018 N 387.395 -3.90986 4.0384 0
M  V30 4019 H 379.546 -0.583359 2.04232 0
M  V30 4020 H 381.809 -0.319921 0.892387 0
M  V30 4021 H 381.515 -1.72682 3.06389 0
M  V30 4022 H 381.389 -3.16015 2.05947 0
M  V30 4023 H 383.776 -2.70575 1.17784 0
M  V30 4024 H 383.857 -1.27596 2.21705 0
M  V30 4025 H 383.501 -2.76736 4.25887 0
M  V30 4026 H 383.431 -4.19036 3.1893 0
M  V30 4027 H 385.922 -2.74547 2.59677 0
M  V30 4028 H 386.235 -5.16638 5.74722 0
M  V30 4029 H 384.58 -4.65143 5.16398 0
M  V30 4030 H 387.771 -3.34234 3.27727 0
M  V30 4031 H 387.944 -4.44646 4.71375 0
M  V30 4032 N 381.35 -0.985608 -1.22978 0
M  V30 4033 C 382.596 -0.65836 -1.91816 0
M  V30 4034 C 382.929 0.806692 -1.76653 0
M  V30 4035 O 382.204 1.58252 -1.13078 0
M  V30 4036 C 382.487 -1.056 -3.44268 0
M  V30 4037 C 382.34 -2.57906 -3.68516 0
M  V30 4038 C 383.659 -0.603781 -4.35939 0
M  V30 4039 H 380.778 -0.24065 -0.696604 0
M  V30 4040 H 383.42 -1.22783 -1.44998 0
M  V30 4041 H 381.57 -0.571445 -3.84274 0
M  V30 4042 H 383.242 -3.13976 -3.3796 0
M  V30 4043 H 381.485 -3.00305 -3.13048 0
M  V30 4044 H 382.156 -2.80779 -4.75255 0
M  V30 4045 H 384.632 -1.01987 -4.03408 0
M  V30 4046 H 383.508 -0.910383 -5.41298 0
M  V30 4047 H 383.769 0.495761 -4.39312 0
M  V30 4048 N 382.828 1.3818 -0.7579 0
M  V30 4049 C 384.077 1.99261 -0.312744 0
M  V30 4050 C 384.39 1.60846 1.11301 0
M  V30 4051 O 385.596 2.14929 1.65885 0
M  V30 4052 C 384.052 3.56294 -0.50821 0
M  V30 4053 C 383.66 4.03657 -1.94333 0
M  V30 4054 C 385.404 4.24313 -0.125982 0
M  V30 4055 C 383.311 5.53347 -2.08712 0
M  V30 4056 H 382.241 0.745456 -0.113185 0
M  V30 4057 H 384.892 1.57889 -0.935056 0
M  V30 4058 H 383.274 3.95575 0.183353 0
M  V30 4059 H 384.448 3.75655 -2.66871 0
M  V30 4060 H 382.763 3.48376 -2.28086 0
M  V30 4061 H 385.36 5.34279 -0.212125 0
M  V30 4062 H 385.703 4.05962 0.921964 0
M  V30 4063 H 386.236 3.90285 -0.769563 0
M  V30 4064 H 382.975 5.76607 -3.11777 0
M  V30 4065 H 382.495 5.83078 -1.4064 0
M  V30 4066 H 384.174 6.19111 -1.87912 0
M  V30 4067 N 384.306 0.507319 1.49211 0
M  V30 4068 C 385.554 -0.0348839 2.0207 0
M  V30 4069 C 385.875 -1.36898 1.38866 0
M  V30 4070 O 385.145 -1.88133 0.546151 0
M  V30 4071 H 383.725 -0.0158812 0.746831 0
M  V30 4072 H 386.387 0.665998 1.83168 0
M  V30 4073 H 385.483 -0.159917 3.1169 0
M  V30 4074 N 385.784 -1.5574 0.241426 0
M  V30 4075 C 387.2 -1.59196 -0.113548 0
M  V30 4076 C 387.4 -1.25852 -1.57364 0
M  V30 4077 O 386.456 -1.00322 -2.31715 0
M  V30 4078 C 387.769 -2.99814 0.230695 0
M  V30 4079 C 389.317 -3.12513 0.174547 0
M  V30 4080 C 389.792 -4.55342 0.492744 0
M  V30 4081 N 391.283 -4.61076 0.443043 0
M  V30 4082 C 392.018 -5.6956 0.662484 0
M  V30 4083 N 391.514 -6.86328 0.944761 0
M  V30 4084 N 393.307 -5.58957 0.593564 0
M  V30 4085 H 385.458 -1.75685 1.19368 0
M  V30 4086 H 387.721 -0.81756 0.479896 0
M  V30 4087 H 387.427 -3.28932 1.24485 0
M  V30 4088 H 387.301 -3.74568 -0.444833 0
M  V30 4089 H 389.688 -2.83179 -0.830277 0
M  V30 4090 H 389.769 -2.40045 0.883845 0
M  V30 4091 H 389.413 -4.85396 1.4951 0
M  V30 4092 H 389.343 -5.26062 -0.23797 0
M  V30 4093 H 391.834 -3.77179 0.233374 0
M  V30 4094 H 392.147 -7.64935 1.09977 0
M  V30 4095 H 390.492 -6.88025 0.982175 0
M  V30 4096 H 393.683 -4.66611 0.373123 0
M  V30 4097 H 393.856 -6.43433 0.767981 0
M  V30 4098 N 387.262 0.0317525 -1.57568 0
M  V30 4099 C 388.51 0.721676 -1.88776 0
M  V30 4100 C 388.831 1.76039 -0.838772 0
M  V30 4101 O 388.101 1.95482 0.127935 0
M  V30 4102 H 386.681 0.269534 -0.696678 0
M  V30 4103 H 389.343 -0.00165879 -1.949 0
M  V30 4104 H 388.439 1.21293 -2.87566 0
M  V30 4105 N 388.74 1.54641 0.303973 0
M  V30 4106 C 389.965 1.78092 1.06292 0
M  V30 4107 C 390.39 0.537342 1.80262 0
M  V30 4108 O 389.748 -0.511993 1.7392 0
M  V30 4109 C 389.796 2.98612 2.02147 0
M  V30 4110 O 388.9 2.71528 3.10397 0
M  V30 4111 H 388.241 0.589548 0.305497 0
M  V30 4112 H 390.771 2.01716 0.3423 0
M  V30 4113 H 390.781 3.265 2.44667 0
M  V30 4114 H 389.456 3.88785 1.47714 0
M  V30 4115 H 388.033 2.54648 2.72413 0
M  V30 4116 N 390.218 -0.567019 1.47046 0
M  V30 4117 C 391.448 -1.34831 1.56538 0
M  V30 4118 C 391.856 -1.8802 0.21101 0
M  V30 4119 O 391.199 -1.65152 -0.804387 0
M  V30 4120 C 391.261 -2.56139 2.52256 0
M  V30 4121 C 390.925 -2.24307 3.98165 0
M  V30 4122 C 391.922 -1.82192 4.86931 0
M  V30 4123 C 389.607 -2.35968 4.43423 0
M  V30 4124 C 391.601 -1.52153 6.18973 0
M  V30 4125 C 389.288 -2.05542 5.75496 0
M  V30 4126 C 390.286 -1.63701 6.63092 0
M  V30 4127 O 389.974 -1.33657 7.92711 0
M  V30 4128 H 389.706 -0.417683 0.531523 0
M  V30 4129 H 392.26 -0.694726 1.93294 0
M  V30 4130 H 390.49 -3.24356 2.10548 0
M  V30 4131 H 392.179 -3.18214 2.51982 0
M  V30 4132 H 392.945 -1.72684 4.53217 0
M  V30 4133 H 388.824 -2.67495 3.75456 0
M  V30 4134 H 392.368 -1.19421 6.87302 0
M  V30 4135 H 388.265 -2.14679 6.08755 0
M  V30 4136 H 389.033 -1.4737 8.05124 0
M  V30 4137 N 391.696 -1.35014 -0.812953 0
M  V30 4138 C 392.659 -1.27292 -1.90602 0
M  V30 4139 C 393.659 -0.185817 -1.59723 0
M  V30 4140 O 394.849 -0.439102 -1.68575 0
M  V30 4141 C 391.981 -0.967676 -3.26877 0
M  V30 4142 H 393.174 -2.24479 -1.9887 0
M  V30 4143 H 390.727 -1.19446 -1.00808 0
M  V30 4144 H 391.462 0.0005954 -3.243 0
M  V30 4145 H 391.247 -1.75412 -3.50675 0
M  V30 4146 H 392.737 -0.939085 -4.06904 0
M  V30 4147 N 393.175 1.03435 -1.18907 0
M  V30 4148 C 394.122 2.11591 -0.921837 0
M  V30 4149 C 395.092 1.65499 0.141226 0
M  V30 4150 O 396.277 1.908 0.000242829 0
M  V30 4151 C 393.417 3.42012 -0.460616 0
M  V30 4152 C 392.53 4.01682 -1.58982 0
M  V30 4153 C 391.665 5.20091 -1.08069 0
M  V30 4154 C 390.704 5.71805 -2.18416 0
M  V30 4155 N 389.841 6.81494 -1.68849 0
M  V30 4156 H 394.681 2.33787 -1.8479 0
M  V30 4157 H 392.218 1.1467 -0.921373 0
M  V30 4158 H 394.176 4.16834 -0.174642 0
M  V30 4159 H 392.806 3.19944 0.428467 0
M  V30 4160 H 391.858 3.24127 -1.99113 0
M  V30 4161 H 393.17 4.36084 -2.4214 0
M  V30 4162 H 392.324 6.02051 -0.749615 0
M  V30 4163 H 391.063 4.87209 -0.218771 0
M  V30 4164 H 390.068 4.88461 -2.5236 0
M  V30 4165 H 391.293 6.06728 -3.05054 0
M  V30 4166 H 389.239 6.50475 -0.849572 0
M  V30 4167 H 389.156 7.14994 -2.45601 0
M  V30 4168 H 390.424 7.67063 -1.38689 0
M  V30 4169 N 394.653 0.992116 1.22453 0
M  V30 4170 C 395.899 0.668523 1.91464 0
M  V30 4171 C 396.232 -0.797313 1.77078 0
M  V30 4172 O 395.507 -1.5765 1.13916 0
M  V30 4173 C 395.79 1.07424 3.43703 0
M  V30 4174 C 395.643 2.59857 3.67143 0
M  V30 4175 C 396.962 0.626891 4.35612 0
M  V30 4176 H 394.081 0.244341 0.695318 0
M  V30 4177 H 396.723 1.2355 1.44345 0
M  V30 4178 H 394.873 0.591816 3.83966 0
M  V30 4179 H 396.545 3.15764 3.3629 0
M  V30 4180 H 394.788 3.01961 3.11451 0
M  V30 4181 H 395.459 2.83296 4.73759 0
M  V30 4182 H 397.935 1.04125 4.02861 0
M  V30 4183 H 396.811 0.939076 5.40807 0
M  V30 4184 H 397.072 -0.472457 4.39568 0
M  V30 4185 N 396.131 -1.37776 0.765217 0
M  V30 4186 C 397.061 -2.32945 0.160953 0
M  V30 4187 C 398.042 -1.55454 -0.690516 0
M  V30 4188 O 399.227 -1.83721 -0.629318 0
M  V30 4189 C 396.357 -3.39669 -0.724031 0
M  V30 4190 C 395.311 -4.27992 0.0256173 0
M  V30 4191 C 394.637 -5.25673 -0.978383 0
M  V30 4192 C 395.937 -5.08309 1.20082 0
M  V30 4193 H 397.631 -2.83728 0.955969 0
M  V30 4194 H 395.177 -1.36416 0.461149 0
M  V30 4195 H 397.13 -4.05219 -1.15652 0
M  V30 4196 H 395.854 -2.87396 -1.5515 0
M  V30 4197 H 394.513 -3.63964 0.438812 0
M  V30 4198 H 394.161 -4.69682 -1.80022 0
M  V30 4199 H 393.861 -5.85625 -0.481378 0
M  V30 4200 H 395.385 -5.94098 -1.40995 0
M  V30 4201 H 396.799 -5.67034 0.845307 0
M  V30 4202 H 395.196 -5.77554 1.62947 0
M  V30 4203 H 396.266 -4.41365 2.00811 0
M  V30 4204 N 397.609 -0.515225 -1.4894 0
M  V30 4205 C 398.539 0.244628 -2.32215 0
M  V30 4206 C 399.52 0.949136 -1.41157 0
M  V30 4207 O 400.705 0.937783 -1.70057 0
M  V30 4208 C 397.835 1.30096 -3.22013 0
M  V30 4209 C 396.789 0.715486 -4.21977 0
M  V30 4210 C 396.115 1.87339 -5.00808 0
M  V30 4211 C 397.415 -0.302982 -5.2142 0
M  V30 4212 H 399.109 -0.450501 -2.95991 0
M  V30 4213 H 396.655 -0.218098 -1.42339 0
M  V30 4214 H 398.608 1.84037 -3.79089 0
M  V30 4215 H 397.332 2.02547 -2.56207 0
M  V30 4216 H 395.991 0.197715 -3.66066 0
M  V30 4217 H 395.639 2.58592 -4.31438 0
M  V30 4218 H 395.339 1.48764 -5.68457 0
M  V30 4219 H 396.863 2.41686 -5.60732 0
M  V30 4220 H 398.277 0.148802 -5.73107 0
M  V30 4221 H 396.674 -0.60532 -5.97039 0
M  V30 4222 H 397.744 -1.21395 -4.69459 0
M  V30 4223 N 399.087 1.5561 -0.249682 0
M  V30 4224 C 400.333 1.99306 0.374841 0
M  V30 4225 C 400.666 1.13767 1.57387 0
M  V30 4226 O 399.941 0.201711 1.93451 0
M  V30 4227 C 400.224 3.51507 0.781986 0
M  V30 4228 C 400.077 4.4781 -0.422629 0
M  V30 4229 C 401.396 4.08884 1.62793 0
M  V30 4230 H 398.515 0.724572 0.134773 0
M  V30 4231 H 401.157 1.86719 -0.351549 0
M  V30 4232 H 399.307 3.62363 1.4009 0
M  V30 4233 H 400.979 4.48931 -1.06108 0
M  V30 4234 H 399.222 4.20518 -1.06524 0
M  V30 4235 H 399.893 5.51919 -0.0943766 0
M  V30 4236 H 402.369 4.01147 1.10547 0
M  V30 4237 H 401.245 5.1564 1.88166 0
M  V30 4238 H 401.506 3.57515 2.60068 0
M  V30 4239 N 400.565 -0.0233959 1.57583 0
M  V30 4240 C 401.981 -0.379134 1.55031 0
M  V30 4241 C 402.181 -1.76255 0.976548 0
M  V30 4242 O 401.237 -2.45266 0.600078 0
M  V30 4243 C 402.55 -0.275792 2.99433 0
M  V30 4244 C 404.098 -0.352458 3.11009 0
M  V30 4245 C 404.573 -0.278501 4.57152 0
M  V30 4246 N 406.064 -0.337123 4.61972 0
M  V30 4247 C 406.799 -0.302876 5.726 0
M  V30 4248 N 406.295 -0.220589 6.92449 0
M  V30 4249 N 408.088 -0.353023 5.6099 0
M  V30 4250 H 400.239 0.881869 1.93227 0
M  V30 4251 H 402.502 0.335867 0.886509 0
M  V30 4252 H 402.208 0.675108 3.4516 0
M  V30 4253 H 402.082 -1.06721 3.61788 0
M  V30 4254 H 404.469 -1.29379 2.65226 0
M  V30 4255 H 404.55 0.468409 2.51475 0
M  V30 4256 H 404.194 0.659189 5.03604 0
M  V30 4257 H 404.124 -1.11755 5.14605 0
M  V30 4258 H 406.615 -0.403002 3.75745 0
M  V30 4259 H 406.928 -0.199713 7.72542 0
M  V30 4260 H 405.273 -0.186555 6.9475 0
M  V30 4261 H 408.464 -0.415339 4.66254 0
M  V30 4262 H 408.637 -0.322866 6.47195 0
M  V30 4263 N 402.043 -1.548 -0.295768 0
M  V30 4264 C 402.973 -1.89115 -1.36959 0
M  V30 4265 C 403.954 -0.75059 -1.52644 0
M  V30 4266 O 405.139 -1.00678 -1.66065 0
M  V30 4267 C 402.269 -2.14307 -2.73295 0
M  V30 4268 C 401.223 -3.30151 -2.72368 0
M  V30 4269 C 400.549 -3.40772 -4.12042 0
M  V30 4270 C 401.849 -4.67126 -2.33646 0
M  V30 4271 H 403.543 -2.79053 -1.08488 0
M  V30 4272 H 401.089 -1.34266 -0.520443 0
M  V30 4273 H 403.042 -2.36898 -3.48507 0
M  V30 4274 H 401.766 -1.21145 -3.03301 0
M  V30 4275 H 400.425 -3.0749 -1.99613 0
M  V30 4276 H 400.073 -2.45117 -4.39234 0
M  V30 4277 H 399.773 -4.18645 -4.12322 0
M  V30 4278 H 401.297 -3.6563 -4.89027 0
M  V30 4279 H 402.711 -4.89414 -2.98575 0
M  V30 4280 H 401.108 -5.47751 -2.45129 0
M  V30 4281 H 402.178 -4.67489 -1.28772 0
M  V30 4282 N 403.521 0.559213 -1.47345 0
M  V30 4283 C 404.468 1.66645 -1.59682 0
M  V30 4284 C 405.438 1.60168 -0.43994 0
M  V30 4285 O 406.623 1.79031 -0.659736 0
M  V30 4286 C 403.763 3.04969 -1.61518 0
M  V30 4287 C 402.876 3.21897 -2.88108 0
M  V30 4288 C 402.011 4.50608 -2.81294 0
M  V30 4289 C 401.05 4.60961 -4.02717 0
M  V30 4290 N 400.187 5.81024 -3.94151 0
M  V30 4291 H 405.027 1.55439 -2.54249 0
M  V30 4292 H 402.564 0.757219 -1.26113 0
M  V30 4293 H 404.522 3.85064 -1.60566 0
M  V30 4294 H 403.152 3.15015 -0.704645 0
M  V30 4295 H 402.204 2.35248 -2.98936 0
M  V30 4296 H 403.516 3.25412 -3.78032 0
M  V30 4297 H 402.67 5.3896 -2.7858 0
M  V30 4298 H 401.409 4.49568 -1.89049 0
M  V30 4299 H 400.414 3.71021 -4.05738 0
M  V30 4300 H 401.639 4.63761 -4.96087 0
M  V30 4301 H 399.585 5.80938 -3.04708 0
M  V30 4302 H 399.502 5.85909 -4.77752 0
M  V30 4303 H 400.77 6.71744 -3.9545 0
M  V30 4304 N 404.999 1.35443 0.805782 0
M  V30 4305 C 405.946 1.28431 1.91766 0
M  V30 4306 C 406.916 0.156102 1.65365 0
M  V30 4307 O 408.101 0.339936 1.87747 0
M  V30 4308 C 405.241 1.06301 3.2832 0
M  V30 4309 C 404.354 2.2805 3.66902 0
M  V30 4310 C 403.489 1.99064 4.92491 0
M  V30 4311 C 402.528 3.16863 5.23703 0
M  V30 4312 N 401.665 2.87647 6.40471 0
M  V30 4313 H 406.505 2.23511 1.97096 0
M  V30 4314 H 404.042 1.11105 0.964054 0
M  V30 4315 H 406 0.915012 4.07042 0
M  V30 4316 H 404.63 0.148822 3.22457 0
M  V30 4317 H 403.682 2.53711 2.83434 0
M  V30 4318 H 404.994 3.1601 3.85927 0
M  V30 4319 H 404.148 1.81099 5.7904 0
M  V30 4320 H 402.887 1.0839 4.75503 0
M  V30 4321 H 401.892 3.35404 4.35642 0
M  V30 4322 H 403.117 4.08339 5.4262 0
M  V30 4323 H 401.063 1.99568 6.24907 0
M  V30 4324 H 400.98 3.69141 6.59751 0
M  V30 4325 H 402.248 2.73226 7.30047 0
M  V30 4326 N 406.477 -1.02803 1.19454 0
M  V30 4327 C 407.705 -1.79841 1.02297 0
M  V30 4328 C 408.12 -1.83879 -0.428259 0
M  V30 4329 O 407.477 -1.28345 -1.29745 0
M  V30 4330 C 407.528 -3.24852 1.58598 0
M  V30 4331 O 407.249 -3.21097 2.98041 0
M  V30 4332 C 408.75 -4.18485 1.46236 0
M  V30 4333 H 405.97 -0.565936 0.360496 0
M  V30 4334 H 408.514 -1.2948 1.58288 0
M  V30 4335 H 406.669 -3.72401 1.06753 0
M  V30 4336 H 407.083 -4.12033 3.24545 0
M  V30 4337 H 408.557 -5.18121 1.90407 0
M  V30 4338 H 409.034 -4.37254 0.41301 0
M  V30 4339 H 409.64 -3.76811 1.97215 0
M  V30 4340 N 407.956 -0.998596 -1.21925 0
M  V30 4341 C 409.233 -0.593401 -1.86382 0
M  V30 4342 C 409.613 0.92916 -1.89552 0
M  V30 4343 O 408.961 1.81347 -1.39017 0
M  V30 4344 C 409.171 -1.22039 -3.26967 0
M  V30 4345 C 410.519 -1.32449 -4.03413 0
M  V30 4346 O 411.543 -1.17522 -3.36254 0
M  V30 4347 O 410.402 -1.56395 -5.23644 0
M  V30 4348 H 407.496 -0.202385 -0.801854 0
M  V30 4349 H 410.042 -1.09484 -1.29659 0
M  V30 4350 H 408.814 -2.26158 -3.19325 0
M  V30 4351 H 408.437 -0.704906 -3.91301 0
M  V30 4352 N 409.434 1.37368 -0.772513 0
M  V30 4353 C 410.85 1.53059 -0.452231 0
M  V30 4354 C 411.05 1.73065 1.03203 0
M  V30 4355 O 410.106 1.75245 1.81784 0
M  V30 4356 C 411.419 2.72659 -1.26797 0
M  V30 4357 C 412.967 2.86521 -1.25995 0
M  V30 4358 C 413.442 4.09105 -2.05905 0
M  V30 4359 N 414.933 4.16219 -2.03263 0
M  V30 4360 C 415.668 5.10107 -2.61875 0
M  V30 4361 N 415.164 6.09547 -3.29278 0
M  V30 4362 N 416.957 5.02596 -2.51701 0
M  V30 4363 H 409.108 1.22634 -1.7342 0
M  V30 4364 H 411.371 0.597206 -0.736239 0
M  V30 4365 H 411.077 2.64343 -2.31982 0
M  V30 4366 H 410.951 3.66363 -0.897672 0
M  V30 4367 H 413.338 2.94308 -0.216081 0
M  V30 4368 H 413.419 1.93774 -1.66989 0
M  V30 4369 H 413.063 4.0208 -3.10313 0
M  V30 4370 H 412.993 5.00968 -1.62292 0
M  V30 4371 H 415.484 3.45012 -1.54192 0
M  V30 4372 H 415.797 6.77718 -3.71374 0
M  V30 4373 H 414.142 6.09824 -3.33377 0
M  V30 4374 H 417.333 4.23855 -1.98657 0
M  V30 4375 H 417.506 5.75582 -2.97673 0
M  V30 4376 N 410.912 0.523116 1.48665 0
M  V30 4377 C 412.161 -0.01544 2.01694 0
M  V30 4378 C 412.474 -1.35975 1.40606 0
M  V30 4379 O 413.68 -1.98627 1.85093 0
M  V30 4380 C 412.136 -0.0779303 3.59816 0
M  V30 4381 C 411.744 1.26107 4.29885 0
M  V30 4382 C 413.488 -0.565678 4.20714 0
M  V30 4383 C 411.395 1.15954 5.79921 0
M  V30 4384 H 410.325 -0.00954163 0.75394 0
M  V30 4385 H 412.976 0.665865 1.70993 0
M  V30 4386 H 411.358 -0.824165 3.87329 0
M  V30 4387 H 412.532 2.02233 4.14051 0
M  V30 4388 H 410.847 1.68401 3.80828 0
M  V30 4389 H 413.444 -0.6595 5.30617 0
M  V30 4390 H 413.787 -1.56984 3.85567 0
M  V30 4391 H 414.32 0.12467 3.97605 0
M  V30 4392 H 411.059 2.13864 6.19631 0
M  V30 4393 H 410.579 0.439529 5.98187 0
M  V30 4394 H 412.258 0.847361 6.41427 0
M  V30 4395 N 412.39 -1.55475 0.257931 0
M  V30 4396 C 413.62 -2.03314 -0.367026 0
M  V30 4397 C 414.028 -1.13625 -1.51281 0
M  V30 4398 O 413.371 -0.145334 -1.83124 0
M  V30 4399 C 413.433 -3.47362 -0.926284 0
M  V30 4400 C 413.097 -4.56914 0.0886584 0
M  V30 4401 C 414.094 -5.12013 0.902123 0
M  V30 4402 C 411.779 -5.01827 0.217936 0
M  V30 4403 C 413.773 -6.10529 1.83122 0
M  V30 4404 C 411.46 -6.00172 1.15052 0
M  V30 4405 C 412.458 -6.54402 1.95568 0
M  V30 4406 O 412.146 -7.50827 2.87253 0
M  V30 4407 H 411.878 -0.669976 -0.0900443 0
M  V30 4408 H 414.432 -2.01804 0.382673 0
M  V30 4409 H 412.662 -3.46056 -1.72575 0
M  V30 4410 H 414.351 -3.78637 -1.46249 0
M  V30 4411 H 415.117 -4.78139 0.812891 0
M  V30 4412 H 410.996 -4.59272 -0.398721 0
M  V30 4413 H 414.54 -6.52783 2.46008 0
M  V30 4414 H 410.437 -6.33465 1.24064 0
M  V30 4415 H 411.205 -7.68483 2.81739 0
M  V30 4416 N 413.868 0.0150385 -1.57593 0
M  V30 4417 C 414.831 0.995996 -2.06428 0
M  V30 4418 C 415.831 1.2818 -0.970903 0
M  V30 4419 O 417.021 1.22949 -1.23406 0
M  V30 4420 C 414.153 2.32506 -2.49307 0
M  V30 4421 H 415.346 0.573873 -2.94358 0
M  V30 4422 H 412.899 0.262186 -1.54085 0
M  V30 4423 H 413.634 2.79438 -1.64575 0
M  V30 4424 H 413.419 2.13087 -3.29145 0
M  V30 4425 H 414.909 3.02906 -2.87468 0
M  V30 4426 N 415.346 1.54954 0.287554 0
M  V30 4427 C 416.279 1.81737 1.3801 0
M  V30 4428 C 417.257 0.669412 1.48181 0
M  V30 4429 O 418.441 0.910839 1.65033 0
M  V30 4430 C 415.568 1.96606 2.75796 0
M  V30 4431 C 414.614 3.19098 2.82982 0
M  V30 4432 S 415.447 4.7683 2.43707 0
M  V30 4433 C 416.603 4.94653 3.83496 0
M  V30 4434 H 416.836 2.74122 1.15085 0
M  V30 4435 H 414.369 1.46538 0.486403 0
M  V30 4436 H 416.327 2.05858 3.55152 0
M  V30 4437 H 414.988 1.05136 2.95982 0
M  V30 4438 H 414.181 3.26344 3.84077 0
M  V30 4439 H 413.783 3.08361 2.11635 0
M  V30 4440 H 416.075 4.79502 4.78628 0
M  V30 4441 H 417.018 5.96728 3.8121 0
M  V30 4442 H 417.426 4.2272 3.74123 0
M  V30 4443 N 416.824 -0.551391 1.4764 0
M  V30 4444 C 417.771 -1.65796 1.60563 0
M  V30 4445 C 418.741 -1.59932 0.448428 0
M  V30 4446 O 419.926 -1.78679 0.669222 0
M  V30 4447 C 417.066 -3.04108 1.63133 0
M  V30 4448 C 416.179 -3.20365 2.89811 0
M  V30 4449 C 415.314 -4.49109 2.8368 0
M  V30 4450 C 414.353 -4.58819 4.05156 0
M  V30 4451 N 413.49 -5.78926 3.97227 0
M  V30 4452 H 418.33 -1.54088 2.5507 0
M  V30 4453 H 415.867 -0.75052 1.26513 0
M  V30 4454 H 417.825 -3.84207 1.62606 0
M  V30 4455 H 416.455 -3.14637 0.721341 0
M  V30 4456 H 415.507 -2.33659 3.00179 0
M  V30 4457 H 416.819 -3.23402 3.79753 0
M  V30 4458 H 415.973 -5.37475 2.81434 0
M  V30 4459 H 414.712 -4.4856 1.91431 0
M  V30 4460 H 413.717 -3.68864 4.077 0
M  V30 4461 H 414.942 -4.61124 4.98539 0
M  V30 4462 H 412.888 -5.79314 3.07785 0
M  V30 4463 H 412.805 -5.83367 4.80853 0
M  V30 4464 H 414.073 -6.69637 3.99007 0
M  V30 4465 N 418.302 -1.35869 -0.798587 0
M  V30 4466 C 419.548 -1.2978 -1.55836 0
M  V30 4467 C 419.881 0.125322 -1.93795 0
M  V30 4468 O 419.156 1.07658 -1.61987 0
M  V30 4469 C 419.439 -2.21188 -2.84162 0
M  V30 4470 C 419.292 -3.72155 -2.52628 0
M  V30 4471 C 420.611 -2.11545 -3.85923 0
M  V30 4472 H 417.73 -0.472769 -0.565383 0
M  V30 4473 H 420.372 -1.66341 -0.918192 0
M  V30 4474 H 418.522 -1.90139 -3.38791 0
M  V30 4475 H 420.194 -4.13682 -2.04121 0
M  V30 4476 H 418.437 -3.92042 -1.85704 0
M  V30 4477 H 419.108 -4.31511 -3.44242 0
M  V30 4478 H 421.584 -2.38855 -3.40716 0
M  V30 4479 H 420.46 -2.77688 -4.73477 0
M  V30 4480 H 420.721 -1.09987 -4.282 0
M  V30 4481 N 419.78 1.02168 -1.19998 0
M  V30 4482 C 421.026 1.75945 -1.00852 0
M  V30 4483 C 421.359 1.88702 0.458828 0
M  V30 4484 O 420.634 1.40911 1.34069 0
M  V30 4485 C 420.917 3.18154 -1.68671 0
M  V30 4486 C 420.77 3.13224 -3.22817 0
M  V30 4487 C 422.089 4.16711 -1.41561 0
M  V30 4488 H 419.208 0.638673 -0.367785 0
M  V30 4489 H 421.85 1.19222 -1.4794 0
M  V30 4490 H 420 3.66586 -1.28636 0
M  V30 4491 H 421.672 2.72635 -3.72112 0
M  V30 4492 H 419.915 2.50751 -3.53986 0
M  V30 4493 H 420.586 4.13728 -3.65422 0
M  V30 4494 H 423.062 3.76913 -1.76284 0
M  V30 4495 H 421.938 5.14391 -1.91553 0
M  V30 4496 H 422.199 4.40774 -0.342193 0
M  V30 4497 N 421.258 1.00505 1.21394 0
M  V30 4498 C 422.205 0.565496 2.23765 0
M  V30 4499 C 423.175 -0.408466 1.60999 0
M  V30 4500 O 424.36 -0.310503 1.88257 0
M  V30 4501 C 421.5 -0.101667 3.4495 0
M  V30 4502 C 420.613 0.915479 4.22188 0
M  V30 4503 C 419.748 0.220574 5.30742 0
M  V30 4504 C 418.787 1.22527 5.99711 0
M  V30 4505 N 417.924 0.557831 6.9988 0
M  V30 4506 H 422.764 1.44314 2.60725 0
M  V30 4507 H 420.301 0.722643 1.28126 0
M  V30 4508 H 422.259 -0.505504 4.14126 0
M  V30 4509 H 420.889 -0.94303 3.08718 0
M  V30 4510 H 419.941 1.43756 3.52191 0
M  V30 4511 H 421.253 1.68005 4.69655 0
M  V30 4512 H 420.407 -0.239368 6.06228 0
M  V30 4513 H 419.146 -0.576401 4.84282 0
M  V30 4514 H 418.151 1.69571 5.22997 0
M  V30 4515 H 419.376 2.02332 6.48258 0
M  V30 4516 H 417.322 -0.219486 6.55633 0
M  V30 4517 H 417.239 1.26065 7.45415 0
M  V30 4518 H 418.507 0.121095 7.79406 0
M  V30 4519 N 422.737 -1.36956 0.779787 0
M  V30 4520 C 423.684 -2.30175 0.169697 0
M  V30 4521 C 424.654 -1.51501 -0.68094 0
M  V30 4522 O 425.839 -1.80042 -0.631629 0
M  V30 4523 C 422.979 -3.37985 -0.697131 0
M  V30 4524 C 422.092 -4.31661 0.170992 0
M  V30 4525 C 421.227 -5.2655 -0.701298 0
M  V30 4526 C 420.266 -6.11867 0.168869 0
M  V30 4527 N 419.403 -6.98973 -0.661855 0
M  V30 4528 H 424.243 -2.81767 0.970135 0
M  V30 4529 H 421.78 -1.38699 0.489994 0
M  V30 4530 H 423.738 -3.99128 -1.2146 0
M  V30 4531 H 422.368 -2.87739 -1.46309 0
M  V30 4532 H 421.42 -3.71756 0.80634 0
M  V30 4533 H 422.732 -4.91644 0.841875 0
M  V30 4534 H 421.886 -5.92937 -1.28494 0
M  V30 4535 H 420.625 -4.66998 -1.40584 0
M  V30 4536 H 419.63 -5.44452 0.764986 0
M  V30 4537 H 420.855 -6.73493 0.870863 0
M  V30 4538 H 418.801 -6.41941 -1.35086 0
M  V30 4539 H 418.718 -7.55984 -0.0484447 0
M  V30 4540 H 419.986 -7.6974 -1.22963 0
M  V30 4541 N 424.215 -0.530993 -1.48385 0
M  V30 4542 C 425.125 0.23503 -2.3342 0
M  V30 4543 C 426.141 0.93801 -1.46552 0
M  V30 4544 O 427.317 0.912745 -1.7953 0
M  V30 4545 C 424.382 1.26778 -3.22689 0
M  V30 4546 C 423.443 0.575038 -4.25431 0
M  V30 4547 C 422.676 1.55858 -5.10435 0
M  V30 4548 O 422.899 2.79129 -4.97437 0
M  V30 4549 O 421.833 1.09742 -5.91811 0
M  V30 4550 H 425.659 -0.461794 -3.00169 0
M  V30 4551 H 423.244 -0.291903 -1.46521 0
M  V30 4552 H 425.126 1.86457 -3.77904 0
M  V30 4553 H 423.801 1.94699 -2.586 0
M  V30 4554 H 422.708 -0.0622782 -3.74048 0
M  V30 4555 H 424.041 -0.062253 -4.92161 0
M  V30 4556 N 425.693 1.55336 -0.266172 0
M  V30 4557 C 426.623 2.25146 0.618981 0
M  V30 4558 C 427.604 1.23845 1.16604 0
M  V30 4559 O 428.789 1.52544 1.20183 0
M  V30 4560 C 425.919 2.96572 1.80728 0
M  V30 4561 C 424.873 4.04726 1.39215 0
M  V30 4562 C 424.199 4.63678 2.66283 0
M  V30 4563 C 425.499 5.19407 0.548942 0
M  V30 4564 H 427.193 2.99377 0.0368116 0
M  V30 4565 H 424.739 1.43991 0.0162651 0
M  V30 4566 H 426.692 3.44116 2.43232 0
M  V30 4567 H 425.416 2.19861 2.41514 0
M  V30 4568 H 424.075 3.57979 0.790351 0
M  V30 4569 H 423.723 3.83646 3.25308 0
M  V30 4570 H 423.423 5.367 2.39222 0
M  V30 4571 H 424.947 5.13967 3.29651 0
M  V30 4572 H 426.361 5.63059 1.07876 0
M  V30 4573 H 424.758 5.98936 0.373593 0
M  V30 4574 H 425.828 4.8295 -0.434394 0
M  V30 4575 N 427.171 -0.0066808 1.57599 0
M  V30 4576 C 428.417 -0.693947 1.90558 0
M  V30 4577 C 428.75 -1.73792 0.866594 0
M  V30 4578 O 428.025 -1.94156 -0.115548 0
M  V30 4579 C 428.308 -1.34317 3.34112 0
M  V30 4580 C 428.161 -0.311189 4.48722 0
M  V30 4581 C 429.48 -2.27116 3.7697 0
M  V30 4582 H 426.599 -0.250803 0.693013 0
M  V30 4583 H 429.241 0.043242 1.89951 0
M  V30 4584 H 427.391 -1.9715 3.3476 0
M  V30 4585 H 429.063 0.316944 4.6021 0
M  V30 4586 H 427.306 0.367253 4.32243 0
M  V30 4587 H 427.977 -0.804366 5.46108 0
M  V30 4588 H 430.453 -1.74306 3.77831 0
M  V30 4589 H 429.329 -2.69511 4.78179 0
M  V30 4590 H 429.59 -3.14743 3.10466 0
M  V30 4591 N 428.649 -1.55105 -0.279332 0
M  V30 4592 C 429.597 -1.88333 -1.36505 0
M  V30 4593 C 430.591 -0.759043 -1.51443 0
M  V30 4594 O 431.797 -0.943312 -1.53302 0
M  V30 4595 H 428.172 -0.59766 -0.456406 0
M  V30 4596 H 430.143 -2.79041 -1.05728 0
M  V30 4597 C 428.892 -2.16628 -2.7197 0
M  V30 4598 H 428.215 -3.02624 -2.61264 0
M  V30 4599 H 429.655 -2.43803 -3.46895 0
M  V30 4600 C 428.114 -0.971807 -3.22579 0
M  V30 4601 O 428.644 -0.203228 -4.01186 0
M  V30 4602 N 426.85 -0.771238 -2.80179 0
M  V30 4603 H 426.397 -1.39792 -2.1637 0
M  V30 4604 H 426.355 0.0263667 -3.14389 0
M  V30 4605 N 430.127 0.543554 -1.4793 0
M  V30 4606 C 431.404 1.30458 -1.4574 0
M  V30 4607 C 431.784 2.1048 -0.161692 0
M  V30 4608 O 431.132 2.11831 0.856734 0
M  V30 4609 C 431.342 2.19754 -2.71126 0
M  V30 4610 C 432.69 2.80334 -3.18901 0
M  V30 4611 O 433.714 2.30049 -2.71948 0
M  V30 4612 O 432.573 3.71766 -4.00565 0
M  V30 4613 H 429.667 0.588117 -0.581418 0
M  V30 4614 H 432.213 0.561328 -1.60147 0
M  V30 4615 H 430.985 1.60316 -3.56952 0
M  V30 4616 H 430.608 3.01351 -2.59371 0
M  V30 4617 N 431.605 1.3629 0.791371 0
M  V30 4618 C 432.882 1.20962 1.53712 0
M  V30 4619 C 433.262 -0.205021 2.10102 0
M  V30 4620 O 432.61 -1.21042 1.93807 0
M  V30 4621 C 432.82 2.29002 2.63361 0
M  V30 4622 C 434.168 2.65572 3.31295 0
M  V30 4623 O 435.192 2.2803 2.73643 0
M  V30 4624 O 434.051 3.3018 4.35481 0
M  V30 4625 H 431.145 0.47086 0.679867 0
M  V30 4626 H 433.691 1.48016 0.830021 0
M  V30 4627 H 432.463 3.2382 2.19674 0
M  V30 4628 H 432.086 2.03303 3.41692 0
M  V30 4629 N 433.083 -1.0153 1.20538 0
M  V30 4630 C 433.993 -2.13557 0.971113 0
M  V30 4631 C 435.009 -1.73845 -0.0734366 0
M  V30 4632 O 436.185 -2.01075 0.114299 0
M  V30 4633 C 433.25 -3.42661 0.527639 0
M  V30 4634 C 432.311 -3.96608 1.64319 0
M  V30 4635 C 431.544 -5.1955 1.22078 0
M  V30 4636 O 431.767 -5.70329 0.0900198 0
M  V30 4637 O 430.701 -5.66681 2.02871 0
M  V30 4638 H 434.527 -2.3619 1.90913 0
M  V30 4639 H 432.112 -1.11946 0.989362 0
M  V30 4640 H 433.994 -4.20404 0.289621 0
M  V30 4641 H 432.669 -3.21441 -0.381779 0
M  V30 4642 H 431.576 -3.20139 1.93551 0
M  V30 4643 H 432.909 -4.22219 2.52966 0
M  V30 4644 N 434.561 -1.01147 -1.20859 0
M  V30 4645 C 435.838 -0.613136 -1.85742 0
M  V30 4646 C 436.218 0.909004 -1.90526 0
M  V30 4647 O 435.566 1.79862 -1.40932 0
M  V30 4648 C 435.776 -1.255 -3.25654 0
M  V30 4649 C 437.124 -1.3672 -4.01986 0
M  V30 4650 O 438.148 -1.21082 -3.34989 0
M  V30 4651 O 437.007 -1.6194 -5.21956 0
M  V30 4652 H 434.101 -0.210878 -0.799662 0
M  V30 4653 H 436.647 -1.10853 -1.2849 0
M  V30 4654 H 435.419 -2.29532 -3.16908 0
M  V30 4655 H 435.042 -0.746369 -3.90532 0
M  V30 4656 N 436.039 1.36541 -0.78704 0
M  V30 4657 C 437.288 1.98552 -0.35494 0
M  V30 4658 C 437.601 1.63171 1.07864 0
M  V30 4659 O 438.807 2.18399 1.61289 0
M  V30 4660 C 437.263 3.55136 -0.583671 0
M  V30 4661 C 436.871 3.99444 -2.02851 0
M  V30 4662 C 438.615 4.2395 -0.215957 0
M  V30 4663 C 436.522 5.48796 -2.20403 0
M  V30 4664 H 435.452 0.742888 -0.128972 0
M  V30 4665 H 438.103 1.5587 -0.968337 0
M  V30 4666 H 436.485 3.95875 0.0994046 0
M  V30 4667 H 437.659 3.6991 -2.74779 0
M  V30 4668 H 435.974 3.43459 -2.35425 0
M  V30 4669 H 438.571 5.33709 -0.325405 0
M  V30 4670 H 438.914 4.07827 0.835646 0
M  V30 4671 H 439.447 3.88565 -0.852175 0
M  V30 4672 H 436.186 5.69864 -3.23937 0
M  V30 4673 H 435.706 5.79964 -1.52977 0
M  V30 4674 H 437.385 6.14986 -2.01002 0
M  V30 4675 N 437.518 0.538854 1.48102 0
M  V30 4676 C 438.795 -0.0568108 1.95517 0
M  V30 4677 C 439.175 -1.50408 1.48124 0
M  V30 4678 O 438.523 -2.17133 0.711727 0
M  V30 4679 C 438.733 0.0696262 3.48931 0
M  V30 4680 C 440.081 -0.0851202 4.24515 0
M  V30 4681 O 441.105 -0.0037347 3.562 0
M  V30 4682 O 439.964 -0.257025 5.45895 0
M  V30 4683 H 437.058 -0.0743695 0.823649 0
M  V30 4684 H 439.604 0.604081 1.58584 0
M  V30 4685 H 438.376 1.07744 3.76174 0
M  V30 4686 H 437.999 -0.629714 3.92582 0
M  V30 4687 N 438.996 -1.55193 0.274407 0
M  V30 4688 C 440.242 -2.00604 -0.33608 0
M  V30 4689 C 440.597 -1.15948 -1.53538 0
M  V30 4690 O 439.89 -0.221385 -1.90317 0
M  V30 4691 C 440.084 -3.49019 -0.769458 0
M  V30 4692 C 439.913 -4.48038 0.386301 0
M  V30 4693 C 438.683 -4.97757 0.869854 0
M  V30 4694 C 440.881 -4.99558 1.22254 0
M  V30 4695 N 438.863 -5.80575 1.99515 0
M  V30 4696 C 440.234 -5.79816 2.19575 0
M  V30 4697 C 442.289 -4.81799 1.25597 0
M  V30 4698 C 440.992 -6.44208 3.19981 0
M  V30 4699 C 443.018 -5.46989 2.24848 0
M  V30 4700 C 442.38 -6.27058 3.20901 0
M  V30 4701 H 438.479 -0.777013 -0.088172 0
M  V30 4702 H 441.063 -1.90583 0.398266 0
M  V30 4703 H 439.234 -3.59383 -1.47303 0
M  V30 4704 H 440.966 -3.81263 -1.35722 0
M  V30 4705 H 437.721 -4.71464 0.449281 0
M  V30 4706 H 438.145 -6.26675 2.5614 0
M  V30 4707 H 442.787 -4.19501 0.527158 0
M  V30 4708 H 440.505 -7.05656 3.93796 0
M  V30 4709 H 444.091 -5.35189 2.28174 0
M  V30 4710 H 442.971 -6.7661 3.96445 0
M  V30 4711 N 440.474 -0.00167713 -1.576 0
M  V30 4712 C 441.72 0.683832 -1.90923 0
M  V30 4713 C 442.053 1.7333 -0.875799 0
M  V30 4714 O 441.328 1.94215 0.10525 0
M  V30 4715 C 441.611 1.32543 -3.3482 0
M  V30 4716 C 441.464 0.287387 -4.48881 0
M  V30 4717 C 442.783 2.25114 -3.78169 0
M  V30 4718 H 439.902 0.247125 -0.694333 0
M  V30 4719 H 442.544 -0.0533149 -1.89925 0
M  V30 4720 H 440.694 1.95372 -3.35801 0
M  V30 4721 H 442.366 -0.341346 -4.60035 0
M  V30 4722 H 440.609 -0.39017 -4.32042 0
M  V30 4723 H 441.28 0.775393 -5.46527 0
M  V30 4724 H 443.756 1.723 -3.7875 0
M  V30 4725 H 442.632 2.66971 -4.79602 0
M  V30 4726 H 442.893 3.13092 -3.12131 0
M  V30 4727 N 441.952 1.55251 0.271103 0
M  V30 4728 C 442.884 1.84675 1.35749 0
M  V30 4729 C 443.897 0.731366 1.45447 0
M  V30 4730 O 445.086 1.00924 1.4723 0
M  V30 4731 C 442.186 1.99638 2.73857 0
M  V30 4732 C 441.359 3.30312 2.86727 0
M  V30 4733 C 440.418 3.35318 4.05522 0
M  V30 4734 O 439.444 4.08682 3.96191 0
M  V30 4735 N 440.646 2.62857 5.17577 0
M  V30 4736 H 443.411 2.78445 1.10853 0
M  V30 4737 H 440.972 1.55191 0.461218 0
M  V30 4738 H 442.964 2.00355 3.51625 0
M  V30 4739 H 441.534 1.12725 2.91568 0
M  V30 4740 H 440.754 3.42118 1.95829 0
M  V30 4741 H 442.042 4.16488 2.92258 0
M  V30 4742 H 441.44 2.02939 5.28046 0
M  V30 4743 H 439.997 2.69295 5.93568 0
M  V30 4744 N 443.43 -0.535701 1.48216 0
M  V30 4745 C 444.658 -1.31671 1.59594 0
M  V30 4746 C 445.073 -1.87083 0.254056 0
M  V30 4747 O 444.43 -1.66112 -0.755854 0
M  V30 4748 C 444.481 -2.47158 2.63809 0
M  V30 4749 O 444.202 -1.94032 3.92789 0
M  V30 4750 C 445.703 -3.39062 2.85573 0
M  V30 4751 H 442.923 -0.400623 0.538277 0
M  V30 4752 H 445.467 -0.646827 1.94001 0
M  V30 4753 H 443.622 -3.10043 2.32276 0
M  V30 4754 H 444.036 -2.69585 4.49916 0
M  V30 4755 H 445.51 -4.16459 3.62306 0
M  V30 4756 H 445.987 -3.93941 1.94184 0
M  V30 4757 H 446.593 -2.81975 3.18387 0
M  V30 4758 N 444.908 -1.36708 -0.784132 0
M  V30 4759 C 445.818 -1.3363 -1.92822 0
M  V30 4760 C 446.834 -0.237686 -1.72369 0
M  V30 4761 O 448.01 -0.470962 -1.95816 0
M  V30 4762 C 445.075 -1.13011 -3.27764 0
M  V30 4763 C 444.136 -2.32397 -3.60957 0
M  V30 4764 C 443.369 -2.12752 -4.89461 0
M  V30 4765 O 443.592 -1.10541 -5.59586 0
M  V30 4766 O 442.526 -3.00653 -5.21432 0
M  V30 4767 H 446.352 -2.29964 -1.98369 0
M  V30 4768 H 443.937 -1.1731 -0.925136 0
M  V30 4769 H 445.819 -1.03451 -4.08504 0
M  V30 4770 H 444.494 -0.19743 -3.23097 0
M  V30 4771 H 443.401 -2.47527 -2.80502 0
M  V30 4772 H 444.734 -3.2419 -3.70354 0
M  V30 4773 N 446.386 1.0089 -1.21074 0
M  V30 4774 C 447.333 2.09588 -0.966512 0
M  V30 4775 C 448.303 1.65761 0.106089 0
M  V30 4776 O 449.488 1.90758 -0.0402287 0
M  V30 4777 C 446.628 3.40958 -0.533058 0
M  V30 4778 C 445.741 3.9822 -1.67467 0
M  V30 4779 C 444.876 5.17682 -1.19076 0
M  V30 4780 C 443.915 5.67043 -2.30496 0
M  V30 4781 N 443.052 6.77759 -1.83267 0
M  V30 4782 H 447.892 2.29815 -1.89708 0
M  V30 4783 H 445.429 1.12689 -0.945489 0
M  V30 4784 H 447.387 4.1637 -0.263019 0
M  V30 4785 H 446.017 3.20781 0.360505 0
M  V30 4786 H 445.069 3.1983 -2.05944 0
M  V30 4787 H 446.381 4.3085 -2.51336 0
M  V30 4788 H 445.535 6.00326 -0.877151 0
M  V30 4789 H 444.274 4.86635 -0.322066 0
M  V30 4790 H 443.279 4.82999 -2.62664 0
M  V30 4791 H 444.504 6.00121 -3.17855 0
M  V30 4792 H 442.45 6.48527 -0.987356 0
M  V30 4793 H 442.367 7.09624 -2.60711 0
M  V30 4794 H 443.635 7.63949 -1.54928 0
M  V30 4795 N 447.864 1.01787 1.20321 0
M  V30 4796 C 448.814 0.559976 2.21016 0
M  V30 4797 C 449.798 -0.385366 1.56217 0
M  V30 4798 O 450.99 -0.208126 1.75772 0
M  V30 4799 C 448.119 -0.0990553 3.43157 0
M  V30 4800 C 447.205 0.86807 4.15121 0
M  V30 4801 N 447.596 2.0261 4.63447 0
M  V30 4802 C 445.894 0.689162 4.40643 0
M  V30 4803 C 446.595 2.63518 5.18588 0
M  V30 4804 N 445.571 1.91569 5.08726 0
M  V30 4805 H 449.373 1.44281 2.56048 0
M  V30 4806 H 446.887 0.883381 1.36272 0
M  V30 4807 H 448.884 -0.444643 4.14522 0
M  V30 4808 H 447.544 -0.977709 3.0963 0
M  V30 4809 H 448.555 2.40598 4.58621 0
M  V30 4810 H 445.232 -0.14133 4.17261 0
M  V30 4811 H 446.622 3.61527 5.66346 0
M  V30 4812 N 449.342 -1.36122 0.79427 0
M  V30 4813 C 450.588 -1.99406 0.369452 0
M  V30 4814 C 450.921 -1.62886 -1.05743 0
M  V30 4815 O 450.196 -0.886053 -1.73145 0
M  V30 4816 C 450.479 -3.56046 0.538833 0
M  V30 4817 C 450.332 -4.02404 2.00976 0
M  V30 4818 C 451.651 -4.40079 -0.0431359 0
M  V30 4819 H 448.77 -0.724397 0.135712 0
M  V30 4820 H 451.412 -1.61461 1.00151 0
M  V30 4821 H 449.562 -3.885 0.000771004 0
M  V30 4822 H 451.234 -3.80415 2.60926 0
M  V30 4823 H 449.477 -3.53765 2.51063 0
M  V30 4824 H 450.148 -5.11344 2.07922 0
M  V30 4825 H 452.624 -4.14013 0.416228 0
M  V30 4826 H 451.5 -5.48799 0.105374 0
M  V30 4827 H 451.761 -4.27264 -1.13571 0
M  V30 4828 N 450.82 -0.546701 -1.47814 0
M  V30 4829 C 452.067 -0.0187407 -2.02491 0
M  V30 4830 C 452.395 1.32685 -1.42215 0
M  V30 4831 O 451.65 1.87413 -0.563454 0
M  V30 4832 C 451.949 0.134869 -3.57145 0
M  V30 4833 C 451.615 -1.13849 -4.3629 0
M  V30 4834 C 450.277 -1.48743 -4.57634 0
M  V30 4835 C 452.629 -1.98277 -4.82012 0
M  V30 4836 C 449.957 -2.67932 -5.21948 0
M  V30 4837 C 452.309 -3.16659 -5.4764 0
M  V30 4838 C 450.973 -3.51879 -5.67219 0
M  V30 4839 H 450.243 -0.0068577 -0.740968 0
M  V30 4840 H 452.89 -0.716097 -1.77607 0
M  V30 4841 H 451.195 0.915118 -3.80963 0
M  V30 4842 H 452.892 0.558556 -3.97091 0
M  V30 4843 H 449.482 -0.856767 -4.19949 0
M  V30 4844 H 453.666 -1.72628 -4.6531 0
M  V30 4845 H 448.922 -2.95401 -5.35302 0
M  V30 4846 H 453.096 -3.82374 -5.82033 0
M  V30 4847 H 450.723 -4.44331 -6.16825 0
M  V30 4848 N 452.299 1.55045 -0.282633 0
M  V30 4849 C 453.209 2.26491 0.61147 0
M  V30 4850 C 454.225 1.29348 1.16384 0
M  V30 4851 O 455.401 1.62298 1.19253 0
M  V30 4852 C 452.466 2.97779 1.77563 0
M  V30 4853 C 451.527 4.10418 1.25919 0
M  V30 4854 C 450.76 4.78297 2.36786 0
M  V30 4855 O 450.983 4.45426 3.56303 0
M  V30 4856 O 449.917 5.66089 2.04517 0
M  V30 4857 H 453.743 3.03683 0.0324615 0
M  V30 4858 H 451.328 1.49317 -0.0497576 0
M  V30 4859 H 453.21 3.42554 2.45427 0
M  V30 4860 H 451.885 2.23498 2.34159 0
M  V30 4861 H 450.792 3.70082 0.546797 0
M  V30 4862 H 452.125 4.86622 0.738887 0
M  V30 4863 N 453.777 0.010035 1.57597 0
M  V30 4864 C 454.709 -1.00649 2.05918 0
M  V30 4865 C 455.722 -1.30077 0.978964 0
M  V30 4866 O 456.911 -1.26878 1.25556 0
M  V30 4867 C 454.011 -2.33876 2.45265 0
M  V30 4868 C 453.184 -2.23242 3.7614 0
M  V30 4869 C 452.243 -3.39242 4.02245 0
M  V30 4870 O 451.269 -3.1698 4.72771 0
M  V30 4871 N 452.471 -4.6242 3.50924 0
M  V30 4872 H 455.236 -0.594333 2.93748 0
M  V30 4873 H 452.797 -0.17714 1.60928 0
M  V30 4874 H 454.789 -3.1027 2.59836 0
M  V30 4875 H 453.359 -2.66799 1.62902 0
M  V30 4876 H 452.579 -1.31696 3.71551 0
M  V30 4877 H 453.867 -2.13321 4.61922 0
M  V30 4878 H 453.265 -4.83404 2.93832 0
M  V30 4879 H 451.822 -5.36046 3.70807 0
M  V30 4880 N 455.255 -1.55392 -0.262866 0
M  V30 4881 C 456.218 -1.88181 -1.30846 0
M  V30 4882 C 457.218 -0.757079 -1.41862 0
M  V30 4883 O 458.408 -1.02519 -1.40838 0
M  V30 4884 C 455.54 -2.09609 -2.68844 0
M  V30 4885 H 456.733 -2.81659 -1.02997 0
M  V30 4886 H 454.286 -1.48039 -0.501414 0
M  V30 4887 H 455.021 -1.18547 -3.01856 0
M  V30 4888 H 454.806 -2.91508 -2.62231 0
M  V30 4889 H 456.296 -2.36215 -3.44372 0
M  V30 4890 N 456.733 0.527833 -1.48498 0
M  V30 4891 C 457.958 1.313 -1.60546 0
M  V30 4892 C 458.383 1.86199 -0.26672 0
M  V30 4893 O 457.741 1.64513 0.761918 0
M  V30 4894 C 457.789 2.43818 -2.65678 0
M  V30 4895 O 456.893 3.46916 -2.22987 0
M  V30 4896 H 456.234 0.388784 -0.538277 0
M  V30 4897 H 458.764 0.634896 -1.945 0
M  V30 4898 H 458.774 2.89973 -2.87018 0
M  V30 4899 H 457.449 2.03222 -3.62869 0
M  V30 4900 H 456.026 3.06864 -2.11869 0
M  V30 4901 N 458.211 1.37122 0.776871 0
M  V30 4902 C 459.159 1.32549 1.91138 0
M  V30 4903 C 460.153 0.215119 1.68029 0
M  V30 4904 O 461.359 0.382852 1.75881 0
M  V30 4905 H 457.734 0.412952 0.62847 0
M  V30 4906 H 459.705 2.28332 1.92112 0
M  V30 4907 C 458.454 1.14422 3.28333 0
M  V30 4908 H 457.777 1.99115 3.46689 0
M  V30 4909 H 459.217 1.15272 4.0803 0
M  V30 4910 C 457.676 -0.150434 3.36564 0
M  V30 4911 O 458.206 -1.13584 3.85307 0
M  V30 4912 N 456.412 -0.19939 2.89915 0
M  V30 4913 H 455.959 0.603142 2.5044 0
M  V30 4914 H 455.917 -1.06526 2.95803 0
M  V30 4915 N 459.689 -1.00246 1.21608 0
M  V30 4916 C 460.639 -2.07492 0.945051 0
M  V30 4917 C 461.623 -1.60585 -0.100675 0
M  V30 4918 O 462.815 -1.76667 0.10859 0
M  V30 4919 C 459.944 -3.39425 0.514342 0
M  V30 4920 C 459.03 -3.92993 1.59428 0
M  V30 4921 N 459.421 -4.19898 2.81991 0
M  V30 4922 C 457.719 -4.21297 1.46374 0
M  V30 4923 C 458.42 -4.63297 3.51754 0
M  V30 4924 N 457.396 -4.66421 2.79199 0
M  V30 4925 H 461.198 -2.26222 1.87619 0
M  V30 4926 H 458.712 -1.18339 1.11219 0
M  V30 4927 H 460.709 -4.15808 0.301527 0
M  V30 4928 H 459.369 -3.22101 -0.410008 0
M  V30 4929 H 460.38 -4.08377 3.1851 0
M  V30 4930 H 457.057 -4.13095 0.604863 0
M  V30 4931 H 458.447 -4.92816 4.56708 0
M  V30 4932 N 461.167 -1.02423 -1.1978 0
M  V30 4933 C 462.578 -0.748389 -1.71044 0
M  V30 4934 C 462.929 0.732398 -1.82017 0
M  V30 4935 O 462.054 1.57116 -1.48807 0
M  V30 4936 C 462.649 -1.35187 -3.1066 0
M  V30 4937 C 461.208 -1.12472 -3.59203 0
M  V30 4938 C 460.355 -1.45283 -2.36195 0
M  V30 4939 H 463.306 -1.19275 -1.04686 0
M  V30 4940 H 463.327 -0.746408 -3.73107 0
M  V30 4941 H 462.839 -2.4296 -3.02642 0
M  V30 4942 H 460.94 -0.0649983 -3.72543 0
M  V30 4943 H 461.053 -1.81016 -4.43588 0
M  V30 4944 H 459.417 -0.872034 -2.39307 0
M  V30 4945 H 460.2 -2.54129 -2.30811 0
M  V30 4946 N 462.645 1.35699 -0.801477 0
M  V30 4947 C 463.892 1.98913 -0.379459 0
M  V30 4948 C 464.22 1.63592 1.05204 0
M  V30 4949 O 463.475 0.888563 1.74365 0
M  V30 4950 C 463.774 3.53828 -0.504041 0
M  V30 4951 C 463.44 4.09002 -1.8981 0
M  V30 4952 C 462.102 4.23783 -2.27951 0
M  V30 4953 C 464.454 4.38939 -2.81038 0
M  V30 4954 C 461.782 4.65816 -3.56696 0
M  V30 4955 C 464.134 4.82409 -4.09224 0
M  V30 4956 C 462.798 4.95395 -4.4737 0
M  V30 4957 H 462.068 0.727874 -0.138854 0
M  V30 4958 H 464.715 1.61994 -1.02128 0
M  V30 4959 H 463.02 3.91175 0.221242 0
M  V30 4960 H 464.717 4.00687 -0.158361 0
M  V30 4961 H 461.307 3.97946 -1.59176 0
M  V30 4962 H 465.491 4.27077 -2.52821 0
M  V30 4963 H 460.747 4.74059 -3.86106 0
M  V30 4964 H 464.921 5.04535 -4.80018 0
M  V30 4965 H 462.548 5.27724 -5.47185 0
M  V30 4966 N 464.123 0.554532 1.47522 0
M  V30 4967 C 465.053 -0.182974 2.32782 0
M  V30 4968 C 466.034 -0.911377 1.43624 0
M  V30 4969 O 467.219 -0.892366 1.72483 0
M  V30 4970 C 464.349 -1.21513 3.25349 0
M  V30 4971 C 463.303 -0.603355 4.23726 0
M  V30 4972 C 462.629 -1.73995 5.05598 0
M  V30 4973 C 463.929 0.441121 5.20434 0
M  V30 4974 H 465.623 0.52882 2.94693 0
M  V30 4975 H 463.169 0.255759 1.41711 0
M  V30 4976 H 465.122 -1.73922 3.83835 0
M  V30 4977 H 463.846 -1.95683 2.61487 0
M  V30 4978 H 462.505 -0.10059 3.66462 0
M  V30 4979 H 462.153 -2.47063 4.38143 0
M  V30 4980 H 461.853 -1.3364 5.72201 0
M  V30 4981 H 463.377 -2.26735 5.66942 0
M  V30 4982 H 464.791 0.00319931 5.733 0
M  V30 4983 H 463.188 0.763402 5.95224 0
M  V30 4984 H 464.258 1.33799 4.66075 0
M  V30 4985 N 465.601 -1.54893 0.290851 0
M  V30 4986 C 466.847 -2.0023 -0.321867 0
M  V30 4987 C 467.18 -1.179 -1.54316 0
M  V30 4988 O 466.455 -0.25293 -1.92848 0
M  V30 4989 C 466.738 -3.53456 -0.688515 0
M  V30 4990 C 466.591 -4.46532 0.541209 0
M  V30 4991 C 467.91 -4.13057 -1.51895 0
M  V30 4992 H 465.029 -0.727891 -0.115515 0
M  V30 4993 H 467.671 -1.85722 0.400931 0
M  V30 4994 H 465.821 -3.6595 -1.30433 0
M  V30 4995 H 467.493 -4.4596 1.17973 0
M  V30 4996 H 465.736 -4.17545 1.17636 0
M  V30 4997 H 466.407 -5.51475 0.240675 0
M  V30 4998 H 468.883 -4.03937 -0.99872 0
M  V30 4999 H 467.759 -5.20448 -1.74429 0
M  V30 5000 H 468.02 -3.64284 -2.50498 0
M  V30 5001 N 467.08 -0.0183926 -1.57589 0
M  V30 5002 C 468.328 0.661253 -1.90976 0
M  V30 5003 C 468.649 1.73281 -0.894353 0
M  V30 5004 O 467.919 1.9579 0.0656788 0
M  V30 5005 H 466.499 0.247233 -0.704901 0
M  V30 5006 H 469.161 -0.0636639 -1.94796 0
M  V30 5007 H 468.257 1.12083 -2.9128 0
M  V30 5008 N 468.558 1.5553 0.254621 0
M  V30 5009 C 469.488 1.9268 1.31897 0
M  V30 5010 C 470.469 0.790797 1.506 0
M  V30 5011 O 471.654 1.05045 1.63337 0
M  V30 5012 C 468.784 2.21477 2.67517 0
M  V30 5013 C 467.738 3.37256 2.63519 0
M  V30 5014 C 467.064 3.51576 4.02862 0
M  V30 5015 C 468.364 4.73157 2.21179 0
M  V30 5016 H 470.058 2.81832 1.01051 0
M  V30 5017 H 467.604 1.35599 0.484662 0
M  V30 5018 H 469.557 2.46055 3.42104 0
M  V30 5019 H 468.281 1.29144 2.99982 0
M  V30 5020 H 466.94 3.12675 1.9139 0
M  V30 5021 H 466.588 2.56676 4.32581 0
M  V30 5022 H 466.288 4.2943 4.01078 0
M  V30 5023 H 467.812 3.78467 4.79161 0
M  V30 5024 H 469.226 4.97158 2.85494 0
M  V30 5025 H 467.623 5.54058 2.30521 0
M  V30 5026 H 468.693 4.70739 1.16332 0
M  V30 5027 N 470.036 -0.519951 1.48776 0
M  V30 5028 C 470.986 -1.61995 1.60442 0
M  V30 5029 C 471.97 -1.54155 0.460991 0
M  V30 5030 O 473.162 -1.62006 0.712965 0
M  V30 5031 C 470.291 -3.00683 1.65664 0
M  V30 5032 C 469.377 -3.1359 2.8552 0
M  V30 5033 N 469.768 -2.96441 4.09825 0
M  V30 5034 C 468.066 -3.44662 2.83062 0
M  V30 5035 C 468.767 -3.1303 4.90293 0
M  V30 5036 N 467.743 -3.41058 4.23297 0
M  V30 5037 H 471.545 -1.47362 2.54287 0
M  V30 5038 H 469.059 -0.725649 1.45286 0
M  V30 5039 H 471.056 -3.79712 1.72117 0
M  V30 5040 H 469.716 -3.16401 0.729425 0
M  V30 5041 H 470.727 -2.72999 4.40104 0
M  V30 5042 H 467.404 -3.66675 1.9964 0
M  V30 5043 H 468.794 -3.04424 5.98979 0
M  V30 5044 N 471.514 -1.37532 -0.769588 0
M  V30 5045 C 472.739 -1.36231 -1.56384 0
M  V30 5046 C 473.164 0.0495849 -1.88035 0
M  V30 5047 O 472.522 1.02723 -1.49391 0
M  V30 5048 C 472.57 -2.20986 -2.84952 0
M  V30 5049 O 471.674 -1.61597 -3.79421 0
M  V30 5050 H 471.015 -0.465387 -0.473615 0
M  V30 5051 H 473.545 -1.81085 -0.952342 0
M  V30 5052 H 473.555 -2.34277 -3.34034 0
M  V30 5053 H 472.23 -3.23612 -2.61243 0
M  V30 5054 H 470.807 -1.57359 -3.38072 0
M  V30 5055 N 472.992 0.995999 -1.22138 0
M  V30 5056 C 474.232 1.75032 -1.05561 0
M  V30 5057 C 474.596 1.87729 0.402698 0
M  V30 5058 O 475.797 2.59813 0.689234 0
M  V30 5059 C 474.068 3.11973 -1.74379 0
M  V30 5060 S 475.627 4.03182 -1.73175 0
M  V30 5061 H 472.445 0.602137 -0.37809 0
M  V30 5062 H 475.047 1.19107 -1.55028 0
M  V30 5063 H 473.751 3.00371 -2.79652 0
M  V30 5064 H 473.282 3.7297 -1.25128 0
M  V30 5065 H 475.297 4.90043 -0.77923 0
M  V30 5066 N 474.47 1.03057 1.19235 0
M  V30 5067 C 475.717 0.728019 1.88961 0
M  V30 5068 C 476.045 -0.743515 1.79728 0
M  V30 5069 O 475.3 -1.55729 1.1852 0
M  V30 5070 C 475.599 1.1268 3.39172 0
M  V30 5071 C 475.265 2.5969 3.68608 0
M  V30 5072 C 473.927 2.99854 3.76352 0
M  V30 5073 C 476.279 3.54793 3.81801 0
M  V30 5074 C 473.607 4.34031 3.94758 0
M  V30 5075 C 475.959 4.88675 4.0172 0
M  V30 5076 C 474.623 5.28526 4.07697 0
M  V30 5077 H 473.893 0.266401 0.691456 0
M  V30 5078 H 476.54 1.29373 1.41191 0
M  V30 5079 H 474.845 0.479722 3.88852 0
M  V30 5080 H 476.542 0.870203 3.91444 0
M  V30 5081 H 473.132 2.27575 3.63191 0
M  V30 5082 H 477.316 3.24914 3.7516 0
M  V30 5083 H 472.572 4.6444 3.97625 0
M  V30 5084 H 476.746 5.6228 4.1087 0
M  V30 5085 H 474.373 6.32506 4.21712 0
M  V30 5086 N 475.948 -1.35272 0.808662 0
M  V30 5087 C 476.88 -2.28507 0.178149 0
M  V30 5088 C 477.893 -1.50377 -0.623754 0
M  V30 5089 O 479.082 -1.72583 -0.455774 0
M  V30 5090 C 476.182 -3.30038 -0.769959 0
M  V30 5091 C 475.355 -4.37398 -0.0139749 0
M  V30 5092 C 474.414 -5.18775 -0.880875 0
M  V30 5093 O 473.44 -5.68236 -0.331059 0
M  V30 5094 N 474.642 -5.37087 -2.20267 0
M  V30 5095 H 477.407 -2.83255 0.979106 0
M  V30 5096 H 474.968 -1.47643 0.664308 0
M  V30 5097 H 476.96 -3.81371 -1.35418 0
M  V30 5098 H 475.53 -2.75789 -1.47171 0
M  V30 5099 H 474.75 -3.86971 0.751468 0
M  V30 5100 H 476.038 -5.06268 0.506965 0
M  V30 5101 H 475.436 -4.9855 -2.67328 0
M  V30 5102 H 473.993 -5.91593 -2.73608 0
M  V30 5103 N 477.426 -0.562348 -1.47226 0
M  V30 5104 C 478.654 -0.0452275 -2.06851 0
M  V30 5105 C 479.069 1.25078 -1.41424 0
M  V30 5106 O 478.426 1.75156 -0.512513 0
M  V30 5107 C 478.477 0.148674 -3.61194 0
M  V30 5108 O 478.198 -1.09602 -4.24169 0
M  V30 5109 C 479.699 0.702488 -4.37699 0
M  V30 5110 H 476.919 -0.0481775 -0.669268 0
M  V30 5111 H 479.463 -0.777223 -1.89155 0
M  V30 5112 H 477.618 0.830817 -3.78386 0
M  V30 5113 H 478.032 -0.896982 -5.16773 0
M  V30 5114 H 479.506 0.78743 -5.46355 0
M  V30 5115 H 479.983 1.71493 -4.04335 0
M  V30 5116 H 480.589 0.0558772 -4.25263 0
M  V30 5117 N 478.904 1.54736 -0.299062 0
M  V30 5118 C 479.814 2.27127 0.587413 0
M  V30 5119 C 480.83 1.30575 1.15005 0
M  V30 5120 O 482.006 1.63554 1.17525 0
M  V30 5121 C 479.071 2.99645 1.74395 0
M  V30 5122 C 478.132 4.11731 1.21559 0
M  V30 5123 C 477.365 4.80781 2.317 0
M  V30 5124 O 477.588 4.4918 3.51558 0
M  V30 5125 O 476.522 5.68226 1.98501 0
M  V30 5126 H 480.348 3.037 0.000250109 0
M  V30 5127 H 477.933 1.49256 -0.0655919 0
M  V30 5128 H 479.815 3.45138 2.4178 0
M  V30 5129 H 478.49 2.25969 2.31775 0
M  V30 5130 H 477.397 3.70641 0.507514 0
M  V30 5131 H 478.73 4.87379 0.687233 0
M  V30 5132 N 480.382 0.0267497 1.57577 0
M  V30 5133 C 481.607 -0.666227 1.96408 0
M  V30 5134 C 482.032 -1.65004 0.903071 0
M  V30 5135 O 481.39 -1.80787 -0.136263 0
M  V30 5136 C 481.438 -1.35101 3.34335 0
M  V30 5137 O 480.542 -2.46623 3.30531 0
M  V30 5138 H 479.883 -0.175206 0.640468 0
M  V30 5139 H 482.413 0.0878977 2.04411 0
M  V30 5140 H 482.423 -1.70834 3.70513 0
M  V30 5141 H 481.098 -0.629844 4.11103 0
M  V30 5142 H 479.675 -2.13019 3.06068 0
M  V30 5143 N 481.861 -1.55662 -0.24637 0
M  V30 5144 C 483.277 -1.48098 -0.594907 0
M  V30 5145 C 483.477 -0.717044 -1.8831 0
M  V30 5146 O 482.533 -0.246618 -2.51293 0
M  V30 5147 C 483.846 -2.92507 -0.697146 0
M  V30 5148 C 485.394 -3.02881 -0.789436 0
M  V30 5149 C 485.869 -4.48598 -0.923232 0
M  V30 5150 N 487.36 -4.52538 -0.988088 0
M  V30 5151 C 488.095 -5.62536 -1.11089 0
M  V30 5152 N 487.591 -6.82342 -1.19919 0
M  V30 5153 N 489.384 -5.50334 -1.14408 0
M  V30 5154 H 481.535 -2.0377 0.599278 0
M  V30 5155 H 483.798 -0.925145 0.20691 0
M  V30 5156 H 483.504 -3.51242 0.179396 0
M  V30 5157 H 483.378 -3.43024 -1.5689 0
M  V30 5158 H 485.765 -2.44226 -1.65643 0
M  V30 5159 H 485.846 -2.55574 0.107482 0
M  V30 5160 H 485.49 -5.07864 -0.0607927 0
M  V30 5161 H 485.42 -4.93587 -1.8352 0
M  V30 5162 H 487.911 -3.66248 -0.931167 0
M  V30 5163 H 488.224 -7.61924 -1.29197 0
M  V30 5164 H 486.569 -6.85102 -1.16876 0
M  V30 5165 H 489.76 -4.5567 -1.07158 0
M  V30 5166 H 489.933 -6.36096 -1.23634 0
M  V30 5167 N 483.339 0.512053 -1.4905 0
M  V30 5168 C 484.269 1.62365 -1.67809 0
M  V30 5169 C 485.25 1.61737 -0.526809 0
M  V30 5170 O 486.435 1.78651 -0.761404 0
M  V30 5171 C 483.565 3.00895 -1.73435 0
M  V30 5172 C 482.519 3.16387 -2.88242 0
M  V30 5173 C 481.845 4.56157 -2.78971 0
M  V30 5174 C 483.145 2.97457 -4.29321 0
M  V30 5175 H 484.839 1.46921 -2.60873 0
M  V30 5176 H 482.385 0.705379 -1.2554 0
M  V30 5177 H 484.338 3.78549 -1.85145 0
M  V30 5178 H 483.062 3.17403 -0.769619 0
M  V30 5179 H 481.721 2.41155 -2.76116 0
M  V30 5180 H 481.369 4.69525 -1.8043 0
M  V30 5181 H 481.069 4.67465 -3.5602 0
M  V30 5182 H 482.593 5.35886 -2.92675 0
M  V30 5183 H 484.007 3.64888 -4.42187 0
M  V30 5184 H 482.404 3.20245 -5.07507 0
M  V30 5185 H 483.474 1.93692 -4.44535 0
M  V30 5186 N 484.817 1.37938 0.762283 0
M  V30 5187 C 486.064 1.33668 1.52115 0
M  V30 5188 C 486.392 -0.0759538 1.94352 0
M  V30 5189 O 485.647 -1.05121 1.6507 0
M  V30 5190 C 485.946 2.23042 2.79261 0
M  V30 5191 C 485.612 3.71159 2.56031 0
M  V30 5192 C 484.274 4.11523 2.49404 0
M  V30 5193 C 486.626 4.64955 2.35513 0
M  V30 5194 C 483.954 5.43784 2.20263 0
M  V30 5195 C 486.306 5.97464 2.07894 0
M  V30 5196 C 484.97 6.36922 1.99718 0
M  V30 5197 H 484.24 0.489127 0.556629 0
M  V30 5198 H 486.887 1.70224 0.877262 0
M  V30 5199 H 485.192 1.79512 3.48256 0
M  V30 5200 H 486.889 2.17047 3.37182 0
M  V30 5201 H 483.479 3.39153 2.62056 0
M  V30 5202 H 487.663 4.34623 2.39617 0
M  V30 5203 H 482.919 5.73307 2.12435 0
M  V30 5204 H 487.093 6.6969 1.91019 0
M  V30 5205 H 484.72 7.39331 1.76902 0
M  V30 5206 N 486.295 -0.989507 1.22664 0
M  V30 5207 C 487.542 -1.72953 1.05325 0
M  V30 5208 C 487.87 -1.90104 -0.411168 0
M  V30 5209 O 487.125 -1.44386 -1.32103 0
M  V30 5210 C 487.424 -3.13649 1.71345 0
M  V30 5211 C 487.09 -3.16403 3.21248 0
M  V30 5212 C 485.752 -3.16862 3.62149 0
M  V30 5213 C 488.104 -3.12428 4.17179 0
M  V30 5214 C 485.432 -3.11051 4.97458 0
M  V30 5215 C 487.784 -3.08159 5.52468 0
M  V30 5216 C 486.448 -3.06935 5.92746 0
M  V30 5217 H 485.718 -0.632881 0.385412 0
M  V30 5218 H 488.365 -1.15863 1.52473 0
M  V30 5219 H 486.67 -3.74069 1.16532 0
M  V30 5220 H 488.367 -3.69658 1.55416 0
M  V30 5221 H 484.957 -3.16798 2.88682 0
M  V30 5222 H 489.141 -3.11221 3.86595 0
M  V30 5223 H 484.397 -3.0845 5.27891 0
M  V30 5224 H 488.571 -3.04039 6.26525 0
M  V30 5225 H 486.198 -3.02186 6.97558 0
M  V30 5226 N 487.773 -1.03688 -1.18687 0
M  V30 5227 C 489.019 -0.739123 -1.88851 0
M  V30 5228 C 489.352 0.731042 -1.79915 0
M  V30 5229 O 488.627 1.53313 -1.19688 0
M  V30 5230 C 488.91 -1.20106 -3.3948 0
M  V30 5231 C 488.763 -2.73304 -3.57246 0
M  V30 5232 C 490.082 -0.788134 -4.32986 0
M  V30 5233 H 487.201 -0.269978 -0.68577 0
M  V30 5234 H 489.843 -1.28822 -1.3966 0
M  V30 5235 H 487.993 -0.733915 -3.81505 0
M  V30 5236 H 489.665 -3.28027 -3.24339 0
M  V30 5237 H 487.908 -3.13313 -3.00029 0
M  V30 5238 H 488.579 -3.00684 -4.62918 0
M  V30 5239 H 491.055 -1.19005 -3.98719 0
M  V30 5240 H 489.931 -1.13915 -5.36949 0
M  V30 5241 H 490.192 0.308988 -4.41019 0
M  V30 5242 N 489.251 1.34841 -0.815825 0
M  V30 5243 C 490.5 1.97755 -0.396976 0
M  V30 5244 C 490.813 1.65422 1.04379 0
M  V30 5245 O 492.019 2.21771 1.5662 0
M  V30 5246 C 490.475 3.53818 -0.658869 0
M  V30 5247 C 490.083 3.95051 -2.11278 0
M  V30 5248 C 491.827 4.23397 -0.305834 0
M  V30 5249 C 489.734 5.43997 -2.31994 0
M  V30 5250 H 488.664 0.739985 -0.1447 0
M  V30 5251 H 491.315 1.53781 -1.00118 0
M  V30 5252 H 489.697 3.95997 0.0154112 0
M  V30 5253 H 490.871 3.63998 -2.82564 0
M  V30 5254 H 489.186 3.38388 -2.42657 0
M  V30 5255 H 491.783 5.32899 -0.43854 0
M  V30 5256 H 492.126 4.09508 0.748952 0
M  V30 5257 H 492.659 3.8667 -0.934403 0
M  V30 5258 H 489.398 5.62865 -3.35952 0
M  V30 5259 H 488.918 5.76589 -1.65244 0
M  V30 5260 H 490.597 6.10584 -2.14001 0
M  V30 5261 N 490.729 0.570148 1.46925 0
M  V30 5262 C 491.639 -0.173061 2.33961 0
M  V30 5263 C 492.655 -0.898825 1.48987 0
M  V30 5264 O 493.831 -0.864825 1.81887 0
M  V30 5265 C 490.896 -1.18177 3.25937 0
M  V30 5266 C 489.957 -0.462041 4.26806 0
M  V30 5267 C 489.19 -1.4227 5.14388 0
M  V30 5268 O 489.413 -2.65842 5.04662 0
M  V30 5269 O 488.347 -0.940127 5.94513 0
M  V30 5270 H 492.173 0.541216 2.98839 0
M  V30 5271 H 489.758 0.330647 1.45695 0
M  V30 5272 H 491.64 -1.76372 3.82715 0
M  V30 5273 H 490.315 -1.87774 2.63671 0
M  V30 5274 H 489.222 0.161429 3.73752 0
M  V30 5275 H 490.555 0.192719 4.91823 0
M  V30 5276 N 492.207 -1.54576 0.307264 0
M  V30 5277 C 493.437 -2.04378 -0.302158 0
M  V30 5278 C 493.845 -1.18381 -1.47589 0
M  V30 5279 O 493.188 -0.20352 -1.82569 0
M  V30 5280 C 493.25 -3.50133 -0.815305 0
M  V30 5281 C 492.914 -4.56401 0.233977 0
M  V30 5282 C 493.911 -5.08884 1.06456 0
M  V30 5283 C 491.596 -5.0088 0.377478 0
M  V30 5284 C 493.59 -6.04394 2.02452 0
M  V30 5285 C 491.277 -5.96208 1.34088 0
M  V30 5286 C 492.275 -6.47849 2.16288 0
M  V30 5287 O 491.963 -7.41308 3.10994 0
M  V30 5288 H 491.695 -0.672502 -0.0686839 0
M  V30 5289 H 494.249 -2.00484 0.446682 0
M  V30 5290 H 492.479 -3.51371 -1.61478 0
M  V30 5291 H 494.168 -3.83098 -1.34129 0
M  V30 5292 H 494.934 -4.75311 0.964596 0
M  V30 5293 H 490.813 -4.60309 -0.252405 0
M  V30 5294 H 494.357 -6.44626 2.66652 0
M  V30 5295 H 490.254 -6.29198 1.44154 0
M  V30 5296 H 491.022 -7.5913 3.06045 0
M  V30 5297 N 493.685 -0.035106 -1.57561 0
M  V30 5298 C 494.931 0.64318 -1.92331 0
M  V30 5299 C 495.264 1.71434 -0.912368 0
M  V30 5300 O 494.539 1.94395 0.0640303 0
M  V30 5301 C 494.822 1.25411 -3.37556 0
M  V30 5302 C 494.675 0.192109 -4.4939 0
M  V30 5303 C 495.994 2.17041 -3.82859 0
M  V30 5304 H 493.113 0.232341 -0.699419 0
M  V30 5305 H 495.755 -0.0935889 -1.89769 0
M  V30 5306 H 493.905 1.88205 -3.39869 0
M  V30 5307 H 495.577 -0.438849 -4.59208 0
M  V30 5308 H 493.82 -0.481725 -4.31117 0
M  V30 5309 H 494.491 0.659292 -5.48049 0
M  V30 5310 H 496.967 1.64228 -3.8232 0
M  V30 5311 H 495.843 2.56738 -4.85157 0
M  V30 5312 H 496.104 3.06401 -3.18702 0
M  V30 5313 N 495.163 1.55791 0.238111 0
M  V30 5314 C 496.111 1.91885 1.31464 0
M  V30 5315 C 497.105 0.798929 1.49377 0
M  V30 5316 O 498.311 0.983626 1.50747 0
M  V30 5317 H 494.686 0.609551 0.440399 0
M  V30 5318 H 496.657 2.81747 0.982925 0
M  V30 5319 C 495.406 2.23763 2.6613 0
M  V30 5320 H 494.729 3.09444 2.53149 0
M  V30 5321 H 496.169 2.52915 3.40309 0
M  V30 5322 C 494.628 1.05699 3.1989 0
M  V30 5323 O 495.158 0.309524 4.00506 0
M  V30 5324 N 493.364 0.845251 2.78036 0
M  V30 5325 H 492.911 1.4548 2.12588 0
M  V30 5326 H 492.869 0.0569973 3.14348 0
M  V30 5327 N 496.642 -0.504142 1.49319 0
M  V30 5328 C 497.89 -1.25598 1.58334 0
M  V30 5329 C 498.211 -1.93114 0.270538 0
M  V30 5330 O 497.481 -1.82585 -0.709891 0
M  V30 5331 H 496.061 -0.466571 0.58337 0
M  V30 5332 H 498.723 -0.584547 1.85928 0
M  V30 5333 H 497.819 -2.02159 2.37778 0
M  V30 5334 N 498.12 -1.38341 -0.754957 0
M  V30 5335 C 499.368 -1.34208 -1.51105 0
M  V30 5336 C 499.689 0.0677634 -1.94882 0
M  V30 5337 O 498.959 1.01517 -1.67544 0
M  V30 5338 H 497.539 -0.493819 -0.560493 0
M  V30 5339 H 500.201 -1.73005 -0.897507 0
M  V30 5340 H 499.297 -1.99203 -2.4026 0
M  V30 5341 N 499.598 0.982988 -1.23187 0
M  V30 5342 C 500.875 1.69814 -0.970707 0
M  V30 5343 C 501.255 2.04811 0.511424 0
M  V30 5344 O 500.603 1.73924 1.48198 0
M  V30 5345 C 500.813 2.94143 -1.87831 0
M  V30 5346 C 502.161 3.66712 -2.14026 0
M  V30 5347 O 503.185 3.04171 -1.8536 0
M  V30 5348 O 502.044 4.79258 -2.62629 0
M  V30 5349 H 499.138 0.741659 -0.365884 0
M  V30 5350 H 501.684 1.03844 -1.34218 0
M  V30 5351 H 500.456 2.64858 -2.88038 0
M  V30 5352 H 500.079 3.6785 -1.50905 0
M  V30 5353 N 501.076 1.04316 1.18135 0
M  V30 5354 C 502.006 0.657299 2.24058 0
M  V30 5355 C 502.987 -0.340678 1.66654 0
M  V30 5356 O 504.172 -0.220223 1.92947 0
M  V30 5357 C 501.302 0.0220715 3.47293 0
M  V30 5358 C 500.256 0.943857 4.17463 0
M  V30 5359 C 499.582 0.172973 5.3442 0
M  V30 5360 C 500.882 2.26409 4.70677 0
M  V30 5361 H 502.576 1.5428 2.56589 0
M  V30 5362 H 500.122 0.743263 1.23335 0
M  V30 5363 H 502.075 -0.259607 4.206 0
M  V30 5364 H 500.799 -0.898323 3.14003 0
M  V30 5365 H 499.458 1.20996 3.46057 0
M  V30 5366 H 499.106 -0.749907 4.97379 0
M  V30 5367 H 498.806 0.787098 5.82304 0
M  V30 5368 H 500.33 -0.101628 6.10515 0
M  V30 5369 H 501.744 2.04294 5.35665 0
M  V30 5370 H 500.141 2.8314 5.29105 0
M  V30 5371 H 501.211 2.90883 3.87962 0
M  V30 5372 N 502.554 -1.34406 0.822964 0
M  V30 5373 C 503.487 -2.27407 0.190124 0
M  V30 5374 C 504.465 -1.4889 -0.653486 0
M  V30 5375 O 505.649 -1.78109 -0.617216 0
M  V30 5376 C 502.776 -3.3064 -0.734477 0
M  V30 5377 C 501.822 -4.26488 0.0316099 0
M  V30 5378 S 502.655 -5.17445 1.3788 0
M  V30 5379 C 503.811 -6.24214 0.45907 0
M  V30 5380 H 504.044 -2.80733 0.978586 0
M  V30 5381 H 501.577 -1.41455 0.618866 0
M  V30 5382 H 503.535 -3.90607 -1.26238 0
M  V30 5383 H 502.196 -2.76161 -1.49646 0
M  V30 5384 H 501.389 -4.9951 -0.671285 0
M  V30 5385 H 500.991 -3.70775 0.490066 0
M  V30 5386 H 503.283 -6.76599 -0.349357 0
M  V30 5387 H 504.226 -6.98551 1.15896 0
M  V30 5388 H 504.634 -5.6448 0.0474825 0
M  V30 5389 N 504.032 -0.577932 -1.46621 0
M  V30 5390 C 505.279 -0.0616879 -2.02406 0
M  V30 5391 C 505.607 1.29638 -1.44997 0
M  V30 5392 O 504.862 1.86176 -0.60308 0
M  V30 5393 C 505.161 0.0590832 -3.57351 0
M  V30 5394 C 504.827 -1.23077 -4.33777 0
M  V30 5395 C 503.489 -1.58416 -4.54376 0
M  V30 5396 C 505.841 -2.08457 -4.77698 0
M  V30 5397 C 503.169 -2.78943 -5.16147 0
M  V30 5398 C 505.521 -3.28204 -5.408 0
M  V30 5399 C 504.185 -3.63832 -5.59627 0
M  V30 5400 H 503.455 -0.0225732 -0.740656 0
M  V30 5401 H 506.102 -0.753609 -1.76048 0
M  V30 5402 H 504.407 0.834104 -3.82818 0
M  V30 5403 H 506.104 0.474202 -3.98186 0
M  V30 5404 H 502.694 -0.945652 -4.18038 0
M  V30 5405 H 506.878 -1.82459 -4.61544 0
M  V30 5406 H 502.134 -3.06689 -5.28916 0
M  V30 5407 H 506.308 -3.94634 -5.73792 0
M  V30 5408 H 503.935 -4.57315 -6.07262 0
M  V30 5409 N 505.51 1.54411 -0.315457 0
M  V30 5410 C 506.46 2.20772 0.569549 0
M  V30 5411 C 507.444 1.18551 1.08787 0
M  V30 5412 O 508.636 1.44213 1.02624 0
M  V30 5413 C 505.765 2.96293 1.73394 0
M  V30 5414 C 504.851 4.05844 1.2309 0
M  V30 5415 N 505.242 5.03822 0.446927 0
M  V30 5416 C 503.54 4.19648 1.51035 0
M  V30 5417 C 504.241 5.8143 0.17725 0
M  V30 5418 N 503.217 5.38245 0.761118 0
M  V30 5419 H 507.019 2.93877 -0.0368076 0
M  V30 5420 H 504.533 1.61949 -0.120915 0
M  V30 5421 H 506.53 3.42313 2.37965 0
M  V30 5422 H 505.19 2.24708 2.34386 0
M  V30 5423 H 506.201 5.17821 0.0905027 0
M  V30 5424 H 502.878 3.59274 2.1267 0
M  V30 5425 H 504.268 6.70369 -0.45335 0
M  V30 5426 N 506.988 0.0434614 1.5754 0
M  V30 5427 C 507.921 -0.968729 2.06618 0
M  V30 5428 C 508.899 -1.30868 0.965 0
M  V30 5429 O 510.083 -1.42288 1.23638 0
M  V30 5430 C 507.21 -2.28486 2.50023 0
M  V30 5431 C 506.256 -2.09851 3.71302 0
M  V30 5432 S 507.089 -1.38401 5.17306 0
M  V30 5433 C 508.245 -2.71354 5.64019 0
M  V30 5434 H 508.478 -0.551021 2.92149 0
M  V30 5435 H 506.011 -0.168607 1.53477 0
M  V30 5436 H 507.969 -3.04142 2.75695 0
M  V30 5437 H 506.63 -2.67387 1.64812 0
M  V30 5438 H 505.823 -3.07184 3.99567 0
M  V30 5439 H 505.425 -1.42336 3.45856 0
M  V30 5440 H 507.717 -3.67549 5.69134 0
M  V30 5441 H 508.66 -2.47734 6.6335 0
M  V30 5442 H 509.068 -2.77259 4.91719 0
M  V30 5443 N 508.466 -1.55915 -0.229846 0
M  V30 5444 C 509.398 -1.88209 -1.30805 0
M  V30 5445 C 510.411 -0.769672 -1.43457 0
M  V30 5446 O 511.6 -1.04792 -1.44502 0
M  V30 5447 C 508.7 -2.06829 -2.68468 0
M  V30 5448 C 507.873 -3.37798 -2.77869 0
M  V30 5449 C 506.932 -3.45952 -3.96489 0
M  V30 5450 O 505.958 -4.19043 -3.85216 0
M  V30 5451 N 507.16 -2.76488 -5.10426 0
M  V30 5452 H 509.925 -2.81286 -1.03431 0
M  V30 5453 H 507.486 -1.5636 -0.41991 0
M  V30 5454 H 509.478 -2.09608 -3.46189 0
M  V30 5455 H 508.048 -1.20416 -2.88477 0
M  V30 5456 H 507.268 -3.4719 -1.86689 0
M  V30 5457 H 508.556 -4.24091 -2.81113 0
M  V30 5458 H 507.954 -2.16868 -5.2248 0
M  V30 5459 H 506.511 -2.84938 -5.8622 0
M  V30 5460 N 509.944 0.496216 -1.49584 0
M  V30 5461 C 511.36 0.827814 -1.36453 0
M  V30 5462 C 511.56 1.97464 -0.401285 0
M  V30 5463 O 510.616 2.51958 0.165296 0
M  V30 5464 C 511.929 1.16352 -2.77277 0
M  V30 5465 C 513.477 1.27145 -2.86013 0
M  V30 5466 C 513.952 1.64042 -4.27615 0
M  V30 5467 N 515.443 1.71082 -4.30448 0
M  V30 5468 C 516.178 2.01085 -5.36984 0
M  V30 5469 N 515.674 2.2928 -6.5376 0
M  V30 5470 N 517.467 2.02376 -5.24405 0
M  V30 5471 H 509.618 -0.259947 -2.10803 0
M  V30 5472 H 511.881 -0.0537163 -0.946477 0
M  V30 5473 H 511.587 0.394153 -3.49484 0
M  V30 5474 H 511.461 2.10582 -3.12946 0
M  V30 5475 H 513.848 2.03152 -2.1404 0
M  V30 5476 H 513.929 0.309542 -2.5392 0
M  V30 5477 H 513.573 0.88583 -5.00115 0
M  V30 5478 H 513.503 2.6134 -4.57175 0
M  V30 5479 H 515.994 1.51434 -3.46232 0
M  V30 5480 H 516.307 2.51376 -7.30774 0
M  V30 5481 H 514.652 2.26726 -6.56978 0
M  V30 5482 H 517.843 1.79829 -4.32179 0
M  V30 5483 H 518.016 2.25425 -6.07526 0
M  V30 5484 N 511.423 1.38739 0.74761 0
M  V30 5485 C 512.355 1.32341 1.87132 0
M  V30 5486 C 513.368 0.234502 1.61102 0
M  V30 5487 O 514.557 0.492516 1.71571 0
M  V30 5488 C 511.657 1.02915 3.22896 0
M  V30 5489 C 510.83 2.22834 3.76383 0
M  V30 5490 C 509.889 1.90059 4.90677 0
M  V30 5491 O 508.915 2.62615 5.04997 0
M  V30 5492 N 510.117 0.859141 5.74107 0
M  V30 5493 H 512.882 2.29175 1.93129 0
M  V30 5494 H 510.443 1.32678 0.927805 0
M  V30 5495 H 512.435 0.79031 3.96908 0
M  V30 5496 H 511.005 0.148572 3.12247 0
M  V30 5497 H 510.225 2.62747 2.93867 0
M  V30 5498 H 511.513 3.02851 4.08851 0
M  V30 5499 H 510.911 0.257564 5.65113 0
M  V30 5500 H 509.468 0.680189 6.48241 0
M  V30 5501 N 512.901 -0.976442 1.23707 0
M  V30 5502 C 514.317 -1.24341 1.00058 0
M  V30 5503 C 514.517 -1.99315 -0.295932 0
M  V30 5504 O 513.573 -2.3123 -1.01435 0
M  V30 5505 C 514.886 -2.03909 2.21001 0
M  V30 5506 C 516.434 -2.17034 2.25534 0
M  V30 5507 C 516.909 -2.99994 3.46075 0
M  V30 5508 N 518.4 -3.07578 3.46338 0
M  V30 5509 C 519.135 -3.72104 4.36264 0
M  V30 5510 N 518.631 -4.3842 5.36432 0
M  V30 5511 N 520.424 -3.69029 4.23998 0
M  V30 5512 H 512.575 -0.47428 2.07037 0
M  V30 5513 H 514.838 -0.272167 0.908091 0
M  V30 5514 H 514.544 -1.56198 3.15111 0
M  V30 5515 H 514.418 -3.04654 2.22409 0
M  V30 5516 H 516.805 -2.63951 1.31961 0
M  V30 5517 H 516.886 -1.15664 2.28156 0
M  V30 5518 H 516.53 -2.53772 4.39957 0
M  V30 5519 H 516.46 -4.01541 3.40694 0
M  V30 5520 H 518.951 -2.60397 2.73865 0
M  V30 5521 H 519.264 -4.85447 6.013 0
M  V30 5522 H 517.609 -4.37116 5.40328 0
M  V30 5523 H 520.8 -3.16392 3.44984 0
M  V30 5524 H 520.973 -4.19034 4.94282 0
M  V30 5525 N 514.379 -1.04941 -1.1758 0
M  V30 5526 C 515.326 -0.648155 -2.21512 0
M  V30 5527 C 516.296 0.348431 -1.62404 0
M  V30 5528 O 517.481 0.240419 -1.89279 0
M  V30 5529 C 514.621 -0.0264291 -3.4509 0
M  V30 5530 C 513.734 -1.07154 -4.185 0
M  V30 5531 C 512.869 -0.417403 -5.29558 0
M  V30 5532 C 511.908 -1.447 -5.94751 0
M  V30 5533 N 511.045 -0.817203 -6.97328 0
M  V30 5534 H 515.885 -1.53891 -2.55189 0
M  V30 5535 H 513.422 -0.769699 -1.25356 0
M  V30 5536 H 515.38 0.351456 -4.15717 0
M  V30 5537 H 514.01 0.827802 -3.12005 0
M  V30 5538 H 513.062 -1.56728 -3.46613 0
M  V30 5539 H 514.374 -1.8532 -4.63096 0
M  V30 5540 H 513.528 0.0142061 -6.06698 0
M  V30 5541 H 512.267 0.396265 -4.86087 0
M  V30 5542 H 511.272 -1.88865 -5.16343 0
M  V30 5543 H 512.497 -2.26252 -6.40302 0
M  V30 5544 H 510.443 -0.0239995 -6.55996 0
M  V30 5545 H 510.36 -1.53644 -7.40223 0
M  V30 5546 H 511.628 -0.410283 -7.7842 0
M  V30 5547 N 515.857 1.33968 -0.830081 0
M  V30 5548 C 516.787 2.31911 -0.271911 0
M  V30 5549 C 517.768 1.58571 0.61556 0
M  V30 5550 O 518.953 1.86514 0.540946 0
M  V30 5551 C 516.083 3.42737 0.561146 0
M  V30 5552 C 515.037 4.27383 -0.229789 0
M  V30 5553 C 514.363 5.29742 0.726463 0
M  V30 5554 C 515.663 5.02 -1.44197 0
M  V30 5555 H 517.357 2.78844 -1.09025 0
M  V30 5556 H 514.903 1.34061 -0.52571 0
M  V30 5557 H 516.856 4.10276 0.961867 0
M  V30 5558 H 515.58 2.94471 1.41261 0
M  V30 5559 H 514.239 3.61456 -0.611964 0
M  V30 5560 H 513.887 4.77736 1.57408 0
M  V30 5561 H 513.587 5.87255 0.20142 0
M  V30 5562 H 515.111 6.00149 1.12489 0
M  V30 5563 H 516.525 5.62355 -1.11488 0
M  V30 5564 H 514.922 5.69122 -1.90317 0
M  V30 5565 H 515.992 4.31281 -2.2164 0
M  V30 5566 N 517.335 0.585699 1.46312 0
M  V30 5567 C 518.746 0.159938 1.86014 0
M  V30 5568 C 519.097 -1.27775 1.48889 0
M  V30 5569 O 518.222 -1.96559 0.90519 0
M  V30 5570 C 518.817 0.283485 3.37612 0
M  V30 5571 C 517.376 -0.0874256 3.76298 0
M  V30 5572 C 516.523 0.618055 2.70325 0
M  V30 5573 H 519.474 0.793737 1.37425 0
M  V30 5574 H 519.495 -0.490348 3.77327 0
M  V30 5575 H 519.007 1.32995 3.64601 0
M  V30 5576 H 517.108 -1.13391 3.54927 0
M  V30 5577 H 517.221 0.290975 4.78216 0
M  V30 5578 H 515.585 0.057993 2.54634 0
M  V30 5579 H 516.368 1.66623 3.00153 0
M  V30 5580 N 518.813 -1.54241 0.323641 0
M  V30 5581 C 519.723 -2.28033 -0.551205 0
M  V30 5582 C 520.739 -1.32388 -1.12913 0
M  V30 5583 O 521.915 -1.65403 -1.14908 0
M  V30 5584 C 518.98 -3.02382 -1.69606 0
M  V30 5585 C 518.041 -4.13612 -1.14993 0
M  V30 5586 C 517.274 -4.84407 -2.24022 0
M  V30 5587 O 517.497 -4.54716 -3.44368 0
M  V30 5588 O 516.431 -5.71312 -1.89436 0
M  V30 5589 H 520.257 -3.03662 0.048066 0
M  V30 5590 H 517.842 -1.49133 0.0893289 0
M  V30 5591 H 519.724 -3.48941 -2.36259 0
M  V30 5592 H 518.399 -2.29628 -2.28151 0
M  V30 5593 H 517.306 -3.71402 -0.448484 0
M  V30 5594 H 518.639 -4.8841 -0.609608 0
M  V30 5595 N 520.291 -0.0518155 -1.57515 0
M  V30 5596 C 521.201 0.937539 -2.15052 0
M  V30 5597 C 522.217 1.34121 -1.10849 0
M  V30 5598 O 523.393 1.418 -1.4302 0
M  V30 5599 C 520.458 2.19379 -2.68466 0
M  V30 5600 C 519.519 1.84841 -3.87469 0
M  V30 5601 C 518.752 3.04477 -4.38326 0
M  V30 5602 O 518.975 4.17868 -3.88256 0
M  V30 5603 O 517.909 2.85453 -5.29906 0
M  V30 5604 H 521.735 0.478201 -2.99912 0
M  V30 5605 H 519.32 0.17012 -1.48428 0
M  V30 5606 H 521.202 2.93084 -3.02787 0
M  V30 5607 H 519.877 2.64449 -1.86677 0
M  V30 5608 H 518.784 1.08449 -3.58036 0
M  V30 5609 H 520.117 1.44569 -4.7049 0
M  V30 5610 N 521.769 1.56035 0.221574 0
M  V30 5611 C 522.719 1.8881 1.27807 0
M  V30 5612 C 523.703 0.751177 1.42289 0
M  V30 5613 O 524.895 1.01359 1.45104 0
M  V30 5614 C 522.024 2.20828 2.6285 0
M  V30 5615 C 521.11 3.40912 2.52269 0
M  V30 5616 N 521.501 4.59531 2.1134 0
M  V30 5617 C 519.799 3.44526 2.83228 0
M  V30 5618 C 520.5 5.41689 2.1201 0
M  V30 5619 N 519.476 4.814 2.52497 0
M  V30 5620 H 523.278 2.78036 0.952529 0
M  V30 5621 H 520.792 1.566 0.430134 0
M  V30 5622 H 522.789 2.42483 3.39127 0
M  V30 5623 H 521.449 1.32914 2.9625 0
M  V30 5624 H 522.46 4.8469 1.82472 0
M  V30 5625 H 519.137 2.66956 3.21 0
M  V30 5626 H 520.527 6.46643 1.82491 0
M  V30 5627 N 523.247 -0.488276 1.49845 0
M  V30 5628 C 524.21 -1.57069 1.66919 0
M  V30 5629 C 525.21 -1.51445 0.540479 0
M  V30 5630 O 526.4 -1.5437 0.807188 0
M  V30 5631 C 523.532 -2.96718 1.67844 0
M  V30 5632 H 524.725 -1.43254 2.63474 0
M  V30 5633 H 522.278 -0.713435 1.39068 0
M  V30 5634 H 523.013 -3.15996 0.7292 0
M  V30 5635 H 522.798 -3.02208 2.49826 0
M  V30 5636 H 524.288 -3.75335 1.83066 0
M  V30 5637 N 524.725 -1.39134 -0.740242 0
M  V30 5638 C 526.141 -1.20623 -1.0451 0
M  V30 5639 C 526.341 -0.0641651 -2.01398 0
M  V30 5640 O 525.397 0.585843 -2.4561 0
M  V30 5641 C 526.71 -2.53815 -1.6124 0
M  V30 5642 C 528.258 -2.60615 -1.73346 0
M  V30 5643 C 528.733 -3.94015 -2.33486 0
M  V30 5644 N 530.224 -3.95627 -2.40902 0
M  V30 5645 C 530.959 -4.95616 -2.88361 0
M  V30 5646 N 530.455 -6.06003 -3.35756 0
M  V30 5647 N 532.248 -4.82998 -2.87523 0
M  V30 5648 H 524.399 -2.12176 -0.0975576 0
M  V30 5649 H 526.662 -0.942066 -0.105904 0
M  V30 5650 H 526.368 -3.37911 -0.975144 0
M  V30 5651 H 526.242 -2.73162 -2.6012 0
M  V30 5652 H 528.629 -1.76906 -2.36195 0
M  V30 5653 H 528.71 -2.45123 -0.731336 0
M  V30 5654 H 528.354 -4.78153 -1.71267 0
M  V30 5655 H 528.284 -4.06825 -3.34366 0
M  V30 5656 H 530.775 -3.15903 -2.07398 0
M  V30 5657 H 531.088 -6.78215 -3.70464 0
M  V30 5658 H 529.433 -6.09604 -3.33778 0
M  V30 5659 H 532.624 -3.95866 -2.49816 0
M  V30 5660 H 532.797 -5.61072 -3.24196 0
M  V30 5661 N 526.204 0.969867 -1.24223 0
M  V30 5662 C 527.451 1.71256 -1.08063 0
M  V30 5663 C 527.779 1.90734 0.380872 0
M  V30 5664 O 527.034 1.46469 1.29789 0
M  V30 5665 C 527.333 3.10883 -1.76314 0
M  V30 5666 C 526.999 3.11252 -3.26241 0
M  V30 5667 C 525.661 3.1106 -3.67144 0
M  V30 5668 C 528.013 3.05751 -4.22097 0
M  V30 5669 C 525.341 3.03097 -5.02344 0
M  V30 5670 C 527.693 2.9933 -5.57301 0
M  V30 5671 C 526.357 2.97466 -5.97554 0
M  V30 5672 H 525.627 0.62667 -0.395431 0
M  V30 5673 H 528.274 1.13422 -1.54297 0
M  V30 5674 H 526.579 3.72168 -1.22468 0
M  V30 5675 H 528.276 3.67138 -1.61277 0
M  V30 5676 H 524.866 3.12165 -2.93685 0
M  V30 5677 H 529.05 3.05031 -3.91497 0
M  V30 5678 H 524.306 3.00013 -5.32731 0
M  V30 5679 H 528.48 2.94033 -6.31283 0
M  V30 5680 H 526.107 2.91051 -7.02277 0
M  V30 5681 N 527.682 1.05563 1.17022 0
M  V30 5682 C 528.912 0.787307 1.91011 0
M  V30 5683 C 529.32 -0.661256 1.77268 0
M  V30 5684 O 528.663 -1.46379 1.10991 0
M  V30 5685 C 528.725 1.09313 3.42478 0
M  V30 5686 C 528.389 2.53863 3.80004 0
M  V30 5687 C 529.386 3.52081 3.82538 0
M  V30 5688 C 527.071 2.88969 4.10855 0
M  V30 5689 C 529.065 4.83449 4.15399 0
M  V30 5690 C 526.752 4.2054 4.43384 0
M  V30 5691 C 527.75 5.17589 4.45635 0
M  V30 5692 O 527.438 6.46799 4.77395 0
M  V30 5693 H 527.17 0.285463 0.61277 0
M  V30 5694 H 529.724 1.41051 1.49311 0
M  V30 5695 H 527.954 0.412833 3.8449 0
M  V30 5696 H 529.643 0.810224 3.97731 0
M  V30 5697 H 530.409 3.26299 3.58823 0
M  V30 5698 H 526.288 2.1409 4.08272 0
M  V30 5699 H 529.832 5.59194 4.1707 0
M  V30 5700 H 525.729 4.46083 4.66563 0
M  V30 5701 H 526.497 6.51677 4.95237 0
M  V30 5702 N 529.16 -1.33526 0.837174 0
M  V30 5703 C 530.385 -2.0258 0.444545 0
M  V30 5704 C 530.81 -1.6258 -0.946006 0
M  V30 5705 O 530.168 -0.817548 -1.6182 0
M  V30 5706 C 530.216 -3.5605 0.571006 0
M  V30 5707 O 529.32 -4.10422 -0.403431 0
M  V30 5708 H 528.661 -0.638866 0.180958 0
M  V30 5709 H 531.191 -1.70462 1.13154 0
M  V30 5710 H 531.201 -4.05488 0.452024 0
M  V30 5711 H 529.876 -3.84509 1.58512 0
M  V30 5712 H 528.453 -3.72113 -0.242147 0
M  V30 5713 N 530.638 -0.59345 -1.46 0
M  V30 5714 C 531.601 0.123538 -2.28867 0
M  V30 5715 C 532.601 0.808628 -1.38989 0
M  V30 5716 O 533.791 0.658945 -1.61256 0
M  V30 5717 C 530.923 1.1847 -3.19653 0
M  V30 5718 H 532.116 -0.604843 -2.93737 0
M  V30 5719 H 529.669 -0.351875 -1.52288 0
M  V30 5720 H 530.404 1.94431 -2.59552 0
M  V30 5721 H 530.189 0.69783 -3.8584 0
M  V30 5722 H 531.679 1.68726 -3.81997 0
M  V30 5723 N 532.116 1.54067 -0.331816 0
M  V30 5724 C 533.026 2.28322 0.539104 0
M  V30 5725 C 534.042 1.32985 1.1221 0
M  V30 5726 O 535.218 1.6601 1.1403 0
M  V30 5727 C 532.283 3.03277 1.68 0
M  V30 5728 C 531.344 4.14216 1.12798 0
M  V30 5729 C 530.577 4.85588 2.2145 0
M  V30 5730 O 530.8 4.56536 3.41952 0
M  V30 5731 O 529.734 5.72309 1.86404 0
M  V30 5732 H 533.56 3.03632 -0.0641692 0
M  V30 5733 H 531.145 1.49083 -0.0972365 0
M  V30 5734 H 533.027 3.50189 2.34405 0
M  V30 5735 H 531.702 2.30834 2.2693 0
M  V30 5736 H 530.609 3.71635 0.428782 0
M  V30 5737 H 531.942 4.88727 0.583698 0
M  V30 5738 N 533.594 0.0601682 1.57485 0
M  V30 5739 C 534.843 -0.611101 1.9222 0
M  V30 5740 C 535.156 -1.71469 0.941159 0
M  V30 5741 O 536.362 -2.44473 1.18089 0
M  V30 5742 C 534.818 -1.13832 3.41424 0
M  V30 5743 C 534.426 -0.0663596 4.47951 0
M  V30 5744 C 536.17 -1.78432 3.85178 0
M  V30 5745 C 534.077 -0.606965 5.88277 0
M  V30 5746 H 533.007 -0.232033 0.71741 0
M  V30 5747 H 535.658 0.130518 1.83035 0
M  V30 5748 H 534.04 -1.93254 3.45643 0
M  V30 5749 H 535.214 0.707682 4.55333 0
M  V30 5750 H 533.529 0.482715 4.13593 0
M  V30 5751 H 536.126 -2.1989 4.87394 0
M  V30 5752 H 536.469 -2.63966 3.21913 0
M  V30 5753 H 537.002 -1.05651 3.83514 0
M  V30 5754 H 533.741 0.21095 6.5516 0
M  V30 5755 H 533.261 -1.34879 5.84438 0
M  V30 5756 H 534.94 -1.08704 6.37803 0
M  V30 5757 N 535.072 -1.5615 -0.213296 0
M  V30 5758 C 536.297 -1.83986 -0.957282 0
M  V30 5759 C 536.722 -0.641526 -1.76822 0
M  V30 5760 O 536.08 0.409722 -1.7661 0
M  V30 5761 C 536.128 -3.09889 -1.84393 0
M  V30 5762 O 535.232 -2.89163 -2.94038 0
M  V30 5763 H 534.573 -0.606357 -0.270605 0
M  V30 5764 H 537.103 -2.03369 -0.224111 0
M  V30 5765 H 537.113 -3.40209 -2.25215 0
M  V30 5766 H 535.788 -3.96735 -1.24795 0
M  V30 5767 H 534.365 -2.70097 -2.57103 0
M  V30 5768 N 536.55 0.480323 -1.50102 0
M  V30 5769 C 537.48 1.58769 -1.71215 0
M  V30 5770 C 538.461 1.60583 -0.560997 0
M  V30 5771 O 539.646 1.76996 -0.799127 0
M  V30 5772 C 536.776 2.97148 -1.79778 0
M  V30 5773 C 535.73 3.10201 -2.94888 0
M  V30 5774 C 535.056 4.50137 -2.88584 0
M  V30 5775 C 536.356 2.88283 -4.35534 0
M  V30 5776 H 538.05 1.41354 -2.6393 0
M  V30 5777 H 535.596 0.678591 -1.27008 0
M  V30 5778 H 537.549 3.74536 -1.93133 0
M  V30 5779 H 536.273 3.15699 -0.836772 0
M  V30 5780 H 534.932 2.35244 -2.81169 0
M  V30 5781 H 534.58 4.65593 -1.90349 0
M  V30 5782 H 534.28 4.59808 -3.65856 0
M  V30 5783 H 535.804 5.29558 -3.03976 0
M  V30 5784 H 537.218 3.55427 -4.49827 0
M  V30 5785 H 535.615 3.09408 -5.14186 0
M  V30 5786 H 536.685 1.84219 -4.48544 0
M  V30 5787 N 538.028 1.39524 0.732853 0
M  V30 5788 C 538.991 1.38189 1.82857 0
M  V30 5789 C 539.991 0.278624 1.58368 0
M  V30 5790 O 541.181 0.536639 1.65728 0
M  V30 5791 C 538.313 1.15661 3.2068 0
M  V30 5792 H 539.506 2.35692 1.85444 0
M  V30 5793 H 537.059 1.2512 0.936728 0
M  V30 5794 H 537.794 0.188482 3.23752 0
M  V30 5795 H 537.579 1.95559 3.39852 0
M  V30 5796 H 539.069 1.17472 4.00737 0
M  V30 5797 N 539.506 -0.963266 1.24736 0
M  V30 5798 C 540.436 -2.07628 1.06832 0
M  V30 5799 C 541.417 -1.70088 -0.0200566 0
M  V30 5800 O 542.602 -1.93636 0.147854 0
M  V30 5801 C 539.732 -3.40636 0.677069 0
M  V30 5802 C 538.686 -3.9215 1.71471 0
M  V30 5803 C 538.012 -5.21553 1.1784 0
M  V30 5804 C 539.312 -4.19493 3.11164 0
M  V30 5805 H 541.006 -2.22864 1.9993 0
M  V30 5806 H 538.552 -1.07093 0.96266 0
M  V30 5807 H 540.505 -4.17941 0.538792 0
M  V30 5808 H 539.229 -3.25313 -0.289612 0
M  V30 5809 H 537.888 -3.17005 1.84128 0
M  V30 5810 H 537.536 -5.02593 0.202195 0
M  V30 5811 H 537.236 -5.56988 1.87185 0
M  V30 5812 H 538.76 -6.01463 1.05233 0
M  V30 5813 H 540.174 -4.87487 3.01711 0
M  V30 5814 H 538.571 -4.66165 3.77902 0
M  V30 5815 H 539.641 -3.26097 3.58871 0
M  V30 5816 N 540.985 -1.06182 -1.16461 0
M  V30 5817 C 541.933 -0.665716 -2.2287 0
M  V30 5818 C 542.927 0.317822 -1.66392 0
M  V30 5819 O 544.133 0.182807 -1.79069 0
M  V30 5820 H 540.508 -0.197148 -0.725697 0
M  V30 5821 H 542.479 -1.57307 -2.53569 0
M  V30 5822 C 541.228 -0.0669803 -3.47635 0
M  V30 5823 H 540.551 -0.814899 -3.91407 0
M  V30 5824 H 541.991 0.172669 -4.23648 0
M  V30 5825 C 540.45 1.18913 -3.15216 0
M  V30 5826 O 540.98 2.27723 -3.30916 0
M  V30 5827 N 539.186 1.09066 -2.69357 0
M  V30 5828 H 538.733 0.20518 -2.56782 0
M  V30 5829 H 538.691 1.93195 -2.48039 0
M  V30 5830 N 542.463 1.3308 -0.844243 0
M  V30 5831 C 543.693 2.01515 -0.455541 0
M  V30 5832 C 544.101 1.63655 0.949406 0
M  V30 5833 O 543.444 0.84848 1.62931 0
M  V30 5834 C 543.506 3.55967 -0.502801 0
M  V30 5835 C 543.17 4.17222 -1.86481 0
M  V30 5836 C 544.167 4.36205 -2.8288 0
M  V30 5837 C 541.852 4.53528 -2.15911 0
M  V30 5838 C 543.846 4.90649 -4.06869 0
M  V30 5839 C 541.533 5.07679 -3.40155 0
M  V30 5840 C 542.531 5.26186 -4.35451 0
M  V30 5841 O 542.219 5.79183 -5.57496 0
M  V30 5842 H 541.951 0.65199 -0.178565 0
M  V30 5843 H 544.505 1.70867 -1.1399 0
M  V30 5844 H 542.735 3.85965 0.23836 0
M  V30 5845 H 544.424 4.05688 -0.131169 0
M  V30 5846 H 545.19 4.085 -2.61444 0
M  V30 5847 H 541.069 4.38414 -1.42528 0
M  V30 5848 H 544.613 5.0501 -4.81259 0
M  V30 5849 H 540.51 5.34815 -3.61446 0
M  V30 5850 H 541.278 5.97591 -5.5931 0
M  V30 5851 N 543.941 0.601185 1.45683 0
M  V30 5852 C 544.871 -0.108824 2.33246 0
M  V30 5853 C 545.852 -0.865223 1.46451 0
M  V30 5854 O 547.037 -0.83704 1.75235 0
M  V30 5855 C 544.167 -1.11101 3.2905 0
M  V30 5856 C 543.121 -0.468244 4.25431 0
M  V30 5857 C 542.447 -1.57822 5.10878 0
M  V30 5858 C 543.747 0.606469 5.18767 0
M  V30 5859 H 545.441 0.622306 2.92861 0
M  V30 5860 H 542.987 0.300714 1.40825 0
M  V30 5861 H 544.94 -1.61622 3.89174 0
M  V30 5862 H 543.664 -1.87265 2.67581 0
M  V30 5863 H 542.323 0.0160484 3.66596 0
M  V30 5864 H 541.971 -2.32998 4.45781 0
M  V30 5865 H 541.671 -1.15369 5.76163 0
M  V30 5866 H 543.195 -2.08583 5.73869 0
M  V30 5867 H 544.609 0.185589 5.73 0
M  V30 5868 H 543.006 0.952381 5.92494 0
M  V30 5869 H 544.076 1.48559 4.61582 0
M  V30 5870 N 545.419 -1.53889 0.339982 0
M  V30 5871 C 546.369 -2.2165 -0.534354 0
M  V30 5872 C 547.353 -1.20266 -1.06887 0
M  V30 5873 O 548.545 -1.45827 -1.00316 0
M  V30 5874 C 545.674 -2.99014 -1.68659 0
M  V30 5875 C 544.76 -4.07751 -1.16618 0
M  V30 5876 N 545.151 -5.04469 -0.366717 0
M  V30 5877 C 543.449 -4.21998 -1.4434 0
M  V30 5878 C 544.15 -5.81638 -0.0847275 0
M  V30 5879 N 543.126 -5.39388 -0.675391 0
M  V30 5880 H 546.928 -2.93781 0.0835562 0
M  V30 5881 H 544.442 -1.61736 0.146665 0
M  V30 5882 H 546.439 -3.46056 -2.32489 0
M  V30 5883 H 545.099 -2.28408 -2.30781 0
M  V30 5884 H 546.11 -5.17899 -0.00811038 0
M  V30 5885 H 542.787 -3.62612 -2.06928 0
M  V30 5886 H 544.177 -6.69563 0.559943 0
M  V30 5887 N 546.897 -0.0685191 -1.57451 0
M  V30 5888 C 547.807 0.914677 -2.16034 0
M  V30 5889 C 548.823 1.32938 -1.12265 0
M  V30 5890 O 549.999 1.40275 -1.44516 0
M  V30 5891 C 547.064 2.16519 -2.70777 0
M  V30 5892 C 546.125 1.80721 -3.89408 0
M  V30 5893 C 545.358 2.9981 -4.41531 0
M  V30 5894 O 545.581 4.13727 -3.92666 0
M  V30 5895 O 544.515 2.79817 -5.32903 0
M  V30 5896 H 548.341 0.446364 -3.00402 0
M  V30 5897 H 545.926 0.154367 -1.486 0
M  V30 5898 H 547.808 2.89856 -3.05878 0
M  V30 5899 H 546.483 2.62454 -1.89471 0
M  V30 5900 H 545.39 1.04646 -3.59166 0
M  V30 5901 H 546.723 1.39571 -4.71997 0
M  V30 5902 N 548.375 1.56261 0.205012 0
M  V30 5903 C 549.791 1.49623 0.555433 0
M  V30 5904 C 549.991 0.766719 1.86343 0
M  V30 5905 O 549.047 0.313158 2.50551 0
M  V30 5906 C 550.36 2.94253 0.619347 0
M  V30 5907 C 551.908 3.04868 0.708855 0
M  V30 5908 C 552.383 4.50888 0.803969 0
M  V30 5909 N 553.874 4.54999 0.867758 0
M  V30 5910 C 554.609 5.65284 0.96135 0
M  V30 5911 N 554.105 6.85282 1.01786 0
M  V30 5912 N 555.898 5.53174 0.997771 0
M  V30 5913 H 548.049 2.0211 -0.653094 0
M  V30 5914 H 550.312 0.919333 -0.231366 0
M  V30 5915 H 550.018 3.50643 -0.272458 0
M  V30 5916 H 549.892 3.47063 1.47741 0
M  V30 5917 H 552.279 2.48532 1.5911 0
M  V30 5918 H 552.36 2.55199 -0.175205 0
M  V30 5919 H 552.004 5.07846 -0.0738798 0
M  V30 5920 H 551.934 4.98279 1.70369 0
M  V30 5921 H 554.425 3.68588 0.833735 0
M  V30 5922 H 554.738 7.65081 1.08951 0
M  V30 5923 H 553.083 6.8796 0.986706 0
M  V30 5924 H 556.274 4.5835 0.950392 0
M  V30 5925 H 556.447 6.39151 1.06725 0
M  V30 5926 N 549.853 -0.472356 1.50355 0
M  V30 5927 C 551.101 -1.22211 1.60962 0
M  V30 5928 C 551.422 -1.92497 0.311439 0
M  V30 5929 O 550.692 -1.8405 -0.671002 0
M  V30 5930 H 549.272 -0.454092 0.593135 0
M  V30 5931 H 551.934 -0.544977 1.87126 0
M  V30 5932 H 551.03 -1.9707 2.42012 0
M  V30 5933 N 551.331 -1.39911 -0.725443 0
M  V30 5934 C 552.58 -1.36963 -1.48068 0
M  V30 5935 C 552.893 0.0284478 -1.95579 0
M  V30 5936 O 554.099 0.180535 -2.70899 0
M  V30 5937 C 552.555 -2.40664 -2.67598 0
M  V30 5938 C 552.163 -3.86234 -2.26997 0
M  V30 5939 C 553.907 -2.46807 -3.45379 0
M  V30 5940 C 551.814 -4.81554 -3.43307 0
M  V30 5941 H 550.744 -0.509223 -0.556065 0
M  V30 5942 H 553.395 -1.65602 -0.790454 0
M  V30 5943 H 551.777 -2.05109 -3.38742 0
M  V30 5944 H 552.951 -4.3088 -1.63337 0
M  V30 5945 H 551.266 -3.83475 -1.62284 0
M  V30 5946 H 553.863 -3.15213 -4.31909 0
M  V30 5947 H 554.206 -1.49552 -3.8851 0
M  V30 5948 H 554.739 -2.81303 -2.81271 0
M  V30 5949 H 551.478 -5.80106 -3.05217 0
M  V30 5950 H 550.998 -4.4158 -4.05915 0
M  V30 5951 H 552.677 -5.0091 -4.0951 0
M  V30 5952 N 552.809 0.956637 -1.25245 0
M  V30 5953 C 554.058 1.69537 -1.0927 0
M  V30 5954 C 554.371 1.92136 0.366503 0
M  V30 5955 O 555.577 2.63687 0.64665 0
M  V30 5956 C 554.033 3.05211 -1.9072 0
M  V30 5957 C 553.641 2.90416 -3.41119 0
M  V30 5958 C 555.385 3.82882 -1.83308 0
M  V30 5959 C 553.292 4.21468 -4.14872 0
M  V30 5960 H 552.222 0.635804 -0.405302 0
M  V30 5961 H 554.873 1.06513 -1.49423 0
M  V30 5962 H 553.255 3.69128 -1.43389 0
M  V30 5963 H 554.429 2.35444 -3.9611 0
M  V30 5964 H 552.744 2.26203 -3.49602 0
M  V30 5965 H 555.341 4.79944 -2.35706 0
M  V30 5966 H 555.684 4.0853 -0.800572 0
M  V30 5967 H 556.217 3.25711 -2.28379 0
M  V30 5968 H 552.956 4.01009 -5.18529 0
M  V30 5969 H 552.476 4.76213 -3.64665 0
M  V30 5970 H 554.155 4.90022 -4.22478 0
M  V30 5971 N 554.287 1.06798 1.15896 0
M  V30 5972 C 555.517 0.807522 1.90165 0
M  V30 5973 C 555.925 -0.642417 1.7796 0
M  V30 5974 O 555.268 -1.45193 1.12537 0
M  V30 5975 C 555.33 1.12939 3.41299 0
M  V30 5976 C 554.994 2.57879 3.7729 0
M  V30 5977 C 555.991 3.56118 3.78782 0
M  V30 5978 C 553.676 2.93311 4.07767 0
M  V30 5979 C 555.67 4.87827 4.10248 0
M  V30 5980 C 553.357 4.25219 4.38899 0
M  V30 5981 C 554.355 5.22287 4.4012 0
M  V30 5982 O 554.043 6.51826 4.70508 0
M  V30 5983 H 553.775 0.291946 0.609708 0
M  V30 5984 H 556.329 1.42627 1.47806 0
M  V30 5985 H 554.559 0.45359 3.84031 0
M  V30 5986 H 556.248 0.852363 3.9685 0
M  V30 5987 H 557.014 3.30086 3.55342 0
M  V30 5988 H 552.893 2.18409 4.05979 0
M  V30 5989 H 556.437 5.63586 4.11116 0
M  V30 5990 H 552.334 4.51006 4.61805 0
M  V30 5991 H 553.102 6.56893 4.88298 0
M  V30 5992 N 555.766 -1.3263 0.851289 0
M  V30 5993 C 557.182 -1.50162 0.5407 0
M  V30 5994 C 557.382 -1.78788 -0.929369 0
M  V30 5995 O 556.438 -1.85545 -1.71258 0
M  V30 5996 C 557.751 -2.64803 1.42478 0
M  V30 5997 C 559.299 -2.78688 1.42485 0
M  V30 5998 C 559.774 -3.96405 2.29407 0
M  V30 5999 N 561.265 -4.0366 2.27184 0
M  V30 6000 C 562 -4.93971 2.9117 0
M  V30 6001 N 561.496 -5.89313 3.64256 0
M  V30 6002 N 563.289 -4.87066 2.80576 0
M  V30 6003 H 555.44 -1.12315 1.80275 0
M  V30 6004 H 557.703 -0.553266 0.769806 0
M  V30 6005 H 557.409 -2.50368 2.46999 0
M  V30 6006 H 557.283 -3.60506 1.10974 0
M  V30 6007 H 559.67 -2.92547 0.387304 0
M  V30 6008 H 559.751 -1.83708 1.78002 0
M  V30 6009 H 559.395 -3.83304 3.33228 0
M  V30 6010 H 559.325 -4.90654 1.91224 0
M  V30 6011 H 561.816 -3.35435 1.74045 0
M  V30 6012 H 562.129 -6.54913 4.10255 0
M  V30 6013 H 560.474 -5.8935 3.68364 0
M  V30 6014 H 563.665 -4.11552 2.23031 0
M  V30 6015 H 563.838 -5.57248 3.30725 0
M  V30 6016 N 557.244 -0.608902 -1.45362 0
M  V30 6017 C 558.521 -0.0365378 -1.95566 0
M  V30 6018 C 558.901 1.43169 -1.55131 0
M  V30 6019 O 558.249 2.1349 -0.814513 0
M  V30 6020 C 558.459 -0.236026 -3.48201 0
M  V30 6021 C 559.807 -0.117518 -4.24437 0
M  V30 6022 O 560.831 -0.166217 -3.55812 0
M  V30 6023 O 559.69 -0.00372127 -5.465 0
M  V30 6024 H 556.784 0.0349874 -0.82626 0
M  V30 6025 H 559.33 -0.679055 -1.55521 0
M  V30 6026 H 558.102 -1.25569 -3.70605 0
M  V30 6027 H 557.725 0.441691 -3.95139 0
M  V30 6028 N 558.722 1.53707 -0.348139 0
M  V30 6029 C 559.652 2.28111 0.498766 0
M  V30 6030 C 560.633 1.29851 1.09876 0
M  V30 6031 O 561.818 1.587 1.11928 0
M  V30 6032 C 558.948 3.05735 1.64753 0
M  V30 6033 C 557.902 4.11537 1.17565 0
M  V30 6034 C 557.228 4.77142 2.4133 0
M  V30 6035 C 558.528 5.21587 0.272844 0
M  V30 6036 H 560.222 2.99152 -0.121934 0
M  V30 6037 H 557.768 1.43875 -0.0600842 0
M  V30 6038 H 559.721 3.56526 2.24649 0
M  V30 6039 H 558.445 2.32354 2.2952 0
M  V30 6040 H 557.104 3.61665 0.599483 0
M  V30 6041 H 556.752 4.0035 3.04514 0
M  V30 6042 H 556.452 5.48626 2.10436 0
M  V30 6043 H 557.976 5.30719 3.01943 0
M  V30 6044 H 559.39 5.67986 0.778779 0
M  V30 6045 H 557.787 6.00074 0.0555849 0
M  V30 6046 H 558.857 4.79969 -0.689785 0
M  V30 6047 N 560.2 0.0768682 1.57412 0
M  V30 6048 C 561.147 -0.888577 2.13009 0
M  V30 6049 C 562.117 -1.29198 1.0439 0
M  V30 6050 O 563.302 -1.37694 1.3208 0
M  V30 6051 C 560.442 -2.14899 2.70023 0
M  V30 6052 C 559.555 -1.79777 3.92816 0
M  V30 6053 C 558.69 -3.00467 4.38056 0
M  V30 6054 C 557.729 -2.61385 5.53484 0
M  V30 6055 N 556.866 -3.74851 5.93659 0
M  V30 6056 H 561.706 -0.407593 2.95199 0
M  V30 6057 H 559.243 -0.189534 1.45874 0
M  V30 6058 H 561.201 -2.88688 3.0119 0
M  V30 6059 H 559.831 -2.60529 1.9059 0
M  V30 6060 H 558.883 -0.960301 3.68079 0
M  V30 6061 H 560.195 -1.47027 4.76639 0
M  V30 6062 H 559.349 -3.82529 4.7091 0
M  V30 6063 H 558.088 -3.36413 3.53097 0
M  V30 6064 H 557.093 -1.77746 5.20275 0
M  V30 6065 H 558.318 -2.26603 6.40178 0
M  V30 6066 H 556.264 -4.1055 5.11649 0
M  V30 6067 H 556.181 -3.45887 6.72234 0
M  V30 6068 H 557.449 -4.57477 6.31138 0
M  V30 6069 N 561.678 -1.56367 -0.196722 0
M  V30 6070 C 562.608 -1.97442 -1.24655 0
M  V30 6071 C 563.589 -0.846147 -1.47561 0
M  V30 6072 O 564.774 -1.11035 -1.59326 0
M  V30 6073 C 561.904 -2.31253 -2.59112 0
M  V30 6074 C 560.858 -3.46804 -2.50821 0
M  V30 6075 C 560.184 -3.66286 -3.89536 0
M  V30 6076 C 561.484 -4.8104 -2.03465 0
M  V30 6077 H 563.178 -2.85388 -0.905216 0
M  V30 6078 H 560.724 -1.37304 -0.434002 0
M  V30 6079 H 562.677 -2.58583 -3.32736 0
M  V30 6080 H 561.401 -1.40188 -2.94983 0
M  V30 6081 H 560.06 -3.19563 -1.79653 0
M  V30 6082 H 559.708 -2.72555 -4.22756 0
M  V30 6083 H 559.408 -4.4402 -3.84864 0
M  V30 6084 H 560.932 -3.9599 -4.64784 0
M  V30 6085 H 562.346 -5.07411 -2.66846 0
M  V30 6086 H 560.743 -5.62232 -2.09798 0
M  V30 6087 H 561.813 -4.74732 -0.98781 0
M  V30 6088 N 563.156 0.464375 -1.50603 0
M  V30 6089 C 564.433 1.22549 -1.5245 0
M  V30 6090 C 564.813 2.09327 -0.273035 0
M  V30 6091 O 564.161 2.16074 0.743242 0
M  V30 6092 C 564.371 2.05074 -2.82393 0
M  V30 6093 C 565.719 2.63036 -3.33313 0
M  V30 6094 O 566.743 2.1531 -2.8376 0
M  V30 6095 O 565.602 3.5001 -4.19709 0
M  V30 6096 H 562.696 0.556471 -0.611775 0
M  V30 6097 H 565.242 0.475648 -1.62898 0
M  V30 6098 H 564.014 1.41169 -3.64948 0
M  V30 6099 H 563.637 2.87179 -2.7498 0
M  V30 6100 N 564.634 1.40294 0.718013 0
M  V30 6101 C 565.582 1.40536 1.85344 0
M  V30 6102 C 566.576 0.286192 1.66965 0
M  V30 6103 O 567.782 0.457105 1.74099 0
M  V30 6104 H 564.157 0.439236 0.61039 0
M  V30 6105 H 566.128 2.36275 1.82255 0
M  V30 6106 C 564.877 1.28245 3.23185 0
M  V30 6107 H 564.2 2.1364 3.37932 0
M  V30 6108 H 565.64 1.32474 4.02774 0
M  V30 6109 C 564.099 -0.0075503 3.36899 0
M  V30 6110 O 564.629 -0.971391 3.89778 0
M  V30 6111 N 562.835 -0.0762479 2.905 0
M  V30 6112 H 562.382 0.708819 2.47656 0
M  V30 6113 H 562.34 -0.938846 3.00055 0
M  V30 6114 N 566.112 -0.949982 1.2575 0
M  V30 6115 C 567.358 -1.69766 1.10938 0
M  V30 6116 C 567.691 -1.91056 -0.348028 0
M  V30 6117 O 566.966 -1.48488 -1.25625 0
M  V30 6118 C 567.249 -3.07779 1.86933 0
M  V30 6119 C 567.102 -2.9387 3.4053 0
M  V30 6120 C 568.421 -4.07749 1.65616 0
M  V30 6121 H 565.54 -0.616144 0.404396 0
M  V30 6122 H 568.182 -1.10394 1.54639 0
M  V30 6123 H 566.332 -3.58462 1.4979 0
M  V30 6124 H 568.004 -2.50476 3.87375 0
M  V30 6125 H 566.247 -2.29686 3.68004 0
M  V30 6126 H 566.918 -3.91719 3.88922 0
M  V30 6127 H 569.394 -3.65994 1.97959 0
M  V30 6128 H 568.27 -5.02348 2.21218 0
M  V30 6129 H 568.531 -4.38029 0.598595 0
M  V30 6130 N 567.59 -1.07411 -1.15328 0
M  V30 6131 C 568.52 -0.716472 -2.22236 0
M  V30 6132 C 569.501 0.296373 -1.67498 0
M  V30 6133 O 570.686 0.168989 -1.93463 0
M  V30 6134 C 567.816 -0.114142 -3.47112 0
M  V30 6135 C 566.77 -1.05421 -4.14814 0
M  V30 6136 C 566.096 -0.314604 -5.33774 0
M  V30 6137 C 567.396 -2.38808 -4.64508 0
M  V30 6138 H 569.09 -1.61029 -2.52408 0
M  V30 6139 H 566.636 -0.775702 -1.21321 0
M  V30 6140 H 568.589 0.148001 -4.2114 0
M  V30 6141 H 567.313 0.814755 -3.16274 0
M  V30 6142 H 565.972 -1.30128 -3.42728 0
M  V30 6143 H 565.62 0.617772 -4.99192 0
M  V30 6144 H 565.32 -0.941209 -5.80013 0
M  V30 6145 H 566.844 -0.0602747 -6.1057 0
M  V30 6146 H 568.258 -2.18424 -5.3006 0
M  V30 6147 H 566.655 -2.97069 -5.21412 0
M  V30 6148 H 567.725 -3.01067 -3.80114 0
M  V30 6149 N 569.068 1.32177 -0.85831 0
M  V30 6150 C 569.998 2.31282 -0.321041 0
M  V30 6151 C 570.979 1.59841 0.581786 0
M  V30 6152 O 572.164 1.87619 0.501262 0
M  V30 6153 C 569.294 3.4385 0.48832 0
M  V30 6154 C 568.248 4.26799 -0.320391 0
M  V30 6155 C 567.574 5.31164 0.613934 0
M  V30 6156 C 568.874 4.98829 -1.54813 0
M  V30 6157 H 570.568 2.76469 -1.14915 0
M  V30 6158 H 568.114 1.32916 -0.554028 0
M  V30 6159 H 570.067 4.12224 0.874626 0
M  V30 6160 H 568.791 2.97401 1.34983 0
M  V30 6161 H 567.45 3.60077 -0.688497 0
M  V30 6162 H 567.098 4.80967 1.47239 0
M  V30 6163 H 566.798 5.8755 0.0768097 0
M  V30 6164 H 568.322 6.024 0.997336 0
M  V30 6165 H 569.736 5.59864 -1.23392 0
M  V30 6166 H 568.133 5.64957 -2.02346 0
M  V30 6167 H 569.203 4.26483 -2.30739 0
M  V30 6168 N 570.547 0.616602 1.45037 0
M  V30 6169 C 571.824 0.0469086 1.95544 0
M  V30 6170 C 572.204 -1.42345 1.55888 0
M  V30 6171 O 571.552 -2.13055 0.825824 0
M  V30 6172 C 571.762 0.254489 3.48071 0
M  V30 6173 C 573.11 0.140025 4.24369 0
M  V30 6174 O 574.134 0.185084 3.55719 0
M  V30 6175 O 572.993 0.0327034 5.4649 0
M  V30 6176 H 570.087 -0.0306051 0.826433 0
M  V30 6177 H 572.633 0.687293 1.55159 0
M  V30 6178 H 571.405 1.27532 3.69934 0
M  V30 6179 H 571.028 -0.42073 3.95368 0
M  V30 6180 N 572.025 -1.5352 0.356285 0
M  V30 6181 C 573.25 -2.06007 -0.239961 0
M  V30 6182 C 573.675 -1.22872 -1.42422 0
M  V30 6183 O 573.033 -0.245516 -1.7963 0
M  V30 6184 C 573.081 -3.5522 -0.620587 0
M  V30 6185 O 572.185 -3.74864 -1.71902 0
M  V30 6186 H 571.526 -0.662961 -0.0371377 0
M  V30 6187 H 574.056 -1.98033 0.514194 0
M  V30 6188 H 574.066 -3.98081 -0.894197 0
M  V30 6189 H 572.741 -4.15175 0.245407 0
M  V30 6190 H 571.318 -3.43904 -1.44169 0
M  V30 6191 N 573.503 -0.0852151 -1.57369 0
M  V30 6192 C 574.413 0.891712 -2.16992 0
M  V30 6193 C 575.429 1.3174 -1.13669 0
M  V30 6194 O 576.605 1.38735 -1.45995 0
M  V30 6195 C 573.67 2.13635 -2.73059 0
M  V30 6196 C 572.731 1.7658 -3.91303 0
M  V30 6197 C 571.964 2.95111 -4.44686 0
M  V30 6198 O 572.187 4.09539 -3.97032 0
M  V30 6199 O 571.121 2.74149 -5.35841 0
M  V30 6200 H 574.947 0.414477 -3.00858 0
M  V30 6201 H 572.532 0.138598 -1.48756 0
M  V30 6202 H 574.414 2.86595 -3.08935 0
M  V30 6203 H 573.089 2.6043 -1.92244 0
M  V30 6204 H 571.996 1.00831 -3.60255 0
M  V30 6205 H 573.329 1.34557 -4.7345 0
M  V30 6206 N 574.981 1.5647 0.188427 0
M  V30 6207 C 576.229 1.80655 0.905986 0
M  V30 6208 C 576.55 0.659391 1.83513 0
M  V30 6209 O 575.82 -0.321868 1.93238 0
M  V30 6210 H 574.4 0.666391 0.337538 0
M  V30 6211 H 577.062 1.93949 0.192339 0
M  V30 6212 H 576.158 2.74066 1.49313 0
M  V30 6213 N 576.459 -0.456382 1.50847 0
M  V30 6214 C 577.409 -1.55045 1.67168 0
M  V30 6215 C 578.393 -1.52061 0.525958 0
M  V30 6216 O 579.585 -1.58836 0.781036 0
M  V30 6217 C 576.714 -2.93386 1.78268 0
M  V30 6218 C 575.8 -3.01198 2.98564 0
M  V30 6219 N 576.191 -2.78792 4.22029 0
M  V30 6220 C 574.489 -3.32346 2.97426 0
M  V30 6221 C 575.19 -2.91953 5.03128 0
M  V30 6222 N 574.166 -3.22797 4.37382 0
M  V30 6223 H 577.968 -1.36444 2.60308 0
M  V30 6224 H 575.482 -0.663375 1.48233 0
M  V30 6225 H 577.479 -3.72071 1.88067 0
M  V30 6226 H 576.139 -3.13022 0.862965 0
M  V30 6227 H 577.15 -2.54087 4.51287 0
M  V30 6228 H 573.827 -3.57877 2.15012 0
M  V30 6229 H 575.217 -2.78745 6.11351 0
M  V30 6230 N 577.937 -1.40673 -0.710563 0
M  V30 6231 C 579.186 -1.38525 -1.46607 0
M  V30 6232 C 579.499 0.0077024 -1.95598 0
M  V30 6233 O 580.705 0.151792 -2.71075 0
M  V30 6234 C 579.161 -2.43489 -2.6503 0
M  V30 6235 C 578.769 -3.88619 -2.22888 0
M  V30 6236 C 580.513 -2.50456 -3.42742 0
M  V30 6237 C 578.42 -4.85168 -3.3818 0
M  V30 6238 H 577.35 -0.515092 -0.550632 0
M  V30 6239 H 580.001 -1.66431 -0.772846 0
M  V30 6240 H 578.383 -2.0869 -3.36548 0
M  V30 6241 H 579.557 -4.32588 -1.58758 0
M  V30 6242 H 577.872 -3.85174 -1.58208 0
M  V30 6243 H 580.469 -3.19776 -4.28541 0
M  V30 6244 H 580.812 -1.53665 -3.86902 0
M  V30 6245 H 581.345 -2.84271 -2.78271 0
M  V30 6246 H 578.084 -5.8331 -2.99047 0
M  V30 6247 H 577.604 -4.4586 -4.01209 0
M  V30 6248 H 579.283 -5.05225 -4.04174 0
M  V30 6249 N 579.415 0.9433 -1.26252 0
M  V30 6250 C 580.362 2.0417 -1.07625 0
M  V30 6251 C 581.332 1.6609 0.0180738 0
M  V30 6252 O 582.517 1.90276 -0.141289 0
M  V30 6253 C 579.657 3.37653 -0.713043 0
M  V30 6254 C 578.77 3.88783 -1.8834 0
M  V30 6255 C 577.905 5.10642 -1.4635 0
M  V30 6256 C 576.944 5.54028 -2.60229 0
M  V30 6257 N 576.081 6.67092 -2.18936 0
M  V30 6258 H 580.921 2.19436 -2.01623 0
M  V30 6259 H 578.458 1.07519 -1.00389 0
M  V30 6260 H 580.416 4.14391 -0.483358 0
M  V30 6261 H 579.046 3.22241 0.18996 0
M  V30 6262 H 578.098 3.08464 -2.22608 0
M  V30 6263 H 579.41 4.16922 -2.73821 0
M  V30 6264 H 578.564 5.94832 -1.19414 0
M  V30 6265 H 577.303 4.84244 -0.579568 0
M  V30 6266 H 576.308 4.68396 -2.87898 0
M  V30 6267 H 577.533 5.82429 -3.49219 0
M  V30 6268 H 575.479 6.42381 -1.32974 0
M  V30 6269 H 575.396 6.94806 -2.97961 0
M  V30 6270 H 576.664 7.54662 -1.95206 0
M  V30 6271 N 580.893 1.08022 1.14757 0
M  V30 6272 C 581.823 0.728248 2.21853 0
M  V30 6273 C 582.804 -0.287486 1.67653 0
M  V30 6274 O 583.989 -0.158727 1.9355 0
M  V30 6275 C 581.119 0.132549 3.47047 0
M  V30 6276 C 580.073 1.07619 4.14249 0
M  V30 6277 C 579.399 0.342907 5.33599 0
M  V30 6278 C 580.699 2.41268 4.63235 0
M  V30 6279 H 582.393 1.62365 2.51551 0
M  V30 6280 H 579.939 0.782125 1.20908 0
M  V30 6281 H 581.892 -0.125665 4.21213 0
M  V30 6282 H 580.616 -0.797971 3.16702 0
M  V30 6283 H 579.275 1.31944 3.42033 0
M  V30 6284 H 578.923 -0.59129 4.99513 0
M  V30 6285 H 578.623 0.971955 5.79506 0
M  V30 6286 H 580.147 0.0926538 6.1053 0
M  V30 6287 H 581.561 2.21232 5.28894 0
M  V30 6288 H 579.958 2.9983 5.19829 0
M  V30 6289 H 581.028 3.03079 3.78512 0
M  V30 6290 N 582.371 -1.3172 0.865308 0
M  V30 6291 C 583.599 -2.01057 0.488251 0
M  V30 6292 C 584.014 -1.64979 -0.918 0
M  V30 6293 O 583.371 -0.876597 -1.60069 0
M  V30 6294 C 583.422 -3.55964 0.630224 0
M  V30 6295 O 583.143 -3.90749 1.98109 0
M  V30 6296 C 584.644 -4.42574 0.253567 0
M  V30 6297 H 581.864 -0.64332 0.190736 0
M  V30 6298 H 584.408 -1.68058 1.16519 0
M  V30 6299 H 582.563 -3.874 0.000895422 0
M  V30 6300 H 582.977 -4.85467 1.9855 0
M  V30 6301 H 584.451 -5.50521 0.403875 0
M  V30 6302 H 584.928 -4.31724 -0.806895 0
M  V30 6303 H 585.534 -4.16547 0.858404 0
M  V30 6304 N 583.85 -0.624285 -1.44708 0
M  V30 6305 C 585.127 -0.0572781 -1.95516 0
M  V30 6306 C 585.507 1.41516 -1.56641 0
M  V30 6307 O 584.855 2.12614 -0.837111 0
M  V30 6308 C 585.065 -0.272944 -3.47931 0
M  V30 6309 C 586.413 -0.162529 -4.24289 0
M  V30 6310 O 587.437 -0.203946 -3.55616 0
M  V30 6311 O 586.296 -0.0616847 -5.46465 0
M  V30 6312 H 583.389 0.0262219 -0.826584 0
M  V30 6313 H 585.936 -0.695512 -1.54793 0
M  V30 6314 H 584.707 -1.29492 -3.69253 0
M  V30 6315 H 584.331 0.399756 -3.95585 0
M  V30 6316 N 585.328 1.53329 -0.364422 0
M  V30 6317 C 586.558 2.05359 0.226096 0
M  V30 6318 C 586.966 1.23777 1.43094 0
M  V30 6319 O 586.309 0.271139 1.81688 0
M  V30 6320 C 586.371 3.52918 0.684794 0
M  V30 6321 C 586.035 4.55218 -0.403206 0
M  V30 6322 C 587.032 5.04583 -1.2527 0
M  V30 6323 C 584.717 4.99134 -0.563117 0
M  V30 6324 C 586.711 5.96463 -2.24745 0
M  V30 6325 C 584.398 5.9082 -1.56124 0
M  V30 6326 C 585.396 6.39375 -2.40184 0
M  V30 6327 O 585.084 7.29255 -3.38293 0
M  V30 6328 H 584.816 0.674588 0.0436772 0
M  V30 6329 H 587.37 1.98688 -0.520782 0
M  V30 6330 H 585.6 3.57122 1.48326 0
M  V30 6331 H 587.289 3.87812 1.19818 0
M  V30 6332 H 588.055 4.71403 -1.14034 0
M  V30 6333 H 583.934 4.60928 0.0813909 0
M  V30 6334 H 587.478 6.34285 -2.90393 0
M  V30 6335 H 583.375 6.23414 -1.67407 0
M  V30 6336 H 584.143 7.47249 -3.34009 0
M  V30 6337 N 586.806 0.0935595 1.57322 0
M  V30 6338 C 588.054 -0.569383 1.93913 0
M  V30 6339 C 588.375 -1.68817 0.976009 0
M  V30 6340 O 587.645 -1.9588 0.0278099 0
M  V30 6341 H 586.225 -0.21332 0.715894 0
M  V30 6342 H 588.887 0.156531 1.9427 0
M  V30 6343 H 587.983 -0.980577 2.96296 0
M  V30 6344 N 588.284 -1.56567 -0.180126 0
M  V30 6345 C 589.217 -1.90813 -1.25163 0
M  V30 6346 C 590.195 -0.7699 -1.43218 0
M  V30 6347 O 591.379 -1.02236 -1.58367 0
M  V30 6348 C 588.506 -2.15138 -2.61597 0
M  V30 6349 C 587.552 -3.37834 -2.60328 0
M  V30 6350 S 588.385 -4.92486 -2.1028 0
M  V30 6351 C 589.541 -5.19896 -3.48509 0
M  V30 6352 H 589.774 -2.81398 -0.959283 0
M  V30 6353 H 587.307 -1.49541 -0.3843 0
M  V30 6354 H 589.265 -2.29835 -3.40127 0
M  V30 6355 H 587.926 -1.25276 -2.88036 0
M  V30 6356 H 587.119 -3.52027 -3.60684 0
M  V30 6357 H 586.721 -3.22208 -1.8989 0
M  V30 6358 H 589.013 -5.11334 -4.44459 0
M  V30 6359 H 589.956 -6.21571 -3.39198 0
M  V30 6360 H 590.364 -4.47489 -3.44114 0
M  V30 6361 N 589.762 0.448376 -1.51087 0
M  V30 6362 C 591.002 1.20832 -1.64861 0
M  V30 6363 C 591.366 1.88748 -0.351873 0
M  V30 6364 O 592.567 2.66307 -0.365265 0
M  V30 6365 C 590.838 2.20674 -2.81137 0
M  V30 6366 S 592.397 3.05303 -3.15176 0
M  V30 6367 H 589.215 0.40992 -0.580936 0
M  V30 6368 H 591.817 0.501624 -1.88955 0
M  V30 6369 H 590.521 1.69399 -3.73808 0
M  V30 6370 H 590.052 2.9594 -2.59198 0
M  V30 6371 H 592.067 4.22162 -2.60756 0
M  V30 6372 N 591.24 1.41047 0.703093 0
M  V30 6373 C 592.187 1.42302 1.81711 0
M  V30 6374 C 593.157 0.278336 1.63751 0
M  V30 6375 O 594.342 0.478266 1.84709 0
M  V30 6376 C 591.482 1.30362 3.19531 0
M  V30 6377 C 590.595 2.54638 3.48975 0
M  V30 6378 C 589.73 2.35047 4.76368 0
M  V30 6379 C 588.769 3.54837 4.98756 0
M  V30 6380 N 587.906 3.34363 6.1737 0
M  V30 6381 H 592.746 2.37516 1.79973 0
M  V30 6382 H 590.283 1.1795 0.878983 0
M  V30 6383 H 592.241 1.21443 3.99134 0
M  V30 6384 H 590.871 0.387602 3.20464 0
M  V30 6385 H 589.923 2.74037 2.63833 0
M  V30 6386 H 591.235 3.43766 3.61423 0
M  V30 6387 H 590.389 2.23552 5.64012 0
M  V30 6388 H 589.128 1.43363 4.66153 0
M  V30 6389 H 588.133 3.66795 4.09563 0
M  V30 6390 H 589.358 4.47464 5.10835 0
M  V30 6391 H 587.304 2.45373 6.08382 0
M  V30 6392 H 587.221 4.17063 6.30551 0
M  V30 6393 H 588.489 3.26626 7.07768 0
M  V30 6394 N 592.718 -0.936591 1.26751 0
M  V30 6395 C 593.628 -2.06949 1.10496 0
M  V30 6396 C 594.644 -1.7396 0.037271 0
M  V30 6397 O 595.82 -1.99941 0.241944 0
M  V30 6398 C 592.885 -3.38612 0.744491 0
M  V30 6399 C 591.946 -3.85355 1.89209 0
M  V30 6400 C 591.179 -5.10735 1.54873 0
M  V30 6401 O 591.402 -5.68602 0.452546 0
M  V30 6402 O 590.336 -5.52632 2.38499 0
M  V30 6403 H 594.162 -2.23571 2.05547 0
M  V30 6404 H 591.747 -1.05428 1.05855 0
M  V30 6405 H 593.629 -4.17711 0.556396 0
M  V30 6406 H 592.304 -3.23218 -0.176582 0
M  V30 6407 H 591.211 -3.07182 2.13518 0
M  V30 6408 H 592.544 -4.05277 2.79305 0
M  V30 6409 N 594.196 -1.08629 -1.14182 0
M  V30 6410 C 595.444 -0.815731 -1.84906 0
M  V30 6411 C 595.765 0.660441 -1.83475 0
M  V30 6412 O 595.035 1.47888 -1.28476 0
M  V30 6413 H 593.615 -0.298773 -0.684648 0
M  V30 6414 H 596.277 -1.37274 -1.38354 0
M  V30 6415 H 595.373 -1.16193 -2.89665 0
M  V30 6416 N 595.674 1.31259 -0.872281 0
M  V30 6417 C 596.604 2.30929 -0.345554 0
M  V30 6418 C 597.585 1.60449 0.5648 0
M  V30 6419 O 598.77 1.8814 0.481335 0
M  V30 6420 C 595.9 3.44348 0.451823 0
M  V30 6421 C 594.854 4.26435 -0.365641 0
M  V30 6422 C 594.18 5.31785 0.557562 0
M  V30 6423 C 595.48 4.97159 -1.60095 0
M  V30 6424 H 597.174 2.75234 -1.17841 0
M  V30 6425 H 594.72 1.3232 -0.568094 0
M  V30 6426 H 596.673 4.13128 0.830854 0
M  V30 6427 H 595.397 2.98816 1.31821 0
M  V30 6428 H 594.056 3.59326 -0.726649 0
M  V30 6429 H 593.704 4.82502 1.4213 0
M  V30 6430 H 593.404 5.87598 0.0144878 0
M  V30 6431 H 594.928 6.03424 0.933387 0
M  V30 6432 H 596.342 5.58523 -1.29323 0
M  V30 6433 H 594.739 5.62779 -2.08327 0
M  V30 6434 H 595.809 4.24012 -2.35249 0
M  V30 6435 N 597.152 0.631951 1.44375 0
M  V30 6436 C 598.568 0.297642 1.568 0
M  V30 6437 C 598.768 -1.19916 1.61934 0
M  V30 6438 O 597.824 -1.98324 1.56281 0
M  V30 6439 C 599.137 0.990286 2.83926 0
M  V30 6440 C 600.685 0.968507 2.97639 0
M  V30 6441 C 601.16 1.64163 4.27568 0
M  V30 6442 N 602.651 1.60826 4.34384 0
M  V30 6443 C 603.386 2.09802 5.33639 0
M  V30 6444 N 602.882 2.66973 6.39294 0
M  V30 6445 N 604.675 2.00426 5.25153 0
M  V30 6446 H 596.826 1.60353 1.39286 0
M  V30 6447 H 599.089 0.673142 0.667521 0
M  V30 6448 H 598.795 2.04519 2.8612 0
M  V30 6449 H 598.669 0.528563 3.73478 0
M  V30 6450 H 601.056 -0.0779247 2.94997 0
M  V30 6451 H 601.137 1.46873 2.09433 0
M  V30 6452 H 600.781 2.68752 4.3097 0
M  V30 6453 H 600.711 1.11624 5.14634 0
M  V30 6454 H 603.202 1.19087 3.58646 0
M  V30 6455 H 603.515 3.02074 7.11316 0
M  V30 6456 H 601.86 2.71024 6.39977 0
M  V30 6457 H 605.051 1.55483 4.41523 0
M  V30 6458 H 605.224 2.38906 6.02352 0
M  V30 6459 N 598.631 -1.53133 0.372548 0
M  V30 6460 C 600.042 -1.86404 -0.105155 0
M  V30 6461 C 600.393 -1.29289 -1.47576 0
M  V30 6462 O 599.518 -0.617646 -2.07398 0
M  V30 6463 C 600.113 -3.38223 -0.197588 0
M  V30 6464 C 598.672 -3.71266 -0.619556 0
M  V30 6465 C 597.819 -2.76353 0.228919 0
M  V30 6466 H 600.77 -1.47282 0.591077 0
M  V30 6467 H 600.791 -3.66577 -1.01987 0
M  V30 6468 H 600.303 -3.79763 0.800099 0
M  V30 6469 H 598.404 -3.35287 -1.62522 0
M  V30 6470 H 598.517 -4.77515 -0.389332 0
M  V30 6471 H 596.881 -2.52888 -0.303271 0
M  V30 6472 H 597.664 -3.20728 1.22428 0
M  V30 6473 N 600.109 -0.101901 -1.5727 0
M  V30 6474 C 601.357 0.559091 -1.94213 0
M  V30 6475 C 601.678 1.68297 -0.984948 0
M  V30 6476 O 600.948 1.95863 -0.0381975 0
M  V30 6477 H 599.528 0.20952 -0.717015 0
M  V30 6478 H 602.19 -0.166831 -1.94185 0
M  V30 6479 H 601.286 0.96485 -2.96811 0
M  V30 6480 N 601.587 1.56661 0.17182 0
M  V30 6481 C 602.864 1.72838 0.915778 0
M  V30 6482 C 603.244 0.66316 2.00413 0
M  V30 6483 O 602.592 -0.322123 2.26218 0
M  V30 6484 C 602.802 3.16019 1.48097 0
M  V30 6485 C 604.15 3.76962 1.95408 0
M  V30 6486 O 605.174 3.19294 1.57892 0
M  V30 6487 O 604.033 4.78219 2.64516 0
M  V30 6488 H 601.127 0.705797 0.431021 0
M  V30 6489 H 603.673 1.68947 0.159689 0
M  V30 6490 H 602.445 3.85031 0.697618 0
M  V30 6491 H 602.068 3.24234 2.30126 0
M  V30 6492 N 603.065 -0.440357 1.51323 0
M  V30 6493 C 604.293 -1.21255 1.67645 0
M  V30 6494 C 604.708 -1.85088 0.37252 0
M  V30 6495 O 604.065 -1.70582 -0.648683 0
M  V30 6496 C 604.116 -2.29881 2.78993 0
M  V30 6497 O 603.837 -1.68659 4.04334 0
M  V30 6498 C 605.338 -3.20214 3.06558 0
M  V30 6499 H 602.558 -0.36558 0.562666 0
M  V30 6500 H 605.102 -0.52214 1.97722 0
M  V30 6501 H 603.257 -2.94643 2.51524 0
M  V30 6502 H 603.671 -2.40426 4.6615 0
M  V30 6503 H 605.145 -3.92575 3.88058 0
M  V30 6504 H 605.622 -3.80794 2.18844 0
M  V30 6505 H 606.228 -2.61156 3.35675 0
M  V30 6506 N 604.543 -1.41418 -0.695603 0
M  V30 6507 C 605.771 -1.4413 -1.48439 0
M  V30 6508 C 606.186 -0.0465698 -1.88743 0
M  V30 6509 O 605.543 0.934117 -1.56782 0
M  V30 6510 C 605.594 -2.34998 -2.74696 0
M  V30 6511 O 605.315 -3.69043 -2.36091 0
M  V30 6512 C 606.816 -2.46513 -3.68438 0
M  V30 6513 H 604.036 -0.490905 -0.457442 0
M  V30 6514 H 606.58 -1.85702 -0.856454 0
M  V30 6515 H 604.735 -1.96735 -3.33728 0
M  V30 6516 H 605.149 -4.17505 -3.17474 0
M  V30 6517 H 606.623 -3.1426 -4.53811 0
M  V30 6518 H 607.1 -1.49638 -4.12922 0
M  V30 6519 H 607.706 -2.85412 -3.1531 0
M  V30 6520 N 606.021 0.929856 -1.27246 0
M  V30 6521 C 607.246 1.71674 -1.16374 0
M  V30 6522 C 607.671 1.86064 0.276024 0
M  V30 6523 O 607.029 1.3591 1.19992 0
M  V30 6524 C 607.077 3.09526 -1.85003 0
M  V30 6525 O 606.181 3.96142 -1.14653 0
M  V30 6526 H 605.522 0.52629 -0.404863 0
M  V30 6527 H 608.052 1.16381 -1.68276 0
M  V30 6528 H 608.062 3.59852 -1.92276 0
M  V30 6529 H 606.737 2.98369 -2.89739 0
M  V30 6530 H 605.314 3.54584 -1.15433 0
M  V30 6531 N 607.499 1.09233 1.13605 0
M  V30 6532 C 608.727 0.848908 1.88683 0
M  V30 6533 C 609.142 -0.599667 1.79024 0
M  V30 6534 O 608.499 -1.41265 1.15544 0
M  V30 6535 C 608.55 1.27273 3.38355 0
M  V30 6536 O 608.271 2.66449 3.47759 0
M  V30 6537 C 609.772 1.0614 4.30406 0
M  V30 6538 H 606.992 0.305549 0.597395 0
M  V30 6539 H 609.536 1.4538 1.43823 0
M  V30 6540 H 607.691 0.711776 3.80805 0
M  V30 6541 H 608.105 2.84264 4.40788 0
M  V30 6542 H 609.579 1.40725 5.33761 0
M  V30 6543 H 610.056 -0.000960332 4.392 0
M  V30 6544 H 610.662 1.60821 3.93722 0
M  V30 6545 N 608.977 -1.30795 0.87923 0
M  V30 6546 C 610.224 -1.96362 0.494786 0
M  V30 6547 C 610.552 -1.69448 -0.954868 0
M  V30 6548 O 609.807 -0.988711 -1.68888 0
M  V30 6549 C 610.106 -3.50287 0.709476 0
M  V30 6550 C 609.772 -3.9724 2.13333 0
M  V30 6551 C 608.434 -4.09772 2.52271 0
M  V30 6552 C 610.786 -4.21807 3.06151 0
M  V30 6553 C 608.114 -4.44227 3.83248 0
M  V30 6554 C 610.466 -4.5773 4.36654 0
M  V30 6555 C 609.13 -4.68469 4.75492 0
M  V30 6556 H 608.4 -0.71854 0.181055 0
M  V30 6557 H 611.047 -1.55764 1.11399 0
M  V30 6558 H 609.352 -3.91799 0.0072 0
M  V30 6559 H 611.049 -3.99082 0.391703 0
M  V30 6560 H 607.639 -3.87988 1.82107 0
M  V30 6561 H 611.823 -4.11611 2.77291 0
M  V30 6562 H 607.079 -4.50741 4.13089 0
M  V30 6563 H 611.253 -4.7569 5.08617 0
M  V30 6564 H 608.88 -4.94923 5.77022 0
M  V30 6565 N 610.455 -0.639598 -1.44038 0
M  V30 6566 C 611.695 -0.150902 -2.03842 0
M  V30 6567 C 612.059 1.20744 -1.49281 0
M  V30 6568 O 613.26 1.78875 -2.00642 0
M  V30 6569 C 611.531 -0.146114 -3.57101 0
M  V30 6570 S 613.09 0.276725 -4.37927 0
M  V30 6571 H 609.908 -0.0652447 -0.708 0
M  V30 6572 H 612.51 -0.844886 -1.76301 0
M  V30 6573 H 611.214 -1.13769 -3.94316 0
M  V30 6574 H 610.745 0.568846 -3.89266 0
M  V30 6575 H 612.76 1.51893 -4.7238 0
M  V30 6576 N 611.933 1.52934 -0.380664 0
M  V30 6577 C 613.181 2.01069 0.203874 0
M  V30 6578 C 613.502 1.26922 1.4804 0
M  V30 6579 O 612.772 0.386787 1.92044 0
M  V30 6580 H 611.352 0.742882 0.0783279 0
M  V30 6581 H 614.014 1.88099 -0.510368 0
M  V30 6582 H 613.11 3.09258 0.42021 0
M  V30 6583 N 613.412 0.11024 1.57214 0
M  V30 6584 C 614.64 -0.557834 1.99238 0
M  V30 6585 C 615.055 -1.60778 0.989734 0
M  V30 6586 O 614.412 -1.82491 -0.0186092 0
M  V30 6587 C 614.463 -1.19189 3.41286 0
M  V30 6588 O 614.184 -0.183919 4.37714 0
M  V30 6589 C 615.685 -1.94413 3.98395 0
M  V30 6590 H 612.905 -0.148392 0.654386 0
M  V30 6591 H 615.449 0.193996 2.03578 0
M  V30 6592 H 613.604 -1.89456 3.37913 0
M  V30 6593 H 614.018 -0.643475 5.20538 0
M  V30 6594 H 615.492 -2.34116 4.99894 0
M  V30 6595 H 615.969 -2.81592 3.3705 0
M  V30 6596 H 616.575 -1.28928 4.05287 0
M  V30 6597 N 614.89 -1.56749 -0.16351 0
M  V30 6598 C 616.301 -1.72039 -0.725216 0
M  V30 6599 C 616.652 -0.72202 -1.82432 0
M  V30 6600 O 615.777 0.114942 -2.16095 0
M  V30 6601 C 616.372 -3.11932 -1.32227 0
M  V30 6602 C 614.931 -3.28879 -1.83072 0
M  V30 6603 C 614.078 -2.67984 -0.712716 0
M  V30 6604 H 617.029 -1.58579 0.0619772 0
M  V30 6605 H 617.05 -3.11015 -2.19202 0
M  V30 6606 H 616.562 -3.84572 -0.522103 0
M  V30 6607 H 614.663 -2.61209 -2.65708 0
M  V30 6608 H 614.776 -4.36688 -1.97079 0
M  V30 6609 H 613.14 -2.28005 -1.13515 0
M  V30 6610 H 613.923 -3.43216 0.0757361 0
M  V30 6611 N 616.368 0.432326 -1.51554 0
M  V30 6612 C 617.316 1.54572 -1.73811 0
M  V30 6613 C 618.31 1.58246 -0.604539 0
M  V30 6614 O 619.516 1.6193 -0.786041 0
M  V30 6615 H 615.891 0.513626 -0.549265 0
M  V30 6616 H 617.862 1.32977 -2.67132 0
M  V30 6617 C 616.611 2.92181 -1.88483 0
M  V30 6618 H 615.934 2.90088 -2.75116 0
M  V30 6619 H 617.374 3.69439 -2.08065 0
M  V30 6620 C 615.833 3.3065 -0.645909 0
M  V30 6621 O 616.363 4.01216 0.197093 0
M  V30 6622 N 614.569 2.86464 -0.488538 0
M  V30 6623 H 614.116 2.29209 -1.17562 0
M  V30 6624 H 614.074 3.12565 0.339156 0
M  V30 6625 N 617.846 1.41785 0.688094 0
M  V30 6626 C 619.076 1.44705 1.47459 0
M  V30 6627 C 619.484 0.052916 1.89126 0
M  V30 6628 O 618.827 -0.939781 1.57841 0
M  V30 6629 C 618.889 2.29935 2.76352 0
M  V30 6630 C 618.553 3.77996 2.56843 0
M  V30 6631 C 619.55 4.69976 2.22304 0
M  V30 6632 C 617.235 4.2212 2.7225 0
M  V30 6633 C 619.229 6.04068 2.03421 0
M  V30 6634 C 616.916 5.56275 2.52985 0
M  V30 6635 C 617.914 6.47065 2.18621 0
M  V30 6636 O 617.602 7.78744 1.9953 0
M  V30 6637 H 617.334 0.494703 0.460701 0
M  V30 6638 H 619.888 1.86802 0.854057 0
M  V30 6639 H 618.118 1.82664 3.40839 0
M  V30 6640 H 619.807 2.24467 3.38186 0
M  V30 6641 H 620.573 4.37175 2.10008 0
M  V30 6642 H 616.452 3.51752 2.97979 0
M  V30 6643 H 619.996 6.74897 1.76523 0
M  V30 6644 H 615.893 5.88653 2.64873 0
M  V30 6645 H 616.661 7.89966 2.14234 0
M  V30 6646 N 619.324 -0.923095 1.27737 0
M  V30 6647 C 620.573 -1.66581 1.13727 0
M  V30 6648 C 620.886 -1.9304 -0.315433 0
M  V30 6649 O 622.092 -2.65309 -0.57651 0
M  V30 6650 C 620.548 -3.00047 1.98745 0
M  V30 6651 C 620.156 -2.8127 3.48699 0
M  V30 6652 C 621.9 -3.77887 1.93395 0
M  V30 6653 C 619.807 -4.1032 4.25901 0
M  V30 6654 H 618.737 -0.624834 0.422017 0
M  V30 6655 H 621.388 -1.02514 1.52194 0
M  V30 6656 H 619.77 -3.65197 1.53125 0
M  V30 6657 H 620.944 -2.24859 4.02213 0
M  V30 6658 H 619.259 -2.16854 3.55476 0
M  V30 6659 H 621.856 -4.73526 2.48348 0
M  V30 6660 H 622.199 -4.06264 0.908605 0
M  V30 6661 H 622.732 -3.19541 2.36935 0
M  V30 6662 H 619.471 -3.8712 5.28978 0
M  V30 6663 H 618.991 -4.66377 3.77163 0
M  V30 6664 H 620.67 -4.78648 4.35321 0
M  V30 6665 N 620.802 -1.09834 -1.13024 0
M  V30 6666 C 621.765 -0.745058 -2.16752 0
M  V30 6667 C 622.765 0.227435 -1.59183 0
M  V30 6668 O 623.955 0.0050786 -1.74199 0
M  V30 6669 C 621.087 -0.102543 -3.40746 0
M  V30 6670 H 622.28 -1.66375 -2.49518 0
M  V30 6671 H 619.833 -0.898061 -1.27924 0
M  V30 6672 H 620.568 0.827177 -3.13573 0
M  V30 6673 H 620.353 -0.80235 -3.83803 0
M  V30 6674 H 621.843 0.129082 -4.174 0
M  V30 6675 N 622.28 1.30327 -0.886154 0
M  V30 6676 C 623.691 1.78243 -0.555554 0
M  V30 6677 C 624.042 1.72849 0.928314 0
M  V30 6678 O 623.167 1.30607 1.72542 0
M  V30 6679 C 623.762 3.23654 -1.00168 0
M  V30 6680 C 622.321 3.69401 -0.722471 0
M  V30 6681 C 621.468 2.50753 -1.18399 0
M  V30 6682 H 624.419 1.1718 -1.07026 0
M  V30 6683 H 624.44 3.79056 -0.331152 0
M  V30 6684 H 623.952 3.27548 -2.08169 0
M  V30 6685 H 622.053 3.70995 0.345496 0
M  V30 6686 H 622.166 4.60818 -1.31085 0
M  V30 6687 H 620.53 2.47452 -0.603303 0
M  V30 6688 H 621.313 2.57383 -2.27176 0
M  V30 6689 N 623.758 0.647228 1.43697 0
M  V30 6690 C 624.668 -0.0487997 2.34549 0
M  V30 6691 C 625.684 -0.818586 1.53542 0
M  V30 6692 O 626.86 -0.767195 1.86215 0
M  V30 6693 C 623.925 -1.00734 3.31743 0
M  V30 6694 C 622.986 -0.23515 4.28655 0
M  V30 6695 C 622.219 -1.14803 5.21206 0
M  V30 6696 O 622.442 -2.38717 5.18045 0
M  V30 6697 O 621.376 -0.623667 5.9866 0
M  V30 6698 H 625.202 0.698863 2.9555 0
M  V30 6699 H 622.787 0.407412 1.43738 0
M  V30 6700 H 624.669 -1.55837 3.91526 0
M  V30 6701 H 623.344 -1.73534 2.73254 0
M  V30 6702 H 622.251 0.359319 3.7237 0
M  V30 6703 H 623.584 0.453152 4.9011 0
M  V30 6704 N 625.236 -1.5273 0.388769 0
M  V30 6705 C 626.485 -2.00757 -0.194833 0
M  V30 6706 C 626.798 -1.27951 -1.47946 0
M  V30 6707 O 628.004 -1.66686 -2.14308 0
M  V30 6708 C 626.46 -3.57695 -0.397762 0
M  V30 6709 C 626.068 -4.394 0.873583 0
M  V30 6710 C 627.812 -4.14012 -0.937759 0
M  V30 6711 C 625.719 -5.87938 0.638962 0
M  V30 6712 H 624.649 -0.750101 -0.0765845 0
M  V30 6713 H 627.3 -1.76239 0.511086 0
M  V30 6714 H 625.682 -3.7846 -1.16552 0
M  V30 6715 H 626.856 -4.30403 1.64591 0
M  V30 6716 H 625.171 -3.94301 1.33849 0
M  V30 6717 H 627.768 -5.22645 -1.12899 0
M  V30 6718 H 628.111 -3.7007 -1.90666 0
M  V30 6719 H 628.644 -3.97137 -0.229588 0
M  V30 6720 H 625.383 -6.36202 1.57885 0
M  V30 6721 H 624.903 -5.99726 -0.094443 0
M  V30 6722 H 626.582 -6.46423 0.273299 0
M  V30 6723 N 626.714 -0.118576 -1.57153 0
M  V30 6724 C 627.644 0.828436 -2.1831 0
M  V30 6725 C 628.625 1.27758 -1.12303 0
M  V30 6726 O 629.81 1.34026 -1.40537 0
M  V30 6727 C 626.94 2.07876 -2.78217 0
M  V30 6728 C 625.894 1.76742 -3.89803 0
M  V30 6729 C 625.22 3.08801 -4.36516 0
M  V30 6730 C 626.52 1.03606 -5.11921 0
M  V30 6731 H 628.214 0.318824 -2.97698 0
M  V30 6732 H 625.76 0.151911 -1.43196 0
M  V30 6733 H 627.713 2.74584 -3.19659 0
M  V30 6734 H 626.437 2.61161 -1.96118 0
M  V30 6735 H 625.096 1.12424 -3.48936 0
M  V30 6736 H 624.744 3.6002 -3.51276 0
M  V30 6737 H 624.444 2.88743 -5.11763 0
M  V30 6738 H 625.968 3.76627 -4.80608 0
M  V30 6739 H 627.382 1.60467 -5.50385 0
M  V30 6740 H 625.779 0.936454 -5.92748 0
M  V30 6741 H 626.849 0.0227421 -4.84895 0
M  V30 6742 N 628.193 1.56834 0.155195 0
M  V30 6743 C 629.609 1.51315 0.50755 0
M  V30 6744 C 629.809 0.825614 1.83809 0
M  V30 6745 O 628.865 0.39271 2.49427 0
M  V30 6746 C 630.178 2.96074 0.52542 0
M  V30 6747 C 631.726 3.06968 0.611505 0
M  V30 6748 C 632.201 4.53218 0.660115 0
M  V30 6749 N 633.692 4.5753 0.722564 0
M  V30 6750 C 634.427 5.68056 0.781023 0
M  V30 6751 N 633.923 6.88173 0.799327 0
M  V30 6752 N 635.716 5.56068 0.821278 0
M  V30 6753 H 627.867 1.9993 -0.717063 0
M  V30 6754 H 630.13 0.911507 -0.260496 0
M  V30 6755 H 629.836 3.49599 -0.383875 0
M  V30 6756 H 629.71 3.51587 1.36624 0
M  V30 6757 H 632.097 2.53468 1.51122 0
M  V30 6758 H 632.178 2.54513 -0.256306 0
M  V30 6759 H 631.822 5.07354 -0.23541 0
M  V30 6760 H 631.752 5.03447 1.5443 0
M  V30 6761 H 634.243 3.71054 0.716049 0
M  V30 6762 H 634.556 7.6816 0.845553 0
M  V30 6763 H 632.901 6.90751 0.767337 0
M  V30 6764 H 636.092 4.61142 0.804091 0
M  V30 6765 H 636.265 6.42223 0.863372 0
M  V30 6766 N 629.671 -0.424282 1.51781 0
M  V30 6767 C 630.919 -1.17028 1.64769 0
M  V30 6768 C 631.24 -1.91409 0.372523 0
M  V30 6769 O 630.51 -1.86091 -0.612108 0
M  V30 6770 H 629.09 -0.434992 0.607282 0
M  V30 6771 H 631.752 -0.485169 1.88765 0
M  V30 6772 H 630.848 -1.8927 2.4816 0
M  V30 6773 N 631.149 -1.42148 -0.680565 0
M  V30 6774 C 632.059 -1.47565 -1.82378 0
M  V30 6775 C 633.075 -0.36489 -1.70131 0
M  V30 6776 O 634.251 -0.614916 -1.91783 0
M  V30 6777 C 631.316 -1.37013 -3.18478 0
M  V30 6778 C 630.377 -2.58532 -3.42724 0
M  V30 6779 C 629.61 -2.48473 -4.72331 0
M  V30 6780 O 629.833 -1.51745 -5.49845 0
M  V30 6781 O 628.767 -3.38503 -4.97694 0
M  V30 6782 H 632.593 -2.44045 -1.80764 0
M  V30 6783 H 630.178 -1.23849 -0.835569 0
M  V30 6784 H 632.06 -1.33468 -3.99705 0
M  V30 6785 H 630.735 -0.436552 -3.20743 0
M  V30 6786 H 629.642 -2.67652 -2.61368 0
M  V30 6787 H 630.975 -3.50769 -3.45286 0
M  V30 6788 N 632.627 0.916307 -1.28225 0
M  V30 6789 C 633.904 1.64429 -1.05936 0
M  V30 6790 C 634.284 2.07234 0.402139 0
M  V30 6791 O 633.632 1.81535 1.3877 0
M  V30 6792 C 633.842 2.83773 -2.03159 0
M  V30 6793 C 635.19 3.54852 -2.33164 0
M  V30 6794 O 636.214 2.93918 -2.01223 0
M  V30 6795 O 635.073 4.64663 -2.87664 0
M  V30 6796 H 632.167 0.721221 -0.404683 0
M  V30 6797 H 634.713 0.965838 -1.39534 0
M  V30 6798 H 633.485 2.49217 -3.01673 0
M  V30 6799 H 633.108 3.59333 -1.70192 0
M  V30 6800 N 634.105 1.10431 1.1244 0
M  V30 6801 C 635.335 0.867612 1.87499 0
M  V30 6802 C 635.743 -0.585475 1.79913 0
M  V30 6803 O 635.086 -1.41539 1.171 0
M  V30 6804 C 635.148 1.2374 3.37533 0
M  V30 6805 C 634.812 2.69751 3.68895 0
M  V30 6806 C 635.809 3.67988 3.67261 0
M  V30 6807 C 633.494 3.06135 3.98229 0
M  V30 6808 C 635.488 5.00632 3.9452 0
M  V30 6809 C 633.175 4.38967 4.25149 0
M  V30 6810 C 634.173 5.36025 4.23281 0
M  V30 6811 O 633.861 6.66465 4.49533 0
M  V30 6812 H 633.593 0.311196 0.600111 0
M  V30 6813 H 636.147 1.47257 1.43194 0
M  V30 6814 H 634.377 0.575537 3.82393 0
M  V30 6815 H 636.066 0.978187 3.93937 0
M  V30 6816 H 636.832 3.41224 3.44661 0
M  V30 6817 H 632.711 2.31214 3.98825 0
M  V30 6818 H 636.255 5.7638 3.92978 0
M  V30 6819 H 632.152 4.6547 4.47223 0
M  V30 6820 H 632.92 6.72095 4.67152 0
M  V30 6821 N 635.583 -1.29855 0.893053 0
M  V30 6822 C 636.831 -1.9544 0.514566 0
M  V30 6823 C 637.152 -1.70795 -0.940959 0
M  V30 6824 O 636.422 -1.03601 -1.66264 0
M  V30 6825 H 635.002 -0.723137 0.187302 0
M  V30 6826 H 637.664 -1.58234 1.13789 0
M  V30 6827 H 636.76 -3.04341 0.691581 0
M  V30 6828 N 637.061 -0.65484 -1.43351 0
M  V30 6829 C 638.308 -0.168892 -2.01794 0
M  V30 6830 C 638.636 1.2177 -1.51665 0
M  V30 6831 O 637.891 1.82717 -0.70092 0
M  V30 6832 C 638.19 -0.130424 -3.57162 0
M  V30 6833 C 637.856 -1.45898 -4.26643 0
M  V30 6834 C 636.518 -1.82279 -4.4534 0
M  V30 6835 C 638.87 -2.33485 -4.65976 0
M  V30 6836 C 636.198 -3.0591 -5.00635 0
M  V30 6837 C 638.55 -3.5641 -5.22642 0
M  V30 6838 C 637.214 -3.92985 -5.39555 0
M  V30 6839 H 636.484 -0.061802 -0.738418 0
M  V30 6840 H 639.131 -0.845869 -1.71806 0
M  V30 6841 H 637.436 0.630008 -3.86702 0
M  V30 6842 H 639.133 0.262465 -4.0014 0
M  V30 6843 H 635.723 -1.16591 -4.12437 0
M  V30 6844 H 639.907 -2.06668 -4.51223 0
M  V30 6845 H 635.163 -3.34295 -5.11915 0
M  V30 6846 H 639.337 -4.24495 -5.52066 0
M  V30 6847 H 636.964 -4.88862 -5.82167 0
M  V30 6848 N 638.539 1.52521 -0.396863 0
M  V30 6849 C 639.764 2.06571 0.185258 0
M  V30 6850 C 640.189 1.26605 1.39115 0
M  V30 6851 O 639.547 0.293055 1.78916 0
M  V30 6852 C 639.595 3.5674 0.526189 0
M  V30 6853 O 638.699 3.7929 1.61903 0
M  V30 6854 H 638.04 0.663712 0.0195474 0
M  V30 6855 H 640.57 1.966 -0.566519 0
M  V30 6856 H 640.58 4.00311 0.788338 0
M  V30 6857 H 639.255 4.14379 -0.355397 0
M  V30 6858 H 637.832 3.47605 1.35 0
M  V30 6859 N 640.017 0.126909 1.57088 0
M  V30 6860 C 641.263 -0.529952 1.95753 0
M  V30 6861 C 641.596 -1.65823 1.01077 0
M  V30 6862 O 640.871 -1.94437 0.0494162 0
M  V30 6863 C 641.154 -1.05517 3.44294 0
M  V30 6864 C 641.007 0.0702253 4.49745 0
M  V30 6865 C 642.326 -1.9435 3.94862 0
M  V30 6866 H 639.445 -0.191168 0.711775 0
M  V30 6867 H 642.087 0.204071 1.88901 0
M  V30 6868 H 640.237 -1.68069 3.50264 0
M  V30 6869 H 641.909 0.705834 4.55868 0
M  V30 6870 H 640.152 0.732259 4.27575 0
M  V30 6871 H 640.823 -0.338642 5.5096 0
M  V30 6872 H 643.299 -1.41658 3.91244 0
M  V30 6873 H 642.175 -2.28015 4.993 0
M  V30 6874 H 642.436 -2.87299 3.36024 0
M  V30 6875 N 641.495 -1.56914 -0.146875 0
M  V30 6876 C 642.772 -1.74273 -0.888165 0
M  V30 6877 C 643.152 -0.69496 -1.99333 0
M  V30 6878 O 642.5 0.286093 -2.26702 0
M  V30 6879 C 642.71 -3.18336 -1.43051 0
M  V30 6880 C 644.058 -3.80024 -1.89387 0
M  V30 6881 O 645.082 -3.21765 -1.52792 0
M  V30 6882 O 643.941 -4.82367 -2.56874 0
M  V30 6883 H 641.035 -0.712565 -0.419738 0
M  V30 6884 H 643.581 -1.6918 -0.132791 0
M  V30 6885 H 642.353 -3.86092 -0.636274 0
M  V30 6886 H 641.976 -3.27854 -2.24938 0
M  V30 6887 N 642.974 0.416227 -1.52004 0
M  V30 6888 C 644.22 1.16233 -1.66917 0
M  V30 6889 C 644.575 1.8839 -0.390763 0
M  V30 6890 O 643.868 1.81479 0.614478 0
M  V30 6891 C 644.062 2.18923 -2.82502 0
M  V30 6892 C 643.891 1.56849 -4.2146 0
M  V30 6893 C 642.661 1.34426 -4.87091 0
M  V30 6894 C 644.859 1.03322 -5.03815 0
M  V30 6895 N 642.841 0.681703 -6.10103 0
M  V30 6896 C 644.212 0.497165 -6.18003 0
M  V30 6897 C 646.267 0.926997 -4.89194 0
M  V30 6898 C 644.97 -0.134687 -7.19174 0
M  V30 6899 C 646.996 0.309009 -5.90592 0
M  V30 6900 C 646.358 -0.216399 -7.04068 0
M  V30 6901 H 642.457 0.412252 -0.664509 0
M  V30 6902 H 645.041 0.455758 -1.89291 0
M  V30 6903 H 643.212 2.86946 -2.61756 0
M  V30 6904 H 644.944 2.85844 -2.86488 0
M  V30 6905 H 641.699 1.61183 -4.45328 0
M  V30 6906 H 642.123 0.367256 -6.76003 0
M  V30 6907 H 646.765 1.31904 -4.01698 0
M  V30 6908 H 644.483 -0.538811 -8.06302 0
M  V30 6909 H 648.069 0.228438 -5.81351 0
M  V30 6910 H 646.949 -0.687064 -7.81184 0
M  V30 6911 N 644.452 1.42507 0.673017 0
M  V30 6912 C 645.698 1.44282 1.43367 0
M  V30 6913 C 646.053 0.0588239 1.9231 0
M  V30 6914 O 645.346 -0.919288 1.68106 0
M  V30 6915 C 645.54 2.40351 2.64511 0
M  V30 6916 C 645.369 3.87955 2.27423 0
M  V30 6917 C 644.139 4.56476 2.16697 0
M  V30 6918 C 646.337 4.7833 1.88957 0
M  V30 6919 N 644.319 5.89099 1.72731 0
M  V30 6920 C 645.69 6.00073 1.55923 0
M  V30 6921 C 647.745 4.65769 1.75965 0
M  V30 6922 C 646.448 7.10652 1.112 0
M  V30 6923 C 648.474 5.76332 1.32647 0
M  V30 6924 C 647.836 6.97188 1.00538 0
M  V30 6925 H 643.935 0.583134 0.521036 0
M  V30 6926 H 646.519 1.78547 0.776481 0
M  V30 6927 H 644.69 2.08145 3.27918 0
M  V30 6928 H 646.422 2.32694 3.31113 0
M  V30 6929 H 643.177 4.10712 2.35823 0
M  V30 6930 H 643.601 6.59446 1.53166 0
M  V30 6931 H 648.243 3.72808 1.99435 0
M  V30 6932 H 645.961 8.0346 0.864768 0
M  V30 6933 H 649.547 5.68625 1.23112 0
M  V30 6934 H 648.427 7.81287 0.675283 0
M  V30 6935 N 645.93 -0.909495 1.28709 0
M  V30 6936 C 646.893 -1.99399 1.13016 0
M  V30 6937 C 647.893 -1.60654 0.068536 0
M  V30 6938 O 649.083 -1.71334 0.314671 0
M  V30 6939 C 646.215 -3.33078 0.726085 0
M  V30 6940 H 647.408 -2.14751 2.09338 0
M  V30 6941 H 644.961 -1.09272 1.11756 0
M  V30 6942 H 645.696 -3.23428 -0.23771 0
M  V30 6943 H 645.481 -3.62562 1.49302 0
M  V30 6944 H 646.971 -4.12681 0.639058 0
M  V30 6945 N 647.408 -1.11026 -1.11852 0
M  V30 6946 C 648.338 -0.786812 -2.19844 0
M  V30 6947 C 649.319 0.242935 -1.68356 0
M  V30 6948 O 650.504 0.107355 -1.93903 0
M  V30 6949 C 647.634 -0.224516 -3.46574 0
M  V30 6950 C 646.588 -1.18564 -4.1125 0
M  V30 6951 C 645.914 -0.484261 -5.32503 0
M  V30 6952 C 647.214 -2.53465 -4.56676 0
M  V30 6953 H 648.908 -1.68978 -2.47158 0
M  V30 6954 H 646.454 -0.813906 -1.18792 0
M  V30 6955 H 648.407 0.0139435 -4.21398 0
M  V30 6956 H 647.131 0.713722 -3.18706 0
M  V30 6957 H 645.79 -1.40966 -3.38414 0
M  V30 6958 H 645.438 0.458646 -5.00905 0
M  V30 6959 H 645.138 -1.12526 -5.76725 0
M  V30 6960 H 646.662 -0.254492 -6.10069 0
M  V30 6961 H 648.076 -2.35177 -5.22843 0
M  V30 6962 H 646.473 -3.13507 -5.11697 0
M  V30 6963 H 647.543 -3.13008 -3.70343 0
M  V30 6964 N 648.886 1.2938 -0.899927 0
M  V30 6965 C 650.134 1.95164 -0.524924 0
M  V30 6966 C 650.455 1.71292 0.931888 0
M  V30 6967 O 649.725 1.04481 1.65712 0
M  V30 6968 H 648.305 0.722133 -0.191135 0
M  V30 6969 H 650.967 1.57628 -1.14627 0
M  V30 6970 H 650.063 3.0397 -0.707711 0
M  V30 6971 N 650.364 0.662433 1.43002 0
M  V30 6972 C 651.61 0.179857 2.02001 0
M  V30 6973 C 651.943 -1.20625 1.52195 0
M  V30 6974 O 651.218 -1.80726 0.718911 0
M  V30 6975 C 651.501 0.200845 3.59539 0
M  V30 6976 C 651.354 1.62153 4.19555 0
M  V30 6977 C 652.673 -0.457738 4.37713 0
M  V30 6978 H 649.792 0.0668305 0.733964 0
M  V30 6979 H 652.434 0.84487 1.70182 0
M  V30 6980 H 650.584 -0.365411 3.86778 0
M  V30 6981 H 652.256 2.23908 4.03315 0
M  V30 6982 H 650.499 2.16601 3.75854 0
M  V30 6983 H 651.17 1.58799 5.28665 0
M  V30 6984 H 653.646 0.0241495 4.16093 0
M  V30 6985 H 652.522 -0.412363 5.47349 0
M  V30 6986 H 652.783 -1.53336 4.14657 0
M  V30 6987 N 651.842 -1.52309 0.404946 0
M  V30 6988 C 652.772 -2.29805 -0.41376 0
M  V30 6989 C 653.753 -1.3384 -1.0498 0
M  V30 6990 O 654.938 -1.62745 -1.05961 0
M  V30 6991 C 652.068 -3.11639 -1.53292 0
M  V30 6992 C 651.022 -4.15616 -1.02211 0
M  V30 6993 C 650.348 -4.8577 -2.23455 0
M  V30 6994 C 651.648 -5.2224 -0.0790725 0
M  V30 6995 H 653.342 -2.98493 0.232878 0
M  V30 6996 H 650.888 -1.43552 0.113441 0
M  V30 6997 H 652.841 -3.64618 -2.11262 0
M  V30 6998 H 651.565 -2.40712 -2.20738 0
M  V30 6999 H 650.224 -3.63641 -0.46484 0
M  V30 7000 H 649.872 -4.11376 -2.89445 0
M  V30 7001 H 649.572 -5.56058 -1.89929 0
M  V30 7002 H 651.096 -5.4156 -2.82038 0
M  V30 7003 H 652.51 -5.70485 -0.567438 0
M  V30 7004 H 650.907 -5.99867 0.167167 0
M  V30 7005 H 651.977 -4.77078 0.867447 0
M  V30 7006 N 653.32 -0.135238 -1.57019 0
M  V30 7007 C 654.253 0.846618 -2.11914 0
M  V30 7008 C 655.231 1.25019 -1.03966 0
M  V30 7009 O 656.415 1.34838 -1.31723 0
M  V30 7010 C 653.542 2.1352 -2.6292 0
M  V30 7011 C 652.588 1.87846 -3.82905 0
M  V30 7012 S 653.421 1.08005 -5.24495 0
M  V30 7013 C 654.577 2.38008 -5.78881 0
M  V30 7014 H 654.81 0.379752 -2.94865 0
M  V30 7015 H 652.343 0.0788387 -1.54199 0
M  V30 7016 H 654.301 2.87551 -2.92958 0
M  V30 7017 H 652.962 2.57323 -1.80121 0
M  V30 7018 H 652.155 2.83365 -4.16797 0
M  V30 7019 H 651.757 1.21929 -3.53567 0
M  V30 7020 H 654.049 3.33742 -5.89595 0
M  V30 7021 H 654.992 2.08638 -6.76665 0
M  V30 7022 H 655.4 2.48119 -5.07048 0
M  V30 7023 N 654.798 1.5699 0.138552 0
M  V30 7024 C 656.045 1.83809 0.849732 0
M  V30 7025 C 656.373 0.717409 1.80786 0
M  V30 7026 O 655.628 -0.292897 1.93496 0
M  V30 7027 C 655.927 3.17007 1.65049 0
M  V30 7028 C 655.593 4.43037 0.838398 0
M  V30 7029 C 654.255 4.77262 0.614385 0
M  V30 7030 C 656.607 5.20495 0.271044 0
M  V30 7031 C 653.935 5.864 -0.187552 0
M  V30 7032 C 656.287 6.30476 -0.517979 0
M  V30 7033 C 654.951 6.63245 -0.75249 0
M  V30 7034 H 654.221 0.672605 0.310939 0
M  V30 7035 H 656.868 1.91166 0.112971 0
M  V30 7036 H 655.173 3.05138 2.4576 0
M  V30 7037 H 656.87 3.34975 2.20437 0
M  V30 7038 H 653.46 4.16211 1.02307 0
M  V30 7039 H 657.644 4.94422 0.431371 0
M  V30 7040 H 652.9 6.10226 -0.378659 0
M  V30 7041 H 657.074 6.89686 -0.964694 0
M  V30 7042 H 654.701 7.47648 -1.37573 0
M  V30 7043 N 656.276 -0.40816 1.52223 0
M  V30 7044 C 657.186 -1.52202 1.78526 0
M  V30 7045 C 658.202 -1.60546 0.670892 0
M  V30 7046 O 659.378 -1.77242 0.956404 0
M  V30 7047 C 656.443 -2.87928 1.93128 0
M  V30 7048 C 655.504 -2.89463 3.17033 0
M  V30 7049 C 654.737 -4.18715 3.30929 0
M  V30 7050 O 654.96 -5.12662 2.50067 0
M  V30 7051 O 653.894 -4.27125 4.24084 0
M  V30 7052 H 657.72 -1.32911 2.73072 0
M  V30 7053 H 655.305 -0.594112 1.37079 0
M  V30 7054 H 657.187 -3.68426 2.04549 0
M  V30 7055 H 655.862 -3.07285 1.01772 0
M  V30 7056 H 654.769 -2.07815 3.11069 0
M  V30 7057 H 656.102 -2.75055 4.08174 0
M  V30 7058 N 657.755 -1.42862 -0.66545 0
M  V30 7059 C 658.688 -1.41509 -1.79026 0
M  V30 7060 C 659.666 -0.278106 -1.60204 0
M  V30 7061 O 660.85 -0.469792 -1.82552 0
M  V30 7062 C 657.977 -1.21494 -3.1616 0
M  V30 7063 C 657.023 -2.38308 -3.53711 0
M  V30 7064 S 657.856 -4.00852 -3.55075 0
M  V30 7065 C 659.012 -3.83197 -4.94885 0
M  V30 7066 H 659.245 -2.36691 -1.79902 0
M  V30 7067 H 656.778 -1.29746 -0.836977 0
M  V30 7068 H 658.736 -1.10633 -3.95311 0
M  V30 7069 H 657.397 -0.27881 -3.1286 0
M  V30 7070 H 656.59 -2.20076 -4.53412 0
M  V30 7071 H 656.192 -2.45732 -2.81943 0
M  V30 7072 H 658.484 -3.44765 -5.83218 0
M  V30 7073 H 659.427 -4.82607 -5.18166 0
M  V30 7074 H 659.835 -3.15884 -4.67843 0
M  V30 7075 N 659.233 0.902656 -1.29189 0
M  V30 7076 C 660.166 2.00816 -1.0839 0
M  V30 7077 C 661.144 1.626 0.00335266 0
M  V30 7078 O 662.328 1.87928 -0.146765 0
M  V30 7079 C 659.455 3.32415 -0.649435 0
M  V30 7080 C 658.501 3.89617 -1.73496 0
M  V30 7081 S 659.334 4.19091 -3.33351 0
M  V30 7082 C 660.49 5.53736 -2.91766 0
M  V30 7083 H 660.723 2.18151 -2.01984 0
M  V30 7084 H 658.256 1.0489 -1.13303 0
M  V30 7085 H 660.214 4.08492 -0.405479 0
M  V30 7086 H 658.875 3.12964 0.266857 0
M  V30 7087 H 658.068 4.84658 -1.38284 0
M  V30 7088 H 657.67 3.20217 -1.93229 0
M  V30 7089 H 659.962 6.34085 -2.38627 0
M  V30 7090 H 660.905 5.93871 -3.85647 0
M  V30 7091 H 661.313 5.15453 -2.30149 0
M  V30 7092 N 660.711 1.11618 1.11262 0
M  V30 7093 C 661.674 0.779447 2.15539 0
M  V30 7094 C 662.674 -0.202081 1.59525 0
M  V30 7095 O 663.864 0.0226356 1.74185 0
M  V30 7096 C 660.996 0.15674 3.40539 0
M  V30 7097 H 662.189 1.70324 2.4684 0
M  V30 7098 H 659.742 0.918298 1.26479 0
M  V30 7099 H 660.477 -0.777186 3.1485 0
M  V30 7100 H 660.262 0.863308 3.82478 0
M  V30 7101 H 661.752 -0.062661 4.17553 0
M  V30 7102 N 662.189 -1.289 0.906776 0
M  V30 7103 C 663.437 -1.94883 0.535266 0
M  V30 7104 C 663.758 -1.71784 -0.922791 0
M  V30 7105 O 663.028 -1.05359 -1.65156 0
M  V30 7106 H 661.608 -0.721109 0.194962 0
M  V30 7107 H 664.27 -1.57018 1.15461 0
M  V30 7108 H 663.366 -3.03591 0.723821 0
M  V30 7109 N 663.667 -0.670007 -1.42649 0
M  V30 7110 C 665.083 -0.33911 -1.55956 0
M  V30 7111 C 665.283 1.1558 -1.65056 0
M  V30 7112 O 664.339 1.94111 -1.61485 0
M  V30 7113 C 665.652 -1.06522 -2.812 0
M  V30 7114 C 667.2 -1.04708 -2.94966 0
M  V30 7115 C 667.675 -1.75442 -4.23065 0
M  V30 7116 N 669.166 -1.72286 -4.29967 0
M  V30 7117 C 669.901 -2.23877 -5.27889 0
M  V30 7118 N 669.397 -2.83829 -6.31991 0
M  V30 7119 N 671.19 -2.14279 -5.19654 0
M  V30 7120 H 663.341 -1.6399 -1.34986 0
M  V30 7121 H 665.604 -0.690603 -0.649439 0
M  V30 7122 H 665.31 -2.12033 -2.80597 0
M  V30 7123 H 665.184 -0.627398 -3.71946 0
M  V30 7124 H 667.571 -0.000315966 -2.951 0
M  V30 7125 H 667.652 -1.52374 -2.05465 0
M  V30 7126 H 667.296 -2.80084 -4.23693 0
M  V30 7127 H 667.226 -1.25229 -5.11493 0
M  V30 7128 H 669.717 -1.28554 -3.55362 0
M  V30 7129 H 670.03 -3.20827 -7.03057 0
M  V30 7130 H 668.375 -2.87896 -6.32567 0
M  V30 7131 H 671.566 -1.67135 -4.37245 0
M  V30 7132 H 671.739 -2.54792 -5.95806 0
M  V30 7133 N 665.145 1.52092 -0.413018 0
M  V30 7134 C 666.37 2.06756 0.163338 0
M  V30 7135 C 666.795 1.28073 1.37764 0
M  V30 7136 O 666.153 0.312015 1.78595 0
M  V30 7137 C 666.201 3.57278 0.488322 0
M  V30 7138 O 665.305 3.80986 1.57871 0
M  V30 7139 H 664.646 0.663882 0.0125068 0
M  V30 7140 H 667.176 1.95988 -0.587339 0
M  V30 7141 H 667.186 4.01125 0.745836 0
M  V30 7142 H 665.861 4.13978 -0.399327 0
M  V30 7143 H 664.438 3.49017 1.31306 0
M  V30 7144 N 666.623 0.143563 1.56945 0
M  V30 7145 C 668.034 -0.37783 1.82837 0
M  V30 7146 C 668.385 -1.64967 1.06209 0
M  V30 7147 O 667.51 -2.14221 0.306291 0
M  V30 7148 C 668.105 -0.692274 3.31652 0
M  V30 7149 C 666.664 -1.1582 3.58138 0
M  V30 7150 C 665.811 -0.17951 2.76718 0
M  V30 7151 H 668.762 0.368317 1.54367 0
M  V30 7152 H 668.783 -1.54729 3.47619 0
M  V30 7153 H 668.295 0.233572 3.87397 0
M  V30 7154 H 666.396 -2.10011 3.07776 0
M  V30 7155 H 666.509 -1.08655 4.66616 0
M  V30 7156 H 664.873 -0.671458 2.4569 0
M  V30 7157 H 665.656 0.739865 3.35233 0
M  V30 7158 N 668.101 -1.57061 -0.130224 0
M  V30 7159 C 669.348 -1.84257 -0.839972 0
M  V30 7160 C 669.676 -0.726986 -1.80403 0
M  V30 7161 O 668.931 0.282632 -1.93648 0
M  V30 7162 C 669.23 -3.17878 -1.63365 0
M  V30 7163 C 668.896 -4.43475 -0.814891 0
M  V30 7164 C 667.558 -4.77581 -0.589066 0
M  V30 7165 C 669.91 -5.20631 -0.243437 0
M  V30 7166 C 667.238 -5.86292 0.218648 0
M  V30 7167 C 669.59 -6.30192 0.551408 0
M  V30 7168 C 668.254 -6.62837 0.787653 0
M  V30 7169 H 667.524 -0.674245 -0.307367 0
M  V30 7170 H 670.171 -1.91224 -0.102832 0
M  V30 7171 H 668.476 -3.06437 -2.44138 0
M  V30 7172 H 670.173 -3.3614 -2.18658 0
M  V30 7173 H 666.763 -4.16747 -1.00098 0
M  V30 7174 H 670.947 -4.94644 -0.405145 0
M  V30 7175 H 666.203 -6.10017 0.411016 0
M  V30 7176 H 670.377 -6.89165 1.00126 0
M  V30 7177 H 668.004 -7.46908 1.41537 0
M  V30 7178 N 669.579 0.400081 -1.52437 0
M  V30 7179 C 670.856 1.15973 -1.57511 0
M  V30 7180 C 671.236 2.0798 -0.361572 0
M  V30 7181 O 670.584 2.19032 0.650929 0
M  V30 7182 C 670.794 1.92912 -2.90837 0
M  V30 7183 C 672.142 2.48662 -3.44169 0
M  V30 7184 O 673.166 2.03081 -2.92637 0
M  V30 7185 O 672.025 3.31894 -4.34176 0
M  V30 7186 H 669.119 0.530023 -0.634827 0
M  V30 7187 H 671.665 0.40613 -1.64769 0
M  V30 7188 H 670.437 1.25564 -3.70607 0
M  V30 7189 H 670.06 2.75257 -2.86913 0
M  V30 7190 N 671.057 1.43213 0.657864 0
M  V30 7191 C 672.306 1.43871 1.41365 0
M  V30 7192 C 672.619 0.064898 1.95492 0
M  V30 7193 O 673.825 -0.0510796 2.71452 0
M  V30 7194 C 672.281 2.53158 2.55811 0
M  V30 7195 C 671.889 3.96624 2.08311 0
M  V30 7196 C 673.633 2.63004 3.3321 0
M  V30 7197 C 671.54 4.97385 3.1994 0
M  V30 7198 H 670.47 0.535174 0.531136 0
M  V30 7199 H 673.121 1.69185 0.710543 0
M  V30 7200 H 671.503 2.21037 3.2857 0
M  V30 7201 H 672.677 4.38182 1.42593 0
M  V30 7202 H 670.992 3.90781 1.43804 0
M  V30 7203 H 673.589 3.3546 4.16378 0
M  V30 7204 H 673.932 1.67918 3.80932 0
M  V30 7205 H 674.465 2.94403 2.67529 0
M  V30 7206 H 671.204 5.94007 2.77192 0
M  V30 7207 H 670.724 4.60444 3.84385 0
M  V30 7208 H 672.403 5.19877 3.85145 0
M  V30 7209 N 672.536 -0.895792 1.29666 0
M  V30 7210 C 673.782 -1.64908 1.18039 0
M  V30 7211 C 674.115 -1.9236 -0.266682 0
M  V30 7212 O 673.39 -1.53682 -1.19214 0
M  V30 7213 C 673.673 -2.99574 1.99819 0
M  V30 7214 C 673.526 -2.79163 3.52687 0
M  V30 7215 C 674.845 -4.00358 1.82761 0
M  V30 7216 H 671.964 -0.598437 0.430165 0
M  V30 7217 H 674.606 -1.03736 1.59182 0
M  V30 7218 H 672.756 -3.51786 1.64859 0
M  V30 7219 H 674.428 -2.33821 3.9765 0
M  V30 7220 H 672.671 -2.13871 3.77414 0
M  V30 7221 H 673.342 -3.74871 4.05186 0
M  V30 7222 H 675.818 -3.57268 2.13304 0
M  V30 7223 H 674.694 -4.92514 2.42325 0
M  V30 7224 H 674.955 -4.35096 0.783839 0
M  V30 7225 N 674.014 -1.12206 -1.10668 0
M  V30 7226 C 675.262 -0.874144 -1.82217 0
M  V30 7227 C 675.583 0.601736 -1.85484 0
M  V30 7228 O 674.853 1.43725 -1.33116 0
M  V30 7229 H 673.433 -0.320404 -0.674797 0
M  V30 7230 H 676.095 -1.41606 -1.33917 0
M  V30 7231 H 675.191 -1.25349 -2.85822 0
M  V30 7232 N 675.492 1.28418 -0.913599 0
M  V30 7233 C 676.717 1.99643 -0.561899 0
M  V30 7234 C 677.142 1.67819 0.849608 0
M  V30 7235 O 676.5 0.910503 1.56779 0
M  V30 7236 C 676.548 3.52116 -0.777622 0
M  V30 7237 O 675.652 4.12076 0.163457 0
M  V30 7238 H 674.993 0.627229 -0.217898 0
M  V30 7239 H 677.523 1.63575 -1.229 0
M  V30 7240 H 677.533 4.02163 -0.687666 0
M  V30 7241 H 676.208 3.74613 -1.8066 0
M  V30 7242 H 674.785 3.72892 0.0247827 0
M  V30 7243 N 676.97 0.677563 1.42291 0
M  V30 7244 C 678.195 0.207901 2.06355 0
M  V30 7245 C 678.62 -1.12723 1.50583 0
M  V30 7246 O 677.978 -1.70171 0.62543 0
M  V30 7247 C 678.026 0.156489 3.6026 0
M  V30 7248 O 677.13 -0.874162 4.03029 0
M  V30 7249 H 676.471 0.106056 0.655475 0
M  V30 7250 H 679.001 0.927354 1.82377 0
M  V30 7251 H 679.011 -0.0187258 4.07996 0
M  V30 7252 H 677.686 1.13101 4.00226 0
M  V30 7253 H 676.263 -0.669764 3.66836 0
M  V30 7254 N 678.448 -1.51871 0.421078 0
M  V30 7255 C 679.725 -1.9447 -0.20993 0
M  V30 7256 C 680.105 -1.35875 -1.61558 0
M  V30 7257 O 679.453 -0.539294 -2.22045 0
M  V30 7258 C 679.663 -3.48402 -0.204165 0
M  V30 7259 C 681.011 -4.2254 -0.417696 0
M  V30 7260 O 682.035 -3.55074 -0.282999 0
M  V30 7261 O 680.894 -5.422 -0.684239 0
M  V30 7262 H 677.988 -0.815283 -0.138718 0
M  V30 7263 H 680.534 -1.62832 0.477884 0
M  V30 7264 H 679.306 -3.83464 0.779183 0
M  V30 7265 H 678.929 -3.86436 -0.935576 0
M  V30 7266 N 679.926 -0.151884 -1.56866 0
M  V30 7267 C 680.874 0.80299 -2.183 0
M  V30 7268 C 681.868 1.25174 -1.14139 0
M  V30 7269 O 683.074 1.21966 -1.3238 0
M  V30 7270 H 679.449 0.277169 -0.699057 0
M  V30 7271 H 681.42 0.260699 -2.97259 0
M  V30 7272 C 680.169 2.03009 -2.82281 0
M  V30 7273 H 679.492 1.69377 -3.62148 0
M  V30 7274 H 680.932 2.67753 -3.28762 0
M  V30 7275 C 679.391 2.84123 -1.81041 0
M  V30 7276 O 679.921 3.8063 -1.28388 0
M  V30 7277 N 678.127 2.48753 -1.50234 0
M  V30 7278 H 677.674 1.70337 -1.93244 0
M  V30 7279 H 677.632 3.03316 -0.827445 0
M  V30 7280 N 681.404 1.57128 0.121893 0
M  V30 7281 C 682.815 1.73902 0.679348 0
M  V30 7282 C 683.166 0.770135 1.80453 0
M  V30 7283 O 682.291 -0.0576083 2.16323 0
M  V30 7284 C 682.886 3.15328 1.2391 0
M  V30 7285 C 681.445 3.33618 1.74288 0
M  V30 7286 C 680.592 2.6978 0.641414 0
M  V30 7287 H 683.543 1.58359 -0.104 0
M  V30 7288 H 683.564 3.16718 2.10879 0
M  V30 7289 H 683.076 3.85821 0.419957 0
M  V30 7290 H 681.177 2.68162 2.58689 0
M  V30 7291 H 681.29 4.4176 1.85432 0
M  V30 7292 H 679.654 2.30935 1.0743 0
M  V30 7293 H 680.437 3.42895 -0.166707 0
M  V30 7294 N 682.882 -0.391992 1.52647 0
M  V30 7295 C 684.159 -1.15136 1.58123 0
M  V30 7296 C 684.539 -2.07786 0.372597 0
M  V30 7297 O 683.887 -2.19374 -0.639304 0
M  V30 7298 C 684.097 -1.91367 2.91856 0
M  V30 7299 C 685.445 -2.46833 3.45483 0
M  V30 7300 O 686.469 -2.01527 2.9371 0
M  V30 7301 O 685.328 -3.29587 4.3593 0
M  V30 7302 H 682.422 -0.526649 0.637629 0
M  V30 7303 H 684.968 -0.397386 1.64982 0
M  V30 7304 H 683.74 -1.23597 3.71268 0
M  V30 7305 H 683.363 -2.73732 2.88369 0
M  V30 7306 N 684.36 -1.4356 -0.65026 0
M  V30 7307 C 685.292 -1.44918 -1.77571 0
M  V30 7308 C 686.305 -0.344925 -1.59104 0
M  V30 7309 O 687.494 -0.609537 -1.6777 0
M  V30 7310 C 684.594 -1.24914 -3.15039 0
M  V30 7311 C 683.767 -2.48232 -3.60138 0
M  V30 7312 C 682.826 -2.23409 -4.76419 0
M  V30 7313 O 681.852 -2.9678 -4.85706 0
M  V30 7314 N 683.054 -1.25259 -5.66825 0
M  V30 7315 H 685.819 -2.41935 -1.76883 0
M  V30 7316 H 683.38 -1.38754 -0.834202 0
M  V30 7317 H 685.372 -1.06185 -3.90521 0
M  V30 7318 H 683.942 -0.363319 -3.10481 0
M  V30 7319 H 683.162 -2.82366 -2.75069 0
M  V30 7320 H 684.45 -3.30296 -3.87017 0
M  V30 7321 H 683.848 -0.646246 -5.61997 0
M  V30 7322 H 682.405 -1.12513 -6.42016 0
M  V30 7323 N 685.838 0.888903 -1.30139 0
M  V30 7324 C 686.786 2.0156 -1.16088 0
M  V30 7325 C 687.78 1.69239 -0.0737413 0
M  V30 7326 O 688.986 1.78468 -0.234313 0
M  V30 7327 H 685.361 0.660825 -0.358907 0
M  V30 7328 H 687.332 2.10547 -2.11453 0
M  V30 7329 C 686.081 3.36758 -0.865426 0
M  V30 7330 H 685.404 3.62137 -1.69402 0
M  V30 7331 H 686.844 4.16246 -0.807192 0
M  V30 7332 C 685.303 3.34124 0.431577 0
M  V30 7333 O 685.833 3.7445 1.45431 0
M  V30 7334 N 684.039 2.87229 0.441321 0
M  V30 7335 H 683.586 2.54609 -0.391433 0
M  V30 7336 H 683.544 2.8585 1.30909 0
M  V30 7337 N 687.317 1.12792 1.10072 0
M  V30 7338 C 688.545 0.908506 1.85886 0
M  V30 7339 C 688.96 -0.542408 1.80841 0
M  V30 7340 O 688.317 -1.37517 1.1998 0
M  V30 7341 C 688.368 1.37973 3.34134 0
M  V30 7342 O 688.089 2.77378 3.39106 0
M  V30 7343 C 689.59 1.1978 4.26811 0
M  V30 7344 H 686.81 0.3244 0.587372 0
M  V30 7345 H 689.354 1.49882 1.39125 0
M  V30 7346 H 687.509 0.832566 3.78348 0
M  V30 7347 H 687.923 2.98144 4.31521 0
M  V30 7348 H 689.397 1.57635 5.29014 0
M  V30 7349 H 689.874 0.138768 4.38981 0
M  V30 7350 H 690.48 1.73266 3.88406 0
M  V30 7351 N 688.795 -1.27931 0.920396 0
M  V30 7352 C 689.705 -2.30824 0.419212 0
M  V30 7353 C 690.721 -1.66767 -0.496461 0
M  V30 7354 O 691.897 -1.97763 -0.38104 0
M  V30 7355 C 688.962 -3.45158 -0.326601 0
M  V30 7356 C 688.023 -4.24754 0.623098 0
M  V30 7357 C 687.256 -5.33629 -0.0872172 0
M  V30 7358 O 687.479 -5.55204 -1.30784 0
M  V30 7359 O 686.413 -5.99091 0.580875 0
M  V30 7360 H 690.239 -2.75716 1.27337 0
M  V30 7361 H 687.824 -1.32747 0.685465 0
M  V30 7362 H 689.706 -4.14716 -0.747559 0
M  V30 7363 H 688.381 -3.02336 -1.15648 0
M  V30 7364 H 687.288 -3.57759 1.09359 0
M  V30 7365 H 688.621 -4.71272 1.41998 0
M  V30 7366 N 690.273 -0.685099 -1.4193 0
M  V30 7367 C 691.55 -0.140152 -1.95097 0
M  V30 7368 C 691.93 1.34745 -1.62502 0
M  V30 7369 O 691.278 2.08872 -0.926534 0
M  V30 7370 C 691.488 -0.420268 -3.4646 0
M  V30 7371 C 692.836 -0.342338 -4.23218 0
M  V30 7372 O 693.86 -0.354592 -3.54431 0
M  V30 7373 O 692.719 -0.293404 -5.45712 0
M  V30 7374 H 689.813 -0.00885998 -0.826953 0
M  V30 7375 H 692.359 -0.760539 -1.51703 0
M  V30 7376 H 691.131 -1.45037 -3.63428 0
M  V30 7377 H 690.754 0.231616 -3.96925 0
M  V30 7378 N 691.751 1.51645 -0.429126 0
M  V30 7379 C 692.981 2.06133 0.138793 0
M  V30 7380 C 693.389 1.29735 1.37716 0
M  V30 7381 O 692.732 0.347955 1.80375 0
M  V30 7382 C 692.794 3.55504 0.534493 0
M  V30 7383 C 692.458 4.53098 -0.595917 0
M  V30 7384 C 693.455 4.98815 -1.46558 0
M  V30 7385 C 691.14 4.96296 -0.774309 0
M  V30 7386 C 693.134 5.86394 -2.4984 0
M  V30 7387 C 690.821 5.83667 -1.81042 0
M  V30 7388 C 691.819 6.28613 -2.67086 0
M  V30 7389 O 691.507 7.14251 -3.68919 0
M  V30 7390 H 691.239 0.675833 0.0150263 0
M  V30 7391 H 693.793 1.96301 -0.604584 0
M  V30 7392 H 692.023 3.63092 1.33045 0
M  V30 7393 H 693.712 3.92545 1.03262 0
M  V30 7394 H 694.478 4.66143 -1.33925 0
M  V30 7395 H 690.357 4.60859 -0.114178 0
M  V30 7396 H 693.901 6.21398 -3.17034 0
M  V30 7397 H 689.798 6.15753 -1.93698 0
M  V30 7398 H 690.566 7.3241 -3.65402 0
M  V30 7399 N 693.229 0.160201 1.56784 0
M  V30 7400 C 694.159 -0.770264 2.2043 0
M  V30 7401 C 695.14 -1.24736 1.15651 0
M  V30 7402 O 696.325 -1.30253 1.44041 0
M  V30 7403 C 693.455 -2.00427 2.83631 0
M  V30 7404 C 692.409 -1.66345 3.94352 0
M  V30 7405 C 691.735 -2.97119 4.4455 0
M  V30 7406 C 693.035 -0.899972 5.14488 0
M  V30 7407 H 694.729 -0.239783 2.98438 0
M  V30 7408 H 692.275 -0.113891 1.43549 0
M  V30 7409 H 694.228 -2.66012 3.26827 0
M  V30 7410 H 692.952 -2.5587 2.02973 0
M  V30 7411 H 691.611 -1.03133 3.51794 0
M  V30 7412 H 691.259 -3.5058 3.60698 0
M  V30 7413 H 690.959 -2.75073 5.19238 0
M  V30 7414 H 692.483 -3.63753 4.90425 0
M  V30 7415 H 693.897 -1.45818 5.54446 0
M  V30 7416 H 692.294 -0.778968 5.95023 0
M  V30 7417 H 693.364 0.105827 4.84785 0
M  V30 7418 N 694.707 -1.5719 -0.113559 0
M  V30 7419 C 695.954 -1.85138 -0.820382 0
M  V30 7420 C 696.282 -0.74608 -1.79622 0
M  V30 7421 O 695.537 0.262077 -1.93937 0
M  V30 7422 C 695.836 -3.19593 -1.59984 0
M  V30 7423 C 695.502 -4.44315 -0.767809 0
M  V30 7424 C 694.164 -4.78179 -0.538379 0
M  V30 7425 C 696.516 -5.2086 -0.188203 0
M  V30 7426 C 693.844 -5.86028 0.28082 0
M  V30 7427 C 696.196 -6.29572 0.618217 0
M  V30 7428 C 694.86 -6.61964 0.857912 0
M  V30 7429 H 694.13 -0.677467 -0.300199 0
M  V30 7430 H 696.777 -1.91322 -0.0825443 0
M  V30 7431 H 695.082 -3.0901 -2.40874 0
M  V30 7432 H 696.779 -3.3844 -2.1508 0
M  V30 7433 H 693.369 -4.17786 -0.956724 0
M  V30 7434 H 697.553 -4.95045 -0.352658 0
M  V30 7435 H 692.809 -6.09547 0.475693 0
M  V30 7436 H 696.983 -6.88064 1.0743 0
M  V30 7437 H 694.61 -7.45365 1.49451 0
M  V30 7438 N 696.185 0.383891 -1.52853 0
M  V30 7439 C 697.117 1.48889 -1.74255 0
M  V30 7440 C 698.13 1.50405 -0.623063 0
M  V30 7441 O 699.319 1.54215 -0.898887 0
M  V30 7442 C 696.419 2.87721 -1.79081 0
M  V30 7443 C 695.592 3.10111 -3.08464 0
M  V30 7444 C 694.651 4.28954 -3.0477 0
M  V30 7445 O 693.677 4.25012 -3.78621 0
M  V30 7446 N 694.879 5.35411 -2.24311 0
M  V30 7447 H 697.644 1.30915 -2.69595 0
M  V30 7448 H 695.205 0.573454 -1.51404 0
M  V30 7449 H 697.197 3.65333 -1.7411 0
M  V30 7450 H 695.767 2.99029 -0.911052 0
M  V30 7451 H 694.987 2.20319 -3.26884 0
M  V30 7452 H 696.275 3.21928 -3.94005 0
M  V30 7453 H 695.673 5.41471 -1.63787 0
M  V30 7454 H 694.23 6.1167 -2.25175 0
M  V30 7455 N 697.663 1.43903 0.642637 0
M  V30 7456 C 698.909 1.46296 1.40447 0
M  V30 7457 C 699.242 0.0908361 1.93987 0
M  V30 7458 O 698.517 -0.889884 1.72949 0
M  V30 7459 C 698.8 2.51399 2.57819 0
M  V30 7460 C 698.653 3.97926 2.09702 0
M  V30 7461 C 699.972 2.53125 3.60022 0
M  V30 7462 H 697.091 0.532676 0.509338 0
M  V30 7463 H 699.733 1.75515 0.727635 0
M  V30 7464 H 697.883 2.26614 3.1556 0
M  V30 7465 H 699.555 4.33804 1.5688 0
M  V30 7466 H 697.798 4.10252 1.40982 0
M  V30 7467 H 698.469 4.67096 2.94152 0
M  V30 7468 H 700.945 2.75242 3.12059 0
M  V30 7469 H 699.821 3.28589 4.39682 0
M  V30 7470 H 700.082 1.56895 4.13324 0
M  V30 7471 N 699.141 -0.881989 1.30609 0
M  V30 7472 C 700.39 -1.62878 1.18969 0
M  V30 7473 C 700.703 -1.93946 -0.253859 0
M  V30 7474 O 701.909 -2.67008 -0.491813 0
M  V30 7475 C 700.365 -2.93573 2.0819 0
M  V30 7476 C 699.973 -2.70034 3.57471 0
M  V30 7477 C 701.717 -3.71543 2.0532 0
M  V30 7478 C 699.624 -3.96563 4.38739 0
M  V30 7479 H 698.554 -0.611092 0.441682 0
M  V30 7480 H 701.205 -0.976201 1.55379 0
M  V30 7481 H 699.587 -3.6014 1.64666 0
M  V30 7482 H 700.761 -2.11949 4.09163 0
M  V30 7483 H 699.076 -2.05435 3.62195 0
M  V30 7484 H 701.673 -4.65386 2.63288 0
M  V30 7485 H 702.016 -4.03167 1.03739 0
M  V30 7486 H 702.549 -3.11842 2.46981 0
M  V30 7487 H 699.288 -3.70095 5.41027 0
M  V30 7488 H 698.808 -4.54142 3.9181 0
M  V30 7489 H 700.487 -4.64557 4.50329 0
M  V30 7490 N 700.619 -1.13374 -1.09472 0
M  V30 7491 C 701.549 -0.833268 -2.18126 0
M  V30 7492 C 702.53 0.207169 -1.68834 0
M  V30 7493 O 703.715 0.0662012 -1.94087 0
M  V30 7494 C 700.845 -0.297979 -3.46019 0
M  V30 7495 C 699.799 -1.27261 -4.08642 0
M  V30 7496 C 699.125 -0.597104 -5.31356 0
M  V30 7497 C 700.425 -2.63095 -4.51197 0
M  V30 7498 H 702.119 -1.74182 -2.43518 0
M  V30 7499 H 699.665 -0.838921 -1.17039 0
M  V30 7500 H 701.618 -0.0754444 -4.21332 0
M  V30 7501 H 700.342 0.645959 -3.20148 0
M  V30 7502 H 699.001 -1.48113 -3.35348 0
M  V30 7503 H 698.649 0.352293 -5.01765 0
M  V30 7504 H 698.349 -1.24734 -5.74208 0
M  V30 7505 H 699.873 -0.38384 -6.09392 0
M  V30 7506 H 701.287 -2.46214 -5.17737 0
M  V30 7507 H 699.684 -3.2429 -5.04932 0
M  V30 7508 H 700.754 -3.20793 -3.6362 0
M  V30 7509 N 702.098 1.27442 -0.927168 0
M  V30 7510 C 703.008 2.30599 -0.431448 0
M  V30 7511 C 704.024 1.67028 0.48761 0
M  V30 7512 O 705.2 1.97962 0.370546 0
M  V30 7513 C 702.265 3.45327 0.308292 0
M  V30 7514 C 701.326 4.24418 -0.645615 0
M  V30 7515 C 700.559 5.33667 0.0589164 0
M  V30 7516 O 700.782 5.5589 1.27838 0
M  V30 7517 O 699.716 5.98774 -0.612638 0
M  V30 7518 H 703.542 2.75036 -1.28797 0
M  V30 7519 H 701.127 1.32382 -0.692495 0
M  V30 7520 H 703.009 4.15107 0.725555 0
M  V30 7521 H 701.684 3.02945 1.14043 0
M  V30 7522 H 700.591 3.57174 -1.11255 0
M  V30 7523 H 701.924 4.70512 -1.44496 0
M  V30 7524 N 703.576 0.692616 1.41565 0
M  V30 7525 C 704.523 0.0254264 2.30786 0
M  V30 7526 C 705.493 -0.774347 1.46946 0
M  V30 7527 O 706.678 -0.742981 1.7574 0
M  V30 7528 C 703.818 -0.907123 3.32964 0
M  V30 7529 C 702.931 -0.0992784 4.31886 0
M  V30 7530 C 702.066 -1.0292 5.21134 0
M  V30 7531 C 701.105 -0.214088 6.11725 0
M  V30 7532 N 700.242 -1.09766 6.93467 0
M  V30 7533 H 705.082 0.792036 2.87282 0
M  V30 7534 H 702.619 0.4023 1.41492 0
M  V30 7535 H 704.577 -1.46181 3.90752 0
M  V30 7536 H 703.207 -1.64016 2.78026 0
M  V30 7537 H 702.259 0.572287 3.76071 0
M  V30 7538 H 703.571 0.532782 4.95946 0
M  V30 7539 H 702.725 -1.65321 5.83741 0
M  V30 7540 H 701.464 -1.69512 4.57293 0
M  V30 7541 H 700.469 0.42302 5.4817 0
M  V30 7542 H 701.694 0.447995 6.77621 0
M  V30 7543 H 699.64 -1.74965 6.32237 0
M  V30 7544 H 699.557 -0.521099 7.54202 0
M  V30 7545 H 700.825 -1.70858 7.60544 0
M  V30 7546 N 705.054 -1.51416 0.437162 0
M  V30 7547 C 705.986 -2.255 -0.410171 0
M  V30 7548 C 706.999 -1.29511 -0.986444 0
M  V30 7549 O 708.188 -1.55266 -0.880614 0
M  V30 7550 C 705.288 -2.99511 -1.58575 0
M  V30 7551 C 704.461 -4.22595 -1.12839 0
M  V30 7552 C 703.52 -4.79187 -2.17407 0
M  V30 7553 O 702.546 -5.4103 -1.76849 0
M  V30 7554 N 703.748 -4.63204 -3.49889 0
M  V30 7555 H 706.513 -2.98856 0.224783 0
M  V30 7556 H 704.074 -1.59699 0.266041 0
M  V30 7557 H 706.066 -3.34258 -2.28152 0
M  V30 7558 H 704.636 -2.29167 -2.12606 0
M  V30 7559 H 703.856 -3.93344 -0.259695 0
M  V30 7560 H 705.144 -5.02468 -0.800196 0
M  V30 7561 H 704.542 -4.13945 -3.85573 0
M  V30 7562 H 703.099 -5.02313 -4.15361 0
M  V30 7563 N 706.532 -0.168513 -1.56696 0
M  V30 7564 C 707.781 0.477233 -1.95973 0
M  V30 7565 C 708.094 1.64578 -1.05704 0
M  V30 7566 O 709.3 2.35758 -1.3465 0
M  V30 7567 C 707.756 0.900413 -3.48455 0
M  V30 7568 C 707.364 -0.242382 -4.47344 0
M  V30 7569 C 709.108 1.51474 -3.96555 0
M  V30 7570 C 707.015 0.200272 -5.91061 0
M  V30 7571 H 705.945 0.182061 -0.73169 0
M  V30 7572 H 708.596 -0.256297 -1.81701 0
M  V30 7573 H 706.978 1.68984 -3.58135 0
M  V30 7574 H 708.152 -1.01967 -4.49377 0
M  V30 7575 H 706.467 -0.766484 -4.09285 0
M  V30 7576 H 709.064 1.85792 -5.01384 0
M  V30 7577 H 709.407 2.41163 -3.39332 0
M  V30 7578 H 709.94 0.789802 -3.89881 0
M  V30 7579 H 706.679 -0.661775 -6.52151 0
M  V30 7580 H 706.199 0.942979 -5.92341 0
M  V30 7581 H 707.878 0.645088 -6.43776 0
M  V30 7582 N 708.01 1.57248 0.105221 0
M  V30 7583 C 709.426 1.52853 0.459153 0
M  V30 7584 C 709.626 0.883674 1.8109 0
M  V30 7585 O 708.682 0.471864 2.48052 0
M  V30 7586 C 709.995 2.97596 0.43096 0
M  V30 7587 C 711.543 3.08758 0.513536 0
M  V30 7588 C 712.018 4.55089 0.515593 0
M  V30 7589 N 713.509 4.59597 0.576639 0
M  V30 7590 C 714.244 5.70253 0.599904 0
M  V30 7591 N 713.74 6.90368 0.579985 0
M  V30 7592 N 715.533 5.58399 0.643953 0
M  V30 7593 H 707.684 1.97547 -0.780306 0
M  V30 7594 H 709.947 0.902758 -0.289363 0
M  V30 7595 H 709.653 3.48201 -0.494903 0
M  V30 7596 H 709.527 3.55756 1.2537 0
M  V30 7597 H 711.914 2.58148 1.42982 0
M  V30 7598 H 711.995 2.53568 -0.337148 0
M  V30 7599 H 711.639 5.06348 -0.396701 0
M  V30 7600 H 711.569 5.08105 1.38335 0
M  V30 7601 H 714.06 3.73144 0.597639 0
M  V30 7602 H 714.373 7.70462 0.600741 0
M  V30 7603 H 712.718 6.92843 0.547191 0
M  V30 7604 H 715.909 4.63467 0.656975 0
M  V30 7605 H 716.082 6.44644 0.658616 0
M  V30 7606 N 709.488 -0.375779 1.53054 0
M  V30 7607 C 710.737 -1.11674 1.67964 0
M  V30 7608 C 711.05 -1.90755 0.432655 0
M  V30 7609 O 712.256 -2.67538 0.462109 0
M  V30 7610 C 710.712 -2.0344 2.96884 0
M  V30 7611 C 710.32 -1.29719 4.28809 0
M  V30 7612 C 712.064 -2.7759 3.2116 0
M  V30 7613 C 709.971 -2.20327 5.48826 0
M  V30 7614 H 708.901 -0.420597 0.625791 0
M  V30 7615 H 711.552 -0.378499 1.79554 0
M  V30 7616 H 709.934 -2.80953 2.79072 0
M  V30 7617 H 711.108 -0.573394 4.57219 0
M  V30 7618 H 709.423 -0.674735 4.10897 0
M  V30 7619 H 712.02 -3.4559 4.0801 0
M  V30 7620 H 712.363 -3.42399 2.36789 0
M  V30 7621 H 712.896 -2.07164 3.396 0
M  V30 7622 H 709.635 -1.60113 6.35645 0
M  V30 7623 H 709.155 -2.90585 5.2471 0
M  V30 7624 H 710.834 -2.80116 5.83219 0
M  V30 7625 N 710.966 -1.44241 -0.634997 0
M  V30 7626 C 712.377 -1.41622 -1.21655 0
M  V30 7627 C 712.728 -0.129584 -1.95772 0
M  V30 7628 O 711.853 0.770225 -2.02229 0
M  V30 7629 C 712.448 -2.56557 -2.21278 0
M  V30 7630 C 711.007 -2.57145 -2.7487 0
M  V30 7631 C 710.154 -2.33354 -1.49804 0
M  V30 7632 H 713.105 -1.52878 -0.425905 0
M  V30 7633 H 713.126 -2.29089 -3.03807 0
M  V30 7634 H 712.638 -3.50186 -1.67306 0
M  V30 7635 H 710.739 -1.67447 -3.32855 0
M  V30 7636 H 710.852 -3.55507 -3.21172 0
M  V30 7637 H 709.216 -1.82372 -1.77799 0
M  V30 7638 H 709.999 -3.29092 -0.977402 0
M  V30 7639 N 712.444 0.87505 -1.31075 0
M  V30 7640 C 713.86 1.15997 -1.09622 0
M  V30 7641 C 714.06 2.01036 0.136611 0
M  V30 7642 O 713.116 2.38559 0.827397 0
M  V30 7643 C 714.429 1.85702 -2.36506 0
M  V30 7644 C 715.977 1.98425 -2.42067 0
M  V30 7645 C 716.452 2.71544 -3.68819 0
M  V30 7646 N 717.943 2.79084 -3.69684 0
M  V30 7647 C 718.678 3.36259 -4.64454 0
M  V30 7648 N 718.174 3.94406 -5.69575 0
M  V30 7649 N 719.967 3.34169 -4.51982 0
M  V30 7650 H 712.118 0.308258 -2.10151 0
M  V30 7651 H 714.381 0.199145 -0.926847 0
M  V30 7652 H 714.087 1.30663 -3.26527 0
M  V30 7653 H 713.961 2.86017 -2.45915 0
M  V30 7654 H 716.348 2.5263 -1.52518 0
M  V30 7655 H 716.429 0.971682 -2.36626 0
M  V30 7656 H 716.073 2.18008 -4.58732 0
M  V30 7657 H 716.003 3.73198 -3.71525 0
M  V30 7658 H 718.494 2.3781 -2.93691 0
M  V30 7659 H 718.807 4.36129 -6.37974 0
M  V30 7660 H 717.152 3.92797 -5.73355 0
M  V30 7661 H 720.343 2.87977 -3.69035 0
M  V30 7662 H 720.516 3.78431 -5.26017 0
M  V30 7663 N 713.922 1.13953 1.08869 0
M  V30 7664 C 715.147 0.928559 1.85452 0
M  V30 7665 C 715.572 -0.517642 1.80837 0
M  V30 7666 O 714.93 -1.36779 1.19001 0
M  V30 7667 C 714.978 1.42814 3.31114 0
M  V30 7668 O 714.082 0.617129 4.07756 0
M  V30 7669 H 713.423 0.33235 0.574839 0
M  V30 7670 H 715.953 1.5156 1.37443 0
M  V30 7671 H 715.963 1.43425 3.8196 0
M  V30 7672 H 714.638 2.48109 3.33788 0
M  V30 7673 H 713.215 0.679365 3.66659 0
M  V30 7674 N 715.4 -1.26948 0.933913 0
M  V30 7675 C 716.33 -2.29017 0.45534 0
M  V30 7676 C 717.311 -1.62961 -0.487605 0
M  V30 7677 O 718.496 -1.90223 -0.391022 0
M  V30 7678 C 715.626 -3.46112 -0.287015 0
M  V30 7679 C 714.58 -4.24205 0.568682 0
M  V30 7680 C 713.906 -5.3384 -0.303206 0
M  V30 7681 C 715.206 -4.88954 1.83633 0
M  V30 7682 H 716.9 -2.69298 1.30839 0
M  V30 7683 H 714.446 -1.29459 0.630579 0
M  V30 7684 H 716.399 -4.16622 -0.6328 0
M  V30 7685 H 715.123 -3.04765 -1.17414 0
M  V30 7686 H 713.782 -3.5545 0.897261 0
M  V30 7687 H 713.43 -4.88734 -1.18947 0
M  V30 7688 H 713.13 -5.86998 0.265879 0
M  V30 7689 H 714.654 -6.0719 -0.644423 0
M  V30 7690 H 716.068 -5.51717 1.55823 0
M  V30 7691 H 714.465 -5.52198 2.34941 0
M  V30 7692 H 715.535 -4.12305 2.55211 0
M  V30 7693 N 716.879 -0.700114 -1.41195 0
M  V30 7694 C 718.104 -0.240704 -2.05998 0
M  V30 7695 C 718.529 1.10313 -1.52357 0
M  V30 7696 O 717.887 1.69154 -0.652424 0
M  V30 7697 C 717.935 -0.213783 -3.59966 0
M  V30 7698 O 717.039 0.809933 -4.04368 0
M  V30 7699 H 716.38 -0.116471 -0.653705 0
M  V30 7700 H 718.91 -0.956251 -1.80878 0
M  V30 7701 H 718.92 -0.0461852 -4.07974 0
M  V30 7702 H 717.595 -1.19454 -3.98376 0
M  V30 7703 H 716.172 0.611319 -3.67855 0
M  V30 7704 N 718.357 1.51182 -0.445186 0
M  V30 7705 C 719.603 2.02452 0.11882 0
M  V30 7706 C 719.936 1.32824 1.41673 0
M  V30 7707 O 719.211 0.445637 1.89326 0
M  V30 7708 C 719.494 3.5859 0.329475 0
M  V30 7709 C 719.347 4.38823 -0.987638 0
M  V30 7710 C 720.666 4.26241 1.09575 0
M  V30 7711 H 717.785 0.735819 0.0417092 0
M  V30 7712 H 720.427 1.80747 -0.585718 0
M  V30 7713 H 718.577 3.77214 0.9296 0
M  V30 7714 H 720.249 4.3183 -1.62235 0
M  V30 7715 H 718.492 4.03594 -1.59041 0
M  V30 7716 H 719.163 5.46257 -0.794192 0
M  V30 7717 H 721.639 4.11934 0.587328 0
M  V30 7718 H 720.515 5.35354 1.21191 0
M  V30 7719 H 720.776 3.87635 2.12584 0
M  V30 7720 N 719.835 0.176821 1.56605 0
M  V30 7721 C 720.782 -0.751312 2.18229 0
M  V30 7722 C 721.752 -1.22297 1.12395 0
M  V30 7723 O 722.937 -1.29015 1.40569 0
M  V30 7724 C 720.077 -1.97291 2.83143 0
M  V30 7725 C 719.19 -1.54431 4.03454 0
M  V30 7726 C 718.325 -2.72 4.56278 0
M  V30 7727 C 717.364 -2.25657 5.68986 0
M  V30 7728 N 716.501 -3.36338 6.16296 0
M  V30 7729 H 721.341 -0.219033 2.97194 0
M  V30 7730 H 718.878 -0.0963803 1.46784 0
M  V30 7731 H 720.836 -2.68949 3.1894 0
M  V30 7732 H 719.466 -2.4788 2.06773 0
M  V30 7733 H 718.518 -0.724273 3.73441 0
M  V30 7734 H 719.83 -1.16417 4.85024 0
M  V30 7735 H 718.984 -3.51806 4.94285 0
M  V30 7736 H 717.723 -3.13277 3.73777 0
M  V30 7737 H 716.728 -1.44299 5.30526 0
M  V30 7738 H 717.953 -1.85432 6.53293 0
M  V30 7739 H 715.899 -3.7718 5.36723 0
M  V30 7740 H 715.816 -3.02435 6.9287 0
M  V30 7741 H 717.084 -4.16413 6.58954 0
M  V30 7742 N 721.313 -1.57302 -0.09688 0
M  V30 7743 C 722.276 -2.00976 -1.10188 0
M  V30 7744 C 723.276 -0.903009 -1.3305 0
M  V30 7745 O 724.466 -1.16853 -1.29194 0
M  V30 7746 C 721.598 -2.36893 -2.45142 0
M  V30 7747 H 722.791 -2.9098 -0.726003 0
M  V30 7748 H 720.344 -1.52515 -0.341872 0
M  V30 7749 H 721.079 -1.49837 -2.8761 0
M  V30 7750 H 720.864 -3.17632 -2.29897 0
M  V30 7751 H 722.354 -2.71345 -3.1743 0
M  V30 7752 N 722.791 0.367657 -1.53252 0
M  V30 7753 C 723.754 1.43308 -1.78873 0
M  V30 7754 C 724.754 1.46671 -0.659115 0
M  V30 7755 O 725.944 1.47468 -0.927306 0
M  V30 7756 C 723.076 2.82442 -1.90892 0
M  V30 7757 H 724.269 1.21864 -2.74024 0
M  V30 7758 H 721.822 0.600668 -1.44297 0
M  V30 7759 H 722.557 3.09202 -0.978 0
M  V30 7760 H 722.342 2.81399 -2.73051 0
M  V30 7761 H 723.832 3.59601 -2.12314 0
M  V30 7762 N 724.269 1.44576 0.627338 0
M  V30 7763 C 725.494 1.51271 1.41887 0
M  V30 7764 C 725.919 0.139814 1.8758 0
M  V30 7765 O 725.277 -0.871746 1.58966 0
M  V30 7766 C 725.325 2.48529 2.61277 0
M  V30 7767 O 724.429 1.98944 3.61241 0
M  V30 7768 H 723.77 0.510668 0.424399 0
M  V30 7769 H 726.3 1.89746 0.765356 0
M  V30 7770 H 726.31 2.66689 3.08773 0
M  V30 7771 H 724.985 3.48249 2.27366 0
M  V30 7772 H 723.562 1.90568 3.20528 0
M  V30 7773 N 725.747 -0.868086 1.31537 0
M  V30 7774 C 726.993 -1.62367 1.2151 0
M  V30 7775 C 727.326 -1.92883 -0.225819 0
M  V30 7776 O 726.601 -1.56176 -1.15927 0
M  V30 7777 C 726.884 -2.95268 2.06129 0
M  V30 7778 C 726.737 -2.71619 3.58529 0
M  V30 7779 C 728.056 -3.96391 1.91212 0
M  V30 7780 H 725.175 -0.589178 0.442762 0
M  V30 7781 H 727.817 -1.00336 1.61347 0
M  V30 7782 H 725.967 -3.4821 1.72284 0
M  V30 7783 H 727.639 -2.25334 4.0252 0
M  V30 7784 H 725.882 -2.05817 3.81866 0
M  V30 7785 H 726.553 -3.66192 4.13047 0
M  V30 7786 H 729.029 -3.52663 2.20834 0
M  V30 7787 H 727.905 -4.87263 2.52718 0
M  V30 7788 H 728.166 -4.33335 0.875953 0
M  V30 7789 N 727.225 -1.14528 -1.08264 0
M  V30 7790 C 728.155 -0.856356 -2.1723 0
M  V30 7791 C 729.136 0.189251 -1.69044 0
M  V30 7792 O 730.321 0.0456119 -1.94146 0
M  V30 7793 C 727.451 -0.334662 -3.45684 0
M  V30 7794 C 726.405 -1.31588 -4.0727 0
M  V30 7795 C 725.731 -0.653428 -5.30692 0
M  V30 7796 C 727.031 -2.67866 -4.48381 0
M  V30 7797 H 728.725 -1.76755 -2.41657 0
M  V30 7798 H 726.271 -0.851287 -1.16143 0
M  V30 7799 H 728.224 -0.120128 -4.21229 0
M  V30 7800 H 726.948 0.611967 -3.20815 0
M  V30 7801 H 725.607 -1.51661 -3.33758 0
M  V30 7802 H 725.255 0.299054 -5.0211 0
M  V30 7803 H 724.955 -1.30817 -5.72853 0
M  V30 7804 H 726.479 -0.448453 -6.08951 0
M  V30 7805 H 727.893 -2.51692 -5.15096 0
M  V30 7806 H 726.29 -3.29627 -5.01464 0
M  V30 7807 H 727.36 -3.24632 -3.60198 0
M  V30 7808 N 728.703 1.26451 -0.940633 0
M  V30 7809 C 729.65 2.264 -0.448497 0
M  V30 7810 C 730.62 1.5866 0.491546 0
M  V30 7811 O 731.805 1.86389 0.407874 0
M  V30 7812 C 728.945 3.43956 0.280715 0
M  V30 7813 C 728.058 4.26374 -0.694937 0
M  V30 7814 C 727.193 5.31171 0.0554186 0
M  V30 7815 C 726.232 6.05266 -0.912091 0
M  V30 7816 N 725.369 7.01833 -0.193524 0
M  V30 7817 H 730.209 2.67869 -1.30576 0
M  V30 7818 H 727.746 1.31707 -0.655112 0
M  V30 7819 H 729.704 4.10941 0.71994 0
M  V30 7820 H 728.334 3.03403 1.10212 0
M  V30 7821 H 727.386 3.59183 -1.25267 0
M  V30 7822 H 728.698 4.77748 -1.43382 0
M  V30 7823 H 727.852 6.04166 0.553951 0
M  V30 7824 H 726.591 4.80634 0.827183 0
M  V30 7825 H 725.596 5.31099 -1.42175 0
M  V30 7826 H 726.821 6.57893 -1.68385 0
M  V30 7827 H 724.767 6.53607 0.559758 0
M  V30 7828 H 724.684 7.50957 -0.871744 0
M  V30 7829 H 725.952 7.78983 0.283932 0
M  V30 7830 N 730.181 0.707592 1.40822 0
M  V30 7831 C 731.406 0.251626 2.05868 0
M  V30 7832 C 731.831 -1.09503 1.5294 0
M  V30 7833 O 731.189 -1.68806 0.661385 0
M  V30 7834 C 731.237 0.23287 3.59847 0
M  V30 7835 O 730.341 -0.788477 4.04792 0
M  V30 7836 H 729.682 0.119936 0.653078 0
M  V30 7837 H 732.212 0.96583 1.80369 0
M  V30 7838 H 732.222 0.0678204 4.07944 0
M  V30 7839 H 730.897 1.21565 3.97737 0
M  V30 7840 H 729.474 -0.591802 3.68174 0
M  V30 7841 N 731.66 -1.50943 0.453197 0
M  V30 7842 C 732.907 -2.02212 -0.107922 0
M  V30 7843 C 733.235 -1.33639 -1.41318 0
M  V30 7844 O 732.49 -0.445154 -1.9057 0
M  V30 7845 C 732.789 -3.55603 -0.357944 0
M  V30 7846 C 732.455 -4.42556 0.863427 0
M  V30 7847 C 731.117 -4.6604 1.19834 0
M  V30 7848 C 733.469 -4.93468 1.67747 0
M  V30 7849 C 730.797 -5.37681 2.34768 0
M  V30 7850 C 733.149 -5.6637 2.81793 0
M  V30 7851 C 731.813 -5.88113 3.1572 0
M  V30 7852 H 731.083 -0.739947 -0.0394916 0
M  V30 7853 H 733.73 -1.81738 0.60363 0
M  V30 7854 H 732.035 -3.74495 -1.15156 0
M  V30 7855 H 733.732 -3.92821 -0.805781 0
M  V30 7856 H 730.322 -4.24485 0.592478 0
M  V30 7857 H 734.506 -4.75194 1.43192 0
M  V30 7858 H 729.762 -5.52727 2.61348 0
M  V30 7859 H 733.936 -6.04806 3.45229 0
M  V30 7860 H 731.563 -6.43404 4.04889 0
M  V30 7861 N 733.138 -0.185124 -1.56509 0
M  V30 7862 C 734.068 0.735098 -2.21627 0
M  V30 7863 C 735.049 1.2288 -1.1762 0
M  V30 7864 O 736.234 1.27945 -1.46095 0
M  V30 7865 C 733.364 1.95889 -2.86783 0
M  V30 7866 C 732.318 1.6005 -3.96948 0
M  V30 7867 C 731.644 2.90009 -4.4922 0
M  V30 7868 C 732.944 0.818008 -5.15855 0
M  V30 7869 H 734.638 0.192274 -2.98782 0
M  V30 7870 H 732.184 0.0910393 -1.43712 0
M  V30 7871 H 734.137 2.60779 -3.31017 0
M  V30 7872 H 732.861 2.52608 -2.07018 0
M  V30 7873 H 731.52 0.975237 -3.5339 0
M  V30 7874 H 731.168 3.44797 -3.6623 0
M  V30 7875 H 730.868 2.66778 -5.23549 0
M  V30 7876 H 732.392 3.55904 -4.9615 0
M  V30 7877 H 733.806 1.36979 -5.56695 0
M  V30 7878 H 732.203 0.684207 -5.96187 0
M  V30 7879 H 733.273 -0.182939 -4.84555 0
M  V30 7880 N 734.616 1.57351 0.0885366 0
M  V30 7881 C 735.564 2.03542 1.12576 0
M  V30 7882 C 736.558 0.937668 1.41082 0
M  V30 7883 O 737.764 1.12283 1.40686 0
M  V30 7884 H 734.139 0.648752 0.380296 0
M  V30 7885 H 736.11 2.89833 0.709906 0
M  V30 7886 C 734.859 2.4811 2.43591 0
M  V30 7887 H 734.182 3.32164 2.22502 0
M  V30 7888 H 735.622 2.842 3.14653 0
M  V30 7889 C 734.081 1.35708 3.08359 0
M  V30 7890 O 734.611 0.689852 3.95732 0
M  V30 7891 N 732.817 1.10641 2.68713 0
M  V30 7892 H 732.364 1.6508 1.97753 0
M  V30 7893 H 732.322 0.356355 3.12374 0
M  V30 7894 N 736.094 -0.359525 1.53444 0
M  V30 7895 C 737.041 -1.44073 1.8031 0
M  V30 7896 C 738.011 -1.52946 0.647811 0
M  V30 7897 O 739.196 -1.68739 0.890614 0
M  V30 7898 C 736.336 -2.80941 2.00416 0
M  V30 7899 C 735.449 -2.80986 3.28132 0
M  V30 7900 C 734.584 -4.09468 3.38393 0
M  V30 7901 C 733.623 -4.03679 4.60119 0
M  V30 7902 N 732.76 -5.23821 4.675 0
M  V30 7903 H 737.6 -1.20464 2.72566 0
M  V30 7904 H 735.137 -0.583859 1.35017 0
M  V30 7905 H 737.095 -3.60459 2.1006 0
M  V30 7906 H 735.725 -3.02936 1.11489 0
M  V30 7907 H 734.777 -1.93666 3.27411 0
M  V30 7908 H 736.089 -2.72583 4.17732 0
M  V30 7909 H 735.243 -4.97404 3.47382 0
M  V30 7910 H 733.982 -4.20632 2.4682 0
M  V30 7911 H 732.987 -3.14129 4.51224 0
M  V30 7912 H 734.212 -3.94112 5.5304 0
M  V30 7913 H 732.158 -5.35559 3.7883 0
M  V30 7914 H 732.075 -5.17611 5.51013 0
M  V30 7915 H 733.343 -6.13572 4.8078 0
M  V30 7916 N 737.572 -1.44907 -0.619662 0
M  V30 7917 C 738.849 -1.38766 -1.37852 0
M  V30 7918 C 739.229 -0.0521393 -2.11036 0
M  V30 7919 O 738.577 0.965613 -2.07095 0
M  V30 7920 C 738.787 -2.59344 -2.33541 0
M  V30 7921 C 740.135 -3.03909 -2.96521 0
M  V30 7922 O 741.159 -2.59631 -2.43865 0
M  V30 7923 O 740.018 -3.80713 -3.92071 0
M  V30 7924 H 737.112 -0.550083 -0.617525 0
M  V30 7925 H 739.658 -1.57015 -0.643759 0
M  V30 7926 H 738.43 -3.48142 -1.78642 0
M  V30 7927 H 738.053 -2.43367 -3.14417 0
M  V30 7928 N 739.05 0.861098 -1.31996 0
M  V30 7929 C 740.461 1.43065 -1.19955 0
M  V30 7930 C 740.812 1.95273 0.190489 0
M  V30 7931 O 739.937 1.87012 1.08882 0
M  V30 7932 C 740.532 2.60052 -2.1716 0
M  V30 7933 C 739.091 3.13026 -2.09026 0
M  V30 7934 C 738.238 1.85756 -2.05888 0
M  V30 7935 H 741.189 0.668834 -1.43918 0
M  V30 7936 H 741.21 3.37016 -1.76637 0
M  V30 7937 H 740.722 2.22024 -3.18319 0
M  V30 7938 H 738.823 3.55653 -1.11092 0
M  V30 7939 H 738.936 3.74707 -2.98549 0
M  V30 7940 H 737.3 2.05088 -1.51033 0
M  V30 7941 H 738.083 1.49954 -3.08818 0
M  V30 7942 N 740.528 1.15101 1.07655 0
M  V30 7943 C 741.475 0.844958 2.14777 0
M  V30 7944 C 742.445 -0.200798 1.64882 0
M  V30 7945 O 743.63 -0.0690278 1.90675 0
M  V30 7946 C 740.77 0.337018 3.4345 0
M  V30 7947 C 739.883 1.44398 4.07153 0
M  V30 7948 C 739.018 0.892487 5.23649 0
M  V30 7949 C 738.057 1.9766 5.79307 0
M  V30 7950 N 737.194 1.44171 6.87138 0
M  V30 7951 H 742.034 1.76242 2.40297 0
M  V30 7952 H 739.571 0.879435 1.17917 0
M  V30 7953 H 741.529 0.024256 4.17193 0
M  V30 7954 H 740.159 -0.543531 3.18191 0
M  V30 7955 H 739.211 1.87299 3.31094 0
M  V30 7956 H 740.523 2.26262 4.4453 0
M  V30 7957 H 739.677 0.532083 6.04362 0
M  V30 7958 H 738.416 0.0429854 4.87681 0
M  V30 7959 H 737.421 2.34586 4.97242 0
M  V30 7960 H 738.646 2.82982 6.17331 0
M  V30 7961 H 736.592 0.614518 6.53115 0
M  V30 7962 H 736.509 2.19665 7.23383 0
M  V30 7963 H 737.777 1.10945 7.71564 0
M  V30 7964 N 742.006 -1.2595 0.947325 0
M  V30 7965 C 742.916 -2.29883 0.468079 0
M  V30 7966 C 743.932 -1.67783 -0.460975 0
M  V30 7967 O 745.108 -1.98526 -0.339006 0
M  V30 7968 C 742.173 -3.45773 -0.253315 0
M  V30 7969 C 741.234 -4.23337 0.713054 0
M  V30 7970 C 740.467 -5.33694 0.025993 0
M  V30 7971 O 740.69 -5.57853 -1.18978 0
M  V30 7972 O 739.624 -5.97724 0.70782 0
M  V30 7973 H 743.45 -2.72952 1.33156 0
M  V30 7974 H 741.035 -1.31263 0.713468 0
M  V30 7975 H 742.917 -4.16209 -0.659423 0
M  V30 7976 H 741.592 -3.04721 -1.09209 0
M  V30 7977 H 740.499 -3.55359 1.16923 0
M  V30 7978 H 741.832 -4.68154 1.51963 0
M  V30 7979 N 743.484 -0.715051 -1.40445 0
M  V30 7980 C 744.9 -0.388555 -1.54798 0
M  V30 7981 C 745.1 1.10271 -1.68649 0
M  V30 7982 O 744.156 1.88875 -1.67578 0
M  V30 7983 C 745.469 -1.15414 -2.77669 0
M  V30 7984 C 747.017 -1.14039 -2.91486 0
M  V30 7985 C 747.492 -1.88812 -4.1727 0
M  V30 7986 N 748.983 -1.85878 -4.24268 0
M  V30 7987 C 749.718 -2.40558 -5.20499 0
M  V30 7988 N 749.214 -3.03791 -6.22642 0
M  V30 7989 N 751.007 -2.30703 -5.12574 0
M  V30 7990 H 743.158 -1.68201 -1.297 0
M  V30 7991 H 745.421 -0.710915 -0.627139 0
M  V30 7992 H 745.127 -2.20853 -2.7371 0
M  V30 7993 H 745.001 -0.745412 -3.69761 0
M  V30 7994 H 747.388 -0.0941996 -2.9495 0
M  V30 7995 H 747.469 -1.58834 -2.00513 0
M  V30 7996 H 747.113 -2.93422 -4.14568 0
M  V30 7997 H 747.043 -1.41438 -5.0725 0
M  V30 7998 H 749.534 -1.39794 -3.51093 0
M  V30 7999 H 749.847 -3.43032 -6.92495 0
M  V30 8000 H 748.192 -3.07875 -6.23087 0
M  V30 8001 H 751.383 -1.80961 -4.31707 0
M  V30 8002 H 751.556 -2.73618 -5.87398 0
M  V30 8003 N 744.962 1.50701 -0.461195 0
M  V30 8004 C 745.892 2.31182 0.328184 0
M  V30 8005 C 746.873 1.37644 0.999408 0
M  V30 8006 O 748.058 1.66565 0.99848 0
M  V30 8007 C 745.188 3.17113 1.41621 0
M  V30 8008 C 744.142 4.19124 0.867148 0
M  V30 8009 C 743.468 4.93728 2.05272 0
M  V30 8010 C 744.768 5.22174 -0.114808 0
M  V30 8011 H 746.462 2.97423 -0.343501 0
M  V30 8012 H 744.008 1.43033 -0.166641 0
M  V30 8013 H 745.961 3.72208 1.97584 0
M  V30 8014 H 744.685 2.48739 2.11652 0
M  V30 8015 H 743.344 3.65116 0.329557 0
M  V30 8016 H 742.992 4.21835 2.73978 0
M  V30 8017 H 742.692 5.62724 1.69161 0
M  V30 8018 H 744.216 5.51654 2.61744 0
M  V30 8019 H 745.63 5.72198 0.355316 0
M  V30 8020 H 744.027 5.98833 -0.389689 0
M  V30 8021 H 745.097 4.7353 -1.04391 0
M  V30 8022 N 746.441 0.193421 1.56409 0
M  V30 8023 C 747.689 -0.444908 1.97142 0
M  V30 8024 C 748.01 -1.62268 1.08139 0
M  V30 8025 O 747.28 -1.95307 0.152326 0
M  V30 8026 H 745.86 -0.16736 0.728011 0
M  V30 8027 H 748.522 0.279763 1.92882 0
M  V30 8028 H 747.618 -0.790159 3.01932 0
M  V30 8029 N 747.919 -1.57396 -0.0801906 0
M  V30 8030 C 749.159 -1.88668 -0.786367 0
M  V30 8031 C 749.523 -0.786216 -1.75165 0
M  V30 8032 O 750.724 -0.981769 -2.50229 0
M  V30 8033 C 748.995 -3.25176 -1.48308 0
M  V30 8034 S 750.554 -3.78177 -2.22549 0
M  V30 8035 H 747.372 -0.661094 -0.261679 0
M  V30 8036 H 749.974 -1.95453 -0.0428196 0
M  V30 8037 H 748.678 -4.03176 -0.766629 0
M  V30 8038 H 748.209 -3.21567 -2.26623 0
M  V30 8039 H 750.224 -3.52789 -3.48934 0
M  V30 8040 N 749.397 0.351382 -1.53633 0
M  V30 8041 C 750.347 1.4316 -1.77452 0
M  V30 8042 C 751.331 1.48076 -0.62946 0
M  V30 8043 O 752.523 1.53078 -0.888599 0
M  V30 8044 C 749.652 2.80409 -1.98055 0
M  V30 8045 C 748.738 2.79915 -3.18604 0
M  V30 8046 N 749.129 2.49057 -4.40232 0
M  V30 8047 C 747.427 3.11067 -3.19614 0
M  V30 8048 C 748.128 2.566 -5.22045 0
M  V30 8049 N 747.104 2.919 -4.5858 0
M  V30 8050 H 750.906 1.18188 -2.69089 0
M  V30 8051 H 748.42 0.559684 -1.52451 0
M  V30 8052 H 750.417 3.58231 -2.13251 0
M  V30 8053 H 749.077 3.06334 -1.07655 0
M  V30 8054 H 750.088 2.22395 -4.67719 0
M  V30 8055 H 746.765 3.42215 -2.39154 0
M  V30 8056 H 748.155 2.35968 -6.29101 0
M  V30 8057 N 750.875 1.45233 0.611969 0
M  V30 8058 C 752.286 1.4354 1.19387 0
M  V30 8059 C 752.637 0.160713 1.95541 0
M  V30 8060 O 751.762 -0.737954 2.03429 0
M  V30 8061 C 752.357 2.60045 2.17169 0
M  V30 8062 C 750.916 2.61486 2.70744 0
M  V30 8063 C 750.063 2.35708 1.46072 0
M  V30 8064 H 753.014 1.53536 0.401529 0
M  V30 8065 H 753.035 2.33893 3.00124 0
M  V30 8066 H 752.547 3.52803 1.61714 0
M  V30 8067 H 750.648 1.72721 3.30149 0
M  V30 8068 H 750.761 3.60572 3.15476 0
M  V30 8069 H 749.125 1.85178 1.74875 0
M  V30 8070 H 749.908 3.30606 0.924922 0
M  V30 8071 N 752.353 -0.854086 1.3245 0
M  V30 8072 C 753.285 -1.96932 1.17262 0
M  V30 8073 C 754.298 -1.62445 0.107469 0
M  V30 8074 O 755.487 -1.74904 0.356481 0
M  V30 8075 C 752.587 -3.29971 0.772817 0
M  V30 8076 C 751.76 -3.92695 1.92638 0
M  V30 8077 C 750.819 -5.04068 1.51003 0
M  V30 8078 O 749.845 -5.24032 2.22213 0
M  V30 8079 N 751.047 -5.79076 0.406371 0
M  V30 8080 H 753.812 -2.10503 2.13327 0
M  V30 8081 H 751.373 -1.02897 1.24995 0
M  V30 8082 H 753.365 -4.01883 0.476684 0
M  V30 8083 H 751.935 -3.1245 -0.0967 0
M  V30 8084 H 751.155 -3.13563 2.38897 0
M  V30 8085 H 752.443 -4.31337 2.69863 0
M  V30 8086 H 751.841 -5.65393 -0.186302 0
M  V30 8087 H 750.398 -6.51579 0.169846 0
M  V30 8088 N 753.831 -1.1567 -1.07043 0
M  V30 8089 C 755.059 -0.957471 -1.83412 0
M  V30 8090 C 755.474 0.494271 -1.82215 0
M  V30 8091 O 754.831 1.34288 -1.23584 0
M  V30 8092 C 754.882 -1.46784 -3.30359 0
M  V30 8093 O 754.603 -2.86271 -3.31633 0
M  V30 8094 C 756.104 -1.31054 -4.23485 0
M  V30 8095 H 753.324 -0.33986 -0.578564 0
M  V30 8096 H 755.868 -1.53518 -1.35102 0
M  V30 8097 H 754.023 -0.932586 -3.76007 0
M  V30 8098 H 754.437 -3.0948 -4.23465 0
M  V30 8099 H 755.911 -1.71605 -5.24648 0
M  V30 8100 H 756.388 -0.255107 -4.38458 0
M  V30 8101 H 756.994 -1.83503 -3.83676 0
M  V30 8102 N 755.309 1.25446 -0.953992 0
M  V30 8103 C 756.557 1.92762 -0.607227 0
M  V30 8104 C 756.878 1.7509 0.858399 0
M  V30 8105 O 756.148 1.11416 1.61132 0
M  V30 8106 H 754.728 0.713377 -0.221591 0
M  V30 8107 H 757.39 1.52625 -1.21209 0
M  V30 8108 H 756.486 3.00695 -0.835998 0
M  V30 8109 N 756.787 0.722489 1.40064 0
M  V30 8110 C 758.034 0.264979 2.00759 0
M  V30 8111 C 758.362 -1.14395 1.57302 0
M  V30 8112 O 757.617 -1.79165 0.787298 0
M  V30 8113 C 757.916 0.300682 3.56133 0
M  V30 8114 C 757.582 1.66087 4.19197 0
M  V30 8115 C 756.244 2.03319 4.36136 0
M  V30 8116 C 758.596 2.55452 4.54306 0
M  V30 8117 C 755.924 3.29448 4.8547 0
M  V30 8118 C 758.276 3.8094 5.05042 0
M  V30 8119 C 756.94 4.1828 5.2019 0
M  V30 8120 H 756.21 0.0969625 0.734629 0
M  V30 8121 H 758.857 0.926877 1.67575 0
M  V30 8122 H 757.162 -0.44479 3.89267 0
M  V30 8123 H 758.859 -0.0712542 4.00937 0
M  V30 8124 H 755.449 1.36137 4.06405 0
M  V30 8125 H 759.633 2.27961 4.40849 0
M  V30 8126 H 754.889 3.58338 4.95382 0
M  V30 8127 H 759.063 4.50351 5.31184 0
M  V30 8128 H 756.69 5.16081 5.58179 0
M  V30 8129 N 758.265 -1.50454 0.469181 0
M  V30 8130 C 759.228 -2.2703 -0.314643 0
M  V30 8131 C 760.228 -1.31734 -0.922111 0
M  V30 8132 O 761.418 -1.55176 -0.791588 0
M  V30 8133 C 758.55 -3.08616 -1.44806 0
M  V30 8134 H 759.743 -2.97769 0.356892 0
M  V30 8135 H 757.296 -1.54698 0.223191 0
M  V30 8136 H 758.031 -2.42369 -2.1547 0
M  V30 8137 H 757.816 -3.78647 -1.01829 0
M  V30 8138 H 759.306 -3.66536 -2.00103 0
M  V30 8139 N 759.743 -0.201713 -1.56304 0
M  V30 8140 C 761.02 0.483273 -1.89536 0
M  V30 8141 C 761.4 1.79176 -1.11621 0
M  V30 8142 O 760.748 2.27445 -0.219339 0
M  V30 8143 C 760.958 0.695604 -3.41998 0
M  V30 8144 C 762.306 1.012 -4.12364 0
M  V30 8145 O 763.33 0.783094 -3.47485 0
M  V30 8146 O 762.189 1.44534 -5.27041 0
M  V30 8147 H 759.283 0.252801 -0.787414 0
M  V30 8148 H 761.829 -0.24242 -1.6796 0
M  V30 8149 H 760.601 -0.228165 -3.90634 0
M  V30 8150 H 760.224 1.47351 -3.69288 0
M  V30 8151 N 761.222 1.57436 0.0718424 0
M  V30 8152 C 762.471 1.86431 0.769826 0
M  V30 8153 C 762.784 0.794355 1.78744 0
M  V30 8154 O 763.99 0.972148 2.53499 0
M  V30 8155 C 762.446 3.307 1.42006 0
M  V30 8156 C 762.054 4.45824 0.441017 0
M  V30 8157 C 763.798 3.68894 2.10041 0
M  V30 8158 C 761.705 5.81134 1.09717 0
M  V30 8159 H 760.635 0.695474 0.291259 0
M  V30 8160 H 763.286 1.83485 0.0231224 0
M  V30 8161 H 761.668 3.28257 2.21502 0
M  V30 8162 H 762.842 4.59659 -0.32413 0
M  V30 8163 H 761.157 4.16181 -0.134886 0
M  V30 8164 H 763.754 4.67281 2.59908 0
M  V30 8165 H 764.097 2.98692 2.89981 0
M  V30 8166 H 764.63 3.73326 1.37376 0
M  V30 8167 H 761.369 6.54628 0.338095 0
M  V30 8168 H 760.889 5.711 1.83317 0
M  V30 8169 H 762.568 6.26468 1.617 0
M  V30 8170 N 762.7 -0.34323 1.53817 0
M  V30 8171 C 763.632 -1.44216 1.78141 0
M  V30 8172 C 764.645 -1.48701 0.662721 0
M  V30 8173 O 765.834 -1.51778 0.939458 0
M  V30 8174 C 762.934 -2.82872 1.86646 0
M  V30 8175 C 762.107 -3.01824 3.16577 0
M  V30 8176 C 761.166 -4.20723 3.16036 0
M  V30 8177 O 760.192 -4.14824 3.89756 0
M  V30 8178 N 761.394 -5.29276 2.38427 0
M  V30 8179 H 764.159 -1.23721 2.72971 0
M  V30 8180 H 761.72 -0.53311 1.52871 0
M  V30 8181 H 763.712 -3.60588 1.83735 0
M  V30 8182 H 762.282 -2.96509 0.990014 0
M  V30 8183 H 761.502 -2.11575 3.3261 0
M  V30 8184 H 762.79 -3.11369 4.02402 0
M  V30 8185 H 762.188 -5.36938 1.78085 0
M  V30 8186 H 760.745 -6.05484 2.41313 0
M  V30 8187 N 764.178 -1.45556 -0.604258 0
M  V30 8188 C 765.426 -1.4945 -1.36048 0
M  V30 8189 C 765.747 -0.138933 -1.94504 0
M  V30 8190 O 765.017 0.832097 -1.7735 0
M  V30 8191 H 763.597 -0.550381 -0.505064 0
M  V30 8192 H 766.259 -1.81535 -0.709308 0
M  V30 8193 H 765.355 -2.23519 -2.17821 0
M  V30 8194 N 765.656 0.84705 -1.32902 0
M  V30 8195 C 766.606 1.94451 -1.19049 0
M  V30 8196 C 767.59 1.60617 -0.095461 0
M  V30 8197 O 768.782 1.74033 -0.322739 0
M  V30 8198 C 765.911 3.30645 -0.923509 0
M  V30 8199 C 764.997 3.70675 -2.0606 0
M  V30 8200 N 765.388 3.82468 -3.30986 0
M  V30 8201 C 763.686 4.00357 -1.96547 0
M  V30 8202 C 764.387 4.17056 -4.05511 0
M  V30 8203 N 763.363 4.28985 -3.33876 0
M  V30 8204 H 767.165 2.01713 -2.1375 0
M  V30 8205 H 764.679 1.03928 -1.24791 0
M  V30 8206 H 766.676 4.0905 -0.805212 0
M  V30 8207 H 765.336 3.24697 0.0150523 0
M  V30 8208 H 766.347 3.66589 -3.65832 0
M  V30 8209 H 763.024 4.02666 -1.10299 0
M  V30 8210 H 764.414 4.33585 -5.13277 0
M  V30 8211 N 767.134 1.16236 1.06428 0
M  V30 8212 C 768.545 0.950942 1.60667 0
M  V30 8213 C 768.896 -0.505491 1.89576 0
M  V30 8214 O 768.021 -1.37843 1.66818 0
M  V30 8215 C 768.616 1.71982 2.91904 0
M  V30 8216 C 767.175 1.55342 3.4285 0
M  V30 8217 C 766.322 1.72942 2.16763 0
M  V30 8218 H 769.273 1.31126 0.893959 0
M  V30 8219 H 769.294 1.19483 3.61253 0
M  V30 8220 H 768.806 2.77978 2.70831 0
M  V30 8221 H 766.907 0.5178 3.68985 0
M  V30 8222 H 767.02 2.33643 4.18267 0
M  V30 8223 H 765.384 1.15673 2.26918 0
M  V30 8224 H 766.167 2.80324 1.98175 0
M  V30 8225 N 768.612 -1.24939 0.960631 0
M  V30 8226 C 769.859 -1.92818 0.618663 0
M  V30 8227 C 770.187 -1.75177 -0.845173 0
M  V30 8228 O 769.442 -1.09412 -1.62258 0
M  V30 8229 C 769.741 -3.45066 0.930809 0
M  V30 8230 C 769.407 -3.82869 2.38164 0
M  V30 8231 C 768.069 -3.92899 2.7782 0
M  V30 8232 C 770.421 -4.01483 3.32356 0
M  V30 8233 C 767.749 -4.18955 4.10723 0
M  V30 8234 C 770.101 -4.29033 4.6488 0
M  V30 8235 C 768.765 -4.37282 5.04322 0
M  V30 8236 H 768.035 -0.705571 0.226385 0
M  V30 8237 H 770.682 -1.48365 1.21079 0
M  V30 8238 H 768.987 -3.9096 0.256355 0
M  V30 8239 H 770.684 -3.95783 0.644712 0
M  V30 8240 H 767.274 -3.75622 2.06413 0
M  V30 8241 H 771.458 -3.93143 3.02907 0
M  V30 8242 H 766.714 -4.23558 4.40918 0
M  V30 8243 H 770.888 -4.42381 5.3784 0
M  V30 8244 H 768.515 -4.57225 6.0733 0
M  V30 8245 N 770.09 -0.729906 -1.39679 0
M  V30 8246 C 771.337 -0.275622 -2.00615 0
M  V30 8247 C 771.665 1.13559 -1.57907 0
M  V30 8248 O 770.92 1.78745 -0.796789 0
M  V30 8249 C 771.219 -0.319564 -3.55968 0
M  V30 8250 C 770.885 -1.68308 -4.1831 0
M  V30 8251 C 769.547 -2.05629 -4.35052 0
M  V30 8252 C 771.899 -2.57857 -4.52945 0
M  V30 8253 C 769.227 -3.32018 -4.83716 0
M  V30 8254 C 771.579 -3.83613 -5.03015 0
M  V30 8255 C 770.243 -4.21033 -5.17965 0
M  V30 8256 H 769.513 -0.100857 -0.734104 0
M  V30 8257 H 772.16 -0.93575 -1.67081 0
M  V30 8258 H 770.465 0.42414 -3.89497 0
M  V30 8259 H 772.162 0.0499905 -4.00969 0
M  V30 8260 H 768.752 -1.3829 -4.05677 0
M  V30 8261 H 772.936 -2.30295 -4.39634 0
M  V30 8262 H 768.192 -3.6096 -4.93475 0
M  V30 8263 H 772.366 -4.53162 -5.28788 0
M  V30 8264 H 769.993 -5.19034 -5.55435 0
M  V30 8265 N 771.568 1.50203 -0.477153 0
M  V30 8266 C 772.984 1.59056 -0.131663 0
M  V30 8267 C 773.184 1.48473 1.36227 0
M  V30 8268 O 772.24 1.34635 2.13611 0
M  V30 8269 C 773.553 2.92741 -0.687254 0
M  V30 8270 C 775.101 3.0615 -0.651223 0
M  V30 8271 C 775.576 4.42419 -1.18446 0
M  V30 8272 N 777.067 4.48847 -1.14413 0
M  V30 8273 C 777.802 5.52689 -1.52717 0
M  V30 8274 N 777.298 6.63754 -1.98499 0
M  V30 8275 N 779.091 5.43267 -1.44282 0
M  V30 8276 H 771.242 1.55325 -1.44872 0
M  V30 8277 H 773.505 0.734395 -0.599473 0
M  V30 8278 H 773.211 3.0598 -1.73405 0
M  V30 8279 H 773.085 3.76961 -0.134215 0
M  V30 8280 H 775.472 2.92556 0.386677 0
M  V30 8281 H 775.553 2.23673 -1.24114 0
M  V30 8282 H 775.197 4.56763 -2.22103 0
M  V30 8283 H 775.127 5.23498 -0.570709 0
M  V30 8284 H 777.618 3.69152 -0.808416 0
M  V30 8285 H 777.931 7.39059 -2.25859 0
M  V30 8286 H 776.276 6.64858 -2.02456 0
M  V30 8287 H 779.467 4.55387 -1.08352 0
M  V30 8288 H 779.64 6.24074 -1.74459 0
M  V30 8289 N 773.046 0.209999 1.56195 0
M  V30 8290 C 773.994 -0.721416 2.2113 0
M  V30 8291 C 774.988 -1.20852 1.18706 0
M  V30 8292 O 776.194 -1.16968 1.36815 0
M  V30 8293 H 772.569 -0.251033 0.708863 0
M  V30 8294 H 774.54 -0.150193 2.98022 0
M  V30 8295 C 773.289 -1.92392 2.89621 0
M  V30 8296 H 772.612 -1.5582 3.68185 0
M  V30 8297 H 774.052 -2.55367 3.38473 0
M  V30 8298 C 772.511 -2.77208 1.91461 0
M  V30 8299 O 773.041 -3.75603 1.42426 0
M  V30 8300 N 771.247 -2.43006 1.59363 0
M  V30 8301 H 770.794 -1.63047 1.99433 0
M  V30 8302 H 770.752 -3.00036 0.939449 0
M  V30 8303 N 774.524 -1.57472 -0.0634922 0
M  V30 8304 C 775.77 -1.87932 -0.762194 0
M  V30 8305 C 776.103 -0.803377 -1.76804 0
M  V30 8306 O 775.378 0.185468 -1.93614 0
M  V30 8307 C 775.661 -3.29053 -1.46275 0
M  V30 8308 C 775.514 -4.47309 -0.472755 0
M  V30 8309 C 776.833 -3.68537 -2.40558 0
M  V30 8310 H 773.952 -0.683521 -0.275624 0
M  V30 8311 H 776.594 -1.89983 -0.0252651 0
M  V30 8312 H 774.744 -3.27435 -2.0909 0
M  V30 8313 H 776.416 -4.61053 0.150828 0
M  V30 8314 H 774.659 -4.33286 0.211187 0
M  V30 8315 H 775.33 -5.42853 -1.00072 0
M  V30 8316 H 777.806 -3.71302 -1.87814 0
M  V30 8317 H 776.682 -4.68152 -2.86574 0
M  V30 8318 H 776.943 -2.98917 -3.25731 0
M  V30 8319 N 776.003 0.335068 -1.53997 0
M  V30 8320 C 777.28 1.09188 -1.62288 0
M  V30 8321 C 777.66 2.0626 -0.449458 0
M  V30 8322 O 777.008 2.21596 0.557444 0
M  V30 8323 C 777.218 1.80403 -2.98757 0
M  V30 8324 C 778.566 2.33841 -3.54406 0
M  V30 8325 O 779.59 1.90487 -3.00987 0
M  V30 8326 O 778.449 3.1318 -4.47862 0
M  V30 8327 H 775.543 0.502621 -0.656736 0
M  V30 8328 H 778.089 0.33588 -1.66343 0
M  V30 8329 H 776.861 1.09732 -3.75599 0
M  V30 8330 H 776.484 2.62841 -2.9833 0
M  V30 8331 N 777.481 1.45874 0.596531 0
M  V30 8332 C 778.727 1.51679 1.35518 0
M  V30 8333 C 779.082 0.160681 1.91728 0
M  V30 8334 O 778.375 -0.828886 1.72743 0
M  V30 8335 C 778.569 2.54034 2.51399 0
M  V30 8336 C 778.398 3.99465 2.06538 0
M  V30 8337 C 777.168 4.67321 1.92196 0
M  V30 8338 C 779.366 4.87674 1.63336 0
M  V30 8339 N 777.348 5.97427 1.41261 0
M  V30 8340 C 778.719 6.07495 1.23895 0
M  V30 8341 C 780.774 4.74442 1.51028 0
M  V30 8342 C 779.477 7.15548 0.733739 0
M  V30 8343 C 781.503 5.82553 1.0191 0
M  V30 8344 C 780.865 7.01537 0.634403 0
M  V30 8345 H 776.964 0.609933 0.489393 0
M  V30 8346 H 779.548 1.82411 0.680746 0
M  V30 8347 H 777.719 2.25235 3.16424 0
M  V30 8348 H 779.451 2.49918 3.18313 0
M  V30 8349 H 776.206 4.22635 2.1372 0
M  V30 8350 H 776.63 6.66638 1.17995 0
M  V30 8351 H 781.272 3.82855 1.79393 0
M  V30 8352 H 778.99 8.06914 0.437656 0
M  V30 8353 H 782.576 5.74352 0.927977 0
M  V30 8354 H 781.456 7.83768 0.26019 0
M  V30 8355 N 778.959 -0.83999 1.33349 0
M  V30 8356 C 780.236 -1.57973 1.15342 0
M  V30 8357 C 780.616 -2.09226 -0.280632 0
M  V30 8358 O 779.964 -1.89317 -1.2795 0
M  V30 8359 C 780.174 -2.71446 2.19359 0
M  V30 8360 C 781.522 -3.40654 2.53456 0
M  V30 8361 O 782.546 -2.81686 2.18017 0
M  V30 8362 O 781.405 -4.47101 3.14266 0
M  V30 8363 H 778.499 -0.6964 0.446044 0
M  V30 8364 H 781.045 -0.882843 1.44927 0
M  V30 8365 H 779.817 -2.31205 3.1569 0
M  V30 8366 H 779.44 -3.488 1.90852 0
M  V30 8367 N 780.437 -1.16799 -1.0581 0
M  V30 8368 C 781.37 -0.822491 -2.12862 0
M  V30 8369 C 782.348 0.208006 -1.61264 0
M  V30 8370 O 783.532 0.0909652 -1.8828 0
M  V30 8371 C 780.659 -0.225826 -3.37946 0
M  V30 8372 C 779.705 -1.23071 -4.08357 0
M  V30 8373 S 780.538 -2.77944 -4.5772 0
M  V30 8374 C 781.694 -2.19741 -5.86059 0
M  V30 8375 H 781.927 -1.72917 -2.41841 0
M  V30 8376 H 779.46 -0.991982 -1.18318 0
M  V30 8377 H 781.418 0.111955 -4.10347 0
M  V30 8378 H 780.079 0.658692 -3.07116 0
M  V30 8379 H 779.272 -0.761758 -4.9821 0
M  V30 8380 H 778.874 -1.51383 -3.41993 0
M  V30 8381 H 781.166 -1.5691 -6.59079 0
M  V30 8382 H 782.109 -3.07823 -6.37692 0
M  V30 8383 H 782.517 -1.63433 -5.40324 0
M  V30 8384 N 781.915 1.24427 -0.967243 0
M  V30 8385 C 782.848 2.23885 -0.441683 0
M  V30 8386 C 783.826 1.55231 0.483963 0
M  V30 8387 O 785.01 1.83865 0.415445 0
M  V30 8388 C 782.137 3.36755 0.362458 0
M  V30 8389 C 781.183 4.23495 -0.505407 0
M  V30 8390 S 782.016 4.98916 -1.94534 0
M  V30 8391 C 783.172 6.15245 -1.14997 0
M  V30 8392 H 783.405 2.68118 -1.28453 0
M  V30 8393 H 780.938 1.337 -0.772243 0
M  V30 8394 H 782.896 4.02218 0.820445 0
M  V30 8395 H 781.557 2.91081 1.18027 0
M  V30 8396 H 780.75 5.03876 0.111979 0
M  V30 8397 H 780.352 3.63032 -0.899104 0
M  V30 8398 H 782.644 6.7629 -0.404769 0
M  V30 8399 H 783.587 6.81343 -1.92814 0
M  V30 8400 H 783.995 5.60455 -0.674543 0
M  V30 8401 N 783.393 0.737304 1.3929 0
M  V30 8402 C 784.303 0.100464 2.34385 0
M  V30 8403 C 785.319 -0.719282 1.58437 0
M  V30 8404 O 786.495 -0.647216 1.90717 0
M  V30 8405 C 783.56 -0.794325 3.37478 0
M  V30 8406 C 782.621 0.0379345 4.29283 0
M  V30 8407 C 781.854 -0.814241 5.27452 0
M  V30 8408 O 782.077 -2.05288 5.32177 0
M  V30 8409 O 781.011 -0.241679 6.01415 0
M  V30 8410 H 784.837 0.885407 2.90507 0
M  V30 8411 H 782.422 0.497999 1.40856 0
M  V30 8412 H 784.304 -1.30622 4.00644 0
M  V30 8413 H 782.979 -1.55804 2.83737 0
M  V30 8414 H 781.886 0.595405 3.69331 0
M  V30 8415 H 783.219 0.763926 4.86236 0
M  V30 8416 N 784.871 -1.49948 0.485112 0
M  V30 8417 C 785.803 -2.26691 -0.338222 0
M  V30 8418 C 786.816 -1.32584 -0.944742 0
M  V30 8419 O 788.005 -1.57989 -0.830772 0
M  V30 8420 C 785.105 -3.04405 -1.48966 0
M  V30 8421 C 784.278 -4.25971 -0.993371 0
M  V30 8422 C 783.337 -4.85861 -2.02052 0
M  V30 8423 O 782.363 -5.46382 -1.59547 0
M  V30 8424 N 783.565 -4.74101 -3.34975 0
M  V30 8425 H 786.33 -2.97989 0.319748 0
M  V30 8426 H 783.891 -1.58772 0.316714 0
M  V30 8427 H 785.883 -3.41348 -2.17403 0
M  V30 8428 H 784.453 -2.35815 -2.05207 0
M  V30 8429 H 783.673 -3.93971 -0.134424 0
M  V30 8430 H 784.961 -5.0476 -0.639934 0
M  V30 8431 H 784.359 -4.26002 -3.72208 0
M  V30 8432 H 782.916 -5.15274 -3.9917 0
M  V30 8433 N 786.349 -0.21828 -1.56081 0
M  V30 8434 C 787.296 0.693189 -2.20144 0
M  V30 8435 C 788.266 1.19274 -1.15598 0
M  V30 8436 O 789.451 1.25243 -1.4394 0
M  V30 8437 C 786.591 1.89715 -2.88275 0
M  V30 8438 C 785.704 1.4368 -4.07407 0
M  V30 8439 C 784.839 2.59807 -4.63329 0
M  V30 8440 C 783.878 2.10492 -5.74769 0
M  V30 8441 N 783.015 3.1988 -6.24997 0
M  V30 8442 H 787.855 0.14016 -2.9767 0
M  V30 8443 H 785.392 0.0574292 -1.46988 0
M  V30 8444 H 787.35 2.60398 -3.25958 0
M  V30 8445 H 785.98 2.42311 -2.13273 0
M  V30 8446 H 785.032 0.625007 -3.7523 0
M  V30 8447 H 786.344 1.03517 -4.8794 0
M  V30 8448 H 785.498 3.38577 -5.03438 0
M  V30 8449 H 784.237 3.03256 -3.81951 0
M  V30 8450 H 783.242 1.30182 -5.34165 0
M  V30 8451 H 784.467 1.68045 -6.5798 0
M  V30 8452 H 782.413 3.62817 -5.46534 0
M  V30 8453 H 782.33 2.83958 -7.00645 0
M  V30 8454 H 783.598 3.98796 -6.69763 0
M  V30 8455 N 787.827 1.57504 0.0551401 0
M  V30 8456 C 788.759 2.0158 1.09078 0
M  V30 8457 C 789.772 0.92434 1.34014 0
M  V30 8458 O 790.961 1.20202 1.31961 0
M  V30 8459 C 788.061 2.35385 2.43818 0
M  V30 8460 C 787.234 3.66588 2.38605 0
M  V30 8461 C 786.293 3.87874 3.55585 0
M  V30 8462 O 785.319 4.59259 3.36258 0
M  V30 8463 N 786.521 3.31503 4.76536 0
M  V30 8464 H 789.286 2.91039 0.71529 0
M  V30 8465 H 786.847 1.60058 0.243532 0
M  V30 8466 H 788.839 2.46784 3.20749 0
M  V30 8467 H 787.409 1.51731 2.73307 0
M  V30 8468 H 786.629 3.65787 1.46947 0
M  V30 8469 H 787.917 4.52706 2.32239 0
M  V30 8470 H 787.315 2.73592 4.9514 0
M  V30 8471 H 785.872 3.48324 5.50921 0
M  V30 8472 N 789.305 -0.326896 1.54172 0
M  V30 8473 C 790.551 -1.06681 1.72473 0
M  V30 8474 C 790.884 -1.87779 0.49523 0
M  V30 8475 O 790.159 -1.87754 -0.507803 0
M  V30 8476 C 790.442 -1.99429 2.99834 0
M  V30 8477 C 790.295 -1.21682 4.33028 0
M  V30 8478 C 791.614 -2.99002 3.22933 0
M  V30 8479 H 788.733 -0.386438 0.627563 0
M  V30 8480 H 791.375 -0.343779 1.86864 0
M  V30 8481 H 789.525 -2.61081 2.87696 0
M  V30 8482 H 791.197 -0.625153 4.57044 0
M  V30 8483 H 789.44 -0.519045 4.30684 0
M  V30 8484 H 790.111 -1.89766 5.18356 0
M  V30 8485 H 792.587 -2.4747 3.34511 0
M  V30 8486 H 791.463 -3.61085 4.13412 0
M  V30 8487 H 791.724 -3.71281 2.40006 0
M  V30 8488 N 790.784 -1.46188 -0.588786 0
M  V30 8489 C 792.03 -1.51407 -1.34921 0
M  V30 8490 C 792.363 -0.162771 -1.93517 0
M  V30 8491 O 791.638 0.825082 -1.76132 0
M  V30 8492 C 791.921 -2.60795 -2.48311 0
M  V30 8493 C 791.774 -4.05435 -1.94789 0
M  V30 8494 C 793.093 -2.66313 -3.50379 0
M  V30 8495 H 790.212 -0.551213 -0.489217 0
M  V30 8496 H 792.854 -1.78095 -0.661993 0
M  V30 8497 H 791.004 -2.3817 -3.06932 0
M  V30 8498 H 792.676 -4.39328 -1.40672 0
M  V30 8499 H 790.919 -4.15202 -1.25659 0
M  V30 8500 H 791.59 -4.77691 -2.76613 0
M  V30 8501 H 794.066 -2.86634 -3.01629 0
M  V30 8502 H 792.942 -3.44681 -4.27184 0
M  V30 8503 H 793.203 -1.72127 -4.07216 0
M  V30 8504 N 792.262 0.832906 -1.33792 0
M  V30 8505 C 793.673 1.40489 -1.22963 0
M  V30 8506 C 794.024 1.95633 0.149026 0
M  V30 8507 O 793.149 1.8928 1.04891 0
M  V30 8508 C 793.744 2.55387 -2.22627 0
M  V30 8509 C 792.303 3.08522 -2.15618 0
M  V30 8510 C 791.45 1.81347 -2.09782 0
M  V30 8511 H 794.401 0.638156 -1.45304 0
M  V30 8512 H 794.422 3.33193 -1.83746 0
M  V30 8513 H 793.934 2.15222 -3.22957 0
M  V30 8514 H 792.035 3.53217 -1.18611 0
M  V30 8515 H 792.148 3.6829 -3.0643 0
M  V30 8516 H 790.512 2.01839 -1.55349 0
M  V30 8517 H 791.295 1.43369 -3.1193 0
M  V30 8518 N 793.74 1.17359 1.05189 0
M  V30 8519 C 795.151 0.96793 1.5965 0
M  V30 8520 C 795.502 -0.485355 1.90102 0
M  V30 8521 O 794.627 -1.36066 1.6827 0
M  V30 8522 C 795.222 1.75068 2.90063 0
M  V30 8523 C 793.781 1.58969 3.41183 0
M  V30 8524 C 792.928 1.75231 2.14917 0
M  V30 8525 H 795.879 1.32067 0.880001 0
M  V30 8526 H 795.9 1.23308 3.59966 0
M  V30 8527 H 795.412 2.80835 2.67868 0
M  V30 8528 H 793.513 0.556906 3.68415 0
M  V30 8529 H 793.626 2.38067 4.15766 0
M  V30 8530 H 791.99 1.18073 2.25679 0
M  V30 8531 H 792.773 2.8241 1.95191 0
M  V30 8532 N 795.218 -1.23913 0.973828 0
M  V30 8533 C 796.465 -1.92151 0.639079 0
M  V30 8534 C 796.793 -1.76064 -0.826545 0
M  V30 8535 O 796.048 -1.11126 -1.61088 0
M  V30 8536 C 796.347 -3.4406 0.967356 0
M  V30 8537 C 796.013 -3.80321 2.42212 0
M  V30 8538 C 794.675 -3.8993 2.81971 0
M  V30 8539 C 797.027 -3.97935 3.36596 0
M  V30 8540 C 794.355 -4.14575 4.15144 0
M  V30 8541 C 796.707 -4.24079 4.69404 0
M  V30 8542 C 795.371 -4.31908 5.08932 0
M  V30 8543 H 794.641 -0.70313 0.233856 0
M  V30 8544 H 797.288 -1.47072 1.22646 0
M  V30 8545 H 795.593 -3.90667 0.297807 0
M  V30 8546 H 797.29 -3.95077 0.686654 0
M  V30 8547 H 793.88 -3.73411 2.10385 0
M  V30 8548 H 798.064 -3.89908 3.07059 0
M  V30 8549 H 793.32 -4.18858 4.45385 0
M  V30 8550 H 797.494 -4.36652 5.42502 0
M  V30 8551 H 795.121 -4.50758 6.12145 0
M  V30 8552 N 796.696 -0.74468 -1.38897 0
M  V30 8553 C 797.643 -0.111064 -2.30533 0
M  V30 8554 C 798.613 0.719276 -1.49719 0
M  V30 8555 O 799.798 0.677244 -1.78376 0
M  V30 8556 C 796.938 0.78292 -3.36102 0
M  V30 8557 C 796.051 -0.0610817 -4.31957 0
M  V30 8558 C 795.186 0.835075 -5.24595 0
M  V30 8559 C 794.225 -0.0130974 -6.12099 0
M  V30 8560 N 793.362 0.839525 -6.97063 0
M  V30 8561 H 798.202 -0.898113 -2.84144 0
M  V30 8562 H 795.739 -0.454537 -1.39901 0
M  V30 8563 H 797.697 1.31578 -3.95908 0
M  V30 8564 H 796.327 1.53585 -2.83922 0
M  V30 8565 H 795.379 -0.711469 -3.73687 0
M  V30 8566 H 796.691 -0.716482 -4.93627 0
M  V30 8567 H 795.845 1.43542 -5.89475 0
M  V30 8568 H 794.584 1.52423 -4.63269 0
M  V30 8569 H 793.589 -0.626179 -5.46223 0
M  V30 8570 H 794.814 -0.699181 -6.75491 0
M  V30 8571 H 792.76 1.5138 -6.38295 0
M  V30 8572 H 792.677 0.240823 -7.55616 0
M  V30 8573 H 793.945 1.42513 -7.66362 0
M  V30 8574 N 798.174 1.49689 -0.493057 0
M  V30 8575 C 799.585 1.8665 -0.0433032 0
M  V30 8576 C 799.936 1.40607 1.36836 0
M  V30 8577 O 799.061 0.780503 2.01834 0
M  V30 8578 C 799.656 3.38724 -0.0718069 0
M  V30 8579 C 798.215 3.75015 0.32257 0
M  V30 8580 C 797.362 2.7366 -0.4478 0
M  V30 8581 H 800.313 1.42119 -0.706246 0
M  V30 8582 H 800.334 3.73522 0.725347 0
M  V30 8583 H 799.846 3.72204 -1.09935 0
M  V30 8584 H 797.947 3.47142 1.35364 0
M  V30 8585 H 798.06 4.79099 0.00864259 0
M  V30 8586 H 796.424 2.54498 0.101354 0
M  V30 8587 H 797.207 3.09985 -1.47527 0
M  V30 8588 N 799.652 0.226554 1.55963 0
M  V30 8589 C 800.6 -0.697922 2.21882 0
M  V30 8590 C 801.594 -1.19586 1.19981 0
M  V30 8591 O 802.8 -1.15511 1.38048 0
M  V30 8592 H 799.175 -0.243501 0.711485 0
M  V30 8593 H 801.146 -0.118576 2.98164 0
M  V30 8594 C 799.895 -1.89309 2.91646 0
M  V30 8595 H 799.218 -1.51906 3.69817 0
M  V30 8596 H 800.658 -2.51762 3.41162 0
M  V30 8597 C 799.117 -2.75162 1.94391 0
M  V30 8598 O 799.647 -3.74071 1.46402 0
M  V30 8599 N 797.853 -2.41302 1.61932 0
M  V30 8600 H 797.4 -1.60923 2.01151 0
M  V30 8601 H 797.358 -2.99023 0.971219 0
M  V30 8602 N 801.13 -1.57531 -0.0467866 0
M  V30 8603 C 802.379 -1.87632 -0.740069 0
M  V30 8604 C 802.692 -0.822691 -1.77457 0
M  V30 8605 O 803.898 -1.01235 -2.5192 0
M  V30 8606 C 802.354 -3.32917 -1.36727 0
M  V30 8607 C 801.962 -4.46469 -0.370035 0
M  V30 8608 C 803.706 -3.72189 -2.04146 0
M  V30 8609 C 801.613 -5.82806 -1.00457 0
M  V30 8610 H 800.543 -0.70002 -0.280158 0
M  V30 8611 H 803.194 -1.83499 0.00607151 0
M  V30 8612 H 801.576 -3.31739 -2.16252 0
M  V30 8613 H 802.75 -4.59085 0.397217 0
M  V30 8614 H 801.065 -4.15914 0.201079 0
M  V30 8615 H 803.662 -4.71357 -2.52441 0
M  V30 8616 H 804.005 -3.03268 -2.85192 0
M  V30 8617 H 804.538 -3.75465 -1.3142 0
M  V30 8618 H 801.277 -6.55083 -0.233907 0
M  V30 8619 H 800.797 -5.73944 -1.74209 0
M  V30 8620 H 802.476 -6.28961 -1.51713 0
M  V30 8621 N 802.608 0.318715 -1.54344 0
M  V30 8622 C 803.833 1.07987 -1.77069 0
M  V30 8623 C 804.258 1.80766 -0.520117 0
M  V30 8624 O 803.616 1.73424 0.528566 0
M  V30 8625 C 803.664 2.04987 -2.96669 0
M  V30 8626 O 802.768 3.12974 -2.68554 0
M  V30 8627 H 802.109 0.311109 -0.586606 0
M  V30 8628 H 804.639 0.361533 -2.0138 0
M  V30 8629 H 804.649 2.47771 -3.2415 0
M  V30 8630 H 803.324 1.51417 -3.87357 0
M  V30 8631 H 801.901 2.74831 -2.52037 0
M  V30 8632 N 804.086 1.46499 0.581025 0
M  V30 8633 C 805.334 1.51596 1.33653 0
M  V30 8634 C 805.655 0.169859 1.94259 0
M  V30 8635 O 804.925 -0.803776 1.78651 0
M  V30 8636 H 803.505 0.558346 0.496244 0
M  V30 8637 H 806.167 1.8264 0.680338 0
M  V30 8638 H 805.263 2.26956 2.14237 0
M  V30 8639 N 805.565 -0.825799 1.34232 0
M  V30 8640 C 806.475 -1.9684 1.27638 0
M  V30 8641 C 807.491 -1.73018 0.184569 0
M  V30 8642 O 808.667 -1.97172 0.410525 0
M  V30 8643 C 805.732 -3.31084 1.02879 0
M  V30 8644 C 804.793 -3.67933 2.21188 0
M  V30 8645 C 804.026 -4.95772 1.976 0
M  V30 8646 O 804.249 -5.62721 0.93281 0
M  V30 8647 O 803.183 -5.30431 2.84477 0
M  V30 8648 H 807.009 -2.05346 2.23756 0
M  V30 8649 H 804.594 -0.960772 1.1441 0
M  V30 8650 H 806.476 -4.11492 0.908406 0
M  V30 8651 H 805.151 -3.23552 0.0979821 0
M  V30 8652 H 804.058 -2.87981 2.38784 0
M  V30 8653 H 805.391 -3.80147 3.12648 0
M  V30 8654 N 807.043 -1.17915 -1.04565 0
M  V30 8655 C 808.29 -0.971424 -1.77678 0
M  V30 8656 C 808.618 0.499401 -1.87979 0
M  V30 8657 O 807.873 1.38695 -1.38066 0
M  V30 8658 C 808.172 -1.56528 -3.213 0
M  V30 8659 C 807.838 -3.06138 -3.31044 0
M  V30 8660 C 806.5 -3.46974 -3.33411 0
M  V30 8661 C 808.852 -4.02151 -3.31548 0
M  V30 8662 C 806.18 -4.82406 -3.33918 0
M  V30 8663 C 808.532 -5.37492 -3.33595 0
M  V30 8664 C 807.196 -5.77782 -3.34251 0
M  V30 8665 H 806.466 -0.355469 -0.650171 0
M  V30 8666 H 809.113 -1.46902 -1.22849 0
M  V30 8667 H 807.418 -0.98955 -3.79098 0
M  V30 8668 H 809.115 -1.38003 -3.76505 0
M  V30 8669 H 805.705 -2.73589 -3.29919 0
M  V30 8670 H 809.889 -3.71656 -3.28916 0
M  V30 8671 H 805.145 -5.12927 -3.3274 0
M  V30 8672 H 809.319 -6.1166 -3.32934 0
M  V30 8673 H 806.946 -6.82702 -3.34397 0
M  V30 8674 N 808.521 1.23394 -0.980386 0
M  V30 8675 C 809.769 1.91431 -0.647978 0
M  V30 8676 C 810.09 1.76871 0.821066 0
M  V30 8677 O 809.36 1.14808 1.58732 0
M  V30 8678 H 807.94 0.708516 -0.236673 0
M  V30 8679 H 810.602 1.50019 -1.2442 0
M  V30 8680 H 809.698 2.98854 -0.899592 0
M  V30 8681 N 809.999 0.752036 1.385 0
M  V30 8682 C 810.929 0.138718 2.33088 0
M  V30 8683 C 811.91 -0.705318 1.54788 0
M  V30 8684 O 813.095 -0.646821 1.83112 0
M  V30 8685 C 810.225 -0.75641 3.38963 0
M  V30 8686 C 809.179 -0.0152239 4.27997 0
M  V30 8687 C 808.505 -1.0285 5.24715 0
M  V30 8688 C 809.805 1.15226 5.09431 0
M  V30 8689 H 811.499 0.928852 2.84627 0
M  V30 8690 H 809.045 0.448111 1.3685 0
M  V30 8691 H 810.998 -1.19513 4.04097 0
M  V30 8692 H 809.722 -1.57885 2.85902 0
M  V30 8693 H 808.381 0.404061 3.64366 0
M  V30 8694 H 808.029 -1.84496 4.67943 0
M  V30 8695 H 807.729 -0.537238 5.85139 0
M  V30 8696 H 809.253 -1.46657 5.92726 0
M  V30 8697 H 810.667 0.791161 5.67815 0
M  V30 8698 H 809.064 1.57428 5.79082 0
M  V30 8699 H 810.134 1.9659 4.43261 0
M  V30 8700 N 811.477 -1.49425 0.500989 0
M  V30 8701 C 812.754 -1.9531 -0.106551 0
M  V30 8702 C 813.134 -1.44248 -1.54129 0
M  V30 8703 O 812.482 -0.656237 -2.18874 0
M  V30 8704 C 812.692 -3.48995 -0.0191972 0
M  V30 8705 C 814.04 -4.24161 -0.193129 0
M  V30 8706 O 815.064 -3.56075 -0.0943843 0
M  V30 8707 O 813.923 -5.45064 -0.395869 0
M  V30 8708 H 811.017 -0.82149 -0.0953068 0
M  V30 8709 H 813.563 -1.6007 0.563526 0
M  V30 8710 H 812.335 -3.78794 0.981353 0
M  V30 8711 H 811.958 -3.90852 -0.72942 0
M  V30 8712 N 812.955 -0.234822 -1.55841 0
M  V30 8713 C 813.903 0.686145 -2.22249 0
M  V30 8714 C 814.897 1.18948 -1.20614 0
M  V30 8715 O 816.103 1.14777 -1.38659 0
M  V30 8716 H 812.478 0.239724 -0.712767 0
M  V30 8717 H 814.449 0.102762 -2.98223 0
M  V30 8718 C 813.198 1.8776 -2.92646 0
M  V30 8719 H 812.521 1.49943 -3.70617 0
M  V30 8720 H 813.961 2.4995 -3.42493 0
M  V30 8721 C 812.42 2.74127 -1.95847 0
M  V30 8722 O 812.95 3.7329 -1.48384 0
M  V30 8723 N 811.156 2.4044 -1.63209 0
M  V30 8724 H 810.703 1.59854 -2.02001 0
M  V30 8725 H 810.661 2.98504 -0.987063 0
M  V30 8726 N 814.433 1.57553 0.0384317 0
M  V30 8727 C 815.68 1.88841 0.731116 0
M  V30 8728 C 816.008 0.83093 1.75857 0
M  V30 8729 O 815.263 -0.169248 1.94967 0
M  V30 8730 C 815.562 3.26862 1.44554 0
M  V30 8731 C 815.228 4.47472 0.554946 0
M  V30 8732 C 813.89 4.80203 0.309621 0
M  V30 8733 C 816.242 5.21165 -0.0605204 0
M  V30 8734 C 813.57 5.8402 -0.560101 0
M  V30 8735 C 815.922 6.25905 -0.91789 0
M  V30 8736 C 814.586 6.57117 -1.17277 0
M  V30 8737 H 813.856 0.691018 0.267534 0
M  V30 8738 H 816.503 1.91498 -0.00883195 0
M  V30 8739 H 814.808 3.2015 2.25856 0
M  V30 8740 H 816.505 3.48316 1.98688 0
M  V30 8741 H 813.095 4.21874 0.756304 0
M  V30 8742 H 817.279 4.96164 0.116064 0
M  V30 8743 H 812.535 6.06583 -0.765974 0
M  V30 8744 H 816.709 6.82155 -1.40136 0
M  V30 8745 H 814.336 7.37385 -1.84843 0
M  V30 8746 N 815.911 -0.310526 1.54511 0
M  V30 8747 C 817.188 -1.06593 1.64004 0
M  V30 8748 C 817.568 -2.05519 0.482216 0
M  V30 8749 O 816.916 -2.22455 -0.52212 0
M  V30 8750 C 817.126 -1.75627 3.01589 0
M  V30 8751 C 818.474 -2.28173 3.58081 0
M  V30 8752 O 819.498 -1.85674 3.03979 0
M  V30 8753 O 818.357 -3.06015 4.52788 0
M  V30 8754 H 815.451 -0.492109 0.664649 0
M  V30 8755 H 817.997 -0.309374 1.66856 0
M  V30 8756 H 816.769 -1.03743 3.77297 0
M  V30 8757 H 816.392 -2.58061 3.02473 0
M  V30 8758 N 817.389 -1.46805 -0.573248 0
M  V30 8759 C 818.614 -1.56433 -1.36175 0
M  V30 8760 C 819.039 -0.209336 -1.86932 0
M  V30 8761 O 818.397 0.812146 -1.62092 0
M  V30 8762 C 818.445 -2.58055 -2.51873 0
M  V30 8763 O 817.549 -2.12214 -3.53609 0
M  V30 8764 H 816.89 -0.526068 -0.405153 0
M  V30 8765 H 819.42 -1.92456 -0.694405 0
M  V30 8766 H 819.43 -2.77966 -2.98662 0
M  V30 8767 H 818.105 -3.56448 -2.14284 0
M  V30 8768 H 816.682 -2.02333 -3.13234 0
M  V30 8769 N 818.867 0.818669 -1.34668 0
M  V30 8770 C 819.799 1.93754 -1.22442 0
M  V30 8771 C 820.812 1.62103 -0.150501 0
M  V30 8772 O 822.001 1.73898 -0.402728 0
M  V30 8773 C 819.101 3.27806 -0.860031 0
M  V30 8774 C 818.274 3.8745 -2.02981 0
M  V30 8775 C 817.333 4.99887 -1.64314 0
M  V30 8776 O 816.359 5.17957 -2.36029 0
M  V30 8777 N 817.561 5.77795 -0.55976 0
M  V30 8778 H 820.326 2.04773 -2.18833 0
M  V30 8779 H 817.887 0.995472 -1.27679 0
M  V30 8780 H 819.879 4.00478 -0.583068 0
M  V30 8781 H 818.449 3.12597 0.0138253 0
M  V30 8782 H 817.669 3.07119 -2.47127 0
M  V30 8783 H 818.957 4.2403 -2.81204 0
M  V30 8784 H 818.355 5.65688 0.0363329 0
M  V30 8785 H 816.912 6.50899 -0.342541 0
M  V30 8786 N 820.346 1.18468 1.03938 0
M  V30 8787 C 821.593 0.980833 1.77161 0
M  V30 8788 C 821.921 -0.489425 1.88242 0
M  V30 8789 O 821.176 -1.37961 1.388 0
M  V30 8790 C 821.475 1.58229 3.20466 0
M  V30 8791 C 821.141 3.07889 3.29416 0
M  V30 8792 C 819.803 3.48737 3.31566 0
M  V30 8793 C 822.155 4.03903 3.29411 0
M  V30 8794 C 819.483 4.84171 3.31355 0
M  V30 8795 C 821.835 5.39253 3.3074 0
M  V30 8796 C 820.499 5.79547 3.31182 0
M  V30 8797 H 819.769 0.358912 0.648277 0
M  V30 8798 H 822.416 1.47552 1.22069 0
M  V30 8799 H 820.721 1.00964 3.78568 0
M  V30 8800 H 822.418 1.39998 3.75768 0
M  V30 8801 H 819.008 2.75335 3.28464 0
M  V30 8802 H 823.192 3.73395 3.2694 0
M  V30 8803 H 818.448 5.14685 3.30015 0
M  V30 8804 H 822.622 6.13417 3.29686 0
M  V30 8805 H 820.249 6.84466 3.30772 0
M  V30 8806 N 821.824 -1.22873 0.986916 0
M  V30 8807 C 823.052 -1.95487 0.677663 0
M  V30 8808 C 823.467 -1.72978 -0.756572 0
M  V30 8809 O 822.824 -1.02517 -1.50985 0
M  V30 8810 C 822.875 -3.48337 0.966638 0
M  V30 8811 O 822.596 -3.70087 2.34451 0
M  V30 8812 C 824.097 -4.38142 0.674248 0
M  V30 8813 H 821.317 -0.622211 0.251185 0
M  V30 8814 H 823.861 -1.56187 1.32007 0
M  V30 8815 H 822.016 -3.85628 0.370137 0
M  V30 8816 H 822.43 -4.64332 2.43918 0
M  V30 8817 H 823.904 -5.44165 0.926759 0
M  V30 8818 H 824.381 -4.3745 -0.391728 0
M  V30 8819 H 824.987 -4.06469 1.25152 0
M  V30 8820 N 823.302 -0.75937 -1.38099 0
M  V30 8821 C 824.25 -0.124954 -2.32264 0
M  V30 8822 C 825.244 0.698863 -1.54312 0
M  V30 8823 O 826.45 0.597312 -1.698 0
M  V30 8824 H 822.825 -0.0216142 -0.751689 0
M  V30 8825 H 824.796 -0.935115 -2.83369 0
M  V30 8826 C 823.545 0.749463 -3.39527 0
M  V30 8827 H 822.868 0.124932 -3.99605 0
M  V30 8828 H 824.308 1.16055 -4.07808 0
M  V30 8829 C 822.767 1.89464 -2.78577 0
M  V30 8830 O 823.297 2.98923 -2.68343 0
M  V30 8831 N 821.503 1.69145 -2.36301 0
M  V30 8832 H 821.05 0.801157 -2.44825 0
M  V30 8833 H 821.008 2.45936 -1.95864 0
M  V30 8834 N 824.78 1.49157 -0.508906 0
M  V30 8835 C 825.69 2.33045 0.269656 0
M  V30 8836 C 826.706 1.45143 0.959662 0
M  V30 8837 O 827.882 1.78155 0.939295 0
M  V30 8838 C 824.947 3.20772 1.31554 0
M  V30 8839 C 824.008 4.24531 0.638131 0
M  V30 8840 C 823.241 5.08065 1.63418 0
M  V30 8841 O 823.464 4.93238 2.86483 0
M  V30 8842 O 822.398 5.90117 1.18516 0
M  V30 8843 H 826.224 3.00821 -0.417183 0
M  V30 8844 H 823.809 1.46938 -0.270119 0
M  V30 8845 H 825.691 3.75095 1.92047 0
M  V30 8846 H 824.366 2.55681 1.98516 0
M  V30 8847 H 823.273 3.74099 -0.00674357 0
M  V30 8848 H 824.606 4.92199 0.0108155 0
M  V30 8849 N 826.258 0.243083 1.55714 0
M  V30 8850 C 827.669 -0.260788 1.8487 0
M  V30 8851 C 828.02 -1.57879 1.16485 0
M  V30 8852 O 827.145 -2.1184 0.441908 0
M  V30 8853 C 827.74 -0.479954 3.35383 0
M  V30 8854 C 826.299 -0.928096 3.64778 0
M  V30 8855 C 825.446 -0.00316416 2.773 0
M  V30 8856 H 828.397 0.465743 1.51712 0
M  V30 8857 H 828.418 -1.32308 3.56756 0
M  V30 8858 H 827.93 0.479468 3.85127 0
M  V30 8859 H 826.031 -1.90012 3.20509 0
M  V30 8860 H 826.144 -0.7876 4.72582 0
M  V30 8861 H 824.508 -0.513849 2.49463 0
M  V30 8862 H 825.291 0.951562 3.29849 0
M  V30 8863 N 827.736 -1.57571 -0.0300757 0
M  V30 8864 C 828.982 -1.89506 -0.722159 0
M  V30 8865 C 829.315 -0.840699 -1.7506 0
M  V30 8866 O 828.59 0.144358 -1.93964 0
M  V30 8867 C 828.873 -3.32081 -1.39262 0
M  V30 8868 C 828.726 -4.48211 -0.377768 0
M  V30 8869 C 830.045 -3.73557 -2.32687 0
M  V30 8870 H 827.164 -0.689213 -0.261064 0
M  V30 8871 H 829.806 -1.89994 0.0150388 0
M  V30 8872 H 827.956 -3.31796 -2.02098 0
M  V30 8873 H 829.628 -4.6063 0.248591 0
M  V30 8874 H 827.871 -4.3274 0.303045 0
M  V30 8875 H 828.542 -5.44854 -0.885347 0
M  V30 8876 H 831.018 -3.75202 -1.79896 0
M  V30 8877 H 829.894 -4.74125 -2.7658 0
M  V30 8878 H 830.155 -3.05759 -3.19317 0
M  V30 8879 N 829.214 0.302327 -1.54673 0
M  V30 8880 C 830.146 1.39443 -1.81902 0
M  V30 8881 C 831.159 1.46891 -0.701914 0
M  V30 8882 O 832.348 1.49233 -0.979369 0
M  V30 8883 C 829.448 2.77824 -1.9408 0
M  V30 8884 C 828.621 2.93324 -3.24468 0
M  V30 8885 C 827.68 4.12196 -3.27079 0
M  V30 8886 O 826.706 4.04344 -4.00617 0
M  V30 8887 N 827.908 5.22768 -2.52376 0
M  V30 8888 H 830.673 1.1644 -2.76155 0
M  V30 8889 H 828.234 0.492392 -1.54231 0
M  V30 8890 H 830.226 3.5559 -1.9323 0
M  V30 8891 H 828.796 2.9378 -1.06828 0
M  V30 8892 H 828.016 2.02682 -3.38103 0
M  V30 8893 H 829.304 3.0059 -4.10516 0
M  V30 8894 H 828.702 5.32027 -1.92259 0
M  V30 8895 H 827.259 5.98874 -2.57281 0
M  V30 8896 N 830.692 1.47107 0.565454 0
M  V30 8897 C 831.622 1.61846 1.68309 0
M  V30 8898 C 832.603 0.468159 1.63531 0
M  V30 8899 O 833.788 0.696504 1.8128 0
M  V30 8900 C 830.918 1.62474 3.06952 0
M  V30 8901 C 829.872 2.76649 3.26572 0
M  V30 8902 C 829.198 2.62345 4.65917 0
M  V30 8903 C 830.498 4.18319 3.12741 0
M  V30 8904 H 832.192 2.55407 1.5623 0
M  V30 8905 H 829.738 1.22916 0.750179 0
M  V30 8906 H 831.691 1.71378 3.84977 0
M  V30 8907 H 830.415 0.654692 3.19971 0
M  V30 8908 H 829.074 2.67242 2.50952 0
M  V30 8909 H 828.722 1.63386 4.75725 0
M  V30 8910 H 828.422 3.38936 4.79996 0
M  V30 8911 H 829.946 2.73165 5.46089 0
M  V30 8912 H 831.36 4.28745 3.80593 0
M  V30 8913 H 829.757 4.95632 3.38333 0
M  V30 8914 H 830.827 4.37263 2.09592 0
M  V30 8915 N 832.17 -0.811516 1.35101 0
M  V30 8916 C 833.398 -1.59981 1.31201 0
M  V30 8917 C 833.813 -1.8847 -0.111552 0
M  V30 8918 O 833.17 -1.48414 -1.06205 0
M  V30 8919 C 833.221 -2.934 2.11184 0
M  V30 8920 O 832.942 -2.66148 3.4799 0
M  V30 8921 C 834.443 -3.87776 2.14813 0
M  V30 8922 H 831.663 -0.496921 0.450899 0
M  V30 8923 H 834.207 -1.00886 1.77883 0
M  V30 8924 H 832.362 -3.49022 1.68115 0
M  V30 8925 H 832.776 -3.51301 3.89471 0
M  V30 8926 H 834.25 -4.7852 2.75178 0
M  V30 8927 H 834.727 -4.23997 1.14556 0
M  V30 8928 H 835.333 -3.3809 2.58022 0
M  V30 8929 N 833.648 -1.19017 -1.03309 0
M  V30 8930 C 835.059 -0.993206 -1.5809 0
M  V30 8931 C 835.41 0.45505 -1.9085 0
M  V30 8932 O 834.535 1.33372 -1.70414 0
M  V30 8933 C 835.13 -1.79661 -2.87241 0
M  V30 8934 C 833.689 -1.64377 -3.38611 0
M  V30 8935 C 832.836 -1.78628 -2.12102 0
M  V30 8936 H 835.787 -1.3345 -0.858879 0
M  V30 8937 H 835.808 -1.29019 -3.57958 0
M  V30 8938 H 835.32 -2.85061 -2.63366 0
M  V30 8939 H 833.421 -0.615447 -3.67482 0
M  V30 8940 H 833.534 -2.44651 -4.11926 0
M  V30 8941 H 831.898 -1.21648 -2.23772 0
M  V30 8942 H 832.681 -2.8548 -1.90673 0
M  V30 8943 N 835.127 1.22348 -0.993418 0
M  V30 8944 C 836.404 1.86632 -0.585495 0
M  V30 8945 C 836.784 1.89156 0.937187 0
M  V30 8946 O 836.132 1.38247 1.81934 0
M  V30 8947 C 836.342 3.27481 -1.20652 0
M  V30 8948 C 837.69 4.03971 -1.30738 0
M  V30 8949 O 838.714 3.3675 -1.16096 0
M  V30 8950 O 837.573 5.24302 -1.54173 0
M  V30 8951 H 834.667 0.802704 -0.198984 0
M  V30 8952 H 837.213 1.30122 -1.08933 0
M  V30 8953 H 835.985 3.20281 -2.24802 0
M  V30 8954 H 835.608 3.91597 -0.688312 0
M  V30 8955 N 836.605 0.766683 1.37694 0
M  V30 8956 C 837.882 0.25366 1.93948 0
M  V30 8957 C 838.262 -1.25041 1.70082 0
M  V30 8958 O 837.61 -2.03115 1.04674 0
M  V30 8959 C 837.82 0.621549 3.43421 0
M  V30 8960 C 839.168 0.588504 4.20502 0
M  V30 8961 O 840.192 0.560632 3.5176 0
M  V30 8962 O 839.051 0.61107 5.43073 0
M  V30 8963 H 836.145 0.0570586 0.825029 0
M  V30 8964 H 838.691 0.847693 1.47011 0
M  V30 8965 H 837.463 1.65979 3.54354 0
M  V30 8966 H 837.086 0.000197027 3.976 0
M  V30 8967 N 838.083 -1.48885 0.516809 0
M  V30 8968 C 839.36 -1.95412 -0.0858293 0
M  V30 8969 C 839.74 -1.45875 -1.5259 0
M  V30 8970 O 839.088 -0.679415 -2.18166 0
M  V30 8971 C 839.298 -3.48995 0.0178194 0
M  V30 8972 C 840.646 -4.24342 -0.14813 0
M  V30 8973 O 841.67 -3.56155 -0.0566125 0
M  V30 8974 O 840.529 -5.45454 -0.338035 0
M  V30 8975 H 837.623 -0.822455 -0.0865884 0
M  V30 8976 H 840.169 -1.59464 0.580472 0
M  V30 8977 H 838.941 -3.77732 1.02147 0
M  V30 8978 H 838.564 -3.91604 -0.687924 0
M  V30 8979 N 839.561 -0.251338 -1.55583 0
M  V30 8980 C 840.838 0.422729 -1.90977 0
M  V30 8981 C 841.218 1.75534 -1.17265 0
M  V30 8982 O 840.566 2.26632 -0.291588 0
M  V30 8983 C 840.776 0.586448 -3.44037 0
M  V30 8984 C 842.124 0.880294 -4.15375 0
M  V30 8985 O 843.148 0.672148 -3.49801 0
M  V30 8986 O 842.007 1.27694 -5.31372 0
M  V30 8987 H 839.101 0.227622 -0.795058 0
M  V30 8988 H 841.647 -0.295733 -1.67103 0
M  V30 8989 H 840.419 -0.352327 -3.89711 0
M  V30 8990 H 840.042 1.35528 -3.73789 0
M  V30 8991 N 841.039 1.57585 0.0217189 0
M  V30 8992 C 842.288 1.88786 0.710125 0
M  V30 8993 C 842.601 0.850819 1.76126 0
M  V30 8994 O 843.807 1.0523 2.50277 0
M  V30 8995 C 842.263 3.3505 1.31413 0
M  V30 8996 C 841.871 4.47001 0.298959 0
M  V30 8997 C 843.615 3.7539 1.98199 0
M  V30 8998 C 841.522 5.8433 0.911727 0
M  V30 8999 H 840.452 0.704388 0.268986 0
M  V30 9000 H 843.103 1.83466 -0.0352638 0
M  V30 9001 H 841.485 3.35138 2.10947 0
M  V30 9002 H 842.659 4.58395 -0.470203 0
M  V30 9003 H 840.974 4.15542 -0.267222 0
M  V30 9004 H 843.571 4.75314 2.4491 0
M  V30 9005 H 843.914 3.07766 2.80331 0
M  V30 9006 H 844.447 3.77508 1.2543 0
M  V30 9007 H 841.186 6.55372 0.129659 0
M  V30 9008 H 840.706 5.76643 1.65056 0
M  V30 9009 H 842.385 6.31295 1.41688 0
M  V30 9010 N 842.517 -0.29412 1.54831 0
M  V30 9011 C 843.763 -1.02999 1.74697 0
M  V30 9012 C 844.096 -1.86687 0.534949 0
M  V30 9013 O 843.371 -1.88789 -0.467863 0
M  V30 9014 C 843.654 -1.93024 3.03996 0
M  V30 9015 C 843.507 -1.1247 4.35512 0
M  V30 9016 C 844.826 -2.92085 3.29203 0
M  V30 9017 H 841.945 -0.373039 0.635618 0
M  V30 9018 H 844.587 -0.304065 1.87551 0
M  V30 9019 H 842.737 -2.5492 2.93169 0
M  V30 9020 H 844.409 -0.528067 4.58268 0
M  V30 9021 H 842.652 -0.427574 4.31688 0
M  V30 9022 H 843.323 -1.78728 5.22265 0
M  V30 9023 H 845.799 -2.40319 3.39685 0
M  V30 9024 H 844.675 -3.52234 4.20978 0
M  V30 9025 H 844.936 -3.66107 2.47827 0
M  V30 9026 N 843.995 -1.47404 -0.557645 0
M  V30 9027 C 845.411 -1.32913 -0.88353 0
M  V30 9028 C 845.611 -0.31929 -1.98954 0
M  V30 9029 O 844.667 0.26934 -2.51059 0
M  V30 9030 C 845.98 -2.72229 -1.27718 0
M  V30 9031 C 847.528 -2.8051 -1.38863 0
M  V30 9032 C 848.003 -4.20466 -1.81583 0
M  V30 9033 N 849.494 -4.23005 -1.88735 0
M  V30 9034 C 850.229 -5.2821 -2.23118 0
M  V30 9035 N 849.725 -6.4372 -2.56117 0
M  V30 9036 N 851.518 -5.15588 -2.23888 0
M  V30 9037 H 843.669 -2.11698 0.172557 0
M  V30 9038 H 845.932 -0.947889 0.0145334 0
M  V30 9039 H 845.638 -3.47556 -0.538329 0
M  V30 9040 H 845.512 -3.03971 -2.23342 0
M  V30 9041 H 847.899 -2.05457 -2.11829 0
M  V30 9042 H 847.98 -2.52423 -0.414274 0
M  V30 9043 H 847.624 -4.96025 -1.09187 0
M  V30 9044 H 847.554 -4.45977 -2.80021 0
M  V30 9045 H 850.045 -3.39674 -1.65621 0
M  V30 9046 H 850.358 -7.19754 -2.81378 0
M  V30 9047 H 848.703 -6.47041 -2.53698 0
M  V30 9048 H 851.894 -4.24374 -1.97546 0
M  V30 9049 H 852.067 -5.97685 -2.50353 0
M  V30 9050 N 845.473 0.80434 -1.35529 0
M  V30 9051 C 846.42 1.91629 -1.28635 0
M  V30 9052 C 847.39 1.65348 -0.157862 0
M  V30 9053 O 848.575 1.87711 -0.341934 0
M  V30 9054 C 845.715 3.28207 -1.0665 0
M  V30 9055 C 844.828 3.66659 -2.28441 0
M  V30 9056 C 843.963 4.92279 -1.99588 0
M  V30 9057 C 843.002 5.23365 -3.1742 0
M  V30 9058 N 842.139 6.40165 -2.88328 0
M  V30 9059 H 846.979 1.96858 -2.23721 0
M  V30 9060 H 844.516 0.962871 -1.11208 0
M  V30 9061 H 846.474 4.06945 -0.919343 0
M  V30 9062 H 845.104 3.22441 -0.152253 0
M  V30 9063 H 844.156 2.83164 -2.54013 0
M  V30 9064 H 845.468 3.8559 -3.1642 0
M  V30 9065 H 844.622 5.78847 -1.81715 0
M  V30 9066 H 843.361 4.75387 -1.08896 0
M  V30 9067 H 842.366 4.35285 -3.35867 0
M  V30 9068 H 843.591 5.42185 -4.08916 0
M  V30 9069 H 841.537 6.24694 -2.00233 0
M  V30 9070 H 841.454 6.59357 -3.69843 0
M  V30 9071 H 842.722 7.29755 -2.74002 0
M  V30 9072 N 846.951 1.19563 1.02676 0
M  V30 9073 C 848.2 0.993864 1.75514 0
M  V30 9074 C 848.513 -0.475882 1.89723 0
M  V30 9075 O 849.719 -0.796525 2.59553 0
M  V30 9076 C 848.175 1.72937 3.15628 0
M  V30 9077 C 847.783 3.23937 3.09466 0
M  V30 9078 C 849.527 1.61092 3.92746 0
M  V30 9079 C 847.434 3.90067 4.44524 0
M  V30 9080 H 846.364 0.368244 0.657961 0
M  V30 9081 H 849.015 1.43081 1.14891 0
M  V30 9082 H 847.397 1.22025 3.76731 0
M  V30 9083 H 848.571 3.81983 2.57731 0
M  V30 9084 H 846.886 3.3608 2.45843 0
M  V30 9085 H 849.483 2.07848 4.92649 0
M  V30 9086 H 849.826 0.565415 4.12442 0
M  V30 9087 H 850.359 2.09361 3.3825 0
M  V30 9088 H 847.098 4.94725 4.30032 0
M  V30 9089 H 846.618 3.36809 4.96306 0
M  V30 9090 H 848.297 3.93736 5.13401 0
M  V30 9091 N 848.429 -1.21819 0.999893 0
M  V30 9092 C 849.706 -1.86318 0.595384 0
M  V30 9093 C 850.086 -1.8965 -0.927143 0
M  V30 9094 O 849.434 -1.3921 -1.81199 0
M  V30 9095 C 849.644 -3.26837 1.22387 0
M  V30 9096 C 850.992 -4.03272 1.32878 0
M  V30 9097 O 852.016 -3.36129 1.1788 0
M  V30 9098 O 850.875 -5.23477 1.56952 0
M  V30 9099 H 847.969 -0.801638 0.203238 0
M  V30 9100 H 850.515 -1.29542 1.09622 0
M  V30 9101 H 849.287 -3.19084 2.26497 0
M  V30 9102 H 848.91 -3.91226 0.709069 0
M  V30 9103 N 849.908 -0.773975 -1.37286 0
M  V30 9104 C 850.84 -0.119938 -2.28886 0
M  V30 9105 C 851.853 0.661822 -1.48741 0
M  V30 9106 O 853.042 0.499548 -1.71367 0
M  V30 9107 C 850.142 0.853703 -3.27971 0
M  V30 9108 C 849.315 0.125286 -4.37221 0
M  V30 9109 C 848.374 1.01261 -5.16365 0
M  V30 9110 O 847.4 0.475565 -5.6721 0
M  V30 9111 N 848.602 2.33864 -5.31308 0
M  V30 9112 H 851.367 -0.906702 -2.85655 0
M  V30 9113 H 848.928 -0.626519 -1.49286 0
M  V30 9114 H 850.92 1.4508 -3.77801 0
M  V30 9115 H 849.49 1.54142 -2.71954 0
M  V30 9116 H 848.71 -0.652742 -3.88758 0
M  V30 9117 H 849.998 -0.377959 -5.07394 0
M  V30 9118 H 849.396 2.79929 -4.91585 0
M  V30 9119 H 847.953 2.88575 -5.84438 0
M  V30 9120 N 851.386 1.48609 -0.524698 0
M  V30 9121 C 852.611 2.07398 0.00952139 0
M  V30 9122 C 853.036 1.37939 1.27884 0
M  V30 9123 O 852.394 0.443633 1.75788 0
M  V30 9124 C 852.442 3.59916 0.221956 0
M  V30 9125 O 851.546 3.91647 1.29175 0
M  V30 9126 H 850.887 0.662981 -0.0367729 0
M  V30 9127 H 853.417 1.91092 -0.7311 0
M  V30 9128 H 853.427 4.05552 0.446236 0
M  V30 9129 H 852.102 4.09876 -0.705306 0
M  V30 9130 H 850.679 3.57796 1.05055 0
M  V30 9131 N 852.864 0.259585 1.55447 0
M  V30 9132 C 853.774 -0.645026 2.25558 0
M  V30 9133 C 854.79 -1.18291 1.27606 0
M  V30 9134 O 855.966 -1.21649 1.6051 0
M  V30 9135 C 853.031 -1.81964 2.9511 0
M  V30 9136 C 852.092 -1.31997 4.08504 0
M  V30 9137 C 851.325 -2.43861 4.74729 0
M  V30 9138 O 851.548 -3.62876 4.40088 0
M  V30 9139 O 850.482 -2.12898 5.6299 0
M  V30 9140 H 854.308 -0.0775399 3.03601 0
M  V30 9141 H 851.893 0.0275859 1.49375 0
M  V30 9142 H 853.775 -2.50485 3.38873 0
M  V30 9143 H 852.45 -2.37451 2.19997 0
M  V30 9144 H 851.357 -0.601676 3.6923 0
M  V30 9145 H 852.69 -0.811045 4.85472 0
M  V30 9146 N 854.342 -1.57594 -0.0133615 0
M  V30 9147 C 855.589 -1.8998 -0.70098 0
M  V30 9148 C 855.917 -0.858802 -1.74513 0
M  V30 9149 O 855.172 0.138209 -1.95211 0
M  V30 9150 C 855.471 -3.29121 -1.39336 0
M  V30 9151 C 855.137 -4.48298 -0.483687 0
M  V30 9152 C 853.799 -4.80635 -0.233186 0
M  V30 9153 C 856.151 -5.21003 0.143426 0
M  V30 9154 C 853.479 -5.83055 0.652943 0
M  V30 9155 C 855.831 -6.24366 1.01735 0
M  V30 9156 C 854.495 -6.55168 1.27716 0
M  V30 9157 H 853.765 -0.695187 -0.256507 0
M  V30 9158 H 856.412 -1.9146 0.0392965 0
M  V30 9159 H 854.717 -3.23703 -2.20735 0
M  V30 9160 H 856.414 -3.51433 -1.93121 0
M  V30 9161 H 853.004 -4.23024 -0.689092 0
M  V30 9162 H 857.188 -4.96286 -0.0371139 0
M  V30 9163 H 852.444 -6.05288 0.862379 0
M  V30 9164 H 856.618 -6.79839 1.5097 0
M  V30 9165 H 854.245 -7.34351 1.9655 0
M  V30 9166 N 855.82 0.285905 -1.54985 0
M  V30 9167 C 856.73 1.37534 -1.90057 0
M  V30 9168 C 857.746 1.54707 -0.796348 0
M  V30 9169 O 858.922 1.69082 -1.09423 0
M  V30 9170 C 855.987 2.7167 -2.15398 0
M  V30 9171 C 855.048 2.63354 -3.39033 0
M  V30 9172 C 854.281 3.91093 -3.63155 0
M  V30 9173 O 854.504 4.91169 -2.90015 0
M  V30 9174 O 853.438 3.92075 -4.56685 0
M  V30 9175 H 857.264 1.10791 -2.8277 0
M  V30 9176 H 854.849 0.483303 -1.41367 0
M  V30 9177 H 856.731 3.51006 -2.33179 0
M  V30 9178 H 855.406 2.98226 -1.25868 0
M  V30 9179 H 854.313 1.82438 -3.26599 0
M  V30 9180 H 855.646 2.41749 -4.2874 0
M  V30 9181 N 857.298 1.47698 0.54982 0
M  V30 9182 C 858.546 1.54397 1.30407 0
M  V30 9183 C 858.867 0.211026 1.93855 0
M  V30 9184 O 858.137 -0.765701 1.80316 0
M  V30 9185 H 856.717 0.568747 0.484289 0
M  V30 9186 H 859.379 1.84042 0.641444 0
M  V30 9187 H 858.475 2.31449 2.09375 0
M  V30 9188 N 858.776 -0.797141 1.35954 0
M  V30 9189 C 860.023 -1.55468 1.29754 0
M  V30 9190 C 860.351 -1.94095 -0.125391 0
M  V30 9191 O 859.606 -1.62341 -1.09288 0
M  V30 9192 C 859.905 -2.84847 2.15863 0
M  V30 9193 C 859.571 -2.65394 3.64523 0
M  V30 9194 C 858.233 -2.59796 4.05042 0
M  V30 9195 C 860.585 -2.4727 4.58811 0
M  V30 9196 C 857.913 -2.3403 5.38002 0
M  V30 9197 C 860.265 -2.23032 5.91979 0
M  V30 9198 C 858.929 -2.15862 6.31633 0
M  V30 9199 H 858.199 -0.568897 0.474803 0
M  V30 9200 H 860.846 -0.920299 1.67937 0
M  V30 9201 H 859.151 -3.52712 1.70591 0
M  V30 9202 H 860.848 -3.42597 2.08395 0
M  V30 9203 H 857.438 -2.70602 3.32374 0
M  V30 9204 H 861.622 -2.506 4.28384 0
M  V30 9205 H 856.878 -2.26956 5.67715 0
M  V30 9206 H 861.052 -2.08001 6.64612 0
M  V30 9207 H 858.679 -1.9566 7.34589 0
M  V30 9208 N 860.254 -1.20106 -1.0204 0
M  V30 9209 C 861.164 -0.962051 -2.13967 0
M  V30 9210 C 862.18 0.0808053 -1.73812 0
M  V30 9211 O 863.356 -0.105774 -2.01122 0
M  V30 9212 C 860.421 -0.513108 -3.42882 0
M  V30 9213 C 859.482 -1.62636 -3.97301 0
M  V30 9214 C 858.715 -1.19875 -5.20063 0
M  V30 9215 O 858.938 -0.0658423 -5.70362 0
M  V30 9216 O 857.872 -2.00467 -5.67536 0
M  V30 9217 H 861.698 -1.8991 -2.36998 0
M  V30 9218 H 859.283 -0.984608 -1.12365 0
M  V30 9219 H 861.165 -0.271797 -4.20523 0
M  V30 9220 H 859.84 0.395402 -3.21276 0
M  V30 9221 H 858.747 -1.92192 -3.20957 0
M  V30 9222 H 860.08 -2.51174 -4.23288 0
M  V30 9223 N 861.732 1.21287 -1.00634 0
M  V30 9224 C 862.962 1.94103 -0.70765 0
M  V30 9225 C 863.37 1.74382 0.733991 0
M  V30 9226 O 862.713 1.04843 1.50843 0
M  V30 9227 C 862.775 3.46705 -0.950581 0
M  V30 9228 C 862.439 3.90176 -2.37932 0
M  V30 9229 C 863.436 3.96769 -3.35961 0
M  V30 9230 C 861.121 4.22453 -2.71733 0
M  V30 9231 C 863.115 4.35034 -4.65858 0
M  V30 9232 C 860.802 4.60394 -4.01846 0
M  V30 9233 C 861.8 4.66656 -4.9872 0
M  V30 9234 O 861.488 5.03732 -6.26505 0
M  V30 9235 H 861.22 0.62405 -0.259881 0
M  V30 9236 H 863.774 1.55015 -1.34757 0
M  V30 9237 H 862.004 3.85868 -0.253492 0
M  V30 9238 H 863.693 4.00741 -0.645069 0
M  V30 9239 H 864.459 3.72009 -3.11182 0
M  V30 9240 H 860.338 4.16776 -1.97025 0
M  V30 9241 H 863.882 4.39836 -5.4147 0
M  V30 9242 H 859.779 4.84609 -4.26409 0
M  V30 9243 H 860.547 5.21761 -6.30641 0
M  V30 9244 N 863.21 0.781244 1.36873 0
M  V30 9245 C 864.459 0.34652 1.98701 0
M  V30 9246 C 864.772 -1.08555 1.62712 0
M  V30 9247 O 865.978 -1.62213 2.17713 0
M  V30 9248 C 864.434 0.568611 3.5538 0
M  V30 9249 C 864.042 2.01156 4.003 0
M  V30 9250 C 865.786 0.197983 4.24038 0
M  V30 9251 C 863.693 2.18074 5.49725 0
M  V30 9252 H 862.623 0.125821 0.743428 0
M  V30 9253 H 865.274 0.961721 1.56279 0
M  V30 9254 H 863.656 -0.116185 3.9583 0
M  V30 9255 H 864.83 2.73209 3.71071 0
M  V30 9256 H 863.145 2.33967 3.44454 0
M  V30 9257 H 865.742 0.302778 5.33842 0
M  V30 9258 H 866.085 -0.852927 4.07469 0
M  V30 9259 H 866.618 0.835696 3.88923 0
M  V30 9260 H 863.357 3.21519 5.71232 0
M  V30 9261 H 862.877 1.50517 5.80607 0
M  V30 9262 H 864.556 1.98393 6.15832 0
M  V30 9263 N 864.689 -1.48329 0.532571 0
M  V30 9264 C 865.637 -2.31336 -0.242133 0
M  V30 9265 C 866.631 -1.41391 -0.933006 0
M  V30 9266 O 867.837 -1.58284 -0.857096 0
M  V30 9267 H 864.212 -0.745724 -0.0969536 0
M  V30 9268 H 866.183 -2.94555 0.477504 0
M  V30 9269 C 864.932 -3.23501 -1.27446 0
M  V30 9270 H 864.255 -3.92659 -0.752261 0
M  V30 9271 H 865.695 -3.84461 -1.78789 0
M  V30 9272 C 864.154 -2.45288 -2.30944 0
M  V30 9273 O 864.684 -2.17955 -3.37429 0
M  V30 9274 N 862.89 -2.06737 -2.04226 0
M  V30 9275 H 862.437 -2.29166 -1.17647 0
M  V30 9276 H 862.395 -1.54719 -2.73696 0
M  V30 9277 N 866.167 -0.267825 -1.55308 0
M  V30 9278 C 867.578 0.231344 -1.85261 0
M  V30 9279 C 867.929 1.56006 -1.18982 0
M  V30 9280 O 867.054 2.1111 -0.475554 0
M  V30 9281 C 867.649 0.426537 -3.36104 0
M  V30 9282 C 866.208 0.869945 -3.66209 0
M  V30 9283 C 865.355 -0.0409522 -2.7727 0
M  V30 9284 H 868.306 -0.489821 -1.50952 0
M  V30 9285 H 868.327 1.26616 -3.58816 0
M  V30 9286 H 867.839 -0.540678 -3.84315 0
M  V30 9287 H 865.94 1.84889 -3.23492 0
M  V30 9288 H 866.053 0.712316 -4.73775 0
M  V30 9289 H 864.417 0.474097 -2.50249 0
M  V30 9290 H 865.2 -1.00392 -3.28293 0
M  V30 9291 N 867.645 1.57599 0.00500368 0
M  V30 9292 C 868.575 2.11143 0.99705 0
M  V30 9293 C 869.556 1.0194 1.3617 0
M  V30 9294 O 870.741 1.29596 1.44632 0
M  V30 9295 C 867.871 2.61062 2.2905 0
M  V30 9296 C 866.825 3.74745 2.0676 0
M  V30 9297 C 866.151 4.10961 3.42075 0
M  V30 9298 C 867.451 5.02222 1.43424 0
M  V30 9299 H 869.145 2.94281 0.551251 0
M  V30 9300 H 866.691 1.41565 0.263715 0
M  V30 9301 H 868.644 2.97146 2.98801 0
M  V30 9302 H 867.368 1.75038 2.75734 0
M  V30 9303 H 866.027 3.39047 1.39436 0
M  V30 9304 H 865.675 3.21968 3.86453 0
M  V30 9305 H 865.375 4.87549 3.27979 0
M  V30 9306 H 866.899 4.49599 4.1315 0
M  V30 9307 H 868.313 5.36109 2.03125 0
M  V30 9308 H 866.71 5.83581 1.39831 0
M  V30 9309 H 867.78 4.83224 0.40285 0
M  V30 9310 N 869.123 -0.277682 1.55134 0
M  V30 9311 C 870.053 -1.34742 1.90701 0
M  V30 9312 C 871.034 -1.51757 0.768354 0
M  V30 9313 O 872.219 -1.64879 1.02609 0
M  V30 9314 C 869.349 -2.70775 2.17481 0
M  V30 9315 C 868.303 -2.68497 3.33307 0
M  V30 9316 C 867.629 -4.08037 3.45557 0
M  V30 9317 C 868.929 -2.28178 4.69821 0
M  V30 9318 H 870.623 -1.05224 2.803 0
M  V30 9319 H 868.169 -0.504738 1.34864 0
M  V30 9320 H 870.122 -3.45719 2.40949 0
M  V30 9321 H 868.846 -3.01867 1.24676 0
M  V30 9322 H 867.505 -1.9601 3.09799 0
M  V30 9323 H 867.153 -4.36344 2.50226 0
M  V30 9324 H 866.853 -4.07409 4.23429 0
M  V30 9325 H 868.377 -4.84726 3.71312 0
M  V30 9326 H 869.791 -2.92843 4.92865 0
M  V30 9327 H 868.188 -2.3872 5.50575 0
M  V30 9328 H 869.258 -1.23308 4.6896 0
M  V30 9329 N 870.601 -1.47988 -0.541979 0
M  V30 9330 C 871.534 -1.56172 -1.66389 0
M  V30 9331 C 872.512 -0.412879 -1.57271 0
M  V30 9332 O 873.696 -0.622816 -1.77914 0
M  V30 9333 C 870.823 -1.47851 -3.04726 0
M  V30 9334 C 869.869 -2.67428 -3.32242 0
M  V30 9335 S 870.702 -4.29502 -3.19825 0
M  V30 9336 C 871.858 -4.2376 -4.60628 0
M  V30 9337 H 872.091 -2.51086 -1.59195 0
M  V30 9338 H 869.624 -1.36373 -0.724005 0
M  V30 9339 H 871.582 -1.43738 -3.84512 0
M  V30 9340 H 870.243 -0.542958 -3.09372 0
M  V30 9341 H 869.436 -2.57711 -4.33129 0
M  V30 9342 H 869.038 -2.68743 -2.60103 0
M  V30 9343 H 871.33 -3.92953 -5.51901 0
M  V30 9344 H 872.273 -5.24786 -4.75401 0
M  V30 9345 H 872.681 -3.54398 -4.39389 0
M  V30 9346 N 872.079 0.78992 -1.36375 0
M  V30 9347 C 873.304 1.58389 -1.33895 0
M  V30 9348 C 873.729 1.8794 0.0774934 0
M  V30 9349 O 873.087 1.4785 1.0493 0
M  V30 9350 C 873.135 2.88201 -2.16732 0
M  V30 9351 O 872.239 3.81778 -1.55946 0
M  V30 9352 H 871.58 0.480471 -0.458305 0
M  V30 9353 H 874.11 0.979119 -1.79651 0
M  V30 9354 H 874.12 3.37475 -2.29292 0
M  V30 9355 H 872.795 2.66019 -3.19698 0
M  V30 9356 H 871.372 3.40371 -1.52323 0
M  V30 9357 N 873.557 1.20646 1.01402 0
M  V30 9358 C 874.52 0.959314 2.08158 0
M  V30 9359 C 875.52 -0.0661558 1.60664 0
M  V30 9360 O 876.71 0.170177 1.73367 0
M  V30 9361 C 873.842 0.444785 3.37986 0
M  V30 9362 H 875.035 1.90631 2.31517 0
M  V30 9363 H 872.588 1.02219 1.18241 0
M  V30 9364 H 873.323 -0.507553 3.20304 0
M  V30 9365 H 873.108 1.18435 3.73785 0
M  V30 9366 H 874.598 0.291443 4.16582 0
M  V30 9367 N 875.035 -1.20752 1.01276 0
M  V30 9368 C 875.945 -2.27079 0.589277 0
M  V30 9369 C 876.961 -1.6999 -0.371389 0
M  V30 9370 O 878.137 -2.00044 -0.233294 0
M  V30 9371 C 875.202 -3.4663 -0.0696715 0
M  V30 9372 C 874.263 -4.18962 0.936454 0
M  V30 9373 C 873.496 -5.32806 0.308856 0
M  V30 9374 O 873.719 -5.63376 -0.8924 0
M  V30 9375 O 872.653 -5.93131 1.02367 0
M  V30 9376 H 876.479 -2.6551 1.47438 0
M  V30 9377 H 874.064 -1.27297 0.782045 0
M  V30 9378 H 875.946 -4.19119 -0.437873 0
M  V30 9379 H 874.621 -3.10082 -0.929029 0
M  V30 9380 H 873.528 -3.48661 1.35595 0
M  V30 9381 H 874.861 -4.59441 1.76565 0
M  V30 9382 N 876.513 -0.788492 -1.36457 0
M  V30 9383 C 877.423 -0.187385 -2.3385 0
M  V30 9384 C 878.439 0.659984 -1.60998 0
M  V30 9385 O 879.615 0.575986 -1.92988 0
M  V30 9386 C 876.68 0.668525 -3.40194 0
M  V30 9387 C 875.741 -0.197234 -4.28847 0
M  V30 9388 C 874.974 0.61792 -5.30111 0
M  V30 9389 O 875.197 1.85396 -5.3943 0
M  V30 9390 O 874.131 0.0183016 -6.01897 0
M  V30 9391 H 877.957 -0.992617 -2.87021 0
M  V30 9392 H 875.542 -0.549934 -1.3891 0
M  V30 9393 H 877.424 1.15663 -4.05216 0
M  V30 9394 H 876.099 1.45166 -2.89324 0
M  V30 9395 H 875.006 -0.73207 -3.66867 0
M  V30 9396 H 876.339 -0.943863 -4.83065 0
M  V30 9397 N 877.991 1.48044 -0.54043 0
M  V30 9398 C 879.231 2.04396 -0.012296 0
M  V30 9399 C 879.595 1.40748 1.30591 0
M  V30 9400 O 880.796 1.88048 1.92072 0
M  V30 9401 C 879.067 3.5727 0.0964302 0
M  V30 9402 S 880.626 4.35041 0.573117 0
M  V30 9403 H 877.444 0.710795 -0.0170735 0
M  V30 9404 H 880.046 1.81625 -0.723362 0
M  V30 9405 H 878.75 4.01124 -0.86762 0
M  V30 9406 H 878.281 3.84511 0.83156 0
M  V30 9407 H 880.296 4.6099 1.83583 0
M  V30 9408 N 879.47 0.276058 1.55163 0
M  V30 9409 C 880.716 -0.340959 1.99913 0
M  V30 9410 C 881.049 -1.55434 1.16422 0
M  V30 9411 O 880.324 -1.93081 0.234517 0
M  V30 9412 C 880.607 -0.722211 3.52783 0
M  V30 9413 C 880.46 0.498575 4.47028 0
M  V30 9414 C 881.779 -1.5583 4.11589 0
M  V30 9415 H 878.898 -0.122455 0.726756 0
M  V30 9416 H 881.54 0.38319 1.86096 0
M  V30 9417 H 879.69 -1.33919 3.64689 0
M  V30 9418 H 881.362 1.13713 4.47065 0
M  V30 9419 H 879.605 1.13646 4.18649 0
M  V30 9420 H 880.276 0.188041 5.5168 0
M  V30 9421 H 882.752 -1.03722 4.02965 0
M  V30 9422 H 881.628 -1.79387 5.1876 0
M  V30 9423 H 881.889 -2.53963 3.61877 0
M  V30 9424 O 880.987 -1.60877 0.141725 0
M  V30 9425 H 881.678 -1.88325 -0.453148 0
M  V30 END ATOM
M  V30 BEGIN BOND
M  V30 END BOND
M  V30 END CTAB
M  END
$$$$
