drugbank_target|P41789 Nitrogen regulation protein NR(I) (DB01857)
 OpenBabel12092119513D

  0  0  0     0  0            999 V3000
M  V30 BEGIN CTAB
M  V30 COUNTS 7383 7456 0 0 0
M  V30 BEGIN ATOM
M  V30 1 H -0.908 1.98254 -0.117106 0
M  V30 2 N 0 1.576 0 0
M  V30 3 C 0.933 2.03868 1.02534 0
M  V30 4 C 1.911 0.928543 1.3348 0
M  V30 5 O 3.095 1.19667 1.45644 0
M  V30 6 C 0.222 2.43627 2.35294 0
M  V30 7 C -0.732 3.65373 2.2001 0
M  V30 8 S 0.101 5.13292 1.52614 0
M  V30 9 C 1.257 5.56322 2.86805 0
M  V30 10 H 1.49 2.90518 0.631377 0
M  V30 11 H -0.977 1.52953 0.210867 0
M  V30 12 H 0.981 2.67203 3.11629 0
M  V30 13 H -0.358 1.57376 2.7183 0
M  V30 14 H -1.165 3.90944 3.18086 0
M  V30 15 H -1.563 3.418 1.51819 0
M  V30 16 H 0.729 5.58782 3.83104 0
M  V30 17 H 1.672 6.56266 2.65933 0
M  V30 18 H 2.08 4.83886 2.90714 0
M  V30 19 N 1.4781 -0.272755 1.55222 0
M  V30 20 C 2.4101 -1.35946 1.8453 0
M  V30 21 C 3.4231 -1.45525 0.729818 0
M  V30 22 O 4.6121 -1.47337 1.00767 0
M  V30 23 C 1.7121 -2.74069 1.99347 0
M  V30 24 C 0.8851 -2.87079 3.30007 0
M  V30 25 C -0.0559 -4.05879 3.34886 0
M  V30 26 O -1.0299 -3.96626 4.08261 0
M  V30 27 N 0.1721 -5.17857 2.62307 0
M  V30 28 H 2.9371 -1.11149 2.78327 0
M  V30 29 H 0.4981 -0.462869 1.55142 0
M  V30 30 H 2.4901 -3.51838 1.99981 0
M  V30 31 H 1.0601 -2.91688 1.12415 0
M  V30 32 H 0.2801 -1.96193 3.41909 0
M  V30 33 H 1.5681 -2.92701 4.16177 0
M  V30 34 H 0.9661 -5.28261 2.02377 0
M  V30 35 H -0.4769 -5.93855 2.68663 0
M  V30 36 N 2.9562 -1.48159 -0.537278 0
M  V30 37 C 4.3722 -1.34118 -0.865129 0
M  V30 38 C 4.5722 -0.346678 -1.98495 0
M  V30 39 O 3.6282 0.234715 -2.51407 0
M  V30 40 C 4.9412 -2.73963 -1.23954 0
M  V30 41 C 6.4892 -2.82397 -1.34984 0
M  V30 42 C 6.9642 -4.22928 -1.75772 0
M  V30 43 N 8.4552 -4.25566 -1.82887 0
M  V30 44 C 9.1902 -5.31235 -2.15817 0
M  V30 45 N 8.6862 -6.47189 -2.47222 0
M  V30 46 N 10.4792 -5.18624 -2.16761 0
M  V30 47 H 2.6302 -2.1144 0.201715 0
M  V30 48 H 4.8932 -0.947598 0.0275949 0
M  V30 49 H 4.5992 -3.48264 -0.490381 0
M  V30 50 H 4.4732 -3.0702 -2.19132 0
M  V30 51 H 6.8602 -2.08356 -2.08978 0
M  V30 52 H 6.9412 -2.5297 -0.379448 0
M  V30 53 H 6.5852 -4.97482 -1.02341 0
M  V30 54 H 6.5152 -4.49794 -2.73848 0
M  V30 55 H 9.0062 -3.41924 -1.60924 0
M  V30 56 H 9.3192 -7.23564 -2.71433 0
M  V30 57 H 7.6642 -6.50476 -2.44757 0
M  V30 58 H 10.8552 -4.27056 -1.91679 0
M  V30 59 H 11.0282 -6.01078 -2.42093 0
M  V30 60 N 4.4343 0.785586 -1.36625 0
M  V30 61 C 5.6823 1.54057 -1.30808 0
M  V30 62 C 6.0033 1.94683 0.111157 0
M  V30 63 O 5.2733 1.65241 1.05224 0
M  V30 64 H 3.8533 0.571354 -0.481211 0
M  V30 65 H 6.5153 0.935821 -1.70963 0
M  V30 66 H 5.6113 2.44637 -1.93801 0
M  V30 67 N 5.9124 1.20967 1.01018 0
M  V30 68 C 7.1614 1.01796 1.74128 0
M  V30 69 C 7.4744 -0.449691 1.90361 0
M  V30 70 O 8.6804 -0.76068 2.60626 0
M  V30 71 C 7.1364 1.7727 3.13215 0
M  V30 72 C 6.7444 3.28171 3.04972 0
M  V30 73 C 8.4884 1.66489 3.90489 0
M  V30 74 C 6.3954 3.96156 4.39107 0
M  V30 75 H 5.3254 0.377276 0.652824 0
M  V30 76 H 7.9764 1.44651 1.12909 0
M  V30 77 H 6.3584 1.27205 3.75013 0
M  V30 78 H 7.5324 3.85499 2.52443 0
M  V30 79 H 5.8474 3.39437 2.41188 0
M  V30 80 H 8.4444 2.14617 4.89738 0
M  V30 81 H 8.7874 0.6222 4.11624 0
M  V30 82 H 9.3204 2.14003 3.35332 0
M  V30 83 H 6.0594 5.00604 4.23174 0
M  V30 84 H 5.5794 3.43617 4.91617 0
M  V30 85 H 7.2584 4.00774 5.07926 0
M  V30 86 N 7.3905 -1.2043 1.01659 0
M  V30 87 C 8.6365 -1.90079 0.706963 0
M  V30 88 C 8.9695 -1.78648 -0.761474 0
M  V30 89 O 8.2445 -1.17069 -1.55323 0
M  V30 90 C 8.5275 -3.41469 1.14327 0
M  V30 91 C 8.3805 -3.61833 2.67201 0
M  V30 92 C 9.6995 -4.34261 0.714529 0
M  V30 93 H 6.8185 -0.690254 0.2583 0
M  V30 94 H 9.4605 -1.41826 1.26433 0
M  V30 95 H 7.6105 -3.82696 0.669056 0
M  V30 96 H 9.2825 -3.2986 3.22475 0
M  V30 97 H 7.5255 -3.05304 3.08175 0
M  V30 98 H 8.1965 -4.67955 2.92783 0
M  V30 99 H 10.6725 -4.00682 1.12221 0
M  V30 100 H 9.5485 -5.38806 1.04784 0
M  V30 101 H 9.8095 -4.40431 -0.383799 0
M  V30 102 N 8.8686 -0.792821 -1.36206 0
M  V30 103 C 10.1146 -0.376415 -1.99887 0
M  V30 104 C 10.4696 1.04127 -1.61788 0
M  V30 105 O 9.7626 1.71004 -0.864193 0
M  V30 106 C 9.9566 -0.481501 -3.54142 0
M  V30 107 C 9.7856 -1.90786 -4.07223 0
M  V30 108 C 8.5556 -2.53322 -4.37214 0
M  V30 109 C 10.7536 -2.87048 -4.26741 0
M  V30 110 N 8.7356 -3.8751 -4.7614 0
M  V30 111 C 10.1066 -4.06077 -4.6851 0
M  V30 112 C 12.1616 -2.8406 -4.08918 0
M  V30 113 C 10.8646 -5.22532 -4.94321 0
M  V30 114 C 12.8906 -3.99705 -4.35878 0
M  V30 115 C 12.2526 -5.1748 -4.77906 0
M  V30 116 H 8.3516 -0.185226 -0.759747 0
M  V30 117 H 10.9356 -1.03114 -1.65153 0
M  V30 118 H 9.1066 0.143154 -3.88136 0
M  V30 119 H 10.8386 -0.0410128 -4.04679 0
M  V30 120 H 7.5936 -2.04777 -4.2704 0
M  V30 121 H 8.0176 -4.5656 -4.99882 0
M  V30 122 H 12.6596 -1.94165 -3.75579 0
M  V30 123 H 10.3776 -6.1301 -5.2654 0
M  V30 124 H 13.9636 -3.98758 -4.23655 0
M  V30 125 H 12.8436 -6.05478 -4.98363 0
M  V30 126 N 10.3467 1.47872 -0.545128 0
M  V30 127 C 11.5927 2.02793 -0.0166104 0
M  V30 128 C 11.9257 1.41987 1.32489 0
M  V30 129 O 11.2007 0.571045 1.85928 0
M  V30 130 C 11.4837 3.59989 0.0893294 0
M  V30 131 C 11.3367 4.3125 -1.27841 0
M  V30 132 C 12.6557 4.32606 0.808724 0
M  V30 133 H 9.7747 0.736962 -0.00751035 0
M  V30 134 H 12.4167 1.76433 -0.705085 0
M  V30 135 H 10.5667 3.82579 0.675681 0
M  V30 136 H 12.2387 4.20035 -1.90704 0
M  V30 137 H 10.4817 3.92076 -1.85632 0
M  V30 138 H 11.1527 5.39736 -1.15713 0
M  V30 139 H 13.6287 4.14936 0.310992 0
M  V30 140 H 12.5047 5.42251 0.851782 0
M  V30 141 H 12.7657 4.00963 1.86229 0
M  V30 142 N 11.8248 0.280983 1.55075 0
M  V30 143 C 13.0708 -0.33461 2.00021 0
M  V30 144 C 13.4038 -1.55063 1.16915 0
M  V30 145 O 12.6788 -1.93006 0.240646 0
M  V30 146 C 12.9618 -0.711007 3.53011 0
M  V30 147 C 12.8148 0.512766 4.46868 0
M  V30 148 C 14.1338 -1.54522 4.12081 0
M  V30 149 H 11.2528 -0.120147 0.727141 0
M  V30 150 H 13.8948 0.389097 1.85973 0
M  V30 151 H 12.0448 -1.32761 3.65112 0
M  V30 152 H 13.7168 1.15131 4.46702 0
M  V30 153 H 11.9598 1.14975 4.18286 0
M  V30 154 H 12.6308 0.205556 5.51617 0
M  V30 155 H 15.1068 -1.02442 4.03293 0
M  V30 156 H 13.9828 -1.77739 5.19327 0
M  V30 157 H 14.2438 -2.52813 3.62682 0
M  V30 158 N 13.3029 -1.57598 0.00835791 0
M  V30 159 C 14.5799 -1.82172 -0.712235 0
M  V30 160 C 14.9599 -0.887873 -1.9152 0
M  V30 161 O 14.3079 0.06146 -2.28417 0
M  V30 162 C 14.5179 -3.30875 -1.11008 0
M  V30 163 C 15.8659 -3.96826 -1.51044 0
M  V30 164 O 16.8899 -3.35248 -1.20364 0
M  V30 165 O 15.7489 -5.05318 -2.08125 0
M  V30 166 H 12.8429 -0.750435 -0.347529 0
M  V30 167 H 15.3889 -1.69665 0.0344523 0
M  V30 168 H 14.1609 -3.90481 -0.252982 0
M  V30 169 H 13.7839 -3.48412 -1.9156 0
M  V30 170 N 14.781 0.264519 -1.55364 0
M  V30 171 C 16.058 1.01677 -1.67096 0
M  V30 172 C 16.438 2.03996 -0.543015 0
M  V30 173 O 15.786 2.23907 0.45585 0
M  V30 174 C 15.996 1.66596 -3.0667 0
M  V30 175 C 17.344 2.17442 -3.64697 0
M  V30 176 O 18.368 1.76568 -3.09358 0
M  V30 177 O 17.227 2.92439 -4.61673 0
M  V30 178 H 14.321 0.472161 -0.678965 0
M  V30 179 H 16.867 0.259703 -1.67701 0
M  V30 180 H 15.639 0.924962 -3.80211 0
M  V30 181 H 15.262 2.48968 -3.10001 0
M  V30 182 N 16.2591 1.48442 0.529413 0
M  V30 183 C 17.5361 1.46978 1.29062 0
M  V30 184 C 17.9161 0.181769 2.10316 0
M  V30 185 O 17.2641 -0.836481 2.12639 0
M  V30 186 C 17.4741 2.7321 2.17157 0
M  V30 187 C 18.8221 3.21562 2.77278 0
M  V30 188 O 19.8461 2.74131 2.27444 0
M  V30 189 O 18.7051 4.04094 3.67927 0
M  V30 190 H 15.7991 0.587003 0.582543 0
M  V30 191 H 18.3451 1.60676 0.546021 0
M  V30 192 H 17.1171 3.58465 1.56903 0
M  V30 193 H 16.7401 2.62235 2.98862 0
M  V30 194 N 17.7372 -0.778329 1.37039 0
M  V30 195 C 18.9622 -1.57248 1.35233 0
M  V30 196 C 19.3872 -1.87999 -0.0615568 0
M  V30 197 O 18.7452 -1.48734 -1.03672 0
M  V30 198 C 18.7932 -2.86353 2.19167 0
M  V30 199 O 17.8972 -3.80442 1.59178 0
M  V30 200 H 17.2382 -0.476569 0.462362 0
M  V30 201 H 19.7682 -0.963853 1.80474 0
M  V30 202 H 19.7782 -3.35519 2.32145 0
M  V30 203 H 18.4532 -2.63299 3.21942 0
M  V30 204 H 17.0302 -3.39067 1.55203 0
M  V30 205 N 19.2153 -1.21501 -1.00376 0
M  V30 206 C 20.4403 -1.05977 -1.78279 0
M  V30 207 C 20.8653 0.385994 -1.84097 0
M  V30 208 O 20.2233 1.27849 -1.28547 0
M  V30 209 C 20.2713 -1.66302 -3.19963 0
M  V30 210 O 19.3753 -0.909333 -4.0225 0
M  V30 211 H 18.7163 -0.372906 -0.549397 0
M  V30 212 H 21.2463 -1.6107 -1.26165 0
M  V30 213 H 21.2563 -1.70574 -3.70632 0
M  V30 214 H 19.9313 -2.71515 -3.15043 0
M  V30 215 H 18.5083 -0.941795 -3.60811 0
M  V30 216 N 20.6934 1.19889 -1.02296 0
M  V30 217 C 21.9424 1.88743 -0.711257 0
M  V30 218 C 22.2554 1.80112 0.762817 0
M  V30 219 O 23.4614 2.44161 1.18733 0
M  V30 220 C 21.9174 3.38525 -1.22185 0
M  V30 221 C 21.5254 3.55727 -2.72328 0
M  V30 222 C 23.2694 4.12893 -0.985864 0
M  V30 223 C 21.1764 4.99369 -3.16835 0
M  V30 224 H 20.1064 0.706885 -0.262353 0
M  V30 225 H 22.7574 1.35586 -1.23648 0
M  V30 226 H 21.1394 3.91044 -0.624571 0
M  V30 227 H 22.3134 3.13564 -3.3766 0
M  V30 228 H 20.6284 2.94739 -2.9414 0
M  V30 229 H 23.2254 5.18813 -1.29374 0
M  V30 230 H 23.5684 4.16228 0.0775055 0
M  V30 231 H 24.1014 3.66494 -1.54684 0
M  V30 232 H 20.8404 5.01193 -4.22476 0
M  V30 233 H 20.3604 5.42317 -2.56228 0
M  V30 234 H 22.0394 5.67988 -3.09837 0
M  V30 235 N 22.1715 0.800033 1.35784 0
M  V30 236 C 23.5875 0.482977 1.52117 0
M  V30 237 C 23.7875 -0.996948 1.75109 0
M  V30 238 O 22.8435 -1.78216 1.78872 0
M  V30 239 C 24.1565 1.32264 2.70049 0
M  V30 240 C 25.7045 1.31742 2.83924 0
M  V30 241 C 26.1795 2.14106 4.04874 0
M  V30 242 N 27.6705 2.11607 4.12039 0
M  V30 243 C 28.4055 2.72099 5.04727 0
M  V30 244 N 27.9015 3.41492 6.02789 0
M  V30 245 N 29.6945 2.61776 4.97423 0
M  V30 246 H 21.8455 1.75856 1.19115 0
M  V30 247 H 24.1085 0.748122 0.582252 0
M  V30 248 H 23.8145 2.37261 2.59616 0
M  V30 249 H 23.6885 0.971303 3.6448 0
M  V30 250 H 26.0755 0.275333 2.93813 0
M  V30 251 H 26.1565 1.70859 1.9037 0
M  V30 252 H 25.8005 3.18351 3.95746 0
M  V30 253 H 25.7305 1.72353 4.97596 0
M  V30 254 H 28.2215 1.61112 3.41835 0
M  V30 255 H 28.5345 3.84953 6.70098 0
M  V30 256 H 26.8795 3.45596 6.02983 0
M  V30 257 H 30.0705 2.07157 4.19766 0
M  V30 258 H 30.2435 3.0921 5.69468 0
M  V30 259 N 23.6496 -1.47581 0.552962 0
M  V30 260 C 24.8956 -2.03369 0.0355807 0
M  V30 261 C 25.2506 -1.42016 -1.29805 0
M  V30 262 O 24.5436 -0.564917 -1.83083 0
M  V30 263 C 24.7376 -3.57199 -0.119728 0
M  V30 264 C 24.5666 -4.33468 1.1973 0
M  V30 265 C 23.3366 -4.7353 1.76345 0
M  V30 266 C 25.5346 -4.68866 2.11351 0
M  V30 267 N 23.5166 -5.34426 3.02097 0
M  V30 268 C 24.8876 -5.3002 3.21681 0
M  V30 269 C 26.9426 -4.50795 2.11397 0
M  V30 270 C 25.6456 -5.75011 4.32151 0
M  V30 271 C 27.6716 -4.96782 3.20876 0
M  V30 272 C 27.0336 -5.57981 4.29926 0
M  V30 273 H 23.1326 -0.780058 0.0550806 0
M  V30 274 H 25.7166 -1.80117 0.739315 0
M  V30 275 H 23.8876 -3.80227 -0.792579 0
M  V30 276 H 25.6196 -3.99627 -0.638792 0
M  V30 277 H 22.3746 -4.55352 1.30196 0
M  V30 278 H 22.7986 -5.69421 3.66182 0
M  V30 279 H 27.4406 -4.0284 1.28372 0
M  V30 280 H 25.1586 -6.21959 5.15938 0
M  V30 281 H 28.7446 -4.84573 3.21994 0
M  V30 282 H 27.6246 -5.92918 5.13243 0
M  V30 283 N 25.1277 -0.289203 -1.54924 0
M  V30 284 C 26.3737 0.323998 -2.00195 0
M  V30 285 C 26.7067 1.54441 -1.17735 0
M  V30 286 O 25.9817 1.92875 -0.250878 0
M  V30 287 C 26.2647 0.692276 -3.53383 0
M  V30 288 C 26.1177 -0.536457 -4.46589 0
M  V30 289 C 27.4367 1.52335 -4.12895 0
M  V30 290 H 24.5557 0.116289 -0.727768 0
M  V30 291 H 27.1977 -0.398954 -1.85764 0
M  V30 292 H 25.3477 1.30822 -3.65811 0
M  V30 293 H 27.0197 -1.17499 -4.46085 0
M  V30 294 H 25.2627 -1.17192 -4.1767 0
M  V30 295 H 25.9337 -0.234806 -5.515 0
M  V30 296 H 28.4097 1.00302 -4.0383 0
M  V30 297 H 27.2857 1.74982 -5.20262 0
M  V30 298 H 27.5467 2.50886 -3.64018 0
M  V30 299 N 26.6058 1.57591 -0.0167156 0
M  V30 300 C 27.5358 2.12496 0.967858 0
M  V30 301 C 28.5168 1.03807 1.34752 0
M  V30 302 O 29.7018 1.31577 1.42833 0
M  V30 303 C 26.8318 2.64194 2.25431 0
M  V30 304 C 25.7858 3.77559 2.01576 0
M  V30 305 C 25.1118 4.15636 3.36379 0
M  V30 306 C 26.4118 5.04151 1.36489 0
M  V30 307 H 28.1058 2.95013 0.510643 0
M  V30 308 H 25.6518 1.41915 0.244181 0
M  V30 309 H 27.6048 3.01236 2.94678 0
M  V30 310 H 26.3288 1.78821 2.73296 0
M  V30 311 H 24.9878 3.40937 1.34751 0
M  V30 312 H 24.6358 3.27263 3.81979 0
M  V30 313 H 24.3358 4.92022 3.21229 0
M  V30 314 H 25.8598 4.5525 4.06915 0
M  V30 315 H 27.2738 5.38857 1.95718 0
M  V30 316 H 25.6708 5.85453 1.31776 0
M  V30 317 H 26.7408 4.83733 0.336219 0
M  V30 318 N 28.0839 -0.256276 1.55502 0
M  V30 319 C 28.9939 -1.33882 1.92647 0
M  V30 320 C 30.0099 -1.53159 0.825727 0
M  V30 321 O 31.1859 -1.66963 1.12629 0
M  V30 322 C 28.2509 -2.6751 2.20543 0
M  V30 323 C 27.3119 -2.56836 3.43997 0
M  V30 324 C 26.5449 -3.84092 3.70553 0
M  V30 325 O 26.7679 -4.85545 2.99336 0
M  V30 326 O 25.7019 -3.83288 4.64084 0
M  V30 327 H 29.5279 -1.05374 2.84833 0
M  V30 328 H 27.1129 -0.456237 1.42263 0
M  V30 329 H 28.9949 -3.46492 2.39835 0
M  V30 330 H 27.6699 -2.9577 1.31536 0
M  V30 331 H 26.5769 -1.76172 3.30021 0
M  V30 332 H 27.9099 -2.33523 4.33275 0
M  V30 333 N 29.562 -1.4872 -0.521534 0
M  V30 334 C 30.978 -1.35028 -0.850855 0
M  V30 335 C 31.178 -0.367712 -1.98116 0
M  V30 336 O 30.234 0.208037 -2.51642 0
M  V30 337 C 31.547 -2.75263 -1.21041 0
M  V30 338 C 33.095 -2.83813 -1.31981 0
M  V30 339 C 33.57 -4.24769 -1.71276 0
M  V30 340 N 35.061 -4.27482 -1.78363 0
M  V30 341 C 35.796 -5.33494 -2.1017 0
M  V30 342 N 35.292 -6.49775 -2.40343 0
M  V30 343 N 37.085 -5.20894 -2.11248 0
M  V30 344 H 29.236 -2.11214 0.22413 0
M  V30 345 H 31.499 -0.947252 0.0376439 0
M  V30 346 H 31.205 -3.48765 -0.453415 0
M  V30 347 H 31.079 -3.09327 -2.15863 0
M  V30 348 H 33.466 -2.10561 -2.06756 0
M  V30 349 H 33.547 -2.53358 -0.352596 0
M  V30 350 H 33.191 -4.9854 -0.970588 0
M  V30 351 H 33.121 -4.52673 -2.69062 0
M  V30 352 H 35.612 -3.43611 -1.57288 0
M  V30 353 H 35.925 -7.26402 -2.63743 0
M  V30 354 H 34.27 -6.53035 -2.37844 0
M  V30 355 H 37.461 -4.29065 -1.87139 0
M  V30 356 H 37.634 -6.03612 -2.35704 0
M  V30 357 N 31.0401 0.771051 -1.3745 0
M  V30 358 C 32.0031 1.86598 -1.33093 0
M  V30 359 C 33.0031 1.59076 -0.234845 0
M  V30 360 O 34.1931 1.67145 -0.490732 0
M  V30 361 C 31.3251 3.23747 -1.06773 0
M  V30 362 H 32.5181 1.91873 -2.30488 0
M  V30 363 H 30.0711 0.970876 -1.2249 0
M  V30 364 H 30.8061 3.24148 -0.099129 0
M  V30 365 H 30.5911 3.45115 -1.86112 0
M  V30 366 H 32.0811 4.03824 -1.06377 0
M  V30 367 N 32.5182 1.22032 0.997298 0
M  V30 368 C 33.4482 1.01065 2.10495 0
M  V30 369 C 34.4292 -0.0669542 1.69968 0
M  V30 370 O 35.6142 0.0943987 1.9397 0
M  V30 371 C 32.7442 0.582874 3.42374 0
M  V30 372 C 31.6982 1.60592 3.96729 0
M  V30 373 C 31.0242 1.03412 5.24605 0
M  V30 374 C 32.3242 2.99478 4.27914 0
M  V30 375 H 34.0182 1.93708 2.28292 0
M  V30 376 H 31.5642 0.932761 1.09707 0
M  V30 377 H 33.5172 0.423332 4.19268 0
M  V30 378 H 32.2412 -0.379213 3.24391 0
M  V30 379 H 30.9002 1.75316 3.21963 0
M  V30 380 H 30.5482 0.063518 5.0296 0
M  V30 381 H 30.2482 1.71754 5.61938 0
M  V30 382 H 31.7722 0.886066 6.04137 0
M  V30 383 H 33.1862 2.88153 4.95622 0
M  V30 384 H 31.5832 3.64903 4.76409 0
M  V30 385 H 32.6532 3.49742 3.3587 0
M  V30 386 N 33.9963 -1.19345 1.0293 0
M  V30 387 C 34.9593 -2.20793 0.615069 0
M  V30 388 C 35.9593 -1.57553 -0.321533 0
M  V30 389 O 37.1493 -1.73862 -0.108483 0
M  V30 390 C 34.2813 -3.40754 -0.0999222 0
M  V30 391 H 35.4743 -2.58955 1.51269 0
M  V30 392 H 33.0273 -1.3303 0.820534 0
M  V30 393 H 33.7623 -3.0811 -1.01187 0
M  V30 394 H 33.5473 -3.87889 0.57309 0
M  V30 395 H 35.0373 -4.15898 -0.376645 0
M  V30 396 N 35.4744 -0.807222 -1.35358 0
M  V30 397 C 36.7224 -0.387122 -1.98358 0
M  V30 398 C 37.0434 1.04942 -1.64354 0
M  V30 399 O 36.3134 1.72615 -0.926339 0
M  V30 400 H 34.8934 -0.140154 -0.733734 0
M  V30 401 H 37.5554 -1.0332 -1.6526 0
M  V30 402 H 36.6514 -0.493352 -3.08176 0
M  V30 403 N 36.9525 1.47285 -0.560781 0
M  V30 404 C 37.9155 2.28535 0.174488 0
M  V30 405 C 38.9155 1.37153 0.839388 0
M  V30 406 O 40.1055 1.59748 0.694702 0
M  V30 407 C 37.2375 3.16934 1.25561 0
M  V30 408 H 38.4305 2.95012 -0.539262 0
M  V30 409 H 35.9835 1.53034 -0.317865 0
M  V30 410 H 36.7185 2.55157 2.00164 0
M  V30 411 H 36.5035 3.8419 0.783604 0
M  V30 412 H 37.9935 3.78143 1.77193 0
M  V30 413 N 38.4306 0.297415 1.54768 0
M  V30 414 C 39.6786 -0.312295 1.99673 0
M  V30 415 C 39.9996 -1.54686 1.18732 0
M  V30 416 O 39.2696 -1.93854 0.282382 0
M  V30 417 H 37.8496 -0.118381 0.73756 0
M  V30 418 H 40.5116 0.407915 1.90583 0
M  V30 419 H 39.6076 -0.586813 3.06534 0
M  V30 420 N 39.9087 -1.5758 0.0250728 0
M  V30 421 C 40.8387 -2.13007 -0.956575 0
M  V30 422 C 41.8197 -1.0452 -1.342 0
M  V30 423 O 43.0047 -1.32332 -1.42133 0
M  V30 424 C 40.1347 -2.65386 -2.24026 0
M  V30 425 C 39.0887 -3.78623 -1.99571 0
M  V30 426 C 38.4147 -4.17414 -3.3417 0
M  V30 427 C 39.7147 -5.04867 -1.33814 0
M  V30 428 H 41.4087 -2.9528 -0.494991 0
M  V30 429 H 38.9547 -1.42042 -0.236651 0
M  V30 430 H 40.9077 -3.02794 -2.93076 0
M  V30 431 H 39.6317 -1.80268 -2.72343 0
M  V30 432 H 38.2907 -3.41646 -1.32941 0
M  V30 433 H 37.9387 -3.29284 -3.80238 0
M  V30 434 H 37.6387 -4.93719 -3.18615 0
M  V30 435 H 39.1627 -4.57402 -4.04495 0
M  V30 436 H 40.5767 -5.39888 -1.92857 0
M  V30 437 H 38.9737 -5.86144 -1.28669 0
M  V30 438 H 40.0437 -4.83904 -0.310561 0
M  V30 439 N 41.3868 0.248026 -1.55636 0
M  V30 440 C 42.6148 0.993808 -1.81469 0
M  V30 441 C 43.0298 1.78991 -0.60064 0
M  V30 442 O 42.3868 1.77345 0.430682 0
M  V30 443 C 42.4378 1.93258 -3.05506 0
M  V30 444 O 42.1588 1.16869 -4.22224 0
M  V30 445 C 43.6598 2.79444 -3.4413 0
M  V30 446 H 40.8798 0.292486 -0.603898 0
M  V30 447 H 43.4238 0.271253 -2.02693 0
M  V30 448 H 41.5788 2.60943 -2.86335 0
M  V30 449 H 41.9928 1.80359 -4.92515 0
M  V30 450 H 43.4668 3.41066 -4.34026 0
M  V30 451 H 43.9438 3.50499 -2.64665 0
M  V30 452 H 44.5498 2.17214 -3.65648 0
M  V30 453 N 42.8649 1.48995 0.513639 0
M  V30 454 C 44.1049 1.59452 1.27885 0
M  V30 455 C 44.4689 0.269479 1.90099 0
M  V30 456 O 45.6699 0.249139 2.67643 0
M  V30 457 C 43.9409 2.71277 2.32688 0
M  V30 458 S 45.4999 3.01604 3.18717 0
M  V30 459 H 42.3179 0.562565 0.434789 0
M  V30 460 H 44.9199 1.86595 0.583301 0
M  V30 461 H 43.6239 3.66089 1.8549 0
M  V30 462 H 43.1549 2.46086 3.06929 0
M  V30 463 H 45.1699 2.42155 4.331 0
M  V30 464 N 44.343 -0.763751 1.37857 0
M  V30 465 C 45.571 -1.55293 1.36718 0
M  V30 466 C 45.986 -1.88745 -0.0455434 0
M  V30 467 O 45.343 -1.52039 -1.00947 0
M  V30 468 C 45.394 -2.85831 2.2132 0
M  V30 469 O 45.115 -2.5381 3.57089 0
M  V30 470 C 46.616 -3.80023 2.28249 0
M  V30 471 H 43.836 -0.480841 0.468009 0
M  V30 472 H 46.38 -0.946009 1.81303 0
M  V30 473 H 44.535 -3.42926 1.80223 0
M  V30 474 H 44.949 -3.37459 4.01524 0
M  V30 475 H 46.423 -4.68599 2.91752 0
M  V30 476 H 46.9 -4.1973 1.2932 0
M  V30 477 H 47.506 -3.28855 2.69693 0
M  V30 478 N 45.8211 -1.22559 -0.990812 0
M  V30 479 C 47.0491 -1.07779 -1.76611 0
M  V30 480 C 47.4641 0.371513 -1.85109 0
M  V30 481 O 46.8211 1.25737 -1.32274 0
M  V30 482 C 46.8721 -1.68512 -3.19822 0
M  V30 483 O 46.5931 -3.07774 -3.1178 0
M  V30 484 C 48.0941 -1.59035 -4.13791 0
M  V30 485 H 45.3141 -0.377729 -0.554583 0
M  V30 486 H 47.8581 -1.62195 -1.24551 0
M  V30 487 H 46.0131 -1.18154 -3.68942 0
M  V30 488 H 46.4271 -3.37062 -4.01858 0
M  V30 489 H 47.9011 -2.0625 -5.1202 0
M  V30 490 H 48.3781 -0.547273 -4.35777 0
M  V30 491 H 48.9841 -2.08709 -3.70568 0
M  V30 492 N 47.2992 1.18797 -1.03562 0
M  V30 493 C 48.5462 1.8865 -0.736023 0
M  V30 494 C 48.8742 1.80041 0.735889 0
M  V30 495 O 48.1292 1.19179 1.55225 0
M  V30 496 C 48.4282 3.38692 -1.14117 0
M  V30 497 C 48.0942 3.67504 -2.6125 0
M  V30 498 C 46.7562 3.75078 -3.01447 0
M  V30 499 C 49.1082 3.80293 -3.56408 0
M  V30 500 C 46.4362 3.92915 -4.35701 0
M  V30 501 C 48.7882 3.99645 -4.90374 0
M  V30 502 C 47.4522 4.05453 -5.30249 0
M  V30 503 H 46.7222 0.690321 -0.26933 0
M  V30 504 H 49.3692 1.40641 -1.29971 0
M  V30 505 H 47.6742 3.88645 -0.496202 0
M  V30 506 H 49.3712 3.91072 -0.886789 0
M  V30 507 H 45.9612 3.62223 -2.29113 0
M  V30 508 H 50.1452 3.73779 -3.26501 0
M  V30 509 H 45.4012 3.95653 -4.66121 0
M  V30 510 H 49.5752 4.08482 -5.64017 0
M  V30 511 H 47.2022 4.19027 -6.34288 0
M  V30 512 N 48.7773 0.814389 1.34928 0
M  V30 513 C 49.6873 0.231978 2.3345 0
M  V30 514 C 50.7033 -0.629139 1.62228 0
M  V30 515 O 51.8793 -0.539052 1.94052 0
M  V30 516 C 48.9443 -0.603482 3.41407 0
M  V30 517 C 48.0053 0.279037 4.28392 0
M  V30 518 C 47.2383 -0.516643 5.31193 0
M  V30 519 O 47.4613 -1.75068 5.4287 0
M  V30 520 O 46.3953 0.0965652 6.01823 0
M  V30 521 H 50.2213 1.04721 2.85074 0
M  V30 522 H 47.8063 0.576343 1.37836 0
M  V30 523 H 49.6883 -1.07908 4.0735 0
M  V30 524 H 48.3633 -1.39618 2.92042 0
M  V30 525 H 47.2703 0.801948 3.65403 0
M  V30 526 H 48.6033 1.03588 4.81176 0
M  V30 527 N 50.2554 -1.46986 0.568584 0
M  V30 528 C 51.2034 -2.31858 -0.185649 0
M  V30 529 C 52.1974 -1.43624 -0.898249 0
M  V30 530 O 53.4034 -1.60327 -0.818242 0
M  V30 531 H 49.7784 -0.747866 -0.0787399 0
M  V30 532 H 51.7494 -2.93303 0.549191 0
M  V30 533 C 50.4984 -3.26513 -1.19519 0
M  V30 534 H 49.8214 -3.94377 -0.656285 0
M  V30 535 H 51.2614 -3.88707 -1.6936 0
M  V30 536 C 49.7204 -2.50847 -2.24894 0
M  V30 537 O 50.2504 -2.26119 -3.32014 0
M  V30 538 N 48.4564 -2.11656 -1.99124 0
M  V30 539 H 48.0034 -2.31966 -1.12024 0
M  V30 540 H 47.9614 -1.61347 -2.69842 0
M  V30 541 N 51.7335 -0.305618 -1.54608 0
M  V30 542 C 52.9815 0.301701 -1.99835 0
M  V30 543 C 53.3025 1.54054 -1.19551 0
M  V30 544 O 52.5725 1.93702 -0.292658 0
M  V30 545 H 51.1525 0.114468 -0.738178 0
M  V30 546 H 53.8145 -0.418016 -1.90364 0
M  V30 547 H 52.9105 0.570548 -3.06841 0
M  V30 548 N 53.2116 1.57565 -0.0334293 0
M  V30 549 C 54.1596 2.1164 0.96496 0
M  V30 550 C 55.1536 1.04398 1.33407 0
M  V30 551 O 56.3596 1.22828 1.3158 0
M  V30 552 H 52.7346 0.676222 0.32898 0
M  V30 553 H 54.7056 2.94455 0.483614 0
M  V30 554 C 53.4546 2.66207 2.23672 0
M  V30 555 H 52.7776 3.48378 1.96145 0
M  V30 556 H 54.2176 3.07685 2.9173 0
M  V30 557 C 52.6766 1.59151 2.96939 0
M  V30 558 O 53.2066 0.993858 3.89211 0
M  V30 559 N 51.4126 1.31093 2.59351 0
M  V30 560 H 50.9596 1.7988 1.84393 0
M  V30 561 H 50.9176 0.596889 3.08682 0
M  V30 562 N 54.6897 -0.239769 1.55765 0
M  V30 563 C 55.5997 -1.31831 1.94056 0
M  V30 564 C 56.6157 -1.52275 0.841925 0
M  V30 565 O 57.7917 -1.65759 1.14394 0
M  V30 566 C 54.8567 -2.65156 2.23368 0
M  V30 567 C 53.9177 -2.53173 3.46701 0
M  V30 568 C 53.1507 -3.8014 3.74606 0
M  V30 569 O 53.3737 -4.82343 3.04469 0
M  V30 570 O 52.3077 -3.78344 4.68123 0
M  V30 571 H 56.1337 -1.02347 2.85935 0
M  V30 572 H 53.7187 -0.441123 1.42739 0
M  V30 573 H 55.6007 -3.43929 2.43497 0
M  V30 574 H 54.2757 -2.94358 1.34666 0
M  V30 575 H 53.1827 -1.72662 3.31871 0
M  V30 576 H 54.5157 -2.28915 4.35728 0
M  V30 577 N 56.1678 -1.49265 -0.50573 0
M  V30 578 C 57.4138 -1.58748 -1.26202 0
M  V30 579 C 57.7468 -0.271227 -1.92297 0
M  V30 580 O 57.0218 0.724831 -1.80489 0
M  V30 581 C 57.3048 -2.74332 -2.33268 0
M  V30 582 C 57.1578 -4.15737 -1.71705 0
M  V30 583 C 58.4768 -2.85576 -3.34865 0
M  V30 584 H 55.5958 -0.577826 -0.457478 0
M  V30 585 H 58.2378 -1.81532 -0.560897 0
M  V30 586 H 56.3878 -2.55036 -2.93068 0
M  V30 587 H 58.0598 -4.46537 -1.15769 0
M  V30 588 H 56.3028 -4.21605 -1.02135 0
M  V30 589 H 56.9738 -4.92477 -2.49341 0
M  V30 590 H 59.4498 -3.03127 -2.8505 0
M  V30 591 H 58.3258 -3.68135 -4.07146 0
M  V30 592 H 58.5868 -1.94732 -3.96903 0
M  V30 593 N 57.6459 0.756429 -1.3826 0
M  V30 594 C 58.5759 1.88374 -1.37976 0
M  V30 595 C 59.5569 1.68311 -0.246082 0
M  V30 596 O 60.7419 1.88944 -0.44874 0
M  V30 597 C 57.8719 3.25864 -1.20125 0
M  V30 598 C 56.8259 3.60523 -2.30666 0
M  V30 599 C 56.1519 4.9672 -1.97923 0
M  V30 600 C 57.4519 3.65692 -3.72916 0
M  V30 601 H 59.1459 1.88869 -2.32312 0
M  V30 602 H 56.6919 0.907272 -1.11824 0
M  V30 603 H 58.6449 4.0438 -1.18552 0
M  V30 604 H 57.3689 3.25841 -0.222498 0
M  V30 605 H 56.0279 2.84324 -2.3142 0
M  V30 606 H 55.6759 4.93253 -0.985393 0
M  V30 607 H 55.3759 5.20878 -2.71955 0
M  V30 608 H 56.8999 5.77618 -1.97964 0
M  V30 609 H 58.3139 4.34328 -3.74208 0
M  V30 610 H 56.7109 4.01358 -4.4613 0
M  V30 611 H 57.7809 2.65987 -4.05436 0
M  V30 612 N 59.124 1.23083 0.984299 0
M  V30 613 C 60.087 1.00979 2.05757 0
M  V30 614 C 61.087 -0.0269573 1.60777 0
M  V30 615 O 62.277 0.212403 1.729 0
M  V30 616 C 59.409 0.527072 3.36801 0
M  V30 617 H 60.602 1.9622 2.26799 0
M  V30 618 H 58.155 1.05072 1.15714 0
M  V30 619 H 58.89 -0.429294 3.21446 0
M  V30 620 H 58.675 1.27515 3.70786 0
M  V30 621 H 60.165 0.392942 4.15747 0
M  V30 622 N 60.6021 -1.18246 1.0419 0
M  V30 623 C 61.5651 -2.20128 0.638452 0
M  V30 624 C 62.5651 -1.57885 -0.304805 0
M  V30 625 O 63.7551 -1.73967 -0.0900369 0
M  V30 626 C 60.8871 -3.4084 -0.0637751 0
M  V30 627 H 62.0801 -2.57336 1.54007 0
M  V30 628 H 59.6331 -1.32152 0.834598 0
M  V30 629 H 60.3681 -3.09166 -0.979136 0
M  V30 630 H 60.1531 -3.8726 0.614198 0
M  V30 631 H 61.6431 -4.16274 -0.332512 0
M  V30 632 N 62.0802 -0.821533 -1.34494 0
M  V30 633 C 63.0102 -0.257138 -2.3208 0
M  V30 634 C 63.9912 0.625645 -1.58176 0
M  V30 635 O 65.1762 0.552811 -1.86166 0
M  V30 636 C 62.3062 0.582958 -3.42372 0
M  V30 637 C 61.2602 -0.202571 -4.2752 0
M  V30 638 C 60.5862 0.760179 -5.29269 0
M  V30 639 C 61.8862 -1.40998 -5.02908 0
M  V30 640 H 63.5802 -1.07247 -2.79532 0
M  V30 641 H 61.1262 -0.517163 -1.34393 0
M  V30 642 H 63.0792 0.987972 -4.09655 0
M  V30 643 H 61.8032 1.43133 -2.93565 0
M  V30 644 H 60.4622 -0.588936 -3.61838 0
M  V30 645 H 60.1102 1.60447 -4.76724 0
M  V30 646 H 59.8102 0.238809 -5.87115 0
M  V30 647 H 61.3342 1.16308 -5.9942 0
M  V30 648 H 62.7482 -1.07905 -5.63054 0
M  V30 649 H 61.1452 -1.86689 -5.70322 0
M  V30 650 H 62.2152 -2.1889 -4.32684 0
M  V30 651 N 63.5583 1.46682 -0.576371 0
M  V30 652 C 64.5213 2.28707 0.150239 0
M  V30 653 C 65.5213 1.38035 0.824794 0
M  V30 654 O 66.7113 1.60476 0.677719 0
M  V30 655 C 63.8433 3.18248 1.22192 0
M  V30 656 H 65.0363 2.94423 -0.570521 0
M  V30 657 H 62.5893 1.52688 -0.334078 0
M  V30 658 H 63.3243 2.57265 1.97447 0
M  V30 659 H 63.1093 3.85 0.742812 0
M  V30 660 H 64.5993 3.80001 1.73172 0
M  V30 661 N 65.0364 0.313813 1.54444 0
M  V30 662 C 66.2614 -0.296681 2.05267 0
M  V30 663 C 66.6864 -1.45757 1.18897 0
M  V30 664 O 66.0444 -1.80239 0.195886 0
M  V30 665 C 66.0924 -0.71831 3.53373 0
M  V30 666 O 65.1964 -1.82175 3.69981 0
M  V30 667 H 64.5374 -0.0554061 0.661684 0
M  V30 668 H 67.0674 0.459387 1.99376 0
M  V30 669 H 67.0774 -1.00364 3.95463 0
M  V30 670 H 65.7524 0.130821 4.15694 0
M  V30 671 H 64.3294 -1.53598 3.39797 0
M  V30 672 N 66.5145 -1.57545 0.0417849 0
M  V30 673 C 67.4615 -2.10977 -0.935805 0
M  V30 674 C 68.4315 -1.01486 -1.31491 0
M  V30 675 O 69.6165 -1.2898 -1.40602 0
M  V30 676 C 66.7565 -2.65169 -2.2086 0
M  V30 677 C 65.8695 -3.88714 -1.88482 0
M  V30 678 C 65.0045 -4.31254 -3.1015 0
M  V30 679 C 64.0435 -5.47524 -2.7365 0
M  V30 680 N 63.1805 -5.85162 -3.87982 0
M  V30 681 H 68.0205 -2.94218 -0.473249 0
M  V30 682 H 65.5575 -1.45415 -0.221981 0
M  V30 683 H 67.5155 -2.94685 -2.95325 0
M  V30 684 H 66.1455 -1.8474 -2.64709 0
M  V30 685 H 65.1975 -3.65849 -1.04205 0
M  V30 686 H 66.5095 -4.73245 -1.57608 0
M  V30 687 H 65.6635 -4.62273 -3.92923 0
M  V30 688 H 64.4025 -3.45516 -3.44195 0
M  V30 689 H 63.4075 -5.16187 -1.89291 0
M  V30 690 H 64.6325 -6.34971 -2.40807 0
M  V30 691 H 62.5785 -5.02377 -4.21846 0
M  V30 692 H 62.4955 -6.64362 -3.60775 0
M  V30 693 H 63.7635 -6.20791 -4.71422 0
M  V30 694 N 67.9926 0.231505 -1.5589 0
M  V30 695 C 69.2206 0.974505 -1.82513 0
M  V30 696 C 69.6356 1.78344 -0.619591 0
M  V30 697 O 68.9926 1.77792 0.411848 0
M  V30 698 C 69.0436 1.90007 -3.07538 0
M  V30 699 O 68.7646 1.12385 -4.2344 0
M  V30 700 C 70.2656 2.75779 -3.47075 0
M  V30 701 H 67.4856 0.286065 -0.606966 0
M  V30 702 H 70.0296 0.249739 -2.02969 0
M  V30 703 H 68.1846 2.57891 -2.89086 0
M  V30 704 H 68.5986 1.75125 -4.944 0
M  V30 705 H 70.0726 3.36443 -4.37619 0
M  V30 706 H 70.5496 3.47672 -2.68367 0
M  V30 707 H 71.1556 2.13323 -3.67931 0
M  V30 708 N 69.4707 1.49531 0.497807 0
M  V30 709 C 70.8817 1.52344 1.07927 0
M  V30 710 C 71.2327 0.311469 1.93712 0
M  V30 711 O 70.3577 -0.578405 2.08527 0
M  V30 712 C 70.9527 2.76062 1.96405 0
M  V30 713 C 69.5117 2.81643 2.49709 0
M  V30 714 C 68.6587 2.46299 1.27404 0
M  V30 715 H 71.6097 1.56182 0.281576 0
M  V30 716 H 71.6307 2.56405 2.81135 0
M  V30 717 H 71.1427 3.64254 1.33943 0
M  V30 718 H 69.2437 1.97739 3.15801 0
M  V30 719 H 69.3567 3.83891 2.86643 0
M  V30 720 H 67.7207 1.98148 1.60029 0
M  V30 721 H 68.5037 3.36769 0.66645 0
M  V30 722 N 70.9488 -0.749086 1.3866 0
M  V30 723 C 72.2258 -1.4992 1.25632 0
M  V30 724 C 72.6058 -2.10633 -0.140317 0
M  V30 725 O 71.9538 -1.97437 -1.15025 0
M  V30 726 C 72.1638 -2.56195 2.36992 0
M  V30 727 C 73.5118 -3.22972 2.75634 0
M  V30 728 O 74.5358 -2.66502 2.36337 0
M  V30 729 O 73.3948 -4.25122 3.43415 0
M  V30 730 H 70.4888 -0.665067 0.491544 0
M  V30 731 H 73.0348 -0.784113 1.50498 0
M  V30 732 H 71.8068 -2.09612 3.30422 0
M  V30 733 H 71.4298 -3.35279 2.13714 0
M  V30 734 N 72.4269 -1.23603 -0.977757 0
M  V30 735 C 73.6729 -1.07129 -1.72195 0
M  V30 736 C 74.0059 0.390501 -1.90233 0
M  V30 737 O 73.2809 1.28902 -1.45653 0
M  V30 738 C 73.5639 -1.80031 -3.11867 0
M  V30 739 C 73.4169 -3.33899 -3.01383 0
M  V30 740 C 74.7359 -1.56492 -4.11337 0
M  V30 741 H 71.8549 -0.390571 -0.624999 0
M  V30 742 H 74.4969 -1.52142 -1.13811 0
M  V30 743 H 72.6469 -1.41768 -3.6171 0
M  V30 744 H 74.3189 -3.81699 -2.59043 0
M  V30 745 H 72.5619 -3.62796 -2.37827 0
M  V30 746 H 73.2329 -3.801 -4.00285 0
M  V30 747 H 75.7089 -1.89757 -3.70313 0
M  V30 748 H 74.5849 -2.09973 -5.07151 0
M  V30 749 H 74.8459 -0.500874 -4.39254 0
M  V30 750 N 73.905 1.17692 -1.04816 0
M  V30 751 C 74.835 2.23777 -0.666791 0
M  V30 752 C 75.816 1.66796 0.33361 0
M  V30 753 O 77.001 1.93039 0.212042 0
M  V30 754 C 74.131 3.47281 -0.0367933 0
M  V30 755 C 73.085 4.17059 -0.961546 0
M  V30 756 C 72.411 5.34342 -0.195626 0
M  V30 757 C 73.711 4.69713 -2.28402 0
M  V30 758 H 75.405 2.55933 -1.55367 0
M  V30 759 H 72.951 1.23019 -0.748484 0
M  V30 760 H 74.904 4.20706 0.241775 0
M  V30 761 H 73.628 3.14381 0.885004 0
M  V30 762 H 72.287 3.45541 -1.22462 0
M  V30 763 H 71.935 4.97692 0.728816 0
M  V30 764 H 71.635 5.81966 -0.811775 0
M  V30 765 H 73.159 6.10553 0.0757473 0
M  V30 766 H 74.573 5.34794 -2.06563 0
M  V30 767 H 72.97 5.279 -2.8538 0
M  V30 768 H 74.04 3.86726 -2.92525 0
M  V30 769 N 75.3831 0.828654 1.34056 0
M  V30 770 C 76.3131 0.269443 2.3194 0
M  V30 771 C 77.2941 -0.617247 1.58506 0
M  V30 772 O 78.4791 -0.542931 1.86456 0
M  V30 773 C 75.6091 -0.564793 3.42677 0
M  V30 774 C 74.5631 0.225241 4.27407 0
M  V30 775 C 73.8891 -0.7321 5.29664 0
M  V30 776 C 75.1891 1.43663 5.02154 0
M  V30 777 H 76.8831 1.08728 2.7896 0
M  V30 778 H 74.4291 0.524283 1.34117 0
M  V30 779 H 76.3821 -0.966233 4.10173 0
M  V30 780 H 75.1061 -1.41574 2.9432 0
M  V30 781 H 73.7651 0.608117 3.61521 0
M  V30 782 H 73.4131 -1.57916 4.77568 0
M  V30 783 H 73.1131 -0.20767 5.87233 0
M  V30 784 H 74.6371 -1.13128 6.00029 0
M  V30 785 H 76.0511 1.1089 5.62473 0
M  V30 786 H 74.4481 1.89711 5.69324 0
M  V30 787 H 75.5181 2.21181 4.31517 0
M  V30 788 N 76.8612 -1.46375 0.584142 0
M  V30 789 C 78.0862 -2.07268 0.0740405 0
M  V30 790 C 78.5112 -1.42979 -1.22223 0
M  V30 791 O 77.8692 -0.514092 -1.73859 0
M  V30 792 C 77.9172 -3.60518 -0.0767769 0
M  V30 793 O 77.0212 -3.96533 -1.13292 0
M  V30 794 H 76.3622 -0.660961 0.0634524 0
M  V30 795 H 78.8922 -1.87991 0.807492 0
M  V30 796 H 78.9022 -4.07021 -0.282489 0
M  V30 797 H 77.5772 -4.06702 0.86986 0
M  V30 798 H 76.1542 -3.61738 -0.905553 0
M  V30 799 N 78.3393 -0.321999 -1.54275 0
M  V30 800 C 79.6163 0.335232 -1.92706 0
M  V30 801 C 79.9963 1.70006 -1.25145 0
M  V30 802 O 79.3443 2.25067 -0.394596 0
M  V30 803 C 79.5543 0.429008 -3.46353 0
M  V30 804 C 80.9023 0.690029 -4.18956 0
M  V30 805 O 81.9263 0.511992 -3.52501 0
M  V30 806 O 80.7853 1.03338 -5.36641 0
M  V30 807 H 77.8793 0.191143 -0.804608 0
M  V30 808 H 80.4253 -0.3716 -1.65581 0
M  V30 809 H 79.1973 -0.529611 -3.87699 0
M  V30 810 H 78.8203 1.18348 -3.79578 0
M  V30 811 N 79.8174 1.5752 -0.0501392 0
M  V30 812 C 81.0664 1.91827 0.623328 0
M  V30 813 C 81.3794 0.930222 1.72065 0
M  V30 814 O 82.5854 1.1653 2.4522 0
M  V30 815 C 81.0414 3.40692 1.16003 0
M  V30 816 C 80.6494 4.479 0.0948811 0
M  V30 817 C 82.3934 3.84034 1.80881 0
M  V30 818 C 80.3004 5.87879 0.644411 0
M  V30 819 H 79.2304 0.715918 0.236596 0
M  V30 820 H 81.8814 1.83115 -0.118861 0
M  V30 821 H 80.2634 3.44405 1.9545 0
M  V30 822 H 81.4374 4.55775 -0.678675 0
M  V30 823 H 79.7524 4.13892 -0.45637 0
M  V30 824 H 82.3494 4.85984 2.22988 0
M  V30 825 H 82.6924 3.20225 2.6601 0
M  V30 826 H 83.2254 3.82833 1.0809 0
M  V30 827 H 79.9644 6.55282 -0.169229 0
M  V30 828 H 79.4844 5.83567 1.38598 0
M  V30 829 H 81.1634 6.37098 1.12763 0
M  V30 830 N 81.2955 -0.223234 1.56011 0
M  V30 831 C 82.7115 -0.572856 1.48965 0
M  V30 832 C 82.9115 -1.87225 0.74492 0
M  V30 833 O 81.9675 -2.50899 0.283896 0
M  V30 834 C 83.2805 -0.653646 2.9351 0
M  V30 835 C 84.8285 -0.744386 3.0402 0
M  V30 836 C 85.3035 -0.856535 4.49919 0
M  V30 837 N 86.7945 -0.9208 4.53955 0
M  V30 838 C 87.5295 -1.02726 5.64123 0
M  V30 839 N 87.0255 -1.09777 6.84047 0
M  V30 840 N 88.8185 -1.06226 5.51971 0
M  V30 841 H 80.9695 0.629462 2.02858 0
M  V30 842 H 83.2325 0.220621 0.921971 0
M  V30 843 H 82.9385 0.231518 3.50937 0
M  V30 844 H 82.8125 -1.51781 3.45315 0
M  V30 845 H 85.1995 -1.61999 2.46658 0
M  V30 846 H 85.2805 0.14541 2.55386 0
M  V30 847 H 84.9245 0.0146069 5.07898 0
M  V30 848 H 84.8545 -1.76172 4.96257 0
M  V30 849 H 87.3455 -0.876694 3.6759 0
M  V30 850 H 87.6585 -1.17872 7.63758 0
M  V30 851 H 86.0035 -1.06693 6.86762 0
M  V30 852 H 89.1945 -1.00382 4.5721 0
M  V30 853 H 89.3675 -1.14177 6.37862 0
M  V30 854 N 82.7736 -1.49793 -0.48987 0
M  V30 855 C 83.7066 -1.61898 -1.60823 0
M  V30 856 C 84.6846 -0.467651 -1.5573 0
M  V30 857 O 85.8686 -0.684682 -1.75626 0
M  V30 858 C 82.9956 -1.58422 -2.99366 0
M  V30 859 C 82.0416 -2.78889 -3.22682 0
M  V30 860 S 82.8746 -4.40429 -3.04602 0
M  V30 861 C 84.0306 -4.39617 -4.4552 0
M  V30 862 H 84.2636 -2.56502 -1.50312 0
M  V30 863 H 81.7966 -1.38822 -0.675849 0
M  V30 864 H 83.7546 -1.57103 -3.79248 0
M  V30 865 H 82.4156 -0.650866 -3.07283 0
M  V30 866 H 81.6086 -2.72708 -4.23847 0
M  V30 867 H 81.2106 -2.77678 -2.50541 0
M  V30 868 H 83.5026 -4.12022 -5.37814 0
M  V30 869 H 84.4456 -5.41097 -4.56749 0
M  V30 870 H 84.8536 -3.69554 -4.2672 0
M  V30 871 N 84.2517 0.741722 -1.39055 0
M  V30 872 C 85.6627 1.31966 -1.32068 0
M  V30 873 C 86.0137 1.96192 0.0180797 0
M  V30 874 O 85.1387 1.95861 0.920196 0
M  V30 875 C 85.7337 2.39954 -2.39181 0
M  V30 876 C 84.2927 2.93438 -2.35735 0
M  V30 877 C 83.4397 1.66936 -2.21422 0
M  V30 878 H 86.3907 0.539721 -1.4924 0
M  V30 879 H 86.4117 3.20182 -2.05581 0
M  V30 880 H 85.9237 1.9318 -3.36605 0
M  V30 881 H 84.0247 3.4451 -1.41929 0
M  V30 882 H 84.1377 3.4701 -3.30335 0
M  V30 883 H 82.5017 1.91016 -1.68478 0
M  V30 884 H 83.2847 1.22224 -3.20806 0
M  V30 885 N 85.7298 1.2412 0.971189 0
M  V30 886 C 86.9778 1.07668 1.71032 0
M  V30 887 C 87.2988 -0.385797 1.91146 0
M  V30 888 O 86.5688 -1.27569 1.4867 0
M  V30 889 H 85.1488 0.395429 0.633755 0
M  V30 890 H 87.8108 1.55984 1.16855 0
M  V30 891 H 86.9068 1.57195 2.69622 0
M  V30 892 N 87.2079 -1.17134 1.05439 0
M  V30 893 C 88.1409 -2.2012 0.601855 0
M  V30 894 C 89.1189 -1.58314 -0.370854 0
M  V30 895 O 90.3029 -1.8638 -0.281882 0
M  V30 896 C 87.4299 -3.38491 -0.118868 0
M  V30 897 C 86.4759 -4.18752 0.809242 0
M  V30 898 S 87.3089 -4.83602 2.29977 0
M  V30 899 C 88.4649 -6.0536 1.59029 0
M  V30 900 H 88.6979 -2.58165 1.47438 0
M  V30 901 H 86.2309 -1.27788 0.866573 0
M  V30 902 H 88.1889 -4.07084 -0.528495 0
M  V30 903 H 86.8499 -2.98829 -0.967465 0
M  V30 904 H 86.0429 -5.03373 0.251379 0
M  V30 905 H 85.6449 -3.5561 1.15835 0
M  V30 906 H 87.9369 -6.71615 0.891017 0
M  V30 907 H 88.8799 -6.65679 2.41407 0
M  V30 908 H 89.2879 -5.54138 1.07663 0
M  V30 909 N 88.686 -0.835752 -1.33615 0
M  V30 910 C 89.963 -0.352017 -1.92406 0
M  V30 911 C 90.343 1.16225 -1.76224 0
M  V30 912 O 89.691 1.97526 -1.14873 0
M  V30 913 C 89.901 -0.795485 -3.39813 0
M  V30 914 C 91.249 -0.801703 -4.16963 0
M  V30 915 O 92.273 -0.738889 -3.48452 0
M  V30 916 O 91.132 -0.886607 -5.3926 0
M  V30 917 H 88.226 -0.0989641 -0.821057 0
M  V30 918 H 90.772 -0.921397 -1.42507 0
M  V30 919 H 89.544 -1.83795 -3.45449 0
M  V30 920 H 89.167 -0.202505 -3.97084 0
M  V30 921 N 90.1641 1.46063 -0.591896 0
M  V30 922 C 91.4121 2.01938 -0.0808391 0
M  V30 923 C 91.7331 1.46475 1.28725 0
M  V30 924 O 91.0031 0.652944 1.84698 0
M  V30 925 H 89.5831 0.746516 -0.0268938 0
M  V30 926 H 92.2451 1.79055 -0.769752 0
M  V30 927 H 91.3411 3.12094 -0.0187578 0
M  V30 928 N 91.6422 0.330177 1.54103 0
M  V30 929 C 92.5722 -0.525353 2.27513 0
M  V30 930 C 93.5532 -1.11383 1.2856 0
M  V30 931 O 94.7382 -1.13773 1.57383 0
M  V30 932 C 91.8682 -1.6831 3.03791 0
M  V30 933 C 90.8222 -1.2236 4.10137 0
M  V30 934 C 90.1482 -2.46882 4.74293 0
M  V30 935 C 91.4482 -0.333697 5.21233 0
M  V30 936 H 93.1422 0.087013 2.99274 0
M  V30 937 H 90.6882 0.0432893 1.43935 0
M  V30 938 H 92.6412 -2.28795 3.5388 0
M  V30 939 H 91.3652 -2.32216 2.29659 0
M  V30 940 H 90.0242 -0.64165 3.60941 0
M  V30 941 H 89.6722 -3.09165 3.96769 0
M  V30 942 H 89.3722 -2.16825 5.46133 0
M  V30 943 H 90.8962 -3.08117 5.27159 0
M  V30 944 H 92.3102 -0.845013 5.67038 0
M  V30 945 H 90.7072 -0.125612 5.99969 0
M  V30 946 H 91.7772 0.633724 4.80741 0
M  V30 947 N 93.1203 -1.57491 0.0584922 0
M  V30 948 C 94.0833 -2.1085 -0.898617 0
M  V30 949 C 95.0833 -1.02964 -1.23511 0
M  V30 950 O 96.2733 -1.29007 -1.17059 0
M  V30 951 C 93.4053 -2.59881 -2.20623 0
M  V30 952 H 94.5983 -2.96715 -0.435936 0
M  V30 953 H 92.1513 -1.55141 -0.190023 0
M  V30 954 H 92.8863 -1.77431 -2.71457 0
M  V30 955 H 92.6713 -3.38727 -1.97501 0
M  V30 956 H 94.1613 -3.01285 -2.89166 0
M  V30 957 N 94.5984 0.214957 -1.56127 0
M  V30 958 C 95.5284 1.2695 -1.95974 0
M  V30 959 C 96.5094 1.48539 -0.828868 0
M  V30 960 O 97.6944 1.60611 -1.09168 0
M  V30 961 C 94.8244 2.61794 -2.28214 0
M  V30 962 C 93.7784 2.54851 -3.43853 0
M  V30 963 C 93.1044 3.93785 -3.61715 0
M  V30 964 C 94.4044 2.09065 -4.78632 0
M  V30 965 H 96.0984 0.93846 -2.84312 0
M  V30 966 H 93.6444 0.449996 -1.36788 0
M  V30 967 H 95.5974 3.35731 -2.54682 0
M  V30 968 H 94.3214 2.96599 -1.36736 0
M  V30 969 H 92.9804 1.8337 -3.17444 0
M  V30 970 H 92.6284 4.25908 -2.67602 0
M  V30 971 H 92.3284 3.90019 -4.39498 0
M  V30 972 H 93.8524 4.69374 -3.90539 0
M  V30 973 H 95.2664 2.7275 -5.04262 0
M  V30 974 H 93.6634 2.16346 -5.59745 0
M  V30 975 H 94.7334 1.04315 -4.73547 0
M  V30 976 N 96.0765 1.50051 0.48192 0
M  V30 977 C 97.0065 1.71046 1.58951 0
M  V30 978 C 97.9875 0.559288 1.60642 0
M  V30 979 O 99.1725 0.797243 1.77081 0
M  V30 980 C 96.3025 1.79462 2.97339 0
M  V30 981 C 95.2565 2.94558 3.10515 0
M  V30 982 C 94.5825 2.88105 4.50444 0
M  V30 983 C 95.8825 4.35227 2.88747 0
M  V30 984 H 97.5765 2.6378 1.41635 0
M  V30 985 H 95.1225 1.26936 0.679942 0
M  V30 986 H 97.0755 1.92734 3.74742 0
M  V30 987 H 95.7995 0.833412 3.15788 0
M  V30 988 H 94.4585 2.80918 2.35543 0
M  V30 989 H 94.1065 1.89853 4.65795 0
M  V30 990 H 93.8065 3.65366 4.60197 0
M  V30 991 H 95.3305 3.03412 5.29881 0
M  V30 992 H 96.7445 4.49449 3.55905 0
M  V30 993 H 95.1415 5.13856 3.09955 0
M  V30 994 H 96.2115 4.48347 1.84696 0
M  V30 995 N 97.5546 -0.734337 1.39446 0
M  V30 996 C 98.5016 -1.84835 1.38219 0
M  V30 997 C 99.4716 -1.64331 0.24179 0
M  V30 998 O 100.657 -1.85728 0.437002 0
M  V30 999 C 97.7966 -3.22355 1.23212 0
M  V30 1000 C 96.9096 -3.5456 2.46801 0
M  V30 1001 C 96.0446 -4.81485 2.24377 0
M  V30 1002 C 95.0836 -5.06536 3.43639 0
M  V30 1003 N 94.2206 -6.24665 3.20528 0
M  V30 1004 H 99.0606 -1.85219 2.33448 0
M  V30 1005 H 96.5976 -0.905039 1.15963 0
M  V30 1006 H 98.5556 -4.0174 1.12522 0
M  V30 1007 H 97.1856 -3.21248 0.316121 0
M  V30 1008 H 96.2376 -2.69872 2.68092 0
M  V30 1009 H 97.5496 -3.6899 3.3563 0
M  V30 1010 H 96.7036 -5.68852 2.10933 0
M  V30 1011 H 95.4426 -4.6923 1.32944 0
M  V30 1012 H 94.4476 -4.17632 3.5758 0
M  V30 1013 H 95.6726 -5.20676 4.35974 0
M  V30 1014 H 93.6186 -6.13696 2.3176 0
M  V30 1015 H 93.5356 -6.39685 4.02913 0
M  V30 1016 H 94.8036 -7.14868 3.10779 0
M  V30 1017 N 99.0327 -1.24633 -0.964593 0
M  V30 1018 C 99.9647 -0.999302 -2.06268 0
M  V30 1019 C 100.978 0.0323226 -1.62768 0
M  V30 1020 O 102.167 -0.205079 -1.77318 0
M  V30 1021 C 99.2667 -0.486816 -3.35385 0
M  V30 1022 C 98.4397 -1.5823 -4.07777 0
M  V30 1023 C 97.4987 -1.07191 -5.15166 0
M  V30 1024 O 96.5247 -1.76426 -5.41168 0
M  V30 1025 N 97.7267 0.0920373 -5.80427 0
M  V30 1026 H 100.492 -1.94477 -2.28033 0
M  V30 1027 H 98.0527 -1.15704 -1.13244 0
M  V30 1028 H 100.045 -0.130066 -4.04491 0
M  V30 1029 H 98.6147 0.364459 -3.10468 0
M  V30 1030 H 97.8347 -2.11109 -3.32906 0
M  V30 1031 H 99.1227 -2.31854 -4.52903 0
M  V30 1032 H 98.5207 0.670784 -5.61709 0
M  V30 1033 H 97.0777 0.389905 -6.50633 0
M  V30 1034 N 100.511 1.16574 -1.06058 0
M  V30 1035 C 101.76 1.86385 -0.770944 0
M  V30 1036 C 102.073 1.82448 0.705129 0
M  V30 1037 O 103.279 2.47815 1.10905 0
M  V30 1038 C 101.735 3.34466 -1.32893 0
M  V30 1039 C 101.343 3.46883 -2.83507 0
M  V30 1040 C 103.087 4.09548 -1.11672 0
M  V30 1041 C 100.994 4.89036 -3.32562 0
M  V30 1042 H 99.9238 0.698181 -0.284709 0
M  V30 1043 H 102.575 1.31583 -1.27899 0
M  V30 1044 H 100.957 3.88859 -0.748662 0
M  V30 1045 H 102.131 3.02663 -3.47465 0
M  V30 1046 H 100.446 2.85232 -3.03368 0
M  V30 1047 H 103.043 5.14434 -1.45814 0
M  V30 1048 H 103.386 4.16264 -0.0549535 0
M  V30 1049 H 103.919 3.61387 -1.66265 0
M  V30 1050 H 100.658 4.87499 -4.38207 0
M  V30 1051 H 100.178 5.3389 -2.73351 0
M  V30 1052 H 101.857 5.57843 -3.2775 0
M  V30 1053 N 101.989 0.842826 1.3317 0
M  V30 1054 C 102.936 0.276885 2.29133 0
M  V30 1055 C 103.906 -0.609527 1.54512 0
M  V30 1056 O 105.091 -0.546955 1.82792 0
M  V30 1057 C 102.231 -0.538707 3.40869 0
M  V30 1058 C 101.344 0.372169 4.30394 0
M  V30 1059 C 100.479 -0.454908 5.29249 0
M  V30 1060 C 99.5179 0.45411 6.10413 0
M  V30 1061 N 98.6549 -0.335075 7.013 0
M  V30 1062 H 103.495 1.10052 2.76934 0
M  V30 1063 H 101.032 0.554161 1.36262 0
M  V30 1064 H 102.99 -1.02709 4.0436 0
M  V30 1065 H 101.62 -1.32727 2.9425 0
M  V30 1066 H 100.672 0.97888 3.6759 0
M  V30 1067 H 101.984 1.0703 4.87182 0
M  V30 1068 H 101.138 -1.00695 5.98285 0
M  V30 1069 H 99.8769 -1.18646 4.73048 0
M  V30 1070 H 98.8819 1.01813 5.40291 0
M  V30 1071 H 100.107 1.18409 6.68697 0
M  V30 1072 H 98.0529 -1.04994 6.47543 0
M  V30 1073 H 97.9699 0.304262 7.55387 0
M  V30 1074 H 99.2379 -0.869224 7.74638 0
M  V30 1075 N 103.467 -1.45747 0.599634 0
M  V30 1076 C 104.399 -2.28628 -0.161879 0
M  V30 1077 C 105.412 -1.39494 -0.839367 0
M  V30 1078 O 106.601 -1.63941 -0.706089 0
M  V30 1079 C 103.701 -3.15014 -1.24976 0
M  V30 1080 C 102.874 -4.32378 -0.660935 0
M  V30 1081 C 101.933 -5.00033 -1.63869 0
M  V30 1082 O 100.959 -5.57085 -1.1681 0
M  V30 1083 N 102.161 -4.98589 -2.97303 0
M  V30 1084 H 104.926 -2.94624 0.549265 0
M  V30 1085 H 102.487 -1.55847 0.438565 0
M  V30 1086 H 104.479 -3.5714 -1.9035 0
M  V30 1087 H 103.049 -2.5098 -1.86354 0
M  V30 1088 H 102.269 -3.9383 0.170688 0
M  V30 1089 H 103.557 -5.08197 -0.247619 0
M  V30 1090 H 102.955 -4.53514 -3.38145 0
M  V30 1091 H 101.512 -5.44603 -3.58121 0
M  V30 1092 N 104.945 -0.338344 -1.53925 0
M  V30 1093 C 106.361 0.0137736 -1.59594 0
M  V30 1094 C 106.561 1.49186 -1.35447 0
M  V30 1095 O 105.617 2.24987 -1.14616 0
M  V30 1096 C 106.93 -0.41773 -2.97784 0
M  V30 1097 C 108.478 -0.369633 -3.1081 0
M  V30 1098 C 108.953 -0.776524 -4.51369 0
M  V30 1099 N 110.444 -0.730506 -4.57403 0
M  V30 1100 C 111.179 -1.01736 -5.64303 0
M  V30 1101 N 110.675 -1.3721 -6.79077 0
M  V30 1102 N 112.468 -0.941942 -5.54151 0
M  V30 1103 H 104.619 -1.3012 -1.67876 0
M  V30 1104 H 106.882 -0.530082 -0.78595 0
M  V30 1105 H 106.588 -1.44811 -3.20504 0
M  V30 1106 H 106.462 0.209729 -3.76616 0
M  V30 1107 H 108.849 0.651568 -2.87817 0
M  V30 1108 H 108.93 -1.03223 -2.34049 0
M  V30 1109 H 108.574 -1.79571 -4.75096 0
M  V30 1110 H 108.504 -0.0914649 -5.26521 0
M  V30 1111 H 110.995 -0.468783 -3.74981 0
M  V30 1112 H 111.308 -1.57597 -7.5656 0
M  V30 1113 H 109.653 -1.4105 -6.80536 0
M  V30 1114 H 112.844 -0.664184 -4.63364 0
M  V30 1115 H 113.017 -1.16884 -6.37371 0
M  V30 1116 N 106.423 1.57458 -0.0668435 0
M  V30 1117 C 107.373 2.0896 0.912119 0
M  V30 1118 C 108.357 0.998186 1.26195 0
M  V30 1119 O 109.549 1.26133 1.24175 0
M  V30 1120 C 106.678 2.6508 2.18145 0
M  V30 1121 C 105.764 3.81218 1.85832 0
M  V30 1122 N 106.155 4.90378 1.23948 0
M  V30 1123 C 104.453 3.9042 2.15612 0
M  V30 1124 C 105.154 5.71279 1.09616 0
M  V30 1125 N 104.13 5.19389 1.60423 0
M  V30 1126 H 107.932 2.90749 0.42924 0
M  V30 1127 H 105.446 1.6182 0.137184 0
M  V30 1128 H 107.443 3.0029 2.89192 0
M  V30 1129 H 106.103 1.84736 2.67025 0
M  V30 1130 H 107.114 5.09847 0.909731 0
M  V30 1131 H 103.791 3.21043 2.66903 0
M  V30 1132 H 105.181 6.69085 0.614425 0
M  V30 1133 N 107.901 -0.206675 1.56239 0
M  V30 1134 C 109.312 -0.772383 1.69974 0
M  V30 1135 C 109.663 -1.84353 0.671436 0
M  V30 1136 O 108.788 -2.15695 -0.174491 0
M  V30 1137 C 109.383 -1.40779 3.08167 0
M  V30 1138 C 107.942 -1.92072 3.23706 0
M  V30 1139 C 107.089 -0.786347 2.65917 0
M  V30 1140 H 110.04 0.0182223 1.5869 0
M  V30 1141 H 110.061 -2.27696 3.04852 0
M  V30 1142 H 109.573 -0.627958 3.82986 0
M  V30 1143 H 107.674 -2.7281 2.53782 0
M  V30 1144 H 107.787 -2.09046 4.31087 0
M  V30 1145 H 106.151 -1.1976 2.24788 0
M  V30 1146 H 106.934 -0.0189416 3.43295 0
M  V30 1147 N 109.379 -1.50304 -0.473955 0
M  V30 1148 C 110.312 -1.63595 -1.59097 0
M  V30 1149 C 111.29 -0.484142 -1.55225 0
M  V30 1150 O 112.474 -0.703271 -1.7489 0
M  V30 1151 C 109.601 -1.61589 -2.97669 0
M  V30 1152 C 108.647 -2.82295 -3.19705 0
M  V30 1153 S 109.48 -4.43635 -2.99913 0
M  V30 1154 C 110.636 -4.44317 -4.40832 0
M  V30 1155 H 110.869 -2.58082 -1.47583 0
M  V30 1156 H 108.402 -1.39531 -0.661087 0
M  V30 1157 H 110.36 -1.61116 -3.7756 0
M  V30 1158 H 109.021 -0.683421 -3.06575 0
M  V30 1159 H 108.214 -2.77188 -4.20931 0
M  V30 1160 H 107.816 -2.8032 -2.47582 0
M  V30 1161 H 110.108 -4.17703 -5.33414 0
M  V30 1162 H 111.051 -5.45911 -4.50984 0
M  V30 1163 H 111.459 -3.74059 -4.22777 0
M  V30 1164 N 110.857 0.726932 -1.39834 0
M  V30 1165 C 111.787 1.85405 -1.41941 0
M  V30 1166 C 112.768 1.67751 -0.281728 0
M  V30 1167 O 113.953 1.8795 -0.488717 0
M  V30 1168 C 111.083 3.23243 -1.2701 0
M  V30 1169 C 110.037 3.55549 -2.38262 0
M  V30 1170 C 109.363 4.9241 -2.08415 0
M  V30 1171 C 110.663 3.577 -3.80589 0
M  V30 1172 H 112.357 1.83899 -2.36266 0
M  V30 1173 H 109.903 0.883349 -1.13723 0
M  V30 1174 H 111.856 4.01775 -1.27103 0
M  V30 1175 H 110.58 3.25296 -0.291564 0
M  V30 1176 H 109.239 2.79351 -2.37399 0
M  V30 1177 H 108.887 4.91052 -1.0898 0
M  V30 1178 H 108.587 5.14992 -2.82943 0
M  V30 1179 H 110.111 5.73289 -2.10171 0
M  V30 1180 H 111.525 4.26293 -3.83337 0
M  V30 1181 H 109.922 3.91804 -4.54543 0
M  V30 1182 H 110.992 2.57328 -4.10987 0
M  V30 1183 N 112.336 1.25143 0.95797 0
M  V30 1184 C 113.747 1.08851 1.51685 0
M  V30 1185 C 114.098 -0.33687 1.93286 0
M  V30 1186 O 113.223 -1.22644 1.7829 0
M  V30 1187 C 113.818 1.96978 2.75654 0
M  V30 1188 C 112.377 1.84881 3.27866 0
M  V30 1189 C 111.524 1.91329 2.0072 0
M  V30 1190 H 114.475 1.38478 0.77522 0
M  V30 1191 H 114.496 1.5078 3.4935 0
M  V30 1192 H 114.008 3.00712 2.45345 0
M  V30 1193 H 112.109 0.840182 3.63004 0
M  V30 1194 H 112.222 2.6951 3.96107 0
M  V30 1195 H 110.586 1.35174 2.15871 0
M  V30 1196 H 111.369 2.96661 1.72764 0
M  V30 1197 N 113.814 -1.1601 1.06675 0
M  V30 1198 C 115.06 -1.86909 0.786945 0
M  V30 1199 C 115.393 -1.81717 -0.685018 0
M  V30 1200 O 114.668 -1.23551 -1.50218 0
M  V30 1201 C 114.951 -3.36313 1.28707 0
M  V30 1202 C 114.804 -3.50175 2.82308 0
M  V30 1203 C 116.123 -4.3084 0.898071 0
M  V30 1204 H 113.242 -0.678677 0.287343 0
M  V30 1205 H 115.884 -1.36336 1.32334 0
M  V30 1206 H 114.034 -3.79513 0.830768 0
M  V30 1207 H 115.706 -3.15886 3.36175 0
M  V30 1208 H 113.949 -2.91959 3.20847 0
M  V30 1209 H 114.62 -4.55116 3.12368 0
M  V30 1210 H 117.096 -3.95561 1.29114 0
M  V30 1211 H 115.972 -5.33876 1.27543 0
M  V30 1212 H 116.233 -4.41662 -0.196651 0
M  V30 1213 N 115.292 -0.849877 -1.32721 0
M  V30 1214 C 116.541 -0.447175 -1.96681 0
M  V30 1215 C 116.854 1.00135 -1.68025 0
M  V30 1216 O 118.06 1.50926 -2.25685 0
M  V30 1217 C 116.516 -0.7487 -3.52026 0
M  V30 1218 C 116.124 -2.21264 -3.89546 0
M  V30 1219 C 117.868 -0.413487 -4.22481 0
M  V30 1220 C 115.775 -2.45763 -5.37917 0
M  V30 1221 H 114.705 -0.163486 -0.736063 0
M  V30 1222 H 117.356 -1.03999 -1.51183 0
M  V30 1223 H 115.738 -0.0853727 -3.95908 0
M  V30 1224 H 116.912 -2.91736 -3.56689 0
M  V30 1225 H 115.227 -2.5119 -3.32103 0
M  V30 1226 H 117.824 -0.574017 -5.3161 0
M  V30 1227 H 118.167 0.644492 -4.11281 0
M  V30 1228 H 118.7 -1.03251 -3.84167 0
M  V30 1229 H 115.439 -3.50168 -5.54132 0
M  V30 1230 H 114.959 -1.79864 -5.72197 0
M  V30 1231 H 116.638 -2.29471 -6.0494 0
M  V30 1232 N 116.77 1.45427 -0.607355 0
M  V30 1233 C 118.019 2.01452 -0.100036 0
M  V30 1234 C 118.332 1.48159 1.27704 0
M  V30 1235 O 119.538 1.96159 1.87707 0
M  V30 1236 C 117.994 3.59672 -0.128158 0
M  V30 1237 C 117.602 4.21962 -1.50507 0
M  V30 1238 C 119.346 4.23262 0.323932 0
M  V30 1239 C 117.253 5.72333 -1.48959 0
M  V30 1240 H 116.183 0.75325 -0.0336299 0
M  V30 1241 H 118.834 1.66901 -0.76265 0
M  V30 1242 H 117.216 3.91411 0.601105 0
M  V30 1243 H 118.39 4.01796 -2.25602 0
M  V30 1244 H 116.705 3.70565 -1.89923 0
M  V30 1245 H 119.302 5.33522 0.354691 0
M  V30 1246 H 119.645 3.93921 1.34656 0
M  V30 1247 H 120.178 3.96239 -0.352056 0
M  V30 1248 H 116.917 6.06373 -2.48981 0
M  V30 1249 H 116.437 5.94691 -0.781214 0
M  V30 1250 H 118.116 6.35525 -1.21313 0
M  V30 1251 N 118.248 0.346503 1.53744 0
M  V30 1252 C 119.181 -0.552023 2.21423 0
M  V30 1253 C 120.159 -1.09798 1.19929 0
M  V30 1254 O 121.343 -1.1577 1.4876 0
M  V30 1255 C 118.47 -1.75972 2.89398 0
M  V30 1256 C 117.516 -1.34295 4.04805 0
M  V30 1257 S 118.349 -0.360263 5.34287 0
M  V30 1258 C 119.505 -1.57473 6.05767 0
M  V30 1259 H 119.738 0.0228119 2.97291 0
M  V30 1260 H 117.271 0.130579 1.53847 0
M  V30 1261 H 119.229 -2.45256 3.2918 0
M  V30 1262 H 117.89 -2.30578 2.1329 0
M  V30 1263 H 117.083 -2.24349 4.51313 0
M  V30 1264 H 116.685 -0.729555 3.66815 0
M  V30 1265 H 118.977 -2.50875 6.29339 0
M  V30 1266 H 119.92 -1.15138 6.98676 0
M  V30 1267 H 120.328 -1.77212 5.35963 0
M  V30 1268 N 119.726 -1.57421 0.075193 0
M  V30 1269 C 120.954 -1.97946 -0.602076 0
M  V30 1270 C 121.369 -0.953674 -1.62943 0
M  V30 1271 O 120.726 0.0592551 -1.82404 0
M  V30 1272 C 120.777 -3.38546 -1.26762 0
M  V30 1273 O 120.498 -4.37195 -0.281376 0
M  V30 1274 C 121.999 -3.93966 -2.03239 0
M  V30 1275 H 119.219 -0.650918 -0.162931 0
M  V30 1276 H 121.763 -2.03959 0.148601 0
M  V30 1277 H 119.918 -3.33609 -1.96936 0
M  V30 1278 H 120.332 -5.18975 -0.759267 0
M  V30 1279 H 121.806 -4.94555 -2.45193 0
M  V30 1280 H 122.283 -3.30693 -2.8903 0
M  V30 1281 H 122.889 -4.02315 -1.37924 0
M  V30 1282 N 121.204 0.198386 -1.56346 0
M  V30 1283 C 122.167 1.22952 -1.93431 0
M  V30 1284 C 123.167 1.38611 -0.815092 0
M  V30 1285 O 124.357 1.36479 -1.08255 0
M  V30 1286 C 121.489 2.59946 -2.20546 0
M  V30 1287 H 122.682 0.912626 -2.85677 0
M  V30 1288 H 120.235 0.43977 -1.49986 0
M  V30 1289 H 120.97 2.96696 -1.30927 0
M  V30 1290 H 120.755 2.49953 -3.02102 0
M  V30 1291 H 122.245 3.3431 -2.50253 0
M  V30 1292 N 122.682 1.50554 0.465978 0
M  V30 1293 C 123.632 1.66177 1.56106 0
M  V30 1294 C 124.616 0.516265 1.52393 0
M  V30 1295 O 125.808 0.770906 1.5933 0
M  V30 1296 C 122.937 1.76396 2.94515 0
M  V30 1297 C 122.023 2.9664 3.03093 0
M  V30 1298 N 122.414 4.20245 2.81474 0
M  V30 1299 C 120.712 2.95304 3.34233 0
M  V30 1300 C 121.413 5.01259 2.95151 0
M  V30 1301 N 120.389 4.35318 3.25576 0
M  V30 1302 H 124.191 2.59434 1.38099 0
M  V30 1303 H 121.705 1.47808 0.6728 0
M  V30 1304 H 123.702 1.85694 3.73261 0
M  V30 1305 H 122.362 0.843017 3.13565 0
M  V30 1306 H 123.373 4.4966 2.56956 0
M  V30 1307 H 120.05 2.12729 3.59239 0
M  V30 1308 H 121.44 6.09564 2.82632 0
M  V30 1309 N 124.16 -0.719506 1.40217 0
M  V30 1310 C 125.385 -1.51371 1.4178 0
M  V30 1311 C 125.81 -1.88091 0.0182355 0
M  V30 1312 O 125.168 -1.52997 -0.972707 0
M  V30 1313 C 125.216 -2.768 2.31115 0
M  V30 1314 O 124.32 -3.73349 1.7517 0
M  V30 1315 H 123.661 -0.456529 0.482159 0
M  V30 1316 H 126.191 -0.88644 1.844 0
M  V30 1317 H 126.201 -3.25371 2.46167 0
M  V30 1318 H 124.876 -2.49407 3.3282 0
M  V30 1319 H 123.453 -3.32179 1.69444 0
M  V30 1320 N 125.638 -1.25649 -0.95132 0
M  V30 1321 C 126.915 -1.01361 -1.67288 0
M  V30 1322 C 127.295 0.459135 -2.06046 0
M  V30 1323 O 126.643 1.43723 -1.7764 0
M  V30 1324 C 126.853 -1.95256 -2.89268 0
M  V30 1325 C 128.201 -2.23289 -3.61147 0
M  V30 1326 O 129.225 -1.93041 -2.99355 0
M  V30 1327 O 128.084 -2.74741 -4.72419 0
M  V30 1328 H 125.178 -0.38464 -0.732107 0
M  V30 1329 H 127.724 -1.36817 -1.00395 0
M  V30 1330 H 126.496 -2.94685 -2.57442 0
M  V30 1331 H 126.119 -1.60218 -3.6389 0
M  V30 1332 N 127.117 1.15442 -1.07289 0
M  V30 1333 C 128.047 2.22312 -0.714107 0
M  V30 1334 C 129.028 1.67467 0.298155 0
M  V30 1335 O 130.213 1.93445 0.171048 0
M  V30 1336 C 127.343 3.47124 -0.110448 0
M  V30 1337 C 126.297 4.14926 -1.04979 0
M  V30 1338 C 125.623 5.33807 -0.308924 0
M  V30 1339 C 126.923 4.64762 -2.38314 0
M  V30 1340 H 128.617 2.5258 -1.6076 0
M  V30 1341 H 126.163 1.21404 -0.77441 0
M  V30 1342 H 128.116 4.21124 0.152482 0
M  V30 1343 H 126.84 3.16187 0.81812 0
M  V30 1344 H 125.499 3.42866 -1.29764 0
M  V30 1345 H 125.147 4.99126 0.623084 0
M  V30 1346 H 124.847 5.80113 -0.935036 0
M  V30 1347 H 126.371 6.10576 -0.0537771 0
M  V30 1348 H 127.785 5.30292 -2.1786 0
M  V30 1349 H 126.182 5.21728 -2.96514 0
M  V30 1350 H 127.252 3.80434 -3.00663 0
M  V30 1351 N 128.595 0.856903 1.32268 0
M  V30 1352 C 129.872 0.382583 1.91822 0
M  V30 1353 C 130.252 -1.13407 1.78051 0
M  V30 1354 O 129.6 -1.95673 1.18001 0
M  V30 1355 C 129.81 0.849446 3.38505 0
M  V30 1356 C 131.158 0.867936 4.15634 0
M  V30 1357 O 132.182 0.794232 3.47232 0
M  V30 1358 O 131.041 0.972286 5.37781 0
M  V30 1359 H 128.135 0.112014 0.819379 0
M  V30 1360 H 130.681 0.943952 1.41024 0
M  V30 1361 H 129.453 1.89267 3.42482 0
M  V30 1362 H 129.076 0.265652 3.96712 0
M  V30 1363 N 130.073 -1.45103 0.615059 0
M  V30 1364 C 131.036 -2.29025 -0.0895485 0
M  V30 1365 C 132.036 -1.40174 -0.787906 0
M  V30 1366 O 133.226 -1.62217 -0.634933 0
M  V30 1367 C 130.358 -3.21376 -1.13711 0
M  V30 1368 H 131.551 -2.92807 0.648382 0
M  V30 1369 H 129.104 -1.51749 0.374444 0
M  V30 1370 H 129.839 -2.6241 -1.90556 0
M  V30 1371 H 129.624 -3.86834 -0.640475 0
M  V30 1372 H 131.114 -3.84459 -1.63036 0
M  V30 1373 N 131.551 -0.354651 -1.53558 0
M  V30 1374 C 132.514 0.484566 -2.24019 0
M  V30 1375 C 133.514 1.01861 -1.24422 0
M  V30 1376 O 134.704 0.906097 -1.4878 0
M  V30 1377 C 131.836 1.67615 -2.96847 0
M  V30 1378 H 133.029 -0.131843 -2.9961 0
M  V30 1379 H 130.582 -0.106165 -1.55939 0
M  V30 1380 H 131.317 2.33095 -2.25471 0
M  V30 1381 H 131.102 1.30029 -3.69912 0
M  V30 1382 H 132.592 2.27114 -3.50441 0
M  V30 1383 N 133.029 1.57378 -0.0835403 0
M  V30 1384 C 134.275 1.94217 0.583733 0
M  V30 1385 C 134.608 0.964653 1.68547 0
M  V30 1386 O 133.883 -0.00422258 1.945 0
M  V30 1387 C 134.166 3.41253 1.14972 0
M  V30 1388 C 134.019 4.49768 0.0538277 0
M  V30 1389 C 135.338 3.89352 2.05166 0
M  V30 1390 H 132.457 0.706233 0.210724 0
M  V30 1391 H 135.099 1.89392 -0.1519 0
M  V30 1392 H 133.249 3.45496 1.77665 0
M  V30 1393 H 134.921 4.57641 -0.579851 0
M  V30 1394 H 133.164 4.29432 -0.614068 0
M  V30 1395 H 133.835 5.49817 0.490452 0
M  V30 1396 H 136.311 3.87189 1.52393 0
M  V30 1397 H 135.187 4.92822 2.41698 0
M  V30 1398 H 135.448 3.27973 2.96456 0
M  V30 1399 N 134.507 -0.190092 1.56449 0
M  V30 1400 C 135.732 -0.929864 1.85387 0
M  V30 1401 C 136.157 -1.7585 0.667704 0
M  V30 1402 O 135.515 -1.77198 -0.383459 0
M  V30 1403 C 135.563 -1.79773 3.12593 0
M  V30 1404 O 134.667 -2.89713 2.93496 0
M  V30 1405 H 134.008 -0.261574 0.610307 0
M  V30 1406 H 136.538 -0.193896 2.03679 0
M  V30 1407 H 136.548 -2.20139 3.43515 0
M  V30 1408 H 135.223 -1.18892 3.98544 0
M  V30 1409 H 133.8 -2.53065 2.73884 0
M  V30 1410 N 135.985 -1.50799 -0.457987 0
M  V30 1411 C 136.948 -1.7005 -1.53674 0
M  V30 1412 C 137.948 -0.570881 -1.50325 0
M  V30 1413 O 139.138 -0.838126 -1.52712 0
M  V30 1414 C 136.27 -1.73788 -2.93276 0
M  V30 1415 H 137.463 -2.66306 -1.37917 0
M  V30 1416 H 135.016 -1.40477 -0.685271 0
M  V30 1417 H 135.751 -0.792717 -3.14462 0
M  V30 1418 H 135.536 -2.55864 -2.97113 0
M  V30 1419 H 137.026 -1.90591 -3.71571 0
M  V30 1420 N 137.463 0.71206 -1.40597 0
M  V30 1421 C 138.693 1.49894 -1.42181 0
M  V30 1422 C 139.101 1.89189 -0.0208078 0
M  V30 1423 O 138.444 1.56223 0.966436 0
M  V30 1424 C 138.506 2.80215 -2.25211 0
M  V30 1425 C 138.17 2.63221 -3.73582 0
M  V30 1426 C 139.167 2.30249 -4.66135 0
M  V30 1427 C 136.852 2.79376 -4.17438 0
M  V30 1428 C 138.846 2.13645 -6.00529 0
M  V30 1429 C 136.533 2.6239 -5.51901 0
M  V30 1430 C 137.531 2.29573 -6.43262 0
M  V30 1431 O 137.219 2.12719 -7.75246 0
M  V30 1432 H 136.951 0.469031 -0.486812 0
M  V30 1433 H 139.505 0.88564 -1.85326 0
M  V30 1434 H 137.735 3.4389 -1.76852 0
M  V30 1435 H 139.424 3.41947 -2.18694 0
M  V30 1436 H 140.19 2.17398 -4.33547 0
M  V30 1437 H 136.069 3.03906 -3.46644 0
M  V30 1438 H 139.613 1.87953 -6.71803 0
M  V30 1439 H 135.51 2.74826 -5.84073 0
M  V30 1440 H 136.278 2.27611 -7.86216 0
M  V30 1441 N 138.941 1.26152 0.944643 0
M  V30 1442 C 139.873 1.03199 2.04652 0
M  V30 1443 C 140.886 -0.00642356 1.62799 0
M  V30 1444 O 142.075 0.233263 1.76969 0
M  V30 1445 C 139.175 0.540111 3.34568 0
M  V30 1446 C 138.348 1.64697 4.05208 0
M  V30 1447 C 137.407 1.15374 5.13396 0
M  V30 1448 O 136.433 1.85013 5.38293 0
M  V30 1449 N 137.635 0.00031529 5.805 0
M  V30 1450 H 140.4 1.9808 2.2491 0
M  V30 1451 H 137.961 1.17491 1.11389 0
M  V30 1452 H 139.953 0.194401 4.04233 0
M  V30 1453 H 138.523 -0.315021 3.11009 0
M  V30 1454 H 137.743 2.16379 3.29506 0
M  V30 1455 H 139.031 2.3903 4.49157 0
M  V30 1456 H 138.429 -0.581336 5.62705 0
M  V30 1457 H 136.986 -0.286346 6.51171 0
M  V30 1458 N 140.419 -1.14872 1.07899 0
M  V30 1459 C 141.351 -2.19425 0.662231 0
M  V30 1460 C 142.364 -1.60231 -0.288079 0
M  V30 1461 O 143.553 -1.78336 -0.076534 0
M  V30 1462 C 140.653 -3.38867 -0.0470695 0
M  V30 1463 C 139.826 -4.27597 0.920831 0
M  V30 1464 C 138.885 -5.25616 0.247805 0
M  V30 1465 O 137.911 -5.62189 0.890599 0
M  V30 1466 N 139.113 -5.71746 -1.00435 0
M  V30 1467 H 141.878 -2.55797 1.56166 0
M  V30 1468 H 139.439 -1.30042 0.964404 0
M  V30 1469 H 141.431 -4.01497 -0.50813 0
M  V30 1470 H 140.001 -3.00864 -0.848523 0
M  V30 1471 H 139.221 -3.61982 1.56087 0
M  V30 1472 H 140.509 -4.83748 1.57688 0
M  V30 1473 H 139.907 -5.44153 -1.54642 0
M  V30 1474 H 138.464 -6.36389 -1.40899 0
M  V30 1475 N 141.898 -0.863906 -1.31812 0
M  V30 1476 C 143.146 -0.470904 -1.96537 0
M  V30 1477 C 143.467 0.978771 -1.68657 0
M  V30 1478 O 142.737 1.6853 -0.998717 0
M  V30 1479 H 141.317 -0.171148 -0.72713 0
M  V30 1480 H 143.979 -1.10236 -1.60729 0
M  V30 1481 H 143.075 -0.623616 -3.05806 0
M  V30 1482 N 143.376 1.44774 -0.622745 0
M  V30 1483 C 144.339 2.29069 0.0774015 0
M  V30 1484 C 145.339 1.4059 0.780461 0
M  V30 1485 O 146.529 1.62551 0.626322 0
M  V30 1486 C 143.661 3.21974 1.12006 0
M  V30 1487 H 144.854 2.92459 -0.663901 0
M  V30 1488 H 142.407 1.51548 -0.382486 0
M  V30 1489 H 143.142 2.63417 1.89162 0
M  V30 1490 H 142.927 3.87168 0.619951 0
M  V30 1491 H 144.417 3.85318 1.60995 0
M  V30 1492 N 144.854 0.36279 1.53368 0
M  V30 1493 C 146.101 -0.227776 2.01215 0
M  V30 1494 C 146.429 -1.49003 1.25014 0
M  V30 1495 O 145.684 -1.92876 0.331236 0
M  V30 1496 C 145.983 -0.568417 3.52851 0
M  V30 1497 C 145.649 0.59918 4.46901 0
M  V30 1498 C 144.311 0.919559 4.72332 0
M  V30 1499 C 146.663 1.38156 5.02556 0
M  V30 1500 C 143.991 2.02434 5.5067 0
M  V30 1501 C 146.343 2.47674 5.821 0
M  V30 1502 C 145.007 2.8025 6.05819 0
M  V30 1503 H 144.277 -0.083349 0.736297 0
M  V30 1504 H 146.924 0.494677 1.85001 0
M  V30 1505 H 145.229 -1.37185 3.66998 0
M  V30 1506 H 146.926 -1.03756 3.87344 0
M  V30 1507 H 143.516 0.339437 4.27254 0
M  V30 1508 H 147.7 1.14729 4.82857 0
M  V30 1509 H 142.956 2.28075 5.67267 0
M  V30 1510 H 147.13 3.08716 6.24234 0
M  V30 1511 H 144.757 3.65979 6.66306 0
M  V30 1512 N 146.332 -1.57332 0.0918853 0
M  V30 1513 C 147.609 -1.85691 -0.614668 0
M  V30 1514 C 147.989 -0.988146 -1.86545 0
M  V30 1515 O 147.337 -0.0597055 -2.28422 0
M  V30 1516 C 147.547 -3.36294 -0.933126 0
M  V30 1517 C 148.895 -4.04275 -1.29796 0
M  V30 1518 O 149.919 -3.41157 -1.02424 0
M  V30 1519 O 148.778 -5.1564 -1.81047 0
M  V30 1520 H 145.872 -0.767802 -0.307261 0
M  V30 1521 H 148.418 -1.69244 0.12434 0
M  V30 1522 H 147.19 -3.91273 -0.0456404 0
M  V30 1523 H 146.813 -3.58076 -1.72822 0
M  V30 1524 N 147.81 0.181792 -1.56548 0
M  V30 1525 C 149.04 0.914618 -1.85252 0
M  V30 1526 C 149.448 1.76791 -0.673914 0
M  V30 1527 O 148.791 1.80009 0.366416 0
M  V30 1528 C 148.853 1.85019 -3.08234 0
M  V30 1529 C 148.517 1.17754 -4.41569 0
M  V30 1530 C 149.514 0.548035 -5.17003 0
M  V30 1531 C 147.199 1.17742 -4.88305 0
M  V30 1532 C 149.193 -0.0726128 -6.37359 0
M  V30 1533 C 146.88 0.552946 -6.08593 0
M  V30 1534 C 147.878 -0.070978 -6.82963 0
M  V30 1535 O 147.566 -0.685635 -8.00971 0
M  V30 1536 H 147.298 0.271695 -0.618998 0
M  V30 1537 H 149.852 0.189944 -2.0452 0
M  V30 1538 H 148.082 2.61491 -2.84885 0
M  V30 1539 H 149.771 2.45195 -3.23472 0
M  V30 1540 H 150.537 0.540174 -4.81982 0
M  V30 1541 H 146.416 1.65246 -4.30366 0
M  V30 1542 H 149.96 -0.560213 -6.95347 0
M  V30 1543 H 145.857 0.558354 -6.43081 0
M  V30 1544 H 146.625 -0.58385 -8.16415 0
M  V30 1545 N 149.288 1.51039 0.449983 0
M  V30 1546 C 150.218 1.74379 1.55288 0
M  V30 1547 C 151.199 0.593236 1.5942 0
M  V30 1548 O 152.384 0.834625 1.7535 0
M  V30 1549 C 149.514 1.85728 2.93466 0
M  V30 1550 C 148.468 3.01078 3.04197 0
M  V30 1551 C 147.794 2.97595 4.44231 0
M  V30 1552 C 149.094 4.41254 2.7945 0
M  V30 1553 H 150.788 2.66725 1.36008 0
M  V30 1554 H 148.334 1.2835 0.652864 0
M  V30 1555 H 150.287 2.0064 3.70569 0
M  V30 1556 H 149.011 0.900207 3.13949 0
M  V30 1557 H 147.67 2.85851 2.29531 0
M  V30 1558 H 147.318 1.99691 4.61663 0
M  V30 1559 H 147.018 3.75046 4.52343 0
M  V30 1560 H 148.542 3.14583 5.23326 0
M  V30 1561 H 149.956 4.56897 3.46292 0
M  V30 1562 H 148.353 5.20315 2.98985 0
M  V30 1563 H 149.423 4.52164 1.75144 0
M  V30 1564 N 150.766 -0.704594 1.40972 0
M  V30 1565 C 152.177 -1.28418 1.3552 0
M  V30 1566 C 152.528 -1.96171 0.0339434 0
M  V30 1567 O 151.653 -1.98231 -0.867944 0
M  V30 1568 C 152.248 -2.33528 2.45459 0
M  V30 1569 C 150.807 -2.87085 2.43433 0
M  V30 1570 C 149.954 -1.61007 2.2577 0
M  V30 1571 H 152.905 -0.499963 1.50619 0
M  V30 1572 H 152.926 -3.14619 2.13998 0
M  V30 1573 H 152.438 -1.84187 3.41609 0
M  V30 1574 H 150.539 -3.40626 1.51013 0
M  V30 1575 H 150.652 -3.3813 3.39419 0
M  V30 1576 H 149.016 -1.86482 1.73483 0
M  V30 1577 H 149.799 -1.13675 3.23933 0
M  V30 1578 N 152.244 -1.26651 -0.937939 0
M  V30 1579 C 153.191 -1.0849 -2.03712 0
M  V30 1580 C 154.161 0.011033 -1.66096 0
M  V30 1581 O 155.346 -0.149353 -1.90215 0
M  V30 1582 C 152.486 -0.72735 -3.37348 0
M  V30 1583 C 151.599 -1.89986 -3.87981 0
M  V30 1584 C 150.734 -1.48513 -5.10017 0
M  V30 1585 C 149.773 -2.62575 -5.5292 0
M  V30 1586 N 148.91 -2.21762 -6.66158 0
M  V30 1587 H 153.75 -2.02551 -2.18579 0
M  V30 1588 H 151.287 -1.00844 -1.07093 0
M  V30 1589 H 153.245 -0.50092 -4.14182 0
M  V30 1590 H 151.875 0.176298 -3.22318 0
M  V30 1591 H 150.927 -2.23913 -3.07518 0
M  V30 1592 H 152.239 -2.75586 -4.15757 0
M  V30 1593 H 151.393 -1.21934 -5.94321 0
M  V30 1594 H 150.132 -0.60009 -4.83994 0
M  V30 1595 H 149.137 -2.8988 -4.67172 0
M  V30 1596 H 150.362 -3.51685 -5.80943 0
M  V30 1597 H 148.308 -1.35696 -6.41812 0
M  V30 1598 H 148.225 -3.00903 -6.93537 0
M  V30 1599 H 149.493 -1.98403 -7.53828 0
M  V30 1600 N 153.722 1.14298 -1.08507 0
M  V30 1601 C 155.133 1.66926 -0.836227 0
M  V30 1602 C 155.484 1.85576 0.63686 0
M  V30 1603 O 154.609 1.56767 1.49175 0
M  V30 1604 C 155.204 3.03219 -1.51142 0
M  V30 1605 C 153.763 3.52876 -1.30979 0
M  V30 1606 C 152.91 2.2833 -1.57356 0
M  V30 1607 H 155.861 0.983491 -1.24552 0
M  V30 1608 H 155.882 3.68726 -0.939211 0
M  V30 1609 H 155.394 2.89612 -2.58353 0
M  V30 1610 H 153.495 3.71703 -0.258429 0
M  V30 1611 H 153.608 4.33586 -2.03814 0
M  V30 1612 H 151.972 2.34454 -0.995164 0
M  V30 1613 H 152.755 2.17298 -2.65775 0
M  V30 1614 N 155.201 0.870884 1.31352 0
M  V30 1615 C 156.448 0.482273 1.96673 0
M  V30 1616 C 156.776 -0.965638 1.68836 0
M  V30 1617 O 156.031 -1.69514 0.977937 0
M  V30 1618 C 156.33 0.687157 3.50732 0
M  V30 1619 C 155.996 2.108 3.9859 0
M  V30 1620 C 154.658 2.49656 4.1137 0
M  V30 1621 C 157.01 3.03459 4.23748 0
M  V30 1622 C 154.338 3.80412 4.46659 0
M  V30 1623 C 156.69 4.3373 4.60501 0
M  V30 1624 C 155.354 4.725 4.71487 0
M  V30 1625 H 154.624 0.176476 0.719679 0
M  V30 1626 H 157.271 1.10405 1.56471 0
M  V30 1627 H 155.576 -0.0177476 3.91796 0
M  V30 1628 H 157.273 0.366284 3.99324 0
M  V30 1629 H 153.863 1.79633 3.8914 0
M  V30 1630 H 158.047 2.74665 4.13368 0
M  V30 1631 H 153.303 4.1021 4.53362 0
M  V30 1632 H 157.477 5.05578 4.78919 0
M  V30 1633 H 155.104 5.73859 4.98588 0
M  V30 1634 N 156.679 -1.44442 0.630414 0
M  V30 1635 C 157.956 -1.9549 0.0655657 0
M  V30 1636 C 158.336 -1.5724 -1.40851 0
M  V30 1637 O 157.684 -0.846116 -2.12257 0
M  V30 1638 C 157.894 -3.47812 0.287691 0
M  V30 1639 C 159.242 -4.24216 0.180513 0
M  V30 1640 O 160.266 -3.55526 0.219019 0
M  V30 1641 O 159.125 -5.46434 0.0848493 0
M  V30 1642 H 156.219 -0.826688 -0.0227177 0
M  V30 1643 H 158.765 -1.54496 0.702068 0
M  V30 1644 H 157.537 -3.687 1.31056 0
M  V30 1645 H 157.16 -3.95751 -0.382984 0
M  V30 1646 N 158.157 -0.370918 -1.53173 0
M  V30 1647 C 159.406 0.218249 -2.00516 0
M  V30 1648 C 159.719 1.49429 -1.26215 0
M  V30 1649 O 160.925 2.16239 -1.64174 0
M  V30 1650 C 159.381 0.43948 -3.57207 0
M  V30 1651 C 158.989 -0.822244 -4.4039 0
M  V30 1652 C 160.733 0.986012 -4.1289 0
M  V30 1653 C 158.64 -0.570304 -5.88644 0
M  V30 1654 H 157.57 0.0853333 -0.749156 0
M  V30 1655 H 160.221 -0.490483 -1.76823 0
M  V30 1656 H 158.603 1.20961 -3.77074 0
M  V30 1657 H 159.777 -1.59557 -4.32294 0
M  V30 1658 H 158.092 -1.29238 -3.95836 0
M  V30 1659 H 160.689 1.18991 -5.21292 0
M  V30 1660 H 161.032 1.94972 -3.6782 0
M  V30 1661 H 161.565 0.27592 -3.96842 0
M  V30 1662 H 158.304 -1.50449 -6.38001 0
M  V30 1663 H 157.824 0.164427 -5.99575 0
M  V30 1664 H 159.503 -0.19784 -6.46697 0
M  V30 1665 N 159.635 1.57281 -0.100228 0
M  V30 1666 C 160.912 1.86014 0.604812 0
M  V30 1667 C 161.292 0.998025 1.86018 0
M  V30 1668 O 160.64 0.0718184 2.28387 0
M  V30 1669 C 160.85 3.36784 0.915278 0
M  V30 1670 C 162.198 4.04957 1.27651 0
M  V30 1671 O 163.222 3.41695 1.00613 0
M  V30 1672 O 162.081 5.16593 1.7831 0
M  V30 1673 H 159.175 0.76942 0.303185 0
M  V30 1674 H 161.721 1.69176 -0.133313 0
M  V30 1675 H 160.493 3.91292 0.0248896 0
M  V30 1676 H 160.116 3.58987 1.70921 0
M  V30 1677 N 161.113 -0.173488 1.56642 0
M  V30 1678 C 162.023 -1.23482 1.99473 0
M  V30 1679 C 163.039 -1.48567 0.905752 0
M  V30 1680 O 164.215 -1.60758 1.21321 0
M  V30 1681 C 161.28 -2.55444 2.34413 0
M  V30 1682 C 160.341 -2.38241 3.57127 0
M  V30 1683 C 159.574 -3.63909 3.90392 0
M  V30 1684 O 159.797 -4.68996 3.24653 0
M  V30 1685 O 158.731 -3.58149 4.83749 0
M  V30 1686 H 162.557 -0.901279 2.90018 0
M  V30 1687 H 160.142 -0.380185 1.44482 0
M  V30 1688 H 162.024 -3.33292 2.57865 0
M  V30 1689 H 160.699 -2.88382 1.4703 0
M  V30 1690 H 159.606 -1.58431 3.38896 0
M  V30 1691 H 160.939 -2.10228 4.45045 0
M  V30 1692 N 162.591 -1.51276 -0.441967 0
M  V30 1693 C 163.554 -1.7167 -1.51862 0
M  V30 1694 C 164.554 -0.586793 -1.49711 0
M  V30 1695 O 165.744 -0.854276 -1.51815 0
M  V30 1696 C 162.876 -1.76889 -2.91416 0
M  V30 1697 H 164.069 -2.67754 -1.35084 0
M  V30 1698 H 161.622 -1.41196 -0.670333 0
M  V30 1699 H 162.357 -0.826026 -3.13604 0
M  V30 1700 H 162.142 -2.59001 -2.94382 0
M  V30 1701 H 163.632 -1.94522 -3.69528 0
M  V30 1702 N 164.069 0.697108 -1.41344 0
M  V30 1703 C 165.315 1.4593 -1.40827 0
M  V30 1704 C 165.648 1.94193 -0.0167098 0
M  V30 1705 O 164.923 1.69425 0.955263 0
M  V30 1706 C 165.206 2.67229 -2.41373 0
M  V30 1707 C 165.059 2.24741 -3.8963 0
M  V30 1708 C 166.378 3.69423 -2.39196 0
M  V30 1709 H 163.497 0.529303 -0.512842 0
M  V30 1710 H 166.139 0.794112 -1.72609 0
M  V30 1711 H 164.289 3.23982 -2.14401 0
M  V30 1712 H 165.961 1.73327 -4.27499 0
M  V30 1713 H 164.204 1.56542 -4.0457 0
M  V30 1714 H 164.875 3.1177 -4.55525 0
M  V30 1715 H 167.351 3.2234 -2.63128 0
M  V30 1716 H 166.227 4.51907 -3.11563 0
M  V30 1717 H 166.488 4.19012 -1.41001 0
M  V30 1718 N 165.547 1.27147 0.931209 0
M  V30 1719 C 166.51 1.09615 2.01289 0
M  V30 1720 C 167.51 0.0412581 1.60747 0
M  V30 1721 O 168.7 0.285545 1.71844 0
M  V30 1722 C 165.832 0.669447 3.34262 0
M  V30 1723 H 167.025 2.05662 2.18273 0
M  V30 1724 H 164.578 1.09885 1.11153 0
M  V30 1725 H 165.313 -0.292572 3.22978 0
M  V30 1726 H 165.098 1.43127 3.65044 0
M  V30 1727 H 166.588 0.568921 4.13706 0
M  V30 1728 N 167.025 -1.13721 1.09112 0
M  V30 1729 C 167.955 -2.21148 0.749385 0
M  V30 1730 C 168.936 -1.6792 -0.271475 0
M  V30 1731 O 170.121 -1.93693 -0.140251 0
M  V30 1732 C 167.251 -3.46905 0.165659 0
M  V30 1733 C 166.205 -4.13203 1.11567 0
M  V30 1734 C 165.531 -5.33248 0.393809 0
M  V30 1735 C 166.831 -4.60912 2.45678 0
M  V30 1736 H 168.525 -2.4999 1.64758 0
M  V30 1737 H 166.071 -1.20156 0.793626 0
M  V30 1738 H 168.024 -4.21313 -0.085466 0
M  V30 1739 H 166.748 -3.17449 -0.767714 0
M  V30 1740 H 165.407 -3.40758 1.35202 0
M  V30 1741 H 165.055 -5.00054 -0.543599 0
M  V30 1742 H 164.755 -5.78552 1.02721 0
M  V30 1743 H 166.279 -6.10413 0.150908 0
M  V30 1744 H 167.693 -5.26759 2.26269 0
M  V30 1745 H 166.09 -5.16944 3.04776 0
M  V30 1746 H 167.16 -3.75603 3.06677 0
M  V30 1747 N 168.503 -0.877838 -1.30888 0
M  V30 1748 C 169.749 -0.493426 -1.96706 0
M  V30 1749 C 170.082 0.953504 -1.6918 0
M  V30 1750 O 169.357 1.67266 -0.992594 0
M  V30 1751 C 169.64 -0.760429 -3.51979 0
M  V30 1752 C 169.493 -2.25747 -3.89048 0
M  V30 1753 C 170.812 -0.232148 -4.39487 0
M  V30 1754 H 167.931 -0.180746 -0.714493 0
M  V30 1755 H 170.573 -1.10052 -1.54882 0
M  V30 1756 H 168.723 -0.243715 -3.87735 0
M  V30 1757 H 170.395 -2.84204 -3.63354 0
M  V30 1758 H 168.638 -2.72694 -3.37373 0
M  V30 1759 H 169.309 -2.39491 -4.97341 0
M  V30 1760 H 171.785 -0.674314 -4.106 0
M  V30 1761 H 170.661 -0.448355 -5.47066 0
M  V30 1762 H 170.922 0.866297 -4.33529 0
M  V30 1763 N 169.982 1.44106 -0.638065 0
M  V30 1764 C 170.892 2.34513 0.0637334 0
M  V30 1765 C 171.908 1.53018 0.828346 0
M  V30 1766 O 173.084 1.85723 0.779036 0
M  V30 1767 C 170.149 3.31095 1.02844 0
M  V30 1768 C 169.21 4.28497 0.26244 0
M  V30 1769 C 168.443 5.20465 1.1812 0
M  V30 1770 O 168.666 5.16514 2.42011 0
M  V30 1771 O 167.6 5.98251 0.661774 0
M  V30 1772 H 171.426 2.95989 -0.68003 0
M  V30 1773 H 169.011 1.43994 -0.398252 0
M  V30 1774 H 170.893 3.90526 1.58327 0
M  V30 1775 H 169.568 2.72144 1.7527 0
M  V30 1776 H 168.475 3.72592 -0.335602 0
M  V30 1777 H 169.808 4.90388 -0.421936 0
M  V30 1778 N 171.46 0.379036 1.52974 0
M  V30 1779 C 172.876 0.0285448 1.59574 0
M  V30 1780 C 173.076 -1.45542 1.39355 0
M  V30 1781 O 172.132 -2.2187 1.20541 0
M  V30 1782 C 173.445 0.496535 2.96572 0
M  V30 1783 C 174.993 0.451909 3.0972 0
M  V30 1784 C 175.468 0.895924 4.49152 0
M  V30 1785 N 176.959 0.851522 4.55306 0
M  V30 1786 C 177.694 1.16661 5.61407 0
M  V30 1787 N 177.19 1.55166 6.752 0
M  V30 1788 N 178.983 1.08853 5.51459 0
M  V30 1789 H 171.134 1.34525 1.64367 0
M  V30 1790 H 173.397 0.550733 0.771619 0
M  V30 1791 H 173.103 1.53258 3.16552 0
M  V30 1792 H 172.977 -0.109802 3.7704 0
M  V30 1793 H 175.364 -0.575029 2.89443 0
M  V30 1794 H 175.445 1.09392 2.3123 0
M  V30 1795 H 175.089 1.92104 4.70168 0
M  V30 1796 H 175.019 0.23103 5.26093 0
M  V30 1797 H 177.51 0.568038 3.73606 0
M  V30 1798 H 177.823 1.776 7.52116 0
M  V30 1799 H 176.168 1.59044 6.76557 0
M  V30 1800 H 179.359 0.786803 4.6144 0
M  V30 1801 H 179.532 1.33742 6.34048 0
M  V30 1802 N 172.938 -1.57226 0.108567 0
M  V30 1803 C 173.901 -2.13602 -0.831082 0
M  V30 1804 C 174.901 -1.06841 -1.20173 0
M  V30 1805 O 176.091 -1.32666 -1.12895 0
M  V30 1806 C 173.223 -2.66769 -2.12243 0
M  V30 1807 H 174.416 -2.97951 -0.341317 0
M  V30 1808 H 171.969 -1.55667 -0.14057 0
M  V30 1809 H 172.704 -1.85977 -2.65675 0
M  V30 1810 H 172.489 -3.44839 -1.86625 0
M  V30 1811 H 173.979 -3.10332 -2.79435 0
M  V30 1812 N 174.416 0.165178 -1.56732 0
M  V30 1813 C 175.665 0.879143 -1.81532 0
M  V30 1814 C 175.978 1.83144 -0.686842 0
M  V30 1815 O 177.184 2.58823 -0.819944 0
M  V30 1816 C 175.64 1.61388 -3.21686 0
M  V30 1817 C 175.248 0.704904 -4.4242 0
M  V30 1818 C 176.992 2.3157 -3.55774 0
M  V30 1819 C 174.899 1.44022 -5.73595 0
M  V30 1820 H 173.829 0.332033 -0.676957 0
M  V30 1821 H 176.48 0.132008 -1.83025 0
M  V30 1822 H 174.862 2.40599 -3.14529 0
M  V30 1823 H 176.036 -0.0506815 -4.60772 0
M  V30 1824 H 174.351 0.112419 -4.16248 0
M  V30 1825 H 176.948 2.8719 -4.51028 0
M  V30 1826 H 177.291 3.07201 -2.8095 0
M  V30 1827 H 177.824 1.59297 -3.64513 0
M  V30 1828 H 174.563 0.72612 -6.51466 0
M  V30 1829 H 174.083 2.16898 -5.5921 0
M  V30 1830 H 175.762 1.98606 -6.15764 0
M  V30 1831 N 175.894 1.51508 0.433938 0
M  V30 1832 C 177.119 1.68443 1.21003 0
M  V30 1833 C 177.544 0.382636 1.84167 0
M  V30 1834 O 176.902 -0.65755 1.68956 0
M  V30 1835 C 176.95 2.80405 2.26727 0
M  V30 1836 O 176.054 2.44245 3.32292 0
M  V30 1837 H 175.395 0.561536 0.354363 0
M  V30 1838 H 177.925 1.9809 0.512024 0
M  V30 1839 H 177.935 3.0459 2.71457 0
M  V30 1840 H 176.61 3.74867 1.80132 0
M  V30 1841 H 175.187 2.30644 2.93015 0
M  V30 1842 N 177.372 -0.689602 1.41712 0
M  V30 1843 C 178.322 -1.79571 1.40493 0
M  V30 1844 C 179.306 -1.58473 0.278409 0
M  V30 1845 O 180.498 -1.69204 0.519532 0
M  V30 1846 C 177.627 -3.17923 1.29536 0
M  V30 1847 C 176.713 -3.44695 2.47075 0
M  V30 1848 N 177.104 -3.42132 3.72531 0
M  V30 1849 C 175.402 -3.75269 2.41017 0
M  V30 1850 C 176.103 -3.67976 4.50521 0
M  V30 1851 N 175.079 -3.88014 3.80718 0
M  V30 1852 H 178.881 -1.75961 2.35404 0
M  V30 1853 H 176.395 -0.889839 1.35851 0
M  V30 1854 H 178.392 -3.97167 1.26745 0
M  V30 1855 H 177.052 -3.22741 0.356153 0
M  V30 1856 H 178.063 -3.22375 4.05333 0
M  V30 1857 H 174.74 -3.87421 1.55599 0
M  V30 1858 H 176.13 -3.7208 5.59469 0
M  V30 1859 N 178.85 -1.27639 -0.924453 0
M  V30 1860 C 180.08 -1.16819 -1.70402 0
M  V30 1861 C 180.488 0.277191 -1.87158 0
M  V30 1862 O 179.831 1.20025 -1.39067 0
M  V30 1863 C 179.893 -1.78305 -3.12166 0
M  V30 1864 C 179.557 -3.27502 -3.18734 0
M  V30 1865 C 180.554 -4.2409 -3.00738 0
M  V30 1866 C 178.239 -3.68269 -3.4159 0
M  V30 1867 C 180.233 -5.59422 -3.05492 0
M  V30 1868 C 177.92 -5.0373 -3.45977 0
M  V30 1869 C 178.918 -5.99116 -3.27946 0
M  V30 1870 O 178.606 -7.32108 -3.32074 0
M  V30 1871 H 178.338 -0.406931 -0.539799 0
M  V30 1872 H 180.892 -1.69078 -1.16626 0
M  V30 1873 H 179.122 -1.20528 -3.67437 0
M  V30 1874 H 180.811 -1.62154 -3.72103 0
M  V30 1875 H 181.577 -3.93931 -2.82919 0
M  V30 1876 H 177.456 -2.94496 -3.54673 0
M  V30 1877 H 181 -6.33852 -2.91337 0
M  V30 1878 H 176.897 -5.33543 -3.63321 0
M  V30 1879 H 177.665 -7.40598 -3.48507 0
M  V30 1880 N 180.328 1.1314 -1.09713 0
M  V30 1881 C 181.26 2.18343 -0.697056 0
M  V30 1882 C 182.273 1.60669 0.262551 0
M  V30 1883 O 183.462 1.78435 0.0481527 0
M  V30 1884 C 180.562 3.38899 -0.00684728 0
M  V30 1885 C 179.735 4.26078 -0.988741 0
M  V30 1886 C 178.794 5.25155 -0.331394 0
M  V30 1887 O 177.82 5.60701 -0.979926 0
M  V30 1888 N 179.022 5.73271 0.913261 0
M  V30 1889 H 181.787 2.5328 -1.60216 0
M  V30 1890 H 179.348 1.28491 -0.984971 0
M  V30 1891 H 181.34 4.02255 0.444191 0
M  V30 1892 H 179.91 3.02175 0.800551 0
M  V30 1893 H 179.13 3.59453 -1.61826 0
M  V30 1894 H 180.418 4.81178 -1.65364 0
M  V30 1895 H 179.816 5.46544 1.45966 0
M  V30 1896 H 178.373 6.3855 1.30757 0
M  V30 1897 N 181.806 0.884767 1.30421 0
M  V30 1898 C 182.716 0.355398 2.31892 0
M  V30 1899 C 183.732 -0.542261 1.65335 0
M  V30 1900 O 184.908 -0.435432 1.96637 0
M  V30 1901 C 181.973 -0.421661 3.44126 0
M  V30 1902 C 181.034 0.505727 4.26311 0
M  V30 1903 C 180.267 -0.234343 5.33185 0
M  V30 1904 O 180.49 -1.46045 5.51386 0
M  V30 1905 O 179.424 0.415443 6.00465 0
M  V30 1906 H 183.25 1.19685 2.79122 0
M  V30 1907 H 180.835 0.648596 1.34587 0
M  V30 1908 H 182.717 -0.861641 4.12497 0
M  V30 1909 H 181.392 -1.23942 2.99032 0
M  V30 1910 H 180.299 0.994513 3.60639 0
M  V30 1911 H 181.632 1.28948 4.75009 0
M  V30 1912 N 183.284 -1.43765 0.645699 0
M  V30 1913 C 184.216 -2.29027 -0.0890605 0
M  V30 1914 C 185.229 -1.42093 -0.794563 0
M  V30 1915 O 186.418 -1.66104 -0.653575 0
M  V30 1916 C 183.518 -3.18831 -1.14891 0
M  V30 1917 C 182.691 -4.34261 -0.523043 0
M  V30 1918 C 181.75 -5.04994 -1.47878 0
M  V30 1919 O 180.776 -5.6052 -0.990277 0
M  V30 1920 N 181.978 -5.07795 -2.81291 0
M  V30 1921 H 184.743 -2.92727 0.64272 0
M  V30 1922 H 182.304 -1.54373 0.487924 0
M  V30 1923 H 184.296 -3.63015 -1.78892 0
M  V30 1924 H 182.866 -2.56782 -1.78275 0
M  V30 1925 H 182.086 -3.93088 0.295896 0
M  V30 1926 H 183.374 -5.08728 -0.0858147 0
M  V30 1927 H 182.772 -4.64042 -3.23546 0
M  V30 1928 H 181.329 -5.55721 -3.40614 0
M  V30 1929 N 184.763 -0.387143 -1.52771 0
M  V30 1930 C 185.695 0.484089 -2.2403 0
M  V30 1931 C 186.708 1.02849 -1.26198 0
M  V30 1932 O 187.897 0.931186 -1.52286 0
M  V30 1933 C 184.997 1.68337 -2.94136 0
M  V30 1934 C 184.17 1.26672 -4.18656 0
M  V30 1935 C 183.229 2.33045 -4.7178 0
M  V30 1936 O 182.255 1.94541 -5.34923 0
M  V30 1937 N 183.457 3.64929 -4.5145 0
M  V30 1938 H 186.222 -0.126404 -2.99433 0
M  V30 1939 H 183.783 -0.213392 -1.60488 0
M  V30 1940 H 185.775 2.39019 -3.26577 0
M  V30 1941 H 184.345 2.20025 -2.22053 0
M  V30 1942 H 183.565 0.388878 -3.92277 0
M  V30 1943 H 184.853 0.964964 -4.99566 0
M  V30 1944 H 184.251 3.98974 -4.01044 0
M  V30 1945 H 182.808 4.31651 -4.88386 0
M  V30 1946 N 186.241 1.57166 -0.116904 0
M  V30 1947 C 187.173 2.12271 0.864507 0
M  V30 1948 C 188.186 1.06494 1.23138 0
M  V30 1949 O 189.375 1.33873 1.18069 0
M  V30 1950 C 186.475 2.60564 2.16702 0
M  V30 1951 C 185.648 3.90416 1.97216 0
M  V30 1952 C 184.707 4.24329 3.11178 0
M  V30 1953 O 183.733 4.93182 2.84184 0
M  V30 1954 N 184.935 3.8148 4.37554 0
M  V30 1955 H 187.7 2.97102 0.393726 0
M  V30 1956 H 185.261 1.61759 0.0675805 0
M  V30 1957 H 187.253 2.80282 2.91932 0
M  V30 1958 H 185.823 1.80623 2.55135 0
M  V30 1959 H 185.043 3.79627 1.06192 0
M  V30 1960 H 186.331 4.75327 1.81499 0
M  V30 1961 H 185.729 3.25943 4.62361 0
M  V30 1962 H 184.286 4.06311 5.09661 0
M  V30 1963 N 187.719 -0.156864 1.56817 0
M  V30 1964 C 189.13 -0.717916 1.72345 0
M  V30 1965 C 189.481 -1.82124 0.729747 0
M  V30 1966 O 188.606 -2.16141 -0.105781 0
M  V30 1967 C 189.201 -1.30904 3.12489 0
M  V30 1968 C 187.76 -1.81676 3.29653 0
M  V30 1969 C 186.907 -0.701349 2.68284 0
M  V30 1970 H 189.858 0.0686989 1.58551 0
M  V30 1971 H 189.879 -2.17882 3.11942 0
M  V30 1972 H 189.391 -0.505796 3.8479 0
M  V30 1973 H 187.492 -2.64598 2.62333 0
M  V30 1974 H 187.605 -1.95226 4.3752 0
M  V30 1975 H 185.969 -1.12548 2.28484 0
M  V30 1976 H 186.752 0.0902846 3.43181 0
M  V30 1977 N 189.197 -1.51736 -0.425897 0
M  V30 1978 C 190.613 -1.40166 -0.76326 0
M  V30 1979 C 190.813 -0.492962 -1.95377 0
M  V30 1980 O 189.869 0.0475815 -2.52455 0
M  V30 1981 C 191.182 -2.82403 -1.03291 0
M  V30 1982 C 192.73 -2.91632 -1.13665 0
M  V30 1983 C 193.205 -4.34801 -1.43916 0
M  V30 1984 N 194.696 -4.3796 -1.50816 0
M  V30 1985 C 195.431 -5.4578 -1.75817 0
M  V30 1986 N 194.927 -6.63744 -1.98534 0
M  V30 1987 N 196.72 -5.33274 -1.77694 0
M  V30 1988 H 188.871 -2.09361 0.358 0
M  V30 1989 H 191.134 -0.942941 0.0978094 0
M  V30 1990 H 190.84 -3.50943 -0.230696 0
M  V30 1991 H 190.714 -3.22428 -1.95754 0
M  V30 1992 H 193.101 -2.23284 -1.92947 0
M  V30 1993 H 193.182 -2.55088 -0.190756 0
M  V30 1994 H 192.826 -5.03703 -0.65157 0
M  V30 1995 H 192.756 -4.68868 -2.39729 0
M  V30 1996 H 195.247 -3.52919 -1.35118 0
M  V30 1997 H 195.56 -7.41704 -2.17013 0
M  V30 1998 H 193.905 -6.66839 -1.95832 0
M  V30 1999 H 197.096 -4.40098 -1.59473 0
M  V30 2000 H 197.269 -6.1738 -1.9684 0
M  V30 2001 N 190.675 0.682077 -1.42076 0
M  V30 2002 C 191.623 1.81707 -1.45208 0
M  V30 2003 C 192.617 1.66183 -0.328591 0
M  V30 2004 O 193.823 1.7288 -0.501264 0
M  V30 2005 H 190.198 0.599014 -0.454628 0
M  V30 2006 H 192.169 1.76183 -2.40836 0
M  V30 2007 C 190.918 3.19816 -1.36428 0
M  V30 2008 H 190.241 3.32385 -2.22171 0
M  V30 2009 H 191.681 3.99272 -1.42681 0
M  V30 2010 C 190.14 3.36809 -0.078191 0
M  V30 2011 O 190.67 3.92124 0.87188 0
M  V30 2012 N 188.876 2.906 0.00229266 0
M  V30 2013 H 188.423 2.45772 -0.771616 0
M  V30 2014 H 188.381 3.02347 0.862179 0
M  V30 2015 N 192.153 1.28127 0.917671 0
M  V30 2016 C 193.402 1.14432 1.66097 0
M  V30 2017 C 193.715 -0.307247 1.93172 0
M  V30 2018 O 194.921 -0.565259 2.65551 0
M  V30 2019 C 193.377 2.00015 2.99202 0
M  V30 2020 C 192.985 3.49889 2.79789 0
M  V30 2021 C 194.729 1.94996 3.77064 0
M  V30 2022 C 192.636 4.27636 4.08511 0
M  V30 2023 H 191.566 0.424662 0.62304 0
M  V30 2024 H 194.217 1.52628 1.01868 0
M  V30 2025 H 192.599 1.54672 3.64544 0
M  V30 2026 H 193.773 4.03162 2.23152 0
M  V30 2027 H 192.088 3.56392 2.15345 0
M  V30 2028 H 194.685 2.50354 4.72469 0
M  V30 2029 H 195.028 0.925819 4.05875 0
M  V30 2030 H 195.561 2.38287 3.18534 0
M  V30 2031 H 192.3 5.30615 3.84874 0
M  V30 2032 H 191.82 3.79137 4.64774 0
M  V30 2033 H 193.499 4.37346 4.76799 0
M  V30 2034 N 193.631 -1.12557 1.10312 0
M  V30 2035 C 194.541 -2.21841 0.763142 0
M  V30 2036 C 195.557 -1.72354 -0.238801 0
M  V30 2037 O 196.733 -2.01249 -0.0778746 0
M  V30 2038 C 193.798 -3.46131 0.198632 0
M  V30 2039 C 192.859 -4.10464 1.25769 0
M  V30 2040 C 192.092 -5.28821 0.72002 0
M  V30 2041 O 192.315 -5.6859 -0.453993 0
M  V30 2042 O 191.249 -5.83437 1.47935 0
M  V30 2043 H 195.075 -2.53312 1.67532 0
M  V30 2044 H 192.66 -1.20867 0.878157 0
M  V30 2045 H 194.542 -4.2125 -0.112401 0
M  V30 2046 H 193.217 -3.16338 -0.686419 0
M  V30 2047 H 192.124 -3.3713 1.62156 0
M  V30 2048 H 193.457 -4.44408 2.11571 0
M  V30 2049 N 195.109 -0.891671 -1.2995 0
M  V30 2050 C 196.355 -0.514261 -1.96171 0
M  V30 2051 C 196.688 0.935506 -1.70182 0
M  V30 2052 O 195.963 1.66204 -1.01028 0
M  V30 2053 C 196.246 -0.797719 -3.51153 0
M  V30 2054 C 196.099 -2.2986 -3.86632 0
M  V30 2055 C 197.418 -0.278749 -4.39216 0
M  V30 2056 H 194.537 -0.188314 -0.712535 0
M  V30 2057 H 197.179 -1.11689 -1.53706 0
M  V30 2058 H 195.329 -0.284826 -3.87455 0
M  V30 2059 H 197.001 -2.88042 -3.60319 0
M  V30 2060 H 195.244 -2.76257 -3.34462 0
M  V30 2061 H 195.915 -2.44753 -4.94773 0
M  V30 2062 H 198.391 -0.717825 -4.09862 0
M  V30 2063 H 197.267 -0.506353 -5.46559 0
M  V30 2064 H 197.528 0.820266 -4.34424 0
M  V30 2065 N 196.587 1.43421 -0.653314 0
M  V30 2066 C 197.535 2.32546 0.0501531 0
M  V30 2067 C 198.529 1.48617 0.812985 0
M  V30 2068 O 199.735 1.64825 0.723375 0
M  V30 2069 H 196.11 0.751185 0.0350032 0
M  V30 2070 H 198.081 2.89602 -0.719261 0
M  V30 2071 C 196.83 3.32925 1.00279 0
M  V30 2072 H 196.153 3.97532 0.425236 0
M  V30 2073 H 197.593 3.9792 1.46409 0
M  V30 2074 C 196.052 2.63532 2.09886 0
M  V30 2075 O 196.582 2.45092 3.18265 0
M  V30 2076 N 194.788 2.22905 1.86445 0
M  V30 2077 H 194.335 2.38103 0.98309 0
M  V30 2078 H 194.293 1.76805 2.59976 0
M  V30 2079 N 198.065 0.39524 1.52563 0
M  V30 2080 C 199.313 -0.184678 2.01254 0
M  V30 2081 C 199.634 -1.46822 1.28329 0
M  V30 2082 O 198.904 -1.91666 0.405094 0
M  V30 2083 H 197.484 -0.0712355 0.743596 0
M  V30 2084 H 200.146 0.528293 1.87603 0
M  V30 2085 H 199.242 -0.390681 3.09645 0
M  V30 2086 N 199.544 -1.57102 0.125237 0
M  V30 2087 C 200.955 -1.82384 -0.399142 0
M  V30 2088 C 201.306 -1.04276 -1.66195 0
M  V30 2089 O 200.431 -0.281269 -2.14564 0
M  V30 2090 C 201.026 -3.30821 -0.730932 0
M  V30 2091 C 199.585 -3.56762 -1.19992 0
M  V30 2092 C 198.732 -2.7649 -0.211792 0
M  V30 2093 H 201.683 -1.54786 0.350277 0
M  V30 2094 H 201.704 -3.4579 -1.58775 0
M  V30 2095 H 201.216 -3.87643 0.188345 0
M  V30 2096 H 199.317 -3.05305 -2.13588 0
M  V30 2097 H 199.43 -4.65317 -1.14093 0
M  V30 2098 H 197.794 -2.4489 -0.700085 0
M  V30 2099 H 198.577 -3.36073 0.700691 0
M  V30 2100 N 201.022 0.148545 -1.56898 0
M  V30 2101 C 202.25 0.876389 -1.87422 0
M  V30 2102 C 202.665 1.74809 -0.713256 0
M  V30 2103 O 202.022 1.79725 0.317025 0
M  V30 2104 C 202.073 1.73438 -3.17178 0
M  V30 2105 O 201.794 0.897809 -4.28802 0
M  V30 2106 C 203.295 2.56993 -3.61205 0
M  V30 2107 H 200.515 0.253489 -0.621277 0
M  V30 2108 H 203.059 0.141798 -2.04008 0
M  V30 2109 H 201.214 2.42205 -3.0235 0
M  V30 2110 H 201.628 1.48672 -5.02988 0
M  V30 2111 H 203.102 3.12773 -4.54838 0
M  V30 2112 H 203.579 3.32958 -2.86419 0
M  V30 2113 H 204.185 1.9352 -3.78722 0
M  V30 2114 N 202.5 1.5196 0.417844 0
M  V30 2115 C 203.728 1.69426 1.18753 0
M  V30 2116 C 204.143 0.399955 1.84515 0
M  V30 2117 O 203.5 -0.623288 1.71527 0
M  V30 2118 C 203.551 2.82375 2.25714 0
M  V30 2119 O 203.272 4.06793 1.62638 0
M  V30 2120 C 204.773 3.11277 3.15628 0
M  V30 2121 H 201.993 0.568031 0.357186 0
M  V30 2122 H 204.537 1.98475 0.49273 0
M  V30 2123 H 202.692 2.5587 2.90877 0
M  V30 2124 H 203.106 4.69667 2.3348 0
M  V30 2125 H 204.58 3.93843 3.86771 0
M  V30 2126 H 205.057 2.24473 3.77503 0
M  V30 2127 H 205.663 3.39515 2.56144 0
M  V30 2128 N 203.978 -0.674533 1.42435 0
M  V30 2129 C 205.255 -1.4305 1.33402 0
M  V30 2130 C 205.635 -2.11081 -0.0284674 0
M  V30 2131 O 204.983 -2.03257 -1.04397 0
M  V30 2132 C 205.193 -2.43272 2.50239 0
M  V30 2133 C 206.541 -3.07907 2.92367 0
M  V30 2134 O 207.565 -2.53599 2.50132 0
M  V30 2135 O 206.424 -4.0632 3.65467 0
M  V30 2136 H 203.518 -0.638076 0.526106 0
M  V30 2137 H 206.064 -0.703235 1.54443 0
M  V30 2138 H 204.836 -1.91803 3.41068 0
M  V30 2139 H 204.459 -3.23479 2.31186 0
M  V30 2140 N 205.456 -1.28612 -0.910864 0
M  V30 2141 C 206.389 -1.07109 -2.01502 0
M  V30 2142 C 207.367 0.013706 -1.62594 0
M  V30 2143 O 208.551 -0.134796 -1.88017 0
M  V30 2144 C 205.678 -0.628255 -3.32822 0
M  V30 2145 C 204.724 -1.71012 -3.90714 0
M  V30 2146 S 205.557 -3.30676 -4.21205 0
M  V30 2147 C 206.713 -2.88234 -5.55583 0
M  V30 2148 H 206.946 -2.00591 -2.19432 0
M  V30 2149 H 204.479 -1.12633 -1.05609 0
M  V30 2150 H 206.437 -0.37946 -4.08742 0
M  V30 2151 H 205.098 0.28678 -3.12788 0
M  V30 2152 H 204.291 -1.35195 -4.85529 0
M  V30 2153 H 203.893 -1.91186 -3.21441 0
M  V30 2154 H 206.185 -2.34584 -6.35591 0
M  V30 2155 H 207.128 -3.81857 -5.96314 0
M  V30 2156 H 207.536 -2.26862 -5.16908 0
M  V30 2157 N 206.934 1.1197 -1.10907 0
M  V30 2158 C 208.183 1.82947 -0.849302 0
M  V30 2159 C 208.496 1.85275 0.627112 0
M  V30 2160 O 209.702 2.52296 1.00295 0
M  V30 2161 C 208.158 3.28529 -1.46959 0
M  V30 2162 C 207.766 3.34546 -2.97965 0
M  V30 2163 C 209.51 4.04443 -1.28942 0
M  V30 2164 C 207.417 4.74491 -3.53004 0
M  V30 2165 H 206.347 0.685477 -0.314065 0
M  V30 2166 H 208.998 1.2604 -1.33365 0
M  V30 2167 H 207.38 3.85333 -0.912917 0
M  V30 2168 H 208.554 2.87654 -3.59989 0
M  V30 2169 H 206.869 2.72108 -3.15192 0
M  V30 2170 H 209.466 5.07787 -1.67502 0
M  V30 2171 H 209.809 4.15656 -0.231456 0
M  V30 2172 H 210.342 3.5401 -1.81443 0
M  V30 2173 H 207.081 4.68474 -4.58489 0
M  V30 2174 H 206.601 5.21816 -2.9575 0
M  V30 2175 H 208.28 5.4344 -3.51115 0
M  V30 2176 N 208.412 0.89855 1.29475 0
M  V30 2177 C 209.66 0.522847 1.9522 0
M  V30 2178 C 209.981 -0.93371 1.71192 0
M  V30 2179 O 209.251 -1.65823 1.04305 0
M  V30 2180 H 207.831 0.190366 0.722336 0
M  V30 2181 H 210.493 1.14459 1.5775 0
M  V30 2182 H 209.589 0.704476 3.04045 0
M  V30 2183 N 209.89 -1.43072 0.660911 0
M  V30 2184 C 210.8 -2.34585 -0.0264163 0
M  V30 2185 C 211.816 -1.54316 -0.803898 0
M  V30 2186 O 212.992 -1.86939 -0.749391 0
M  V30 2187 C 210.057 -3.32689 -0.975639 0
M  V30 2188 C 209.118 -4.2886 -0.194236 0
M  V30 2189 C 208.351 -5.22278 -1.09825 0
M  V30 2190 O 208.574 -5.20299 -2.33763 0
M  V30 2191 O 207.508 -5.99228 -0.566513 0
M  V30 2192 H 211.334 -2.94869 0.727034 0
M  V30 2193 H 208.919 -1.43342 0.42111 0
M  V30 2194 H 210.801 -3.92995 -1.52094 0
M  V30 2195 H 209.476 -2.74898 -1.70918 0
M  V30 2196 H 208.383 -3.72011 0.394835 0
M  V30 2197 H 209.716 -4.89655 0.499899 0
M  V30 2198 N 211.368 -0.403325 -1.52352 0
M  V30 2199 C 212.331 0.413051 -2.25447 0
M  V30 2200 C 213.331 0.978513 -1.276 0
M  V30 2201 O 214.521 0.858305 -1.51587 0
M  V30 2202 C 211.653 1.58087 -3.02029 0
M  V30 2203 H 212.846 -0.227094 -2.99039 0
M  V30 2204 H 210.399 -0.155722 -1.55522 0
M  V30 2205 H 211.134 2.25804 -2.32772 0
M  V30 2206 H 210.919 1.18195 -3.73861 0
M  V30 2207 H 212.409 2.1585 -3.57489 0
M  V30 2208 N 212.846 1.57033 -0.133567 0
M  V30 2209 C 214.257 1.82593 0.389464 0
M  V30 2210 C 214.608 1.05156 1.6564 0
M  V30 2211 O 213.733 0.292644 2.14412 0
M  V30 2212 C 214.328 3.31204 0.713377 0
M  V30 2213 C 212.887 3.57393 1.18098 0
M  V30 2214 C 212.034 2.76598 0.197126 0
M  V30 2215 H 214.985 1.54598 -0.358481 0
M  V30 2216 H 215.006 3.46627 1.56939 0
M  V30 2217 H 214.518 3.87537 -0.2089 0
M  V30 2218 H 212.619 3.06433 2.11966 0
M  V30 2219 H 212.732 4.65915 1.11624 0
M  V30 2220 H 211.096 2.45257 0.687088 0
M  V30 2221 H 211.879 3.35697 -0.718504 0
M  V30 2222 N 214.325 -0.140222 1.56975 0
M  V30 2223 C 215.288 -1.15689 1.97861 0
M  V30 2224 C 216.288 -1.3549 0.865974 0
M  V30 2225 O 217.478 -1.32367 1.13246 0
M  V30 2226 C 214.61 -2.51582 2.30042 0
M  V30 2227 H 215.803 -0.805971 2.88867 0
M  V30 2228 H 213.356 -0.383801 1.51515 0
M  V30 2229 H 214.091 -2.91632 1.41849 0
M  V30 2230 H 213.876 -2.38569 3.11171 0
M  V30 2231 H 215.366 -3.24792 2.62488 0
M  V30 2232 N 215.803 -1.52179 -0.40978 0
M  V30 2233 C 216.736 -1.70196 -1.52015 0
M  V30 2234 C 217.714 -0.549542 -1.53032 0
M  V30 2235 O 218.898 -0.776815 -1.71749 0
M  V30 2236 C 216.025 -1.74069 -2.90547 0
M  V30 2237 C 215.071 -2.95601 -3.07445 0
M  V30 2238 S 215.904 -4.55956 -2.80827 0
M  V30 2239 C 217.06 -4.62614 -4.21591 0
M  V30 2240 H 217.293 -2.64109 -1.36504 0
M  V30 2241 H 214.826 -1.4221 -0.601312 0
M  V30 2242 H 216.784 -1.76985 -3.70387 0
M  V30 2243 H 215.445 -0.812835 -3.034 0
M  V30 2244 H 214.638 -2.94791 -4.08796 0
M  V30 2245 H 214.24 -2.90569 -2.35469 0
M  V30 2246 H 216.532 -4.39951 -5.15218 0
M  V30 2247 H 217.475 -5.64548 -4.27424 0
M  V30 2248 H 217.883 -3.91654 -4.06531 0
M  V30 2249 N 217.281 0.66697 -1.42791 0
M  V30 2250 C 218.213 1.7925 -1.42836 0
M  V30 2251 C 219.226 1.59496 -0.326333 0
M  V30 2252 O 220.415 1.6847 -0.589916 0
M  V30 2253 C 217.515 3.16476 -1.21229 0
M  V30 2254 C 216.688 3.63011 -2.44013 0
M  V30 2255 C 215.747 4.78993 -2.17834 0
M  V30 2256 O 214.773 4.89137 -2.91091 0
M  V30 2257 N 215.975 5.68248 -1.18635 0
M  V30 2258 H 218.74 1.79695 -2.39854 0
M  V30 2259 H 216.301 0.850338 -1.37771 0
M  V30 2260 H 218.293 3.91734 -1.01621 0
M  V30 2261 H 216.863 3.10884 -0.32706 0
M  V30 2262 H 216.083 2.78346 -2.79137 0
M  V30 2263 H 217.371 3.90845 -3.25757 0
M  V30 2264 H 216.769 5.62712 -0.580615 0
M  V30 2265 H 215.326 6.43285 -1.05013 0
M  V30 2266 N 218.759 1.29093 0.90403 0
M  V30 2267 C 220.036 1.075 1.63411 0
M  V30 2268 C 220.416 -0.382346 2.07609 0
M  V30 2269 O 219.764 -1.37031 1.82851 0
M  V30 2270 C 219.974 2.05858 2.81822 0
M  V30 2271 C 221.322 2.36539 3.52611 0
M  V30 2272 O 222.346 2.04019 2.91984 0
M  V30 2273 O 221.205 2.92085 4.61897 0
M  V30 2274 H 218.299 0.411547 0.717327 0
M  V30 2275 H 220.845 1.40449 0.952479 0
M  V30 2276 H 219.617 3.04037 2.46327 0
M  V30 2277 H 219.24 1.73613 3.57693 0
M  V30 2278 N 220.237 -1.11381 1.11499 0
M  V30 2279 C 221.483 -1.83403 0.865512 0
M  V30 2280 C 221.816 -1.84459 -0.607329 0
M  V30 2281 O 221.091 -1.29811 -1.44842 0
M  V30 2282 C 221.374 -3.30552 1.42855 0
M  V30 2283 C 221.227 -3.37886 2.96906 0
M  V30 2284 C 222.546 -4.26643 1.08 0
M  V30 2285 H 219.665 -0.665879 0.31587 0
M  V30 2286 H 222.307 -1.30601 1.37998 0
M  V30 2287 H 220.457 -3.75648 0.990985 0
M  V30 2288 H 222.129 -3.01343 3.49271 0
M  V30 2289 H 220.372 -2.78088 3.32941 0
M  V30 2290 H 221.043 -4.41458 3.31389 0
M  V30 2291 H 223.519 -3.89729 1.45775 0
M  V30 2292 H 222.395 -5.27986 1.50072 0
M  V30 2293 H 222.656 -4.42099 -0.00915037 0
M  V30 2294 N 221.715 -0.905404 -1.28997 0
M  V30 2295 C 222.962 -0.534248 -1.95325 0
M  V30 2296 C 223.29 0.920535 -1.71337 0
M  V30 2297 O 222.545 1.66861 -1.02254 0
M  V30 2298 C 222.844 -0.779906 -3.48787 0
M  V30 2299 C 222.51 -2.21293 -3.92861 0
M  V30 2300 C 221.172 -2.60475 -4.04606 0
M  V30 2301 C 223.524 -3.14587 -4.15553 0
M  V30 2302 C 220.852 -3.9212 -4.36416 0
M  V30 2303 C 223.204 -4.45787 -4.48839 0
M  V30 2304 C 221.868 -4.84834 -4.58794 0
M  V30 2305 H 221.138 -0.195495 -0.714747 0
M  V30 2306 H 223.785 -1.14514 -1.53488 0
M  V30 2307 H 222.09 -0.0861365 -3.91705 0
M  V30 2308 H 223.787 -0.472029 -3.98212 0
M  V30 2309 H 220.377 -1.89887 -3.84241 0
M  V30 2310 H 224.561 -2.85528 -4.0594 0
M  V30 2311 H 219.817 -4.22086 -4.42327 0
M  V30 2312 H 223.991 -5.18098 -4.65346 0
M  V30 2313 H 221.618 -5.86877 -4.83197 0
M  V30 2314 N 223.193 1.4272 -0.668489 0
M  V30 2315 C 224.609 1.55992 -0.33745 0
M  V30 2316 C 224.809 1.64933 1.15756 0
M  V30 2317 O 223.865 1.61278 1.94282 0
M  V30 2318 C 225.178 2.81314 -1.06222 0
M  V30 2319 C 226.726 2.95078 -1.04394 0
M  V30 2320 C 227.201 4.23252 -1.74991 0
M  V30 2321 N 228.692 4.3015 -1.71829 0
M  V30 2322 C 229.427 5.28127 -2.23315 0
M  V30 2323 N 228.923 6.32293 -2.83156 0
M  V30 2324 N 230.716 5.19882 -2.13726 0
M  V30 2325 H 222.867 1.3516 -1.63846 0
M  V30 2326 H 225.13 0.650174 -0.689912 0
M  V30 2327 H 224.836 2.80823 -2.11734 0
M  V30 2328 H 224.71 3.72012 -0.62344 0
M  V30 2329 H 227.097 2.951 0.0028244 0
M  V30 2330 H 227.178 2.05627 -1.52155 0
M  V30 2331 H 226.822 4.2399 -2.79633 0
M  V30 2332 H 226.752 5.11626 -1.24685 0
M  V30 2333 H 229.243 3.55499 -1.28175 0
M  V30 2334 H 229.556 7.03398 -3.20079 0
M  V30 2335 H 227.901 6.32873 -2.87223 0
M  V30 2336 H 231.092 4.37423 -1.66669 0
M  V30 2337 H 231.265 5.96077 -2.54158 0
M  V30 2338 N 224.671 0.411399 1.52136 0
M  V30 2339 C 225.92 -0.165009 2.01024 0
M  V30 2340 C 226.233 -1.4603 1.30133 0
M  V30 2341 O 227.439 -2.1181 1.69849 0
M  V30 2342 C 225.895 -0.344618 3.58246 0
M  V30 2343 C 225.503 0.938716 4.38055 0
M  V30 2344 C 227.247 -0.876195 4.15359 0
M  V30 2345 C 225.154 0.726172 5.86925 0
M  V30 2346 H 224.084 -0.0654407 0.751155 0
M  V30 2347 H 226.735 0.537192 1.75461 0
M  V30 2348 H 225.117 -1.10921 3.80148 0
M  V30 2349 H 226.291 1.70963 4.27912 0
M  V30 2350 H 224.606 1.39688 3.92271 0
M  V30 2351 H 227.203 -1.05128 5.24263 0
M  V30 2352 H 227.546 -1.85152 3.7286 0
M  V30 2353 H 228.079 -0.170607 3.97434 0
M  V30 2354 H 224.818 1.67312 6.33788 0
M  V30 2355 H 224.338 -0.00540283 5.998 0
M  V30 2356 H 226.017 0.369231 6.45946 0
M  V30 2357 N 226.149 -1.5696 0.141893 0
M  V30 2358 C 227.398 -1.95135 -0.510427 0
M  V30 2359 C 227.711 -1.02896 -1.66348 0
M  V30 2360 O 228.917 -1.30629 -2.38009 0
M  V30 2361 C 227.373 -3.46876 -0.959427 0
M  V30 2362 C 226.981 -4.47691 0.166419 0
M  V30 2363 C 228.725 -3.93927 -1.58183 0
M  V30 2364 C 226.632 -5.90636 -0.300565 0
M  V30 2365 H 225.562 -0.728494 -0.194454 0
M  V30 2366 H 228.213 -1.8211 0.22542 0
M  V30 2367 H 226.595 -3.55215 -1.75038 0
M  V30 2368 H 227.769 -4.51043 0.94325 0
M  V30 2369 H 226.084 -4.10527 0.696905 0
M  V30 2370 H 228.681 -4.98158 -1.94275 0
M  V30 2371 H 229.024 -3.3519 -2.46888 0
M  V30 2372 H 229.557 -3.88484 -0.855863 0
M  V30 2373 H 226.296 -6.5318 0.550989 0
M  V30 2374 H 225.816 -5.90655 -1.04338 0
M  V30 2375 H 227.495 -6.42588 -0.754265 0
M  V30 2376 N 227.627 0.131896 -1.57047 0
M  V30 2377 C 228.875 0.840269 -1.83804 0
M  V30 2378 C 229.196 1.81017 -0.72512 0
M  V30 2379 O 228.466 1.94272 0.251995 0
M  V30 2380 H 227.046 0.313294 -0.678127 0
M  V30 2381 H 229.708 0.122294 -1.94516 0
M  V30 2382 H 228.804 1.39335 -2.79271 0
M  V30 2383 N 229.106 1.52395 0.401703 0
M  V30 2384 C 230.522 1.41363 0.740864 0
M  V30 2385 C 230.722 0.523982 1.94568 0
M  V30 2386 O 229.778 -0.00741204 2.52499 0
M  V30 2387 C 231.091 2.84011 0.987847 0
M  V30 2388 C 232.639 2.93404 1.09011 0
M  V30 2389 C 233.114 4.37036 1.3698 0
M  V30 2390 N 234.605 4.40304 1.43829 0
M  V30 2391 C 235.34 5.48508 1.67112 0
M  V30 2392 N 234.836 6.66819 1.87949 0
M  V30 2393 N 236.629 5.36034 1.69187 0
M  V30 2394 H 228.78 2.08765 -0.391262 0
M  V30 2395 H 231.043 0.941265 -0.112798 0
M  V30 2396 H 230.749 3.51265 0.174835 0
M  V30 2397 H 230.623 3.25502 1.906 0
M  V30 2398 H 233.01 2.26325 1.8937 0
M  V30 2399 H 233.091 2.55359 0.15015 0
M  V30 2400 H 232.735 5.04676 0.571353 0
M  V30 2401 H 232.665 4.72623 2.3224 0
M  V30 2402 H 235.156 3.55024 1.29486 0
M  V30 2403 H 235.469 7.45063 2.05185 0
M  V30 2404 H 233.814 6.6987 1.85199 0
M  V30 2405 H 237.005 4.42579 1.52451 0
M  V30 2406 H 237.178 6.20434 1.86993 0
M  V30 2407 N 230.584 -0.659388 1.43143 0
M  V30 2408 C 231.514 -1.78422 1.50625 0
M  V30 2409 C 232.495 -1.66216 0.361443 0
M  V30 2410 O 233.68 -1.85404 0.577834 0
M  V30 2411 C 230.81 -3.16815 1.42287 0
M  V30 2412 C 229.764 -3.43777 2.54954 0
M  V30 2413 C 229.09 -4.81905 2.31671 0
M  V30 2414 C 230.39 -3.39134 3.97222 0
M  V30 2415 H 232.084 -1.72417 2.44771 0
M  V30 2416 H 229.63 -0.828084 1.17808 0
M  V30 2417 H 231.583 -3.95253 1.46127 0
M  V30 2418 H 230.307 -3.23534 0.446435 0
M  V30 2419 H 228.966 -2.67707 2.50457 0
M  V30 2420 H 228.614 -4.85294 1.32284 0
M  V30 2421 H 228.314 -5.00906 3.07192 0
M  V30 2422 H 229.838 -5.62609 2.37284 0
M  V30 2423 H 231.252 -4.07518 4.03239 0
M  V30 2424 H 229.649 -3.69671 4.72719 0
M  V30 2425 H 230.719 -2.37426 4.22797 0
M  V30 2426 N 232.062 -1.29571 -0.897171 0
M  V30 2427 C 233.287 -1.20705 -1.68656 0
M  V30 2428 C 233.712 0.228582 -1.86706 0
M  V30 2429 O 233.07 1.16494 -1.3892 0
M  V30 2430 C 233.118 -1.9282 -3.04717 0
M  V30 2431 O 232.222 -1.24697 -3.93096 0
M  V30 2432 H 231.563 -0.418126 -0.515816 0
M  V30 2433 H 234.093 -1.71183 -1.12061 0
M  V30 2434 H 234.103 -2.01372 -3.54843 0
M  V30 2435 H 232.778 -2.97239 -2.90899 0
M  V30 2436 H 231.355 -1.2442 -3.51531 0
M  V30 2437 N 233.54 1.10788 -1.12088 0
M  V30 2438 C 234.956 1.34691 -0.856186 0
M  V30 2439 C 235.156 1.94791 0.515615 0
M  V30 2440 O 234.212 2.18524 1.26505 0
M  V30 2441 C 235.525 2.27208 -1.9697 0
M  V30 2442 C 237.073 2.40755 -2.00016 0
M  V30 2443 C 237.548 3.36598 -3.1059 0
M  V30 2444 N 239.039 3.44164 -3.10008 0
M  V30 2445 C 239.774 4.18284 -3.92206 0
M  V30 2446 N 239.27 4.95322 -4.84384 0
M  V30 2447 N 241.063 4.13865 -3.80357 0
M  V30 2448 H 233.214 0.70144 -2.00483 0
M  V30 2449 H 235.477 0.371405 -0.872217 0
M  V30 2450 H 235.183 1.90251 -2.958 0
M  V30 2451 H 235.057 3.27485 -1.87172 0
M  V30 2452 H 237.444 2.76982 -1.01808 0
M  V30 2453 H 237.525 1.40305 -2.13888 0
M  V30 2454 H 237.169 3.01096 -4.09028 0
M  V30 2455 H 237.099 4.36918 -2.93956 0
M  V30 2456 H 239.59 2.8922 -2.43228 0
M  V30 2457 H 239.903 5.49267 -5.43623 0
M  V30 2458 H 238.248 4.94459 -4.884 0
M  V30 2459 H 241.439 3.52773 -3.07683 0
M  V30 2460 H 241.612 4.71372 -4.44649 0
M  V30 2461 N 235.018 0.912232 1.28515 0
M  V30 2462 C 236.243 0.559774 1.99703 0
M  V30 2463 C 236.668 -0.851393 1.67729 0
M  V30 2464 O 236.026 -1.56875 0.908834 0
M  V30 2465 C 236.074 0.773874 3.52198 0
M  V30 2466 O 235.178 -0.167842 4.12058 0
M  V30 2467 H 234.519 0.21723 0.627461 0
M  V30 2468 H 237.049 1.22725 1.63706 0
M  V30 2469 H 237.059 0.683386 4.02236 0
M  V30 2470 H 235.734 1.80261 3.74805 0
M  V30 2471 H 234.311 -0.0287509 3.72889 0
M  V30 2472 N 236.496 -1.42363 0.676048 0
M  V30 2473 C 237.721 -2.06377 0.205705 0
M  V30 2474 C 238.146 -1.50463 -1.12883 0
M  V30 2475 O 237.504 -0.623619 -1.70237 0
M  V30 2476 C 237.552 -3.60277 0.152655 0
M  V30 2477 O 236.656 -4.02935 -0.87845 0
M  V30 2478 H 235.997 -0.655588 0.105359 0
M  V30 2479 H 238.527 -1.82475 0.925412 0
M  V30 2480 H 238.537 -4.07993 -0.0230675 0
M  V30 2481 H 237.212 -4.00346 1.12675 0
M  V30 2482 H 235.789 -3.66764 -0.673668 0
M  V30 2483 N 237.974 -0.419461 -1.51915 0
M  V30 2484 C 239.223 0.154346 -2.01109 0
M  V30 2485 C 239.536 1.45338 -1.30905 0
M  V30 2486 O 240.742 2.10906 -1.7097 0
M  V30 2487 C 239.198 0.325615 -3.58424 0
M  V30 2488 C 238.806 -0.961934 -4.37551 0
M  V30 2489 C 240.55 0.854155 -4.15818 0
M  V30 2490 C 238.457 -0.757287 -5.86531 0
M  V30 2491 H 237.387 0.0614563 -0.751491 0
M  V30 2492 H 240.038 -0.54649 -1.75173 0
M  V30 2493 H 238.42 1.08903 -3.80731 0
M  V30 2494 H 239.594 -1.7323 -4.26999 0
M  V30 2495 H 237.909 -1.41766 -3.91524 0
M  V30 2496 H 240.506 1.02346 -5.24814 0
M  V30 2497 H 240.849 1.83172 -3.73837 0
M  V30 2498 H 241.382 0.149528 -3.97519 0
M  V30 2499 H 238.121 -1.70671 -6.32892 0
M  V30 2500 H 237.641 -0.0264061 -5.99794 0
M  V30 2501 H 239.32 -0.403482 -6.45741 0
M  V30 2502 N 239.452 1.56882 -0.150215 0
M  V30 2503 C 240.677 2.01027 0.510184 0
M  V30 2504 C 241.102 1.02966 1.57415 0
M  V30 2505 O 240.46 0.00590158 1.81299 0
M  V30 2506 C 240.508 3.43899 1.08472 0
M  V30 2507 O 239.612 3.4885 2.19948 0
M  V30 2508 H 238.953 0.652233 0.124451 0
M  V30 2509 H 241.483 2.03093 -0.247894 0
M  V30 2510 H 241.493 3.82766 1.41259 0
M  V30 2511 H 240.168 4.14776 0.305582 0
M  V30 2512 H 238.745 3.21827 1.88366 0
M  V30 2513 N 240.93 -0.123565 1.57115 0
M  V30 2514 C 242.176 -0.833386 1.84885 0
M  V30 2515 C 242.509 -1.79742 0.735292 0
M  V30 2516 O 241.784 -1.92764 -0.25925 0
M  V30 2517 C 242.067 -1.5873 3.23228 0
M  V30 2518 C 241.92 -0.643183 4.45178 0
M  V30 2519 C 243.239 -2.54453 3.59085 0
M  V30 2520 H 240.358 -0.301518 0.6725 0
M  V30 2521 H 243 -0.097778 1.89748 0
M  V30 2522 H 241.15 -2.21438 3.19214 0
M  V30 2523 H 242.822 -0.0253015 4.61293 0
M  V30 2524 H 241.065 0.0456139 4.33776 0
M  V30 2525 H 241.736 -1.20724 5.38637 0
M  V30 2526 H 244.212 -2.01853 3.63861 0
M  V30 2527 H 243.088 -3.04238 4.5687 0
M  V30 2528 H 243.349 -3.36906 2.86264 0
M  V30 2529 N 242.408 -1.52605 -0.393616 0
M  V30 2530 C 243.338 -1.80022 -1.48709 0
M  V30 2531 C 244.319 -0.651995 -1.57108 0
M  V30 2532 O 245.504 -0.89913 -1.72132 0
M  V30 2533 C 242.634 -1.96492 -2.86371 0
M  V30 2534 C 241.588 -3.12161 -2.92813 0
M  V30 2535 C 240.914 -3.13877 -4.3288 0
M  V30 2536 C 242.214 -4.51322 -2.6288 0
M  V30 2537 H 243.908 -2.71589 -1.26015 0
M  V30 2538 H 241.454 -1.30684 -0.604778 0
M  V30 2539 H 243.407 -2.14255 -3.62867 0
M  V30 2540 H 242.131 -1.01611 -3.10391 0
M  V30 2541 H 240.79 -2.94173 -2.18764 0
M  V30 2542 H 240.438 -2.16687 -4.53933 0
M  V30 2543 H 240.138 -3.91576 -4.38112 0
M  V30 2544 H 241.662 -3.33789 -5.1129 0
M  V30 2545 H 243.076 -4.69435 -3.29096 0
M  V30 2546 H 241.473 -5.31053 -2.79468 0
M  V30 2547 H 242.543 -4.58353 -1.58242 0
M  V30 2548 N 243.887 0.651787 -1.4349 0
M  V30 2549 C 245.136 1.40754 -1.44469 0
M  V30 2550 C 245.449 1.95463 -0.0731845 0
M  V30 2551 O 246.655 2.71471 0.0395721 0
M  V30 2552 C 245.111 2.54735 -2.5424 0
M  V30 2553 C 244.719 2.06628 -3.97504 0
M  V30 2554 C 246.463 3.32092 -2.64414 0
M  V30 2555 C 244.37 3.17829 -4.98737 0
M  V30 2556 H 243.3 0.528862 -0.53742 0
M  V30 2557 H 245.951 0.703365 -1.69485 0
M  V30 2558 H 244.333 3.2763 -2.22428 0
M  V30 2559 H 245.507 1.40734 -4.38783 0
M  V30 2560 H 243.822 1.42146 -3.91387 0
M  V30 2561 H 246.419 4.14952 -3.37223 0
M  V30 2562 H 246.762 3.80217 -1.69532 0
M  V30 2563 H 247.295 2.66279 -2.95534 0
M  V30 2564 H 244.034 2.74671 -5.95177 0
M  V30 2565 H 243.554 3.82429 -4.62069 0
M  V30 2566 H 245.233 3.82937 -5.21505 0
M  V30 2567 N 245.365 1.30045 0.890287 0
M  V30 2568 C 246.313 1.15873 2.01683 0
M  V30 2569 C 247.307 0.0719403 1.69247 0
M  V30 2570 O 248.513 0.232414 1.78493 0
M  V30 2571 H 244.888 0.358203 0.661207 0
M  V30 2572 H 246.859 2.11229 2.10772 0
M  V30 2573 C 245.608 0.861842 3.36849 0
M  V30 2574 H 244.931 1.69016 3.62317 0
M  V30 2575 H 246.371 0.802762 4.16331 0
M  V30 2576 C 244.83 -0.435132 3.34078 0
M  V30 2577 O 245.36 -1.4583 3.74295 0
M  V30 2578 N 243.566 -0.444377 2.87182 0
M  V30 2579 H 243.113 0.388723 2.5465 0
M  V30 2580 H 243.071 -1.31213 2.85711 0
M  V30 2581 N 246.843 -1.10192 1.12674 0
M  V30 2582 C 248.091 -1.81845 0.881861 0
M  V30 2583 C 248.412 -1.85737 -0.593867 0
M  V30 2584 O 247.682 -1.33724 -1.4316 0
M  V30 2585 H 246.262 -0.673432 0.323261 0
M  V30 2586 H 248.924 -1.33316 1.42172 0
M  V30 2587 H 248.02 -2.85288 1.2656 0
M  V30 2588 N 248.321 -0.919034 -1.28029 0
M  V30 2589 C 249.231 -0.416756 -2.30869 0
M  V30 2590 C 250.247 0.498235 -1.66714 0
M  V30 2591 O 251.423 0.383144 -1.97722 0
M  V30 2592 C 248.488 0.330274 -3.45123 0
M  V30 2593 C 247.549 -0.618578 -4.2482 0
M  V30 2594 C 246.782 0.0928959 -5.33619 0
M  V30 2595 O 247.005 1.31375 -5.55065 0
M  V30 2596 O 245.939 -0.574499 -5.99152 0
M  V30 2597 H 249.765 -1.27043 -2.75851 0
M  V30 2598 H 247.35 -0.684052 -1.3282 0
M  V30 2599 H 249.232 0.751972 -4.14636 0
M  V30 2600 H 247.907 1.1597 -3.02213 0
M  V30 2601 H 246.814 -1.08978 -3.57875 0
M  V30 2602 H 248.147 -1.41497 -4.71423 0
M  V30 2603 N 249.799 1.42003 -0.683588 0
M  V30 2604 C 251.024 2.06265 -0.216647 0
M  V30 2605 C 251.449 1.51059 1.12083 0
M  V30 2606 O 250.807 0.632638 1.69904 0
M  V30 2607 C 250.855 3.60191 -0.171759 0
M  V30 2608 O 249.959 4.03396 0.857069 0
M  V30 2609 H 249.3 0.65502 -0.108834 0
M  V30 2610 H 251.83 1.81982 -0.935077 0
M  V30 2611 H 251.84 4.08 0.0014303 0
M  V30 2612 H 250.515 3.99743 -1.14796 0
M  V30 2613 H 249.092 3.67117 0.654208 0
M  V30 2614 N 251.277 0.427512 1.51691 0
M  V30 2615 C 252.525 -0.141948 2.01601 0
M  V30 2616 C 252.846 -1.44067 1.31414 0
M  V30 2617 O 252.116 -1.90763 0.445658 0
M  V30 2618 H 250.696 -0.0554468 0.744939 0
M  V30 2619 H 253.358 0.567968 1.86441 0
M  V30 2620 H 252.454 -0.324913 3.10404 0
M  V30 2621 N 252.755 -1.56801 0.158532 0
M  V30 2622 C 253.983 -2.00859 -0.496303 0
M  V30 2623 C 254.398 -1.03871 -1.57659 0
M  V30 2624 O 253.755 -0.0375165 -1.82461 0
M  V30 2625 C 253.806 -3.4479 -1.08638 0
M  V30 2626 O 253.527 -4.38072 -0.0492322 0
M  V30 2627 C 255.028 -4.04185 -1.8207 0
M  V30 2628 H 252.248 -0.65864 -0.128199 0
M  V30 2629 H 254.792 -2.02885 0.256506 0
M  V30 2630 H 252.947 -3.43579 -1.78975 0
M  V30 2631 H 253.361 -5.2227 -0.483102 0
M  V30 2632 H 254.835 -5.06857 -2.18633 0
M  V30 2633 H 255.312 -3.45549 -2.71095 0
M  V30 2634 H 255.918 -4.0906 -1.16405 0
M  V30 2635 N 254.233 0.115231 -1.57178 0
M  V30 2636 C 255.481 0.820727 -1.84685 0
M  V30 2637 C 255.802 1.80237 -0.744279 0
M  V30 2638 O 255.072 1.94529 0.231375 0
M  V30 2639 H 253.652 0.306084 -0.681411 0
M  V30 2640 H 256.314 0.101656 -1.94635 0
M  V30 2641 H 255.41 1.36366 -2.80733 0
M  V30 2642 N 255.711 1.52812 0.385517 0
M  V30 2643 C 256.658 1.77838 1.47113 0
M  V30 2644 C 257.628 0.621757 1.54024 0
M  V30 2645 O 258.813 0.861846 1.70226 0
M  V30 2646 C 255.953 1.95618 2.84302 0
M  V30 2647 C 255.066 3.23316 2.86515 0
M  V30 2648 C 254.201 3.31394 4.15152 0
M  V30 2649 C 253.24 4.53201 4.1143 0
M  V30 2650 N 252.377 4.58542 5.3168 0
M  V30 2651 H 257.217 2.70482 1.25073 0
M  V30 2652 H 254.754 1.34006 0.606692 0
M  V30 2653 H 256.712 2.03912 3.63972 0
M  V30 2654 H 255.342 1.06331 3.04784 0
M  V30 2655 H 254.394 3.24076 1.99195 0
M  V30 2656 H 255.706 4.13045 2.79634 0
M  V30 2657 H 254.86 3.3889 5.03228 0
M  V30 2658 H 253.599 2.39645 4.24761 0
M  V30 2659 H 252.604 4.45827 3.21742 0
M  V30 2660 H 253.829 5.46271 4.03442 0
M  V30 2661 H 251.775 3.69686 5.41912 0
M  V30 2662 H 251.692 5.42148 5.26889 0
M  V30 2663 H 252.96 4.70296 6.21644 0
M  V30 2664 N 257.189 -0.644168 1.43834 0
M  V30 2665 C 258.099 -1.78563 1.52159 0
M  V30 2666 C 259.115 -1.69147 0.408069 0
M  V30 2667 O 260.291 -1.90156 0.663524 0
M  V30 2668 C 257.356 -3.14888 1.45073 0
M  V30 2669 C 256.417 -3.36034 2.6717 0
M  V30 2670 C 255.65 -4.65855 2.60413 0
M  V30 2671 O 255.873 -5.45805 1.65689 0
M  V30 2672 O 254.807 -4.88918 3.5106 0
M  V30 2673 H 258.633 -1.74494 2.48567 0
M  V30 2674 H 256.218 -0.80378 1.25935 0
M  V30 2675 H 258.1 -3.96179 1.43597 0
M  V30 2676 H 256.775 -3.19528 0.518037 0
M  V30 2677 H 255.682 -2.54472 2.74217 0
M  V30 2678 H 257.015 -3.36247 3.59442 0
M  V30 2679 N 258.668 -1.30515 -0.883378 0
M  V30 2680 C 259.598 -1.19607 -2.00541 0
M  V30 2681 C 260.579 -0.086346 -1.69881 0
M  V30 2682 O 261.764 -0.268654 -1.92333 0
M  V30 2683 C 258.894 -0.888758 -3.35736 0
M  V30 2684 C 257.848 -1.95659 -3.8066 0
M  V30 2685 C 257.174 -1.50224 -5.13164 0
M  V30 2686 C 258.474 -3.36788 -3.99213 0
M  V30 2687 H 260.168 -2.13476 -2.09925 0
M  V30 2688 H 257.714 -1.02775 -1.00863 0
M  V30 2689 H 259.667 -0.799094 -4.13754 0
M  V30 2690 H 258.391 0.0856125 -3.26488 0
M  V30 2691 H 257.05 -2.03591 -3.04871 0
M  V30 2692 H 256.698 -0.516092 -5.00345 0
M  V30 2693 H 256.398 -2.2165 -5.44192 0
M  V30 2694 H 257.922 -1.42639 -5.93706 0
M  V30 2695 H 259.336 -3.31605 -4.67665 0
M  V30 2696 H 257.733 -4.06314 -4.41621 0
M  V30 2697 H 258.803 -3.78561 -3.03017 0
M  V30 2698 N 260.146 1.09593 -1.13257 0
M  V30 2699 C 261.392 1.82003 -0.89458 0
M  V30 2700 C 261.725 1.85402 0.577906 0
M  V30 2701 O 261 1.32099 1.42759 0
M  V30 2702 C 261.283 3.28237 -1.48096 0
M  V30 2703 C 261.136 3.3312 -3.02244 0
M  V30 2704 C 262.455 4.24871 -1.14774 0
M  V30 2705 H 259.574 0.66077 -0.326424 0
M  V30 2706 H 262.216 1.28389 -1.40058 0
M  V30 2707 H 260.366 3.74024 -1.05062 0
M  V30 2708 H 262.038 2.95748 -3.54021 0
M  V30 2709 H 260.281 2.72756 -3.37323 0
M  V30 2710 H 260.952 4.3613 -3.38371 0
M  V30 2711 H 263.428 3.87361 -1.51957 0
M  V30 2712 H 262.304 5.25532 -1.58452 0
M  V30 2713 H 262.565 4.42058 -0.0611849 0
M  V30 2714 N 261.624 0.925811 1.2754 0
M  V30 2715 C 262.587 0.428129 2.25166 0
M  V30 2716 C 263.587 -0.452261 1.54309 0
M  V30 2717 O 264.777 -0.253608 1.72344 0
M  V30 2718 C 261.909 -0.384749 3.38722 0
M  V30 2719 H 263.102 1.29066 2.70706 0
M  V30 2720 H 260.655 0.706323 1.3943 0
M  V30 2721 H 261.39 -1.26618 2.98561 0
M  V30 2722 H 261.175 0.246454 3.91325 0
M  V30 2723 H 262.665 -0.723389 4.11287 0
M  V30 2724 N 263.102 -1.41638 0.69111 0
M  V30 2725 C 264.052 -2.28 -0.000107832 0
M  V30 2726 C 265.036 -1.41964 -0.757304 0
M  V30 2727 O 266.228 -1.65274 -0.633532 0
M  V30 2728 C 263.357 -3.30209 -0.938983 0
M  V30 2729 C 262.443 -4.23725 -0.17827 0
M  V30 2730 N 262.834 -4.99017 0.825563 0
M  V30 2731 C 261.132 -4.44071 -0.414392 0
M  V30 2732 C 261.833 -5.67431 1.28052 0
M  V30 2733 N 260.809 -5.40197 0.607304 0
M  V30 2734 H 264.611 -2.83644 0.769617 0
M  V30 2735 H 262.125 -1.53797 0.521562 0
M  V30 2736 H 264.122 -3.90898 -1.44929 0
M  V30 2737 H 262.782 -2.76126 -1.70836 0
M  V30 2738 H 263.793 -5.03671 1.20566 0
M  V30 2739 H 260.47 -4.01004 -1.162 0
M  V30 2740 H 261.86 -6.37801 2.11327 0
M  V30 2741 N 264.58 -0.43555 -1.51462 0
M  V30 2742 C 265.543 0.365137 -2.26273 0
M  V30 2743 C 266.543 0.951227 -1.29647 0
M  V30 2744 O 267.733 0.825958 -1.53374 0
M  V30 2745 C 264.865 1.51645 -3.05314 0
M  V30 2746 H 266.058 -0.290474 -2.9849 0
M  V30 2747 H 263.611 -0.188676 -1.55157 0
M  V30 2748 H 264.346 2.20816 -2.3751 0
M  V30 2749 H 264.131 1.10238 -3.76284 0
M  V30 2750 H 265.621 2.08218 -3.61987 0
M  V30 2751 N 266.058 1.56714 -0.166846 0
M  V30 2752 C 266.988 2.20754 0.760913 0
M  V30 2753 C 267.969 1.16178 1.24244 0
M  V30 2754 O 269.154 1.44592 1.29641 0
M  V30 2755 C 266.284 2.84478 1.99223 0
M  V30 2756 C 265.238 3.95053 1.64672 0
M  V30 2757 C 264.564 4.45805 2.95232 0
M  V30 2758 C 265.864 5.14865 0.878155 0
M  V30 2759 H 267.558 2.98537 0.22713 0
M  V30 2760 H 265.104 1.43596 0.107805 0
M  V30 2761 H 267.057 3.27951 2.64624 0
M  V30 2762 H 265.781 2.04056 2.55007 0
M  V30 2763 H 264.44 3.52228 1.01641 0
M  V30 2764 H 264.088 3.62181 3.49047 0
M  V30 2765 H 263.788 5.204 2.7287 0
M  V30 2766 H 265.312 4.91962 3.6167 0
M  V30 2767 H 266.726 5.55059 1.43466 0
M  V30 2768 H 265.123 5.95348 0.753738 0
M  V30 2769 H 266.193 4.84735 -0.126377 0
M  V30 2770 N 267.536 -0.106894 1.57237 0
M  V30 2771 C 268.486 -1.1366 1.9765 0
M  V30 2772 C 269.47 -1.36416 0.853203 0
M  V30 2773 O 270.662 -1.37305 1.11697 0
M  V30 2774 C 267.791 -2.46 2.39455 0
M  V30 2775 C 266.877 -2.26668 3.58445 0
M  V30 2776 N 267.268 -1.77176 4.73754 0
M  V30 2777 C 265.566 -2.57279 3.64312 0
M  V30 2778 C 266.267 -1.71836 5.5574 0
M  V30 2779 N 265.243 -2.16623 4.98573 0
M  V30 2780 H 269.045 -0.74669 2.84256 0
M  V30 2781 H 266.559 -0.314483 1.59326 0
M  V30 2782 H 268.556 -3.2049 2.6663 0
M  V30 2783 H 267.216 -2.85738 1.54219 0
M  V30 2784 H 268.227 -1.46545 4.96734 0
M  V30 2785 H 264.904 -3.00622 2.89711 0
M  V30 2786 H 266.294 -1.34723 6.58255 0
M  V30 2787 N 269.014 -1.53014 -0.377408 0
M  V30 2788 C 270.43 -1.42523 -0.718281 0
M  V30 2789 C 270.63 -0.55487 -1.9371 0
M  V30 2790 O 269.686 -0.0327593 -2.52479 0
M  V30 2791 C 270.999 -2.85546 -0.942539 0
M  V30 2792 C 272.547 -2.95101 -1.04329 0
M  V30 2793 C 273.022 -4.3916 -1.3001 0
M  V30 2794 N 274.513 -4.42536 -1.36806 0
M  V30 2795 C 275.248 -5.51097 -1.58364 0
M  V30 2796 N 274.744 -6.69724 -1.77317 0
M  V30 2797 N 276.537 -5.38657 -1.60638 0
M  V30 2798 H 268.688 -2.08116 0.424426 0
M  V30 2799 H 270.951 -0.939352 0.127759 0
M  V30 2800 H 270.657 -3.51499 -0.118929 0
M  V30 2801 H 270.531 -3.28493 -1.85397 0
M  V30 2802 H 272.918 -2.29309 -1.85745 0
M  V30 2803 H 272.999 -2.55566 -0.109505 0
M  V30 2804 H 272.643 -5.05521 -0.490991 0
M  V30 2805 H 272.573 -4.76258 -2.24691 0
M  V30 2806 H 275.064 -3.57039 -1.23821 0
M  V30 2807 H 275.377 -7.48233 -1.93306 0
M  V30 2808 H 273.722 -6.72732 -1.74518 0
M  V30 2809 H 276.913 -4.44948 -1.45391 0
M  V30 2810 H 277.086 -6.2333 -1.77098 0
M  V30 2811 N 270.492 0.636531 -1.44174 0
M  V30 2812 C 271.442 1.74233 -1.47061 0
M  V30 2813 C 272.426 1.57331 -0.337034 0
M  V30 2814 O 273.618 1.67159 -0.581973 0
M  V30 2815 C 270.747 3.12897 -1.41246 0
M  V30 2816 C 269.833 3.35288 -2.59698 0
M  V30 2817 N 270.224 3.2807 -3.84972 0
M  V30 2818 C 268.522 3.66065 -2.54778 0
M  V30 2819 C 269.223 3.51001 -4.63867 0
M  V30 2820 N 268.199 3.73616 -3.94857 0
M  V30 2821 H 272.001 1.67103 -2.41773 0
M  V30 2822 H 269.515 0.838806 -1.3906 0
M  V30 2823 H 271.512 3.92189 -1.41398 0
M  V30 2824 H 270.172 3.21197 -0.47569 0
M  V30 2825 H 271.183 3.07109 -4.17019 0
M  V30 2826 H 267.86 3.81379 -1.6987 0
M  V30 2827 H 269.25 3.51059 -5.72894 0
M  V30 2828 N 271.97 1.30982 0.876444 0
M  V30 2829 C 273.195 1.23373 1.66715 0
M  V30 2830 C 273.62 -0.19885 1.87046 0
M  V30 2831 O 272.978 -1.1427 1.40756 0
M  V30 2832 C 273.026 1.97644 3.01611 0
M  V30 2833 O 272.13 1.30935 3.91062 0
M  V30 2834 H 271.471 0.426279 0.509099 0
M  V30 2835 H 274.001 1.72944 1.09323 0
M  V30 2836 H 274.011 2.06992 3.51594 0
M  V30 2837 H 272.686 3.01829 2.86133 0
M  V30 2838 H 271.263 1.29996 3.49507 0
M  V30 2839 N 273.449 -1.08991 1.13837 0
M  V30 2840 C 274.86 -1.62746 0.914917 0
M  V30 2841 C 275.211 -1.88403 -0.547594 0
M  V30 2842 O 274.336 -1.63706 -1.41525 0
M  V30 2843 C 274.931 -2.95662 1.65437 0
M  V30 2844 C 273.49 -3.46225 1.47666 0
M  V30 2845 C 272.637 -2.20562 1.6807 0
M  V30 2846 H 275.588 -0.922946 1.29102 0
M  V30 2847 H 275.609 -3.63825 1.11407 0
M  V30 2848 H 275.121 -2.76956 2.71877 0
M  V30 2849 H 273.222 -3.70046 0.435478 0
M  V30 2850 H 273.335 -4.23368 2.24268 0
M  V30 2851 H 271.699 -2.29439 1.10589 0
M  V30 2852 H 272.482 -2.0437 2.7584 0
M  V30 2853 N 274.927 -0.932562 -1.27047 0
M  V30 2854 C 276.343 -0.633544 -1.46487 0
M  V30 2855 C 276.543 0.815746 -1.84249 0
M  V30 2856 O 275.599 1.59319 -1.95892 0
M  V30 2857 C 276.912 -1.58758 -2.55375 0
M  V30 2858 C 278.46 -1.59634 -2.69232 0
M  V30 2859 C 278.935 -2.53747 -3.81283 0
M  V30 2860 N 280.426 -2.51982 -3.88664 0
M  V30 2861 C 281.161 -3.21491 -4.74796 0
M  V30 2862 N 280.657 -4.00395 -5.65381 0
M  V30 2863 N 282.45 -3.10485 -4.68568 0
M  V30 2864 H 274.601 -1.86946 -1.00821 0
M  V30 2865 H 276.864 -0.802897 -0.504044 0
M  V30 2866 H 276.57 -2.62172 -2.34432 0
M  V30 2867 H 276.444 -1.33301 -3.52861 0
M  V30 2868 H 278.831 -0.569488 -2.89553 0
M  V30 2869 H 278.912 -1.89142 -1.72218 0
M  V30 2870 H 278.556 -3.56545 -3.61715 0
M  V30 2871 H 278.486 -2.21532 -4.77735 0
M  V30 2872 H 280.977 -1.94681 -3.23895 0
M  V30 2873 H 281.29 -4.50406 -6.27976 0
M  V30 2874 H 279.635 -4.04498 -5.65161 0
M  V30 2875 H 282.826 -2.48331 -3.96799 0
M  V30 2876 H 282.999 -3.64925 -5.35475 0
M  V30 2877 N 276.405 1.4127 -0.698611 0
M  V30 2878 C 277.368 2.29158 -0.044132 0
M  V30 2879 C 278.368 1.44529 0.704841 0
M  V30 2880 O 279.558 1.65643 0.539276 0
M  V30 2881 C 276.69 3.27459 0.947809 0
M  V30 2882 H 277.883 2.88529 -0.817994 0
M  V30 2883 H 275.436 1.49307 -0.46228 0
M  V30 2884 H 276.171 2.73073 1.74933 0
M  V30 2885 H 275.956 3.8991 0.41385 0
M  V30 2886 H 277.446 3.93311 1.40344 0
M  V30 2887 N 277.883 0.443576 1.51229 0
M  V30 2888 C 278.83 -0.364716 2.279 0
M  V30 2889 C 279.8 -1.0114 1.31757 0
M  V30 2890 O 280.985 -1.02912 1.60667 0
M  V30 2891 C 278.125 -1.45644 3.12861 0
M  V30 2892 C 277.238 -0.827269 4.24005 0
M  V30 2893 C 276.373 -1.89456 4.96266 0
M  V30 2894 C 275.412 -1.24416 5.99322 0
M  V30 2895 N 274.549 -2.25309 6.64966 0
M  V30 2896 H 279.389 0.295464 2.96532 0
M  V30 2897 H 276.926 0.157554 1.46254 0
M  V30 2898 H 278.884 -2.10076 3.6045 0
M  V30 2899 H 277.514 -2.08616 2.46331 0
M  V30 2900 H 276.566 -0.0710839 3.80334 0
M  V30 2901 H 277.878 -0.312481 4.9782 0
M  V30 2902 H 277.032 -2.61535 5.47434 0
M  V30 2903 H 275.771 -2.4431 4.22095 0
M  V30 2904 H 274.776 -0.508868 5.4744 0
M  V30 2905 H 276.001 -0.702882 6.75453 0
M  V30 2906 H 273.947 -2.79231 5.93604 0
M  V30 2907 H 273.864 -1.78739 7.34567 0
M  V30 2908 H 275.132 -2.96853 7.20763 0
M  V30 2909 N 279.361 -1.56624 0.175154 0
M  V30 2910 C 280.324 -2.16934 -0.739738 0
M  V30 2911 C 281.324 -1.11842 -1.15533 0
M  V30 2912 O 282.514 -1.37335 -1.07167 0
M  V30 2913 C 279.646 -2.75531 -2.00738 0
M  V30 2914 H 280.839 -2.99131 -0.214639 0
M  V30 2915 H 278.392 -1.56123 -0.0744197 0
M  V30 2916 H 279.127 -1.97078 -2.57548 0
M  V30 2917 H 278.912 -3.52444 -1.71831 0
M  V30 2918 H 280.402 -3.21904 -2.66021 0
M  V30 2919 N 280.839 0.0985539 -1.57292 0
M  V30 2920 C 282.25 0.653457 -1.74891 0
M  V30 2921 C 282.601 1.7929 -0.796838 0
M  V30 2922 O 281.726 2.16385 0.0254886 0
M  V30 2923 C 282.321 1.19216 -3.17133 0
M  V30 2924 C 280.88 1.69316 -3.36168 0
M  V30 2925 C 280.027 0.601294 -2.70702 0
M  V30 2926 H 282.978 -0.127497 -1.58187 0
M  V30 2927 H 282.999 2.06154 -3.19814 0
M  V30 2928 H 282.511 0.362635 -3.86402 0
M  V30 2929 H 280.612 2.5468 -2.71972 0
M  V30 2930 H 280.725 1.78853 -4.44464 0
M  V30 2931 H 279.089 1.0399 -2.32504 0
M  V30 2932 H 279.872 -0.217592 -3.4261 0
M  V30 2933 N 282.317 1.53212 0.369288 0
M  V30 2934 C 283.564 1.69215 1.11232 0
M  V30 2935 C 283.892 0.442048 1.8941 0
M  V30 2936 O 283.147 -0.575944 1.87033 0
M  V30 2937 C 283.446 2.89101 2.10132 0
M  V30 2938 C 283.112 4.25758 1.48463 0
M  V30 2939 C 281.774 4.6292 1.31372 0
M  V30 2940 C 284.126 5.10757 1.03811 0
M  V30 2941 C 281.454 5.82722 0.68207 0
M  V30 2942 C 283.806 6.31201 0.420487 0
M  V30 2943 C 282.47 6.67079 0.237038 0
M  V30 2944 H 281.74 0.619201 0.407027 0
M  V30 2945 H 284.387 1.87391 0.394552 0
M  V30 2946 H 282.692 2.65421 2.88199 0
M  V30 2947 H 284.389 2.98676 2.6757 0
M  V30 2948 H 280.979 3.96494 1.62758 0
M  V30 2949 H 285.163 4.82599 1.1581 0
M  V30 2950 H 280.419 6.09113 0.528316 0
M  V30 2951 H 284.593 6.96368 0.0662874 0
M  V30 2952 H 282.22 7.59774 -0.254477 0
M  V30 2953 N 283.795 -0.628877 1.44509 0
M  V30 2954 C 285.044 -1.38437 1.4669 0
M  V30 2955 C 285.357 -1.95322 0.104272 0
M  V30 2956 O 286.563 -2.715 0.00362163 0
M  V30 2957 C 285.019 -2.50659 2.5826 0
M  V30 2958 C 284.627 -2.00277 4.0074 0
M  V30 2959 C 286.371 -3.27844 2.69664 0
M  V30 2960 C 284.278 -3.09854 5.0373 0
M  V30 2961 H 283.208 -0.520245 0.545766 0
M  V30 2962 H 285.859 -0.676313 1.70582 0
M  V30 2963 H 284.241 -3.2405 2.27612 0
M  V30 2964 H 285.415 -1.33736 4.40966 0
M  V30 2965 H 283.73 -1.35901 3.93599 0
M  V30 2966 H 286.327 -4.09534 3.43781 0
M  V30 2967 H 286.67 -3.77471 1.75559 0
M  V30 2968 H 287.203 -2.61543 2.99733 0
M  V30 2969 H 283.942 -2.65168 5.99472 0
M  V30 2970 H 283.462 -3.7503 4.68095 0
M  V30 2971 H 285.141 -3.74592 5.27532 0
M  V30 2972 N 285.273 -1.31445 -0.869486 0
M  V30 2973 C 286.236 -1.19094 -1.9583 0
M  V30 2974 C 287.236 -0.117906 -1.60367 0
M  V30 2975 O 288.426 -0.367208 -1.70286 0
M  V30 2976 C 285.558 -0.828165 -3.30688 0
M  V30 2977 H 286.751 -2.15842 -2.08212 0
M  V30 2978 H 284.304 -1.15063 -1.05784 0
M  V30 2979 H 285.039 0.138142 -3.24006 0
M  V30 2980 H 284.824 -1.6038 -3.578 0
M  V30 2981 H 286.314 -0.765658 -4.10521 0
M  V30 2982 N 286.751 1.08385 -1.14413 0
M  V30 2983 C 287.681 2.17321 -0.854044 0
M  V30 2984 C 288.662 1.69024 0.191049 0
M  V30 2985 O 289.847 1.94141 0.0476779 0
M  V30 2986 C 286.977 3.45719 -0.330983 0
M  V30 2987 C 285.931 4.07409 -1.31155 0
M  V30 2988 C 285.257 5.30762 -0.64778 0
M  V30 2989 C 286.557 4.48665 -2.67388 0
M  V30 2990 H 288.251 2.41845 -1.76498 0
M  V30 2991 H 285.797 1.16233 -0.850051 0
M  V30 2992 H 287.75 4.21241 -0.115645 0
M  V30 2993 H 286.474 3.2075 0.615381 0
M  V30 2994 H 285.133 3.33919 -1.51306 0
M  V30 2995 H 284.781 5.02078 0.304398 0
M  V30 2996 H 284.481 5.72992 -1.30207 0
M  V30 2997 H 286.005 6.08998 -0.441972 0
M  V30 2998 H 287.419 5.15364 -2.51143 0
M  V30 2999 H 285.816 5.01814 -3.29093 0
M  V30 3000 H 286.886 3.60543 -3.24248 0
M  V30 3001 N 288.23 0.939286 1.26551 0
M  V30 3002 C 289.178 0.43815 2.28436 0
M  V30 3003 C 290.172 -0.483587 1.62351 0
M  V30 3004 O 291.378 -0.362009 1.76322 0
M  V30 3005 H 287.753 0.123149 0.741848 0
M  V30 3006 H 289.724 1.31002 2.68106 0
M  V30 3007 C 288.473 -0.283052 3.46546 0
M  V30 3008 H 287.796 0.417043 3.97619 0
M  V30 3009 H 289.236 -0.597948 4.19763 0
M  V30 3010 C 287.695 -1.50018 3.01656 0
M  V30 3011 O 288.225 -2.59855 3.0633 0
M  V30 3012 N 286.431 -1.35608 2.57019 0
M  V30 3013 H 285.978 -0.46244 2.53415 0
M  V30 3014 H 285.936 -2.17165 2.27347 0
M  V30 3015 N 289.708 -1.40897 0.706093 0
M  V30 3016 C 290.641 -2.282 -0.00328781 0
M  V30 3017 C 291.619 -1.42816 -0.77732 0
M  V30 3018 O 292.803 -1.72237 -0.765944 0
M  V30 3019 C 289.93 -3.23226 -1.01205 0
M  V30 3020 C 288.976 -4.25222 -0.329955 0
M  V30 3021 S 289.809 -5.27269 0.935298 0
M  V30 3022 C 290.965 -6.25859 -0.0716061 0
M  V30 3023 H 291.198 -2.88016 0.737143 0
M  V30 3024 H 288.731 -1.46191 0.496756 0
M  V30 3025 H 290.689 -3.78503 -1.58888 0
M  V30 3026 H 289.35 -2.62485 -1.72513 0
M  V30 3027 H 288.543 -4.92023 -1.09221 0
M  V30 3028 H 288.145 -3.73595 0.174069 0
M  V30 3029 H 290.437 -6.71204 -0.921521 0
M  V30 3030 H 291.38 -7.0586 0.562765 0
M  V30 3031 H 291.788 -5.62852 -0.431088 0
M  V30 3032 N 291.186 -0.45159 -1.50991 0
M  V30 3033 C 292.149 0.341117 -2.26647 0
M  V30 3034 C 293.149 0.937422 -1.30649 0
M  V30 3035 O 294.339 0.809644 -1.54241 0
M  V30 3036 C 291.471 1.48398 -3.06905 0
M  V30 3037 H 292.664 -0.322117 -2.98165 0
M  V30 3038 H 290.217 -0.205122 -1.54948 0
M  V30 3039 H 290.952 2.18284 -2.39838 0
M  V30 3040 H 290.737 1.06241 -3.77432 0
M  V30 3041 H 292.227 2.04367 -3.64176 0
M  V30 3042 N 292.664 1.56529 -0.183458 0
M  V30 3043 C 293.627 2.17324 0.728223 0
M  V30 3044 C 294.627 1.12453 1.14939 0
M  V30 3045 O 295.817 1.37902 1.06437 0
M  V30 3046 C 292.949 2.76591 1.99274 0
M  V30 3047 H 294.142 2.99241 0.198772 0
M  V30 3048 H 291.695 1.5616 0.0661391 0
M  V30 3049 H 292.43 1.98441 2.56499 0
M  V30 3050 H 292.215 3.5335 1.69959 0
M  V30 3051 H 293.705 3.23311 2.6431 0
M  V30 3052 N 294.142 -0.090211 1.57342 0
M  V30 3053 C 295.391 -0.791531 1.8552 0
M  V30 3054 C 295.704 -1.79659 0.773441 0
M  V30 3055 O 296.91 -2.54616 0.942497 0
M  V30 3056 C 295.366 -1.45856 3.2902 0
M  V30 3057 C 294.974 -0.493017 4.45279 0
M  V30 3058 C 296.718 -2.14332 3.66418 0
M  V30 3059 C 294.625 -1.16491 5.79814 0
M  V30 3060 H 293.555 -0.299356 0.692027 0
M  V30 3061 H 296.206 -0.0445343 1.83446 0
M  V30 3062 H 294.588 -2.25318 3.2565 0
M  V30 3063 H 295.762 0.270464 4.60006 0
M  V30 3064 H 294.077 0.0863061 4.16311 0
M  V30 3065 H 296.674 -2.65344 4.64216 0
M  V30 3066 H 297.017 -2.93447 2.95287 0
M  V30 3067 H 297.55 -1.41724 3.71698 0
M  V30 3068 H 294.289 -0.41447 6.54188 0
M  V30 3069 H 293.809 -1.8997 5.68921 0
M  V30 3070 H 295.488 -1.69001 6.24538 0
M  V30 3071 N 295.62 -1.53406 -0.361157 0
M  V30 3072 C 297.031 -1.61442 -0.937728 0
M  V30 3073 C 297.382 -0.48461 -1.90121 0
M  V30 3074 O 296.507 0.388312 -2.12888 0
M  V30 3075 C 297.102 -2.92624 -1.70753 0
M  V30 3076 C 295.661 -3.02981 -2.23337 0
M  V30 3077 C 294.808 -2.5677 -1.04712 0
M  V30 3078 H 297.759 -1.58083 -0.139816 0
M  V30 3079 H 297.78 -2.80675 -2.56908 0
M  V30 3080 H 297.292 -3.74834 -1.00604 0
M  V30 3081 H 295.393 -2.25368 -2.96715 0
M  V30 3082 H 295.506 -4.0814 -2.50916 0
M  V30 3083 H 293.87 -2.11752 -1.41539 0
M  V30 3084 H 294.653 -3.41402 -0.360539 0
M  V30 3085 N 297.098 0.621204 -1.44841 0
M  V30 3086 C 298.045 1.73267 -1.5247 0
M  V30 3087 C 299.015 1.6189 -0.371611 0
M  V30 3088 O 300.2 1.81668 -0.58321 0
M  V30 3089 C 297.34 3.11545 -1.48438 0
M  V30 3090 C 296.453 3.33827 -2.74196 0
M  V30 3091 C 295.588 4.62133 -2.61929 0
M  V30 3092 C 294.627 4.77627 -3.82804 0
M  V30 3093 N 293.764 5.97219 -3.69153 0
M  V30 3094 H 298.604 1.66082 -2.47428 0
M  V30 3095 H 296.141 0.810026 -1.22788 0
M  V30 3096 H 298.099 3.91528 -1.4409 0
M  V30 3097 H 296.729 3.1772 -0.570402 0
M  V30 3098 H 295.781 2.47715 -2.88689 0
M  V30 3099 H 297.093 3.41153 -3.6389 0
M  V30 3100 H 296.247 5.50291 -2.5547 0
M  V30 3101 H 294.986 4.57182 -1.69811 0
M  V30 3102 H 293.991 3.87896 -3.89637 0
M  V30 3103 H 295.216 4.84385 -4.75971 0
M  V30 3104 H 293.162 5.93339 -2.79794 0
M  V30 3105 H 293.079 6.05644 -4.52472 0
M  V30 3106 H 294.347 6.87912 -3.66603 0
M  V30 3107 N 298.576 1.31904 0.862503 0
M  V30 3108 C 299.853 1.12644 1.59908 0
M  V30 3109 C 300.233 -0.316104 2.0872 0
M  V30 3110 O 299.581 -1.31145 1.87118 0
M  V30 3111 C 299.791 2.1472 2.7513 0
M  V30 3112 C 301.139 2.47637 3.44907 0
M  V30 3113 O 302.163 2.13205 2.85346 0
M  V30 3114 O 301.022 3.06632 4.52371 0
M  V30 3115 H 298.116 0.43416 0.703871 0
M  V30 3116 H 300.662 1.43408 0.907314 0
M  V30 3117 H 299.434 3.1172 2.3653 0
M  V30 3118 H 299.057 1.84905 3.51989 0
M  V30 3119 N 300.054 -1.07777 1.14986 0
M  V30 3120 C 300.984 -2.16865 0.865557 0
M  V30 3121 C 301.965 -1.69123 -0.182083 0
M  V30 3122 O 303.15 -1.94164 -0.0373815 0
M  V30 3123 C 300.28 -3.45539 0.349313 0
M  V30 3124 C 299.234 -4.06708 1.33313 0
M  V30 3125 C 298.56 -5.30411 0.675918 0
M  V30 3126 C 299.86 -4.47241 2.69764 0
M  V30 3127 H 301.554 -2.40905 1.77778 0
M  V30 3128 H 299.1 -1.15781 0.856203 0
M  V30 3129 H 301.053 -4.21174 0.137983 0
M  V30 3130 H 299.777 -3.21072 -0.598362 0
M  V30 3131 H 298.436 -3.33112 1.53075 0
M  V30 3132 H 298.084 -5.02232 -0.277767 0
M  V30 3133 H 297.784 -5.72293 1.33244 0
M  V30 3134 H 299.308 -6.08755 0.474262 0
M  V30 3135 H 300.722 -5.14025 2.53873 0
M  V30 3136 H 299.119 -5.00062 3.3175 0
M  V30 3137 H 300.189 -3.58818 3.26156 0
M  V30 3138 N 301.532 -0.945985 -1.26051 0
M  V30 3139 C 302.781 -0.591836 -1.92822 0
M  V30 3140 C 303.094 0.873956 -1.7499 0
M  V30 3141 O 304.3 1.33769 -2.36259 0
M  V30 3142 C 302.756 -1.00776 -3.45503 0
M  V30 3143 C 302.364 -2.4955 -3.7206 0
M  V30 3144 C 304.108 -0.725735 -4.1825 0
M  V30 3145 C 302.015 -2.84988 -5.18205 0
M  V30 3146 H 300.945 -0.217635 -0.721908 0
M  V30 3147 H 303.596 -1.14927 -1.43052 0
M  V30 3148 H 301.978 -0.378812 -3.94184 0
M  V30 3149 H 303.152 -3.1739 -3.34066 0
M  V30 3150 H 301.467 -2.75133 -3.12555 0
M  V30 3151 H 304.064 -0.966771 -5.25887 0
M  V30 3152 H 304.407 0.337639 -4.14929 0
M  V30 3153 H 304.94 -1.31463 -3.7545 0
M  V30 3154 H 301.679 -3.90307 -5.26631 0
M  V30 3155 H 301.199 -2.21813 -5.57278 0
M  V30 3156 H 302.878 -2.73712 -5.86252 0
M  V30 3157 N 303.011 1.40521 -0.713556 0
M  V30 3158 C 303.921 2.34522 -0.0606667 0
M  V30 3159 C 304.937 1.57193 0.74607 0
M  V30 3160 O 306.113 1.89591 0.679493 0
M  V30 3161 C 303.178 3.36081 0.851491 0
M  V30 3162 C 302.239 4.29286 0.0349339 0
M  V30 3163 C 301.472 5.25994 0.903649 0
M  V30 3164 O 301.695 5.28616 2.14292 0
M  V30 3165 O 300.629 6.00918 0.343723 0
M  V30 3166 H 304.455 2.91968 -0.835972 0
M  V30 3167 H 302.04 1.41681 -0.47402 0
M  V30 3168 H 303.922 3.98369 1.37404 0
M  V30 3169 H 302.597 2.81052 1.60598 0
M  V30 3170 H 301.504 3.70289 -0.532633 0
M  V30 3171 H 302.837 4.87462 -0.681287 0
M  V30 3172 N 304.489 0.459591 1.5075 0
M  V30 3173 C 305.714 -0.0996819 2.0716 0
M  V30 3174 C 306.139 -1.33761 1.32249 0
M  V30 3175 O 305.497 -1.77551 0.366786 0
M  V30 3176 C 305.545 -0.378226 3.58611 0
M  V30 3177 O 304.649 -1.46081 3.85661 0
M  V30 3178 H 303.99 0.00791392 0.663953 0
M  V30 3179 H 306.52 0.647329 1.9409 0
M  V30 3180 H 306.53 -0.622135 4.03229 0
M  V30 3181 H 305.205 0.526439 4.12555 0
M  V30 3182 H 303.782 -1.20511 3.5289 0
M  V30 3183 N 305.967 -1.56429 0.191757 0
M  V30 3184 C 306.877 -2.22541 -0.742481 0
M  V30 3185 C 307.893 -1.22342 -1.23727 0
M  V30 3186 O 309.069 -1.55069 -1.28513 0
M  V30 3187 C 306.134 -2.8692 -1.94623 0
M  V30 3188 C 305.195 -4.02378 -1.49633 0
M  V30 3189 C 304.428 -4.63678 -2.6427 0
M  V30 3190 O 304.651 -4.23895 -3.81666 0
M  V30 3191 O 303.585 -5.53202 -2.37174 0
M  V30 3192 H 307.411 -3.02977 -0.209462 0
M  V30 3193 H 304.996 -1.49353 -0.0373832 0
M  V30 3194 H 306.878 -3.27663 -2.64982 0
M  V30 3195 H 305.553 -2.09466 -2.46791 0
M  V30 3196 H 304.46 -3.66265 -0.761636 0
M  V30 3197 H 305.793 -4.81487 -1.02134 0
M  V30 3198 N 307.445 0.0818655 -1.57387 0
M  V30 3199 C 308.375 1.09885 -2.06028 0
M  V30 3200 C 309.356 1.4098 -0.951774 0
M  V30 3201 O 310.541 1.50781 -1.22387 0
M  V30 3202 C 307.671 2.4151 -2.4958 0
M  V30 3203 C 306.625 2.24792 -3.64215 0
M  V30 3204 C 305.951 3.61712 -3.93787 0
M  V30 3205 C 307.251 1.67749 -4.94629 0
M  V30 3206 H 308.945 0.694128 -2.91243 0
M  V30 3207 H 306.491 0.332448 -1.4011 0
M  V30 3208 H 308.444 3.12939 -2.82219 0
M  V30 3209 H 307.168 2.83943 -1.61381 0
M  V30 3210 H 305.827 1.55807 -3.31843 0
M  V30 3211 H 305.475 4.01697 -3.02735 0
M  V30 3212 H 305.175 3.51368 -4.70971 0
M  V30 3213 H 306.699 4.34587 -4.28913 0
M  V30 3214 H 308.113 2.29032 -5.25564 0
M  V30 3215 H 306.51 1.68128 -5.76067 0
M  V30 3216 H 307.58 0.638059 -4.80684 0
M  V30 3217 N 308.923 1.53595 0.353017 0
M  V30 3218 C 310.17 1.70385 1.09431 0
M  V30 3219 C 310.498 0.462113 1.88931 0
M  V30 3220 O 309.753 -0.556074 1.87633 0
M  V30 3221 C 310.052 2.91313 2.07054 0
M  V30 3222 C 309.718 4.27308 1.43939 0
M  V30 3223 C 308.38 4.64287 1.26454 0
M  V30 3224 C 310.732 5.11829 0.983883 0
M  V30 3225 C 308.06 5.83412 0.620226 0
M  V30 3226 C 310.412 6.31611 0.353516 0
M  V30 3227 C 309.076 6.67293 0.166272 0
M  V30 3228 H 308.346 0.623484 0.400436 0
M  V30 3229 H 310.993 1.87799 0.374655 0
M  V30 3230 H 309.298 2.68463 2.85368 0
M  V30 3231 H 310.995 3.01497 2.64387 0
M  V30 3232 H 307.585 3.98198 1.58543 0
M  V30 3233 H 311.769 4.838 1.10685 0
M  V30 3234 H 307.025 6.09639 0.463681 0
M  V30 3235 H 311.199 6.964 -0.00757555 0
M  V30 3236 H 308.826 7.59461 -0.335047 0
M  V30 3237 N 310.401 -0.613514 1.45168 0
M  V30 3238 C 311.649 -1.36997 1.48581 0
M  V30 3239 C 311.97 -1.94589 0.126545 0
M  V30 3240 O 311.24 -1.76816 -0.843372 0
M  V30 3241 H 309.82 -0.508558 0.547154 0
M  V30 3242 H 312.482 -0.720853 1.81079 0
M  V30 3243 H 311.578 -2.1924 2.22127 0
M  V30 3244 N 311.879 -1.3236 -0.855495 0
M  V30 3245 C 312.829 -1.17809 -1.95205 0
M  V30 3246 C 313.813 -0.0852319 -1.60674 0
M  V30 3247 O 315.005 -0.311651 -1.74235 0
M  V30 3248 C 312.134 -0.902437 -3.31226 0
M  V30 3249 C 311.22 -2.03695 -3.7198 0
M  V30 3250 N 311.611 -3.28544 -3.84568 0
M  V30 3251 C 309.909 -1.93993 -4.016 0
M  V30 3252 C 310.61 -4.02847 -4.19629 0
M  V30 3253 N 309.586 -3.31138 -4.31102 0
M  V30 3254 H 313.388 -2.12462 -2.0307 0
M  V30 3255 H 310.902 -1.24127 -1.0472 0
M  V30 3256 H 312.899 -0.77915 -4.09554 0
M  V30 3257 H 311.559 0.0357267 -3.2468 0
M  V30 3258 H 312.57 -3.6349 -3.68911 0
M  V30 3259 H 309.247 -1.07733 -4.03361 0
M  V30 3260 H 310.637 -5.10506 -4.36845 0
M  V30 3261 N 313.357 1.07166 -1.15556 0
M  V30 3262 C 314.267 2.17947 -0.868116 0
M  V30 3263 C 315.283 1.73297 0.156297 0
M  V30 3264 O 316.459 2.01392 -0.0182327 0
M  V30 3265 C 313.524 3.44789 -0.36355 0
M  V30 3266 C 312.585 4.03996 -1.45209 0
M  V30 3267 C 311.818 5.24783 -0.971508 0
M  V30 3268 O 312.041 5.70109 0.182194 0
M  V30 3269 O 310.975 5.75715 -1.75603 0
M  V30 3270 H 314.801 2.4503 -1.79427 0
M  V30 3271 H 312.386 1.16539 -0.934824 0
M  V30 3272 H 314.268 4.21307 -0.0887113 0
M  V30 3273 H 312.943 3.19253 0.534708 0
M  V30 3274 H 311.85 3.29009 -1.78056 0
M  V30 3275 H 313.183 4.33808 -2.32533 0
M  V30 3276 N 314.835 0.952656 1.25548 0
M  V30 3277 C 315.782 0.47008 2.25962 0
M  V30 3278 C 316.752 -0.476384 1.59122 0
M  V30 3279 O 317.937 -0.39007 1.8677 0
M  V30 3280 C 315.077 -0.247881 3.44209 0
M  V30 3281 C 314.19 0.735591 4.25691 0
M  V30 3282 C 313.325 -0.0047306 5.312 0
M  V30 3283 C 312.364 0.969805 6.04368 0
M  V30 3284 N 311.501 0.260486 7.01617 0
M  V30 3285 H 316.341 1.33126 2.66611 0
M  V30 3286 H 313.878 0.66765 1.31076 0
M  V30 3287 H 315.836 -0.680695 4.1161 0
M  V30 3288 H 314.466 -1.07312 3.0444 0
M  V30 3289 H 313.518 1.28689 3.57971 0
M  V30 3290 H 314.83 1.47934 4.76358 0
M  V30 3291 H 313.984 -0.496275 6.04667 0
M  V30 3292 H 312.723 -0.781282 4.81401 0
M  V30 3293 H 311.728 1.47237 5.29718 0
M  V30 3294 H 312.953 1.74655 6.56256 0
M  V30 3295 H 310.899 -0.497364 6.54112 0
M  V30 3296 H 310.816 0.943362 7.50091 0
M  V30 3297 H 312.084 -0.209587 7.79218 0
M  V30 3298 N 316.313 -1.40141 0.720998 0
M  V30 3299 C 317.561 -2.0039 0.262323 0
M  V30 3300 C 317.882 -1.57469 -1.15015 0
M  V30 3301 O 317.152 -0.816582 -1.78069 0
M  V30 3302 H 315.732 -0.741063 0.093996 0
M  V30 3303 H 318.394 -1.71398 0.927835 0
M  V30 3304 H 317.49 -3.10658 0.299671 0
M  V30 3305 N 317.792 -0.46758 -1.50504 0
M  V30 3306 C 318.755 0.317059 -2.26996 0
M  V30 3307 C 319.755 0.923513 -1.31635 0
M  V30 3308 O 320.945 0.793239 -1.55091 0
M  V30 3309 C 318.077 1.45134 -3.08462 0
M  V30 3310 H 319.27 -0.353723 -2.97807 0
M  V30 3311 H 316.823 -0.221545 -1.54722 0
M  V30 3312 H 317.558 2.15728 -2.4214 0
M  V30 3313 H 317.343 1.02232 -3.78538 0
M  V30 3314 H 318.833 2.00493 -3.66323 0
M  V30 3315 N 319.27 1.56325 -0.20005 0
M  V30 3316 C 320.517 1.97719 0.437411 0
M  V30 3317 C 320.845 1.08709 1.61284 0
M  V30 3318 O 320.1 0.127261 1.95286 0
M  V30 3319 C 320.399 3.4495 0.935103 0
M  V30 3320 C 320.065 4.5072 -0.12749 0
M  V30 3321 C 318.727 4.79368 -0.419451 0
M  V30 3322 C 321.079 5.14268 -0.847231 0
M  V30 3323 C 318.407 5.68854 -1.43604 0
M  V30 3324 C 320.759 6.04852 -1.85301 0
M  V30 3325 C 319.423 6.31855 -2.15211 0
M  V30 3326 H 318.693 0.723507 0.16006 0
M  V30 3327 H 321.34 1.89166 -0.298056 0
M  V30 3328 H 319.645 3.50599 1.74894 0
M  V30 3329 H 321.342 3.74337 1.43781 0
M  V30 3330 H 317.932 4.28458 0.11023 0
M  V30 3331 H 322.116 4.92222 -0.634901 0
M  V30 3332 H 317.372 5.88047 -1.67364 0
M  V30 3333 H 321.546 6.53152 -2.41591 0
M  V30 3334 H 319.173 7.00994 -2.94129 0
M  V30 3335 N 320.748 -0.0735177 1.57428 0
M  V30 3336 C 321.976 -0.785969 1.9139 0
M  V30 3337 C 322.391 -1.71207 0.795847 0
M  V30 3338 O 321.748 -1.81033 -0.230915 0
M  V30 3339 C 321.799 -1.58107 3.25091 0
M  V30 3340 O 321.52 -0.6922 4.32597 0
M  V30 3341 C 323.021 -2.39467 3.73055 0
M  V30 3342 H 320.241 -0.223558 0.632663 0
M  V30 3343 H 322.785 -0.044302 2.04452 0
M  V30 3344 H 320.94 -2.27503 3.13562 0
M  V30 3345 H 321.354 -1.24504 5.09508 0
M  V30 3346 H 322.828 -2.90716 4.69242 0
M  V30 3347 H 323.305 -3.18913 3.01979 0
M  V30 3348 H 323.911 -1.7523 3.87523 0
M  V30 3349 N 322.226 -1.5378 -0.344866 0
M  V30 3350 C 323.474 -1.70625 -1.08311 0
M  V30 3351 C 323.795 -0.471447 -1.89215 0
M  V30 3352 O 323.065 0.514616 -1.8902 0
M  V30 3353 H 321.645 -0.629058 -0.402859 0
M  V30 3354 H 324.307 -1.9103 -0.386459 0
M  V30 3355 H 323.403 -2.57656 -1.76124 0
M  V30 3356 N 323.704 0.605807 -1.45491 0
M  V30 3357 C 324.667 1.69836 -1.5391 0
M  V30 3358 C 325.667 1.55261 -0.418424 0
M  V30 3359 O 326.857 1.60296 -0.681965 0
M  V30 3360 C 323.989 3.09117 -1.43734 0
M  V30 3361 H 325.182 1.63738 -2.51257 0
M  V30 3362 H 322.735 0.821689 -1.32959 0
M  V30 3363 H 323.47 3.20791 -0.475788 0
M  V30 3364 H 323.255 3.21104 -2.25021 0
M  V30 3365 H 324.745 3.88696 -1.52661 0
M  V30 3366 N 325.182 1.32811 0.848464 0
M  V30 3367 C 326.13 1.22231 1.97895 0
M  V30 3368 C 327.124 0.125749 1.68933 0
M  V30 3369 O 328.33 0.289083 1.77663 0
M  V30 3370 H 324.705 0.379058 0.649476 0
M  V30 3371 H 326.676 2.17828 2.03945 0
M  V30 3372 C 325.425 0.968572 3.33937 0
M  V30 3373 H 324.748 1.80458 3.56756 0
M  V30 3374 H 326.188 0.934808 4.13567 0
M  V30 3375 C 324.647 -0.328628 3.35293 0
M  V30 3376 O 325.177 -1.33848 3.78745 0
M  V30 3377 N 323.383 -0.352788 2.88451 0
M  V30 3378 H 322.93 0.469541 2.53285 0
M  V30 3379 H 322.888 -1.22057 2.89741 0
M  V30 3380 N 326.66 -1.06551 1.16123 0
M  V30 3381 C 327.888 -1.83005 0.965237 0
M  V30 3382 C 328.303 -1.82423 -0.486542 0
M  V30 3383 O 327.66 -1.24152 -1.33763 0
M  V30 3384 C 327.711 -3.29733 1.48183 0
M  V30 3385 O 327.432 -3.30416 2.87674 0
M  V30 3386 C 328.933 -4.22926 1.32848 0
M  V30 3387 H 326.153 -0.577118 0.342309 0
M  V30 3388 H 328.697 -1.3445 1.54089 0
M  V30 3389 H 326.852 -3.75609 0.948517 0
M  V30 3390 H 327.266 -4.22149 3.11272 0
M  V30 3391 H 328.74 -5.23916 1.73827 0
M  V30 3392 H 329.217 -4.38346 0.273692 0
M  V30 3393 H 329.823 -3.82894 1.85127 0
M  V30 3394 N 328.138 -0.959301 -1.25041 0
M  V30 3395 C 329.387 -0.612254 -1.92183 0
M  V30 3396 C 329.7 0.855347 -1.75907 0
M  V30 3397 O 330.906 1.31256 -2.37664 0
M  V30 3398 C 329.362 -1.04435 -3.44414 0
M  V30 3399 C 328.97 -2.53482 -3.69393 0
M  V30 3400 C 330.714 -0.770055 -4.17457 0
M  V30 3401 C 328.621 -2.90468 -5.15153 0
M  V30 3402 H 327.551 -0.225279 -0.719559 0
M  V30 3403 H 330.202 -1.16438 -1.41825 0
M  V30 3404 H 328.584 -0.4206 -3.9376 0
M  V30 3405 H 329.758 -3.20916 -3.30681 0
M  V30 3406 H 328.073 -2.78432 -3.0962 0
M  V30 3407 H 330.67 -1.02249 -5.24832 0
M  V30 3408 H 331.013 0.293611 -4.15263 0
M  V30 3409 H 331.546 -1.35437 -3.74034 0
M  V30 3410 H 328.285 -3.95871 -5.22462 0
M  V30 3411 H 327.805 -2.27711 -5.54894 0
M  V30 3412 H 329.484 -2.79914 -5.83315 0
M  V30 3413 N 329.616 1.39756 -0.72842 0
M  V30 3414 C 331.032 1.5442 -0.403308 0
M  V30 3415 C 331.232 1.69694 1.08656 0
M  V30 3416 O 330.288 1.69373 1.87267 0
M  V30 3417 C 331.601 2.76555 -1.18058 0
M  V30 3418 C 333.149 2.90384 -1.16815 0
M  V30 3419 C 333.624 4.15449 -1.92785 0
M  V30 3420 N 335.115 4.22475 -1.89918 0
M  V30 3421 C 335.85 5.1818 -2.45514 0
M  V30 3422 N 335.346 6.19714 -3.09719 0
M  V30 3423 N 337.139 5.1035 -2.35584 0
M  V30 3424 H 329.29 1.28089 -1.69431 0
M  V30 3425 H 331.553 0.620327 -0.716867 0
M  V30 3426 H 331.259 2.7159 -2.23455 0
M  V30 3427 H 331.133 3.69033 -0.780662 0
M  V30 3428 H 333.52 2.94846 -0.12234 0
M  V30 3429 H 333.601 1.98988 -1.6074 0
M  V30 3430 H 333.245 4.11749 -2.97364 0
M  V30 3431 H 333.175 5.05877 -1.46272 0
M  V30 3432 H 335.666 3.49743 -1.43138 0
M  V30 3433 H 335.979 6.8919 -3.49625 0
M  V30 3434 H 334.324 6.20121 -3.13807 0
M  V30 3435 H 337.515 4.2996 -1.85072 0
M  V30 3436 H 337.688 5.84761 -2.79211 0
M  V30 3437 N 331.094 0.475555 1.50254 0
M  V30 3438 C 332.026 -0.352649 2.26471 0
M  V30 3439 C 333.039 -0.953165 1.3198 0
M  V30 3440 O 334.228 -0.840815 1.57457 0
M  V30 3441 C 331.328 -1.50902 3.0345 0
M  V30 3442 C 330.501 -1.02047 4.25329 0
M  V30 3443 C 329.56 -2.05142 4.84565 0
M  V30 3444 O 328.586 -1.63023 5.45355 0
M  V30 3445 N 329.788 -3.37987 4.71959 0
M  V30 3446 H 332.553 0.300767 2.98187 0
M  V30 3447 H 330.114 0.306598 1.5897 0
M  V30 3448 H 332.106 -2.19572 3.39956 0
M  V30 3449 H 330.676 -2.06705 2.34504 0
M  V30 3450 H 329.896 -0.159507 3.93877 0
M  V30 3451 H 331.184 -0.672061 5.04342 0
M  V30 3452 H 330.582 -3.74913 4.23623 0
M  V30 3453 H 329.139 -4.02443 5.12721 0
M  V30 3454 N 332.573 -1.56217 0.208337 0
M  V30 3455 C 333.821 -1.97558 -0.426076 0
M  V30 3456 C 334.142 -1.09683 -1.61229 0
M  V30 3457 O 333.412 -0.170956 -1.95153 0
M  V30 3458 H 331.992 -0.729575 -0.160405 0
M  V30 3459 H 334.654 -1.92606 0.298155 0
M  V30 3460 H 333.75 -3.02672 -0.761312 0
M  V30 3461 N 334.051 0.0651679 -1.57465 0
M  V30 3462 C 335.467 0.420105 -1.53972 0
M  V30 3463 C 335.667 1.78782 -0.929474 0
M  V30 3464 O 334.723 2.46771 -0.534839 0
M  V30 3465 C 336.036 0.355084 -2.98596 0
M  V30 3466 C 337.584 0.434792 -3.09965 0
M  V30 3467 C 338.059 0.399609 -4.56253 0
M  V30 3468 N 339.55 0.459488 -4.60915 0
M  V30 3469 C 340.285 0.454584 -5.71595 0
M  V30 3470 N 339.781 0.404102 -6.9162 0
M  V30 3471 N 341.574 0.501635 -5.59857 0
M  V30 3472 H 333.725 -0.830328 -1.95498 0
M  V30 3473 H 335.988 -0.312244 -0.895102 0
M  V30 3474 H 335.694 -0.583357 -3.46828 0
M  V30 3475 H 335.568 1.16275 -3.58831 0
M  V30 3476 H 337.955 1.36366 -2.61703 0
M  V30 3477 H 338.036 -0.40157 -2.52628 0
M  V30 3478 H 337.68 -0.525436 -5.05175 0
M  V30 3479 H 337.61 1.25359 -5.11461 0
M  V30 3480 H 340.101 0.502482 -3.74544 0
M  V30 3481 H 340.414 0.404468 -7.71741 0
M  V30 3482 H 338.759 0.37069 -6.94011 0
M  V30 3483 H 341.95 0.538812 -4.64989 0
M  V30 3484 H 342.123 0.494345 -6.46112 0
M  V30 3485 N 335.529 1.53961 0.336706 0
M  V30 3486 C 336.776 1.71536 1.07618 0
M  V30 3487 C 337.104 0.482125 1.8843 0
M  V30 3488 O 336.359 -0.536142 1.88213 0
M  V30 3489 C 336.658 2.93493 2.03953 0
M  V30 3490 C 336.324 4.28811 1.39399 0
M  V30 3491 C 334.986 4.65602 1.21523 0
M  V30 3492 C 337.338 5.12844 0.929541 0
M  V30 3493 C 334.666 5.84037 0.558312 0
M  V30 3494 C 337.018 6.31951 0.286505 0
M  V30 3495 C 335.682 6.67432 0.0954869 0
M  V30 3496 H 334.952 0.627696 0.393801 0
M  V30 3497 H 337.599 1.88186 0.354715 0
M  V30 3498 H 335.904 2.71475 2.82504 0
M  V30 3499 H 337.601 3.04285 2.61174 0
M  V30 3500 H 334.191 3.99858 1.54311 0
M  V30 3501 H 338.375 4.84947 1.05548 0
M  V30 3502 H 333.631 6.10097 0.398995 0
M  V30 3503 H 337.805 6.96352 -0.0814376 0
M  V30 3504 H 335.432 7.59063 -0.415579 0
M  V30 3505 N 337.007 -0.598083 1.45811 0
M  V30 3506 C 337.917 -1.73632 1.57763 0
M  V30 3507 C 338.933 -1.67763 0.461676 0
M  V30 3508 O 340.109 -1.87949 0.723685 0
M  V30 3509 C 337.174 -3.10114 1.55018 0
M  V30 3510 C 336.235 -3.27364 2.77726 0
M  V30 3511 C 335.468 -4.57334 2.75102 0
M  V30 3512 O 335.691 -5.40258 1.8297 0
M  V30 3513 O 334.625 -4.77502 3.66437 0
M  V30 3514 H 338.451 -1.66498 2.53992 0
M  V30 3515 H 336.036 -0.763308 1.28429 0
M  V30 3516 H 337.918 -3.9141 1.56129 0
M  V30 3517 H 336.593 -3.17718 0.619431 0
M  V30 3518 H 335.5 -2.45619 2.82174 0
M  V30 3519 H 336.833 -3.24641 3.69958 0
M  V30 3520 N 338.485 -1.33259 -0.841409 0
M  V30 3521 C 339.417 -1.19136 -1.95804 0
M  V30 3522 C 340.43 -0.122965 -1.62335 0
M  V30 3523 O 341.619 -0.373154 -1.74556 0
M  V30 3524 C 338.719 -0.804268 -3.29218 0
M  V30 3525 C 337.892 -1.96376 -3.90839 0
M  V30 3526 C 336.951 -1.55806 -5.02604 0
M  V30 3527 O 335.977 -2.27203 -5.21888 0
M  V30 3528 N 337.179 -0.461609 -5.78662 0
M  V30 3529 H 339.944 -2.15326 -2.08458 0
M  V30 3530 H 337.505 -1.25971 -1.017 0
M  V30 3531 H 339.497 -0.51501 -4.0141 0
M  V30 3532 H 338.067 0.0668809 -3.12528 0
M  V30 3533 H 337.287 -2.41879 -3.11269 0
M  V30 3534 H 338.575 -2.73966 -4.28742 0
M  V30 3535 H 337.973 0.132343 -5.65545 0
M  V30 3536 H 336.53 -0.232013 -6.51387 0
M  V30 3537 N 339.963 1.05934 -1.16686 0
M  V30 3538 C 340.926 2.11669 -0.879144 0
M  V30 3539 C 341.926 1.60294 0.127445 0
M  V30 3540 O 343.116 1.7389 -0.103865 0
M  V30 3541 C 340.248 3.39438 -0.315425 0
M  V30 3542 H 341.441 2.38626 -1.81653 0
M  V30 3543 H 338.994 1.22058 -0.976299 0
M  V30 3544 H 339.729 3.18132 0.629468 0
M  V30 3545 H 339.514 3.78034 -1.04079 0
M  V30 3546 H 341.004 4.17391 -0.132189 0
M  V30 3547 N 341.441 0.965919 1.2453 0
M  V30 3548 C 342.718 0.543777 1.87889 0
M  V30 3549 C 343.098 -0.97909 1.87021 0
M  V30 3550 O 342.446 -1.84969 1.3416 0
M  V30 3551 C 342.656 1.13327 3.30088 0
M  V30 3552 C 344.004 1.21707 4.06783 0
M  V30 3553 O 345.028 1.08566 3.39252 0
M  V30 3554 O 343.887 1.42456 5.27606 0
M  V30 3555 H 340.981 0.181054 0.806938 0
M  V30 3556 H 343.527 1.06007 1.32516 0
M  V30 3557 H 342.299 2.17612 3.25209 0
M  V30 3558 H 341.922 0.600911 3.93033 0
M  V30 3559 N 342.919 -1.39368 0.735821 0
M  V30 3560 C 344.167 -2.00101 0.283562 0
M  V30 3561 C 344.488 -1.5868 -1.13338 0
M  V30 3562 O 343.758 -0.835423 -1.77193 0
M  V30 3563 H 342.338 -0.740024 0.101851 0
M  V30 3564 H 345 -1.70404 0.945962 0
M  V30 3565 H 344.096 -3.10323 0.332604 0
M  V30 3566 N 344.397 -0.483516 -1.5 0
M  V30 3567 C 345.645 0.067027 -2.01989 0
M  V30 3568 C 345.966 1.3909 -1.36671 0
M  V30 3569 O 345.236 1.88978 -0.516152 0
M  V30 3570 H 343.816 0.0277606 -0.746484 0
M  V30 3571 H 346.478 -0.636773 -1.84204 0
M  V30 3572 H 345.574 0.209484 -3.11396 0
M  V30 3573 N 345.875 1.56104 -0.216619 0
M  V30 3574 C 347.103 2.02563 0.421413 0
M  V30 3575 C 347.518 1.0965 1.53695 0
M  V30 3576 O 346.875 0.10521 1.82196 0
M  V30 3577 C 346.926 3.48584 0.957665 0
M  V30 3578 O 346.647 4.37953 -0.113389 0
M  V30 3579 C 348.148 4.10664 1.66943 0
M  V30 3580 H 345.368 0.662944 0.103665 0
M  V30 3581 H 347.912 2.01793 -0.331629 0
M  V30 3582 H 346.067 3.49985 1.661 0
M  V30 3583 H 346.481 5.23704 0.288932 0
M  V30 3584 H 347.955 5.14622 1.99671 0
M  V30 3585 H 348.432 3.55373 2.58083 0
M  V30 3586 H 349.038 4.13098 1.01142 0
M  V30 3587 N 347.353 -0.0568162 1.57498 0
M  V30 3588 C 348.283 -1.06593 2.0775 0
M  V30 3589 C 349.264 -1.39448 0.974082 0
M  V30 3590 O 350.449 -1.48815 1.24771 0
M  V30 3591 C 347.579 -2.37509 2.5339 0
M  V30 3592 C 346.533 -2.1897 3.67745 0
M  V30 3593 C 345.859 -3.55402 3.99492 0
M  V30 3594 C 347.159 -1.59859 4.97235 0
M  V30 3595 H 348.853 -0.647706 2.9231 0
M  V30 3596 H 346.399 -0.310116 1.40621 0
M  V30 3597 H 348.352 -3.08409 2.87162 0
M  V30 3598 H 347.076 -2.8134 1.65878 0
M  V30 3599 H 345.735 -1.50508 3.3428 0
M  V30 3600 H 345.383 -3.9683 3.09088 0
M  V30 3601 H 345.083 -3.43831 4.76502 0
M  V30 3602 H 346.607 -4.27708 4.35773 0
M  V30 3603 H 348.021 -2.20642 5.29141 0
M  V30 3604 H 346.418 -1.58942 5.78669 0
M  V30 3605 H 347.488 -0.561506 4.81638 0
M  V30 3606 N 348.832 -1.54138 -0.328536 0
M  V30 3607 C 350.079 -1.72105 -1.06706 0
M  V30 3608 C 350.407 -0.492111 -1.88171 0
M  V30 3609 O 349.662 0.526153 -1.88494 0
M  V30 3610 C 349.961 -2.9457 -2.02393 0
M  V30 3611 C 349.627 -4.29544 -1.37122 0
M  V30 3612 C 348.289 -4.6624 -1.19052 0
M  V30 3613 C 350.641 -5.1333 -0.902331 0
M  V30 3614 C 347.969 -5.84325 -0.527331 0
M  V30 3615 C 350.321 -6.32094 -0.252988 0
M  V30 3616 C 348.985 -6.67473 -0.0600901 0
M  V30 3617 H 348.255 -0.629775 -0.390466 0
M  V30 3618 H 350.902 -1.88372 -0.34473 0
M  V30 3619 H 349.207 -2.72969 -2.81061 0
M  V30 3620 H 350.904 -3.05665 -2.59557 0
M  V30 3621 H 347.494 -4.0067 -1.52188 0
M  V30 3622 H 351.678 -4.855 -1.02974 0
M  V30 3623 H 346.934 -6.103 -0.366634 0
M  V30 3624 H 351.108 -6.96299 0.118366 0
M  V30 3625 H 348.735 -7.58832 0.455828 0
M  V30 3626 N 350.31 0.590341 -1.46126 0
M  V30 3627 C 351.24 1.71032 -1.58966 0
M  V30 3628 C 352.221 1.64302 -0.440335 0
M  V30 3629 O 353.406 1.82436 -0.665634 0
M  V30 3630 C 350.536 3.09665 -1.57241 0
M  V30 3631 C 349.49 3.31221 -2.71066 0
M  V30 3632 C 348.816 4.70303 -2.54399 0
M  V30 3633 C 350.116 3.19796 -4.1295 0
M  V30 3634 H 351.81 1.60543 -2.52718 0
M  V30 3635 H 349.356 0.770933 -1.21625 0
M  V30 3636 H 351.309 3.87831 -1.64819 0
M  V30 3637 H 350.033 3.21036 -0.600289 0
M  V30 3638 H 348.692 2.55452 -2.62944 0
M  V30 3639 H 348.34 4.78429 -1.55288 0
M  V30 3640 H 348.04 4.85679 -3.30741 0
M  V30 3641 H 349.564 5.50647 -2.63857 0
M  V30 3642 H 350.978 3.87815 -4.22223 0
M  V30 3643 H 349.375 3.46696 -4.89818 0
M  V30 3644 H 350.445 2.16983 -4.33643 0
M  V30 3645 N 351.788 1.33704 0.83433 0
M  V30 3646 C 353.065 1.16011 1.57483 0
M  V30 3647 C 353.445 -0.27176 2.09343 0
M  V30 3648 O 352.793 -1.27146 1.89858 0
M  V30 3649 C 353.003 2.20507 2.70514 0
M  V30 3650 C 354.351 2.54898 3.39577 0
M  V30 3651 O 355.375 2.19209 2.80759 0
M  V30 3652 O 354.234 3.16158 4.45765 0
M  V30 3653 H 351.328 0.448992 0.694503 0
M  V30 3654 H 353.874 1.453 0.876691 0
M  V30 3655 H 352.646 3.16667 2.29865 0
M  V30 3656 H 352.269 1.92329 3.47987 0
M  V30 3657 N 353.266 -1.05314 1.17247 0
M  V30 3658 C 354.176 -2.16538 0.90268 0
M  V30 3659 C 355.192 -1.73523 -0.128707 0
M  V30 3660 O 356.368 -2.01337 0.0502701 0
M  V30 3661 C 353.433 -3.44167 0.418356 0
M  V30 3662 C 352.494 -4.01635 1.51618 0
M  V30 3663 C 351.727 -5.23171 1.05487 0
M  V30 3664 O 351.95 -5.70327 -0.0914715 0
M  V30 3665 O 350.884 -5.72848 1.8474 0
M  V30 3666 H 354.71 -2.42145 1.83302 0
M  V30 3667 H 352.295 -1.15037 0.953246 0
M  V30 3668 H 354.177 -4.21112 0.155726 0
M  V30 3669 H 352.852 -3.20063 -0.48385 0
M  V30 3670 H 351.759 -3.26135 1.83268 0
M  V30 3671 H 353.092 -4.30053 2.39405 0
M  V30 3672 N 354.744 -0.972509 -1.24016 0
M  V30 3673 C 355.993 -0.632603 -1.91523 0
M  V30 3674 C 356.306 0.836641 -1.76804 0
M  V30 3675 O 357.512 1.28728 -2.39043 0
M  V30 3676 C 355.968 -1.08082 -3.43287 0
M  V30 3677 C 355.576 -2.57386 -3.66683 0
M  V30 3678 C 357.32 -0.814288 -4.16617 0
M  V30 3679 C 355.227 -2.95915 -5.12043 0
M  V30 3680 H 354.157 -0.232898 -0.717129 0
M  V30 3681 H 356.808 -1.17936 -1.40582 0
M  V30 3682 H 355.19 -0.462339 -3.93292 0
M  V30 3683 H 356.364 -3.24405 -3.27258 0
M  V30 3684 H 354.679 -2.81701 -3.06649 0
M  V30 3685 H 357.276 -1.0781 -5.23718 0
M  V30 3686 H 357.619 0.24955 -4.15551 0
M  V30 3687 H 358.152 -1.39397 -3.72577 0
M  V30 3688 H 354.891 -4.0139 -5.18234 0
M  V30 3689 H 354.411 -2.33584 -5.52448 0
M  V30 3690 H 356.09 -2.86086 -5.80314 0
M  V30 3691 N 356.222 1.38976 -0.743202 0
M  V30 3692 C 357.47 1.99948 -0.29417 0
M  V30 3693 C 357.791 1.59279 1.12495 0
M  V30 3694 O 357.061 0.844808 1.76748 0
M  V30 3695 H 355.641 0.739473 -0.105774 0
M  V30 3696 H 358.303 1.699 -0.954986 0
M  V30 3697 H 357.399 3.10142 -0.349056 0
M  V30 3698 N 357.7 0.491464 1.49741 0
M  V30 3699 C 358.977 -0.118984 1.95238 0
M  V30 3700 C 359.357 -1.55044 1.43264 0
M  V30 3701 O 358.705 -2.19287 0.642287 0
M  V30 3702 C 358.915 -0.0414187 3.48975 0
M  V30 3703 C 360.263 -0.220133 4.24029 0
M  V30 3704 O 361.287 -0.117055 3.56008 0
M  V30 3705 O 360.146 -0.430567 5.44801 0
M  V30 3706 H 357.24 -0.100536 0.820866 0
M  V30 3707 H 359.786 0.553322 1.60426 0
M  V30 3708 H 358.558 0.957214 3.79412 0
M  V30 3709 H 358.181 -0.754292 3.9038 0
M  V30 3710 N 359.178 -1.55987 0.224894 0
M  V30 3711 C 360.111 -2.16413 -0.723929 0
M  V30 3712 C 361.089 -1.10952 -1.18863 0
M  V30 3713 O 362.273 -1.39225 -1.27077 0
M  V30 3714 C 359.4 -2.74711 -1.98121 0
M  V30 3715 C 358.446 -3.9303 -1.6562 0
M  V30 3716 S 359.279 -5.29817 -0.778058 0
M  V30 3717 C 360.435 -5.91555 -2.04483 0
M  V30 3718 H 360.668 -2.96555 -0.210347 0
M  V30 3719 H 358.201 -1.54397 0.00955457 0
M  V30 3720 H 360.159 -3.08938 -2.70311 0
M  V30 3721 H 358.82 -1.94555 -2.46591 0
M  V30 3722 H 358.013 -4.32334 -2.59043 0
M  V30 3723 H 357.615 -3.59966 -1.01491 0
M  V30 3724 H 359.907 -6.07732 -2.99446 0
M  V30 3725 H 360.85 -6.87498 -1.69563 0
M  V30 3726 H 361.258 -5.20419 -2.18688 0
M  V30 3727 N 360.656 0.0484629 -1.57525 0
M  V30 3728 C 362.067 0.597486 -1.76881 0
M  V30 3729 C 362.418 1.76664 -0.853475 0
M  V30 3730 O 361.543 2.16357 -0.0433656 0
M  V30 3731 C 362.138 1.09066 -3.20765 0
M  V30 3732 C 360.697 1.58535 -3.41385 0
M  V30 3733 C 359.844 0.514868 -2.72478 0
M  V30 3734 H 362.795 -0.177758 -1.57701 0
M  V30 3735 H 362.816 1.95875 -3.2621 0
M  V30 3736 H 362.328 0.239521 -3.8736 0
M  V30 3737 H 360.429 2.45898 -2.79937 0
M  V30 3738 H 360.542 1.64622 -4.49929 0
M  V30 3739 H 358.906 0.965407 -2.35695 0
M  V30 3740 H 359.689 -0.32648 -3.41744 0
M  V30 3741 N 362.134 1.5431 0.320358 0
M  V30 3742 C 363.064 1.86912 1.3995 0
M  V30 3743 C 364.045 0.726211 1.53819 0
M  V30 3744 O 365.23 0.980233 1.67646 0
M  V30 3745 C 362.36 2.09932 2.7667 0
M  V30 3746 C 361.314 3.25776 2.77586 0
M  V30 3747 C 360.64 3.34173 4.17412 0
M  V30 3748 C 361.94 4.6335 2.41048 0
M  V30 3749 H 363.634 2.77292 1.12914 0
M  V30 3750 H 361.18 1.33421 0.541738 0
M  V30 3751 H 363.133 2.31324 3.52232 0
M  V30 3752 H 361.857 1.16304 3.0519 0
M  V30 3753 H 360.516 3.04276 2.04479 0
M  V30 3754 H 360.164 2.38098 4.43078 0
M  V30 3755 H 359.864 4.12033 4.18931 0
M  V30 3756 H 361.388 3.57803 4.94782 0
M  V30 3757 H 362.802 4.84602 3.06324 0
M  V30 3758 H 361.199 5.43782 2.53813 0
M  V30 3759 H 362.269 4.65381 1.36193 0
M  V30 3760 N 363.613 -0.582584 1.46437 0
M  V30 3761 C 364.89 -1.34276 1.4223 0
M  V30 3762 C 365.27 -2.10835 0.10583 0
M  V30 3763 O 364.618 -2.09485 -0.912596 0
M  V30 3764 C 364.828 -2.26865 2.65204 0
M  V30 3765 C 366.176 -2.88691 3.11356 0
M  V30 3766 O 367.2 -2.37178 2.65753 0
M  V30 3767 O 366.059 -3.82255 3.90568 0
M  V30 3768 H 363.153 -0.603326 0.565621 0
M  V30 3769 H 365.699 -0.603591 1.58603 0
M  V30 3770 H 364.471 -1.69724 3.52576 0
M  V30 3771 H 364.094 -3.08122 2.5129 0
M  V30 3772 N 365.091 -1.34144 -0.827227 0
M  V30 3773 C 366.337 -1.26446 -1.58554 0
M  V30 3774 C 366.67 0.1664 -1.93486 0
M  V30 3775 O 365.945 1.1107 -1.59667 0
M  V30 3776 C 366.228 -2.15111 -2.8879 0
M  V30 3777 C 366.081 -3.66712 -2.60465 0
M  V30 3778 C 367.4 -2.03311 -3.90324 0
M  V30 3779 H 364.519 -0.46067 -0.575284 0
M  V30 3780 H 367.161 -1.64356 -0.953269 0
M  V30 3781 H 365.311 -1.8291 -3.42748 0
M  V30 3782 H 366.983 -4.09259 -2.1285 0
M  V30 3783 H 365.226 -3.88014 -1.93978 0
M  V30 3784 H 365.897 -4.24112 -3.53317 0
M  V30 3785 H 368.373 -2.31574 -3.45706 0
M  V30 3786 H 367.249 -2.67582 -4.79261 0
M  V30 3787 H 367.51 -1.00879 -4.30437 0
M  V30 3788 N 366.569 1.04691 -1.17803 0
M  V30 3789 C 367.501 2.12571 -0.857097 0
M  V30 3790 C 368.514 1.62174 0.142647 0
M  V30 3791 O 369.703 1.78301 -0.0843387 0
M  V30 3792 C 366.803 3.37915 -0.258216 0
M  V30 3793 C 365.976 4.1757 -1.30207 0
M  V30 3794 C 365.035 5.2125 -0.720029 0
M  V30 3795 O 364.061 5.51888 -1.39314 0
M  V30 3796 N 365.263 5.78466 0.485507 0
M  V30 3797 H 368.028 2.40698 -1.78562 0
M  V30 3798 H 365.589 1.20831 -1.07757 0
M  V30 3799 H 367.581 4.04442 0.144584 0
M  V30 3800 H 366.151 3.07281 0.574199 0
M  V30 3801 H 365.371 3.46458 -1.88043 0
M  V30 3802 H 366.659 4.67586 -2.00601 0
M  V30 3803 H 366.057 5.55866 1.05022 0
M  V30 3804 H 364.614 6.4649 0.830307 0
M  V30 3805 N 368.047 0.979072 1.23499 0
M  V30 3806 C 369.275 0.665202 1.95915 0
M  V30 3807 C 369.69 -0.767571 1.72493 0
M  V30 3808 O 369.047 -1.51635 1.01554 0
M  V30 3809 C 369.098 0.944438 3.48945 0
M  V30 3810 O 368.819 2.3209 3.71572 0
M  V30 3811 C 370.32 0.646336 4.38563 0
M  V30 3812 H 367.54 0.247218 0.623798 0
M  V30 3813 H 370.084 1.31009 1.57025 0
M  V30 3814 H 368.239 0.345575 3.85856 0
M  V30 3815 H 368.653 2.40957 4.65876 0
M  V30 3816 H 370.127 0.892091 5.44744 0
M  V30 3817 H 370.604 -0.419575 4.37191 0
M  V30 3818 H 371.21 1.22562 4.07258 0
M  V30 3819 N 369.525 -1.3858 0.750561 0
M  V30 3820 C 370.941 -1.53759 0.427824 0
M  V30 3821 C 371.141 -1.71401 -1.05943 0
M  V30 3822 O 370.197 -1.72331 -1.84549 0
M  V30 3823 C 371.51 -2.74642 1.22443 0
M  V30 3824 C 373.058 -2.88489 1.2142 0
M  V30 3825 C 373.533 -4.12329 1.9937 0
M  V30 3826 N 375.024 -4.194 1.96616 0
M  V30 3827 C 375.759 -5.14209 2.53727 0
M  V30 3828 N 375.255 -6.14709 3.19539 0
M  V30 3829 N 377.048 -5.06537 2.43673 0
M  V30 3830 H 369.199 -1.25377 1.71447 0
M  V30 3831 H 371.462 -0.608844 0.726645 0
M  V30 3832 H 371.168 -2.68 2.27747 0
M  V30 3833 H 371.042 -3.67745 0.839273 0
M  V30 3834 H 373.429 -2.94614 0.169232 0
M  V30 3835 H 373.51 -1.96406 1.63885 0
M  V30 3836 H 373.154 -4.06966 3.03877 0
M  V30 3837 H 373.084 -5.03486 1.54302 0
M  V30 3838 H 375.575 -3.47421 1.48684 0
M  V30 3839 H 375.888 -6.8354 3.60545 0
M  V30 3840 H 374.233 -6.1505 3.23633 0
M  V30 3841 H 377.424 -4.26962 1.91889 0
M  V30 3842 H 377.597 -5.80245 2.88479 0
M  V30 3843 N 371.003 -0.499398 -1.49478 0
M  V30 3844 C 371.933 0.269244 -2.31943 0
M  V30 3845 C 372.914 0.964054 -1.40143 0
M  V30 3846 O 374.099 0.955767 -1.69052 0
M  V30 3847 C 371.229 1.33504 -3.20615 0
M  V30 3848 C 370.183 0.760202 -4.21195 0
M  V30 3849 C 369.509 1.9264 -4.98792 0
M  V30 3850 C 370.809 -0.247661 -5.21712 0
M  V30 3851 H 372.503 -0.419082 -2.96452 0
M  V30 3852 H 370.049 -0.202988 -1.42562 0
M  V30 3853 H 372.002 1.88048 -3.77115 0
M  V30 3854 H 370.726 2.05253 -2.54045 0
M  V30 3855 H 369.385 0.23653 -3.65836 0
M  V30 3856 H 369.033 2.63154 -4.28671 0
M  V30 3857 H 368.733 1.54785 -5.66847 0
M  V30 3858 H 370.257 2.4762 -5.58137 0
M  V30 3859 H 371.671 0.209579 -5.72917 0
M  V30 3860 H 370.068 -0.541962 -5.97648 0
M  V30 3861 H 371.138 -1.16409 -4.7072 0
M  V30 3862 N 372.481 1.55866 -0.233164 0
M  V30 3863 C 373.411 2.23783 0.666599 0
M  V30 3864 C 374.392 1.21343 1.19205 0
M  V30 3865 O 375.577 1.4996 1.23392 0
M  V30 3866 C 372.707 2.92671 1.86978 0
M  V30 3867 C 371.661 4.01682 1.47768 0
M  V30 3868 C 370.987 4.57926 2.76058 0
M  V30 3869 C 372.287 5.18126 0.658993 0
M  V30 3870 H 373.981 2.99232 0.100306 0
M  V30 3871 H 371.527 1.43924 0.046804 0
M  V30 3872 H 373.48 3.3888 2.50476 0
M  V30 3873 H 372.204 2.14688 2.46123 0
M  V30 3874 H 370.863 3.56222 0.866106 0
M  V30 3875 H 370.511 3.76659 3.33372 0
M  V30 3876 H 370.211 5.31505 2.50552 0
M  V30 3877 H 371.735 5.06859 3.40479 0
M  V30 3878 H 373.149 5.60644 1.19795 0
M  V30 3879 H 371.546 5.98009 0.500552 0
M  V30 3880 H 372.616 4.83763 -0.331856 0
M  V30 3881 N 373.959 -0.0401083 1.57549 0
M  V30 3882 C 375.375 -0.395556 1.54621 0
M  V30 3883 C 375.575 -1.77281 0.957799 0
M  V30 3884 O 374.631 -2.45888 0.574031 0
M  V30 3885 C 375.944 -0.307535 2.99123 0
M  V30 3886 C 377.492 -0.385425 3.10618 0
M  V30 3887 C 377.967 -0.326973 4.56831 0
M  V30 3888 N 379.458 -0.386102 4.61588 0
M  V30 3889 C 380.193 -0.363591 5.72246 0
M  V30 3890 N 379.689 -0.29402 6.92176 0
M  V30 3891 N 381.482 -0.412503 5.60584 0
M  V30 3892 H 373.633 0.861325 1.94152 0
M  V30 3893 H 375.896 0.326445 0.890021 0
M  V30 3894 H 375.602 0.638461 3.45856 0
M  V30 3895 H 375.476 -1.10552 3.60636 0
M  V30 3896 H 377.863 -1.32185 2.63839 0
M  V30 3897 H 377.944 0.44171 2.51957 0
M  V30 3898 H 377.588 0.605738 5.04275 0
M  V30 3899 H 377.518 -1.17207 5.13391 0
M  V30 3900 H 380.009 -0.442832 3.75296 0
M  V30 3901 H 380.322 -0.28164 7.72287 0
M  V30 3902 H 378.667 -0.260232 6.94513 0
M  V30 3903 H 381.858 -0.464769 4.65787 0
M  V30 3904 H 382.031 -0.391492 6.46816 0
M  V30 3905 N 375.437 -1.54477 -0.31217 0
M  V30 3906 C 376.683 -1.73483 -1.0503 0
M  V30 3907 C 377.016 -0.513125 -1.87298 0
M  V30 3908 O 376.291 0.489864 -1.8823 0
M  V30 3909 C 376.574 -3.01723 -1.96558 0
M  V30 3910 C 376.427 -4.3417 -1.17545 0
M  V30 3911 C 377.746 -3.25772 -2.95907 0
M  V30 3912 H 374.865 -0.631222 -0.380432 0
M  V30 3913 H 377.507 -1.87184 -0.325932 0
M  V30 3914 H 375.657 -2.90174 -2.58324 0
M  V30 3915 H 377.329 -4.5762 -0.581513 0
M  V30 3916 H 375.572 -4.31159 -0.477925 0
M  V30 3917 H 376.243 -5.20143 -1.84811 0
M  V30 3918 H 378.719 -3.36857 -2.44267 0
M  V30 3919 H 377.595 -4.16838 -3.57123 0
M  V30 3920 H 377.856 -2.43537 -3.68974 0
M  V30 3921 N 376.915 0.57481 -1.46744 0
M  V30 3922 C 377.845 1.69337 -1.60771 0
M  V30 3923 C 378.826 1.63825 -0.457736 0
M  V30 3924 O 380.011 1.8172 -0.684947 0
M  V30 3925 C 377.141 3.0798 -1.60517 0
M  V30 3926 C 376.095 3.28327 -2.74564 0
M  V30 3927 C 375.421 4.67578 -2.59373 0
M  V30 3928 C 376.721 3.15398 -4.16319 0
M  V30 3929 H 378.415 1.57853 -2.54407 0
M  V30 3930 H 375.961 0.75799 -1.22436 0
M  V30 3931 H 377.914 3.86061 -1.68923 0
M  V30 3932 H 376.638 3.20381 -0.634305 0
M  V30 3933 H 375.297 2.52649 -2.65639 0
M  V30 3934 H 374.945 4.76755 -1.60353 0
M  V30 3935 H 374.645 4.82144 -3.35873 0
M  V30 3936 H 376.169 5.47817 -2.69682 0
M  V30 3937 H 377.583 3.83315 -4.26313 0
M  V30 3938 H 375.98 3.41482 -4.93468 0
M  V30 3939 H 377.05 2.12372 -4.3592 0
M  V30 3940 N 378.394 1.34581 0.820102 0
M  V30 3941 C 379.357 1.2628 1.91275 0
M  V30 3942 C 380.357 0.177344 1.59819 0
M  V30 3943 O 381.547 0.430156 1.68806 0
M  V30 3944 C 378.679 0.950327 3.27386 0
M  V30 3945 H 379.872 2.23421 2.00057 0
M  V30 3946 H 377.425 1.1891 1.0144 0
M  V30 3947 H 378.16 -0.0177938 3.24295 0
M  V30 3948 H 377.945 1.73549 3.51601 0
M  V30 3949 H 379.435 0.917492 4.07396 0
M  V30 3950 N 379.872 -1.04064 1.18357 0
M  V30 3951 C 381.149 -1.74252 0.888581 0
M  V30 3952 C 381.529 -2.02138 -0.60856 0
M  V30 3953 O 380.877 -1.66656 -1.56327 0
M  V30 3954 C 381.087 -3.0277 1.73584 0
M  V30 3955 C 382.435 -3.76506 1.96286 0
M  V30 3956 O 383.459 -3.12668 1.70637 0
M  V30 3957 O 382.318 -4.91243 2.39464 0
M  V30 3958 H 379.412 -0.758271 0.330082 0
M  V30 3959 H 381.958 -1.1013 1.2911 0
M  V30 3960 H 380.73 -2.78299 2.75073 0
M  V30 3961 H 380.353 -3.74631 1.33183 0
M  V30 3962 N 381.35 -0.985608 -1.22978 0
M  V30 3963 C 382.598 -0.656087 -1.91154 0
M  V30 3964 C 382.919 0.813561 -1.77218 0
M  V30 3965 O 382.189 1.58244 -1.1548 0
M  V30 3966 H 380.769 -0.239674 -0.707506 0
M  V30 3967 H 383.431 -1.25054 -1.49491 0
M  V30 3968 H 382.527 -0.912253 -2.9847 0
M  V30 3969 N 382.828 1.3818 -0.7579 0
M  V30 3970 C 383.76 2.2901 -0.0932177 0
M  V30 3971 C 384.773 1.47958 0.679136 0
M  V30 3972 O 385.962 1.70773 0.519514 0
M  V30 3973 C 383.062 3.26953 0.89192 0
M  V30 3974 C 382.235 4.37045 0.176303 0
M  V30 3975 C 381.294 5.15148 1.07281 0
M  V30 3976 O 380.32 5.66616 0.541728 0
M  V30 3977 N 381.522 5.28542 2.40049 0
M  V30 3978 H 384.287 2.86694 -0.873303 0
M  V30 3979 H 381.848 1.50007 -0.609054 0
M  V30 3980 H 383.84 3.76083 1.49479 0
M  V30 3981 H 382.41 2.70136 1.57306 0
M  V30 3982 H 381.63 3.89493 -0.607328 0
M  V30 3983 H 382.918 5.07801 -0.318718 0
M  V30 3984 H 382.316 4.88285 2.85647 0
M  V30 3985 H 380.873 5.8103 2.95376 0
M  V30 3986 N 384.306 0.507319 1.49211 0
M  V30 3987 C 385.553 -0.0349529 2.0247 0
M  V30 3988 C 385.881 -1.36409 1.38647 0
M  V30 3989 O 385.136 -1.88841 0.513566 0
M  V30 3990 C 385.435 -0.229513 3.56662 0
M  V30 3991 C 385.101 1.02241 4.39156 0
M  V30 3992 C 383.763 1.36557 4.61417 0
M  V30 3993 C 386.115 1.85428 4.871 0
M  V30 3994 C 383.443 2.53999 5.28868 0
M  V30 3995 C 385.795 3.02028 5.55843 0
M  V30 3996 C 384.459 3.36717 5.76349 0
M  V30 3997 H 383.729 -0.0127902 0.74089 0
M  V30 3998 H 386.376 0.668756 1.79443 0
M  V30 3999 H 384.681 -1.0158 3.78403 0
M  V30 4000 H 386.378 -0.663641 3.9547 0
M  V30 4001 H 382.968 0.745124 4.22073 0
M  V30 4002 H 387.152 1.6023 4.69723 0
M  V30 4003 H 382.408 2.81105 5.42946 0
M  V30 4004 H 386.582 3.66808 5.91967 0
M  V30 4005 H 384.209 4.27821 6.28389 0
M  V30 4006 N 385.784 -1.5574 0.241426 0
M  V30 4007 C 387.014 -2.02913 -0.38857 0
M  V30 4008 C 387.422 -1.12014 -1.52478 0
M  V30 4009 O 386.765 -0.125903 -1.83268 0
M  V30 4010 C 386.827 -3.4636 -0.963075 0
M  V30 4011 C 386.491 -4.56982 0.0401916 0
M  V30 4012 C 387.488 -5.12941 0.847766 0
M  V30 4013 C 385.173 -5.0203 0.164699 0
M  V30 4014 C 387.167 -6.12437 1.76636 0
M  V30 4015 C 384.854 -6.01358 1.0868 0
M  V30 4016 C 385.852 -6.5644 1.88616 0
M  V30 4017 O 385.54 -7.53831 2.79273 0
M  V30 4018 H 385.272 -0.668983 -0.0971452 0
M  V30 4019 H 387.826 -2.02198 0.361248 0
M  V30 4020 H 386.056 -3.44206 -1.76235 0
M  V30 4021 H 387.745 -3.77065 -1.50257 0
M  V30 4022 H 388.511 -4.78974 0.762133 0
M  V30 4023 H 384.39 -4.58824 -0.447411 0
M  V30 4024 H 387.934 -6.55355 2.39071 0
M  V30 4025 H 383.831 -6.34746 1.17338 0
M  V30 4026 H 384.599 -7.71428 2.73572 0
M  V30 4027 N 387.262 0.0317525 -1.57568 0
M  V30 4028 C 388.678 0.38735 -1.54828 0
M  V30 4029 C 388.878 1.7677 -0.967187 0
M  V30 4030 O 387.934 2.45581 -0.587063 0
M  V30 4031 C 389.247 0.291667 -2.99282 0
M  V30 4032 C 390.795 0.368946 -3.10818 0
M  V30 4033 C 391.27 0.302741 -4.56998 0
M  V30 4034 N 392.761 0.361617 -4.61786 0
M  V30 4035 C 393.496 0.333238 -5.72431 0
M  V30 4036 N 392.992 0.257308 -6.92322 0
M  V30 4037 N 394.785 0.382769 -5.60795 0
M  V30 4038 H 386.936 -0.871609 -1.93692 0
M  V30 4039 H 389.199 -0.331161 -0.888277 0
M  V30 4040 H 388.905 -0.656794 -3.45513 0
M  V30 4041 H 388.779 1.08638 -3.61217 0
M  V30 4042 H 391.166 1.30784 -2.64536 0
M  V30 4043 H 391.247 -0.455066 -2.5172 0
M  V30 4044 H 390.891 -0.632473 -5.03947 0
M  V30 4045 H 390.821 1.14482 -5.14005 0
M  V30 4046 H 393.312 0.422923 -3.75526 0
M  V30 4047 H 393.625 0.24068 -7.72425 0
M  V30 4048 H 391.97 0.223396 -6.94641 0
M  V30 4049 H 395.161 0.44006 -4.66027 0
M  V30 4050 H 395.334 0.357184 -6.47015 0
M  V30 4051 N 388.74 1.54641 0.303973 0
M  V30 4052 C 389.986 1.74038 1.04109 0
M  V30 4053 C 390.319 0.523051 1.87024 0
M  V30 4054 O 389.594 -0.479874 1.88487 0
M  V30 4055 C 389.877 3.02761 1.94955 0
M  V30 4056 C 389.73 4.34787 1.1524 0
M  V30 4057 C 391.049 3.27336 2.94175 0
M  V30 4058 H 388.168 0.63323 0.377079 0
M  V30 4059 H 390.81 1.87354 0.316001 0
M  V30 4060 H 388.96 2.9154 2.56782 0
M  V30 4061 H 390.632 4.57922 0.557236 0
M  V30 4062 H 388.875 4.31407 0.455053 0
M  V30 4063 H 389.546 5.21116 1.8205 0
M  V30 4064 H 392.022 3.38148 2.42477 0
M  V30 4065 H 390.898 4.18726 3.54908 0
M  V30 4066 H 391.159 2.45491 3.67677 0
M  V30 4067 N 390.218 -0.567019 1.47046 0
M  V30 4068 C 391.466 -1.322 1.52864 0
M  V30 4069 C 391.787 -1.94088 0.188388 0
M  V30 4070 O 391.057 -1.7941 -0.786693 0
M  V30 4071 H 389.637 -0.490894 0.563056 0
M  V30 4072 H 392.299 -0.662879 1.83281 0
M  V30 4073 H 391.395 -2.12062 2.2899 0
M  V30 4074 N 391.696 -1.35014 -0.812953 0
M  V30 4075 C 392.944 -1.27678 -1.56661 0
M  V30 4076 C 393.265 0.150359 -1.94419 0
M  V30 4077 O 392.535 1.08532 -1.63088 0
M  V30 4078 H 391.115 -0.469602 -0.580933 0
M  V30 4079 H 393.777 -1.69043 -0.970076 0
M  V30 4080 H 392.873 -1.88833 -2.48492 0
M  V30 4081 N 393.175 1.03435 -1.18907 0
M  V30 4082 C 394.405 1.8012 -1.01195 0
M  V30 4083 C 394.813 1.8395 0.442613 0
M  V30 4084 O 394.156 1.27836 1.31923 0
M  V30 4085 C 394.218 3.26792 -1.49823 0
M  V30 4086 C 393.882 3.46609 -2.97844 0
M  V30 4087 C 394.879 3.37278 -3.95651 0
M  V30 4088 C 392.564 3.73001 -3.36416 0
M  V30 4089 C 394.558 3.54054 -5.30023 0
M  V30 4090 C 392.245 3.89423 -4.70949 0
M  V30 4091 C 393.243 3.79951 -5.67562 0
M  V30 4092 O 392.931 3.95895 -6.99659 0
M  V30 4093 H 392.663 0.573865 -0.357289 0
M  V30 4094 H 395.217 1.31207 -1.58031 0
M  V30 4095 H 393.447 3.76703 -0.873578 0
M  V30 4096 H 395.136 3.85055 -1.28404 0
M  V30 4097 H 395.902 3.16846 -3.67197 0
M  V30 4098 H 391.781 3.79469 -2.61772 0
M  V30 4099 H 395.325 3.46577 -6.05417 0
M  V30 4100 H 391.222 4.09351 -4.99101 0
M  V30 4101 H 391.99 4.13019 -7.06653 0
M  V30 4102 N 394.653 0.992116 1.22453 0
M  V30 4103 C 395.616 0.546883 2.2258 0
M  V30 4104 C 396.616 -0.369829 1.56489 0
M  V30 4105 O 397.806 -0.161896 1.73446 0
M  V30 4106 C 394.938 -0.204659 3.40285 0
M  V30 4107 H 396.131 1.43234 2.63484 0
M  V30 4108 H 393.684 0.779239 1.3549 0
M  V30 4109 H 394.419 -1.10614 3.04853 0
M  V30 4110 H 394.204 0.45354 3.89468 0
M  V30 4111 H 395.694 -0.504358 4.14543 0
M  V30 4112 N 396.131 -1.37776 0.765217 0
M  V30 4113 C 397.542 -1.82521 0.392819 0
M  V30 4114 C 397.893 -1.63789 -1.08017 0
M  V30 4115 O 397.018 -1.14542 -1.83601 0
M  V30 4116 C 397.613 -3.31358 0.706214 0
M  V30 4117 C 396.172 -3.74406 0.386952 0
M  V30 4118 C 395.319 -2.60394 0.953422 0
M  V30 4119 H 398.27 -1.2634 0.960412 0
M  V30 4120 H 398.291 -3.80498 -0.0114706 0
M  V30 4121 H 397.803 -3.44959 1.77833 0
M  V30 4122 H 395.904 -3.66377 -0.678112 0
M  V30 4123 H 396.017 -4.70749 0.890636 0
M  V30 4124 H 394.381 -2.51878 0.378064 0
M  V30 4125 H 395.164 -2.76791 2.03081 0
M  V30 4126 N 397.609 -0.515225 -1.4894 0
M  V30 4127 C 398.855 0.0242508 -2.02785 0
M  V30 4128 C 399.188 1.35323 -1.39289 0
M  V30 4129 O 398.463 1.87041 -0.533469 0
M  V30 4130 C 398.746 0.16184 -3.59736 0
M  V30 4131 C 398.599 -1.19127 -4.33738 0
M  V30 4132 C 399.918 0.895719 -4.30888 0
M  V30 4133 H 397.037 0.00733914 -0.736963 0
M  V30 4134 H 399.679 -0.669395 -1.77818 0
M  V30 4135 H 397.829 0.752624 -3.8114 0
M  V30 4136 H 399.501 -1.82202 -4.23792 0
M  V30 4137 H 397.744 -1.77695 -3.95736 0
M  V30 4138 H 398.415 -1.04815 -5.41957 0
M  V30 4139 H 400.891 0.394528 -4.14225 0
M  V30 4140 H 399.767 0.960859 -5.40425 0
M  V30 4141 H 400.028 1.9427 -3.97129 0
M  V30 4142 N 399.087 1.5561 -0.249682 0
M  V30 4143 C 400.034 2.21496 0.648694 0
M  V30 4144 C 401.004 1.17977 1.16921 0
M  V30 4145 O 402.189 1.46434 1.22318 0
M  V30 4146 C 399.329 2.92039 1.83868 0
M  V30 4147 C 398.442 4.10219 1.35442 0
M  V30 4148 C 397.577 4.6847 2.50419 0
M  V30 4149 C 396.616 5.78893 1.98869 0
M  V30 4150 N 395.753 6.31315 3.07223 0
M  V30 4151 H 400.593 2.97892 0.0801582 0
M  V30 4152 H 398.13 1.47074 0.0278031 0
M  V30 4153 H 400.088 3.31138 2.53778 0
M  V30 4154 H 398.718 2.18111 2.37965 0
M  V30 4155 H 397.77 3.76413 0.54928 0
M  V30 4156 H 399.082 4.89927 0.936649 0
M  V30 4157 H 398.236 5.10158 3.28366 0
M  V30 4158 H 396.975 3.87984 2.95499 0
M  V30 4159 H 395.98 5.3668 1.19393 0
M  V30 4160 H 397.205 6.61232 1.54755 0
M  V30 4161 H 395.151 5.53733 3.51732 0
M  V30 4162 H 395.068 7.06224 2.69784 0
M  V30 4163 H 396.336 6.77662 3.8522 0
M  V30 4164 N 400.565 -0.0233959 1.57583 0
M  V30 4165 C 401.811 -0.714119 1.89811 0
M  V30 4166 C 402.144 -1.74702 0.848113 0
M  V30 4167 O 401.419 -1.94023 -0.136135 0
M  V30 4168 C 401.702 -1.37853 3.32669 0
M  V30 4169 C 401.555 -0.358764 4.48367 0
M  V30 4170 C 402.874 -2.31101 3.7454 0
M  V30 4171 H 399.993 -0.25814 0.690314 0
M  V30 4172 H 402.635 0.0230927 1.89986 0
M  V30 4173 H 400.785 -2.00689 3.3265 0
M  V30 4174 H 402.457 0.268115 4.6052 0
M  V30 4175 H 400.7 0.321387 4.32608 0
M  V30 4176 H 401.371 -0.862242 5.45224 0
M  V30 4177 H 403.847 -1.78304 3.75961 0
M  V30 4178 H 402.723 -2.74567 4.75294 0
M  V30 4179 H 402.984 -3.18018 3.0711 0
M  V30 4180 N 402.043 -1.548 -0.295768 0
M  V30 4181 C 403.32 -1.65014 -1.05023 0
M  V30 4182 C 403.7 -0.501805 -2.05049 0
M  V30 4183 O 403.048 0.500869 -2.22943 0
M  V30 4184 C 403.258 -3.03252 -1.72741 0
M  V30 4185 C 404.606 -3.60242 -2.24746 0
M  V30 4186 O 405.63 -3.05737 -1.82765 0
M  V30 4187 O 404.489 -4.55687 -3.01681 0
M  V30 4188 H 401.583 -0.669314 -0.485744 0
M  V30 4189 H 404.129 -1.67144 -0.293438 0
M  V30 4190 H 402.901 -3.7827 -1.00138 0
M  V30 4191 H 402.524 -3.04922 -2.55163 0
M  V30 4192 N 403.521 0.559213 -1.47345 0
M  V30 4193 C 404.767 1.31843 -1.54095 0
M  V30 4194 C 405.1 1.93149 -0.201726 0
M  V30 4195 O 404.375 1.77759 0.789428 0
M  V30 4196 C 404.658 2.43006 -2.65744 0
M  V30 4197 C 404.511 1.86581 -4.09277 0
M  V30 4198 C 405.83 3.44943 -2.73318 0
M  V30 4199 H 402.949 0.478012 -0.560957 0
M  V30 4200 H 405.591 0.625977 -1.79392 0
M  V30 4201 H 403.741 3.02072 -2.44305 0
M  V30 4202 H 405.413 1.31792 -4.42073 0
M  V30 4203 H 403.656 1.17268 -4.17649 0
M  V30 4204 H 404.327 2.66933 -4.83168 0
M  V30 4205 H 406.803 2.95793 -2.92653 0
M  V30 4206 H 405.679 4.20153 -3.53218 0
M  V30 4207 H 405.94 4.03665 -1.80296 0
M  V30 4208 N 404.999 1.35443 0.805782 0
M  V30 4209 C 406.415 1.15499 1.10146 0
M  V30 4210 C 406.615 -0.0319975 2.01475 0
M  V30 4211 O 405.671 -0.70236 2.42535 0
M  V30 4212 C 406.984 2.45833 1.73166 0
M  V30 4213 C 408.532 2.52047 1.85583 0
M  V30 4214 C 409.007 3.82427 2.52019 0
M  V30 4215 N 410.498 3.83682 2.59504 0
M  V30 4216 C 411.233 4.81294 3.11679 0
M  V30 4217 N 410.729 5.89294 3.64287 0
M  V30 4218 N 412.522 4.6873 3.1024 0
M  V30 4219 H 404.673 2.11469 0.198678 0
M  V30 4220 H 406.936 0.93594 0.150731 0
M  V30 4221 H 406.642 3.32874 1.13526 0
M  V30 4222 H 406.516 2.6044 2.72857 0
M  V30 4223 H 408.903 1.65435 2.44367 0
M  V30 4224 H 408.984 2.41354 0.847455 0
M  V30 4225 H 408.628 4.69437 1.93885 0
M  V30 4226 H 408.558 3.90409 3.53395 0
M  V30 4227 H 411.049 3.05648 2.22234 0
M  V30 4228 H 411.362 6.59768 4.02401 0
M  V30 4229 H 409.707 5.92985 3.62483 0
M  V30 4230 H 412.898 3.83496 2.68419 0
M  V30 4231 H 413.071 5.44965 3.50596 0
M  V30 4232 N 406.477 -1.02803 1.19454 0
M  V30 4233 C 407.726 -1.7562 0.991996 0
M  V30 4234 C 408.039 -1.89672 -0.477901 0
M  V30 4235 O 409.245 -2.59468 -0.799287 0
M  V30 4236 C 407.701 -3.15812 1.72601 0
M  V30 4237 C 407.309 -3.0981 3.23607 0
M  V30 4238 C 409.053 -3.92918 1.60674 0
M  V30 4239 C 406.96 -4.44939 3.89594 0
M  V30 4240 H 405.89 -0.658352 0.367543 0
M  V30 4241 H 408.541 -1.15044 1.42959 0
M  V30 4242 H 406.923 -3.7686 1.21624 0
M  V30 4243 H 408.097 -2.58138 3.81709 0
M  V30 4244 H 406.412 -2.46201 3.35819 0
M  V30 4245 H 409.009 -4.9287 2.07323 0
M  V30 4246 H 409.352 -4.12502 0.561025 0
M  V30 4247 H 409.885 -3.38472 2.09001 0
M  V30 4248 H 406.624 -4.30559 4.94267 0
M  V30 4249 H 406.144 -4.96664 3.36281 0
M  V30 4250 H 407.823 -5.1382 3.93189 0
M  V30 4251 N 407.956 -0.998596 -1.21925 0
M  V30 4252 C 409.205 -0.673085 -1.90138 0
M  V30 4253 C 409.518 0.79895 -1.78539 0
M  V30 4254 O 410.724 1.23628 -2.4172 0
M  V30 4255 C 409.18 -1.15339 -3.40918 0
M  V30 4256 C 408.788 -2.65106 -3.61141 0
M  V30 4257 C 410.532 -0.902476 -4.14796 0
M  V30 4258 C 408.439 -3.0671 -5.05651 0
M  V30 4259 H 407.369 -0.248057 -0.712028 0
M  V30 4260 H 410.02 -1.20891 -1.38049 0
M  V30 4261 H 408.402 -0.545658 -3.92223 0
M  V30 4262 H 409.576 -3.31274 -3.20304 0
M  V30 4263 H 407.891 -2.88142 -3.00605 0
M  V30 4264 H 410.488 -1.18895 -5.21314 0
M  V30 4265 H 410.831 0.161349 -4.15987 0
M  V30 4266 H 411.364 -1.47269 -3.69536 0
M  V30 4267 H 408.103 -4.12292 -5.09603 0
M  V30 4268 H 407.623 -2.45249 -5.47369 0
M  V30 4269 H 409.302 -2.9833 -5.74115 0
M  V30 4270 N 409.434 1.37368 -0.772513 0
M  V30 4271 C 410.397 2.28601 -0.165541 0
M  V30 4272 C 411.397 1.48062 0.627238 0
M  V30 4273 O 412.587 1.68268 0.450715 0
M  V30 4274 C 409.719 3.32023 0.772897 0
M  V30 4275 H 410.912 2.83787 -0.969787 0
M  V30 4276 H 408.465 1.46647 -0.540775 0
M  V30 4277 H 409.2 2.81962 1.60212 0
M  V30 4278 H 408.985 3.91555 0.206585 0
M  V30 4279 H 410.475 4.00197 1.19298 0
M  V30 4280 N 410.912 0.523116 1.48665 0
M  V30 4281 C 411.875 -0.232592 2.28017 0
M  V30 4282 C 412.875 -0.874021 1.34972 0
M  V30 4283 O 414.065 -0.735132 1.57929 0
M  V30 4284 C 411.197 -1.33586 3.13636 0
M  V30 4285 H 412.39 0.464008 2.96289 0
M  V30 4286 H 409.943 0.278816 1.53793 0
M  V30 4287 H 410.678 -2.06593 2.4998 0
M  V30 4288 H 410.463 -0.881125 3.82071 0
M  V30 4289 H 411.953 -1.86759 3.73511 0
M  V30 4290 N 412.39 -1.55475 0.257931 0
M  V30 4291 C 413.618 -2.03609 -0.367559 0
M  V30 4292 C 414.033 -1.13687 -1.50734 0
M  V30 4293 O 413.39 -0.153479 -1.81853 0
M  V30 4294 C 413.441 -3.51001 -0.864908 0
M  V30 4295 O 413.162 -4.37499 0.229465 0
M  V30 4296 C 414.663 -4.14946 -1.55997 0
M  V30 4297 H 411.883 -0.665459 -0.0860521 0
M  V30 4298 H 414.427 -2.00843 0.385014 0
M  V30 4299 H 412.582 -3.54266 -1.56762 0
M  V30 4300 H 412.996 -5.24286 -0.14998 0
M  V30 4301 H 414.47 -5.19735 -1.85956 0
M  V30 4302 H 414.947 -3.6209 -2.4857 0
M  V30 4303 H 415.553 -4.15635 -0.901543 0
M  V30 4304 N 413.868 0.0150385 -1.57593 0
M  V30 4305 C 414.818 1.01943 -2.0394 0
M  V30 4306 C 415.802 1.31209 -0.931286 0
M  V30 4307 O 416.994 1.30559 -1.19513 0
M  V30 4308 C 414.123 2.31621 -2.53391 0
M  V30 4309 C 413.209 2.05384 -3.7105 0
M  V30 4310 N 413.6 1.49253 -4.83278 0
M  V30 4311 C 411.898 2.35601 -3.78693 0
M  V30 4312 C 412.599 1.39143 -5.64813 0
M  V30 4313 N 411.575 1.87187 -5.10355 0
M  V30 4314 H 415.377 0.57969 -2.88126 0
M  V30 4315 H 412.891 0.221056 -1.60888 0
M  V30 4316 H 414.888 3.044 -2.84862 0
M  V30 4317 H 413.548 2.76261 -1.70616 0
M  V30 4318 H 414.559 1.17334 -5.04433 0
M  V30 4319 H 411.236 2.8322 -3.06746 0
M  V30 4320 H 412.626 0.961153 -6.6499 0
M  V30 4321 N 415.346 1.54954 0.287554 0
M  V30 4322 C 416.278 1.83224 1.37701 0
M  V30 4323 C 417.291 0.715898 1.46215 0
M  V30 4324 O 418.48 0.993565 1.48292 0
M  V30 4325 C 415.58 1.96723 2.75959 0
M  V30 4326 C 414.753 3.27253 2.90215 0
M  V30 4327 C 413.812 3.30998 4.09056 0
M  V30 4328 O 412.838 4.04457 4.00503 0
M  V30 4329 N 414.04 2.57353 5.20336 0
M  V30 4330 H 416.805 2.77254 1.138 0
M  V30 4331 H 414.366 1.54694 0.477652 0
M  V30 4332 H 416.358 1.96615 3.5373 0
M  V30 4333 H 414.928 1.09626 2.92747 0
M  V30 4334 H 414.148 3.40022 1.99447 0
M  V30 4335 H 415.436 4.13365 2.96659 0
M  V30 4336 H 414.834 1.97327 5.30169 0
M  V30 4337 H 413.391 2.62984 5.96391 0
M  V30 4338 N 416.824 -0.551391 1.4764 0
M  V30 4339 C 417.772 -1.67896 1.60978 0
M  V30 4340 C 418.766 -1.62549 0.476877 0
M  V30 4341 O 419.972 -1.67664 0.654878 0
M  V30 4342 H 416.347 -0.555649 0.506713 0
M  V30 4343 H 418.318 -1.53784 2.55721 0
M  V30 4344 C 417.067 -3.06234 1.64669 0
M  V30 4345 H 416.39 -3.11033 2.51194 0
M  V30 4346 H 417.83 -3.84804 1.7805 0
M  V30 4347 C 416.289 -3.34737 0.381115 0
M  V30 4348 O 416.819 -3.98381 -0.515297 0
M  V30 4349 N 415.025 -2.8944 0.259354 0
M  V30 4350 H 414.572 -2.37827 0.98976 0
M  V30 4351 H 414.53 -3.08882 -0.586464 0
M  V30 4352 N 418.302 -1.35869 -0.798587 0
M  V30 4353 C 419.232 -1.32118 -1.92528 0
M  V30 4354 C 420.213 -0.194209 -1.68988 0
M  V30 4355 O 421.398 -0.390426 -1.90235 0
M  V30 4356 C 418.528 -1.10047 -3.29404 0
M  V30 4357 C 417.482 -2.19471 -3.67446 0
M  V30 4358 C 416.808 -1.82555 -5.02571 0
M  V30 4359 C 418.108 -3.61495 -3.76987 0
M  V30 4360 H 419.802 -2.26394 -1.95924 0
M  V30 4361 H 417.348 -1.08981 -0.94123 0
M  V30 4362 H 419.301 -1.06061 -4.07835 0
M  V30 4363 H 418.025 -0.122195 -3.26371 0
M  V30 4364 H 416.684 -2.22568 -2.91306 0
M  V30 4365 H 416.332 -0.833249 -4.9605 0
M  V30 4366 H 416.032 -2.5581 -5.28995 0
M  V30 4367 H 417.556 -1.80108 -5.83432 0
M  V30 4368 H 418.97 -3.60676 -4.4563 0
M  V30 4369 H 417.367 -4.33577 -4.14887 0
M  V30 4370 H 418.437 -3.97065 -2.78329 0
M  V30 4371 N 419.78 1.02168 -1.19998 0
M  V30 4372 C 420.69 2.14069 -0.959774 0
M  V30 4373 C 421.706 1.73804 0.082655 0
M  V30 4374 O 422.882 2.01133 -0.103633 0
M  V30 4375 C 419.947 3.42936 -0.509459 0
M  V30 4376 C 419.008 3.97474 -1.62213 0
M  V30 4377 C 418.241 5.2019 -1.19321 0
M  V30 4378 O 418.464 5.70369 -0.0597726 0
M  V30 4379 O 417.398 5.67749 -1.99863 0
M  V30 4380 H 421.224 2.37199 -1.89658 0
M  V30 4381 H 418.809 1.12469 -0.983411 0
M  V30 4382 H 420.691 4.20551 -0.267322 0
M  V30 4383 H 419.366 3.21234 0.398821 0
M  V30 4384 H 418.273 3.21161 -1.9185 0
M  V30 4385 H 419.606 4.23555 -2.50723 0
M  V30 4386 N 421.258 1.00505 1.21394 0
M  V30 4387 C 422.674 0.717873 1.42544 0
M  V30 4388 C 422.874 -0.706936 1.88692 0
M  V30 4389 O 421.93 -1.47627 2.04847 0
M  V30 4390 C 423.243 1.73377 2.45684 0
M  V30 4391 C 424.791 1.75059 2.59467 0
M  V30 4392 C 425.266 2.75545 3.6584 0
M  V30 4393 N 426.757 2.74213 3.73311 0
M  V30 4394 C 427.492 3.48626 4.55245 0
M  V30 4395 N 426.988 4.32678 5.41075 0
M  V30 4396 N 428.781 3.37276 4.49668 0
M  V30 4397 H 420.932 1.92506 0.897503 0
M  V30 4398 H 423.195 0.830919 0.456375 0
M  V30 4399 H 422.901 2.75395 2.18748 0
M  V30 4400 H 422.775 1.53647 3.44489 0
M  V30 4401 H 425.162 0.737337 2.8574 0
M  V30 4402 H 425.243 1.98861 1.60897 0
M  V30 4403 H 424.887 3.77028 3.40313 0
M  V30 4404 H 424.817 2.49009 4.64007 0
M  V30 4405 H 427.308 2.13234 3.11993 0
M  V30 4406 H 427.621 4.86253 6.00648 0
M  V30 4407 H 425.966 4.3676 5.40616 0
M  V30 4408 H 429.157 2.71043 3.81646 0
M  V30 4409 H 429.33 3.95524 5.13288 0
M  V30 4410 N 422.737 -1.36956 0.779787 0
M  V30 4411 C 424.153 -1.52817 0.460342 0
M  V30 4412 C 424.353 -1.7361 -1.02283 0
M  V30 4413 O 423.409 -1.76207 -1.80852 0
M  V30 4414 C 424.722 -2.71983 1.28241 0
M  V30 4415 C 426.27 -2.85849 1.27512 0
M  V30 4416 C 426.745 -4.08008 2.08072 0
M  V30 4417 N 428.236 -4.15135 2.05467 0
M  V30 4418 C 428.971 -5.08711 2.64577 0
M  V30 4419 N 428.467 -6.07792 3.32506 0
M  V30 4420 N 430.26 -5.01254 2.54363 0
M  V30 4421 H 422.411 -1.21713 1.74068 0
M  V30 4422 H 424.674 -0.593294 0.739396 0
M  V30 4423 H 424.38 -2.63109 2.33381 0
M  V30 4424 H 424.254 -3.65882 0.917088 0
M  V30 4425 H 426.641 -2.94189 0.231686 0
M  V30 4426 H 426.722 -1.92886 1.68014 0
M  V30 4427 H 426.366 -4.00429 3.12441 0
M  V30 4428 H 426.296 -5.001 1.64947 0
M  V30 4429 H 428.787 -3.44189 1.5602 0
M  V30 4430 H 429.1 -6.75739 3.74963 0
M  V30 4431 H 427.445 -6.08047 3.36606 0
M  V30 4432 H 430.636 -4.22795 2.00902 0
M  V30 4433 H 430.809 -5.73995 3.00722 0
M  V30 4434 N 424.215 -0.530993 -1.48385 0
M  V30 4435 C 425.461 0.00274135 -2.028 0
M  V30 4436 C 425.794 1.33838 -1.40716 0
M  V30 4437 O 425.069 1.86465 -0.553277 0
M  V30 4438 C 425.352 0.123676 -3.59888 0
M  V30 4439 C 425.205 -1.2372 -4.3245 0
M  V30 4440 C 426.524 0.849967 -4.31814 0
M  V30 4441 H 423.643 -0.000477758 -0.737 0
M  V30 4442 H 426.285 -0.688217 -1.77098 0
M  V30 4443 H 424.435 0.712157 -3.81917 0
M  V30 4444 H 426.107 -1.86687 -4.21836 0
M  V30 4445 H 424.35 -1.81882 -3.93829 0
M  V30 4446 H 425.021 -1.10557 -5.40815 0
M  V30 4447 H 427.497 0.350572 -4.14621 0
M  V30 4448 H 426.373 0.903486 -5.41413 0
M  V30 4449 H 426.634 1.90047 -3.99167 0
M  V30 4450 N 425.693 1.55336 -0.266172 0
M  V30 4451 C 426.625 2.19544 0.658247 0
M  V30 4452 C 427.638 1.17746 1.12427 0
M  V30 4453 O 428.827 1.44517 1.04772 0
M  V30 4454 C 425.927 2.80032 1.9088 0
M  V30 4455 C 425.1 4.07436 1.59106 0
M  V30 4456 C 424.159 4.52056 2.69317 0
M  V30 4457 O 423.185 5.18023 2.35883 0
M  V30 4458 N 424.387 4.21448 3.99201 0
M  V30 4459 H 427.152 2.99503 0.108754 0
M  V30 4460 H 424.713 1.61667 -0.0869059 0
M  V30 4461 H 426.705 3.06831 2.63888 0
M  V30 4462 H 425.275 2.04119 2.36758 0
M  V30 4463 H 424.495 3.88021 0.695243 0
M  V30 4464 H 425.783 4.90462 1.35367 0
M  V30 4465 H 425.181 3.68528 4.29189 0
M  V30 4466 H 423.738 4.53039 4.68614 0
M  V30 4467 N 427.171 -0.0066808 1.57599 0
M  V30 4468 C 428.081 -1.01671 2.11424 0
M  V30 4469 C 429.097 -1.38143 1.05795 0
M  V30 4470 O 430.273 -1.47011 1.37658 0
M  V30 4471 C 427.338 -2.29192 2.60139 0
M  V30 4472 C 426.399 -1.99094 3.80342 0
M  V30 4473 C 425.632 -3.20535 4.26724 0
M  V30 4474 O 425.855 -4.3199 3.72479 0
M  V30 4475 O 424.789 -3.04924 5.18946 0
M  V30 4476 H 428.615 -0.589181 2.9793 0
M  V30 4477 H 426.2 -0.225091 1.47695 0
M  V30 4478 H 428.082 -3.0412 2.917 0
M  V30 4479 H 426.757 -2.71195 1.76733 0
M  V30 4480 H 425.664 -1.21663 3.53764 0
M  V30 4481 H 426.997 -1.61931 4.648 0
M  V30 4482 N 428.649 -1.55105 -0.279332 0
M  V30 4483 C 429.897 -1.75066 -1.00977 0
M  V30 4484 C 430.218 -0.551276 -1.87045 0
M  V30 4485 O 429.488 0.433984 -1.91032 0
M  V30 4486 H 428.068 -0.645578 -0.375816 0
M  V30 4487 H 430.73 -1.92497 -0.305089 0
M  V30 4488 H 429.826 -2.64894 -1.65038 0
M  V30 4489 N 430.127 0.543554 -1.4793 0
M  V30 4490 C 431.074 1.64942 -1.6144 0
M  V30 4491 C 432.044 1.59692 -0.456903 0
M  V30 4492 O 433.229 1.78321 -0.678688 0
M  V30 4493 C 430.369 3.03238 -1.64744 0
M  V30 4494 C 429.482 3.18823 -2.91506 0
M  V30 4495 C 428.617 4.47599 -2.86057 0
M  V30 4496 C 427.656 4.56664 -4.07584 0
M  V30 4497 N 426.793 5.76811 -4.00292 0
M  V30 4498 H 431.633 1.52733 -2.55884 0
M  V30 4499 H 429.17 0.7438 -1.2691 0
M  V30 4500 H 431.128 3.83339 -1.64641 0
M  V30 4501 H 429.758 3.1425 -0.738017 0
M  V30 4502 H 428.81 2.32064 -3.01414 0
M  V30 4503 H 430.122 3.21384 -3.81463 0
M  V30 4504 H 429.276 5.35975 -2.84281 0
M  V30 4505 H 428.015 4.47538 -1.93807 0
M  V30 4506 H 427.02 3.66697 -4.09651 0
M  V30 4507 H 428.245 4.58474 -5.00978 0
M  V30 4508 H 426.191 5.77673 -3.10853 0
M  V30 4509 H 426.108 5.80808 -4.8394 0
M  V30 4510 H 427.376 6.67512 -4.02553 0
M  V30 4511 N 431.605 1.3629 0.791371 0
M  V30 4512 C 432.852 1.30412 1.54916 0
M  V30 4513 C 433.18 -0.117162 1.94147 0
M  V30 4514 O 432.435 -1.08599 1.62803 0
M  V30 4515 C 432.734 2.17068 2.8393 0
M  V30 4516 C 432.4 3.65645 2.63846 0
M  V30 4517 C 431.062 4.0614 2.58077 0
M  V30 4518 C 433.414 4.59855 2.45322 0
M  V30 4519 C 430.742 5.3899 2.31748 0
M  V30 4520 C 433.094 5.9292 2.2052 0
M  V30 4521 C 431.758 6.32542 2.13183 0
M  V30 4522 H 431.028 0.47721 0.566879 0
M  V30 4523 H 433.675 1.68325 0.913172 0
M  V30 4524 H 431.98 1.72085 3.51986 0
M  V30 4525 H 433.677 2.09846 3.4171 0
M  V30 4526 H 430.267 3.33518 2.69191 0
M  V30 4527 H 434.451 4.29443 2.48782 0
M  V30 4528 H 429.707 5.68672 2.24548 0
M  V30 4529 H 433.881 6.65487 2.05182 0
M  V30 4530 H 431.508 7.35412 1.92544 0
M  V30 4531 N 433.083 -1.0153 1.20538 0
M  V30 4532 C 434.499 -1.27461 0.96051 0
M  V30 4533 C 434.699 -1.98273 -0.359193 0
M  V30 4534 O 433.755 -2.27886 -1.0874 0
M  V30 4535 C 435.068 -2.10837 2.14402 0
M  V30 4536 C 436.616 -2.24099 2.18515 0
M  V30 4537 C 437.091 -3.10852 3.36355 0
M  V30 4538 N 438.582 -3.18441 3.36377 0
M  V30 4539 C 439.317 -3.85795 4.24205 0
M  V30 4540 N 438.813 -4.55264 5.22213 0
M  V30 4541 N 440.606 -3.82331 4.12043 0
M  V30 4542 H 432.757 -0.539907 2.05423 0
M  V30 4543 H 435.02 -0.30092 0.898972 0
M  V30 4544 H 434.726 -1.66144 3.09983 0
M  V30 4545 H 434.6 -3.11576 2.12604 0
M  V30 4546 H 436.987 -2.68016 1.23497 0
M  V30 4547 H 437.068 -1.22865 2.24361 0
M  V30 4548 H 436.712 -2.6764 4.31661 0
M  V30 4549 H 436.642 -4.12177 3.27746 0
M  V30 4550 H 439.133 -2.68978 2.65442 0
M  V30 4551 H 439.446 -5.04331 5.85551 0
M  V30 4552 H 437.791 -4.54085 5.26148 0
M  V30 4553 H 440.982 -3.27207 3.34743 0
M  V30 4554 H 441.155 -4.34547 4.807 0
M  V30 4555 N 434.561 -1.01147 -1.20859 0
M  V30 4556 C 435.471 -0.58686 -2.27141 0
M  V30 4557 C 436.487 0.373198 -1.69951 0
M  V30 4558 O 437.663 0.235423 -2.00019 0
M  V30 4559 C 434.728 0.0733602 -3.46622 0
M  V30 4560 C 433.789 -0.931995 -4.19061 0
M  V30 4561 C 433.022 -0.303186 -5.32838 0
M  V30 4562 O 433.245 0.898395 -5.63281 0
M  V30 4563 O 432.179 -1.01735 -5.9324 0
M  V30 4564 H 436.005 -1.47155 -2.65667 0
M  V30 4565 H 433.59 -0.780689 -1.2738 0
M  V30 4566 H 435.472 0.442333 -4.19072 0
M  V30 4567 H 434.147 0.932329 -3.09983 0
M  V30 4568 H 433.054 -1.35224 -3.48805 0
M  V30 4569 H 434.387 -1.76076 -4.59628 0
M  V30 4570 N 436.039 1.36541 -0.78704 0
M  V30 4571 C 437.316 1.9355 -0.282424 0
M  V30 4572 C 437.696 1.71919 1.22503 0
M  V30 4573 O 437.044 1.07677 2.01539 0
M  V30 4574 C 437.254 3.4246 -0.672462 0
M  V30 4575 C 438.602 4.19582 -0.650863 0
M  V30 4576 O 439.626 3.50889 -0.612789 0
M  V30 4577 O 438.485 5.42106 -0.691623 0
M  V30 4578 H 435.579 0.824091 -0.0693 0
M  V30 4579 H 438.125 1.45736 -0.869423 0
M  V30 4580 H 436.897 3.51851 -1.71221 0
M  V30 4581 H 436.52 3.97556 -0.0592211 0
M  V30 4582 N 437.518 0.538854 1.48102 0
M  V30 4583 C 438.448 -0.207654 2.32575 0
M  V30 4584 C 439.429 -0.926559 1.4265 0
M  V30 4585 O 440.614 -0.91061 1.71527 0
M  V30 4586 C 437.744 -1.24957 3.24042 0
M  V30 4587 C 436.698 -0.648263 4.23062 0
M  V30 4588 C 436.024 -1.79348 5.03725 0
M  V30 4589 C 437.324 0.385897 5.20872 0
M  V30 4590 H 439.018 0.497534 2.95237 0
M  V30 4591 H 436.564 0.240715 1.41974 0
M  V30 4592 H 438.517 -1.77983 3.81969 0
M  V30 4593 H 437.241 -1.98446 2.59397 0
M  V30 4594 H 435.9 -0.139452 3.66335 0
M  V30 4595 H 435.548 -2.51696 4.35498 0
M  V30 4596 H 435.248 -1.39702 5.70751 0
M  V30 4597 H 436.772 -2.32735 5.64506 0
M  V30 4598 H 438.186 -0.057607 5.73271 0
M  V30 4599 H 436.583 0.700227 5.96001 0
M  V30 4600 H 437.653 1.28848 4.67468 0
M  V30 4601 N 438.996 -1.55193 0.274407 0
M  V30 4602 C 440.243 -1.99581 -0.342579 0
M  V30 4603 C 440.571 -1.1628 -1.55914 0
M  V30 4604 O 439.826 -0.22029 -1.94456 0
M  V30 4605 C 440.125 -3.49019 -0.769458 0
M  V30 4606 C 439.791 -4.49598 0.342389 0
M  V30 4607 C 438.453 -4.76821 0.647686 0
M  V30 4608 C 440.805 -5.0964 1.09163 0
M  V30 4609 C 438.133 -5.61354 1.70581 0
M  V30 4610 C 440.485 -5.95323 2.13948 0
M  V30 4611 C 439.149 -6.20867 2.45113 0
M  V30 4612 H 438.419 -0.730319 -0.125358 0
M  V30 4613 H 441.066 -1.87529 0.387971 0
M  V30 4614 H 439.371 -3.58544 -1.57967 0
M  V30 4615 H 441.068 -3.8077 -1.25757 0
M  V30 4616 H 437.658 -4.28496 0.094318 0
M  V30 4617 H 441.842 -4.88632 0.869024 0
M  V30 4618 H 437.098 -5.79392 1.9523 0
M  V30 4619 H 441.272 -6.40881 2.72478 0
M  V30 4620 H 438.899 -6.86162 3.27239 0
M  V30 4621 N 440.474 -0.00167713 -1.576 0
M  V30 4622 C 441.424 0.997744 -2.0501 0
M  V30 4623 C 442.408 1.30214 -0.94515 0
M  V30 4624 O 443.6 1.29284 -1.20891 0
M  V30 4625 C 440.729 2.2892 -2.55833 0
M  V30 4626 C 439.815 2.01437 -3.73208 0
M  V30 4627 N 440.206 1.44119 -4.84833 0
M  V30 4628 C 438.504 2.31571 -3.8117 0
M  V30 4629 C 439.205 1.33145 -5.66257 0
M  V30 4630 N 438.181 1.81763 -5.12312 0
M  V30 4631 H 441.983 0.549098 -2.88725 0
M  V30 4632 H 439.497 0.20398 -1.61114 0
M  V30 4633 H 441.494 3.01361 -2.88075 0
M  V30 4634 H 440.154 2.74436 -1.73537 0
M  V30 4635 H 441.165 1.11978 -5.0565 0
M  V30 4636 H 437.842 2.7995 -3.09732 0
M  V30 4637 H 439.232 0.890567 -6.65972 0
M  V30 4638 N 441.952 1.55251 0.271103 0
M  V30 4639 C 443.368 1.47133 0.618393 0
M  V30 4640 C 443.568 0.686994 1.89427 0
M  V30 4641 O 442.624 0.206609 2.51653 0
M  V30 4642 C 443.937 2.91361 0.743593 0
M  V30 4643 C 445.485 3.01587 0.837522 0
M  V30 4644 C 445.96 4.47073 0.994483 0
M  V30 4645 N 447.451 4.50909 1.05996 0
M  V30 4646 C 448.186 5.60698 1.20024 0
M  V30 4647 N 447.682 6.80348 1.30759 0
M  V30 4648 N 449.475 5.48444 1.23149 0
M  V30 4649 H 441.626 2.04698 -0.566784 0
M  V30 4650 H 443.889 0.928319 -0.192165 0
M  V30 4651 H 443.595 3.51483 -0.123493 0
M  V30 4652 H 443.469 3.40484 1.62328 0
M  V30 4653 H 445.856 2.4156 1.69507 0
M  V30 4654 H 445.937 2.55713 -0.0668086 0
M  V30 4655 H 445.581 5.07703 0.141582 0
M  V30 4656 H 445.511 4.90605 1.91349 0
M  V30 4657 H 448.002 3.6472 0.989316 0
M  V30 4658 H 448.315 7.59772 1.41303 0
M  V30 4659 H 446.66 6.83156 1.27761 0
M  V30 4660 H 449.851 4.53907 1.14394 0
M  V30 4661 H 450.024 6.34049 1.33738 0
M  V30 4662 N 443.43 -0.535701 1.48216 0
M  V30 4663 C 444.36 -1.65014 1.65204 0
M  V30 4664 C 445.341 -1.62554 0.501011 0
M  V30 4665 O 446.526 -1.7984 0.732886 0
M  V30 4666 C 443.656 -3.03616 1.68626 0
M  V30 4667 C 442.61 -3.20932 2.83172 0
M  V30 4668 C 441.936 -4.60537 2.71679 0
M  V30 4669 C 443.236 -3.04249 4.24535 0
M  V30 4670 H 444.93 -1.51053 2.58502 0
M  V30 4671 H 442.476 -0.725262 1.24402 0
M  V30 4672 H 444.429 -3.81446 1.79099 0
M  V30 4673 H 443.153 -3.18587 0.719026 0
M  V30 4674 H 441.812 -2.45517 2.72244 0
M  V30 4675 H 441.46 -4.72336 1.72937 0
M  V30 4676 H 441.16 -4.73069 3.48538 0
M  V30 4677 H 442.684 -5.40475 2.84112 0
M  V30 4678 H 444.098 -3.71877 4.36326 0
M  V30 4679 H 442.495 -3.28278 5.02348 0
M  V30 4680 H 443.565 -2.00739 4.41397 0
M  V30 4681 N 444.908 -1.36708 -0.784132 0
M  V30 4682 C 445.856 -1.31533 -1.91838 0
M  V30 4683 C 446.85 -0.206205 -1.6814 0
M  V30 4684 O 448.056 -0.373519 -1.76082 0
M  V30 4685 H 444.431 -0.409613 -0.630651 0
M  V30 4686 H 446.402 -2.2731 -1.9332 0
M  V30 4687 C 445.151 -1.12679 -3.28936 0
M  V30 4688 H 444.474 -1.97274 -3.4774 0
M  V30 4689 H 445.914 -1.13106 -4.08636 0
M  V30 4690 C 444.373 0.168281 -3.36479 0
M  V30 4691 O 444.903 1.15625 -3.84699 0
M  V30 4692 N 443.109 0.214762 -2.89805 0
M  V30 4693 H 442.656 -0.589852 -2.50756 0
M  V30 4694 H 442.614 1.08094 -2.95234 0
M  V30 4695 N 446.386 1.0089 -1.21074 0
M  V30 4696 C 447.632 1.74866 -1.02712 0
M  V30 4697 C 447.965 1.89178 0.438787 0
M  V30 4698 O 447.24 1.42325 1.32567 0
M  V30 4699 C 447.523 3.16347 -1.72036 0
M  V30 4700 C 447.376 3.09782 -3.26121 0
M  V30 4701 C 448.695 4.15187 -1.45973 0
M  V30 4702 H 445.814 0.634736 -0.374539 0
M  V30 4703 H 448.456 1.17646 -1.49196 0
M  V30 4704 H 446.606 3.65201 -1.32517 0
M  V30 4705 H 448.278 2.68673 -3.74983 0
M  V30 4706 H 446.521 2.46982 -3.56626 0
M  V30 4707 H 447.192 4.09829 -3.6979 0
M  V30 4708 H 449.668 3.75022 -1.80272 0
M  V30 4709 H 448.544 5.12331 -1.96999 0
M  V30 4710 H 448.805 4.40386 -0.388924 0
M  V30 4711 N 447.864 1.01787 1.20321 0
M  V30 4712 C 449.113 0.703249 1.89043 0
M  V30 4713 C 449.426 -0.770445 1.79787 0
M  V30 4714 O 450.632 -1.19767 2.43656 0
M  V30 4715 C 449.088 1.20749 3.3904 0
M  V30 4716 C 448.696 2.70817 3.56878 0
M  V30 4717 C 450.44 0.968352 4.13308 0
M  V30 4718 C 448.347 3.14716 5.00708 0
M  V30 4719 H 447.277 0.259354 0.707991 0
M  V30 4720 H 449.928 1.23072 1.36108 0
M  V30 4721 H 448.31 0.607989 3.91305 0
M  V30 4722 H 449.484 3.36327 3.14993 0
M  V30 4723 H 447.799 2.92888 2.95983 0
M  V30 4724 H 450.396 1.27173 5.19356 0
M  V30 4725 H 450.739 -0.095149 4.16191 0
M  V30 4726 H 451.272 1.53129 3.67146 0
M  V30 4727 H 448.011 4.20347 5.02979 0
M  V30 4728 H 447.531 2.53927 5.43398 0
M  V30 4729 H 449.21 3.07426 5.69296 0
M  V30 4730 N 449.342 -1.36122 0.79427 0
M  V30 4731 C 450.758 -1.5232 0.476525 0
M  V30 4732 C 450.958 -1.74685 -1.00436 0
M  V30 4733 O 450.014 -1.78115 -1.78973 0
M  V30 4734 C 451.327 -2.70607 1.31119 0
M  V30 4735 C 452.875 -2.8448 1.30537 0
M  V30 4736 C 453.35 -4.05778 2.12387 0
M  V30 4737 N 454.841 -4.12933 2.09859 0
M  V30 4738 C 455.576 -5.05876 2.69957 0
M  V30 4739 N 455.072 -6.04232 3.38934 0
M  V30 4740 N 456.865 -4.98528 2.59665 0
M  V30 4741 H 449.016 -1.1986 1.75349 0
M  V30 4742 H 451.279 -0.585418 0.745647 0
M  V30 4743 H 450.985 -2.60619 2.36158 0
M  V30 4744 H 450.859 -3.64888 0.955843 0
M  V30 4745 H 453.246 -2.93927 0.262876 0
M  V30 4746 H 453.327 -1.91093 1.70051 0
M  V30 4747 H 452.971 -3.97092 3.1667 0
M  V30 4748 H 452.901 -4.98323 1.70242 0
M  V30 4749 H 455.392 -3.42515 1.59662 0
M  V30 4750 H 455.705 -6.71724 3.82109 0
M  V30 4751 H 454.05 -6.04443 3.43036 0
M  V30 4752 H 457.241 -4.20641 2.05375 0
M  V30 4753 H 457.414 -5.70773 3.06793 0
M  V30 4754 N 450.82 -0.546701 -1.47814 0
M  V30 4755 C 452.069 -0.0166497 -2.01693 0
M  V30 4756 C 452.382 1.33721 -1.42752 0
M  V30 4757 O 453.588 1.95658 -1.8823 0
M  V30 4758 C 452.044 0.0206769 -3.59894 0
M  V30 4759 C 451.652 -1.3293 -4.27824 0
M  V30 4760 C 453.396 0.498674 -4.21561 0
M  V30 4761 C 451.303 -1.25165 -5.78003 0
M  V30 4762 H 450.233 -0.0024541 -0.753996 0
M  V30 4763 H 452.884 -0.692984 -1.69912 0
M  V30 4764 H 451.266 0.76244 -3.88591 0
M  V30 4765 H 452.44 -2.08795 -4.10781 0
M  V30 4766 H 450.755 -1.74438 -3.78101 0
M  V30 4767 H 453.352 0.575 -5.31599 0
M  V30 4768 H 453.695 1.5083 -3.88016 0
M  V30 4769 H 454.228 -0.18791 -3.97356 0
M  V30 4770 H 450.967 -2.23695 -6.1615 0
M  V30 4771 H 450.487 -0.53464 -5.97412 0
M  V30 4772 H 452.166 -0.949299 -6.39998 0
M  V30 4773 N 452.299 1.55045 -0.282633 0
M  V30 4774 C 453.249 2.19514 0.616249 0
M  V30 4775 C 454.233 1.16216 1.11277 0
M  V30 4776 O 455.425 1.42004 1.05659 0
M  V30 4777 C 452.554 2.92548 1.7964 0
M  V30 4778 C 451.64 4.03142 1.31671 0
M  V30 4779 N 452.031 5.0276 0.553695 0
M  V30 4780 C 450.329 4.1635 1.59903 0
M  V30 4781 C 451.03 5.80923 0.30054 0
M  V30 4782 N 450.006 5.3651 0.875116 0
M  V30 4783 H 453.808 2.93889 0.0255363 0
M  V30 4784 H 451.322 1.62169 -0.0865362 0
M  V30 4785 H 453.319 3.37188 2.45173 0
M  V30 4786 H 451.979 2.19685 2.39099 0
M  V30 4787 H 452.99 5.17512 0.20032 0
M  V30 4788 H 449.667 3.54682 2.20243 0
M  V30 4789 H 451.057 6.7118 -0.311053 0
M  V30 4790 N 453.777 0.010035 1.57597 0
M  V30 4791 C 454.707 -0.976857 2.12084 0
M  V30 4792 C 455.688 -1.35191 1.03235 0
M  V30 4793 O 456.873 -1.43389 1.3097 0
M  V30 4794 C 454.003 -2.26548 2.63236 0
M  V30 4795 C 452.957 -2.03175 3.76701 0
M  V30 4796 C 452.283 -3.38138 4.14206 0
M  V30 4797 C 453.583 -1.38625 5.03568 0
M  V30 4798 H 455.277 -0.523145 2.94794 0
M  V30 4799 H 452.823 -0.250195 1.4181 0
M  V30 4800 H 454.776 -2.95952 2.99984 0
M  V30 4801 H 453.5 -2.74051 1.77661 0
M  V30 4802 H 452.159 -1.36195 3.40362 0
M  V30 4803 H 451.807 -3.83363 3.25641 0
M  V30 4804 H 451.507 -3.23312 4.90656 0
M  V30 4805 H 453.031 -4.08841 4.53521 0
M  V30 4806 H 454.445 -1.98 5.38023 0
M  V30 4807 H 452.842 -1.34256 5.84889 0
M  V30 4808 H 453.912 -0.356722 4.83586 0
M  V30 4809 N 455.255 -1.55392 -0.262866 0
M  V30 4810 C 456.666 -1.67079 -0.833158 0
M  V30 4811 C 457.017 -0.604539 -1.86654 0
M  V30 4812 O 456.142 0.252138 -2.14926 0
M  V30 4813 C 456.737 -3.02891 -1.51797 0
M  V30 4814 C 455.296 -3.16571 -2.03617 0
M  V30 4815 C 454.443 -2.62909 -0.881701 0
M  V30 4816 H 457.394 -1.58652 -0.0389986 0
M  V30 4817 H 457.415 -2.96445 -2.38538 0
M  V30 4818 H 456.927 -3.80473 -0.765619 0
M  V30 4819 H 455.028 -2.43782 -2.81782 0
M  V30 4820 H 455.141 -4.23271 -2.24452 0
M  V30 4821 H 453.505 -2.20324 -1.27786 0
M  V30 4822 H 454.288 -3.43003 -0.14269 0
M  V30 4823 N 456.733 0.527833 -1.48498 0
M  V30 4824 C 458.144 1.10975 -1.50138 0
M  V30 4825 C 458.495 1.943 -0.272378 0
M  V30 4826 O 457.62 2.07319 0.620301 0
M  V30 4827 C 458.215 2.01927 -2.72049 0
M  V30 4828 C 456.774 2.55332 -2.76554 0
M  V30 4829 C 455.921 1.32341 -2.43683 0
M  V30 4830 H 458.872 0.312986 -1.55583 0
M  V30 4831 H 458.893 2.86244 -2.50689 0
M  V30 4832 H 458.405 1.41254 -3.61481 0
M  V30 4833 H 456.506 3.19721 -1.91336 0
M  V30 4834 H 456.619 2.94319 -3.78038 0
M  V30 4835 H 454.983 1.63989 -1.94884 0
M  V30 4836 H 455.766 0.734165 -3.35358 0
M  V30 4837 N 458.211 1.37122 0.776871 0
M  V30 4838 C 459.141 1.35164 1.90402 0
M  V30 4839 C 460.122 0.221069 1.68657 0
M  V30 4840 O 461.307 0.420642 1.8959 0
M  V30 4841 C 458.437 1.15274 3.27611 0
M  V30 4842 C 457.391 2.25289 3.63908 0
M  V30 4843 C 456.717 1.90527 4.99603 0
M  V30 4844 C 458.017 3.67446 3.71188 0
M  V30 4845 H 459.711 2.29482 1.92297 0
M  V30 4846 H 457.257 1.10465 0.923773 0
M  V30 4847 H 459.21 1.12536 4.06096 0
M  V30 4848 H 457.934 0.174102 3.26136 0
M  V30 4849 H 456.593 2.27174 2.87728 0
M  V30 4850 H 456.241 0.91206 4.94662 0
M  V30 4851 H 455.941 2.64193 5.24858 0
M  V30 4852 H 457.465 1.89367 5.80493 0
M  V30 4853 H 458.879 3.67719 4.39836 0
M  V30 4854 H 457.276 4.40123 4.07936 0
M  V30 4855 H 458.346 4.01443 2.71977 0
M  V30 4856 N 459.689 -1.00246 1.21608 0
M  V30 4857 C 461.105 -1.26435 0.973975 0
M  V30 4858 C 461.305 -1.98642 -0.338143 0
M  V30 4859 O 460.361 -2.29026 -1.06317 0
M  V30 4860 C 461.674 -2.08551 2.16626 0
M  V30 4861 C 463.222 -2.21769 2.20879 0
M  V30 4862 C 463.697 -3.07267 3.39633 0
M  V30 4863 N 465.188 -3.14855 3.39736 0
M  V30 4864 C 465.923 -3.81274 4.28273 0
M  V30 4865 N 465.419 -4.497 5.27012 0
M  V30 4866 N 467.212 -3.7794 4.16074 0
M  V30 4867 H 459.363 -0.518089 2.05984 0
M  V30 4868 H 461.626 -0.291368 0.902113 0
M  V30 4869 H 461.332 -1.62847 3.11727 0
M  V30 4870 H 461.206 -3.09303 2.15897 0
M  V30 4871 H 463.593 -2.66691 1.26332 0
M  V30 4872 H 463.674 -1.20478 2.25652 0
M  V30 4873 H 463.318 -2.63047 4.34475 0
M  V30 4874 H 463.248 -4.08678 3.321 0
M  V30 4875 H 465.739 -2.66147 2.6828 0
M  V30 4876 H 466.052 -4.98092 5.90867 0
M  V30 4877 H 464.397 -4.48479 5.30935 0
M  V30 4878 H 467.588 -3.23638 3.38195 0
M  V30 4879 H 467.761 -4.29424 4.85282 0
M  V30 4880 N 461.167 -1.02423 -1.1978 0
M  V30 4881 C 462.077 -0.610919 -2.26506 0
M  V30 4882 C 463.093 0.355152 -1.70337 0
M  V30 4883 O 464.269 0.214195 -2.00258 0
M  V30 4884 C 461.334 0.0365921 -3.46681 0
M  V30 4885 C 460.395 -0.976389 -4.18049 0
M  V30 4886 C 459.628 -0.359683 -5.32487 0
M  V30 4887 O 459.851 0.838601 -5.64202 0
M  V30 4888 O 458.785 -1.08022 -5.92127 0
M  V30 4889 H 462.611 -1.49965 -2.64091 0
M  V30 4890 H 460.196 -0.794156 -1.26545 0
M  V30 4891 H 462.078 0.39786 -4.19518 0
M  V30 4892 H 460.753 0.899398 -3.10954 0
M  V30 4893 H 459.66 -1.38916 -3.47352 0
M  V30 4894 H 460.993 -1.80941 -4.57735 0
M  V30 4895 N 462.645 1.35699 -0.801477 0
M  V30 4896 C 464.061 1.52065 -0.484596 0
M  V30 4897 C 464.261 1.75215 0.995084 0
M  V30 4898 O 463.317 1.79061 1.78026 0
M  V30 4899 C 464.63 2.69908 -1.32552 0
M  V30 4900 C 466.178 2.83784 -1.32044 0
M  V30 4901 C 466.653 4.04646 -2.14536 0
M  V30 4902 N 468.144 4.11814 -2.12046 0
M  V30 4903 C 468.879 5.04437 -2.72636 0
M  V30 4904 N 468.375 6.02426 -3.42133 0
M  V30 4905 N 470.168 4.97144 -2.62305 0
M  V30 4906 H 462.319 1.18928 -1.75983 0
M  V30 4907 H 464.582 0.581455 -0.748741 0
M  V30 4908 H 464.288 2.59363 -2.37537 0
M  V30 4909 H 464.162 3.64376 -0.975181 0
M  V30 4910 H 466.549 2.93783 -0.27846 0
M  V30 4911 H 466.63 1.90188 -1.71062 0
M  V30 4912 H 466.274 3.95407 -3.18772 0
M  V30 4913 H 466.204 4.97413 -1.72882 0
M  V30 4914 H 468.695 3.41664 -1.61476 0
M  V30 4915 H 469.008 6.69688 -3.85666 0
M  V30 4916 H 467.353 6.02615 -3.46237 0
M  V30 4917 H 470.544 4.19546 -2.07603 0
M  V30 4918 H 470.717 5.69138 -3.09815 0
M  V30 4919 N 464.123 0.554532 1.47522 0
M  V30 4920 C 465.539 0.214107 1.58157 0
M  V30 4921 C 465.739 -1.28331 1.55349 0
M  V30 4922 O 464.795 -2.06329 1.45549 0
M  V30 4923 C 466.108 0.838391 2.88776 0
M  V30 4924 C 467.656 0.809374 3.02354 0
M  V30 4925 C 468.131 1.41268 4.35669 0
M  V30 4926 N 469.622 1.37574 4.42298 0
M  V30 4927 C 470.357 1.8122 5.4401 0
M  V30 4928 N 469.853 2.3271 6.52547 0
M  V30 4929 N 471.646 1.72307 5.35039 0
M  V30 4930 H 463.797 1.52744 1.4759 0
M  V30 4931 H 466.06 0.636812 0.702264 0
M  V30 4932 H 465.766 1.89065 2.96559 0
M  V30 4933 H 465.64 0.329847 3.75755 0
M  V30 4934 H 468.027 -0.234187 2.94169 0
M  V30 4935 H 468.108 1.35565 2.16924 0
M  V30 4936 H 467.752 2.45529 4.4461 0
M  V30 4937 H 467.682 0.841871 5.19827 0
M  V30 4938 H 470.173 0.999081 3.64454 0
M  V30 4939 H 470.486 2.63944 7.26329 0
M  V30 4940 H 468.831 2.36719 6.53444 0
M  V30 4941 H 472.022 1.3186 4.49144 0
M  V30 4942 H 472.195 2.06641 6.14169 0
M  V30 4943 N 465.601 -1.54893 0.290851 0
M  V30 4944 C 466.511 -2.26812 -0.59945 0
M  V30 4945 C 467.527 -1.29963 -1.15696 0
M  V30 4946 O 468.703 -1.62928 -1.18391 0
M  V30 4947 C 465.768 -2.98716 -1.75982 0
M  V30 4948 C 464.829 -4.1108 -1.2374 0
M  V30 4949 C 464.062 -4.79546 -2.34246 0
M  V30 4950 O 464.285 -4.47309 -3.53936 0
M  V30 4951 O 463.219 -5.67165 -2.01512 0
M  V30 4952 H 467.045 -3.03696 -0.0163561 0
M  V30 4953 H 464.63 -1.49289 0.0576755 0
M  V30 4954 H 466.512 -3.43851 -2.43607 0
M  V30 4955 H 465.187 -2.24737 -2.3297 0
M  V30 4956 H 464.094 -3.70367 -0.527163 0
M  V30 4957 H 465.427 -4.87007 -0.71307 0
M  V30 4958 N 467.08 -0.0183926 -1.57589 0
M  V30 4959 C 468.357 0.700621 -1.82622 0
M  V30 4960 C 468.737 1.90951 -0.90005 0
M  V30 4961 O 468.085 2.28452 0.0469145 0
M  V30 4962 C 468.295 1.08899 -3.31575 0
M  V30 4963 C 469.643 1.48514 -3.9778 0
M  V30 4964 O 470.667 1.18227 -3.36007 0
M  V30 4965 O 469.526 2.04903 -5.06633 0
M  V30 4966 H 466.62 0.342743 -0.752633 0
M  V30 4967 H 469.166 -0.0452548 -1.6964 0
M  V30 4968 H 467.938 0.228113 -3.90635 0
M  V30 4969 H 467.561 1.89338 -3.49624 0
M  V30 4970 N 468.558 1.5553 0.254621 0
M  V30 4971 C 469.807 1.76202 0.981612 0
M  V30 4972 C 470.12 0.580883 1.86776 0
M  V30 4973 O 471.326 0.670448 2.63092 0
M  V30 4974 C 469.782 3.11921 1.79537 0
M  V30 4975 C 469.39 4.37659 0.956991 0
M  V30 4976 C 471.134 3.41936 2.51555 0
M  V30 4977 C 469.041 5.64411 1.76619 0
M  V30 4978 H 467.971 0.656841 0.370237 0
M  V30 4979 H 470.622 1.81969 0.236556 0
M  V30 4980 H 469.004 3.00241 2.58208 0
M  V30 4981 H 470.178 4.60307 0.21315 0
M  V30 4982 H 468.493 4.14922 0.350497 0
M  V30 4983 H 471.09 4.33849 3.12536 0
M  V30 4984 H 471.433 2.62905 3.22779 0
M  V30 4985 H 471.966 3.54797 1.799 0
M  V30 4986 H 468.705 6.46241 1.09783 0
M  V30 4987 H 468.225 5.45877 2.48551 0
M  V30 4988 H 469.904 6.03386 2.33527 0
M  V30 4989 N 470.036 -0.519951 1.48776 0
M  V30 4990 C 471.447 -1.10177 1.50725 0
M  V30 4991 C 471.798 -1.94153 0.282678 0
M  V30 4992 O 470.923 -2.07645 -0.609298 0
M  V30 4993 C 471.518 -2.00482 2.73116 0
M  V30 4994 C 470.077 -2.53862 2.77905 0
M  V30 4995 C 469.224 -1.31047 2.44381 0
M  V30 4996 H 472.175 -0.30473 1.55747 0
M  V30 4997 H 472.196 -2.8491 2.52203 0
M  V30 4998 H 471.708 -1.39335 3.62225 0
M  V30 4999 H 469.809 -3.18702 1.93029 0
M  V30 5000 H 469.922 -2.9231 3.79594 0
M  V30 5001 H 468.286 -1.62953 1.95751 0
M  V30 5002 H 469.069 -0.71637 3.35743 0
M  V30 5003 N 471.514 -1.37532 -0.769588 0
M  V30 5004 C 472.93 -1.18379 -1.07045 0
M  V30 5005 C 473.13 -0.0214312 -2.01489 0
M  V30 5006 O 472.186 0.637809 -2.44312 0
M  V30 5007 C 473.499 -2.50338 -1.66588 0
M  V30 5008 C 475.047 -2.56879 -1.78835 0
M  V30 5009 C 475.522 -3.88974 -2.41792 0
M  V30 5010 N 477.013 -3.90428 -2.4924 0
M  V30 5011 C 477.748 -4.89388 -2.98809 0
M  V30 5012 N 477.244 -5.98745 -3.48535 0
M  V30 5013 N 479.037 -4.76791 -2.97703 0
M  V30 5014 H 471.188 -2.11921 -0.142541 0
M  V30 5015 H 473.451 -0.939608 -0.125863 0
M  V30 5016 H 473.157 -3.35767 -1.0466 0
M  V30 5017 H 473.031 -2.67583 -2.65856 0
M  V30 5018 H 475.418 -1.71856 -2.39895 0
M  V30 5019 H 475.499 -2.43516 -0.783166 0
M  V30 5020 H 475.143 -4.74412 -1.81371 0
M  V30 5021 H 475.073 -3.99641 -3.4292 0
M  V30 5022 H 477.564 -3.11433 -2.14052 0
M  V30 5023 H 477.877 -6.70205 -3.84767 0
M  V30 5024 H 476.222 -6.02387 -3.46634 0
M  V30 5025 H 479.413 -3.90478 -2.58157 0
M  V30 5026 H 479.586 -5.54069 -3.36024 0
M  V30 5027 N 472.992 0.995999 -1.22138 0
M  V30 5028 C 473.922 2.10387 -1.01289 0
M  V30 5029 C 474.903 1.69975 0.0651454 0
M  V30 5030 O 476.088 1.9396 -0.0964628 0
M  V30 5031 C 473.218 3.42312 -0.586517 0
M  V30 5032 C 472.172 3.96558 -1.61014 0
M  V30 5033 C 471.498 5.24494 -1.0397 0
M  V30 5034 C 472.798 4.27595 -2.99933 0
M  V30 5035 H 474.492 2.28086 -1.93951 0
M  V30 5036 H 472.038 1.09607 -0.933928 0
M  V30 5037 H 473.991 4.19223 -0.427793 0
M  V30 5038 H 472.715 3.24431 0.375761 0
M  V30 5039 H 471.374 3.21776 -1.75658 0
M  V30 5040 H 471.022 5.02953 -0.0688703 0
M  V30 5041 H 470.722 5.61755 -1.72352 0
M  V30 5042 H 472.246 6.04042 -0.892494 0
M  V30 5043 H 473.66 4.95315 -2.8868 0
M  V30 5044 H 472.057 4.76021 -3.6541 0
M  V30 5045 H 473.127 3.35498 -3.50099 0
M  V30 5046 N 474.47 1.03057 1.19235 0
M  V30 5047 C 475.433 0.617418 2.20727 0
M  V30 5048 C 476.433 -0.319856 1.57587 0
M  V30 5049 O 477.623 -0.106633 1.73873 0
M  V30 5050 C 474.755 -0.096296 3.40764 0
M  V30 5051 H 475.948 1.51544 2.58794 0
M  V30 5052 H 473.501 0.821949 1.32942 0
M  V30 5053 H 474.236 -1.00859 3.08217 0
M  V30 5054 H 474.021 0.577217 3.87828 0
M  V30 5055 H 475.511 -0.372219 4.15938 0
M  V30 5056 N 475.948 -1.35272 0.808662 0
M  V30 5057 C 477.364 -1.51806 0.492653 0
M  V30 5058 C 477.564 -1.7574 -0.985778 0
M  V30 5059 O 476.62 -1.80003 -1.77074 0
M  V30 5060 C 477.933 -2.69202 1.33981 0
M  V30 5061 C 479.481 -2.8308 1.33547 0
M  V30 5062 C 479.956 -4.03502 2.16679 0
M  V30 5063 N 481.447 -4.10684 2.14227 0
M  V30 5064 C 482.182 -5.02984 2.75308 0
M  V30 5065 N 481.678 -6.00603 3.45323 0
M  V30 5066 N 483.471 -4.95746 2.64938 0
M  V30 5067 H 475.622 -1.17993 1.76611 0
M  V30 5068 H 477.885 -0.577476 0.751814 0
M  V30 5069 H 477.591 -2.581 2.38909 0
M  V30 5070 H 477.465 -3.63854 0.994491 0
M  V30 5071 H 479.852 -2.93631 0.294036 0
M  V30 5072 H 479.933 -1.89278 1.72068 0
M  V30 5073 H 479.577 -3.93711 3.20864 0
M  V30 5074 H 479.507 -4.96489 1.75517 0
M  V30 5075 H 481.998 -3.40802 1.63285 0
M  V30 5076 H 482.311 -6.67633 3.89212 0
M  V30 5077 H 480.656 -6.0077 3.49428 0
M  V30 5078 H 483.847 -4.18439 2.09825 0
M  V30 5079 H 484.02 -5.67487 3.12829 0
M  V30 5080 N 477.426 -0.562348 -1.47226 0
M  V30 5081 C 478.376 0.202967 -2.27095 0
M  V30 5082 C 479.36 0.880611 -1.34663 0
M  V30 5083 O 480.552 0.778069 -1.58981 0
M  V30 5084 C 477.681 1.22906 -3.20545 0
M  V30 5085 C 476.767 0.554566 -4.20459 0
M  V30 5086 N 477.158 -0.378295 -5.04383 0
M  V30 5087 C 475.456 0.807854 -4.38623 0
M  V30 5088 C 476.157 -0.770583 -5.76573 0
M  V30 5089 N 475.133 -0.124263 -5.43458 0
M  V30 5090 H 478.935 -0.514196 -2.89367 0
M  V30 5091 H 476.449 -0.382655 -1.57827 0
M  V30 5092 H 478.446 1.79134 -3.76453 0
M  V30 5093 H 477.106 1.94726 -2.59831 0
M  V30 5094 H 478.117 -0.75274 -5.124 0
M  V30 5095 H 474.794 1.51418 -3.89075 0
M  V30 5096 H 476.184 -1.53742 -6.54074 0
M  V30 5097 N 478.904 1.54736 -0.299062 0
M  V30 5098 C 480.151 2.00101 0.310784 0
M  V30 5099 C 480.479 1.18746 1.54045 0
M  V30 5100 O 479.734 0.251198 1.94081 0
M  V30 5101 C 480.033 3.50199 0.713835 0
M  V30 5102 C 479.699 4.48997 -0.413873 0
M  V30 5103 C 478.361 4.7573 -0.723462 0
M  V30 5104 C 480.713 5.07839 -1.17257 0
M  V30 5105 C 478.041 5.5857 -1.79491 0
M  V30 5106 C 480.393 5.91844 -2.23392 0
M  V30 5107 C 479.057 6.16889 -2.54959 0
M  V30 5108 H 478.327 0.732221 0.113724 0
M  V30 5109 H 480.974 1.86888 -0.417756 0
M  V30 5110 H 479.279 3.61012 1.52243 0
M  V30 5111 H 480.976 3.82723 1.19684 0
M  V30 5112 H 477.566 4.28292 -0.162476 0
M  V30 5113 H 481.75 4.87188 -0.946651 0
M  V30 5114 H 477.006 5.76213 -2.04423 0
M  V30 5115 H 481.18 6.36465 -2.8264 0
M  V30 5116 H 478.807 6.80869 -3.38114 0
M  V30 5117 N 480.382 0.0267497 1.57577 0
M  V30 5118 C 481.312 -0.954308 2.13108 0
M  V30 5119 C 482.293 -1.34088 1.04663 0
M  V30 5120 O 483.478 -1.41992 1.32484 0
M  V30 5121 C 480.608 -2.23744 2.65624 0
M  V30 5122 C 479.562 -1.99168 3.78835 0
M  V30 5123 C 478.888 -3.33726 4.17769 0
M  V30 5124 C 480.188 -1.33277 5.0501 0
M  V30 5125 H 481.882 -0.491848 2.95332 0
M  V30 5126 H 479.428 -0.23514 1.42067 0
M  V30 5127 H 481.381 -2.92754 3.03106 0
M  V30 5128 H 480.105 -2.72151 1.80558 0
M  V30 5129 H 478.764 -1.32577 3.41788 0
M  V30 5130 H 478.412 -3.79888 3.29688 0
M  V30 5131 H 478.112 -3.18089 4.94058 0
M  V30 5132 H 479.636 -4.04008 4.57832 0
M  V30 5133 H 481.05 -1.92283 5.40093 0
M  V30 5134 H 479.447 -1.28045 5.8628 0
M  V30 5135 H 480.517 -0.305411 4.83937 0
M  V30 5136 N 481.861 -1.55662 -0.24637 0
M  V30 5137 C 482.793 -1.86811 -1.32794 0
M  V30 5138 C 483.806 -0.754413 -1.44265 0
M  V30 5139 O 484.995 -1.03253 -1.45606 0
M  V30 5140 C 482.095 -2.0397 -2.70646 0
M  V30 5141 C 481.268 -3.34832 -2.81436 0
M  V30 5142 C 480.327 -3.41727 -4.00136 0
M  V30 5143 O 479.353 -4.14934 -3.89639 0
M  V30 5144 N 480.555 -2.71058 -5.1333 0
M  V30 5145 H 483.32 -2.80174 -1.06409 0
M  V30 5146 H 480.881 -1.55906 -0.43647 0
M  V30 5147 H 482.873 -2.05924 -3.48393 0
M  V30 5148 H 481.443 -1.1735 -2.89738 0
M  V30 5149 H 480.663 -3.4519 -1.90361 0
M  V30 5150 H 481.951 -4.21085 -2.85595 0
M  V30 5151 H 481.349 -2.11314 -5.2475 0
M  V30 5152 H 479.906 -2.78704 -5.89209 0
M  V30 5153 N 483.339 0.512053 -1.4905 0
M  V30 5154 C 484.585 1.26874 -1.58212 0
M  V30 5155 C 484.918 1.9241 -0.263073 0
M  V30 5156 O 484.193 1.80181 0.732476 0
M  V30 5157 C 484.476 2.34428 -2.73341 0
M  V30 5158 C 484.329 1.73466 -4.15006 0
M  V30 5159 C 485.648 3.36073 -2.84154 0
M  V30 5160 H 482.767 0.459924 -0.575881 0
M  V30 5161 H 485.409 0.568587 -1.81293 0
M  V30 5162 H 483.559 2.94146 -2.53792 0
M  V30 5163 H 485.231 1.17661 -4.46042 0
M  V30 5164 H 483.474 1.03921 -4.21168 0
M  V30 5165 H 484.145 2.51426 -4.91415 0
M  V30 5166 H 486.621 2.86332 -3.01916 0
M  V30 5167 H 485.497 4.08703 -3.66406 0
M  V30 5168 H 485.758 3.97725 -1.93048 0
M  V30 5169 N 484.817 1.37938 0.762283 0
M  V30 5170 C 485.78 1.34279 1.85747 0
M  V30 5171 C 486.78 0.244969 1.58923 0
M  V30 5172 O 487.97 0.501365 1.66829 0
M  V30 5173 C 485.102 1.08833 3.23061 0
M  V30 5174 H 486.295 2.31705 1.90401 0
M  V30 5175 H 483.848 1.23105 0.963057 0
M  V30 5176 H 484.583 0.119767 3.24079 0
M  V30 5177 H 484.368 1.88306 3.43923 0
M  V30 5178 H 485.858 1.08946 4.03138 0
M  V30 5179 N 486.295 -0.989507 1.22664 0
M  V30 5180 C 487.258 -2.06183 1.00106 0
M  V30 5181 C 488.258 -1.60765 -0.0337726 0
M  V30 5182 O 489.448 -1.72989 0.205072 0
M  V30 5183 C 486.58 -3.37021 0.51279 0
M  V30 5184 H 487.773 -2.27629 1.95256 0
M  V30 5185 H 485.326 -1.16158 1.0458 0
M  V30 5186 H 486.061 -3.21261 -0.442917 0
M  V30 5187 H 485.846 -3.71323 1.25942 0
M  V30 5188 H 487.336 -4.1591 0.375315 0
M  V30 5189 N 487.773 -1.03688 -1.18687 0
M  V30 5190 C 489.189 -0.755413 -1.4059 0
M  V30 5191 C 489.389 0.656659 -1.905 0
M  V30 5192 O 488.445 1.42144 -2.08689 0
M  V30 5193 C 489.758 -1.7983 -2.41001 0
M  V30 5194 C 491.306 -1.81877 -2.54735 0
M  V30 5195 C 491.781 -2.85148 -3.58406 0
M  V30 5196 N 493.272 -2.84015 -3.6591 0
M  V30 5197 C 494.007 -3.60573 -4.45841 0
M  V30 5198 N 493.503 -4.46871 -5.29413 0
M  V30 5199 N 495.296 -3.49079 -4.40568 0
M  V30 5200 H 487.447 -1.94818 -0.846148 0
M  V30 5201 H 489.71 -0.842727 -0.434184 0
M  V30 5202 H 489.416 -2.81097 -2.1137 0
M  V30 5203 H 489.29 -1.62727 -3.40294 0
M  V30 5204 H 491.677 -0.812836 -2.83685 0
M  V30 5205 H 491.758 -2.03057 -1.55568 0
M  V30 5206 H 491.402 -3.85918 -3.30197 0
M  V30 5207 H 491.332 -2.61224 -4.57241 0
M  V30 5208 H 493.823 -2.21431 -3.0623 0
M  V30 5209 H 494.136 -5.02007 -5.87545 0
M  V30 5210 H 492.481 -4.5094 -5.28846 0
M  V30 5211 H 495.672 -2.81066 -3.74325 0
M  V30 5212 H 495.845 -4.08994 -5.02621 0
M  V30 5213 N 489.251 1.34841 -0.815825 0
M  V30 5214 C 490.161 2.33425 -0.234462 0
M  V30 5215 C 491.177 1.62295 0.627413 0
M  V30 5216 O 492.353 1.94109 0.536987 0
M  V30 5217 C 489.418 3.41471 0.599849 0
M  V30 5218 C 488.479 4.28362 -0.283596 0
M  V30 5219 C 487.712 5.31248 0.51099 0
M  V30 5220 O 487.935 5.43056 1.7449 0
M  V30 5221 O 486.869 6.01812 -0.10297 0
M  V30 5222 H 490.695 2.84962 -1.05024 0
M  V30 5223 H 488.28 1.37774 -0.577809 0
M  V30 5224 H 490.162 4.07464 1.07475 0
M  V30 5225 H 488.837 2.9219 1.39308 0
M  V30 5226 H 487.744 3.65318 -0.805836 0
M  V30 5227 H 489.077 4.81066 -1.041 0
M  V30 5228 N 490.729 0.570148 1.46925 0
M  V30 5229 C 491.659 -0.158274 2.32963 0
M  V30 5230 C 492.64 -0.896093 1.44583 0
M  V30 5231 O 493.825 -0.874022 1.7342 0
M  V30 5232 C 490.955 -1.18055 3.26619 0
M  V30 5233 C 489.909 -0.558379 4.24342 0
M  V30 5234 C 489.235 -1.68623 5.07415 0
M  V30 5235 C 490.535 0.496295 5.19937 0
M  V30 5236 H 492.229 0.560046 2.94115 0
M  V30 5237 H 489.775 0.270775 1.41431 0
M  V30 5238 H 491.728 -1.69841 3.85658 0
M  V30 5239 H 490.452 -1.92899 2.63548 0
M  V30 5240 H 489.111 -0.0617157 3.66548 0
M  V30 5241 H 488.759 -2.42402 4.40738 0
M  V30 5242 H 488.459 -1.27564 5.73586 0
M  V30 5243 H 489.983 -2.20709 5.69315 0
M  V30 5244 H 491.397 0.0640052 5.73264 0
M  V30 5245 H 489.794 0.82649 5.94381 0
M  V30 5246 H 490.864 1.38735 4.6463 0
M  V30 5247 N 492.207 -1.54576 0.307264 0
M  V30 5248 C 493.455 -1.99867 -0.299574 0
M  V30 5249 C 493.776 -1.19714 -1.53927 0
M  V30 5250 O 493.046 -0.29472 -1.9367 0
M  V30 5251 H 491.626 -0.738299 -0.113683 0
M  V30 5252 H 494.288 -1.9032 0.420042 0
M  V30 5253 H 493.384 -3.06901 -0.567283 0
M  V30 5254 N 493.685 -0.035106 -1.57561 0
M  V30 5255 C 494.931 0.64318 -1.92331 0
M  V30 5256 C 495.264 1.71434 -0.912368 0
M  V30 5257 O 494.539 1.94395 0.0640303 0
M  V30 5258 C 494.822 1.25411 -3.37556 0
M  V30 5259 C 494.675 0.192109 -4.4939 0
M  V30 5260 C 495.994 2.17041 -3.82859 0
M  V30 5261 H 493.113 0.232341 -0.699419 0
M  V30 5262 H 495.755 -0.0935889 -1.89769 0
M  V30 5263 H 493.905 1.88205 -3.39869 0
M  V30 5264 H 495.577 -0.438849 -4.59208 0
M  V30 5265 H 493.82 -0.481725 -4.31117 0
M  V30 5266 H 494.491 0.659292 -5.48049 0
M  V30 5267 H 496.967 1.64228 -3.8232 0
M  V30 5268 H 495.843 2.56738 -4.85157 0
M  V30 5269 H 496.104 3.06401 -3.18702 0
M  V30 5270 N 495.163 1.55791 0.238111 0
M  V30 5271 C 496.073 1.94196 1.31625 0
M  V30 5272 C 497.089 0.843545 1.52185 0
M  V30 5273 O 498.265 1.1457 1.65637 0
M  V30 5274 C 495.33 2.2365 2.64918 0
M  V30 5275 C 494.391 3.46971 2.52804 0
M  V30 5276 C 493.624 3.7501 3.79741 0
M  V30 5277 O 493.847 3.04982 4.82019 0
M  V30 5278 O 492.781 4.68525 3.77846 0
M  V30 5279 H 496.607 2.86044 1.02043 0
M  V30 5280 H 494.192 1.42786 0.439603 0
M  V30 5281 H 496.074 2.43863 3.4367 0
M  V30 5282 H 494.749 1.34979 2.94215 0
M  V30 5283 H 493.656 3.32055 1.72309 0
M  V30 5284 H 494.989 4.35971 2.28451 0
M  V30 5285 N 496.642 -0.504142 1.49319 0
M  V30 5286 C 497.605 -1.5883 1.65244 0
M  V30 5287 C 498.605 -1.52009 0.524386 0
M  V30 5288 O 499.795 -1.55218 0.79077 0
M  V30 5289 C 496.927 -2.98481 1.64687 0
M  V30 5290 H 498.12 -1.4604 2.61939 0
M  V30 5291 H 495.673 -0.728144 1.38303 0
M  V30 5292 H 496.408 -3.16751 0.695644 0
M  V30 5293 H 496.193 -3.0484 2.46607 0
M  V30 5294 H 497.683 -3.77256 1.79075 0
M  V30 5295 N 498.12 -1.38341 -0.754957 0
M  V30 5296 C 499.067 -1.3546 -1.86867 0
M  V30 5297 C 500.037 -0.217369 -1.64672 0
M  V30 5298 O 501.222 -0.409383 -1.86356 0
M  V30 5299 C 498.362 -1.18413 -3.24149 0
M  V30 5300 C 497.475 -2.41511 -3.58185 0
M  V30 5301 C 496.61 -2.17205 -4.84763 0
M  V30 5302 C 495.649 -3.36081 -5.11582 0
M  V30 5303 N 494.786 -3.11219 -6.29354 0
M  V30 5304 H 499.626 -2.30672 -1.88664 0
M  V30 5305 H 497.163 -1.14607 -0.922154 0
M  V30 5306 H 499.121 -1.06545 -4.03366 0
M  V30 5307 H 497.751 -0.268397 -3.21682 0
M  V30 5308 H 496.803 -2.64056 -2.73822 0
M  V30 5309 H 498.115 -3.30115 -3.73932 0
M  V30 5310 H 497.269 -2.02465 -5.7192 0
M  V30 5311 H 496.008 -1.25964 -4.71152 0
M  V30 5312 H 495.013 -3.51341 -4.22894 0
M  V30 5313 H 496.238 -4.28196 -5.27091 0
M  V30 5314 H 494.184 -2.22624 -6.17069 0
M  V30 5315 H 494.101 -3.93373 -6.45596 0
M  V30 5316 H 495.369 -3.00132 -7.19403 0
M  V30 5317 N 499.598 0.982988 -1.23187 0
M  V30 5318 C 500.528 2.09301 -1.03515 0
M  V30 5319 C 501.509 1.70035 0.0471136 0
M  V30 5320 O 502.694 1.93847 -0.117029 0
M  V30 5321 C 499.824 3.4167 -0.622791 0
M  V30 5322 C 498.778 3.94828 -1.65211 0
M  V30 5323 C 498.104 5.23362 -1.09527 0
M  V30 5324 C 499.404 4.2439 -3.04451 0
M  V30 5325 H 501.098 2.26016 -1.96359 0
M  V30 5326 H 498.644 1.08611 -0.945501 0
M  V30 5327 H 500.597 4.18746 -0.472233 0
M  V30 5328 H 499.321 3.24811 0.341329 0
M  V30 5329 H 497.98 3.19895 -1.79061 0
M  V30 5330 H 497.628 5.02852 -0.122211 0
M  V30 5331 H 497.328 5.59895 -1.783 0
M  V30 5332 H 498.852 6.03062 -0.956511 0
M  V30 5333 H 500.266 4.92225 -2.93917 0
M  V30 5334 H 498.663 4.72118 -3.70438 0
M  V30 5335 H 499.733 3.31765 -3.53638 0
M  V30 5336 N 501.076 1.04316 1.18135 0
M  V30 5337 C 502.006 0.657299 2.24058 0
M  V30 5338 C 502.987 -0.340678 1.66654 0
M  V30 5339 O 504.172 -0.220223 1.92947 0
M  V30 5340 C 501.302 0.0220715 3.47293 0
M  V30 5341 C 500.256 0.943857 4.17463 0
M  V30 5342 C 499.582 0.172973 5.3442 0
M  V30 5343 C 500.882 2.26409 4.70677 0
M  V30 5344 H 502.576 1.5428 2.56589 0
M  V30 5345 H 500.122 0.743263 1.23335 0
M  V30 5346 H 502.075 -0.259607 4.206 0
M  V30 5347 H 500.799 -0.898323 3.14003 0
M  V30 5348 H 499.458 1.20996 3.46057 0
M  V30 5349 H 499.106 -0.749907 4.97379 0
M  V30 5350 H 498.806 0.787098 5.82304 0
M  V30 5351 H 500.33 -0.101628 6.10515 0
M  V30 5352 H 501.744 2.04294 5.35665 0
M  V30 5353 H 500.141 2.8314 5.29105 0
M  V30 5354 H 501.211 2.90883 3.87962 0
M  V30 5355 N 502.554 -1.34406 0.822964 0
M  V30 5356 C 503.504 -2.26963 0.217208 0
M  V30 5357 C 504.488 -1.48536 -0.618545 0
M  V30 5358 O 505.68 -1.7056 -0.473118 0
M  V30 5359 C 502.809 -3.37655 -0.619973 0
M  V30 5360 C 501.895 -4.23495 0.226411 0
M  V30 5361 N 502.286 -4.88876 1.29744 0
M  V30 5362 C 500.584 -4.45999 0.0107554 0
M  V30 5363 C 501.285 -5.52642 1.81553 0
M  V30 5364 N 500.261 -5.31949 1.11942 0
M  V30 5365 H 504.063 -2.75017 1.03647 0
M  V30 5366 H 501.577 -1.48126 0.665777 0
M  V30 5367 H 503.574 -4.02932 -1.07011 0
M  V30 5368 H 502.234 -2.91151 -1.43739 0
M  V30 5369 H 503.245 -4.89886 1.68024 0
M  V30 5370 H 499.922 -4.10253 -0.774495 0
M  V30 5371 H 501.312 -6.14755 2.71156 0
M  V30 5372 N 504.032 -0.577932 -1.46621 0
M  V30 5373 C 505.443 -0.150071 -1.86096 0
M  V30 5374 C 505.794 1.28563 -1.48209 0
M  V30 5375 O 504.919 1.97036 -0.894754 0
M  V30 5376 C 505.514 -0.265576 -3.37758 0
M  V30 5377 C 504.073 0.10738 -3.76247 0
M  V30 5378 C 503.22 -0.603711 -2.70649 0
M  V30 5379 H 506.171 -0.786438 -1.37844 0
M  V30 5380 H 506.192 0.510352 -3.77062 0
M  V30 5381 H 505.704 -1.3106 -3.65301 0
M  V30 5382 H 503.805 1.15272 -3.54321 0
M  V30 5383 H 503.918 -0.26561 -4.78363 0
M  V30 5384 H 502.282 -0.0444884 -2.54661 0
M  V30 5385 H 503.065 -1.65029 -3.01032 0
M  V30 5386 N 505.51 1.54411 -0.315457 0
M  V30 5387 C 506.42 2.27737 0.56329 0
M  V30 5388 C 507.436 1.31787 1.13614 0
M  V30 5389 O 508.612 1.64791 1.15784 0
M  V30 5390 C 505.677 3.01478 1.71207 0
M  V30 5391 C 504.738 4.12997 1.17185 0
M  V30 5392 C 503.971 4.83212 2.26588 0
M  V30 5393 O 504.194 4.52884 3.46775 0
M  V30 5394 O 503.128 5.70299 1.92463 0
M  V30 5395 H 506.954 3.03683 -0.0319614 0
M  V30 5396 H 504.539 1.49178 -0.0814188 0
M  V30 5397 H 506.421 3.47683 2.38106 0
M  V30 5398 H 505.096 2.28414 2.29366 0
M  V30 5399 H 504.003 3.71159 0.468174 0
M  V30 5400 H 505.336 4.8808 0.635501 0
M  V30 5401 N 506.988 0.0434614 1.5754 0
M  V30 5402 C 508.216 -0.641835 1.96693 0
M  V30 5403 C 508.631 -1.64832 0.920652 0
M  V30 5404 O 507.988 -1.82247 -0.095993 0
M  V30 5405 C 508.039 -1.33557 3.35924 0
M  V30 5406 O 507.76 -0.369403 4.3654 0
M  V30 5407 C 509.261 -2.11135 3.89791 0
M  V30 5408 H 506.481 -0.176013 0.647503 0
M  V30 5409 H 509.025 0.107478 2.04217 0
M  V30 5410 H 507.18 -2.03617 3.29574 0
M  V30 5411 H 507.594 -0.863674 5.1734 0
M  V30 5412 H 509.068 -2.55107 4.89514 0
M  V30 5413 H 509.545 -2.95634 3.24803 0
M  V30 5414 H 510.151 -1.46002 3.99454 0
M  V30 5415 N 508.466 -1.55915 -0.229846 0
M  V30 5416 C 509.376 -1.94891 -1.30593 0
M  V30 5417 C 510.392 -0.851604 -1.51736 0
M  V30 5418 O 511.568 -1.15447 -1.65027 0
M  V30 5419 C 508.633 -2.25052 -2.63728 0
M  V30 5420 C 507.694 -3.48306 -2.5096 0
M  V30 5421 C 506.927 -3.77019 -3.77747 0
M  V30 5422 O 507.15 -3.07534 -4.80395 0
M  V30 5423 O 506.084 -4.70523 -3.75356 0
M  V30 5424 H 509.91 -2.86581 -1.00525 0
M  V30 5425 H 507.495 -1.43017 -0.432025 0
M  V30 5426 H 509.377 -2.45682 -3.42372 0
M  V30 5427 H 508.052 -1.36538 -2.93495 0
M  V30 5428 H 506.959 -3.32964 -1.70546 0
M  V30 5429 H 508.292 -4.37177 -2.26136 0
M  V30 5430 N 509.944 0.496216 -1.49584 0
M  V30 5431 C 511.172 1.27394 -1.63029 0
M  V30 5432 C 511.587 1.86344 -0.303569 0
M  V30 5433 O 510.944 1.68057 0.711547 0
M  V30 5434 C 510.995 2.40077 -2.70269 0
M  V30 5435 O 510.716 1.83549 -3.97796 0
M  V30 5436 C 512.217 3.31372 -2.94462 0
M  V30 5437 H 509.437 0.386211 -0.54871 0
M  V30 5438 H 511.981 0.595163 -1.95648 0
M  V30 5439 H 510.136 3.03775 -2.40415 0
M  V30 5440 H 510.55 2.57561 -4.56905 0
M  V30 5441 H 512.024 4.06707 -3.73221 0
M  V30 5442 H 512.501 3.88654 -2.0456 0
M  V30 5443 H 513.107 2.73435 -3.25751 0
M  V30 5444 N 511.423 1.38739 0.74761 0
M  V30 5445 C 512.386 1.36241 1.84312 0
M  V30 5446 C 513.386 0.261811 1.58654 0
M  V30 5447 O 514.576 0.519031 1.66288 0
M  V30 5448 C 511.708 1.12253 3.21888 0
M  V30 5449 H 512.901 2.33712 1.87933 0
M  V30 5450 H 510.454 1.2412 0.949946 0
M  V30 5451 H 511.189 0.154133 3.23934 0
M  V30 5452 H 510.974 1.91943 3.41907 0
M  V30 5453 H 512.464 1.13215 4.0196 0
M  V30 5454 N 512.901 -0.976442 1.23707 0
M  V30 5455 C 513.831 -2.08749 1.04624 0
M  V30 5456 C 514.812 -1.70057 -0.0380956 0
M  V30 5457 O 515.997 -1.93782 0.127308 0
M  V30 5458 C 513.127 -3.41335 0.640902 0
M  V30 5459 C 512.081 -3.93947 1.67302 0
M  V30 5460 C 511.407 -5.22774 1.12301 0
M  V30 5461 C 512.707 -4.22769 3.06697 0
M  V30 5462 H 514.401 -2.24972 1.97555 0
M  V30 5463 H 511.947 -1.08108 0.951247 0
M  V30 5464 H 513.9 -4.18489 0.494434 0
M  V30 5465 H 512.624 -3.24988 -0.324099 0
M  V30 5466 H 511.283 -3.18941 1.80755 0
M  V30 5467 H 510.931 -5.0278 0.148877 0
M  V30 5468 H 510.631 -5.58942 1.81267 0
M  V30 5469 H 512.155 -6.02546 0.988479 0
M  V30 5470 H 513.569 -4.90659 2.96524 0
M  V30 5471 H 511.966 -4.70147 3.72937 0
M  V30 5472 H 513.036 -3.29885 3.55392 0
M  V30 5473 N 514.379 -1.04941 -1.1758 0
M  V30 5474 C 515.607 -0.778294 -1.91703 0
M  V30 5475 C 516.022 0.665697 -1.76675 0
M  V30 5476 O 515.379 1.45456 -1.10222 0
M  V30 5477 C 515.43 -1.14628 -3.42845 0
M  V30 5478 O 515.151 -2.53359 -3.57409 0
M  V30 5479 C 516.652 -0.900931 -4.34049 0
M  V30 5480 H 513.872 -0.283167 -0.608323 0
M  V30 5481 H 516.416 -1.39942 -1.49119 0
M  V30 5482 H 514.571 -0.569953 -3.83184 0
M  V30 5483 H 514.985 -2.67709 -4.51035 0
M  V30 5484 H 516.459 -1.20817 -5.38616 0
M  V30 5485 H 516.936 0.163966 -4.38894 0
M  V30 5486 H 517.542 -1.46097 -3.99419 0
M  V30 5487 N 515.857 1.33968 -0.830081 0
M  V30 5488 C 517.273 1.51003 -0.516742 0
M  V30 5489 C 517.473 1.77286 0.957694 0
M  V30 5490 O 516.529 1.82797 1.74188 0
M  V30 5491 C 517.842 2.67036 -1.38247 0
M  V30 5492 C 519.39 2.80919 -1.38034 0
M  V30 5493 C 519.865 4.00004 -2.23071 0
M  V30 5494 N 521.356 4.07224 -2.20733 0
M  V30 5495 C 522.091 4.98541 -2.83275 0
M  V30 5496 N 521.587 5.95033 -3.54835 0
M  V30 5497 N 523.38 4.91469 -2.72791 0
M  V30 5498 H 515.531 1.15168 -1.78466 0
M  V30 5499 H 517.794 0.565443 -0.760906 0
M  V30 5500 H 517.5 2.54266 -2.42985 0
M  V30 5501 H 517.374 3.62226 -1.05225 0
M  V30 5502 H 519.761 2.93127 -0.340713 0
M  V30 5503 H 519.842 1.86517 -1.75057 0
M  V30 5504 H 519.486 3.88557 -3.27087 0
M  V30 5505 H 519.416 4.93634 -1.83394 0
M  V30 5506 H 521.907 3.38162 -1.68687 0
M  V30 5507 H 522.22 6.61357 -3.99784 0
M  V30 5508 H 520.565 5.95135 -3.58942 0
M  V30 5509 H 523.756 4.15048 -2.16456 0
M  V30 5510 H 523.929 5.62439 -3.21818 0
M  V30 5511 N 517.335 0.585699 1.46312 0
M  V30 5512 C 518.265 -0.133556 2.33118 0
M  V30 5513 C 519.246 -0.880707 1.45525 0
M  V30 5514 O 520.431 -0.855579 1.74337 0
M  V30 5515 C 517.561 -1.14585 3.27853 0
M  V30 5516 C 516.515 -0.513341 4.2491 0
M  V30 5517 C 515.841 -1.63231 5.09175 0
M  V30 5518 C 517.141 0.551413 5.19381 0
M  V30 5519 H 518.835 0.59121 2.93505 0
M  V30 5520 H 516.381 0.285761 1.41136 0
M  V30 5521 H 518.334 -1.65741 3.87438 0
M  V30 5522 H 517.058 -1.90093 2.65579 0
M  V30 5523 H 515.717 -0.0228349 3.66593 0
M  V30 5524 H 515.365 -2.37713 4.43285 0
M  V30 5525 H 515.065 -1.21473 5.74907 0
M  V30 5526 H 516.589 -2.14658 5.71624 0
M  V30 5527 H 518.003 0.124804 5.73164 0
M  V30 5528 H 516.4 0.889486 5.93471 0
M  V30 5529 H 517.47 1.43655 4.63132 0
M  V30 5530 N 518.813 -1.54241 0.323641 0
M  V30 5531 C 519.776 -2.22997 -0.529602 0
M  V30 5532 C 520.776 -1.22345 -1.04347 0
M  V30 5533 O 521.966 -1.46924 -0.935889 0
M  V30 5534 C 519.098 -2.93409 -1.73562 0
M  V30 5535 H 520.291 -2.99815 0.0714518 0
M  V30 5536 H 517.844 -1.56121 0.0747258 0
M  V30 5537 H 518.579 -2.20729 -2.37591 0
M  V30 5538 H 518.364 -3.67217 -1.37456 0
M  V30 5539 H 519.854 -3.45794 -2.34128 0
M  V30 5540 N 520.291 -0.0518155 -1.57515 0
M  V30 5541 C 521.537 0.616839 -1.93821 0
M  V30 5542 C 521.892 1.68413 -0.930307 0
M  V30 5543 O 521.185 1.91534 0.0504231 0
M  V30 5544 C 521.379 1.25607 -3.34601 0
M  V30 5545 C 521.208 0.252222 -4.48992 0
M  V30 5546 C 519.978 -0.156031 -5.05059 0
M  V30 5547 C 522.176 -0.502613 -5.11838 0
M  V30 5548 N 520.158 -1.15267 -6.02981 0
M  V30 5549 C 521.529 -1.35232 -6.05072 0
M  V30 5550 C 523.584 -0.560855 -4.94731 0
M  V30 5551 C 522.287 -2.25505 -6.83037 0
M  V30 5552 C 524.313 -1.45102 -5.73323 0
M  V30 5553 C 523.675 -2.28845 -6.6619 0
M  V30 5554 H 519.774 0.197344 -0.75669 0
M  V30 5555 H 522.358 -0.124297 -1.94303 0
M  V30 5556 H 520.529 1.96723 -3.34895 0
M  V30 5557 H 522.261 1.88358 -3.58195 0
M  V30 5558 H 519.016 0.22306 -4.73074 0
M  V30 5559 H 519.44 -1.64791 -6.56638 0
M  V30 5560 H 524.082 0.0723639 -4.22738 0
M  V30 5561 H 521.8 -2.89872 -7.54321 0
M  V30 5562 H 525.386 -1.50066 -5.62113 0
M  V30 5563 H 524.266 -2.96608 -7.25943 0
M  V30 5564 N 521.769 1.56035 0.221574 0
M  V30 5565 C 523.18 1.69229 0.788567 0
M  V30 5566 C 523.531 0.653814 1.84986 0
M  V30 5567 O 522.656 -0.195065 2.15519 0
M  V30 5568 C 523.251 3.06809 1.43713 0
M  V30 5569 C 521.81 3.21858 1.95152 0
M  V30 5570 C 520.957 2.65155 0.811685 0
M  V30 5571 H 523.908 1.587 -0.00307894 0
M  V30 5572 H 523.929 3.02666 2.30594 0
M  V30 5573 H 523.441 3.82369 0.664475 0
M  V30 5574 H 521.542 2.51167 2.7522 0
M  V30 5575 H 521.655 4.29073 2.1315 0
M  V30 5576 H 520.019 2.23635 1.21899 0
M  V30 5577 H 520.802 3.43261 0.0516987 0
M  V30 5578 N 523.247 -0.488276 1.49845 0
M  V30 5579 C 524.495 -1.23911 1.59657 0
M  V30 5580 C 524.816 -1.92816 0.291005 0
M  V30 5581 O 524.086 -1.83328 -0.690485 0
M  V30 5582 H 522.666 -0.460357 0.588286 0
M  V30 5583 H 525.328 -0.564794 1.86537 0
M  V30 5584 H 524.424 -1.99625 2.39909 0
M  V30 5585 N 524.725 -1.39134 -0.740242 0
M  V30 5586 C 525.673 -1.3757 -1.87556 0
M  V30 5587 C 526.667 -0.259593 -1.67399 0
M  V30 5588 O 527.873 -0.429349 -1.74804 0
M  V30 5589 H 524.248 -0.42947 -0.6173 0
M  V30 5590 H 526.219 -2.33345 -1.85991 0
M  V30 5591 C 524.968 -1.23087 -3.25184 0
M  V30 5592 H 524.291 -2.08237 -3.41288 0
M  V30 5593 H 525.731 -1.26049 -4.0483 0
M  V30 5594 C 524.19 0.0611471 -3.36845 0
M  V30 5595 O 524.72 1.03328 -3.88183 0
M  V30 5596 N 522.926 0.122454 -2.90342 0
M  V30 5597 H 522.473 -0.669329 -2.48752 0
M  V30 5598 H 522.431 0.986463 -2.98523 0
M  V30 5599 N 526.204 0.969867 -1.24223 0
M  V30 5600 C 527.45 1.7151 -1.08223 0
M  V30 5601 C 527.783 1.90478 0.37838 0
M  V30 5602 O 527.058 1.4647 1.27971 0
M  V30 5603 C 527.341 3.10714 -1.82013 0
M  V30 5604 C 527.194 2.9925 -3.35811 0
M  V30 5605 C 528.513 4.10332 -1.59108 0
M  V30 5606 H 525.632 0.622499 -0.394543 0
M  V30 5607 H 528.274 1.1284 -1.52863 0
M  V30 5608 H 526.424 3.608 -1.44068 0
M  V30 5609 H 528.096 2.56608 -3.83341 0
M  V30 5610 H 526.339 2.35512 -3.64303 0
M  V30 5611 H 527.01 3.97857 -3.82641 0
M  V30 5612 H 529.486 3.69097 -1.92111 0
M  V30 5613 H 528.362 5.05804 -2.13198 0
M  V30 5614 H 528.623 4.38926 -0.528832 0
M  V30 5615 N 527.682 1.05563 1.17022 0
M  V30 5616 C 529.098 0.777684 1.39371 0
M  V30 5617 C 529.298 -0.626269 1.91521 0
M  V30 5618 O 528.354 -1.38806 2.10924 0
M  V30 5619 C 529.667 1.83642 2.3811 0
M  V30 5620 C 531.215 1.85907 2.51809 0
M  V30 5621 C 531.69 2.90813 3.53824 0
M  V30 5622 N 533.181 2.898 3.61345 0
M  V30 5623 C 533.916 3.6762 4.40049 0
M  V30 5624 N 533.412 4.55237 5.22237 0
M  V30 5625 N 535.205 3.56044 4.34959 0
M  V30 5626 H 527.356 1.9614 0.815047 0
M  V30 5627 H 529.619 0.849527 0.420722 0
M  V30 5628 H 529.325 2.84425 2.06871 0
M  V30 5629 H 529.199 1.6812 3.37662 0
M  V30 5630 H 531.586 0.857865 2.82356 0
M  V30 5631 H 531.667 2.05506 1.52318 0
M  V30 5632 H 531.311 3.91122 3.24015 0
M  V30 5633 H 531.241 2.68465 4.53028 0
M  V30 5634 H 533.732 2.26274 3.02669 0
M  V30 5635 H 534.045 5.11291 5.79484 0
M  V30 5636 H 532.39 4.59296 5.21605 0
M  V30 5637 H 535.581 2.86986 3.69806 0
M  V30 5638 H 535.754 4.16938 4.96051 0
M  V30 5639 N 529.16 -1.33526 0.837174 0
M  V30 5640 C 530.092 -2.28077 0.226579 0
M  V30 5641 C 531.105 -1.51666 -0.591717 0
M  V30 5642 O 532.294 -1.73511 -0.419064 0
M  V30 5643 C 529.394 -3.31597 -0.69978 0
M  V30 5644 C 528.567 -4.37329 0.0788067 0
M  V30 5645 C 527.626 -5.20526 -0.770637 0
M  V30 5646 O 526.652 -5.68811 -0.210453 0
M  V30 5647 N 527.854 -5.41639 -2.08825 0
M  V30 5648 H 530.619 -2.81115 1.03897 0
M  V30 5649 H 528.18 -1.46201 0.695476 0
M  V30 5650 H 530.172 -3.84158 -1.27298 0
M  V30 5651 H 528.742 -2.78848 -1.41288 0
M  V30 5652 H 527.962 -3.8529 0.833381 0
M  V30 5653 H 529.25 -5.05079 0.614238 0
M  V30 5654 H 528.648 -5.04108 -2.56693 0
M  V30 5655 H 527.205 -5.97263 -2.60998 0
M  V30 5656 N 530.638 -0.59345 -1.46 0
M  V30 5657 C 531.568 0.121192 -2.33185 0
M  V30 5658 C 532.549 0.872977 -1.4599 0
M  V30 5659 O 533.734 0.846321 -1.74789 0
M  V30 5660 C 530.864 1.12844 -3.28456 0
M  V30 5661 C 529.818 0.4908 -4.25177 0
M  V30 5662 C 529.144 1.60529 -5.10034 0
M  V30 5663 C 530.444 -0.578949 -5.19081 0
M  V30 5664 H 532.138 -0.606767 -2.93187 0
M  V30 5665 H 529.684 -0.293242 -1.40983 0
M  V30 5666 H 531.637 1.63684 -3.88311 0
M  V30 5667 H 530.361 1.88681 -2.66584 0
M  V30 5668 H 529.02 0.00339328 -3.666 0
M  V30 5669 H 528.668 2.35359 -4.44539 0
M  V30 5670 H 528.368 1.18422 -5.75543 0
M  V30 5671 H 529.892 2.11623 -5.72755 0
M  V30 5672 H 531.306 -0.155199 -5.7309 0
M  V30 5673 H 529.703 -0.920947 -5.92991 0
M  V30 5674 H 530.773 -1.46109 -4.62364 0
M  V30 5675 N 532.116 1.54067 -0.331816 0
M  V30 5676 C 533.026 2.28322 0.539104 0
M  V30 5677 C 534.042 1.32985 1.1221 0
M  V30 5678 O 535.218 1.6601 1.1403 0
M  V30 5679 C 532.283 3.03277 1.68 0
M  V30 5680 C 531.344 4.14216 1.12798 0
M  V30 5681 C 530.577 4.85588 2.2145 0
M  V30 5682 O 530.8 4.56536 3.41952 0
M  V30 5683 O 529.734 5.72309 1.86404 0
M  V30 5684 H 533.56 3.03632 -0.0641692 0
M  V30 5685 H 531.145 1.49083 -0.0972365 0
M  V30 5686 H 533.027 3.50189 2.34405 0
M  V30 5687 H 531.702 2.30834 2.2693 0
M  V30 5688 H 530.609 3.71635 0.428782 0
M  V30 5689 H 531.942 4.88727 0.583698 0
M  V30 5690 N 533.594 0.0601682 1.57485 0
M  V30 5691 C 534.542 -0.928899 2.13247 0
M  V30 5692 C 535.536 -1.31616 1.06647 0
M  V30 5693 O 536.742 -1.29476 1.25043 0
M  V30 5694 H 533.117 -0.317455 0.681708 0
M  V30 5695 H 535.088 -0.433566 2.95233 0
M  V30 5696 C 533.837 -2.19121 2.69965 0
M  V30 5697 H 533.16 -1.90204 3.51657 0
M  V30 5698 H 534.6 -2.86465 3.12592 0
M  V30 5699 C 533.059 -2.94195 1.64168 0
M  V30 5700 O 533.589 -3.87468 1.05978 0
M  V30 5701 N 531.795 -2.57089 1.35476 0
M  V30 5702 H 531.342 -1.81314 1.82984 0
M  V30 5703 H 531.3 -3.07624 0.649196 0
M  V30 5704 N 535.072 -1.5615 -0.213296 0
M  V30 5705 C 536.3 -1.83638 -0.953139 0
M  V30 5706 C 536.715 -0.640362 -1.77609 0
M  V30 5707 O 536.072 0.391071 -1.78261 0
M  V30 5708 C 536.123 -3.09735 -1.86405 0
M  V30 5709 O 535.844 -4.24723 -1.07435 0
M  V30 5710 C 537.345 -3.5027 -2.71709 0
M  V30 5711 H 534.565 -0.610263 -0.278962 0
M  V30 5712 H 537.109 -2.03247 -0.226035 0
M  V30 5713 H 535.264 -2.92077 -2.545 0
M  V30 5714 H 535.678 -4.9641 -1.69343 0
M  V30 5715 H 537.152 -4.41515 -3.31313 0
M  V30 5716 H 537.629 -2.72406 -3.44516 0
M  V30 5717 H 538.235 -3.70396 -2.09015 0
M  V30 5718 N 536.55 0.480323 -1.50102 0
M  V30 5719 C 537.79 1.24301 -1.62261 0
M  V30 5720 C 538.154 1.89452 -0.311758 0
M  V30 5721 O 539.355 2.67022 -0.308696 0
M  V30 5722 C 537.626 2.26588 -2.76392 0
M  V30 5723 S 539.185 3.11919 -3.08629 0
M  V30 5724 H 536.003 0.42215 -0.57211 0
M  V30 5725 H 538.605 0.541591 -1.87848 0
M  V30 5726 H 537.309 1.7729 -3.70131 0
M  V30 5727 H 536.84 3.01371 -2.52862 0
M  V30 5728 H 538.855 4.27598 -2.51742 0
M  V30 5729 N 538.028 1.39524 0.732853 0
M  V30 5730 C 539.444 1.21176 1.03868 0
M  V30 5731 C 539.644 0.0748448 2.01361 0
M  V30 5732 O 538.7 -0.57281 2.45917 0
M  V30 5733 C 540.013 2.54667 1.59892 0
M  V30 5734 C 541.561 2.6153 1.71962 0
M  V30 5735 C 542.036 3.95248 2.31394 0
M  V30 5736 N 543.527 3.96899 2.38801 0
M  V30 5737 C 544.262 4.97138 2.85729 0
M  V30 5738 N 543.758 6.07775 3.32537 0
M  V30 5739 N 545.551 4.84516 2.84957 0
M  V30 5740 H 537.702 2.12225 0.086304 0
M  V30 5741 H 539.965 0.942614 0.100907 0
M  V30 5742 H 539.671 3.38423 0.95721 0
M  V30 5743 H 539.545 2.74538 2.58668 0
M  V30 5744 H 541.932 1.78156 2.35254 0
M  V30 5745 H 542.013 2.45507 0.718327 0
M  V30 5746 H 541.657 4.79054 1.68729 0
M  V30 5747 H 541.587 4.08593 3.32204 0
M  V30 5748 H 544.078 3.16998 2.05719 0
M  V30 5749 H 544.391 6.8017 3.66862 0
M  V30 5750 H 542.736 6.11366 3.30541 0
M  V30 5751 H 545.927 3.97185 2.47713 0
M  V30 5752 H 546.1 5.62783 3.21215 0
M  V30 5753 N 539.506 -0.963266 1.24736 0
M  V30 5754 C 540.752 -1.71 1.10139 0
M  V30 5755 C 541.107 -1.89089 -0.35541 0
M  V30 5756 O 540.4 -1.44451 -1.25875 0
M  V30 5757 C 540.594 -3.09944 1.7796 0
M  V30 5758 C 540.423 -3.05408 3.30085 0
M  V30 5759 C 539.193 -3.09643 3.99311 0
M  V30 5760 C 541.391 -2.87241 4.26611 0
M  V30 5761 N 539.373 -2.95174 5.3828 0
M  V30 5762 C 540.744 -2.81114 5.52607 0
M  V30 5763 C 542.799 -2.71856 4.17132 0
M  V30 5764 C 541.502 -2.61174 6.70209 0
M  V30 5765 C 543.528 -2.53284 5.34417 0
M  V30 5766 C 542.89 -2.4787 6.59348 0
M  V30 5767 H 538.989 -0.634078 0.457678 0
M  V30 5768 H 541.573 -1.14169 1.57713 0
M  V30 5769 H 539.744 -3.64958 1.32893 0
M  V30 5770 H 541.476 -3.73348 1.56183 0
M  V30 5771 H 538.231 -3.18498 3.50508 0
M  V30 5772 H 538.655 -2.91168 6.11188 0
M  V30 5773 H 543.297 -2.74821 3.21299 0
M  V30 5774 H 541.015 -2.56952 7.6616 0
M  V30 5775 H 544.601 -2.42317 5.28936 0
M  V30 5776 H 543.481 -2.33685 7.48573 0
M  V30 5777 N 540.985 -1.06182 -1.16461 0
M  V30 5778 C 541.915 -0.692861 -2.22984 0
M  V30 5779 C 542.896 0.314122 -1.67174 0
M  V30 5780 O 544.081 0.189499 -1.93273 0
M  V30 5781 C 541.211 -0.07732 -3.47214 0
M  V30 5782 C 540.165 -1.01015 -4.15909 0
M  V30 5783 C 539.491 -0.257973 -5.34077 0
M  V30 5784 C 540.791 -2.33868 -4.67015 0
M  V30 5785 H 542.485 -1.58343 -2.54102 0
M  V30 5786 H 540.031 -0.76279 -1.22137 0
M  V30 5787 H 541.984 0.19266 -4.20959 0
M  V30 5788 H 540.708 0.848254 -3.15392 0
M  V30 5789 H 539.367 -1.26486 -3.44088 0
M  V30 5790 H 539.015 0.670684 -4.98509 0
M  V30 5791 H 538.715 -0.879638 -5.80979 0
M  V30 5792 H 540.239 0.00448788 -6.106 0
M  V30 5793 H 541.653 -2.1279 -5.32347 0
M  V30 5794 H 540.05 -2.91522 -5.24533 0
M  V30 5795 H 541.12 -2.97019 -3.83286 0
M  V30 5796 N 542.463 1.3308 -0.844243 0
M  V30 5797 C 543.691 2.01808 -0.456203 0
M  V30 5798 C 544.106 1.63498 0.944131 0
M  V30 5799 O 543.463 0.85102 1.61443 0
M  V30 5800 C 543.514 3.56922 -0.573513 0
M  V30 5801 O 543.235 3.93851 -1.91868 0
M  V30 5802 C 544.736 4.42922 -0.183125 0
M  V30 5803 H 541.956 0.646273 -0.180477 0
M  V30 5804 H 544.5 1.69891 -1.1383 0
M  V30 5805 H 542.655 3.87352 0.0607367 0
M  V30 5806 H 543.069 4.88564 -1.90802 0
M  V30 5807 H 544.543 5.51093 -0.316241 0
M  V30 5808 H 545.02 4.30386 0.875477 0
M  V30 5809 H 545.626 4.1786 -0.792027 0
M  V30 5810 N 543.941 0.601185 1.45683 0
M  V30 5811 C 545.187 0.0940202 2.02582 0
M  V30 5812 C 545.52 -1.26972 1.46941 0
M  V30 5813 O 544.795 -1.83613 0.641612 0
M  V30 5814 C 545.078 0.0481715 3.60068 0
M  V30 5815 C 544.931 1.44212 4.26055 0
M  V30 5816 C 546.25 -0.642975 4.35378 0
M  V30 5817 H 543.369 0.0356404 0.736138 0
M  V30 5818 H 546.011 0.771929 1.73612 0
M  V30 5819 H 544.161 -0.529128 3.8488 0
M  V30 5820 H 545.833 2.06601 4.12449 0
M  V30 5821 H 544.076 2.00465 3.84703 0
M  V30 5822 H 544.747 1.36234 5.34925 0
M  V30 5823 H 547.223 -0.152351 4.15821 0
M  V30 5824 H 546.099 -0.644141 5.45107 0
M  V30 5825 H 546.36 -1.70785 4.0778 0
M  V30 5826 N 545.419 -1.53889 0.339982 0
M  V30 5827 C 546.352 -2.21187 -0.561405 0
M  V30 5828 C 547.33 -1.19463 -1.10306 0
M  V30 5829 O 548.514 -1.48268 -1.164 0
M  V30 5830 C 545.641 -2.8865 -1.77198 0
M  V30 5831 C 544.687 -4.04232 -1.3601 0
M  V30 5832 S 545.52 -5.34129 -0.382909 0
M  V30 5833 C 546.676 -6.05094 -1.60039 0
M  V30 5834 H 546.909 -2.97298 0.0102092 0
M  V30 5835 H 544.442 -1.53901 0.124056 0
M  V30 5836 H 546.4 -3.28138 -2.4665 0
M  V30 5837 H 545.061 -2.12311 -2.3148 0
M  V30 5838 H 544.254 -4.50358 -2.2626 0
M  V30 5839 H 543.856 -3.66503 -0.745098 0
M  V30 5840 H 546.148 -6.2827 -2.53541 0
M  V30 5841 H 547.091 -6.98182 -1.18099 0
M  V30 5842 H 547.499 -5.35207 -1.79483 0
M  V30 5843 N 546.897 -0.0685191 -1.57451 0
M  V30 5844 C 547.86 0.885173 -2.11417 0
M  V30 5845 C 548.86 1.22853 -1.03748 0
M  V30 5846 O 550.05 1.16235 -1.2975 0
M  V30 5847 C 547.182 2.18964 -2.61281 0
M  V30 5848 H 548.375 0.417034 -2.96986 0
M  V30 5849 H 545.928 0.18014 -1.55258 0
M  V30 5850 H 546.663 2.70321 -1.79156 0
M  V30 5851 H 546.448 1.9534 -3.39977 0
M  V30 5852 H 547.938 2.87242 -3.0312 0
M  V30 5853 N 548.375 1.56261 0.205012 0
M  V30 5854 C 549.338 1.92908 1.23771 0
M  V30 5855 C 550.338 0.809208 1.38955 0
M  V30 5856 O 551.528 1.07676 1.36936 0
M  V30 5857 C 548.66 2.19442 2.60879 0
M  V30 5858 H 549.853 2.85287 0.924728 0
M  V30 5859 H 547.406 1.49798 0.446125 0
M  V30 5860 H 548.141 1.29668 2.97248 0
M  V30 5861 H 547.926 3.0104 2.51232 0
M  V30 5862 H 549.416 2.48833 3.35368 0
M  V30 5863 N 549.853 -0.472356 1.50355 0
M  V30 5864 C 551.101 -1.22211 1.60962 0
M  V30 5865 C 551.422 -1.92497 0.311439 0
M  V30 5866 O 550.692 -1.8405 -0.671002 0
M  V30 5867 H 549.272 -0.454092 0.593135 0
M  V30 5868 H 551.934 -0.544977 1.87126 0
M  V30 5869 H 551.03 -1.9707 2.42012 0
M  V30 5870 N 551.331 -1.39911 -0.725443 0
M  V30 5871 C 552.263 -1.35301 -1.85003 0
M  V30 5872 C 553.276 -0.260102 -1.60709 0
M  V30 5873 O 554.465 -0.519749 -1.70766 0
M  V30 5874 C 551.565 -1.08039 -3.21218 0
M  V30 5875 C 550.738 -2.28793 -3.7279 0
M  V30 5876 C 549.797 -1.97841 -4.87591 0
M  V30 5877 O 548.823 -2.70616 -5.00755 0
M  V30 5878 N 550.025 -0.950367 -5.72668 0
M  V30 5879 H 552.79 -2.32218 -1.89459 0
M  V30 5880 H 550.351 -1.34137 -0.90658 0
M  V30 5881 H 552.343 -0.853354 -3.95601 0
M  V30 5882 H 550.913 -0.198229 -3.11971 0
M  V30 5883 H 550.133 -2.67388 -2.8965 0
M  V30 5884 H 551.421 -3.09317 -4.03981 0
M  V30 5885 H 550.819 -0.347436 -5.64632 0
M  V30 5886 H 549.376 -0.783232 -6.47077 0
M  V30 5887 N 552.809 0.956637 -1.25245 0
M  V30 5888 C 553.719 2.0868 -1.0719 0
M  V30 5889 C 554.735 1.73997 -0.00959074 0
M  V30 5890 O 555.911 2.00301 -0.210104 0
M  V30 5891 C 552.976 3.39754 -0.690526 0
M  V30 5892 C 552.037 3.88316 -1.83055 0
M  V30 5893 C 551.27 5.13134 -1.46728 0
M  V30 5894 O 551.493 5.6925 -0.362029 0
M  V30 5895 O 550.427 5.56356 -2.29677 0
M  V30 5896 H 554.253 2.26813 -2.01965 0
M  V30 5897 H 551.838 1.07098 -1.04165 0
M  V30 5898 H 553.72 4.18543 -0.489871 0
M  V30 5899 H 552.395 3.22896 0.227981 0
M  V30 5900 H 551.302 3.1054 -2.08604 0
M  V30 5901 H 552.635 4.09669 -2.72822 0
M  V30 5902 N 554.287 1.06798 1.15896 0
M  V30 5903 C 555.533 0.788934 1.86825 0
M  V30 5904 C 555.866 -0.683084 1.8179 0
M  V30 5905 O 555.141 -1.50086 1.23711 0
M  V30 5906 C 555.424 1.29065 3.36176 0
M  V30 5907 C 555.277 2.8268 3.49874 0
M  V30 5908 C 556.596 0.902655 4.30744 0
M  V30 5909 H 553.715 0.288066 0.678371 0
M  V30 5910 H 556.357 1.32479 1.36195 0
M  V30 5911 H 554.507 0.834806 3.79425 0
M  V30 5912 H 556.179 3.36511 3.15528 0
M  V30 5913 H 554.422 3.21157 2.91617 0
M  V30 5914 H 555.093 3.12852 4.54783 0
M  V30 5915 H 557.569 1.29535 3.95424 0
M  V30 5916 H 556.445 1.28111 5.3374 0
M  V30 5917 H 556.706 -0.191951 4.41683 0
M  V30 5918 N 555.766 -1.3263 0.851289 0
M  V30 5919 C 556.696 -2.31449 0.308771 0
M  V30 5920 C 557.677 -1.59531 -0.590255 0
M  V30 5921 O 558.862 -1.87351 -0.511205 0
M  V30 5922 C 555.992 -3.43586 -0.506548 0
M  V30 5923 C 554.946 -4.26963 0.297753 0
M  V30 5924 C 554.272 -5.30831 -0.642094 0
M  V30 5925 C 555.572 -4.99643 1.52166 0
M  V30 5926 H 557.266 -2.77074 1.13447 0
M  V30 5927 H 554.812 -1.33207 0.546971 0
M  V30 5928 H 556.765 -4.11754 -0.896474 0
M  V30 5929 H 555.489 -2.96681 -1.36558 0
M  V30 5930 H 554.148 -3.60437 0.669391 0
M  V30 5931 H 553.796 -4.8018 -1.49788 0
M  V30 5932 H 553.496 -5.87501 -0.107968 0
M  V30 5933 H 555.02 -6.01862 -1.02927 0
M  V30 5934 H 556.434 -5.6051 1.20421 0
M  V30 5935 H 554.831 -5.66022 1.99347 0
M  V30 5936 H 555.901 -4.27701 2.28474 0
M  V30 5937 N 557.244 -0.608902 -1.45362 0
M  V30 5938 C 558.493 -0.10218 -2.01441 0
M  V30 5939 C 558.806 1.27546 -1.48295 0
M  V30 5940 O 560.012 1.87498 -1.96359 0
M  V30 5941 C 558.468 -0.131985 -3.59658 0
M  V30 5942 C 558.076 -1.50956 -4.21801 0
M  V30 5943 C 559.82 0.319427 -4.23296 0
M  V30 5944 C 557.727 -1.49568 -5.72174 0
M  V30 5945 H 556.657 -0.0344314 -0.753213 0
M  V30 5946 H 559.308 -0.764426 -1.6682 0
M  V30 5947 H 557.69 0.596939 -3.91475 0
M  V30 5948 H 558.864 -2.26029 -4.01556 0
M  V30 5949 H 557.179 -1.90318 -3.70362 0
M  V30 5950 H 559.776 0.349013 -5.3356 0
M  V30 5951 H 560.119 1.34237 -3.94064 0
M  V30 5952 H 560.652 -0.356273 -3.96201 0
M  V30 5953 H 557.391 -2.49626 -6.06108 0
M  V30 5954 H 556.911 -0.787542 -5.94607 0
M  V30 5955 H 558.59 -1.21989 -6.35396 0
M  V30 5956 N 558.722 1.53707 -0.348139 0
M  V30 5957 C 559.654 2.22725 0.540946 0
M  V30 5958 C 560.667 1.2354 1.06027 0
M  V30 5959 O 561.856 1.49867 0.96964 0
M  V30 5960 C 558.956 2.89756 1.75768 0
M  V30 5961 C 558.129 4.15297 1.37285 0
M  V30 5962 C 557.188 4.65697 2.44976 0
M  V30 5963 O 556.214 5.29798 2.08092 0
M  V30 5964 N 557.416 4.42017 3.763 0
M  V30 5965 H 560.181 2.99658 -0.0501592 0
M  V30 5966 H 557.742 1.60979 -0.17248 0
M  V30 5967 H 559.734 3.20388 2.47252 0
M  V30 5968 H 558.304 2.16382 2.25605 0
M  V30 5969 H 557.524 3.9116 0.488584 0
M  V30 5970 H 558.812 4.96948 1.09179 0
M  V30 5971 H 558.21 3.9076 4.09051 0
M  V30 5972 H 556.767 4.77242 4.4394 0
M  V30 5973 N 560.2 0.0768682 1.57412 0
M  V30 5974 C 561.477 -0.632359 1.85096 0
M  V30 5975 C 561.857 -1.87479 0.9703 0
M  V30 5976 O 561.205 -2.28469 0.0379062 0
M  V30 5977 C 561.415 -0.965174 3.35388 0
M  V30 5978 C 562.763 -1.33648 4.03018 0
M  V30 5979 O 563.787 -1.05675 3.40164 0
M  V30 5980 O 562.646 -1.85959 5.13889 0
M  V30 5981 H 559.74 -0.314574 0.764835 0
M  V30 5982 H 562.286 0.108184 1.69355 0
M  V30 5983 H 561.058 -0.0829745 3.91212 0
M  V30 5984 H 560.681 -1.76231 3.5641 0
M  V30 5985 N 561.678 -1.56367 -0.196722 0
M  V30 5986 C 562.608 -1.97442 -1.24655 0
M  V30 5987 C 563.589 -0.846147 -1.47561 0
M  V30 5988 O 564.774 -1.11035 -1.59326 0
M  V30 5989 C 561.904 -2.31253 -2.59112 0
M  V30 5990 C 560.858 -3.46804 -2.50821 0
M  V30 5991 C 560.184 -3.66286 -3.89536 0
M  V30 5992 C 561.484 -4.8104 -2.03465 0
M  V30 5993 H 563.178 -2.85388 -0.905216 0
M  V30 5994 H 560.724 -1.37304 -0.434002 0
M  V30 5995 H 562.677 -2.58583 -3.32736 0
M  V30 5996 H 561.401 -1.40188 -2.94983 0
M  V30 5997 H 560.06 -3.19563 -1.79653 0
M  V30 5998 H 559.708 -2.72555 -4.22756 0
M  V30 5999 H 559.408 -4.4402 -3.84864 0
M  V30 6000 H 560.932 -3.9599 -4.64784 0
M  V30 6001 H 562.346 -5.07411 -2.66846 0
M  V30 6002 H 560.743 -5.62232 -2.09798 0
M  V30 6003 H 561.813 -4.74732 -0.98781 0
M  V30 6004 N 563.156 0.464375 -1.50603 0
M  V30 6005 C 564.567 1.04507 -1.5471 0
M  V30 6006 C 564.918 1.9297 -0.354542 0
M  V30 6007 O 564.043 2.09763 0.531812 0
M  V30 6008 C 564.638 1.90207 -2.80369 0
M  V30 6009 C 563.197 2.43373 -2.87135 0
M  V30 6010 C 562.344 1.21886 -2.49076 0
M  V30 6011 H 565.295 0.246716 -1.56771 0
M  V30 6012 H 565.316 2.75353 -2.62604 0
M  V30 6013 H 564.828 1.25796 -3.67147 0
M  V30 6014 H 562.929 3.11318 -2.04724 0
M  V30 6015 H 563.042 2.7802 -3.90181 0
M  V30 6016 H 561.406 1.55575 -2.01664 0
M  V30 6017 H 562.189 0.591268 -3.3817 0
M  V30 6018 N 564.634 1.40294 0.718013 0
M  V30 6019 C 565.882 1.38167 1.47494 0
M  V30 6020 C 566.203 -0.01607 1.94993 0
M  V30 6021 O 565.473 -0.970396 1.70177 0
M  V30 6022 H 564.053 0.508505 0.547203 0
M  V30 6023 H 566.715 1.75324 0.851322 0
M  V30 6024 H 565.811 2.05503 2.34894 0
M  V30 6025 N 566.112 -0.949982 1.2575 0
M  V30 6026 C 567.022 -2.08109 1.08295 0
M  V30 6027 C 568.038 -1.7399 0.0188181 0
M  V30 6028 O 569.214 -2.00187 0.220724 0
M  V30 6029 C 566.279 -3.39383 0.708534 0
M  V30 6030 C 565.34 -3.8734 1.85111 0
M  V30 6031 C 564.573 -5.12349 1.49447 0
M  V30 6032 O 564.796 -5.6905 0.392212 0
M  V30 6033 O 563.73 -5.5513 2.32624 0
M  V30 6034 H 567.556 -2.25738 2.03165 0
M  V30 6035 H 565.141 -1.06545 1.04731 0
M  V30 6036 H 567.023 -4.18277 0.512061 0
M  V30 6037 H 565.698 -3.23013 -0.210854 0
M  V30 6038 H 564.605 -3.09429 2.10248 0
M  V30 6039 H 565.938 -4.08216 2.74991 0
M  V30 6040 N 567.59 -1.07411 -1.15328 0
M  V30 6041 C 568.52 -0.716472 -2.22236 0
M  V30 6042 C 569.501 0.296373 -1.67498 0
M  V30 6043 O 570.686 0.168989 -1.93463 0
M  V30 6044 C 567.816 -0.114142 -3.47112 0
M  V30 6045 C 566.77 -1.05421 -4.14814 0
M  V30 6046 C 566.096 -0.314604 -5.33774 0
M  V30 6047 C 567.396 -2.38808 -4.64508 0
M  V30 6048 H 569.09 -1.61029 -2.52408 0
M  V30 6049 H 566.636 -0.775702 -1.21321 0
M  V30 6050 H 568.589 0.148001 -4.2114 0
M  V30 6051 H 567.313 0.814755 -3.16274 0
M  V30 6052 H 565.972 -1.30128 -3.42728 0
M  V30 6053 H 565.62 0.617772 -4.99192 0
M  V30 6054 H 565.32 -0.941209 -5.80013 0
M  V30 6055 H 566.844 -0.0602747 -6.1057 0
M  V30 6056 H 568.258 -2.18424 -5.3006 0
M  V30 6057 H 566.655 -2.97069 -5.21412 0
M  V30 6058 H 567.725 -3.01067 -3.80114 0
M  V30 6059 N 569.068 1.32177 -0.85831 0
M  V30 6060 C 570.315 1.97125 -0.463484 0
M  V30 6061 C 570.643 1.67907 0.981705 0
M  V30 6062 O 569.898 0.961717 1.70439 0
M  V30 6063 C 570.197 3.51372 -0.653658 0
M  V30 6064 C 569.863 4.00584 -2.06987 0
M  V30 6065 C 568.525 4.13733 -2.4572 0
M  V30 6066 C 570.877 4.26624 -2.99402 0
M  V30 6067 C 568.205 4.50268 -3.76132 0
M  V30 6068 C 570.557 4.64618 -4.29316 0
M  V30 6069 C 569.221 4.75975 -4.67979 0
M  V30 6070 H 568.491 0.72133 -0.169601 0
M  V30 6071 H 571.138 1.57517 -1.08907 0
M  V30 6072 H 569.443 3.91761 0.0551328 0
M  V30 6073 H 571.14 3.99655 -0.328163 0
M  V30 6074 H 567.73 3.90837 -1.75911 0
M  V30 6075 H 571.914 4.1597 -2.70708 0
M  V30 6076 H 567.17 4.57256 -4.05865 0
M  V30 6077 H 571.344 4.83722 -5.00985 0
M  V30 6078 H 568.971 5.04041 -5.69076 0
M  V30 6079 N 570.547 0.616602 1.45037 0
M  V30 6080 C 571.457 -0.0985401 2.34393 0
M  V30 6081 C 572.473 -0.850971 1.51771 0
M  V30 6082 O 573.649 -0.806521 1.84546 0
M  V30 6083 C 570.714 -1.07748 3.29532 0
M  V30 6084 C 569.775 -0.326022 4.2806 0
M  V30 6085 C 569.008 -1.25833 5.18654 0
M  V30 6086 O 569.231 -2.49652 5.12864 0
M  V30 6087 O 568.165 -0.750512 5.97203 0
M  V30 6088 H 571.991 0.636016 2.96966 0
M  V30 6089 H 569.576 0.376832 1.44569 0
M  V30 6090 H 571.458 -1.64107 3.88133 0
M  V30 6091 H 570.133 -1.79291 2.69512 0
M  V30 6092 H 569.04 0.280253 3.73049 0
M  V30 6093 H 570.373 0.349091 4.9096 0
M  V30 6094 N 572.025 -1.5352 0.356285 0
M  V30 6095 C 572.988 -2.24071 -0.482182 0
M  V30 6096 C 573.988 -1.24531 -1.01729 0
M  V30 6097 O 575.178 -1.48876 -0.904513 0
M  V30 6098 C 572.31 -2.97025 -1.67299 0
M  V30 6099 H 573.503 -2.99596 0.135031 0
M  V30 6100 H 571.056 -1.55928 0.107825 0
M  V30 6101 H 571.791 -2.25719 -2.32855 0
M  V30 6102 H 571.576 -3.7005 -1.29636 0
M  V30 6103 H 573.066 -3.50683 -2.26741 0
M  V30 6104 N 573.503 -0.0852151 -1.57369 0
M  V30 6105 C 574.728 0.592872 -1.98746 0
M  V30 6106 C 575.153 1.61538 -0.963689 0
M  V30 6107 O 574.511 1.81168 0.069071 0
M  V30 6108 C 574.559 1.22599 -3.39119 0
M  V30 6109 O 573.663 2.34185 -3.39457 0
M  V30 6110 H 573.004 0.151314 -0.646529 0
M  V30 6111 H 575.534 -0.163703 -2.03944 0
M  V30 6112 H 575.544 1.56965 -3.76598 0
M  V30 6113 H 574.219 0.476831 -4.13158 0
M  V30 6114 H 572.796 2.01512 -3.13763 0
M  V30 6115 N 574.981 1.5647 0.188427 0
M  V30 6116 C 576.209 1.85131 0.923803 0
M  V30 6117 C 576.624 0.668537 1.76567 0
M  V30 6118 O 575.981 -0.362662 1.7886 0
M  V30 6119 C 576.032 3.12661 1.81453 0
M  V30 6120 O 575.753 4.26378 1.00665 0
M  V30 6121 C 577.254 3.54548 2.66103 0
M  V30 6122 H 574.474 0.614624 0.269218 0
M  V30 6123 H 577.018 2.03581 0.193671 0
M  V30 6124 H 575.173 2.96088 2.49821 0
M  V30 6125 H 575.587 4.99041 1.61425 0
M  V30 6126 H 577.061 4.4673 3.24247 0
M  V30 6127 H 577.538 2.77853 3.40139 0
M  V30 6128 H 578.144 3.73674 2.03096 0
M  V30 6129 N 576.459 -0.456382 1.50847 0
M  V30 6130 C 577.87 -1.03685 1.55262 0
M  V30 6131 C 578.221 -1.92779 0.364771 0
M  V30 6132 O 577.346 -2.10043 -0.52068 0
M  V30 6133 C 577.941 -1.88718 2.81374 0
M  V30 6134 C 576.5 -2.41847 2.88422 0
M  V30 6135 C 575.647 -1.20564 2.49719 0
M  V30 6136 H 578.598 -0.238399 1.56899 0
M  V30 6137 H 578.619 -2.73957 2.6406 0
M  V30 6138 H 578.131 -1.23847 3.67809 0
M  V30 6139 H 576.232 -3.10228 2.06372 0
M  V30 6140 H 576.345 -2.75947 3.9165 0
M  V30 6141 H 574.709 -1.54504 2.02486 0
M  V30 6142 H 575.492 -0.573326 3.38479 0
M  V30 6143 N 577.937 -1.40673 -0.710563 0
M  V30 6144 C 579.214 -1.29718 -1.46398 0
M  V30 6145 C 579.594 0.082177 -2.1094 0
M  V30 6146 O 578.942 1.09536 -2.00534 0
M  V30 6147 C 579.152 -2.43967 -2.49562 0
M  V30 6148 C 580.5 -2.84436 -3.15248 0
M  V30 6149 O 581.524 -2.43597 -2.59883 0
M  V30 6150 O 580.383 -3.55008 -4.1549 0
M  V30 6151 H 577.477 -0.509697 -0.651258 0
M  V30 6152 H 580.023 -1.52603 -0.742312 0
M  V30 6153 H 578.795 -3.36076 -2.0042 0
M  V30 6154 H 578.418 -2.22879 -3.29258 0
M  V30 6155 N 579.415 0.9433 -1.26252 0
M  V30 6156 C 580.64 1.72898 -1.14547 0
M  V30 6157 C 581.065 1.85761 0.295743 0
M  V30 6158 O 580.423 1.3463 1.21427 0
M  V30 6159 C 580.471 3.11471 -1.8171 0
M  V30 6160 O 579.575 3.97336 -1.10445 0
M  V30 6161 H 578.916 0.530555 -0.399259 0
M  V30 6162 H 581.446 1.18159 -1.67032 0
M  V30 6163 H 581.456 3.61872 -1.88449 0
M  V30 6164 H 580.131 3.01425 -2.86558 0
M  V30 6165 H 578.708 3.55788 -1.11666 0
M  V30 6166 N 580.893 1.08022 1.14757 0
M  V30 6167 C 582.304 0.829144 1.67279 0
M  V30 6168 C 582.655 -0.644721 1.85305 0
M  V30 6169 O 581.78 -1.49838 1.56133 0
M  V30 6170 C 582.375 1.49855 3.03857 0
M  V30 6171 C 580.934 1.29482 3.53428 0
M  V30 6172 C 580.081 1.56386 2.28995 0
M  V30 6173 H 583.032 1.24134 0.988762 0
M  V30 6174 H 583.053 0.923572 3.69121 0
M  V30 6175 H 582.565 2.57123 2.90705 0
M  V30 6176 H 580.666 0.242669 3.71809 0
M  V30 6177 H 580.779 2.01974 4.34446 0
M  V30 6178 H 579.143 0.985217 2.34874 0
M  V30 6179 H 579.926 2.64851 2.18423 0
M  V30 6180 N 582.371 -1.3172 0.865308 0
M  V30 6181 C 583.596 -2.01591 0.487415 0
M  V30 6182 C 584.021 -1.6455 -0.911307 0
M  V30 6183 O 583.379 -0.851689 -1.6005 0
M  V30 6184 C 583.427 -3.54759 0.646401 0
M  V30 6185 O 582.531 -4.11185 -0.316284 0
M  V30 6186 H 581.872 -0.634884 0.194468 0
M  V30 6187 H 584.402 -1.68024 1.16744 0
M  V30 6188 H 584.412 -4.04438 0.537932 0
M  V30 6189 H 583.087 -3.8106 1.66632 0
M  V30 6190 H 581.664 -3.72543 -0.163162 0
M  V30 6191 N 583.85 -0.624285 -1.44708 0
M  V30 6192 C 584.8 0.106466 -2.27751 0
M  V30 6193 C 585.784 0.822703 -1.38277 0
M  V30 6194 O 586.976 0.709939 -1.62138 0
M  V30 6195 C 584.105 1.092 -3.25469 0
M  V30 6196 C 583.191 0.375737 -4.22432 0
M  V30 6197 N 583.582 -0.591881 -5.02325 0
M  V30 6198 C 581.88 0.621093 -4.41654 0
M  V30 6199 C 582.581 -1.01443 -5.72786 0
M  V30 6200 N 581.557 -0.354651 -5.42442 0
M  V30 6201 H 585.359 -0.636464 -2.86926 0
M  V30 6202 H 582.873 -0.44925 -1.56062 0
M  V30 6203 H 584.87 1.63006 -3.83712 0
M  V30 6204 H 583.529 1.8353 -2.67856 0
M  V30 6205 H 584.541 -0.969389 -5.08747 0
M  V30 6206 H 581.218 1.34779 -3.95147 0
M  V30 6207 H 582.608 -1.81345 -6.46965 0
M  V30 6208 N 585.328 1.53329 -0.364422 0
M  V30 6209 C 586.258 2.28627 0.474543 0
M  V30 6210 C 587.239 1.31009 1.08492 0
M  V30 6211 O 588.424 1.59878 1.10239 0
M  V30 6212 C 585.554 3.07465 1.61501 0
M  V30 6213 C 584.508 4.1276 1.13194 0
M  V30 6214 C 583.834 4.79674 2.36255 0
M  V30 6215 C 585.134 5.21847 0.217507 0
M  V30 6216 H 586.828 2.99005 -0.153656 0
M  V30 6217 H 584.374 1.43803 -0.0753406 0
M  V30 6218 H 586.327 3.58889 2.20855 0
M  V30 6219 H 585.051 2.34775 2.27042 0
M  V30 6220 H 583.71 3.62281 0.56109 0
M  V30 6221 H 583.358 4.03557 3.00251 0
M  V30 6222 H 583.058 5.50827 2.04606 0
M  V30 6223 H 584.582 5.33892 2.96297 0
M  V30 6224 H 585.996 5.6878 0.718493 0
M  V30 6225 H 584.393 6.00099 -0.00806408 0
M  V30 6226 H 585.463 4.7921 -0.740653 0
M  V30 6227 N 586.806 0.0935595 1.57322 0
M  V30 6228 C 588.217 -0.435807 1.81542 0
M  V30 6229 C 588.568 -1.68263 1.00907 0
M  V30 6230 O 587.693 -2.15087 0.237983 0
M  V30 6231 C 588.288 -0.797436 3.29282 0
M  V30 6232 C 586.847 -1.27155 3.54272 0
M  V30 6233 C 585.994 -0.267455 2.76007 0
M  V30 6234 H 588.945 0.31902 1.5546 0
M  V30 6235 H 588.966 -1.6571 3.42521 0
M  V30 6236 H 588.478 0.110206 3.87943 0
M  V30 6237 H 586.579 -2.19696 3.00939 0
M  V30 6238 H 586.692 -1.23445 4.62923 0
M  V30 6239 H 585.056 -0.749282 2.43429 0
M  V30 6240 H 585.839 0.632839 3.37417 0
M  V30 6241 N 588.284 -1.56567 -0.180126 0
M  V30 6242 C 589.695 -1.7126 -0.743422 0
M  V30 6243 C 590.046 -0.70263 -1.83187 0
M  V30 6244 O 589.171 0.137856 -2.1596 0
M  V30 6245 C 589.766 -3.10512 -1.35528 0
M  V30 6246 C 588.325 -3.26919 -1.8655 0
M  V30 6247 C 587.472 -2.67213 -0.741099 0
M  V30 6248 H 590.423 -1.58636 0.0451543 0
M  V30 6249 H 590.444 -3.08673 -2.22489 0
M  V30 6250 H 589.956 -3.83997 -0.562862 0
M  V30 6251 H 588.057 -2.58376 -2.68464 0
M  V30 6252 H 588.17 -4.34574 -2.01699 0
M  V30 6253 H 586.534 -2.26788 -1.15927 0
M  V30 6254 H 587.317 -3.43277 0.0393291 0
M  V30 6255 N 589.762 0.448376 -1.51087 0
M  V30 6256 C 591.039 1.20926 -1.53741 0
M  V30 6257 C 591.419 2.09025 -0.295222 0
M  V30 6258 O 590.767 2.16851 0.720283 0
M  V30 6259 C 590.977 2.02067 -2.84552 0
M  V30 6260 C 592.325 2.59486 -3.36084 0
M  V30 6261 O 593.349 2.12289 -2.86028 0
M  V30 6262 O 592.208 3.45539 -4.23397 0
M  V30 6263 H 589.302 0.549951 -0.617643 0
M  V30 6264 H 591.848 0.458344 -1.63393 0
M  V30 6265 H 590.62 1.37291 -3.66425 0
M  V30 6266 H 590.243 2.84246 -2.78011 0
M  V30 6267 N 591.24 1.41047 0.703093 0
M  V30 6268 C 592.465 1.43537 1.49706 0
M  V30 6269 C 592.89 0.0401853 1.88057 0
M  V30 6270 O 592.248 -0.954785 1.54122 0
M  V30 6271 C 592.296 2.3433 2.74084 0
M  V30 6272 O 591.4 1.79515 3.71279 0
M  V30 6273 H 590.741 0.487454 0.450871 0
M  V30 6274 H 593.271 1.85422 0.86486 0
M  V30 6275 H 593.281 2.49947 3.22476 0
M  V30 6276 H 591.956 3.35708 2.45506 0
M  V30 6277 H 590.533 1.7331 3.30179 0
M  V30 6278 N 592.718 -0.936591 1.26751 0
M  V30 6279 C 593.964 -1.68625 1.13741 0
M  V30 6280 C 594.319 -1.898 -0.315221 0
M  V30 6281 O 593.612 -1.47088 -1.22783 0
M  V30 6282 C 593.806 -3.06099 1.84494 0
M  V30 6283 C 593.635 -2.98338 3.36488 0
M  V30 6284 C 592.405 -3.01104 4.05789 0
M  V30 6285 C 594.603 -2.78128 4.32608 0
M  V30 6286 N 592.585 -2.8369 5.4442 0
M  V30 6287 C 593.956 -2.69329 5.58446 0
M  V30 6288 C 596.011 -2.62946 4.22804 0
M  V30 6289 C 594.714 -2.46899 6.75598 0
M  V30 6290 C 596.74 -2.41892 5.39669 0
M  V30 6291 C 596.102 -2.33829 6.64457 0
M  V30 6292 H 592.201 -0.624227 0.471025 0
M  V30 6293 H 594.785 -1.10798 1.601 0
M  V30 6294 H 592.956 -3.62057 1.40604 0
M  V30 6295 H 594.688 -3.69951 1.64067 0
M  V30 6296 H 591.443 -3.10992 3.57185 0
M  V30 6297 H 591.867 -2.78138 6.17226 0
M  V30 6298 H 596.509 -2.67944 3.27056 0
M  V30 6299 H 594.227 -2.40642 7.71438 0
M  V30 6300 H 597.813 -2.31043 5.33957 0
M  V30 6301 H 596.693 -2.17754 7.53361 0
M  V30 6302 N 594.196 -1.08629 -1.14182 0
M  V30 6303 C 595.159 -0.722027 -2.1753 0
M  V30 6304 C 596.159 0.244305 -1.58933 0
M  V30 6305 O 597.349 0.0235545 -1.74184 0
M  V30 6306 C 594.481 -0.0663966 -3.40835 0
M  V30 6307 H 595.674 -1.63719 -2.51269 0
M  V30 6308 H 593.227 -0.884442 -1.28869 0
M  V30 6309 H 593.962 0.860389 -3.12678 0
M  V30 6310 H 593.747 -0.761598 -3.84632 0
M  V30 6311 H 595.237 0.173346 -4.1724 0
M  V30 6312 N 595.674 1.31259 -0.872281 0
M  V30 6313 C 596.902 2.00795 -0.498907 0
M  V30 6314 C 597.317 1.65464 0.909238 0
M  V30 6315 O 596.674 0.885073 1.59602 0
M  V30 6316 C 596.725 3.55625 -0.649092 0
M  V30 6317 O 596.446 3.89692 -2.00179 0
M  V30 6318 C 597.947 4.42434 -0.277034 0
M  V30 6319 H 595.167 0.642299 -0.194145 0
M  V30 6320 H 597.711 1.67438 -1.17408 0
M  V30 6321 H 595.866 3.87394 -0.0214402 0
M  V30 6322 H 596.28 4.84407 -2.01122 0
M  V30 6323 H 597.754 5.50299 -0.433064 0
M  V30 6324 H 598.231 4.32146 0.783989 0
M  V30 6325 H 598.837 4.16086 -0.880483 0
M  V30 6326 N 597.152 0.631951 1.44375 0
M  V30 6327 C 598.082 -0.0593243 2.33425 0
M  V30 6328 C 599.063 -0.833964 1.48253 0
M  V30 6329 O 600.248 -0.799682 1.76971 0
M  V30 6330 C 597.378 -1.04096 3.31333 0
M  V30 6331 C 596.332 -0.377899 4.26328 0
M  V30 6332 C 595.658 -1.4695 5.14111 0
M  V30 6333 C 596.958 0.716371 5.17364 0
M  V30 6334 H 598.652 0.684287 2.91475 0
M  V30 6335 H 596.198 0.330518 1.40156 0
M  V30 6336 H 598.151 -1.53331 3.92514 0
M  V30 6337 H 596.875 -1.81547 2.71493 0
M  V30 6338 H 595.534 0.0938054 3.6648 0
M  V30 6339 H 595.182 -2.2349 4.50623 0
M  V30 6340 H 594.882 -1.03121 5.78481 0
M  V30 6341 H 596.406 -1.96363 5.78164 0
M  V30 6342 H 597.82 0.307089 5.72477 0
M  V30 6343 H 596.217 1.07784 5.90341 0
M  V30 6344 H 597.287 1.58316 4.58327 0
M  V30 6345 N 598.631 -1.53133 0.372548 0
M  V30 6346 C 599.561 -2.28876 -0.462412 0
M  V30 6347 C 600.542 -1.31583 -1.07796 0
M  V30 6348 O 601.727 -1.60461 -1.09389 0
M  V30 6349 C 598.857 -3.08317 -1.59868 0
M  V30 6350 C 597.811 -4.13355 -1.11003 0
M  V30 6351 C 597.137 -4.8092 -2.33708 0
M  V30 6352 C 598.437 -5.21955 -0.18983 0
M  V30 6353 H 600.131 -2.9892 0.169511 0
M  V30 6354 H 597.677 -1.43761 0.0829658 0
M  V30 6355 H 599.63 -3.60055 -2.18949 0
M  V30 6356 H 598.354 -2.35976 -2.25794 0
M  V30 6357 H 597.013 -3.62573 -0.541869 0
M  V30 6358 H 596.661 -4.05144 -2.98106 0
M  V30 6359 H 596.361 -5.51904 -2.01682 0
M  V30 6360 H 597.885 -5.35455 -2.93462 0
M  V30 6361 H 599.299 -5.69153 -0.688319 0
M  V30 6362 H 597.696 -6.00087 0.0398887 0
M  V30 6363 H 598.766 -4.78811 0.766057 0
M  V30 6364 N 600.109 -0.101901 -1.5727 0
M  V30 6365 C 601.072 0.840129 -2.13247 0
M  V30 6366 C 602.072 1.20625 -1.06331 0
M  V30 6367 O 603.262 1.13456 -1.32186 0
M  V30 6368 C 600.394 2.13372 -2.65867 0
M  V30 6369 H 601.587 0.353945 -2.97804 0
M  V30 6370 H 599.14 0.147167 -1.55606 0
M  V30 6371 H 599.875 2.66461 -1.84849 0
M  V30 6372 H 599.66 1.88085 -3.44044 0
M  V30 6373 H 601.15 2.80748 -3.09145 0
M  V30 6374 N 601.587 1.56661 0.17182 0
M  V30 6375 C 602.519 1.92934 1.2373 0
M  V30 6376 C 603.532 0.822385 1.40502 0
M  V30 6377 O 604.721 1.10083 1.40514 0
M  V30 6378 C 601.821 2.16651 2.60607 0
M  V30 6379 C 600.994 3.47878 2.6514 0
M  V30 6380 C 600.053 3.60429 3.83377 0
M  V30 6381 O 599.079 4.33051 3.69398 0
M  V30 6382 N 600.281 2.95241 4.99813 0
M  V30 6383 H 603.046 2.84931 0.929205 0
M  V30 6384 H 600.607 1.5781 0.361588 0
M  V30 6385 H 602.599 2.22312 3.38171 0
M  V30 6386 H 601.169 1.3104 2.83809 0
M  V30 6387 H 600.389 3.53879 1.73675 0
M  V30 6388 H 601.677 4.34232 2.6518 0
M  V30 6389 H 601.075 2.3611 5.14071 0
M  V30 6390 H 599.632 3.06499 5.75241 0
M  V30 6391 N 603.065 -0.440357 1.51323 0
M  V30 6392 C 604.311 -1.18874 1.65047 0
M  V30 6393 C 604.666 -1.88988 0.360742 0
M  V30 6394 O 603.959 -1.80479 -0.643272 0
M  V30 6395 C 604.153 -2.2339 2.78984 0
M  V30 6396 C 603.982 -1.63534 4.18911 0
M  V30 6397 C 602.752 -1.42158 4.84891 0
M  V30 6398 C 604.95 -1.11324 5.02107 0
M  V30 6399 N 602.932 -0.778679 6.08942 0
M  V30 6400 C 604.303 -0.595421 6.17134 0
M  V30 6401 C 606.358 -1.00471 4.87658 0
M  V30 6402 C 605.061 0.0202557 7.19297 0
M  V30 6403 C 607.087 -0.402928 5.90026 0
M  V30 6404 C 606.449 0.10436 7.04323 0
M  V30 6405 H 602.548 -0.422771 0.657866 0
M  V30 6406 H 605.132 -0.485814 1.88542 0
M  V30 6407 H 603.303 -2.91074 2.57158 0
M  V30 6408 H 605.035 -2.90366 2.81904 0
M  V30 6409 H 601.79 -1.68247 4.42707 0
M  V30 6410 H 602.214 -0.474755 6.75333 0
M  V30 6411 H 606.856 -1.38278 3.99548 0
M  V30 6412 H 604.574 0.410468 8.07057 0
M  V30 6413 H 608.16 -0.320897 5.80914 0
M  V30 6414 H 607.04 0.562697 7.82179 0
M  V30 6415 N 604.543 -1.41418 -0.695603 0
M  V30 6416 C 605.506 -1.42988 -1.79129 0
M  V30 6417 C 606.506 -0.320514 -1.57573 0
M  V30 6418 O 607.696 -0.58039 -1.64247 0
M  V30 6419 C 604.828 -1.24122 -3.175 0
M  V30 6420 H 606.021 -2.40526 -1.7913 0
M  V30 6421 H 603.574 -1.2756 -0.903225 0
M  V30 6422 H 604.309 -0.274253 -3.23138 0
M  V30 6423 H 604.094 -2.045 -3.34547 0
M  V30 6424 H 605.584 -1.28056 -3.97481 0
M  V30 6425 N 606.021 0.929856 -1.27246 0
M  V30 6426 C 607.298 1.65544 -1.04186 0
M  V30 6427 C 607.678 2.06796 0.424097 0
M  V30 6428 O 607.026 1.80053 1.40688 0
M  V30 6429 C 607.236 2.85912 -2.00138 0
M  V30 6430 C 608.584 3.57305 -2.29387 0
M  V30 6431 O 609.608 2.96036 -1.98094 0
M  V30 6432 O 608.467 4.67688 -2.82719 0
M  V30 6433 H 605.561 0.725473 -0.397011 0
M  V30 6434 H 608.107 0.980583 -1.38501 0
M  V30 6435 H 606.879 2.52403 -2.99013 0
M  V30 6436 H 606.502 3.61118 -1.66371 0
M  V30 6437 N 607.499 1.09233 1.13605 0
M  V30 6438 C 608.915 0.82163 1.36826 0
M  V30 6439 C 609.115 -0.565021 1.93416 0
M  V30 6440 O 608.171 -1.32026 2.15234 0
M  V30 6441 C 609.484 1.91124 2.32147 0
M  V30 6442 C 611.032 1.93824 2.45767 0
M  V30 6443 C 611.507 3.01923 3.44393 0
M  V30 6444 N 612.998 3.01149 3.51942 0
M  V30 6445 C 613.733 3.81434 4.2813 0
M  V30 6446 N 613.229 4.71621 5.07489 0
M  V30 6447 N 615.022 3.69702 4.23411 0
M  V30 6448 H 607.173 1.98633 0.752234 0
M  V30 6449 H 609.436 0.862482 0.393482 0
M  V30 6450 H 609.142 2.90862 1.97717 0
M  V30 6451 H 609.016 1.78777 3.32142 0
M  V30 6452 H 611.403 0.94726 2.79483 0
M  V30 6453 H 611.484 2.10248 1.45703 0
M  V30 6454 H 611.128 4.01232 3.11408 0
M  V30 6455 H 611.058 2.82742 4.44257 0
M  V30 6456 H 613.549 2.35789 2.95317 0
M  V30 6457 H 613.862 5.29468 5.62924 0
M  V30 6458 H 612.207 4.75658 5.06729 0
M  V30 6459 H 615.398 2.98606 3.60489 0
M  V30 6460 H 615.571 4.32509 4.82535 0
M  V30 6461 N 608.977 -1.30795 0.87923 0
M  V30 6462 C 609.94 -2.26563 0.346676 0
M  V30 6463 C 610.94 -1.52578 -0.507597 0
M  V30 6464 O 612.13 -1.71318 -0.315575 0
M  V30 6465 C 609.262 -3.37115 -0.506611 0
M  V30 6466 H 610.455 -2.75183 1.19223 0
M  V30 6467 H 608.008 -1.41886 0.655598 0
M  V30 6468 H 608.743 -2.93802 -1.37299 0
M  V30 6469 H 608.528 -3.91959 0.105218 0
M  V30 6470 H 610.018 -4.08412 -0.871192 0
M  V30 6471 N 610.455 -0.639598 -1.44038 0
M  V30 6472 C 611.385 0.0469443 -2.33453 0
M  V30 6473 C 612.366 0.82609 -1.48694 0
M  V30 6474 O 613.551 0.790285 -1.77393 0
M  V30 6475 C 610.681 1.02338 -3.3188 0
M  V30 6476 C 609.635 0.355284 -4.26523 0
M  V30 6477 C 608.961 1.44221 -5.14883 0
M  V30 6478 C 610.261 -0.743798 -5.16977 0
M  V30 6479 H 611.955 -0.699735 -2.91108 0
M  V30 6480 H 609.501 -0.337946 -1.39978 0
M  V30 6481 H 611.454 1.51247 -3.93322 0
M  V30 6482 H 610.178 1.80105 -2.72451 0
M  V30 6483 H 608.837 -0.113239 -3.66425 0
M  V30 6484 H 608.485 2.21097 -4.51802 0
M  V30 6485 H 608.185 1.00052 -5.79019 0
M  V30 6486 H 609.709 1.93295 -5.79197 0
M  V30 6487 H 611.123 -0.337444 -5.72306 0
M  V30 6488 H 609.52 -1.10914 -5.89761 0
M  V30 6489 H 610.59 -1.60745 -4.57481 0
M  V30 6490 N 611.933 1.52934 -0.380664 0
M  V30 6491 C 613.349 1.59571 -0.0302429 0
M  V30 6492 C 613.549 1.39509 1.45394 0
M  V30 6493 O 612.605 1.20777 2.21741 0
M  V30 6494 C 613.918 2.96519 -0.499691 0
M  V30 6495 C 615.466 3.09672 -0.455204 0
M  V30 6496 C 615.941 4.49056 -0.900703 0
M  V30 6497 N 617.432 4.55215 -0.856367 0
M  V30 6498 C 618.167 5.61282 -1.17259 0
M  V30 6499 N 617.663 6.75035 -1.55885 0
M  V30 6500 N 619.456 5.51343 -1.0944 0
M  V30 6501 H 611.607 1.64224 -1.347 0
M  V30 6502 H 613.87 0.771033 -0.551554 0
M  V30 6503 H 613.576 3.16388 -1.53595 0
M  V30 6504 H 613.45 3.77052 0.105789 0
M  V30 6505 H 615.837 2.89504 0.571949 0
M  V30 6506 H 615.918 2.31113 -1.09638 0
M  V30 6507 H 615.562 4.69964 -1.92604 0
M  V30 6508 H 615.492 5.26068 -0.236629 0
M  V30 6509 H 617.983 3.73546 -0.572013 0
M  V30 6510 H 618.296 7.51926 -1.784 0
M  V30 6511 H 616.641 6.76388 -1.59764 0
M  V30 6512 H 619.832 4.61356 -0.791713 0
M  V30 6513 H 620.005 6.33905 -1.34417 0
M  V30 6514 N 613.412 0.11024 1.57214 0
M  V30 6515 C 614.637 -0.561179 1.99664 0
M  V30 6516 C 615.062 -1.59985 0.989266 0
M  V30 6517 O 614.42 -1.81255 -0.0402399 0
M  V30 6518 C 614.468 -1.17189 3.41027 0
M  V30 6519 O 613.572 -2.28755 3.4314 0
M  V30 6520 H 612.913 -0.14101 0.648855 0
M  V30 6521 H 615.443 0.196128 2.03658 0
M  V30 6522 H 615.453 -1.50954 3.79047 0
M  V30 6523 H 614.128 -0.411041 4.13864 0
M  V30 6524 H 612.705 -1.96495 3.16929 0
M  V30 6525 N 614.89 -1.56749 -0.16351 0
M  V30 6526 C 616.138 -1.82074 -0.87713 0
M  V30 6527 C 616.459 -0.688503 -1.82441 0
M  V30 6528 O 615.729 0.291085 -1.93725 0
M  V30 6529 H 614.309 -0.671677 -0.326893 0
M  V30 6530 H 616.971 -1.9423 -0.161459 0
M  V30 6531 H 616.067 -2.76407 -1.44934 0
M  V30 6532 N 616.368 0.432326 -1.51554 0
M  V30 6533 C 617.318 1.52366 -1.69614 0
M  V30 6534 C 618.302 1.51205 -0.550083 0
M  V30 6535 O 619.494 1.57573 -0.806206 0
M  V30 6536 C 616.623 2.90513 -1.82913 0
M  V30 6537 C 615.709 2.9641 -3.03318 0
M  V30 6538 N 616.1 2.72043 -4.26411 0
M  V30 6539 C 614.398 3.27572 -3.02675 0
M  V30 6540 C 615.099 2.83912 -5.07709 0
M  V30 6541 N 614.075 3.15798 -4.42462 0
M  V30 6542 H 617.877 1.32285 -2.62446 0
M  V30 6543 H 615.391 0.639708 -1.4927 0
M  V30 6544 H 617.388 3.69032 -1.93962 0
M  V30 6545 H 616.048 3.1161 -0.912655 0
M  V30 6546 H 617.059 2.46876 -4.55272 0
M  V30 6547 H 613.736 3.54411 -2.20678 0
M  V30 6548 H 615.126 2.68984 -6.15709 0
M  V30 6549 N 617.846 1.41785 0.688094 0
M  V30 6550 C 618.778 1.40159 1.81351 0
M  V30 6551 C 619.791 0.30262 1.59963 0
M  V30 6552 O 620.98 0.564841 1.69327 0
M  V30 6553 C 618.08 1.16517 3.1824 0
M  V30 6554 C 617.253 2.38597 3.66593 0
M  V30 6555 C 616.312 2.10699 4.82174 0
M  V30 6556 O 615.338 2.83798 4.93404 0
M  V30 6557 N 616.54 1.10187 5.69947 0
M  V30 6558 H 619.305 2.3716 1.83236 0
M  V30 6559 H 616.866 1.36494 0.870697 0
M  V30 6560 H 618.858 0.957941 3.93199 0
M  V30 6561 H 617.428 0.280873 3.11336 0
M  V30 6562 H 616.648 2.74974 2.82459 0
M  V30 6563 H 617.936 3.19919 3.95638 0
M  V30 6564 H 617.334 0.497016 5.63512 0
M  V30 6565 H 615.891 0.954518 6.44773 0
M  V30 6566 N 619.324 -0.923095 1.27737 0
M  V30 6567 C 620.272 -2.04567 1.10703 0
M  V30 6568 C 621.266 -1.69375 0.0288445 0
M  V30 6569 O 622.472 -1.79027 0.186913 0
M  V30 6570 H 618.847 -0.670109 0.34126 0
M  V30 6571 H 620.818 -2.1608 2.05796 0
M  V30 6572 C 619.567 -3.38934 0.775837 0
M  V30 6573 H 618.89 -3.66501 1.59741 0
M  V30 6574 H 620.33 -4.18239 0.696548 0
M  V30 6575 C 618.789 -3.32863 -0.520012 0
M  V30 6576 O 619.319 -3.70462 -1.55308 0
M  V30 6577 N 617.525 -2.85958 -0.51732 0
M  V30 6578 H 617.072 -2.55557 0.32379 0
M  V30 6579 H 617.03 -2.82279 -1.38441 0
M  V30 6580 N 620.802 -1.09834 -1.13024 0
M  V30 6581 C 621.732 -0.763451 -2.20666 0
M  V30 6582 C 622.713 0.260778 -1.68089 0
M  V30 6583 O 623.898 0.127915 -1.93778 0
M  V30 6584 C 621.028 -0.187744 -3.46792 0
M  V30 6585 C 619.982 -1.14196 -4.12484 0
M  V30 6586 C 619.308 -0.427755 -5.32986 0
M  V30 6587 C 620.608 -2.48607 -4.59338 0
M  V30 6588 H 622.302 -1.66347 -2.48936 0
M  V30 6589 H 619.848 -0.801261 -1.19649 0
M  V30 6590 H 621.801 0.0586375 -4.21359 0
M  V30 6591 H 620.525 0.747485 -3.17931 0
M  V30 6592 H 619.184 -1.37369 -3.3989 0
M  V30 6593 H 618.832 0.511747 -5.0039 0
M  V30 6594 H 618.532 -1.06403 -5.77886 0
M  V30 6595 H 620.056 -0.189772 -6.10305 0
M  V30 6596 H 621.47 -2.29618 -5.25308 0
M  V30 6597 H 619.867 -3.08062 -5.14993 0
M  V30 6598 H 620.937 -3.09062 -3.73642 0
M  V30 6599 N 622.28 1.30327 -0.886154 0
M  V30 6600 C 623.21 2.30549 -0.370028 0
M  V30 6601 C 624.191 1.61039 0.547751 0
M  V30 6602 O 625.376 1.8864 0.461353 0
M  V30 6603 C 622.506 3.44808 0.415275 0
M  V30 6604 C 621.46 4.26024 -0.41085 0
M  V30 6605 C 620.786 5.32347 0.501128 0
M  V30 6606 C 622.086 4.95433 -1.65359 0
M  V30 6607 H 623.78 2.73969 -1.20754 0
M  V30 6608 H 621.326 1.3171 -0.582097 0
M  V30 6609 H 623.279 4.13986 0.78699 0
M  V30 6610 H 622.003 3.00197 1.28644 0
M  V30 6611 H 620.662 3.58535 -0.764719 0
M  V30 6612 H 620.31 4.83982 1.37004 0
M  V30 6613 H 620.01 5.87581 -0.0478356 0
M  V30 6614 H 621.534 6.0438 0.869333 0
M  V30 6615 H 622.948 5.5712 -1.35239 0
M  V30 6616 H 621.345 5.60537 -2.14284 0
M  V30 6617 H 622.415 4.21493 -2.39733 0
M  V30 6618 N 623.758 0.647228 1.43697 0
M  V30 6619 C 624.983 0.164083 2.0675 0
M  V30 6620 C 625.408 -1.15892 1.48158 0
M  V30 6621 O 624.766 -1.71459 0.589194 0
M  V30 6622 C 624.814 0.0800368 3.60511 0
M  V30 6623 O 623.918 -0.959453 4.01084 0
M  V30 6624 H 623.259 0.0921288 0.657578 0
M  V30 6625 H 625.789 0.88846 1.84303 0
M  V30 6626 H 625.799 -0.105263 4.07864 0
M  V30 6627 H 624.474 1.04586 4.02535 0
M  V30 6628 H 623.051 -0.747425 3.65333 0
M  V30 6629 N 625.236 -1.5273 0.388769 0
M  V30 6630 C 626.146 -2.30165 -0.453993 0
M  V30 6631 C 627.162 -1.37058 -1.07197 0
M  V30 6632 O 628.338 -1.70127 -1.0779 0
M  V30 6633 C 625.403 -3.09303 -1.56628 0
M  V30 6634 C 624.464 -4.18117 -0.973467 0
M  V30 6635 C 623.697 -4.93472 -2.03275 0
M  V30 6636 O 623.92 -4.68913 -3.24772 0
M  V30 6637 O 622.854 -5.78833 -1.65034 0
M  V30 6638 H 626.68 -3.03185 0.176816 0
M  V30 6639 H 624.265 -1.4862 0.152501 0
M  V30 6640 H 626.147 -3.58648 -2.21246 0
M  V30 6641 H 624.822 -2.39098 -2.18206 0
M  V30 6642 H 623.729 -3.7297 -0.290556 0
M  V30 6643 H 625.062 -4.90556 -0.401908 0
M  V30 6644 N 626.714 -0.118576 -1.57153 0
M  V30 6645 C 627.677 0.817464 -2.14127 0
M  V30 6646 C 628.677 1.1949 -1.07604 0
M  V30 6647 O 629.867 1.12048 -1.33382 0
M  V30 6648 C 626.999 2.10541 -2.68115 0
M  V30 6649 H 628.192 0.322339 -2.98163 0
M  V30 6650 H 625.745 0.130655 -1.55753 0
M  V30 6651 H 626.48 2.64485 -1.87665 0
M  V30 6652 H 626.265 1.84425 -3.4602 0
M  V30 6653 H 627.755 2.77453 -3.12105 0
M  V30 6654 N 628.193 1.56834 0.155195 0
M  V30 6655 C 629.125 1.94235 1.21677 0
M  V30 6656 C 630.138 0.83724 1.39621 0
M  V30 6657 O 631.327 1.11567 1.39338 0
M  V30 6658 C 628.427 2.19402 2.58294 0
M  V30 6659 C 627.6 3.50671 2.61436 0
M  V30 6660 C 626.659 3.64475 3.79532 0
M  V30 6661 O 625.685 4.36945 3.64784 0
M  V30 6662 N 626.887 3.00526 4.96653 0
M  V30 6663 H 629.652 2.85901 0.898932 0
M  V30 6664 H 627.213 1.58185 0.34483 0
M  V30 6665 H 629.205 2.25886 3.35794 0
M  V30 6666 H 627.775 1.34042 2.82403 0
M  V30 6667 H 626.995 3.55702 1.69912 0
M  V30 6668 H 628.283 4.3702 2.60559 0
M  V30 6669 H 627.681 2.41549 5.11538 0
M  V30 6670 H 626.238 3.12583 5.71958 0
M  V30 6671 N 629.671 -0.424282 1.51781 0
M  V30 6672 C 631.082 -1.00368 1.57427 0
M  V30 6673 C 631.433 -1.91962 0.40558 0
M  V30 6674 O 630.558 -2.111 -0.47601 0
M  V30 6675 C 631.153 -1.82707 2.85313 0
M  V30 6676 C 629.712 -2.35675 2.93487 0
M  V30 6677 C 628.859 -1.1524 2.5222 0
M  V30 6678 H 631.81 -0.205064 1.5737 0
M  V30 6679 H 631.831 -2.68294 2.69812 0
M  V30 6680 H 631.343 -1.16017 3.70353 0
M  V30 6681 H 629.444 -3.05781 2.12906 0
M  V30 6682 H 629.557 -2.67578 3.97415 0
M  V30 6683 H 627.921 -1.50174 2.05718 0
M  V30 6684 H 628.704 -0.5014 3.39619 0
M  V30 6685 N 631.149 -1.42148 -0.680565 0
M  V30 6686 C 632.059 -1.47565 -1.82378 0
M  V30 6687 C 633.075 -0.36489 -1.70131 0
M  V30 6688 O 634.251 -0.614916 -1.91783 0
M  V30 6689 C 631.316 -1.37013 -3.18478 0
M  V30 6690 C 630.377 -2.58532 -3.42724 0
M  V30 6691 C 629.61 -2.48473 -4.72331 0
M  V30 6692 O 629.833 -1.51745 -5.49845 0
M  V30 6693 O 628.767 -3.38503 -4.97694 0
M  V30 6694 H 632.593 -2.44045 -1.80764 0
M  V30 6695 H 630.178 -1.23849 -0.835569 0
M  V30 6696 H 632.06 -1.33468 -3.99705 0
M  V30 6697 H 630.735 -0.436552 -3.20743 0
M  V30 6698 H 629.642 -2.67652 -2.61368 0
M  V30 6699 H 630.975 -3.50769 -3.45286 0
M  V30 6700 N 632.627 0.916307 -1.28225 0
M  V30 6701 C 633.557 2.0352 -1.14464 0
M  V30 6702 C 634.538 1.70045 -0.0430844 0
M  V30 6703 O 635.723 1.92954 -0.219619 0
M  V30 6704 C 632.853 3.37889 -0.803027 0
M  V30 6705 C 631.807 3.85516 -1.85908 0
M  V30 6706 C 631.133 5.1682 -1.37116 0
M  V30 6707 C 632.433 4.07655 -3.26519 0
M  V30 6708 H 634.127 2.1529 -2.08064 0
M  V30 6709 H 631.673 1.03446 -1.00174 0
M  V30 6710 H 633.626 4.15654 -0.693537 0
M  V30 6711 H 632.35 3.26164 0.168674 0
M  V30 6712 H 631.009 3.09953 -1.95767 0
M  V30 6713 H 630.657 5.01497 -0.38859 0
M  V30 6714 H 630.357 5.49657 -2.07728 0
M  V30 6715 H 631.881 5.97143 -1.27484 0
M  V30 6716 H 633.295 4.75953 -3.19596 0
M  V30 6717 H 631.692 4.51818 -3.94943 0
M  V30 6718 H 632.762 3.12553 -3.70727 0
M  V30 6719 N 634.105 1.10431 1.1244 0
M  V30 6720 C 635.015 0.765502 2.21759 0
M  V30 6721 C 636.031 -0.236966 1.72379 0
M  V30 6722 O 637.207 -0.0757329 2.01258 0
M  V30 6723 C 634.272 0.202316 3.46109 0
M  V30 6724 C 633.333 1.26205 4.1033 0
M  V30 6725 C 632.566 0.725648 5.28744 0
M  V30 6726 O 632.789 -0.447942 5.68638 0
M  V30 6727 O 631.723 1.48555 5.83279 0
M  V30 6728 H 635.549 1.67801 2.53133 0
M  V30 6729 H 633.134 0.879443 1.20773 0
M  V30 6730 H 635.016 -0.107918 4.21262 0
M  V30 6731 H 633.691 -0.683052 3.16411 0
M  V30 6732 H 632.598 1.62514 3.36957 0
M  V30 6733 H 633.931 2.12044 4.44183 0
M  V30 6734 N 635.583 -1.29855 0.893053 0
M  V30 6735 C 636.999 -1.48366 0.588199 0
M  V30 6736 C 637.199 -1.81654 -0.872018 0
M  V30 6737 O 636.255 -1.909 -1.65268 0
M  V30 6738 C 637.568 -2.60136 1.5083 0
M  V30 6739 C 639.116 -2.74014 1.51279 0
M  V30 6740 C 639.591 -3.88905 2.41902 0
M  V30 6741 N 641.082 -3.96228 2.39911 0
M  V30 6742 C 641.817 -4.84458 3.06738 0
M  V30 6743 N 641.313 -5.77426 3.8282 0
M  V30 6744 N 643.106 -4.77894 2.95929 0
M  V30 6745 H 635.257 -1.06522 1.83757 0
M  V30 6746 H 637.52 -0.528495 0.787018 0
M  V30 6747 H 637.226 -2.42383 2.54839 0
M  V30 6748 H 637.1 -3.56793 1.22388 0
M  V30 6749 H 639.487 -2.91167 0.480179 0
M  V30 6750 H 639.568 -1.77952 1.83757 0
M  V30 6751 H 639.212 -3.72508 3.45253 0
M  V30 6752 H 639.142 -4.84322 2.06737 0
M  V30 6753 H 641.633 -3.29728 1.84629 0
M  V30 6754 H 641.946 -6.41529 4.30883 0
M  V30 6755 H 640.291 -5.77332 3.86927 0
M  V30 6756 H 643.482 -4.04248 2.36012 0
M  V30 6757 H 643.655 -5.46444 3.48286 0
M  V30 6758 N 637.061 -0.65484 -1.43351 0
M  V30 6759 C 638.289 -0.176685 -2.06144 0
M  V30 6760 C 638.704 1.15831 -1.49093 0
M  V30 6761 O 638.061 1.71542 -0.622868 0
M  V30 6762 C 638.112 -0.0813326 -3.61408 0
M  V30 6763 O 637.833 -1.36355 -4.1634 0
M  V30 6764 C 639.334 0.422706 -4.4128 0
M  V30 6765 H 636.554 -0.0906429 -0.66485 0
M  V30 6766 H 639.098 -0.895945 -1.83829 0
M  V30 6767 H 637.253 0.588496 -3.82904 0
M  V30 6768 H 637.667 -1.22381 -5.10023 0
M  V30 6769 H 639.141 0.438375 -5.50257 0
M  V30 6770 H 639.618 1.45432 -4.14423 0
M  V30 6771 H 640.224 -0.214687 -4.24758 0
M  V30 6772 N 638.539 1.52521 -0.396863 0
M  V30 6773 C 639.469 2.29582 0.425941 0
M  V30 6774 C 640.45 1.33281 1.05689 0
M  V30 6775 O 641.635 1.62181 1.06823 0
M  V30 6776 C 638.765 3.10821 1.54943 0
M  V30 6777 C 637.719 4.15069 1.04413 0
M  V30 6778 C 637.045 4.84578 2.26028 0
M  V30 6779 C 638.345 5.22191 0.106767 0
M  V30 6780 H 640.039 2.98612 -0.217045 0
M  V30 6781 H 637.585 1.43611 -0.105826 0
M  V30 6782 H 639.538 3.63492 2.13193 0
M  V30 6783 H 638.262 2.39538 2.22011 0
M  V30 6784 H 636.921 3.63389 0.484118 0
M  V30 6785 H 636.569 4.09835 2.91623 0
M  V30 6786 H 636.269 5.55043 1.92876 0
M  V30 6787 H 637.793 5.40056 2.84906 0
M  V30 6788 H 639.207 5.70176 0.597685 0
M  V30 6789 H 637.604 5.99947 -0.135352 0
M  V30 6790 H 638.674 4.77531 -0.842134 0
M  V30 6791 N 640.017 0.126909 1.57088 0
M  V30 6792 C 640.947 -0.816847 2.18746 0
M  V30 6793 C 641.928 -1.27161 1.12979 0
M  V30 6794 O 643.113 -1.33279 1.41246 0
M  V30 6795 C 640.243 -2.06398 2.79315 0
M  V30 6796 C 639.197 -1.74673 3.90735 0
M  V30 6797 C 638.523 -3.06482 4.38147 0
M  V30 6798 C 639.823 -1.0089 5.12463 0
M  V30 6799 H 641.517 -0.303032 2.97863 0
M  V30 6800 H 639.063 -0.144314 1.43275 0
M  V30 6801 H 641.016 -2.72885 3.2111 0
M  V30 6802 H 639.74 -2.60118 1.975 0
M  V30 6803 H 638.399 -1.10572 3.49527 0
M  V30 6804 H 638.047 -3.58152 3.5318 0
M  V30 6805 H 637.747 -2.86025 5.13287 0
M  V30 6806 H 639.271 -3.74073 4.82599 0
M  V30 6807 H 640.685 -1.57546 5.51228 0
M  V30 6808 H 639.082 -0.905006 5.93237 0
M  V30 6809 H 640.152 0.00297335 4.849 0
M  V30 6810 N 641.495 -1.56914 -0.146875 0
M  V30 6811 C 642.723 -1.87515 -0.874394 0
M  V30 6812 C 643.138 -0.715116 -1.74733 0
M  V30 6813 O 642.495 0.315113 -1.79759 0
M  V30 6814 C 642.546 -3.17362 -1.731 0
M  V30 6815 O 642.267 -4.28897 -0.893245 0
M  V30 6816 C 643.768 -3.61479 -2.56609 0
M  V30 6817 H 640.988 -0.621546 -0.252827 0
M  V30 6818 H 643.532 -2.04023 -0.139627 0
M  V30 6819 H 641.687 -3.02608 -2.41883 0
M  V30 6820 H 642.101 -5.03146 -1.48137 0
M  V30 6821 H 643.575 -4.5517 -3.12289 0
M  V30 6822 H 644.052 -2.86773 -3.32653 0
M  V30 6823 H 644.658 -3.78927 -1.93117 0
M  V30 6824 N 642.974 0.416227 -1.52004 0
M  V30 6825 C 644.202 1.18573 -1.69553 0
M  V30 6826 C 644.617 1.84472 -0.401919 0
M  V30 6827 O 643.974 1.71593 0.621463 0
M  V30 6828 C 644.025 2.25413 -2.82615 0
M  V30 6829 O 643.746 1.62205 -4.06966 0
M  V30 6830 C 645.247 3.15297 -3.11613 0
M  V30 6831 H 642.467 0.356582 -0.56841 0
M  V30 6832 H 645.011 0.490618 -1.98528 0
M  V30 6833 H 643.166 2.90604 -2.56179 0
M  V30 6834 H 643.58 2.3298 -4.69916 0
M  V30 6835 H 645.054 3.86351 -3.94255 0
M  V30 6836 H 645.531 3.77264 -2.24874 0
M  V30 6837 H 646.137 2.55783 -3.39787 0
M  V30 6838 N 644.452 1.42507 0.673017 0
M  V30 6839 C 645.415 1.4582 1.76831 0
M  V30 6840 C 646.415 0.345542 1.57043 0
M  V30 6841 O 647.605 0.606447 1.63303 0
M  V30 6842 C 644.737 1.29158 3.15485 0
M  V30 6843 H 645.93 2.43345 1.7528 0
M  V30 6844 H 643.483 1.28981 0.882817 0
M  V30 6845 H 644.218 0.325626 3.22661 0
M  V30 6846 H 644.003 2.09797 3.31252 0
M  V30 6847 H 645.493 1.34363 3.95394 0
M  V30 6848 N 645.93 -0.909495 1.28709 0
M  V30 6849 C 646.86 -2.0291 1.15542 0
M  V30 6850 C 647.841 -1.7002 0.0521017 0
M  V30 6851 O 649.026 -1.92835 0.229849 0
M  V30 6852 C 646.156 -3.37458 0.820935 0
M  V30 6853 C 645.11 -3.84524 1.87949 0
M  V30 6854 C 644.436 -5.16086 1.39854 0
M  V30 6855 C 645.736 -4.05918 3.28676 0
M  V30 6856 H 647.43 -2.14183 2.09203 0
M  V30 6857 H 644.976 -1.02913 1.00722 0
M  V30 6858 H 646.929 -4.1528 0.715571 0
M  V30 6859 H 645.653 -3.26249 -0.151374 0
M  V30 6860 H 644.312 -3.08911 1.97408 0
M  V30 6861 H 643.96 -5.01284 0.41518 0
M  V30 6862 H 643.66 -5.48547 2.1064 0
M  V30 6863 H 645.184 -5.96459 1.30649 0
M  V30 6864 H 646.598 -4.74252 3.22115 0
M  V30 6865 H 644.995 -4.49717 3.97334 0
M  V30 6866 H 646.065 -3.10583 3.72379 0
M  V30 6867 N 647.408 -1.11026 -1.11852 0
M  V30 6868 C 648.824 -0.843294 -1.35502 0
M  V30 6869 C 649.024 0.534179 -1.9429 0
M  V30 6870 O 648.08 1.28585 -2.17307 0
M  V30 6871 C 649.393 -1.94793 -2.29077 0
M  V30 6872 C 650.941 -1.97709 -2.42652 0
M  V30 6873 C 651.416 -3.07364 -3.39546 0
M  V30 6874 N 652.907 -3.0671 -3.47107 0
M  V30 6875 C 653.642 -3.88197 -4.22008 0
M  V30 6876 N 653.138 -4.79635 -4.99922 0
M  V30 6877 N 654.931 -3.76391 -4.17476 0
M  V30 6878 H 647.082 -1.99805 -0.720538 0
M  V30 6879 H 649.345 -0.868633 -0.379711 0
M  V30 6880 H 649.051 -2.93971 -1.93065 0
M  V30 6881 H 648.925 -1.84039 -3.29256 0
M  V30 6882 H 651.312 -0.991604 -2.77941 0
M  V30 6883 H 651.393 -2.1254 -1.4234 0
M  V30 6884 H 651.037 -4.06136 -3.04985 0
M  V30 6885 H 650.967 -2.89774 -4.39703 0
M  V30 6886 H 653.458 -2.40457 -2.91528 0
M  V30 6887 H 653.771 -5.38357 -5.54429 0
M  V30 6888 H 652.116 -4.8366 -4.99097 0
M  V30 6889 H 655.307 -3.04303 -3.55693 0
M  V30 6890 H 655.48 -4.40131 -4.75593 0
M  V30 6891 N 648.886 1.2938 -0.899927 0
M  V30 6892 C 649.836 2.25311 -0.349165 0
M  V30 6893 C 650.82 1.51889 0.530892 0
M  V30 6894 O 652.012 1.73028 0.372872 0
M  V30 6895 C 649.141 3.40696 0.422055 0
M  V30 6896 C 648.227 4.21455 -0.472935 0
M  V30 6897 N 648.618 4.8048 -1.58026 0
M  V30 6898 C 646.916 4.45177 -0.270767 0
M  V30 6899 C 647.617 5.41117 -2.13465 0
M  V30 6900 N 646.593 5.24518 -1.42766 0
M  V30 6901 H 650.395 2.68507 -1.19505 0
M  V30 6902 H 647.909 1.43992 -0.751006 0
M  V30 6903 H 649.906 4.08486 0.833369 0
M  V30 6904 H 648.566 2.99037 1.2652 0
M  V30 6905 H 649.577 4.79257 -1.96299 0
M  V30 6906 H 646.254 4.14071 0.533988 0
M  V30 6907 H 647.644 5.979 -3.06537 0
M  V30 6908 N 650.364 0.662433 1.43002 0
M  V30 6909 C 651.592 0.187615 2.06048 0
M  V30 6910 C 652.007 -1.15039 1.49705 0
M  V30 6911 O 651.364 -1.71209 0.631956 0
M  V30 6912 C 651.415 0.100498 3.6136 0
M  V30 6913 O 651.136 1.38562 4.15611 0
M  V30 6914 C 652.637 -0.399298 4.41498 0
M  V30 6915 H 649.857 0.0941675 0.664359 0
M  V30 6916 H 652.401 0.905681 1.83351 0
M  V30 6917 H 650.556 -0.568181 3.83211 0
M  V30 6918 H 650.97 1.25084 5.09366 0
M  V30 6919 H 652.444 -0.409187 5.50481 0
M  V30 6920 H 652.921 -1.43232 4.15188 0
M  V30 6921 H 653.527 0.23721 4.24638 0
M  V30 6922 N 651.842 -1.52309 0.404946 0
M  V30 6923 C 652.774 -2.24579 -0.45791 0
M  V30 6924 C 653.787 -1.2739 -1.01369 0
M  V30 6925 O 654.976 -1.53363 -0.91335 0
M  V30 6926 C 652.076 -2.9608 -1.64893 0
M  V30 6927 C 651.249 -4.20106 -1.21777 0
M  V30 6928 C 650.308 -4.74468 -2.27523 0
M  V30 6929 O 649.334 -5.37157 -1.88285 0
M  V30 6930 N 650.536 -4.55678 -3.59635 0
M  V30 6931 H 653.301 -2.99265 0.161341 0
M  V30 6932 H 650.862 -1.60228 0.232107 0
M  V30 6933 H 652.854 -3.29344 -2.35191 0
M  V30 6934 H 651.424 -2.24606 -2.17419 0
M  V30 6935 H 650.644 -3.92704 -0.343071 0
M  V30 6936 H 651.932 -5.00658 -0.906596 0
M  V30 6937 H 651.33 -4.05673 -3.94266 0
M  V30 6938 H 649.887 -4.9339 -4.25922 0
M  V30 6939 N 653.32 -0.135238 -1.57019 0
M  V30 6940 C 654.568 0.51777 -1.95355 0
M  V30 6941 C 654.889 1.6617 -1.02042 0
M  V30 6942 O 654.159 1.95738 -0.0797343 0
M  V30 6943 H 652.739 0.194264 -0.721298 0
M  V30 6944 H 655.401 -0.207983 -1.93787 0
M  V30 6945 H 654.497 0.901675 -2.98791 0
M  V30 6946 N 654.798 1.5699 0.138552 0
M  V30 6947 C 655.748 1.9532 1.17619 0
M  V30 6948 C 656.732 0.825545 1.38107 0
M  V30 6949 O 657.924 1.08908 1.39528 0
M  V30 6950 C 655.053 2.34451 2.50774 0
M  V30 6951 C 654.139 3.53805 2.33844 0
M  V30 6952 N 654.53 4.70088 1.86685 0
M  V30 6953 C 652.828 3.59055 2.64567 0
M  V30 6954 C 653.529 5.52165 1.82998 0
M  V30 6955 N 652.505 4.94108 2.26624 0
M  V30 6956 H 656.307 2.82694 0.803809 0
M  V30 6957 H 653.821 1.5866 0.346519 0
M  V30 6958 H 655.818 2.60119 3.25797 0
M  V30 6959 H 654.478 1.48431 2.88788 0
M  V30 6960 H 655.489 4.93681 1.56523 0
M  V30 6961 H 652.166 2.83596 3.06398 0
M  V30 6962 H 653.556 6.55407 1.47957 0
M  V30 6963 N 656.276 -0.40816 1.52223 0
M  V30 6964 C 657.223 -1.49737 1.75635 0
M  V30 6965 C 658.193 -1.5493 0.598824 0
M  V30 6966 O 659.378 -1.71487 0.83648 0
M  V30 6967 C 656.518 -2.87174 1.91376 0
M  V30 6968 C 655.631 -2.91283 3.19027 0
M  V30 6969 C 654.766 -4.20026 3.25195 0
M  V30 6970 C 653.805 -4.18113 4.47044 0
M  V30 6971 N 652.942 -5.38429 4.50598 0
M  V30 6972 H 657.782 -1.29075 2.68596 0
M  V30 6973 H 655.319 -0.626518 1.33091 0
M  V30 6974 H 657.277 -3.66959 1.98486 0
M  V30 6975 H 655.907 -3.06329 1.01795 0
M  V30 6976 H 654.959 -2.03984 3.21084 0
M  V30 6977 H 656.271 -2.85734 4.08849 0
M  V30 6978 H 655.425 -5.08204 3.31382 0
M  V30 6979 H 654.164 -4.28271 2.33313 0
M  V30 6980 H 653.169 -3.28325 4.41002 0
M  V30 6981 H 654.394 -4.11507 5.40221 0
M  V30 6982 H 652.34 -5.4734 3.616 0
M  V30 6983 H 652.257 -5.34879 5.34266 0
M  V30 6984 H 653.525 -6.28557 4.61016 0
M  V30 6985 N 657.755 -1.42862 -0.66545 0
M  V30 6986 C 658.687 -1.43026 -1.79098 0
M  V30 6987 C 659.7 -0.32803 -1.59461 0
M  V30 6988 O 660.889 -0.591709 -1.68407 0
M  V30 6989 C 657.989 -1.21566 -3.16346 0
M  V30 6990 C 657.162 -2.44399 -3.62751 0
M  V30 6991 C 656.221 -2.18344 -4.78761 0
M  V30 6992 O 655.247 -2.91611 -4.88827 0
M  V30 6993 N 656.449 -1.1924 -5.68122 0
M  V30 6994 H 659.214 -2.40045 -1.79439 0
M  V30 6995 H 656.775 -1.37861 -0.848872 0
M  V30 6996 H 658.767 -1.02037 -3.91625 0
M  V30 6997 H 657.337 -0.330368 -3.10849 0
M  V30 6998 H 656.557 -2.79433 -2.78048 0
M  V30 6999 H 657.845 -3.26173 -3.90498 0
M  V30 7000 H 657.243 -0.586603 -5.6265 0
M  V30 7001 H 655.8 -1.05698 -6.43173 0
M  V30 7002 N 659.233 0.902656 -1.29189 0
M  V30 7003 C 660.143 2.03946 -1.15944 0
M  V30 7004 C 661.159 1.738 -0.0833803 0
M  V30 7005 O 662.335 1.9923 -0.29487 0
M  V30 7006 C 659.4 3.36519 -0.834006 0
M  V30 7007 C 658.461 3.80203 -1.9936 0
M  V30 7008 C 657.694 5.06449 -1.68359 0
M  V30 7009 O 657.917 5.67202 -0.603141 0
M  V30 7010 O 656.851 5.46114 -2.53067 0
M  V30 7011 H 660.677 2.18043 -2.11403 0
M  V30 7012 H 658.262 1.02584 -1.08613 0
M  V30 7013 H 660.144 4.16089 -0.666949 0
M  V30 7014 H 658.819 3.23573 0.0908245 0
M  V30 7015 H 657.726 3.01413 -2.21588 0
M  V30 7016 H 659.059 3.97729 -2.89952 0
M  V30 7017 N 660.711 1.11618 1.11262 0
M  V30 7018 C 661.674 0.779447 2.15539 0
M  V30 7019 C 662.674 -0.202081 1.59525 0
M  V30 7020 O 663.864 0.0226356 1.74185 0
M  V30 7021 C 660.996 0.15674 3.40539 0
M  V30 7022 H 662.189 1.70324 2.4684 0
M  V30 7023 H 659.742 0.918298 1.26479 0
M  V30 7024 H 660.477 -0.777186 3.1485 0
M  V30 7025 H 660.262 0.863308 3.82478 0
M  V30 7026 H 661.752 -0.062661 4.17553 0
M  V30 7027 N 662.189 -1.289 0.906776 0
M  V30 7028 C 663.152 -2.25777 0.394656 0
M  V30 7029 C 664.152 -1.53621 -0.475119 0
M  V30 7030 O 665.342 -1.71949 -0.279165 0
M  V30 7031 C 662.474 -3.38113 -0.43499 0
M  V30 7032 H 663.667 -2.72592 1.25033 0
M  V30 7033 H 661.22 -1.40463 0.685547 0
M  V30 7034 H 661.955 -2.96648 -1.31036 0
M  V30 7035 H 661.74 -3.91647 0.188334 0
M  V30 7036 H 663.23 -4.10168 -0.784365 0
M  V30 7037 N 663.667 -0.670007 -1.42649 0
M  V30 7038 C 665.083 -0.33911 -1.55956 0
M  V30 7039 C 665.283 1.1558 -1.65056 0
M  V30 7040 O 664.339 1.94111 -1.61485 0
M  V30 7041 C 665.652 -1.06522 -2.812 0
M  V30 7042 C 667.2 -1.04708 -2.94966 0
M  V30 7043 C 667.675 -1.75442 -4.23065 0
M  V30 7044 N 669.166 -1.72286 -4.29967 0
M  V30 7045 C 669.901 -2.23877 -5.27889 0
M  V30 7046 N 669.397 -2.83829 -6.31991 0
M  V30 7047 N 671.19 -2.14279 -5.19654 0
M  V30 7048 H 663.341 -1.6399 -1.34986 0
M  V30 7049 H 665.604 -0.690603 -0.649439 0
M  V30 7050 H 665.31 -2.12033 -2.80597 0
M  V30 7051 H 665.184 -0.627398 -3.71946 0
M  V30 7052 H 667.571 -0.000315966 -2.951 0
M  V30 7053 H 667.652 -1.52374 -2.05465 0
M  V30 7054 H 667.296 -2.80084 -4.23693 0
M  V30 7055 H 667.226 -1.25229 -5.11493 0
M  V30 7056 H 669.717 -1.28554 -3.55362 0
M  V30 7057 H 670.03 -3.20827 -7.03057 0
M  V30 7058 H 668.375 -2.87896 -6.32567 0
M  V30 7059 H 671.566 -1.67135 -4.37245 0
M  V30 7060 H 671.739 -2.54792 -5.95806 0
M  V30 7061 N 665.145 1.52092 -0.413018 0
M  V30 7062 C 666.075 2.30021 0.401567 0
M  V30 7063 C 667.056 1.34395 1.04269 0
M  V30 7064 O 668.241 1.63304 1.05097 0
M  V30 7065 C 665.371 3.12447 1.51638 0
M  V30 7066 C 664.325 4.16153 1.00005 0
M  V30 7067 C 663.651 4.86948 2.20875 0
M  V30 7068 C 664.951 5.22275 0.0513757 0
M  V30 7069 H 666.645 2.98365 -0.248704 0
M  V30 7070 H 664.191 1.4349 -0.121052 0
M  V30 7071 H 666.144 3.65733 2.09326 0
M  V30 7072 H 664.868 2.41879 2.19458 0
M  V30 7073 H 663.527 3.63882 0.445549 0
M  V30 7074 H 663.175 4.12905 2.8726 0
M  V30 7075 H 662.875 5.57057 1.86978 0
M  V30 7076 H 664.399 5.43048 2.79162 0
M  V30 7077 H 665.813 5.70778 0.537176 0
M  V30 7078 H 664.21 5.9977 -0.198977 0
M  V30 7079 H 665.28 4.76611 -0.892736 0
M  V30 7080 N 666.623 0.143563 1.56945 0
M  V30 7081 C 667.553 -0.7936 2.196 0
M  V30 7082 C 668.534 -1.25955 1.14321 0
M  V30 7083 O 669.719 -1.31773 1.42651 0
M  V30 7084 C 666.849 -2.03424 2.81489 0
M  V30 7085 C 665.803 -1.70519 3.92565 0
M  V30 7086 C 665.129 -3.01817 4.41373 0
M  V30 7087 C 666.429 -0.95449 5.13504 0
M  V30 7088 H 668.123 -0.271423 2.98167 0
M  V30 7089 H 665.669 -0.12911 1.4342 0
M  V30 7090 H 667.622 -2.69463 3.23987 0
M  V30 7091 H 666.346 -2.58008 2.00248 0
M  V30 7092 H 665.005 -1.06859 3.5068 0
M  V30 7093 H 664.653 -3.54386 3.56959 0
M  V30 7094 H 664.353 -2.80565 5.16292 0
M  V30 7095 H 665.877 -3.68934 4.86539 0
M  V30 7096 H 667.291 -1.5169 5.52868 0
M  V30 7097 H 665.688 -0.842035 5.94163 0
M  V30 7098 H 666.758 0.0544033 4.84869 0
M  V30 7099 N 668.101 -1.57061 -0.130224 0
M  V30 7100 C 669.349 -1.83893 -0.838313 0
M  V30 7101 C 669.67 -0.727046 -1.80939 0
M  V30 7102 O 668.94 0.249927 -1.94299 0
M  V30 7103 H 667.52 -0.67846 -0.312573 0
M  V30 7104 H 670.182 -1.94529 -0.120224 0
M  V30 7105 H 669.278 -2.79419 -1.39038 0
M  V30 7106 N 669.579 0.400081 -1.52437 0
M  V30 7107 C 670.825 1.14456 -1.68141 0
M  V30 7108 C 671.18 1.87965 -0.410722 0
M  V30 7109 O 670.473 1.82121 0.595195 0
M  V30 7110 C 670.667 2.15914 -2.84808 0
M  V30 7111 C 670.496 1.5237 -4.231 0
M  V30 7112 C 669.266 1.29252 -4.8849 0
M  V30 7113 C 671.464 0.979722 -5.04882 0
M  V30 7114 N 669.446 0.616955 -6.10792 0
M  V30 7115 C 670.817 0.43159 -6.18496 0
M  V30 7116 C 672.872 0.875059 -4.9015 0
M  V30 7117 C 671.575 -0.210958 -7.18991 0
M  V30 7118 C 673.601 0.246351 -5.90887 0
M  V30 7119 C 672.963 -0.291062 -7.03798 0
M  V30 7120 H 669.062 0.405181 -0.668844 0
M  V30 7121 H 671.646 0.435655 -1.89763 0
M  V30 7122 H 669.817 2.84154 -2.64785 0
M  V30 7123 H 671.549 2.8279 -2.89503 0
M  V30 7124 H 668.304 1.56451 -4.47012 0
M  V30 7125 H 668.728 0.295536 -6.76355 0
M  V30 7126 H 673.37 1.27636 -4.03074 0
M  V30 7127 H 671.088 -0.6243 -8.05685 0
M  V30 7128 H 674.674 0.166765 -5.81561 0
M  V30 7129 H 673.554 -0.76988 -7.80412 0
M  V30 7130 N 671.057 1.43213 0.657864 0
M  V30 7131 C 672.305 1.44298 1.41501 0
M  V30 7132 C 672.626 0.0666478 1.94886 0
M  V30 7133 O 671.896 -0.897345 1.74139 0
M  V30 7134 H 670.476 0.531257 0.525143 0
M  V30 7135 H 673.138 1.78777 0.776195 0
M  V30 7136 H 672.234 2.1528 2.25966 0
M  V30 7137 N 672.536 -0.895792 1.29666 0
M  V30 7138 C 673.952 -1.17726 1.07763 0
M  V30 7139 C 674.152 -2.00794 -0.168576 0
M  V30 7140 O 673.208 -2.37213 -0.865244 0
M  V30 7141 C 674.521 -1.89441 2.33522 0
M  V30 7142 C 676.069 -2.02251 2.3888 0
M  V30 7143 C 676.544 -2.77378 3.64452 0
M  V30 7144 N 678.035 -2.8493 3.65198 0
M  V30 7145 C 678.77 -3.43606 4.59045 0
M  V30 7146 N 678.266 -4.03417 5.63228 0
M  V30 7147 N 680.059 -3.41317 4.46608 0
M  V30 7148 H 672.21 -0.341652 2.09634 0
M  V30 7149 H 674.473 -0.213865 0.923561 0
M  V30 7150 H 674.179 -1.35842 3.24407 0
M  V30 7151 H 674.053 -2.89893 2.41334 0
M  V30 7152 H 676.44 -2.55025 1.4848 0
M  V30 7153 H 676.521 -1.0092 2.3505 0
M  V30 7154 H 676.165 -2.25279 4.55205 0
M  V30 7155 H 676.095 -3.79062 3.65541 0
M  V30 7156 H 678.586 -2.42453 2.89871 0
M  V30 7157 H 678.899 -4.46224 6.30955 0
M  V30 7158 H 677.244 -4.01868 5.67033 0
M  V30 7159 H 680.435 -2.93812 3.64407 0
M  V30 7160 H 680.608 -3.86751 5.1993 0
M  V30 7161 N 674.014 -1.12206 -1.10668 0
M  V30 7162 C 674.962 -0.782918 -2.19028 0
M  V30 7163 C 675.956 0.229175 -1.67843 0
M  V30 7164 O 677.162 0.0876295 -1.79787 0
M  V30 7165 H 673.537 -0.235339 -0.714227 0
M  V30 7166 H 675.508 -1.70527 -2.44874 0
M  V30 7167 C 674.257 -0.25116 -3.46792 0
M  V30 7168 H 673.58 -1.02123 -3.86537 0
M  V30 7169 H 675.02 -0.0521409 -4.23968 0
M  V30 7170 C 673.479 1.02037 -3.21076 0
M  V30 7171 O 674.009 2.09862 -3.42522 0
M  V30 7172 N 672.215 0.946348 -2.74759 0
M  V30 7173 H 671.762 0.068777 -2.57508 0
M  V30 7174 H 671.72 1.79775 -2.57931 0
M  V30 7175 N 675.492 1.28418 -0.913599 0
M  V30 7176 C 676.72 1.99106 -0.562536 0
M  V30 7177 C 677.135 1.68273 0.856137 0
M  V30 7178 O 676.492 0.935401 1.56705 0
M  V30 7179 C 676.543 3.5338 -0.761903 0
M  V30 7180 O 676.264 3.83127 -2.12475 0
M  V30 7181 C 677.765 4.41328 -0.417651 0
M  V30 7182 H 674.985 0.635798 -0.214481 0
M  V30 7183 H 677.529 1.63618 -1.22676 0
M  V30 7184 H 675.684 3.8713 -0.144676 0
M  V30 7185 H 676.098 4.77763 -2.16431 0
M  V30 7186 H 677.572 5.48642 -0.607919 0
M  V30 7187 H 678.049 4.34422 0.646108 0
M  V30 7188 H 678.655 4.13074 -1.01241 0
M  V30 7189 N 676.97 0.677563 1.42291 0
M  V30 7190 C 677.9 0.014968 2.33495 0
M  V30 7191 C 678.881 -0.786376 1.50831 0
M  V30 7192 O 680.066 -0.742975 1.79426 0
M  V30 7193 C 677.196 -0.935023 3.34477 0
M  V30 7194 C 676.15 -0.242074 4.27315 0
M  V30 7195 C 675.476 -1.30519 5.18526 0
M  V30 7196 C 676.776 0.880604 5.14823 0
M  V30 7197 H 678.47 0.776671 2.89151 0
M  V30 7198 H 676.016 0.37494 1.39033 0
M  V30 7199 H 677.969 -1.40766 3.97194 0
M  V30 7200 H 676.693 -1.72818 2.77131 0
M  V30 7201 H 675.352 0.210351 3.65996 0
M  V30 7202 H 675 -2.09041 4.57505 0
M  V30 7203 H 674.7 -0.846652 5.81468 0
M  V30 7204 H 676.224 -1.7787 5.84119 0
M  V30 7205 H 677.638 0.489062 5.7121 0
M  V30 7206 H 676.035 1.26511 5.86613 0
M  V30 7207 H 677.105 1.72818 4.53059 0
M  V30 7208 N 678.448 -1.51871 0.421078 0
M  V30 7209 C 679.676 -2.06356 -0.14994 0
M  V30 7210 C 680.091 -1.29006 -1.37851 0
M  V30 7211 O 679.448 -0.345139 -1.79207 0
M  V30 7212 C 679.499 -3.58185 -0.488454 0
M  V30 7213 O 679.22 -4.32611 0.691341 0
M  V30 7214 C 680.721 -4.29129 -1.11191 0
M  V30 7215 H 677.941 -0.67083 -0.0151186 0
M  V30 7216 H 680.485 -1.95638 0.595476 0
M  V30 7217 H 678.64 -3.68871 -1.18376 0
M  V30 7218 H 679.054 -5.22927 0.405906 0
M  V30 7219 H 680.528 -5.36501 -1.29889 0
M  V30 7220 H 681.005 -3.86371 -2.0884 0
M  V30 7221 H 681.611 -4.22843 -0.456458 0
M  V30 7222 N 679.926 -0.151884 -1.56866 0
M  V30 7223 C 681.342 0.204486 -1.58285 0
M  V30 7224 C 681.542 1.6431 -1.16639 0
M  V30 7225 O 680.598 2.37077 -0.868946 0
M  V30 7226 C 681.911 -0.0587019 -3.00643 0
M  V30 7227 C 683.459 0.00462303 -3.13 0
M  V30 7228 C 683.934 -0.231297 -4.57416 0
M  V30 7229 N 685.425 -0.178394 -4.62856 0
M  V30 7230 C 686.16 -0.335379 -5.72418 0
M  V30 7231 N 685.656 -0.550355 -6.90611 0
M  V30 7232 N 687.449 -0.272641 -5.61438 0
M  V30 7233 H 679.6 -1.09116 -1.82229 0
M  V30 7234 H 681.863 -0.432311 -0.843689 0
M  V30 7235 H 681.569 -1.05453 -3.35518 0
M  V30 7236 H 681.443 0.658508 -3.71407 0
M  V30 7237 H 683.83 0.991009 -2.77962 0
M  V30 7238 H 683.911 -0.744992 -2.44711 0
M  V30 7239 H 683.555 -1.2148 -4.93158 0
M  V30 7240 H 683.485 0.5387 -5.23837 0
M  V30 7241 H 685.976 -0.0170923 -3.77896 0
M  V30 7242 H 686.289 -0.660116 -7.69976 0
M  V30 7243 H 684.634 -0.586736 -6.92519 0
M  V30 7244 H 687.825 -0.105421 -4.67981 0
M  V30 7245 H 687.998 -0.398418 -6.46774 0
M  V30 7246 N 681.404 1.57128 0.121893 0
M  V30 7247 C 682.351 2.0013 1.14964 0
M  V30 7248 C 683.321 0.872959 1.4131 0
M  V30 7249 O 684.506 1.13696 1.53225 0
M  V30 7250 C 681.646 2.40824 2.4718 0
M  V30 7251 C 680.759 3.67061 2.27794 0
M  V30 7252 C 679.894 3.96749 3.53219 0
M  V30 7253 C 678.933 5.16178 3.28978 0
M  V30 7254 N 678.07 5.41751 4.46599 0
M  V30 7255 H 682.91 2.8772 0.775947 0
M  V30 7256 H 680.447 1.42328 0.371652 0
M  V30 7257 H 682.405 2.62454 3.24305 0
M  V30 7258 H 681.035 1.56279 2.82448 0
M  V30 7259 H 680.087 3.53063 1.416 0
M  V30 7260 H 681.399 4.5434 2.05857 0
M  V30 7261 H 680.553 4.19012 4.38764 0
M  V30 7262 H 679.292 3.07941 3.78185 0
M  V30 7263 H 678.297 4.93762 2.41824 0
M  V30 7264 H 679.522 6.06561 3.05386 0
M  V30 7265 H 677.468 4.55899 4.71691 0
M  V30 7266 H 677.385 6.23347 4.27756 0
M  V30 7267 H 678.653 5.68531 5.33285 0
M  V30 7268 N 682.882 -0.391992 1.52647 0
M  V30 7269 C 683.812 -1.48517 1.8018 0
M  V30 7270 C 684.793 -1.57039 0.653667 0
M  V30 7271 O 685.978 -1.72036 0.900962 0
M  V30 7272 C 683.108 -2.86161 1.96797 0
M  V30 7273 C 682.062 -2.92481 3.12472 0
M  V30 7274 C 681.388 -4.32546 3.14338 0
M  V30 7275 C 682.688 -2.624 4.51601 0
M  V30 7276 H 684.382 -1.25726 2.71723 0
M  V30 7277 H 681.928 -0.603387 1.30749 0
M  V30 7278 H 683.881 -3.62639 2.14641 0
M  V30 7279 H 682.605 -3.10283 1.01941 0
M  V30 7280 H 681.264 -2.18451 2.94406 0
M  V30 7281 H 680.912 -4.53703 2.1717 0
M  V30 7282 H 680.612 -4.37695 3.92042 0
M  V30 7283 H 682.136 -5.10934 3.34333 0
M  V30 7284 H 683.55 -3.28596 4.69785 0
M  V30 7285 H 681.947 -2.78903 5.3135 0
M  V30 7286 H 683.017 -1.57754 4.58521 0
M  V30 7287 N 684.36 -1.4356 -0.65026 0
M  V30 7288 C 685.307 -1.48948 -1.76304 0
M  V30 7289 C 686.277 -0.338919 -1.62605 0
M  V30 7290 O 687.462 -0.54649 -1.82806 0
M  V30 7291 C 684.602 -1.42131 -3.14472 0
M  V30 7292 C 683.715 -2.67415 -3.39284 0
M  V30 7293 C 682.85 -2.52565 -4.67316 0
M  V30 7294 C 681.889 -3.73103 -4.85243 0
M  V30 7295 N 681.026 -3.57046 -6.04535 0
M  V30 7296 H 685.866 -2.44032 -1.71034 0
M  V30 7297 H 683.403 -1.21131 -0.834601 0
M  V30 7298 H 685.361 -1.36172 -3.94351 0
M  V30 7299 H 683.991 -0.506273 -3.18805 0
M  V30 7300 H 683.043 -2.8364 -2.53481 0
M  V30 7301 H 684.355 -3.56943 -3.48415 0
M  V30 7302 H 683.509 -2.44331 -5.55326 0
M  V30 7303 H 682.248 -1.60566 -4.60511 0
M  V30 7304 H 681.253 -3.81743 -3.95667 0
M  V30 7305 H 682.478 -4.66115 -4.93876 0
M  V30 7306 H 680.424 -2.67783 -5.98856 0
M  V30 7307 H 680.341 -4.40178 -6.14638 0
M  V30 7308 H 681.609 -3.52669 -6.95158 0
M  V30 7309 N 685.838 0.888903 -1.30139 0
M  V30 7310 C 686.748 2.02705 -1.18101 0
M  V30 7311 C 687.764 1.73702 -0.101809 0
M  V30 7312 O 688.94 1.98906 -0.315984 0
M  V30 7313 C 686.005 3.35616 -0.869651 0
M  V30 7314 C 685.066 3.78067 -2.03381 0
M  V30 7315 C 684.299 5.04635 -1.73721 0
M  V30 7316 O 684.522 5.66531 -0.663267 0
M  V30 7317 O 683.456 5.43399 -2.58845 0
M  V30 7318 H 687.282 2.15788 -2.13704 0
M  V30 7319 H 684.867 1.01426 -1.09695 0
M  V30 7320 H 686.749 4.15358 -0.711043 0
M  V30 7321 H 685.424 3.23651 0.0565002 0
M  V30 7322 H 684.331 2.99046 -2.24772 0
M  V30 7323 H 685.664 3.94631 -2.94155 0
M  V30 7324 N 687.317 1.12792 1.10072 0
M  V30 7325 C 688.247 0.821688 2.18565 0
M  V30 7326 C 689.228 -0.21612 1.68721 0
M  V30 7327 O 690.413 -0.0764932 1.94049 0
M  V30 7328 C 687.543 0.279624 3.46172 0
M  V30 7329 C 686.497 1.25092 4.09312 0
M  V30 7330 C 685.823 0.568916 5.31665 0
M  V30 7331 C 687.123 2.60699 4.52585 0
M  V30 7332 H 688.817 1.72888 2.44438 0
M  V30 7333 H 686.363 0.832702 1.17482 0
M  V30 7334 H 688.316 0.053099 4.21367 0
M  V30 7335 H 687.04 -0.662929 3.19801 0
M  V30 7336 H 685.699 1.46332 3.36129 0
M  V30 7337 H 685.347 -0.378898 5.01571 0
M  V30 7338 H 685.047 1.21687 5.74862 0
M  V30 7339 H 686.571 0.351517 6.09587 0
M  V30 7340 H 687.985 2.43465 5.19035 0
M  V30 7341 H 686.382 3.21608 5.06644 0
M  V30 7342 H 687.452 3.1886 3.65317 0
M  V30 7343 N 688.795 -1.27931 0.920396 0
M  V30 7344 C 690.043 -1.94304 0.555906 0
M  V30 7345 C 690.364 -1.72753 -0.904519 0
M  V30 7346 O 689.634 -1.07104 -1.64029 0
M  V30 7347 H 688.214 -0.719001 0.202599 0
M  V30 7348 H 690.876 -1.55785 1.1712 0
M  V30 7349 H 689.972 -3.02806 0.755981 0
M  V30 7350 N 690.273 -0.685099 -1.4193 0
M  V30 7351 C 691.206 0.0371639 -2.2817 0
M  V30 7352 C 692.184 0.798436 -1.41647 0
M  V30 7353 O 693.368 0.791428 -1.71081 0
M  V30 7354 C 690.495 1.05993 -3.21688 0
M  V30 7355 C 689.541 0.393043 -4.24685 0
M  V30 7356 S 690.374 -0.856921 -5.28599 0
M  V30 7357 C 691.53 0.164508 -6.25684 0
M  V30 7358 H 691.763 -0.694305 -2.89079 0
M  V30 7359 H 689.296 -0.474999 -1.46912 0
M  V30 7360 H 691.254 1.64489 -3.76103 0
M  V30 7361 H 689.915 1.7639 -2.59895 0
M  V30 7362 H 689.108 1.16513 -4.90348 0
M  V30 7363 H 688.71 -0.118589 -3.73812 0
M  V30 7364 H 691.002 1.02106 -6.69762 0
M  V30 7365 H 691.945 -0.457917 -7.06618 0
M  V30 7366 H 692.353 0.514596 -5.6215 0
M  V30 7367 N 691.751 1.51645 -0.429126 0
M  V30 7368 C 692.661 2.31288 0.392809 0
M  V30 7369 C 693.677 1.39852 1.03525 0
M  V30 7370 O 694.853 1.72926 1.03241 0
M  V30 7371 C 691.918 3.13347 1.48372 0
M  V30 7372 C 690.979 4.20551 0.862268 0
M  V30 7373 C 690.212 4.98688 1.9012 0
M  V30 7374 O 690.435 4.77359 3.12225 0
M  V30 7375 O 689.369 5.83005 1.4963 0
M  V30 7376 H 693.195 3.02609 -0.257138 0
M  V30 7377 H 690.78 1.48163 -0.191851 0
M  V30 7378 H 692.662 3.64387 2.1166 0
M  V30 7379 H 691.337 2.44799 2.1179 0
M  V30 7380 H 690.244 3.73609 0.191568 0
M  V30 7381 H 691.577 4.91449 0.271704 0
M  V30 7382 O 693.268 0.301146 1.58667 0
M  V30 7383 H 693.959 -0.263453 1.919 0
M  V30 END ATOM
M  V30 BEGIN BOND
M  V30 END BOND
M  V30 END CTAB
M  END
$$$$
