drugbank_target|P41968 Melanocortin receptor 3 (DB11653)
 OpenBabel12092121203D

  0  0  0     0  0            999 V3000
M  V30 BEGIN CTAB
M  V30 COUNTS 5099 5159 0 0 0
M  V30 BEGIN ATOM
M  V30 1 H -0.908 1.98254 -0.117106 0
M  V30 2 N 0 1.576 0 0
M  V30 3 C 0.933 2.03868 1.02534 0
M  V30 4 C 1.911 0.928543 1.3348 0
M  V30 5 O 3.095 1.19667 1.45644 0
M  V30 6 C 0.222 2.43627 2.35294 0
M  V30 7 C -0.732 3.65373 2.2001 0
M  V30 8 S 0.101 5.13292 1.52614 0
M  V30 9 C 1.257 5.56322 2.86805 0
M  V30 10 H 1.49 2.90518 0.631377 0
M  V30 11 H -0.977 1.52953 0.210867 0
M  V30 12 H 0.981 2.67203 3.11629 0
M  V30 13 H -0.358 1.57376 2.7183 0
M  V30 14 H -1.165 3.90944 3.18086 0
M  V30 15 H -1.563 3.418 1.51819 0
M  V30 16 H 0.729 5.58782 3.83104 0
M  V30 17 H 1.672 6.56266 2.65933 0
M  V30 18 H 2.08 4.83886 2.90714 0
M  V30 19 N 1.4781 -0.272755 1.55222 0
M  V30 20 C 2.4261 -1.35705 1.88909 0
M  V30 21 C 3.4201 -1.5112 0.765456 0
M  V30 22 O 4.6261 -1.52901 0.949802 0
M  V30 23 H 1.0011 -0.453868 0.59959 0
M  V30 24 H 2.9721 -1.04544 2.79487 0
M  V30 25 C 1.7211 -2.71049 2.17779 0
M  V30 26 H 1.0441 -2.59979 3.03728 0
M  V30 27 H 2.4841 -3.45858 2.45272 0
M  V30 28 C 0.9431 -3.22165 0.985473 0
M  V30 29 O 1.4731 -4.01096 0.220233 0
M  V30 30 N -0.3209 -2.7985 0.783108 0
M  V30 31 H -0.7739 -2.15775 1.40708 0
M  V30 32 H -0.8159 -3.14397 -0.0130392 0
M  V30 33 N 2.9562 -1.48159 -0.537278 0
M  V30 34 C 3.9192 -1.61665 -1.62472 0
M  V30 35 C 4.9192 -0.490395 -1.5314 0
M  V30 36 O 6.1092 -0.755998 -1.5694 0
M  V30 37 C 3.2412 -1.57997 -3.02076 0
M  V30 38 H 4.4342 -2.58621 -1.51839 0
M  V30 39 H 1.9872 -1.36647 -0.758771 0
M  V30 40 H 2.7222 -0.624913 -3.18222 0
M  V30 41 H 2.5072 -2.39755 -3.10258 0
M  V30 42 H 3.9972 -1.70627 -3.81151 0
M  V30 43 N 4.4343 0.785586 -1.36625 0
M  V30 44 C 5.6593 1.57963 -1.34397 0
M  V30 45 C 6.0843 1.87964 0.071526 0
M  V30 46 O 5.4423 1.48182 1.0446 0
M  V30 47 C 5.4903 2.87511 -2.17646 0
M  V30 48 O 4.5943 3.81281 -1.57158 0
M  V30 49 H 3.9353 0.479014 -0.459828 0
M  V30 50 H 6.4653 0.973411 -1.79961 0
M  V30 51 H 6.4753 3.36745 -2.30362 0
M  V30 52 H 5.1503 2.65002 -3.20541 0
M  V30 53 H 3.7273 3.39885 -1.53403 0
M  V30 54 N 5.9124 1.20967 1.01018 0
M  V30 55 C 7.1524 1.03511 1.76252 0
M  V30 56 C 7.5164 -0.42458 1.87247 0
M  V30 57 O 8.7174 -0.719508 2.58991 0
M  V30 58 C 6.9884 1.70726 3.13986 0
M  V30 59 S 8.5474 1.68458 4.05176 0
M  V30 60 H 5.3654 0.371037 0.606508 0
M  V30 61 H 7.9674 1.53628 1.20908 0
M  V30 62 H 6.6714 2.76128 3.03614 0
M  V30 63 H 6.2024 1.20767 3.74405 0
M  V30 64 H 8.2174 0.721987 4.90919 0
M  V30 65 N 7.3905 -1.2043 1.01659 0
M  V30 66 C 8.6305 -1.91507 0.714456 0
M  V30 67 C 8.9945 -1.77073 -0.742237 0
M  V30 68 O 10.1955 -2.42631 -1.15688 0
M  V30 69 C 8.4665 -3.38795 1.13809 0
M  V30 70 S 10.0255 -4.28216 0.957925 0
M  V30 71 H 6.8435 -0.661571 0.260471 0
M  V30 72 H 9.4455 -1.45671 1.30384 0
M  V30 73 H 8.1495 -3.46822 2.19415 0
M  V30 74 H 7.6805 -3.89656 0.541474 0
M  V30 75 H 9.6955 -4.96007 -0.138531 0
M  V30 76 N 8.8686 -0.792821 -1.36206 0
M  V30 77 C 9.7986 -0.207853 -2.32573 0
M  V30 78 C 10.7796 0.659055 -1.56813 0
M  V30 79 O 11.9646 0.592176 -1.84951 0
M  V30 80 C 9.0946 0.655449 -3.41059 0
M  V30 81 C 8.0486 -0.111842 -4.27854 0
M  V30 82 C 7.3746 0.872274 -5.27537 0
M  V30 83 C 8.6746 -1.30299 -5.05786 0
M  V30 84 H 10.3686 -1.01294 -2.81744 0
M  V30 85 H 7.9146 -0.48854 -1.3546 0
M  V30 86 H 9.8676 1.07464 -4.07467 0
M  V30 87 H 8.5916 1.49328 -2.90463 0
M  V30 88 H 7.2506 -0.512053 -3.63006 0
M  V30 89 H 6.8986 1.70523 -4.73214 0
M  V30 90 H 6.5986 0.363291 -5.86476 0
M  V30 91 H 8.1226 1.28996 -5.96818 0
M  V30 92 H 9.5366 -0.959379 -5.65216 0
M  V30 93 H 7.9336 -1.7455 -5.74154 0
M  V30 94 H 9.0036 -2.09663 -4.37229 0
M  V30 95 N 10.3467 1.47872 -0.545128 0
M  V30 96 C 11.7577 1.86384 -0.108581 0
M  V30 97 C 12.1087 1.45309 1.31832 0
M  V30 98 O 11.2337 0.850641 1.9898 0
M  V30 99 C 11.8287 3.38265 -0.190274 0
M  V30 100 C 10.3877 3.75914 0.191164 0
M  V30 101 C 9.5347 2.71926 -0.543273 0
M  V30 102 H 12.4857 1.39561 -0.755537 0
M  V30 103 H 12.5067 3.75831 0.594217 0
M  V30 104 H 12.0187 3.6813 -1.2289 0
M  V30 105 H 10.1197 3.51665 1.23136 0
M  V30 106 H 10.2327 4.78836 -0.158987 0
M  V30 107 H 8.5967 2.54697 0.0122495 0
M  V30 108 H 9.3797 3.04634 -1.58282 0
M  V30 109 N 11.8248 0.280983 1.55075 0
M  V30 110 C 13.0498 -0.340154 2.04592 0
M  V30 111 C 13.4748 -1.48246 1.15779 0
M  V30 112 O 12.8328 -1.80614 0.15761 0
M  V30 113 C 12.8808 -0.793104 3.5177 0
M  V30 114 O 11.9848 -1.89981 3.66034 0
M  V30 115 H 11.3258 -0.0694289 0.66036 0
M  V30 116 H 13.8558 0.416993 2.00306 0
M  V30 117 H 13.8658 -1.08729 3.93245 0
M  V30 118 H 12.5408 0.0426163 4.15878 0
M  V30 119 H 11.1178 -1.60771 3.36463 0
M  V30 120 N 13.3029 -1.57598 0.00835791 0
M  V30 121 C 14.5489 -1.91211 -0.675732 0
M  V30 122 C 14.8819 -0.883139 -1.72958 0
M  V30 123 O 14.1569 0.097016 -1.94258 0
M  V30 124 C 14.4399 -3.35379 -1.31123 0
M  V30 125 C 14.2929 -4.48999 -0.268356 0
M  V30 126 C 15.6119 -3.7912 -2.23508 0
M  V30 127 H 12.7309 -0.695374 -0.244179 0
M  V30 128 H 15.3729 -1.89901 0.0613655 0
M  V30 129 H 13.5229 -3.36626 -1.93946 0
M  V30 130 H 15.1949 -4.59887 0.360844 0
M  V30 131 H 13.4379 -4.31873 0.408482 0
M  V30 132 H 14.1089 -5.46851 -0.752218 0
M  V30 133 H 16.5849 -3.79477 -1.70693 0
M  V30 134 H 15.4609 -4.80729 -2.64936 0
M  V30 135 H 15.7219 -3.13455 -3.11766 0
M  V30 136 N 14.781 0.264519 -1.55364 0
M  V30 137 C 15.713 1.34965 -1.85248 0
M  V30 138 C 16.726 1.45136 -0.737525 0
M  V30 139 O 17.915 1.46801 -1.01547 0
M  V30 140 C 15.015 2.73008 -2.00797 0
M  V30 141 C 14.188 2.85324 -3.31525 0
M  V30 142 C 13.247 4.04097 -3.37034 0
M  V30 143 O 12.273 3.94455 -4.10358 0
M  V30 144 N 13.475 5.16458 -2.65049 0
M  V30 145 H 16.24 1.09672 -2.78913 0
M  V30 146 H 13.801 0.454635 -1.55386 0
M  V30 147 H 15.793 3.50772 -2.01844 0
M  V30 148 H 14.363 2.91087 -1.1396 0
M  V30 149 H 13.583 1.94377 -3.42945 0
M  V30 150 H 14.871 2.9049 -4.17724 0
M  V30 151 H 14.269 5.27181 -2.05175 0
M  V30 152 H 12.826 5.92422 -2.71809 0
M  V30 153 N 16.2591 1.48442 0.529413 0
M  V30 154 C 17.6701 1.5002 1.11134 0
M  V30 155 C 18.0211 0.27031 1.94329 0
M  V30 156 O 17.1461 -0.622507 2.07253 0
M  V30 157 C 17.7411 2.71834 2.02217 0
M  V30 158 C 16.3001 2.76283 2.55627 0
M  V30 159 C 15.4471 2.43542 1.326 0
M  V30 160 H 18.3981 1.5555 0.314641 0
M  V30 161 H 18.4191 2.50384 2.8651 0
M  V30 162 H 17.9311 3.61331 1.41639 0
M  V30 163 H 16.0321 1.90995 3.19924 0
M  V30 164 H 16.1451 3.77725 2.94721 0
M  V30 165 H 14.5091 1.94709 1.64196 0
M  V30 166 H 15.2921 3.3528 0.737734 0
M  V30 167 N 17.7372 -0.778329 1.37039 0
M  V30 168 C 18.9652 -1.56734 1.35063 0
M  V30 169 C 19.3802 -1.88686 -0.0655597 0
M  V30 170 O 18.7372 -1.5096 -1.02554 0
M  V30 171 C 18.7882 -2.88163 2.18276 0
M  V30 172 O 18.5092 -2.57583 3.54376 0
M  V30 173 C 20.0102 -3.82422 2.24206 0
M  V30 174 H 17.2302 -0.485778 0.462883 0
M  V30 175 H 19.7742 -0.965185 1.8029 0
M  V30 176 H 17.9292 -3.44818 1.76576 0
M  V30 177 H 18.3432 -3.41699 3.97922 0
M  V30 178 H 19.8172 -4.71667 2.86765 0
M  V30 179 H 20.2942 -4.21078 1.24861 0
M  V30 180 H 20.9002 -3.31697 2.6619 0
M  V30 181 N 19.2153 -1.21501 -1.00376 0
M  V30 182 C 20.1453 -0.999478 -2.11028 0
M  V30 183 C 21.1263 0.0759671 -1.6993 0
M  V30 184 O 22.3113 -0.0841106 -1.94018 0
M  V30 185 C 19.4413 -0.564709 -3.42678 0
M  V30 186 C 18.3953 -1.58486 -3.97576 0
M  V30 187 C 17.7213 -1.00628 -5.25146 0
M  V30 188 C 19.0213 -2.97204 -4.29496 0
M  V30 189 H 20.7153 -1.92495 -2.29317 0
M  V30 190 H 18.2613 -0.92693 -1.102 0
M  V30 191 H 20.2143 -0.401091 -4.19487 0
M  V30 192 H 18.9383 0.396411 -3.24185 0
M  V30 193 H 17.5973 -1.73606 -3.22888 0
M  V30 194 H 17.2453 -0.0368439 -5.02987 0
M  V30 195 H 16.9453 -1.68771 -5.62841 0
M  V30 196 H 18.4693 -0.854015 -6.04598 0
M  V30 197 H 19.8833 -2.8552 -4.97143 0
M  V30 198 H 18.2803 -3.62372 -4.78338 0
M  V30 199 H 19.3503 -3.47956 -3.3772 0
M  V30 200 N 20.6934 1.19889 -1.02296 0
M  V30 201 C 22.1044 1.71124 -0.746568 0
M  V30 202 C 22.4554 1.81939 0.734335 0
M  V30 203 O 21.5804 1.48639 1.57275 0
M  V30 204 C 22.1754 3.10804 -1.34857 0
M  V30 205 C 20.7344 3.59323 -1.1209 0
M  V30 206 C 19.8814 2.3635 -1.45031 0
M  V30 207 H 22.8324 1.04813 -1.19163 0
M  V30 208 H 22.8534 3.73186 -0.742437 0
M  V30 209 H 22.3654 3.029 -2.42638 0
M  V30 210 H 20.4664 3.7255 -0.0610337 0
M  V30 211 H 20.5794 4.4378 -1.80544 0
M  V30 212 H 18.9434 2.39399 -0.869487 0
M  V30 213 H 19.7264 2.31081 -2.53883 0
M  V30 214 N 22.1715 0.800033 1.35784 0
M  V30 215 C 23.1195 0.193851 2.31791 0
M  V30 216 C 24.1135 -0.652744 1.56319 0
M  V30 217 O 25.3195 -0.546641 1.71499 0
M  V30 218 H 21.6945 0.04392 0.750716 0
M  V30 219 H 23.6655 1.01883 2.80468 0
M  V30 220 C 22.4145 -0.648338 3.41602 0
M  V30 221 H 21.7375 -0.00624665 3.998 0
M  V30 222 H 23.1775 -1.03898 4.11073 0
M  V30 223 C 21.6365 -1.8111 2.84079 0
M  V30 224 O 22.1665 -2.90825 2.77099 0
M  V30 225 N 20.3725 -1.62056 2.41218 0
M  V30 226 H 19.9195 -0.728123 2.47095 0
M  V30 227 H 19.8775 -2.40013 2.03079 0
M  V30 228 N 23.6496 -1.47581 0.552962 0
M  V30 229 C 24.8976 -2.02082 0.0272703 0
M  V30 230 C 25.2186 -1.4301 -1.32563 0
M  V30 231 O 24.4886 -0.603745 -1.86365 0
M  V30 232 H 23.0686 -0.746966 0.00709182 0
M  V30 233 H 25.7306 -1.81033 0.722008 0
M  V30 234 H 24.8266 -3.12034 -0.0639951 0
M  V30 235 N 25.1277 -0.289203 -1.54924 0
M  V30 236 C 26.3527 0.329299 -2.04769 0
M  V30 237 C 26.7777 1.4763 -1.16564 0
M  V30 238 O 26.1357 1.80527 -0.167186 0
M  V30 239 C 26.1837 0.774438 -3.52186 0
M  V30 240 O 25.2877 1.88038 -3.67036 0
M  V30 241 H 24.6287 0.0659259 -0.660719 0
M  V30 242 H 27.1587 -0.42761 -2.00082 0
M  V30 243 H 27.1687 1.06642 -3.93816 0
M  V30 244 H 25.8437 -0.0646707 -4.1585 0
M  V30 245 H 24.4207 1.58985 -3.3731 0
M  V30 246 N 26.6058 1.57591 -0.0167156 0
M  V30 247 C 27.5158 2.1291 0.98521 0
M  V30 248 C 28.5318 1.07834 1.36557 0
M  V30 249 O 29.7078 1.39826 1.44951 0
M  V30 250 C 26.7728 2.63512 2.25305 0
M  V30 251 C 25.8338 3.83256 1.93426 0
M  V30 252 C 25.0668 4.31435 3.14165 0
M  V30 253 O 25.2898 3.78851 4.26413 0
M  V30 254 O 24.2238 5.23416 2.97186 0
M  V30 255 H 28.0498 2.98772 0.544888 0
M  V30 256 H 25.6348 1.48012 0.203141 0
M  V30 257 H 27.5168 2.96183 2.99756 0
M  V30 258 H 26.1918 1.8074 2.68542 0
M  V30 259 H 25.0988 3.55531 1.16398 0
M  V30 260 H 26.4318 4.67153 1.55013 0
M  V30 261 N 28.0839 -0.256276 1.55502 0
M  V30 262 C 29.0339 -1.31981 1.85916 0
M  V30 263 C 30.0179 -1.43927 0.719296 0
M  V30 264 O 31.2099 -1.47326 0.981019 0
M  V30 265 C 28.3389 -2.67703 2.14918 0
M  V30 266 C 27.4249 -2.59801 3.35208 0
M  V30 267 N 27.8159 -2.21524 4.54709 0
M  V30 268 C 26.1139 -2.90832 3.38131 0
M  V30 269 C 26.8149 -2.24024 5.36832 0
M  V30 270 N 25.7909 -2.63158 4.75656 0
M  V30 271 H 29.5929 -1.01423 2.75845 0
M  V30 272 H 27.1069 -0.464911 1.55603 0
M  V30 273 H 29.1039 -3.44445 2.34869 0
M  V30 274 H 27.7639 -2.99137 1.26282 0
M  V30 275 H 28.7749 -1.93223 4.80505 0
M  V30 276 H 25.4519 -3.26867 2.59739 0
M  V30 277 H 26.8419 -1.9685 6.42417 0
M  V30 278 N 29.562 -1.4872 -0.521534 0
M  V30 279 C 30.492 -1.66771 -1.63431 0
M  V30 280 C 31.473 -0.516499 -1.62069 0
M  V30 281 O 32.658 -0.750013 -1.79132 0
M  V30 282 C 29.788 -1.71515 -3.01993 0
M  V30 283 C 28.742 -2.86222 -3.18216 0
M  V30 284 C 28.068 -2.76061 -4.57924 0
M  V30 285 C 29.368 -4.27419 -3.00184 0
M  V30 286 H 31.062 -2.59932 -1.48579 0
M  V30 287 H 28.608 -1.25089 -0.713358 0
M  V30 288 H 30.561 -1.82731 -3.7972 0
M  V30 289 H 29.285 -0.749393 -3.17886 0
M  V30 290 H 27.944 -2.74575 -2.42908 0
M  V30 291 H 27.592 -1.77437 -4.70665 0
M  V30 292 H 27.292 -3.53037 -4.69722 0
M  V30 293 H 28.816 -2.89256 -5.37739 0
M  V30 294 H 30.23 -4.39855 -3.67697 0
M  V30 295 H 28.627 -5.05458 -3.2347 0
M  V30 296 H 29.697 -4.43293 -1.96518 0
M  V30 297 N 31.0401 0.771051 -1.3745 0
M  V30 298 C 31.9721 1.89352 -1.29146 0
M  V30 299 C 32.9851 1.61477 -0.207124 0
M  V30 300 O 34.1741 1.72382 -0.463324 0
M  V30 301 C 31.2741 3.24596 -0.974195 0
M  V30 302 C 30.4471 3.80111 -2.16413 0
M  V30 303 C 29.5061 4.93832 -1.81703 0
M  V30 304 O 28.5321 5.09382 -2.54006 0
M  V30 305 N 29.7341 5.75483 -0.761573 0
M  V30 306 H 32.4991 1.96991 -2.25864 0
M  V30 307 H 30.0601 0.950191 -1.31084 0
M  V30 308 H 32.0521 3.98193 -0.722828 0
M  V30 309 H 30.6221 3.12454 -0.0955527 0
M  V30 310 H 29.8421 2.98284 -2.57721 0
M  V30 311 H 31.1301 4.13932 -2.95867 0
M  V30 312 H 30.5281 5.65469 -0.161609 0
M  V30 313 H 29.0851 6.49302 -0.570064 0
M  V30 314 N 32.5182 1.22032 0.997298 0
M  V30 315 C 33.4812 0.987909 2.06816 0
M  V30 316 C 34.4812 -0.0440084 1.6074 0
M  V30 317 O 35.6712 0.194053 1.73116 0
M  V30 318 C 32.8032 0.49132 3.37341 0
M  V30 319 H 33.9962 1.93803 2.28868 0
M  V30 320 H 31.5492 1.03838 1.16822 0
M  V30 321 H 32.2842 -0.463364 3.20973 0
M  V30 322 H 32.0692 1.23575 3.72118 0
M  V30 323 H 33.5592 0.348824 4.16141 0
M  V30 324 N 33.9963 -1.19345 1.0293 0
M  V30 325 C 35.4073 -1.70725 0.755633 0
M  V30 326 C 35.7583 -1.82326 -0.724676 0
M  V30 327 O 34.8833 -1.49471 -1.56484 0
M  V30 328 C 35.4783 -3.10084 1.36503 0
M  V30 329 C 34.0373 -3.58723 1.13994 0
M  V30 330 C 33.1843 -2.35577 1.46283 0
M  V30 331 H 36.1353 -1.0418 1.19718 0
M  V30 332 H 36.1563 -3.72787 0.762217 0
M  V30 333 H 35.6683 -3.01609 2.44241 0
M  V30 334 H 33.7693 -3.72512 0.0807901 0
M  V30 335 H 33.8823 -4.42816 1.82894 0
M  V30 336 H 32.2463 -2.38935 0.88217 0
M  V30 337 H 33.0293 -2.29731 2.55105 0
M  V30 338 N 35.4744 -0.807222 -1.35358 0
M  V30 339 C 36.7214 -0.387888 -1.9875 0
M  V30 340 C 37.0494 1.04509 -1.64037 0
M  V30 341 O 36.3044 1.73986 -0.895946 0
M  V30 342 C 36.6034 -0.519036 -3.53611 0
M  V30 343 C 36.2694 -1.91542 -4.08194 0
M  V30 344 C 34.9314 -2.29745 -4.22813 0
M  V30 345 C 37.2834 -2.82896 -4.37744 0
M  V30 346 C 34.6114 -3.58668 -4.643 0
M  V30 347 C 36.9634 -4.11265 -4.8067 0
M  V30 348 C 35.6274 -4.49466 -4.93494 0
M  V30 349 H 34.8974 -0.141938 -0.727279 0
M  V30 350 H 37.5444 -1.02814 -1.6156 0
M  V30 351 H 35.8494 0.204658 -3.91265 0
M  V30 352 H 37.5464 -0.175345 -4.00616 0
M  V30 353 H 34.1364 -1.60862 -3.97268 0
M  V30 354 H 38.3204 -2.54629 -4.26002 0
M  V30 355 H 33.5764 -3.88113 -4.72418 0
M  V30 356 H 37.7504 -4.82153 -5.02496 0
M  V30 357 H 35.3774 -5.49418 -5.25399 0
M  V30 358 N 36.9525 1.47285 -0.560781 0
M  V30 359 C 38.1995 2.02464 -0.038062 0
M  V30 360 C 38.5275 1.43474 1.31322 0
M  V30 361 O 37.7825 0.581311 1.86867 0
M  V30 362 C 38.0815 3.57258 0.100784 0
M  V30 363 C 37.7475 4.35184 -1.18007 0
M  V30 364 C 36.4095 4.56194 -1.53103 0
M  V30 365 C 38.7615 4.80098 -2.02867 0
M  V30 366 C 36.0895 5.19367 -2.729 0
M  V30 367 C 38.4415 5.44593 -3.21871 0
M  V30 368 C 37.1055 5.63835 -3.57276 0
M  V30 369 H 36.3755 0.740869 -0.0139279 0
M  V30 370 H 39.0225 1.76916 -0.733012 0
M  V30 371 H 37.3275 3.81819 0.878724 0
M  V30 372 H 39.0245 3.97606 0.520639 0
M  V30 373 H 35.6145 4.19113 -0.8968 0
M  V30 374 H 39.7985 4.63642 -1.7706 0
M  V30 375 H 35.0545 5.32459 -3.00496 0
M  V30 376 H 39.2285 5.78358 -3.87911 0
M  V30 377 H 36.8555 6.12557 -4.50197 0
M  V30 378 N 38.4306 0.297415 1.54768 0
M  V30 379 C 39.6556 -0.318435 2.04941 0
M  V30 380 C 40.0806 -1.4701 1.17345 0
M  V30 381 O 39.4386 -1.80436 0.176758 0
M  V30 382 C 39.4866 -0.755749 3.52592 0
M  V30 383 O 38.5906 -1.86088 3.68028 0
M  V30 384 H 37.9316 -0.062421 0.661059 0
M  V30 385 H 40.4616 0.438215 1.99852 0
M  V30 386 H 40.4716 -1.04552 3.94376 0
M  V30 387 H 39.1466 0.0867233 4.1581 0
M  V30 388 H 37.7236 -1.57193 3.38149 0
M  V30 389 N 39.9087 -1.5758 0.0250728 0
M  V30 390 C 40.8567 -2.11125 -0.97617 0
M  V30 391 C 41.8507 -1.03689 -1.33959 0
M  V30 392 O 43.0567 -1.22128 -1.3223 0
M  V30 393 H 39.4317 -0.674468 -0.332561 0
M  V30 394 H 41.4027 -2.94194 -0.499223 0
M  V30 395 C 40.1517 -2.65017 -2.2508 0
M  V30 396 H 39.4747 -3.47333 -1.9799 0
M  V30 397 H 40.9147 -3.06133 -2.93357 0
M  V30 398 C 39.3737 -1.57574 -2.97779 0
M  V30 399 O 39.9037 -0.973203 -3.89733 0
M  V30 400 N 38.1097 -1.29716 -2.60043 0
M  V30 401 H 37.6567 -1.789 -1.85345 0
M  V30 402 H 37.6147 -0.58051 -3.08994 0
M  V30 403 N 41.3868 0.248026 -1.55636 0
M  V30 404 C 42.3188 1.32993 -1.8667 0
M  V30 405 C 43.3318 1.44345 -0.752877 0
M  V30 406 O 44.5208 1.45715 -1.03098 0
M  V30 407 C 41.6208 2.70863 -2.03682 0
M  V30 408 C 40.7938 2.81792 -3.34532 0
M  V30 409 C 39.8528 4.005 -3.41301 0
M  V30 410 O 38.8788 3.9008 -4.14519 0
M  V30 411 N 40.0808 5.13618 -2.70512 0
M  V30 412 H 42.8458 1.06707 -2.8006 0
M  V30 413 H 40.4068 0.438129 -1.55859 0
M  V30 414 H 42.3988 3.48612 -2.05553 0
M  V30 415 H 40.9688 2.89862 -1.17041 0
M  V30 416 H 40.1888 1.90729 -3.44987 0
M  V30 417 H 41.4768 2.86043 -4.20781 0
M  V30 418 H 40.8748 5.24975 -2.10755 0
M  V30 419 H 39.4318 5.89505 -2.78077 0
M  V30 420 N 42.8649 1.48995 0.513639 0
M  V30 421 C 44.0899 1.61792 1.29762 0
M  V30 422 C 44.5149 0.284475 1.85936 0
M  V30 423 O 43.8729 -0.746185 1.65232 0
M  V30 424 C 43.9209 2.67993 2.41272 0
M  V30 425 O 43.0249 2.26287 3.44772 0
M  V30 426 H 42.3659 0.541963 0.38363 0
M  V30 427 H 44.8959 1.95097 0.616307 0
M  V30 428 H 44.9059 2.89772 2.87221 0
M  V30 429 H 43.5809 3.64791 1.9975 0
M  V30 430 H 42.1579 2.14788 3.04829 0
M  V30 431 N 44.343 -0.763751 1.37857 0
M  V30 432 C 45.568 -1.55805 1.36893 0
M  V30 433 C 45.993 -1.88054 -0.0416135 0
M  V30 434 O 45.351 -1.49825 -1.02089 0
M  V30 435 C 45.399 -2.84012 2.22192 0
M  V30 436 O 44.503 -3.78732 1.63204 0
M  V30 437 H 43.844 -0.471638 0.46739 0
M  V30 438 H 46.374 -0.944657 1.81487 0
M  V30 439 H 46.384 -3.33037 2.35691 0
M  V30 440 H 45.059 -2.59869 3.24716 0
M  V30 441 H 43.636 -3.37402 1.58791 0
M  V30 442 N 45.8211 -1.22559 -0.990812 0
M  V30 443 C 47.0461 -1.07862 -1.77145 0
M  V30 444 C 47.4711 0.366447 -1.84496 0
M  V30 445 O 46.8291 1.26478 -1.29896 0
M  V30 446 C 46.8771 -1.69686 -3.18181 0
M  V30 447 O 45.9811 -0.951946 -4.01263 0
M  V30 448 H 45.3221 -0.378712 -0.545411 0
M  V30 449 H 47.8521 -1.62399 -1.2445 0
M  V30 450 H 47.8621 -1.74496 -3.68802 0
M  V30 451 H 46.5371 -2.74841 -3.12146 0
M  V30 452 H 45.1141 -0.980011 -3.59792 0
M  V30 453 N 47.2992 1.18797 -1.03562 0
M  V30 454 C 48.2622 2.20464 -0.626769 0
M  V30 455 C 49.2622 1.57721 0.313173 0
M  V30 456 O 50.4522 1.73917 0.0992615 0
M  V30 457 C 47.5842 3.40802 0.0818498 0
M  V30 458 H 48.7772 2.58149 -1.5264 0
M  V30 459 H 46.3302 1.32593 -0.827578 0
M  V30 460 H 47.0652 3.08642 0.995518 0
M  V30 461 H 46.8502 3.8758 -0.593652 0
M  V30 462 H 48.3402 4.16092 0.354584 0
M  V30 463 N 48.7773 0.814389 1.34928 0
M  V30 464 C 50.0243 0.398423 1.98542 0
M  V30 465 C 50.3523 -1.03638 1.64589 0
M  V30 466 O 49.6073 -1.73509 0.90516 0
M  V30 467 C 49.9063 0.537781 3.53331 0
M  V30 468 C 49.5723 1.93704 4.07172 0
M  V30 469 C 48.2343 2.31984 4.21589 0
M  V30 470 C 50.5863 2.85213 4.36237 0
M  V30 471 C 47.9143 3.61125 4.62391 0
M  V30 472 C 50.2663 4.13809 4.78482 0
M  V30 473 C 48.9303 4.52077 4.91104 0
M  V30 474 H 48.2003 0.145793 0.726516 0
M  V30 475 H 50.8473 1.03669 1.61012 0
M  V30 476 H 49.1523 -0.183906 3.91368 0
M  V30 477 H 50.8493 0.196588 4.00518 0
M  V30 478 H 47.4393 1.62966 3.96409 0
M  V30 479 H 51.6233 2.56885 4.24645 0
M  V30 480 H 46.8793 3.90612 4.70353 0
M  V30 481 H 51.0533 4.84811 4.99932 0
M  V30 482 H 48.6803 5.52196 5.22478 0
M  V30 483 N 50.2554 -1.46986 0.568584 0
M  V30 484 C 51.4954 -2.04336 0.0512999 0
M  V30 485 C 51.8594 -1.43214 -1.27881 0
M  V30 486 O 53.0604 -1.91679 -1.88448 0
M  V30 487 C 51.3314 -3.57389 -0.0282328 0
M  V30 488 S 52.8904 -4.36056 -0.489991 0
M  V30 489 H 49.7084 -0.71034 0.0306349 0
M  V30 490 H 52.3104 -1.80212 0.757891 0
M  V30 491 H 51.0144 -3.99395 0.944011 0
M  V30 492 H 50.5454 -3.86028 -0.75803 0
M  V30 493 H 52.5604 -4.6441 -1.74752 0
M  V30 494 N 51.7335 -0.305618 -1.54608 0
M  V30 495 C 52.6435 0.57778 -2.27374 0
M  V30 496 C 53.6595 1.14451 -1.31061 0
M  V30 497 O 54.8355 1.16831 -1.6405 0
M  V30 498 C 51.9005 1.73123 -3.00382 0
M  V30 499 C 50.9615 1.19812 -4.12242 0
M  V30 500 C 50.1945 2.2966 -4.81759 0
M  V30 501 O 50.4175 3.49651 -4.50666 0
M  V30 502 O 49.3515 1.96091 -5.69062 0
M  V30 503 H 53.1775 -0.012624 -3.03697 0
M  V30 504 H 50.7625 -0.0719184 -1.49227 0
M  V30 505 H 52.6445 2.40315 -3.4616 0
M  V30 506 H 51.3195 2.30815 -2.26949 0
M  V30 507 H 50.2265 0.491798 -3.70853 0
M  V30 508 H 51.5595 0.666566 -4.87666 0
M  V30 509 N 53.2116 1.57565 -0.0334293 0
M  V30 510 C 54.1436 2.0739 0.975811 0
M  V30 511 C 55.1566 0.998166 1.2861 0
M  V30 512 O 56.3456 1.27426 1.25 0
M  V30 513 C 53.4456 2.4871 2.30209 0
M  V30 514 C 52.6186 3.79413 2.17634 0
M  V30 515 C 51.6776 4.07237 3.33233 0
M  V30 516 O 50.7036 4.77425 3.09927 0
M  V30 517 N 51.9056 3.5775 4.5716 0
M  V30 518 H 54.6706 2.94598 0.55066 0
M  V30 519 H 52.2316 1.61173 0.15323 0
M  V30 520 H 54.2236 2.64413 3.06378 0
M  V30 521 H 52.7936 1.66845 2.64351 0
M  V30 522 H 52.0136 3.73465 1.26165 0
M  V30 523 H 53.3016 4.65038 2.0644 0
M  V30 524 H 52.6996 3.00976 4.78989 0
M  V30 525 H 51.2566 3.78724 5.30482 0
M  V30 526 N 54.6897 -0.239769 1.55765 0
M  V30 527 C 55.9357 -0.968234 1.78194 0
M  V30 528 C 56.2687 -1.84701 0.599938 0
M  V30 529 O 55.5437 -1.9031 -0.401524 0
M  V30 530 C 55.8267 -1.8227 3.10564 0
M  V30 531 C 55.6797 -0.971633 4.3918 0
M  V30 532 C 56.9987 -2.80388 3.39221 0
M  V30 533 H 54.1177 -0.350572 0.648281 0
M  V30 534 H 56.7597 -0.238259 1.885 0
M  V30 535 H 54.9097 -2.44507 3.01908 0
M  V30 536 H 56.5817 -0.367408 4.59835 0
M  V30 537 H 54.8247 -0.276276 4.32919 0
M  V30 538 H 55.4957 -1.60346 5.28198 0
M  V30 539 H 57.9717 -2.28287 3.47885 0
M  V30 540 H 56.8477 -3.3729 4.33044 0
M  V30 541 H 57.1087 -3.57212 2.60484 0
M  V30 542 N 56.1678 -1.49265 -0.50573 0
M  V30 543 C 57.4148 -1.58513 -1.26015 0
M  V30 544 C 57.7428 -0.26972 -1.92621 0
M  V30 545 O 56.9978 0.741997 -1.81088 0
M  V30 546 C 57.2968 -2.69008 -2.35308 0
M  V30 547 C 56.9628 -4.10662 -1.86192 0
M  V30 548 C 55.6248 -4.49212 -1.72516 0
M  V30 549 C 57.9768 -4.99336 -1.49375 0
M  V30 550 C 55.3048 -5.74214 -1.20394 0
M  V30 551 C 57.6568 -6.24852 -0.987072 0
M  V30 552 C 56.3208 -6.62236 -0.836669 0
M  V30 553 H 55.5908 -0.580041 -0.461122 0
M  V30 554 H 58.2378 -1.83078 -0.561665 0
M  V30 555 H 56.5428 -2.38396 -3.10926 0
M  V30 556 H 58.2398 -2.73373 -2.93374 0
M  V30 557 H 54.8298 -3.8023 -1.97795 0
M  V30 558 H 59.0138 -4.70212 -1.5879 0
M  V30 559 H 54.2698 -6.01883 -1.07458 0
M  V30 560 H 58.4438 -6.92944 -0.692983 0
M  V30 561 H 56.0708 -7.58979 -0.430607 0
M  V30 562 N 57.6459 0.756429 -1.3826 0
M  V30 563 C 58.8949 1.51082 -1.3363 0
M  V30 564 C 59.2079 1.95467 0.0720068 0
M  V30 565 O 60.4139 2.7043 0.240834 0
M  V30 566 C 58.8699 2.72893 -2.34644 0
M  V30 567 C 58.4779 2.35544 -3.81081 0
M  V30 568 C 60.2219 3.50791 -2.39052 0
M  V30 569 C 58.1289 3.53948 -4.73787 0
M  V30 570 H 57.0589 0.56727 -0.49671 0
M  V30 571 H 59.7099 0.827147 -1.638 0
M  V30 572 H 58.0919 3.43227 -1.97513 0
M  V30 573 H 59.2659 1.72894 -4.27135 0
M  V30 574 H 57.5809 1.70786 -3.79764 0
M  V30 575 H 60.1779 4.38823 -3.05513 0
M  V30 576 H 60.5209 3.91745 -1.40861 0
M  V30 577 H 61.0539 2.87467 -2.74968 0
M  V30 578 H 57.7929 3.18064 -5.73163 0
M  V30 579 H 57.3129 4.15651 -4.32428 0
M  V30 580 H 58.9919 4.20566 -4.91663 0
M  V30 581 N 59.124 1.23083 0.984299 0
M  V30 582 C 60.071 1.00854 2.07598 0
M  V30 583 C 61.041 -0.0726709 1.65941 0
M  V30 584 O 62.226 0.0786535 1.90638 0
M  V30 585 C 59.366 0.601645 3.39815 0
M  V30 586 C 58.479 1.75456 3.94765 0
M  V30 587 C 57.614 1.29482 5.15177 0
M  V30 588 C 56.653 2.41873 5.62284 0
M  V30 589 N 55.79 1.96885 6.73929 0
M  V30 590 H 60.63 1.943 2.25946 0
M  V30 591 H 58.167 0.968001 1.10762 0
M  V30 592 H 60.125 0.346854 4.15756 0
M  V30 593 H 58.755 -0.295803 3.21442 0
M  V30 594 H 57.807 2.12346 3.15616 0
M  V30 595 H 59.119 2.59965 4.25699 0
M  V30 596 H 58.273 0.997923 5.98437 0
M  V30 597 H 57.012 0.420046 4.85888 0
M  V30 598 H 56.017 2.72342 4.77608 0
M  V30 599 H 57.242 3.29881 5.93595 0
M  V30 600 H 55.188 1.11782 6.46406 0
M  V30 601 H 55.105 2.74956 7.04227 0
M  V30 602 H 56.373 1.70289 7.60672 0
M  V30 603 N 60.6021 -1.18246 1.0419 0
M  V30 604 C 62.0131 -1.69914 0.773698 0
M  V30 605 C 62.3641 -1.83085 -0.705297 0
M  V30 606 O 61.4891 -1.51123 -1.5489 0
M  V30 607 C 62.0841 -3.08619 1.39784 0
M  V30 608 C 60.6431 -3.57494 1.17792 0
M  V30 609 C 59.7901 -2.34013 1.48773 0
M  V30 610 H 62.7411 -1.02904 1.20816 0
M  V30 611 H 62.7621 -3.71958 0.801714 0
M  V30 612 H 62.2741 -2.99001 2.47426 0
M  V30 613 H 60.3751 -3.72406 0.120295 0
M  V30 614 H 60.4881 -4.40852 1.87581 0
M  V30 615 H 58.8521 -2.37986 0.907463 0
M  V30 616 H 59.6351 -2.27013 2.57527 0
M  V30 617 N 62.0802 -0.821533 -1.34494 0
M  V30 618 C 62.9902 -0.244355 -2.33324 0
M  V30 619 C 64.0062 0.620527 -1.62559 0
M  V30 620 O 65.1822 0.528754 -1.94335 0
M  V30 621 C 62.2472 0.585368 -3.41723 0
M  V30 622 C 61.3082 -0.301752 -4.28238 0
M  V30 623 C 60.5412 0.488466 -5.3146 0
M  V30 624 O 60.7642 1.72186 -5.4379 0
M  V30 625 O 59.6982 -0.12848 -6.01763 0
M  V30 626 H 63.5242 -1.06231 -2.84515 0
M  V30 627 H 61.1092 -0.583645 -1.37528 0
M  V30 628 H 62.9912 1.05747 -4.07916 0
M  V30 629 H 61.6662 1.38068 -2.92778 0
M  V30 630 H 60.5732 -0.821315 -3.64973 0
M  V30 631 H 61.9062 -1.06138 -4.8062 0
M  V30 632 N 63.5583 1.46682 -0.576371 0
M  V30 633 C 64.8043 2.02712 -0.0596221 0
M  V30 634 C 65.1373 1.44765 1.29448 0
M  V30 635 O 64.4123 0.610355 1.84675 0
M  V30 636 C 64.6953 3.60098 0.0129503 0
M  V30 637 C 64.5483 4.28441 -1.3696 0
M  V30 638 C 65.8673 4.34224 0.71678 0
M  V30 639 H 62.9863 0.736637 -0.0231407 0
M  V30 640 H 65.6283 1.74898 -0.742351 0
M  V30 641 H 63.7783 3.83926 0.594378 0
M  V30 642 H 65.4503 4.15896 -1.9957 0
M  V30 643 H 63.6933 3.8805 -1.93907 0
M  V30 644 H 64.3643 5.3716 -1.27135 0
M  V30 645 H 66.8403 4.15503 0.222908 0
M  V30 646 H 65.7163 5.43936 0.73657 0
M  V30 647 H 65.9773 4.04823 1.77682 0
M  V30 648 N 65.0364 0.313813 1.54444 0
M  V30 649 C 66.2834 -0.291675 2.00388 0
M  V30 650 C 66.6114 -1.52904 1.2021 0
M  V30 651 O 65.8664 -1.93833 0.269707 0
M  V30 652 C 66.1654 -0.680386 3.50864 0
M  V30 653 C 65.8314 0.456699 4.48581 0
M  V30 654 C 64.4934 0.768824 4.75018 0
M  V30 655 C 66.8454 1.22098 5.06697 0
M  V30 656 C 64.1734 1.84812 5.56831 0
M  V30 657 C 66.5254 2.29029 5.89685 0
M  V30 658 C 65.1894 2.60834 6.14428 0
M  V30 659 H 64.4594 -0.106732 0.733273 0
M  V30 660 H 67.1064 0.43557 1.86481 0
M  V30 661 H 65.4114 -1.48791 3.62448 0
M  V30 662 H 67.1084 -1.16026 3.83847 0
M  V30 663 H 63.6984 0.203337 4.28117 0
M  V30 664 H 67.8824 0.993096 4.86263 0
M  V30 665 H 63.1384 2.09912 5.74236 0
M  V30 666 H 67.3124 2.887 6.33739 0
M  V30 667 H 64.9394 3.44596 6.77612 0
M  V30 668 N 66.5145 -1.57545 0.0417849 0
M  V30 669 C 67.4445 -2.14009 -0.933929 0
M  V30 670 C 68.4255 -1.05938 -1.33083 0
M  V30 671 O 69.6105 -1.33833 -1.40721 0
M  V30 672 C 66.7405 -2.67747 -2.21199 0
M  V30 673 C 65.6945 -3.80718 -1.95544 0
M  V30 674 C 65.0205 -4.20935 -3.29724 0
M  V30 675 C 66.3205 -5.06258 -1.28452 0
M  V30 676 H 68.0145 -2.95788 -0.463645 0
M  V30 677 H 65.5605 -1.42285 -0.221573 0
M  V30 678 H 67.5135 -3.05886 -2.89848 0
M  V30 679 H 66.2375 -1.83147 -2.70416 0
M  V30 680 H 64.8965 -3.43037 -1.2931 0
M  V30 681 H 64.5445 -3.33298 -3.76724 0
M  V30 682 H 64.2445 -4.9707 -3.13361 0
M  V30 683 H 65.7685 -4.61666 -3.9962 0
M  V30 684 H 67.1825 -5.41903 -1.8712 0
M  V30 685 H 65.5795 -5.87475 -1.22445 0
M  V30 686 H 66.6495 -4.84207 -0.259219 0
M  V30 687 N 67.9926 0.231505 -1.5589 0
M  V30 688 C 69.2176 0.978689 -1.82856 0
M  V30 689 C 69.6426 1.77559 -0.620846 0
M  V30 690 O 69.0006 1.76119 0.430305 0
M  V30 691 C 69.0486 1.87997 -3.07716 0
M  V30 692 O 68.1526 2.97393 -2.85712 0
M  V30 693 H 67.4936 0.277663 -0.603158 0
M  V30 694 H 70.0236 0.24783 -2.03093 0
M  V30 695 H 70.0336 2.2917 -3.37558 0
M  V30 696 H 68.7086 1.29417 -3.95252 0
M  V30 697 H 67.2856 2.60238 -2.67078 0
M  V30 698 N 69.4707 1.49531 0.497807 0
M  V30 699 C 70.4007 1.6935 1.60757 0
M  V30 700 C 71.3817 0.542218 1.61227 0
M  V30 701 O 72.5667 0.778417 1.77917 0
M  V30 702 C 69.6967 1.76298 2.99226 0
M  V30 703 C 68.6507 2.91248 3.13622 0
M  V30 704 C 67.9767 2.83312 4.53474 0
M  V30 705 C 69.2767 4.3214 2.93346 0
M  V30 706 H 70.9707 2.62263 1.44425 0
M  V30 707 H 68.5167 1.26208 0.693367 0
M  V30 708 H 70.4697 1.88749 3.76765 0
M  V30 709 H 69.1937 0.799871 3.16654 0
M  V30 710 H 67.8527 2.78404 2.38509 0
M  V30 711 H 67.5007 1.84902 4.67782 0
M  V30 712 H 67.2007 3.60465 4.64046 0
M  V30 713 H 68.7247 2.97775 5.33069 0
M  V30 714 H 70.1387 4.45649 3.60652 0
M  V30 715 H 68.5357 5.1054 3.15387 0
M  V30 716 H 69.6057 4.46363 1.89441 0
M  V30 717 N 70.9488 -0.749086 1.3866 0
M  V30 718 C 72.1968 -1.50535 1.34847 0
M  V30 719 C 72.5178 -1.94909 -0.0595016 0
M  V30 720 O 71.7878 -1.67973 -1.00806 0
M  V30 721 H 70.3678 -0.558395 0.49619 0
M  V30 722 H 73.0298 -0.890165 1.73384 0
M  V30 723 H 72.1258 -2.39413 2.00219 0
M  V30 724 N 72.4269 -1.23603 -0.977757 0
M  V30 725 C 73.6759 -1.06377 -1.71368 0
M  V30 726 C 73.9889 0.399062 -1.91486 0
M  V30 727 O 75.1949 0.691312 -2.62551 0
M  V30 728 C 73.6509 -1.85512 -3.08404 0
M  V30 729 C 73.2589 -3.36141 -2.96164 0
M  V30 730 C 75.0029 -1.76783 -3.85938 0
M  V30 731 C 72.9099 -4.07659 -4.28449 0
M  V30 732 H 71.8399 -0.394452 -0.642591 0
M  V30 733 H 74.4909 -1.47594 -1.09034 0
M  V30 734 H 72.8729 -1.37103 -3.71509 0
M  V30 735 H 74.0469 -3.92056 -2.42133 0
M  V30 736 H 72.3619 -3.45712 -2.32104 0
M  V30 737 H 74.9589 -2.27526 -4.83876 0
M  V30 738 H 75.3019 -0.731116 -4.0983 0
M  V30 739 H 75.8349 -2.22818 -3.2954 0
M  V30 740 H 72.5739 -5.11648 -4.09752 0
M  V30 741 H 72.0939 -3.5653 -4.82334 0
M  V30 742 H 73.7729 -4.141 -4.97122 0
M  V30 743 N 73.905 1.17692 -1.04816 0
M  V30 744 C 75.151 1.88137 -0.75711 0
M  V30 745 C 75.484 1.80604 0.713841 0
M  V30 746 O 74.759 1.21146 1.52164 0
M  V30 747 C 75.042 3.38318 -1.2334 0
M  V30 748 C 74.895 3.54622 -2.76701 0
M  V30 749 C 76.214 4.32214 -0.829415 0
M  V30 750 H 73.333 0.683163 -0.27651 0
M  V30 751 H 75.975 1.38424 -1.30149 0
M  V30 752 H 74.125 3.80787 -0.770286 0
M  V30 753 H 75.797 3.21194 -3.31107 0
M  V30 754 H 74.04 2.97026 -3.16161 0
M  V30 755 H 74.711 4.60028 -3.05088 0
M  V30 756 H 77.187 3.97565 -1.22805 0
M  V30 757 H 76.063 5.35838 -1.19033 0
M  V30 758 H 76.324 4.41294 0.266891 0
M  V30 759 N 75.3831 0.828654 1.34056 0
M  V30 760 C 76.6081 0.431637 2.02859 0
M  V30 761 C 77.0331 -0.956339 1.61975 0
M  V30 762 O 76.3911 -1.62338 0.807228 0
M  V30 763 C 76.4391 0.548323 3.56407 0
M  V30 764 O 75.5431 -0.429556 4.10157 0
M  V30 765 H 74.8841 0.176886 0.640006 0
M  V30 766 H 77.4141 1.12066 1.71179 0
M  V30 767 H 77.4241 0.426196 4.05768 0
M  V30 768 H 76.0991 1.5606 3.8551 0
M  V30 769 H 74.6761 -0.265836 3.71951 0
M  V30 770 N 76.8612 -1.46375 0.584142 0
M  V30 771 C 77.7912 -2.33103 -0.136037 0
M  V30 772 C 78.7722 -1.45431 -0.882255 0
M  V30 773 O 79.9572 -1.74246 -0.857434 0
M  V30 774 C 77.0872 -3.27731 -1.14933 0
M  V30 775 C 76.0412 -4.24855 -0.517862 0
M  V30 776 C 75.3672 -5.09001 -1.63773 0
M  V30 777 C 76.6672 -5.19439 0.545886 0
M  V30 778 H 78.3612 -2.93568 0.588086 0
M  V30 779 H 75.9072 -1.41166 0.284259 0
M  V30 780 H 77.8602 -3.87261 -1.66153 0
M  V30 781 H 76.5842 -2.65377 -1.90375 0
M  V30 782 H 75.2432 -3.6659 -0.0267361 0
M  V30 783 H 74.8912 -4.43031 -2.38185 0
M  V30 784 H 74.5912 -5.74777 -1.22085 0
M  V30 785 H 76.1152 -5.71396 -2.15266 0
M  V30 786 H 77.5292 -5.73177 0.118704 0
M  V30 787 H 75.9262 -5.93566 0.88317 0
M  V30 788 H 76.9962 -4.63285 1.43162 0
M  V30 789 N 78.3393 -0.321999 -1.54275 0
M  V30 790 C 79.2693 0.537411 -2.27231 0
M  V30 791 C 80.2503 1.12064 -1.27968 0
M  V30 792 O 81.4353 1.14606 -1.56777 0
M  V30 793 C 78.5653 1.69919 -3.02894 0
M  V30 794 C 77.5193 1.24534 -4.09482 0
M  V30 795 C 76.8453 2.49394 -4.72977 0
M  V30 796 C 78.1453 0.361335 -5.21049 0
M  V30 797 H 79.8393 -0.0711406 -2.99315 0
M  V30 798 H 77.3853 -0.0356555 -1.43956 0
M  V30 799 H 79.3383 2.30668 -3.52662 0
M  V30 800 H 78.0623 2.33431 -2.28424 0
M  V30 801 H 76.7213 0.660782 -3.60596 0
M  V30 802 H 76.3693 3.11265 -3.95124 0
M  V30 803 H 76.0693 2.19718 -5.44975 0
M  V30 804 H 77.5933 3.10908 -5.25517 0
M  V30 805 H 79.0073 0.875072 -5.66582 0
M  V30 806 H 77.4043 0.157428 -5.99893 0
M  V30 807 H 78.4743 -0.60822 -4.8107 0
M  V30 808 N 79.8174 1.5752 -0.0501392 0
M  V30 809 C 80.7274 2.14952 0.939827 0
M  V30 810 C 81.7434 1.10706 1.34239 0
M  V30 811 O 82.9194 1.42869 1.41952 0
M  V30 812 C 79.9844 2.68232 2.19665 0
M  V30 813 C 79.0454 3.87272 1.85253 0
M  V30 814 C 78.2784 4.38002 3.04943 0
M  V30 815 O 78.5014 3.87811 4.18281 0
M  V30 816 O 77.4354 5.29602 2.86017 0
M  V30 817 H 81.2614 2.9986 0.481392 0
M  V30 818 H 78.8464 1.4841 0.171699 0
M  V30 819 H 80.7284 3.02475 2.93406 0
M  V30 820 H 79.4034 1.86395 2.64648 0
M  V30 821 H 78.3104 3.5792 1.0883 0
M  V30 822 H 79.6434 4.70336 1.4507 0
M  V30 823 N 81.2955 -0.223234 1.56011 0
M  V30 824 C 82.2435 -1.29627 1.93131 0
M  V30 825 C 83.2375 -1.48608 0.813146 0
M  V30 826 O 84.4435 -1.49802 0.997966 0
M  V30 827 H 80.8185 -0.434563 0.613726 0
M  V30 828 H 82.7895 -0.955995 2.82672 0
M  V30 829 C 81.5385 -2.63983 2.26292 0
M  V30 830 H 80.8615 -2.50185 3.11846 0
M  V30 831 H 82.3015 -3.3788 2.56151 0
M  V30 832 C 80.7605 -3.18866 1.08747 0
M  V30 833 O 81.2905 -4.00192 0.347727 0
M  V30 834 N 79.4965 -2.77217 0.871743 0
M  V30 835 H 79.0435 -2.1119 1.47501 0
M  V30 836 H 79.0015 -3.1428 0.0869905 0
M  V30 837 N 82.7736 -1.49793 -0.48987 0
M  V30 838 C 84.0226 -1.59085 -1.23995 0
M  V30 839 C 84.3356 -0.287907 -1.9347 0
M  V30 840 O 85.5416 -0.259506 -2.70257 0
M  V30 841 C 83.9976 -2.80736 -2.252 0
M  V30 842 C 83.6056 -4.17833 -1.61614 0
M  V30 843 C 85.3496 -2.99364 -3.00967 0
M  V30 844 C 83.2566 -5.30693 -2.60996 0
M  V30 845 H 82.1866 -0.592372 -0.466488 0
M  V30 846 H 84.8376 -1.76197 -0.51252 0
M  V30 847 H 83.2196 -2.57142 -3.01154 0
M  V30 848 H 84.3936 -4.51608 -0.915774 0
M  V30 849 H 82.7086 -4.04656 -0.981977 0
M  V30 850 H 85.3056 -3.80851 -3.75308 0
M  V30 851 H 85.6486 -2.10356 -3.59244 0
M  V30 852 H 86.1816 -3.2305 -2.32128 0
M  V30 853 H 82.9206 -6.21796 -2.07485 0
M  V30 854 H 82.4406 -5.01359 -3.2924 0
M  V30 855 H 84.1196 -5.6049 -3.23202 0
M  V30 856 N 84.2517 0.741722 -1.39055 0
M  V30 857 C 85.1817 1.869 -1.39966 0
M  V30 858 C 86.1627 1.6804 -0.26392 0
M  V30 859 O 87.3477 1.88458 -0.468755 0
M  V30 860 C 84.4777 3.24572 -1.23574 0
M  V30 861 C 83.4317 3.58056 -2.34477 0
M  V30 862 C 82.7577 4.94593 -2.0318 0
M  V30 863 C 84.0577 3.61716 -3.76774 0
M  V30 864 H 85.7517 1.86395 -2.34302 0
M  V30 865 H 83.2977 0.895361 -1.1278 0
M  V30 866 H 85.2507 4.031 -1.22834 0
M  V30 867 H 83.9747 3.25587 -0.257045 0
M  V30 868 H 82.6337 2.81854 -2.34423 0
M  V30 869 H 82.2817 4.92181 -1.03765 0
M  V30 870 H 81.9817 5.17964 -2.77465 0
M  V30 871 H 83.5057 5.75486 -2.04079 0
M  V30 872 H 84.9197 4.30335 -3.78794 0
M  V30 873 H 83.3167 3.96603 -4.50362 0
M  V30 874 H 84.3867 2.61672 -4.08235 0
M  V30 875 N 85.7298 1.2412 0.971189 0
M  V30 876 C 86.9758 1.08041 1.71625 0
M  V30 877 C 87.3088 -0.380407 1.90438 0
M  V30 878 O 86.5838 -1.28127 1.46334 0
M  V30 879 C 86.8668 1.81682 3.10908 0
M  V30 880 C 86.7198 3.35493 2.99608 0
M  V30 881 C 88.0388 1.58671 4.10501 0
M  V30 882 H 85.1578 0.39388 0.622919 0
M  V30 883 H 87.7998 1.52743 1.13003 0
M  V30 884 H 85.9498 1.43684 3.60953 0
M  V30 885 H 87.6218 3.83068 2.57015 0
M  V30 886 H 85.8648 3.64052 2.35899 0
M  V30 887 H 86.5358 3.82217 3.98264 0
M  V30 888 H 89.0118 1.91719 3.69301 0
M  V30 889 H 87.8878 2.1266 5.06031 0
M  V30 890 H 88.1488 0.524161 4.38982 0
M  V30 891 N 87.2079 -1.17134 1.05439 0
M  V30 892 C 88.4569 -1.86791 0.761049 0
M  V30 893 C 88.7699 -1.82072 -0.714795 0
M  V30 894 O 89.9759 -2.47223 -1.12218 0
M  V30 895 C 88.4319 -3.35166 1.31117 0
M  V30 896 C 88.0399 -3.48381 2.81664 0
M  V30 897 C 89.7839 -4.10134 1.09499 0
M  V30 898 C 87.6909 -4.90793 3.29964 0
M  V30 899 H 86.6209 -0.699681 0.281002 0
M  V30 900 H 89.2719 -1.3226 1.27199 0
M  V30 901 H 87.6539 -3.8925 0.72803 0
M  V30 902 H 88.8279 -3.04502 3.45855 0
M  V30 903 H 87.1429 -2.86836 3.01851 0
M  V30 904 H 89.7399 -5.152 1.43084 0
M  V30 905 H 90.0829 -4.16287 0.0328772 0
M  V30 906 H 90.6159 -3.62264 1.64346 0
M  V30 907 H 87.3549 -4.89816 4.35616 0
M  V30 908 H 86.8749 -5.35333 2.70516 0
M  V30 909 H 88.5539 -5.59573 3.24787 0
M  V30 910 N 88.686 -0.835752 -1.33615 0
M  V30 911 C 89.616 -0.281739 -2.31794 0
M  V30 912 C 90.597 0.608833 -1.58831 0
M  V30 913 O 91.782 0.533035 -1.86741 0
M  V30 914 C 88.912 0.546612 -3.42971 0
M  V30 915 C 87.866 -0.247904 -4.27281 0
M  V30 916 C 87.192 0.704001 -5.30045 0
M  V30 917 C 88.492 -1.46324 -5.01385 0
M  V30 918 H 90.186 -1.10206 -2.78379 0
M  V30 919 H 87.732 -0.531388 -1.33837 0
M  V30 920 H 89.685 0.944467 -4.1068 0
M  V30 921 H 88.409 1.40011 -2.95067 0
M  V30 922 H 87.068 -0.627281 -3.61194 0
M  V30 923 H 86.716 1.55381 -4.78399 0
M  V30 924 H 86.416 0.176524 -5.87335 0
M  V30 925 H 87.94 1.09944 -6.0062 0
M  V30 926 H 89.354 -1.13871 -5.61877 0
M  V30 927 H 87.751 -1.92728 -5.6831 0
M  V30 928 H 88.821 -2.23467 -4.30338 0
M  V30 929 N 90.1641 1.46063 -0.591896 0
M  V30 930 C 91.1271 2.28854 0.125973 0
M  V30 931 C 92.1271 1.38903 0.810107 0
M  V30 932 O 93.3171 1.61186 0.66066 0
M  V30 933 C 90.4491 3.19526 1.1881 0
M  V30 934 H 91.6421 2.93802 -0.601717 0
M  V30 935 H 89.1951 1.52325 -0.350254 0
M  V30 936 H 89.9301 2.59345 1.94707 0
M  V30 937 H 89.7151 3.85766 0.701936 0
M  V30 938 H 91.2051 3.81817 1.69132 0
M  V30 939 N 91.6422 0.330177 1.54103 0
M  V30 940 C 92.8882 -0.270806 2.00984 0
M  V30 941 C 93.2212 -1.51265 1.21789 0
M  V30 942 O 92.4962 -1.92142 0.301927 0
M  V30 943 C 92.7792 -0.598339 3.55094 0
M  V30 944 C 92.6322 0.654674 4.4501 0
M  V30 945 C 93.9512 -1.41334 4.16789 0
M  V30 946 H 91.0702 -0.0969531 0.730595 0
M  V30 947 H 93.7122 0.448066 1.84641 0
M  V30 948 H 91.8622 -1.21078 3.69151 0
M  V30 949 H 93.5342 1.29285 4.42813 0
M  V30 950 H 91.7772 1.28224 4.14416 0
M  V30 951 H 92.4482 0.380944 5.50684 0
M  V30 952 H 94.9242 -0.895597 4.06347 0
M  V30 953 H 93.8002 -1.61127 5.24718 0
M  V30 954 H 94.0612 -2.41146 3.70541 0
M  V30 955 N 93.1203 -1.57491 0.0584922 0
M  V30 956 C 94.3663 -1.93264 -0.614558 0
M  V30 957 C 94.6993 -0.937717 -1.7006 0
M  V30 958 O 93.9743 0.0351652 -1.94468 0
M  V30 959 C 94.2573 -3.3938 -1.20386 0
M  V30 960 C 94.1103 -4.49625 -0.125375 0
M  V30 961 C 95.4293 -3.86039 -2.11334 0
M  V30 962 H 92.5483 -0.702791 -0.221933 0
M  V30 963 H 95.1903 -1.8961 0.12175 0
M  V30 964 H 93.3403 -3.42626 -1.83139 0
M  V30 965 H 95.0123 -4.58506 0.506971 0
M  V30 966 H 93.2553 -4.30354 0.545672 0
M  V30 967 H 93.9263 -5.48967 -0.577861 0
M  V30 968 H 96.4023 -3.84716 -1.58534 0
M  V30 969 H 95.2783 -4.88914 -2.49507 0
M  V30 970 H 95.5393 -3.23215 -3.01636 0
M  V30 971 N 94.5984 0.214957 -1.56127 0
M  V30 972 C 96.0144 0.564948 -1.49267 0
M  V30 973 C 96.2144 1.86827 -0.754838 0
M  V30 974 O 95.2704 2.50745 -0.297198 0
M  V30 975 C 96.5834 0.638071 -2.93852 0
M  V30 976 C 98.1314 0.728253 -3.0441 0
M  V30 977 C 98.6064 0.832663 -4.50367 0
M  V30 978 N 100.097 0.896712 -4.54437 0
M  V30 979 C 100.832 0.997324 -5.6466 0
M  V30 980 N 100.328 1.06147 -6.8462 0
M  V30 981 N 102.121 1.03297 -5.52527 0
M  V30 982 H 94.2724 -0.640211 -2.02522 0
M  V30 983 H 96.5354 -0.225507 -0.920788 0
M  V30 984 H 96.2414 -0.250126 -3.50809 0
M  V30 985 H 96.1154 1.49947 -3.46115 0
M  V30 986 H 98.5024 1.60689 -2.47514 0
M  V30 987 H 98.5834 -0.158952 -2.55306 0
M  V30 988 H 98.2274 -0.0415417 -5.07883 0
M  V30 989 H 98.1574 1.73538 -4.97184 0
M  V30 990 H 100.648 0.857188 -3.6805 0
M  V30 991 H 100.961 1.1382 -7.64372 0
M  V30 992 H 99.3064 1.03049 -6.87318 0
M  V30 993 H 102.497 0.979558 -4.57736 0
M  V30 994 H 102.67 1.10793 -6.38458 0
M  V30 995 N 96.0765 1.50051 0.48192 0
M  V30 996 C 97.0245 1.68635 1.60203 0
M  V30 997 C 98.0185 0.552184 1.60148 0
M  V30 998 O 99.2245 0.732377 1.64427 0
M  V30 999 H 95.5995 0.532081 0.531407 0
M  V30 1000 H 97.5705 2.62616 1.41688 0
M  V30 1001 C 96.3195 1.78775 2.9822 0
M  V30 1002 H 95.6425 2.6543 2.98976 0
M  V30 1003 H 97.0825 1.95806 3.7608 0
M  V30 1004 C 95.5415 0.536849 3.32595 0
M  V30 1005 O 96.0715 -0.328897 4.00351 0
M  V30 1006 N 94.2775 0.394091 2.87915 0
M  V30 1007 H 93.8245 1.09962 2.32951 0
M  V30 1008 H 93.7825 -0.441737 3.11281 0
M  V30 1009 N 97.5546 -0.734337 1.39446 0
M  V30 1010 C 98.8026 -1.49096 1.36436 0
M  V30 1011 C 99.1236 -1.94961 -0.0388255 0
M  V30 1012 O 98.3936 -1.69033 -0.990191 0
M  V30 1013 H 96.9736 -0.5531 0.502085 0
M  V30 1014 H 99.6356 -0.871725 1.74319 0
M  V30 1015 H 98.7316 -2.37276 2.02747 0
M  V30 1016 N 99.0327 -1.24633 -0.964593 0
M  V30 1017 C 99.9807 -1.03917 -2.08096 0
M  V30 1018 C 100.975 0.0268581 -1.69379 0
M  V30 1019 O 102.181 -0.127952 -1.79545 0
M  V30 1020 H 98.5557 -0.319044 -0.680966 0
M  V30 1021 H 100.527 -1.98581 -2.22729 0
M  V30 1022 C 99.2757 -0.663983 -3.41301 0
M  V30 1023 H 98.5987 -1.47605 -3.71555 0
M  V30 1024 H 100.039 -0.558663 -4.20303 0
M  V30 1025 C 98.4977 0.629169 -3.30973 0
M  V30 1026 O 99.0277 1.67404 -3.65156 0
M  V30 1027 N 97.2337 0.611057 -2.84103 0
M  V30 1028 H 96.7807 -0.239593 -2.56483 0
M  V30 1029 H 96.7387 1.47647 -2.77575 0
M  V30 1030 N 100.511 1.16574 -1.06058 0
M  V30 1031 C 101.441 2.23057 -0.690488 0
M  V30 1032 C 102.422 1.67141 0.315901 0
M  V30 1033 O 103.607 1.93253 0.191556 0
M  V30 1034 C 100.737 3.47222 -0.073625 0
M  V30 1035 C 99.6908 4.16016 -1.00573 0
M  V30 1036 C 99.0168 5.34104 -0.252289 0
M  V30 1037 C 100.317 4.67264 -2.33371 0
M  V30 1038 H 102.011 2.54271 -1.58072 0
M  V30 1039 H 99.5568 1.22218 -0.76149 0
M  V30 1040 H 101.51 4.20939 0.19714 0
M  V30 1041 H 100.234 3.15302 0.85161 0
M  V30 1042 H 98.8928 3.44223 -1.2612 0
M  V30 1043 H 98.5408 4.98437 0.675988 0
M  V30 1044 H 98.2408 5.81072 -0.873455 0
M  V30 1045 H 99.7648 6.10599 0.0109857 0
M  V30 1046 H 101.179 5.32573 -2.12223 0
M  V30 1047 H 99.5758 5.24843 -2.90963 0
M  V30 1048 H 100.646 3.83602 -2.96611 0
M  V30 1049 N 101.989 0.842826 1.3317 0
M  V30 1050 C 102.939 0.250877 2.26616 0
M  V30 1051 C 103.923 -0.596427 1.49437 0
M  V30 1052 O 105.115 -0.447747 1.71243 0
M  V30 1053 C 102.244 -0.569779 3.38539 0
M  V30 1054 C 101.33 0.289254 4.23112 0
M  V30 1055 N 101.721 1.36987 4.86897 0
M  V30 1056 C 100.019 0.0769631 4.45934 0
M  V30 1057 C 100.72 1.89737 5.49886 0
M  V30 1058 N 99.6959 1.19827 5.30229 0
M  V30 1059 H 103.498 1.07718 2.73448 0
M  V30 1060 H 101.012 0.687693 1.47121 0
M  V30 1061 H 103.009 -1.01018 4.04476 0
M  V30 1062 H 101.669 -1.39401 2.93253 0
M  V30 1063 H 102.68 1.75277 4.87338 0
M  V30 1064 H 99.3569 -0.713507 4.11358 0
M  V30 1065 H 100.747 2.80253 6.10662 0
M  V30 1066 N 103.467 -1.45747 0.599634 0
M  V30 1067 C 104.692 -2.07178 0.0960198 0
M  V30 1068 C 105.117 -1.44268 -1.207 0
M  V30 1069 O 104.475 -0.532503 -1.73303 0
M  V30 1070 C 104.523 -3.60579 -0.0385348 0
M  V30 1071 O 103.627 -3.97713 -1.0908 0
M  V30 1072 H 102.968 -0.660251 0.0704593 0
M  V30 1073 H 105.498 -1.87124 0.827385 0
M  V30 1074 H 105.508 -4.07298 -0.239304 0
M  V30 1075 H 104.183 -4.05756 0.912947 0
M  V30 1076 H 102.76 -3.62678 -0.867135 0
M  V30 1077 N 104.945 -0.338344 -1.53925 0
M  V30 1078 C 106.356 0.146651 -1.86123 0
M  V30 1079 C 106.707 1.5042 -1.2597 0
M  V30 1080 O 105.832 2.08723 -0.571294 0
M  V30 1081 C 106.427 0.272879 -3.37699 0
M  V30 1082 C 104.986 0.702103 -3.69794 0
M  V30 1083 C 104.133 -0.167304 -2.76795 0
M  V30 1084 H 107.084 -0.558123 -1.48562 0
M  V30 1085 H 107.105 1.10128 -3.64214 0
M  V30 1086 H 106.617 -0.715307 -3.81451 0
M  V30 1087 H 104.718 1.6995 -3.31584 0
M  V30 1088 H 104.831 0.495604 -4.7653 0
M  V30 1089 H 103.195 0.359527 -2.5215 0
M  V30 1090 H 103.978 -1.15253 -3.23375 0
M  V30 1091 N 106.423 1.57458 -0.0668435 0
M  V30 1092 C 107.356 2.08033 0.93795 0
M  V30 1093 C 108.334 0.984321 1.29421 0
M  V30 1094 O 109.518 1.25736 1.40437 0
M  V30 1095 C 106.645 2.53388 2.24749 0
M  V30 1096 C 105.691 3.74376 2.04315 0
M  V30 1097 S 106.524 5.19303 1.30706 0
M  V30 1098 C 107.68 5.67986 2.62951 0
M  V30 1099 H 107.913 2.92935 0.50759 0
M  V30 1100 H 105.446 1.5371 0.145804 0
M  V30 1101 H 107.404 2.8018 3.00016 0
M  V30 1102 H 106.065 1.68763 2.64911 0
M  V30 1103 H 105.258 4.04083 3.01218 0
M  V30 1104 H 104.86 3.47931 1.37186 0
M  V30 1105 H 107.152 5.74528 3.5906 0
M  V30 1106 H 108.095 6.66955 2.3786 0
M  V30 1107 H 108.503 4.95781 2.69929 0
M  V30 1108 N 107.901 -0.206675 1.56239 0
M  V30 1109 C 109.131 -0.943975 1.83773 0
M  V30 1110 C 109.539 -1.77841 0.645703 0
M  V30 1111 O 108.882 -1.79403 -0.395008 0
M  V30 1112 C 108.944 -1.899 3.05251 0
M  V30 1113 C 108.608 -1.24764 4.39639 0
M  V30 1114 C 109.605 -0.630216 5.16066 0
M  V30 1115 C 107.29 -1.25496 4.8637 0
M  V30 1116 C 109.284 -0.0287946 6.37393 0
M  V30 1117 C 106.971 -0.649698 6.07637 0
M  V30 1118 C 107.969 -0.0376845 6.8299 0
M  V30 1119 O 107.657 0.55812 8.0196 0
M  V30 1120 H 107.389 -0.281508 0.614597 0
M  V30 1121 H 109.943 -0.222458 2.04192 0
M  V30 1122 H 108.173 -2.6599 2.80689 0
M  V30 1123 H 109.862 -2.5031 3.1953 0
M  V30 1124 H 110.628 -0.616785 4.81062 0
M  V30 1125 H 106.507 -1.72072 4.27683 0
M  V30 1126 H 110.051 0.449518 6.9615 0
M  V30 1127 H 105.948 -0.660592 6.42111 0
M  V30 1128 H 106.716 0.453891 8.17241 0
M  V30 1129 N 109.379 -1.50304 -0.473955 0
M  V30 1130 C 110.626 -1.6115 -1.22625 0
M  V30 1131 C 110.954 -0.310517 -1.92005 0
M  V30 1132 O 110.209 0.703419 -1.82621 0
M  V30 1133 C 110.508 -2.73938 -2.29549 0
M  V30 1134 C 110.174 -4.14519 -1.7744 0
M  V30 1135 C 108.836 -4.5277 -1.62949 0
M  V30 1136 C 111.188 -5.02392 -1.3875 0
M  V30 1137 C 108.516 -5.76639 -1.08187 0
M  V30 1138 C 110.868 -6.26805 -0.854309 0
M  V30 1139 C 109.532 -6.63861 -0.696011 0
M  V30 1140 H 108.802 -0.589691 -0.448715 0
M  V30 1141 H 111.449 -1.84228 -0.522705 0
M  V30 1142 H 109.754 -2.44937 -3.05799 0
M  V30 1143 H 111.451 -2.79534 -2.87509 0
M  V30 1144 H 108.041 -3.8434 -1.89685 0
M  V30 1145 H 112.225 -4.73474 -1.4878 0
M  V30 1146 H 107.481 -6.04027 -0.946666 0
M  V30 1147 H 111.655 -6.94258 -0.545843 0
M  V30 1148 H 109.282 -7.59722 -0.26952 0
M  V30 1149 N 110.857 0.726932 -1.39834 0
M  V30 1150 C 112.104 1.48664 -1.37496 0
M  V30 1151 C 112.432 1.94482 0.0264678 0
M  V30 1152 O 111.687 1.67692 1.00886 0
M  V30 1153 C 111.986 2.73495 -2.30077 0
M  V30 1154 C 111.652 2.46502 -3.77555 0
M  V30 1155 C 110.314 2.3885 -4.17737 0
M  V30 1156 C 112.666 2.23604 -4.70798 0
M  V30 1157 C 109.994 2.06352 -5.49214 0
M  V30 1158 C 112.346 1.92622 -6.02561 0
M  V30 1159 C 111.01 1.83444 -6.41798 0
M  V30 1160 H 110.28 0.544001 -0.503135 0
M  V30 1161 H 112.927 0.833657 -1.72402 0
M  V30 1162 H 111.232 3.43575 -1.88317 0
M  V30 1163 H 112.929 3.31549 -2.25558 0
M  V30 1164 H 109.519 2.5334 -3.45712 0
M  V30 1165 H 113.703 2.28479 -4.40581 0
M  V30 1166 H 108.959 1.97776 -5.78528 0
M  V30 1167 H 113.133 1.73914 -6.74334 0
M  V30 1168 H 110.76 1.58029 -7.43593 0
M  V30 1169 N 112.336 1.25143 0.95797 0
M  V30 1170 C 113.266 1.07711 2.07173 0
M  V30 1171 C 114.247 -0.0128462 1.70095 0
M  V30 1172 O 115.432 0.156061 1.93572 0
M  V30 1173 C 112.562 0.691503 3.40346 0
M  V30 1174 C 111.516 1.73132 3.9142 0
M  V30 1175 C 110.842 1.20049 5.21049 0
M  V30 1176 C 112.142 3.1294 4.1817 0
M  V30 1177 H 113.836 2.00873 2.22014 0
M  V30 1178 H 111.382 0.967191 1.06684 0
M  V30 1179 H 113.335 0.556505 4.17709 0
M  V30 1180 H 112.059 -0.275819 3.25433 0
M  V30 1181 H 110.718 1.8547 3.16222 0
M  V30 1182 H 110.366 0.223499 5.02503 0
M  V30 1183 H 110.066 1.89545 5.56189 0
M  V30 1184 H 111.59 1.07782 6.01012 0
M  V30 1185 H 113.004 3.03775 4.86203 0
M  V30 1186 H 111.401 3.79875 4.64559 0
M  V30 1187 H 112.471 3.6025 3.24573 0
M  V30 1188 N 113.814 -1.1601 1.06675 0
M  V30 1189 C 115.054 -1.88304 0.795037 0
M  V30 1190 C 115.418 -1.80062 -0.666466 0
M  V30 1191 O 116.619 -2.47319 -1.05293 0
M  V30 1192 C 114.89 -3.33664 1.28076 0
M  V30 1193 S 116.449 -4.23768 1.13868 0
M  V30 1194 H 113.267 -0.649928 0.288296 0
M  V30 1195 H 115.869 -1.4001 1.36445 0
M  V30 1196 H 114.573 -3.37203 2.33927 0
M  V30 1197 H 114.104 -3.87009 0.706253 0
M  V30 1198 H 116.119 -4.96148 0.0719668 0
M  V30 1199 N 115.292 -0.849877 -1.32721 0
M  V30 1200 C 116.517 -0.463856 -2.02146 0
M  V30 1201 C 116.942 0.930449 -1.63476 0
M  V30 1202 O 116.3 1.61033 -0.832952 0
M  V30 1203 C 116.348 -0.604955 -3.55489 0
M  V30 1204 O 115.452 0.36425 -4.10788 0
M  V30 1205 H 114.793 -0.187046 -0.637111 0
M  V30 1206 H 117.323 -1.14775 -1.69375 0
M  V30 1207 H 117.333 -0.490696 -4.05038 0
M  V30 1208 H 116.008 -1.62174 -3.82978 0
M  V30 1209 H 114.585 0.206628 -3.72327 0
M  V30 1210 N 116.77 1.45427 -0.607355 0
M  V30 1211 C 117.7 2.3329 0.0989352 0
M  V30 1212 C 118.681 1.46816 0.859007 0
M  V30 1213 O 119.866 1.75588 0.829604 0
M  V30 1214 C 116.996 3.29518 1.09705 0
M  V30 1215 C 115.95 4.25626 0.450206 0
M  V30 1216 C 115.276 5.11542 1.55655 0
M  V30 1217 C 116.576 5.18505 -0.628455 0
M  V30 1218 H 118.27 2.92595 -0.634716 0
M  V30 1219 H 115.816 1.40696 -0.306681 0
M  V30 1220 H 117.769 3.89855 1.59971 0
M  V30 1221 H 116.493 2.68372 1.86129 0
M  V30 1222 H 115.152 3.66586 -0.0315886 0
M  V30 1223 H 114.8 4.46765 2.31107 0
M  V30 1224 H 114.5 5.76647 1.12925 0
M  V30 1225 H 116.024 5.74748 2.06148 0
M  V30 1226 H 117.438 5.72916 -0.209877 0
M  V30 1227 H 115.835 5.92085 -0.977489 0
M  V30 1228 H 116.905 4.60948 -1.50514 0
M  V30 1229 N 118.248 0.346503 1.53744 0
M  V30 1230 C 119.211 -0.496439 2.23759 0
M  V30 1231 C 120.211 -1.0252 1.2388 0
M  V30 1232 O 121.401 -0.913974 1.48297 0
M  V30 1233 C 118.533 -1.69187 2.95954 0
M  V30 1234 H 119.726 0.115952 2.99676 0
M  V30 1235 H 117.279 0.0978939 1.55993 0
M  V30 1236 H 118.014 -2.34288 2.24231 0
M  V30 1237 H 117.799 -1.31989 3.69217 0
M  V30 1238 H 119.289 -2.28969 3.49232 0
M  V30 1239 N 119.726 -1.57421 0.075193 0
M  V30 1240 C 120.972 -1.93905 -0.594025 0
M  V30 1241 C 121.305 -0.955701 -1.69056 0
M  V30 1242 O 120.58 0.0145373 -1.94495 0
M  V30 1243 C 120.863 -3.40638 -1.1678 0
M  V30 1244 C 120.716 -4.49733 -0.0776792 0
M  V30 1245 C 122.035 -3.88259 -2.07228 0
M  V30 1246 H 119.154 -0.705105 -0.214466 0
M  V30 1247 H 121.796 -1.8947 0.141854 0
M  V30 1248 H 119.946 -3.44549 -1.79494 0
M  V30 1249 H 121.618 -4.57942 0.555573 0
M  V30 1250 H 119.861 -4.29751 0.591286 0
M  V30 1251 H 120.532 -5.49549 -0.519603 0
M  V30 1252 H 123.008 -3.86376 -1.54445 0
M  V30 1253 H 121.884 -4.91533 -2.44308 0
M  V30 1254 H 122.145 -3.26396 -2.98191 0
M  V30 1255 N 121.204 0.198386 -1.56346 0
M  V30 1256 C 122.167 1.22952 -1.93431 0
M  V30 1257 C 123.167 1.38611 -0.815092 0
M  V30 1258 O 124.357 1.36479 -1.08255 0
M  V30 1259 C 121.489 2.59946 -2.20546 0
M  V30 1260 H 122.682 0.912626 -2.85677 0
M  V30 1261 H 120.235 0.43977 -1.49986 0
M  V30 1262 H 120.97 2.96696 -1.30927 0
M  V30 1263 H 120.755 2.49953 -3.02102 0
M  V30 1264 H 122.245 3.3431 -2.50253 0
M  V30 1265 N 122.682 1.50554 0.465978 0
M  V30 1266 C 123.959 1.5232 1.22712 0
M  V30 1267 C 124.339 0.270807 2.09356 0
M  V30 1268 O 123.687 -0.745541 2.15995 0
M  V30 1269 C 123.897 2.82175 2.05374 0
M  V30 1270 C 125.245 3.33033 2.6339 0
M  V30 1271 O 126.269 2.83531 2.15612 0
M  V30 1272 O 125.128 4.19336 3.50456 0
M  V30 1273 H 122.222 0.611183 0.557122 0
M  V30 1274 H 124.768 1.62847 0.477381 0
M  V30 1275 H 123.54 3.64797 1.41558 0
M  V30 1276 H 123.163 2.74675 2.87471 0
M  V30 1277 N 124.16 -0.719506 1.40217 0
M  V30 1278 C 125.093 -1.84298 1.34571 0
M  V30 1279 C 126.071 -1.61149 0.216741 0
M  V30 1280 O 127.255 -1.84212 0.399756 0
M  V30 1281 C 124.382 -3.20568 1.09335 0
M  V30 1282 C 123.428 -3.62551 2.24631 0
M  V30 1283 S 124.261 -3.7012 3.87004 0
M  V30 1284 C 125.417 -5.09154 3.64024 0
M  V30 1285 H 125.65 -1.88807 2.2965 0
M  V30 1286 H 123.183 -0.885901 1.26456 0
M  V30 1287 H 125.141 -3.99246 0.954602 0
M  V30 1288 H 123.802 -3.13696 0.159164 0
M  V30 1289 H 122.995 -4.61483 2.02606 0
M  V30 1290 H 122.597 -2.91119 2.34789 0
M  V30 1291 H 124.889 -5.95955 3.22248 0
M  V30 1292 H 125.832 -5.36213 4.62473 0
M  V30 1293 H 126.24 -4.79562 2.97793 0
M  V30 1294 N 125.638 -1.25649 -0.95132 0
M  V30 1295 C 126.568 -1.08808 -2.06599 0
M  V30 1296 C 127.549 0.00382547 -1.701 0
M  V30 1297 O 128.734 -0.166325 -1.93486 0
M  V30 1298 C 125.864 -0.709542 -3.39975 0
M  V30 1299 C 124.818 -1.75206 -3.90496 0
M  V30 1300 C 124.144 -1.22811 -5.20405 0
M  V30 1301 C 125.444 -3.15153 -4.16504 0
M  V30 1302 H 127.138 -2.02048 -2.20946 0
M  V30 1303 H 124.684 -0.972835 -1.06169 0
M  V30 1304 H 126.637 -0.578649 -4.17408 0
M  V30 1305 H 125.361 0.258556 -3.25575 0
M  V30 1306 H 124.02 -1.87145 -3.15234 0
M  V30 1307 H 123.668 -0.250145 -5.02378 0
M  V30 1308 H 123.368 -1.92492 -5.55176 0
M  V30 1309 H 124.892 -1.10968 -6.00432 0
M  V30 1310 H 126.306 -3.06349 -4.84586 0
M  V30 1311 H 124.703 -3.82333 -4.62538 0
M  V30 1312 H 125.773 -3.61966 -3.22658 0
M  V30 1313 N 127.117 1.15442 -1.07289 0
M  V30 1314 C 128.363 1.86489 -0.796846 0
M  V30 1315 C 128.696 1.82078 0.675371 0
M  V30 1316 O 127.971 1.24346 1.4956 0
M  V30 1317 C 128.254 3.35626 -1.30489 0
M  V30 1318 C 128.107 3.48673 -2.84161 0
M  V30 1319 C 129.426 4.30357 -0.920907 0
M  V30 1320 H 126.545 0.677144 -0.290939 0
M  V30 1321 H 129.187 1.35633 -1.33056 0
M  V30 1322 H 127.337 3.79068 -0.850883 0
M  V30 1323 H 129.009 3.14099 -3.37846 0
M  V30 1324 H 127.252 2.90253 -3.22391 0
M  V30 1325 H 127.923 4.53453 -3.14777 0
M  V30 1326 H 130.399 3.94871 -1.3121 0
M  V30 1327 H 129.275 5.33193 -1.30372 0
M  V30 1328 H 129.536 4.4176 0.173226 0
M  V30 1329 N 128.595 0.856903 1.32268 0
M  V30 1330 C 129.82 0.474569 2.01897 0
M  V30 1331 C 130.245 -0.921766 1.63967 0
M  V30 1332 O 129.603 -1.60589 0.84148 0
M  V30 1333 C 129.651 0.623799 3.55164 0
M  V30 1334 O 128.755 -0.342459 4.10976 0
M  V30 1335 H 128.096 0.190422 0.63611 0
M  V30 1336 H 130.626 1.15672 1.68764 0
M  V30 1337 H 130.636 0.512169 4.04773 0
M  V30 1338 H 129.311 1.64202 3.82113 0
M  V30 1339 H 127.888 -0.18688 3.72431 0
M  V30 1340 N 130.073 -1.45103 0.615059 0
M  V30 1341 C 131.319 -2.02483 0.113347 0
M  V30 1342 C 131.652 -1.48146 -1.25564 0
M  V30 1343 O 130.927 -0.659104 -1.82992 0
M  V30 1344 C 131.21 -3.60005 0.0825278 0
M  V30 1345 C 131.063 -4.2466 1.48271 0
M  V30 1346 C 132.382 -4.35972 -0.601401 0
M  V30 1347 H 129.501 -0.735764 0.0426632 0
M  V30 1348 H 132.143 -1.72868 0.788461 0
M  V30 1349 H 130.293 -3.85367 -0.492378 0
M  V30 1350 H 131.965 -4.10458 2.10527 0
M  V30 1351 H 130.208 -3.82772 2.04127 0
M  V30 1352 H 130.879 -5.336 1.41332 0
M  V30 1353 H 133.355 -4.15947 -0.112666 0
M  V30 1354 H 132.231 -5.45697 -0.592097 0
M  V30 1355 H 132.492 -4.09391 -1.66887 0
M  V30 1356 N 131.551 -0.354651 -1.53558 0
M  V30 1357 C 132.776 0.242153 -2.05981 0
M  V30 1358 C 133.201 1.42553 -1.2272 0
M  V30 1359 O 132.559 1.79656 -0.243604 0
M  V30 1360 C 132.607 0.624367 -3.55154 0
M  V30 1361 O 131.711 1.72301 -3.74681 0
M  V30 1362 H 131.052 0.0378432 -0.662921 0
M  V30 1363 H 133.582 -0.512087 -1.98088 0
M  V30 1364 H 133.592 0.898433 -3.97985 0
M  V30 1365 H 132.267 -0.240989 -4.15201 0
M  V30 1366 H 130.844 1.44535 -3.4375 0
M  V30 1367 N 133.029 1.57378 -0.0835403 0
M  V30 1368 C 133.977 2.14602 0.89714 0
M  V30 1369 C 134.971 1.08589 1.30018 0
M  V30 1370 O 136.177 1.26952 1.27606 0
M  V30 1371 H 132.552 0.686346 0.3073 0
M  V30 1372 H 134.523 2.95845 0.38969 0
M  V30 1373 C 133.272 2.73188 2.15089 0
M  V30 1374 H 132.595 3.54442 1.84962 0
M  V30 1375 H 134.035 3.1681 2.81793 0
M  V30 1376 C 132.494 1.68517 2.91725 0
M  V30 1377 O 133.024 1.11718 3.85852 0
M  V30 1378 N 131.23 1.39277 2.55049 0
M  V30 1379 H 130.777 1.85655 1.78577 0
M  V30 1380 H 130.735 0.694791 3.06627 0
M  V30 1381 N 134.507 -0.190092 1.56449 0
M  V30 1382 C 135.47 -1.21925 1.9408 0
M  V30 1383 C 136.47 -1.38176 0.822431 0
M  V30 1384 O 137.66 -1.35903 1.08977 0
M  V30 1385 C 134.792 -2.58773 2.21922 0
M  V30 1386 H 135.985 -0.897464 2.86157 0
M  V30 1387 H 133.538 -0.43181 1.50217 0
M  V30 1388 H 134.273 -2.95998 1.32499 0
M  V30 1389 H 134.058 -2.48348 3.03424 0
M  V30 1390 H 135.548 -3.32978 2.52022 0
M  V30 1391 N 135.985 -1.50799 -0.457987 0
M  V30 1392 C 136.915 -1.73553 -1.5621 0
M  V30 1393 C 137.896 -0.584774 -1.59732 0
M  V30 1394 O 139.081 -0.825314 -1.7579 0
M  V30 1395 C 136.211 -1.84169 -2.94447 0
M  V30 1396 C 135.165 -2.99461 -3.0579 0
M  V30 1397 C 134.491 -2.95235 -4.45803 0
M  V30 1398 C 135.791 -4.39766 -2.81786 0
M  V30 1399 H 137.485 -2.66 -1.37421 0
M  V30 1400 H 135.031 -1.28002 -0.659662 0
M  V30 1401 H 136.984 -1.98672 -3.71628 0
M  V30 1402 H 135.708 -0.883545 -3.14422 0
M  V30 1403 H 134.367 -2.8463 -2.31044 0
M  V30 1404 H 134.015 -1.97239 -4.62715 0
M  V30 1405 H 133.715 -3.72642 -4.54326 0
M  V30 1406 H 135.239 -3.11803 -5.24987 0
M  V30 1407 H 136.653 -4.55054 -3.4871 0
M  V30 1408 H 135.05 -5.18722 -3.0174 0
M  V30 1409 H 136.12 -4.51229 -1.7754 0
M  V30 1410 N 137.463 0.71206 -1.40597 0
M  V30 1411 C 138.373 1.8562 -1.43466 0
M  V30 1412 C 139.389 1.70902 -0.326902 0
M  V30 1413 O 140.565 1.93105 -0.572043 0
M  V30 1414 C 137.63 3.21451 -1.29884 0
M  V30 1415 C 136.691 3.48398 -2.50833 0
M  V30 1416 C 135.924 4.77749 -2.3789 0
M  V30 1417 O 136.147 5.53089 -1.39459 0
M  V30 1418 O 135.081 5.05111 -3.27333 0
M  V30 1419 H 138.907 1.86155 -2.39958 0
M  V30 1420 H 136.492 0.86295 -1.21957 0
M  V30 1421 H 138.374 4.02579 -1.24531 0
M  V30 1422 H 137.049 3.21636 -0.364997 0
M  V30 1423 H 135.956 2.67265 -2.61763 0
M  V30 1424 H 137.289 3.53014 -3.4299 0
M  V30 1425 N 138.941 1.26152 0.944643 0
M  V30 1426 C 140.169 1.14259 1.72489 0
M  V30 1427 C 140.584 -0.302555 1.8636 0
M  V30 1428 O 139.941 -1.20741 1.36849 0
M  V30 1429 C 139.992 1.80266 3.13347 0
M  V30 1430 O 139.713 3.19133 3.00143 0
M  V30 1431 C 141.214 1.74283 4.07603 0
M  V30 1432 H 138.434 0.398051 0.540181 0
M  V30 1433 H 140.978 1.66706 1.18446 0
M  V30 1434 H 139.133 1.31766 3.64303 0
M  V30 1435 H 139.547 3.51744 3.89071 0
M  V30 1436 H 141.021 2.25111 5.04013 0
M  V30 1437 H 141.498 0.708631 4.33446 0
M  V30 1438 H 142.104 2.22319 3.62567 0
M  V30 1439 N 140.419 -1.14872 1.07899 0
M  V30 1440 C 141.668 -1.85135 0.800499 0
M  V30 1441 C 141.981 -1.83547 -0.676014 0
M  V30 1442 O 143.187 -2.49548 -1.06948 0
M  V30 1443 C 141.643 -3.3231 1.38197 0
M  V30 1444 C 141.251 -3.42329 2.8899 0
M  V30 1445 C 142.995 -4.0772 1.18174 0
M  V30 1446 C 140.902 -4.83684 3.403 0
M  V30 1447 H 139.832 -0.693563 0.29578 0
M  V30 1448 H 142.483 -1.29532 1.29976 0
M  V30 1449 H 140.865 -3.87618 0.810431 0
M  V30 1450 H 142.039 -2.97097 3.52236 0
M  V30 1451 H 140.354 -2.80369 3.07867 0
M  V30 1452 H 142.951 -5.12049 1.5398 0
M  V30 1453 H 143.294 -4.16124 0.12117 0
M  V30 1454 H 143.827 -3.58696 1.71994 0
M  V30 1455 H 140.566 -4.80465 4.45907 0
M  V30 1456 H 140.086 -5.29474 2.81811 0
M  V30 1457 H 141.765 -5.52558 3.36584 0
M  V30 1458 N 141.898 -0.863906 -1.31812 0
M  V30 1459 C 142.831 -0.259963 -2.26714 0
M  V30 1460 C 143.809 0.607392 -1.50829 0
M  V30 1461 O 144.993 0.562155 -1.79922 0
M  V30 1462 C 142.12 0.632456 -3.32743 0
M  V30 1463 C 141.166 -0.162743 -4.26189 0
M  V30 1464 S 141.999 -1.53726 -5.12961 0
M  V30 1465 C 143.155 -0.650803 -6.22507 0
M  V30 1466 H 143.388 -1.06445 -2.77591 0
M  V30 1467 H 140.921 -0.662071 -1.39485 0
M  V30 1468 H 142.879 1.14167 -3.94305 0
M  V30 1469 H 141.54 1.41083 -2.80632 0
M  V30 1470 H 140.733 0.517366 -5.01338 0
M  V30 1471 H 140.335 -0.60385 -3.69093 0
M  V30 1472 H 142.627 0.141134 -6.77353 0
M  V30 1473 H 143.57 -1.37322 -6.94657 0
M  V30 1474 H 143.978 -0.221041 -5.64067 0
M  V30 1475 N 143.376 1.44774 -0.622745 0
M  V30 1476 C 144.625 2.01334 -0.121397 0
M  V30 1477 C 144.938 1.49505 1.26125 0
M  V30 1478 O 146.144 1.98139 1.85616 0
M  V30 1479 C 144.6 3.59516 -0.166298 0
M  V30 1480 C 144.208 4.20342 -1.54974 0
M  V30 1481 C 145.952 4.23582 0.279021 0
M  V30 1482 C 143.859 5.70721 -1.55021 0
M  V30 1483 H 142.789 0.752851 -0.0416172 0
M  V30 1484 H 145.44 1.66083 -0.780309 0
M  V30 1485 H 143.822 3.92027 0.559557 0
M  V30 1486 H 144.996 3.99381 -2.29851 0
M  V30 1487 H 143.311 3.68529 -1.93843 0
M  V30 1488 H 145.908 5.33868 0.298083 0
M  V30 1489 H 146.251 3.95327 1.30471 0
M  V30 1490 H 146.784 3.95843 -0.394063 0
M  V30 1491 H 143.523 6.03698 -2.55399 0
M  V30 1492 H 143.043 5.93829 -0.844245 0
M  V30 1493 H 144.722 6.34203 -1.28047 0
M  V30 1494 N 144.854 0.36279 1.53368 0
M  V30 1495 C 145.817 -0.472679 2.24273 0
M  V30 1496 C 146.817 -1.012 1.24961 0
M  V30 1497 O 148.007 -0.898194 1.49259 0
M  V30 1498 C 145.139 -1.66039 2.97731 0
M  V30 1499 H 146.332 0.14773 2.99536 0
M  V30 1500 H 143.885 0.114434 1.55881 0
M  V30 1501 H 144.62 -2.31896 2.26704 0
M  V30 1502 H 144.405 -1.28066 3.70596 0
M  V30 1503 H 145.895 -2.25252 3.51641 0
M  V30 1504 N 146.332 -1.57332 0.0918853 0
M  V30 1505 C 147.581 -1.93412 -0.572249 0
M  V30 1506 C 147.894 -0.975515 -1.69538 0
M  V30 1507 O 149.1 -1.22991 -2.42045 0
M  V30 1508 C 147.556 -3.43648 -1.0693 0
M  V30 1509 C 147.164 -4.47994 0.0239049 0
M  V30 1510 C 148.908 -3.88695 -1.70635 0
M  V30 1511 C 146.815 -5.89381 -0.488319 0
M  V30 1512 H 145.745 -0.721939 -0.217532 0
M  V30 1513 H 148.396 -1.82735 0.167369 0
M  V30 1514 H 146.778 -3.49466 -1.8625 0
M  V30 1515 H 147.952 -4.53815 0.799277 0
M  V30 1516 H 146.267 -4.12536 0.565946 0
M  V30 1517 H 148.864 -4.91725 -2.10025 0
M  V30 1518 H 149.207 -3.27166 -2.57426 0
M  V30 1519 H 149.74 -3.85564 -0.979023 0
M  V30 1520 H 146.479 -6.54602 0.342906 0
M  V30 1521 H 145.999 -5.87037 -1.23077 0
M  V30 1522 H 147.678 -6.39863 -0.958317 0
M  V30 1523 N 147.81 0.181792 -1.56548 0
M  V30 1524 C 149.056 0.901431 -1.81665 0
M  V30 1525 C 149.389 1.82347 -0.668075 0
M  V30 1526 O 148.664 1.91669 0.330615 0
M  V30 1527 C 148.947 1.70618 -3.17115 0
M  V30 1528 C 148.8 0.807964 -4.42484 0
M  V30 1529 C 150.119 2.67605 -3.49393 0
M  V30 1530 H 147.238 0.32627 -0.660846 0
M  V30 1531 H 149.88 0.168134 -1.89255 0
M  V30 1532 H 148.03 2.33133 -3.10775 0
M  V30 1533 H 149.702 0.19649 -4.60881 0
M  V30 1534 H 147.945 0.115411 -4.33646 0
M  V30 1535 H 148.616 1.40632 -5.33785 0
M  V30 1536 H 151.092 2.15218 -3.56118 0
M  V30 1537 H 149.968 3.20985 -4.45264 0
M  V30 1538 H 150.229 3.47298 -2.73563 0
M  V30 1539 N 149.288 1.51039 0.449983 0
M  V30 1540 C 150.238 1.67824 1.54335 0
M  V30 1541 C 151.222 0.5324 1.51836 0
M  V30 1542 O 152.414 0.787762 1.58503 0
M  V30 1543 C 149.543 1.7951 2.92628 0
M  V30 1544 C 148.629 2.99838 2.9993 0
M  V30 1545 N 149.02 4.23207 2.77001 0
M  V30 1546 C 147.318 2.98832 3.31082 0
M  V30 1547 C 148.019 5.04361 2.89818 0
M  V30 1548 N 146.995 4.38746 3.2094 0
M  V30 1549 H 150.797 2.60884 1.35339 0
M  V30 1550 H 148.311 1.48513 0.657085 0
M  V30 1551 H 150.308 1.89642 3.7127 0
M  V30 1552 H 148.968 0.876227 3.12654 0
M  V30 1553 H 149.979 4.5236 2.52172 0
M  V30 1554 H 146.656 2.16527 3.56963 0
M  V30 1555 H 148.046 6.12528 2.76151 0
M  V30 1556 N 150.766 -0.704594 1.40972 0
M  V30 1557 C 151.991 -1.49858 1.43378 0
M  V30 1558 C 152.416 -1.88061 0.038184 0
M  V30 1559 O 151.774 -1.5402 -0.956425 0
M  V30 1560 C 151.822 -2.74333 2.34038 0
M  V30 1561 O 150.926 -3.7147 1.7912 0
M  V30 1562 H 150.267 -0.45139 0.486974 0
M  V30 1563 H 152.797 -0.866832 1.8533 0
M  V30 1564 H 152.807 -3.22741 2.49604 0
M  V30 1565 H 151.482 -2.45863 3.35446 0
M  V30 1566 H 150.059 -3.30363 1.72958 0
M  V30 1567 N 152.244 -1.26651 -0.937939 0
M  V30 1568 C 153.521 -1.0313 -1.66204 0
M  V30 1569 C 153.901 0.437256 -2.06522 0
M  V30 1570 O 153.249 1.41831 -1.79154 0
M  V30 1571 C 153.459 -1.98314 -2.87181 0
M  V30 1572 C 154.807 -2.27107 -3.58758 0
M  V30 1573 O 155.831 -1.96205 -2.97291 0
M  V30 1574 O 154.69 -2.79736 -4.69479 0
M  V30 1575 H 151.784 -0.392384 -0.727986 0
M  V30 1576 H 154.33 -1.37874 -0.989382 0
M  V30 1577 H 153.102 -2.97399 -2.54302 0
M  V30 1578 H 152.725 -1.64068 -3.6217 0
M  V30 1579 N 153.722 1.14298 -1.08507 0
M  V30 1580 C 154.952 1.88945 -0.835663 0
M  V30 1581 C 155.36 1.78894 0.615928 0
M  V30 1582 O 154.703 1.1468 1.43506 0
M  V30 1583 C 154.765 3.39585 -1.17994 0
M  V30 1584 C 154.429 3.7342 -2.63451 0
M  V30 1585 C 155.426 3.73454 -3.61702 0
M  V30 1586 C 153.111 4.03368 -2.99332 0
M  V30 1587 C 155.105 4.02961 -4.93864 0
M  V30 1588 C 152.792 4.32538 -4.31687 0
M  V30 1589 C 153.79 4.32318 -5.28763 0
M  V30 1590 O 153.478 4.6078 -6.58739 0
M  V30 1591 H 153.21 0.605307 -0.300965 0
M  V30 1592 H 155.764 1.45673 -1.44806 0
M  V30 1593 H 153.994 3.83315 -0.51055 0
M  V30 1594 H 155.683 3.9554 -0.911182 0
M  V30 1595 H 156.449 3.50403 -3.35325 0
M  V30 1596 H 152.328 4.02692 -2.24411 0
M  V30 1597 H 155.872 4.02704 -5.69627 0
M  V30 1598 H 151.769 4.55059 -4.57812 0
M  V30 1599 H 152.537 4.78492 -6.64069 0
M  V30 1600 N 155.201 0.870884 1.31352 0
M  V30 1601 C 156.131 0.343096 2.30966 0
M  V30 1602 C 157.112 -0.566507 1.60389 0
M  V30 1603 O 158.297 -0.483336 1.88089 0
M  V30 1604 C 155.427 -0.455487 3.443 0
M  V30 1605 C 154.381 0.361103 4.26474 0
M  V30 1606 C 153.707 -0.563221 5.31725 0
M  V30 1607 C 155.007 1.59566 4.97329 0
M  V30 1608 H 156.701 1.17548 2.75359 0
M  V30 1609 H 154.247 0.566686 1.32381 0
M  V30 1610 H 156.2 -0.83525 4.13039 0
M  V30 1611 H 154.924 -1.32139 2.98675 0
M  V30 1612 H 153.583 0.722825 3.59403 0
M  V30 1613 H 153.231 -1.42643 4.82351 0
M  V30 1614 H 152.931 -0.0207409 5.87596 0
M  V30 1615 H 154.455 -0.939808 6.03324 0
M  V30 1616 H 155.869 1.28728 5.58661 0
M  V30 1617 H 154.266 2.07728 5.63 0
M  V30 1618 H 155.336 2.34798 4.24262 0
M  V30 1619 N 156.679 -1.44442 0.630414 0
M  V30 1620 C 157.907 -2.06414 0.141671 0
M  V30 1621 C 158.322 -1.47105 -1.18345 0
M  V30 1622 O 157.679 -0.593662 -1.72574 0
M  V30 1623 C 157.73 -3.61494 0.0199784 0
M  V30 1624 O 157.451 -4.18594 1.29269 0
M  V30 1625 C 158.952 -4.40499 -0.497544 0
M  V30 1626 H 156.172 -0.666292 0.0793452 0
M  V30 1627 H 158.716 -1.85323 0.864614 0
M  V30 1628 H 156.871 -3.8185 -0.653402 0
M  V30 1629 H 157.285 -5.12026 1.13707 0
M  V30 1630 H 158.759 -5.49433 -0.531708 0
M  V30 1631 H 159.236 -4.11895 -1.52445 0
M  V30 1632 H 159.842 -4.25061 0.142562 0
M  V30 1633 N 158.157 -0.370918 -1.53173 0
M  V30 1634 C 159.404 0.217102 -2.01333 0
M  V30 1635 C 159.732 1.48338 -1.25802 0
M  V30 1636 O 158.987 1.92698 -0.34146 0
M  V30 1637 C 159.286 0.549696 -3.53147 0
M  V30 1638 C 158.952 -0.622872 -4.46577 0
M  V30 1639 C 157.614 -0.944595 -4.71838 0
M  V30 1640 C 159.966 -1.40819 -5.01816 0
M  V30 1641 C 157.294 -2.05351 -5.49589 0
M  V30 1642 C 159.646 -2.50757 -5.80778 0
M  V30 1643 C 158.31 -2.83458 -6.04324 0
M  V30 1644 H 157.58 0.0794431 -0.736729 0
M  V30 1645 H 160.227 -0.504481 -1.84736 0
M  V30 1646 H 158.532 1.35237 -3.6772 0
M  V30 1647 H 160.229 1.017 -3.87889 0
M  V30 1648 H 156.819 -0.36209 -4.27068 0
M  V30 1649 H 161.003 -1.17289 -4.82242 0
M  V30 1650 H 156.259 -2.3108 -5.6605 0
M  V30 1651 H 160.433 -3.12022 -6.22588 0
M  V30 1652 H 158.06 -3.69508 -6.64355 0
M  V30 1653 N 159.635 1.57281 -0.100228 0
M  V30 1654 C 160.545 2.17833 0.870965 0
M  V30 1655 C 161.561 1.14921 1.30649 0
M  V30 1656 O 162.737 1.47313 1.37335 0
M  V30 1657 C 159.802 2.75085 2.1102 0
M  V30 1658 C 158.863 3.9297 1.72838 0
M  V30 1659 C 158.096 4.47482 2.90854 0
M  V30 1660 O 158.319 4.00922 4.05731 0
M  V30 1661 O 157.253 5.38433 2.69023 0
M  V30 1662 H 161.079 3.0124 0.38575 0
M  V30 1663 H 158.664 1.48881 0.124397 0
M  V30 1664 H 160.546 3.11656 2.83634 0
M  V30 1665 H 159.221 1.94721 2.58584 0
M  V30 1666 H 158.128 3.61201 0.973883 0
M  V30 1667 H 159.461 4.74713 1.30033 0
M  V30 1668 N 161.113 -0.173488 1.56642 0
M  V30 1669 C 162.39 -0.917617 1.7274 0
M  V30 1670 C 162.77 -2.00484 0.661027 0
M  V30 1671 O 162.118 -2.26184 -0.32453 0
M  V30 1672 C 162.328 -1.48433 3.15862 0
M  V30 1673 C 163.676 -1.95809 3.76754 0
M  V30 1674 O 164.7 -1.58231 3.19126 0
M  V30 1675 O 163.559 -2.65024 4.77938 0
M  V30 1676 H 160.653 -0.431772 0.705338 0
M  V30 1677 H 163.199 -0.161487 1.6893 0
M  V30 1678 H 161.971 -0.701715 3.84957 0
M  V30 1679 H 161.594 -2.30471 3.23989 0
M  V30 1680 N 162.591 -1.51276 -0.441967 0
M  V30 1681 C 163.523 -1.68444 -1.55433 0
M  V30 1682 C 164.536 -0.565187 -1.52674 0
M  V30 1683 O 165.725 -0.839356 -1.57534 0
M  V30 1684 C 162.825 -1.67966 -2.94348 0
M  V30 1685 C 161.998 -2.964 -3.21661 0
M  V30 1686 C 161.057 -2.88171 -4.40277 0
M  V30 1687 O 160.083 -3.62119 -4.39157 0
M  V30 1688 N 161.285 -2.03706 -5.43584 0
M  V30 1689 H 164.05 -2.644 -1.41112 0
M  V30 1690 H 161.611 -1.49104 -0.630838 0
M  V30 1691 H 163.603 -1.60035 -3.71713 0
M  V30 1692 H 162.173 -0.796225 -3.0229 0
M  V30 1693 H 161.393 -3.18234 -2.32638 0
M  V30 1694 H 162.681 -3.81427 -3.36736 0
M  V30 1695 H 162.079 -1.42995 -5.47329 0
M  V30 1696 H 160.636 -2.01658 -6.1982 0
M  V30 1697 N 164.069 0.697108 -1.41344 0
M  V30 1698 C 165.316 1.45714 -1.40619 0
M  V30 1699 C 165.644 1.94494 -0.0147907 0
M  V30 1700 O 164.899 1.69794 0.973066 0
M  V30 1701 C 165.198 2.68553 -2.35826 0
M  V30 1702 C 164.864 2.38438 -3.82698 0
M  V30 1703 C 163.526 2.29936 -4.22709 0
M  V30 1704 C 165.878 2.13567 -4.75435 0
M  V30 1705 C 163.206 1.94656 -5.53467 0
M  V30 1706 C 165.558 1.79797 -6.06511 0
M  V30 1707 C 164.222 1.69789 -6.45545 0
M  V30 1708 H 163.492 0.533206 -0.51456 0
M  V30 1709 H 166.139 0.796901 -1.74131 0
M  V30 1710 H 164.444 3.39503 -1.95563 0
M  V30 1711 H 166.141 3.2669 -2.32539 0
M  V30 1712 H 162.731 2.4595 -3.51008 0
M  V30 1713 H 166.915 2.19082 -4.45328 0
M  V30 1714 H 162.171 1.8546 -5.82593 0
M  V30 1715 H 166.345 1.59572 -6.77872 0
M  V30 1716 H 163.972 1.4222 -7.46778 0
M  V30 1717 N 165.547 1.27147 0.931209 0
M  V30 1718 C 166.796 1.12664 1.67302 0
M  V30 1719 C 167.109 -0.327718 1.92835 0
M  V30 1720 O 168.315 -0.593392 2.64936 0
M  V30 1721 C 166.771 1.9683 3.01307 0
M  V30 1722 C 166.379 3.46901 2.83485 0
M  V30 1723 C 168.123 1.90985 3.79111 0
M  V30 1724 C 166.03 4.23279 4.13024 0
M  V30 1725 H 164.96 0.41803 0.627509 0
M  V30 1726 H 167.611 1.51539 1.03481 0
M  V30 1727 H 165.993 1.50797 3.66164 0
M  V30 1728 H 167.167 4.00773 2.27415 0
M  V30 1729 H 165.482 3.54088 2.19113 0
M  V30 1730 H 168.079 2.45328 4.75098 0
M  V30 1731 H 168.422 0.882718 4.06834 0
M  V30 1732 H 168.955 2.34895 3.21044 0
M  V30 1733 H 165.694 5.26503 3.90481 0
M  V30 1734 H 165.214 3.74186 4.6877 0
M  V30 1735 H 166.893 4.32265 4.81411 0
M  V30 1736 N 167.025 -1.13721 1.09112 0
M  V30 1737 C 167.957 -2.1871 0.685467 0
M  V30 1738 C 168.97 -1.60527 -0.271068 0
M  V30 1739 O 170.159 -1.78407 -0.0576148 0
M  V30 1740 C 167.259 -3.38898 -0.0111255 0
M  V30 1741 C 166.432 -4.26597 0.966131 0
M  V30 1742 C 165.491 -5.25324 0.303539 0
M  V30 1743 O 164.517 -5.61213 0.950177 0
M  V30 1744 N 165.719 -5.72779 -0.943651 0
M  V30 1745 H 168.484 -2.54126 1.58871 0
M  V30 1746 H 166.045 -1.29012 0.978143 0
M  V30 1747 H 168.037 -4.02014 -0.465517 0
M  V30 1748 H 166.607 -3.01747 -0.816565 0
M  V30 1749 H 165.827 -3.60306 1.59917 0
M  V30 1750 H 167.115 -4.82048 1.6281 0
M  V30 1751 H 166.513 -5.45762 -1.48862 0
M  V30 1752 H 165.07 -6.37847 -1.34142 0
M  V30 1753 N 168.503 -0.877838 -1.30888 0
M  V30 1754 C 169.453 -0.310872 -2.25871 0
M  V30 1755 C 170.437 0.556596 -1.50966 0
M  V30 1756 O 171.629 0.402187 -1.7237 0
M  V30 1757 C 168.758 0.479821 -3.3993 0
M  V30 1758 C 167.844 -0.401333 -4.22197 0
M  V30 1759 N 168.235 -1.49848 -4.83093 0
M  V30 1760 C 166.533 -0.195167 -4.45573 0
M  V30 1761 C 167.234 -2.0425 -5.44662 0
M  V30 1762 N 166.21 -1.33843 -5.26865 0
M  V30 1763 H 170.012 -1.1493 -2.70496 0
M  V30 1764 H 167.526 -0.726458 -1.45246 0
M  V30 1765 H 169.523 0.902582 -4.07012 0
M  V30 1766 H 168.183 1.31577 -2.96846 0
M  V30 1767 H 169.194 -1.88137 -4.82519 0
M  V30 1768 H 165.871 0.604192 -4.13105 0
M  V30 1769 H 167.261 -2.96345 -6.03017 0
M  V30 1770 N 169.982 1.44106 -0.638065 0
M  V30 1771 C 170.915 2.27924 0.112161 0
M  V30 1772 C 171.893 1.38945 0.844574 0
M  V30 1773 O 173.077 1.68386 0.847248 0
M  V30 1774 C 170.204 3.18029 1.16512 0
M  V30 1775 C 169.25 4.23163 0.532458 0
M  V30 1776 S 170.083 5.31131 -0.682666 0
M  V30 1777 C 171.239 6.24805 0.37013 0
M  V30 1778 H 171.472 2.91205 -0.598887 0
M  V30 1779 H 169.005 1.48394 -0.426441 0
M  V30 1780 H 170.963 3.70492 1.76766 0
M  V30 1781 H 169.624 2.53955 1.8484 0
M  V30 1782 H 168.817 4.86252 1.32571 0
M  V30 1783 H 168.419 3.74 0.00437644 0
M  V30 1784 H 170.711 6.66042 1.24071 0
M  V30 1785 H 171.654 7.07741 -0.225349 0
M  V30 1786 H 172.062 5.60154 0.699141 0
M  V30 1787 N 171.46 0.379036 1.52974 0
M  V30 1788 C 172.737 -0.263479 1.93817 0
M  V30 1789 C 173.117 -1.65244 1.31368 0
M  V30 1790 O 172.465 -2.23448 0.477856 0
M  V30 1791 C 172.675 -0.300166 3.47707 0
M  V30 1792 C 174.023 -0.534061 4.21228 0
M  V30 1793 O 175.047 -0.38081 3.54159 0
M  V30 1794 O 173.906 -0.833501 5.40106 0
M  V30 1795 H 171 -0.161149 0.811147 0
M  V30 1796 H 173.546 0.432798 1.64088 0
M  V30 1797 H 172.318 0.673138 3.85467 0
M  V30 1798 H 171.941 -1.04179 3.83709 0
M  V30 1799 N 172.938 -1.57226 0.108567 0
M  V30 1800 C 173.886 -2.16002 -0.862885 0
M  V30 1801 C 174.88 -1.10644 -1.28274 0
M  V30 1802 O 176.086 -1.28966 -1.2557 0
M  V30 1803 H 172.461 -0.691148 -0.296342 0
M  V30 1804 H 174.432 -2.96427 -0.342575 0
M  V30 1805 C 173.181 -2.76576 -2.10716 0
M  V30 1806 H 172.504 -3.5734 -1.793 0
M  V30 1807 H 173.944 -3.21253 -2.76717 0
M  V30 1808 C 172.403 -1.73137 -2.89007 0
M  V30 1809 O 172.933 -1.17842 -3.84026 0
M  V30 1810 N 171.139 -1.43317 -2.52801 0
M  V30 1811 H 170.686 -1.88473 -1.75601 0
M  V30 1812 H 170.644 -0.743485 -3.05483 0
M  V30 1813 N 174.416 0.165178 -1.56732 0
M  V30 1814 C 175.665 0.879143 -1.81532 0
M  V30 1815 C 175.978 1.83144 -0.686842 0
M  V30 1816 O 177.184 2.58823 -0.819944 0
M  V30 1817 C 175.64 1.61388 -3.21686 0
M  V30 1818 C 175.248 0.704904 -4.4242 0
M  V30 1819 C 176.992 2.3157 -3.55774 0
M  V30 1820 C 174.899 1.44022 -5.73595 0
M  V30 1821 H 173.829 0.332033 -0.676957 0
M  V30 1822 H 176.48 0.132008 -1.83025 0
M  V30 1823 H 174.862 2.40599 -3.14529 0
M  V30 1824 H 176.036 -0.0506815 -4.60772 0
M  V30 1825 H 174.351 0.112419 -4.16248 0
M  V30 1826 H 176.948 2.8719 -4.51028 0
M  V30 1827 H 177.291 3.07201 -2.8095 0
M  V30 1828 H 177.824 1.59297 -3.64513 0
M  V30 1829 H 174.563 0.72612 -6.51466 0
M  V30 1830 H 174.083 2.16898 -5.5921 0
M  V30 1831 H 175.762 1.98606 -6.15764 0
M  V30 1832 N 175.894 1.51508 0.433938 0
M  V30 1833 C 177.141 1.64345 1.18309 0
M  V30 1834 C 177.469 0.361315 1.91115 0
M  V30 1835 O 176.724 -0.654753 1.84422 0
M  V30 1836 C 177.023 2.79928 2.22205 0
M  V30 1837 C 176.689 4.19078 1.66387 0
M  V30 1838 C 175.351 4.56932 1.50887 0
M  V30 1839 C 177.703 5.05894 1.25381 0
M  V30 1840 C 175.031 5.79305 0.928608 0
M  V30 1841 C 177.383 6.2885 0.687823 0
M  V30 1842 C 176.047 6.65473 0.519755 0
M  V30 1843 H 175.317 0.601381 0.432923 0
M  V30 1844 H 177.964 1.85549 0.473676 0
M  V30 1845 H 176.269 2.52959 2.99197 0
M  V30 1846 H 177.966 2.87059 2.79997 0
M  V30 1847 H 174.556 3.89234 1.79428 0
M  V30 1848 H 178.74 4.77253 1.36175 0
M  V30 1849 H 173.996 6.06324 0.786186 0
M  V30 1850 H 178.17 6.95461 0.361581 0
M  V30 1851 H 175.797 7.6017 0.0679979 0
M  V30 1852 N 177.372 -0.689602 1.41712 0
M  V30 1853 C 178.649 -1.44457 1.31877 0
M  V30 1854 C 179.029 -2.11039 -0.0508537 0
M  V30 1855 O 178.377 -2.02138 -1.06547 0
M  V30 1856 C 178.587 -2.45913 2.47645 0
M  V30 1857 C 179.935 -3.10991 2.89084 0
M  V30 1858 O 180.959 -2.56238 2.47428 0
M  V30 1859 O 179.818 -4.10174 3.61137 0
M  V30 1860 H 176.912 -0.64362 0.519309 0
M  V30 1861 H 179.458 -0.719576 1.53689 0
M  V30 1862 H 178.23 -1.95409 3.39015 0
M  V30 1863 H 177.853 -3.25913 2.27742 0
M  V30 1864 N 178.85 -1.27639 -0.924453 0
M  V30 1865 C 180.075 -1.17101 -1.71179 0
M  V30 1866 C 180.5 0.268134 -1.86179 0
M  V30 1867 O 179.858 1.19415 -1.36418 0
M  V30 1868 C 179.906 -1.86313 -3.08739 0
M  V30 1869 O 179.01 -1.16331 -3.95652 0
M  V30 1870 H 178.351 -0.407091 -0.524569 0
M  V30 1871 H 180.881 -1.68767 -1.15666 0
M  V30 1872 H 180.891 -1.938 -3.59034 0
M  V30 1873 H 179.566 -2.91001 -2.97138 0
M  V30 1874 H 178.143 -1.16935 -3.54091 0
M  V30 1875 N 180.328 1.1314 -1.09713 0
M  V30 1876 C 181.261 2.17735 -0.683137 0
M  V30 1877 C 182.239 1.59582 0.311841 0
M  V30 1878 O 183.423 1.87298 0.212514 0
M  V30 1879 C 180.55 3.38699 -0.00684324 0
M  V30 1880 C 179.596 4.1546 -0.964102 0
M  V30 1881 S 180.429 4.74733 -2.47767 0
M  V30 1882 C 181.585 5.9904 -1.81387 0
M  V30 1883 H 181.818 2.52515 -1.56918 0
M  V30 1884 H 179.351 1.24484 -0.913404 0
M  V30 1885 H 181.309 4.08765 0.377044 0
M  V30 1886 H 179.97 3.02214 0.85589 0
M  V30 1887 H 179.163 5.02093 -0.43803 0
M  V30 1888 H 178.765 3.51066 -1.28953 0
M  V30 1889 H 181.057 6.67846 -1.13967 0
M  V30 1890 H 182 6.56261 -2.65947 0
M  V30 1891 H 182.408 5.4976 -1.28155 0
M  V30 1892 N 181.806 0.884767 1.30421 0
M  V30 1893 C 183.055 0.499164 1.95426 0
M  V30 1894 C 183.368 -0.95645 1.70621 0
M  V30 1895 O 184.574 -1.44889 2.29607 0
M  V30 1896 C 183.03 0.84177 3.49917 0
M  V30 1897 C 182.638 2.31514 3.83543 0
M  V30 1898 C 184.382 0.525355 4.21237 0
M  V30 1899 C 182.289 2.59939 5.31212 0
M  V30 1900 H 181.219 0.182944 0.73147 0
M  V30 1901 H 183.87 1.07971 1.48373 0
M  V30 1902 H 182.252 0.190311 3.95542 0
M  V30 1903 H 183.426 3.0109 3.48829 0
M  V30 1904 H 181.741 2.59907 3.25326 0
M  V30 1905 H 184.338 0.714762 5.29901 0
M  V30 1906 H 184.681 -0.535222 4.12845 0
M  V30 1907 H 185.214 1.134 3.81294 0
M  V30 1908 H 181.953 3.64736 5.44654 0
M  V30 1909 H 181.473 1.94972 5.67227 0
M  V30 1910 H 183.152 2.45429 5.98643 0
M  V30 1911 N 183.284 -1.43765 0.645699 0
M  V30 1912 C 184.524 -2.03776 0.159542 0
M  V30 1913 C 184.888 -1.49792 -1.2011 0
M  V30 1914 O 186.089 -2.01398 -1.78023 0
M  V30 1915 C 184.36 -3.57036 0.161251 0
M  V30 1916 S 185.919 -4.3804 -0.258159 0
M  V30 1917 H 182.737 -0.707717 0.0682454 0
M  V30 1918 H 185.339 -1.75941 0.852352 0
M  V30 1919 H 184.043 -3.9383 1.15439 0
M  V30 1920 H 183.574 -3.89503 -0.552339 0
M  V30 1921 H 185.589 -4.7302 -1.49889 0
M  V30 1922 N 184.763 -0.387143 -1.52771 0
M  V30 1923 C 186.012 0.19697 -2.00736 0
M  V30 1924 C 186.325 1.48082 -1.27793 0
M  V30 1925 O 187.531 2.14485 -1.66458 0
M  V30 1926 C 185.987 0.401568 -3.57653 0
M  V30 1927 C 185.595 -0.868907 -4.39493 0
M  V30 1928 C 187.339 0.942164 -4.13912 0
M  V30 1929 C 185.246 -0.632705 -5.88006 0
M  V30 1930 H 184.176 0.0773827 -0.750019 0
M  V30 1931 H 186.827 -0.50921 -1.76293 0
M  V30 1932 H 185.209 1.16954 -3.78335 0
M  V30 1933 H 186.383 -1.64133 -4.30577 0
M  V30 1934 H 184.698 -1.33429 -3.94443 0
M  V30 1935 H 187.295 1.13455 -5.22525 0
M  V30 1936 H 187.638 1.9106 -3.69867 0
M  V30 1937 H 188.171 0.233814 -3.97112 0
M  V30 1938 H 184.91 -1.57208 -6.36369 0
M  V30 1939 H 184.43 0.100825 -5.99715 0
M  V30 1940 H 186.109 -0.26642 -6.46451 0
M  V30 1941 N 186.241 1.57166 -0.116904 0
M  V30 1942 C 187.466 1.999 0.55271 0
M  V30 1943 C 187.891 0.996039 1.59564 0
M  V30 1944 O 187.249 -0.032556 1.81271 0
M  V30 1945 C 187.297 3.4152 1.15742 0
M  V30 1946 O 186.401 3.44106 2.27299 0
M  V30 1947 H 185.742 0.649447 0.138258 0
M  V30 1948 H 188.272 2.03573 -0.204759 0
M  V30 1949 H 188.282 3.79684 1.49346 0
M  V30 1950 H 186.957 4.14034 0.393493 0
M  V30 1951 H 185.534 3.17759 1.9515 0
M  V30 1952 N 187.719 -0.156864 1.56817 0
M  V30 1953 C 188.649 -1.19589 2.00551 0
M  V30 1954 C 189.63 -1.4536 0.883426 0
M  V30 1955 O 190.815 -1.56449 1.15054 0
M  V30 1956 C 187.945 -2.53143 2.37773 0
M  V30 1957 C 186.899 -2.41913 3.53075 0
M  V30 1958 C 186.225 -3.80088 3.76081 0
M  V30 1959 C 187.525 -1.91157 4.86062 0
M  V30 1960 H 189.219 -0.832293 2.87599 0
M  V30 1961 H 186.765 -0.398918 1.38364 0
M  V30 1962 H 188.718 -3.26047 2.66967 0
M  V30 1963 H 187.442 -2.91319 1.4765 0
M  V30 1964 H 186.101 -1.71462 3.24031 0
M  V30 1965 H 185.749 -4.15683 2.83225 0
M  V30 1966 H 185.449 -3.73439 4.53671 0
M  V30 1967 H 186.973 -4.54556 4.0769 0
M  V30 1968 H 188.387 -2.53846 5.14038 0
M  V30 1969 H 186.784 -1.95422 5.67389 0
M  V30 1970 H 187.854 -0.866673 4.77092 0
M  V30 1971 N 189.197 -1.51736 -0.425897 0
M  V30 1972 C 190.443 -1.65214 -1.1761 0
M  V30 1973 C 190.776 -0.372778 -1.90589 0
M  V30 1974 O 190.051 0.628139 -1.84078 0
M  V30 1975 C 190.334 -2.86312 -2.18398 0
M  V30 1976 C 190.187 -4.24254 -1.49426 0
M  V30 1977 C 191.506 -3.02925 -3.19256 0
M  V30 1978 H 188.625 -0.601263 -0.426206 0
M  V30 1979 H 191.267 -1.8425 -0.463882 0
M  V30 1980 H 189.417 -2.70213 -2.79137 0
M  V30 1981 H 191.089 -4.52046 -0.919362 0
M  V30 1982 H 189.332 -4.26426 -0.796432 0
M  V30 1983 H 190.003 -5.05001 -2.22885 0
M  V30 1984 H 192.479 -3.1781 -2.68581 0
M  V30 1985 H 191.355 -3.89199 -3.8706 0
M  V30 1986 H 191.616 -2.15497 -3.86023 0
M  V30 1987 N 190.675 0.682077 -1.42076 0
M  V30 1988 C 191.638 1.77756 -1.44691 0
M  V30 1989 C 192.638 1.5726 -0.335535 0
M  V30 1990 O 193.828 1.63686 -0.596037 0
M  V30 1991 C 190.96 3.16301 -1.27146 0
M  V30 1992 H 192.153 1.76826 -2.42224 0
M  V30 1993 H 189.706 0.891012 -1.28416 0
M  V30 1994 H 190.441 3.22862 -0.305075 0
M  V30 1995 H 190.226 3.32581 -2.07683 0
M  V30 1996 H 191.716 3.96241 -1.31843 0
M  V30 1997 N 192.153 1.28127 0.917671 0
M  V30 1998 C 193.378 1.18007 1.70555 0
M  V30 1999 C 193.803 -0.258257 1.86319 0
M  V30 2000 O 193.161 -1.1869 1.37049 0
M  V30 2001 C 193.209 1.87948 3.07746 0
M  V30 2002 O 192.313 1.18427 3.9503 0
M  V30 2003 H 191.654 0.409867 0.522403 0
M  V30 2004 H 194.184 1.69379 1.1477 0
M  V30 2005 H 194.194 1.95701 3.58001 0
M  V30 2006 H 192.869 2.92573 2.95591 0
M  V30 2007 H 191.446 1.18811 3.53466 0
M  V30 2008 N 193.631 -1.12557 1.10312 0
M  V30 2009 C 194.88 -1.83395 0.839588 0
M  V30 2010 C 195.193 -1.84939 -0.636929 0
M  V30 2011 O 196.399 -2.51761 -1.01631 0
M  V30 2012 C 194.855 -3.29303 1.45215 0
M  V30 2013 C 194.463 -3.36122 2.96186 0
M  V30 2014 C 196.207 -4.05121 1.26796 0
M  V30 2015 C 194.114 -4.76357 3.50483 0
M  V30 2016 H 193.044 -0.687133 0.310425 0
M  V30 2017 H 195.695 -1.26746 1.32694 0
M  V30 2018 H 194.077 -3.85812 0.892469 0
M  V30 2019 H 195.251 -2.89559 3.58458 0
M  V30 2020 H 193.566 -2.73776 3.13745 0
M  V30 2021 H 196.163 -5.08668 1.64806 0
M  V30 2022 H 196.506 -4.15773 0.209409 0
M  V30 2023 H 197.039 -3.54967 1.79563 0
M  V30 2024 H 193.778 -4.70899 4.55998 0
M  V30 2025 H 193.298 -5.23377 2.92978 0
M  V30 2026 H 194.977 -5.45294 3.48228 0
M  V30 2027 N 195.109 -0.891671 -1.2995 0
M  V30 2028 C 196.349 -0.520296 -1.97667 0
M  V30 2029 C 196.713 0.914797 -1.68806 0
M  V30 2030 O 197.914 1.39263 -2.29911 0
M  V30 2031 C 196.185 -0.795222 -3.48441 0
M  V30 2032 S 197.744 -0.526953 -4.35624 0
M  V30 2033 H 194.562 -0.19333 -0.684211 0
M  V30 2034 H 197.164 -1.15238 -1.57926 0
M  V30 2035 H 195.868 -1.83805 -3.66938 0
M  V30 2036 H 195.399 -0.15095 -3.9311 0
M  V30 2037 H 197.414 0.631533 -4.92165 0
M  V30 2038 N 196.587 1.43421 -0.653314 0
M  V30 2039 C 197.535 2.32546 0.0501531 0
M  V30 2040 C 198.529 1.48617 0.812985 0
M  V30 2041 O 199.735 1.64825 0.723375 0
M  V30 2042 H 196.11 0.751185 0.0350032 0
M  V30 2043 H 198.081 2.89602 -0.719261 0
M  V30 2044 C 196.83 3.32925 1.00279 0
M  V30 2045 H 196.153 3.97532 0.425236 0
M  V30 2046 H 197.593 3.9792 1.46409 0
M  V30 2047 C 196.052 2.63532 2.09886 0
M  V30 2048 O 196.582 2.45092 3.18265 0
M  V30 2049 N 194.788 2.22905 1.86445 0
M  V30 2050 H 194.335 2.38103 0.98309 0
M  V30 2051 H 194.293 1.76805 2.59976 0
M  V30 2052 N 198.065 0.39524 1.52563 0
M  V30 2053 C 198.995 -0.428384 2.29537 0
M  V30 2054 C 199.976 -1.05831 1.33169 0
M  V30 2055 O 201.161 -1.06995 1.62067 0
M  V30 2056 C 198.291 -1.55274 3.10656 0
M  V30 2057 C 197.245 -1.04855 4.14957 0
M  V30 2058 C 196.571 -2.26543 4.84337 0
M  V30 2059 C 197.871 -0.112324 5.22179 0
M  V30 2060 H 199.565 0.213867 2.98635 0
M  V30 2061 H 197.111 0.104298 1.43622 0
M  V30 2062 H 199.064 -2.1358 3.63265 0
M  V30 2063 H 197.788 -2.22266 2.39302 0
M  V30 2064 H 196.447 -0.487985 3.63338 0
M  V30 2065 H 196.095 -2.92059 4.09525 0
M  V30 2066 H 195.795 -1.93466 5.54837 0
M  V30 2067 H 197.319 -2.85481 5.39753 0
M  V30 2068 H 198.733 -0.603752 5.70112 0
M  V30 2069 H 197.13 0.128968 5.99961 0
M  V30 2070 H 198.2 0.837052 4.77621 0
M  V30 2071 N 199.544 -1.57102 0.125237 0
M  V30 2072 C 200.474 -2.18659 -0.819174 0
M  V30 2073 C 201.455 -1.12843 -1.27281 0
M  V30 2074 O 202.64 -1.41104 -1.33429 0
M  V30 2075 C 199.77 -2.79096 -2.06695 0
M  V30 2076 C 198.724 -3.90548 -1.75088 0
M  V30 2077 C 198.05 -4.37821 -3.06948 0
M  V30 2078 C 199.35 -5.12356 -1.01435 0
M  V30 2079 H 201.044 -2.9783 -0.306202 0
M  V30 2080 H 198.59 -1.4326 -0.145839 0
M  V30 2081 H 200.543 -3.2082 -2.73226 0
M  V30 2082 H 199.267 -1.97223 -2.60328 0
M  V30 2083 H 197.926 -3.49409 -1.10944 0
M  V30 2084 H 197.574 -3.52799 -3.58527 0
M  V30 2085 H 197.274 -5.12982 -2.86571 0
M  V30 2086 H 198.798 -4.822 -3.74587 0
M  V30 2087 H 200.212 -5.5106 -1.58132 0
M  V30 2088 H 198.609 -5.9314 -0.911319 0
M  V30 2089 H 199.679 -4.849 -0.00218681 0
M  V30 2090 N 201.022 0.148545 -1.56898 0
M  V30 2091 C 201.985 1.16736 -1.97244 0
M  V30 2092 C 202.985 1.35947 -0.858777 0
M  V30 2093 O 204.175 1.32966 -1.12542 0
M  V30 2094 C 201.307 2.52798 -2.28705 0
M  V30 2095 H 202.5 0.821279 -2.88435 0
M  V30 2096 H 200.053 0.391831 -1.51309 0
M  V30 2097 H 200.788 2.92381 -1.403 0
M  V30 2098 H 200.573 2.40216 -3.09901 0
M  V30 2099 H 202.063 3.26179 -2.60762 0
M  V30 2100 N 202.5 1.5196 0.417844 0
M  V30 2101 C 203.749 1.6482 1.16264 0
M  V30 2102 C 204.062 0.379886 1.91876 0
M  V30 2103 O 205.268 0.388154 2.68711 0
M  V30 2104 C 203.724 2.91161 2.1155 0
M  V30 2105 C 203.332 4.25068 1.41495 0
M  V30 2106 C 205.076 3.13383 2.86341 0
M  V30 2107 C 202.983 5.42541 2.35379 0
M  V30 2108 H 201.913 0.613954 0.437694 0
M  V30 2109 H 204.564 1.78442 0.427871 0
M  V30 2110 H 202.946 2.71218 2.88543 0
M  V30 2111 H 204.12 4.55463 0.699263 0
M  V30 2112 H 202.435 4.0888 0.787792 0
M  V30 2113 H 205.032 3.98324 3.5671 0
M  V30 2114 H 205.375 2.27256 3.48798 0
M  V30 2115 H 205.908 3.33757 2.1645 0
M  V30 2116 H 202.647 6.30987 1.77582 0
M  V30 2117 H 202.167 5.16497 3.04945 0
M  V30 2118 H 203.846 5.75272 2.96093 0
M  V30 2119 N 203.978 -0.674533 1.42435 0
M  V30 2120 C 204.941 -1.76986 1.45632 0
M  V30 2121 C 205.941 -1.5708 0.343871 0
M  V30 2122 O 207.131 -1.63367 0.604709 0
M  V30 2123 C 204.263 -3.15623 1.28822 0
M  V30 2124 H 205.456 -1.75539 2.43158 0
M  V30 2125 H 203.009 -0.884189 1.28887 0
M  V30 2126 H 203.744 -3.22696 0.322193 0
M  V30 2127 H 203.529 -3.31475 2.09444 0
M  V30 2128 H 205.019 -3.95537 1.33942 0
M  V30 2129 N 205.456 -1.28612 -0.910864 0
M  V30 2130 C 206.702 -1.16106 -1.66274 0
M  V30 2131 C 207.035 0.289113 -1.92036 0
M  V30 2132 O 206.31 1.21 -1.52281 0
M  V30 2133 C 206.593 -1.96309 -3.01885 0
M  V30 2134 C 206.446 -3.49405 -2.8326 0
M  V30 2135 C 207.765 -1.78076 -4.02463 0
M  V30 2136 H 204.884 -0.423152 -0.603417 0
M  V30 2137 H 207.526 -1.57961 -1.05586 0
M  V30 2138 H 205.676 -1.60742 -3.53687 0
M  V30 2139 H 207.348 -3.94894 -2.38446 0
M  V30 2140 H 205.591 -3.74893 -2.18261 0
M  V30 2141 H 206.262 -4.00784 -3.79574 0
M  V30 2142 H 208.738 -2.0912 -3.59733 0
M  V30 2143 H 207.614 -2.36561 -4.95308 0
M  V30 2144 H 207.875 -0.733008 -4.35981 0
M  V30 2145 N 206.934 1.1197 -1.10907 0
M  V30 2146 C 208.211 1.79959 -0.766432 0
M  V30 2147 C 208.591 1.97466 0.746363 0
M  V30 2148 O 207.939 1.55491 1.67436 0
M  V30 2149 C 208.149 3.14009 -1.52314 0
M  V30 2150 C 209.497 3.89134 -1.69883 0
M  V30 2151 O 210.521 3.2368 -1.48692 0
M  V30 2152 O 209.38 5.06572 -2.05054 0
M  V30 2153 H 206.474 0.779208 -0.277062 0
M  V30 2154 H 209.02 1.18762 -1.21217 0
M  V30 2155 H 207.792 2.96587 -2.55249 0
M  V30 2156 H 207.415 3.82915 -1.07059 0
M  V30 2157 N 208.412 0.89855 1.29475 0
M  V30 2158 C 209.828 0.594483 1.48115 0
M  V30 2159 C 210.028 -0.86431 1.82022 0
M  V30 2160 O 209.084 -1.64457 1.91599 0
M  V30 2161 C 210.397 1.51932 2.59494 0
M  V30 2162 C 211.945 1.5244 2.7337 0
M  V30 2163 C 212.42 2.43548 3.87877 0
M  V30 2164 N 213.911 2.41589 3.95208 0
M  V30 2165 C 214.646 3.08789 4.83153 0
M  V30 2166 N 214.142 3.85265 5.75798 0
M  V30 2167 N 215.935 2.97952 4.76635 0
M  V30 2168 H 208.086 1.84207 1.05742 0
M  V30 2169 H 210.349 0.789251 0.525154 0
M  V30 2170 H 210.055 2.55865 2.41301 0
M  V30 2171 H 209.929 1.23899 3.56271 0
M  V30 2172 H 212.316 0.492518 2.90961 0
M  V30 2173 H 212.397 1.8451 1.77172 0
M  V30 2174 H 212.041 3.46829 3.71041 0
M  V30 2175 H 211.971 2.08788 4.83441 0
M  V30 2176 H 214.462 1.86025 3.28943 0
M  V30 2177 H 214.775 4.33598 6.39697 0
M  V30 2178 H 213.12 3.89371 5.75687 0
M  V30 2179 H 216.311 2.37723 4.03244 0
M  V30 2180 H 216.484 3.50599 5.44962 0
M  V30 2181 N 209.89 -1.43072 0.660911 0
M  V30 2182 C 211.12 -2.05769 0.185153 0
M  V30 2183 C 211.528 -1.49668 -1.15742 0
M  V30 2184 O 210.871 -0.625649 -1.72717 0
M  V30 2185 C 210.933 -3.59489 0.0278237 0
M  V30 2186 C 210.597 -4.38212 1.2969 0
M  V30 2187 C 211.594 -4.69772 2.22734 0
M  V30 2188 C 209.279 -4.7809 1.54063 0
M  V30 2189 C 211.273 -5.40129 3.38437 0
M  V30 2190 C 208.96 -5.4819 2.70058 0
M  V30 2191 C 209.958 -5.79132 3.62071 0
M  V30 2192 O 209.646 -6.47798 4.76039 0
M  V30 2193 H 209.378 -0.669873 0.0908086 0
M  V30 2194 H 211.932 -1.84436 0.90402 0
M  V30 2195 H 210.162 -3.79426 -0.746489 0
M  V30 2196 H 211.851 -4.03862 -0.406275 0
M  V30 2197 H 212.617 -4.39476 2.05149 0
M  V30 2198 H 208.496 -4.53408 0.833215 0
M  V30 2199 H 212.04 -5.64198 4.10277 0
M  V30 2200 H 207.937 -5.77902 2.87574 0
M  V30 2201 H 208.705 -6.66283 4.75404 0
M  V30 2202 N 211.368 -0.403325 -1.52352 0
M  V30 2203 C 212.614 0.174605 -2.02047 0
M  V30 2204 C 212.947 1.45282 -1.28867 0
M  V30 2205 O 212.222 1.90483 -0.393257 0
M  V30 2206 C 212.505 0.428238 -3.57545 0
M  V30 2207 C 212.358 -0.866248 -4.4138 0
M  V30 2208 C 213.677 1.21287 -4.23057 0
M  V30 2209 H 210.796 0.0619851 -0.734389 0
M  V30 2210 H 213.438 -0.53565 -1.82293 0
M  V30 2211 H 211.588 1.03327 -3.74507 0
M  V30 2212 H 213.26 -1.50265 -4.3614 0
M  V30 2213 H 211.503 -1.47851 -4.07827 0
M  V30 2214 H 212.174 -0.643249 -5.48239 0
M  V30 2215 H 214.65 0.700703 -4.10158 0
M  V30 2216 H 213.526 1.35909 -5.31808 0
M  V30 2217 H 213.787 2.23193 -3.81625 0
M  V30 2218 N 212.846 1.57033 -0.133567 0
M  V30 2219 C 214.074 2.00044 0.528195 0
M  V30 2220 C 214.489 1.01349 1.59291 0
M  V30 2221 O 213.846 0.00848369 1.82498 0
M  V30 2222 C 213.897 3.43018 1.1411 0
M  V30 2223 O 213.618 4.37939 0.11892 0
M  V30 2224 C 215.119 4.01237 1.88477 0
M  V30 2225 H 212.339 0.656517 0.138661 0
M  V30 2226 H 214.883 2.03267 -0.224196 0
M  V30 2227 H 213.038 3.40688 1.84418 0
M  V30 2228 H 213.452 5.21436 0.56613 0
M  V30 2229 H 214.926 5.03314 2.26669 0
M  V30 2230 H 215.403 3.41193 2.76558 0
M  V30 2231 H 216.009 4.07156 1.22898 0
M  V30 2232 N 214.325 -0.140222 1.56975 0
M  V30 2233 C 215.574 -0.850152 1.82908 0
M  V30 2234 C 215.887 -1.82028 0.715892 0
M  V30 2235 O 217.093 -2.57485 0.861016 0
M  V30 2236 C 215.549 -1.5625 3.24213 0
M  V30 2237 C 215.157 -0.63443 4.43485 0
M  V30 2238 C 216.901 -2.25881 3.59413 0
M  V30 2239 C 214.808 -1.34879 5.75814 0
M  V30 2240 H 213.738 -0.321221 0.682153 0
M  V30 2241 H 216.389 -0.102874 1.83211 0
M  V30 2242 H 214.771 -2.35565 3.18316 0
M  V30 2243 H 215.945 0.12398 4.60633 0
M  V30 2244 H 214.26 -0.0461836 4.16374 0
M  V30 2245 H 216.857 -2.79978 4.5554 0
M  V30 2246 H 217.2 -3.02693 2.85802 0
M  V30 2247 H 217.733 -1.53477 3.67001 0
M  V30 2248 H 214.472 -0.622385 6.52539 0
M  V30 2249 H 213.992 -2.07974 5.6259 0
M  V30 2250 H 215.671 -1.88784 6.18845 0
M  V30 2251 N 215.803 -1.52179 -0.40978 0
M  V30 2252 C 217.05 -1.66206 -1.15679 0
M  V30 2253 C 217.378 -0.391674 -1.90516 0
M  V30 2254 O 216.633 0.62533 -1.8544 0
M  V30 2255 C 216.932 -2.83428 -2.17723 0
M  V30 2256 C 216.598 -4.21672 -1.59699 0
M  V30 2257 C 215.26 -4.59274 -1.43599 0
M  V30 2258 C 217.612 -5.07825 -1.17317 0
M  V30 2259 C 214.94 -5.80709 -0.836328 0
M  V30 2260 C 217.292 -6.29864 -0.587691 0
M  V30 2261 C 215.956 -6.66216 -0.413818 0
M  V30 2262 H 215.226 -0.608192 -0.423301 0
M  V30 2263 H 217.873 -1.86279 -0.444097 0
M  V30 2264 H 216.178 -2.57687 -2.95135 0
M  V30 2265 H 217.875 -2.91477 -2.75394 0
M  V30 2266 H 214.465 -3.9204 -1.73213 0
M  V30 2267 H 218.649 -4.79359 -1.28565 0
M  V30 2268 H 213.905 -6.07498 -0.689626 0
M  V30 2269 H 218.079 -6.95948 -0.250894 0
M  V30 2270 H 215.706 -7.60182 0.0529471 0
M  V30 2271 N 217.281 0.66697 -1.42791 0
M  V30 2272 C 218.511 1.45294 -1.46878 0
M  V30 2273 C 218.919 1.89027 -0.0809861 0
M  V30 2274 O 218.262 1.59219 0.916246 0
M  V30 2275 C 218.324 2.72908 -2.34012 0
M  V30 2276 C 217.988 2.51203 -3.81767 0
M  V30 2277 C 218.985 2.15302 -4.73224 0
M  V30 2278 C 216.67 2.65954 -4.26115 0
M  V30 2279 C 218.664 1.94431 -6.07022 0
M  V30 2280 C 216.351 2.44699 -5.59969 0
M  V30 2281 C 217.349 2.08992 -6.5024 0
M  V30 2282 O 217.037 1.87948 -7.81621 0
M  V30 2283 H 216.769 0.453306 -0.501487 0
M  V30 2284 H 219.323 0.826232 -1.88049 0
M  V30 2285 H 217.553 3.38089 -1.87703 0
M  V30 2286 H 219.242 3.34816 -2.29462 0
M  V30 2287 H 220.008 2.03495 -4.40244 0
M  V30 2288 H 215.887 2.92724 -3.56137 0
M  V30 2289 H 219.431 1.66484 -6.77443 0
M  V30 2290 H 215.328 2.56105 -5.9252 0
M  V30 2291 H 216.096 2.02483 -7.93059 0
M  V30 2292 N 218.759 1.29093 0.90403 0
M  V30 2293 C 219.722 1.1386 1.98919 0
M  V30 2294 C 220.722 0.0753457 1.60623 0
M  V30 2295 O 221.912 0.321931 1.71199 0
M  V30 2296 C 219.044 0.740198 3.32767 0
M  V30 2297 H 220.237 2.10246 2.13861 0
M  V30 2298 H 217.79 1.12218 1.08797 0
M  V30 2299 H 218.525 -0.223997 3.23525 0
M  V30 2300 H 218.31 1.50838 3.61926 0
M  V30 2301 H 219.8 0.656546 4.12407 0
M  V30 2302 N 220.237 -1.11381 1.11499 0
M  V30 2303 C 221.167 -2.19509 0.796125 0
M  V30 2304 C 222.148 -1.68458 -0.235796 0
M  V30 2305 O 223.333 -1.93947 -0.0991344 0
M  V30 2306 C 220.463 -3.46475 0.239205 0
M  V30 2307 C 219.417 -4.10744 1.20307 0
M  V30 2308 C 218.743 -5.32293 0.50683 0
M  V30 2309 C 220.043 -4.55597 2.55399 0
M  V30 2310 H 221.737 -2.46439 1.70024 0
M  V30 2311 H 219.283 -1.18446 0.818935 0
M  V30 2312 H 221.236 -4.214 0.00392006 0
M  V30 2313 H 219.96 -3.19006 -0.700206 0
M  V30 2314 H 218.619 -3.37813 1.42399 0
M  V30 2315 H 218.267 -5.01095 -0.437408 0
M  V30 2316 H 217.967 -5.76243 1.1497 0
M  V30 2317 H 219.491 -6.09956 0.280351 0
M  V30 2318 H 220.905 -5.21841 2.37391 0
M  V30 2319 H 219.302 -5.10363 3.15673 0
M  V30 2320 H 220.372 -3.69013 3.14575 0
M  V30 2321 N 221.715 -0.905404 -1.28997 0
M  V30 2322 C 223.131 -0.60233 -1.47798 0
M  V30 2323 C 223.331 0.854645 -1.82478 0
M  V30 2324 O 222.387 1.63439 -1.92468 0
M  V30 2325 C 223.7 -1.53306 -2.58685 0
M  V30 2326 C 225.248 -1.53887 -2.72558 0
M  V30 2327 C 225.723 -2.45602 -3.86579 0
M  V30 2328 N 227.214 -2.43681 -3.93921 0
M  V30 2329 C 227.949 -3.11347 -4.81509 0
M  V30 2330 N 227.445 -3.88313 -5.73746 0
M  V30 2331 N 229.238 -3.00476 -4.75048 0
M  V30 2332 H 221.389 -1.84765 -1.04764 0
M  V30 2333 H 223.652 -0.792025 -0.520961 0
M  V30 2334 H 223.358 -2.57141 -2.39941 0
M  V30 2335 H 223.232 -1.25787 -3.55609 0
M  V30 2336 H 225.619 -0.507941 -2.90696 0
M  V30 2337 H 225.7 -1.85447 -1.76191 0
M  V30 2338 H 225.344 -3.48792 -3.69197 0
M  V30 2339 H 225.274 -2.11349 -4.82327 0
M  V30 2340 H 227.765 -1.87767 -3.27951 0
M  V30 2341 H 228.078 -4.36985 -6.37389 0
M  V30 2342 H 226.423 -3.92419 -5.73614 0
M  V30 2343 H 229.614 -2.39858 -4.01977 0
M  V30 2344 H 229.787 -3.53485 -5.43095 0
M  V30 2345 N 223.193 1.4272 -0.668489 0
M  V30 2346 C 224.423 2.05668 -0.196063 0
M  V30 2347 C 224.831 1.5028 1.14946 0
M  V30 2348 O 224.174 0.6348 1.72383 0
M  V30 2349 C 224.236 3.59469 -0.0468879 0
M  V30 2350 C 223.9 4.37518 -1.32012 0
M  V30 2351 C 224.897 4.68584 -2.25222 0
M  V30 2352 C 222.582 4.77266 -1.56596 0
M  V30 2353 C 224.576 5.38326 -3.41297 0
M  V30 2354 C 222.263 5.4675 -2.72962 0
M  V30 2355 C 223.261 5.77204 -3.65137 0
M  V30 2356 O 222.949 6.45264 -4.79468 0
M  V30 2357 H 222.681 0.669382 -0.0943599 0
M  V30 2358 H 225.235 1.83954 -0.913788 0
M  V30 2359 H 223.465 3.79817 0.726357 0
M  V30 2360 H 225.154 4.04071 0.384852 0
M  V30 2361 H 225.92 4.38382 -2.07477 0
M  V30 2362 H 221.799 4.52959 -0.857249 0
M  V30 2363 H 225.343 5.62014 -4.13263 0
M  V30 2364 H 221.24 5.76369 -2.90635 0
M  V30 2365 H 222.008 6.63753 -4.78931 0
M  V30 2366 N 224.671 0.411399 1.52136 0
M  V30 2367 C 225.621 -0.430376 2.23901 0
M  V30 2368 C 226.605 -1.0116 1.25121 0
M  V30 2369 O 227.797 -0.934044 1.50348 0
M  V30 2370 C 224.926 -1.54527 3.06556 0
M  V30 2371 C 224.012 -0.9747 4.12747 0
M  V30 2372 N 224.403 -0.130991 5.0563 0
M  V30 2373 C 222.701 -1.24497 4.28271 0
M  V30 2374 C 223.402 0.186689 5.814 0
M  V30 2375 N 222.378 -0.42304 5.41951 0
M  V30 2376 H 226.18 0.220509 2.93072 0
M  V30 2377 H 223.694 0.221952 1.60876 0
M  V30 2378 H 225.691 -2.16093 3.56524 0
M  V30 2379 H 224.351 -2.19875 2.38925 0
M  V30 2380 H 225.362 0.23349 5.17373 0
M  V30 2381 H 222.039 -1.89787 3.7187 0
M  V30 2382 H 223.429 0.871673 6.66222 0
M  V30 2383 N 226.149 -1.5696 0.141893 0
M  V30 2384 C 227.374 -2.00754 -0.520838 0
M  V30 2385 C 227.799 -1.0213 -1.57959 0
M  V30 2386 O 227.157 0.00371324 -1.813 0
M  V30 2387 C 227.205 -3.43318 -1.10294 0
M  V30 2388 O 226.309 -3.47679 -2.21795 0
M  V30 2389 H 225.65 -0.651564 -0.127908 0
M  V30 2390 H 228.18 -2.03221 0.23712 0
M  V30 2391 H 228.19 -3.82012 -1.43287 0
M  V30 2392 H 226.865 -4.14608 -0.327574 0
M  V30 2393 H 225.442 -3.20824 -1.9007 0
M  V30 2394 N 227.627 0.131896 -1.57047 0
M  V30 2395 C 228.876 0.84044 -1.83356 0
M  V30 2396 C 229.189 1.81646 -0.725535 0
M  V30 2397 O 230.395 2.57025 -0.874659 0
M  V30 2398 C 228.851 1.54528 -3.25037 0
M  V30 2399 C 228.459 0.610902 -4.43815 0
M  V30 2400 C 230.203 2.23972 -3.60606 0
M  V30 2401 C 228.11 1.31823 -5.76521 0
M  V30 2402 H 227.04 0.317599 -0.683847 0
M  V30 2403 H 229.691 0.0931561 -1.83263 0
M  V30 2404 H 228.073 2.33873 -3.19561 0
M  V30 2405 H 229.247 -0.148407 -4.60561 0
M  V30 2406 H 227.562 0.0241016 -4.16393 0
M  V30 2407 H 230.159 2.77558 -4.57018 0
M  V30 2408 H 230.502 3.01173 -2.87403 0
M  V30 2409 H 231.035 1.51529 -3.6781 0
M  V30 2410 H 227.774 0.587771 -6.52859 0
M  V30 2411 H 227.294 2.04987 -5.63685 0
M  V30 2412 H 228.973 1.855 -6.19838 0
M  V30 2413 N 229.106 1.52395 0.401703 0
M  V30 2414 C 230.039 1.70999 1.51111 0
M  V30 2415 C 231.017 0.55765 1.52738 0
M  V30 2416 O 232.201 0.785912 1.71335 0
M  V30 2417 C 229.328 1.75607 2.8962 0
M  V30 2418 C 228.374 2.97227 3.05873 0
M  V30 2419 S 229.207 4.57439 2.78405 0
M  V30 2420 C 230.363 4.64844 4.19131 0
M  V30 2421 H 230.596 2.6483 1.35102 0
M  V30 2422 H 228.129 1.42527 0.593762 0
M  V30 2423 H 230.087 1.78947 3.69443 0
M  V30 2424 H 228.748 0.828914 3.02965 0
M  V30 2425 H 227.941 2.96955 4.07227 0
M  V30 2426 H 227.543 2.91813 2.33925 0
M  V30 2427 H 229.835 4.42677 5.12877 0
M  V30 2428 H 230.778 5.66807 4.24424 0
M  V30 2429 H 231.186 3.93804 4.04448 0
M  V30 2430 N 230.584 -0.659388 1.43143 0
M  V30 2431 C 231.812 -1.44723 1.47861 0
M  V30 2432 C 232.227 -1.88563 0.0945886 0
M  V30 2433 O 231.584 -1.59108 -0.893915 0
M  V30 2434 C 231.635 -2.68627 2.41913 0
M  V30 2435 O 231.356 -2.26623 3.74932 0
M  V30 2436 C 232.857 -3.62045 2.55809 0
M  V30 2437 H 230.077 -0.444801 0.502387 0
M  V30 2438 H 232.621 -0.808916 1.87821 0
M  V30 2439 H 230.776 -3.28613 2.05164 0
M  V30 2440 H 231.19 -3.06745 4.2545 0
M  V30 2441 H 232.664 -4.45666 3.25708 0
M  V30 2442 H 233.141 -4.08981 1.60099 0
M  V30 2443 H 233.747 -3.07944 2.93344 0
M  V30 2444 N 232.062 -1.29571 -0.897171 0
M  V30 2445 C 233.308 -1.17863 -1.65034 0
M  V30 2446 C 233.641 0.268729 -1.92332 0
M  V30 2447 O 232.916 1.19378 -1.53555 0
M  V30 2448 C 233.199 -1.995 -2.99786 0
M  V30 2449 C 233.052 -3.5239 -2.79538 0
M  V30 2450 C 234.371 -1.82335 -4.00552 0
M  V30 2451 H 231.49 -0.429528 -0.598895 0
M  V30 2452 H 234.132 -1.59072 -1.03905 0
M  V30 2453 H 232.282 -1.64485 -3.51962 0
M  V30 2454 H 233.954 -3.97401 -2.34244 0
M  V30 2455 H 232.197 -3.77187 -2.14273 0
M  V30 2456 H 232.868 -4.04787 -3.75302 0
M  V30 2457 H 235.344 -2.12924 -3.57495 0
M  V30 2458 H 234.22 -2.41801 -4.92771 0
M  V30 2459 H 234.481 -0.779209 -4.35179 0
M  V30 2460 N 233.54 1.10788 -1.12088 0
M  V30 2461 C 234.956 1.34691 -0.856186 0
M  V30 2462 C 235.156 1.94791 0.515615 0
M  V30 2463 O 234.212 2.18524 1.26505 0
M  V30 2464 C 235.525 2.27208 -1.9697 0
M  V30 2465 C 237.073 2.40755 -2.00016 0
M  V30 2466 C 237.548 3.36598 -3.1059 0
M  V30 2467 N 239.039 3.44164 -3.10008 0
M  V30 2468 C 239.774 4.18284 -3.92206 0
M  V30 2469 N 239.27 4.95322 -4.84384 0
M  V30 2470 N 241.063 4.13865 -3.80357 0
M  V30 2471 H 233.214 0.70144 -2.00483 0
M  V30 2472 H 235.477 0.371405 -0.872217 0
M  V30 2473 H 235.183 1.90251 -2.958 0
M  V30 2474 H 235.057 3.27485 -1.87172 0
M  V30 2475 H 237.444 2.76982 -1.01808 0
M  V30 2476 H 237.525 1.40305 -2.13888 0
M  V30 2477 H 237.169 3.01096 -4.09028 0
M  V30 2478 H 237.099 4.36918 -2.93956 0
M  V30 2479 H 239.59 2.8922 -2.43228 0
M  V30 2480 H 239.903 5.49267 -5.43623 0
M  V30 2481 H 238.248 4.94459 -4.884 0
M  V30 2482 H 241.439 3.52773 -3.07683 0
M  V30 2483 H 241.612 4.71372 -4.44649 0
M  V30 2484 N 235.018 0.912232 1.28515 0
M  V30 2485 C 235.965 0.397954 2.27343 0
M  V30 2486 C 236.935 -0.526766 1.57526 0
M  V30 2487 O 238.12 -0.449292 1.85435 0
M  V30 2488 C 235.26 -0.357263 3.43246 0
M  V30 2489 C 234.373 0.599788 4.27816 0
M  V30 2490 C 233.508 -0.173725 5.30916 0
M  V30 2491 C 232.547 0.777039 6.07148 0
M  V30 2492 N 231.684 0.0371398 7.0209 0
M  V30 2493 H 236.524 1.24577 2.70711 0
M  V30 2494 H 234.061 0.625612 1.33133 0
M  V30 2495 H 236.019 -0.8113 4.09236 0
M  V30 2496 H 234.649 -1.16943 3.00872 0
M  V30 2497 H 233.701 1.17235 3.61884 0
M  V30 2498 H 235.013 1.32704 4.80823 0
M  V30 2499 H 234.167 -0.688394 6.02782 0
M  V30 2500 H 232.906 -0.934041 4.78672 0
M  V30 2501 H 231.911 1.3031 5.34134 0
M  V30 2502 H 233.136 1.53689 6.61481 0
M  V30 2503 H 231.082 -0.705213 6.52198 0
M  V30 2504 H 230.999 0.704249 7.52713 0
M  V30 2505 H 232.267 -0.457383 7.78157 0
M  V30 2506 N 236.496 -1.42363 0.676048 0
M  V30 2507 C 237.459 -2.29199 0.00766941 0
M  V30 2508 C 238.459 -1.43389 -0.727745 0
M  V30 2509 O 239.649 -1.64764 -0.56556 0
M  V30 2510 C 236.781 -3.2591 -0.999785 0
M  V30 2511 H 237.974 -2.89794 0.771988 0
M  V30 2512 H 235.527 -1.50024 0.438468 0
M  V30 2513 H 236.262 -2.70256 -1.79255 0
M  V30 2514 H 236.047 -3.89202 -0.475829 0
M  V30 2515 H 237.537 -3.91028 -1.46583 0
M  V30 2516 N 237.974 -0.419461 -1.51915 0
M  V30 2517 C 238.904 0.391813 -2.30189 0
M  V30 2518 C 239.885 1.03699 -1.34836 0
M  V30 2519 O 241.07 1.04403 -1.63748 0
M  V30 2520 C 238.2 1.50312 -3.13087 0
M  V30 2521 C 237.154 0.9824 -4.16573 0
M  V30 2522 C 236.48 2.18809 -4.8788 0
M  V30 2523 C 237.78 0.0292356 -5.22292 0
M  V30 2524 H 239.474 -0.26135 -2.98257 0
M  V30 2525 H 237.02 -0.127134 -1.43438 0
M  V30 2526 H 238.973 2.07773 -3.66617 0
M  V30 2527 H 237.697 2.18431 -2.42807 0
M  V30 2528 H 236.356 0.430119 -3.64068 0
M  V30 2529 H 236.004 2.85507 -4.14119 0
M  V30 2530 H 235.704 1.84615 -5.57845 0
M  V30 2531 H 237.228 2.76858 -5.44226 0
M  V30 2532 H 238.642 0.512976 -5.71 0
M  V30 2533 H 237.039 -0.2244 -5.9968 0
M  V30 2534 H 238.109 -0.912931 -4.76228 0
M  V30 2535 N 239.452 1.56882 -0.150215 0
M  V30 2536 C 240.68 2.00593 0.506948 0
M  V30 2537 C 241.095 1.03033 1.58208 0
M  V30 2538 O 240.452 0.0278396 1.82479 0
M  V30 2539 C 240.503 3.44209 1.10465 0
M  V30 2540 O 240.224 4.3804 0.0724636 0
M  V30 2541 C 241.725 4.03214 1.84211 0
M  V30 2542 H 238.945 0.65795 0.13169 0
M  V30 2543 H 241.489 2.03018 -0.245743 0
M  V30 2544 H 239.644 3.42625 1.80795 0
M  V30 2545 H 240.058 5.22007 0.510793 0
M  V30 2546 H 241.532 5.0569 2.21318 0
M  V30 2547 H 242.009 3.44107 2.72923 0
M  V30 2548 H 242.615 4.08437 1.18572 0
M  V30 2549 N 240.93 -0.123565 1.57115 0
M  V30 2550 C 241.86 -1.15309 2.03042 0
M  V30 2551 C 242.841 -1.43454 0.914061 0
M  V30 2552 O 244.026 -1.53973 1.18347 0
M  V30 2553 C 241.156 -2.48043 2.43089 0
M  V30 2554 C 240.11 -2.3437 3.58127 0
M  V30 2555 C 239.436 -3.72026 3.84059 0
M  V30 2556 C 240.736 -1.80804 4.90007 0
M  V30 2557 H 242.43 -0.771102 2.893 0
M  V30 2558 H 239.976 -0.369479 1.39179 0
M  V30 2559 H 241.929 -3.20311 2.73823 0
M  V30 2560 H 240.653 -2.88122 1.53796 0
M  V30 2561 H 239.312 -1.64551 3.27595 0
M  V30 2562 H 238.96 -4.09582 2.91979 0
M  V30 2563 H 238.66 -3.63732 4.6149 0
M  V30 2564 H 240.184 -4.45806 4.1724 0
M  V30 2565 H 241.598 -2.42886 5.19307 0
M  V30 2566 H 239.995 -1.83343 5.71407 0
M  V30 2567 H 241.065 -0.76528 4.78823 0
M  V30 2568 N 242.408 -1.52605 -0.393616 0
M  V30 2569 C 243.657 -1.66649 -1.13627 0
M  V30 2570 C 243.97 -0.410364 -1.91247 0
M  V30 2571 O 245.176 -0.430854 -2.68059 0
M  V30 2572 C 243.632 -2.9449 -2.06891 0
M  V30 2573 C 243.24 -4.27266 -1.34714 0
M  V30 2574 C 244.984 -3.17899 -2.81319 0
M  V30 2575 C 242.891 -5.46217 -2.26717 0
M  V30 2576 H 241.821 -0.62084 -0.427871 0
M  V30 2577 H 244.472 -1.791 -0.399428 0
M  V30 2578 H 242.854 -2.75774 -2.84191 0
M  V30 2579 H 244.028 -4.56518 -0.626714 0
M  V30 2580 H 242.343 -4.10081 -0.722643 0
M  V30 2581 H 244.94 -4.03949 -3.50328 0
M  V30 2582 H 245.283 -2.32777 -3.45139 0
M  V30 2583 H 245.816 -3.37159 -2.11113 0
M  V30 2584 H 242.555 -6.33733 -1.67521 0
M  V30 2585 H 242.075 -5.21283 -2.96689 0
M  V30 2586 H 243.754 -5.7991 -2.86903 0
M  V30 2587 N 243.887 0.651787 -1.4349 0
M  V30 2588 C 245.133 1.41376 -1.45398 0
M  V30 2589 C 245.466 1.94041 -0.0784823 0
M  V30 2590 O 244.741 1.72379 0.900878 0
M  V30 2591 C 245.024 2.59414 -2.49752 0
M  V30 2592 C 244.877 2.12232 -3.96582 0
M  V30 2593 C 246.196 3.61626 -2.50827 0
M  V30 2594 H 243.315 0.512719 -0.529422 0
M  V30 2595 H 245.957 0.738796 -1.75048 0
M  V30 2596 H 244.107 3.16997 -2.246 0
M  V30 2597 H 245.779 1.59639 -4.32797 0
M  V30 2598 H 244.022 1.43592 -4.09346 0
M  V30 2599 H 244.693 2.9712 -4.65214 0
M  V30 2600 H 247.169 3.13805 -2.7325 0
M  V30 2601 H 246.045 4.41766 -3.25783 0
M  V30 2602 H 246.306 4.14314 -1.5426 0
M  V30 2603 N 245.365 1.30045 0.890287 0
M  V30 2604 C 246.328 1.15963 1.977 0
M  V30 2605 C 247.328 0.0923777 1.60534 0
M  V30 2606 O 248.518 0.340071 1.70848 0
M  V30 2607 C 245.65 0.775451 3.31963 0
M  V30 2608 H 246.843 2.12502 2.11619 0
M  V30 2609 H 244.396 1.13366 1.07601 0
M  V30 2610 H 245.131 -0.189671 3.23745 0
M  V30 2611 H 244.916 1.54668 3.60306 0
M  V30 2612 H 246.406 0.700251 4.11687 0
M  V30 2613 N 246.843 -1.10192 1.12674 0
M  V30 2614 C 248.092 -1.81573 0.8783 0
M  V30 2615 C 248.405 -1.86249 -0.597557 0
M  V30 2616 O 249.611 -2.5386 -0.962681 0
M  V30 2617 C 248.067 -3.26149 1.52167 0
M  V30 2618 C 247.675 -3.29763 3.03249 0
M  V30 2619 C 249.419 -4.0234 1.3536 0
M  V30 2620 C 247.326 -4.68815 3.60508 0
M  V30 2621 H 246.256 -0.680394 0.324931 0
M  V30 2622 H 248.907 -1.23902 1.35353 0
M  V30 2623 H 247.289 -3.83832 0.974104 0
M  V30 2624 H 248.463 -2.8189 3.6452 0
M  V30 2625 H 246.778 -2.67059 3.19481 0
M  V30 2626 H 249.375 -5.05058 1.75559 0
M  V30 2627 H 249.718 -4.15235 0.297554 0
M  V30 2628 H 250.251 -3.51079 1.87052 0
M  V30 2629 H 246.99 -4.61121 4.65884 0
M  V30 2630 H 246.51 -5.17045 3.04014 0
M  V30 2631 H 248.189 -5.37785 3.59717 0
M  V30 2632 N 248.321 -0.919034 -1.28029 0
M  V30 2633 C 249.567 -0.565221 -1.95389 0
M  V30 2634 C 249.922 0.882325 -1.70976 0
M  V30 2635 O 249.215 1.61988 -1.02325 0
M  V30 2636 C 249.409 -0.816855 -3.4794 0
M  V30 2637 C 249.238 -2.28731 -3.87185 0
M  V30 2638 C 248.008 -2.93841 -4.11079 0
M  V30 2639 C 250.206 -3.26415 -3.97439 0
M  V30 2640 N 248.188 -4.31129 -4.37037 0
M  V30 2641 C 249.559 -4.48884 -4.27672 0
M  V30 2642 C 251.614 -3.21742 -3.79982 0
M  V30 2643 C 250.317 -5.67268 -4.42266 0
M  V30 2644 C 252.343 -4.39431 -3.95796 0
M  V30 2645 C 251.705 -5.60675 -4.26407 0
M  V30 2646 H 247.804 -0.256797 -0.738633 0
M  V30 2647 H 250.388 -1.18386 -1.54573 0
M  V30 2648 H 248.559 -0.227445 -3.87733 0
M  V30 2649 H 250.291 -0.426542 -4.02446 0
M  V30 2650 H 247.046 -2.44547 -4.05578 0
M  V30 2651 H 247.47 -5.02127 -4.5409 0
M  V30 2652 H 252.112 -2.29079 -3.55363 0
M  V30 2653 H 249.83 -6.60406 -4.65714 0
M  V30 2654 H 253.416 -4.37323 -3.83719 0
M  V30 2655 H 252.296 -6.50223 -4.38383 0
M  V30 2656 N 249.799 1.42003 -0.683588 0
M  V30 2657 C 251.045 2.01712 -0.209825 0
M  V30 2658 C 251.378 1.53968 1.18353 0
M  V30 2659 O 250.653 0.745661 1.79639 0
M  V30 2660 C 250.936 3.59202 -0.254197 0
M  V30 2661 C 250.789 4.17102 -1.68363 0
M  V30 2662 C 252.108 4.38344 0.392709 0
M  V30 2663 H 249.227 0.732891 -0.0777189 0
M  V30 2664 H 251.869 1.68909 -0.87004 0
M  V30 2665 H 250.019 3.87278 0.307954 0
M  V30 2666 H 251.691 3.99946 -2.29871 0
M  V30 2667 H 249.934 3.72597 -2.22157 0
M  V30 2668 H 250.605 5.26249 -1.6663 0
M  V30 2669 H 253.081 4.16011 -0.0859162 0
M  V30 2670 H 251.957 5.47901 0.331063 0
M  V30 2671 H 252.218 4.16887 1.47164 0
M  V30 2672 N 251.277 0.427512 1.51691 0
M  V30 2673 C 252.517 -0.141524 2.03909 0
M  V30 2674 C 252.881 -1.40811 1.30523 0
M  V30 2675 O 254.082 -2.05676 1.73063 0
M  V30 2676 C 252.353 -0.364962 3.55532 0
M  V30 2677 S 253.912 -0.898812 4.29496 0
M  V30 2678 H 250.73 -0.0364542 0.710065 0
M  V30 2679 H 253.332 0.584659 1.86553 0
M  V30 2680 H 252.036 0.56336 4.06515 0
M  V30 2681 H 251.567 -1.1185 3.77164 0
M  V30 2682 H 253.582 -2.17747 4.45871 0
M  V30 2683 N 252.755 -1.56801 0.158532 0
M  V30 2684 C 253.995 -1.98383 -0.49229 0
M  V30 2685 C 254.359 -1.04184 -1.61275 0
M  V30 2686 O 255.56 -1.34856 -2.32524 0
M  V30 2687 C 253.831 -3.4385 -0.974766 0
M  V30 2688 S 255.39 -4.07459 -1.62857 0
M  V30 2689 H 252.208 -0.693041 -0.158794 0
M  V30 2690 H 254.81 -1.93856 0.252974 0
M  V30 2691 H 253.514 -4.10131 -0.148688 0
M  V30 2692 H 253.045 -3.52115 -1.75438 0
M  V30 2693 H 255.06 -4.01458 -2.91627 0
M  V30 2694 N 254.233 0.115231 -1.57178 0
M  V30 2695 C 255.481 0.820727 -1.84685 0
M  V30 2696 C 255.802 1.80237 -0.744279 0
M  V30 2697 O 255.072 1.94529 0.231375 0
M  V30 2698 H 253.652 0.306084 -0.681411 0
M  V30 2699 H 256.314 0.101656 -1.94635 0
M  V30 2700 H 255.41 1.36366 -2.80733 0
M  V30 2701 N 255.711 1.52812 0.385517 0
M  V30 2702 C 256.957 1.68275 1.13188 0
M  V30 2703 C 257.29 0.423179 1.89533 0
M  V30 2704 O 256.565 -0.579113 1.85679 0
M  V30 2705 C 256.848 2.92001 2.1073 0
M  V30 2706 C 256.701 4.28067 1.38125 0
M  V30 2707 C 258.02 3.11283 3.11113 0
M  V30 2708 H 255.139 0.612352 0.410115 0
M  V30 2709 H 257.781 1.85415 0.414869 0
M  V30 2710 H 255.931 2.77519 2.71874 0
M  V30 2711 H 257.603 4.54324 0.799187 0
M  V30 2712 H 255.846 4.28388 0.683092 0
M  V30 2713 H 256.517 5.10733 2.09417 0
M  V30 2714 H 258.993 3.2482 2.6006 0
M  V30 2715 H 257.869 3.99325 3.76605 0
M  V30 2716 H 258.13 2.25656 3.80173 0
M  V30 2717 N 257.189 -0.644168 1.43834 0
M  V30 2718 C 258.429 -1.41565 1.47441 0
M  V30 2719 C 258.793 -1.91743 0.0992723 0
M  V30 2720 O 259.994 -2.68798 0.0100192 0
M  V30 2721 C 258.265 -2.55902 2.49498 0
M  V30 2722 S 259.824 -3.44287 2.72051 0
M  V30 2723 H 256.642 -0.483118 0.521649 0
M  V30 2724 H 259.244 -0.747008 1.80666 0
M  V30 2725 H 257.948 -2.17327 3.48134 0
M  V30 2726 H 257.479 -3.27607 2.17801 0
M  V30 2727 H 259.494 -4.52927 2.0266 0
M  V30 2728 N 258.668 -1.30515 -0.883378 0
M  V30 2729 C 259.916 -1.19194 -1.63209 0
M  V30 2730 C 260.237 0.253205 -1.93349 0
M  V30 2731 O 259.507 1.17025 -1.57105 0
M  V30 2732 H 258.087 -0.438148 -0.605009 0
M  V30 2733 H 260.749 -1.63663 -1.05832 0
M  V30 2734 H 259.845 -1.75396 -2.58153 0
M  V30 2735 N 260.146 1.09593 -1.13257 0
M  V30 2736 C 261.392 1.82003 -0.89458 0
M  V30 2737 C 261.725 1.85402 0.577906 0
M  V30 2738 O 261 1.32099 1.42759 0
M  V30 2739 C 261.283 3.28237 -1.48096 0
M  V30 2740 C 261.136 3.3312 -3.02244 0
M  V30 2741 C 262.455 4.24871 -1.14774 0
M  V30 2742 H 259.574 0.66077 -0.326424 0
M  V30 2743 H 262.216 1.28389 -1.40058 0
M  V30 2744 H 260.366 3.74024 -1.05062 0
M  V30 2745 H 262.038 2.95748 -3.54021 0
M  V30 2746 H 260.281 2.72756 -3.37323 0
M  V30 2747 H 260.952 4.3613 -3.38371 0
M  V30 2748 H 263.428 3.87361 -1.51957 0
M  V30 2749 H 262.304 5.25532 -1.58452 0
M  V30 2750 H 262.565 4.42058 -0.0611849 0
M  V30 2751 N 261.624 0.925811 1.2754 0
M  V30 2752 C 262.87 0.566092 1.94739 0
M  V30 2753 C 263.203 -0.890057 1.72603 0
M  V30 2754 O 262.478 -1.63467 1.05399 0
M  V30 2755 C 262.761 0.89054 3.48915 0
M  V30 2756 C 262.614 2.4003 3.80402 0
M  V30 2757 C 263.933 0.395101 4.38323 0
M  V30 2758 H 261.052 0.20714 0.707292 0
M  V30 2759 H 263.694 1.15725 1.50691 0
M  V30 2760 H 261.844 0.387452 3.86563 0
M  V30 2761 H 263.516 2.97494 3.52555 0
M  V30 2762 H 261.759 2.85028 3.2702 0
M  V30 2763 H 262.43 2.57785 4.8811 0
M  V30 2764 H 264.906 0.826241 4.07814 0
M  V30 2765 H 263.782 0.651086 5.45025 0
M  V30 2766 H 264.043 -0.704798 4.36446 0
M  V30 2767 N 263.102 -1.41638 0.69111 0
M  V30 2768 C 264.349 -2.01299 0.220193 0
M  V30 2769 C 264.677 -1.54715 -1.17871 0
M  V30 2770 O 263.932 -0.747193 -1.80874 0
M  V30 2771 C 264.231 -3.56714 0.221277 0
M  V30 2772 C 263.897 -4.22792 1.56709 0
M  V30 2773 C 262.559 -4.40557 1.93554 0
M  V30 2774 C 264.911 -4.59883 2.45268 0
M  V30 2775 C 262.239 -4.92688 3.18552 0
M  V30 2776 C 264.591 -5.13403 3.69595 0
M  V30 2777 C 263.255 -5.29379 4.06589 0
M  V30 2778 H 262.525 -0.736606 0.0805743 0
M  V30 2779 H 265.172 -1.69598 0.889319 0
M  V30 2780 H 263.477 -3.8818 -0.531391 0
M  V30 2781 H 265.174 -4.00678 -0.160547 0
M  V30 2782 H 261.764 -4.09336 1.2705 0
M  V30 2783 H 265.948 -4.45817 2.18084 0
M  V30 2784 H 261.204 -5.03242 3.47214 0
M  V30 2785 H 265.378 -5.41084 4.38407 0
M  V30 2786 H 263.005 -5.69537 5.03519 0
M  V30 2787 N 264.58 -0.43555 -1.51462 0
M  V30 2788 C 265.829 0.133007 -2.01261 0
M  V30 2789 C 266.142 1.43942 -1.32439 0
M  V30 2790 O 267.348 2.09081 -1.73198 0
M  V30 2791 C 265.804 0.287581 -3.58749 0
M  V30 2792 C 265.412 -1.00829 -4.36506 0
M  V30 2793 C 267.156 0.810004 -4.167 0
M  V30 2794 C 265.063 -0.819454 -5.85695 0
M  V30 2795 H 263.993 0.0534822 -0.752101 0
M  V30 2796 H 266.644 -0.565038 -1.74584 0
M  V30 2797 H 265.026 1.04859 -3.81865 0
M  V30 2798 H 266.2 -1.77749 -4.25138 0
M  V30 2799 H 264.515 -1.45911 -3.89999 0
M  V30 2800 H 267.112 0.967743 -5.2587 0
M  V30 2801 H 267.455 1.79196 -3.75758 0
M  V30 2802 H 267.988 0.107357 -3.97655 0
M  V30 2803 H 264.727 -1.77374 -6.31046 0
M  V30 2804 H 264.247 -0.0900208 -5.99732 0
M  V30 2805 H 265.926 -0.471949 -6.45276 0
M  V30 2806 N 266.058 1.56714 -0.166846 0
M  V30 2807 C 267.304 1.97039 0.479962 0
M  V30 2808 C 267.637 1.05264 1.63197 0
M  V30 2809 O 266.912 0.0988833 1.94248 0
M  V30 2810 C 267.195 3.46867 0.967212 0
M  V30 2811 C 267.048 4.49421 -0.18466 0
M  V30 2812 C 268.367 3.9968 1.84238 0
M  V30 2813 H 265.486 0.71641 0.172992 0
M  V30 2814 H 268.128 1.8832 -0.252079 0
M  V30 2815 H 266.278 3.54428 1.59101 0
M  V30 2816 H 267.95 4.53924 -0.821621 0
M  V30 2817 H 266.193 4.25573 -0.840837 0
M  V30 2818 H 266.864 5.51644 0.198317 0
M  V30 2819 H 269.34 3.94723 1.31655 0
M  V30 2820 H 268.216 5.04941 2.15234 0
M  V30 2821 H 268.477 3.43226 2.78654 0
M  V30 2822 N 267.536 -0.106894 1.57237 0
M  V30 2823 C 268.766 -0.825191 1.89405 0
M  V30 2824 C 269.174 -1.73374 0.757496 0
M  V30 2825 O 268.517 -1.81552 -0.280115 0
M  V30 2826 C 268.579 -1.70102 3.1671 0
M  V30 2827 C 268.243 -0.965523 4.46684 0
M  V30 2828 C 269.24 -0.300741 5.19029 0
M  V30 2829 C 266.925 -0.943105 4.93367 0
M  V30 2830 C 268.919 0.376622 6.36286 0
M  V30 2831 C 266.606 -0.261949 6.10538 0
M  V30 2832 C 267.604 0.396748 6.81847 0
M  V30 2833 O 267.292 1.06701 7.96787 0
M  V30 2834 H 267.024 -0.241852 0.631255 0
M  V30 2835 H 269.578 -0.0921491 2.05193 0
M  V30 2836 H 267.808 -2.47601 2.97036 0
M  V30 2837 H 269.497 -2.29483 3.34802 0
M  V30 2838 H 270.263 -0.309599 4.84011 0
M  V30 2839 H 266.142 -1.44524 4.3776 0
M  V30 2840 H 269.686 0.891334 6.91882 0
M  V30 2841 H 265.583 -0.250896 6.45012 0
M  V30 2842 H 266.351 0.972707 8.127 0
M  V30 2843 N 269.014 -1.53014 -0.377408 0
M  V30 2844 C 270.239 -1.72818 -1.14668 0
M  V30 2845 C 270.664 -0.450725 -1.8262 0
M  V30 2846 O 270.022 0.59439 -1.7128 0
M  V30 2847 C 270.07 -2.88627 -2.16164 0
M  V30 2848 O 269.174 -2.56409 -3.22998 0
M  V30 2849 H 268.515 -0.574301 -0.333278 0
M  V30 2850 H 271.045 -1.99853 -0.438152 0
M  V30 2851 H 271.055 -3.14455 -2.59966 0
M  V30 2852 H 269.73 -3.81294 -1.66095 0
M  V30 2853 H 268.307 -2.4136 -2.84253 0
M  V30 2854 N 270.492 0.636531 -1.44174 0
M  V30 2855 C 271.402 1.77754 -1.53103 0
M  V30 2856 C 272.418 1.68928 -0.417034 0
M  V30 2857 O 273.594 1.89801 -0.6736 0
M  V30 2858 C 270.659 3.14115 -1.46741 0
M  V30 2859 C 269.72 3.34612 -2.68948 0
M  V30 2860 C 268.953 4.64467 -2.6288 0
M  V30 2861 O 269.176 5.44919 -1.68581 0
M  V30 2862 O 268.11 4.87049 -3.53648 0
M  V30 2863 H 271.936 1.73174 -2.49489 0
M  V30 2864 H 269.521 0.79709 -1.2636 0
M  V30 2865 H 271.403 3.95412 -1.45696 0
M  V30 2866 H 270.078 3.19249 -0.534975 0
M  V30 2867 H 268.985 2.53014 -2.75562 0
M  V30 2868 H 270.318 3.34336 -3.61221 0
M  V30 2869 N 271.97 1.30982 0.876444 0
M  V30 2870 C 273.195 1.23373 1.66715 0
M  V30 2871 C 273.62 -0.19885 1.87046 0
M  V30 2872 O 272.978 -1.1427 1.40756 0
M  V30 2873 C 273.026 1.97644 3.01611 0
M  V30 2874 O 272.13 1.30935 3.91062 0
M  V30 2875 H 271.471 0.426279 0.509099 0
M  V30 2876 H 274.001 1.72944 1.09323 0
M  V30 2877 H 274.011 2.06992 3.51594 0
M  V30 2878 H 272.686 3.01829 2.86133 0
M  V30 2879 H 271.263 1.29996 3.49507 0
M  V30 2880 N 273.449 -1.08991 1.13837 0
M  V30 2881 C 274.396 -2.15748 0.819835 0
M  V30 2882 C 275.366 -1.64636 -0.220026 0
M  V30 2883 O 276.551 -1.90582 -0.0912757 0
M  V30 2884 C 273.691 -3.4382 0.296913 0
M  V30 2885 C 272.804 -4.0881 1.39636 0
M  V30 2886 C 271.939 -5.24655 0.831314 0
M  V30 2887 C 270.978 -5.81575 1.90886 0
M  V30 2888 N 270.115 -6.88774 1.36142 0
M  V30 2889 H 274.955 -2.42338 1.73426 0
M  V30 2890 H 272.492 -1.18935 0.865613 0
M  V30 2891 H 274.45 -4.17193 -0.0244339 0
M  V30 2892 H 273.08 -3.17535 -0.580628 0
M  V30 2893 H 272.132 -3.33258 1.83422 0
M  V30 2894 H 273.444 -4.47141 2.21058 0
M  V30 2895 H 272.598 -6.04942 0.461515 0
M  V30 2896 H 271.337 -4.87698 -0.013932 0
M  V30 2897 H 270.342 -4.99946 2.28767 0
M  V30 2898 H 271.567 -6.20592 2.75758 0
M  V30 2899 H 269.513 -6.53788 0.538254 0
M  V30 2900 H 269.43 -7.25898 2.11208 0
M  V30 2901 H 270.698 -7.72806 1.01933 0
M  V30 2902 N 274.927 -0.932562 -1.27047 0
M  V30 2903 C 275.86 -0.379774 -2.25018 0
M  V30 2904 C 276.838 0.526587 -1.53837 0
M  V30 2905 O 278.022 0.465992 -1.82649 0
M  V30 2906 C 275.149 0.455187 -3.35627 0
M  V30 2907 C 274.195 -0.388428 -4.24728 0
M  V30 2908 S 275.028 -1.80701 -5.04091 0
M  V30 2909 C 276.184 -0.979865 -6.18182 0
M  V30 2910 H 276.417 -1.2101 -2.71558 0
M  V30 2911 H 273.95 -0.735078 -1.35779 0
M  V30 2912 H 275.908 0.931052 -3.99802 0
M  V30 2913 H 274.569 1.26009 -2.87716 0
M  V30 2914 H 273.762 0.25089 -5.03375 0
M  V30 2915 H 273.364 -0.798649 -3.65373 0
M  V30 2916 H 275.656 -0.218115 -6.77149 0
M  V30 2917 H 276.599 -1.73951 -6.86401 0
M  V30 2918 H 277.007 -0.51973 -5.62102 0
M  V30 2919 N 276.405 1.4127 -0.698611 0
M  V30 2920 C 277.651 2.01478 -0.231207 0
M  V30 2921 C 277.984 1.55215 1.16713 0
M  V30 2922 O 277.259 0.764672 1.78838 0
M  V30 2923 C 277.542 3.58912 -0.292281 0
M  V30 2924 C 277.395 4.15293 -1.72778 0
M  V30 2925 C 278.714 4.38736 0.346194 0
M  V30 2926 H 275.833 0.732025 -0.0854878 0
M  V30 2927 H 278.475 1.67977 -0.887906 0
M  V30 2928 H 276.625 3.87582 0.26686 0
M  V30 2929 H 278.297 3.97486 -2.341 0
M  V30 2930 H 276.54 3.7022 -2.26096 0
M  V30 2931 H 277.211 5.24452 -1.72202 0
M  V30 2932 H 279.687 4.15897 -0.130035 0
M  V30 2933 H 278.563 5.48221 0.272932 0
M  V30 2934 H 278.824 4.18425 1.42734 0
M  V30 2935 N 277.883 0.443576 1.51229 0
M  V30 2936 C 279.132 -0.122332 2.01329 0
M  V30 2937 C 279.445 -1.43237 1.33201 0
M  V30 2938 O 280.651 -2.0816 1.74304 0
M  V30 2939 C 279.107 -0.268551 3.58897 0
M  V30 2940 C 278.715 1.03142 4.35965 0
M  V30 2941 C 280.459 -0.787894 4.17124 0
M  V30 2942 C 278.366 0.850504 5.85252 0
M  V30 2943 H 277.296 -0.0494929 0.752374 0
M  V30 2944 H 279.947 0.574289 1.74282 0
M  V30 2945 H 278.329 -1.02832 3.82415 0
M  V30 2946 H 279.503 1.80001 4.24189 0
M  V30 2947 H 277.818 1.47977 3.89219 0
M  V30 2948 H 280.415 -0.939841 5.26375 0
M  V30 2949 H 280.758 -1.77201 3.76703 0
M  V30 2950 H 281.291 -0.0862669 3.97706 0
M  V30 2951 H 278.03 1.80718 6.30096 0
M  V30 2952 H 277.55 0.121825 5.99676 0
M  V30 2953 H 279.229 0.506163 6.45017 0
M  V30 2954 N 279.361 -1.56624 0.175154 0
M  V30 2955 C 280.607 -1.9729 -0.469506 0
M  V30 2956 C 280.94 -1.06128 -1.62636 0
M  V30 2957 O 280.215 -0.109183 -1.94193 0
M  V30 2958 C 280.498 -3.47375 -0.948804 0
M  V30 2959 C 280.351 -4.49317 0.208491 0
M  V30 2960 C 281.67 -4.00652 -1.82116 0
M  V30 2961 H 278.789 -0.717317 -0.16919 0
M  V30 2962 H 281.431 -1.88184 0.262062 0
M  V30 2963 H 279.581 -3.55267 -1.57219 0
M  V30 2964 H 281.253 -4.53482 0.845682 0
M  V30 2965 H 279.496 -4.25121 0.863395 0
M  V30 2966 H 280.167 -5.51741 -0.169059 0
M  V30 2967 H 282.643 -3.95416 -1.2956 0
M  V30 2968 H 281.519 -5.06075 -2.12554 0
M  V30 2969 H 281.78 -3.44699 -2.7683 0
M  V30 2970 N 280.839 0.0985539 -1.57292 0
M  V30 2971 C 282.079 0.808332 -1.87737 0
M  V30 2972 C 282.443 1.7607 -0.76572 0
M  V30 2973 O 283.644 2.51358 -0.952499 0
M  V30 2974 C 281.915 1.52093 -3.23423 0
M  V30 2975 S 283.474 2.26947 -3.75554 0
M  V30 2976 H 280.292 0.269377 -0.657995 0
M  V30 2977 H 282.894 0.0656269 -1.9539 0
M  V30 2978 H 281.598 0.81363 -4.02254 0
M  V30 2979 H 281.129 2.30361 -3.189 0
M  V30 2980 H 283.144 3.53027 -3.48692 0
M  V30 2981 N 282.317 1.53212 0.369288 0
M  V30 2982 C 283.247 1.82365 1.45826 0
M  V30 2983 C 284.228 0.676907 1.56051 0
M  V30 2984 O 285.413 0.926401 1.70679 0
M  V30 2985 C 282.543 2.01023 2.83208 0
M  V30 2986 C 281.497 3.1678 2.8781 0
M  V30 2987 C 280.823 3.20724 4.27832 0
M  V30 2988 C 282.123 4.55447 2.55667 0
M  V30 2989 H 283.817 2.73559 1.21678 0
M  V30 2990 H 281.363 1.3163 0.583911 0
M  V30 2991 H 283.316 2.20001 3.59413 0
M  V30 2992 H 282.04 1.06536 3.08736 0
M  V30 2993 H 280.699 2.97616 2.14056 0
M  V30 2994 H 280.347 2.23882 4.50429 0
M  V30 2995 H 280.047 3.98496 4.31827 0
M  V30 2996 H 281.571 3.41881 5.05915 0
M  V30 2997 H 282.985 4.74611 3.21586 0
M  V30 2998 H 281.382 5.35432 2.70984 0
M  V30 2999 H 282.452 4.60812 1.5093 0
M  V30 3000 N 283.795 -0.628877 1.44509 0
M  V30 3001 C 285.044 -1.38437 1.4669 0
M  V30 3002 C 285.357 -1.95322 0.104272 0
M  V30 3003 O 286.563 -2.715 0.00362163 0
M  V30 3004 C 285.019 -2.50659 2.5826 0
M  V30 3005 C 284.627 -2.00277 4.0074 0
M  V30 3006 C 286.371 -3.27844 2.69664 0
M  V30 3007 C 284.278 -3.09854 5.0373 0
M  V30 3008 H 283.208 -0.520245 0.545766 0
M  V30 3009 H 285.859 -0.676313 1.70582 0
M  V30 3010 H 284.241 -3.2405 2.27612 0
M  V30 3011 H 285.415 -1.33736 4.40966 0
M  V30 3012 H 283.73 -1.35901 3.93599 0
M  V30 3013 H 286.327 -4.09534 3.43781 0
M  V30 3014 H 286.67 -3.77471 1.75559 0
M  V30 3015 H 287.203 -2.61543 2.99733 0
M  V30 3016 H 283.942 -2.65168 5.99472 0
M  V30 3017 H 283.462 -3.7503 4.68095 0
M  V30 3018 H 285.141 -3.74592 5.27532 0
M  V30 3019 N 285.273 -1.31445 -0.869486 0
M  V30 3020 C 286.501 -1.24122 -1.65534 0
M  V30 3021 C 286.916 0.193387 -1.87807 0
M  V30 3022 O 286.273 1.12557 -1.43656 0
M  V30 3023 C 286.324 -1.98229 -3.02304 0
M  V30 3024 O 286.045 -3.3609 -2.81026 0
M  V30 3025 C 287.546 -1.97751 -3.96749 0
M  V30 3026 H 284.766 -0.428868 -0.516055 0
M  V30 3027 H 287.31 -1.73328 -1.08525 0
M  V30 3028 H 285.465 -1.52782 -3.56001 0
M  V30 3029 H 285.879 -3.7383 -3.67902 0
M  V30 3030 H 287.353 -2.54114 -4.90031 0
M  V30 3031 H 287.83 -0.960137 -4.28577 0
M  V30 3032 H 288.436 -2.43079 -3.48988 0
M  V30 3033 N 286.751 1.08385 -1.14413 0
M  V30 3034 C 287.684 2.14642 -0.774871 0
M  V30 3035 C 288.662 1.60761 0.243876 0
M  V30 3036 O 289.846 1.88031 0.132883 0
M  V30 3037 C 286.973 3.38366 -0.150491 0
M  V30 3038 C 286.019 4.10997 -1.13945 0
M  V30 3039 S 286.852 4.63797 -2.67679 0
M  V30 3040 C 288.008 5.90808 -2.06631 0
M  V30 3041 H 288.241 2.45633 -1.67487 0
M  V30 3042 H 285.774 1.20498 -0.96538 0
M  V30 3043 H 287.732 4.09996 0.203334 0
M  V30 3044 H 286.393 3.05572 0.72694 0
M  V30 3045 H 285.586 4.99783 -0.65059 0
M  V30 3046 H 285.188 3.4528 -1.43727 0
M  V30 3047 H 287.48 6.62411 -1.4219 0
M  V30 3048 H 288.423 6.4439 -2.93542 0
M  V30 3049 H 288.831 5.4383 -1.51357 0
M  V30 3050 N 288.23 0.939286 1.26551 0
M  V30 3051 C 289.477 0.585847 1.9384 0
M  V30 3052 C 289.805 -0.874784 1.73718 0
M  V30 3053 O 289.06 -1.64092 1.06642 0
M  V30 3054 C 289.359 0.872106 3.46596 0
M  V30 3055 C 289.025 2.31632 3.86856 0
M  V30 3056 C 287.687 2.71111 3.97558 0
M  V30 3057 C 290.039 3.25494 4.07066 0
M  V30 3058 C 287.367 4.03553 4.25866 0
M  V30 3059 C 289.719 4.57531 4.36862 0
M  V30 3060 C 288.383 4.96828 4.45778 0
M  V30 3061 H 287.653 0.214377 0.709312 0
M  V30 3062 H 290.3 1.18544 1.50398 0
M  V30 3063 H 288.605 0.18996 3.91339 0
M  V30 3064 H 290.302 0.577442 3.96821 0
M  V30 3065 H 286.892 2.00008 3.79071 0
M  V30 3066 H 291.076 2.9619 3.98227 0
M  V30 3067 H 286.332 4.33665 4.30981 0
M  V30 3068 H 290.506 5.30254 4.51446 0
M  V30 3069 H 288.133 5.99482 4.67468 0
M  V30 3070 N 289.708 -1.40897 0.706093 0
M  V30 3071 C 290.955 -2.01054 0.241531 0
M  V30 3072 C 291.283 -1.55956 -1.16223 0
M  V30 3073 O 290.538 -0.766336 -1.80072 0
M  V30 3074 C 290.837 -3.5646 0.259099 0
M  V30 3075 C 290.503 -4.21106 1.61184 0
M  V30 3076 C 289.165 -4.38479 1.98216 0
M  V30 3077 C 291.517 -4.57256 2.50132 0
M  V30 3078 C 288.845 -4.89282 3.2376 0
M  V30 3079 C 291.197 -5.09454 3.7502 0
M  V30 3080 C 289.861 -5.25037 4.12181 0
M  V30 3081 H 289.131 -0.73571 0.0883825 0
M  V30 3082 H 291.778 -1.68645 0.907257 0
M  V30 3083 H 290.083 -3.88721 -0.490189 0
M  V30 3084 H 291.78 -4.00826 -0.11804 0
M  V30 3085 H 288.37 -4.07966 1.31384 0
M  V30 3086 H 292.554 -4.43479 2.228 0
M  V30 3087 H 287.81 -4.99531 3.52532 0
M  V30 3088 H 291.984 -5.36404 4.44121 0
M  V30 3089 H 289.611 -5.64164 5.09532 0
M  V30 3090 N 291.186 -0.45159 -1.50991 0
M  V30 3091 C 292.149 0.341117 -2.26647 0
M  V30 3092 C 293.149 0.937422 -1.30649 0
M  V30 3093 O 294.339 0.809644 -1.54241 0
M  V30 3094 C 291.471 1.48398 -3.06905 0
M  V30 3095 H 292.664 -0.322117 -2.98165 0
M  V30 3096 H 290.217 -0.205122 -1.54948 0
M  V30 3097 H 290.952 2.18284 -2.39838 0
M  V30 3098 H 290.737 1.06241 -3.77432 0
M  V30 3099 H 292.227 2.04367 -3.64176 0
M  V30 3100 N 292.664 1.56529 -0.183458 0
M  V30 3101 C 293.597 2.14417 0.781052 0
M  V30 3102 C 294.575 1.07761 1.21763 0
M  V30 3103 O 295.759 1.35807 1.30724 0
M  V30 3104 C 292.886 2.69361 2.05335 0
M  V30 3105 C 291.932 3.885 1.75982 0
M  V30 3106 S 292.765 5.27568 0.918256 0
M  V30 3107 C 293.921 5.85926 2.20095 0
M  V30 3108 H 294.154 2.95893 0.2889 0
M  V30 3109 H 291.687 1.54368 0.0313844 0
M  V30 3110 H 293.645 3.01662 2.78406 0
M  V30 3111 H 292.306 1.87949 2.51663 0
M  V30 3112 H 291.499 4.25314 2.70415 0
M  V30 3113 H 291.101 3.57149 1.10999 0
M  V30 3114 H 293.393 5.99579 3.15453 0
M  V30 3115 H 294.336 6.82761 1.87731 0
M  V30 3116 H 294.744 5.14438 2.32409 0
M  V30 3117 N 294.142 -0.090211 1.57342 0
M  V30 3118 C 295.075 -1.14035 1.97664 0
M  V30 3119 C 296.053 -1.38576 0.850616 0
M  V30 3120 O 297.237 -1.52255 1.11134 0
M  V30 3121 C 294.364 -2.48854 2.2976 0
M  V30 3122 C 293.41 -2.40564 3.52181 0
M  V30 3123 S 294.243 -1.81745 5.03715 0
M  V30 3124 C 295.399 -3.18178 5.38993 0
M  V30 3125 H 295.632 -0.796636 2.86428 0
M  V30 3126 H 293.165 -0.298072 1.51496 0
M  V30 3127 H 295.123 -3.26413 2.48927 0
M  V30 3128 H 293.784 -2.80393 1.41558 0
M  V30 3129 H 292.977 -3.39942 3.72096 0
M  V30 3130 H 292.579 -1.71135 3.32549 0
M  V30 3131 H 294.871 -4.14461 5.35937 0
M  V30 3132 H 295.814 -3.03062 6.39968 0
M  V30 3133 H 296.222 -3.17935 4.66452 0
M  V30 3134 N 295.62 -1.53406 -0.361157 0
M  V30 3135 C 296.55 -1.83136 -1.44857 0
M  V30 3136 C 297.531 -0.685174 -1.5569 0
M  V30 3137 O 298.716 -0.93544 -1.70186 0
M  V30 3138 C 295.846 -2.02522 -2.82138 0
M  V30 3139 C 294.8 -3.18302 -2.86126 0
M  V30 3140 C 294.126 -3.22989 -4.26125 0
M  V30 3141 C 295.426 -4.56796 -2.53248 0
M  V30 3142 H 297.12 -2.74201 -1.20226 0
M  V30 3143 H 294.666 -1.31938 -0.576922 0
M  V30 3144 H 296.619 -2.21904 -3.58241 0
M  V30 3145 H 295.343 -1.08172 -3.08166 0
M  V30 3146 H 294.002 -2.98747 -2.12475 0
M  V30 3147 H 293.65 -2.26267 -4.49235 0
M  V30 3148 H 293.35 -4.00781 -4.29708 0
M  V30 3149 H 294.874 -3.44559 -5.04094 0
M  V30 3150 H 296.288 -4.7631 -3.19064 0
M  V30 3151 H 294.685 -5.36862 -2.68141 0
M  V30 3152 H 295.755 -4.61606 -1.48484 0
M  V30 3153 N 297.098 0.621204 -1.44841 0
M  V30 3154 C 298.028 1.74366 -1.55303 0
M  V30 3155 C 299.009 1.65199 -0.405385 0
M  V30 3156 O 300.194 1.83807 -0.626787 0
M  V30 3157 C 297.324 3.12931 -1.50637 0
M  V30 3158 C 296.278 3.36896 -2.63979 0
M  V30 3159 C 295.604 4.75594 -2.44366 0
M  V30 3160 C 296.904 3.28483 -4.06074 0
M  V30 3161 H 298.598 1.65867 -2.49256 0
M  V30 3162 H 296.144 0.796558 -1.19962 0
M  V30 3163 H 298.097 3.9124 -1.56555 0
M  V30 3164 H 296.821 3.22237 -0.532057 0
M  V30 3165 H 295.48 2.60972 -2.57467 0
M  V30 3166 H 295.128 4.81616 -1.45105 0
M  V30 3167 H 294.828 4.92586 -3.20364 0
M  V30 3168 H 296.352 5.5612 -2.52117 0
M  V30 3169 H 297.766 3.96684 -4.13902 0
M  V30 3170 H 296.163 3.57008 -4.82354 0
M  V30 3171 H 297.233 2.26133 -4.28943 0
M  V30 3172 N 298.576 1.31904 0.862503 0
M  V30 3173 C 299.509 1.14514 1.97388 0
M  V30 3174 C 300.487 0.0466493 1.62533 0
M  V30 3175 O 301.671 0.204484 1.87388 0
M  V30 3176 C 298.798 0.751347 3.30261 0
M  V30 3177 C 297.844 1.85395 3.84098 0
M  V30 3178 S 298.677 3.46081 4.08642 0
M  V30 3179 C 299.833 3.08655 5.44502 0
M  V30 3180 H 300.066 2.08597 2.11836 0
M  V30 3181 H 297.599 1.16475 1.01356 0
M  V30 3182 H 299.557 0.530901 4.07052 0
M  V30 3183 H 298.218 -0.170493 3.13637 0
M  V30 3184 H 297.411 1.53122 4.80177 0
M  V30 3185 H 297.013 2.02984 3.14123 0
M  V30 3186 H 299.305 2.58012 6.26447 0
M  V30 3187 H 300.248 4.03726 5.81731 0
M  V30 3188 H 300.656 2.45891 5.08132 0
M  V30 3189 N 300.054 -1.07777 1.14986 0
M  V30 3190 C 301.302 -1.79934 0.920235 0
M  V30 3191 C 301.623 -1.86955 -0.554336 0
M  V30 3192 O 300.893 -1.36731 -1.40291 0
M  V30 3193 H 299.473 -0.666424 0.337473 0
M  V30 3194 H 302.135 -1.3027 1.44968 0
M  V30 3195 H 301.231 -2.82539 1.32583 0
M  V30 3196 N 301.532 -0.945985 -1.26051 0
M  V30 3197 C 302.76 -0.613025 -1.9761 0
M  V30 3198 C 303.175 0.813035 -1.70397 0
M  V30 3199 O 302.532 1.54274 -0.974979 0
M  V30 3200 C 302.583 -0.85159 -3.51326 0
M  V30 3201 O 302.304 -2.22157 -3.77595 0
M  V30 3202 C 303.805 -0.529831 -4.40122 0
M  V30 3203 H 301.025 -0.230593 -0.630133 0
M  V30 3204 H 303.569 -1.268 -1.60443 0
M  V30 3205 H 301.724 -0.243151 -3.86636 0
M  V30 3206 H 302.138 -2.2852 -4.721 0
M  V30 3207 H 303.612 -0.747348 -5.46917 0
M  V30 3208 H 304.089 0.535341 -4.35925 0
M  V30 3209 H 304.695 -1.11721 -4.10364 0
M  V30 3210 N 303.011 1.40521 -0.713556 0
M  V30 3211 C 303.941 2.33381 -0.0743864 0
M  V30 3212 C 304.922 1.52784 0.747735 0
M  V30 3213 O 306.107 1.81258 0.697071 0
M  V30 3214 C 303.237 3.36748 0.849598 0
M  V30 3215 C 302.191 4.27793 0.133247 0
M  V30 3216 C 301.517 5.21679 1.17281 0
M  V30 3217 C 302.817 5.12415 -1.01134 0
M  V30 3218 H 304.511 2.87081 -0.850007 0
M  V30 3219 H 302.057 1.38034 -0.410201 0
M  V30 3220 H 304.01 4.00648 1.30612 0
M  V30 3221 H 302.734 2.81439 1.65709 0
M  V30 3222 H 301.393 3.65342 -0.303426 0
M  V30 3223 H 301.041 4.62677 1.9733 0
M  V30 3224 H 300.741 5.83435 0.698397 0
M  V30 3225 H 302.265 5.88456 1.62947 0
M  V30 3226 H 303.679 5.69781 -0.634274 0
M  V30 3227 H 302.076 5.83203 -1.41399 0
M  V30 3228 H 303.146 4.48514 -1.84292 0
M  V30 3229 N 304.489 0.459591 1.5075 0
M  V30 3230 C 305.719 -0.0972338 2.06371 0
M  V30 3231 C 306.127 -1.35074 1.32483 0
M  V30 3232 O 305.47 -1.79637 0.384226 0
M  V30 3233 C 305.532 -0.462759 3.56509 0
M  V30 3234 C 305.196 0.687084 4.51805 0
M  V30 3235 C 306.193 1.56578 4.95761 0
M  V30 3236 C 303.878 0.874144 4.94635 0
M  V30 3237 C 305.872 2.61604 5.81242 0
M  V30 3238 C 303.559 1.92765 5.79901 0
M  V30 3239 C 304.557 2.79697 6.23104 0
M  V30 3240 O 304.245 3.83235 7.06673 0
M  V30 3241 H 303.977 -0.00140687 0.675999 0
M  V30 3242 H 306.531 0.644011 1.95043 0
M  V30 3243 H 304.761 -1.25703 3.65699 0
M  V30 3244 H 306.45 -0.953323 3.94546 0
M  V30 3245 H 307.216 1.4329 4.6335 0
M  V30 3246 H 303.095 0.207006 4.60535 0
M  V30 3247 H 306.639 3.29489 6.14884 0
M  V30 3248 H 302.536 2.06064 6.11725 0
M  V30 3249 H 303.304 3.80084 7.24899 0
M  V30 3250 N 305.967 -1.56429 0.191757 0
M  V30 3251 C 307.213 -1.97777 -0.448554 0
M  V30 3252 C 307.546 -1.07847 -1.61501 0
M  V30 3253 O 306.821 -0.129774 -1.94067 0
M  V30 3254 C 307.104 -3.48362 -0.911906 0
M  V30 3255 C 306.957 -4.4907 0.256136 0
M  V30 3256 C 308.276 -4.02561 -1.77857 0
M  V30 3257 H 305.395 -0.719071 -0.161572 0
M  V30 3258 H 308.037 -1.87896 0.282007 0
M  V30 3259 H 306.187 -3.56914 -1.53442 0
M  V30 3260 H 307.859 -4.5256 0.893733 0
M  V30 3261 H 306.102 -4.24181 0.908436 0
M  V30 3262 H 306.773 -5.51889 -0.11053 0
M  V30 3263 H 309.249 -3.96767 -1.25359 0
M  V30 3264 H 308.125 -5.08301 -2.07174 0
M  V30 3265 H 308.386 -3.47616 -2.73158 0
M  V30 3266 N 307.445 0.0818655 -1.57387 0
M  V30 3267 C 308.395 1.10501 -1.99433 0
M  V30 3268 C 309.379 1.35041 -0.874798 0
M  V30 3269 O 310.571 1.35511 -1.13868 0
M  V30 3270 C 307.7 2.42159 -2.43339 0
M  V30 3271 C 306.786 2.20937 -3.62005 0
M  V30 3272 N 307.177 1.69616 -4.76512 0
M  V30 3273 C 305.475 2.51451 -3.68359 0
M  V30 3274 C 306.176 1.62973 -5.58404 0
M  V30 3275 N 305.152 2.08664 -5.01956 0
M  V30 3276 H 308.954 0.701373 -2.85408 0
M  V30 3277 H 306.468 0.289096 -1.59806 0
M  V30 3278 H 308.465 3.16208 -2.71695 0
M  V30 3279 H 307.125 2.83249 -1.58746 0
M  V30 3280 H 308.136 1.38624 -4.99003 0
M  V30 3281 H 304.813 2.95975 -2.94457 0
M  V30 3282 H 306.203 1.24233 -6.60315 0
M  V30 3283 N 308.923 1.53595 0.353017 0
M  V30 3284 C 309.856 1.7572 1.45594 0
M  V30 3285 C 310.834 0.605961 1.50887 0
M  V30 3286 O 312.018 0.840023 1.68748 0
M  V30 3287 C 309.145 1.84732 2.83887 0
M  V30 3288 C 308.191 3.06808 2.96262 0
M  V30 3289 S 309.024 4.66065 2.63711 0
M  V30 3290 C 310.18 4.77943 4.04131 0
M  V30 3291 H 310.413 2.68994 1.26608 0
M  V30 3292 H 307.946 1.44343 0.548117 0
M  V30 3293 H 309.904 1.9061 3.63563 0
M  V30 3294 H 308.565 0.92488 3.00175 0
M  V30 3295 H 307.758 3.09761 3.97573 0
M  V30 3296 H 307.36 2.99108 2.24523 0
M  V30 3297 H 309.652 4.5877 4.98534 0
M  V30 3298 H 310.595 5.80022 4.06177 0
M  V30 3299 H 311.003 4.06472 3.91715 0
M  V30 3300 N 310.401 -0.613514 1.45168 0
M  V30 3301 C 311.648 -1.37268 1.48875 0
M  V30 3302 C 311.976 -1.94077 0.128161 0
M  V30 3303 O 311.231 -1.75178 -0.872416 0
M  V30 3304 C 311.53 -2.54347 2.51083 0
M  V30 3305 C 311.196 -2.1572 3.95949 0
M  V30 3306 C 309.858 -2.04899 4.35396 0
M  V30 3307 C 312.21 -1.85485 4.87078 0
M  V30 3308 C 309.538 -1.62057 5.63875 0
M  V30 3309 C 311.89 -1.4413 6.15962 0
M  V30 3310 C 310.554 -1.31863 6.54346 0
M  V30 3311 H 309.824 -0.502299 0.544773 0
M  V30 3312 H 312.471 -0.694021 1.78481 0
M  V30 3313 H 310.776 -3.27524 2.15024 0
M  V30 3314 H 312.473 -3.12577 2.51191 0
M  V30 3315 H 309.063 -2.25066 3.64751 0
M  V30 3316 H 313.247 -1.92745 4.57343 0
M  V30 3317 H 308.503 -1.51177 5.92415 0
M  V30 3318 H 312.677 -1.19778 6.86022 0
M  V30 3319 H 310.304 -0.984392 7.538 0
M  V30 3320 N 311.879 -1.3236 -0.855495 0
M  V30 3321 C 312.809 -1.23833 -1.97958 0
M  V30 3322 C 313.79 -0.122361 -1.69659 0
M  V30 3323 O 314.975 -0.30939 -1.9172 0
M  V30 3324 C 312.105 -0.959772 -3.33775 0
M  V30 3325 C 311.059 -2.03689 -3.76424 0
M  V30 3326 C 310.385 -1.61075 -5.09862 0
M  V30 3327 C 311.685 -3.4518 -3.9198 0
M  V30 3328 H 313.379 -2.1788 -2.0535 0
M  V30 3329 H 310.925 -1.04891 -0.986605 0
M  V30 3330 H 312.878 -0.886678 -4.11966 0
M  V30 3331 H 311.602 0.0163404 -3.26596 0
M  V30 3332 H 310.261 -2.10012 -3.00484 0
M  V30 3333 H 309.909 -0.622107 -4.99138 0
M  V30 3334 H 309.609 -2.33143 -5.39368 0
M  V30 3335 H 311.133 -1.55201 -5.90546 0
M  V30 3336 H 312.547 -3.4145 -4.60526 0
M  V30 3337 H 310.944 -4.1559 -4.32903 0
M  V30 3338 H 312.014 -3.84903 -2.94919 0
M  V30 3339 N 313.357 1.07166 -1.15556 0
M  V30 3340 C 314.604 1.79798 -0.931604 0
M  V30 3341 C 314.932 1.8682 0.54115 0
M  V30 3342 O 314.187 1.34942 1.41736 0
M  V30 3343 C 314.486 3.24707 -1.49332 0
M  V30 3344 C 314.152 3.37781 -2.98688 0
M  V30 3345 C 312.814 3.41057 -3.39461 0
M  V30 3346 C 315.166 3.40424 -3.94665 0
M  V30 3347 C 312.494 3.4458 -4.74849 0
M  V30 3348 C 314.846 3.45485 -5.29927 0
M  V30 3349 C 313.51 3.47039 -5.70193 0
M  V30 3350 H 312.78 0.657928 -0.340898 0
M  V30 3351 H 315.427 1.26091 -1.44129 0
M  V30 3352 H 313.732 3.81208 -0.904859 0
M  V30 3353 H 315.429 3.79486 -1.29582 0
M  V30 3354 H 312.019 3.35932 -2.66172 0
M  V30 3355 H 316.203 3.37113 -3.64237 0
M  V30 3356 H 311.459 3.44083 -5.05388 0
M  V30 3357 H 315.633 3.46476 -6.04092 0
M  V30 3358 H 313.26 3.49522 -6.75084 0
M  V30 3359 N 314.835 0.952656 1.25548 0
M  V30 3360 C 315.798 0.475794 2.24207 0
M  V30 3361 C 316.798 -0.419428 1.55234 0
M  V30 3362 O 317.988 -0.216994 1.72843 0
M  V30 3363 C 315.12 -0.312814 3.39462 0
M  V30 3364 H 316.313 1.34779 2.67908 0
M  V30 3365 H 313.866 0.735739 1.37901 0
M  V30 3366 H 314.601 -1.20257 3.01179 0
M  V30 3367 H 314.386 0.329404 3.90714 0
M  V30 3368 H 315.876 -0.635986 4.12729 0
M  V30 3369 N 316.313 -1.40141 0.720998 0
M  V30 3370 C 317.729 -1.54632 0.395113 0
M  V30 3371 C 317.929 -1.69115 -1.09555 0
M  V30 3372 O 316.985 -1.68377 -1.88163 0
M  V30 3373 C 318.298 -2.77177 1.1659 0
M  V30 3374 C 319.846 -2.91 1.15274 0
M  V30 3375 C 320.321 -4.16465 1.90579 0
M  V30 3376 N 321.812 -4.23476 1.87675 0
M  V30 3377 C 322.547 -5.19475 2.42762 0
M  V30 3378 N 322.043 -6.21348 3.06428 0
M  V30 3379 N 323.836 -5.11592 2.32874 0
M  V30 3380 H 315.987 -1.28986 1.68749 0
M  V30 3381 H 318.25 -0.62412 0.713567 0
M  V30 3382 H 317.956 -2.72771 2.22011 0
M  V30 3383 H 317.83 -3.69442 0.76108 0
M  V30 3384 H 320.217 -2.94907 0.106702 0
M  V30 3385 H 320.298 -1.99838 1.59682 0
M  V30 3386 H 319.942 -4.1332 2.95176 0
M  V30 3387 H 319.872 -5.06646 1.43587 0
M  V30 3388 H 322.363 -3.50497 1.41281 0
M  V30 3389 H 322.676 -6.91034 3.45965 0
M  V30 3390 H 321.021 -6.21777 3.10514 0
M  V30 3391 H 324.212 -4.30936 1.82789 0
M  V30 3392 H 324.385 -5.86233 2.76106 0
M  V30 3393 N 317.792 -0.46758 -1.50504 0
M  V30 3394 C 318.722 0.318381 -2.31319 0
M  V30 3395 C 319.703 0.993564 -1.38066 0
M  V30 3396 O 320.888 0.991411 -1.66987 0
M  V30 3397 C 318.018 1.40275 -3.17711 0
M  V30 3398 C 316.972 0.849373 -4.19487 0
M  V30 3399 C 316.298 2.03177 -4.94594 0
M  V30 3400 C 317.598 -0.136942 -5.2212 0
M  V30 3401 H 319.292 -0.356106 -2.97275 0
M  V30 3402 H 316.838 -0.172703 -1.42961 0
M  V30 3403 H 318.791 1.96004 -3.73042 0
M  V30 3404 H 317.515 2.10596 -2.49634 0
M  V30 3405 H 316.174 0.314076 -3.65252 0
M  V30 3406 H 315.822 2.72187 -4.22993 0
M  V30 3407 H 315.522 1.66774 -5.63436 0
M  V30 3408 H 317.046 2.59403 -5.52759 0
M  V30 3409 H 318.46 0.331056 -5.72343 0
M  V30 3410 H 316.857 -0.41507 -5.98663 0
M  V30 3411 H 317.927 -1.06398 -4.73083 0
M  V30 3412 N 319.27 1.56325 -0.20005 0
M  V30 3413 C 320.22 2.15939 0.731743 0
M  V30 3414 C 321.204 1.10154 1.17281 0
M  V30 3415 O 322.396 1.36203 1.13038 0
M  V30 3416 C 319.525 2.82614 1.94895 0
M  V30 3417 C 318.611 3.95596 1.52855 0
M  V30 3418 N 319.002 4.99118 0.819418 0
M  V30 3419 C 317.3 4.07288 1.81748 0
M  V30 3420 C 318.001 5.78513 0.608053 0
M  V30 3421 N 316.977 5.31117 1.15828 0
M  V30 3422 H 320.779 2.9334 0.181285 0
M  V30 3423 H 318.293 1.624 -0.000452172 0
M  V30 3424 H 320.29 3.23718 2.62702 0
M  V30 3425 H 318.95 2.06702 2.50408 0
M  V30 3426 H 319.961 5.15723 0.47436 0
M  V30 3427 H 316.638 3.42509 2.38734 0
M  V30 3428 H 318.028 6.71885 0.0451619 0
M  V30 3429 N 320.748 -0.0735177 1.57428 0
M  V30 3430 C 321.994 -0.774145 1.87443 0
M  V30 3431 C 322.327 -1.77311 0.792103 0
M  V30 3432 O 321.602 -1.93492 -0.197793 0
M  V30 3433 C 321.885 -1.48367 3.28115 0
M  V30 3434 C 321.738 -0.501227 4.46999 0
M  V30 3435 C 323.057 -2.429 3.66998 0
M  V30 3436 H 320.176 -0.279971 0.681752 0
M  V30 3437 H 322.818 -0.0373616 1.89963 0
M  V30 3438 H 320.968 -2.11171 3.26097 0
M  V30 3439 H 322.64 0.121468 4.6114 0
M  V30 3440 H 320.883 0.183593 4.33411 0
M  V30 3441 H 321.554 -1.03526 5.42205 0
M  V30 3442 H 324.03 -1.90175 3.70098 0
M  V30 3443 H 322.906 -2.89549 4.66318 0
M  V30 3444 H 323.167 -3.27628 2.96837 0
M  V30 3445 N 322.226 -1.5378 -0.344866 0
M  V30 3446 C 323.173 -1.81676 -1.42346 0
M  V30 3447 C 324.143 -0.662376 -1.52321 0
M  V30 3448 O 325.328 -0.906675 -1.67881 0
M  V30 3449 C 322.468 -2.03087 -2.79015 0
M  V30 3450 C 321.581 -3.30799 -2.77842 0
M  V30 3451 C 320.716 -3.42285 -4.0622 0
M  V30 3452 C 319.755 -4.6395 -3.9927 0
M  V30 3453 N 318.892 -4.72477 -5.19336 0
M  V30 3454 H 323.732 -2.73703 -1.17858 0
M  V30 3455 H 321.269 -1.35568 -0.570949 0
M  V30 3456 H 323.227 -2.1349 -3.58438 0
M  V30 3457 H 321.857 -1.14375 -3.01858 0
M  V30 3458 H 320.909 -3.29244 -1.90533 0
M  V30 3459 H 322.221 -4.20314 -2.68584 0
M  V30 3460 H 321.375 -3.52113 -4.94066 0
M  V30 3461 H 320.114 -2.50823 -4.18258 0
M  V30 3462 H 319.119 -4.54201 -3.09809 0
M  V30 3463 H 320.344 -5.56775 -3.88817 0
M  V30 3464 H 318.29 -3.83924 -5.3192 0
M  V30 3465 H 318.207 -5.55927 -5.12329 0
M  V30 3466 H 319.475 -4.86613 -6.08957 0
M  V30 3467 N 323.704 0.605807 -1.45491 0
M  V30 3468 C 325.12 0.926751 -1.29936 0
M  V30 3469 C 325.32 1.99896 -0.253706 0
M  V30 3470 O 324.376 2.50038 0.351737 0
M  V30 3471 C 325.689 1.36599 -2.67883 0
M  V30 3472 C 327.237 1.4801 -2.75793 0
M  V30 3473 C 327.712 1.95309 -4.14268 0
M  V30 3474 N 329.203 2.0254 -4.16571 0
M  V30 3475 C 329.938 2.40363 -5.20589 0
M  V30 3476 N 329.434 2.77143 -6.34952 0
M  V30 3477 N 331.227 2.40718 -5.07948 0
M  V30 3478 H 323.378 -0.102862 -2.12151 0
M  V30 3479 H 325.641 0.016639 -0.947854 0
M  V30 3480 H 325.347 0.652306 -3.45598 0
M  V30 3481 H 325.221 2.33215 -2.96463 0
M  V30 3482 H 327.608 2.1847 -1.98381 0
M  V30 3483 H 327.689 0.497041 -2.50925 0
M  V30 3484 H 327.333 1.25436 -4.92167 0
M  V30 3485 H 327.263 2.94532 -4.3653 0
M  V30 3486 H 329.754 1.76699 -3.34045 0
M  V30 3487 H 330.067 3.0489 -7.10114 0
M  V30 3488 H 328.412 2.74834 -6.3835 0
M  V30 3489 H 331.603 2.11392 -4.1765 0
M  V30 3490 H 331.776 2.69869 -5.89131 0
M  V30 3491 N 325.182 1.32811 0.848464 0
M  V30 3492 C 326.431 1.23075 1.59798 0
M  V30 3493 C 326.744 -0.204419 1.94529 0
M  V30 3494 O 327.95 -0.423701 2.68173 0
M  V30 3495 C 326.406 2.15594 2.88179 0
M  V30 3496 C 326.014 3.64228 2.60849 0
M  V30 3497 C 327.758 2.14709 3.66197 0
M  V30 3498 C 325.665 4.48689 3.85269 0
M  V30 3499 H 324.595 0.457091 0.599653 0
M  V30 3500 H 327.246 1.57813 0.936342 0
M  V30 3501 H 325.628 1.73778 3.55833 0
M  V30 3502 H 326.802 4.14424 2.01467 0
M  V30 3503 H 325.117 3.67306 1.96151 0
M  V30 3504 H 327.714 2.75046 4.58534 0
M  V30 3505 H 328.057 1.13966 4.00397 0
M  V30 3506 H 328.59 2.54837 3.05455 0
M  V30 3507 H 325.329 5.5027 3.56207 0
M  V30 3508 H 324.849 4.03241 4.44024 0
M  V30 3509 H 326.528 4.62006 4.52946 0
M  V30 3510 N 326.66 -1.06551 1.16123 0
M  V30 3511 C 327.623 -2.12132 0.867906 0
M  V30 3512 C 328.623 -1.60224 -0.135944 0
M  V30 3513 O 329.813 -1.73943 0.0946422 0
M  V30 3514 C 326.945 -3.396 0.297419 0
M  V30 3515 H 328.138 -2.39586 1.80385 0
M  V30 3516 H 325.691 -1.22574 0.969812 0
M  V30 3517 H 326.426 -3.17794 -0.64633 0
M  V30 3518 H 326.211 -3.78581 1.02073 0
M  V30 3519 H 327.701 -4.17455 0.110052 0
M  V30 3520 N 328.138 -0.959301 -1.25041 0
M  V30 3521 C 329.101 -0.487677 -2.23952 0
M  V30 3522 C 330.101 0.41119 -1.55454 0
M  V30 3523 O 331.291 0.207825 -1.72956 0
M  V30 3524 C 328.423 0.294807 -3.39623 0
M  V30 3525 H 329.616 -1.36198 -2.67189 0
M  V30 3526 H 327.169 -0.743042 -1.37508 0
M  V30 3527 H 327.904 1.18658 -3.01813 0
M  V30 3528 H 327.689 -0.35012 -3.90534 0
M  V30 3529 H 329.179 0.614089 -4.1306 0
M  V30 3530 N 329.616 1.39756 -0.72842 0
M  V30 3531 C 330.546 2.33289 -0.0991354 0
M  V30 3532 C 331.527 1.53568 0.731489 0
M  V30 3533 O 332.712 1.81987 0.677807 0
M  V30 3534 C 329.842 3.3763 0.813834 0
M  V30 3535 C 328.796 4.2791 0.0878663 0
M  V30 3536 C 328.122 5.22894 1.11741 0
M  V30 3537 C 329.422 5.11314 -1.06563 0
M  V30 3538 H 331.116 2.86163 -0.880408 0
M  V30 3539 H 328.662 1.37591 -0.424819 0
M  V30 3540 H 330.615 4.0201 1.26355 0
M  V30 3541 H 329.339 2.83181 1.62715 0
M  V30 3542 H 327.998 3.65 -0.342159 0
M  V30 3543 H 327.646 4.64744 1.92412 0
M  V30 3544 H 327.346 5.84143 0.636477 0
M  V30 3545 H 328.87 5.90151 1.56697 0
M  V30 3546 H 330.284 5.69076 -0.694671 0
M  V30 3547 H 328.681 5.81671 -1.47577 0
M  V30 3548 H 329.751 4.46534 -1.89038 0
M  V30 3549 N 331.094 0.475555 1.50254 0
M  V30 3550 C 332.505 0.0215174 1.86688 0
M  V30 3551 C 332.856 -1.38467 1.39001 0
M  V30 3552 O 331.981 -2.02732 0.756894 0
M  V30 3553 C 332.576 0.0322715 3.38785 0
M  V30 3554 C 331.135 -0.366314 3.74613 0
M  V30 3555 C 330.282 0.415832 2.74164 0
M  V30 3556 H 333.233 0.689612 1.42934 0
M  V30 3557 H 333.254 -0.76889 3.7265 0
M  V30 3558 H 332.766 1.05584 3.73462 0
M  V30 3559 H 330.867 -1.39406 3.45538 0
M  V30 3560 H 330.98 -0.064555 4.79057 0
M  V30 3561 H 329.344 -0.131048 2.54363 0
M  V30 3562 H 330.127 1.43899 3.11686 0
M  V30 3563 N 332.573 -1.56217 0.208337 0
M  V30 3564 C 333.984 -1.84243 -0.301904 0
M  V30 3565 C 334.335 -1.12939 -1.60434 0
M  V30 3566 O 333.46 -0.39461 -2.12772 0
M  V30 3567 C 334.055 -3.34231 -0.554543 0
M  V30 3568 C 332.614 -3.62621 -1.00912 0
M  V30 3569 C 331.761 -2.77224 -0.064933 0
M  V30 3570 H 334.712 -1.52712 0.431833 0
M  V30 3571 H 334.733 -3.5372 -1.40223 0
M  V30 3572 H 334.245 -3.86099 0.393561 0
M  V30 3573 H 332.346 -3.16197 -1.97104 0
M  V30 3574 H 332.459 -4.7071 -0.892674 0
M  V30 3575 H 330.823 -2.48256 -0.56929 0
M  V30 3576 H 331.606 -3.31887 0.877851 0
M  V30 3577 N 334.051 0.0651679 -1.57465 0
M  V30 3578 C 335.014 1.06117 -2.03155 0
M  V30 3579 C 336.014 1.31204 -0.929632 0
M  V30 3580 O 337.204 1.26813 -1.19432 0
M  V30 3581 C 334.336 2.4032 -2.41783 0
M  V30 3582 H 335.529 0.667231 -2.92383 0
M  V30 3583 H 333.082 0.311075 -1.53173 0
M  V30 3584 H 333.817 2.84532 -1.55601 0
M  V30 3585 H 333.602 2.23451 -3.22199 0
M  V30 3586 H 335.092 3.11898 -2.77685 0
M  V30 3587 N 335.529 1.53961 0.336706 0
M  V30 3588 C 336.806 1.62171 1.09361 0
M  V30 3589 C 337.186 0.447263 2.06307 0
M  V30 3590 O 336.534 -0.559802 2.21537 0
M  V30 3591 C 336.744 2.98565 1.80721 0
M  V30 3592 C 338.092 3.54157 2.34218 0
M  V30 3593 O 339.116 3.00784 1.90807 0
M  V30 3594 O 337.975 4.47528 3.13657 0
M  V30 3595 H 335.069 0.6562 0.503319 0
M  V30 3596 H 337.615 1.66307 0.33765 0
M  V30 3597 H 336.387 3.75482 1.10132 0
M  V30 3598 H 336.01 2.9805 2.63158 0
M  V30 3599 N 337.007 -0.598083 1.45811 0
M  V30 3600 C 338.255 -1.35413 1.50026 0
M  V30 3601 C 338.576 -1.94444 0.147177 0
M  V30 3602 O 337.846 -1.77701 -0.824571 0
M  V30 3603 H 336.426 -0.502727 0.552517 0
M  V30 3604 H 339.088 -0.701606 1.81834 0
M  V30 3605 H 338.184 -2.16871 2.2444 0
M  V30 3606 N 338.485 -1.33259 -0.841409 0
M  V30 3607 C 339.731 -1.24757 -1.59886 0
M  V30 3608 C 340.064 0.186913 -1.93298 0
M  V30 3609 O 339.339 1.12757 -1.5848 0
M  V30 3610 C 339.622 -2.12036 -2.91055 0
M  V30 3611 C 339.475 -3.63929 -2.6434 0
M  V30 3612 C 340.794 -1.9916 -3.92458 0
M  V30 3613 H 337.913 -0.454542 -0.580138 0
M  V30 3614 H 340.555 -1.63335 -0.970647 0
M  V30 3615 H 338.705 -1.79265 -3.44669 0
M  V30 3616 H 340.377 -4.06978 -2.17178 0
M  V30 3617 H 338.62 -3.85935 -1.98082 0
M  V30 3618 H 339.291 -4.20341 -3.57796 0
M  V30 3619 H 341.767 -2.27895 -3.48143 0
M  V30 3620 H 340.643 -2.62484 -4.82072 0
M  V30 3621 H 340.904 -0.963082 -4.31482 0
M  V30 3622 N 339.963 1.05934 -1.16686 0
M  V30 3623 C 340.926 2.11669 -0.879144 0
M  V30 3624 C 341.926 1.60294 0.127445 0
M  V30 3625 O 343.116 1.7389 -0.103865 0
M  V30 3626 C 340.248 3.39438 -0.315425 0
M  V30 3627 H 341.441 2.38626 -1.81653 0
M  V30 3628 H 338.994 1.22058 -0.976299 0
M  V30 3629 H 339.729 3.18132 0.629468 0
M  V30 3630 H 339.514 3.78034 -1.04079 0
M  V30 3631 H 341.004 4.17391 -0.132189 0
M  V30 3632 N 341.441 0.965919 1.2453 0
M  V30 3633 C 342.852 0.665929 1.7442 0
M  V30 3634 C 343.203 -0.818407 1.78316 0
M  V30 3635 O 342.328 -1.64037 1.41141 0
M  V30 3636 C 342.923 1.20211 3.16757 0
M  V30 3637 C 341.482 0.952059 3.6416 0
M  V30 3638 C 340.629 1.33848 2.42858 0
M  V30 3639 H 343.58 1.14144 1.10258 0
M  V30 3640 H 343.601 0.567544 3.76244 0
M  V30 3641 H 343.113 2.28244 3.13889 0
M  V30 3642 H 341.214 -0.112821 3.72429 0
M  V30 3643 H 341.327 1.59645 4.51719 0
M  V30 3644 H 339.691 0.756864 2.43195 0
M  V30 3645 H 340.474 2.42827 2.42673 0
M  V30 3646 N 342.919 -1.39368 0.735821 0
M  V30 3647 C 343.851 -2.2913 0.0567723 0
M  V30 3648 C 344.864 -1.46859 -0.702589 0
M  V30 3649 O 346.053 -1.69925 -0.546616 0
M  V30 3650 C 343.153 -3.25492 -0.943823 0
M  V30 3651 C 342.326 -4.36709 -0.24581 0
M  V30 3652 C 341.385 -5.13376 -1.15463 0
M  V30 3653 O 340.411 -5.65683 -0.631803 0
M  V30 3654 N 341.613 -5.24656 -2.48427 0
M  V30 3655 H 344.378 -2.88047 0.827582 0
M  V30 3656 H 341.939 -1.50957 0.585112 0
M  V30 3657 H 343.931 -3.73657 -1.55443 0
M  V30 3658 H 342.501 -2.676 -1.61583 0
M  V30 3659 H 341.721 -3.9041 0.545286 0
M  V30 3660 H 343.009 -5.08244 0.237891 0
M  V30 3661 H 342.407 -4.83679 -2.93379 0
M  V30 3662 H 340.964 -5.76258 -3.04582 0
M  V30 3663 N 344.397 -0.483516 -1.5 0
M  V30 3664 C 345.329 0.340634 -2.26655 0
M  V30 3665 C 346.342 0.946152 -1.32483 0
M  V30 3666 O 347.531 0.832453 -1.579 0
M  V30 3667 C 344.631 1.4929 -3.04246 0
M  V30 3668 C 343.804 0.997903 -4.25865 0
M  V30 3669 C 342.863 2.02569 -4.85646 0
M  V30 3670 O 341.889 1.60128 -5.46212 0
M  V30 3671 N 343.091 3.3548 -4.73744 0
M  V30 3672 H 345.856 -0.316577 -2.98023 0
M  V30 3673 H 343.417 -0.315024 -1.58806 0
M  V30 3674 H 345.409 2.17766 -3.41116 0
M  V30 3675 H 343.979 2.05458 -2.35597 0
M  V30 3676 H 343.199 0.138617 -3.93956 0
M  V30 3677 H 344.487 0.645305 -5.04691 0
M  V30 3678 H 343.885 3.72661 -4.25605 0
M  V30 3679 H 342.442 3.99718 -5.14848 0
M  V30 3680 N 345.875 1.56104 -0.216619 0
M  V30 3681 C 346.825 2.16703 0.708798 0
M  V30 3682 C 347.809 1.11392 1.16106 0
M  V30 3683 O 349.001 1.37395 1.11587 0
M  V30 3684 C 346.13 2.84666 1.91886 0
M  V30 3685 C 345.216 3.97195 1.48651 0
M  V30 3686 N 345.607 4.99959 0.766434 0
M  V30 3687 C 343.905 4.09193 1.77418 0
M  V30 3688 C 344.606 5.79126 0.546659 0
M  V30 3689 N 343.582 5.32315 1.10188 0
M  V30 3690 H 347.384 2.93516 0.150162 0
M  V30 3691 H 344.898 1.6239 -0.0176768 0
M  V30 3692 H 346.895 3.26486 2.59253 0
M  V30 3693 H 345.555 2.09347 2.48202 0
M  V30 3694 H 346.566 5.16197 0.419634 0
M  V30 3695 H 343.243 3.45021 2.35088 0
M  V30 3696 H 344.633 6.71895 -0.026103 0
M  V30 3697 N 347.353 -0.0568162 1.57498 0
M  V30 3698 C 348.578 -0.769402 1.92601 0
M  V30 3699 C 349.003 -1.69559 0.814336 0
M  V30 3700 O 348.361 -1.79811 -0.231903 0
M  V30 3701 C 348.409 -1.52634 3.26704 0
M  V30 3702 O 347.513 -2.63797 3.16994 0
M  V30 3703 H 346.854 -0.208909 0.63028 0
M  V30 3704 H 349.384 -0.0205798 2.0459 0
M  V30 3705 H 349.394 -1.90234 3.60936 0
M  V30 3706 H 348.069 -0.846875 4.07186 0
M  V30 3707 H 346.646 -2.28943 2.94346 0
M  V30 3708 N 348.832 -1.54138 -0.328536 0
M  V30 3709 C 350.072 -1.73827 -1.07534 0
M  V30 3710 C 350.436 -0.498777 -1.85408 0
M  V30 3711 O 351.637 -0.572937 -2.62623 0
M  V30 3712 C 349.908 -2.97573 -1.97952 0
M  V30 3713 S 351.467 -3.38143 -2.79652 0
M  V30 3714 H 348.285 -0.611287 -0.36311 0
M  V30 3715 H 350.887 -1.92306 -0.351931 0
M  V30 3716 H 349.591 -3.85939 -1.39569 0
M  V30 3717 H 349.122 -2.81603 -2.74706 0
M  V30 3718 H 351.137 -2.93052 -4.00418 0
M  V30 3719 N 350.31 0.590341 -1.46126 0
M  V30 3720 C 351.243 1.71434 -1.50617 0
M  V30 3721 C 352.221 1.58543 -0.360948 0
M  V30 3722 O 353.405 1.79865 -0.563985 0
M  V30 3723 C 350.532 3.09422 -1.37753 0
M  V30 3724 C 349.578 3.40854 -2.5636 0
M  V30 3725 S 350.411 3.33773 -4.18755 0
M  V30 3726 C 351.567 4.74312 -4.08386 0
M  V30 3727 H 351.8 1.67364 -2.45717 0
M  V30 3728 H 349.333 0.76845 -1.33919 0
M  V30 3729 H 351.291 3.8903 -1.31018 0
M  V30 3730 H 349.952 3.10989 -0.440949 0
M  V30 3731 H 349.145 4.41368 -2.43332 0
M  V30 3732 H 348.747 2.68798 -2.60046 0
M  V30 3733 H 351.039 5.64522 -3.74595 0
M  V30 3734 H 351.982 4.92397 -5.08872 0
M  V30 3735 H 352.39 4.50803 -3.3976 0
M  V30 3736 N 351.788 1.33704 0.83433 0
M  V30 3737 C 352.735 1.24335 1.94447 0
M  V30 3738 C 353.705 0.120991 1.65659 0
M  V30 3739 O 354.89 0.300035 1.88426 0
M  V30 3740 C 352.03 0.993124 3.30501 0
M  V30 3741 C 351.143 2.20217 3.71657 0
M  V30 3742 C 350.278 1.88572 4.96602 0
M  V30 3743 C 349.317 3.05683 5.30306 0
M  V30 3744 N 348.454 2.73997 6.46429 0
M  V30 3745 H 353.294 2.1928 2.01792 0
M  V30 3746 H 350.831 1.09035 0.987404 0
M  V30 3747 H 352.789 0.828467 4.08892 0
M  V30 3748 H 351.419 0.0803902 3.227 0
M  V30 3749 H 350.471 2.47642 2.88752 0
M  V30 3750 H 351.783 3.07752 3.92543 0
M  V30 3751 H 350.937 1.68776 5.82752 0
M  V30 3752 H 349.676 0.982799 4.77695 0
M  V30 3753 H 348.681 3.26088 4.42659 0
M  V30 3754 H 349.906 3.96737 5.51159 0
M  V30 3755 H 347.852 1.86268 6.28999 0
M  V30 3756 H 347.769 3.55064 6.67432 0
M  V30 3757 H 349.037 2.57679 7.35678 0
M  V30 3758 N 353.266 -1.05314 1.17247 0
M  V30 3759 C 354.514 -1.77941 0.958194 0
M  V30 3760 C 354.835 -1.88089 -0.514556 0
M  V30 3761 O 354.105 -1.39676 -1.37359 0
M  V30 3762 H 352.685 -0.659116 0.351533 0
M  V30 3763 H 355.347 -1.27166 1.47699 0
M  V30 3764 H 354.443 -2.79663 1.38546 0
M  V30 3765 N 354.744 -0.972509 -1.24016 0
M  V30 3766 C 355.707 -0.511403 -2.23422 0
M  V30 3767 C 356.707 0.394679 -1.55881 0
M  V30 3768 O 357.897 0.189469 -1.73167 0
M  V30 3769 C 355.029 0.258769 -3.39916 0
M  V30 3770 H 356.222 -1.39024 -2.6573 0
M  V30 3771 H 353.775 -0.757585 -1.36713 0
M  V30 3772 H 354.51 1.1545 -3.03054 0
M  V30 3773 H 354.295 -0.391522 -3.9014 0
M  V30 3774 H 355.785 0.570244 -4.13688 0
M  V30 3775 N 356.222 1.38976 -0.743202 0
M  V30 3776 C 357.468 2.0064 -0.295189 0
M  V30 3777 C 357.801 1.5885 1.11716 0
M  V30 3778 O 357.076 0.821181 1.76315 0
M  V30 3779 C 357.359 3.578 -0.406318 0
M  V30 3780 C 357.212 4.09586 -1.85903 0
M  V30 3781 C 358.531 4.39616 0.206439 0
M  V30 3782 H 355.65 0.728935 -0.108733 0
M  V30 3783 H 358.292 1.65067 -0.940897 0
M  V30 3784 H 356.442 3.88235 0.143419 0
M  V30 3785 H 358.114 3.89837 -2.46627 0
M  V30 3786 H 356.357 3.6284 -2.3776 0
M  V30 3787 H 357.028 5.18708 -1.888 0
M  V30 3788 H 359.504 4.15273 -0.262283 0
M  V30 3789 H 358.38 5.48812 0.0983819 0
M  V30 3790 H 358.641 4.22754 1.2935 0
M  V30 3791 N 357.7 0.491464 1.49741 0
M  V30 3792 C 358.928 -0.0535151 2.06831 0
M  V30 3793 C 359.343 -1.31683 1.35296 0
M  V30 3794 O 358.7 -1.77402 0.42836 0
M  V30 3795 C 358.751 -0.320835 3.60073 0
M  V30 3796 O 358.472 0.892394 4.28915 0
M  V30 3797 C 359.973 -0.910519 4.33848 0
M  V30 3798 H 357.193 0.0161909 0.670805 0
M  V30 3799 H 359.737 0.68609 1.92647 0
M  V30 3800 H 357.892 -1.0104 3.73991 0
M  V30 3801 H 358.306 0.649401 5.20464 0
M  V30 3802 H 359.78 -1.04721 5.41976 0
M  V30 3803 H 360.257 -1.90589 3.95692 0
M  V30 3804 H 360.863 -0.258712 4.24512 0
M  V30 3805 N 359.178 -1.55987 0.224894 0
M  V30 3806 C 360.427 -1.97566 -0.406273 0
M  V30 3807 C 360.74 -1.11569 -1.6066 0
M  V30 3808 O 361.946 -1.43062 -2.3075 0
M  V30 3809 C 360.402 -3.51474 -0.774207 0
M  V30 3810 C 360.01 -4.46179 0.403496 0
M  V30 3811 C 361.754 -4.01758 -1.37079 0
M  V30 3812 C 359.661 -5.91399 0.0129412 0
M  V30 3813 H 358.591 -0.737777 -0.155565 0
M  V30 3814 H 361.242 -1.80659 0.321635 0
M  V30 3815 H 359.624 -3.63994 -1.55963 0
M  V30 3816 H 360.798 -4.45409 1.18101 0
M  V30 3817 H 359.113 -4.06255 0.913536 0
M  V30 3818 H 361.71 -5.07756 -1.67596 0
M  V30 3819 H 362.053 -3.47805 -2.28773 0
M  V30 3820 H 362.586 -3.92475 -0.648733 0
M  V30 3821 H 359.325 -6.49341 0.896451 0
M  V30 3822 H 358.845 -5.95356 -0.728821 0
M  V30 3823 H 360.524 -6.45683 -0.412582 0
M  V30 3824 N 360.656 0.0484629 -1.57525 0
M  V30 3825 C 361.884 0.755421 -1.92616 0
M  V30 3826 C 362.299 1.69919 -0.822984 0
M  V30 3827 O 361.656 1.81378 0.202085 0
M  V30 3828 C 361.707 1.52915 -3.27566 0
M  V30 3829 O 361.428 0.62329 -4.33644 0
M  V30 3830 C 362.929 2.33502 -3.76818 0
M  V30 3831 H 360.149 0.213465 -0.63614 0
M  V30 3832 H 362.693 0.0117698 -2.04497 0
M  V30 3833 H 360.848 2.22486 -3.17142 0
M  V30 3834 H 361.262 1.16383 -5.11425 0
M  V30 3835 H 362.736 2.83214 -4.73808 0
M  V30 3836 H 363.213 3.14068 -3.07014 0
M  V30 3837 H 363.819 1.69043 -3.90262 0
M  V30 3838 N 362.134 1.5431 0.320358 0
M  V30 3839 C 363.383 1.7188 1.05546 0
M  V30 3840 C 363.696 0.501143 1.89071 0
M  V30 3841 O 364.902 0.558258 2.65699 0
M  V30 3842 C 363.358 3.04025 1.92605 0
M  V30 3843 C 362.966 4.33207 1.14176 0
M  V30 3844 C 364.71 3.30959 2.65832 0
M  V30 3845 C 362.617 5.56412 2.00399 0
M  V30 3846 H 361.547 0.640547 0.397763 0
M  V30 3847 H 364.198 1.80802 0.313522 0
M  V30 3848 H 362.58 2.89019 2.7071 0
M  V30 3849 H 363.754 4.58989 0.40819 0
M  V30 3850 H 362.069 4.13062 0.526165 0
M  V30 3851 H 364.666 4.20203 3.30656 0
M  V30 3852 H 365.009 2.48979 3.33639 0
M  V30 3853 H 365.542 3.46847 1.94787 0
M  V30 3854 H 362.281 6.41004 1.37094 0
M  V30 3855 H 361.801 5.34844 2.7148 0
M  V30 3856 H 363.48 5.92938 2.58908 0
M  V30 3857 N 363.613 -0.582584 1.46437 0
M  V30 3858 C 364.543 -1.70187 1.59871 0
M  V30 3859 C 365.524 -1.64066 0.449042 0
M  V30 3860 O 366.709 -1.82081 0.6753 0
M  V30 3861 C 363.839 -3.08827 1.58881 0
M  V30 3862 C 362.793 -3.29779 2.72819 0
M  V30 3863 C 362.119 -4.68947 2.5689 0
M  V30 3864 C 363.419 -3.17601 4.1464 0
M  V30 3865 H 365.113 -1.592 2.53566 0
M  V30 3866 H 362.659 -0.764472 1.22032 0
M  V30 3867 H 364.612 -3.86951 1.66873 0
M  V30 3868 H 363.336 -3.20713 0.617306 0
M  V30 3869 H 361.995 -2.54054 2.64296 0
M  V30 3870 H 361.643 -4.77599 1.57823 0
M  V30 3871 H 361.343 -4.83919 3.33312 0
M  V30 3872 H 362.867 -5.4924 2.66773 0
M  V30 3873 H 364.281 -3.8557 4.24274 0
M  V30 3874 H 362.678 -3.44094 4.9165 0
M  V30 3875 H 363.748 -2.14681 4.34788 0
M  V30 3876 N 365.091 -1.34144 -0.827227 0
M  V30 3877 C 366.021 -1.28005 -1.95287 0
M  V30 3878 C 367.002 -0.158321 -1.69362 0
M  V30 3879 O 368.187 -0.349987 -1.9102 0
M  V30 3880 C 365.317 -1.03036 -3.31664 0
M  V30 3881 C 364.271 -2.11628 -3.72019 0
M  V30 3882 C 363.597 -1.71854 -5.0633 0
M  V30 3883 C 364.897 -3.53417 -3.8457 0
M  V30 3884 H 366.591 -2.22187 -2.00682 0
M  V30 3885 H 364.137 -1.0696 -0.964135 0
M  V30 3886 H 366.09 -0.973863 -4.09993 0
M  V30 3887 H 364.814 -0.0529391 -3.26557 0
M  V30 3888 H 363.473 -2.16339 -2.95961 0
M  V30 3889 H 363.121 -0.727841 -4.97706 0
M  V30 3890 H 362.821 -2.44531 -5.34302 0
M  V30 3891 H 364.345 -1.67692 -5.87122 0
M  V30 3892 H 365.759 -3.51142 -4.5318 0
M  V30 3893 H 364.156 -4.24679 -4.2399 0
M  V30 3894 H 365.226 -3.91072 -2.86689 0
M  V30 3895 N 366.569 1.04691 -1.17803 0
M  V30 3896 C 367.817 1.7743 -0.967617 0
M  V30 3897 C 368.138 1.88359 0.504574 0
M  V30 3898 O 367.408 1.40402 1.36617 0
M  V30 3899 H 365.988 0.657242 -0.355024 0
M  V30 3900 H 368.65 1.2638 -1.48371 0
M  V30 3901 H 367.746 2.78924 -1.40027 0
M  V30 3902 N 368.047 0.979072 1.23499 0
M  V30 3903 C 369.293 0.648178 1.92163 0
M  V30 3904 C 369.626 -0.816049 1.76222 0
M  V30 3905 O 368.901 -1.58849 1.12237 0
M  V30 3906 C 369.184 1.03773 3.44824 0
M  V30 3907 C 369.037 2.55948 3.69879 0
M  V30 3908 C 370.356 0.580653 4.36253 0
M  V30 3909 H 367.475 0.236952 0.69787 0
M  V30 3910 H 370.117 1.22012 1.45647 0
M  V30 3911 H 368.267 0.551058 3.84572 0
M  V30 3912 H 369.939 3.12179 3.3962 0
M  V30 3913 H 368.182 2.98641 3.14636 0
M  V30 3914 H 368.853 2.78255 4.76737 0
M  V30 3915 H 371.329 0.998465 4.03943 0
M  V30 3916 H 370.205 0.881663 5.41773 0
M  V30 3917 H 370.466 -0.519052 4.39042 0
M  V30 3918 N 369.525 -1.3858 0.750561 0
M  V30 3919 C 370.772 -2.00184 0.305373 0
M  V30 3920 C 371.1 -1.59575 -1.11203 0
M  V30 3921 O 370.355 -0.823236 -1.77542 0
M  V30 3922 C 370.654 -3.55455 0.372373 0
M  V30 3923 C 370.32 -4.15765 1.745 0
M  V30 3924 C 368.982 -4.31951 2.12065 0
M  V30 3925 C 371.334 -4.49067 2.64553 0
M  V30 3926 C 368.662 -4.78734 3.39162 0
M  V30 3927 C 371.014 -4.97265 3.91038 0
M  V30 3928 C 369.678 -5.11658 4.28676 0
M  V30 3929 H 368.948 -0.732526 0.111744 0
M  V30 3930 H 371.595 -1.65673 0.960451 0
M  V30 3931 H 369.9 -3.90084 -0.366272 0
M  V30 3932 H 371.597 -4.00999 0.00953918 0
M  V30 3933 H 368.187 -4.03579 1.44297 0
M  V30 3934 H 372.371 -4.36166 2.36796 0
M  V30 3935 H 367.627 -4.88062 3.68246 0
M  V30 3936 H 371.801 -5.22003 4.60962 0
M  V30 3937 H 369.428 -5.47668 5.27222 0
M  V30 3938 N 371.003 -0.499398 -1.49478 0
M  V30 3939 C 372.252 0.0475259 -2.01644 0
M  V30 3940 C 372.565 1.38195 -1.38425 0
M  V30 3941 O 373.771 2.01547 -1.8191 0
M  V30 3942 C 372.227 0.135164 -3.59646 0
M  V30 3943 C 371.835 -1.19252 -4.31837 0
M  V30 3944 C 373.579 0.632538 -4.19761 0
M  V30 3945 C 371.486 -1.06713 -5.81693 0
M  V30 3946 H 370.416 0.0215349 -0.753692 0
M  V30 3947 H 373.067 -0.638577 -1.7203 0
M  V30 3948 H 371.449 0.885681 -3.85969 0
M  V30 3949 H 372.623 -1.9562 -4.17216 0
M  V30 3950 H 370.938 -1.62321 -3.83459 0
M  V30 3951 H 373.535 0.743833 -5.29501 0
M  V30 3952 H 373.878 1.63098 -3.83021 0
M  V30 3953 H 374.411 -0.0613987 -3.97753 0
M  V30 3954 H 371.15 -2.03979 -6.22955 0
M  V30 3955 H 370.67 -0.344307 -5.98811 0
M  V30 3956 H 372.349 -0.745208 -6.42694 0
M  V30 3957 N 372.481 1.55866 -0.233164 0
M  V30 3958 C 373.728 1.98603 0.395374 0
M  V30 3959 C 374.056 1.12105 1.58942 0
M  V30 3960 O 373.311 0.168656 1.94972 0
M  V30 3961 C 373.61 3.46856 0.861724 0
M  V30 3962 C 373.276 4.50348 -0.223066 0
M  V30 3963 C 371.938 4.78371 -0.521038 0
M  V30 3964 C 374.29 5.12355 -0.956124 0
M  V30 3965 C 371.618 5.6568 -1.55638 0
M  V30 3966 C 373.97 6.00786 -1.98089 0
M  V30 3967 C 372.634 6.27148 -2.28565 0
M  V30 3968 H 371.904 0.726739 0.144677 0
M  V30 3969 H 374.551 1.88491 -0.338114 0
M  V30 3970 H 372.856 3.5423 1.67418 0
M  V30 3971 H 374.553 3.77302 1.35809 0
M  V30 3972 H 371.143 4.28596 0.0193234 0
M  V30 3973 H 375.327 4.90765 -0.739166 0
M  V30 3974 H 370.583 5.84365 -1.798 0
M  V30 3975 H 374.757 6.4788 -2.55391 0
M  V30 3976 H 372.384 6.94597 -3.08932 0
M  V30 3977 N 373.959 -0.0401083 1.57549 0
M  V30 3978 C 375.199 -0.738098 1.90608 0
M  V30 3979 C 375.563 -1.73107 0.830539 0
M  V30 3980 O 376.764 -2.4765 1.04513 0
M  V30 3981 C 375.035 -1.39985 3.28845 0
M  V30 3982 S 376.594 -2.12852 3.83718 0
M  V30 3983 H 373.412 -0.24477 0.667539 0
M  V30 3984 H 376.014 0.00693599 1.95499 0
M  V30 3985 H 374.718 -0.663775 4.04997 0
M  V30 3986 H 374.249 -2.18366 3.2723 0
M  V30 3987 H 376.264 -3.39842 3.61555 0
M  V30 3988 N 375.437 -1.54477 -0.31217 0
M  V30 3989 C 376.683 -1.74417 -1.04644 0
M  V30 3990 C 377.038 -0.517641 -1.85306 0
M  V30 3991 O 376.331 0.489973 -1.85229 0
M  V30 3992 C 376.525 -2.967 -1.99258 0
M  V30 3993 C 376.354 -4.31128 -1.27901 0
M  V30 3994 C 375.124 -4.95087 -1.01079 0
M  V30 3995 C 377.322 -5.09662 -0.689119 0
M  V30 3996 N 375.304 -6.13322 -0.266323 0
M  V30 3997 C 376.675 -6.19952 -0.0768523 0
M  V30 3998 C 378.73 -4.94355 -0.593061 0
M  V30 3999 C 377.433 -7.16604 0.622165 0
M  V30 4000 C 379.459 -5.91328 0.0922792 0
M  V30 4001 C 378.821 -7.00978 0.693443 0
M  V30 4002 H 374.92 -0.69094 -0.366231 0
M  V30 4003 H 377.504 -1.91946 -0.326319 0
M  V30 4004 H 375.675 -2.80616 -2.68532 0
M  V30 4005 H 377.407 -3.05216 -2.65755 0
M  V30 4006 H 374.162 -4.55235 -1.30607 0
M  V30 4007 H 374.586 -6.76937 0.0920973 0
M  V30 4008 H 379.228 -4.09719 -1.04355 0
M  V30 4009 H 376.946 -8.0079 1.08445 0
M  V30 4010 H 380.532 -5.81562 0.166396 0
M  V30 4011 H 379.412 -7.74725 1.21533 0
M  V30 4012 N 376.915 0.57481 -1.46744 0
M  V30 4013 C 377.878 1.66533 -1.57478 0
M  V30 4014 C 378.878 1.54338 -0.451263 0
M  V30 4015 O 380.068 1.58814 -0.715813 0
M  V30 4016 C 377.2 3.05999 -1.50259 0
M  V30 4017 H 378.393 1.58372 -2.54673 0
M  V30 4018 H 375.946 0.793301 -1.34672 0
M  V30 4019 H 376.681 3.19709 -0.543725 0
M  V30 4020 H 376.466 3.16259 -2.31781 0
M  V30 4021 H 377.956 3.8537 -1.60872 0
M  V30 4022 N 378.394 1.34581 0.820102 0
M  V30 4023 C 379.805 1.24298 1.39309 0
M  V30 4024 C 380.156 -0.130351 1.95767 0
M  V30 4025 O 379.281 -1.0308 1.90272 0
M  V30 4026 C 379.876 2.25054 2.53251 0
M  V30 4027 C 378.435 2.18552 3.0645 0
M  V30 4028 C 377.582 2.11503 1.79337 0
M  V30 4029 H 380.533 1.45906 0.624262 0
M  V30 4030 H 380.554 1.86917 3.31425 0
M  V30 4031 H 380.066 3.24996 2.1213 0
M  V30 4032 H 378.167 1.21976 3.52069 0
M  V30 4033 H 378.28 3.0993 3.65349 0
M  V30 4034 H 376.644 1.57268 2.00347 0
M  V30 4035 H 377.427 3.13284 1.40386 0
M  V30 4036 N 379.872 -1.04064 1.18357 0
M  V30 4037 C 381.119 -1.77265 0.978947 0
M  V30 4038 C 381.447 -1.88189 -0.491428 0
M  V30 4039 O 380.702 -1.38653 -1.38108 0
M  V30 4040 C 381.001 -3.20634 1.57888 0
M  V30 4041 C 380.667 -3.29743 3.07539 0
M  V30 4042 C 379.329 -3.31937 3.48384 0
M  V30 4043 C 381.681 -3.29841 4.03552 0
M  V30 4044 C 379.009 -3.3187 4.83818 0
M  V30 4045 C 381.361 -3.31313 5.38901 0
M  V30 4046 C 380.025 -3.31799 5.79194 0
M  V30 4047 H 379.295 -0.648659 0.358222 0
M  V30 4048 H 381.942 -1.22225 1.47422 0
M  V30 4049 H 380.247 -3.78675 1.00561 0
M  V30 4050 H 381.944 -3.75917 1.39598 0
M  V30 4051 H 378.534 -3.28757 2.74986 0
M  V30 4052 H 382.718 -3.27337 3.73047 0
M  V30 4053 H 377.974 -3.30562 5.14333 0
M  V30 4054 H 382.148 -3.30338 6.13066 0
M  V30 4055 H 379.775 -3.315 6.84114 0
M  V30 4056 N 381.35 -0.985608 -1.22978 0
M  V30 4057 C 382.597 -0.657386 -1.91532 0
M  V30 4058 C 382.925 0.809707 -1.76845 0
M  V30 4059 O 382.18 1.60021 -1.12658 0
M  V30 4060 C 382.479 -1.00014 -3.43121 0
M  V30 4061 C 382.145 -2.4583 -3.77993 0
M  V30 4062 C 380.807 -2.85679 -3.87222 0
M  V30 4063 C 383.159 -3.40378 -3.94705 0
M  V30 4064 C 380.487 -4.19081 -4.10595 0
M  V30 4065 C 382.839 -4.73429 -4.1958 0
M  V30 4066 C 381.503 -5.1303 -4.27032 0
M  V30 4067 H 380.773 -0.240555 -0.700867 0
M  V30 4068 H 383.42 -1.24044 -1.45895 0
M  V30 4069 H 381.725 -0.335072 -3.90365 0
M  V30 4070 H 383.422 -0.724322 -3.94404 0
M  V30 4071 H 380.012 -2.13939 -3.71387 0
M  V30 4072 H 384.196 -3.10766 -3.8696 0
M  V30 4073 H 379.452 -4.49362 -4.14589 0
M  V30 4074 H 383.626 -5.46644 -4.31455 0
M  V30 4075 H 381.253 -6.16418 -4.44896 0
M  V30 4076 N 382.828 1.3818 -0.7579 0
M  V30 4077 C 383.758 2.33027 -0.148597 0
M  V30 4078 C 384.739 1.55085 0.69875 0
M  V30 4079 O 385.924 1.83384 0.639053 0
M  V30 4080 C 383.054 3.3928 0.742034 0
M  V30 4081 C 382.008 4.28 -0.00291946 0
M  V30 4082 C 381.334 5.25146 1.00625 0
M  V30 4083 C 382.634 5.08938 -1.17385 0
M  V30 4084 H 384.328 2.84231 -0.940909 0
M  V30 4085 H 381.874 1.36659 -0.453908 0
M  V30 4086 H 383.827 4.046 1.17799 0
M  V30 4087 H 382.551 2.86569 1.56671 0
M  V30 4088 H 381.21 3.64192 -0.419504 0
M  V30 4089 H 380.858 4.68721 1.8251 0
M  V30 4090 H 380.558 5.85361 0.512428 0
M  V30 4091 H 382.082 5.93342 1.44143 0
M  V30 4092 H 383.496 5.67474 -0.815224 0
M  V30 4093 H 381.893 5.7841 -1.59882 0
M  V30 4094 H 382.963 4.42424 -1.98468 0
M  V30 4095 N 384.306 0.507319 1.49211 0
M  V30 4096 C 385.256 -0.287112 2.26185 0
M  V30 4097 C 386.24 -0.929983 1.31302 0
M  V30 4098 O 387.432 -0.836538 1.55984 0
M  V30 4099 C 384.561 -1.34718 3.15763 0
M  V30 4100 C 383.647 -0.710235 4.18111 0
M  V30 4101 N 384.038 0.190836 5.0544 0
M  V30 4102 C 382.336 -0.97009 4.35322 0
M  V30 4103 C 383.037 0.55606 5.79036 0
M  V30 4104 N 382.013 -0.0775232 5.43545 0
M  V30 4105 H 385.815 0.406445 2.91076 0
M  V30 4106 H 383.329 0.323814 1.59139 0
M  V30 4107 H 385.326 -1.92982 3.69545 0
M  V30 4108 H 383.986 -2.04235 2.52424 0
M  V30 4109 H 384.997 0.562047 5.14841 0
M  V30 4110 H 381.674 -1.65753 3.83187 0
M  V30 4111 H 383.064 1.2936 6.5933 0
M  V30 4112 N 385.784 -1.5574 0.241426 0
M  V30 4113 C 386.714 -2.24133 -0.654722 0
M  V30 4114 C 387.695 -1.21974 -1.1856 0
M  V30 4115 O 388.88 -1.50612 -1.22595 0
M  V30 4116 C 386.01 -2.93659 -1.85423 0
M  V30 4117 C 384.964 -4.0246 -1.45636 0
M  V30 4118 C 384.29 -4.59383 -2.73626 0
M  V30 4119 C 385.59 -5.18468 -0.631506 0
M  V30 4120 H 387.284 -2.99281 -0.0844353 0
M  V30 4121 H 384.83 -1.43947 -0.0391707 0
M  V30 4122 H 386.783 -3.40203 -2.48676 0
M  V30 4123 H 385.507 -2.15991 -2.44981 0
M  V30 4124 H 384.166 -3.56676 -0.847202 0
M  V30 4125 H 383.814 -3.78422 -3.3137 0
M  V30 4126 H 383.514 -5.32826 -2.4773 0
M  V30 4127 H 385.038 -5.08658 -3.37786 0
M  V30 4128 H 386.452 -5.61272 -1.1682 0
M  V30 4129 H 384.849 -5.98266 -0.468831 0
M  V30 4130 H 385.919 -4.8358 0.357506 0
M  V30 4131 N 387.262 0.0317525 -1.57568 0
M  V30 4132 C 388.508 0.724175 -1.8943 0
M  V30 4133 C 388.841 1.75149 -0.838836 0
M  V30 4134 O 388.116 1.93948 0.146422 0
M  V30 4135 C 388.399 1.39615 -3.31933 0
M  V30 4136 C 388.252 0.382537 -4.4817 0
M  V30 4137 C 389.571 2.33084 -3.73309 0
M  V30 4138 H 386.69 0.261797 -0.688935 0
M  V30 4139 H 389.332 -0.013017 -1.89996 0
M  V30 4140 H 387.482 2.02451 -3.31581 0
M  V30 4141 H 389.154 -0.243689 -4.60656 0
M  V30 4142 H 387.397 -0.29844 -4.32772 0
M  V30 4143 H 388.068 0.891145 -5.44759 0
M  V30 4144 H 390.544 1.80295 -3.7501 0
M  V30 4145 H 389.42 2.77084 -4.73831 0
M  V30 4146 H 389.681 3.19643 -3.05419 0
M  V30 4147 N 388.74 1.54641 0.303973 0
M  V30 4148 C 389.67 1.88386 1.3796 0
M  V30 4149 C 390.651 0.742485 1.5304 0
M  V30 4150 O 391.836 0.997959 1.66597 0
M  V30 4151 C 388.966 2.12854 2.74427 0
M  V30 4152 C 387.92 3.28702 2.74115 0
M  V30 4153 C 387.246 3.38582 4.13844 0
M  V30 4154 C 388.546 4.65881 2.3612 0
M  V30 4155 H 390.24 2.78474 1.09966 0
M  V30 4156 H 387.786 1.33988 0.527556 0
M  V30 4157 H 389.739 2.35047 3.49758 0
M  V30 4158 H 388.463 1.19535 3.03939 0
M  V30 4159 H 387.122 3.06428 2.0124 0
M  V30 4160 H 386.77 2.42784 4.40528 0
M  V30 4161 H 386.47 4.16453 4.14537 0
M  V30 4162 H 387.994 3.63031 4.90959 0
M  V30 4163 H 389.408 4.87823 3.01167 0
M  V30 4164 H 387.805 5.46444 2.48031 0
M  V30 4165 H 388.875 4.66799 1.3125 0
M  V30 4166 N 390.218 -0.567019 1.47046 0
M  V30 4167 C 391.467 -1.32091 1.5243 0
M  V30 4168 C 391.78 -1.94704 0.187021 0
M  V30 4169 O 392.986 -2.7124 0.118771 0
M  V30 4170 C 391.442 -2.39479 2.68659 0
M  V30 4171 C 391.05 -1.831 4.08874 0
M  V30 4172 C 392.794 -3.16111 2.83327 0
M  V30 4173 C 390.701 -2.8821 5.16419 0
M  V30 4174 H 389.631 -0.496629 0.56734 0
M  V30 4175 H 392.282 -0.603354 1.73297 0
M  V30 4176 H 390.664 -3.14105 2.41152 0
M  V30 4177 H 391.838 -1.14913 4.46242 0
M  V30 4178 H 390.153 -1.19085 3.99008 0
M  V30 4179 H 392.75 -3.94585 3.60842 0
M  V30 4180 H 393.093 -3.69686 1.91411 0
M  V30 4181 H 393.626 -2.48595 3.10556 0
M  V30 4182 H 390.365 -2.39504 6.10179 0
M  V30 4183 H 389.885 -3.54839 4.8358 0
M  V30 4184 H 391.564 -3.51881 5.42945 0
M  V30 4185 N 391.696 -1.35014 -0.812953 0
M  V30 4186 C 392.945 -1.27269 -1.56479 0
M  V30 4187 C 393.258 0.152771 -1.95002 0
M  V30 4188 O 394.464 0.352451 -2.69203 0
M  V30 4189 C 392.92 -2.23159 -2.82362 0
M  V30 4190 C 392.528 -3.71016 -2.511 0
M  V30 4191 C 394.272 -2.24342 -3.60376 0
M  V30 4192 C 392.179 -4.58746 -3.73237 0
M  V30 4193 H 391.109 -0.472829 -0.587324 0
M  V30 4194 H 393.76 -1.6024 -0.894171 0
M  V30 4195 H 392.142 -1.83151 -3.51101 0
M  V30 4196 H 393.316 -4.1962 -1.90409 0
M  V30 4197 H 391.631 -3.72378 -1.86343 0
M  V30 4198 H 394.228 -2.87107 -4.51081 0
M  V30 4199 H 394.571 -1.24542 -3.97234 0
M  V30 4200 H 395.104 -2.62846 -2.98591 0
M  V30 4201 H 391.843 -5.59521 -3.41492 0
M  V30 4202 H 391.363 -4.14871 -4.33176 0
M  V30 4203 H 393.042 -4.73852 -4.40537 0
M  V30 4204 N 393.175 1.03435 -1.18907 0
M  V30 4205 C 394.403 1.80381 -1.01342 0
M  V30 4206 C 394.818 1.83649 0.438005 0
M  V30 4207 O 394.175 1.27655 1.30424 0
M  V30 4208 C 394.226 3.25689 -1.56873 0
M  V30 4209 O 393.947 3.22673 -2.96334 0
M  V30 4210 C 395.448 4.19255 -1.44014 0
M  V30 4211 H 392.668 0.56784 -0.35749 0
M  V30 4212 H 395.212 1.30317 -1.576 0
M  V30 4213 H 393.367 3.72962 -1.04777 0
M  V30 4214 H 393.781 4.13748 -3.22355 0
M  V30 4215 H 395.255 5.19123 -1.87657 0
M  V30 4216 H 395.732 4.37467 -0.389815 0
M  V30 4217 H 396.338 3.77851 -1.95214 0
M  V30 4218 N 394.653 0.992116 1.22453 0
M  V30 4219 C 395.893 0.675727 1.92907 0
M  V30 4220 C 396.257 -0.777762 1.75542 0
M  V30 4221 O 397.458 -1.20553 2.40251 0
M  V30 4222 C 395.729 1.0696 3.4102 0
M  V30 4223 S 397.288 0.871456 4.30059 0
M  V30 4224 H 394.106 0.247089 0.666684 0
M  V30 4225 H 396.708 1.27423 1.48269 0
M  V30 4226 H 395.412 2.12383 3.51172 0
M  V30 4227 H 394.943 0.462858 3.90668 0
M  V30 4228 H 396.958 -0.238436 4.95627 0
M  V30 4229 N 396.131 -1.37776 0.765217 0
M  V30 4230 C 397.542 -1.82521 0.392819 0
M  V30 4231 C 397.893 -1.63789 -1.08017 0
M  V30 4232 O 397.018 -1.14542 -1.83601 0
M  V30 4233 C 397.613 -3.31358 0.706214 0
M  V30 4234 C 396.172 -3.74406 0.386952 0
M  V30 4235 C 395.319 -2.60394 0.953422 0
M  V30 4236 H 398.27 -1.2634 0.960412 0
M  V30 4237 H 398.291 -3.80498 -0.0114706 0
M  V30 4238 H 397.803 -3.44959 1.77833 0
M  V30 4239 H 395.904 -3.66377 -0.678112 0
M  V30 4240 H 396.017 -4.70749 0.890636 0
M  V30 4241 H 394.381 -2.51878 0.378064 0
M  V30 4242 H 395.164 -2.76791 2.03081 0
M  V30 4243 N 397.609 -0.515225 -1.4894 0
M  V30 4244 C 398.837 0.0206034 -2.0689 0
M  V30 4245 C 399.252 1.29514 -1.37374 0
M  V30 4246 O 398.609 1.76698 -0.456529 0
M  V30 4247 C 398.66 0.26351 -3.60538 0
M  V30 4248 O 398.381 -0.960517 -4.27441 0
M  V30 4249 C 399.882 0.841383 -4.35242 0
M  V30 4250 H 397.102 -0.0268608 -0.670462 0
M  V30 4251 H 399.646 -0.716651 -1.91532 0
M  V30 4252 H 397.801 0.950777 -3.75552 0
M  V30 4253 H 398.215 -0.73212 -5.19365 0
M  V30 4254 H 399.689 0.96085 -5.43573 0
M  V30 4255 H 400.166 1.8427 -3.98674 0
M  V30 4256 H 400.772 0.191143 -4.2487 0
M  V30 4257 N 399.087 1.5561 -0.249682 0
M  V30 4258 C 400.035 2.22894 0.664906 0
M  V30 4259 C 401.029 1.21743 1.17792 0
M  V30 4260 O 402.235 1.39748 1.13449 0
M  V30 4261 H 398.61 0.715022 0.232912 0
M  V30 4262 H 400.581 2.98307 0.0742998 0
M  V30 4263 C 399.33 2.94424 1.84959 0
M  V30 4264 H 398.653 3.72031 1.46399 0
M  V30 4265 H 400.093 3.44862 2.4667 0
M  V30 4266 C 398.552 1.98454 2.72245 0
M  V30 4267 O 399.082 1.51939 3.71857 0
M  V30 4268 N 397.288 1.65496 2.38871 0
M  V30 4269 H 396.835 2.03517 1.57919 0
M  V30 4270 H 396.793 1.0155 2.97548 0
M  V30 4271 N 400.565 -0.0233959 1.57583 0
M  V30 4272 C 401.976 -0.56927 1.77809 0
M  V30 4273 C 402.327 -1.75284 0.881472 0
M  V30 4274 O 401.452 -2.1626 0.0777805 0
M  V30 4275 C 402.047 -1.03949 3.22459 0
M  V30 4276 C 400.606 -1.53084 3.43864 0
M  V30 4277 C 399.753 -0.471454 2.73263 0
M  V30 4278 H 402.704 0.202825 1.57399 0
M  V30 4279 H 402.725 -1.90661 3.29285 0
M  V30 4280 H 402.237 -0.177865 3.87692 0
M  V30 4281 H 400.338 -2.41414 2.83814 0
M  V30 4282 H 400.451 -1.57443 4.52491 0
M  V30 4283 H 398.815 -0.927788 2.37201 0
M  V30 4284 H 399.598 0.380808 3.41181 0
M  V30 4285 N 402.043 -1.548 -0.295768 0
M  V30 4286 C 403.273 -1.78069 -1.04762 0
M  V30 4287 C 403.681 -0.542847 -1.81245 0
M  V30 4288 O 403.024 0.497051 -1.76848 0
M  V30 4289 C 403.086 -2.93881 -2.07061 0
M  V30 4290 C 402.75 -4.31777 -1.49725 0
M  V30 4291 C 403.747 -5.11613 -0.924581 0
M  V30 4292 C 401.432 -4.78389 -1.5313 0
M  V30 4293 C 403.426 -6.36184 -0.393594 0
M  V30 4294 C 401.113 -6.02921 -0.996447 0
M  V30 4295 C 402.111 -6.81654 -0.428569 0
M  V30 4296 O 401.799 -8.0384 0.0981593 0
M  V30 4297 H 401.531 -0.597475 -0.316226 0
M  V30 4298 H 404.085 -2.02584 -0.338973 0
M  V30 4299 H 402.315 -2.65003 -2.81621 0
M  V30 4300 H 404.004 -3.04679 -2.6819 0
M  V30 4301 H 404.77 -4.76743 -0.891136 0
M  V30 4302 H 400.649 -4.17132 -1.9627 0
M  V30 4303 H 404.193 -6.97582 0.0503014 0
M  V30 4304 H 400.09 -6.37277 -1.02706 0
M  V30 4305 H 400.858 -8.18499 -0.0146455 0
M  V30 4306 N 403.521 0.559213 -1.47345 0
M  V30 4307 C 404.761 1.32728 -1.55444 0
M  V30 4308 C 405.125 1.90838 -0.210895 0
M  V30 4309 O 406.326 2.68282 -0.166719 0
M  V30 4310 C 404.597 2.4092 -2.63993 0
M  V30 4311 S 406.156 3.2784 -2.91661 0
M  V30 4312 H 402.974 0.451883 -0.548929 0
M  V30 4313 H 405.576 0.640404 -1.84714 0
M  V30 4314 H 404.28 1.9666 -3.60212 0
M  V30 4315 H 403.811 3.14351 -2.36531 0
M  V30 4316 H 405.826 4.40341 -2.28722 0
M  V30 4317 N 404.999 1.35443 0.805782 0
M  V30 4318 C 406.248 1.28097 1.55801 0
M  V30 4319 C 406.561 -0.142428 1.95081 0
M  V30 4320 O 407.767 -0.33817 2.69386 0
M  V30 4321 C 406.223 2.24653 2.81174 0
M  V30 4322 C 405.831 3.72342 2.49129 0
M  V30 4323 C 407.575 2.2625 3.59181 0
M  V30 4324 C 405.482 4.60719 3.70799 0
M  V30 4325 H 404.412 0.475937 0.584808 0
M  V30 4326 H 407.063 1.60712 0.885661 0
M  V30 4327 H 405.445 1.85011 3.50124 0
M  V30 4328 H 406.619 4.20624 1.88181 0
M  V30 4329 H 404.934 3.73361 1.84366 0
M  V30 4330 H 407.531 2.89495 4.49552 0
M  V30 4331 H 407.874 1.26647 3.96568 0
M  V30 4332 H 408.407 2.64426 2.97193 0
M  V30 4333 H 405.146 5.61324 3.3852 0
M  V30 4334 H 404.666 4.17163 4.3097 0
M  V30 4335 H 406.345 4.76182 4.38018 0
M  V30 4336 N 406.477 -1.02803 1.19454 0
M  V30 4337 C 407.717 -1.77769 1.00883 0
M  V30 4338 C 408.081 -1.86596 -0.45233 0
M  V30 4339 O 409.282 -2.57895 -0.757877 0
M  V30 4340 C 407.553 -3.16486 1.66046 0
M  V30 4341 S 409.112 -4.07632 1.62424 0
M  V30 4342 H 405.93 -0.611949 0.361993 0
M  V30 4343 H 408.532 -1.23175 1.51816 0
M  V30 4344 H 407.236 -3.0768 2.7159 0
M  V30 4345 H 406.767 -3.76156 1.15196 0
M  V30 4346 H 408.782 -4.91937 0.64903 0
M  V30 4347 N 407.956 -0.998596 -1.21925 0
M  V30 4348 C 409.186 -0.695276 -1.94549 0
M  V30 4349 C 409.594 0.745079 -1.73911 0
M  V30 4350 O 408.937 1.51507 -1.03881 0
M  V30 4351 C 408.999 -0.928485 -3.47303 0
M  V30 4352 C 408.663 -2.35443 -3.91683 0
M  V30 4353 C 409.66 -3.33428 -3.98901 0
M  V30 4354 C 407.345 -2.69038 -4.24174 0
M  V30 4355 C 409.339 -4.63079 -4.37992 0
M  V30 4356 C 407.026 -3.98906 -4.62944 0
M  V30 4357 C 408.024 -4.95738 -4.69822 0
M  V30 4358 O 407.712 -6.23285 -5.07711 0
M  V30 4359 H 407.444 -0.255902 -0.625692 0
M  V30 4360 H 409.998 -1.33767 -1.5587 0
M  V30 4361 H 408.228 -0.228917 -3.86022 0
M  V30 4362 H 409.917 -0.619539 -4.01144 0
M  V30 4363 H 410.683 -3.08807 -3.73983 0
M  V30 4364 H 406.562 -1.94367 -4.18022 0
M  V30 4365 H 410.106 -5.38658 -4.43275 0
M  V30 4366 H 406.003 -4.23314 -4.87314 0
M  V30 4367 H 406.771 -6.27306 -5.25766 0
M  V30 4368 N 409.434 1.37368 -0.772513 0
M  V30 4369 C 410.662 2.03942 -0.348588 0
M  V30 4370 C 411.077 1.58264 1.02947 0
M  V30 4371 O 410.434 0.764246 1.65727 0
M  V30 4372 C 410.485 3.5946 -0.38351 0
M  V30 4373 O 410.206 4.03468 -1.70721 0
M  V30 4374 C 411.707 4.4327 0.0519152 0
M  V30 4375 H 408.927 0.654931 -0.145966 0
M  V30 4376 H 411.471 1.75686 -1.04665 0
M  V30 4377 H 409.626 3.86486 0.265978 0
M  V30 4378 H 410.04 4.97991 -1.64636 0
M  V30 4379 H 411.514 5.51995 -0.0236733 0
M  V30 4380 H 411.991 4.2514 1.10238 0
M  V30 4381 H 412.597 4.21471 -0.569415 0
M  V30 4382 N 410.912 0.523116 1.48665 0
M  V30 4383 C 411.875 -0.232592 2.28017 0
M  V30 4384 C 412.875 -0.874021 1.34972 0
M  V30 4385 O 414.065 -0.735132 1.57929 0
M  V30 4386 C 411.197 -1.33586 3.13636 0
M  V30 4387 H 412.39 0.464008 2.96289 0
M  V30 4388 H 409.943 0.278816 1.53793 0
M  V30 4389 H 410.678 -2.06593 2.4998 0
M  V30 4390 H 410.463 -0.881125 3.82071 0
M  V30 4391 H 411.953 -1.86759 3.73511 0
M  V30 4392 N 412.39 -1.55475 0.257931 0
M  V30 4393 C 413.34 -2.18506 -0.651094 0
M  V30 4394 C 414.324 -1.14431 -1.13112 0
M  V30 4395 O 415.516 -1.40305 -1.07905 0
M  V30 4396 C 412.645 -2.89653 -1.84272 0
M  V30 4397 C 411.731 -4.00996 -1.38068 0
M  V30 4398 N 412.122 -5.01816 -0.633609 0
M  V30 4399 C 410.42 -4.13753 -1.66506 0
M  V30 4400 C 411.121 -5.80371 -0.392922 0
M  V30 4401 N 410.097 -5.3505 -0.960359 0
M  V30 4402 H 413.899 -2.93811 -0.0722883 0
M  V30 4403 H 411.413 -1.62286 0.0607256 0
M  V30 4404 H 413.41 -3.33245 -2.50506 0
M  V30 4405 H 412.07 -2.15854 -2.42564 0
M  V30 4406 H 413.081 -5.17128 -0.282626 0
M  V30 4407 H 409.758 -3.51133 -2.25858 0
M  V30 4408 H 411.148 -6.7159 0.204235 0
M  V30 4409 N 413.868 0.0150385 -1.57593 0
M  V30 4410 C 415.115 0.703001 -1.89906 0
M  V30 4411 C 415.443 1.74604 -0.856944 0
M  V30 4412 O 414.698 1.95197 0.140287 0
M  V30 4413 C 414.997 1.39686 -3.28972 0
M  V30 4414 C 414.663 0.488457 -4.48246 0
M  V30 4415 C 413.325 0.2383 -4.8061 0
M  V30 4416 C 415.677 -0.137881 -5.21018 0
M  V30 4417 C 413.005 -0.646738 -5.83125 0
M  V30 4418 C 415.357 -1.0107 -6.24474 0
M  V30 4419 C 414.021 -1.27019 -6.55303 0
M  V30 4420 H 413.291 0.257246 -0.694914 0
M  V30 4421 H 415.938 -0.037259 -1.91464 0
M  V30 4422 H 414.243 2.21079 -3.23468 0
M  V30 4423 H 415.94 1.93495 -3.51227 0
M  V30 4424 H 412.53 0.693593 -4.22951 0
M  V30 4425 H 416.714 0.0423953 -4.96282 0
M  V30 4426 H 411.97 -0.855937 -6.05379 0
M  V30 4427 H 416.144 -1.50247 -6.79999 0
M  V30 4428 H 413.771 -1.95769 -7.3456 0
M  V30 4429 N 415.346 1.54954 0.287554 0
M  V30 4430 C 416.294 1.87606 1.37502 0
M  V30 4431 C 417.288 0.751001 1.51843 0
M  V30 4432 O 418.494 0.935169 1.53801 0
M  V30 4433 H 414.869 0.595231 0.459569 0
M  V30 4434 H 416.84 2.78477 1.07206 0
M  V30 4435 C 415.589 2.15183 2.73115 0
M  V30 4436 H 414.912 3.01234 2.62866 0
M  V30 4437 H 416.352 2.4196 3.48183 0
M  V30 4438 C 414.811 0.954686 3.2309 0
M  V30 4439 O 415.341 0.181949 4.01288 0
M  V30 4440 N 413.547 0.756368 2.80584 0
M  V30 4441 H 413.094 1.38643 2.17108 0
M  V30 4442 H 413.052 -0.0430391 3.14371 0
M  V30 4443 N 416.824 -0.551391 1.4764 0
M  V30 4444 C 418.052 -1.33357 1.58189 0
M  V30 4445 C 418.467 -1.87342 0.234199 0
M  V30 4446 O 417.824 -1.65301 -0.77343 0
M  V30 4447 C 417.875 -2.49942 2.61173 0
M  V30 4448 O 417.596 -1.98187 3.90709 0
M  V30 4449 C 419.097 -3.42072 2.8196 0
M  V30 4450 H 416.317 -0.40631 0.533998 0
M  V30 4451 H 418.861 -0.667367 1.93304 0
M  V30 4452 H 417.016 -3.12489 2.28975 0
M  V30 4453 H 417.43 -2.74342 4.47031 0
M  V30 4454 H 418.904 -4.20278 3.57869 0
M  V30 4455 H 419.381 -3.95978 1.89995 0
M  V30 4456 H 419.987 -2.85336 3.15378 0
M  V30 4457 N 418.302 -1.35869 -0.798587 0
M  V30 4458 C 419.532 -1.32529 -1.58491 0
M  V30 4459 C 419.94 0.0975405 -1.88948 0
M  V30 4460 O 419.283 1.06224 -1.49874 0
M  V30 4461 C 419.345 -2.07247 -2.9375 0
M  V30 4462 C 419.009 -3.56391 -2.86068 0
M  V30 4463 C 420.006 -4.50824 -2.58947 0
M  V30 4464 C 417.691 -3.9915 -3.04933 0
M  V30 4465 C 419.685 -5.85993 -2.5078 0
M  V30 4466 C 417.372 -5.34413 -2.96389 0
M  V30 4467 C 418.37 -6.27646 -2.69349 0
M  V30 4468 O 418.058 -7.60426 -2.60782 0
M  V30 4469 H 417.79 -0.456529 -0.498556 0
M  V30 4470 H 420.344 -1.79425 -0.999799 0
M  V30 4471 H 418.574 -1.55001 -3.54276 0
M  V30 4472 H 420.263 -1.96883 -3.54954 0
M  V30 4473 H 421.029 -4.19104 -2.44084 0
M  V30 4474 H 416.908 -3.26961 -3.24989 0
M  V30 4475 H 420.452 -6.58735 -2.29595 0
M  V30 4476 H 416.349 -5.65743 -3.10813 0
M  V30 4477 H 417.117 -7.70444 -2.76331 0
M  V30 4478 N 419.78 1.02168 -1.19998 0
M  V30 4479 C 420.71 2.12488 -0.96804 0
M  V30 4480 C 421.691 1.69799 0.101185 0
M  V30 4481 O 422.876 1.94121 -0.0552993 0
M  V30 4482 C 420.006 3.43479 -0.513776 0
M  V30 4483 C 418.96 3.99884 -1.52566 0
M  V30 4484 C 418.286 5.26582 -0.928214 0
M  V30 4485 C 419.586 4.33861 -2.90795 0
M  V30 4486 H 421.28 2.32149 -1.89069 0
M  V30 4487 H 418.826 1.11564 -0.910468 0
M  V30 4488 H 420.779 4.20036 -0.338774 0
M  V30 4489 H 419.503 3.23561 0.444493 0
M  V30 4490 H 418.162 3.25429 -1.68794 0
M  V30 4491 H 417.81 5.02986 0.0378289 0
M  V30 4492 H 417.51 5.65284 -1.60397 0
M  V30 4493 H 419.034 6.05799 -0.764167 0
M  V30 4494 H 420.448 5.01327 -2.78109 0
M  V30 4495 H 418.845 4.83664 -3.55231 0
M  V30 4496 H 419.915 3.42848 -3.42904 0
M  V30 4497 N 421.258 1.00505 1.21394 0
M  V30 4498 C 422.504 0.688793 1.90745 0
M  V30 4499 C 422.837 -0.778486 1.77914 0
M  V30 4500 O 422.112 -1.56433 1.15581 0
M  V30 4501 C 422.395 1.11063 3.42545 0
M  V30 4502 C 422.248 2.63737 3.64367 0
M  V30 4503 C 423.567 0.673059 4.34923 0
M  V30 4504 H 420.686 0.251702 0.692687 0
M  V30 4505 H 423.328 1.25074 1.43026 0
M  V30 4506 H 421.478 0.632508 3.83317 0
M  V30 4507 H 423.15 3.19313 3.32922 0
M  V30 4508 H 421.393 3.05248 3.08231 0
M  V30 4509 H 422.064 2.88305 4.70727 0
M  V30 4510 H 424.54 1.08392 4.01734 0
M  V30 4511 H 423.416 0.996383 5.39781 0
M  V30 4512 H 423.677 -0.425808 4.40045 0
M  V30 4513 N 422.737 -1.36956 0.779787 0
M  V30 4514 C 423.667 -2.32761 0.185651 0
M  V30 4515 C 424.648 -1.56177 -0.673989 0
M  V30 4516 O 425.833 -1.84378 -0.609797 0
M  V30 4517 C 422.963 -3.40418 -0.687964 0
M  V30 4518 C 421.917 -4.27941 0.0710102 0
M  V30 4519 C 421.243 -5.26681 -0.922573 0
M  V30 4520 C 422.543 -5.07006 1.25467 0
M  V30 4521 H 424.237 -2.82698 0.986008 0
M  V30 4522 H 421.783 -1.3592 0.475592 0
M  V30 4523 H 423.736 -4.06423 -1.11348 0
M  V30 4524 H 422.46 -2.89025 -1.52093 0
M  V30 4525 H 421.119 -3.63478 0.47739 0
M  V30 4526 H 420.767 -4.71565 -1.7503 0
M  V30 4527 H 420.467 -5.86103 -0.419237 0
M  V30 4528 H 421.991 -5.9556 -1.34686 0
M  V30 4529 H 423.405 -5.66105 0.905401 0
M  V30 4530 H 421.802 -5.75793 1.69063 0
M  V30 4531 H 422.872 -4.3921 2.05481 0
M  V30 4532 N 424.215 -0.530993 -1.48385 0
M  V30 4533 C 425.464 0.00474348 -2.01699 0
M  V30 4534 C 425.777 1.35227 -1.41325 0
M  V30 4535 O 426.983 1.97643 -1.86144 0
M  V30 4536 C 425.439 0.0588473 -3.59852 0
M  V30 4537 C 425.047 -1.28385 -4.2921 0
M  V30 4538 C 426.791 0.543358 -4.21008 0
M  V30 4539 C 424.698 -1.19028 -5.79298 0
M  V30 4540 H 423.628 0.00554317 -0.75398 0
M  V30 4541 H 426.279 -0.674924 -1.70637 0
M  V30 4542 H 424.661 0.803612 -3.8776 0
M  V30 4543 H 425.835 -2.04426 -4.12973 0
M  V30 4544 H 424.15 -1.70418 -3.7993 0
M  V30 4545 H 426.747 0.631351 -5.3096 0
M  V30 4546 H 427.09 1.54937 -3.86394 0
M  V30 4547 H 427.623 -0.145754 -3.97533 0
M  V30 4548 H 424.362 -2.17147 -6.18488 0
M  V30 4549 H 423.882 -0.471246 -5.97946 0
M  V30 4550 H 425.561 -0.881365 -6.40969 0
M  V30 4551 N 425.693 1.55336 -0.266172 0
M  V30 4552 C 426.626 2.18256 0.666296 0
M  V30 4553 C 427.604 1.14064 1.1588 0
M  V30 4554 O 428.788 1.42546 1.23341 0
M  V30 4555 C 425.915 2.79867 1.90768 0
M  V30 4556 C 424.961 3.97283 1.55141 0
M  V30 4557 S 425.794 5.31694 0.637313 0
M  V30 4558 C 426.95 5.96769 1.88727 0
M  V30 4559 H 427.183 2.97008 0.131647 0
M  V30 4560 H 424.716 1.54317 -0.0504869 0
M  V30 4561 H 426.674 3.15996 2.62025 0
M  V30 4562 H 425.335 2.01025 2.41346 0
M  V30 4563 H 424.528 4.3905 2.4749 0
M  V30 4564 H 424.13 3.6253 0.919113 0
M  V30 4565 H 426.422 6.15458 2.83227 0
M  V30 4566 H 427.365 6.91752 1.51276 0
M  V30 4567 H 427.773 5.26034 2.04814 0
M  V30 4568 N 427.171 -0.0066808 1.57599 0
M  V30 4569 C 428.411 -0.697501 1.92131 0
M  V30 4570 C 428.775 -1.71306 0.867071 0
M  V30 4571 O 429.976 -2.45377 1.09743 0
M  V30 4572 C 428.247 -1.32978 3.3174 0
M  V30 4573 S 429.806 -2.04665 3.88146 0
M  V30 4574 H 426.624 -0.230555 0.672581 0
M  V30 4575 H 429.226 0.0484026 1.9544 0
M  V30 4576 H 427.93 -0.57772 4.06313 0
M  V30 4577 H 427.461 -2.11376 3.31789 0
M  V30 4578 H 429.476 -3.32097 3.68682 0
M  V30 4579 N 428.649 -1.55105 -0.279332 0
M  V30 4580 C 429.597 -1.88333 -1.36505 0
M  V30 4581 C 430.591 -0.759043 -1.51443 0
M  V30 4582 O 431.797 -0.943312 -1.53302 0
M  V30 4583 H 428.172 -0.59766 -0.456406 0
M  V30 4584 H 430.143 -2.79041 -1.05728 0
M  V30 4585 C 428.892 -2.16628 -2.7197 0
M  V30 4586 H 428.215 -3.02624 -2.61264 0
M  V30 4587 H 429.655 -2.43803 -3.46895 0
M  V30 4588 C 428.114 -0.971807 -3.22579 0
M  V30 4589 O 428.644 -0.203228 -4.01186 0
M  V30 4590 N 426.85 -0.771238 -2.80179 0
M  V30 4591 H 426.397 -1.39792 -2.1637 0
M  V30 4592 H 426.355 0.0263667 -3.14389 0
M  V30 4593 N 430.127 0.543554 -1.4793 0
M  V30 4594 C 431.352 1.32995 -1.59145 0
M  V30 4595 C 431.777 1.86472 -0.246956 0
M  V30 4596 O 431.135 1.63696 0.779324 0
M  V30 4597 C 431.183 2.46623 -2.63077 0
M  V30 4598 O 430.287 3.49261 -2.19295 0
M  V30 4599 H 429.628 0.394472 -0.534124 0
M  V30 4600 H 432.158 0.655489 -1.93816 0
M  V30 4601 H 432.168 2.93001 -2.83926 0
M  V30 4602 H 430.843 2.07059 -3.60693 0
M  V30 4603 H 429.42 3.09094 -2.08603 0
M  V30 4604 N 431.605 1.3629 0.791371 0
M  V30 4605 C 432.851 1.30605 1.55146 0
M  V30 4606 C 433.184 -0.115042 1.93859 0
M  V30 4607 O 432.459 -1.06798 1.62556 0
M  V30 4608 C 432.742 2.22692 2.82985 0
M  V30 4609 C 432.595 3.73489 2.50651 0
M  V30 4610 C 433.914 2.13588 3.84796 0
M  V30 4611 H 431.033 0.475761 0.562868 0
M  V30 4612 H 433.675 1.66825 0.909358 0
M  V30 4613 H 431.825 1.91933 3.37778 0
M  V30 4614 H 433.497 4.14758 2.01924 0
M  V30 4615 H 431.74 3.93021 1.83622 0
M  V30 4616 H 432.411 4.3333 3.41949 0
M  V30 4617 H 434.887 2.40659 3.39445 0
M  V30 4618 H 433.763 2.80195 4.71998 0
M  V30 4619 H 434.024 1.12256 4.27611 0
M  V30 4620 N 433.083 -1.0153 1.20538 0
M  V30 4621 C 434.332 -1.74558 1.01057 0
M  V30 4622 C 434.645 -1.90168 -0.457756 0
M  V30 4623 O 435.851 -2.60301 -0.771722 0
M  V30 4624 C 434.307 -3.13963 1.75941 0
M  V30 4625 C 433.915 -3.06361 3.26875 0
M  V30 4626 C 435.659 -3.91191 1.64832 0
M  V30 4627 C 433.566 -4.40782 3.94291 0
M  V30 4628 H 432.496 -0.654417 0.374505 0
M  V30 4629 H 435.147 -1.13521 1.44171 0
M  V30 4630 H 433.529 -3.75549 1.25614 0
M  V30 4631 H 434.703 -2.54074 3.84425 0
M  V30 4632 H 433.018 -2.42625 3.38411 0
M  V30 4633 H 435.615 -4.90644 2.12539 0
M  V30 4634 H 435.958 -4.11884 0.604745 0
M  V30 4635 H 436.491 -3.36236 2.12579 0
M  V30 4636 H 433.23 -4.25292 4.98805 0
M  V30 4637 H 432.75 -4.9307 3.41529 0
M  V30 4638 H 434.429 -5.09621 3.98617 0
M  V30 4639 N 434.561 -1.01147 -1.20859 0
M  V30 4640 C 435.838 -0.613136 -1.85742 0
M  V30 4641 C 436.218 0.909004 -1.90526 0
M  V30 4642 O 435.566 1.79862 -1.40932 0
M  V30 4643 C 435.776 -1.255 -3.25654 0
M  V30 4644 C 437.124 -1.3672 -4.01986 0
M  V30 4645 O 438.148 -1.21082 -3.34989 0
M  V30 4646 O 437.007 -1.6194 -5.21956 0
M  V30 4647 H 434.101 -0.210878 -0.799662 0
M  V30 4648 H 436.647 -1.10853 -1.2849 0
M  V30 4649 H 435.419 -2.29532 -3.16908 0
M  V30 4650 H 435.042 -0.746369 -3.90532 0
M  V30 4651 N 436.039 1.36541 -0.78704 0
M  V30 4652 C 437.45 1.81873 -0.421807 0
M  V30 4653 C 437.801 1.65487 1.05397 0
M  V30 4654 O 436.926 1.17448 1.81755 0
M  V30 4655 C 437.521 3.30192 -0.758841 0
M  V30 4656 C 436.08 3.73743 -0.446468 0
M  V30 4657 C 435.227 2.58844 -0.994728 0
M  V30 4658 H 438.178 1.24796 -0.98039 0
M  V30 4659 H 438.199 3.80468 -0.0490648 0
M  V30 4660 H 437.711 3.42087 -1.83299 0
M  V30 4661 H 435.812 3.6741 0.619739 0
M  V30 4662 H 435.925 4.69272 -0.965415 0
M  V30 4663 H 434.289 2.51245 -0.418087 0
M  V30 4664 H 435.072 2.73525 -2.07458 0
M  V30 4665 N 437.518 0.538854 1.48102 0
M  V30 4666 C 438.448 -0.207654 2.32575 0
M  V30 4667 C 439.429 -0.926559 1.4265 0
M  V30 4668 O 440.614 -0.91061 1.71527 0
M  V30 4669 C 437.744 -1.24957 3.24042 0
M  V30 4670 C 436.698 -0.648263 4.23062 0
M  V30 4671 C 436.024 -1.79348 5.03725 0
M  V30 4672 C 437.324 0.385897 5.20872 0
M  V30 4673 H 439.018 0.497534 2.95237 0
M  V30 4674 H 436.564 0.240715 1.41974 0
M  V30 4675 H 438.517 -1.77983 3.81969 0
M  V30 4676 H 437.241 -1.98446 2.59397 0
M  V30 4677 H 435.9 -0.139452 3.66335 0
M  V30 4678 H 435.548 -2.51696 4.35498 0
M  V30 4679 H 435.248 -1.39702 5.70751 0
M  V30 4680 H 436.772 -2.32735 5.64506 0
M  V30 4681 H 438.186 -0.057607 5.73271 0
M  V30 4682 H 436.583 0.700227 5.96001 0
M  V30 4683 H 437.653 1.28848 4.67468 0
M  V30 4684 N 438.996 -1.55193 0.274407 0
M  V30 4685 C 440.245 -1.98758 -0.343213 0
M  V30 4686 C 440.558 -1.16624 -1.5703 0
M  V30 4687 O 441.764 -1.5033 -2.26082 0
M  V30 4688 C 440.22 -3.53759 -0.661996 0
M  V30 4689 C 439.828 -4.4467 0.54524 0
M  V30 4690 C 441.572 -4.05916 -1.24228 0
M  V30 4691 C 439.479 -5.91058 0.201084 0
M  V30 4692 H 438.409 -0.742353 -0.132014 0
M  V30 4693 H 441.06 -1.79545 0.378948 0
M  V30 4694 H 439.442 -3.68772 -1.44304 0
M  V30 4695 H 440.616 -4.41426 1.32212 0
M  V30 4696 H 438.931 -4.03143 1.04232 0
M  V30 4697 H 441.528 -5.12831 -1.51357 0
M  V30 4698 H 441.871 -3.54908 -2.17592 0
M  V30 4699 H 442.404 -3.9434 -0.523542 0
M  V30 4700 H 439.143 -6.46161 1.10258 0
M  V30 4701 H 438.663 -5.97373 -0.539045 0
M  V30 4702 H 440.342 -6.46669 -0.206954 0
M  V30 4703 N 440.474 -0.00167713 -1.576 0
M  V30 4704 C 441.704 0.692754 -1.94639 0
M  V30 4705 C 442.112 1.67744 -0.87513 0
M  V30 4706 O 441.455 1.8305 0.154382 0
M  V30 4707 C 441.517 1.47881 -3.27676 0
M  V30 4708 C 441.181 0.655518 -4.52274 0
M  V30 4709 C 442.178 -0.0575214 -5.19868 0
M  V30 4710 C 439.863 0.600994 -4.98692 0
M  V30 4711 C 441.857 -0.814052 -6.3218 0
M  V30 4712 C 439.544 -0.15926 -6.10892 0
M  V30 4713 C 440.542 -0.865515 -6.77494 0
M  V30 4714 O 440.23 -1.61336 -7.87544 0
M  V30 4715 H 439.962 0.197792 -0.646417 0
M  V30 4716 H 442.516 -0.049423 -2.05341 0
M  V30 4717 H 440.746 2.2655 -3.13388 0
M  V30 4718 H 442.435 2.05874 -3.49816 0
M  V30 4719 H 443.201 -0.0245611 -4.84994 0
M  V30 4720 H 439.08 1.14025 -4.46676 0
M  V30 4721 H 442.624 -1.36584 -6.84098 0
M  V30 4722 H 438.521 -0.194035 -6.45208 0
M  V30 4723 H 439.289 -1.53025 -8.04068 0
M  V30 4724 N 441.952 1.55251 0.271103 0
M  V30 4725 C 442.915 1.87484 1.31842 0
M  V30 4726 C 443.915 0.749545 1.42262 0
M  V30 4727 O 445.105 1.01771 1.4138 0
M  V30 4728 C 442.237 2.0818 2.69951 0
M  V30 4729 H 443.43 2.81108 1.0449 0
M  V30 4730 H 440.983 1.47771 0.509258 0
M  V30 4731 H 441.718 1.16944 3.02481 0
M  V30 4732 H 441.503 2.90114 2.63774 0
M  V30 4733 H 442.993 2.34385 3.4562 0
M  V30 4734 N 443.43 -0.535701 1.48216 0
M  V30 4735 C 444.677 -1.29183 1.55942 0
M  V30 4736 C 445.005 -1.93125 0.230857 0
M  V30 4737 O 444.26 -1.79556 -0.778331 0
M  V30 4738 C 444.559 -2.4068 2.64212 0
M  V30 4739 C 444.225 -1.94428 4.06827 0
M  V30 4740 C 442.887 -1.81532 4.45645 0
M  V30 4741 C 445.239 -1.59405 4.96225 0
M  V30 4742 C 442.567 -1.31939 5.71672 0
M  V30 4743 C 444.919 -1.11276 6.22736 0
M  V30 4744 C 443.583 -0.969924 6.60416 0
M  V30 4745 H 442.853 -0.472715 0.570632 0
M  V30 4746 H 445.5 -0.598437 1.81909 0
M  V30 4747 H 443.805 -3.15666 2.32083 0
M  V30 4748 H 445.502 -2.98822 2.67407 0
M  V30 4749 H 442.092 -2.05415 3.76168 0
M  V30 4750 H 446.276 -1.68231 4.66917 0
M  V30 4751 H 441.532 -1.19562 5.99596 0
M  V30 4752 H 445.706 -0.832453 6.91407 0
M  V30 4753 H 443.333 -0.583436 7.57958 0
M  V30 4754 N 444.908 -1.36708 -0.784132 0
M  V30 4755 C 446.324 -1.17237 -1.08294 0
M  V30 4756 C 446.524 -5.93947e-05 -2.015 0
M  V30 4757 O 445.58 0.663686 -2.43622 0
M  V30 4758 C 446.893 -2.48557 -1.69233 0
M  V30 4759 C 448.441 -2.54968 -1.8155 0
M  V30 4760 C 448.916 -3.86388 -2.45904 0
M  V30 4761 N 450.407 -3.87762 -2.53367 0
M  V30 4762 C 451.142 -4.86191 -3.03983 0
M  V30 4763 N 450.638 -5.95015 -3.54866 0
M  V30 4764 N 452.431 -4.73606 -3.02743 0
M  V30 4765 H 444.582 -2.11758 -0.16501 0
M  V30 4766 H 446.845 -0.93822 -0.135822 0
M  V30 4767 H 446.551 -3.34638 -1.08215 0
M  V30 4768 H 446.425 -2.64748 -2.68679 0
M  V30 4769 H 448.812 -1.69302 -2.41704 0
M  V30 4770 H 448.893 -2.42672 -0.80895 0
M  V30 4771 H 448.537 -4.72462 -1.86392 0
M  V30 4772 H 448.467 -3.95982 -3.4714 0
M  V30 4773 H 450.958 -3.09145 -2.17343 0
M  V30 4774 H 451.271 -6.66086 -3.91854 0
M  V30 4775 H 449.616 -5.98676 -3.53003 0
M  V30 4776 H 452.807 -3.87717 -2.62284 0
M  V30 4777 H 452.98 -5.50473 -3.41881 0
M  V30 4778 N 446.386 1.0089 -1.21074 0
M  V30 4779 C 447.611 1.78727 -1.05221 0
M  V30 4780 C 448.036 1.83932 0.393795 0
M  V30 4781 O 447.394 1.28004 1.28393 0
M  V30 4782 C 447.442 3.20665 -1.64944 0
M  V30 4783 O 446.546 4.02632 -0.892273 0
M  V30 4784 H 445.887 0.550973 -0.370574 0
M  V30 4785 H 448.417 1.26847 -1.60534 0
M  V30 4786 H 448.427 3.71352 -1.69002 0
M  V30 4787 H 447.102 3.16191 -2.70177 0
M  V30 4788 H 445.679 3.61207 -0.926492 0
M  V30 4789 N 447.864 1.01787 1.20321 0
M  V30 4790 C 448.794 0.609625 2.25401 0
M  V30 4791 C 449.775 -0.375951 1.65893 0
M  V30 4792 O 450.96 -0.261101 1.92437 0
M  V30 4793 C 448.09 -0.0515995 3.47262 0
M  V30 4794 C 447.044 0.855095 4.19371 0
M  V30 4795 C 446.37 0.0595757 5.34667 0
M  V30 4796 C 447.67 2.16374 4.75373 0
M  V30 4797 H 449.364 1.48803 2.59804 0
M  V30 4798 H 446.91 0.716934 1.24884 0
M  V30 4799 H 448.863 -0.348764 4.19954 0
M  V30 4800 H 447.587 -0.964726 3.12027 0
M  V30 4801 H 446.246 1.13628 3.48546 0
M  V30 4802 H 445.894 -0.85524 4.95676 0
M  V30 4803 H 445.594 0.663406 5.83843 0
M  V30 4804 H 447.118 -0.231105 6.10162 0
M  V30 4805 H 448.532 1.92885 5.39878 0
M  V30 4806 H 446.929 2.71853 5.34991 0
M  V30 4807 H 447.999 2.82589 3.94045 0
M  V30 4808 N 449.342 -1.36122 0.79427 0
M  V30 4809 C 450.252 -2.33769 0.197296 0
M  V30 4810 C 451.268 -1.61276 -0.653153 0
M  V30 4811 O 452.444 -1.9323 -0.5678 0
M  V30 4812 C 449.509 -3.40474 -0.654098 0
M  V30 4813 C 448.57 -4.28759 0.215411 0
M  V30 4814 C 447.803 -5.30368 -0.595443 0
M  V30 4815 O 448.026 -5.40211 -1.83107 0
M  V30 4816 O 446.96 -6.019 0.00721351 0
M  V30 4817 H 450.786 -2.86597 1.00478 0
M  V30 4818 H 448.371 -1.38676 0.555818 0
M  V30 4819 H 450.253 -4.05703 -1.13944 0
M  V30 4820 H 448.928 -2.89937 -1.43938 0
M  V30 4821 H 447.835 -3.66554 0.747615 0
M  V30 4822 H 449.168 -4.82661 0.964332 0
M  V30 4823 N 450.82 -0.546701 -1.47814 0
M  V30 4824 C 451.75 0.195317 -2.32682 0
M  V30 4825 C 452.731 0.918981 -1.43139 0
M  V30 4826 O 453.916 0.901501 -1.72008 0
M  V30 4827 C 451.046 1.23237 -3.247 0
M  V30 4828 C 450 0.625818 -4.234 0
M  V30 4829 C 449.326 1.76674 -5.04669 0
M  V30 4830 C 450.626 -0.413515 -5.2066 0
M  V30 4831 H 452.32 -0.513184 -2.94969 0
M  V30 4832 H 449.866 -0.248241 -1.41844 0
M  V30 4833 H 451.819 1.75955 -3.82907 0
M  V30 4834 H 450.543 1.97067 -2.60446 0
M  V30 4835 H 449.202 0.120023 -3.66403 0
M  V30 4836 H 448.85 2.49383 -4.36826 0
M  V30 4837 H 448.55 1.36673 -5.71484 0
M  V30 4838 H 450.074 2.29738 -5.65732 0
M  V30 4839 H 451.488 0.0272042 -5.73294 0
M  V30 4840 H 449.885 -0.731825 -5.95621 0
M  V30 4841 H 450.955 -1.31325 -4.66778 0
M  V30 4842 N 452.299 1.55045 -0.282633 0
M  V30 4843 C 453.715 1.59441 0.0712997 0
M  V30 4844 C 453.915 1.2998 1.53972 0
M  V30 4845 O 452.971 1.06431 2.28973 0
M  V30 4846 C 454.284 2.99097 -0.310104 0
M  V30 4847 C 455.832 3.1194 -0.257343 0
M  V30 4848 C 456.307 4.53875 -0.613297 0
M  V30 4849 N 457.798 4.5974 -0.565134 0
M  V30 4850 C 458.533 5.67603 -0.81326 0
M  V30 4851 N 458.029 6.83582 -1.1264 0
M  V30 4852 N 459.822 5.57187 -0.741553 0
M  V30 4853 H 451.973 1.72458 -1.23984 0
M  V30 4854 H 454.236 0.804549 -0.501403 0
M  V30 4855 H 453.942 3.25516 -1.33163 0
M  V30 4856 H 453.816 3.75616 0.345366 0
M  V30 4857 H 456.203 2.85281 0.754905 0
M  V30 4858 H 456.284 2.37618 -0.947178 0
M  V30 4859 H 455.928 4.81261 -1.62327 0
M  V30 4860 H 455.858 5.26508 0.09841 0
M  V30 4861 H 458.349 3.76427 -0.333294 0
M  V30 4862 H 458.662 7.6175 -1.30219 0
M  V30 4863 H 457.007 6.85179 -1.16425 0
M  V30 4864 H 460.198 4.65457 -0.496705 0
M  V30 4865 H 460.371 6.41171 -0.938306 0
M  V30 4866 N 453.777 0.010035 1.57597 0
M  V30 4867 C 454.725 -0.996272 2.10184 0
M  V30 4868 C 455.719 -1.34942 1.02406 0
M  V30 4869 O 456.925 -1.33389 1.20861 0
M  V30 4870 H 453.3 -0.338982 0.671264 0
M  V30 4871 H 455.271 -0.527272 2.93705 0
M  V30 4872 C 454.02 -2.27599 2.62857 0
M  V30 4873 H 453.343 -2.01295 3.45428 0
M  V30 4874 H 454.783 -2.96265 3.0332 0
M  V30 4875 C 453.242 -2.99269 1.54725 0
M  V30 4876 O 453.772 -3.90644 0.93597 0
M  V30 4877 N 451.978 -2.61269 1.27228 0
M  V30 4878 H 451.525 -1.87043 1.77123 0
M  V30 4879 H 451.483 -3.09534 0.550999 0
M  V30 4880 N 455.255 -1.55392 -0.262866 0
M  V30 4881 C 456.483 -1.80513 -1.01108 0
M  V30 4882 C 456.898 -0.583533 -1.79556 0
M  V30 4883 O 456.255 0.447585 -1.76926 0
M  V30 4884 C 456.306 -3.03648 -1.96164 0
M  V30 4885 O 456.027 -4.2109 -1.20893 0
M  V30 4886 C 457.528 -3.41448 -2.82715 0
M  V30 4887 H 454.748 -0.601079 -0.298236 0
M  V30 4888 H 457.292 -2.02425 -0.290582 0
M  V30 4889 H 455.447 -2.83832 -2.63663 0
M  V30 4890 H 455.861 -4.90771 -1.85051 0
M  V30 4891 H 457.335 -4.30751 -3.45192 0
M  V30 4892 H 457.812 -2.61308 -3.53008 0
M  V30 4893 H 458.418 -3.63559 -2.20693 0
M  V30 4894 N 456.733 0.527833 -1.48498 0
M  V30 4895 C 457.98 1.28354 -1.56625 0
M  V30 4896 C 458.308 1.93 -0.241096 0
M  V30 4897 O 457.563 1.79967 0.768798 0
M  V30 4898 C 457.862 2.39275 -2.65485 0
M  V30 4899 C 457.528 1.92268 -4.07853 0
M  V30 4900 C 456.19 1.79166 -4.46602 0
M  V30 4901 C 458.542 1.56771 -4.97064 0
M  V30 4902 C 455.87 1.28905 -5.72364 0
M  V30 4903 C 458.222 1.07972 -6.23318 0
M  V30 4904 C 456.886 0.934887 -6.60921 0
M  V30 4905 H 456.156 0.469682 -0.573131 0
M  V30 4906 H 458.803 0.588781 -1.82224 0
M  V30 4907 H 457.108 3.1443 -2.33754 0
M  V30 4908 H 458.805 2.974 -2.68988 0
M  V30 4909 H 455.395 2.03417 -3.77252 0
M  V30 4910 H 459.579 1.65753 -4.67803 0
M  V30 4911 H 454.835 1.16381 -6.00221 0
M  V30 4912 H 459.009 0.795775 -6.91838 0
M  V30 4913 H 456.636 0.543231 -7.58257 0
M  V30 4914 N 458.211 1.37122 0.776871 0
M  V30 4915 C 459.627 1.1781 1.07671 0
M  V30 4916 C 459.827 0.0107454 2.01497 0
M  V30 4917 O 458.883 -0.650756 2.4397 0
M  V30 4918 C 460.196 2.49451 1.67913 0
M  V30 4919 C 461.744 2.55927 1.80195 0
M  V30 4920 C 462.219 3.87686 2.43851 0
M  V30 4921 N 463.71 3.891 2.51307 0
M  V30 4922 C 464.445 4.87797 3.014 0
M  V30 4923 N 463.941 5.96888 3.51705 0
M  V30 4924 N 465.734 4.75205 3.00227 0
M  V30 4925 H 457.885 2.11843 0.153778 0
M  V30 4926 H 460.148 0.938927 0.130844 0
M  V30 4927 H 459.854 3.35207 1.06439 0
M  V30 4928 H 459.728 2.66169 2.67271 0
M  V30 4929 H 462.115 1.70582 2.40803 0
M  V30 4930 H 462.196 2.43097 0.796069 0
M  V30 4931 H 461.84 4.73444 1.83884 0
M  V30 4932 H 461.77 3.97817 3.45035 0
M  V30 4933 H 464.261 3.10293 2.157 0
M  V30 4934 H 464.574 6.68155 3.88316 0
M  V30 4935 H 462.919 6.0054 3.49824 0
M  V30 4936 H 466.11 3.89103 2.60224 0
M  V30 4937 H 466.283 5.52279 3.38957 0
M  V30 4938 N 459.689 -1.00246 1.21608 0
M  V30 4939 C 460.599 -2.12515 0.993709 0
M  V30 4940 C 461.615 -1.73913 -0.0549939 0
M  V30 4941 O 462.791 -2.00943 0.135619 0
M  V30 4942 C 459.856 -3.42083 0.563953 0
M  V30 4943 C 458.917 -3.94843 1.68516 0
M  V30 4944 C 458.15 -5.18226 1.27582 0
M  V30 4945 O 458.373 -5.70201 0.150506 0
M  V30 4946 O 457.307 -5.64497 2.0887 0
M  V30 4947 H 461.133 -2.34152 1.93407 0
M  V30 4948 H 458.718 -1.10891 1.00118 0
M  V30 4949 H 460.6 -4.20073 0.334194 0
M  V30 4950 H 459.275 -3.21828 -0.347665 0
M  V30 4951 H 458.182 -3.18068 1.96935 0
M  V30 4952 H 459.515 -4.19512 2.5743 0
M  V30 4953 N 461.167 -1.02423 -1.1978 0
M  V30 4954 C 462.416 -0.713265 -1.88667 0
M  V30 4955 C 462.729 0.7609 -1.80193 0
M  V30 4956 O 463.935 1.18473 -2.44288 0
M  V30 4957 C 462.391 -1.22545 -3.38394 0
M  V30 4958 C 461.999 -2.72706 -3.55437 0
M  V30 4959 C 463.743 -0.990257 -4.12788 0
M  V30 4960 C 461.65 -3.17367 -4.99031 0
M  V30 4961 H 460.58 -0.263105 -0.706606 0
M  V30 4962 H 463.231 -1.23792 -1.35454 0
M  V30 4963 H 461.613 -0.628732 -3.90977 0
M  V30 4964 H 462.787 -3.37993 -3.13205 0
M  V30 4965 H 461.102 -2.94453 -2.94425 0
M  V30 4966 H 463.699 -1.29926 -5.18675 0
M  V30 4967 H 464.042 0.0730761 -4.16236 0
M  V30 4968 H 464.575 -1.55074 -3.66329 0
M  V30 4969 H 461.314 -4.23009 -5.00743 0
M  V30 4970 H 460.834 -2.56805 -5.42044 0
M  V30 4971 H 462.513 -3.10441 -5.67658 0
M  V30 4972 N 462.645 1.35699 -0.801477 0
M  V30 4973 C 463.575 2.32436 -0.222658 0
M  V30 4974 C 464.556 1.5723 0.649057 0
M  V30 4975 O 465.741 1.85324 0.580387 0
M  V30 4976 C 462.871 3.41469 0.633719 0
M  V30 4977 C 461.825 4.27774 -0.139083 0
M  V30 4978 C 461.151 5.28082 0.838666 0
M  V30 4979 C 462.451 5.04946 -1.33517 0
M  V30 4980 H 464.145 2.81094 -1.03086 0
M  V30 4981 H 461.691 1.35146 -0.497155 0
M  V30 4982 H 463.644 4.08143 1.04868 0
M  V30 4983 H 462.368 2.91408 1.47475 0
M  V30 4984 H 461.027 3.62673 -0.535156 0
M  V30 4985 H 460.675 4.7429 1.67506 0
M  V30 4986 H 460.375 5.86695 0.32594 0
M  V30 4987 H 461.899 5.97628 1.25194 0
M  V30 4988 H 463.313 5.64593 -0.995349 0
M  V30 4989 H 461.71 5.7303 -1.78202 0
M  V30 4990 H 462.78 4.35886 -2.12442 0
M  V30 4991 N 464.123 0.554532 1.47522 0
M  V30 4992 C 465.363 0.0317994 2.04375 0
M  V30 4993 C 465.727 -1.29242 1.41988 0
M  V30 4994 O 466.928 -1.90269 1.89872 0
M  V30 4995 C 465.199 -0.0623344 3.57346 0
M  V30 4996 S 466.758 -0.531578 4.35568 0
M  V30 4997 H 463.576 0.0238553 0.7106 0
M  V30 4998 H 466.178 0.74066 1.80927 0
M  V30 4999 H 464.882 0.905857 4.00278 0
M  V30 5000 H 464.413 -0.794831 3.85287 0
M  V30 5001 H 466.428 -1.79175 4.62721 0
M  V30 5002 N 465.601 -1.54893 0.290851 0
M  V30 5003 C 466.849 -1.99538 -0.320756 0
M  V30 5004 C 467.17 -1.18075 -1.55188 0
M  V30 5005 O 466.44 -0.274162 -1.93972 0
M  V30 5006 H 465.02 -0.737052 -0.121507 0
M  V30 5007 H 467.682 -1.90755 0.399832 0
M  V30 5008 H 466.778 -3.06282 -0.599802 0
M  V30 5009 N 467.08 -0.0183926 -1.57589 0
M  V30 5010 C 468.32 0.666846 -1.93216 0
M  V30 5011 C 468.684 1.69905 -0.894215 0
M  V30 5012 O 469.885 2.436 -1.13633 0
M  V30 5013 C 468.156 1.27684 -3.33814 0
M  V30 5014 S 469.715 1.98464 -3.91353 0
M  V30 5015 H 466.533 0.219826 -0.676164 0
M  V30 5016 H 469.135 -0.0794893 -1.95338 0
M  V30 5017 H 467.839 0.513006 -4.07181 0
M  V30 5018 H 467.37 2.06071 -3.3511 0
M  V30 5019 H 469.385 3.26189 -3.73918 0
M  V30 5020 N 468.558 1.5553 0.254621 0
M  V30 5021 C 469.506 1.9048 1.33492 0
M  V30 5022 C 470.5 0.78304 1.50216 0
M  V30 5023 O 471.706 0.967582 1.51782 0
M  V30 5024 H 468.081 0.604846 0.44684 0
M  V30 5025 H 470.052 2.80688 1.01275 0
M  V30 5026 C 468.801 2.20928 2.68489 0
M  V30 5027 H 468.124 3.06742 2.56417 0
M  V30 5028 H 469.564 2.49291 3.42972 0
M  V30 5029 C 468.023 1.023 3.20993 0
M  V30 5030 O 468.553 0.267027 4.00811 0
M  V30 5031 N 466.759 0.815714 2.78917 0
M  V30 5032 H 466.306 1.43217 2.14119 0
M  V30 5033 H 466.264 0.0236532 3.14391 0
M  V30 5034 N 470.036 -0.519951 1.48776 0
M  V30 5035 C 471.284 -1.2727 1.56993 0
M  V30 5036 C 471.605 -1.9339 0.25004 0
M  V30 5037 O 470.875 -1.81822 -0.729216 0
M  V30 5038 H 469.455 -0.472732 0.578389 0
M  V30 5039 H 472.117 -0.604234 1.85297 0
M  V30 5040 H 471.213 -2.04669 2.3562 0
M  V30 5041 N 471.514 -1.37532 -0.769588 0
M  V30 5042 C 472.447 -1.27839 -1.8903 0
M  V30 5043 C 473.425 -0.158504 -1.61826 0
M  V30 5044 O 474.609 -0.333086 -1.85534 0
M  V30 5045 C 471.736 -0.977072 -3.24301 0
M  V30 5046 C 470.782 -2.11414 -3.70414 0
M  V30 5047 S 471.615 -3.73409 -3.83831 0
M  V30 5048 C 472.771 -3.45432 -5.21946 0
M  V30 5049 H 473.004 -2.22694 -1.96963 0
M  V30 5050 H 470.537 -1.2318 -0.930914 0
M  V30 5051 H 472.495 -0.810049 -4.02428 0
M  V30 5052 H 471.156 -0.0459701 -3.14066 0
M  V30 5053 H 470.349 -1.85837 -4.68488 0
M  V30 5054 H 469.951 -2.24141 -2.99394 0
M  V30 5055 H 472.243 -3.00554 -6.07185 0
M  V30 5056 H 473.186 -4.42841 -5.52537 0
M  V30 5057 H 473.594 -2.80311 -4.89986 0
M  V30 5058 N 472.992 0.995999 -1.22138 0
M  V30 5059 C 473.94 2.10673 -0.985876 0
M  V30 5060 C 474.934 1.69255 0.0699553 0
M  V30 5061 O 476.14 1.79812 -0.0822176 0
M  V30 5062 H 472.515 0.688865 -0.30161 0
M  V30 5063 H 474.486 2.27711 -1.92848 0
M  V30 5064 C 473.235 3.42881 -0.576909 0
M  V30 5065 H 472.558 3.75191 -1.38101 0
M  V30 5066 H 473.998 4.21589 -0.451518 0
M  V30 5067 C 472.457 3.29265 0.713196 0
M  V30 5068 O 472.987 3.60777 1.76643 0
M  V30 5069 N 471.193 2.82456 0.683162 0
M  V30 5070 H 470.74 2.5701 -0.174242 0
M  V30 5071 H 470.698 2.73727 1.54663 0
M  V30 5072 N 474.47 1.03057 1.19235 0
M  V30 5073 C 475.4 0.633497 2.24742 0
M  V30 5074 C 476.381 -0.358335 1.66283 0
M  V30 5075 O 477.566 -0.240676 1.92703 0
M  V30 5076 C 474.696 -0.0147648 3.47297 0
M  V30 5077 C 473.65 0.899527 4.18441 0
M  V30 5078 C 472.976 0.116281 5.34574 0
M  V30 5079 C 474.276 2.21404 4.73051 0
M  V30 5080 H 475.97 1.5155 2.58211 0
M  V30 5081 H 473.516 0.73014 1.24117 0
M  V30 5082 H 475.469 -0.304202 4.20301 0
M  V30 5083 H 474.193 -0.931577 3.13032 0
M  V30 5084 H 472.852 1.17319 3.47321 0
M  V30 5085 H 472.5 -0.802619 4.96555 0
M  V30 5086 H 472.2 0.725293 5.83107 0
M  V30 5087 H 473.724 -0.166376 6.10373 0
M  V30 5088 H 475.138 1.98601 5.37802 0
M  V30 5089 H 473.535 2.77512 5.32078 0
M  V30 5090 H 474.605 2.86752 3.91026 0
M  V30 5091 N 475.948 -1.35272 0.808662 0
M  V30 5092 C 477.196 -1.98316 0.389233 0
M  V30 5093 C 477.517 -1.64465 -1.04767 0
M  V30 5094 O 476.787 -0.928175 -1.72516 0
M  V30 5095 H 475.367 -0.733585 0.140935 0
M  V30 5096 H 478.029 -1.6515 1.03496 0
M  V30 5097 H 477.125 -3.08123 0.496631 0
M  V30 5098 O 477.465 -0.703344 -1.4538 0
M  V30 5099 H 478.156 -0.244572 -1.9215 0
M  V30 END ATOM
M  V30 BEGIN BOND
M  V30 END BOND
M  V30 END CTAB
M  END
$$$$
