drugbank_target|P42085 Xanthine phosphoribosyltransferase (DB04022)
 OpenBabel12092120003D

  0  0  0     0  0            999 V3000
M  V30 BEGIN CTAB
M  V30 COUNTS 3007 3026 0 0 0
M  V30 BEGIN ATOM
M  V30 1 H -0.908 1.98254 -0.117106 0
M  V30 2 N 0 1.576 0 0
M  V30 3 C 0.933 2.03868 1.02534 0
M  V30 4 C 1.911 0.928543 1.3348 0
M  V30 5 O 3.095 1.19667 1.45644 0
M  V30 6 C 0.222 2.43627 2.35294 0
M  V30 7 C -0.732 3.65373 2.2001 0
M  V30 8 S 0.101 5.13292 1.52614 0
M  V30 9 C 1.257 5.56322 2.86805 0
M  V30 10 H 1.49 2.90518 0.631377 0
M  V30 11 H -0.977 1.52953 0.210867 0
M  V30 12 H 0.981 2.67203 3.11629 0
M  V30 13 H -0.358 1.57376 2.7183 0
M  V30 14 H -1.165 3.90944 3.18086 0
M  V30 15 H -1.563 3.418 1.51819 0
M  V30 16 H 0.729 5.58782 3.83104 0
M  V30 17 H 1.672 6.56266 2.65933 0
M  V30 18 H 2.08 4.83886 2.90714 0
M  V30 19 N 1.4781 -0.272755 1.55222 0
M  V30 20 C 2.3881 -1.35918 1.91216 0
M  V30 21 C 3.4041 -1.54026 0.809436 0
M  V30 22 O 4.5801 -1.68148 1.10852 0
M  V30 23 C 1.6451 -2.69834 2.17693 0
M  V30 24 C 0.7061 -2.6047 3.41253 0
M  V30 25 C -0.0609 -3.88 3.66458 0
M  V30 26 O 0.1621 -4.88693 2.94169 0
M  V30 27 O -0.9039 -3.88189 4.59992 0
M  V30 28 H 2.9221 -1.0839 2.83699 0
M  V30 29 H 0.5071 -0.471301 1.41771 0
M  V30 30 H 2.3891 -3.49017 2.36147 0
M  V30 31 H 1.0641 -2.97148 1.28392 0
M  V30 32 H -0.0289 -1.79663 3.28134 0
M  V30 33 H 1.3041 -2.38106 4.30774 0
M  V30 34 N 2.9562 -1.48159 -0.537278 0
M  V30 35 C 3.9192 -1.61665 -1.62472 0
M  V30 36 C 4.9192 -0.490395 -1.5314 0
M  V30 37 O 6.1092 -0.755998 -1.5694 0
M  V30 38 C 3.2412 -1.57997 -3.02076 0
M  V30 39 H 4.4342 -2.58621 -1.51839 0
M  V30 40 H 1.9872 -1.36647 -0.758771 0
M  V30 41 H 2.7222 -0.624913 -3.18222 0
M  V30 42 H 2.5072 -2.39755 -3.10258 0
M  V30 43 H 3.9972 -1.70627 -3.81151 0
M  V30 44 N 4.4343 0.785586 -1.36625 0
M  V30 45 C 5.3643 1.91259 -1.33949 0
M  V30 46 C 6.3453 1.68795 -0.210325 0
M  V30 47 O 7.5303 1.89854 -0.408561 0
M  V30 48 C 4.6603 3.28339 -1.13186 0
M  V30 49 C 3.6143 3.65335 -2.22967 0
M  V30 50 C 2.9403 5.00806 -1.87342 0
M  V30 51 C 4.2403 3.7352 -3.65075 0
M  V30 52 H 5.9343 1.93755 -2.28253 0
M  V30 53 H 3.4803 0.930788 -1.09874 0
M  V30 54 H 5.4333 4.06804 -1.09948 0
M  V30 55 H 4.1573 3.2624 -0.153332 0
M  V30 56 H 2.8163 2.89169 -2.25337 0
M  V30 57 H 2.4643 4.95233 -0.880545 0
M  V30 58 H 2.1643 5.26529 -2.60846 0
M  V30 59 H 3.6883 5.81687 -1.85667 0
M  V30 60 H 5.1023 4.42168 -3.64911 0
M  V30 61 H 3.4993 4.10731 -4.37516 0
M  V30 62 H 4.5693 2.74527 -3.99703 0
M  V30 63 N 5.9124 1.20967 1.01018 0
M  V30 64 C 6.8594 0.964281 2.09691 0
M  V30 65 C 7.8294 -0.107853 1.65749 0
M  V30 66 O 9.0144 0.0381987 1.90762 0
M  V30 67 C 6.1544 0.52943 3.41015 0
M  V30 68 C 5.2674 1.67043 3.98398 0
M  V30 69 C 4.4024 1.18525 5.17808 0
M  V30 70 C 3.4414 2.29892 5.67288 0
M  V30 71 N 2.5784 1.82546 6.77954 0
M  V30 72 H 7.4184 1.89463 2.30017 0
M  V30 73 H 4.9554 0.944289 1.1279 0
M  V30 74 H 6.9134 0.258588 4.16398 0
M  V30 75 H 5.5434 -0.363919 3.20742 0
M  V30 76 H 4.5954 2.05603 3.20049 0
M  V30 77 H 5.9074 2.50877 4.31117 0
M  V30 78 H 5.0614 0.870762 6.00419 0
M  V30 79 H 3.8004 0.316887 4.86669 0
M  V30 80 H 2.8054 2.6215 4.83278 0
M  V30 81 H 4.0304 3.17216 6.00459 0
M  V30 82 H 1.9764 0.980454 6.48632 0
M  V30 83 H 1.8934 2.59956 7.09901 0
M  V30 84 H 3.1614 1.54115 7.64113 0
M  V30 85 N 7.3905 -1.2043 1.01659 0
M  V30 86 C 8.8065 -1.41852 0.731442 0
M  V30 87 C 9.0065 -1.89358 -0.688898 0
M  V30 88 O 8.0625 -2.06247 -1.45666 0
M  V30 89 C 9.3755 -2.44019 1.75714 0
M  V30 90 C 10.9235 -2.57785 1.77527 0
M  V30 91 C 11.3985 -3.63194 2.79023 0
M  V30 92 N 12.8895 -3.70678 2.77763 0
M  V30 93 C 13.6245 -4.51897 3.52954 0
M  V30 94 N 13.1205 -5.36921 4.37821 0
M  V30 95 N 14.9135 -4.4643 3.41551 0
M  V30 96 H 7.0645 -0.879093 1.93354 0
M  V30 97 H 9.3275 -0.448425 0.835236 0
M  V30 98 H 9.0335 -2.1611 2.77469 0
M  V30 99 H 8.9075 -3.43007 1.56927 0
M  V30 100 H 11.2945 -2.85023 0.764569 0
M  V30 101 H 11.3755 -1.58992 2.00387 0
M  V30 102 H 11.0195 -3.36699 3.80258 0
M  V30 103 H 10.9495 -4.61609 2.53425 0
M  V30 104 H 13.4405 -3.09944 2.16201 0
M  V30 105 H 13.7535 -5.95981 4.91962 0
M  V30 106 H 12.0985 -5.36424 4.41899 0
M  V30 107 H 15.2895 -3.79042 2.74672 0
M  V30 108 H 15.4625 -5.09491 4.00404 0
M  V30 109 N 8.8686 -0.792821 -1.36206 0
M  V30 110 C 9.8156 -0.191653 -2.30003 0
M  V30 111 C 10.7856 0.666453 -1.52143 0
M  V30 112 O 11.9706 0.61442 -1.80636 0
M  V30 113 C 9.1106 0.664848 -3.38635 0
M  V30 114 C 8.2236 -0.212175 -4.31479 0
M  V30 115 C 7.3586 0.651022 -5.27196 0
M  V30 116 C 6.3976 -0.227247 -6.11678 0
M  V30 117 N 5.5346 0.595127 -6.99573 0
M  V30 118 H 10.3746 -0.996978 -2.80828 0
M  V30 119 H 7.9116 -0.503206 -1.38225 0
M  V30 120 H 9.8696 1.17645 -4.00269 0
M  V30 121 H 8.4996 1.43557 -2.89122 0
M  V30 122 H 7.5516 -0.841777 -3.70969 0
M  V30 123 H 8.8636 -0.888751 -4.90818 0
M  V30 124 H 8.0176 1.2283 -5.94136 0
M  V30 125 H 6.7566 1.36121 -4.68319 0
M  V30 126 H 5.7616 -0.816904 -5.43697 0
M  V30 127 H 6.9866 -0.93509 -6.72631 0
M  V30 128 H 4.9326 1.28955 -6.432 0
M  V30 129 H 4.8496 -0.0236952 -7.55996 0
M  V30 130 H 6.1176 1.15613 -7.70879 0
M  V30 131 N 10.3467 1.47872 -0.545128 0
M  V30 132 C 11.5957 2.01695 -0.0145033 0
M  V30 133 C 11.9087 1.42609 1.33873 0
M  V30 134 O 13.1147 1.88021 1.95858 0
M  V30 135 C 11.5707 3.59892 0.0245068 0
M  V30 136 C 11.1787 4.27966 -1.32475 0
M  V30 137 C 12.9227 4.21507 0.50316 0
M  V30 138 C 10.8297 5.78136 -1.2455 0
M  V30 139 H 9.7597 0.753998 -0.00165172 0
M  V30 140 H 12.4107 1.69985 -0.691175 0
M  V30 141 H 10.7927 3.88509 0.766575 0
M  V30 142 H 11.9667 4.11003 -2.08357 0
M  V30 143 H 10.2817 3.78286 -1.74036 0
M  V30 144 H 12.8787 5.31538 0.580656 0
M  V30 145 H 13.2217 3.87855 1.51243 0
M  V30 146 H 13.7547 3.97376 -0.183681 0
M  V30 147 H 10.4937 6.16388 -2.23039 0
M  V30 148 H 10.0137 5.97469 -0.528282 0
M  V30 149 H 11.6927 6.40099 -0.942488 0
M  V30 150 N 11.8248 0.280983 1.55075 0
M  V30 151 C 12.7348 -0.61388 2.26426 0
M  V30 152 C 13.7508 -1.16521 1.29224 0
M  V30 153 O 14.9268 -1.19426 1.62171 0
M  V30 154 C 11.9918 -1.7788 2.9759 0
M  V30 155 C 11.0528 -1.26355 4.10284 0
M  V30 156 C 10.2858 -2.37295 4.78045 0
M  V30 157 O 10.5088 -3.56777 4.45047 0
M  V30 158 O 9.4428 -2.05119 5.65871 0
M  V30 159 H 13.2688 -0.0356932 3.03679 0
M  V30 160 H 10.8538 0.0481686 1.49322 0
M  V30 161 H 12.7358 -2.45791 3.42293 0
M  V30 162 H 11.4108 -2.34397 2.23249 0
M  V30 163 H 10.3178 -0.550735 3.70024 0
M  V30 164 H 11.6508 -0.744065 4.86543 0
M  V30 165 N 13.3029 -1.57598 0.00835791 0
M  V30 166 C 14.2129 -2.12385 -0.996487 0
M  V30 167 C 15.2289 -1.07108 -1.37127 0
M  V30 168 O 16.4049 -1.39055 -1.4569 0
M  V30 169 C 13.4699 -2.62314 -2.26699 0
M  V30 170 C 12.5309 -3.82225 -1.95456 0
M  V30 171 C 11.7639 -4.29763 -3.16449 0
M  V30 172 O 11.9869 -3.76584 -4.28416 0
M  V30 173 O 10.9209 -5.21832 -2.99958 0
M  V30 174 H 14.7469 -2.98479 -0.560725 0
M  V30 175 H 12.3319 -1.47903 -0.210987 0
M  V30 176 H 14.2139 -2.94589 -3.01322 0
M  V30 177 H 12.8889 -1.79313 -2.69497 0
M  V30 178 H 11.7959 -3.54909 -1.18282 0
M  V30 179 H 13.1289 -4.66324 -1.57489 0
M  V30 180 N 14.781 0.264519 -1.55364 0
M  V30 181 C 15.691 1.34902 -1.91934 0
M  V30 182 C 16.707 1.53595 -0.817593 0
M  V30 183 O 17.883 1.67558 -1.11742 0
M  V30 184 C 14.948 2.68676 -2.19121 0
M  V30 185 C 14.009 2.58657 -3.4263 0
M  V30 186 C 13.242 3.86051 -3.68511 0
M  V30 187 O 13.465 4.87126 -2.96757 0
M  V30 188 O 12.399 3.85744 -4.62045 0
M  V30 189 H 16.225 1.06883 -2.8427 0
M  V30 190 H 13.81 0.463775 -1.42019 0
M  V30 191 H 15.692 3.47759 -2.37995 0
M  V30 192 H 14.367 2.96463 -1.29966 0
M  V30 193 H 13.274 1.7792 -3.29082 0
M  V30 194 H 14.607 2.35818 -4.32031 0
M  V30 195 N 16.2591 1.48442 0.529413 0
M  V30 196 C 17.5071 1.56179 1.28267 0
M  V30 197 C 17.8281 0.237721 1.93546 0
M  V30 198 O 17.0981 -0.740779 1.81354 0
M  V30 199 H 15.6781 0.575367 0.476405 0
M  V30 200 H 18.3401 1.84909 0.61602 0
M  V30 201 H 17.4361 2.34312 2.06165 0
M  V30 202 N 17.7372 -0.778329 1.37039 0
M  V30 203 C 18.9832 -1.53892 1.32079 0
M  V30 204 C 19.3162 -1.9396 -0.0965386 0
M  V30 205 O 18.5912 -1.63568 -1.05242 0
M  V30 206 C 18.8742 -2.80847 2.25382 0
M  V30 207 C 18.7272 -2.47076 3.75864 0
M  V30 208 C 20.0462 -3.82741 2.1725 0
M  V30 209 H 17.1652 -0.558303 0.48111 0
M  V30 210 H 19.8072 -0.893397 1.67685 0
M  V30 211 H 17.9572 -3.35931 1.95148 0
M  V30 212 H 19.6292 -1.97957 4.16666 0
M  V30 213 H 17.8722 -1.79863 3.94755 0
M  V30 214 H 18.5432 -3.37798 4.36574 0
M  V30 215 H 21.0192 -3.37133 2.43887 0
M  V30 216 H 19.8952 -4.69303 2.84686 0
M  V30 217 H 20.1562 -4.2652 1.16331 0
M  V30 218 N 19.2153 -1.21501 -1.00376 0
M  V30 219 C 20.4613 -1.03452 -1.74429 0
M  V30 220 C 20.7943 0.430764 -1.89362 0
M  V30 221 O 20.0693 1.31962 -1.42886 0
M  V30 222 C 20.3523 -1.73375 -3.15615 0
M  V30 223 C 20.2053 -3.27431 -3.08397 0
M  V30 224 C 21.5243 -1.47732 -4.14564 0
M  V30 225 H 18.6433 -0.377226 -0.633143 0
M  V30 226 H 21.2853 -1.49693 -1.17013 0
M  V30 227 H 19.4353 -1.34064 -3.64636 0
M  V30 228 H 21.1073 -3.76119 -2.67081 0
M  V30 229 H 19.3503 -3.5767 -2.45468 0
M  V30 230 H 20.0213 -3.71524 -4.08258 0
M  V30 231 H 22.4973 -1.8186 -3.74254 0
M  V30 232 H 21.3733 -1.99169 -5.11491 0
M  V30 233 H 21.6343 -0.407589 -4.40217 0
M  V30 234 N 20.6934 1.19889 -1.02296 0
M  V30 235 C 21.6234 2.25141 -0.619174 0
M  V30 236 C 22.6044 1.66051 0.368915 0
M  V30 237 O 23.7894 1.92546 0.252941 0
M  V30 238 C 20.9194 3.4728 0.0368783 0
M  V30 239 C 19.8734 4.19005 -0.872865 0
M  V30 240 C 19.1994 5.34637 -0.0822402 0
M  V30 241 C 20.4994 4.74452 -2.18387 0
M  V30 242 H 22.1934 2.59171 -1.49903 0
M  V30 243 H 19.7394 1.24579 -0.722222 0
M  V30 244 H 21.6924 4.20098 0.330958 0
M  V30 245 H 20.4164 3.12433 0.95149 0
M  V30 246 H 19.0754 3.48061 -1.15105 0
M  V30 247 H 18.7234 4.96034 0.83422 0
M  V30 248 H 18.4234 5.83557 -0.688149 0
M  V30 249 H 19.9474 6.10255 0.205238 0
M  V30 250 H 21.3614 5.39055 -1.95172 0
M  V30 251 H 19.7584 5.33834 -2.74119 0
M  V30 252 H 20.8284 3.92844 -2.84257 0
M  V30 253 N 22.1715 0.800033 1.35784 0
M  V30 254 C 23.3965 0.388511 2.03729 0
M  V30 255 C 23.8215 -0.990481 1.5991 0
M  V30 256 O 23.1795 -1.64013 0.772612 0
M  V30 257 C 23.2275 0.4726 3.5749 0
M  V30 258 O 22.3315 -0.51646 4.09153 0
M  V30 259 H 21.6725 0.163271 0.643614 0
M  V30 260 H 24.2025 1.0841 1.73518 0
M  V30 261 H 24.2125 0.34003 4.06581 0
M  V30 262 H 22.8875 1.47848 3.88734 0
M  V30 263 H 21.4645 -0.344673 3.71304 0
M  V30 264 N 23.6496 -1.47581 0.552962 0
M  V30 265 C 24.9266 -1.95563 -0.0381515 0
M  V30 266 C 25.3066 -1.49552 -1.48988 0
M  V30 267 O 24.6546 -0.732414 -2.16444 0
M  V30 268 C 24.8646 -3.48848 0.102919 0
M  V30 269 C 26.2126 -4.24577 -0.0446082 0
M  V30 270 O 27.2366 -3.56187 0.0302548 0
M  V30 271 O 26.0956 -5.46116 -0.204923 0
M  V30 272 H 23.1896 -0.824321 -0.0665067 0
M  V30 273 H 25.7356 -1.58001 0.619186 0
M  V30 274 H 24.5076 -3.75129 1.11328 0
M  V30 275 H 24.1306 -3.93165 -0.592224 0
M  V30 276 N 25.1277 -0.289203 -1.54924 0
M  V30 277 C 26.0597 0.625583 -2.20497 0
M  V30 278 C 27.0727 1.10667 -1.19402 0
M  V30 279 O 28.2617 1.02615 -1.46056 0
M  V30 280 C 25.3617 1.86702 -2.82835 0
M  V30 281 C 24.5347 1.5304 -4.09753 0
M  V30 282 C 23.5937 2.62576 -4.56005 0
M  V30 283 O 22.6197 2.28167 -5.21468 0
M  V30 284 N 23.8217 3.92901 -4.27328 0
M  V30 285 H 26.5867 0.0642801 -2.99631 0
M  V30 286 H 24.1477 -0.110896 -1.6152 0
M  V30 287 H 26.1397 2.59304 -3.10715 0
M  V30 288 H 24.7097 2.33702 -2.07611 0
M  V30 289 H 23.9297 0.637564 -3.8901 0
M  V30 290 H 25.2177 1.28072 -4.92418 0
M  V30 291 H 24.6157 4.23671 -3.74859 0
M  V30 292 H 23.1727 4.61837 -4.59946 0
M  V30 293 N 26.6058 1.57591 -0.0167156 0
M  V30 294 C 27.8518 1.91567 0.665582 0
M  V30 295 C 28.1848 0.892298 1.72487 0
M  V30 296 O 27.4598 -0.0867127 1.94307 0
M  V30 297 C 27.7428 3.36069 1.29342 0
M  V30 298 C 27.5958 4.49135 0.244541 0
M  V30 299 C 28.9148 3.803 2.21495 0
M  V30 300 H 26.0338 0.69666 0.240488 0
M  V30 301 H 28.6758 1.89866 -0.0714356 0
M  V30 302 H 26.8258 3.3765 1.92158 0
M  V30 303 H 28.4978 4.59689 -0.385228 0
M  V30 304 H 26.7408 4.3165 -0.431379 0
M  V30 305 H 27.4118 5.47242 0.723207 0
M  V30 306 H 29.8878 3.80377 1.68678 0
M  V30 307 H 28.7638 4.82127 2.62382 0
M  V30 308 H 29.0248 3.15104 3.101 0
M  V30 309 N 28.0839 -0.256276 1.55502 0
M  V30 310 C 29.0139 -1.32102 1.92539 0
M  V30 311 C 29.9949 -1.50684 0.789194 0
M  V30 312 O 31.1799 -1.63449 1.04872 0
M  V30 313 C 28.3099 -2.67752 2.21192 0
M  V30 314 C 27.2639 -2.63878 3.36975 0
M  V30 315 C 26.5899 -4.03236 3.51147 0
M  V30 316 C 27.8899 -2.21682 4.72921 0
M  V30 317 H 29.5839 -1.01351 2.81724 0
M  V30 318 H 27.1299 -0.486105 1.35547 0
M  V30 319 H 29.0829 -3.42365 2.45691 0
M  V30 320 H 27.8069 -3.0012 1.28824 0
M  V30 321 H 26.4659 -1.91722 3.12471 0
M  V30 322 H 26.1139 -4.32854 2.56216 0
M  V30 323 H 25.8139 -4.01535 4.29003 0
M  V30 324 H 27.3379 -4.79563 3.77957 0
M  V30 325 H 28.7519 -2.86023 4.96854 0
M  V30 326 H 27.1489 -2.3111 5.53812 0
M  V30 327 H 28.2189 -1.16833 4.70615 0
M  V30 328 N 29.562 -1.4872 -0.521534 0
M  V30 329 C 30.509 -1.63871 -1.62527 0
M  V30 330 C 31.479 -0.480559 -1.58996 0
M  V30 331 O 32.664 -0.705085 -1.77294 0
M  V30 332 C 29.804 -1.69227 -3.00759 0
M  V30 333 C 28.917 -2.96207 -3.14461 0
M  V30 334 C 28.052 -2.92671 -4.43303 0
M  V30 335 C 27.091 -4.14318 -4.50563 0
M  V30 336 N 26.228 -4.0881 -5.70805 0
M  V30 337 H 31.068 -2.58123 -1.48918 0
M  V30 338 H 28.605 -1.28 -0.724878 0
M  V30 339 H 30.563 -1.70314 -3.80853 0
M  V30 340 H 29.193 -0.784586 -3.1312 0
M  V30 341 H 28.245 -3.04826 -2.27564 0
M  V30 342 H 29.557 -3.86192 -3.15686 0
M  V30 343 H 28.711 -2.92206 -5.31696 0
M  V30 344 H 27.45 -2.00429 -4.44612 0
M  V30 345 H 26.455 -4.15049 -3.60575 0
M  V30 346 H 27.68 -5.07729 -4.50986 0
M  V30 347 H 25.626 -3.19394 -5.72995 0
M  V30 348 H 25.543 -4.92509 -5.7356 0
M  V30 349 H 26.811 -4.12418 -6.61462 0
M  V30 350 N 31.0401 0.771051 -1.3745 0
M  V30 351 C 32.2861 1.5319 -1.32894 0
M  V30 352 C 32.6191 1.94008 0.0862511 0
M  V30 353 O 31.8941 1.64124 1.04373 0
M  V30 354 C 32.1771 2.79648 -2.26868 0
M  V30 355 C 32.0301 2.45079 -3.77169 0
M  V30 356 C 33.3491 3.81583 -2.19277 0
M  V30 357 H 30.4681 0.555744 -0.484064 0
M  V30 358 H 33.1101 0.884492 -1.68157 0
M  V30 359 H 31.2601 3.34891 -1.96926 0
M  V30 360 H 32.9321 1.95745 -4.1771 0
M  V30 361 H 31.1751 1.77767 -3.95704 0
M  V30 362 H 31.8461 3.35478 -4.38359 0
M  V30 363 H 34.3221 3.35835 -2.45671 0
M  V30 364 H 33.1981 4.67787 -2.87171 0
M  V30 365 H 33.4591 4.25897 -1.18592 0
M  V30 366 N 32.5182 1.22032 0.997298 0
M  V30 367 C 33.7952 0.950823 1.70935 0
M  V30 368 C 34.1752 -0.535292 2.042 0
M  V30 369 O 33.5232 -1.50217 1.72183 0
M  V30 370 C 33.7332 1.84386 2.96315 0
M  V30 371 C 35.0812 2.09732 3.69185 0
M  V30 372 O 36.1052 1.81798 3.06314 0
M  V30 373 O 34.9642 2.57018 4.82291 0
M  V30 374 H 32.0582 0.357204 0.745878 0
M  V30 375 H 34.6042 1.32997 1.05404 0
M  V30 376 H 33.3762 2.84928 2.68201 0
M  V30 377 H 32.9992 1.46602 3.69586 0
M  V30 378 N 33.9963 -1.19345 1.0293 0
M  V30 379 C 35.2213 -1.93538 0.745511 0
M  V30 380 C 35.6463 -1.75007 -0.689511 0
M  V30 381 O 35.0043 -1.05265 -1.47611 0
M  V30 382 C 35.0523 -3.43336 1.10239 0
M  V30 383 O 34.1563 -4.11806 0.221289 0
M  V30 384 H 33.4973 -0.604193 0.275404 0
M  V30 385 H 36.0273 -1.5141 1.37609 0
M  V30 386 H 36.0373 -3.94004 1.05947 0
M  V30 387 H 34.7123 -3.56146 2.14786 0
M  V30 388 H 33.2893 -3.715 0.322842 0
M  V30 389 N 35.4744 -0.807222 -1.35358 0
M  V30 390 C 36.7214 -0.387888 -1.9875 0
M  V30 391 C 37.0494 1.04509 -1.64037 0
M  V30 392 O 36.3044 1.73986 -0.895946 0
M  V30 393 C 36.6034 -0.519036 -3.53611 0
M  V30 394 C 36.2694 -1.91542 -4.08194 0
M  V30 395 C 34.9314 -2.29745 -4.22813 0
M  V30 396 C 37.2834 -2.82896 -4.37744 0
M  V30 397 C 34.6114 -3.58668 -4.643 0
M  V30 398 C 36.9634 -4.11265 -4.8067 0
M  V30 399 C 35.6274 -4.49466 -4.93494 0
M  V30 400 H 34.8974 -0.141938 -0.727279 0
M  V30 401 H 37.5444 -1.02814 -1.6156 0
M  V30 402 H 35.8494 0.204658 -3.91265 0
M  V30 403 H 37.5464 -0.175345 -4.00616 0
M  V30 404 H 34.1364 -1.60862 -3.97268 0
M  V30 405 H 38.3204 -2.54629 -4.26002 0
M  V30 406 H 33.5764 -3.88113 -4.72418 0
M  V30 407 H 37.7504 -4.82153 -5.02496 0
M  V30 408 H 35.3774 -5.49418 -5.25399 0
M  V30 409 N 36.9525 1.47285 -0.560781 0
M  V30 410 C 37.8825 2.32857 0.173105 0
M  V30 411 C 38.8635 1.44009 0.905281 0
M  V30 412 O 40.0485 1.7286 0.885046 0
M  V30 413 C 37.1785 3.25861 1.20133 0
M  V30 414 C 36.1325 4.23978 0.585388 0
M  V30 415 C 35.4585 5.06332 1.7185 0
M  V30 416 C 36.7585 5.20242 -0.463178 0
M  V30 417 H 38.4525 2.94466 -0.541307 0
M  V30 418 H 35.9985 1.41601 -0.261764 0
M  V30 419 H 37.9515 3.84569 1.72293 0
M  V30 420 H 36.6755 2.62315 1.94573 0
M  V30 421 H 35.3345 3.66501 0.085054 0
M  V30 422 H 34.9825 4.39186 2.45203 0
M  V30 423 H 34.6825 5.72762 1.31213 0
M  V30 424 H 36.2065 5.67899 2.24329 0
M  V30 425 H 37.6205 5.73293 -0.027502 0
M  V30 426 H 36.0175 5.94896 -0.788627 0
M  V30 427 H 37.0875 4.65504 -1.35773 0
M  V30 428 N 38.4306 0.297415 1.54768 0
M  V30 429 C 39.3786 -0.596051 2.24833 0
M  V30 430 C 40.3726 -1.13992 1.25308 0
M  V30 431 O 41.5786 -1.09098 1.4317 0
M  V30 432 H 37.9536 -0.210814 0.721846 0
M  V30 433 H 39.9246 0.0174667 2.98395 0
M  V30 434 C 38.6736 -1.75818 2.99972 0
M  V30 435 H 37.9966 -1.3489 3.76357 0
M  V30 436 H 39.4366 -2.35949 3.52284 0
M  V30 437 C 37.8956 -2.66014 2.06732 0
M  V30 438 O 38.4256 -3.67009 1.63302 0
M  V30 439 N 36.6316 -2.33669 1.72763 0
M  V30 440 H 36.1786 -1.51586 2.08277 0
M  V30 441 H 36.1366 -2.94285 1.10652 0
M  V30 442 N 39.9087 -1.5758 0.0250728 0
M  V30 443 C 40.8587 -2.06468 -0.967201 0
M  V30 444 C 41.8427 -0.964376 -1.28797 0
M  V30 445 O 43.0347 -1.22797 -1.27475 0
M  V30 446 C 40.1637 -2.59203 -2.25097 0
M  V30 447 C 39.2497 -3.76157 -1.95874 0
M  V30 448 N 39.6407 -4.86919 -1.36905 0
M  V30 449 C 37.9387 -3.84566 -2.25887 0
M  V30 450 C 38.6397 -5.68172 -1.24724 0
M  V30 451 N 37.6157 -5.14953 -1.74138 0
M  V30 452 H 41.4177 -2.89508 -0.506176 0
M  V30 453 H 38.9317 -1.61399 -0.18004 0
M  V30 454 H 40.9287 -2.92517 -2.97052 0
M  V30 455 H 39.5887 -1.77592 -2.71829 0
M  V30 456 H 40.5997 -5.07256 -1.04459 0
M  V30 457 H 37.2767 -3.13854 -2.75321 0
M  V30 458 H 38.6667 -6.67221 -0.791605 0
M  V30 459 N 41.3868 0.248026 -1.55636 0
M  V30 460 C 42.3188 1.32993 -1.8667 0
M  V30 461 C 43.3318 1.44345 -0.752877 0
M  V30 462 O 44.5208 1.45715 -1.03098 0
M  V30 463 C 41.6208 2.70863 -2.03682 0
M  V30 464 C 40.7938 2.81792 -3.34532 0
M  V30 465 C 39.8528 4.005 -3.41301 0
M  V30 466 O 38.8788 3.9008 -4.14519 0
M  V30 467 N 40.0808 5.13618 -2.70512 0
M  V30 468 H 42.8458 1.06707 -2.8006 0
M  V30 469 H 40.4068 0.438129 -1.55859 0
M  V30 470 H 42.3988 3.48612 -2.05553 0
M  V30 471 H 40.9688 2.89862 -1.17041 0
M  V30 472 H 40.1888 1.90729 -3.44987 0
M  V30 473 H 41.4768 2.86043 -4.20781 0
M  V30 474 H 40.8748 5.24975 -2.10755 0
M  V30 475 H 39.4318 5.89505 -2.78077 0
M  V30 476 N 42.8649 1.48995 0.513639 0
M  V30 477 C 44.1139 1.57093 1.2651 0
M  V30 478 C 44.4269 0.257091 1.93903 0
M  V30 479 O 45.6329 0.216478 2.70636 0
M  V30 480 C 44.0889 2.77118 2.29638 0
M  V30 481 C 43.6969 4.15209 1.68241 0
M  V30 482 C 45.4409 2.94538 3.05692 0
M  V30 483 C 43.3479 5.26474 2.69406 0
M  V30 484 H 42.2779 0.584876 0.475854 0
M  V30 485 H 44.9289 1.7536 0.540487 0
M  V30 486 H 43.3109 2.52319 3.05207 0
M  V30 487 H 44.4849 4.50094 0.987505 0
M  V30 488 H 42.7999 4.03042 1.04623 0
M  V30 489 H 45.3969 3.74832 3.8132 0
M  V30 490 H 45.7399 2.04614 3.62545 0
M  V30 491 H 46.2729 3.19316 2.37238 0
M  V30 492 H 43.0119 6.18417 2.17351 0
M  V30 493 H 42.5319 4.96058 3.37175 0
M  V30 494 H 44.2109 5.55277 3.32078 0
M  V30 495 N 44.343 -0.763751 1.37857 0
M  V30 496 C 45.62 -1.51244 1.24035 0
M  V30 497 C 46 -2.10472 -0.162649 0
M  V30 498 O 45.348 -1.96206 -1.17112 0
M  V30 499 C 45.558 -2.58694 2.34261 0
M  V30 500 C 46.906 -3.25878 2.72193 0
M  V30 501 O 47.93 -2.68993 2.33497 0
M  V30 502 O 46.789 -4.2874 3.38887 0
M  V30 503 H 43.883 -0.670243 0.484462 0
M  V30 504 H 46.429 -0.800031 1.49658 0
M  V30 505 H 45.201 -2.13105 3.2818 0
M  V30 506 H 44.824 -3.37527 2.10146 0
M  V30 507 N 45.8211 -1.22559 -0.990812 0
M  V30 508 C 47.2321 -1.04791 -1.54518 0
M  V30 509 C 47.5831 0.387998 -1.92325 0
M  V30 510 O 46.7081 1.27328 -1.74976 0
M  V30 511 C 47.3031 -1.896 -2.80779 0
M  V30 512 C 45.8621 -1.76124 -3.32652 0
M  V30 513 C 45.0091 -1.8594 -2.05722 0
M  V30 514 H 47.9601 -1.36374 -0.811662 0
M  V30 515 H 47.9811 -1.41464 -3.53225 0
M  V30 516 H 47.4931 -2.94101 -2.53231 0
M  V30 517 H 45.5941 -0.743643 -3.65104 0
M  V30 518 H 45.7071 -2.58913 -4.03114 0
M  V30 519 H 44.0711 -1.29403 -2.19379 0
M  V30 520 H 44.8541 -2.91976 -1.80568 0
M  V30 521 N 47.2992 1.18797 -1.03562 0
M  V30 522 C 48.2292 2.24472 -0.643019 0
M  V30 523 C 49.2102 1.66433 0.351283 0
M  V30 524 O 50.3952 1.92803 0.232505 0
M  V30 525 C 47.5252 3.473 4.24935e-05 0
M  V30 526 C 46.4792 4.18055 -0.917257 0
M  V30 527 C 45.8052 5.34519 -0.138941 0
M  V30 528 C 47.1052 4.72109 -2.23407 0
M  V30 529 H 48.7992 2.57566 -1.52643 0
M  V30 530 H 46.3452 1.23806 -0.735394 0
M  V30 531 H 48.2982 4.20426 0.286383 0
M  V30 532 H 47.0222 3.13424 0.918299 0
M  V30 533 H 45.6812 3.46821 -1.1879 0
M  V30 534 H 45.3292 4.96891 0.781562 0
M  V30 535 H 45.0292 5.82794 -0.750005 0
M  V30 536 H 46.5532 6.10438 0.1405 0
M  V30 537 H 47.9672 5.36955 -2.00879 0
M  V30 538 H 46.3642 5.30897 -2.79765 0
M  V30 539 H 47.4342 3.89807 -2.88407 0
M  V30 540 N 48.7773 0.814389 1.34928 0
M  V30 541 C 49.7073 0.244827 2.32213 0
M  V30 542 C 50.6883 -0.634024 1.57842 0
M  V30 543 O 51.8733 -0.562676 1.8587 0
M  V30 544 C 49.0033 -0.601106 3.42058 0
M  V30 545 C 47.9573 0.179896 4.27622 0
M  V30 546 C 47.2833 -0.788237 5.28858 0
M  V30 547 C 48.5833 1.38329 5.03649 0
M  V30 548 H 50.2773 1.05763 2.80097 0
M  V30 549 H 47.8233 0.510029 1.34665 0
M  V30 550 H 49.7763 -1.00968 4.09125 0
M  V30 551 H 48.5003 -1.44688 2.92802 0
M  V30 552 H 47.1593 0.569739 3.62146 0
M  V30 553 H 46.8073 -1.62973 4.75866 0
M  V30 554 H 46.5073 -0.269942 5.8698 0
M  V30 555 H 48.0313 -1.19485 5.98795 0
M  V30 556 H 49.4453 1.04918 5.63618 0
M  V30 557 H 47.8423 1.83662 5.71304 0
M  V30 558 H 48.9123 2.16592 4.33839 0
M  V30 559 N 50.2554 -1.46986 0.568584 0
M  V30 560 C 51.1884 -2.27129 -0.220779 0
M  V30 561 C 52.1664 -1.34757 -0.909905 0
M  V30 562 O 53.3504 -1.64152 -0.926622 0
M  V30 563 C 50.4774 -3.12108 -1.31553 0
M  V30 564 C 49.5234 -4.20141 -0.733748 0
M  V30 565 S 50.3564 -5.33783 0.428479 0
M  V30 566 C 51.5124 -6.22327 -0.667811 0
M  V30 567 H 51.7454 -2.93731 0.459267 0
M  V30 568 H 49.2784 -1.5026 0.355154 0
M  V30 569 H 51.2364 -3.61636 -1.94241 0
M  V30 570 H 49.8974 -2.44847 -1.96746 0
M  V30 571 H 49.0904 -4.79373 -1.5562 0
M  V30 572 H 48.6924 -3.73553 -0.182812 0
M  V30 573 H 50.9844 -6.59364 -1.55708 0
M  V30 574 H 51.9274 -7.0801 -0.11258 0
M  V30 575 H 52.3354 -5.5618 -0.965601 0
M  V30 576 N 51.7335 -0.305618 -1.54608 0
M  V30 577 C 52.6655 0.602161 -2.21149 0
M  V30 578 C 53.6785 1.09394 -1.20569 0
M  V30 579 O 54.8675 1.0106 -1.47136 0
M  V30 580 C 51.9675 1.83692 -2.84799 0
M  V30 581 C 51.1405 1.48686 -4.11353 0
M  V30 582 C 50.1995 2.57725 -4.58764 0
M  V30 583 O 49.2255 2.22623 -5.23858 0
M  V30 584 N 50.4275 3.88346 -4.31471 0
M  V30 585 H 53.1925 0.0324966 -2.99682 0
M  V30 586 H 50.7535 -0.128021 -1.61393 0
M  V30 587 H 52.7455 2.55994 -3.13448 0
M  V30 588 H 51.3155 2.31486 -2.10078 0
M  V30 589 H 50.5355 0.596269 -3.89664 0
M  V30 590 H 51.8235 1.22842 -4.93748 0
M  V30 591 H 51.2215 4.19671 -3.79331 0
M  V30 592 H 49.7785 4.56932 -4.64818 0
M  V30 593 N 53.2116 1.57565 -0.0334293 0
M  V30 594 C 54.6276 1.56297 0.322997 0
M  V30 595 C 54.8276 1.03945 1.7262 0
M  V30 596 O 53.8836 0.688109 2.42943 0
M  V30 597 C 55.1966 3.00232 0.167664 0
M  V30 598 C 56.7446 3.12078 0.240107 0
M  V30 599 C 57.2196 4.57859 0.113513 0
M  V30 600 N 58.7106 4.62887 0.170359 0
M  V30 601 C 59.4456 5.73319 0.0962517 0
M  V30 602 N 58.9416 6.92794 -0.0291881 0
M  V30 603 N 60.7346 5.61898 0.150551 0
M  V30 604 H 52.8856 1.89923 -0.950956 0
M  V30 605 H 55.1486 0.873824 -0.367608 0
M  V30 606 H 54.8546 3.42501 -0.799102 0
M  V30 607 H 54.7286 3.654 0.936083 0
M  V30 608 H 57.1156 2.69718 1.19733 0
M  V30 609 H 57.1966 2.49623 -0.558763 0
M  V30 610 H 56.8406 5.009 -0.840314 0
M  V30 611 H 56.7706 5.18299 0.931302 0
M  V30 612 H 59.2616 3.76954 0.26728 0
M  V30 613 H 59.5746 7.7276 -0.0789252 0
M  V30 614 H 57.9196 6.94971 -0.0640299 0
M  V30 615 H 61.1106 4.67448 0.246981 0
M  V30 616 H 61.2836 6.47938 0.0893365 0
M  V30 617 N 54.6897 -0.239769 1.55765 0
M  V30 618 C 55.9387 -0.964754 1.77131 0
M  V30 619 C 56.2517 -1.86213 0.59868 0
M  V30 620 O 57.4577 -2.6244 0.695522 0
M  V30 621 C 55.9137 -1.76552 3.1362 0
M  V30 622 C 55.5217 -0.915185 4.38553 0
M  V30 623 C 57.2657 -2.48281 3.44321 0
M  V30 624 C 55.1727 -1.71225 5.66071 0
M  V30 625 H 54.1027 -0.363953 0.660344 0
M  V30 626 H 56.7537 -0.219181 1.82186 0
M  V30 627 H 55.1357 -2.55331 3.02691 0
M  V30 628 H 56.3097 -0.169217 4.60489 0
M  V30 629 H 54.6247 -0.310889 4.15238 0
M  V30 630 H 57.2217 -3.08382 4.36812 0
M  V30 631 H 57.5647 -3.20256 2.65973 0
M  V30 632 H 58.0977 -1.76507 3.56497 0
M  V30 633 H 54.8367 -1.03612 6.4726 0
M  V30 634 H 54.3567 -2.43331 5.48224 0
M  V30 635 H 56.0357 -2.27758 6.05587 0
M  V30 636 N 56.1678 -1.49265 -0.50573 0
M  V30 637 C 57.4158 -1.582 -1.25766 0
M  V30 638 C 57.7368 -0.268482 -1.93143 0
M  V30 639 O 57.0068 0.711833 -1.8251 0
M  V30 640 H 55.5868 -0.582873 -0.467191 0
M  V30 641 H 58.2488 -1.85865 -0.586525 0
M  V30 642 H 57.3448 -2.37563 -2.02412 0
M  V30 643 N 57.6459 0.756429 -1.3826 0
M  V30 644 C 58.9229 1.50584 -1.24835 0
M  V30 645 C 59.3029 2.10556 0.151485 0
M  V30 646 O 58.6509 1.96825 1.1607 0
M  V30 647 C 58.8609 2.57448 -2.3563 0
M  V30 648 C 60.2089 3.24429 -2.73917 0
M  V30 649 O 61.2329 2.67751 -2.34921 0
M  V30 650 O 60.0919 4.26937 -3.41156 0
M  V30 651 H 57.1859 0.667664 -0.48801 0
M  V30 652 H 59.7319 0.792083 -1.5008 0
M  V30 653 H 58.5039 2.11362 -3.29305 0
M  V30 654 H 58.1269 3.36408 -2.11933 0
M  V30 655 N 59.124 1.23083 0.984299 0
M  V30 656 C 60.034 1.02515 2.11016 0
M  V30 657 C 61.05 -0.0291702 1.73976 0
M  V30 658 O 62.226 0.165434 2.00719 0
M  V30 659 C 59.291 0.614673 3.41208 0
M  V30 660 C 58.352 1.74359 3.92297 0
M  V30 661 C 57.585 1.35261 5.16275 0
M  V30 662 O 57.808 0.235136 5.69915 0
M  V30 663 O 56.742 2.17227 5.61334 0
M  V30 664 H 60.568 1.96862 2.31255 0
M  V30 665 H 58.153 1.01753 1.09392 0
M  V30 666 H 60.035 0.396518 4.1953 0
M  V30 667 H 58.71 -0.299851 3.22308 0
M  V30 668 H 57.617 2.01635 3.1511 0
M  V30 669 H 58.95 2.63629 4.15645 0
M  V30 670 N 60.6021 -1.18246 1.0419 0
M  V30 671 C 61.8491 -1.88257 0.746017 0
M  V30 672 C 62.1771 -1.80429 -0.726331 0
M  V30 673 O 61.4321 -1.2 -1.54591 0
M  V30 674 C 61.7311 -3.38082 1.15911 0
M  V30 675 C 61.3971 -3.66114 2.63195 0
M  V30 676 C 60.0591 -3.73474 3.03432 0
M  V30 677 C 62.4111 -3.78398 3.5842 0
M  V30 678 C 59.7391 -3.90599 4.37778 0
M  V30 679 C 62.0911 -3.97039 4.92487 0
M  V30 680 C 60.7551 -4.02635 5.32392 0
M  V30 681 H 60.0251 -0.688883 0.272987 0
M  V30 682 H 62.6721 -1.3995 1.30715 0
M  V30 683 H 60.9771 -3.88377 0.516806 0
M  V30 684 H 62.6741 -3.90596 0.907516 0
M  V30 685 H 59.2641 -3.61003 2.3103 0
M  V30 686 H 63.4481 -3.72042 3.28479 0
M  V30 687 H 58.7041 -3.93175 4.68213 0
M  V30 688 H 62.8781 -4.05486 5.66175 0
M  V30 689 H 60.5051 -4.15657 6.36501 0
M  V30 690 N 62.0802 -0.821533 -1.34494 0
M  V30 691 C 63.0432 -0.247847 -2.27856 0
M  V30 692 C 64.0432 0.573453 -1.50227 0
M  V30 693 O 65.2332 0.389759 -1.69784 0
M  V30 694 C 62.3652 0.652698 -3.34593 0
M  V30 695 H 63.5582 -1.07146 -2.80107 0
M  V30 696 H 61.1112 -0.593291 -1.44602 0
M  V30 697 H 61.8462 1.49943 -2.87555 0
M  V30 698 H 61.6312 0.065292 -3.92046 0
M  V30 699 H 63.1212 1.04793 -4.04238 0
M  V30 700 N 63.5583 1.46682 -0.576371 0
M  V30 701 C 64.7833 2.07304 -0.0630475 0
M  V30 702 C 65.2083 1.42329 1.2298 0
M  V30 703 O 64.5663 0.504865 1.74129 0
M  V30 704 C 64.6143 3.60472 0.095895 0
M  V30 705 O 63.7183 3.95927 1.15394 0
M  V30 706 H 63.0593 0.661288 -0.0599463 0
M  V30 707 H 65.5893 1.88417 -0.797511 0
M  V30 708 H 65.5993 4.06865 0.304071 0
M  V30 709 H 64.2743 4.07157 -0.84828 0
M  V30 710 H 62.8513 3.61252 0.924724 0
M  V30 711 N 65.0364 0.313813 1.54444 0
M  V30 712 C 66.4524 -0.0391619 1.59552 0
M  V30 713 C 66.6524 -1.51322 1.33056 0
M  V30 714 O 65.7084 -2.26782 1.11022 0
M  V30 715 C 67.0214 0.370302 2.98411 0
M  V30 716 C 68.5694 0.320139 3.11358 0
M  V30 717 C 69.0444 0.704617 4.52547 0
M  V30 718 N 70.5354 0.657645 4.58508 0
M  V30 719 C 71.2704 0.927453 5.6585 0
M  V30 720 N 70.7664 1.26389 6.81174 0
M  V30 721 N 72.5594 0.853662 5.5558 0
M  V30 722 H 64.7104 1.27433 1.69925 0
M  V30 723 H 66.9734 0.517511 0.794284 0
M  V30 724 H 66.6794 1.39694 3.22767 0
M  V30 725 H 66.5534 -0.269619 3.76235 0
M  V30 726 H 68.9404 -0.697275 2.86744 0
M  V30 727 H 69.0214 0.99486 2.35661 0
M  V30 728 H 68.6654 1.7199 4.77893 0
M  V30 729 H 68.5954 0.00768843 5.26599 0
M  V30 730 H 71.0864 0.409067 3.75679 0
M  V30 731 H 71.3994 1.4554 7.58972 0
M  V30 732 H 69.7444 1.30206 6.82694 0
M  V30 733 H 72.9354 0.590383 4.64362 0
M  V30 734 H 73.1084 1.0673 6.3915 0
M  V30 735 N 66.5145 -1.57545 0.0417849 0
M  V30 736 C 67.7615 -1.92317 -0.634082 0
M  V30 737 C 68.0895 -0.919334 -1.71402 0
M  V30 738 O 67.3445 0.0698253 -1.95575 0
M  V30 739 C 67.6435 -3.33794 -1.27735 0
M  V30 740 C 67.3095 -4.49716 -0.326543 0
M  V30 741 C 65.9715 -4.81156 -0.0648814 0
M  V30 742 C 68.3235 -5.20182 0.325623 0
M  V30 743 C 65.6515 -5.80414 0.856539 0
M  V30 744 C 68.0035 -6.20424 1.23518 0
M  V30 745 C 66.6675 -6.50298 1.5056 0
M  V30 746 H 65.9375 -0.703736 -0.232027 0
M  V30 747 H 68.5845 -1.91205 0.106259 0
M  V30 748 H 66.8895 -3.31228 -2.09274 0
M  V30 749 H 68.5865 -3.57975 -1.80707 0
M  V30 750 H 65.1765 -4.25176 -0.540665 0
M  V30 751 H 69.3605 -4.96112 0.136546 0
M  V30 752 H 64.6165 -6.019 1.07363 0
M  V30 753 H 68.7905 -6.74141 1.74664 0
M  V30 754 H 66.4175 -7.27025 2.22123 0
M  V30 755 N 67.9926 0.231505 -1.5589 0
M  V30 756 C 68.9556 1.27028 -1.90779 0
M  V30 757 C 69.9556 1.40308 -0.785507 0
M  V30 758 O 71.1456 1.38744 -1.05336 0
M  V30 759 C 68.2776 2.64566 -2.14983 0
M  V30 760 H 69.4706 0.973017 -2.83677 0
M  V30 761 H 67.0236 0.471486 -1.49019 0
M  V30 762 H 67.7586 2.99406 -1.24604 0
M  V30 763 H 67.5436 2.56305 -2.96732 0
M  V30 764 H 69.0336 3.39543 -2.43105 0
M  V30 765 N 69.4707 1.49531 0.497807 0
M  V30 766 C 70.4177 1.66436 1.59899 0
M  V30 767 C 71.3877 0.505793 1.58212 0
M  V30 768 O 72.5727 0.733202 1.7615 0
M  V30 769 C 69.7127 1.7399 2.98029 0
M  V30 770 C 68.8257 3.01172 3.09708 0
M  V30 771 C 67.9607 2.99686 4.38591 0
M  V30 772 C 66.9997 4.21434 4.43914 0
M  V30 773 N 66.1367 4.1784 5.64229 0
M  V30 774 H 70.9767 2.60459 1.44793 0
M  V30 775 H 68.5137 1.29137 0.704423 0
M  V30 776 H 70.4717 1.76352 3.78095 0
M  V30 777 H 69.1017 0.834301 3.11832 0
M  V30 778 H 68.1537 3.08408 2.22685 0
M  V30 779 H 69.4657 3.91165 3.09502 0
M  V30 780 H 68.6197 3.00628 5.2698 0
M  V30 781 H 67.3587 2.07477 4.41367 0
M  V30 782 H 66.3637 4.20733 3.53926 0
M  V30 783 H 67.5887 5.14839 4.42851 0
M  V30 784 H 65.5347 3.28469 5.67841 0
M  V30 785 H 65.4517 5.01571 5.65652 0
M  V30 786 H 66.7197 4.22889 6.54817 0
M  V30 787 N 70.9488 -0.749086 1.3866 0
M  V30 788 C 72.2258 -1.4992 1.25632 0
M  V30 789 C 72.6058 -2.10633 -0.140317 0
M  V30 790 O 71.9538 -1.97437 -1.15025 0
M  V30 791 C 72.1638 -2.56195 2.36992 0
M  V30 792 C 73.5118 -3.22972 2.75634 0
M  V30 793 O 74.5358 -2.66502 2.36337 0
M  V30 794 O 73.3948 -4.25122 3.43415 0
M  V30 795 H 70.4888 -0.665067 0.491544 0
M  V30 796 H 73.0348 -0.784113 1.50498 0
M  V30 797 H 71.8068 -2.09612 3.30422 0
M  V30 798 H 71.4298 -3.35279 2.13714 0
M  V30 799 N 72.4269 -1.23603 -0.977757 0
M  V30 800 C 73.6749 -1.06759 -1.71601 0
M  V30 801 C 73.9959 0.395929 -1.90938 0
M  V30 802 O 73.2659 1.28356 -1.47992 0
M  V30 803 H 71.8459 -0.392062 -0.635843 0
M  V30 804 H 74.5079 -1.55362 -1.1768 0
M  V30 805 H 73.6039 -1.55763 -2.70452 0
M  V30 806 N 73.905 1.17692 -1.04816 0
M  V30 807 C 75.154 1.87192 -0.751132 0
M  V30 808 C 75.467 1.8169 0.724441 0
M  V30 809 O 76.673 2.46625 1.13527 0
M  V30 810 C 75.129 3.35857 -1.29338 0
M  V30 811 C 74.737 3.4987 -2.79812 0
M  V30 812 C 76.481 4.10709 -1.07322 0
M  V30 813 C 74.388 4.92536 -3.27356 0
M  V30 814 H 73.318 0.701162 -0.277288 0
M  V30 815 H 75.969 1.32932 -1.26496 0
M  V30 816 H 74.351 3.89631 -0.707376 0
M  V30 817 H 75.525 3.06332 -3.44235 0
M  V30 818 H 73.84 2.88433 -3.00325 0
M  V30 819 H 76.437 5.15952 -1.4035 0
M  V30 820 H 76.78 4.16299 -0.0108001 0
M  V30 821 H 77.313 3.6313 -1.62423 0
M  V30 822 H 74.052 4.92119 -4.33012 0
M  V30 823 H 73.572 5.3676 -2.67673 0
M  V30 824 H 75.251 5.61288 -3.21815 0
M  V30 825 N 75.3831 0.828654 1.34056 0
M  V30 826 C 76.6111 0.43262 2.02326 0
M  V30 827 C 77.0261 -0.963147 1.62385 0
M  V30 828 O 76.3831 -1.62425 0.832121 0
M  V30 829 C 76.4341 0.53182 3.57567 0
M  V30 830 O 76.1551 1.87258 3.96063 0
M  V30 831 C 77.6561 0.131422 4.43105 0
M  V30 832 H 74.8761 0.172923 0.648335 0
M  V30 833 H 77.4201 1.1184 1.71208 0
M  V30 834 H 75.5751 -0.105938 3.87255 0
M  V30 835 H 75.9891 1.85087 4.90758 0
M  V30 836 H 77.4631 0.251904 5.51425 0
M  V30 837 H 77.9401 -0.925645 4.29335 0
M  V30 838 H 78.5461 0.743207 4.18756 0
M  V30 839 N 76.8612 -1.46375 0.584142 0
M  V30 840 C 77.8082 -2.30323 -0.148286 0
M  V30 841 C 78.7782 -1.40703 -0.882713 0
M  V30 842 O 79.9632 -1.69651 -0.873099 0
M  V30 843 C 77.1032 -3.25196 -1.15507 0
M  V30 844 C 76.2162 -4.29915 -0.423943 0
M  V30 845 C 75.3512 -5.11914 -1.41838 0
M  V30 846 C 74.3902 -6.08381 -0.673736 0
M  V30 847 N 73.5272 -6.83242 -1.6163 0
M  V30 848 H 78.3672 -2.92427 0.573644 0
M  V30 849 H 75.9042 -1.44118 0.294703 0
M  V30 850 H 77.8622 -3.78646 -1.75166 0
M  V30 851 H 76.4922 -2.64898 -1.8447 0
M  V30 852 H 75.5442 -3.7931 0.287714 0
M  V30 853 H 76.8562 -4.98549 0.158128 0
M  V30 854 H 76.0102 -5.69648 -2.08773 0
M  V30 855 H 74.7492 -4.43243 -2.03438 0
M  V30 856 H 73.7542 -5.49799 0.00938483 0
M  V30 857 H 74.9792 -6.79071 -0.0631082 0
M  V30 858 H 72.9252 -6.1728 -2.22038 0
M  V30 859 H 72.8422 -7.48144 -1.08707 0
M  V30 860 H 74.1102 -7.45534 -2.27596 0
M  V30 861 N 78.3393 -0.321999 -1.54275 0
M  V30 862 C 79.5883 0.281931 -1.9972 0
M  V30 863 C 79.9013 1.53369 -1.21397 0
M  V30 864 O 81.1073 2.21352 -1.57211 0
M  V30 865 C 79.5633 0.5529 -3.55628 0
M  V30 866 C 79.1713 -0.681721 -4.42783 0
M  V30 867 C 80.9153 1.11687 -4.09544 0
M  V30 868 C 78.8223 -0.382742 -5.9016 0
M  V30 869 H 77.7523 0.109124 -0.746062 0
M  V30 870 H 80.4033 -0.43398 -1.78294 0
M  V30 871 H 78.7853 1.32896 -3.73035 0
M  V30 872 H 79.9593 -1.45723 -4.37151 0
M  V30 873 H 78.2743 -1.1658 -3.99748 0
M  V30 874 H 80.8713 1.35515 -5.17242 0
M  V30 875 H 81.2143 2.06575 -3.61431 0
M  V30 876 H 81.7473 0.402032 -3.95763 0
M  V30 877 H 78.4863 -1.30076 -6.42464 0
M  V30 878 H 78.0063 0.355094 -5.98748 0
M  V30 879 H 79.6853 0.00800157 -6.47 0
M  V30 880 N 79.8174 1.5752 -0.0501392 0
M  V30 881 C 81.0634 1.92936 0.624798 0
M  V30 882 C 81.3964 0.928685 1.70555 0
M  V30 883 O 80.6714 -0.0454779 1.94447 0
M  V30 884 C 80.9544 3.38737 1.22185 0
M  V30 885 C 80.8074 4.49552 0.149218 0
M  V30 886 C 82.1264 3.84913 2.13378 0
M  V30 887 H 79.2454 0.701604 0.225657 0
M  V30 888 H 81.8874 1.89671 -0.111693 0
M  V30 889 H 80.0374 3.4165 1.84953 0
M  V30 890 H 81.7094 4.58768 -0.482648 0
M  V30 891 H 79.9524 4.30638 -0.522841 0
M  V30 892 H 80.6234 5.48653 0.606966 0
M  V30 893 H 83.0994 3.8387 1.60572 0
M  V30 894 H 81.9754 4.87584 2.52097 0
M  V30 895 H 82.2364 3.21611 3.03346 0
M  V30 896 N 81.2955 -0.223234 1.56011 0
M  V30 897 C 82.5235 -0.964812 1.83027 0
M  V30 898 C 82.9385 -1.78013 0.62904 0
M  V30 899 O 82.2955 -1.78008 -0.402414 0
M  V30 900 C 82.3465 -1.88373 3.08542 0
M  V30 901 O 82.0675 -1.10137 4.2403 0
M  V30 902 C 83.5685 -2.73934 3.48533 0
M  V30 903 H 80.7885 -0.282842 0.608475 0
M  V30 904 H 83.3325 -0.238971 2.03099 0
M  V30 905 H 81.4875 -2.56354 2.9045 0
M  V30 906 H 81.9015 -1.72501 4.95322 0
M  V30 907 H 83.3755 -3.34117 4.39397 0
M  V30 908 H 83.8525 -3.46244 2.70207 0
M  V30 909 H 84.4585 -2.11369 3.69057 0
M  V30 910 N 82.7736 -1.49793 -0.48987 0
M  V30 911 C 84.0226 -1.59085 -1.23995 0
M  V30 912 C 84.3356 -0.287907 -1.9347 0
M  V30 913 O 85.5416 -0.259506 -2.70257 0
M  V30 914 C 83.9976 -2.80736 -2.252 0
M  V30 915 C 83.6056 -4.17833 -1.61614 0
M  V30 916 C 85.3496 -2.99364 -3.00967 0
M  V30 917 C 83.2566 -5.30693 -2.60996 0
M  V30 918 H 82.1866 -0.592372 -0.466488 0
M  V30 919 H 84.8376 -1.76197 -0.51252 0
M  V30 920 H 83.2196 -2.57142 -3.01154 0
M  V30 921 H 84.3936 -4.51608 -0.915774 0
M  V30 922 H 82.7086 -4.04656 -0.981977 0
M  V30 923 H 85.3056 -3.80851 -3.75308 0
M  V30 924 H 85.6486 -2.10356 -3.59244 0
M  V30 925 H 86.1816 -3.2305 -2.32128 0
M  V30 926 H 82.9206 -6.21796 -2.07485 0
M  V30 927 H 82.4406 -5.01359 -3.2924 0
M  V30 928 H 84.1196 -5.6049 -3.23202 0
M  V30 929 N 84.2517 0.741722 -1.39055 0
M  V30 930 C 85.1617 1.88621 -1.39496 0
M  V30 931 C 86.1777 1.71557 -0.290578 0
M  V30 932 O 87.3537 1.94275 -0.530954 0
M  V30 933 C 84.4187 3.24134 -1.23037 0
M  V30 934 C 83.4797 3.5364 -2.43387 0
M  V30 935 C 82.7127 4.82687 -2.27703 0
M  V30 936 O 82.9357 5.55922 -1.27696 0
M  V30 937 O 81.8697 5.1194 -3.16545 0
M  V30 938 H 85.6957 1.91203 -2.35956 0
M  V30 939 H 83.2807 0.888625 -1.20099 0
M  V30 940 H 85.1627 4.0513 -1.15964 0
M  V30 941 H 83.8377 3.22337 -0.296691 0
M  V30 942 H 82.7447 2.72758 -2.56035 0
M  V30 943 H 84.0777 3.60209 -3.35425 0
M  V30 944 N 85.7298 1.2412 0.971189 0
M  V30 945 C 86.9548 1.10667 1.75407 0
M  V30 946 C 87.3798 -0.337048 1.85056 0
M  V30 947 O 86.7378 -1.24396 1.31892 0
M  V30 948 C 86.7858 1.74726 3.15441 0
M  V30 949 O 85.8898 1.01566 3.99697 0
M  V30 950 H 85.2308 0.387341 0.539317 0
M  V30 951 H 87.7608 1.64358 1.2185 0
M  V30 952 H 87.7708 1.80341 3.6598 0
M  V30 953 H 86.4458 2.79773 3.07734 0
M  V30 954 H 85.0228 1.03713 3.58187 0
M  V30 955 N 87.2079 -1.17134 1.05439 0
M  V30 956 C 88.4329 -1.91913 0.786396 0
M  V30 957 C 88.8579 -1.7643 -0.652234 0
M  V30 958 O 88.2159 -1.08372 -1.45345 0
M  V30 959 C 88.2639 -3.40921 1.17497 0
M  V30 960 O 87.3679 -4.11244 0.308589 0
M  V30 961 H 86.7089 -0.598215 0.288158 0
M  V30 962 H 89.2389 -1.48457 1.4079 0
M  V30 963 H 89.2489 -3.91668 1.14281 0
M  V30 964 H 87.9239 -3.5151 2.22292 0
M  V30 965 H 86.5009 -3.70731 0.40157 0
M  V30 966 N 88.686 -0.835752 -1.33615 0
M  V30 967 C 89.934 -0.429109 -1.97492 0
M  V30 968 C 90.255 1.01433 -1.66543 0
M  V30 969 O 89.525 1.70611 -0.962744 0
M  V30 970 H 88.105 -0.155686 -0.730596 0
M  V30 971 H 90.767 -1.06802 -1.63031 0
M  V30 972 H 89.863 -0.55861 -3.0706 0
M  V30 973 N 90.1641 1.46063 -0.591896 0
M  V30 974 C 91.4131 2.01547 -0.0786637 0
M  V30 975 C 91.7261 1.46796 1.29268 0
M  V30 976 O 92.9321 1.94157 1.89777 0
M  V30 977 C 91.3881 3.59787 -0.0900024 0
M  V30 978 C 90.9961 4.23534 -1.46023 0
M  V30 979 C 92.7401 4.22895 0.368806 0
M  V30 980 C 90.6471 5.73881 -1.4288 0
M  V30 981 H 89.5771 0.753564 -0.0256388 0
M  V30 982 H 92.2281 1.677 -0.744905 0
M  V30 983 H 90.6101 3.90752 0.642586 0
M  V30 984 H 91.7841 4.04167 -2.21328 0
M  V30 985 H 90.0991 3.72558 -1.85982 0
M  V30 986 H 92.6961 5.33116 0.411258 0
M  V30 987 H 93.0391 3.9247 1.38827 0
M  V30 988 H 93.5721 3.9659 -0.31001 0
M  V30 989 H 90.3111 6.0898 -2.42536 0
M  V30 990 H 89.8311 5.95486 -0.718095 0
M  V30 991 H 91.5101 6.36776 -1.14565 0
M  V30 992 N 91.6422 0.330177 1.54103 0
M  V30 993 C 92.6052 -0.520144 2.2322 0
M  V30 994 C 93.6052 -1.03828 1.22786 0
M  V30 995 O 94.7952 -0.929652 1.4732 0
M  V30 996 C 91.9272 -1.72317 2.94142 0
M  V30 997 H 93.1202 0.0841605 2.99782 0
M  V30 998 H 90.6732 0.0813433 1.56088 0
M  V30 999 H 91.4082 -2.36653 2.21734 0
M  V30 1000 H 91.1932 -1.35898 3.67796 0
M  V30 1001 H 92.6832 -2.3266 3.46784 0
M  V30 1002 N 93.1203 -1.57491 0.0584922 0
M  V30 1003 C 94.5313 -1.80526 -0.476138 0
M  V30 1004 C 94.8823 -0.971334 -1.70469 0
M  V30 1005 O 94.0073 -0.190012 -2.15564 0
M  V30 1006 C 94.6023 -3.27424 -0.870587 0
M  V30 1007 C 93.1613 -3.51351 -1.35015 0
M  V30 1008 C 92.3083 -2.75343 -0.32887 0
M  V30 1009 H 95.2593 -1.56133 0.284312 0
M  V30 1010 H 95.2803 -3.38745 -1.73299 0
M  V30 1011 H 94.7923 -3.88093 0.0237627 0
M  V30 1012 H 92.8933 -2.95971 -2.26345 0
M  V30 1013 H 93.0063 -4.60059 -1.33726 0
M  V30 1014 H 91.3703 -2.417 -0.803321 0
M  V30 1015 H 92.1533 -3.38743 0.557521 0
M  V30 1016 N 94.5984 0.214957 -1.56127 0
M  V30 1017 C 95.5614 1.24997 -1.92116 0
M  V30 1018 C 96.5614 1.39467 -0.800344 0
M  V30 1019 O 97.7514 1.37619 -1.06802 0
M  V30 1020 C 94.8834 2.62271 -2.17777 0
M  V30 1021 H 96.0764 0.942875 -2.84693 0
M  V30 1022 H 93.6294 0.455654 -1.49511 0
M  V30 1023 H 94.3644 2.98068 -1.27773 0
M  V30 1024 H 94.1494 2.53143 -2.99434 0
M  V30 1025 H 95.6394 3.36946 -2.46693 0
M  V30 1026 N 96.0765 1.50051 0.48192 0
M  V30 1027 C 97.3225 1.60736 1.2366 0
M  V30 1028 C 97.6555 0.301786 1.91841 0
M  V30 1029 O 96.9305 -0.696025 1.8162 0
M  V30 1030 C 97.2135 2.78009 2.28874 0
M  V30 1031 C 97.0665 4.18416 1.65069 0
M  V30 1032 C 98.3855 2.90867 3.30279 0
M  V30 1033 H 95.5045 0.585031 0.448228 0
M  V30 1034 H 98.1465 1.82402 0.531946 0
M  V30 1035 H 96.2965 2.59667 2.88973 0
M  V30 1036 H 97.9685 4.48322 1.0865 0
M  V30 1037 H 96.2115 4.23177 0.954148 0
M  V30 1038 H 96.8825 4.96381 2.41474 0
M  V30 1039 H 99.3585 3.07623 2.80191 0
M  V30 1040 H 98.2345 3.74566 4.01238 0
M  V30 1041 H 98.4955 2.01021 3.93755 0
M  V30 1042 N 97.5546 -0.734337 1.39446 0
M  V30 1043 C 98.4876 -1.85715 1.32609 0
M  V30 1044 C 99.4656 -1.6137 0.199636 0
M  V30 1045 O 100.65 -1.84626 0.380195 0
M  V30 1046 C 97.7766 -3.21709 1.05929 0
M  V30 1047 C 96.8226 -3.64913 2.20773 0
M  V30 1048 S 97.6556 -3.74203 3.83056 0
M  V30 1049 C 98.8116 -5.12986 3.58603 0
M  V30 1050 H 99.0446 -1.91232 2.27635 0
M  V30 1051 H 96.5776 -0.899263 1.25509 0
M  V30 1052 H 98.5356 -4.00236 0.912203 0
M  V30 1053 H 97.1966 -3.13848 0.125883 0
M  V30 1054 H 96.3896 -4.63606 1.97699 0
M  V30 1055 H 95.9916 -2.93593 2.31688 0
M  V30 1056 H 98.2836 -5.99339 3.15909 0
M  V30 1057 H 99.2266 -5.41088 4.5676 0
M  V30 1058 H 99.6346 -4.82694 2.9269 0
M  V30 1059 N 99.0327 -1.24633 -0.964593 0
M  V30 1060 C 100.261 -1.11501 -1.74285 0
M  V30 1061 C 100.676 0.332165 -1.85855 0
M  V30 1062 O 100.033 1.22903 -1.34911 0
M  V30 1063 C 100.084 -1.75258 -3.16175 0
M  V30 1064 O 99.8047 -3.14318 -3.05182 0
M  V30 1065 C 101.306 -1.67776 -4.10324 0
M  V30 1066 H 98.5257 -0.389407 -0.546446 0
M  V30 1067 H 101.07 -1.64801 -1.21083 0
M  V30 1068 H 99.2247 -1.25954 -3.66353 0
M  V30 1069 H 99.6387 -3.4551 -3.94618 0
M  V30 1070 H 101.113 -2.17064 -5.0753 0
M  V30 1071 H 101.59 -0.639584 -4.34518 0
M  V30 1072 H 102.196 -2.16522 -3.66058 0
M  V30 1073 N 100.511 1.16574 -1.06058 0
M  V30 1074 C 101.759 1.86677 -0.77434 0
M  V30 1075 C 102.08 1.81959 0.701147 0
M  V30 1076 O 101.35 1.2515 1.50713 0
M  V30 1077 H 99.9298 0.691134 -0.283449 0
M  V30 1078 H 102.592 1.41378 -1.34158 0
M  V30 1079 H 101.688 2.92181 -1.09711 0
M  V30 1080 N 101.989 0.842826 1.3317 0
M  V30 1081 C 102.919 0.294028 2.31641 0
M  V30 1082 C 103.9 -0.600401 1.59151 0
M  V30 1083 O 105.085 -0.523124 1.87022 0
M  V30 1084 C 102.215 -0.528416 3.43257 0
M  V30 1085 C 101.169 0.27056 4.27144 0
M  V30 1086 C 100.495 -0.675881 5.30411 0
M  V30 1087 C 101.795 1.48981 5.00602 0
M  V30 1088 H 103.489 1.11681 2.77791 0
M  V30 1089 H 101.035 0.538478 1.33553 0
M  V30 1090 H 102.988 -0.922674 4.11175 0
M  V30 1091 H 101.712 -1.38445 2.95805 0
M  V30 1092 H 100.371 0.646427 3.60856 0
M  V30 1093 H 100.019 -1.52842 4.79216 0
M  V30 1094 H 99.7189 -0.145374 5.8742 0
M  V30 1095 H 101.243 -1.06757 6.01195 0
M  V30 1096 H 102.657 1.16849 5.61266 0
M  V30 1097 H 101.054 1.95739 5.6728 0
M  V30 1098 H 102.124 2.25746 4.29147 0
M  V30 1099 N 103.467 -1.45747 0.599634 0
M  V30 1100 C 104.414 -2.30467 -0.123849 0
M  V30 1101 C 105.384 -1.41632 -0.86774 0
M  V30 1102 O 106.569 -1.70568 -0.855056 0
M  V30 1103 C 103.709 -3.26402 -1.12051 0
M  V30 1104 C 102.822 -4.3034 -0.37832 0
M  V30 1105 C 101.957 -5.13389 -1.364 0
M  V30 1106 C 100.996 -6.09061 -0.609171 0
M  V30 1107 N 100.133 -6.84918 -1.54374 0
M  V30 1108 H 104.973 -2.91802 0.604627 0
M  V30 1109 H 102.51 -1.43797 0.309972 0
M  V30 1110 H 104.468 -3.80482 -1.7114 0
M  V30 1111 H 103.098 -2.66839 -1.8165 0
M  V30 1112 H 102.15 -3.78984 0.327929 0
M  V30 1113 H 103.462 -4.98354 0.210997 0
M  V30 1114 H 102.616 -5.7183 -2.02719 0
M  V30 1115 H 101.355 -4.45376 -1.98725 0
M  V30 1116 H 100.36 -5.49758 0.0676979 0
M  V30 1117 H 101.585 -6.79099 0.00891991 0
M  V30 1118 H 99.531 -6.19601 -2.15478 0
M  V30 1119 H 99.448 -7.49254 -1.00766 0
M  V30 1120 H 100.716 -7.47906 -2.19676 0
M  V30 1121 N 104.945 -0.338344 -1.53925 0
M  V30 1122 C 105.875 0.51328 -2.27789 0
M  V30 1123 C 106.856 1.107 -1.29149 0
M  V30 1124 O 108.041 1.12937 -1.57984 0
M  V30 1125 C 105.171 1.66697 -3.04679 0
M  V30 1126 C 104.125 1.20183 -4.1078 0
M  V30 1127 C 103.451 2.44363 -4.75595 0
M  V30 1128 C 104.751 0.30605 -5.21403 0
M  V30 1129 H 106.445 -0.102883 -2.99223 0
M  V30 1130 H 103.991 -0.0509219 -1.4391 0
M  V30 1131 H 105.944 2.26915 -3.55088 0
M  V30 1132 H 104.668 2.30995 -2.30887 0
M  V30 1133 H 103.327 0.622499 -3.61276 0
M  V30 1134 H 102.975 3.07057 -3.98403 0
M  V30 1135 H 102.675 2.13925 -5.47275 0
M  V30 1136 H 104.199 3.05317 -5.28786 0
M  V30 1137 H 105.613 0.814929 -5.67478 0
M  V30 1138 H 104.01 0.0937929 -6.00027 0
M  V30 1139 H 105.08 -0.65921 -4.80398 0
M  V30 1140 N 106.423 1.57458 -0.0668435 0
M  V30 1141 C 107.671 1.92919 0.602214 0
M  V30 1142 C 107.992 0.947215 1.70449 0
M  V30 1143 O 107.262 -0.00544117 1.95899 0
M  V30 1144 H 105.842 0.71217 0.22544 0
M  V30 1145 H 108.504 1.94508 -0.123535 0
M  V30 1146 H 107.6 2.94589 1.03073 0
M  V30 1147 N 107.901 -0.206675 1.56239 0
M  V30 1148 C 109.147 -0.930218 1.80208 0
M  V30 1149 C 109.48 -1.83387 0.638981 0
M  V30 1150 O 108.755 -1.91119 -0.361066 0
M  V30 1151 C 109.038 -1.75641 3.1436 0
M  V30 1152 C 108.891 -0.878257 4.41142 0
M  V30 1153 C 110.21 -2.73129 3.45092 0
M  V30 1154 H 107.329 -0.336742 0.655571 0
M  V30 1155 H 109.971 -0.198222 1.88963 0
M  V30 1156 H 108.121 -2.38048 3.07027 0
M  V30 1157 H 109.793 -0.269787 4.6051 0
M  V30 1158 H 108.036 -0.184385 4.33408 0
M  V30 1159 H 108.707 -1.49106 5.3148 0
M  V30 1160 H 111.183 -2.20856 3.52649 0
M  V30 1161 H 110.059 -3.28028 4.40101 0
M  V30 1162 H 110.32 -3.51606 2.68003 0
M  V30 1163 N 109.379 -1.50304 -0.473955 0
M  V30 1164 C 110.79 -1.54042 -1.0549 0
M  V30 1165 C 111.141 -0.342248 -1.93192 0
M  V30 1166 O 110.266 0.545157 -2.09421 0
M  V30 1167 C 110.861 -2.79152 -1.91989 0
M  V30 1168 C 109.42 -2.8558 -2.45196 0
M  V30 1169 C 108.567 -2.48295 -1.2347 0
M  V30 1170 H 111.518 -1.5661 -0.256693 0
M  V30 1171 H 111.539 -2.60845 -2.7702 0
M  V30 1172 H 111.051 -3.66339 -1.28131 0
M  V30 1173 H 109.152 -2.02738 -3.12615 0
M  V30 1174 H 109.265 -3.88403 -2.80499 0
M  V30 1175 H 107.629 -2.00669 -1.56856 0
M  V30 1176 H 108.412 -3.37787 -0.612789 0
M  V30 1177 N 110.857 0.726932 -1.39834 0
M  V30 1178 C 112.103 1.48884 -1.377 0
M  V30 1179 C 112.436 1.94185 0.0244852 0
M  V30 1180 O 111.711 1.67361 0.990986 0
M  V30 1181 C 111.994 2.72288 -2.3565 0
M  V30 1182 C 111.847 2.32956 -3.84775 0
M  V30 1183 C 113.166 3.74414 -2.31306 0
M  V30 1184 H 110.285 0.540062 -0.5015 0
M  V30 1185 H 112.927 0.830547 -1.70886 0
M  V30 1186 H 111.077 3.28457 -2.07481 0
M  V30 1187 H 112.749 1.82356 -4.23726 0
M  V30 1188 H 110.992 1.65088 -4.01159 0
M  V30 1189 H 111.663 3.21362 -4.4881 0
M  V30 1190 H 114.139 3.27849 -2.56231 0
M  V30 1191 H 113.015 4.58414 -3.01907 0
M  V30 1192 H 113.276 4.21909 -1.32081 0
M  V30 1193 N 112.336 1.25143 0.95797 0
M  V30 1194 C 113.582 1.09855 1.70469 0
M  V30 1195 C 113.915 -0.360187 1.90831 0
M  V30 1196 O 113.19 -1.26568 1.47685 0
M  V30 1197 C 113.473 1.8497 3.08963 0
M  V30 1198 C 113.326 3.38652 2.96032 0
M  V30 1199 C 114.645 1.63016 4.08795 0
M  V30 1200 H 111.764 0.400465 0.618706 0
M  V30 1201 H 114.406 1.53933 1.11376 0
M  V30 1202 H 112.556 1.47505 3.59409 0
M  V30 1203 H 114.228 3.85772 2.52938 0
M  V30 1204 H 112.471 3.66534 2.32025 0
M  V30 1205 H 113.142 3.8642 3.94187 0
M  V30 1206 H 115.618 1.95625 3.67247 0
M  V30 1207 H 114.494 2.18015 5.03747 0
M  V30 1208 H 114.755 0.570692 4.38401 0
M  V30 1209 N 113.814 -1.1601 1.06675 0
M  V30 1210 C 115.061 -1.86633 0.785781 0
M  V30 1211 C 115.389 -1.81929 -0.687896 0
M  V30 1212 O 114.644 -1.23253 -1.52011 0
M  V30 1213 C 114.943 -3.35547 1.23057 0
M  V30 1214 C 114.609 -3.60448 2.70902 0
M  V30 1215 C 113.271 -3.66954 3.11285 0
M  V30 1216 C 115.623 -3.7071 3.66365 0
M  V30 1217 C 112.951 -3.81225 4.45965 0
M  V30 1218 C 115.303 -3.86503 5.00797 0
M  V30 1219 C 113.967 -3.91252 5.40813 0
M  V30 1220 H 113.237 -0.682937 0.287538 0
M  V30 1221 H 115.884 -1.37146 1.33654 0
M  V30 1222 H 114.189 -3.87193 0.59907 0
M  V30 1223 H 115.886 -3.88583 0.990163 0
M  V30 1224 H 112.476 -3.56021 2.38636 0
M  V30 1225 H 116.66 -3.64991 3.36296 0
M  V30 1226 H 111.916 -3.83155 4.76447 0
M  V30 1227 H 116.09 -3.93385 5.74649 0
M  V30 1228 H 113.717 -4.02062 6.45174 0
M  V30 1229 N 115.292 -0.849877 -1.32721 0
M  V30 1230 C 116.255 -0.296122 -2.27279 0
M  V30 1231 C 117.255 0.541458 -1.5141 0
M  V30 1232 O 118.445 0.353658 -1.70572 0
M  V30 1233 C 115.577 0.581579 -3.35902 0
M  V30 1234 H 116.77 -1.13064 -2.77771 0
M  V30 1235 H 114.323 -0.62383 -1.43311 0
M  V30 1236 H 115.058 1.43809 -2.9067 0
M  V30 1237 H 114.843 -0.0178814 -3.92096 0
M  V30 1238 H 116.333 0.961951 -4.0637 0
M  V30 1239 N 116.77 1.45427 -0.607355 0
M  V30 1240 C 118.186 1.57283 -0.270985 0
M  V30 1241 C 118.386 1.59875 1.22647 0
M  V30 1242 O 117.442 1.52893 2.00948 0
M  V30 1243 C 118.755 2.85566 -0.941952 0
M  V30 1244 C 120.303 2.9924 -0.917849 0
M  V30 1245 C 120.778 4.30293 -1.56882 0
M  V30 1246 N 122.269 4.37051 -1.5343 0
M  V30 1247 C 123.004 5.37123 -2.00715 0
M  V30 1248 N 122.5 6.43734 -2.56084 0
M  V30 1249 N 124.293 5.28479 -1.91484 0
M  V30 1250 H 116.444 1.41988 -1.57966 0
M  V30 1251 H 118.707 0.67885 -0.661715 0
M  V30 1252 H 118.413 2.8955 -1.99633 0
M  V30 1253 H 118.287 3.74322 -0.465096 0
M  V30 1254 H 120.674 2.94822 0.127984 0
M  V30 1255 H 120.755 2.11895 -1.43297 0
M  V30 1256 H 120.399 4.35469 -2.61398 0
M  V30 1257 H 120.329 5.16454 -1.02873 0
M  V30 1258 H 122.82 3.60615 -1.12982 0
M  V30 1259 H 123.133 7.16341 -2.89958 0
M  V30 1260 H 121.478 6.44485 -2.60122 0
M  V30 1261 H 124.669 4.44098 -1.47967 0
M  V30 1262 H 124.842 6.0632 -2.28648 0
M  V30 1263 N 118.248 0.346503 1.53744 0
M  V30 1264 C 119.195 -0.508914 2.25119 0
M  V30 1265 C 120.165 -1.09315 1.25058 0
M  V30 1266 O 121.35 -1.12921 1.53797 0
M  V30 1267 C 118.49 -1.65246 3.02965 0
M  V30 1268 C 117.603 -1.09525 4.17886 0
M  V30 1269 C 116.738 -2.20634 4.83212 0
M  V30 1270 C 115.777 -1.62279 5.90196 0
M  V30 1271 N 114.914 -2.67143 6.49291 0
M  V30 1272 H 119.754 0.106283 2.9781 0
M  V30 1273 H 117.291 0.0642227 1.4696 0
M  V30 1274 H 119.249 -2.32574 3.4636 0
M  V30 1275 H 117.879 -2.2386 2.32565 0
M  V30 1276 H 116.931 -0.312818 3.79112 0
M  V30 1277 H 118.243 -0.628444 4.94825 0
M  V30 1278 H 117.397 -2.95821 5.29693 0
M  V30 1279 H 116.136 -2.70659 4.05703 0
M  V30 1280 H 115.141 -0.855989 5.43096 0
M  V30 1281 H 116.366 -1.13102 6.69615 0
M  V30 1282 H 114.312 -3.16417 5.74645 0
M  V30 1283 H 114.229 -2.25093 7.21713 0
M  V30 1284 H 115.497 -3.4209 7.00425 0
M  V30 1285 N 119.726 -1.57421 0.075193 0
M  V30 1286 C 120.676 -2.09441 -0.901025 0
M  V30 1287 C 121.66 -1.00486 -1.25663 0
M  V30 1288 O 122.852 -1.2679 -1.23504 0
M  V30 1289 C 119.981 -2.66233 -2.16737 0
M  V30 1290 C 119.067 -3.82198 -1.83808 0
M  V30 1291 N 119.458 -4.91028 -1.21345 0
M  V30 1292 C 117.756 -3.91558 -2.13538 0
M  V30 1293 C 118.457 -5.71852 -1.06585 0
M  V30 1294 N 117.433 -5.20233 -1.57667 0
M  V30 1295 H 121.235 -2.90972 -0.413815 0
M  V30 1296 H 118.749 -1.6189 -0.128601 0
M  V30 1297 H 120.746 -3.01819 -2.87595 0
M  V30 1298 H 119.406 -1.8615 -2.66042 0
M  V30 1299 H 120.417 -5.10323 -0.88268 0
M  V30 1300 H 117.094 -3.22454 -2.65197 0
M  V30 1301 H 118.484 -6.69401 -0.578933 0
M  V30 1302 N 121.204 0.198386 -1.56346 0
M  V30 1303 C 122.151 1.24589 -1.94284 0
M  V30 1304 C 123.121 1.454 -0.802997 0
M  V30 1305 O 124.306 1.58588 -1.06087 0
M  V30 1306 C 121.446 2.58631 -2.28482 0
M  V30 1307 C 120.559 2.45426 -3.55514 0
M  V30 1308 C 119.694 3.7215 -3.79049 0
M  V30 1309 C 118.733 3.53763 -4.99518 0
M  V30 1310 N 117.87 4.72491 -5.19323 0
M  V30 1311 H 122.71 0.915356 -2.83593 0
M  V30 1312 H 120.247 0.440629 -1.40346 0
M  V30 1313 H 122.205 3.3672 -2.46324 0
M  V30 1314 H 120.835 2.89734 -1.42317 0
M  V30 1315 H 119.887 1.58652 -3.45737 0
M  V30 1316 H 121.199 2.27772 -4.43758 0
M  V30 1317 H 120.353 4.58679 -3.97113 0
M  V30 1318 H 119.092 3.92754 -2.89129 0
M  V30 1319 H 118.097 2.65619 -4.8138 0
M  V30 1320 H 119.322 3.34607 -5.90944 0
M  V30 1321 H 117.268 4.93365 -4.3235 0
M  V30 1322 H 117.185 4.5765 -6.01741 0
M  V30 1323 H 118.453 5.6038 -5.41843 0
M  V30 1324 N 122.682 1.50554 0.465978 0
M  V30 1325 C 123.907 1.65838 1.24549 0
M  V30 1326 C 124.332 0.343486 1.84937 0
M  V30 1327 O 123.69 -0.69324 1.67523 0
M  V30 1328 C 123.738 2.75533 2.32624 0
M  V30 1329 O 122.842 2.37142 3.37398 0
M  V30 1330 H 122.183 0.553893 0.366194 0
M  V30 1331 H 124.713 1.96959 0.553927 0
M  V30 1332 H 124.723 2.98763 2.77857 0
M  V30 1333 H 123.398 3.70962 1.88043 0
M  V30 1334 H 121.975 2.24377 2.97841 0
M  V30 1335 N 124.16 -0.719506 1.40217 0
M  V30 1336 C 125.09 -1.8465 1.42922 0
M  V30 1337 C 126.071 -1.67599 0.29062 0
M  V30 1338 O 127.256 -1.87688 0.498677 0
M  V30 1339 C 124.386 -3.22565 1.28722 0
M  V30 1340 C 123.34 -3.54281 2.40144 0
M  V30 1341 C 122.666 -4.91298 2.11023 0
M  V30 1342 C 123.966 -3.55676 3.82481 0
M  V30 1343 H 125.66 -1.82644 2.37237 0
M  V30 1344 H 123.206 -0.877305 1.1419 0
M  V30 1345 H 125.159 -4.01095 1.29232 0
M  V30 1346 H 123.883 -3.25137 0.308811 0
M  V30 1347 H 122.542 -2.78088 2.38877 0
M  V30 1348 H 122.19 -4.90468 1.11582 0
M  V30 1349 H 121.89 -5.13485 2.8567 0
M  V30 1350 H 123.414 -5.72166 2.13209 0
M  V30 1351 H 124.828 -4.24254 3.85592 0
M  V30 1352 H 123.225 -3.89388 4.56614 0
M  V30 1353 H 124.295 -2.55144 4.12346 0
M  V30 1354 N 125.638 -1.25649 -0.95132 0
M  V30 1355 C 126.866 -1.13343 -1.73092 0
M  V30 1356 C 127.281 0.312434 -1.86197 0
M  V30 1357 O 126.638 1.21465 -1.36207 0
M  V30 1358 C 126.689 -1.78602 -3.14299 0
M  V30 1359 O 126.41 -3.17537 -3.01831 0
M  V30 1360 C 127.911 -1.72119 -4.08522 0
M  V30 1361 H 125.131 -0.395181 -0.542285 0
M  V30 1362 H 127.675 -1.66076 -1.19328 0
M  V30 1363 H 125.83 -1.29832 -3.64996 0
M  V30 1364 H 126.244 -3.49676 -3.90931 0
M  V30 1365 H 127.718 -2.22435 -5.052 0
M  V30 1366 H 128.195 -0.685635 -4.33815 0
M  V30 1367 H 128.801 -2.20393 -3.63741 0
M  V30 1368 N 127.117 1.15442 -1.07289 0
M  V30 1369 C 128.047 2.22312 -0.714107 0
M  V30 1370 C 129.028 1.67467 0.298155 0
M  V30 1371 O 130.213 1.93445 0.171048 0
M  V30 1372 C 127.343 3.47124 -0.110448 0
M  V30 1373 C 126.297 4.14926 -1.04979 0
M  V30 1374 C 125.623 5.33807 -0.308924 0
M  V30 1375 C 126.923 4.64762 -2.38314 0
M  V30 1376 H 128.617 2.5258 -1.6076 0
M  V30 1377 H 126.163 1.21404 -0.77441 0
M  V30 1378 H 128.116 4.21124 0.152482 0
M  V30 1379 H 126.84 3.16187 0.81812 0
M  V30 1380 H 125.499 3.42866 -1.29764 0
M  V30 1381 H 125.147 4.99126 0.623084 0
M  V30 1382 H 124.847 5.80113 -0.935036 0
M  V30 1383 H 126.371 6.10576 -0.0537771 0
M  V30 1384 H 127.785 5.30292 -2.1786 0
M  V30 1385 H 126.182 5.21728 -2.96514 0
M  V30 1386 H 127.252 3.80434 -3.00663 0
M  V30 1387 N 128.595 0.856903 1.32268 0
M  V30 1388 C 129.823 0.475439 2.01363 0
M  V30 1389 C 130.238 -0.928486 1.64392 0
M  V30 1390 O 129.595 -1.60624 0.866387 0
M  V30 1391 C 129.646 0.607545 3.56358 0
M  V30 1392 O 129.367 1.95617 3.92002 0
M  V30 1393 C 130.868 0.225382 4.42727 0
M  V30 1394 H 128.088 0.186636 0.644521 0
M  V30 1395 H 130.632 1.15446 1.68797 0
M  V30 1396 H 128.787 -0.0237719 3.87393 0
M  V30 1397 H 129.201 1.95455 4.86721 0
M  V30 1398 H 130.675 0.368813 5.50767 0
M  V30 1399 H 131.152 -0.834369 4.31202 0
M  V30 1400 H 131.758 0.831864 4.17085 0
M  V30 1401 N 130.073 -1.45103 0.615059 0
M  V30 1402 C 131.35 -1.95549 0.0448276 0
M  V30 1403 C 131.73 -1.55737 -1.4251 0
M  V30 1404 O 131.078 -0.823556 -2.13143 0
M  V30 1405 C 131.288 -3.48098 0.250785 0
M  V30 1406 C 132.636 -4.24384 0.135509 0
M  V30 1407 O 133.66 -3.55738 0.181299 0
M  V30 1408 O 132.519 -5.46493 0.0268878 0
M  V30 1409 H 129.613 -0.8264 -0.0314845 0
M  V30 1410 H 132.159 -1.55232 0.685642 0
M  V30 1411 H 130.931 -3.7007 1.27139 0
M  V30 1412 H 130.554 -3.95323 -0.424937 0
M  V30 1413 N 131.551 -0.354651 -1.53558 0
M  V30 1414 C 132.499 0.512195 -2.26891 0
M  V30 1415 C 133.493 1.09263 -1.29452 0
M  V30 1416 O 134.699 1.03709 -1.47121 0
M  V30 1417 H 131.074 0.183878 -0.729173 0
M  V30 1418 H 133.045 -0.128202 -2.98124 0
M  V30 1419 C 131.794 1.64563 -3.06291 0
M  V30 1420 H 131.117 1.20829 -3.81104 0
M  V30 1421 H 132.557 2.22711 -3.60799 0
M  V30 1422 C 131.016 2.58158 -2.16462 0
M  V30 1423 O 131.546 3.60695 -1.76811 0
M  V30 1424 N 129.752 2.27096 -1.81317 0
M  V30 1425 H 129.299 1.43751 -2.1376 0
M  V30 1426 H 129.257 2.89975 -1.21498 0
M  V30 1427 N 133.029 1.57378 -0.0835403 0
M  V30 1428 C 133.959 2.1641 0.87686 0
M  V30 1429 C 134.94 1.09429 1.30228 0
M  V30 1430 O 136.125 1.37516 1.37124 0
M  V30 1431 C 133.255 2.73517 2.14022 0
M  V30 1432 C 132.209 3.85769 1.85381 0
M  V30 1433 C 131.535 4.29529 3.18448 0
M  V30 1434 C 132.835 5.09486 1.14984 0
M  V30 1435 H 134.529 2.96914 0.385059 0
M  V30 1436 H 132.075 1.42823 0.18377 0
M  V30 1437 H 134.028 3.13463 2.81636 0
M  V30 1438 H 132.752 1.90252 2.65465 0
M  V30 1439 H 131.411 3.46345 1.20169 0
M  V30 1440 H 131.059 3.43169 3.67755 0
M  V30 1441 H 130.759 5.05204 3.00071 0
M  V30 1442 H 132.283 4.72099 3.8724 0
M  V30 1443 H 133.697 5.46674 1.72687 0
M  V30 1444 H 132.094 5.90515 1.06826 0
M  V30 1445 H 133.164 4.84724 0.130749 0
M  V30 1446 N 134.507 -0.190092 1.56449 0
M  V30 1447 C 135.437 -1.23816 1.97969 0
M  V30 1448 C 136.418 -1.47201 0.852395 0
M  V30 1449 O 137.603 -1.58854 1.1171 0
M  V30 1450 C 134.733 -2.5813 2.3235 0
M  V30 1451 C 133.687 -2.49348 3.47864 0
M  V30 1452 C 133.013 -3.8798 3.67934 0
M  V30 1453 C 134.313 -2.01424 4.81898 0
M  V30 1454 H 136.007 -0.89311 2.85769 0
M  V30 1455 H 133.553 -0.428177 1.37487 0
M  V30 1456 H 135.506 -3.31637 2.59991 0
M  V30 1457 H 134.23 -2.94386 1.41438 0
M  V30 1458 H 132.889 -1.78297 3.20321 0
M  V30 1459 H 132.537 -4.21597 2.74344 0
M  V30 1460 H 132.237 -3.82978 4.45648 0
M  V30 1461 H 133.761 -4.63101 3.97957 0
M  V30 1462 H 135.175 -2.64693 5.08538 0
M  V30 1463 H 133.572 -2.07413 5.63116 0
M  V30 1464 H 134.642 -0.967677 4.75146 0
M  V30 1465 N 135.985 -1.50799 -0.457987 0
M  V30 1466 C 137.213 -1.66218 -1.23203 0
M  V30 1467 C 137.628 -0.350894 -1.85511 0
M  V30 1468 O 136.985 0.668546 -1.69814 0
M  V30 1469 C 137.036 -2.76291 -2.33121 0
M  V30 1470 O 136.757 -4.02338 -1.73366 0
M  V30 1471 C 138.258 -3.028 -3.2377 0
M  V30 1472 H 135.478 -0.558361 -0.372121 0
M  V30 1473 H 138.022 -1.97099 -0.545179 0
M  V30 1474 H 136.177 -2.48068 -2.97558 0
M  V30 1475 H 136.591 -4.63312 -2.4585 0
M  V30 1476 H 138.065 -3.8345 -3.97077 0
M  V30 1477 H 138.542 -2.14385 -3.83322 0
M  V30 1478 H 139.148 -3.32604 -2.65056 0
M  V30 1479 N 137.463 0.71206 -1.40597 0
M  V30 1480 C 138.426 1.80785 -1.40888 0
M  V30 1481 C 139.426 1.57937 -0.302103 0
M  V30 1482 O 140.616 1.64913 -0.561182 0
M  V30 1483 C 137.748 3.18927 -1.20409 0
M  V30 1484 H 138.941 1.81924 -2.38419 0
M  V30 1485 H 136.494 0.91805 -1.26497 0
M  V30 1486 H 137.229 3.23436 -0.236522 0
M  V30 1487 H 137.014 3.36911 -2.00582 0
M  V30 1488 H 138.504 3.98949 -1.23408 0
M  V30 1489 N 138.941 1.26152 0.944643 0
M  V30 1490 C 140.166 1.14363 1.7302 0
M  V30 1491 C 140.591 -0.29772 1.85729 0
M  V30 1492 O 139.949 -1.2157 1.34501 0
M  V30 1493 C 139.997 1.81378 3.11664 0
M  V30 1494 O 139.101 1.10022 3.97453 0
M  V30 1495 H 138.442 0.398694 0.53098 0
M  V30 1496 H 140.972 1.66906 1.18337 0
M  V30 1497 H 140.982 1.88064 3.62072 0
M  V30 1498 H 139.657 2.86237 3.0173 0
M  V30 1499 H 138.234 1.11287 3.55907 0
M  V30 1500 N 140.419 -1.14872 1.07899 0
M  V30 1501 C 141.665 -1.86064 0.806725 0
M  V30 1502 C 141.998 -1.82434 -0.665706 0
M  V30 1503 O 141.273 -1.25138 -1.48899 0
M  V30 1504 C 141.556 -3.34929 1.32267 0
M  V30 1505 C 141.409 -3.47161 2.86006 0
M  V30 1506 C 142.728 -4.29863 0.943717 0
M  V30 1507 H 139.847 -0.675591 0.294526 0
M  V30 1508 H 142.489 -1.34925 1.33773 0
M  V30 1509 H 140.639 -3.78611 0.870974 0
M  V30 1510 H 142.311 -3.12302 3.39507 0
M  V30 1511 H 140.554 -2.88539 3.23925 0
M  V30 1512 H 141.225 -4.51777 3.17177 0
M  V30 1513 H 143.701 -3.9417 1.33302 0
M  V30 1514 H 142.577 -5.32494 1.33198 0
M  V30 1515 H 142.838 -4.41846 -0.149796 0
M  V30 1516 N 141.898 -0.863906 -1.31812 0
M  V30 1517 C 143.128 -0.485406 -2.00817 0
M  V30 1518 C 143.536 0.925007 -1.65046 0
M  V30 1519 O 142.879 1.61653 -0.872574 0
M  V30 1520 C 142.941 -0.555589 -3.55181 0
M  V30 1521 C 142.605 -1.92654 -4.14407 0
M  V30 1522 C 143.602 -2.89324 -4.31958 0
M  V30 1523 C 141.287 -2.2262 -4.50273 0
M  V30 1524 C 143.281 -4.14108 -4.84555 0
M  V30 1525 C 140.968 -3.47654 -5.02573 0
M  V30 1526 C 141.966 -4.43214 -5.19664 0
M  V30 1527 O 141.654 -5.66033 -5.70843 0
M  V30 1528 H 141.386 -0.188224 -0.649267 0
M  V30 1529 H 143.94 -1.16514 -1.69156 0
M  V30 1530 H 142.17 0.181037 -3.86276 0
M  V30 1531 H 143.859 -0.19138 -4.05449 0
M  V30 1532 H 144.625 -2.6748 -4.04573 0
M  V30 1533 H 140.504 -1.4902 -4.3625 0
M  V30 1534 H 144.048 -4.88703 -4.9781 0
M  V30 1535 H 139.945 -3.69345 -5.29391 0
M  V30 1536 H 140.713 -5.6812 -5.89222 0
M  V30 1537 N 143.376 1.44774 -0.622745 0
M  V30 1538 C 144.601 2.06999 -0.128968 0
M  V30 1539 C 145.026 1.4617 1.1839 0
M  V30 1540 O 144.384 0.560007 1.72434 0
M  V30 1541 C 144.432 3.60595 -0.0188351 0
M  V30 1542 O 143.536 3.99398 1.02739 0
M  V30 1543 H 142.877 0.659047 -0.0809544 0
M  V30 1544 H 145.407 1.85784 -0.85705 0
M  V30 1545 H 145.417 4.07627 0.174476 0
M  V30 1546 H 144.092 4.04252 -0.977384 0
M  V30 1547 H 142.669 3.64011 0.809326 0
M  V30 1548 N 144.854 0.36279 1.53368 0
M  V30 1549 C 146.101 -0.227776 2.01215 0
M  V30 1550 C 146.429 -1.49003 1.25014 0
M  V30 1551 O 145.684 -1.92876 0.331236 0
M  V30 1552 C 145.983 -0.568417 3.52851 0
M  V30 1553 C 145.649 0.59918 4.46901 0
M  V30 1554 C 144.311 0.919559 4.72332 0
M  V30 1555 C 146.663 1.38156 5.02556 0
M  V30 1556 C 143.991 2.02434 5.5067 0
M  V30 1557 C 146.343 2.47674 5.821 0
M  V30 1558 C 145.007 2.8025 6.05819 0
M  V30 1559 H 144.277 -0.083349 0.736297 0
M  V30 1560 H 146.924 0.494677 1.85001 0
M  V30 1561 H 145.229 -1.37185 3.66998 0
M  V30 1562 H 146.926 -1.03756 3.87344 0
M  V30 1563 H 143.516 0.339437 4.27254 0
M  V30 1564 H 147.7 1.14729 4.82857 0
M  V30 1565 H 142.956 2.28075 5.67267 0
M  V30 1566 H 147.13 3.08716 6.24234 0
M  V30 1567 H 144.757 3.65979 6.66306 0
M  V30 1568 N 146.332 -1.57332 0.0918853 0
M  V30 1569 C 147.56 -1.98574 -0.581048 0
M  V30 1570 C 147.975 -0.970903 -1.61923 0
M  V30 1571 O 147.332 0.0399054 -1.82456 0
M  V30 1572 C 147.383 -3.39872 -1.23164 0
M  V30 1573 O 147.104 -4.37469 -0.234989 0
M  V30 1574 C 148.605 -3.96099 -1.99049 0
M  V30 1575 H 145.825 -0.65261 -0.156018 0
M  V30 1576 H 148.369 -2.0379 0.170225 0
M  V30 1577 H 146.524 -3.35679 -1.93386 0
M  V30 1578 H 146.938 -5.19751 -0.70418 0
M  V30 1579 H 148.412 -4.97127 -2.39934 0
M  V30 1580 H 148.889 -3.3374 -2.85507 0
M  V30 1581 H 149.495 -4.03755 -1.3365 0
M  V30 1582 N 147.81 0.181792 -1.56548 0
M  V30 1583 C 148.757 1.22521 -1.95595 0
M  V30 1584 C 149.727 1.4454 -0.818373 0
M  V30 1585 O 150.912 1.57454 -1.07763 0
M  V30 1586 C 148.052 2.56193 -2.31212 0
M  V30 1587 C 147.165 2.41641 -3.58097 0
M  V30 1588 C 146.3 3.68108 -3.82975 0
M  V30 1589 C 145.339 3.48445 -5.03242 0
M  V30 1590 N 144.476 4.66956 -5.24306 0
M  V30 1591 H 149.316 0.885226 -2.84548 0
M  V30 1592 H 146.853 0.425718 -1.40805 0
M  V30 1593 H 148.811 3.34088 -2.49882 0
M  V30 1594 H 147.441 2.88208 -1.45382 0
M  V30 1595 H 146.493 1.54976 -3.474 0
M  V30 1596 H 147.805 2.23052 -4.46149 0
M  V30 1597 H 146.959 4.54441 -4.01956 0
M  V30 1598 H 145.698 3.89666 -2.93278 0
M  V30 1599 H 144.703 2.60499 -4.8417 0
M  V30 1600 H 145.928 3.2832 -5.9446 0
M  V30 1601 H 143.874 4.88752 -4.37559 0
M  V30 1602 H 143.791 4.51242 -6.06561 0
M  V30 1603 H 145.059 5.54602 -5.47756 0
M  V30 1604 N 149.288 1.51039 0.449983 0
M  V30 1605 C 150.22 1.67617 1.56324 0
M  V30 1606 C 151.233 0.557083 1.52972 0
M  V30 1607 O 152.422 0.830989 1.57977 0
M  V30 1608 C 149.522 1.66402 2.95235 0
M  V30 1609 C 148.695 2.9469 3.23229 0
M  V30 1610 C 147.754 2.85832 4.41799 0
M  V30 1611 O 146.78 3.59785 4.41071 0
M  V30 1612 N 147.982 2.00821 5.44657 0
M  V30 1613 H 150.747 2.63648 1.42512 0
M  V30 1614 H 148.308 1.48767 0.638737 0
M  V30 1615 H 150.3 1.58062 3.72557 0
M  V30 1616 H 148.87 0.780182 3.02708 0
M  V30 1617 H 148.09 3.16996 2.34323 0
M  V30 1618 H 149.378 3.79636 3.38754 0
M  V30 1619 H 148.776 1.40091 5.48079 0
M  V30 1620 H 147.333 1.98368 6.20881 0
M  V30 1621 N 150.766 -0.704594 1.40972 0
M  V30 1622 C 151.994 -1.49354 1.43182 0
M  V30 1623 C 152.409 -1.88768 0.0345508 0
M  V30 1624 O 151.766 -1.56184 -0.944081 0
M  V30 1625 C 151.817 -2.76187 2.33244 0
M  V30 1626 O 151.538 -2.38436 3.67532 0
M  V30 1627 C 153.039 -3.7 2.44162 0
M  V30 1628 H 150.259 -0.460559 0.487982 0
M  V30 1629 H 152.803 -0.868261 1.85153 0
M  V30 1630 H 150.958 -3.34974 1.94606 0
M  V30 1631 H 151.372 -3.20126 4.15475 0
M  V30 1632 H 152.846 -4.55803 3.11364 0
M  V30 1633 H 153.323 -4.13867 1.47006 0
M  V30 1634 H 153.929 -3.17121 2.83398 0
M  V30 1635 N 152.244 -1.26651 -0.937939 0
M  V30 1636 C 153.154 -1.10276 -2.07066 0
M  V30 1637 C 154.17 -0.0354197 -1.73964 0
M  V30 1638 O 155.346 -0.239816 -1.99967 0
M  V30 1639 C 152.411 -0.740887 -3.38691 0
M  V30 1640 C 151.472 -1.88799 -3.85556 0
M  V30 1641 C 150.705 -1.54329 -5.10899 0
M  V30 1642 O 150.928 -0.446494 -5.6865 0
M  V30 1643 O 149.862 -2.37911 -5.52885 0
M  V30 1644 H 153.688 -2.05309 -2.23789 0
M  V30 1645 H 151.273 -1.05743 -1.0554 0
M  V30 1646 H 153.155 -0.55195 -4.1777 0
M  V30 1647 H 151.83 0.180022 -3.23199 0
M  V30 1648 H 150.737 -2.13191 -3.07409 0
M  V30 1649 H 152.07 -2.78874 -4.05574 0
M  V30 1650 N 153.722 1.14298 -1.08507 0
M  V30 1651 C 154.947 1.8976 -0.837001 0
M  V30 1652 C 155.372 1.78097 0.605228 0
M  V30 1653 O 154.73 1.12188 1.4242 0
M  V30 1654 C 154.778 3.37685 -1.26495 0
M  V30 1655 O 153.882 4.10281 -0.417514 0
M  V30 1656 H 153.223 0.590365 -0.303917 0
M  V30 1657 H 155.753 1.44672 -1.44676 0
M  V30 1658 H 155.763 3.88501 -1.24625 0
M  V30 1659 H 154.438 3.45492 -2.31534 0
M  V30 1660 H 153.015 3.69536 -0.499722 0
M  V30 1661 N 155.201 0.870884 1.31352 0
M  V30 1662 C 156.133 0.28455 2.27427 0
M  V30 1663 C 157.146 -0.552927 1.53123 0
M  V30 1664 O 158.335 -0.374771 1.74521 0
M  V30 1665 C 155.435 -0.615164 3.3327 0
M  V30 1666 C 154.608 0.190079 4.36987 0
M  V30 1667 C 153.667 -0.637917 5.22319 0
M  V30 1668 O 152.693 -0.065626 5.69162 0
M  V30 1669 N 153.895 -1.94973 5.46778 0
M  V30 1670 H 156.66 1.11017 2.7838 0
M  V30 1671 H 154.221 0.732458 1.44384 0
M  V30 1672 H 156.213 -1.1748 3.87273 0
M  V30 1673 H 154.783 -1.34146 2.82354 0
M  V30 1674 H 154.003 0.931165 3.83044 0
M  V30 1675 H 155.291 0.742579 5.03352 0
M  V30 1676 H 154.689 -2.4378 5.10478 0
M  V30 1677 H 153.246 -2.45713 6.03712 0
M  V30 1678 N 156.679 -1.44442 0.630414 0
M  V30 1679 C 157.928 -2.01267 0.132073 0
M  V30 1680 C 158.241 -1.50172 -1.25331 0
M  V30 1681 O 159.447 -1.9912 -1.84562 0
M  V30 1682 C 157.903 -3.59422 0.185362 0
M  V30 1683 C 157.511 -4.19514 1.57201 0
M  V30 1684 C 159.255 -4.23724 -0.256553 0
M  V30 1685 C 157.162 -5.69891 1.58045 0
M  V30 1686 H 156.092 -0.752619 0.0456092 0
M  V30 1687 H 158.743 -1.65666 0.789106 0
M  V30 1688 H 157.125 -3.92318 -0.538759 0
M  V30 1689 H 158.299 -3.98156 2.31966 0
M  V30 1690 H 156.614 -3.67496 1.95795 0
M  V30 1691 H 159.211 -5.34019 -0.269767 0
M  V30 1692 H 159.554 -3.96013 -1.28372 0
M  V30 1693 H 160.087 -3.95629 0.41505 0
M  V30 1694 H 156.826 -6.02336 2.58597 0
M  V30 1695 H 156.346 -5.93373 0.875725 0
M  V30 1696 H 158.025 -6.33515 1.31408 0
M  V30 1697 N 158.157 -0.370918 -1.53173 0
M  V30 1698 C 159.12 0.460778 -2.24521 0
M  V30 1699 C 160.12 1.00536 -1.25496 0
M  V30 1700 O 161.31 0.890266 -1.49733 0
M  V30 1701 C 158.442 1.64457 -2.98608 0
M  V30 1702 H 159.635 -0.163613 -2.99453 0
M  V30 1703 H 157.188 -0.122699 -1.55818 0
M  V30 1704 H 157.923 2.30691 -2.2793 0
M  V30 1705 H 157.708 1.26099 -3.7127 0
M  V30 1706 H 159.198 2.23384 -3.5283 0
M  V30 1707 N 159.635 1.57281 -0.100228 0
M  V30 1708 C 160.881 1.94826 0.563101 0
M  V30 1709 C 161.214 0.982475 1.67514 0
M  V30 1710 O 160.489 0.0164069 1.94493 0
M  V30 1711 C 160.772 3.42453 1.11346 0
M  V30 1712 C 160.625 4.498 0.00612081 0
M  V30 1713 C 161.944 3.91506 2.01024 0
M  V30 1714 H 159.063 0.708428 0.203221 0
M  V30 1715 H 161.705 1.8922 -0.171979 0
M  V30 1716 H 159.855 3.47361 1.7399 0
M  V30 1717 H 161.527 4.57 -0.628357 0
M  V30 1718 H 159.77 4.28756 -0.659581 0
M  V30 1719 H 160.441 5.50306 0.432109 0
M  V30 1720 H 162.917 3.88784 1.48278 0
M  V30 1721 H 161.793 4.95358 2.36457 0
M  V30 1722 H 162.054 3.31099 2.92961 0
M  V30 1723 N 161.113 -0.173488 1.56642 0
M  V30 1724 C 162.338 -0.910149 1.86363 0
M  V30 1725 C 162.763 -1.75132 0.686318 0
M  V30 1726 O 162.121 -1.77595 -0.364643 0
M  V30 1727 C 162.169 -1.76447 3.14482 0
M  V30 1728 O 161.273 -2.86584 2.96553 0
M  V30 1729 H 160.614 -0.255086 0.613047 0
M  V30 1730 H 163.144 -0.172283 2.03873 0
M  V30 1731 H 163.154 -2.16483 3.45831 0
M  V30 1732 H 161.829 -1.14658 3.99783 0
M  V30 1733 H 160.406 -2.50146 2.76553 0
M  V30 1734 N 162.591 -1.51276 -0.441967 0
M  V30 1735 C 163.839 -1.63392 -1.18943 0
M  V30 1736 C 164.16 -0.350159 -1.9183 0
M  V30 1737 O 163.43 0.633784 -1.85364 0
M  V30 1738 H 162.01 -0.602164 -0.442049 0
M  V30 1739 H 164.672 -1.88186 -0.507165 0
M  V30 1740 H 163.768 -2.45934 -1.92154 0
M  V30 1741 N 164.069 0.697108 -1.41344 0
M  V30 1742 C 165.297 1.48593 -1.43972 0
M  V30 1743 C 165.712 1.88747 -0.0445612 0
M  V30 1744 O 165.069 1.56682 0.935785 0
M  V30 1745 C 165.12 2.74946 -2.34706 0
M  V30 1746 O 164.841 2.36484 -3.68791 0
M  V30 1747 C 166.342 3.687 -2.46121 0
M  V30 1748 H 163.562 0.457964 -0.490418 0
M  V30 1749 H 166.106 0.858429 -1.8561 0
M  V30 1750 H 164.261 3.33937 -1.9638 0
M  V30 1751 H 164.675 3.17918 -4.17167 0
M  V30 1752 H 166.149 4.54145 -3.13777 0
M  V30 1753 H 166.626 4.13081 -1.49199 0
M  V30 1754 H 167.232 3.15613 -2.85076 0
M  V30 1755 N 165.547 1.27147 0.931209 0
M  V30 1756 C 166.497 1.06227 2.01742 0
M  V30 1757 C 167.481 -0.00859065 1.60898 0
M  V30 1758 O 168.673 0.209537 1.75755 0
M  V30 1759 C 165.802 0.707787 3.35924 0
M  V30 1760 C 164.888 1.81661 3.83223 0
M  V30 1761 N 165.279 3.05564 4.03069 0
M  V30 1762 C 163.577 1.70249 4.12227 0
M  V30 1763 C 164.278 3.77697 4.42403 0
M  V30 1764 N 163.254 3.0544 4.49675 0
M  V30 1765 H 167.056 2.00261 2.15111 0
M  V30 1766 H 164.57 1.1781 1.11779 0
M  V30 1767 H 166.567 0.539043 4.134 0
M  V30 1768 H 165.227 -0.224964 3.2392 0
M  V30 1769 H 166.238 3.41363 3.89476 0
M  V30 1770 H 162.915 0.840329 4.08956 0
M  V30 1771 H 164.305 4.84168 4.65866 0
M  V30 1772 N 167.025 -1.13721 1.09112 0
M  V30 1773 C 167.955 -2.21148 0.749385 0
M  V30 1774 C 168.936 -1.6792 -0.271475 0
M  V30 1775 O 170.121 -1.93693 -0.140251 0
M  V30 1776 C 167.251 -3.46905 0.165659 0
M  V30 1777 C 166.205 -4.13203 1.11567 0
M  V30 1778 C 165.531 -5.33248 0.393809 0
M  V30 1779 C 166.831 -4.60912 2.45678 0
M  V30 1780 H 168.525 -2.4999 1.64758 0
M  V30 1781 H 166.071 -1.20156 0.793626 0
M  V30 1782 H 168.024 -4.21313 -0.085466 0
M  V30 1783 H 166.748 -3.17449 -0.767714 0
M  V30 1784 H 165.407 -3.40758 1.35202 0
M  V30 1785 H 165.055 -5.00054 -0.543599 0
M  V30 1786 H 164.755 -5.78552 1.02721 0
M  V30 1787 H 166.279 -6.10413 0.150908 0
M  V30 1788 H 167.693 -5.26759 2.26269 0
M  V30 1789 H 166.09 -5.16944 3.04776 0
M  V30 1790 H 167.16 -3.75603 3.06677 0
M  V30 1791 N 168.503 -0.877838 -1.30888 0
M  V30 1792 C 169.728 -0.506629 -2.01117 0
M  V30 1793 C 170.153 0.895564 -1.65412 0
M  V30 1794 O 169.511 1.5923 -0.866922 0
M  V30 1795 C 169.559 -0.680223 -3.54126 0
M  V30 1796 O 168.663 0.277033 -4.11468 0
M  V30 1797 H 168.004 -0.200518 -0.633 0
M  V30 1798 H 170.534 -1.18342 -1.66902 0
M  V30 1799 H 170.544 -0.5765 -4.03907 0
M  V30 1800 H 169.219 -1.70261 -3.79452 0
M  V30 1801 H 167.796 0.127606 -3.72682 0
M  V30 1802 N 169.982 1.44106 -0.638065 0
M  V30 1803 C 171.259 1.95453 -0.0759321 0
M  V30 1804 C 171.639 1.57984 1.40015 0
M  V30 1805 O 170.987 0.857361 2.11806 0
M  V30 1806 C 171.197 3.47655 -0.306132 0
M  V30 1807 C 172.545 4.24114 -0.203008 0
M  V30 1808 O 173.569 3.55405 -0.237871 0
M  V30 1809 O 172.428 5.46381 -0.113827 0
M  V30 1810 H 169.522 0.826797 0.0183332 0
M  V30 1811 H 172.068 1.54122 -0.710251 0
M  V30 1812 H 170.84 3.68 -1.3301 0
M  V30 1813 H 170.463 3.95949 0.361991 0
M  V30 1814 N 171.46 0.379036 1.52974 0
M  V30 1815 C 172.392 -0.495963 2.2377 0
M  V30 1816 C 173.405 -1.03517 1.25651 0
M  V30 1817 O 174.594 -0.939249 1.51791 0
M  V30 1818 C 171.694 -1.69894 2.93239 0
M  V30 1819 C 170.867 -1.2889 4.17979 0
M  V30 1820 C 169.926 -2.35543 4.70538 0
M  V30 1821 O 168.952 -1.97375 5.33883 0
M  V30 1822 N 170.154 -3.67318 4.49508 0
M  V30 1823 H 172.919 0.110523 2.99496 0
M  V30 1824 H 170.48 0.204878 1.60598 0
M  V30 1825 H 172.472 -2.40747 3.25304 0
M  V30 1826 H 171.042 -2.212 2.20883 0
M  V30 1827 H 170.262 -0.409676 3.92065 0
M  V30 1828 H 171.55 -0.991443 4.99047 0
M  V30 1829 H 170.948 -4.01095 3.98923 0
M  V30 1830 H 169.505 -4.34235 4.8609 0
M  V30 1831 N 172.938 -1.57226 0.108567 0
M  V30 1832 C 174.215 -1.86333 -0.594939 0
M  V30 1833 C 174.595 -1.00788 -1.85486 0
M  V30 1834 O 173.943 -0.0839293 -2.28346 0
M  V30 1835 C 174.153 -3.37265 -0.897405 0
M  V30 1836 C 175.501 -4.05629 -1.25501 0
M  V30 1837 O 176.525 -3.42224 -0.987998 0
M  V30 1838 O 175.384 -5.17531 -1.75567 0
M  V30 1839 H 172.478 -0.771018 -0.2991 0
M  V30 1840 H 175.024 -1.69102 0.142283 0
M  V30 1841 H 173.796 -3.913 -0.00413806 0
M  V30 1842 H 173.419 -3.59889 -1.69014 0
M  V30 1843 N 174.416 0.165178 -1.56732 0
M  V30 1844 C 175.366 1.20917 -1.93295 0
M  V30 1845 C 176.35 1.39488 -0.801985 0
M  V30 1846 O 177.542 1.41356 -1.06525 0
M  V30 1847 C 174.671 2.54718 -2.3016 0
M  V30 1848 C 173.757 2.39815 -3.49785 0
M  V30 1849 N 174.148 1.94637 -4.66851 0
M  V30 1850 C 172.446 2.70623 -3.54513 0
M  V30 1851 C 173.147 1.92344 -5.4898 0
M  V30 1852 N 172.123 2.34978 -4.9019 0
M  V30 1853 H 175.925 0.851675 -2.81289 0
M  V30 1854 H 173.439 0.373399 -1.58049 0
M  V30 1855 H 175.436 3.30165 -2.54552 0
M  V30 1856 H 174.096 2.91265 -1.43508 0
M  V30 1857 H 175.107 1.6488 -4.90953 0
M  V30 1858 H 171.784 3.11167 -2.78354 0
M  V30 1859 H 173.174 1.5906 -6.52801 0
M  V30 1860 N 175.894 1.51508 0.433938 0
M  V30 1861 C 177.14 1.64588 1.18484 0
M  V30 1862 C 177.473 0.362666 1.90784 0
M  V30 1863 O 176.748 -0.637892 1.83742 0
M  V30 1864 C 177.031 2.85149 2.19913 0
M  V30 1865 C 176.884 4.23456 1.51674 0
M  V30 1866 C 178.203 3.01227 3.20858 0
M  V30 1867 H 175.322 0.598994 0.429389 0
M  V30 1868 H 177.964 1.84002 0.473647 0
M  V30 1869 H 176.114 2.68729 2.80566 0
M  V30 1870 H 177.786 4.51552 0.943322 0
M  V30 1871 H 176.029 4.25998 0.819035 0
M  V30 1872 H 176.7 5.03812 2.2556 0
M  V30 1873 H 179.176 3.16382 2.70263 0
M  V30 1874 H 178.052 3.87141 3.89118 0
M  V30 1875 H 178.313 2.13447 3.8716 0
M  V30 1876 N 177.372 -0.689602 1.41712 0
M  V30 1877 C 178.302 -1.81577 1.46806 0
M  V30 1878 C 179.283 -1.66945 0.326105 0
M  V30 1879 O 180.468 -1.86588 0.538377 0
M  V30 1880 C 177.598 -3.19762 1.35535 0
M  V30 1881 C 176.552 -3.49107 2.47605 0
M  V30 1882 C 175.878 -4.86711 2.21397 0
M  V30 1883 C 177.178 -3.47483 3.89939 0
M  V30 1884 H 178.872 -1.7757 2.41058 0
M  V30 1885 H 176.418 -0.852887 1.16025 0
M  V30 1886 H 178.371 -3.98263 1.3771 0
M  V30 1887 H 177.095 -3.24409 0.377708 0
M  V30 1888 H 175.754 -2.72959 2.44722 0
M  V30 1889 H 175.402 -4.8799 1.21961 0
M  V30 1890 H 175.102 -5.0731 2.96497 0
M  V30 1891 H 176.626 -5.67515 2.25297 0
M  V30 1892 H 178.04 -4.1598 3.94505 0
M  V30 1893 H 176.437 -3.79615 4.64771 0
M  V30 1894 H 177.507 -2.46341 4.17665 0
M  V30 1895 N 178.85 -1.27639 -0.924453 0
M  V30 1896 C 180.099 -1.13549 -1.66702 0
M  V30 1897 C 180.412 0.317487 -1.93006 0
M  V30 1898 O 181.618 0.579333 -2.65247 0
M  V30 1899 C 180.074 -1.98426 -3.00259 0
M  V30 1900 C 179.682 -3.484 -2.81641 0
M  V30 1901 C 181.426 -1.92993 -3.78092 0
M  V30 1902 C 179.333 -4.25464 -4.10773 0
M  V30 1903 H 178.263 -0.421351 -0.625283 0
M  V30 1904 H 180.914 -1.52085 -1.02676 0
M  V30 1905 H 179.296 -1.52736 -3.6536 0
M  V30 1906 H 180.47 -4.01973 -2.25287 0
M  V30 1907 H 178.785 -3.55245 -2.17232 0
M  V30 1908 H 181.382 -2.47844 -4.7379 0
M  V30 1909 H 181.725 -0.904281 -4.0636 0
M  V30 1910 H 182.258 -2.36595 -3.19793 0
M  V30 1911 H 178.997 -5.28566 -3.87683 0
M  V30 1912 H 178.517 -3.76667 -4.66779 0
M  V30 1913 H 180.196 -4.34812 -4.79111 0
M  V30 1914 N 180.328 1.1314 -1.09713 0
M  V30 1915 C 181.577 1.83838 -0.829851 0
M  V30 1916 C 181.89 1.84599 0.646728 0
M  V30 1917 O 183.096 2.51218 1.02965 0
M  V30 1918 C 181.552 3.30069 -1.43466 0
M  V30 1919 C 181.16 3.37688 -2.94399 0
M  V30 1920 C 182.904 4.05788 -1.24645 0
M  V30 1921 C 180.811 4.78209 -3.47952 0
M  V30 1922 H 179.741 0.68877 -0.306777 0
M  V30 1923 H 182.392 1.27448 -1.3202 0
M  V30 1924 H 180.774 3.8628 -0.871996 0
M  V30 1925 H 181.948 2.91456 -3.56918 0
M  V30 1926 H 180.263 2.75436 -3.12289 0
M  V30 1927 H 182.86 5.09535 -1.62107 0
M  V30 1928 H 183.203 4.15878 -0.187357 0
M  V30 1929 H 183.736 3.55915 -1.77678 0
M  V30 1930 H 180.475 4.73311 -4.53495 0
M  V30 1931 H 179.995 5.24924 -2.90198 0
M  V30 1932 H 181.674 5.47133 -3.45332 0
M  V30 1933 N 181.806 0.884767 1.30421 0
M  V30 1934 C 183.083 0.423185 1.90967 0
M  V30 1935 C 183.463 -1.09605 1.80416 0
M  V30 1936 O 182.811 -1.93126 1.22125 0
M  V30 1937 C 183.021 0.921056 3.36627 0
M  V30 1938 C 184.369 0.955903 4.137 0
M  V30 1939 O 185.393 0.867706 3.4547 0
M  V30 1940 O 184.252 1.08614 5.35598 0
M  V30 1941 H 181.346 0.129369 0.816819 0
M  V30 1942 H 183.892 0.973653 1.3899 0
M  V30 1943 H 182.664 1.96489 3.3839 0
M  V30 1944 H 182.287 0.349741 3.96059 0
M  V30 1945 N 183.284 -1.43765 0.645699 0
M  V30 1946 C 184.561 -1.9541 0.0862963 0
M  V30 1947 C 184.941 -1.58725 -1.39175 0
M  V30 1948 O 184.289 -0.868581 -2.11348 0
M  V30 1949 C 184.499 -3.47488 0.324565 0
M  V30 1950 C 185.847 -4.24001 0.225497 0
M  V30 1951 O 186.871 -3.55274 0.256715 0
M  V30 1952 O 185.73 -5.46313 0.142801 0
M  V30 1953 H 182.824 -0.826882 -0.0139483 0
M  V30 1954 H 185.37 -1.53743 0.718415 0
M  V30 1955 H 184.142 -3.67289 1.3496 0
M  V30 1956 H 183.765 -3.96135 -0.340987 0
M  V30 1957 N 184.763 -0.387143 -1.52771 0
M  V30 1958 C 186.01 0.195735 -2.01552 0
M  V30 1959 C 186.338 1.46995 -1.27369 0
M  V30 1960 O 185.593 1.92325 -0.361879 0
M  V30 1961 C 185.892 0.512209 -3.53711 0
M  V30 1962 C 185.558 -0.670202 -4.45891 0
M  V30 1963 C 184.22 -0.994586 -4.70809 0
M  V30 1964 C 186.572 -1.46134 -5.00294 0
M  V30 1965 C 183.9 -2.11169 -5.4738 0
M  V30 1966 C 186.252 -2.56903 -5.78086 0
M  V30 1967 C 184.916 -2.89852 -6.01284 0
M  V30 1968 H 184.186 0.0716246 -0.73753 0
M  V30 1969 H 186.833 -0.524046 -1.8419 0
M  V30 1970 H 185.138 1.31329 -3.69134 0
M  V30 1971 H 186.835 0.975804 -3.88946 0
M  V30 1972 H 183.425 -0.407366 -4.2666 0
M  V30 1973 H 187.609 -1.22397 -4.80971 0
M  V30 1974 H 182.865 -2.3707 -5.63567 0
M  V30 1975 H 187.039 -3.18608 -6.19243 0
M  V30 1976 H 184.666 -3.76533 -6.60399 0
M  V30 1977 N 186.241 1.57166 -0.116904 0
M  V30 1978 C 187.171 2.18222 0.830759 0
M  V30 1979 C 188.152 1.12167 1.27877 0
M  V30 1980 O 189.337 1.40394 1.34176 0
M  V30 1981 C 186.467 2.77996 2.08172 0
M  V30 1982 C 185.421 3.89614 1.77157 0
M  V30 1983 C 184.747 4.36187 3.09265 0
M  V30 1984 C 186.047 5.1181 1.04151 0
M  V30 1985 H 187.741 2.97664 0.321992 0
M  V30 1986 H 185.287 1.4318 0.153434 0
M  V30 1987 H 187.24 3.19366 2.74924 0
M  V30 1988 H 185.964 1.9584 2.6137 0
M  V30 1989 H 184.623 3.48816 1.12796 0
M  V30 1990 H 184.271 3.50893 3.60393 0
M  V30 1991 H 183.971 5.11455 2.89288 0
M  V30 1992 H 185.495 4.80207 3.77139 0
M  V30 1993 H 186.909 5.50214 1.61052 0
M  V30 1994 H 185.306 5.92648 0.942762 0
M  V30 1995 H 186.376 4.84892 0.0279022 0
M  V30 1996 N 187.719 -0.156864 1.56817 0
M  V30 1997 C 188.682 -1.17781 1.96622 0
M  V30 1998 C 189.682 -1.36401 0.851555 0
M  V30 1999 O 190.872 -1.33561 1.11836 0
M  V30 2000 C 188.004 -2.54008 2.27361 0
M  V30 2001 H 189.197 -0.836564 2.87996 0
M  V30 2002 H 186.75 -0.39985 1.51099 0
M  V30 2003 H 187.485 -2.9312 1.38748 0
M  V30 2004 H 187.27 -2.41856 3.08623 0
M  V30 2005 H 188.76 -3.27558 2.59029 0
M  V30 2006 N 189.197 -1.51736 -0.425897 0
M  V30 2007 C 190.145 -1.74464 -1.53834 0
M  V30 2008 C 191.139 -0.611241 -1.57988 0
M  V30 2009 O 192.345 -0.792899 -1.61596 0
M  V30 2010 H 188.72 -0.551437 -0.511293 0
M  V30 2011 H 190.691 -2.67694 -1.31843 0
M  V30 2012 C 189.44 -1.8972 -2.91379 0
M  V30 2013 H 188.763 -2.76344 -2.88919 0
M  V30 2014 H 190.203 -2.09629 -3.68553 0
M  V30 2015 C 188.662 -0.65992 -3.30374 0
M  V30 2016 O 189.192 0.180083 -4.01296 0
M  V30 2017 N 187.398 -0.500677 -2.86254 0
M  V30 2018 H 186.945 -1.18532 -2.28709 0
M  V30 2019 H 186.903 0.325903 -3.12706 0
M  V30 2020 N 190.675 0.682077 -1.42076 0
M  V30 2021 C 191.923 1.4393 -1.41876 0
M  V30 2022 C 192.244 1.94971 -0.0335599 0
M  V30 2023 O 191.514 1.72591 0.926773 0
M  V30 2024 H 190.094 0.534085 -0.522267 0
M  V30 2025 H 192.756 0.806427 -1.77434 0
M  V30 2026 H 191.852 2.29588 -2.11414 0
M  V30 2027 N 192.153 1.28127 0.917671 0
M  V30 2028 C 193.085 1.07517 2.02417 0
M  V30 2029 C 194.098 0.0281099 1.62776 0
M  V30 2030 O 195.287 0.270748 1.76435 0
M  V30 2031 C 192.387 0.610957 3.33347 0
M  V30 2032 C 191.56 1.73255 4.01624 0
M  V30 2033 C 190.619 1.26238 5.10833 0
M  V30 2034 O 189.645 1.96389 5.34247 0
M  V30 2035 N 190.847 0.123448 5.80369 0
M  V30 2036 H 193.612 2.02806 2.20658 0
M  V30 2037 H 191.173 1.19827 1.08871 0
M  V30 2038 H 193.165 0.280101 4.0373 0
M  V30 2039 H 191.735 -0.24898 3.11607 0
M  V30 2040 H 190.955 2.23319 3.24842 0
M  V30 2041 H 192.243 2.48503 4.43986 0
M  V30 2042 H 191.641 -0.461847 5.63812 0
M  V30 2043 H 190.198 -0.148158 6.51632 0
M  V30 2044 N 193.631 -1.12557 1.10312 0
M  V30 2045 C 194.594 -2.16434 0.75424 0
M  V30 2046 C 195.594 -1.59278 -0.220685 0
M  V30 2047 O 196.784 -1.742 0.00230591 0
M  V30 2048 C 193.916 -3.40699 0.116987 0
M  V30 2049 H 195.109 -2.48811 1.67431 0
M  V30 2050 H 192.662 -1.27542 0.903475 0
M  V30 2051 H 193.397 -3.13921 -0.813877 0
M  V30 2052 H 193.182 -3.83459 0.818613 0
M  V30 2053 H 194.672 -4.17451 -0.111387 0
M  V30 2054 N 195.109 -0.891671 -1.2995 0
M  V30 2055 C 196.072 -0.36828 -2.26222 0
M  V30 2056 C 197.072 0.493014 -1.53056 0
M  V30 2057 O 198.262 0.299213 -1.71611 0
M  V30 2058 C 195.394 0.47442 -3.37583 0
M  V30 2059 H 196.587 -1.21844 -2.74033 0
M  V30 2060 H 194.14 -0.669107 -1.41254 0
M  V30 2061 H 194.875 1.34489 -2.95099 0
M  V30 2062 H 194.66 -0.142615 -3.91841 0
M  V30 2063 H 196.15 0.83218 -4.09224 0
M  V30 2064 N 196.587 1.43421 -0.653314 0
M  V30 2065 C 197.537 2.2792 0.060558 0
M  V30 2066 C 198.521 1.39906 0.794677 0
M  V30 2067 O 199.713 1.63536 0.677128 0
M  V30 2068 C 196.842 3.27603 1.0262 0
M  V30 2069 C 195.928 4.23104 0.290551 0
M  V30 2070 N 196.319 5.01031 -0.692967 0
M  V30 2071 C 194.617 4.42816 0.531984 0
M  V30 2072 C 195.318 5.70626 -1.12963 0
M  V30 2073 N 194.294 5.41617 -0.463867 0
M  V30 2074 H 198.096 2.85585 -0.694143 0
M  V30 2075 H 195.61 1.55126 -0.480602 0
M  V30 2076 H 197.607 3.86918 1.55242 0
M  V30 2077 H 196.267 2.71499 1.78096 0
M  V30 2078 H 197.278 5.0669 -1.07169 0
M  V30 2079 H 193.955 3.97782 1.26791 0
M  V30 2080 H 195.345 6.4318 -1.94343 0
M  V30 2081 N 198.065 0.39524 1.52563 0
M  V30 2082 C 199.313 -0.184678 2.01254 0
M  V30 2083 C 199.634 -1.46822 1.28329 0
M  V30 2084 O 198.904 -1.91666 0.405094 0
M  V30 2085 H 197.484 -0.0712355 0.743596 0
M  V30 2086 H 200.146 0.528293 1.87603 0
M  V30 2087 H 199.242 -0.390681 3.09645 0
M  V30 2088 N 199.544 -1.57102 0.125237 0
M  V30 2089 C 200.474 -2.18659 -0.819174 0
M  V30 2090 C 201.455 -1.12843 -1.27281 0
M  V30 2091 O 202.64 -1.41104 -1.33429 0
M  V30 2092 C 199.77 -2.79096 -2.06695 0
M  V30 2093 C 198.724 -3.90548 -1.75088 0
M  V30 2094 C 198.05 -4.37821 -3.06948 0
M  V30 2095 C 199.35 -5.12356 -1.01435 0
M  V30 2096 H 201.044 -2.9783 -0.306202 0
M  V30 2097 H 198.59 -1.4326 -0.145839 0
M  V30 2098 H 200.543 -3.2082 -2.73226 0
M  V30 2099 H 199.267 -1.97223 -2.60328 0
M  V30 2100 H 197.926 -3.49409 -1.10944 0
M  V30 2101 H 197.574 -3.52799 -3.58527 0
M  V30 2102 H 197.274 -5.12982 -2.86571 0
M  V30 2103 H 198.798 -4.822 -3.74587 0
M  V30 2104 H 200.212 -5.5106 -1.58132 0
M  V30 2105 H 198.609 -5.9314 -0.911319 0
M  V30 2106 H 199.679 -4.849 -0.00218681 0
M  V30 2107 N 201.022 0.148545 -1.56898 0
M  V30 2108 C 202.268 0.862694 -1.83536 0
M  V30 2109 C 202.601 1.80889 -0.706604 0
M  V30 2110 O 201.876 1.92328 0.289885 0
M  V30 2111 C 202.159 1.63853 -3.20662 0
M  V30 2112 C 202.012 0.713925 -4.44098 0
M  V30 2113 C 203.331 2.60133 -3.54991 0
M  V30 2114 H 200.45 0.312179 -0.667618 0
M  V30 2115 H 203.092 0.127953 -1.89569 0
M  V30 2116 H 201.242 2.26489 -3.1565 0
M  V30 2117 H 202.914 0.098686 -4.61194 0
M  V30 2118 H 201.157 0.0234019 -4.33794 0
M  V30 2119 H 201.828 1.29278 -5.36648 0
M  V30 2120 H 204.304 2.07616 -3.60603 0
M  V30 2121 H 203.18 3.11468 -4.51972 0
M  V30 2122 H 203.441 3.41417 -2.80868 0
M  V30 2123 N 202.5 1.5196 0.417844 0
M  V30 2124 C 203.725 1.69717 1.1921 0
M  V30 2125 C 204.15 0.402148 1.83751 0
M  V30 2126 O 203.508 -0.639593 1.69643 0
M  V30 2127 C 203.556 2.82794 2.2374 0
M  V30 2128 O 202.66 2.47756 3.29683 0
M  V30 2129 H 202.001 0.565263 0.348387 0
M  V30 2130 H 204.531 1.98621 0.490985 0
M  V30 2131 H 204.541 3.07452 2.68212 0
M  V30 2132 H 203.216 3.76756 1.76146 0
M  V30 2133 H 201.793 2.33739 2.90552 0
M  V30 2134 N 203.978 -0.674533 1.42435 0
M  V30 2135 C 205.227 -1.43034 1.42212 0
M  V30 2136 C 205.54 -1.95555 0.0420788 0
M  V30 2137 O 206.746 -2.71374 -0.0827558 0
M  V30 2138 C 205.202 -2.58748 2.50155 0
M  V30 2139 C 204.81 -2.12925 3.94166 0
M  V30 2140 C 206.554 -3.36257 2.59098 0
M  V30 2141 C 204.461 -3.25723 4.93618 0
M  V30 2142 H 203.391 -0.537345 0.528939 0
M  V30 2143 H 206.042 -0.73024 1.68344 0
M  V30 2144 H 204.424 -3.31128 2.17188 0
M  V30 2145 H 205.598 -1.47697 4.36488 0
M  V30 2146 H 203.913 -1.48354 3.89076 0
M  V30 2147 H 206.51 -4.20264 3.30578 0
M  V30 2148 H 206.853 -3.82866 1.63461 0
M  V30 2149 H 207.386 -2.70947 2.9126 0
M  V30 2150 H 204.125 -2.84105 5.90732 0
M  V30 2151 H 203.645 -3.89732 4.55926 0
M  V30 2152 H 205.324 -3.91186 5.15347 0
M  V30 2153 N 205.456 -1.28612 -0.910864 0
M  V30 2154 C 206.702 -1.16106 -1.66274 0
M  V30 2155 C 207.035 0.289113 -1.92036 0
M  V30 2156 O 206.31 1.21 -1.52281 0
M  V30 2157 C 206.593 -1.96309 -3.01885 0
M  V30 2158 C 206.446 -3.49405 -2.8326 0
M  V30 2159 C 207.765 -1.78076 -4.02463 0
M  V30 2160 H 204.884 -0.423152 -0.603417 0
M  V30 2161 H 207.526 -1.57961 -1.05586 0
M  V30 2162 H 205.676 -1.60742 -3.53687 0
M  V30 2163 H 207.348 -3.94894 -2.38446 0
M  V30 2164 H 205.591 -3.74893 -2.18261 0
M  V30 2165 H 206.262 -4.00784 -3.79574 0
M  V30 2166 H 208.738 -2.0912 -3.59733 0
M  V30 2167 H 207.614 -2.36561 -4.95308 0
M  V30 2168 H 207.875 -0.733008 -4.35981 0
M  V30 2169 N 206.934 1.1197 -1.10907 0
M  V30 2170 C 207.881 2.17846 -0.762345 0
M  V30 2171 C 208.851 1.63995 0.263599 0
M  V30 2172 O 210.036 1.90273 0.141773 0
M  V30 2173 C 207.176 3.44487 -0.205651 0
M  V30 2174 C 206.289 4.12369 -1.28748 0
M  V30 2175 C 205.424 5.26674 -0.691919 0
M  V30 2176 C 204.463 5.86431 -1.75399 0
M  V30 2177 N 203.6 6.92142 -1.17833 0
M  V30 2178 H 208.44 2.46851 -1.6694 0
M  V30 2179 H 205.977 1.21188 -0.833776 0
M  V30 2180 H 207.935 4.16981 0.135037 0
M  V30 2181 H 206.565 3.15884 0.664613 0
M  V30 2182 H 205.617 3.38003 -1.74522 0
M  V30 2183 H 206.929 4.52844 -2.09125 0
M  V30 2184 H 206.083 6.05953 -0.300963 0
M  V30 2185 H 204.822 4.8749 0.143232 0
M  V30 2186 H 203.827 5.05835 -2.15432 0
M  V30 2187 H 205.052 6.27685 -2.59208 0
M  V30 2188 H 202.998 6.54985 -0.364725 0
M  V30 2189 H 202.915 7.31242 -1.91887 0
M  V30 2190 H 204.183 7.75237 -0.81408 0
M  V30 2191 N 208.412 0.89855 1.29475 0
M  V30 2192 C 209.344 0.332726 2.26772 0
M  V30 2193 C 210.357 -0.520323 1.54261 0
M  V30 2194 O 211.546 -0.337668 1.75277 0
M  V30 2195 C 208.646 -0.544334 3.345 0
M  V30 2196 C 207.819 0.282728 4.36485 0
M  V30 2197 C 206.878 -0.526982 5.23555 0
M  V30 2198 O 205.904 0.0551165 5.69173 0
M  V30 2199 N 207.106 -1.83331 5.5079 0
M  V30 2200 H 209.871 1.16897 2.75962 0
M  V30 2201 H 207.432 0.762919 1.42798 0
M  V30 2202 H 209.424 -1.09239 3.89678 0
M  V30 2203 H 207.994 -1.28127 2.85136 0
M  V30 2204 H 207.214 1.01221 3.80983 0
M  V30 2205 H 208.502 0.84918 5.01664 0
M  V30 2206 H 207.9 -2.32898 5.15534 0
M  V30 2207 H 206.457 -2.32852 6.08788 0
M  V30 2208 N 209.89 -1.43072 0.660911 0
M  V30 2209 C 210.853 -2.29194 -0.0166406 0
M  V30 2210 C 211.853 -1.42609 -0.742912 0
M  V30 2211 O 213.043 -1.64155 -0.583004 0
M  V30 2212 C 210.175 -3.24831 -1.0343 0
M  V30 2213 H 211.368 -2.90596 0.741208 0
M  V30 2214 H 208.921 -1.5048 0.422532 0
M  V30 2215 H 209.656 -2.68339 -1.82111 0
M  V30 2216 H 209.441 -3.88676 -0.517082 0
M  V30 2217 H 210.931 -3.89451 -1.50723 0
M  V30 2218 N 211.368 -0.403325 -1.52352 0
M  V30 2219 C 212.616 0.174003 -2.0135 0
M  V30 2220 C 212.937 1.46139 -1.29106 0
M  V30 2221 O 212.207 1.91448 -0.415253 0
M  V30 2222 H 210.787 0.0672911 -0.743963 0
M  V30 2223 H 213.449 -0.538235 -1.87321 0
M  V30 2224 H 212.545 0.374254 -3.09848 0
M  V30 2225 N 212.846 1.57033 -0.133567 0
M  V30 2226 C 213.809 2.14897 0.796995 0
M  V30 2227 C 214.809 1.0874 1.18458 0
M  V30 2228 O 215.999 1.34446 1.1077 0
M  V30 2229 C 213.131 2.70112 2.07973 0
M  V30 2230 H 214.324 2.98457 0.293873 0
M  V30 2231 H 211.877 1.55871 0.115787 0
M  V30 2232 H 212.612 1.9018 2.62682 0
M  V30 2233 H 212.397 3.47764 1.81115 0
M  V30 2234 H 213.887 3.14738 2.74462 0
M  V30 2235 N 214.325 -0.140222 1.56975 0
M  V30 2236 C 215.55 -0.870414 1.88251 0
M  V30 2237 C 215.975 -1.73637 0.723312 0
M  V30 2238 O 215.333 -1.78329 -0.32689 0
M  V30 2239 C 215.381 -1.69737 3.18154 0
M  V30 2240 O 214.485 -2.80229 3.02565 0
M  V30 2241 H 213.826 -0.242025 0.61832 0
M  V30 2242 H 216.356 -0.128999 2.04193 0
M  V30 2243 H 216.366 -2.09099 3.50345 0
M  V30 2244 H 215.041 -1.06152 4.02125 0
M  V30 2245 H 213.618 -2.44224 2.81796 0
M  V30 2246 N 215.803 -1.52179 -0.40978 0
M  V30 2247 C 217.052 -1.65434 -1.15388 0
M  V30 2248 C 217.365 -0.390056 -1.91671 0
M  V30 2249 O 218.571 -0.402399 -2.68501 0
M  V30 2250 C 217.027 -2.92279 -2.10003 0
M  V30 2251 C 216.635 -4.25813 -1.39239 0
M  V30 2252 C 218.379 -3.14897 -2.84675 0
M  V30 2253 C 216.286 -5.43782 -2.32498 0
M  V30 2254 H 215.216 -0.616267 -0.434432 0
M  V30 2255 H 217.867 -1.78666 -0.418401 0
M  V30 2256 H 216.249 -2.72744 -2.871 0
M  V30 2257 H 217.423 -4.55828 -0.675099 0
M  V30 2258 H 215.738 -4.09292 -0.766097 0
M  V30 2259 H 218.335 -4.0021 -3.54593 0
M  V30 2260 H 218.678 -2.29103 -3.47588 0
M  V30 2261 H 219.211 -3.34901 -2.14677 0
M  V30 2262 H 215.95 -6.3192 -1.74233 0
M  V30 2263 H 215.47 -5.18106 -3.02201 0
M  V30 2264 H 217.149 -5.76834 -2.93038 0
M  V30 2265 N 217.281 0.66697 -1.42791 0
M  V30 2266 C 218.244 1.76211 -1.46568 0
M  V30 2267 C 219.244 1.56896 -0.352196 0
M  V30 2268 O 220.434 1.63044 -0.613364 0
M  V30 2269 C 217.566 3.14935 -1.30494 0
M  V30 2270 H 218.759 1.74247 -2.44086 0
M  V30 2271 H 216.312 0.877342 -1.29354 0
M  V30 2272 H 217.047 3.2252 -0.339301 0
M  V30 2273 H 216.832 3.30359 -2.11199 0
M  V30 2274 H 218.322 3.94821 -1.36038 0
M  V30 2275 N 218.759 1.29093 0.90403 0
M  V30 2276 C 220.007 1.16583 1.65085 0
M  V30 2277 C 220.328 -0.283933 1.92922 0
M  V30 2278 O 219.598 -1.19509 1.55224 0
M  V30 2279 H 218.178 0.428467 0.611903 0
M  V30 2280 H 220.84 1.61959 1.08422 0
M  V30 2281 H 219.936 1.71266 2.6091 0
M  V30 2282 N 220.237 -1.11381 1.11499 0
M  V30 2283 C 221.486 -1.82494 0.858993 0
M  V30 2284 C 221.799 -1.85605 -0.617278 0
M  V30 2285 O 223.005 -2.52824 -0.989552 0
M  V30 2286 C 221.461 -3.27745 1.48699 0
M  V30 2287 C 221.069 -3.32961 2.99735 0
M  V30 2288 C 222.813 -4.03754 1.31085 0
M  V30 2289 C 220.72 -4.72612 3.55516 0
M  V30 2290 H 219.65 -0.683802 0.317696 0
M  V30 2291 H 222.301 -1.25331 1.34031 0
M  V30 2292 H 220.683 -3.84844 0.933339 0
M  V30 2293 H 221.857 -2.85741 3.61509 0
M  V30 2294 H 220.172 -2.70433 3.16631 0
M  V30 2295 H 222.769 -5.06891 1.70192 0
M  V30 2296 H 223.112 -4.15527 0.253496 0
M  V30 2297 H 223.645 -3.53043 1.83318 0
M  V30 2298 H 220.384 -4.66036 4.60967 0
M  V30 2299 H 219.904 -5.2024 2.98513 0
M  V30 2300 H 221.583 -5.4157 3.53992 0
M  V30 2301 N 221.715 -0.905404 -1.28997 0
M  V30 2302 C 222.963 -0.533192 -1.9494 0
M  V30 2303 C 223.284 0.924618 -1.71685 0
M  V30 2304 O 222.554 1.65268 -1.05183 0
M  V30 2305 H 221.134 -0.194194 -0.721317 0
M  V30 2306 H 223.796 -1.15294 -1.57141 0
M  V30 2307 H 222.892 -0.72059 -3.03667 0
M  V30 2308 N 223.193 1.4272 -0.668489 0
M  V30 2309 C 224.442 2.00846 -0.185389 0
M  V30 2310 C 224.755 1.53442 1.21305 0
M  V30 2311 O 225.961 2.03944 1.79218 0
M  V30 2312 C 224.417 3.58805 -0.280591 0
M  V30 2313 C 224.025 4.15198 -1.68268 0
M  V30 2314 C 225.769 4.24255 0.14412 0
M  V30 2315 C 223.676 5.655 -1.73099 0
M  V30 2316 H 222.606 0.751145 -0.0655475 0
M  V30 2317 H 225.257 1.63516 -0.832752 0
M  V30 2318 H 223.639 3.93608 0.434553 0
M  V30 2319 H 224.813 3.91866 -2.42441 0
M  V30 2320 H 223.128 3.62176 -2.05469 0
M  V30 2321 H 225.725 5.34547 0.128086 0
M  V30 2322 H 226.068 3.99277 1.17827 0
M  V30 2323 H 226.601 3.94389 -0.519798 0
M  V30 2324 H 223.34 5.95268 -2.74475 0
M  V30 2325 H 222.86 5.90842 -1.03274 0
M  V30 2326 H 224.539 6.29808 -1.48158 0
M  V30 2327 N 224.671 0.411399 1.52136 0
M  V30 2328 C 225.917 -0.163888 2.02137 0
M  V30 2329 C 226.25 -1.44597 1.29636 0
M  V30 2330 O 225.525 -1.90272 0.403353 0
M  V30 2331 C 225.808 -0.40927 3.57767 0
M  V30 2332 C 225.661 0.889643 4.40914 0
M  V30 2333 C 226.98 -1.19042 4.23694 0
M  V30 2334 H 224.099 -0.0580896 0.734707 0
M  V30 2335 H 226.741 0.54531 1.82007 0
M  V30 2336 H 224.891 -1.0134 3.7505 0
M  V30 2337 H 226.563 1.52575 4.35337 0
M  V30 2338 H 224.806 1.50011 4.07037 0
M  V30 2339 H 225.477 0.672314 5.4789 0
M  V30 2340 H 227.953 -0.678942 4.10524 0
M  V30 2341 H 226.829 -1.33086 5.32522 0
M  V30 2342 H 227.09 -2.21166 3.82803 0
M  V30 2343 N 226.149 -1.5696 0.141893 0
M  V30 2344 C 227.398 -1.95135 -0.510427 0
M  V30 2345 C 227.711 -1.02896 -1.66348 0
M  V30 2346 O 228.917 -1.30629 -2.38009 0
M  V30 2347 C 227.373 -3.46876 -0.959427 0
M  V30 2348 C 226.981 -4.47691 0.166419 0
M  V30 2349 C 228.725 -3.93927 -1.58183 0
M  V30 2350 C 226.632 -5.90636 -0.300565 0
M  V30 2351 H 225.562 -0.728494 -0.194454 0
M  V30 2352 H 228.213 -1.8211 0.22542 0
M  V30 2353 H 226.595 -3.55215 -1.75038 0
M  V30 2354 H 227.769 -4.51043 0.94325 0
M  V30 2355 H 226.084 -4.10527 0.696905 0
M  V30 2356 H 228.681 -4.98158 -1.94275 0
M  V30 2357 H 229.024 -3.3519 -2.46888 0
M  V30 2358 H 229.557 -3.88484 -0.855863 0
M  V30 2359 H 226.296 -6.5318 0.550989 0
M  V30 2360 H 225.816 -5.90655 -1.04338 0
M  V30 2361 H 227.495 -6.42588 -0.754265 0
M  V30 2362 N 227.627 0.131896 -1.57047 0
M  V30 2363 C 228.537 1.1815 -2.02676 0
M  V30 2364 C 229.553 1.46113 -0.944824 0
M  V30 2365 O 230.729 1.57485 -1.25541 0
M  V30 2366 C 227.794 2.49139 -2.41103 0
M  V30 2367 C 226.855 2.28688 -3.63318 0
M  V30 2368 C 226.088 3.53431 -3.99903 0
M  V30 2369 O 226.311 4.60223 -3.36973 0
M  V30 2370 O 225.245 3.45198 -4.93074 0
M  V30 2371 H 229.071 0.824069 -2.92306 0
M  V30 2372 H 226.656 0.341745 -1.45439 0
M  V30 2373 H 228.538 3.26338 -2.66611 0
M  V30 2374 H 227.213 2.84382 -1.54624 0
M  V30 2375 H 226.12 1.4939 -3.42977 0
M  V30 2376 H 227.453 1.98355 -4.50462 0
M  V30 2377 N 229.106 1.52395 0.401703 0
M  V30 2378 C 230.053 1.76268 1.48991 0
M  V30 2379 C 231.023 0.605386 1.54675 0
M  V30 2380 O 232.208 0.843742 1.7113 0
M  V30 2381 C 229.348 1.92592 2.86361 0
M  V30 2382 C 228.461 3.20259 2.89928 0
M  V30 2383 C 227.596 3.26972 4.18644 0
M  V30 2384 C 226.635 4.48812 4.16214 0
M  V30 2385 N 225.772 4.52877 5.36514 0
M  V30 2386 H 230.612 2.6914 1.27935 0
M  V30 2387 H 228.149 1.33355 0.620871 0
M  V30 2388 H 230.107 2.0004 3.66115 0
M  V30 2389 H 228.737 1.03093 3.05895 0
M  V30 2390 H 227.789 3.21945 2.02621 0
M  V30 2391 H 229.101 4.10056 2.83999 0
M  V30 2392 H 228.255 3.33533 5.06794 0
M  V30 2393 H 226.994 2.35126 4.27278 0
M  V30 2394 H 225.999 4.4239 3.26453 0
M  V30 2395 H 227.224 5.41961 4.09213 0
M  V30 2396 H 225.17 3.63917 5.45802 0
M  V30 2397 H 225.087 5.36529 5.32609 0
M  V30 2398 H 226.355 4.63676 6.26597 0
M  V30 2399 N 230.584 -0.659388 1.43143 0
M  V30 2400 C 231.809 -1.45221 1.48073 0
M  V30 2401 C 232.234 -1.87845 0.097995 0
M  V30 2402 O 231.592 -1.56985 -0.90694 0
M  V30 2403 C 231.64 -2.66748 2.42647 0
M  V30 2404 O 230.744 -3.65583 1.90848 0
M  V30 2405 H 230.085 -0.435669 0.501088 0
M  V30 2406 H 232.615 -0.807432 1.87994 0
M  V30 2407 H 232.625 -3.14637 2.59745 0
M  V30 2408 H 231.3 -2.35067 3.43098 0
M  V30 2409 H 229.877 -3.24693 1.83381 0
M  V30 2410 N 232.062 -1.29571 -0.897171 0
M  V30 2411 C 233.309 -1.17689 -1.6479 0
M  V30 2412 C 233.637 0.27107 -1.92602 0
M  V30 2413 O 232.892 1.21193 -1.53658 0
M  V30 2414 C 233.191 -1.9382 -3.00281 0
M  V30 2415 C 232.857 -3.43522 -2.92068 0
M  V30 2416 C 231.519 -3.84348 -2.89535 0
M  V30 2417 C 233.871 -4.38906 -2.81089 0
M  V30 2418 C 231.199 -5.18869 -2.73846 0
M  V30 2419 C 233.551 -5.73521 -2.66939 0
M  V30 2420 C 232.215 -6.13601 -2.62774 0
M  V30 2421 H 231.485 -0.430654 -0.603008 0
M  V30 2422 H 234.132 -1.60536 -1.04404 0
M  V30 2423 H 232.437 -1.4357 -3.64547 0
M  V30 2424 H 234.134 -1.82028 -3.57305 0
M  V30 2425 H 230.724 -3.11072 -2.94842 0
M  V30 2426 H 234.908 -4.08315 -2.82121 0
M  V30 2427 H 230.164 -5.4903 -2.69027 0
M  V30 2428 H 234.338 -6.47078 -2.57416 0
M  V30 2429 H 231.965 -7.17786 -2.50375 0
M  V30 2430 N 233.54 1.10788 -1.12088 0
M  V30 2431 C 234.472 2.16816 -0.743213 0
M  V30 2432 C 235.485 1.6119 0.228412 0
M  V30 2433 O 236.674 1.78497 0.0102931 0
M  V30 2434 C 233.774 3.38809 -0.0787313 0
M  V30 2435 C 232.947 4.23885 -1.0789 0
M  V30 2436 C 232.006 5.24334 -0.442713 0
M  V30 2437 O 231.032 5.58497 -1.09864 0
M  V30 2438 N 232.234 5.75079 0.791457 0
M  V30 2439 H 234.999 2.49825 -1.65552 0
M  V30 2440 H 232.56 1.26373 -1.012 0
M  V30 2441 H 234.552 4.03107 0.358766 0
M  V30 2442 H 233.122 3.03805 0.736275 0
M  V30 2443 H 232.342 3.55939 -1.69414 0
M  V30 2444 H 233.63 4.77562 -1.75533 0
M  V30 2445 H 233.028 5.49517 1.3434 0
M  V30 2446 H 231.585 6.4118 1.17183 0
M  V30 2447 N 235.018 0.912232 1.28515 0
M  V30 2448 C 236.429 0.591352 1.77087 0
M  V30 2449 C 236.78 -0.8933 1.74684 0
M  V30 2450 O 235.905 -1.69876 1.34056 0
M  V30 2451 C 236.5 1.06668 3.2157 0
M  V30 2452 C 235.059 0.79675 3.67871 0
M  V30 2453 C 234.206 1.23427 2.48316 0
M  V30 2454 H 237.157 1.09365 1.15 0
M  V30 2455 H 237.178 0.407455 3.78312 0
M  V30 2456 H 236.69 2.14726 3.23287 0
M  V30 2457 H 234.791 -0.270679 3.71616 0
M  V30 2458 H 234.904 1.40343 4.58084 0
M  V30 2459 H 233.268 0.653036 2.46186 0
M  V30 2460 H 234.051 2.32316 2.52753 0
M  V30 2461 N 236.496 -1.42363 0.676048 0
M  V30 2462 C 237.744 -2.01123 0.198437 0
M  V30 2463 C 238.065 -1.53731 -1.19966 0
M  V30 2464 O 237.335 -0.759518 -1.80577 0
M  V30 2465 H 235.915 -0.743678 0.0703721 0
M  V30 2466 H 238.577 -1.74263 0.872837 0
M  V30 2467 H 237.673 -3.11454 0.200686 0
M  V30 2468 N 237.974 -0.419461 -1.51915 0
M  V30 2469 C 239.39 -0.0708431 -1.59443 0
M  V30 2470 C 239.59 1.41796 -1.43164 0
M  V30 2471 O 238.646 2.18596 -1.26381 0
M  V30 2472 C 239.959 -0.574991 -2.95151 0
M  V30 2473 C 241.507 -0.533867 -3.08413 0
M  V30 2474 C 241.982 -1.01469 -4.46618 0
M  V30 2475 N 243.473 -0.971939 -4.52888 0
M  V30 2476 C 244.208 -1.31505 -5.58116 0
M  V30 2477 N 243.704 -1.73014 -6.70849 0
M  V30 2478 N 245.497 -1.23436 -5.48379 0
M  V30 2479 H 237.648 -1.38836 -1.60743 0
M  V30 2480 H 239.911 -0.570998 -0.756747 0
M  V30 2481 H 239.617 -1.61597 -3.12377 0
M  V30 2482 H 239.491 0.00979777 -3.77199 0
M  V30 2483 H 241.878 0.498086 -2.90866 0
M  V30 2484 H 241.959 -1.15484 -2.28248 0
M  V30 2485 H 241.603 -2.04502 -4.6491 0
M  V30 2486 H 241.533 -0.370433 -5.25295 0
M  V30 2487 H 244.024 -0.666893 -3.71969 0
M  V30 2488 H 244.337 -1.97479 -7.47143 0
M  V30 2489 H 242.682 -1.76926 -6.72103 0
M  V30 2490 H 245.873 -0.908869 -4.59192 0
M  V30 2491 H 246.046 -1.50506 -6.30279 0
M  V30 2492 N 239.452 1.56882 -0.150215 0
M  V30 2493 C 240.729 1.87844 0.545327 0
M  V30 2494 C 241.109 1.0567 1.82749 0
M  V30 2495 O 240.457 0.144442 2.28043 0
M  V30 2496 C 240.667 3.39526 0.80767 0
M  V30 2497 C 242.015 4.08814 1.14703 0
M  V30 2498 O 243.039 3.44723 0.896917 0
M  V30 2499 O 241.898 5.22004 1.61784 0
M  V30 2500 H 238.992 0.778677 0.278553 0
M  V30 2501 H 241.538 1.68666 -0.187068 0
M  V30 2502 H 240.31 3.91173 -0.0996096 0
M  V30 2503 H 239.933 3.64243 1.59413 0
M  V30 2504 N 240.93 -0.123565 1.57115 0
M  V30 2505 C 241.84 -1.17074 2.033 0
M  V30 2506 C 242.856 -1.4561 0.952559 0
M  V30 2507 O 244.032 -1.56817 1.26374 0
M  V30 2508 C 241.097 -2.47857 2.42421 0
M  V30 2509 C 240.158 -2.26758 3.64526 0
M  V30 2510 C 239.391 -3.51305 4.01771 0
M  V30 2511 O 239.614 -4.5843 3.39409 0
M  V30 2512 O 238.548 -3.42578 4.94898 0
M  V30 2513 H 242.374 -0.808555 2.92739 0
M  V30 2514 H 239.959 -0.334027 1.45618 0
M  V30 2515 H 241.841 -3.2492 2.68338 0
M  V30 2516 H 240.516 -2.83558 1.5613 0
M  V30 2517 H 239.423 -1.47569 3.43765 0
M  V30 2518 H 240.756 -1.95963 4.51508 0
M  V30 2519 N 242.408 -1.52605 -0.393616 0
M  V30 2520 C 243.338 -1.80022 -1.48709 0
M  V30 2521 C 244.319 -0.651995 -1.57108 0
M  V30 2522 O 245.504 -0.89913 -1.72132 0
M  V30 2523 C 242.634 -1.96492 -2.86371 0
M  V30 2524 C 241.588 -3.12161 -2.92813 0
M  V30 2525 C 240.914 -3.13877 -4.3288 0
M  V30 2526 C 242.214 -4.51322 -2.6288 0
M  V30 2527 H 243.908 -2.71589 -1.26015 0
M  V30 2528 H 241.454 -1.30684 -0.604778 0
M  V30 2529 H 243.407 -2.14255 -3.62867 0
M  V30 2530 H 242.131 -1.01611 -3.10391 0
M  V30 2531 H 240.79 -2.94173 -2.18764 0
M  V30 2532 H 240.438 -2.16687 -4.53933 0
M  V30 2533 H 240.138 -3.91576 -4.38112 0
M  V30 2534 H 241.662 -3.33789 -5.1129 0
M  V30 2535 H 243.076 -4.69435 -3.29096 0
M  V30 2536 H 241.473 -5.31053 -2.79468 0
M  V30 2537 H 242.543 -4.58353 -1.58242 0
M  V30 2538 N 243.887 0.651787 -1.4349 0
M  V30 2539 C 245.133 1.41376 -1.45398 0
M  V30 2540 C 245.466 1.94041 -0.0784823 0
M  V30 2541 O 244.741 1.72379 0.900878 0
M  V30 2542 C 245.024 2.59414 -2.49752 0
M  V30 2543 C 244.877 2.12232 -3.96582 0
M  V30 2544 C 246.196 3.61626 -2.50827 0
M  V30 2545 H 243.315 0.512719 -0.529422 0
M  V30 2546 H 245.957 0.738796 -1.75048 0
M  V30 2547 H 244.107 3.16997 -2.246 0
M  V30 2548 H 245.779 1.59639 -4.32797 0
M  V30 2549 H 244.022 1.43592 -4.09346 0
M  V30 2550 H 244.693 2.9712 -4.65214 0
M  V30 2551 H 247.169 3.13805 -2.7325 0
M  V30 2552 H 246.045 4.41766 -3.25783 0
M  V30 2553 H 246.306 4.14314 -1.5426 0
M  V30 2554 N 245.365 1.30045 0.890287 0
M  V30 2555 C 246.312 1.15976 1.99545 0
M  V30 2556 C 247.282 0.0506202 1.66023 0
M  V30 2557 O 248.467 0.219847 1.89529 0
M  V30 2558 C 245.607 0.852054 3.34416 0
M  V30 2559 C 244.72 2.04255 3.80662 0
M  V30 2560 C 243.855 1.6734 5.04154 0
M  V30 2561 C 242.894 2.82916 5.42794 0
M  V30 2562 N 242.031 2.46333 6.57468 0
M  V30 2563 H 246.871 2.10524 2.10911 0
M  V30 2564 H 244.408 1.04749 1.03276 0
M  V30 2565 H 246.366 0.654296 4.12037 0
M  V30 2566 H 244.996 -0.0565502 3.2275 0
M  V30 2567 H 244.048 2.35172 2.98995 0
M  V30 2568 H 245.36 2.90826 4.05242 0
M  V30 2569 H 244.514 1.43908 5.89386 0
M  V30 2570 H 243.253 0.779308 4.81433 0
M  V30 2571 H 242.258 3.0702 4.56091 0
M  V30 2572 H 243.483 3.73004 5.6749 0
M  V30 2573 H 241.429 1.59423 6.36334 0
M  V30 2574 H 241.346 3.26436 6.81891 0
M  V30 2575 H 242.614 2.26244 7.45945 0
M  V30 2576 N 246.843 -1.10192 1.12674 0
M  V30 2577 C 247.773 -2.18652 0.819362 0
M  V30 2578 C 248.754 -1.68698 -0.217915 0
M  V30 2579 O 249.939 -1.94041 -0.0785581 0
M  V30 2580 C 247.069 -3.46202 0.27594 0
M  V30 2581 C 246.023 -4.09444 1.24656 0
M  V30 2582 C 245.349 -5.31725 0.563258 0
M  V30 2583 C 246.649 -4.52863 2.60217 0
M  V30 2584 H 248.343 -2.44622 1.72628 0
M  V30 2585 H 245.889 -1.17571 0.831451 0
M  V30 2586 H 247.842 -4.21372 0.0486149 0
M  V30 2587 H 246.566 -3.1973 -0.666331 0
M  V30 2588 H 245.225 -3.36284 1.45974 0
M  V30 2589 H 244.873 -5.0153 -0.384235 0
M  V30 2590 H 244.573 -5.74991 1.21075 0
M  V30 2591 H 246.097 -6.09624 0.34503 0
M  V30 2592 H 247.511 -5.19294 2.42913 0
M  V30 2593 H 245.908 -5.06986 3.21068 0
M  V30 2594 H 246.978 -3.65656 3.18471 0
M  V30 2595 N 248.321 -0.919034 -1.28029 0
M  V30 2596 C 249.569 -0.553838 -1.94363 0
M  V30 2597 C 249.89 0.906357 -1.72656 0
M  V30 2598 O 249.16 1.64143 -1.0693 0
M  V30 2599 H 247.74 -0.201834 -0.719216 0
M  V30 2600 H 250.402 -1.16954 -1.55909 0
M  V30 2601 H 249.498 -0.752758 -3.02886 0
M  V30 2602 N 249.799 1.42003 -0.683588 0
M  V30 2603 C 251.029 2.05448 -0.217866 0
M  V30 2604 C 251.437 1.51491 1.13346 0
M  V30 2605 O 250.78 0.653048 1.717 0
M  V30 2606 C 250.842 3.59399 -0.0850118 0
M  V30 2607 C 250.506 4.36093 -1.36645 0
M  V30 2608 C 251.503 4.66169 -2.30179 0
M  V30 2609 C 249.188 4.75578 -1.61649 0
M  V30 2610 C 251.182 5.34676 -3.46988 0
M  V30 2611 C 248.869 5.43824 -2.78745 0
M  V30 2612 C 249.867 5.73299 -3.71238 0
M  V30 2613 O 249.555 6.40142 -4.86285 0
M  V30 2614 H 249.287 0.668344 -0.101454 0
M  V30 2615 H 251.841 1.82974 -0.933248 0
M  V30 2616 H 250.071 3.80566 0.686031 0
M  V30 2617 H 251.76 4.04457 0.341973 0
M  V30 2618 H 252.526 4.36156 -2.12115 0
M  V30 2619 H 248.405 4.52025 -0.905243 0
M  V30 2620 H 251.949 5.57599 -4.19201 0
M  V30 2621 H 247.846 5.73254 -2.96732 0
M  V30 2622 H 248.614 6.58636 -4.85944 0
M  V30 2623 N 251.277 0.427512 1.51691 0
M  V30 2624 C 252.693 0.0792977 1.59403 0
M  V30 2625 C 252.893 -1.41035 1.43914 0
M  V30 2626 O 251.949 -2.17922 1.27539 0
M  V30 2627 C 253.262 0.590636 2.94842 0
M  V30 2628 C 254.81 0.550215 3.08126 0
M  V30 2629 C 255.285 1.03836 4.46074 0
M  V30 2630 N 256.776 0.995943 4.52366 0
M  V30 2631 C 257.511 1.34463 5.57411 0
M  V30 2632 N 257.007 1.76569 6.69922 0
M  V30 2633 N 258.8 1.26343 5.47717 0
M  V30 2634 H 250.951 1.39687 1.60004 0
M  V30 2635 H 253.214 0.575003 0.753708 0
M  V30 2636 H 252.92 1.63251 3.11516 0
M  V30 2637 H 252.794 0.0102061 3.77199 0
M  V30 2638 H 255.181 -0.482654 2.91126 0
M  V30 2639 H 255.262 1.16693 2.27632 0
M  V30 2640 H 254.906 2.06965 4.63819 0
M  V30 2641 H 254.836 0.398286 5.25092 0
M  V30 2642 H 257.327 0.68661 3.7161 0
M  V30 2643 H 257.64 2.01438 7.46085 0
M  V30 2644 H 255.985 1.80488 6.71155 0
M  V30 2645 H 259.176 0.933209 4.58703 0
M  V30 2646 H 259.349 1.53846 6.29472 0
M  V30 2647 N 252.755 -1.56801 0.158532 0
M  V30 2648 C 254.001 -1.96781 -0.490405 0
M  V30 2649 C 254.334 -1.04397 -1.63753 0
M  V30 2650 O 253.609 -0.0885805 -1.94298 0
M  V30 2651 C 253.892 -3.4635 -0.985594 0
M  V30 2652 C 253.745 -4.49512 0.160824 0
M  V30 2653 C 255.064 -3.98697 -1.86355 0
M  V30 2654 H 252.183 -0.715482 -0.176788 0
M  V30 2655 H 254.825 -1.88451 0.242088 0
M  V30 2656 H 252.975 -3.53579 -1.60978 0
M  V30 2657 H 254.647 -4.54353 0.797537 0
M  V30 2658 H 252.89 -4.26013 0.818256 0
M  V30 2659 H 253.561 -5.51531 -0.227569 0
M  V30 2660 H 256.037 -3.94019 -1.33746 0
M  V30 2661 H 254.913 -5.03792 -2.17909 0
M  V30 2662 H 255.174 -3.41744 -2.8047 0
M  V30 2663 N 254.233 0.115231 -1.57178 0
M  V30 2664 C 255.143 1.15994 -2.03918 0
M  V30 2665 C 256.159 1.45103 -0.960268 0
M  V30 2666 O 257.335 1.56144 -1.27204 0
M  V30 2667 C 254.4 2.46568 -2.43732 0
M  V30 2668 C 253.461 2.24822 -3.65723 0
M  V30 2669 C 252.694 3.4917 -4.03629 0
M  V30 2670 O 252.917 4.56623 -3.41835 0
M  V30 2671 O 251.851 3.39949 -4.96708 0
M  V30 2672 H 255.677 0.793019 -2.93164 0
M  V30 2673 H 253.262 0.3263 -1.45793 0
M  V30 2674 H 255.144 3.23492 -2.70057 0
M  V30 2675 H 253.819 2.82726 -1.57631 0
M  V30 2676 H 252.726 1.45744 -3.44542 0
M  V30 2677 H 254.059 1.93566 -4.52541 0
M  V30 2678 N 255.711 1.52812 0.385517 0
M  V30 2679 C 256.936 1.72207 1.15583 0
M  V30 2680 C 257.361 0.441034 1.82857 0
M  V30 2681 O 256.719 -0.603465 1.70962 0
M  V30 2682 C 256.767 2.87476 2.17692 0
M  V30 2683 O 255.871 2.54693 3.24354 0
M  V30 2684 H 255.212 0.572526 0.336319 0
M  V30 2685 H 257.742 1.99618 0.448744 0
M  V30 2686 H 257.752 3.13072 2.6163 0
M  V30 2687 H 256.427 3.80408 1.68115 0
M  V30 2688 H 255.004 2.3985 2.85529 0
M  V30 2689 N 257.189 -0.644168 1.43834 0
M  V30 2690 C 258.119 -1.76814 1.52509 0
M  V30 2691 C 259.1 -1.65823 0.379052 0
M  V30 2692 O 260.285 -1.84781 0.597466 0
M  V30 2693 C 257.415 -3.15288 1.4564 0
M  V30 2694 C 256.369 -3.41053 2.58586 0
M  V30 2695 C 255.695 -4.79421 2.36769 0
M  V30 2696 C 256.995 -3.34902 4.00797 0
M  V30 2697 H 258.689 -1.69812 2.46586 0
M  V30 2698 H 256.235 -0.815542 1.1868 0
M  V30 2699 H 258.188 -3.93681 1.50311 0
M  V30 2700 H 256.912 -3.23043 0.480725 0
M  V30 2701 H 255.571 -2.65035 2.53282 0
M  V30 2702 H 255.219 -4.83863 1.37424 0
M  V30 2703 H 254.919 -4.9762 3.12487 0
M  V30 2704 H 256.443 -5.6006 2.43238 0
M  V30 2705 H 257.857 -4.03218 4.07539 0
M  V30 2706 H 256.254 -3.64637 4.76613 0
M  V30 2707 H 257.324 -2.32928 4.25291 0
M  V30 2708 N 258.668 -1.30515 -0.883378 0
M  V30 2709 C 259.631 -1.1701 -1.97082 0
M  V30 2710 C 260.631 -0.10089 -1.60483 0
M  V30 2711 O 261.821 -0.349127 -1.70666 0
M  V30 2712 C 258.953 -0.793045 -3.31547 0
M  V30 2713 H 260.146 -2.13622 -2.10489 0
M  V30 2714 H 257.699 -1.13935 -1.06998 0
M  V30 2715 H 258.434 0.172499 -3.23841 0
M  V30 2716 H 258.219 -1.56576 -3.5948 0
M  V30 2717 H 259.709 -0.722073 -4.1131 0
M  V30 2718 N 260.146 1.09593 -1.13257 0
M  V30 2719 C 261.562 1.33775 -0.870423 0
M  V30 2720 C 261.762 1.95327 0.494926 0
M  V30 2721 O 260.818 2.19853 1.2418 0
M  V30 2722 C 262.131 2.25106 -1.99369 0
M  V30 2723 C 263.679 2.3862 -2.02558 0
M  V30 2724 C 264.154 3.33285 -3.14142 0
M  V30 2725 N 265.645 3.40857 -3.13641 0
M  V30 2726 C 266.38 4.14101 -3.96621 0
M  V30 2727 N 265.876 4.90157 -4.8961 0
M  V30 2728 N 267.669 4.09808 -3.84726 0
M  V30 2729 H 259.82 0.680136 -2.01216 0
M  V30 2730 H 262.083 0.362133 -0.876107 0
M  V30 2731 H 261.789 1.87103 -2.97801 0
M  V30 2732 H 261.663 3.25481 -1.90635 0
M  V30 2733 H 264.05 2.75887 -1.0474 0
M  V30 2734 H 264.131 1.38028 -2.15364 0
M  V30 2735 H 263.775 2.96741 -4.12198 0
M  V30 2736 H 263.705 4.33776 -2.98574 0
M  V30 2737 H 266.196 2.86624 -2.46282 0
M  V30 2738 H 266.509 5.4347 -5.49418 0
M  V30 2739 H 264.854 4.89251 -4.93617 0
M  V30 2740 H 268.045 3.4949 -3.11408 0
M  V30 2741 H 268.218 4.66629 -4.49623 0
M  V30 2742 N 261.624 0.925811 1.2754 0
M  V30 2743 C 262.873 0.561084 1.93739 0
M  V30 2744 C 263.186 -0.901685 1.73577 0
M  V30 2745 O 264.392 -1.37511 2.34101 0
M  V30 2746 C 262.848 0.952668 3.47062 0
M  V30 2747 C 262.456 2.43599 3.75983 0
M  V30 2748 C 264.2 0.659103 4.19352 0
M  V30 2749 C 262.107 2.76707 5.22673 0
M  V30 2750 H 261.037 0.206122 0.725279 0
M  V30 2751 H 263.688 1.12637 1.44863 0
M  V30 2752 H 262.07 0.316053 3.94737 0
M  V30 2753 H 263.244 3.12035 3.39073 0
M  V30 2754 H 261.559 2.70125 3.16893 0
M  V30 2755 H 264.156 0.882985 5.27359 0
M  V30 2756 H 264.499 -0.403607 4.14339 0
M  V30 2757 H 265.032 1.25473 3.77494 0
M  V30 2758 H 261.771 3.8188 5.32774 0
M  V30 2759 H 261.291 2.12919 5.60737 0
M  V30 2760 H 262.97 2.6435 5.90532 0
M  V30 2761 N 263.102 -1.41638 0.69111 0
M  V30 2762 C 264.034 -2.29194 -0.0161523 0
M  V30 2763 C 265.047 -1.44549 -0.748955 0
M  V30 2764 O 266.236 -1.681 -0.6004 0
M  V30 2765 C 263.336 -3.22325 -1.0469 0
M  V30 2766 C 262.509 -4.35706 -0.384621 0
M  V30 2767 C 261.568 -5.09443 -1.31737 0
M  V30 2768 O 260.594 -5.63386 -0.811451 0
M  V30 2769 N 261.796 -5.16487 -2.64993 0
M  V30 2770 H 264.561 -2.90534 0.735523 0
M  V30 2771 H 262.122 -1.52742 0.53679 0
M  V30 2772 H 264.114 -3.68522 -1.67252 0
M  V30 2773 H 262.684 -2.62323 -1.70015 0
M  V30 2774 H 261.904 -3.91948 0.420804 0
M  V30 2775 H 263.192 -5.08743 0.0760765 0
M  V30 2776 H 262.59 -4.741 -3.08619 0
M  V30 2777 H 261.147 -5.66276 -3.22761 0
M  V30 2778 N 264.58 -0.43555 -1.51462 0
M  V30 2779 C 265.805 0.132627 -2.06976 0
M  V30 2780 C 266.23 1.35848 -1.30104 0
M  V30 2781 O 265.588 1.78112 -0.338493 0
M  V30 2782 C 265.636 0.43523 -3.57964 0
M  V30 2783 O 264.74 1.52198 -3.83288 0
M  V30 2784 H 264.081 0.00265 -0.663995 0
M  V30 2785 H 266.611 -0.616369 -1.95095 0
M  V30 2786 H 266.621 0.686206 -4.02188 0
M  V30 2787 H 265.296 -0.460739 -4.1334 0
M  V30 2788 H 263.873 1.2611 -3.50928 0
M  V30 2789 N 266.058 1.56714 -0.166846 0
M  V30 2790 C 266.988 2.20754 0.760913 0
M  V30 2791 C 267.969 1.16178 1.24244 0
M  V30 2792 O 269.154 1.44592 1.29641 0
M  V30 2793 C 266.284 2.84478 1.99223 0
M  V30 2794 C 265.238 3.95053 1.64672 0
M  V30 2795 C 264.564 4.45805 2.95232 0
M  V30 2796 C 265.864 5.14865 0.878155 0
M  V30 2797 H 267.558 2.98537 0.22713 0
M  V30 2798 H 265.104 1.43596 0.107805 0
M  V30 2799 H 267.057 3.27951 2.64624 0
M  V30 2800 H 265.781 2.04056 2.55007 0
M  V30 2801 H 264.44 3.52228 1.01641 0
M  V30 2802 H 264.088 3.62181 3.49047 0
M  V30 2803 H 263.788 5.204 2.7287 0
M  V30 2804 H 265.312 4.91962 3.6167 0
M  V30 2805 H 266.726 5.55059 1.43466 0
M  V30 2806 H 265.123 5.95348 0.753738 0
M  V30 2807 H 266.193 4.84735 -0.126377 0
M  V30 2808 N 267.536 -0.106894 1.57237 0
M  V30 2809 C 268.446 -1.14911 2.0453 0
M  V30 2810 C 269.462 -1.44592 0.96795 0
M  V30 2811 O 270.638 -1.55468 1.2803 0
M  V30 2812 C 267.703 -2.45272 2.45036 0
M  V30 2813 C 266.764 -2.22879 3.66911 0
M  V30 2814 C 265.997 -3.47024 4.05475 0
M  V30 2815 O 266.22 -4.54804 3.44252 0
M  V30 2816 O 265.154 -3.3731 4.98504 0
M  V30 2817 H 268.98 -0.777461 2.9358 0
M  V30 2818 H 266.565 -0.318563 1.45964 0
M  V30 2819 H 268.447 -3.22055 2.71769 0
M  V30 2820 H 267.122 -2.81886 1.59129 0
M  V30 2821 H 266.029 -1.43915 3.45311 0
M  V30 2822 H 267.362 -1.91163 4.53561 0
M  V30 2823 N 269.014 -1.53014 -0.377408 0
M  V30 2824 C 269.924 -1.81557 -1.48574 0
M  V30 2825 C 270.94 -0.703102 -1.59162 0
M  V30 2826 O 272.116 -0.99192 -1.75279 0
M  V30 2827 C 269.181 -1.9889 -2.83978 0
M  V30 2828 C 268.242 -3.22801 -2.83016 0
M  V30 2829 C 267.475 -3.39298 -4.11962 0
M  V30 2830 O 267.698 -2.60345 -5.0752 0
M  V30 2831 O 266.632 -4.32604 -4.18494 0
M  V30 2832 H 270.458 -2.75695 -1.27382 0
M  V30 2833 H 268.043 -1.38248 -0.566373 0
M  V30 2834 H 269.925 -2.11931 -3.6423 0
M  V30 2835 H 268.6 -1.07942 -3.05172 0
M  V30 2836 H 267.507 -3.15193 -2.01505 0
M  V30 2837 H 268.84 -4.13632 -2.66775 0
M  V30 2838 N 270.492 0.636531 -1.44174 0
M  V30 2839 C 271.74 1.39343 -1.46383 0
M  V30 2840 C 272.061 1.94766 -0.0955715 0
M  V30 2841 O 271.331 1.75452 0.871395 0
M  V30 2842 H 269.911 0.517199 -0.538994 0
M  V30 2843 H 272.573 0.74957 -1.7991 0
M  V30 2844 H 271.669 2.22746 -2.18611 0
M  V30 2845 N 271.97 1.30982 0.876444 0
M  V30 2846 C 272.917 1.18085 1.98304 0
M  V30 2847 C 273.887 0.0682263 1.6596 0
M  V30 2848 O 275.072 0.239937 1.89285 0
M  V30 2849 C 272.212 0.887475 3.33493 0
M  V30 2850 C 271.325 2.08281 3.78475 0
M  V30 2851 C 270.46 1.72678 5.0235 0
M  V30 2852 C 269.499 2.88657 5.39762 0
M  V30 2853 N 268.636 2.53292 6.54819 0
M  V30 2854 H 273.476 2.1275 2.08666 0
M  V30 2855 H 271.013 1.05839 1.02159 0
M  V30 2856 H 272.971 0.697961 4.1132 0
M  V30 2857 H 271.601 -0.022315 3.22792 0
M  V30 2858 H 270.653 2.3833 2.96484 0
M  V30 2859 H 271.965 2.95108 4.02135 0
M  V30 2860 H 271.119 1.50151 5.87826 0
M  V30 2861 H 269.858 0.830327 4.8058 0
M  V30 2862 H 268.863 3.1184 4.52809 0
M  V30 2863 H 270.088 3.79002 5.63502 0
M  V30 2864 H 268.034 1.66163 6.34607 0
M  V30 2865 H 267.951 3.3365 6.7839 0
M  V30 2866 H 269.219 2.34143 7.43503 0
M  V30 2867 N 273.449 -1.08991 1.13837 0
M  V30 2868 C 274.695 -1.81526 0.90422 0
M  V30 2869 C 275.028 -1.85706 -0.568066 0
M  V30 2870 O 274.303 -1.32855 -1.42056 0
M  V30 2871 C 274.586 -3.27447 1.49835 0
M  V30 2872 C 274.439 -3.31512 3.04006 0
M  V30 2873 C 275.758 -4.24256 1.17025 0
M  V30 2874 H 272.877 -0.659029 0.329923 0
M  V30 2875 H 275.519 -1.27644 1.40737 0
M  V30 2876 H 273.669 -3.73462 1.07044 0
M  V30 2877 H 275.341 -2.93867 3.55584 0
M  V30 2878 H 273.584 -2.70963 3.38765 0
M  V30 2879 H 274.255 -4.34329 3.40679 0
M  V30 2880 H 276.731 -3.86549 1.54009 0
M  V30 2881 H 275.607 -5.24684 1.61237 0
M  V30 2882 H 275.868 -4.42019 0.0846274 0
M  V30 2883 N 274.927 -0.932562 -1.27047 0
M  V30 2884 C 276.152 -0.591474 -1.98787 0
M  V30 2885 C 276.577 0.824601 -1.69062 0
M  V30 2886 O 275.935 1.5541 -0.933677 0
M  V30 2887 C 275.983 -0.829808 -3.50922 0
M  V30 2888 O 275.087 0.102266 -4.12273 0
M  V30 2889 H 274.428 -0.227185 -0.623926 0
M  V30 2890 H 276.958 -1.25314 -1.61733 0
M  V30 2891 H 276.968 -0.747292 -4.01098 0
M  V30 2892 H 275.643 -1.86201 -3.7189 0
M  V30 2893 H 274.22 -0.0305761 -3.72887 0
M  V30 2894 N 276.405 1.4127 -0.698611 0
M  V30 2895 C 277.652 2.0118 -0.230865 0
M  V30 2896 C 277.98 1.55338 1.17049 0
M  V30 2897 O 277.235 0.756775 1.80475 0
M  V30 2898 C 277.534 3.56592 -0.240192 0
M  V30 2899 C 277.2 4.21955 -1.58948 0
M  V30 2900 C 275.862 4.39524 -1.95887 0
M  V30 2901 C 278.214 4.58576 -2.47704 0
M  V30 2902 C 275.542 4.90992 -3.2116 0
M  V30 2903 C 277.894 5.11435 -3.72313 0
M  V30 2904 C 276.558 5.27215 -4.0939 0
M  V30 2905 H 275.828 0.736169 -0.0844796 0
M  V30 2906 H 278.475 1.69124 -0.8983 0
M  V30 2907 H 276.78 3.88456 0.510797 0
M  V30 2908 H 278.477 4.00758 0.139296 0
M  V30 2909 H 275.067 4.08657 -1.29219 0
M  V30 2910 H 279.251 4.44654 -2.20445 0
M  V30 2911 H 274.507 5.01393 -3.49878 0
M  V30 2912 H 278.681 5.38752 -4.4127 0
M  V30 2913 H 276.308 5.66859 -5.06533 0
M  V30 2914 N 277.883 0.443576 1.51229 0
M  V30 2915 C 279.129 -0.120975 2.02439 0
M  V30 2916 C 279.462 -1.41815 1.32674 0
M  V30 2917 O 278.737 -1.89373 0.443622 0
M  V30 2918 C 279.02 -0.333291 3.58554 0
M  V30 2919 C 278.873 0.982968 4.38928 0
M  V30 2920 C 280.192 -1.10028 4.26124 0
M  V30 2921 H 277.311 -0.0424923 0.735774 0
M  V30 2922 H 279.953 0.583794 1.80809 0
M  V30 2923 H 278.103 -0.933614 3.77115 0
M  V30 2924 H 279.775 1.61775 4.32003 0
M  V30 2925 H 278.018 1.58611 4.03763 0
M  V30 2926 H 278.689 0.788379 5.46341 0
M  V30 2927 H 281.165 -0.591711 4.11871 0
M  V30 2928 H 280.041 -1.21761 5.35225 0
M  V30 2929 H 280.302 -2.12996 3.87408 0
M  V30 2930 N 279.361 -1.56624 0.175154 0
M  V30 2931 C 280.293 -2.15333 -0.785128 0
M  V30 2932 C 281.306 -1.1099 -1.19101 0
M  V30 2933 O 282.495 -1.38162 -1.13019 0
M  V30 2934 C 279.595 -2.68427 -2.06882 0
M  V30 2935 C 278.768 -3.97466 -1.8259 0
M  V30 2936 C 277.827 -4.35585 -2.95215 0
M  V30 2937 O 276.853 -5.03389 -2.65684 0
M  V30 2938 N 278.055 -3.97457 -4.23094 0
M  V30 2939 H 280.82 -2.98359 -0.283187 0
M  V30 2940 H 278.381 -1.61898 -0.00749817 0
M  V30 2941 H 280.373 -2.90924 -2.81328 0
M  V30 2942 H 278.943 -1.89968 -2.48256 0
M  V30 2943 H 278.163 -3.83307 -0.920287 0
M  V30 2944 H 279.451 -4.81736 -1.63733 0
M  V30 2945 H 278.849 -3.42878 -4.49945 0
M  V30 2946 H 277.406 -4.24947 -4.9423 0
M  V30 2947 N 280.839 0.0985539 -1.57292 0
M  V30 2948 C 281.749 1.13824 -2.05137 0
M  V30 2949 C 282.765 1.44076 -0.975604 0
M  V30 2950 O 283.941 1.54786 -1.28853 0
M  V30 2951 C 281.006 2.43969 -2.46333 0
M  V30 2952 C 280.067 2.2093 -3.68087 0
M  V30 2953 C 279.3 3.44869 -4.0731 0
M  V30 2954 O 279.523 4.52972 -3.46659 0
M  V30 2955 O 278.457 3.34661 -5.00285 0
M  V30 2956 H 282.283 0.761881 -2.93988 0
M  V30 2957 H 279.868 0.310818 -1.46131 0
M  V30 2958 H 281.75 3.20609 -2.73473 0
M  V30 2959 H 280.425 2.81038 -1.60621 0
M  V30 2960 H 279.332 1.42081 -3.46069 0
M  V30 2961 H 280.665 1.88755 -4.54568 0
M  V30 2962 N 282.317 1.53212 0.369288 0
M  V30 2963 C 283.563 1.69466 1.11397 0
M  V30 2964 C 283.896 0.443257 1.89074 0
M  V30 2965 O 283.171 -0.559386 1.86282 0
M  V30 2966 C 283.454 2.9422 2.07621 0
M  V30 2967 C 283.307 4.29508 1.33577 0
M  V30 2968 C 284.626 3.14565 3.07794 0
M  V30 2969 H 281.745 0.616667 0.403597 0
M  V30 2970 H 284.387 1.85845 0.395179 0
M  V30 2971 H 282.537 2.80387 2.68916 0
M  V30 2972 H 284.209 4.55147 0.750955 0
M  V30 2973 H 282.452 4.29088 0.637618 0
M  V30 2974 H 283.123 5.12926 2.03989 0
M  V30 2975 H 285.599 3.2756 2.56601 0
M  V30 2976 H 284.475 4.03297 3.72348 0
M  V30 2977 H 284.736 2.29675 3.77759 0
M  V30 2978 N 283.795 -0.628877 1.44509 0
M  V30 2979 C 284.745 -1.7345 1.47983 0
M  V30 2980 C 285.729 -1.5715 0.345373 0
M  V30 2981 O 286.921 -1.66848 0.590829 0
M  V30 2982 C 284.05 -3.12143 1.42904 0
M  V30 2983 C 283.136 -3.33906 2.61472 0
M  V30 2984 N 283.527 -3.26024 3.86706 0
M  V30 2985 C 281.825 -3.64709 2.56716 0
M  V30 2986 C 282.526 -3.48536 4.65722 0
M  V30 2987 N 281.502 -3.71517 3.96832 0
M  V30 2988 H 285.304 -1.65818 2.42655 0
M  V30 2989 H 282.818 -0.831419 1.39503 0
M  V30 2990 H 284.815 -3.91433 1.43476 0
M  V30 2991 H 283.475 -3.2094 0.492717 0
M  V30 2992 H 284.486 -3.04893 4.18641 0
M  V30 2993 H 281.163 -3.80473 1.71891 0
M  V30 2994 H 282.553 -3.48016 5.74747 0
M  V30 2995 N 285.273 -1.31445 -0.869486 0
M  V30 2996 C 286.498 -1.24256 -1.66058 0
M  V30 2997 C 286.923 0.188928 -1.87149 0
M  V30 2998 O 286.281 1.13522 -1.4136 0
M  V30 2999 C 286.329 -1.9924 -3.00559 0
M  V30 3000 O 285.433 -1.33007 -3.90362 0
M  V30 3001 H 284.774 -0.428973 -0.506831 0
M  V30 3002 H 287.304 -1.73521 -1.08404 0
M  V30 3003 H 287.314 -2.08854 -3.50491 0
M  V30 3004 H 285.989 -3.03342 -2.84528 0
M  V30 3005 H 284.566 -1.31848 -3.48813 0
M  V30 3006 O 286.79 1.00619 -1.26325 0
M  V30 3007 H 287.481 1.62637 -1.05209 0
M  V30 END ATOM
M  V30 BEGIN BOND
M  V30 END BOND
M  V30 END CTAB
M  END
$$$$
