drugbank_target|P42336 Phosphatidylinositol 4,5-bisphosphate 3-kinase catalytic subunit alpha isoform (DB00171; DB00201; DB05241; DB08059; DB11772; DB12015; DB12483)
 OpenBabel12092120103D

  0  0  0     0  0            999 V3000
M  V30 BEGIN CTAB
M  V30 COUNTS 17463 17664 0 0 0
M  V30 BEGIN ATOM
M  V30 1 H -0.908 1.98254 -0.117106 0
M  V30 2 N 0 1.576 0 0
M  V30 3 C 0.933 2.03868 1.02534 0
M  V30 4 C 1.911 0.928543 1.3348 0
M  V30 5 O 3.095 1.19667 1.45644 0
M  V30 6 C 0.222 2.43627 2.35294 0
M  V30 7 C -0.732 3.65373 2.2001 0
M  V30 8 S 0.101 5.13292 1.52614 0
M  V30 9 C 1.257 5.56322 2.86805 0
M  V30 10 H 1.49 2.90518 0.631377 0
M  V30 11 H -0.977 1.52953 0.210867 0
M  V30 12 H 0.981 2.67203 3.11629 0
M  V30 13 H -0.358 1.57376 2.7183 0
M  V30 14 H -1.165 3.90944 3.18086 0
M  V30 15 H -1.563 3.418 1.51819 0
M  V30 16 H 0.729 5.58782 3.83104 0
M  V30 17 H 1.672 6.56266 2.65933 0
M  V30 18 H 2.08 4.83886 2.90714 0
M  V30 19 N 1.4781 -0.272755 1.55222 0
M  V30 20 C 2.8891 -0.84378 1.66545 0
M  V30 21 C 3.2401 -1.87035 0.592641 0
M  V30 22 O 2.3651 -2.14761 -0.265818 0
M  V30 23 C 2.9601 -1.53723 3.01918 0
M  V30 24 C 1.5191 -2.05628 3.15268 0
M  V30 25 C 0.6661 -0.898424 2.62343 0
M  V30 26 H 3.6171 -0.0490998 1.58624 0
M  V30 27 H 3.6381 -2.40421 2.94921 0
M  V30 28 H 3.1501 -0.78983 3.79978 0
M  V30 29 H 1.2511 -2.83329 2.41983 0
M  V30 30 H 1.3641 -2.27142 4.21833 0
M  V30 31 H -0.2719 -1.29186 2.19506 0
M  V30 32 H 0.5111 -0.164528 3.42906 0
M  V30 33 N 2.9562 -1.48159 -0.537278 0
M  V30 34 C 4.3672 -1.49429 -1.11928 0
M  V30 35 C 4.7182 -0.26 -1.9447 0
M  V30 36 O 3.8432 0.633489 -2.0692 0
M  V30 37 C 4.4382 -2.70758 -2.03656 0
M  V30 38 C 2.9972 -2.74923 -2.57088 0
M  V30 39 C 2.1442 -2.42835 -1.3389 0
M  V30 40 H 5.0952 -1.55381 -0.322886 0
M  V30 41 H 5.1162 -2.48861 -2.87834 0
M  V30 42 H 4.6282 -3.60575 -1.43553 0
M  V30 43 H 2.7292 -1.89296 -3.20933 0
M  V30 44 H 2.8422 -3.76157 -2.9672 0
M  V30 45 H 1.2062 -1.93836 -1.65226 0
M  V30 46 H 1.9892 -3.34884 -0.755504 0
M  V30 47 N 4.4343 0.785586 -1.36625 0
M  V30 48 C 5.8503 1.08419 -1.17122 0
M  V30 49 C 6.0503 2.015 0.00208491 0
M  V30 50 O 5.1063 2.43551 0.666278 0
M  V30 51 C 6.4193 1.69498 -2.48377 0
M  V30 52 C 7.9673 1.81821 -2.54775 0
M  V30 53 C 8.4423 2.46315 -3.86126 0
M  V30 54 N 9.9333 2.53779 -3.87492 0
M  V30 55 C 10.6683 3.045 -4.85868 0
M  V30 56 N 10.1643 3.55499 -5.94637 0
M  V30 57 N 11.9573 3.03247 -4.73284 0
M  V30 58 H 4.1083 0.167264 -2.1174 0
M  V30 59 H 6.3713 0.13682 -0.938075 0
M  V30 60 H 6.0773 1.08571 -3.34522 0
M  V30 61 H 5.9513 2.6896 -2.64462 0
M  V30 62 H 8.3383 2.41884 -1.69045 0
M  V30 63 H 8.4193 0.811532 -2.42586 0
M  V30 64 H 8.0633 1.86895 -4.72263 0
M  V30 65 H 7.9933 3.47561 -3.95612 0
M  V30 66 H 10.4843 2.17672 -3.08913 0
M  V30 67 H 10.7973 3.92562 -6.65669 0
M  V30 68 H 9.1423 3.5364 -5.98301 0
M  V30 69 H 12.3333 2.62696 -3.87438 0
M  V30 70 H 12.5063 3.42467 -5.50109 0
M  V30 71 N 5.9124 1.20967 1.01018 0
M  V30 72 C 7.3234 1.02319 1.56165 0
M  V30 73 C 7.6744 -0.418546 1.91684 0
M  V30 74 O 6.7994 -1.30096 1.72928 0
M  V30 75 C 7.3944 1.85109 2.8376 0
M  V30 76 C 5.9534 1.70809 3.35412 0
M  V30 77 C 5.1004 1.82643 2.08655 0
M  V30 78 H 8.0514 1.35065 0.833255 0
M  V30 79 H 8.0724 1.35827 3.55431 0
M  V30 80 H 7.5844 2.90035 2.57878 0
M  V30 81 H 5.6854 0.685464 3.66241 0
M  V30 82 H 5.7984 2.52467 4.07182 0
M  V30 83 H 4.1624 1.25896 2.21409 0
M  V30 84 H 4.9454 2.89066 1.85191 0
M  V30 85 N 7.3905 -1.2043 1.01659 0
M  V30 86 C 8.6155 -1.94318 0.724942 0
M  V30 87 C 9.0405 -1.74266 -0.708034 0
M  V30 88 O 8.3985 -1.03694 -1.48719 0
M  V30 89 C 8.4465 -3.44486 1.06591 0
M  V30 90 O 7.5505 -4.12017 0.177599 0
M  V30 91 H 6.8915 -0.60708 0.26898 0
M  V30 92 H 9.4215 -1.52861 1.35995 0
M  V30 93 H 9.4315 -3.95106 1.01762 0
M  V30 94 H 8.1065 -3.58404 2.10997 0
M  V30 95 H 6.6835 -3.71821 0.283421 0
M  V30 96 N 8.8686 -0.792821 -1.36206 0
M  V30 97 C 10.0936 -0.377701 -2.03932 0
M  V30 98 C 10.5186 0.998947 -1.59382 0
M  V30 99 O 9.8766 1.64421 -0.763903 0
M  V30 100 C 9.9246 -0.453635 -3.57735 0
M  V30 101 O 9.0286 0.538151 -4.08874 0
M  V30 102 H 8.3696 -0.159855 -0.644471 0
M  V30 103 H 10.8996 -1.07488 -1.7409 0
M  V30 104 H 10.9096 -0.318464 -4.06755 0
M  V30 105 H 9.5846 -1.45784 -3.89512 0
M  V30 106 H 8.1616 0.364359 -3.71116 0
M  V30 107 N 10.3467 1.47872 -0.545128 0
M  V30 108 C 11.5947 2.02093 -0.016553 0
M  V30 109 C 11.9157 1.42305 1.3332 0
M  V30 110 O 11.1857 0.593853 1.86682 0
M  V30 111 H 9.7657 0.746993 -0.00313038 0
M  V30 112 H 12.4277 1.81414 -0.712397 0
M  V30 113 H 11.5237 3.11996 0.0805422 0
M  V30 114 N 11.8248 0.280983 1.55075 0
M  V30 115 C 12.7348 -0.61388 2.26426 0
M  V30 116 C 13.7508 -1.16521 1.29224 0
M  V30 117 O 14.9268 -1.19426 1.62171 0
M  V30 118 C 11.9918 -1.7788 2.9759 0
M  V30 119 C 11.0528 -1.26355 4.10284 0
M  V30 120 C 10.2858 -2.37295 4.78045 0
M  V30 121 O 10.5088 -3.56777 4.45047 0
M  V30 122 O 9.4428 -2.05119 5.65871 0
M  V30 123 H 13.2688 -0.0356932 3.03679 0
M  V30 124 H 10.8538 0.0481686 1.49322 0
M  V30 125 H 12.7358 -2.45791 3.42293 0
M  V30 126 H 11.4108 -2.34397 2.23249 0
M  V30 127 H 10.3178 -0.550735 3.70024 0
M  V30 128 H 11.6508 -0.744065 4.86543 0
M  V30 129 N 13.3029 -1.57598 0.00835791 0
M  V30 130 C 14.2329 -2.1198 -0.979113 0
M  V30 131 C 15.2139 -1.03091 -1.35301 0
M  V30 132 O 16.3989 -1.30818 -1.43528 0
M  V30 133 C 13.5289 -2.62995 -2.26828 0
M  V30 134 C 12.4829 -3.76485 -2.03576 0
M  V30 135 C 11.8089 -4.13846 -3.38579 0
M  V30 136 C 13.1089 -5.0342 -1.39161 0
M  V30 137 H 14.8029 -2.94738 -0.526281 0
M  V30 138 H 12.3489 -1.41783 -0.251704 0
M  V30 139 H 14.3019 -2.99669 -2.96271 0
M  V30 140 H 13.0259 -1.7737 -2.7424 0
M  V30 141 H 11.6849 -3.40217 -1.36557 0
M  V30 142 H 11.3329 -3.25232 -3.83709 0
M  V30 143 H 11.0329 -4.90312 -3.23834 0
M  V30 144 H 12.5569 -4.53086 -4.09323 0
M  V30 145 H 13.9709 -5.37812 -1.98573 0
M  V30 146 H 12.3679 -5.84746 -1.34878 0
M  V30 147 H 13.4379 -4.83548 -0.361868 0
M  V30 148 N 14.781 0.264519 -1.55364 0
M  V30 149 C 16.027 0.992314 -1.77552 0
M  V30 150 C 16.382 1.83626 -0.574379 0
M  V30 151 O 15.675 1.86648 0.432782 0
M  V30 152 C 15.869 1.9004 -3.02687 0
M  V30 153 C 15.698 1.14583 -4.34857 0
M  V30 154 C 14.468 0.858068 -4.97961 0
M  V30 155 C 16.666 0.532069 -5.1154 0
M  V30 156 N 14.648 0.0775974 -6.13851 0
M  V30 157 C 16.019 -0.113823 -6.19896 0
M  V30 158 C 18.074 0.440763 -4.95945 0
M  V30 159 C 16.777 -0.842231 -7.14352 0
M  V30 160 C 18.803 -0.274072 -5.90765 0
M  V30 161 C 18.165 -0.90867 -6.98515 0
M  V30 162 H 14.264 0.344811 -0.701875 0
M  V30 163 H 16.848 0.267141 -1.92859 0
M  V30 164 H 15.019 2.59775 -2.88741 0
M  V30 165 H 16.751 2.56243 -3.13243 0
M  V30 166 H 13.506 1.16547 -4.59036 0
M  V30 167 H 13.93 -0.300216 -6.76334 0
M  V30 168 H 18.572 0.917064 -4.12735 0
M  V30 169 H 16.29 -1.33019 -7.97077 0
M  V30 170 H 19.876 -0.345151 -5.80775 0
M  V30 171 H 18.756 -1.45299 -7.70622 0
M  V30 172 N 16.2591 1.48442 0.529413 0
M  V30 173 C 17.5071 1.56179 1.28267 0
M  V30 174 C 17.8281 0.237721 1.93546 0
M  V30 175 O 17.0981 -0.740779 1.81354 0
M  V30 176 H 15.6781 0.575367 0.476405 0
M  V30 177 H 18.3401 1.84909 0.61602 0
M  V30 178 H 17.4361 2.34312 2.06165 0
M  V30 179 N 17.7372 -0.778329 1.37039 0
M  V30 180 C 18.9862 -1.53189 1.3121 0
M  V30 181 C 19.2992 -1.95328 -0.103095 0
M  V30 182 O 20.5052 -2.70012 -0.283826 0
M  V30 183 C 18.9612 -2.76591 2.30272 0
M  V30 184 C 18.5692 -2.41577 3.77286 0
M  V30 185 C 20.3132 -3.5455 2.33441 0
M  V30 186 C 18.2202 -3.61441 4.68096 0
M  V30 187 H 17.1502 -0.5751 0.487622 0
M  V30 188 H 19.8012 -0.853101 1.62464 0
M  V30 189 H 18.1832 -3.46326 1.92027 0
M  V30 190 H 19.3572 -1.79668 4.2433 0
M  V30 191 H 17.6722 -1.76806 3.76999 0
M  V30 192 H 20.2692 -4.43628 2.98493 0
M  V30 193 H 20.6122 -3.93936 1.34611 0
M  V30 194 H 21.1452 -2.91805 2.7036 0
M  V30 195 H 17.8842 -3.27142 5.6803 0
M  V30 196 H 17.4042 -4.22478 4.25761 0
M  V30 197 H 19.0832 -4.28335 4.8491 0
M  V30 198 N 19.2153 -1.21501 -1.00376 0
M  V30 199 C 20.1653 -0.942843 -2.07592 0
M  V30 200 C 21.1493 0.102384 -1.60574 0
M  V30 201 O 22.3413 -0.10671 -1.76678 0
M  V30 202 C 19.4703 -0.510729 -3.3948 0
M  V30 203 C 18.5563 -1.59009 -3.93163 0
M  V30 204 N 18.9473 -2.81544 -4.20198 0
M  V30 205 C 17.2453 -1.45925 -4.21452 0
M  V30 206 C 17.9463 -3.51261 -4.63671 0
M  V30 207 N 16.9223 -2.78703 -4.66718 0
M  V30 208 H 20.7243 -1.87378 -2.26421 0
M  V30 209 H 18.2383 -1.11093 -1.18458 0
M  V30 210 H 20.2353 -0.297101 -4.1584 0
M  V30 211 H 18.8953 0.413436 -3.22057 0
M  V30 212 H 19.9063 -3.18075 -4.08716 0
M  V30 213 H 16.5833 -0.600467 -4.13159 0
M  V30 214 H 17.9733 -4.56183 -4.93302 0
M  V30 215 N 20.6934 1.19889 -1.02296 0
M  V30 216 C 21.6234 2.25141 -0.619174 0
M  V30 217 C 22.6044 1.66051 0.368915 0
M  V30 218 O 23.7894 1.92546 0.252941 0
M  V30 219 C 20.9194 3.4728 0.0368783 0
M  V30 220 C 19.8734 4.19005 -0.872865 0
M  V30 221 C 19.1994 5.34637 -0.0822402 0
M  V30 222 C 20.4994 4.74452 -2.18387 0
M  V30 223 H 22.1934 2.59171 -1.49903 0
M  V30 224 H 19.7394 1.24579 -0.722222 0
M  V30 225 H 21.6924 4.20098 0.330958 0
M  V30 226 H 20.4164 3.12433 0.95149 0
M  V30 227 H 19.0754 3.48061 -1.15105 0
M  V30 228 H 18.7234 4.96034 0.83422 0
M  V30 229 H 18.4234 5.83557 -0.688149 0
M  V30 230 H 19.9474 6.10255 0.205238 0
M  V30 231 H 21.3614 5.39055 -1.95172 0
M  V30 232 H 19.7584 5.33834 -2.74119 0
M  V30 233 H 20.8284 3.92844 -2.84257 0
M  V30 234 N 22.1715 0.800033 1.35784 0
M  V30 235 C 23.1045 0.151499 2.27697 0
M  V30 236 C 24.0825 -0.678663 1.4776 0
M  V30 237 O 25.2665 -0.647358 1.77035 0
M  V30 238 C 22.3935 -0.790492 3.29346 0
M  V30 239 C 21.4395 -0.0407832 4.26481 0
M  V30 240 S 22.2725 1.29077 5.19711 0
M  V30 241 C 23.4285 0.353055 6.24903 0
M  V30 242 H 23.6615 0.930796 2.82353 0
M  V30 243 H 21.1945 0.594767 1.42485 0
M  V30 244 H 23.1525 -1.3285 3.88409 0
M  V30 245 H 21.8135 -1.54312 2.73581 0
M  V30 246 H 21.0065 -0.755971 4.98298 0
M  V30 247 H 20.6085 0.427063 3.71554 0
M  V30 248 H 22.9005 -0.464147 6.75908 0
M  V30 249 H 23.8435 1.04023 7.00418 0
M  V30 250 H 24.2515 -0.0483344 5.64479 0
M  V30 251 N 23.6496 -1.47581 0.552962 0
M  V30 252 C 25.0606 -1.86324 0.118463 0
M  V30 253 C 25.4116 -1.46006 -1.3106 0
M  V30 254 O 24.5366 -0.861182 -1.98526 0
M  V30 255 C 25.1316 -3.3816 0.20821 0
M  V30 256 C 23.6906 -3.7601 -0.171226 0
M  V30 257 C 22.8376 -2.71634 0.557686 0
M  V30 258 H 25.7886 -1.39159 0.762928 0
M  V30 259 H 25.8096 -3.76141 -0.574278 0
M  V30 260 H 25.3216 -3.67473 1.24841 0
M  V30 261 H 23.4226 -3.52313 -1.21269 0
M  V30 262 H 23.5356 -4.78745 0.184379 0
M  V30 263 H 21.8996 -2.547 0.00125792 0
M  V30 264 H 22.6826 -3.0379 1.59896 0
M  V30 265 N 25.1277 -0.289203 -1.54924 0
M  V30 266 C 26.5387 0.205791 -1.85562 0
M  V30 267 C 26.8897 1.54351 -1.2112 0
M  V30 268 O 26.0147 2.10435 -0.504601 0
M  V30 269 C 26.6097 0.380177 -3.3666 0
M  V30 270 C 25.1687 0.819395 -3.67373 0
M  V30 271 C 24.3157 -0.079159 -2.77187 0
M  V30 272 H 27.2667 -0.510577 -1.50262 0
M  V30 273 H 27.2877 1.21659 -3.60526 0
M  V30 274 H 26.7997 -0.593589 -3.83534 0
M  V30 275 H 24.9007 1.80413 -3.26009 0
M  V30 276 H 25.0137 0.646957 -4.74712 0
M  V30 277 H 23.3777 0.439565 -2.50878 0
M  V30 278 H 24.1607 -1.04906 -3.26878 0
M  V30 279 N 26.6058 1.57591 -0.0167156 0
M  V30 280 C 28.0218 1.55946 0.339557 0
M  V30 281 C 28.2218 1.02109 1.73713 0
M  V30 282 O 27.2778 0.662303 2.43659 0
M  V30 283 C 28.5908 3.00037 0.199499 0
M  V30 284 C 30.1388 3.11805 0.273193 0
M  V30 285 C 30.6138 4.57713 0.162068 0
M  V30 286 N 32.1048 4.6268 0.219444 0
M  V30 287 C 32.8398 5.73185 0.157054 0
M  V30 288 N 32.3358 6.92786 0.0442936 0
M  V30 289 N 34.1288 5.61707 0.21014 0
M  V30 290 H 26.2798 1.90921 -0.930758 0
M  V30 291 H 28.5428 0.877674 -0.358319 0
M  V30 292 H 28.2488 3.4333 -0.76273 0
M  V30 293 H 28.1228 3.64387 0.974786 0
M  V30 294 H 30.5098 2.68433 1.22587 0
M  V30 295 H 30.5908 2.50201 -0.532256 0
M  V30 296 H 30.2348 5.01763 -0.78714 0
M  V30 297 H 30.1648 5.17283 0.986222 0
M  V30 298 H 32.6558 3.76649 0.307246 0
M  V30 299 H 32.9688 7.728 0.00304069 0
M  V30 300 H 31.3138 6.94999 0.00968457 0
M  V30 301 H 34.5048 4.6716 0.296546 0
M  V30 302 H 34.6778 6.47807 0.158054 0
M  V30 303 N 28.0839 -0.256276 1.55502 0
M  V30 304 C 29.3329 -0.983486 1.76098 0
M  V30 305 C 29.6459 -1.86837 0.578896 0
M  V30 306 O 30.8519 -2.63163 0.667648 0
M  V30 307 C 29.3079 -1.79868 3.1173 0
M  V30 308 C 28.9159 -0.961648 4.37557 0
M  V30 309 C 30.6599 -2.51919 3.41668 0
M  V30 310 C 28.5669 -1.77219 5.64223 0
M  V30 311 H 27.4969 -0.370936 0.656447 0
M  V30 312 H 30.1479 -0.238492 1.81944 0
M  V30 313 H 28.5299 -2.58527 2.99966 0
M  V30 314 H 29.7039 -0.218048 4.60284 0
M  V30 315 H 28.0189 -0.354913 4.14885 0
M  V30 316 H 30.6159 -3.12998 4.33516 0
M  V30 317 H 30.9589 -3.23059 2.62562 0
M  V30 318 H 31.4919 -1.80278 3.54605 0
M  V30 319 H 28.2309 -1.10471 6.46124 0
M  V30 320 H 27.7509 -2.49132 5.45613 0
M  V30 321 H 29.4299 -2.34169 6.03137 0
M  V30 322 N 29.562 -1.4872 -0.521534 0
M  V30 323 C 30.492 -1.66771 -1.63431 0
M  V30 324 C 31.473 -0.516499 -1.62069 0
M  V30 325 O 32.658 -0.750013 -1.79132 0
M  V30 326 C 29.788 -1.71515 -3.01993 0
M  V30 327 C 28.742 -2.86222 -3.18216 0
M  V30 328 C 28.068 -2.76061 -4.57924 0
M  V30 329 C 29.368 -4.27419 -3.00184 0
M  V30 330 H 31.062 -2.59932 -1.48579 0
M  V30 331 H 28.608 -1.25089 -0.713358 0
M  V30 332 H 30.561 -1.82731 -3.7972 0
M  V30 333 H 29.285 -0.749393 -3.17886 0
M  V30 334 H 27.944 -2.74575 -2.42908 0
M  V30 335 H 27.592 -1.77437 -4.70665 0
M  V30 336 H 27.292 -3.53037 -4.69722 0
M  V30 337 H 28.816 -2.89256 -5.37739 0
M  V30 338 H 30.23 -4.39855 -3.67697 0
M  V30 339 H 28.627 -5.05458 -3.2347 0
M  V30 340 H 29.697 -4.43293 -1.96518 0
M  V30 341 N 31.0401 0.771051 -1.3745 0
M  V30 342 C 32.2861 1.5319 -1.32894 0
M  V30 343 C 32.6191 1.94008 0.0862511 0
M  V30 344 O 31.8941 1.64124 1.04373 0
M  V30 345 C 32.1771 2.79648 -2.26868 0
M  V30 346 C 32.0301 2.45079 -3.77169 0
M  V30 347 C 33.3491 3.81583 -2.19277 0
M  V30 348 H 30.4681 0.555744 -0.484064 0
M  V30 349 H 33.1101 0.884492 -1.68157 0
M  V30 350 H 31.2601 3.34891 -1.96926 0
M  V30 351 H 32.9321 1.95745 -4.1771 0
M  V30 352 H 31.1751 1.77767 -3.95704 0
M  V30 353 H 31.8461 3.35478 -4.38359 0
M  V30 354 H 34.3221 3.35835 -2.45671 0
M  V30 355 H 33.1981 4.67787 -2.87171 0
M  V30 356 H 33.4591 4.25897 -1.18592 0
M  V30 357 N 32.5182 1.22032 0.997298 0
M  V30 358 C 33.4282 1.00271 2.12092 0
M  V30 359 C 34.4442 -0.047621 1.73935 0
M  V30 360 O 35.6202 0.144136 2.00884 0
M  V30 361 C 32.6852 0.578449 3.4184 0
M  V30 362 C 31.7462 1.70189 3.94125 0
M  V30 363 C 30.9792 1.29778 5.17681 0
M  V30 364 O 31.2022 0.174676 5.70132 0
M  V30 365 O 30.1362 2.11261 5.63607 0
M  V30 366 H 33.9622 1.94398 2.3333 0
M  V30 367 H 31.5472 1.00587 1.10465 0
M  V30 368 H 33.4292 0.351998 4.19927 0
M  V30 369 H 32.1042 -0.334019 3.21972 0
M  V30 370 H 31.0112 1.98282 3.1723 0
M  V30 371 H 32.3442 2.59206 4.18417 0
M  V30 372 N 33.9963 -1.19345 1.0293 0
M  V30 373 C 35.2363 -1.90738 0.734727 0
M  V30 374 C 35.6003 -1.7785 -0.723414 0
M  V30 375 O 36.8013 -2.43844 -1.13108 0
M  V30 376 C 35.0723 -3.37569 1.17396 0
M  V30 377 S 36.6313 -4.27176 1.00329 0
M  V30 378 H 33.4493 -0.658771 0.267474 0
M  V30 379 H 36.0513 -1.4428 1.31922 0
M  V30 380 H 34.7553 -3.44475 2.23081 0
M  V30 381 H 34.2863 -3.8906 0.582772 0
M  V30 382 H 36.3013 -4.96126 -0.0859152 0
M  V30 383 N 35.4744 -0.807222 -1.35358 0
M  V30 384 C 36.4044 -0.232509 -2.3234 0
M  V30 385 C 37.3854 0.642386 -1.57504 0
M  V30 386 O 38.5704 0.572526 -1.85569 0
M  V30 387 C 35.7004 0.619238 -3.41735 0
M  V30 388 C 34.6544 -0.157215 -4.27711 0
M  V30 389 C 33.9804 0.816273 -5.28433 0
M  V30 390 C 35.2804 -1.35656 -5.04376 0
M  V30 391 H 36.9744 -1.04276 -2.80654 0
M  V30 392 H 34.5204 -0.50288 -1.34934 0
M  V30 393 H 36.4734 1.03137 -4.08584 0
M  V30 394 H 35.1974 1.46239 -2.92031 0
M  V30 395 H 33.8564 -0.550525 -3.62443 0
M  V30 396 H 33.5044 1.65494 -4.74996 0
M  V30 397 H 33.2044 0.301067 -5.86828 0
M  V30 398 H 34.7284 1.22659 -5.98153 0
M  V30 399 H 36.1424 -1.01927 -5.64166 0
M  V30 400 H 34.5394 -1.8063 -5.7227 0
M  V30 401 H 35.6094 -2.14288 -4.34981 0
M  V30 402 N 36.9525 1.47285 -0.560781 0
M  V30 403 C 37.8825 2.32857 0.173105 0
M  V30 404 C 38.8635 1.44009 0.905281 0
M  V30 405 O 40.0485 1.7286 0.885046 0
M  V30 406 C 37.1785 3.25861 1.20133 0
M  V30 407 C 36.1325 4.23978 0.585388 0
M  V30 408 C 35.4585 5.06332 1.7185 0
M  V30 409 C 36.7585 5.20242 -0.463178 0
M  V30 410 H 38.4525 2.94466 -0.541307 0
M  V30 411 H 35.9985 1.41601 -0.261764 0
M  V30 412 H 37.9515 3.84569 1.72293 0
M  V30 413 H 36.6755 2.62315 1.94573 0
M  V30 414 H 35.3345 3.66501 0.085054 0
M  V30 415 H 34.9825 4.39186 2.45203 0
M  V30 416 H 34.6825 5.72762 1.31213 0
M  V30 417 H 36.2065 5.67899 2.24329 0
M  V30 418 H 37.6205 5.73293 -0.027502 0
M  V30 419 H 36.0175 5.94896 -0.788627 0
M  V30 420 H 37.0875 4.65504 -1.35773 0
M  V30 421 N 38.4306 0.297415 1.54768 0
M  V30 422 C 39.8416 -0.195947 1.85669 0
M  V30 423 C 40.1926 -1.53707 1.21937 0
M  V30 424 O 39.3176 -2.10164 0.515754 0
M  V30 425 C 39.9126 -0.362318 3.36857 0
M  V30 426 C 38.4716 -0.799901 3.67802 0
M  V30 427 C 37.6186 0.0938578 2.77141 0
M  V30 428 H 40.5696 0.518538 1.4999 0
M  V30 429 H 40.5906 -1.19745 3.61167 0
M  V30 430 H 40.1026 0.613921 3.83214 0
M  V30 431 H 38.2036 -1.78682 3.26961 0
M  V30 432 H 38.3166 -0.621773 4.75048 0
M  V30 433 H 36.6806 -0.426254 2.51108 0
M  V30 434 H 37.4636 1.06639 3.26318 0
M  V30 435 N 39.9087 -1.5758 0.0250728 0
M  V30 436 C 40.8567 -2.11125 -0.97617 0
M  V30 437 C 41.8507 -1.03689 -1.33959 0
M  V30 438 O 43.0567 -1.22128 -1.3223 0
M  V30 439 H 39.4317 -0.674468 -0.332561 0
M  V30 440 H 41.4027 -2.94194 -0.499223 0
M  V30 441 C 40.1517 -2.65017 -2.2508 0
M  V30 442 H 39.4747 -3.47333 -1.9799 0
M  V30 443 H 40.9147 -3.06133 -2.93357 0
M  V30 444 C 39.3737 -1.57574 -2.97779 0
M  V30 445 O 39.9037 -0.973203 -3.89733 0
M  V30 446 N 38.1097 -1.29716 -2.60043 0
M  V30 447 H 37.6567 -1.789 -1.85345 0
M  V30 448 H 37.6147 -0.58051 -3.08994 0
M  V30 449 N 41.3868 0.248026 -1.55636 0
M  V30 450 C 42.6348 0.974295 -1.77065 0
M  V30 451 C 42.9558 1.85897 -0.588849 0
M  V30 452 O 42.2258 1.91868 0.395407 0
M  V30 453 H 40.8058 0.362733 -0.653019 0
M  V30 454 H 43.4678 0.266244 -1.93073 0
M  V30 455 H 42.5638 1.59667 -2.68166 0
M  V30 456 N 42.8649 1.48995 0.513639 0
M  V30 457 C 43.7979 1.59319 1.63379 0
M  V30 458 C 44.7759 0.442816 1.56454 0
M  V30 459 O 45.9599 0.656655 1.76693 0
M  V30 460 C 43.0869 1.5364 3.01848 0
M  V30 461 C 42.1329 2.7372 3.27078 0
M  V30 462 S 42.9659 4.35528 3.1157 0
M  V30 463 C 44.1219 4.32473 4.52458 0
M  V30 464 H 44.3549 2.54079 1.54374 0
M  V30 465 H 41.8879 1.3773 0.697849 0
M  V30 466 H 43.8459 1.51049 3.81699 0
M  V30 467 H 42.5069 0.601898 3.08279 0
M  V30 468 H 41.6999 2.6593 4.28132 0
M  V30 469 H 41.3019 2.73657 2.54927 0
M  V30 470 H 43.5939 4.03414 5.44301 0
M  V30 471 H 44.5369 5.33762 4.65299 0
M  V30 472 H 44.9449 3.62718 4.32546 0
M  V30 473 N 44.343 -0.763751 1.37857 0
M  V30 474 C 45.592 -1.51789 1.32827 0
M  V30 475 C 45.905 -1.95426 -0.0823719 0
M  V30 476 O 47.111 -2.70298 -0.255172 0
M  V30 477 C 45.567 -2.74133 2.33193 0
M  V30 478 C 45.175 -2.37562 3.79827 0
M  V30 479 C 46.919 -3.52054 2.37188 0
M  V30 480 C 44.826 -3.56456 4.71904 0
M  V30 481 H 43.756 -0.569896 0.493695 0
M  V30 482 H 46.407 -0.835822 1.63359 0
M  V30 483 H 44.789 -3.4427 1.9569 0
M  V30 484 H 45.963 -1.75157 4.26212 0
M  V30 485 H 44.278 -1.72798 3.78853 0
M  V30 486 H 46.875 -4.40437 3.03182 0
M  V30 487 H 47.218 -3.92486 1.38782 0
M  V30 488 H 47.751 -2.88921 2.7344 0
M  V30 489 H 44.49 -3.21099 5.71468 0
M  V30 490 H 44.01 -4.17938 4.30218 0
M  V30 491 H 45.689 -4.23168 4.89426 0
M  V30 492 N 45.8211 -1.22559 -0.990812 0
M  V30 493 C 47.0671 -1.05297 -1.73322 0
M  V30 494 C 47.4001 0.410655 -1.89808 0
M  V30 495 O 46.6751 1.30439 -1.44277 0
M  V30 496 C 46.9581 -1.76713 -3.13759 0
M  V30 497 C 46.8111 -3.30684 -3.04907 0
M  V30 498 C 48.1301 -1.52121 -4.12974 0
M  V30 499 H 45.2491 -0.38392 -0.629106 0
M  V30 500 H 47.8911 -1.50926 -1.15418 0
M  V30 501 H 46.0411 -1.37924 -3.63193 0
M  V30 502 H 47.7131 -3.7893 -2.63077 0
M  V30 503 H 45.9561 -3.60253 -2.41661 0
M  V30 504 H 46.6271 -3.75833 -4.04294 0
M  V30 505 H 49.1031 -1.85819 -3.72304 0
M  V30 506 H 47.9791 -2.04582 -5.0935 0
M  V30 507 H 48.2401 -0.454257 -4.3976 0
M  V30 508 N 47.2992 1.18797 -1.03562 0
M  V30 509 C 48.5272 1.92599 -0.755869 0
M  V30 510 C 48.9422 1.75886 0.686271 0
M  V30 511 O 48.2992 1.08517 1.46732 0
M  V30 512 C 48.3502 3.44159 -1.10619 0
M  V30 513 O 48.0712 3.60341 -2.4917 0
M  V30 514 C 49.5722 4.3507 -0.850214 0
M  V30 515 H 46.7922 0.611587 -0.276048 0
M  V30 516 H 49.3362 1.50742 -1.38192 0
M  V30 517 H 47.4912 3.83823 -0.525194 0
M  V30 518 H 47.9052 4.54128 -2.62427 0
M  V30 519 H 49.3792 5.39989 -1.14523 0
M  V30 520 H 49.8562 4.38673 0.215176 0
M  V30 521 H 50.4622 4.01097 -1.41426 0
M  V30 522 N 48.7773 0.814389 1.34928 0
M  V30 523 C 49.7073 0.244827 2.32213 0
M  V30 524 C 50.6883 -0.634024 1.57842 0
M  V30 525 O 51.8733 -0.562676 1.8587 0
M  V30 526 C 49.0033 -0.601106 3.42058 0
M  V30 527 C 47.9573 0.179896 4.27622 0
M  V30 528 C 47.2833 -0.788237 5.28858 0
M  V30 529 C 48.5833 1.38329 5.03649 0
M  V30 530 H 50.2773 1.05763 2.80097 0
M  V30 531 H 47.8233 0.510029 1.34665 0
M  V30 532 H 49.7763 -1.00968 4.09125 0
M  V30 533 H 48.5003 -1.44688 2.92802 0
M  V30 534 H 47.1593 0.569739 3.62146 0
M  V30 535 H 46.8073 -1.62973 4.75866 0
M  V30 536 H 46.5073 -0.269942 5.8698 0
M  V30 537 H 48.0313 -1.19485 5.98795 0
M  V30 538 H 49.4453 1.04918 5.63618 0
M  V30 539 H 47.8423 1.83662 5.71304 0
M  V30 540 H 48.9123 2.16592 4.33839 0
M  V30 541 N 50.2554 -1.46986 0.568584 0
M  V30 542 C 51.1654 -2.33942 -0.17555 0
M  V30 543 C 52.1814 -1.48891 -0.90041 0
M  V30 544 O 53.3574 -1.81794 -0.86676 0
M  V30 545 C 50.4224 -3.25811 -1.18524 0
M  V30 546 C 49.4834 -4.26757 -0.466582 0
M  V30 547 C 48.7164 -5.14236 -1.42817 0
M  V30 548 O 48.9394 -5.04379 -2.66379 0
M  V30 549 O 47.8734 -5.94412 -0.946453 0
M  V30 550 H 51.6994 -2.98896 0.538036 0
M  V30 551 H 49.2844 -1.4573 0.329097 0
M  V30 552 H 51.1664 -3.82527 -1.76779 0
M  V30 553 H 49.8414 -2.63471 -1.88055 0
M  V30 554 H 48.7484 -3.73769 0.157451 0
M  V30 555 H 50.0814 -4.91843 0.187485 0
M  V30 556 N 51.7335 -0.305618 -1.54608 0
M  V30 557 C 52.9735 0.303114 -2.0214 0
M  V30 558 C 53.3375 1.50737 -1.18921 0
M  V30 559 O 54.5385 2.18778 -1.56172 0
M  V30 560 C 52.8095 0.646332 -3.51507 0
M  V30 561 S 54.3685 1.23727 -4.20995 0
M  V30 562 H 51.1865 0.0927643 -0.704923 0
M  V30 563 H 53.7885 -0.434566 -1.90609 0
M  V30 564 H 52.4925 -0.238541 -4.09706 0
M  V30 565 H 52.0235 1.41468 -3.67084 0
M  V30 566 H 54.0385 2.52489 -4.27158 0
M  V30 567 N 53.2116 1.57565 -0.0334293 0
M  V30 568 C 54.1416 2.13511 0.945265 0
M  V30 569 C 55.1226 1.05231 1.33643 0
M  V30 570 O 56.3076 1.33084 1.41429 0
M  V30 571 C 53.4376 2.6657 2.22616 0
M  V30 572 C 52.3916 3.79676 1.97561 0
M  V30 573 C 51.7176 4.1918 3.31952 0
M  V30 574 C 53.0176 5.0557 1.31135 0
M  V30 575 H 54.7116 2.95538 0.479325 0
M  V30 576 H 52.2576 1.42166 0.229115 0
M  V30 577 H 54.2106 3.04344 2.91466 0
M  V30 578 H 52.9346 1.8171 2.71384 0
M  V30 579 H 51.5936 3.42347 1.31127 0
M  V30 580 H 51.2416 3.31296 3.78487 0
M  V30 581 H 50.9416 4.95402 3.15992 0
M  V30 582 H 52.4656 4.59541 4.02063 0
M  V30 583 H 53.8796 5.40903 1.89992 0
M  V30 584 H 52.2766 5.86818 1.25559 0
M  V30 585 H 53.3466 4.84062 0.284894 0
M  V30 586 N 54.6897 -0.239769 1.55765 0
M  V30 587 C 56.1057 -0.588624 1.48349 0
M  V30 588 C 56.3057 -1.88005 0.72502 0
M  V30 589 O 55.3617 -2.51186 0.257269 0
M  V30 590 C 56.6747 -0.68474 2.928 0
M  V30 591 C 58.2227 -0.77659 3.03213 0
M  V30 592 C 58.6977 -0.904207 4.48986 0
M  V30 593 N 60.1887 -0.968896 4.52953 0
M  V30 594 C 60.9237 -1.08703 5.63002 0
M  V30 595 N 60.4197 -1.17026 6.82845 0
M  V30 596 N 62.2127 -1.12074 5.50814 0
M  V30 597 H 54.3637 0.607911 2.03515 0
M  V30 598 H 56.6267 0.21083 0.924259 0
M  V30 599 H 56.3327 0.194284 3.51163 0
M  V30 600 H 56.2067 -1.55435 3.43686 0
M  V30 601 H 58.5937 -1.64606 2.44926 0
M  V30 602 H 58.6747 0.118315 2.55526 0
M  V30 603 H 58.3187 -0.0392633 5.07885 0
M  V30 604 H 58.2487 -1.81426 4.9436 0
M  V30 605 H 60.7397 -0.915633 3.6664 0
M  V30 606 H 61.0527 -1.25966 7.62465 0
M  V30 607 H 59.3977 -1.13971 6.85591 0
M  V30 608 H 62.5887 -1.05226 4.5612 0
M  V30 609 H 62.7617 -1.20936 6.36615 0
M  V30 610 N 56.1678 -1.49265 -0.50573 0
M  V30 611 C 57.0778 -1.68312 -1.63427 0
M  V30 612 C 58.0938 -0.565682 -1.64548 0
M  V30 613 O 59.2698 -0.839801 -1.83055 0
M  V30 614 C 56.3348 -1.74107 -2.99813 0
M  V30 615 C 55.3958 -2.97653 -3.09356 0
M  V30 616 C 54.6288 -3.03163 -4.39236 0
M  V30 617 O 54.8518 -2.16396 -5.27758 0
M  V30 618 O 53.7858 -3.9558 -4.53652 0
M  V30 619 H 57.6118 -2.63907 -1.50289 0
M  V30 620 H 55.1968 -1.32951 -0.681502 0
M  V30 621 H 57.0788 -1.803 -3.80881 0
M  V30 622 H 55.7538 -0.816901 -3.13223 0
M  V30 623 H 54.6608 -2.96981 -2.27493 0
M  V30 624 H 55.9938 -3.89535 -3.00871 0
M  V30 625 N 57.6459 0.756429 -1.3826 0
M  V30 626 C 58.6089 1.85176 -1.35065 0
M  V30 627 C 59.6089 1.58818 -0.251703 0
M  V30 628 O 60.7989 1.66615 -0.508433 0
M  V30 629 C 57.9309 3.22596 -1.10201 0
M  V30 630 H 59.1239 1.89417 -2.3251 0
M  V30 631 H 56.6769 0.95783 -1.23512 0
M  V30 632 H 57.4119 3.24025 -0.133504 0
M  V30 633 H 57.1969 3.43122 -1.89762 0
M  V30 634 H 58.6869 4.02673 -1.10654 0
M  V30 635 N 59.124 1.23083 0.984299 0
M  V30 636 C 60.352 1.08714 1.76037 0
M  V30 637 C 60.767 -0.361691 1.85303 0
M  V30 638 O 60.124 -1.25034 1.32939 0
M  V30 639 C 60.175 1.70206 3.18923 0
M  V30 640 O 59.896 3.09423 3.10144 0
M  V30 641 C 61.397 1.61227 4.12941 0
M  V30 642 H 58.617 0.380664 0.552572 0
M  V30 643 H 61.161 1.62853 1.23689 0
M  V30 644 H 59.316 1.20109 3.6831 0
M  V30 645 H 59.73 3.39188 4.00065 0
M  V30 646 H 61.204 2.08962 5.10919 0
M  V30 647 H 61.681 0.570375 4.35481 0
M  V30 648 H 62.287 2.10671 3.69456 0
M  V30 649 N 60.6021 -1.18246 1.0419 0
M  V30 650 C 61.5321 -2.24127 0.654914 0
M  V30 651 C 62.5131 -1.66617 -0.342451 0
M  V30 652 O 63.6981 -1.92924 -0.222277 0
M  V30 653 C 60.8281 -3.47295 0.0183757 0
M  V30 654 C 59.7821 -4.17563 0.939414 0
M  V30 655 C 59.1081 -5.34438 0.167286 0
M  V30 656 C 60.4081 -4.70917 2.25908 0
M  V30 657 H 62.1021 -2.56753 1.54007 0
M  V30 658 H 59.6481 -1.23414 0.74195 0
M  V30 659 H 61.6011 -4.20572 -0.264082 0
M  V30 660 H 60.3251 -3.13907 -0.901664 0
M  V30 661 H 58.9841 -3.46186 1.20628 0
M  V30 662 H 58.6321 -4.97298 -0.7552 0
M  V30 663 H 58.3321 -5.82388 0.780901 0
M  V30 664 H 59.8561 -6.10504 -0.108125 0
M  V30 665 H 61.2701 -5.35882 2.03724 0
M  V30 666 H 59.6671 -5.29406 2.82577 0
M  V30 667 H 60.7371 -3.88272 2.9047 0
M  V30 668 N 62.0802 -0.821533 -1.34494 0
M  V30 669 C 63.3292 -0.405355 -1.97585 0
M  V30 670 C 63.6422 1.03677 -1.65863 0
M  V30 671 O 64.8482 1.55679 -2.22433 0
M  V30 672 C 63.3042 -0.673861 -3.53535 0
M  V30 673 C 62.9122 -2.12951 -3.94152 0
M  V30 674 C 64.6562 -0.32378 -4.23263 0
M  V30 675 C 62.5632 -2.34298 -5.43009 0
M  V30 676 H 61.4932 -0.147836 -0.739365 0
M  V30 677 H 64.1442 -1.00769 -1.53355 0
M  V30 678 H 62.5262 -0.00137554 -3.96 0
M  V30 679 H 63.7002 -2.84104 -3.62797 0
M  V30 680 H 62.0152 -2.44089 -3.37356 0
M  V30 681 H 64.6122 -0.461126 -5.32708 0
M  V30 682 H 64.9552 0.731586 -4.09821 0
M  V30 683 H 65.4882 -0.950786 -3.8627 0
M  V30 684 H 62.2272 -3.38335 -5.61435 0
M  V30 685 H 61.7472 -1.67687 -5.75883 0
M  V30 686 H 63.4262 -2.16588 -6.09671 0
M  V30 687 N 63.5583 1.46682 -0.576371 0
M  V30 688 C 64.7863 2.06798 -0.0649635 0
M  V30 689 C 65.2013 1.42612 1.23723 0
M  V30 690 O 64.5583 0.529203 1.74659 0
M  V30 691 C 64.6093 3.6132 0.114202 0
M  V30 692 O 64.3303 4.23104 -1.13644 0
M  V30 693 C 65.8313 4.38349 0.66069 0
M  V30 694 H 63.0513 0.668778 -0.0545616 0
M  V30 695 H 65.5953 1.88404 -0.795237 0
M  V30 696 H 63.7503 3.79162 0.794673 0
M  V30 697 H 64.1643 5.15894 -0.946253 0
M  V30 698 H 65.6383 5.47081 0.73526 0
M  V30 699 H 66.1153 4.05953 1.67627 0
M  V30 700 H 66.7213 4.25297 0.0152951 0
M  V30 701 N 65.0364 0.313813 1.54444 0
M  V30 702 C 66.2854 -0.292519 1.99568 0
M  V30 703 C 66.5984 -1.54011 1.20582 0
M  V30 704 O 67.8044 -2.22183 1.56035 0
M  V30 705 C 66.2604 -0.571752 3.55329 0
M  V30 706 C 65.8684 0.658229 4.43138 0
M  V30 707 C 67.6124 -1.13857 4.08946 0
M  V30 708 C 65.5194 0.351439 5.90355 0
M  V30 709 H 64.4494 -0.113079 0.745472 0
M  V30 710 H 67.1004 0.424518 1.78522 0
M  V30 711 H 65.4824 -1.34872 3.72325 0
M  V30 712 H 66.6564 1.43403 4.37918 0
M  V30 713 H 64.9714 1.14458 4.0036 0
M  V30 714 H 67.5684 -1.38257 5.16516 0
M  V30 715 H 67.9114 -2.08489 3.6033 0
M  V30 716 H 68.4444 -0.423015 3.95544 0
M  V30 717 H 65.1834 1.26667 6.43145 0
M  V30 718 H 64.7034 -0.386842 5.98551 0
M  V30 719 H 66.3824 -0.0423134 6.46986 0
M  V30 720 N 66.5145 -1.57545 0.0417849 0
M  V30 721 C 67.4615 -2.10977 -0.935805 0
M  V30 722 C 68.4315 -1.01486 -1.31491 0
M  V30 723 O 69.6165 -1.2898 -1.40602 0
M  V30 724 C 66.7565 -2.65169 -2.2086 0
M  V30 725 C 65.8695 -3.88714 -1.88482 0
M  V30 726 C 65.0045 -4.31254 -3.1015 0
M  V30 727 C 64.0435 -5.47524 -2.7365 0
M  V30 728 N 63.1805 -5.85162 -3.87982 0
M  V30 729 H 68.0205 -2.94218 -0.473249 0
M  V30 730 H 65.5575 -1.45415 -0.221981 0
M  V30 731 H 67.5155 -2.94685 -2.95325 0
M  V30 732 H 66.1455 -1.8474 -2.64709 0
M  V30 733 H 65.1975 -3.65849 -1.04205 0
M  V30 734 H 66.5095 -4.73245 -1.57608 0
M  V30 735 H 65.6635 -4.62273 -3.92923 0
M  V30 736 H 64.4025 -3.45516 -3.44195 0
M  V30 737 H 63.4075 -5.16187 -1.89291 0
M  V30 738 H 64.6325 -6.34971 -2.40807 0
M  V30 739 H 62.5785 -5.02377 -4.21846 0
M  V30 740 H 62.4955 -6.64362 -3.60775 0
M  V30 741 H 63.7635 -6.20791 -4.71422 0
M  V30 742 N 67.9926 0.231505 -1.5589 0
M  V30 743 C 68.9426 1.29007 -1.87993 0
M  V30 744 C 69.9266 1.42764 -0.742102 0
M  V30 745 O 71.1186 1.45747 -1.00433 0
M  V30 746 C 68.2476 2.6425 -2.1915 0
M  V30 747 C 67.3336 2.54435 -3.39299 0
M  V30 748 N 67.7246 2.14262 -4.58176 0
M  V30 749 C 66.0226 2.85416 -3.42715 0
M  V30 750 C 66.7236 2.15455 -5.40328 0
M  V30 751 N 65.6996 2.55558 -4.79783 0
M  V30 752 H 69.5016 0.970213 -2.77424 0
M  V30 753 H 67.0156 0.440097 -1.56323 0
M  V30 754 H 69.0126 3.40665 -2.40319 0
M  V30 755 H 67.6726 2.9709 -1.31025 0
M  V30 756 H 68.6836 1.85554 -4.83518 0
M  V30 757 H 65.3606 3.22693 -2.64906 0
M  V30 758 H 66.7506 1.86605 -6.45467 0
M  V30 759 N 69.4707 1.49531 0.497807 0
M  V30 760 C 70.3807 1.69176 1.62532 0
M  V30 761 C 71.3967 0.5744 1.64246 0
M  V30 762 O 72.5727 0.849497 1.82608 0
M  V30 763 C 69.6377 1.75695 2.98885 0
M  V30 764 C 68.6987 2.9929 3.07773 0
M  V30 765 C 67.9317 3.05488 4.37622 0
M  V30 766 O 68.1547 2.19192 5.26603 0
M  V30 767 O 67.0887 3.9798 4.51548 0
M  V30 768 H 70.9147 2.647 1.48887 0
M  V30 769 H 68.4997 1.3331 0.674441 0
M  V30 770 H 70.3817 1.82317 3.79919 0
M  V30 771 H 69.0567 0.8335 3.12785 0
M  V30 772 H 67.9637 2.98183 2.25915 0
M  V30 773 H 69.2967 3.91125 2.98801 0
M  V30 774 N 70.9488 -0.749086 1.3866 0
M  V30 775 C 71.8788 -1.8764 1.38973 0
M  V30 776 C 72.8598 -1.68178 0.255004 0
M  V30 777 O 74.0448 -1.88704 0.458754 0
M  V30 778 C 71.1748 -3.25222 1.21851 0
M  V30 779 C 70.1288 -3.59295 2.32575 0
M  V30 780 C 69.4548 -4.95663 2.00555 0
M  V30 781 C 70.7548 -3.63709 3.7485 0
M  V30 782 H 72.4488 -1.87635 2.3331 0
M  V30 783 H 69.9948 -0.901329 1.12303 0
M  V30 784 H 71.9478 -4.03746 1.20695 0
M  V30 785 H 70.6718 -3.25719 0.239775 0
M  V30 786 H 69.3308 -2.83093 2.32925 0
M  V30 787 H 68.9788 -4.92724 1.01154 0
M  V30 788 H 68.6788 -5.19429 2.74714 0
M  V30 789 H 70.2028 -5.7656 2.01024 0
M  V30 790 H 71.6168 -4.32338 3.76506 0
M  V30 791 H 70.0138 -3.98986 4.48252 0
M  V30 792 H 71.0838 -2.63834 4.06841 0
M  V30 793 N 72.4269 -1.23603 -0.977757 0
M  V30 794 C 73.6739 -1.06971 -1.71941 0
M  V30 795 C 74.0019 0.393009 -1.90488 0
M  V30 796 O 73.2569 1.30719 -1.4564 0
M  V30 797 C 73.5559 -1.7433 -3.11999 0
M  V30 798 C 73.2219 -3.24252 -3.13323 0
M  V30 799 C 71.8839 -3.65156 -3.13392 0
M  V30 800 C 74.2359 -4.20141 -3.08433 0
M  V30 801 C 71.5639 -5.00403 -3.0629 0
M  V30 802 C 73.9159 -5.55384 -3.02873 0
M  V30 803 C 72.5799 -5.95647 -3.01265 0
M  V30 804 H 71.8499 -0.391433 -0.629175 0
M  V30 805 H 74.4969 -1.53572 -1.14403 0
M  V30 806 H 72.8019 -1.20096 -3.7294 0
M  V30 807 H 74.4989 -1.58936 -3.68158 0
M  V30 808 H 71.0889 -2.91692 -3.14029 0
M  V30 809 H 75.2729 -3.89547 -3.07517 0
M  V30 810 H 70.5289 -5.3081 -3.03399 0
M  V30 811 H 74.7029 -6.29398 -2.98046 0
M  V30 812 H 72.3299 -7.0041 -2.95516 0
M  V30 813 N 73.905 1.17692 -1.04816 0
M  V30 814 C 74.852 2.21581 -0.645797 0
M  V30 815 C 75.822 1.62367 0.350159 0
M  V30 816 O 77.007 1.89254 0.242433 0
M  V30 817 C 74.147 3.45092 -0.0227568 0
M  V30 818 C 73.26 4.18613 -1.06709 0
M  V30 819 C 72.395 5.29602 -0.411767 0
M  V30 820 C 71.434 5.94904 -1.44067 0
M  V30 821 N 70.571 6.97414 -0.809781 0
M  V30 822 H 75.411 2.55353 -1.5362 0
M  V30 823 H 72.948 1.25438 -0.768364 0
M  V30 824 H 74.906 4.15679 0.35588 0
M  V30 825 H 73.536 3.11917 0.831122 0
M  V30 826 H 72.588 3.46779 -1.5636 0
M  V30 827 H 73.9 4.63293 -1.84827 0
M  V30 828 H 73.054 6.06696 0.0206623 0
M  V30 829 H 71.793 4.86045 0.401438 0
M  V30 830 H 70.798 5.16544 -1.88316 0
M  V30 831 H 72.023 6.40542 -2.25571 0
M  V30 832 H 69.969 6.55998 -0.0170186 0
M  V30 833 H 69.886 7.40386 -1.52856 0
M  V30 834 H 71.154 7.78463 -0.401999 0
M  V30 835 N 75.3831 0.828654 1.34056 0
M  V30 836 C 76.2931 0.256725 2.33191 0
M  V30 837 C 77.3091 -0.611898 1.62886 0
M  V30 838 O 78.4851 -0.51844 1.94613 0
M  V30 839 C 75.5501 -0.567238 3.42028 0
M  V30 840 C 74.6111 0.324458 4.28072 0
M  V30 841 C 73.8441 -0.460274 5.31712 0
M  V30 842 O 74.0671 -1.693 5.44696 0
M  V30 843 O 73.0011 0.160391 6.01686 0
M  V30 844 H 76.8271 1.07739 2.83947 0
M  V30 845 H 74.4121 0.59093 1.37217 0
M  V30 846 H 76.2941 -1.03582 4.08471 0
M  V30 847 H 74.9691 -1.36513 2.93506 0
M  V30 848 H 73.8761 0.840659 3.64532 0
M  V30 849 H 75.2091 1.08685 4.8005 0
M  V30 850 N 76.8612 -1.46375 0.584142 0
M  V30 851 C 77.8242 -2.28784 -0.138108 0
M  V30 852 C 78.8242 -1.38471 -0.817462 0
M  V30 853 O 80.0142 -1.60833 -0.669199 0
M  V30 854 C 77.1462 -3.18892 -1.20503 0
M  V30 855 H 78.3392 -2.94117 0.586127 0
M  V30 856 H 75.8922 -1.52509 0.342171 0
M  V30 857 H 76.6272 -2.58309 -1.96079 0
M  V30 858 H 76.4122 -3.85388 -0.722384 0
M  V30 859 H 77.9022 -3.80914 -1.71155 0
M  V30 860 N 78.3393 -0.321999 -1.54275 0
M  V30 861 C 79.7553 0.0306999 -1.5957 0
M  V30 862 C 79.9553 1.50614 -1.33857 0
M  V30 863 O 79.0113 2.2619 -1.12223 0
M  V30 864 C 80.3243 -0.386122 -2.98211 0
M  V30 865 C 81.8723 -0.336647 -3.11184 0
M  V30 866 C 82.3473 -0.728607 -4.52167 0
M  V30 867 N 83.8383 -0.681952 -4.58152 0
M  V30 868 C 84.5733 -0.957449 -5.6535 0
M  V30 869 N 84.0693 -1.3 -6.80494 0
M  V30 870 N 85.8623 -0.883113 -5.55119 0
M  V30 871 H 78.0133 -1.28332 -1.69247 0
M  V30 872 H 80.2763 -0.521716 -0.791528 0
M  V30 873 H 79.9823 -1.41404 -3.22022 0
M  V30 874 H 79.8563 0.249662 -3.76373 0
M  V30 875 H 82.2433 0.682058 -2.8711 0
M  V30 876 H 82.3243 -1.00734 -2.3513 0
M  V30 877 H 81.9683 -1.74522 -4.76974 0
M  V30 878 H 81.8983 -0.0356152 -5.26588 0
M  V30 879 H 84.3893 -0.428985 -3.75457 0
M  V30 880 H 84.7023 -1.49563 -7.58189 0
M  V30 881 H 83.0473 -1.33824 -6.81994 0
M  V30 882 H 86.2383 -0.615001 -4.64042 0
M  V30 883 H 86.4113 -1.10118 -6.38575 0
M  V30 884 N 79.8174 1.5752 -0.0501392 0
M  V30 885 C 80.7644 2.1147 0.924603 0
M  V30 886 C 81.7344 1.02182 1.30951 0
M  V30 887 O 82.9194 1.29723 1.39916 0
M  V30 888 C 80.0594 2.66337 2.19451 0
M  V30 889 C 79.1724 3.89708 1.86418 0
M  V30 890 C 78.3074 4.32893 3.07859 0
M  V30 891 C 77.3464 5.48967 2.70742 0
M  V30 892 N 76.4834 5.87211 3.84874 0
M  V30 893 H 81.3234 2.94465 0.457639 0
M  V30 894 H 78.8604 1.45531 0.214266 0
M  V30 895 H 80.8184 2.96247 2.93758 0
M  V30 896 H 79.4484 1.86141 2.63726 0
M  V30 897 H 78.5004 3.66396 1.02264 0
M  V30 898 H 79.8124 4.74074 1.55096 0
M  V30 899 H 78.9664 4.6435 3.90466 0
M  V30 900 H 77.7054 3.47336 3.42358 0
M  V30 901 H 76.7104 5.17183 1.86551 0
M  V30 902 H 77.9354 6.3624 2.37436 0
M  V30 903 H 75.8814 5.04607 4.19175 0
M  V30 904 H 75.7984 6.66266 3.57247 0
M  V30 905 H 77.0664 6.23282 4.68123 0
M  V30 906 N 81.2955 -0.223234 1.56011 0
M  V30 907 C 82.5255 -0.963413 1.82762 0
M  V30 908 C 82.9335 -1.78516 0.626804 0
M  V30 909 O 82.2765 -1.78974 -0.414014 0
M  V30 910 C 82.3385 -1.93126 3.0322 0
M  V30 911 C 82.0025 -1.2942 4.38291 0
M  V30 912 C 82.9995 -0.684916 5.15369 0
M  V30 913 C 80.6845 -1.30647 4.85012 0
M  V30 914 C 82.6785 -0.0963971 6.37327 0
M  V30 915 C 80.3655 -0.71411 6.06913 0
M  V30 916 C 81.3635 -0.110123 6.82911 0
M  V30 917 O 81.0515 0.47303 8.02507 0
M  V30 918 H 80.7835 -0.288011 0.611576 0
M  V30 919 H 83.3375 -0.244103 2.03944 0
M  V30 920 H 81.5675 -2.68952 2.77852 0
M  V30 921 H 83.2565 -2.53685 3.16857 0
M  V30 922 H 84.0225 -0.667774 4.80381 0
M  V30 923 H 79.9015 -1.76598 4.25833 0
M  V30 924 H 83.4455 0.375657 6.96588 0
M  V30 925 H 79.3425 -0.728659 6.41374 0
M  V30 926 H 80.1105 0.367186 8.17676 0
M  V30 927 N 82.7736 -1.49793 -0.48987 0
M  V30 928 C 84.1846 -1.52914 -1.07118 0
M  V30 929 C 84.5356 -0.321738 -1.93544 0
M  V30 930 O 83.6606 0.567338 -2.08831 0
M  V30 931 C 84.2556 -2.771 -1.94938 0
M  V30 932 C 82.8146 -2.82963 -2.48212 0
M  V30 933 C 81.9616 -2.46972 -1.26096 0
M  V30 934 H 84.9126 -1.56329 -0.273289 0
M  V30 935 H 84.9336 -2.57892 -2.79771 0
M  V30 936 H 84.4456 -3.64959 -1.32009 0
M  V30 937 H 82.5466 -1.99411 -3.14748 0
M  V30 938 H 82.6596 -3.85406 -2.84603 0
M  V30 939 H 81.0236 -1.98994 -1.58976 0
M  V30 940 H 81.8066 -3.37118 -0.648581 0
M  V30 941 N 84.2517 0.741722 -1.39055 0
M  V30 942 C 85.1817 1.869 -1.39966 0
M  V30 943 C 86.1627 1.6804 -0.26392 0
M  V30 944 O 87.3477 1.88458 -0.468755 0
M  V30 945 C 84.4777 3.24572 -1.23574 0
M  V30 946 C 83.4317 3.58056 -2.34477 0
M  V30 947 C 82.7577 4.94593 -2.0318 0
M  V30 948 C 84.0577 3.61716 -3.76774 0
M  V30 949 H 85.7517 1.86395 -2.34302 0
M  V30 950 H 83.2977 0.895361 -1.1278 0
M  V30 951 H 85.2507 4.031 -1.22834 0
M  V30 952 H 83.9747 3.25587 -0.257045 0
M  V30 953 H 82.6337 2.81854 -2.34423 0
M  V30 954 H 82.2817 4.92181 -1.03765 0
M  V30 955 H 81.9817 5.17964 -2.77465 0
M  V30 956 H 83.5057 5.75486 -2.04079 0
M  V30 957 H 84.9197 4.30335 -3.78794 0
M  V30 958 H 83.3167 3.96603 -4.50362 0
M  V30 959 H 84.3867 2.61672 -4.08235 0
M  V30 960 N 85.7298 1.2412 0.971189 0
M  V30 961 C 86.6798 0.997551 2.05019 0
M  V30 962 C 87.6638 -0.0597747 1.60789 0
M  V30 963 O 88.8558 0.153516 1.76333 0
M  V30 964 C 85.9848 0.600557 3.38006 0
M  V30 965 C 85.0708 1.69377 3.88809 0
M  V30 966 N 85.4618 2.92586 4.12586 0
M  V30 967 C 83.7598 1.57048 4.17435 0
M  V30 968 C 84.4608 3.63431 4.54195 0
M  V30 969 N 83.4368 2.90979 4.59165 0
M  V30 970 H 87.2388 1.93316 2.21374 0
M  V30 971 H 84.7528 1.14194 1.1547 0
M  V30 972 H 86.7498 0.40725 4.14906 0
M  V30 973 H 85.4098 -0.327903 3.2304 0
M  V30 974 H 86.4208 3.288 4.00139 0
M  V30 975 H 83.0978 0.709798 4.11422 0
M  V30 976 H 84.4878 4.69102 4.81033 0
M  V30 977 N 87.2079 -1.17134 1.05439 0
M  V30 978 C 88.1399 -2.2078 0.615539 0
M  V30 979 C 89.1529 -1.59584 -0.322001 0
M  V30 980 O 90.3419 -1.78133 -0.114344 0
M  V30 981 C 87.4419 -3.38691 -0.118938 0
M  V30 982 C 86.6149 -4.29454 0.829924 0
M  V30 983 C 85.6739 -5.26024 0.136258 0
M  V30 984 O 84.6999 -5.63952 0.77115 0
M  V30 985 N 85.9019 -5.69487 -1.1254 0
M  V30 986 H 88.6669 -2.59052 1.50705 0
M  V30 987 H 86.2279 -1.32058 0.936603 0
M  V30 988 H 88.2199 -4.00329 -0.593179 0
M  V30 989 H 86.7899 -2.98996 -0.91215 0
M  V30 990 H 86.0099 -3.65211 1.48373 0
M  V30 991 H 87.2979 -4.86984 1.47392 0
M  V30 992 H 86.6959 -5.4075 -1.6615 0
M  V30 993 H 85.2529 -6.33257 -1.54366 0
M  V30 994 N 88.686 -0.835752 -1.33615 0
M  V30 995 C 89.616 -0.281739 -2.31794 0
M  V30 996 C 90.597 0.608833 -1.58831 0
M  V30 997 O 91.782 0.533035 -1.86741 0
M  V30 998 C 88.912 0.546612 -3.42971 0
M  V30 999 C 87.866 -0.247904 -4.27281 0
M  V30 1000 C 87.192 0.704001 -5.30045 0
M  V30 1001 C 88.492 -1.46324 -5.01385 0
M  V30 1002 H 90.186 -1.10206 -2.78379 0
M  V30 1003 H 87.732 -0.531388 -1.33837 0
M  V30 1004 H 89.685 0.944467 -4.1068 0
M  V30 1005 H 88.409 1.40011 -2.95067 0
M  V30 1006 H 87.068 -0.627281 -3.61194 0
M  V30 1007 H 86.716 1.55381 -4.78399 0
M  V30 1008 H 86.416 0.176524 -5.87335 0
M  V30 1009 H 87.94 1.09944 -6.0062 0
M  V30 1010 H 89.354 -1.13871 -5.61877 0
M  V30 1011 H 87.751 -1.92728 -5.6831 0
M  V30 1012 H 88.821 -2.23467 -4.30338 0
M  V30 1013 N 90.1641 1.46063 -0.591896 0
M  V30 1014 C 91.0941 2.33172 0.123673 0
M  V30 1015 C 92.0751 1.45897 0.87453 0
M  V30 1016 O 93.2601 1.74698 0.848181 0
M  V30 1017 C 90.3901 3.28336 1.13194 0
M  V30 1018 C 89.3441 4.25124 0.495324 0
M  V30 1019 C 88.6701 5.09863 1.61071 0
M  V30 1020 C 89.9701 5.19143 -0.573425 0
M  V30 1021 H 91.6641 2.93252 -0.603646 0
M  V30 1022 H 89.2101 1.41014 -0.291741 0
M  V30 1023 H 91.1631 3.88137 1.64097 0
M  V30 1024 H 89.8871 2.66383 1.88965 0
M  V30 1025 H 88.5461 3.66599 0.00729452 0
M  V30 1026 H 88.1941 4.44288 2.35832 0
M  V30 1027 H 87.8941 5.75417 1.19035 0
M  V30 1028 H 89.4181 5.72529 2.12233 0
M  V30 1029 H 90.8321 5.73106 -0.1491 0
M  V30 1030 H 89.2291 5.93089 -0.914636 0
M  V30 1031 H 90.2991 4.62519 -1.45617 0
M  V30 1032 N 91.6422 0.330177 1.54103 0
M  V30 1033 C 92.5742 -0.566902 2.22079 0
M  V30 1034 C 93.5872 -1.07462 1.22294 0
M  V30 1035 O 94.7762 -0.987065 1.48726 0
M  V30 1036 C 91.8762 -1.79138 2.87685 0
M  V30 1037 C 91.0492 -1.42123 4.13666 0
M  V30 1038 C 90.1082 -2.50394 4.62806 0
M  V30 1039 O 89.1342 -2.14261 5.27334 0
M  V30 1040 N 90.3362 -3.81433 4.37595 0
M  V30 1041 H 93.1012 0.0151844 2.99696 0
M  V30 1042 H 90.6622 0.153681 1.61169 0
M  V30 1043 H 92.6542 -2.50975 3.1748 0
M  V30 1044 H 91.2242 -2.28115 2.13734 0
M  V30 1045 H 90.4442 -0.534201 3.90564 0
M  V30 1046 H 91.7322 -1.14971 4.9564 0
M  V30 1047 H 91.1302 -4.13584 3.8596 0
M  V30 1048 H 89.6872 -4.4948 4.72029 0
M  V30 1049 N 93.1203 -1.57491 0.0584922 0
M  V30 1050 C 94.3973 -1.84346 -0.653918 0
M  V30 1051 C 94.7773 -0.948355 -1.88599 0
M  V30 1052 O 94.1253 -0.0112403 -2.28497 0
M  V30 1053 C 94.3353 -3.34239 -1.00425 0
M  V30 1054 C 95.6833 -4.01431 -1.38342 0
M  V30 1055 O 96.7073 -3.38907 -1.09637 0
M  V30 1056 O 95.5663 -5.11683 -1.91943 0
M  V30 1057 H 92.6603 -0.761112 -0.323478 0
M  V30 1058 H 95.2063 -1.6947 0.0884125 0
M  V30 1059 H 93.9783 -3.91089 -0.128625 0
M  V30 1060 H 93.6013 -3.54329 -1.80378 0
M  V30 1061 N 94.5984 0.214957 -1.56127 0
M  V30 1062 C 95.5084 1.28727 -1.96129 0
M  V30 1063 C 96.5244 1.50916 -0.866044 0
M  V30 1064 O 97.7004 1.63918 -1.17016 0
M  V30 1065 C 94.7654 2.61569 -2.27558 0
M  V30 1066 C 93.8264 2.47625 -3.50685 0
M  V30 1067 C 93.0594 3.74132 -3.80606 0
M  V30 1068 O 93.2824 4.77438 -3.12104 0
M  V30 1069 O 92.2164 3.70849 -4.74083 0
M  V30 1070 H 96.0424 0.977855 -2.87527 0
M  V30 1071 H 93.6274 0.418358 -1.43423 0
M  V30 1072 H 95.5094 3.40012 -2.48938 0
M  V30 1073 H 94.1844 2.92178 -1.39332 0
M  V30 1074 H 93.0914 1.67361 -3.34576 0
M  V30 1075 H 94.4244 2.21954 -4.39315 0
M  V30 1076 N 96.0765 1.50051 0.48192 0
M  V30 1077 C 97.3015 1.64508 1.26301 0
M  V30 1078 C 97.7265 0.323851 1.85291 0
M  V30 1079 O 97.0845 -0.710969 1.66778 0
M  V30 1080 C 97.1325 2.7305 2.35533 0
M  V30 1081 O 96.2365 2.3355 3.39895 0
M  V30 1082 H 95.5775 0.549978 0.372048 0
M  V30 1083 H 98.1075 1.9636 0.574786 0
M  V30 1084 H 98.1175 2.95799 2.8101 0
M  V30 1085 H 96.7925 3.68946 1.91967 0
M  V30 1086 H 95.3695 2.21205 3.00204 0
M  V30 1087 N 97.5546 -0.734337 1.39446 0
M  V30 1088 C 98.7796 -1.52866 1.40167 0
M  V30 1089 C 99.2046 -1.881 -0.00171513 0
M  V30 1090 O 98.5626 -1.51957 -0.988879 0
M  V30 1091 C 98.6106 -2.79235 2.28167 0
M  V30 1092 O 97.7146 -3.75185 1.71201 0
M  V30 1093 H 97.0556 -0.461618 0.477289 0
M  V30 1094 H 99.5856 -0.905949 1.8345 0
M  V30 1095 H 99.5956 -3.27963 2.42702 0
M  V30 1096 H 98.2706 -2.52923 3.30156 0
M  V30 1097 H 96.8476 -3.33958 1.65912 0
M  V30 1098 N 99.0327 -1.24633 -0.964593 0
M  V30 1099 C 100.263 -1.11339 -1.74032 0
M  V30 1100 C 100.671 0.336593 -1.86182 0
M  V30 1101 O 100.014 1.24389 -1.35178 0
M  V30 1102 C 100.076 -1.68284 -3.1768 0
M  V30 1103 C 99.7397 -3.17196 -3.28992 0
M  V30 1104 C 100.737 -4.14308 -3.14078 0
M  V30 1105 C 98.4217 -3.57215 -3.53133 0
M  V30 1106 C 100.416 -5.4942 -3.23135 0
M  V30 1107 C 98.1027 -4.92468 -3.61827 0
M  V30 1108 C 99.1007 -5.8838 -3.46841 0
M  V30 1109 O 98.7887 -7.21173 -3.55197 0
M  V30 1110 H 98.5207 -0.389551 -0.552472 0
M  V30 1111 H 101.075 -1.65282 -1.21946 0
M  V30 1112 H 99.3047 -1.08777 -3.71085 0
M  V30 1113 H 100.994 -1.50234 -3.77074 0
M  V30 1114 H 101.76 -3.84731 -2.95308 0
M  V30 1115 H 97.6387 -2.83063 -3.63863 0
M  V30 1116 H 101.183 -6.24263 -3.11355 0
M  V30 1117 H 97.0797 -5.21714 -3.80111 0
M  V30 1118 H 97.8477 -7.29135 -3.71892 0
M  V30 1119 N 100.511 1.16574 -1.06058 0
M  V30 1120 C 101.76 1.86385 -0.770944 0
M  V30 1121 C 102.073 1.82448 0.705129 0
M  V30 1122 O 103.279 2.47815 1.10905 0
M  V30 1123 C 101.735 3.34466 -1.32893 0
M  V30 1124 C 101.343 3.46883 -2.83507 0
M  V30 1125 C 103.087 4.09548 -1.11672 0
M  V30 1126 C 100.994 4.89036 -3.32562 0
M  V30 1127 H 99.9238 0.698181 -0.284709 0
M  V30 1128 H 102.575 1.31583 -1.27899 0
M  V30 1129 H 100.957 3.88859 -0.748662 0
M  V30 1130 H 102.131 3.02663 -3.47465 0
M  V30 1131 H 100.446 2.85232 -3.03368 0
M  V30 1132 H 103.043 5.14434 -1.45814 0
M  V30 1133 H 103.386 4.16264 -0.0549535 0
M  V30 1134 H 103.919 3.61387 -1.66265 0
M  V30 1135 H 100.658 4.87499 -4.38207 0
M  V30 1136 H 100.178 5.3389 -2.73351 0
M  V30 1137 H 101.857 5.57843 -3.2775 0
M  V30 1138 N 101.989 0.842826 1.3317 0
M  V30 1139 C 103.236 0.440447 1.97652 0
M  V30 1140 C 103.564 -1.00123 1.6675 0
M  V30 1141 O 102.819 -1.7155 0.941761 0
M  V30 1142 C 103.118 0.612607 3.52111 0
M  V30 1143 C 102.784 2.02297 4.02972 0
M  V30 1144 C 101.446 2.40874 4.16573 0
M  V30 1145 C 103.798 2.94402 4.30089 0
M  V30 1146 C 101.126 3.70852 4.54627 0
M  V30 1147 C 103.478 4.23865 4.69597 0
M  V30 1148 C 102.142 4.62392 4.81404 0
M  V30 1149 H 101.412 0.161171 0.72326 0
M  V30 1150 H 104.059 1.07061 1.58777 0
M  V30 1151 H 102.364 -0.100849 3.9167 0
M  V30 1152 H 104.061 0.2815 4.00011 0
M  V30 1153 H 100.651 1.71338 3.92863 0
M  V30 1154 H 104.835 2.65835 4.19101 0
M  V30 1155 H 100.091 4.00501 4.61962 0
M  V30 1156 H 104.265 4.95306 4.89536 0
M  V30 1157 H 101.892 5.63154 5.10648 0
M  V30 1158 N 103.467 -1.45747 0.599634 0
M  V30 1159 C 104.713 -2.02592 0.0918643 0
M  V30 1160 C 105.046 -1.46806 -1.27128 0
M  V30 1161 O 104.321 -0.639658 -1.83681 0
M  V30 1162 C 104.604 -3.60073 0.0443398 0
M  V30 1163 C 104.457 -4.26208 1.43759 0
M  V30 1164 C 105.776 -4.35309 -0.647608 0
M  V30 1165 H 102.895 -0.736175 0.034857 0
M  V30 1166 H 105.537 -1.73694 0.770081 0
M  V30 1167 H 103.687 -3.84823 -0.533224 0
M  V30 1168 H 105.359 -4.12668 2.06162 0
M  V30 1169 H 103.602 -3.84916 2.00056 0
M  V30 1170 H 104.273 -5.35069 1.35665 0
M  V30 1171 H 106.749 -4.15805 -0.156776 0
M  V30 1172 H 105.625 -5.45038 -0.649942 0
M  V30 1173 H 105.886 -4.07598 -1.71219 0
M  V30 1174 N 104.945 -0.338344 -1.53925 0
M  V30 1175 C 106.17 0.263987 -2.05713 0
M  V30 1176 C 106.595 1.43847 -1.21201 0
M  V30 1177 O 105.953 1.79904 -0.224535 0
M  V30 1178 C 106.001 0.662 -3.54471 0
M  V30 1179 O 105.105 1.76265 -3.72833 0
M  V30 1180 H 104.446 0.0448722 -0.662482 0
M  V30 1181 H 106.976 -0.491048 -1.9862 0
M  V30 1182 H 106.986 0.940594 -3.9701 0
M  V30 1183 H 105.661 -0.196937 -4.15433 0
M  V30 1184 H 104.238 1.48173 -3.42198 0
M  V30 1185 N 106.423 1.57458 -0.0668435 0
M  V30 1186 C 107.669 1.93587 0.6043 0
M  V30 1187 C 108.002 0.946722 1.69561 0
M  V30 1188 O 107.277 -0.0248516 1.94484 0
M  V30 1189 C 107.56 3.40014 1.18585 0
M  V30 1190 C 107.413 4.49685 0.101529 0
M  V30 1191 C 108.732 3.87154 2.09284 0
M  V30 1192 H 105.851 0.703958 0.218202 0
M  V30 1193 H 108.493 1.89542 -0.131804 0
M  V30 1194 H 106.643 3.43592 1.81319 0
M  V30 1195 H 108.315 4.5823 -0.531279 0
M  V30 1196 H 106.558 4.30059 -0.568487 0
M  V30 1197 H 107.229 5.49266 0.54874 0
M  V30 1198 H 109.705 3.85551 1.56491 0
M  V30 1199 H 108.581 4.90231 2.46911 0
M  V30 1200 H 108.842 3.2481 2.99918 0
M  V30 1201 N 107.901 -0.206675 1.56239 0
M  V30 1202 C 109.129 -0.945345 1.8404 0
M  V30 1203 C 109.544 -1.77336 0.647885 0
M  V30 1204 O 108.901 -1.78425 -0.383511 0
M  V30 1205 C 108.952 -1.8509 3.10522 0
M  V30 1206 O 108.673 -1.05634 4.25174 0
M  V30 1207 C 110.174 -2.70222 3.51418 0
M  V30 1208 H 107.394 -0.276372 0.61144 0
M  V30 1209 H 109.938 -0.217417 2.03341 0
M  V30 1210 H 108.093 -2.53259 2.93153 0
M  V30 1211 H 108.507 -1.67238 4.97124 0
M  V30 1212 H 109.981 -3.29438 4.42916 0
M  V30 1213 H 110.458 -3.43358 2.73864 0
M  V30 1214 H 111.064 -2.07443 3.71278 0
M  V30 1215 N 109.379 -1.50304 -0.473955 0
M  V30 1216 C 110.311 -1.65109 -1.58971 0
M  V30 1217 C 111.324 -0.532676 -1.53839 0
M  V30 1218 O 112.513 -0.805751 -1.59279 0
M  V30 1219 C 109.613 -1.61684 -2.97845 0
M  V30 1220 C 108.786 -2.8951 -3.27876 0
M  V30 1221 C 107.845 -2.78768 -4.4629 0
M  V30 1222 O 106.871 -3.52722 -4.46739 0
M  V30 1223 N 108.073 -1.9213 -5.47783 0
M  V30 1224 H 110.838 -2.61347 -1.46689 0
M  V30 1225 H 108.399 -1.47732 -0.662324 0
M  V30 1226 H 110.391 -1.52114 -3.75024 0
M  V30 1227 H 108.961 -0.731925 -3.03911 0
M  V30 1228 H 108.181 -3.13228 -2.39336 0
M  V30 1229 H 109.469 -3.74199 -3.4475 0
M  V30 1230 H 108.867 -1.31353 -5.50239 0
M  V30 1231 H 107.424 -1.88466 -6.23958 0
M  V30 1232 N 110.857 0.726932 -1.39834 0
M  V30 1233 C 111.767 1.87131 -1.41489 0
M  V30 1234 C 112.783 1.71239 -0.308757 0
M  V30 1235 O 113.959 1.93701 -0.551529 0
M  V30 1236 C 111.024 3.22811 -1.26468 0
M  V30 1237 C 110.085 3.51039 -2.47124 0
M  V30 1238 C 109.318 4.80245 -2.3281 0
M  V30 1239 O 109.541 5.54537 -1.33585 0
M  V30 1240 O 108.475 5.08554 -3.21957 0
M  V30 1241 H 112.301 1.8869 -2.3797 0
M  V30 1242 H 109.886 0.875837 -1.21035 0
M  V30 1243 H 111.768 4.03877 -1.20255 0
M  V30 1244 H 110.443 3.22005 -0.330862 0
M  V30 1245 H 109.35 2.70027 -2.58914 0
M  V30 1246 H 110.683 3.56632 -3.39227 0
M  V30 1247 N 112.336 1.25143 0.95797 0
M  V30 1248 C 113.299 1.05321 2.03569 0
M  V30 1249 C 114.299 0.007152 1.60798 0
M  V30 1250 O 115.489 0.24903 1.72411 0
M  V30 1251 C 112.621 0.598394 3.35607 0
M  V30 1252 H 113.814 2.00986 2.22586 0
M  V30 1253 H 111.367 1.07502 1.13459 0
M  V30 1254 H 112.102 -0.361014 3.22284 0
M  V30 1255 H 111.887 1.35351 3.67998 0
M  V30 1256 H 113.377 0.48104 4.1482 0
M  V30 1257 N 113.814 -1.1601 1.06675 0
M  V30 1258 C 114.724 -2.24156 0.692179 0
M  V30 1259 C 115.74 -1.71507 -0.293513 0
M  V30 1260 O 116.916 -2.009 -0.141861 0
M  V30 1261 C 113.981 -3.46587 0.0884131 0
M  V30 1262 C 113.042 -4.14257 1.12646 0
M  V30 1263 C 112.275 -5.30844 0.551416 0
M  V30 1264 O 112.498 -5.66858 -0.634656 0
M  V30 1265 O 111.432 -5.87848 1.29298 0
M  V30 1266 H 115.258 -2.58513 1.59388 0
M  V30 1267 H 112.843 -1.23599 0.83926 0
M  V30 1268 H 114.725 -4.20679 -0.246361 0
M  V30 1269 H 113.4 -3.13994 -0.786712 0
M  V30 1270 H 112.307 -3.42118 1.51348 0
M  V30 1271 H 113.64 -4.50914 1.97325 0
M  V30 1272 N 115.292 -0.849877 -1.32721 0
M  V30 1273 C 116.708 -0.539102 -1.50219 0
M  V30 1274 C 116.908 0.931271 -1.78689 0
M  V30 1275 O 115.964 1.71455 -1.85363 0
M  V30 1276 C 117.277 -1.42196 -2.64954 0
M  V30 1277 C 118.825 -1.42189 -2.78839 0
M  V30 1278 C 119.3 -2.28985 -3.96648 0
M  V30 1279 N 120.791 -2.26754 -4.03902 0
M  V30 1280 C 121.526 -2.90644 -4.94281 0
M  V30 1281 N 121.022 -3.63629 -5.897 0
M  V30 1282 N 122.815 -2.80057 -4.87365 0
M  V30 1283 H 114.966 -1.80156 -1.12506 0
M  V30 1284 H 117.229 -0.769217 -0.554085 0
M  V30 1285 H 116.935 -2.46733 -2.50631 0
M  V30 1286 H 116.809 -1.10591 -3.60624 0
M  V30 1287 H 119.196 -0.38419 -2.92588 0
M  V30 1288 H 119.277 -1.77807 -1.83898 0
M  V30 1289 H 118.921 -3.32819 -3.83658 0
M  V30 1290 H 118.851 -1.90702 -4.90857 0
M  V30 1291 H 121.342 -1.73688 -3.3562 0
M  V30 1292 H 121.655 -4.09558 -6.55349 0
M  V30 1293 H 120 -3.67737 -5.89741 0
M  V30 1294 H 123.191 -2.22593 -4.11789 0
M  V30 1295 H 123.364 -3.30132 -5.57599 0
M  V30 1296 N 116.77 1.45427 -0.607355 0
M  V30 1297 C 117.68 2.34325 0.113463 0
M  V30 1298 C 118.696 1.51226 0.860617 0
M  V30 1299 O 119.872 1.84029 0.818255 0
M  V30 1300 C 116.937 3.28839 1.09844 0
M  V30 1301 C 115.998 4.27844 0.353271 0
M  V30 1302 C 115.231 5.17842 1.29133 0
M  V30 1303 O 115.454 5.11264 2.52913 0
M  V30 1304 O 114.388 5.96713 0.788523 0
M  V30 1305 H 118.214 2.97364 -0.617094 0
M  V30 1306 H 115.799 1.44807 -0.367619 0
M  V30 1307 H 117.681 3.8708 1.66575 0
M  V30 1308 H 116.356 2.68365 1.81003 0
M  V30 1309 H 115.263 3.7322 -0.256494 0
M  V30 1310 H 116.596 4.91173 -0.317822 0
M  V30 1311 N 118.248 0.346503 1.53744 0
M  V30 1312 C 119.158 -0.517293 2.28826 0
M  V30 1313 C 120.174 -1.10935 1.3405 0
M  V30 1314 O 121.35 -1.1244 1.6709 0
M  V30 1315 C 118.415 -1.65098 3.04866 0
M  V30 1316 C 117.476 -1.0884 4.15274 0
M  V30 1317 C 116.709 -2.16806 4.87679 0
M  V30 1318 O 116.932 -3.3758 4.59778 0
M  V30 1319 O 115.866 -1.80934 5.74061 0
M  V30 1320 H 119.692 0.0931396 3.03557 0
M  V30 1321 H 117.277 0.111458 1.48984 0
M  V30 1322 H 119.159 -2.31053 3.5241 0
M  V30 1323 H 117.834 -2.24717 2.32989 0
M  V30 1324 H 116.741 -0.3933 3.72027 0
M  V30 1325 H 118.074 -0.537036 4.89261 0
M  V30 1326 N 119.726 -1.57421 0.075193 0
M  V30 1327 C 120.973 -1.93618 -0.593146 0
M  V30 1328 C 121.301 -0.955484 -1.69413 0
M  V30 1329 O 120.556 0.0283251 -1.9568 0
M  V30 1330 C 120.855 -3.36428 -1.20626 0
M  V30 1331 C 120.521 -4.50307 -0.231078 0
M  V30 1332 C 119.183 -4.81186 0.0371936 0
M  V30 1333 C 121.535 -5.19374 0.435888 0
M  V30 1334 C 118.863 -5.78466 0.979461 0
M  V30 1335 C 121.215 -6.17665 1.3665 0
M  V30 1336 C 119.879 -6.46958 1.6432 0
M  V30 1337 H 119.149 -0.708499 -0.217047 0
M  V30 1338 H 121.796 -1.90937 0.146793 0
M  V30 1339 H 120.101 -3.35592 -2.02201 0
M  V30 1340 H 121.798 -3.61727 -1.73073 0
M  V30 1341 H 118.388 -4.26227 -0.450357 0
M  V30 1342 H 122.572 -4.95711 0.241748 0
M  V30 1343 H 117.828 -5.99487 1.20106 0
M  V30 1344 H 122.002 -6.70284 1.88924 0
M  V30 1345 H 119.629 -7.2215 2.37494 0
M  V30 1346 N 121.204 0.198386 -1.56346 0
M  V30 1347 C 122.451 0.919286 -1.80431 0
M  V30 1348 C 122.779 1.83393 -0.647866 0
M  V30 1349 O 122.034 1.92236 0.366556 0
M  V30 1350 C 122.333 1.77031 -3.10475 0
M  V30 1351 C 121.999 1.00693 -4.39513 0
M  V30 1352 C 120.661 0.796145 -4.74568 0
M  V30 1353 C 123.013 0.469559 -5.19081 0
M  V30 1354 C 120.341 0.0364588 -5.86689 0
M  V30 1355 C 122.693 -0.2769 -6.31994 0
M  V30 1356 C 121.357 -0.49873 -6.65634 0
M  V30 1357 H 120.627 0.336391 -0.660244 0
M  V30 1358 H 123.274 0.185872 -1.90596 0
M  V30 1359 H 121.579 2.5723 -2.95533 0
M  V30 1360 H 123.276 2.33065 -3.26315 0
M  V30 1361 H 119.866 1.18122 -4.12001 0
M  V30 1362 H 124.05 0.619816 -4.92414 0
M  V30 1363 H 119.306 -0.145412 -6.11227 0
M  V30 1364 H 123.48 -0.700684 -6.92866 0
M  V30 1365 H 121.107 -1.0893 -7.52355 0
M  V30 1366 N 122.682 1.50554 0.465978 0
M  V30 1367 C 123.959 1.5232 1.22712 0
M  V30 1368 C 124.339 0.270807 2.09356 0
M  V30 1369 O 123.687 -0.745541 2.15995 0
M  V30 1370 C 123.897 2.82175 2.05374 0
M  V30 1371 C 125.245 3.33033 2.6339 0
M  V30 1372 O 126.269 2.83531 2.15612 0
M  V30 1373 O 125.128 4.19336 3.50456 0
M  V30 1374 H 122.222 0.611183 0.557122 0
M  V30 1375 H 124.768 1.62847 0.477381 0
M  V30 1376 H 123.54 3.64797 1.41558 0
M  V30 1377 H 123.163 2.74675 2.87471 0
M  V30 1378 N 124.16 -0.719506 1.40217 0
M  V30 1379 C 125.07 -1.86378 1.42479 0
M  V30 1380 C 126.086 -1.71073 0.317834 0
M  V30 1381 O 127.262 -1.93406 0.561794 0
M  V30 1382 C 124.327 -3.22136 1.28178 0
M  V30 1383 C 123.388 -3.49723 2.48982 0
M  V30 1384 C 122.621 -4.79004 2.35353 0
M  V30 1385 O 122.844 -5.53821 1.36524 0
M  V30 1386 O 121.778 -5.06839 3.2465 0
M  V30 1387 H 125.604 -1.87425 2.38968 0
M  V30 1388 H 123.189 -0.869405 1.21498 0
M  V30 1389 H 125.071 -4.03234 1.22395 0
M  V30 1390 H 123.746 -3.21825 0.347934 0
M  V30 1391 H 122.653 -2.6865 2.60342 0
M  V30 1392 H 123.986 -3.54828 3.41113 0
M  V30 1393 N 125.638 -1.25649 -0.95132 0
M  V30 1394 C 126.866 -1.13343 -1.73092 0
M  V30 1395 C 127.281 0.312434 -1.86197 0
M  V30 1396 O 126.638 1.21465 -1.36207 0
M  V30 1397 C 126.689 -1.78602 -3.14299 0
M  V30 1398 O 126.41 -3.17537 -3.01831 0
M  V30 1399 C 127.911 -1.72119 -4.08522 0
M  V30 1400 H 125.131 -0.395181 -0.542285 0
M  V30 1401 H 127.675 -1.66076 -1.19328 0
M  V30 1402 H 125.83 -1.29832 -3.64996 0
M  V30 1403 H 126.244 -3.49676 -3.90931 0
M  V30 1404 H 127.718 -2.22435 -5.052 0
M  V30 1405 H 128.195 -0.685635 -4.33815 0
M  V30 1406 H 128.801 -2.20393 -3.63741 0
M  V30 1407 N 127.117 1.15442 -1.07289 0
M  V30 1408 C 128.533 1.38201 -0.798288 0
M  V30 1409 C 128.733 1.92429 0.597769 0
M  V30 1410 O 127.789 2.12962 1.3566 0
M  V30 1411 C 129.102 2.35357 -1.87156 0
M  V30 1412 C 130.65 2.49021 -1.89624 0
M  V30 1413 C 131.125 3.49468 -2.96034 0
M  V30 1414 N 132.616 3.57003 -2.95132 0
M  V30 1415 C 133.351 4.34543 -3.74112 0
M  V30 1416 N 132.847 5.15421 -4.6294 0
M  V30 1417 N 134.64 4.29625 -3.62462 0
M  V30 1418 H 126.791 0.78584 -1.97328 0
M  V30 1419 H 129.054 0.408065 -0.855679 0
M  V30 1420 H 128.76 2.02626 -2.87464 0
M  V30 1421 H 128.634 3.35129 -1.73114 0
M  V30 1422 H 131.021 2.81051 -0.899687 0
M  V30 1423 H 131.102 1.4925 -2.07745 0
M  V30 1424 H 130.746 3.18173 -3.95889 0
M  V30 1425 H 130.676 4.48992 -2.75161 0
M  V30 1426 H 133.167 2.99276 -2.30743 0
M  V30 1427 H 133.48 5.7183 -5.19837 0
M  V30 1428 H 131.825 5.14729 -4.66989 0
M  V30 1429 H 135.016 3.65505 -2.92444 0
M  V30 1430 H 135.189 4.89807 -4.24256 0
M  V30 1431 N 128.595 0.856903 1.32268 0
M  V30 1432 C 130.011 0.547061 1.49931 0
M  V30 1433 C 130.211 -0.921781 1.7918 0
M  V30 1434 O 129.267 -1.70469 1.8627 0
M  V30 1435 C 130.58 1.43599 2.64196 0
M  V30 1436 C 132.128 1.43665 2.78081 0
M  V30 1437 C 132.603 2.31085 3.95428 0
M  V30 1438 N 134.094 2.28893 4.02694 0
M  V30 1439 C 134.829 2.93262 4.92732 0
M  V30 1440 N 134.325 3.66751 5.87763 0
M  V30 1441 N 136.118 2.82638 4.85873 0
M  V30 1442 H 128.269 1.8075 1.11549 0
M  V30 1443 H 130.532 0.772144 0.549997 0
M  V30 1444 H 130.238 2.48058 2.49319 0
M  V30 1445 H 130.112 1.12502 3.60032 0
M  V30 1446 H 132.499 0.399701 2.92381 0
M  V30 1447 H 132.58 1.7878 1.82952 0
M  V30 1448 H 132.224 3.34849 3.81888 0
M  V30 1449 H 132.154 1.93302 4.89839 0
M  V30 1450 H 134.645 1.75466 3.34694 0
M  V30 1451 H 134.958 4.13027 6.53168 0
M  V30 1452 H 133.303 3.70859 5.87783 0
M  V30 1453 H 136.494 2.24774 4.10602 0
M  V30 1454 H 136.667 3.33084 5.55841 0
M  V30 1455 N 130.073 -1.45103 0.615059 0
M  V30 1456 C 131.003 -2.33339 -0.0865619 0
M  V30 1457 C 131.984 -1.4727 -0.851209 0
M  V30 1458 O 133.169 -1.76026 -0.820281 0
M  V30 1459 C 130.299 -3.30095 -1.07956 0
M  V30 1460 C 129.253 -4.25858 -0.427628 0
M  V30 1461 C 128.579 -5.12361 -1.5294 0
M  V30 1462 C 129.879 -5.18165 0.655944 0
M  V30 1463 H 131.573 -2.92254 0.650224 0
M  V30 1464 H 129.119 -1.40532 0.314138 0
M  V30 1465 H 131.072 -3.90698 -1.57901 0
M  V30 1466 H 129.796 -2.69355 -1.84703 0
M  V30 1467 H 128.455 -3.66564 0.0510292 0
M  V30 1468 H 128.103 -4.47984 -2.28734 0
M  V30 1469 H 127.803 -5.77238 -1.09865 0
M  V30 1470 H 129.327 -5.75833 -2.03098 0
M  V30 1471 H 130.741 -5.72796 0.240257 0
M  V30 1472 H 129.138 -5.91559 1.00888 0
M  V30 1473 H 130.208 -4.60144 1.52957 0
M  V30 1474 N 131.551 -0.354651 -1.53558 0
M  V30 1475 C 132.791 0.238651 -2.03002 0
M  V30 1476 C 133.155 1.46878 -1.23656 0
M  V30 1477 O 134.356 2.13699 -1.63053 0
M  V30 1478 C 132.627 0.534175 -3.53386 0
M  V30 1479 S 134.186 1.10271 -4.24719 0
M  V30 1480 H 131.004 0.0702908 -0.707517 0
M  V30 1481 H 133.606 -0.494987 -1.8913 0
M  V30 1482 H 132.31 -0.368765 -4.0874 0
M  V30 1483 H 131.841 1.29718 -3.71398 0
M  V30 1484 H 133.856 2.38772 -4.34974 0
M  V30 1485 N 133.029 1.57378 -0.0835403 0
M  V30 1486 C 134.306 1.85363 0.624507 0
M  V30 1487 C 134.686 0.978239 1.87066 0
M  V30 1488 O 134.034 0.0475908 2.2845 0
M  V30 1489 C 134.244 3.35795 0.950947 0
M  V30 1490 C 135.592 4.03581 1.31939 0
M  V30 1491 O 136.616 3.40609 1.04232 0
M  V30 1492 O 135.475 5.14672 1.83779 0
M  V30 1493 H 132.569 0.766162 0.311329 0
M  V30 1494 H 135.115 1.69307 -0.115362 0
M  V30 1495 H 133.887 3.91244 0.0663899 0
M  V30 1496 H 133.51 3.57154 1.74719 0
M  V30 1497 N 134.507 -0.190092 1.56449 0
M  V30 1498 C 135.437 -1.23816 1.97969 0
M  V30 1499 C 136.418 -1.47201 0.852395 0
M  V30 1500 O 137.603 -1.58854 1.1171 0
M  V30 1501 C 134.733 -2.5813 2.3235 0
M  V30 1502 C 133.687 -2.49348 3.47864 0
M  V30 1503 C 133.013 -3.8798 3.67934 0
M  V30 1504 C 134.313 -2.01424 4.81898 0
M  V30 1505 H 136.007 -0.89311 2.85769 0
M  V30 1506 H 133.553 -0.428177 1.37487 0
M  V30 1507 H 135.506 -3.31637 2.59991 0
M  V30 1508 H 134.23 -2.94386 1.41438 0
M  V30 1509 H 132.889 -1.78297 3.20321 0
M  V30 1510 H 132.537 -4.21597 2.74344 0
M  V30 1511 H 132.237 -3.82978 4.45648 0
M  V30 1512 H 133.761 -4.63101 3.97957 0
M  V30 1513 H 135.175 -2.64693 5.08538 0
M  V30 1514 H 133.572 -2.07413 5.63116 0
M  V30 1515 H 134.642 -0.967677 4.75146 0
M  V30 1516 N 135.985 -1.50799 -0.457987 0
M  V30 1517 C 137.401 -1.38515 -0.792819 0
M  V30 1518 C 137.601 -0.451409 -1.96379 0
M  V30 1519 O 136.657 0.10112 -2.52297 0
M  V30 1520 C 137.97 -2.80149 -1.09258 0
M  V30 1521 C 139.518 -2.89156 -1.19825 0
M  V30 1522 C 139.993 -4.31651 -1.53106 0
M  V30 1523 N 141.484 -4.34662 -1.60072 0
M  V30 1524 C 142.219 -5.41928 -1.87354 0
M  V30 1525 N 141.715 -6.59384 -2.12568 0
M  V30 1526 N 143.508 -5.29385 -1.88965 0
M  V30 1527 H 135.659 -2.10073 0.313511 0
M  V30 1528 H 137.922 -0.944803 0.0777862 0
M  V30 1529 H 137.628 -3.50374 -0.305084 0
M  V30 1530 H 137.502 -3.18204 -2.02549 0
M  V30 1531 H 139.889 -2.19141 -1.97639 0
M  V30 1532 H 139.97 -2.54626 -0.244821 0
M  V30 1533 H 139.614 -5.02208 -0.758266 0
M  V30 1534 H 139.544 -4.63678 -2.49621 0
M  V30 1535 H 142.035 -3.49973 -1.42573 0
M  V30 1536 H 142.348 -7.36934 -2.32696 0
M  V30 1537 H 140.693 -6.62535 -2.09933 0
M  V30 1538 H 143.884 -4.36616 -1.68772 0
M  V30 1539 H 144.057 -6.13066 -2.09891 0
M  V30 1540 N 137.463 0.71206 -1.40597 0
M  V30 1541 C 138.393 1.83889 -1.43899 0
M  V30 1542 C 139.374 1.67442 -0.299504 0
M  V30 1543 O 140.559 1.87421 -0.508624 0
M  V30 1544 C 137.689 3.21877 -1.30431 0
M  V30 1545 C 136.643 3.53002 -2.42019 0
M  V30 1546 C 135.969 4.90172 -2.13626 0
M  V30 1547 C 137.269 3.53643 -3.84362 0
M  V30 1548 H 138.963 1.81383 -2.38203 0
M  V30 1549 H 136.509 0.871237 -1.14654 0
M  V30 1550 H 138.462 4.00404 -1.31357 0
M  V30 1551 H 137.186 3.24968 -0.326049 0
M  V30 1552 H 135.845 2.76818 -2.40349 0
M  V30 1553 H 135.493 4.89869 -1.14182 0
M  V30 1554 H 135.193 5.11962 -2.88389 0
M  V30 1555 H 136.717 5.71028 -2.1624 0
M  V30 1556 H 138.131 4.22203 -3.87837 0
M  V30 1557 H 136.528 3.86961 -4.58673 0
M  V30 1558 H 137.598 2.52954 -4.13693 0
M  V30 1559 N 138.941 1.26152 0.944643 0
M  V30 1560 C 140.188 1.11492 1.69044 0
M  V30 1561 C 140.516 -0.342366 1.91463 0
M  V30 1562 O 139.771 -1.26812 1.49054 0
M  V30 1563 C 140.07 1.82541 3.07268 0
M  V30 1564 C 139.736 3.32445 3.04616 0
M  V30 1565 C 138.398 3.73337 3.036 0
M  V30 1566 C 140.75 4.28171 2.97185 0
M  V30 1567 C 138.078 5.08348 2.92915 0
M  V30 1568 C 140.43 5.63218 2.88041 0
M  V30 1569 C 139.094 6.03426 2.85366 0
M  V30 1570 H 138.364 0.407977 0.618576 0
M  V30 1571 H 141.011 1.56551 1.10291 0
M  V30 1572 H 139.316 1.29941 3.69625 0
M  V30 1573 H 141.013 1.68642 3.63815 0
M  V30 1574 H 137.603 2.99915 3.06185 0
M  V30 1575 H 141.787 3.97563 2.97081 0
M  V30 1576 H 137.043 5.38667 2.89219 0
M  V30 1577 H 141.217 6.37078 2.81254 0
M  V30 1578 H 138.844 7.07999 2.76842 0
M  V30 1579 N 140.419 -1.14872 1.07899 0
M  V30 1580 C 141.351 -2.19425 0.662231 0
M  V30 1581 C 142.364 -1.60231 -0.288079 0
M  V30 1582 O 143.553 -1.78336 -0.076534 0
M  V30 1583 C 140.653 -3.38867 -0.0470695 0
M  V30 1584 C 139.826 -4.27597 0.920831 0
M  V30 1585 C 138.885 -5.25616 0.247805 0
M  V30 1586 O 137.911 -5.62189 0.890599 0
M  V30 1587 N 139.113 -5.71746 -1.00435 0
M  V30 1588 H 141.878 -2.55797 1.56166 0
M  V30 1589 H 139.439 -1.30042 0.964404 0
M  V30 1590 H 141.431 -4.01497 -0.50813 0
M  V30 1591 H 140.001 -3.00864 -0.848523 0
M  V30 1592 H 139.221 -3.61982 1.56087 0
M  V30 1593 H 140.509 -4.83748 1.57688 0
M  V30 1594 H 139.907 -5.44153 -1.54642 0
M  V30 1595 H 138.464 -6.36389 -1.40899 0
M  V30 1596 N 141.898 -0.863906 -1.31812 0
M  V30 1597 C 143.309 -0.52522 -1.7916 0
M  V30 1598 C 143.66 0.957518 -1.71248 0
M  V30 1599 O 142.785 1.74734 -1.27659 0
M  V30 1600 C 143.38 -0.9466 -3.25307 0
M  V30 1601 C 141.939 -0.659668 -3.70574 0
M  V30 1602 C 141.086 -1.14126 -2.52726 0
M  V30 1603 H 144.037 -1.05022 -1.1898 0
M  V30 1604 H 144.058 -0.266766 -3.79564 0
M  V30 1605 H 143.57 -2.02579 -3.31034 0
M  V30 1606 H 141.671 0.408416 -3.70355 0
M  V30 1607 H 141.784 -1.23245 -4.62977 0
M  V30 1608 H 140.148 -0.561216 -2.4844 0
M  V30 1609 H 140.931 -2.22775 -2.61201 0
M  V30 1610 N 143.376 1.44774 -0.622745 0
M  V30 1611 C 144.623 2.02121 -0.1239 0
M  V30 1612 C 144.951 1.48915 1.25118 0
M  V30 1613 O 144.206 0.660045 1.84233 0
M  V30 1614 C 144.505 3.57364 -0.0508323 0
M  V30 1615 C 144.171 4.29787 -1.36358 0
M  V30 1616 C 142.833 4.4929 -1.72314 0
M  V30 1617 C 145.185 4.71062 -2.23048 0
M  V30 1618 C 142.513 5.07325 -2.94682 0
M  V30 1619 C 144.865 5.30452 -3.44679 0
M  V30 1620 C 143.529 5.48175 -3.80868 0
M  V30 1621 H 142.799 0.739612 -0.0453381 0
M  V30 1622 H 145.446 1.73648 -0.807389 0
M  V30 1623 H 143.751 3.85202 0.715991 0
M  V30 1624 H 145.448 3.99456 0.351533 0
M  V30 1625 H 142.038 4.14932 -1.07375 0
M  V30 1626 H 146.222 4.55715 -1.96565 0
M  V30 1627 H 141.478 5.19235 -3.22809 0
M  V30 1628 H 145.652 5.61385 -4.12092 0
M  V30 1629 H 143.279 5.92912 -4.75773 0
M  V30 1630 N 144.854 0.36279 1.53368 0
M  V30 1631 C 145.784 -0.476976 2.28576 0
M  V30 1632 C 146.765 -1.08631 1.30894 0
M  V30 1633 O 147.95 -1.10409 1.59761 0
M  V30 1634 C 145.08 -1.61828 3.07293 0
M  V30 1635 C 144.034 -1.13633 4.1264 0
M  V30 1636 C 143.36 -2.36766 4.79423 0
M  V30 1637 C 144.66 -0.223061 5.21823 0
M  V30 1638 H 146.354 0.150474 2.99022 0
M  V30 1639 H 143.9 0.0738103 1.43811 0
M  V30 1640 H 145.853 -2.21237 3.58653 0
M  V30 1641 H 144.577 -2.27292 2.34533 0
M  V30 1642 H 143.236 -0.564945 3.62221 0
M  V30 1643 H 142.884 -3.0068 4.03238 0
M  V30 1644 H 142.584 -2.05192 5.50609 0
M  V30 1645 H 144.108 -2.96865 5.33576 0
M  V30 1646 H 145.522 -0.724545 5.68703 0
M  V30 1647 H 143.919 0.001678 6.001 0
M  V30 1648 H 144.989 0.735553 4.79289 0
M  V30 1649 N 146.332 -1.57332 0.0918853 0
M  V30 1650 C 147.279 -2.13847 -0.868211 0
M  V30 1651 C 148.249 -1.05618 -1.28196 0
M  V30 1652 O 149.434 -1.33387 -1.36427 0
M  V30 1653 C 146.574 -2.72062 -2.12312 0
M  V30 1654 C 145.687 -3.94514 -1.7602 0
M  V30 1655 C 144.822 -4.40903 -2.96273 0
M  V30 1656 C 143.861 -5.55953 -2.56092 0
M  V30 1657 N 142.998 -5.97209 -3.69169 0
M  V30 1658 H 147.838 -2.95575 -0.379406 0
M  V30 1659 H 145.375 -1.46048 -0.175606 0
M  V30 1660 H 147.333 -3.03931 -2.858 0
M  V30 1661 H 145.963 -1.93068 -2.58698 0
M  V30 1662 H 145.015 -3.68979 -0.925135 0
M  V30 1663 H 146.327 -4.7802 -1.42472 0
M  V30 1664 H 145.481 -4.74539 -3.78018 0
M  V30 1665 H 144.22 -3.56291 -3.33029 0
M  V30 1666 H 143.225 -5.21948 -1.72773 0
M  V30 1667 H 144.45 -6.42311 -2.20484 0
M  V30 1668 H 142.396 -5.15543 -4.05649 0
M  V30 1669 H 142.313 -6.75504 -3.39456 0
M  V30 1670 H 143.581 -6.35475 -4.51434 0
M  V30 1671 N 147.81 0.181792 -1.56548 0
M  V30 1672 C 149.056 0.901431 -1.81665 0
M  V30 1673 C 149.389 1.82347 -0.668075 0
M  V30 1674 O 148.664 1.91669 0.330615 0
M  V30 1675 C 148.947 1.70618 -3.17115 0
M  V30 1676 C 148.8 0.807964 -4.42484 0
M  V30 1677 C 150.119 2.67605 -3.49393 0
M  V30 1678 H 147.238 0.32627 -0.660846 0
M  V30 1679 H 149.88 0.168134 -1.89255 0
M  V30 1680 H 148.03 2.33133 -3.10775 0
M  V30 1681 H 149.702 0.19649 -4.60881 0
M  V30 1682 H 147.945 0.115411 -4.33646 0
M  V30 1683 H 148.616 1.40632 -5.33785 0
M  V30 1684 H 151.092 2.15218 -3.56118 0
M  V30 1685 H 149.968 3.20985 -4.45264 0
M  V30 1686 H 150.229 3.47298 -2.73563 0
M  V30 1687 N 149.288 1.51039 0.449983 0
M  V30 1688 C 150.537 1.62317 1.19733 0
M  V30 1689 C 150.85 0.339101 1.92638 0
M  V30 1690 O 152.056 0.331069 2.69474 0
M  V30 1691 C 150.512 2.86608 2.17678 0
M  V30 1692 C 150.12 4.21972 1.50479 0
M  V30 1693 C 151.864 3.07239 2.92924 0
M  V30 1694 C 149.771 5.37426 2.46834 0
M  V30 1695 H 148.701 0.604532 0.450619 0
M  V30 1696 H 151.352 1.77494 0.465625 0
M  V30 1697 H 149.734 2.65037 2.94231 0
M  V30 1698 H 150.908 4.53878 0.795716 0
M  V30 1699 H 149.223 4.07117 0.874344 0
M  V30 1700 H 151.82 3.90668 3.65079 0
M  V30 1701 H 152.163 2.19807 3.5354 0
M  V30 1702 H 152.696 3.29091 2.23481 0
M  V30 1703 H 149.435 6.27079 1.90926 0
M  V30 1704 H 148.955 5.09912 3.15832 0
M  V30 1705 H 150.634 5.68862 3.08228 0
M  V30 1706 N 150.766 -0.704594 1.40972 0
M  V30 1707 C 151.676 -1.84856 1.44448 0
M  V30 1708 C 152.692 -1.70726 0.335961 0
M  V30 1709 O 153.868 -1.92799 0.582276 0
M  V30 1710 C 150.933 -3.20758 1.31587 0
M  V30 1711 C 149.994 -3.47063 2.52677 0
M  V30 1712 C 149.227 -4.76481 2.4042 0
M  V30 1713 O 149.45 -5.52341 1.42391 0
M  V30 1714 O 148.384 -5.03367 3.30007 0
M  V30 1715 H 152.21 -1.8488 2.40942 0
M  V30 1716 H 149.795 -0.85647 1.22413 0
M  V30 1717 H 151.677 -4.01913 1.26665 0
M  V30 1718 H 150.352 -3.21438 0.382049 0
M  V30 1719 H 149.259 -2.65873 2.63177 0
M  V30 1720 H 150.592 -3.5119 3.44858 0
M  V30 1721 N 152.244 -1.26651 -0.937939 0
M  V30 1722 C 153.655 -1.1125 -1.49934 0
M  V30 1723 C 154.006 0.306077 -1.93798 0
M  V30 1724 O 153.131 1.19792 -1.80219 0
M  V30 1725 C 153.726 -2.01339 -2.72485 0
M  V30 1726 C 152.285 -1.90074 -3.24883 0
M  V30 1727 C 151.432 -1.94498 -1.97651 0
M  V30 1728 H 154.383 -1.39693 -0.753091 0
M  V30 1729 H 154.404 -1.56319 -3.46907 0
M  V30 1730 H 153.916 -3.04577 -2.40529 0
M  V30 1731 H 152.017 -0.897827 -3.61621 0
M  V30 1732 H 152.13 -2.75778 -3.9177 0
M  V30 1733 H 150.494 -1.38591 -2.13693 0
M  V30 1734 H 151.277 -2.99372 -1.68022 0
M  V30 1735 N 153.722 1.14298 -1.08507 0
M  V30 1736 C 154.968 1.85633 -0.816581 0
M  V30 1737 C 155.301 1.82784 0.656021 0
M  V30 1738 O 154.576 1.25926 1.48233 0
M  V30 1739 C 154.859 3.34223 -1.34041 0
M  V30 1740 C 154.712 3.45639 -2.87843 0
M  V30 1741 C 156.031 4.29356 -0.9665 0
M  V30 1742 H 153.15 0.67402 -0.298104 0
M  V30 1743 H 155.792 1.34214 -1.34487 0
M  V30 1744 H 153.942 3.78144 -0.89104 0
M  V30 1745 H 155.614 3.10498 -3.41158 0
M  V30 1746 H 153.857 2.86817 -3.25451 0
M  V30 1747 H 154.528 4.50089 -3.19569 0
M  V30 1748 H 157.004 3.93457 -1.35391 0
M  V30 1749 H 155.88 5.3178 -1.3602 0
M  V30 1750 H 156.141 4.41919 0.126362 0
M  V30 1751 N 155.201 0.870884 1.31352 0
M  V30 1752 C 156.449 0.48132 1.96285 0
M  V30 1753 C 156.77 -0.969813 1.69173 0
M  V30 1754 O 156.04 -1.67998 1.00764 0
M  V30 1755 H 154.62 0.175002 0.726212 0
M  V30 1756 H 157.282 1.11087 1.60143 0
M  V30 1757 H 156.378 0.639825 3.05471 0
M  V30 1758 N 156.679 -1.44442 0.630414 0
M  V30 1759 C 157.627 -2.32437 -0.0871428 0
M  V30 1760 C 158.621 -1.47304 -0.836525 0
M  V30 1761 O 159.827 -1.63653 -0.749506 0
M  V30 1762 H 156.202 -0.750533 -0.0469495 0
M  V30 1763 H 158.173 -2.90709 0.673096 0
M  V30 1764 C 156.922 -3.31288 -1.05563 0
M  V30 1765 H 156.245 -3.96805 -0.488426 0
M  V30 1766 H 157.685 -3.9554 -1.52721 0
M  V30 1767 C 156.144 -2.6016 -2.14052 0
M  V30 1768 O 156.674 -2.39997 -3.22124 0
M  V30 1769 N 154.88 -2.19911 -1.89967 0
M  V30 1770 H 154.427 -2.36509 -1.02085 0
M  V30 1771 H 154.385 -1.72646 -2.62756 0
M  V30 1772 N 158.157 -0.370918 -1.53173 0
M  V30 1773 C 159.573 -0.0200818 -1.59587 0
M  V30 1774 C 159.773 1.46279 -1.38581 0
M  V30 1775 O 158.829 2.22506 -1.19363 0
M  V30 1776 C 160.142 -0.4808 -2.96831 0
M  V30 1777 C 161.69 -0.435477 -3.09956 0
M  V30 1778 C 162.165 -0.872092 -4.4962 0
M  V30 1779 N 163.656 -0.827364 -4.55751 0
M  V30 1780 C 164.391 -1.13683 -5.62018 0
M  V30 1781 N 163.887 -1.51584 -6.76014 0
M  V30 1782 N 165.68 -1.05927 -5.52029 0
M  V30 1783 H 157.831 -1.33652 -1.65079 0
M  V30 1784 H 160.094 -0.546634 -0.774529 0
M  V30 1785 H 159.8 -1.51577 -3.1736 0
M  V30 1786 H 159.674 0.129796 -3.76977 0
M  V30 1787 H 162.061 0.590371 -2.89134 0
M  V30 1788 H 162.142 -1.08164 -2.31806 0
M  V30 1789 H 161.786 -1.89608 -4.71181 0
M  V30 1790 H 161.716 -0.203127 -5.26208 0
M  V30 1791 H 164.207 -0.548216 -3.73902 0
M  V30 1792 H 164.52 -1.73609 -7.53047 0
M  V30 1793 H 162.865 -1.55454 -6.77391 0
M  V30 1794 H 166.056 -0.762321 -4.61851 0
M  V30 1795 H 166.229 -1.30378 -6.34749 0
M  V30 1796 N 159.635 1.57281 -0.100228 0
M  V30 1797 C 160.545 2.17833 0.870965 0
M  V30 1798 C 161.561 1.14921 1.30649 0
M  V30 1799 O 162.737 1.47313 1.37335 0
M  V30 1800 C 159.802 2.75085 2.1102 0
M  V30 1801 C 158.863 3.9297 1.72838 0
M  V30 1802 C 158.096 4.47482 2.90854 0
M  V30 1803 O 158.319 4.00922 4.05731 0
M  V30 1804 O 157.253 5.38433 2.69023 0
M  V30 1805 H 161.079 3.0124 0.38575 0
M  V30 1806 H 158.664 1.48881 0.124397 0
M  V30 1807 H 160.546 3.11656 2.83634 0
M  V30 1808 H 159.221 1.94721 2.58584 0
M  V30 1809 H 158.128 3.61201 0.973883 0
M  V30 1810 H 159.461 4.74713 1.30033 0
M  V30 1811 N 161.113 -0.173488 1.56642 0
M  V30 1812 C 162.023 -1.23482 1.99473 0
M  V30 1813 C 163.039 -1.48567 0.905752 0
M  V30 1814 O 164.215 -1.60758 1.21321 0
M  V30 1815 C 161.28 -2.55444 2.34413 0
M  V30 1816 C 160.341 -2.38241 3.57127 0
M  V30 1817 C 159.574 -3.63909 3.90392 0
M  V30 1818 O 159.797 -4.68996 3.24653 0
M  V30 1819 O 158.731 -3.58149 4.83749 0
M  V30 1820 H 162.557 -0.901279 2.90018 0
M  V30 1821 H 160.142 -0.380185 1.44482 0
M  V30 1822 H 162.024 -3.33292 2.57865 0
M  V30 1823 H 160.699 -2.88382 1.4703 0
M  V30 1824 H 159.606 -1.58431 3.38896 0
M  V30 1825 H 160.939 -2.10228 4.45045 0
M  V30 1826 N 162.591 -1.51276 -0.441967 0
M  V30 1827 C 163.538 -1.72256 -1.53612 0
M  V30 1828 C 164.508 -0.564164 -1.56225 0
M  V30 1829 O 165.693 -0.798074 -1.73307 0
M  V30 1830 C 162.833 -1.84932 -2.91366 0
M  V30 1831 C 161.946 -3.12459 -2.98317 0
M  V30 1832 C 161.081 -3.15758 -4.27166 0
M  V30 1833 C 160.12 -4.37619 -4.27967 0
M  V30 1834 N 159.257 -4.38493 -5.48333 0
M  V30 1835 H 164.097 -2.65654 -1.35026 0
M  V30 1836 H 161.634 -1.31662 -0.656009 0
M  V30 1837 H 163.592 -1.90263 -3.7129 0
M  V30 1838 H 162.222 -0.949461 -3.08521 0
M  V30 1839 H 161.274 -3.1646 -2.11086 0
M  V30 1840 H 162.586 -4.02382 -2.94771 0
M  V30 1841 H 161.74 -3.19979 -5.15459 0
M  V30 1842 H 160.479 -2.23715 -4.33362 0
M  V30 1843 H 159.484 -4.33579 -3.38067 0
M  V30 1844 H 160.709 -5.30921 -4.23438 0
M  V30 1845 H 158.655 -3.49318 -5.55259 0
M  V30 1846 H 158.572 -5.22219 -5.46647 0
M  V30 1847 H 159.84 -4.469 -6.38671 0
M  V30 1848 N 164.069 0.697108 -1.41344 0
M  V30 1849 C 165.318 1.45279 -1.39918 0
M  V30 1850 C 165.631 1.95597 -0.0109624 0
M  V30 1851 O 166.837 2.71208 0.125919 0
M  V30 1852 C 165.293 2.62695 -2.46007 0
M  V30 1853 C 164.901 2.19169 -3.90729 0
M  V30 1854 C 166.645 3.40336 -2.53715 0
M  V30 1855 C 164.552 3.33535 -4.88373 0
M  V30 1856 H 163.482 0.545692 -0.520323 0
M  V30 1857 H 166.133 0.756929 -1.67161 0
M  V30 1858 H 164.515 3.34541 -2.11892 0
M  V30 1859 H 165.689 1.54623 -4.34083 0
M  V30 1860 H 164.004 1.54525 -3.86666 0
M  V30 1861 H 166.601 4.2547 -3.2385 0
M  V30 1862 H 166.944 3.85418 -1.5735 0
M  V30 1863 H 167.477 2.75546 -2.86913 0
M  V30 1864 H 164.216 2.93468 -5.86137 0
M  V30 1865 H 163.736 3.96936 -4.49668 0
M  V30 1866 H 165.415 3.99335 -5.09059 0
M  V30 1867 N 165.547 1.27147 0.931209 0
M  V30 1868 C 166.477 1.12081 2.04842 0
M  V30 1869 C 167.458 0.0232364 1.70084 0
M  V30 1870 O 168.643 0.197085 1.93197 0
M  V30 1871 C 165.773 0.76354 3.38803 0
M  V30 1872 C 164.727 1.81396 3.87659 0
M  V30 1873 C 164.053 1.31075 5.18385 0
M  V30 1874 C 165.353 3.21739 4.11438 0
M  V30 1875 H 167.047 2.05537 2.17703 0
M  V30 1876 H 164.593 0.989603 1.04608 0
M  V30 1877 H 166.546 0.644982 4.16435 0
M  V30 1878 H 165.27 -0.206727 3.25945 0
M  V30 1879 H 163.929 1.92136 3.12217 0
M  V30 1880 H 163.577 0.330037 5.01916 0
M  V30 1881 H 163.277 2.013 5.52044 0
M  V30 1882 H 164.801 1.20506 5.98591 0
M  V30 1883 H 166.215 3.14019 4.79651 0
M  V30 1884 H 164.612 3.89644 4.56397 0
M  V30 1885 H 165.682 3.67054 3.16859 0
M  V30 1886 N 167.025 -1.13721 1.09112 0
M  V30 1887 C 167.973 -2.21103 0.722219 0
M  V30 1888 C 168.967 -1.67147 -0.275374 0
M  V30 1889 O 170.173 -1.79477 -0.137176 0
M  V30 1890 H 166.548 -0.720445 0.215553 0
M  V30 1891 H 168.519 -2.49483 1.63709 0
M  V30 1892 C 167.268 -3.47352 0.15543 0
M  V30 1893 H 166.591 -3.89206 0.914246 0
M  V30 1894 H 168.031 -4.2395 -0.0647967 0
M  V30 1895 C 166.49 -3.1814 -1.10852 0
M  V30 1896 O 167.02 -3.36604 -2.19227 0
M  V30 1897 N 165.226 -2.72045 -1.02176 0
M  V30 1898 H 164.773 -2.57221 -0.139764 0
M  V30 1899 H 164.731 -2.52875 -1.8682 0
M  V30 1900 N 168.503 -0.877838 -1.30888 0
M  V30 1901 C 169.919 -0.570844 -1.49042 0
M  V30 1902 C 170.119 0.893159 -1.80624 0
M  V30 1903 O 169.175 1.67485 -1.88958 0
M  V30 1904 C 170.488 -1.47784 -2.61878 0
M  V30 1905 C 172.036 -1.48071 -2.75761 0
M  V30 1906 C 172.511 -2.37347 -3.91702 0
M  V30 1907 N 174.002 -2.35271 -3.99001 0
M  V30 1908 C 174.737 -3.01063 -4.88004 0
M  V30 1909 N 174.233 -3.76055 -5.81854 0
M  V30 1910 N 176.026 -2.90332 -4.81315 0
M  V30 1911 H 168.177 -1.82502 -1.0866 0
M  V30 1912 H 170.44 -0.780797 -0.537644 0
M  V30 1913 H 170.146 -2.51993 -2.45341 0
M  V30 1914 H 170.02 -1.18215 -3.58197 0
M  V30 1915 H 172.407 -0.446166 -2.91708 0
M  V30 1916 H 172.488 -1.81668 -1.80085 0
M  V30 1917 H 172.132 -3.40883 -3.76512 0
M  V30 1918 H 172.062 -2.01071 -4.86701 0
M  V30 1919 H 174.553 -1.80768 -3.3186 0
M  V30 1920 H 174.866 -4.23366 -6.46514 0
M  V30 1921 H 173.211 -3.80163 -5.81808 0
M  V30 1922 H 176.402 -2.31278 -4.06974 0
M  V30 1923 H 176.575 -3.41885 -5.50471 0
M  V30 1924 N 169.982 1.44106 -0.638065 0
M  V30 1925 C 170.892 2.34513 0.0637334 0
M  V30 1926 C 171.908 1.53018 0.828346 0
M  V30 1927 O 173.084 1.85723 0.779036 0
M  V30 1928 C 170.149 3.31095 1.02844 0
M  V30 1929 C 169.21 4.28497 0.26244 0
M  V30 1930 C 168.443 5.20465 1.1812 0
M  V30 1931 O 168.666 5.16514 2.42011 0
M  V30 1932 O 167.6 5.98251 0.661774 0
M  V30 1933 H 171.426 2.95989 -0.68003 0
M  V30 1934 H 169.011 1.43994 -0.398252 0
M  V30 1935 H 170.893 3.90526 1.58327 0
M  V30 1936 H 169.568 2.72144 1.7527 0
M  V30 1937 H 168.475 3.72592 -0.335602 0
M  V30 1938 H 169.808 4.90388 -0.421936 0
M  V30 1939 N 171.46 0.379036 1.52974 0
M  V30 1940 C 172.709 -0.207612 2.00629 0
M  V30 1941 C 173.022 -1.48758 1.27006 0
M  V30 1942 O 174.228 -2.15365 1.65318 0
M  V30 1943 C 172.684 -0.42053 3.57435 0
M  V30 1944 C 172.292 0.845587 4.39948 0
M  V30 1945 C 174.036 -0.964102 4.13407 0
M  V30 1946 C 171.943 0.601513 5.88333 0
M  V30 1947 H 170.873 -0.0813591 0.749598 0
M  V30 1948 H 173.524 0.499853 1.76561 0
M  V30 1949 H 171.906 -1.18959 3.7771 0
M  V30 1950 H 173.08 1.61848 4.31442 0
M  V30 1951 H 171.395 1.31336 3.95145 0
M  V30 1952 H 173.992 -1.16225 5.21916 0
M  V30 1953 H 174.335 -1.93019 3.68849 0
M  V30 1954 H 174.868 -0.25487 3.96983 0
M  V30 1955 H 171.607 1.53831 6.37194 0
M  V30 1956 H 171.127 -0.132628 5.99653 0
M  V30 1957 H 172.806 0.232134 6.46583 0
M  V30 1958 N 172.938 -1.57226 0.108567 0
M  V30 1959 C 174.186 -1.94448 -0.550853 0
M  V30 1960 C 174.507 -0.992074 -1.67878 0
M  V30 1961 O 173.777 -0.0465 -1.95845 0
M  V30 1962 H 172.357 -0.717897 -0.206479 0
M  V30 1963 H 175.019 -1.94112 0.175062 0
M  V30 1964 H 174.115 -2.97218 -0.952259 0
M  V30 1965 N 174.416 0.165178 -1.56732 0
M  V30 1966 C 175.663 0.880807 -1.8234 0
M  V30 1967 C 175.991 1.81977 -0.686621 0
M  V30 1968 O 175.246 1.92971 0.325697 0
M  V30 1969 C 175.545 1.70405 -3.1416 0
M  V30 1970 C 175.211 0.913475 -4.4155 0
M  V30 1971 C 173.873 0.695303 -4.7615 0
M  V30 1972 C 176.225 0.359349 -5.1996 0
M  V30 1973 C 173.553 -0.0879947 -5.86634 0
M  V30 1974 C 175.905 -0.410893 -6.31264 0
M  V30 1975 C 174.569 -0.639808 -6.64427 0
M  V30 1976 H 173.839 0.32231 -0.667231 0
M  V30 1977 H 176.486 0.145402 -1.90947 0
M  V30 1978 H 174.791 2.50903 -3.00923 0
M  V30 1979 H 176.488 2.26091 -3.31186 0
M  V30 1980 H 173.078 1.09357 -4.14414 0
M  V30 1981 H 177.262 0.515228 -4.93618 0
M  V30 1982 H 172.518 -0.27503 -6.10781 0
M  V30 1983 H 176.692 -0.847494 -6.91224 0
M  V30 1984 H 174.319 -1.24864 -7.49875 0
M  V30 1985 N 175.894 1.51508 0.433938 0
M  V30 1986 C 176.857 1.72473 1.50949 0
M  V30 1987 C 177.857 0.594725 1.49398 0
M  V30 1988 O 179.047 0.862315 1.5136 0
M  V30 1989 C 176.179 1.78431 2.90474 0
M  V30 1990 H 177.372 2.68467 1.33662 0
M  V30 1991 H 174.925 1.41549 0.662836 0
M  V30 1992 H 175.66 0.842645 3.13161 0
M  V30 1993 H 175.445 2.60558 2.93005 0
M  V30 1994 H 176.935 1.96479 3.68491 0
M  V30 1995 N 177.372 -0.689602 1.41712 0
M  V30 1996 C 178.621 -1.44534 1.40686 0
M  V30 1997 C 178.934 -1.95588 0.0213352 0
M  V30 1998 O 180.14 -2.71271 -0.111534 0
M  V30 1999 C 178.596 -2.61387 2.47396 0
M  V30 2000 C 178.204 -2.17094 3.91885 0
M  V30 2001 C 179.948 -3.38986 2.55517 0
M  V30 2002 C 177.855 -3.3094 4.90135 0
M  V30 2003 H 176.785 -0.542925 0.52321 0
M  V30 2004 H 179.436 -0.748054 1.6756 0
M  V30 2005 H 177.818 -3.33412 2.13664 0
M  V30 2006 H 178.992 -1.52318 4.34897 0
M  V30 2007 H 177.307 -1.52473 3.8748 0
M  V30 2008 H 179.904 -4.23747 3.26102 0
M  V30 2009 H 180.247 -3.84578 1.59391 0
M  V30 2010 H 180.78 -2.74021 2.8837 0
M  V30 2011 H 177.519 -2.90355 5.87685 0
M  V30 2012 H 177.039 -3.94546 4.51767 0
M  V30 2013 H 178.718 -3.9663 5.11169 0
M  V30 2014 N 178.85 -1.27639 -0.924453 0
M  V30 2015 C 180.098 -1.13941 -1.66918 0
M  V30 2016 C 180.419 0.314589 -1.92446 0
M  V30 2017 O 179.689 1.21964 -1.53303 0
M  V30 2018 H 178.269 -0.418678 -0.618642 0
M  V30 2019 H 180.931 -1.60213 -1.10985 0
M  V30 2020 H 180.027 -1.67094 -2.63602 0
M  V30 2021 N 180.328 1.1314 -1.09713 0
M  V30 2022 C 181.261 2.17735 -0.683137 0
M  V30 2023 C 182.239 1.59582 0.311841 0
M  V30 2024 O 183.423 1.87298 0.212514 0
M  V30 2025 C 180.55 3.38699 -0.00684324 0
M  V30 2026 C 179.596 4.1546 -0.964102 0
M  V30 2027 S 180.429 4.74733 -2.47767 0
M  V30 2028 C 181.585 5.9904 -1.81387 0
M  V30 2029 H 181.818 2.52515 -1.56918 0
M  V30 2030 H 179.351 1.24484 -0.913404 0
M  V30 2031 H 181.309 4.08765 0.377044 0
M  V30 2032 H 179.97 3.02214 0.85589 0
M  V30 2033 H 179.163 5.02093 -0.43803 0
M  V30 2034 H 178.765 3.51066 -1.28953 0
M  V30 2035 H 181.057 6.67846 -1.13967 0
M  V30 2036 H 182 6.56261 -2.65947 0
M  V30 2037 H 182.408 5.4976 -1.28155 0
M  V30 2038 N 181.806 0.884767 1.30421 0
M  V30 2039 C 183.217 0.553656 1.78302 0
M  V30 2040 C 183.568 -0.930153 1.7275 0
M  V30 2041 O 182.693 -1.72681 1.30423 0
M  V30 2042 C 183.288 0.998234 3.2376 0
M  V30 2043 C 181.847 0.71854 3.69478 0
M  V30 2044 C 180.994 1.18132 2.50879 0
M  V30 2045 H 183.945 1.06901 1.17294 0
M  V30 2046 H 183.966 0.327118 3.79091 0
M  V30 2047 H 183.478 2.0782 3.27769 0
M  V30 2048 H 181.579 -0.349444 3.70958 0
M  V30 2049 H 181.692 1.30595 4.60958 0
M  V30 2050 H 180.056 0.600669 2.47516 0
M  V30 2051 H 180.839 2.26902 2.57624 0
M  V30 2052 N 183.284 -1.43765 0.645699 0
M  V30 2053 C 184.53 -2.02197 0.156271 0
M  V30 2054 C 184.863 -1.50776 -1.22393 0
M  V30 2055 O 184.138 -0.697771 -1.81553 0
M  V30 2056 C 184.421 -3.59749 0.158872 0
M  V30 2057 C 184.274 -4.21419 1.57245 0
M  V30 2058 C 185.593 -4.37149 -0.50879 0
M  V30 2059 H 182.712 -0.734694 0.0582602 0
M  V30 2060 H 185.354 -1.71157 0.824951 0
M  V30 2061 H 183.504 -3.86325 -0.410525 0
M  V30 2062 H 185.176 -4.059 2.19186 0
M  V30 2063 H 183.419 -3.78356 2.122 0
M  V30 2064 H 184.09 -5.30482 1.52619 0
M  V30 2065 H 186.566 -4.16093 -0.024412 0
M  V30 2066 H 185.442 -5.4683 -0.476213 0
M  V30 2067 H 185.703 -4.12839 -1.58165 0
M  V30 2068 N 184.763 -0.387143 -1.52771 0
M  V30 2069 C 186.003 0.195537 -2.03463 0
M  V30 2070 C 186.367 1.44222 -1.26744 0
M  V30 2071 O 187.568 2.10192 -1.67549 0
M  V30 2072 C 185.839 0.459097 -3.54439 0
M  V30 2073 S 187.398 1.01237 -4.26962 0
M  V30 2074 H 184.216 0.0552675 -0.708849 0
M  V30 2075 H 186.818 -0.534992 -1.88037 0
M  V30 2076 H 185.522 -0.455382 -4.07866 0
M  V30 2077 H 185.053 1.21811 -3.74066 0
M  V30 2078 H 187.068 2.29492 -4.39941 0
M  V30 2079 N 186.241 1.57166 -0.116904 0
M  V30 2080 C 187.151 2.18745 0.847812 0
M  V30 2081 C 188.167 1.163 1.29423 0
M  V30 2082 O 189.343 1.48761 1.35765 0
M  V30 2083 C 186.408 2.77307 2.0809 0
M  V30 2084 C 185.469 3.94781 1.68661 0
M  V30 2085 C 184.702 4.50541 2.86091 0
M  V30 2086 O 184.925 4.05202 4.01456 0
M  V30 2087 O 183.859 5.41256 2.63298 0
M  V30 2088 H 187.685 3.01632 0.353778 0
M  V30 2089 H 185.27 1.49005 0.108599 0
M  V30 2090 H 187.152 3.14647 2.80313 0
M  V30 2091 H 185.827 1.97452 2.56504 0
M  V30 2092 H 184.734 3.62214 0.935518 0
M  V30 2093 H 186.067 4.76065 1.24991 0
M  V30 2094 N 187.719 -0.156864 1.56817 0
M  V30 2095 C 188.966 -0.871125 1.82805 0
M  V30 2096 C 189.294 -1.81611 0.696262 0
M  V30 2097 O 188.549 -1.93141 -0.315459 0
M  V30 2098 C 188.848 -1.68737 3.1506 0
M  V30 2099 C 188.514 -0.890045 4.42028 0
M  V30 2100 C 187.176 -0.670042 4.76512 0
M  V30 2101 C 189.528 -0.331769 5.20143 0
M  V30 2102 C 186.856 0.119104 5.86579 0
M  V30 2103 C 189.208 0.444365 6.31037 0
M  V30 2104 C 187.872 0.675035 6.64078 0
M  V30 2105 H 187.142 -0.318767 0.668931 0
M  V30 2106 H 189.789 -0.135274 1.91022 0
M  V30 2107 H 188.094 -2.49304 3.0225 0
M  V30 2108 H 189.791 -2.24331 3.3238 0
M  V30 2109 H 186.381 -1.07157 4.14988 0
M  V30 2110 H 190.565 -0.489043 4.93885 0
M  V30 2111 H 185.821 0.307417 6.10627 0
M  V30 2112 H 189.995 0.884139 6.90765 0
M  V30 2113 H 187.622 1.28839 7.49203 0
M  V30 2114 N 189.197 -1.51736 -0.425897 0
M  V30 2115 C 190.474 -1.55519 -1.1863 0
M  V30 2116 C 190.854 -0.326219 -2.08564 0
M  V30 2117 O 190.202 0.688012 -2.17896 0
M  V30 2118 C 190.412 -2.87521 -1.9782 0
M  V30 2119 C 191.76 -3.39899 -2.54468 0
M  V30 2120 O 192.784 -2.89148 -2.08019 0
M  V30 2121 O 191.643 -4.2848 -3.39215 0
M  V30 2122 H 188.737 -0.625739 -0.540721 0
M  V30 2123 H 191.283 -1.64055 -0.434038 0
M  V30 2124 H 190.055 -3.68422 -1.31836 0
M  V30 2125 H 189.678 -2.822 -2.80088 0
M  V30 2126 N 190.675 0.682077 -1.42076 0
M  V30 2127 C 191.608 1.80666 -1.3941 0
M  V30 2128 C 192.586 1.60518 -0.25939 0
M  V30 2129 O 193.77 1.83088 -0.448456 0
M  V30 2130 C 190.897 3.17556 -1.17796 0
M  V30 2131 C 189.943 3.56468 -2.34164 0
M  V30 2132 S 190.776 3.59729 -3.96681 0
M  V30 2133 C 191.932 4.99323 -3.77395 0
M  V30 2134 H 192.165 1.82652 -2.34575 0
M  V30 2135 H 189.698 0.852062 -1.2876 0
M  V30 2136 H 191.656 3.96575 -1.06012 0
M  V30 2137 H 190.317 3.13164 -0.242279 0
M  V30 2138 H 189.51 4.5595 -2.1477 0
M  V30 2139 H 189.112 2.84792 -2.42425 0
M  V30 2140 H 191.404 5.87202 -3.37935 0
M  V30 2141 H 192.347 5.23763 -4.76527 0
M  V30 2142 H 192.755 4.71498 -3.10403 0
M  V30 2143 N 192.153 1.28127 0.917671 0
M  V30 2144 C 193.399 1.15223 1.66888 0
M  V30 2145 C 193.732 -0.299293 1.9188 0
M  V30 2146 O 193.007 -1.21805 1.51637 0
M  V30 2147 C 193.29 1.94706 3.02922 0
M  V30 2148 C 193.143 3.47898 2.85109 0
M  V30 2149 C 194.462 1.75939 4.03402 0
M  V30 2150 H 191.581 0.419946 0.605652 0
M  V30 2151 H 194.223 1.57398 1.06423 0
M  V30 2152 H 192.373 1.58864 3.54534 0
M  V30 2153 H 194.045 3.93624 2.40537 0
M  V30 2154 H 192.288 3.7373 2.20246 0
M  V30 2155 H 192.959 3.98765 3.81694 0
M  V30 2156 H 195.435 2.07209 3.60837 0
M  V30 2157 H 194.311 2.33931 4.96556 0
M  V30 2158 H 194.572 0.709877 4.36364 0
M  V30 2159 N 193.631 -1.12557 1.10312 0
M  V30 2160 C 194.578 -2.18247 0.750781 0
M  V30 2161 C 195.548 -1.63853 -0.272293 0
M  V30 2162 O 196.733 -1.90195 -0.151862 0
M  V30 2163 C 193.873 -3.44591 0.187379 0
M  V30 2164 C 192.986 -4.13046 1.2656 0
M  V30 2165 C 192.121 -5.27034 0.663978 0
M  V30 2166 C 191.16 -5.87353 1.72287 0
M  V30 2167 N 190.297 -6.92757 1.1416 0
M  V30 2168 H 195.137 -2.47732 1.65628 0
M  V30 2169 H 192.674 -1.21629 0.827337 0
M  V30 2170 H 194.632 -4.16904 -0.157148 0
M  V30 2171 H 193.262 -3.15527 -0.681355 0
M  V30 2172 H 192.314 -3.38924 1.72727 0
M  V30 2173 H 193.626 -4.53947 2.06721 0
M  V30 2174 H 192.78 -6.06104 0.268824 0
M  V30 2175 H 191.519 -4.87407 -0.169082 0
M  V30 2176 H 190.524 -5.06971 2.12746 0
M  V30 2177 H 191.749 -6.29051 2.55875 0
M  V30 2178 H 189.695 -6.5517 0.329984 0
M  V30 2179 H 189.612 -7.3225 1.88007 0
M  V30 2180 H 190.88 -7.75658 0.772956 0
M  V30 2181 N 195.109 -0.891671 -1.2995 0
M  V30 2182 C 196.386 -0.433307 -1.9074 0
M  V30 2183 C 196.766 1.08646 -1.80995 0
M  V30 2184 O 196.114 1.92476 -1.23147 0
M  V30 2185 C 196.324 -0.938895 -3.36134 0
M  V30 2186 C 197.672 -0.977829 -4.13187 0
M  V30 2187 O 198.696 -0.886015 -3.45005 0
M  V30 2188 O 197.555 -1.11453 -5.35015 0
M  V30 2189 H 194.649 -0.133699 -0.816121 0
M  V30 2190 H 197.195 -0.981011 -1.38471 0
M  V30 2191 H 195.967 -1.98281 -3.37343 0
M  V30 2192 H 195.59 -0.37074 -3.95868 0
M  V30 2193 N 196.587 1.43421 -0.653314 0
M  V30 2194 C 197.998 1.85065 -0.246537 0
M  V30 2195 C 198.349 1.54688 1.2069 0
M  V30 2196 O 197.474 0.995896 1.92122 0
M  V30 2197 C 198.069 3.35922 -0.440666 0
M  V30 2198 C 196.628 3.76297 -0.0882064 0
M  V30 2199 C 195.775 2.67147 -0.743484 0
M  V30 2200 H 198.726 1.33572 -0.856979 0
M  V30 2201 H 198.747 3.79204 0.313798 0
M  V30 2202 H 198.259 3.58 -1.49858 0
M  V30 2203 H 196.36 3.5983 0.96711 0
M  V30 2204 H 196.473 4.76338 -0.513738 0
M  V30 2205 H 194.837 2.54086 -0.176712 0
M  V30 2206 H 195.62 2.92053 -1.80443 0
M  V30 2207 N 198.065 0.39524 1.52563 0
M  V30 2208 C 198.975 -0.444232 2.30356 0
M  V30 2209 C 199.991 -1.06615 1.37511 0
M  V30 2210 O 201.167 -1.07067 1.70583 0
M  V30 2211 C 198.232 -1.55315 3.09964 0
M  V30 2212 C 197.293 -0.955734 4.18526 0
M  V30 2213 C 196.526 -2.01181 4.9433 0
M  V30 2214 O 196.749 -3.22781 4.70285 0
M  V30 2215 O 195.683 -1.62579 5.79527 0
M  V30 2216 H 199.509 0.189667 3.03107 0
M  V30 2217 H 197.094 0.1588 1.48554 0
M  V30 2218 H 198.976 -2.19724 3.59582 0
M  V30 2219 H 197.651 -2.17191 2.4002 0
M  V30 2220 H 196.558 -0.274743 3.7309 0
M  V30 2221 H 197.891 -0.381109 4.90722 0
M  V30 2222 N 199.544 -1.57102 0.125237 0
M  V30 2223 C 200.79 -1.95697 -0.532035 0
M  V30 2224 C 201.123 -1.009 -1.6593 0
M  V30 2225 O 200.398 -0.047347 -1.94442 0
M  V30 2226 C 200.681 -3.44181 -1.05884 0
M  V30 2227 C 200.534 -4.49752 0.0654392 0
M  V30 2228 C 201.853 -3.94655 -1.9477 0
M  V30 2229 H 198.972 -0.711571 -0.191925 0
M  V30 2230 H 201.614 -1.88923 0.20206 0
M  V30 2231 H 199.764 -3.50085 -1.68442 0
M  V30 2232 H 201.436 -4.55943 0.700982 0
M  V30 2233 H 199.679 -4.27653 0.727709 0
M  V30 2234 H 200.35 -5.50924 -0.344505 0
M  V30 2235 H 202.826 -3.91094 -1.42074 0
M  V30 2236 H 201.702 -4.99057 -2.28546 0
M  V30 2237 H 201.963 -3.35718 -2.87656 0
M  V30 2238 N 201.022 0.148545 -1.56898 0
M  V30 2239 C 201.954 1.20852 -1.9475 0
M  V30 2240 C 202.967 1.39265 -0.843152 0
M  V30 2241 O 204.156 1.38864 -1.12156 0
M  V30 2242 C 201.256 2.57362 -2.20495 0
M  V30 2243 C 200.429 2.59947 -3.51776 0
M  V30 2244 C 199.488 3.77984 -3.6608 0
M  V30 2245 O 198.514 3.62929 -4.38487 0
M  V30 2246 N 199.716 4.95375 -3.02629 0
M  V30 2247 H 202.481 0.886804 -2.86279 0
M  V30 2248 H 200.042 0.338121 -1.5833 0
M  V30 2249 H 202.034 3.34833 -2.27307 0
M  V30 2250 H 200.604 2.81832 -1.35238 0
M  V30 2251 H 199.824 1.68403 -3.56419 0
M  V30 2252 H 201.112 2.58704 -4.38121 0
M  V30 2253 H 200.51 5.10509 -2.43715 0
M  V30 2254 H 199.067 5.70627 -3.15004 0
M  V30 2255 N 202.5 1.5196 0.417844 0
M  V30 2256 C 203.777 1.56146 1.17803 0
M  V30 2257 C 204.157 0.337275 2.08388 0
M  V30 2258 O 203.505 -0.676447 2.18258 0
M  V30 2259 C 203.715 2.88566 1.96293 0
M  V30 2260 C 205.063 3.41244 2.52662 0
M  V30 2261 O 206.087 2.90247 2.06483 0
M  V30 2262 O 204.946 4.30273 3.36938 0
M  V30 2263 H 202.04 0.628598 0.537395 0
M  V30 2264 H 204.586 1.64283 0.425331 0
M  V30 2265 H 203.358 3.69116 1.2988 0
M  V30 2266 H 202.981 2.83681 2.78587 0
M  V30 2267 N 203.978 -0.674533 1.42435 0
M  V30 2268 C 205.225 -1.43459 1.42919 0
M  V30 2269 C 205.553 -1.94446 0.0457312 0
M  V30 2270 O 204.808 -1.7132 -0.94593 0
M  V30 2271 C 205.107 -2.64767 2.40069 0
M  V30 2272 C 204.773 -2.3232 3.86443 0
M  V30 2273 C 203.435 -2.23182 4.26314 0
M  V30 2274 C 205.787 -2.05977 4.78773 0
M  V30 2275 C 203.115 -1.85827 5.56494 0
M  V30 2276 C 205.467 -1.70125 6.09295 0
M  V30 2277 C 204.131 -1.59498 6.48164 0
M  V30 2278 H 203.401 -0.524952 0.522978 0
M  V30 2279 H 206.048 -0.769097 1.75377 0
M  V30 2280 H 204.353 -3.36349 2.00939 0
M  V30 2281 H 206.05 -3.22949 2.37707 0
M  V30 2282 H 202.64 -2.40334 3.54877 0
M  V30 2283 H 206.824 -2.11969 4.48757 0
M  V30 2284 H 202.08 -1.76168 5.8547 0
M  V30 2285 H 206.254 -1.48767 6.80324 0
M  V30 2286 H 203.881 -1.30322 7.48946 0
M  V30 2287 N 205.456 -1.28612 -0.910864 0
M  V30 2288 C 206.872 -1.06381 -1.18976 0
M  V30 2289 C 207.072 0.191998 -2.00583 0
M  V30 2290 O 206.128 0.892869 -2.36187 0
M  V30 2291 C 207.441 -2.31295 -1.92154 0
M  V30 2292 C 208.989 -2.36503 -2.05025 0
M  V30 2293 C 209.464 -3.61191 -2.81612 0
M  V30 2294 N 210.955 -3.61847 -2.89172 0
M  V30 2295 C 211.69 -4.55004 -3.4894 0
M  V30 2296 N 211.186 -5.58482 -4.09963 0
M  V30 2297 N 212.979 -4.42594 -3.46506 0
M  V30 2298 H 205.13 -2.09221 -0.366094 0
M  V30 2299 H 207.393 -0.921003 -0.224629 0
M  V30 2300 H 207.099 -3.228 -1.39618 0
M  V30 2301 H 206.973 -2.37934 -2.9269 0
M  V30 2302 H 209.36 -1.45494 -2.5674 0
M  V30 2303 H 209.441 -2.33857 -1.03657 0
M  V30 2304 H 209.085 -4.52545 -2.30576 0
M  V30 2305 H 209.015 -3.61092 -3.83302 0
M  V30 2306 H 211.506 -2.87022 -2.45819 0
M  V30 2307 H 211.819 -6.25704 -4.53557 0
M  V30 2308 H 210.164 -5.62305 -4.08459 0
M  V30 2309 H 213.355 -3.60953 -2.98045 0
M  V30 2310 H 213.528 -5.15381 -3.92793 0
M  V30 2311 N 206.934 1.1197 -1.10907 0
M  V30 2312 C 208.35 1.35591 -0.841852 0
M  V30 2313 C 208.55 1.94233 0.536246 0
M  V30 2314 O 207.606 2.1717 1.28816 0
M  V30 2315 C 208.919 2.29284 -1.94549 0
M  V30 2316 C 210.467 2.42862 -1.97451 0
M  V30 2317 C 210.942 3.39873 -3.07002 0
M  V30 2318 N 212.433 3.47433 -3.06341 0
M  V30 2319 C 213.168 4.22421 -3.87748 0
M  V30 2320 N 212.664 5.00432 -4.79103 0
M  V30 2321 N 214.457 4.17876 -3.75946 0
M  V30 2322 H 206.608 0.722664 -1.99728 0
M  V30 2323 H 208.871 0.380635 -0.868229 0
M  V30 2324 H 208.577 1.93378 -2.93765 0
M  V30 2325 H 208.451 3.29452 -1.83688 0
M  V30 2326 H 210.838 2.78046 -0.988645 0
M  V30 2327 H 210.919 1.42566 -2.12388 0
M  V30 2328 H 210.563 3.05417 -4.05811 0
M  V30 2329 H 210.493 4.40011 -2.89306 0
M  V30 2330 H 212.984 2.91784 -2.40147 0
M  V30 2331 H 213.297 5.55002 -5.37766 0
M  V30 2332 H 211.642 4.99612 -4.83128 0
M  V30 2333 H 214.833 3.56016 -3.03924 0
M  V30 2334 H 215.006 4.76061 -4.39624 0
M  V30 2335 N 208.412 0.89855 1.29475 0
M  V30 2336 C 209.36 0.365253 2.29714 0
M  V30 2337 C 210.354 -0.534993 1.6073 0
M  V30 2338 O 211.56 -0.417921 1.75081 0
M  V30 2339 H 207.935 0.0994853 0.74539 0
M  V30 2340 H 209.906 1.22406 2.72138 0
M  V30 2341 C 208.655 -0.393159 3.4547 0
M  V30 2342 H 207.978 0.290332 3.98744 0
M  V30 2343 H 209.418 -0.731189 4.17648 0
M  V30 2344 C 207.877 -1.59539 2.9673 0
M  V30 2345 O 208.407 -2.69469 2.97908 0
M  V30 2346 N 206.613 -1.43716 2.52575 0
M  V30 2347 H 206.16 -0.542828 2.51816 0
M  V30 2348 H 206.118 -2.24288 2.20323 0
M  V30 2349 N 209.89 -1.43072 0.660911 0
M  V30 2350 C 211.139 -2.00942 0.174735 0
M  V30 2351 C 211.452 -1.52797 -1.22117 0
M  V30 2352 O 212.658 -2.02991 -1.80297 0
M  V30 2353 C 211.114 -3.58948 0.261559 0
M  V30 2354 C 210.722 -4.16085 1.66064 0
M  V30 2355 C 212.466 -4.24173 -0.166617 0
M  V30 2356 C 210.373 -5.6641 1.70098 0
M  V30 2357 H 209.303 -0.751483 0.0615631 0
M  V30 2358 H 211.954 -1.63955 0.824069 0
M  V30 2359 H 210.336 -3.93372 -0.455421 0
M  V30 2360 H 211.51 -3.93147 2.40359 0
M  V30 2361 H 209.825 -3.6326 2.03546 0
M  V30 2362 H 212.422 -5.34471 -0.156433 0
M  V30 2363 H 212.765 -3.98647 -1.19943 0
M  V30 2364 H 213.298 -3.94659 0.498875 0
M  V30 2365 H 210.037 -5.96715 2.71315 0
M  V30 2366 H 209.557 -5.91382 1.00139 0
M  V30 2367 H 211.236 -6.30585 1.44816 0
M  V30 2368 N 211.368 -0.403325 -1.52352 0
M  V30 2369 C 212.298 0.416205 -2.29761 0
M  V30 2370 C 213.279 1.05123 -1.33728 0
M  V30 2371 O 214.464 1.06134 -1.62632 0
M  V30 2372 C 211.594 1.53624 -3.11475 0
M  V30 2373 C 210.548 1.02653 -4.15507 0
M  V30 2374 C 209.874 2.23971 -4.85532 0
M  V30 2375 C 211.174 0.08463 -5.22231 0
M  V30 2376 H 212.868 -0.229701 -2.98518 0
M  V30 2377 H 210.414 -0.111913 -1.43564 0
M  V30 2378 H 212.367 2.1165 -3.64393 0
M  V30 2379 H 211.091 2.20994 -2.40477 0
M  V30 2380 H 209.75 0.46871 -3.63591 0
M  V30 2381 H 209.398 2.89883 -4.11068 0
M  V30 2382 H 209.098 1.90521 -5.55856 0
M  V30 2383 H 210.622 2.82614 -5.41259 0
M  V30 2384 H 212.036 0.573509 -5.70424 0
M  V30 2385 H 210.433 -0.160783 -5.99885 0
M  V30 2386 H 211.503 -0.86237 -4.7717 0
M  V30 2387 N 212.846 1.57033 -0.133567 0
M  V30 2388 C 213.794 2.17348 0.828412 0
M  V30 2389 C 214.788 1.12671 1.26498 0
M  V30 2390 O 215.994 1.30947 1.23502 0
M  V30 2391 H 212.369 0.695775 0.285309 0
M  V30 2392 H 214.34 2.96935 0.295372 0
M  V30 2393 C 213.089 2.79893 2.06289 0
M  V30 2394 H 212.412 3.60147 1.73592 0
M  V30 2395 H 213.852 3.25615 2.71572 0
M  V30 2396 C 212.311 1.77713 2.86216 0
M  V30 2397 O 212.841 1.23937 3.82103 0
M  V30 2398 N 211.047 1.47321 2.50489 0
M  V30 2399 H 210.594 1.91243 1.7258 0
M  V30 2400 H 210.552 0.79199 3.04261 0
M  V30 2401 N 214.325 -0.140222 1.56975 0
M  V30 2402 C 215.571 -0.852949 1.83991 0
M  V30 2403 C 215.904 -1.80512 0.716187 0
M  V30 2404 O 215.179 -1.92479 -0.279681 0
M  V30 2405 C 215.462 -1.6215 3.21527 0
M  V30 2406 C 215.315 -0.690363 4.4447 0
M  V30 2407 C 216.634 -2.58247 3.56366 0
M  V30 2408 H 213.753 -0.308634 0.669264 0
M  V30 2409 H 216.395 -0.117898 1.89634 0
M  V30 2410 H 214.545 -2.24812 3.16847 0
M  V30 2411 H 216.217 -0.0742264 4.6124 0
M  V30 2412 H 214.46 -0.000396433 4.338 0
M  V30 2413 H 215.131 -1.2643 5.37326 0
M  V30 2414 H 217.607 -2.05701 3.61699 0
M  V30 2415 H 216.483 -3.09067 4.53617 0
M  V30 2416 H 216.744 -3.39923 2.82674 0
M  V30 2417 N 215.803 -1.52179 -0.40978 0
M  V30 2418 C 217.043 -1.67882 -1.16597 0
M  V30 2419 C 217.407 -0.399795 -1.87791 0
M  V30 2420 O 218.608 -0.43292 -2.65291 0
M  V30 2421 C 216.879 -2.86662 -2.13448 0
M  V30 2422 S 218.438 -3.22843 -2.97183 0
M  V30 2423 H 215.256 -0.59118 -0.395002 0
M  V30 2424 H 217.858 -1.9017 -0.453373 0
M  V30 2425 H 216.562 -3.77998 -1.59831 0
M  V30 2426 H 216.093 -2.66645 -2.89247 0
M  V30 2427 H 218.108 -2.71415 -4.15389 0
M  V30 2428 N 217.281 0.66697 -1.42791 0
M  V30 2429 C 218.228 1.7803 -1.4688 0
M  V30 2430 C 219.198 1.6299 -0.319919 0
M  V30 2431 O 220.383 1.83432 -0.525118 0
M  V30 2432 C 217.523 3.1611 -1.38451 0
M  V30 2433 C 216.636 3.42381 -2.63437 0
M  V30 2434 C 215.771 4.70232 -2.47094 0
M  V30 2435 C 214.81 4.89564 -3.67415 0
M  V30 2436 N 213.947 6.08661 -3.49966 0
M  V30 2437 H 218.787 1.7387 -2.42019 0
M  V30 2438 H 216.324 0.84868 -1.20149 0
M  V30 2439 H 218.282 3.95914 -1.31561 0
M  V30 2440 H 216.912 3.19374 -0.469033 0
M  V30 2441 H 215.964 2.56774 -2.80662 0
M  V30 2442 H 217.276 3.52557 -3.52853 0
M  V30 2443 H 216.43 5.5814 -2.37834 0
M  V30 2444 H 215.169 4.62353 -1.5518 0
M  V30 2445 H 214.174 4.00096 -3.77099 0
M  V30 2446 H 215.399 4.99282 -4.6032 0
M  V30 2447 H 213.345 6.0194 -2.60776 0
M  V30 2448 H 213.262 6.19733 -4.32975 0
M  V30 2449 H 214.53 6.99226 -3.44532 0
M  V30 2450 N 218.759 1.29093 0.90403 0
M  V30 2451 C 219.669 1.15727 2.0407 0
M  V30 2452 C 220.685 0.0815308 1.73809 0
M  V30 2453 O 221.861 0.292749 1.99261 0
M  V30 2454 C 218.926 0.830424 3.36608 0
M  V30 2455 C 217.987 1.98955 3.80415 0
M  V30 2456 C 217.22 1.6782 5.06628 0
M  V30 2457 O 217.443 0.597105 5.67266 0
M  V30 2458 O 216.377 2.52486 5.46383 0
M  V30 2459 H 220.203 2.11171 2.18267 0
M  V30 2460 H 217.788 1.08504 1.027 0
M  V30 2461 H 219.67 0.662521 4.16159 0
M  V30 2462 H 218.345 -0.0942678 3.23563 0
M  V30 2463 H 217.252 2.21267 3.01648 0
M  V30 2464 H 218.585 2.89529 3.98037 0
M  V30 2465 N 220.237 -1.11381 1.11499 0
M  V30 2466 C 221.2 -2.15622 0.777153 0
M  V30 2467 C 222.2 -1.59504 -0.203779 0
M  V30 2468 O 223.39 -1.74188 0.020782 0
M  V30 2469 C 220.522 -3.40556 0.153116 0
M  V30 2470 H 221.715 -2.47021 1.70061 0
M  V30 2471 H 219.268 -1.26577 0.916952 0
M  V30 2472 H 220.003 -3.14767 -0.780536 0
M  V30 2473 H 219.788 -3.8257 0.859238 0
M  V30 2474 H 221.278 -4.17546 -0.0671044 0
M  V30 2475 N 221.715 -0.905404 -1.28997 0
M  V30 2476 C 222.961 -0.535039 -1.95615 0
M  V30 2477 C 223.294 0.917404 -1.71165 0
M  V30 2478 O 222.569 1.65123 -1.02785 0
M  V30 2479 C 222.852 -0.834918 -3.50287 0
M  V30 2480 C 222.705 -2.33948 -3.84172 0
M  V30 2481 C 224.024 -0.325318 -4.38896 0
M  V30 2482 H 221.143 -0.195861 -0.710498 0
M  V30 2483 H 223.785 -1.13313 -1.52513 0
M  V30 2484 H 221.935 -0.325904 -3.87131 0
M  V30 2485 H 223.607 -2.91847 -3.57243 0
M  V30 2486 H 221.85 -2.79789 -3.31513 0
M  V30 2487 H 222.521 -2.49987 -4.92149 0
M  V30 2488 H 224.997 -0.761256 -4.09077 0
M  V30 2489 H 223.873 -0.564295 -5.45992 0
M  V30 2490 H 224.134 0.774144 -4.35269 0
M  V30 2491 N 223.193 1.4272 -0.668489 0
M  V30 2492 C 224.47 1.95248 -0.117373 0
M  V30 2493 C 224.85 1.60919 1.36632 0
M  V30 2494 O 224.198 0.902095 2.09939 0
M  V30 2495 C 224.408 3.46927 -0.379806 0
M  V30 2496 C 225.756 4.23588 -0.292923 0
M  V30 2497 O 226.78 3.5482 -0.313204 0
M  V30 2498 O 225.639 5.46017 -0.229697 0
M  V30 2499 H 222.733 0.827 0.00079152 0
M  V30 2500 H 225.279 1.52581 -0.742783 0
M  V30 2501 H 224.051 3.65096 -1.40786 0
M  V30 2502 H 223.674 3.96627 0.277923 0
M  V30 2503 N 224.671 0.411399 1.52136 0
M  V30 2504 C 225.601 -0.404015 2.29978 0
M  V30 2505 C 226.582 -1.04412 1.34284 0
M  V30 2506 O 227.767 -1.0527 1.63192 0
M  V30 2507 C 224.897 -1.5197 3.12286 0
M  V30 2508 C 223.851 -1.00448 4.16046 0
M  V30 2509 C 223.177 -2.21393 4.86712 0
M  V30 2510 C 224.477 -0.0569336 5.22269 0
M  V30 2511 H 226.171 0.245529 2.98392 0
M  V30 2512 H 223.717 0.119525 1.43503 0
M  V30 2513 H 225.67 -2.09715 3.6551 0
M  V30 2514 H 224.394 -2.19716 2.41646 0
M  V30 2515 H 223.053 -0.449421 3.63835 0
M  V30 2516 H 222.701 -2.87699 4.12599 0
M  V30 2517 H 222.401 -1.87571 5.56858 0
M  V30 2518 H 223.925 -2.7974 5.4275 0
M  V30 2519 H 225.339 -0.54325 5.7072 0
M  V30 2520 H 223.736 0.192594 5.99791 0
M  V30 2521 H 224.806 0.887663 4.76706 0
M  V30 2522 N 226.149 -1.5696 0.141893 0
M  V30 2523 C 227.565 -1.58151 -0.21456 0
M  V30 2524 C 227.765 -1.1559 -1.65049 0
M  V30 2525 O 226.821 -0.853832 -2.37626 0
M  V30 2526 C 228.134 -3.00674 0.0395576 0
M  V30 2527 C 229.682 -3.1299 -0.0245529 0
M  V30 2528 C 230.157 -4.57554 0.202167 0
M  V30 2529 N 231.648 -4.62961 0.148919 0
M  V30 2530 C 232.383 -5.7262 0.298924 0
M  V30 2531 N 231.879 -6.90947 0.50637 0
M  V30 2532 N 233.672 -5.61601 0.236886 0
M  V30 2533 H 225.823 -1.8292 1.07953 0
M  V30 2534 H 228.086 -0.846425 0.42693 0
M  V30 2535 H 227.792 -3.36183 1.03315 0
M  V30 2536 H 227.666 -3.70981 -0.682143 0
M  V30 2537 H 230.053 -2.77326 -1.00869 0
M  V30 2538 H 230.134 -2.4518 0.729396 0
M  V30 2539 H 229.778 -4.93922 1.18338 0
M  V30 2540 H 229.708 -5.23484 -0.572044 0
M  V30 2541 H 232.199 -3.77899 -0.00697015 0
M  V30 2542 H 232.512 -7.7038 0.611076 0
M  V30 2543 H 230.857 -6.92878 0.542628 0
M  V30 2544 H 234.048 -4.68039 0.0756209 0
M  V30 2545 H 234.221 -6.47015 0.357227 0
M  V30 2546 N 227.627 0.131896 -1.57047 0
M  V30 2547 C 228.904 0.871495 -1.75112 0
M  V30 2548 C 229.284 1.9866 -0.713949 0
M  V30 2549 O 228.632 2.26965 0.264447 0
M  V30 2550 C 228.842 1.40007 -3.19686 0
M  V30 2551 C 230.19 1.85752 -3.81813 0
M  V30 2552 O 231.214 1.49715 -3.23209 0
M  V30 2553 O 230.073 2.5226 -4.84796 0
M  V30 2554 H 227.167 0.412919 -0.716538 0
M  V30 2555 H 229.713 0.116641 -1.69299 0
M  V30 2556 H 228.485 0.599404 -3.86682 0
M  V30 2557 H 228.108 2.218 -3.29986 0
M  V30 2558 N 229.106 1.52395 0.401703 0
M  V30 2559 C 230.036 1.79231 1.49661 0
M  V30 2560 C 231.017 0.643654 1.57452 0
M  V30 2561 O 232.202 0.889989 1.72606 0
M  V30 2562 C 229.332 1.94971 2.87409 0
M  V30 2563 C 228.286 3.10604 2.94465 0
M  V30 2564 C 227.612 3.11577 4.34538 0
M  V30 2565 C 228.912 4.49921 2.6527 0
M  V30 2566 H 230.606 2.70917 1.27454 0
M  V30 2567 H 228.152 1.30362 0.6117 0
M  V30 2568 H 230.105 2.12328 3.63999 0
M  V30 2569 H 228.829 0.999632 3.10926 0
M  V30 2570 H 227.488 2.93009 2.20321 0
M  V30 2571 H 227.136 2.14277 4.55076 0
M  V30 2572 H 226.836 3.89247 4.40183 0
M  V30 2573 H 228.36 3.31073 5.13053 0
M  V30 2574 H 229.774 4.67683 3.31581 0
M  V30 2575 H 228.171 5.29564 2.82281 0
M  V30 2576 H 229.241 4.57507 1.60671 0
M  V30 2577 N 230.584 -0.659388 1.43143 0
M  V30 2578 C 231.532 -1.79374 1.4808 0
M  V30 2579 C 232.526 -1.65639 0.354988 0
M  V30 2580 O 233.732 -1.7206 0.528704 0
M  V30 2581 H 230.107 -0.591705 0.4641 0
M  V30 2582 H 232.078 -1.72329 2.43609 0
M  V30 2583 C 230.827 -3.17606 1.41499 0
M  V30 2584 H 230.15 -3.28809 2.27431 0
M  V30 2585 H 231.59 -3.96951 1.49015 0
M  V30 2586 C 230.049 -3.36642 0.131765 0
M  V30 2587 O 230.579 -3.93461 -0.809386 0
M  V30 2588 N 228.785 -2.90567 0.0439396 0
M  V30 2589 H 228.332 -2.44513 0.810619 0
M  V30 2590 H 228.29 -3.03681 -0.813969 0
M  V30 2591 N 232.062 -1.29571 -0.897171 0
M  V30 2592 C 233.287 -1.20705 -1.68656 0
M  V30 2593 C 233.712 0.228582 -1.86706 0
M  V30 2594 O 233.07 1.16494 -1.3892 0
M  V30 2595 C 233.118 -1.9282 -3.04717 0
M  V30 2596 O 232.222 -1.24697 -3.93096 0
M  V30 2597 H 231.563 -0.418126 -0.515816 0
M  V30 2598 H 234.093 -1.71183 -1.12061 0
M  V30 2599 H 234.103 -2.01372 -3.54843 0
M  V30 2600 H 232.778 -2.97239 -2.90899 0
M  V30 2601 H 231.355 -1.2442 -3.51531 0
M  V30 2602 N 233.54 1.10788 -1.12088 0
M  V30 2603 C 234.951 1.64181 -0.88891 0
M  V30 2604 C 235.302 1.87508 0.577498 0
M  V30 2605 O 234.427 1.61434 1.44112 0
M  V30 2606 C 235.022 2.98257 -1.60712 0
M  V30 2607 C 233.581 3.4853 -1.42139 0
M  V30 2608 C 232.728 2.23208 -1.6454 0
M  V30 2609 H 235.679 0.943368 -1.27618 0
M  V30 2610 H 235.7 3.65552 -1.05604 0
M  V30 2611 H 235.212 2.81246 -2.67436 0
M  V30 2612 H 233.313 3.70692 -0.376552 0
M  V30 2613 H 233.426 4.26882 -2.17505 0
M  V30 2614 H 231.79 2.31169 -1.06925 0
M  V30 2615 H 232.573 2.08733 -2.72554 0
M  V30 2616 N 235.018 0.912232 1.28515 0
M  V30 2617 C 235.968 0.370649 2.24967 0
M  V30 2618 C 236.952 -0.516375 1.52389 0
M  V30 2619 O 238.144 -0.356345 1.73376 0
M  V30 2620 C 235.273 -0.389526 3.41083 0
M  V30 2621 C 234.359 0.51313 4.20984 0
M  V30 2622 N 234.75 1.62604 4.78951 0
M  V30 2623 C 233.048 0.313235 4.44899 0
M  V30 2624 C 233.749 2.18619 5.39055 0
M  V30 2625 N 232.725 1.47765 5.23132 0
M  V30 2626 H 236.527 1.22061 2.67354 0
M  V30 2627 H 234.041 0.764712 1.43269 0
M  V30 2628 H 236.038 -0.794353 4.09262 0
M  V30 2629 H 234.698 -1.2366 3.0023 0
M  V30 2630 H 235.709 2.00864 4.77362 0
M  V30 2631 H 232.386 -0.494452 4.14562 0
M  V30 2632 H 233.776 3.12228 5.94948 0
M  V30 2633 N 236.496 -1.42363 0.676048 0
M  V30 2634 C 237.721 -2.06377 0.205705 0
M  V30 2635 C 238.146 -1.50463 -1.12883 0
M  V30 2636 O 237.504 -0.623619 -1.70237 0
M  V30 2637 C 237.552 -3.60277 0.152655 0
M  V30 2638 O 236.656 -4.02935 -0.87845 0
M  V30 2639 H 235.997 -0.655588 0.105359 0
M  V30 2640 H 238.527 -1.82475 0.925412 0
M  V30 2641 H 238.537 -4.07993 -0.0230675 0
M  V30 2642 H 237.212 -4.00346 1.12675 0
M  V30 2643 H 235.789 -3.66764 -0.673668 0
M  V30 2644 N 237.974 -0.419461 -1.51915 0
M  V30 2645 C 239.39 -0.0708431 -1.59443 0
M  V30 2646 C 239.59 1.41796 -1.43164 0
M  V30 2647 O 238.646 2.18596 -1.26381 0
M  V30 2648 C 239.959 -0.574991 -2.95151 0
M  V30 2649 C 241.507 -0.533867 -3.08413 0
M  V30 2650 C 241.982 -1.01469 -4.46618 0
M  V30 2651 N 243.473 -0.971939 -4.52888 0
M  V30 2652 C 244.208 -1.31505 -5.58116 0
M  V30 2653 N 243.704 -1.73014 -6.70849 0
M  V30 2654 N 245.497 -1.23436 -5.48379 0
M  V30 2655 H 237.648 -1.38836 -1.60743 0
M  V30 2656 H 239.911 -0.570998 -0.756747 0
M  V30 2657 H 239.617 -1.61597 -3.12377 0
M  V30 2658 H 239.491 0.00979777 -3.77199 0
M  V30 2659 H 241.878 0.498086 -2.90866 0
M  V30 2660 H 241.959 -1.15484 -2.28248 0
M  V30 2661 H 241.603 -2.04502 -4.6491 0
M  V30 2662 H 241.533 -0.370433 -5.25295 0
M  V30 2663 H 244.024 -0.666893 -3.71969 0
M  V30 2664 H 244.337 -1.97479 -7.47143 0
M  V30 2665 H 242.682 -1.76926 -6.72103 0
M  V30 2666 H 245.873 -0.908869 -4.59192 0
M  V30 2667 H 246.046 -1.50506 -6.30279 0
M  V30 2668 N 239.452 1.56882 -0.150215 0
M  V30 2669 C 240.415 2.1573 0.774157 0
M  V30 2670 C 241.415 1.0999 1.17298 0
M  V30 2671 O 242.605 1.35613 1.09338 0
M  V30 2672 C 239.737 2.72302 2.05096 0
M  V30 2673 H 240.93 2.98752 0.262201 0
M  V30 2674 H 238.483 1.55985 0.099248 0
M  V30 2675 H 239.218 1.92956 2.6065 0
M  V30 2676 H 239.003 3.49665 1.77416 0
M  V30 2677 H 240.493 3.17632 2.71109 0
M  V30 2678 N 240.93 -0.123565 1.57115 0
M  V30 2679 C 241.863 -1.18202 1.95201 0
M  V30 2680 C 242.841 -1.40349 0.821031 0
M  V30 2681 O 244.025 -1.54578 1.07879 0
M  V30 2682 C 241.152 -2.53671 2.24429 0
M  V30 2683 C 240.198 -2.4798 3.46999 0
M  V30 2684 S 241.031 -1.92389 4.99747 0
M  V30 2685 C 242.187 -3.2954 5.32123 0
M  V30 2686 H 242.42 -0.857212 2.84674 0
M  V30 2687 H 239.953 -0.33014 1.50829 0
M  V30 2688 H 241.911 -3.3162 2.41947 0
M  V30 2689 H 240.572 -2.83332 1.35579 0
M  V30 2690 H 239.765 -3.47758 3.64801 0
M  V30 2691 H 239.367 -1.7815 3.28844 0
M  V30 2692 H 241.659 -4.25736 5.27025 0
M  V30 2693 H 242.602 -3.16569 6.33395 0
M  V30 2694 H 243.01 -3.27758 4.59603 0
M  V30 2695 N 242.408 -1.52605 -0.393616 0
M  V30 2696 C 243.638 -1.71046 -1.15874 0
M  V30 2697 C 244.046 -0.426483 -1.84331 0
M  V30 2698 O 243.389 0.608513 -1.73329 0
M  V30 2699 C 243.451 -2.80118 -2.25332 0
M  V30 2700 C 243.115 -4.21381 -1.76881 0
M  V30 2701 C 244.112 -5.04697 -1.24808 0
M  V30 2702 C 241.797 -4.67683 -1.83244 0
M  V30 2703 C 243.791 -6.32393 -0.797387 0
M  V30 2704 C 241.478 -5.95364 -1.37787 0
M  V30 2705 C 242.476 -6.77549 -0.861208 0
M  V30 2706 O 242.164 -8.02837 -0.413252 0
M  V30 2707 H 241.896 -0.576155 -0.353583 0
M  V30 2708 H 244.45 -2.00018 -0.467123 0
M  V30 2709 H 242.68 -2.46557 -2.97904 0
M  V30 2710 H 244.369 -2.87006 -2.87023 0
M  V30 2711 H 245.135 -4.70111 -1.19252 0
M  V30 2712 H 241.014 -4.03805 -2.22401 0
M  V30 2713 H 244.558 -6.9649 -0.393437 0
M  V30 2714 H 240.455 -6.29455 -1.43026 0
M  V30 2715 H 241.223 -8.16749 -0.53515 0
M  V30 2716 N 243.887 0.651787 -1.4349 0
M  V30 2717 C 245.133 1.41376 -1.45398 0
M  V30 2718 C 245.466 1.94041 -0.0784823 0
M  V30 2719 O 244.741 1.72379 0.900878 0
M  V30 2720 C 245.024 2.59414 -2.49752 0
M  V30 2721 C 244.877 2.12232 -3.96582 0
M  V30 2722 C 246.196 3.61626 -2.50827 0
M  V30 2723 H 243.315 0.512719 -0.529422 0
M  V30 2724 H 245.957 0.738796 -1.75048 0
M  V30 2725 H 244.107 3.16997 -2.246 0
M  V30 2726 H 245.779 1.59639 -4.32797 0
M  V30 2727 H 244.022 1.43592 -4.09346 0
M  V30 2728 H 244.693 2.9712 -4.65214 0
M  V30 2729 H 247.169 3.13805 -2.7325 0
M  V30 2730 H 246.045 4.41766 -3.25783 0
M  V30 2731 H 246.306 4.14314 -1.5426 0
M  V30 2732 N 245.365 1.30045 0.890287 0
M  V30 2733 C 246.595 1.21296 1.67245 0
M  V30 2734 C 247.003 -0.227471 1.87828 0
M  V30 2735 O 246.346 -1.16296 1.422 0
M  V30 2736 C 246.408 1.86519 3.07329 0
M  V30 2737 C 246.072 3.35837 3.09939 0
M  V30 2738 C 247.069 4.31915 2.89389 0
M  V30 2739 C 244.754 3.77196 3.31706 0
M  V30 2740 C 246.748 5.67325 2.90552 0
M  V30 2741 C 244.435 5.12725 3.32499 0
M  V30 2742 C 245.433 6.076 3.11947 0
M  V30 2743 O 245.121 7.40655 3.12547 0
M  V30 2744 H 244.853 0.4211 0.528821 0
M  V30 2745 H 247.407 1.72111 1.12103 0
M  V30 2746 H 245.637 1.30228 3.64112 0
M  V30 2747 H 247.326 1.71963 3.67673 0
M  V30 2748 H 248.092 4.01294 2.72375 0
M  V30 2749 H 243.971 3.03796 3.4674 0
M  V30 2750 H 247.515 6.41354 2.74429 0
M  V30 2751 H 243.412 5.42988 3.49047 0
M  V30 2752 H 244.18 7.49577 3.28749 0
M  V30 2753 N 246.843 -1.10192 1.12674 0
M  V30 2754 C 248.254 -1.63707 0.897604 0
M  V30 2755 C 248.605 -1.87812 -0.567546 0
M  V30 2756 O 247.73 -1.62196 -1.43253 0
M  V30 2757 C 248.325 -2.974 1.62292 0
M  V30 2758 C 246.884 -3.47772 1.43986 0
M  V30 2759 C 246.031 -2.22332 1.65722 0
M  V30 2760 H 248.982 -0.936587 1.28116 0
M  V30 2761 H 249.003 -3.64986 1.07541 0
M  V30 2762 H 248.515 -2.79824 2.68924 0
M  V30 2763 H 246.616 -3.70487 0.396206 0
M  V30 2764 H 246.729 -4.25723 2.19765 0
M  V30 2765 H 245.093 -2.30599 1.08149 0
M  V30 2766 H 245.876 -2.07285 2.73657 0
M  V30 2767 N 248.321 -0.919034 -1.28029 0
M  V30 2768 C 249.732 -0.600735 -1.76771 0
M  V30 2769 C 250.083 0.884024 -1.75156 0
M  V30 2770 O 249.208 1.69163 -1.34956 0
M  V30 2771 C 249.803 -1.08372 -3.21 0
M  V30 2772 C 248.362 -0.816248 -3.67443 0
M  V30 2773 C 247.509 -1.24742 -2.47658 0
M  V30 2774 H 250.46 -1.09974 -1.14418 0
M  V30 2775 H 250.481 -0.427512 -3.78091 0
M  V30 2776 H 249.993 -2.16437 -3.22144 0
M  V30 2777 H 248.094 0.250968 -3.71754 0
M  V30 2778 H 248.207 -1.4277 -4.57333 0
M  V30 2779 H 246.571 -0.666083 -2.45836 0
M  V30 2780 H 247.354 -2.33653 -2.51518 0
M  V30 2781 N 249.799 1.42003 -0.683588 0
M  V30 2782 C 250.747 2.326 0.000815408 0
M  V30 2783 C 251.741 1.50308 0.781278 0
M  V30 2784 O 252.947 1.66322 0.688251 0
M  V30 2785 H 249.322 0.751758 0.0190616 0
M  V30 2786 H 251.293 2.88011 -0.780528 0
M  V30 2787 C 250.042 3.34978 0.93195 0
M  V30 2788 H 249.365 3.98345 0.340817 0
M  V30 2789 H 250.805 4.00936 1.37936 0
M  V30 2790 C 249.264 2.67925 2.04249 0
M  V30 2791 O 249.794 2.51788 3.12995 0
M  V30 2792 N 248 2.2681 1.81675 0
M  V30 2793 H 247.547 2.40135 0.932363 0
M  V30 2794 H 247.505 1.8228 2.56167 0
M  V30 2795 N 251.277 0.427512 1.51691 0
M  V30 2796 C 252.523 -0.142439 2.02299 0
M  V30 2797 C 252.856 -1.43214 1.31162 0
M  V30 2798 O 252.131 -1.89833 0.423511 0
M  V30 2799 C 252.414 -0.371301 3.58181 0
M  V30 2800 C 252.267 0.936358 4.39946 0
M  V30 2801 C 253.586 -1.14542 4.24933 0
M  V30 2802 H 250.705 -0.0502937 0.735282 0
M  V30 2803 H 253.347 0.564584 1.81418 0
M  V30 2804 H 251.497 -0.973559 3.76104 0
M  V30 2805 H 253.169 1.57184 4.33694 0
M  V30 2806 H 251.412 1.5432 4.05423 0
M  V30 2807 H 252.083 0.730388 5.47147 0
M  V30 2808 H 254.559 -0.635362 4.11221 0
M  V30 2809 H 253.435 -1.27431 5.33903 0
M  V30 2810 H 253.696 -2.17093 3.85127 0
M  V30 2811 N 252.755 -1.56801 0.158532 0
M  V30 2812 C 253.665 -2.20916 -0.789518 0
M  V30 2813 C 254.681 -1.1969 -1.26294 0
M  V30 2814 O 255.857 -1.52308 -1.31773 0
M  V30 2815 C 252.922 -2.82727 -2.00665 0
M  V30 2816 C 251.983 -3.99114 -1.58134 0
M  V30 2817 C 251.216 -4.57968 -2.74045 0
M  V30 2818 O 251.439 -4.15704 -3.90572 0
M  V30 2819 O 250.373 -5.48047 -2.48855 0
M  V30 2820 H 254.199 -3.02464 -0.273681 0
M  V30 2821 H 251.784 -1.4924 -0.0690548 0
M  V30 2822 H 253.666 -3.21968 -2.71872 0
M  V30 2823 H 252.341 -2.04184 -2.51179 0
M  V30 2824 H 251.248 -3.64567 -0.839155 0
M  V30 2825 H 252.581 -4.79212 -1.12325 0
M  V30 2826 N 254.233 0.115231 -1.57178 0
M  V30 2827 C 255.458 0.840354 -1.89612 0
M  V30 2828 C 255.883 1.72464 -0.750845 0
M  V30 2829 O 255.241 1.78826 0.298478 0
M  V30 2830 C 255.289 1.64654 -3.20814 0
M  V30 2831 O 254.393 2.7538 -3.06985 0
M  V30 2832 H 253.734 0.232158 -0.622092 0
M  V30 2833 H 256.264 0.0964977 -2.04372 0
M  V30 2834 H 256.274 2.03499 -3.53627 0
M  V30 2835 H 254.949 0.997416 -4.03763 0
M  V30 2836 H 253.526 2.3971 -2.85646 0
M  V30 2837 N 255.711 1.52812 0.385517 0
M  V30 2838 C 256.936 1.72207 1.15583 0
M  V30 2839 C 257.361 0.441034 1.82857 0
M  V30 2840 O 256.719 -0.603465 1.70962 0
M  V30 2841 C 256.767 2.87476 2.17692 0
M  V30 2842 O 255.871 2.54693 3.24354 0
M  V30 2843 H 255.212 0.572526 0.336319 0
M  V30 2844 H 257.742 1.99618 0.448744 0
M  V30 2845 H 257.752 3.13072 2.6163 0
M  V30 2846 H 256.427 3.80408 1.68115 0
M  V30 2847 H 255.004 2.3985 2.85529 0
M  V30 2848 N 257.189 -0.644168 1.43834 0
M  V30 2849 C 258.6 -1.22554 1.40845 0
M  V30 2850 C 258.951 -1.9585 0.117115 0
M  V30 2851 O 258.076 -2.01734 -0.783086 0
M  V30 2852 C 258.671 -2.22907 2.55143 0
M  V30 2853 C 257.23 -2.76501 2.5539 0
M  V30 2854 C 256.377 -1.51287 2.32396 0
M  V30 2855 H 259.328 -0.43563 1.52604 0
M  V30 2856 H 259.349 -3.05259 2.2715 0
M  V30 2857 H 258.861 -1.69533 3.49114 0
M  V30 2858 H 256.962 -3.33914 1.65324 0
M  V30 2859 H 257.075 -3.23429 3.53455 0
M  V30 2860 H 255.439 -1.78957 1.81236 0
M  V30 2861 H 256.222 -0.998336 3.28463 0
M  V30 2862 N 258.668 -1.30515 -0.883378 0
M  V30 2863 C 259.578 -1.18959 -2.02203 0
M  V30 2864 C 260.594 -0.109172 -1.73657 0
M  V30 2865 O 261.77 -0.324413 -1.9877 0
M  V30 2866 C 258.835 -0.883871 -3.35244 0
M  V30 2867 C 257.896 -2.04982 -3.77201 0
M  V30 2868 C 257.129 -1.75859 -5.03894 0
M  V30 2869 O 257.352 -0.687276 -5.66244 0
M  V30 2870 O 256.286 -2.61146 -5.42297 0
M  V30 2871 H 260.112 -2.14616 -2.1488 0
M  V30 2872 H 257.697 -1.10124 -1.0096 0
M  V30 2873 H 259.579 -0.728644 -4.15053 0
M  V30 2874 H 258.254 0.0427798 -3.23672 0
M  V30 2875 H 257.161 -2.26038 -2.9809 0
M  V30 2876 H 258.494 -2.95825 -3.93381 0
M  V30 2877 N 260.146 1.09593 -1.13257 0
M  V30 2878 C 261.076 2.18214 -0.830946 0
M  V30 2879 C 262.057 1.68812 0.208966 0
M  V30 2880 O 263.242 1.9408 0.0682666 0
M  V30 2881 C 260.372 3.46051 -0.294296 0
M  V30 2882 C 259.326 4.08778 -1.26826 0
M  V30 2883 C 258.652 5.31419 -0.591449 0
M  V30 2884 C 259.952 4.51476 -2.62615 0
M  V30 2885 H 261.646 2.43703 -1.73923 0
M  V30 2886 H 259.192 1.17128 -0.837675 0
M  V30 2887 H 261.145 4.2134 -0.0709606 0
M  V30 2888 H 259.869 3.20079 0.649366 0
M  V30 2889 H 258.528 3.35505 -1.47756 0
M  V30 2890 H 258.176 5.01727 0.357633 0
M  V30 2891 H 257.876 5.74341 -1.24123 0
M  V30 2892 H 259.4 6.09433 -0.377355 0
M  V30 2893 H 260.814 5.17999 -2.45663 0
M  V30 2894 H 259.211 5.05277 -3.23752 0
M  V30 2895 H 260.281 3.63962 -3.20406 0
M  V30 2896 N 261.624 0.925811 1.2754 0
M  V30 2897 C 263.035 0.610102 1.7645 0
M  V30 2898 C 263.386 -0.874723 1.75622 0
M  V30 2899 O 262.511 -1.68444 1.35851 0
M  V30 2900 C 263.106 1.10073 3.20421 0
M  V30 2901 C 261.665 0.835723 3.67005 0
M  V30 2902 C 260.812 1.26054 2.46993 0
M  V30 2903 H 263.763 1.10579 1.13833 0
M  V30 2904 H 263.784 0.447557 3.77859 0
M  V30 2905 H 263.296 2.18143 3.20991 0
M  V30 2906 H 261.397 -0.231249 3.71882 0
M  V30 2907 H 261.51 1.45193 4.56569 0
M  V30 2908 H 259.874 0.679111 2.45479 0
M  V30 2909 H 260.657 2.34984 2.50275 0
M  V30 2910 N 263.102 -1.41638 0.69111 0
M  V30 2911 C 264.049 -2.30789 0.0229705 0
M  V30 2912 C 265.019 -1.46863 -0.775911 0
M  V30 2913 O 266.204 -1.75661 -0.74485 0
M  V30 2914 C 263.344 -3.32868 -0.910666 0
M  V30 2915 C 262.457 -4.31875 -0.103874 0
M  V30 2916 C 261.592 -5.21024 -1.03475 0
M  V30 2917 C 260.631 -6.11702 -0.220598 0
M  V30 2918 N 259.768 -6.93349 -1.10504 0
M  V30 2919 H 264.608 -2.87366 0.788978 0
M  V30 2920 H 262.145 -1.41535 0.400794 0
M  V30 2921 H 264.103 -3.90596 -1.46597 0
M  V30 2922 H 262.733 -2.77851 -1.64312 0
M  V30 2923 H 261.785 -3.76131 0.568285 0
M  V30 2924 H 263.097 -4.96003 0.527504 0
M  V30 2925 H 262.251 -5.83565 -1.65943 0
M  V30 2926 H 260.99 -4.57112 -1.69999 0
M  V30 2927 H 259.995 -5.48215 0.417187 0
M  V30 2928 H 261.22 -6.77668 0.440784 0
M  V30 2929 H 259.166 -6.3205 -1.75638 0
M  V30 2930 H 259.083 -7.54146 -0.529125 0
M  V30 2931 H 260.351 -7.60362 -1.71667 0
M  V30 2932 N 264.58 -0.43555 -1.51462 0
M  V30 2933 C 265.53 0.394701 -2.24558 0
M  V30 2934 C 266.514 0.99157 -1.26715 0
M  V30 2935 O 267.706 0.910007 -1.51815 0
M  V30 2936 C 264.835 1.4963 -3.08975 0
M  V30 2937 C 263.921 0.908912 -4.14246 0
M  V30 2938 N 264.312 0.0505335 -5.05775 0
M  V30 2939 C 262.61 1.17668 -4.30198 0
M  V30 2940 C 263.311 -0.279161 -5.8103 0
M  V30 2941 N 262.287 0.336767 -5.42556 0
M  V30 2942 H 266.089 -0.267106 -2.92684 0
M  V30 2943 H 263.603 -0.247518 -1.60503 0
M  V30 2944 H 265.6 2.10394 -3.59917 0
M  V30 2945 H 264.26 2.16046 -2.42393 0
M  V30 2946 H 265.271 -0.31577 -5.16936 0
M  V30 2947 H 261.948 1.83847 -3.74842 0
M  V30 2948 H 263.338 -0.977553 -6.64751 0
M  V30 2949 N 266.058 1.56714 -0.166846 0
M  V30 2950 C 267.307 1.95922 0.479318 0
M  V30 2951 C 267.62 1.05529 1.6469 0
M  V30 2952 O 268.826 1.34399 2.35901 0
M  V30 2953 C 267.282 3.48359 0.90412 0
M  V30 2954 C 266.89 4.47369 -0.237621 0
M  V30 2955 C 268.634 3.96394 1.51896 0
M  V30 2956 C 266.541 5.91039 0.206561 0
M  V30 2957 H 265.471 0.731495 0.18284 0
M  V30 2958 H 268.122 1.81728 -0.254363 0
M  V30 2959 H 266.504 3.57955 1.69365 0
M  V30 2960 H 267.678 4.49485 -1.01489 0
M  V30 2961 H 265.993 4.09366 -0.762128 0
M  V30 2962 H 268.59 5.01186 1.86325 0
M  V30 2963 H 268.933 3.39075 2.41524 0
M  V30 2964 H 269.466 3.89796 0.79395 0
M  V30 2965 H 266.205 6.52221 -0.654834 0
M  V30 2966 H 265.725 5.9224 0.949282 0
M  V30 2967 H 267.404 6.43707 0.651939 0
M  V30 2968 N 267.536 -0.106894 1.57237 0
M  V30 2969 C 268.766 -0.825191 1.89405 0
M  V30 2970 C 269.174 -1.73374 0.757496 0
M  V30 2971 O 268.517 -1.81552 -0.280115 0
M  V30 2972 C 268.579 -1.70102 3.1671 0
M  V30 2973 C 268.243 -0.965523 4.46684 0
M  V30 2974 C 269.24 -0.300741 5.19029 0
M  V30 2975 C 266.925 -0.943105 4.93367 0
M  V30 2976 C 268.919 0.376622 6.36286 0
M  V30 2977 C 266.606 -0.261949 6.10538 0
M  V30 2978 C 267.604 0.396748 6.81847 0
M  V30 2979 O 267.292 1.06701 7.96787 0
M  V30 2980 H 267.024 -0.241852 0.631255 0
M  V30 2981 H 269.578 -0.0921491 2.05193 0
M  V30 2982 H 267.808 -2.47601 2.97036 0
M  V30 2983 H 269.497 -2.29483 3.34802 0
M  V30 2984 H 270.263 -0.309599 4.84011 0
M  V30 2985 H 266.142 -1.44524 4.3776 0
M  V30 2986 H 269.686 0.891334 6.91882 0
M  V30 2987 H 265.583 -0.250896 6.45012 0
M  V30 2988 H 266.351 0.972707 8.127 0
M  V30 2989 N 269.014 -1.53014 -0.377408 0
M  V30 2990 C 269.962 -1.7927 -1.48206 0
M  V30 2991 C 270.956 -0.661195 -1.55963 0
M  V30 2992 O 272.162 -0.843908 -1.58991 0
M  V30 2993 H 268.537 -0.567425 -0.493491 0
M  V30 2994 H 270.508 -2.71753 -1.2326 0
M  V30 2995 C 269.257 -1.98894 -2.85196 0
M  V30 2996 H 268.58 -2.85395 -2.79981 0
M  V30 2997 H 270.02 -2.21249 -3.61698 0
M  V30 2998 C 268.479 -0.764691 -3.28107 0
M  V30 2999 O 269.009 0.0523226 -4.01666 0
M  V30 3000 N 267.215 -0.591493 -2.84517 0
M  V30 3001 H 266.762 -1.25749 -2.24822 0
M  V30 3002 H 266.72 0.226253 -3.13585 0
M  V30 3003 N 270.492 0.636531 -1.44174 0
M  V30 3004 C 271.439 1.74875 -1.50624 0
M  V30 3005 C 272.409 1.62275 -0.35442 0
M  V30 3006 O 273.594 1.82276 -0.563908 0
M  V30 3007 C 270.734 3.13102 -1.45125 0
M  V30 3008 C 269.847 3.36717 -2.7064 0
M  V30 3009 C 268.982 4.64885 -2.57013 0
M  V30 3010 C 268.021 4.8166 -3.77717 0
M  V30 3011 N 267.158 6.01101 -3.62798 0
M  V30 3012 H 271.998 1.68697 -2.45653 0
M  V30 3013 H 269.535 0.823004 -1.21922 0
M  V30 3014 H 271.493 3.93034 -1.39929 0
M  V30 3015 H 270.123 3.18308 -0.536671 0
M  V30 3016 H 269.175 2.50763 -2.86046 0
M  V30 3017 H 270.487 3.44993 -3.60252 0
M  V30 3018 H 269.641 5.52969 -2.49619 0
M  V30 3019 H 268.38 4.58957 -1.64953 0
M  V30 3020 H 267.385 3.92007 -3.85501 0
M  V30 3021 H 268.61 4.89406 -4.70807 0
M  V30 3022 H 266.556 5.96273 -2.73486 0
M  V30 3023 H 266.473 6.10409 -4.46023 0
M  V30 3024 H 267.741 6.91761 -3.59286 0
M  V30 3025 N 271.97 1.30982 0.876444 0
M  V30 3026 C 272.9 1.20668 1.99903 0
M  V30 3027 C 273.881 0.095354 1.69833 0
M  V30 3028 O 275.066 0.27885 1.92188 0
M  V30 3029 C 272.196 0.90655 3.3526 0
M  V30 3030 C 271.15 1.97675 3.79617 0
M  V30 3031 C 270.476 1.52943 5.1236 0
M  V30 3032 C 271.776 3.389 3.97422 0
M  V30 3033 H 273.47 2.14586 2.0879 0
M  V30 3034 H 271.016 1.03308 1.00317 0
M  V30 3035 H 272.969 0.821025 4.13324 0
M  V30 3036 H 271.693 -0.0682969 3.26529 0
M  V30 3037 H 270.352 2.05205 3.03787 0
M  V30 3038 H 270 0.54262 5.00065 0
M  V30 3039 H 269.7 2.24532 5.43009 0
M  V30 3040 H 271.224 1.45786 5.92941 0
M  V30 3041 H 272.638 3.34081 4.659 0
M  V30 3042 H 271.035 4.0865 4.3946 0
M  V30 3043 H 272.105 3.80163 3.01006 0
M  V30 3044 N 273.449 -1.08991 1.13837 0
M  V30 3045 C 274.726 -1.77863 0.813876 0
M  V30 3046 C 275.106 -1.99375 -0.693746 0
M  V30 3047 O 274.454 -1.59875 -1.63255 0
M  V30 3048 C 274.664 -3.0986 1.60586 0
M  V30 3049 C 276.012 -3.84493 1.8014 0
M  V30 3050 O 277.036 -3.19624 1.57222 0
M  V30 3051 O 275.895 -5.00957 2.18413 0
M  V30 3052 H 272.989 -0.771589 0.297624 0
M  V30 3053 H 275.535 -1.15507 1.24323 0
M  V30 3054 H 274.307 -2.89715 2.63022 0
M  V30 3055 H 273.93 -3.79942 1.17173 0
M  V30 3056 N 274.927 -0.932562 -1.27047 0
M  V30 3057 C 275.874 -0.434072 -2.26681 0
M  V30 3058 C 276.844 0.501639 -1.58344 0
M  V30 3059 O 278.029 0.419734 -1.86126 0
M  V30 3060 C 275.169 0.30261 -3.43771 0
M  V30 3061 C 274.282 -0.667774 -4.26808 0
M  V30 3062 C 273.417 0.0892393 -5.31125 0
M  V30 3063 C 272.456 -0.873532 -6.05835 0
M  V30 3064 N 271.593 -0.148832 -7.01942 0
M  V30 3065 H 276.433 -1.28868 -2.68695 0
M  V30 3066 H 273.97 -0.646713 -1.32121 0
M  V30 3067 H 275.928 0.746092 -4.10474 0
M  V30 3068 H 274.558 1.12142 -3.02695 0
M  V30 3069 H 273.61 -1.22978 -3.59973 0
M  V30 3070 H 274.922 -1.40337 -4.78651 0
M  V30 3071 H 274.076 0.592409 -6.03801 0
M  V30 3072 H 272.815 0.85777 -4.80097 0
M  V30 3073 H 271.82 -1.38791 -5.31994 0
M  V30 3074 H 273.045 -1.64193 -6.58952 0
M  V30 3075 H 270.991 0.601365 -6.53238 0
M  V30 3076 H 270.908 -0.82391 -7.51497 0
M  V30 3077 H 272.176 0.333527 -7.78786 0
M  V30 3078 N 276.405 1.4127 -0.698611 0
M  V30 3079 C 277.653 2.00782 -0.230409 0
M  V30 3080 C 277.974 1.5562 1.17505 0
M  V30 3081 O 277.244 0.78815 1.79346 0
M  V30 3082 H 275.824 0.742464 -0.0821944 0
M  V30 3083 H 278.486 1.72852 -0.90045 0
M  V30 3084 H 277.582 3.11095 -0.25021 0
M  V30 3085 N 277.883 0.443576 1.51229 0
M  V30 3086 C 278.815 -0.400608 2.25672 0
M  V30 3087 C 279.828 -0.980945 1.29928 0
M  V30 3088 O 281.017 -0.874024 1.55638 0
M  V30 3089 C 278.117 -1.57304 3.00181 0
M  V30 3090 C 277.29 -1.11046 4.23069 0
M  V30 3091 C 276.349 -2.15374 4.80105 0
M  V30 3092 O 275.375 -1.74554 5.41774 0
M  V30 3093 N 276.577 -3.47922 4.64683 0
M  V30 3094 H 279.342 0.23745 2.98758 0
M  V30 3095 H 276.903 0.272809 1.59585 0
M  V30 3096 H 278.895 -2.26733 3.35223 0
M  V30 3097 H 277.465 -2.11632 2.30066 0
M  V30 3098 H 276.685 -0.243019 3.9345 0
M  V30 3099 H 277.973 -0.778888 5.02803 0
M  V30 3100 H 277.371 -3.83815 4.15575 0
M  V30 3101 H 275.928 -4.13228 5.0407 0
M  V30 3102 N 279.361 -1.56624 0.175154 0
M  V30 3103 C 280.61 -1.96173 -0.468921 0
M  V30 3104 C 280.923 -1.06401 -1.64128 0
M  V30 3105 O 282.129 -1.35648 -2.35185 0
M  V30 3106 C 280.585 -3.48833 -0.885633 0
M  V30 3107 C 280.193 -4.47237 0.261343 0
M  V30 3108 C 281.937 -3.97194 -1.49791 0
M  V30 3109 C 279.844 -5.9114 -0.175214 0
M  V30 3110 H 278.774 -0.732455 -0.178958 0
M  V30 3111 H 281.425 -1.81591 0.263997 0
M  V30 3112 H 279.807 -3.58848 -1.67464 0
M  V30 3113 H 280.981 -4.4894 1.03871 0
M  V30 3114 H 279.296 -4.08956 0.783827 0
M  V30 3115 H 281.893 -5.02167 -1.83665 0
M  V30 3116 H 282.236 -3.40351 -2.39722 0
M  V30 3117 H 282.769 -3.90212 -0.773267 0
M  V30 3118 H 279.508 -6.51865 0.689414 0
M  V30 3119 H 279.028 -5.92735 -0.91786 0
M  V30 3120 H 280.707 -6.44044 -0.617792 0
M  V30 3121 N 280.839 0.0985539 -1.57292 0
M  V30 3122 C 282.088 0.801358 -1.85098 0
M  V30 3123 C 282.401 1.80066 -0.763902 0
M  V30 3124 O 283.607 2.55112 -0.928981 0
M  V30 3125 C 282.063 1.47599 -3.28242 0
M  V30 3126 C 281.671 0.516624 -4.45011 0
M  V30 3127 C 283.415 2.16272 -3.65276 0
M  V30 3128 C 281.322 1.19564 -5.79188 0
M  V30 3129 H 280.252 0.303022 -0.69043 0
M  V30 3130 H 282.903 0.0542623 -1.8342 0
M  V30 3131 H 281.285 2.27042 -3.2445 0
M  V30 3132 H 282.459 -0.246065 -4.60143 0
M  V30 3133 H 280.774 -0.064227 -4.1635 0
M  V30 3134 H 283.371 2.67802 -4.62803 0
M  V30 3135 H 283.714 2.95009 -2.93727 0
M  V30 3136 H 284.247 1.43693 -3.70941 0
M  V30 3137 H 280.986 0.449157 -6.53959 0
M  V30 3138 H 280.506 1.92984 -5.67906 0
M  V30 3139 H 282.185 1.7231 -6.23633 0
M  V30 3140 N 282.317 1.53212 0.369288 0
M  V30 3141 C 283.563 1.69466 1.11397 0
M  V30 3142 C 283.896 0.443257 1.89074 0
M  V30 3143 O 283.171 -0.559386 1.86282 0
M  V30 3144 C 283.454 2.9422 2.07621 0
M  V30 3145 C 283.307 4.29508 1.33577 0
M  V30 3146 C 284.626 3.14565 3.07794 0
M  V30 3147 H 281.745 0.616667 0.403597 0
M  V30 3148 H 284.387 1.85845 0.395179 0
M  V30 3149 H 282.537 2.80387 2.68916 0
M  V30 3150 H 284.209 4.55147 0.750955 0
M  V30 3151 H 282.452 4.29088 0.637618 0
M  V30 3152 H 283.123 5.12926 2.03989 0
M  V30 3153 H 285.599 3.2756 2.56601 0
M  V30 3154 H 284.475 4.03297 3.72348 0
M  V30 3155 H 284.736 2.29675 3.77759 0
M  V30 3156 N 283.795 -0.628877 1.44509 0
M  V30 3157 C 285.041 -1.39045 1.47629 0
M  V30 3158 C 285.374 -1.93892 0.109343 0
M  V30 3159 O 284.649 -1.7379 -0.87334 0
M  V30 3160 C 284.932 -2.55408 2.53848 0
M  V30 3161 C 284.785 -2.05896 3.99909 0
M  V30 3162 C 286.104 -3.5759 2.56549 0
M  V30 3163 H 283.223 -0.504232 0.537512 0
M  V30 3164 H 285.865 -0.710854 1.76201 0
M  V30 3165 H 284.015 -3.13384 2.29615 0
M  V30 3166 H 285.687 -1.52734 4.35282 0
M  V30 3167 H 283.93 -1.37061 4.11578 0
M  V30 3168 H 284.601 -2.89681 4.69882 0
M  V30 3169 H 287.077 -3.09419 2.78207 0
M  V30 3170 H 285.953 -4.36527 3.32769 0
M  V30 3171 H 286.214 -4.11808 1.60832 0
M  V30 3172 N 285.273 -1.31445 -0.869486 0
M  V30 3173 C 286.522 -1.20517 -1.61736 0
M  V30 3174 C 286.835 0.235341 -1.94179 0
M  V30 3175 O 288.041 0.466312 -2.67465 0
M  V30 3176 C 286.497 -2.10982 -2.91573 0
M  V30 3177 C 286.105 -3.60032 -2.66611 0
M  V30 3178 C 287.849 -2.08856 -3.69567 0
M  V30 3179 C 285.756 -4.42503 -3.92358 0
M  V30 3180 H 284.686 -0.447493 -0.606849 0
M  V30 3181 H 287.337 -1.56303 -0.96133 0
M  V30 3182 H 285.719 -1.68095 -3.58553 0
M  V30 3183 H 286.893 -4.11167 -2.08035 0
M  V30 3184 H 285.208 -3.64139 -2.0197 0
M  V30 3185 H 287.805 -2.67716 -4.62852 0
M  V30 3186 H 288.148 -1.07582 -4.02159 0
M  V30 3187 H 288.681 -2.49945 -3.09471 0
M  V30 3188 H 285.42 -5.44533 -3.64916 0
M  V30 3189 H 284.94 -3.96125 -4.50383 0
M  V30 3190 H 286.619 -4.54741 -4.60238 0
M  V30 3191 N 286.751 1.08385 -1.14413 0
M  V30 3192 C 287.997 1.81212 -0.923793 0
M  V30 3193 C 288.352 1.84555 0.543814 0
M  V30 3194 O 287.645 1.31056 1.39767 0
M  V30 3195 C 287.839 3.26273 -1.45879 0
M  V30 3196 C 287.668 3.37063 -2.97689 0
M  V30 3197 C 286.438 3.4824 -3.66138 0
M  V30 3198 C 288.636 3.28698 -3.95553 0
M  V30 3199 N 286.618 3.47824 -5.05858 0
M  V30 3200 C 287.989 3.35276 -5.21527 0
M  V30 3201 C 290.044 3.12437 -3.8767 0
M  V30 3202 C 288.747 3.27267 -6.40538 0
M  V30 3203 C 290.773 3.05757 -5.06228 0
M  V30 3204 C 290.135 3.12938 -6.3107 0
M  V30 3205 H 286.234 0.6769 -0.391574 0
M  V30 3206 H 288.818 1.29455 -1.45429 0
M  V30 3207 H 286.989 3.76474 -0.95507 0
M  V30 3208 H 288.721 3.87165 -1.17835 0
M  V30 3209 H 285.476 3.52141 -3.16692 0
M  V30 3210 H 285.9 3.51171 -5.78798 0
M  V30 3211 H 290.542 3.05747 -2.92025 0
M  V30 3212 H 288.26 3.32718 -7.36427 0
M  V30 3213 H 291.846 2.94295 -5.01878 0
M  V30 3214 H 290.726 3.078 -7.21269 0
M  V30 3215 N 288.23 0.939286 1.26551 0
M  V30 3216 C 289.476 0.586715 1.94128 0
M  V30 3217 C 289.809 -0.8717 1.73537 0
M  V30 3218 O 289.084 -1.62339 1.07127 0
M  V30 3219 C 289.367 0.927497 3.4795 0
M  V30 3220 C 289.22 2.44052 3.77834 0
M  V30 3221 C 290.539 0.441569 4.37879 0
M  V30 3222 H 287.658 0.21463 0.705055 0
M  V30 3223 H 290.3 1.17316 1.49455 0
M  V30 3224 H 288.45 0.428431 3.8613 0
M  V30 3225 H 290.122 3.01216 3.4938 0
M  V30 3226 H 288.365 2.8848 3.23978 0
M  V30 3227 H 289.036 2.62947 4.85348 0
M  V30 3228 H 291.512 0.869448 4.06915 0
M  V30 3229 H 290.388 0.708856 5.44304 0
M  V30 3230 H 290.649 -0.658467 4.37169 0
M  V30 3231 N 289.708 -1.40897 0.706093 0
M  V30 3232 C 290.957 -2.00284 0.238574 0
M  V30 3233 C 291.27 -1.56604 -1.17194 0
M  V30 3234 O 292.476 -2.08624 -1.73748 0
M  V30 3235 C 290.932 -3.57934 0.375623 0
M  V30 3236 C 290.54 -4.10591 1.79217 0
M  V30 3237 C 292.284 -4.24488 -0.0315857 0
M  V30 3238 C 290.191 -5.60712 1.88032 0
M  V30 3239 H 289.121 -0.749144 0.0854398 0
M  V30 3240 H 291.772 -1.61251 0.875813 0
M  V30 3241 H 290.154 -3.94622 -0.330042 0
M  V30 3242 H 291.328 -3.85301 2.52745 0
M  V30 3243 H 289.643 -3.56601 2.15 0
M  V30 3244 H 292.24 -5.34698 0.0136842 0
M  V30 3245 H 292.583 -4.02261 -1.072 0
M  V30 3246 H 293.116 -3.92873 0.624181 0
M  V30 3247 H 289.855 -5.87781 2.90161 0
M  V30 3248 H 289.375 -5.87896 1.18903 0
M  V30 3249 H 291.054 -6.25658 1.64805 0
M  V30 3250 N 291.186 -0.45159 -1.50991 0
M  V30 3251 C 292.432 0.110237 -2.025 0
M  V30 3252 C 292.765 1.41109 -1.33424 0
M  V30 3253 O 292.04 1.89135 -0.453659 0
M  V30 3254 C 292.323 0.314271 -3.58726 0
M  V30 3255 C 292.176 -1.00623 -4.38401 0
M  V30 3256 C 293.495 1.07767 -4.26702 0
M  V30 3257 H 290.614 0.0385897 -0.735989 0
M  V30 3258 H 293.256 -0.593374 -1.80497 0
M  V30 3259 H 291.406 0.913601 -3.77605 0
M  V30 3260 H 293.078 -1.64064 -4.31139 0
M  V30 3261 H 291.321 -1.6075 -4.02917 0
M  V30 3262 H 291.992 -0.817341 -5.45915 0
M  V30 3263 H 294.468 0.56986 -4.12179 0
M  V30 3264 H 293.344 1.18921 -5.35863 0
M  V30 3265 H 293.605 2.10939 -3.88532 0
M  V30 3266 N 292.664 1.56529 -0.183458 0
M  V30 3267 C 293.889 2.02064 0.467428 0
M  V30 3268 C 294.314 1.06282 1.55196 0
M  V30 3269 O 293.672 0.0443565 1.81246 0
M  V30 3270 C 293.72 3.46122 1.01153 0
M  V30 3271 O 292.824 3.53437 2.12499 0
M  V30 3272 H 292.165 0.654726 0.110588 0
M  V30 3273 H 294.695 2.02521 -0.290917 0
M  V30 3274 H 294.705 3.85676 1.33108 0
M  V30 3275 H 293.38 4.15331 0.217533 0
M  V30 3276 H 291.957 3.2575 1.81497 0
M  V30 3277 N 294.142 -0.090211 1.57342 0
M  V30 3278 C 295.553 -0.644173 1.75235 0
M  V30 3279 C 295.904 -1.78865 0.806335 0
M  V30 3280 O 295.029 -2.16395 -0.0140128 0
M  V30 3281 C 295.624 -1.17532 3.1776 0
M  V30 3282 C 294.183 -1.67531 3.37061 0
M  V30 3283 C 293.33 -0.58693 2.71017 0
M  V30 3284 H 296.281 0.135884 1.58117 0
M  V30 3285 H 296.302 -2.04455 3.20902 0
M  V30 3286 H 295.814 -0.342138 3.86589 0
M  V30 3287 H 293.915 -2.53234 2.73319 0
M  V30 3288 H 294.028 -1.76493 4.45406 0
M  V30 3289 H 292.392 -1.02756 2.33052 0
M  V30 3290 H 293.175 0.235758 3.4249 0
M  V30 3291 N 295.62 -1.53406 -0.361157 0
M  V30 3292 C 296.568 -1.80832 -1.46296 0
M  V30 3293 C 297.562 -0.677699 -1.55253 0
M  V30 3294 O 298.768 -0.860723 -1.58087 0
M  V30 3295 H 295.143 -0.572627 -0.487445 0
M  V30 3296 H 297.114 -2.73045 -1.20371 0
M  V30 3297 C 295.863 -2.01907 -2.8307 0
M  V30 3298 H 295.186 -2.88349 -2.76938 0
M  V30 3299 H 296.626 -2.25072 -3.59331 0
M  V30 3300 C 295.085 -0.799449 -3.27277 0
M  V30 3301 O 295.615 0.00971761 -4.01699 0
M  V30 3302 N 293.821 -0.621637 -2.83873 0
M  V30 3303 H 293.368 -1.28126 -2.23476 0
M  V30 3304 H 293.326 0.19298 -3.13807 0
M  V30 3305 N 297.098 0.621204 -1.44841 0
M  V30 3306 C 298.046 1.75385 -1.52784 0
M  V30 3307 C 299.04 1.64639 -0.398779 0
M  V30 3308 O 300.246 1.70598 -0.574137 0
M  V30 3309 H 296.621 0.579193 -0.479625 0
M  V30 3310 H 298.592 1.6581 -2.48092 0
M  V30 3311 C 297.341 3.13742 -1.4987 0
M  V30 3312 H 296.664 3.22663 -2.36069 0
M  V30 3313 H 298.104 3.92861 -1.59487 0
M  V30 3314 C 296.563 3.36175 -0.220973 0
M  V30 3315 O 297.093 3.95469 0.704782 0
M  V30 3316 N 295.299 2.90348 -0.120963 0
M  V30 3317 H 294.846 2.42278 -0.875162 0
M  V30 3318 H 294.804 3.05732 0.733168 0
M  V30 3319 N 298.576 1.31904 0.862503 0
M  V30 3320 C 299.853 1.12644 1.59908 0
M  V30 3321 C 300.233 -0.316104 2.0872 0
M  V30 3322 O 299.581 -1.31145 1.87118 0
M  V30 3323 C 299.791 2.1472 2.7513 0
M  V30 3324 C 301.139 2.47637 3.44907 0
M  V30 3325 O 302.163 2.13205 2.85346 0
M  V30 3326 O 301.022 3.06632 4.52371 0
M  V30 3327 H 298.116 0.43416 0.703871 0
M  V30 3328 H 300.662 1.43408 0.907314 0
M  V30 3329 H 299.434 3.1172 2.3653 0
M  V30 3330 H 299.057 1.84905 3.51989 0
M  V30 3331 N 300.054 -1.07777 1.14986 0
M  V30 3332 C 301.001 -2.14867 0.842672 0
M  V30 3333 C 301.971 -1.6486 -0.202552 0
M  V30 3334 O 303.156 -1.90668 -0.0710568 0
M  V30 3335 C 300.296 -3.43486 0.333363 0
M  V30 3336 C 299.409 -4.07306 1.43965 0
M  V30 3337 C 298.544 -5.23744 0.886914 0
M  V30 3338 C 297.583 -5.79517 1.97043 0
M  V30 3339 N 296.72 -6.87291 1.4344 0
M  V30 3340 H 301.56 -2.40485 1.75986 0
M  V30 3341 H 299.097 -1.1801 0.878179 0
M  V30 3342 H 301.055 -4.17195 0.0198163 0
M  V30 3343 H 299.685 -3.18133 -0.546916 0
M  V30 3344 H 298.737 -3.31293 1.86946 0
M  V30 3345 H 300.049 -4.44771 2.25788 0
M  V30 3346 H 299.203 -6.04419 0.525651 0
M  V30 3347 H 297.942 -4.87685 0.0377957 0
M  V30 3348 H 296.947 -4.97491 2.34057 0
M  V30 3349 H 298.172 -6.17632 2.82325 0
M  V30 3350 H 296.118 -6.5318 0.607567 0
M  V30 3351 H 296.035 -7.23617 2.18895 0
M  V30 3352 H 297.303 -7.71682 1.10124 0
M  V30 3353 N 301.532 -0.945985 -1.26051 0
M  V30 3354 C 302.464 -0.416662 -2.25381 0
M  V30 3355 C 303.477 0.462712 -1.56086 0
M  V30 3356 O 304.666 0.272383 -1.7641 0
M  V30 3357 C 301.766 0.419812 -3.3629 0
M  V30 3358 C 300.939 -0.444531 -4.35135 0
M  V30 3359 C 299.998 0.332305 -5.2515 0
M  V30 3360 O 299.024 -0.266324 -5.68577 0
M  V30 3361 N 300.226 1.62763 -5.57215 0
M  V30 3362 H 302.991 -1.27059 -2.71433 0
M  V30 3363 H 300.552 -0.815392 -1.39868 0
M  V30 3364 H 302.544 0.947013 -3.93464 0
M  V30 3365 H 301.114 1.17456 -2.89694 0
M  V30 3366 H 300.334 -1.15291 -3.76964 0
M  V30 3367 H 301.622 -1.03478 -4.98166 0
M  V30 3368 H 301.02 2.13603 -5.23823 0
M  V30 3369 H 299.577 2.10097 -6.17011 0
M  V30 3370 N 303.011 1.40521 -0.713556 0
M  V30 3371 C 303.958 2.30723 -0.059684 0
M  V30 3372 C 304.928 1.48079 0.752448 0
M  V30 3373 O 306.113 1.76823 0.71681 0
M  V30 3374 C 303.253 3.34274 0.857594 0
M  V30 3375 C 302.366 4.31986 0.0351536 0
M  V30 3376 C 301.501 5.22605 0.951724 0
M  V30 3377 C 300.54 6.11976 0.123253 0
M  V30 3378 N 299.677 6.9502 0.99459 0
M  V30 3379 H 304.517 2.86074 -0.834596 0
M  V30 3380 H 302.054 1.40879 -0.42326 0
M  V30 3381 H 304.012 3.92879 1.40364 0
M  V30 3382 H 302.642 2.8043 1.59871 0
M  V30 3383 H 301.694 3.7518 -0.628052 0
M  V30 3384 H 303.006 4.95101 -0.606347 0
M  V30 3385 H 302.16 5.86131 1.56638 0
M  V30 3386 H 300.899 4.59759 1.62705 0
M  V30 3387 H 299.904 5.47482 -0.50435 0
M  V30 3388 H 301.129 6.76881 -0.548539 0
M  V30 3389 H 299.075 6.34764 1.6556 0
M  V30 3390 H 298.992 7.54892 0.40908 0
M  V30 3391 H 300.26 7.62997 1.59549 0
M  V30 3392 N 304.489 0.459591 1.5075 0
M  V30 3393 C 305.719 -0.0972338 2.06371 0
M  V30 3394 C 306.127 -1.35074 1.32483 0
M  V30 3395 O 305.47 -1.79637 0.384226 0
M  V30 3396 C 305.532 -0.462759 3.56509 0
M  V30 3397 C 305.196 0.687084 4.51805 0
M  V30 3398 C 306.193 1.56578 4.95761 0
M  V30 3399 C 303.878 0.874144 4.94635 0
M  V30 3400 C 305.872 2.61604 5.81242 0
M  V30 3401 C 303.559 1.92765 5.79901 0
M  V30 3402 C 304.557 2.79697 6.23104 0
M  V30 3403 O 304.245 3.83235 7.06673 0
M  V30 3404 H 303.977 -0.00140687 0.675999 0
M  V30 3405 H 306.531 0.644011 1.95043 0
M  V30 3406 H 304.761 -1.25703 3.65699 0
M  V30 3407 H 306.45 -0.953323 3.94546 0
M  V30 3408 H 307.216 1.4329 4.6335 0
M  V30 3409 H 303.095 0.207006 4.60535 0
M  V30 3410 H 306.639 3.29489 6.14884 0
M  V30 3411 H 302.536 2.06064 6.11725 0
M  V30 3412 H 303.304 3.80084 7.24899 0
M  V30 3413 N 305.967 -1.56429 0.191757 0
M  V30 3414 C 307.195 -2.01867 -0.453586 0
M  V30 3415 C 307.61 -1.07191 -1.5542 0
M  V30 3416 O 306.967 -0.0762108 -1.82341 0
M  V30 3417 C 307.018 -3.47017 -1.013 0
M  V30 3418 O 306.739 -4.38078 0.0437005 0
M  V30 3419 C 308.24 -4.07956 -1.73456 0
M  V30 3420 H 305.46 -0.661211 -0.114199 0
M  V30 3421 H 308.004 -2.02295 0.299483 0
M  V30 3422 H 306.159 -3.47298 -1.71647 0
M  V30 3423 H 306.573 -5.23178 -0.372212 0
M  V30 3424 H 308.047 -5.1138 -2.07833 0
M  V30 3425 H 308.524 -3.51222 -2.63704 0
M  V30 3426 H 309.13 -4.11437 -1.07702 0
M  V30 3427 N 307.445 0.0818655 -1.57387 0
M  V30 3428 C 308.375 1.09885 -2.06028 0
M  V30 3429 C 309.356 1.4098 -0.951774 0
M  V30 3430 O 310.541 1.50781 -1.22387 0
M  V30 3431 C 307.671 2.4151 -2.4958 0
M  V30 3432 C 306.625 2.24792 -3.64215 0
M  V30 3433 C 305.951 3.61712 -3.93787 0
M  V30 3434 C 307.251 1.67749 -4.94629 0
M  V30 3435 H 308.945 0.694128 -2.91243 0
M  V30 3436 H 306.491 0.332448 -1.4011 0
M  V30 3437 H 308.444 3.12939 -2.82219 0
M  V30 3438 H 307.168 2.83943 -1.61381 0
M  V30 3439 H 305.827 1.55807 -3.31843 0
M  V30 3440 H 305.475 4.01697 -3.02735 0
M  V30 3441 H 305.175 3.51368 -4.70971 0
M  V30 3442 H 306.699 4.34587 -4.28913 0
M  V30 3443 H 308.113 2.29032 -5.25564 0
M  V30 3444 H 306.51 1.68128 -5.76067 0
M  V30 3445 H 307.58 0.638059 -4.80684 0
M  V30 3446 N 308.923 1.53595 0.353017 0
M  V30 3447 C 309.87 1.80919 1.43308 0
M  V30 3448 C 310.84 0.654288 1.5267 0
M  V30 3449 O 312.025 0.897759 1.6836 0
M  V30 3450 C 309.165 2.01605 2.80089 0
M  V30 3451 C 308.278 3.29321 2.79593 0
M  V30 3452 C 307.413 3.40125 4.0803 0
M  V30 3453 C 306.452 4.61826 4.01725 0
M  V30 3454 N 305.589 4.69716 5.21834 0
M  V30 3455 H 310.429 2.73074 1.19308 0
M  V30 3456 H 307.966 1.35263 0.578131 0
M  V30 3457 H 309.924 2.11586 3.59565 0
M  V30 3458 H 308.554 1.12772 3.0246 0
M  V30 3459 H 307.606 3.28229 1.92276 0
M  V30 3460 H 308.918 4.18884 2.70809 0
M  V30 3461 H 308.072 3.49488 4.95927 0
M  V30 3462 H 306.811 2.48601 4.19582 0
M  V30 3463 H 305.816 4.52552 3.12213 0
M  V30 3464 H 307.041 5.54705 3.91764 0
M  V30 3465 H 304.987 3.81097 5.33948 0
M  V30 3466 H 304.904 5.53202 5.1527 0
M  V30 3467 H 306.172 4.83376 6.11529 0
M  V30 3468 N 310.401 -0.613514 1.45168 0
M  V30 3469 C 311.65 -1.36874 1.4815 0
M  V30 3470 C 311.963 -1.952 0.124982 0
M  V30 3471 O 313.169 -2.71481 0.0324176 0
M  V30 3472 C 311.625 -2.47905 2.60904 0
M  V30 3473 C 311.233 -1.96016 4.02842 0
M  V30 3474 C 312.977 -3.24965 2.73126 0
M  V30 3475 C 310.884 -3.04494 5.06988 0
M  V30 3476 H 309.814 -0.514428 0.551253 0
M  V30 3477 H 312.465 -0.658182 1.7129 0
M  V30 3478 H 310.847 -3.21618 2.31037 0
M  V30 3479 H 312.021 -1.29051 4.4236 0
M  V30 3480 H 310.336 -1.31719 3.95018 0
M  V30 3481 H 312.933 -4.05865 3.48106 0
M  V30 3482 H 313.276 -3.75588 1.79553 0
M  V30 3483 H 313.809 -2.5835 3.0249 0
M  V30 3484 H 310.548 -2.58795 6.0225 0
M  V30 3485 H 310.068 -3.70044 4.72046 0
M  V30 3486 H 311.747 -3.68976 5.31475 0
M  V30 3487 N 311.879 -1.3236 -0.855495 0
M  V30 3488 C 312.827 -1.2118 -1.9854 0
M  V30 3489 C 313.821 -0.116788 -1.68997 0
M  V30 3490 O 315.027 -0.279657 -1.77814 0
M  V30 3491 H 311.402 -0.375608 -0.651477 0
M  V30 3492 H 313.373 -2.16743 -2.05098 0
M  V30 3493 C 312.122 -0.950849 -3.34446 0
M  V30 3494 H 311.445 -1.78563 -3.57708 0
M  V30 3495 H 312.885 -0.912863 -4.14057 0
M  V30 3496 C 311.344 0.346404 -3.35114 0
M  V30 3497 O 311.874 1.35855 -3.7803 0
M  V30 3498 N 310.08 0.36808 -2.88259 0
M  V30 3499 H 309.627 -0.456102 -2.5353 0
M  V30 3500 H 309.585 1.23591 -2.89089 0
M  V30 3501 N 313.357 1.07166 -1.15556 0
M  V30 3502 C 314.307 2.12649 -0.82247 0
M  V30 3503 C 315.291 1.59725 0.194129 0
M  V30 3504 O 316.483 1.76999 -0.00540402 0
M  V30 3505 C 313.612 3.41847 -0.315572 0
M  V30 3506 C 312.698 4.0162 -1.36244 0
M  V30 3507 N 313.089 4.35625 -2.5703 0
M  V30 3508 C 311.387 4.29114 -1.21562 0
M  V30 3509 C 312.088 4.83017 -3.24144 0
M  V30 3510 N 311.064 4.81906 -2.51531 0
M  V30 3511 H 314.866 2.36776 -1.74111 0
M  V30 3512 H 312.38 1.24622 -1.0413 0
M  V30 3513 H 314.377 4.16859 -0.0585855 0
M  V30 3514 H 313.037 3.19163 0.597105 0
M  V30 3515 H 314.048 4.26253 -2.94158 0
M  V30 3516 H 310.725 4.15919 -0.362988 0
M  V30 3517 H 312.115 5.18605 -4.27198 0
M  V30 3518 N 314.835 0.952656 1.25548 0
M  V30 3519 C 316.112 0.523818 1.88456 0
M  V30 3520 C 316.492 -0.998871 1.85973 0
M  V30 3521 O 315.84 -1.86381 1.3219 0
M  V30 3522 C 316.05 1.0982 3.31271 0
M  V30 3523 C 317.398 1.17385 4.08051 0
M  V30 3524 O 318.422 1.04961 3.40384 0
M  V30 3525 O 317.281 1.36852 5.29088 0
M  V30 3526 H 314.375 0.172485 0.808813 0
M  V30 3527 H 316.921 1.04596 1.33633 0
M  V30 3528 H 315.693 2.1415 3.27499 0
M  V30 3529 H 315.316 0.559191 3.93648 0
M  V30 3530 N 316.313 -1.40141 0.720998 0
M  V30 3531 C 317.553 -2.02644 0.267335 0
M  V30 3532 C 317.917 -1.55948 -1.12001 0
M  V30 3533 O 319.118 -2.10552 -1.67097 0
M  V30 3534 C 317.389 -3.55679 0.350281 0
M  V30 3535 S 318.948 -4.38793 -0.0256004 0
M  V30 3536 H 315.766 -0.703105 0.105664 0
M  V30 3537 H 318.368 -1.71175 0.944416 0
M  V30 3538 H 317.072 -3.87157 1.36153 0
M  V30 3539 H 316.603 -3.91883 -0.345096 0
M  V30 3540 H 318.618 -4.803 -1.24604 0
M  V30 3541 N 317.792 -0.46758 -1.50504 0
M  V30 3542 C 319.038 0.0887532 -2.02606 0
M  V30 3543 C 319.371 1.39686 -1.34913 0
M  V30 3544 O 318.646 1.88644 -0.473694 0
M  V30 3545 C 318.929 0.276206 -3.59039 0
M  V30 3546 C 318.782 -1.05267 -4.37309 0
M  V30 3547 C 320.101 1.03235 -4.27821 0
M  V30 3548 H 317.22 0.0307814 -0.736357 0
M  V30 3549 H 319.862 -0.612485 -1.79857 0
M  V30 3550 H 318.012 0.8735 -3.78553 0
M  V30 3551 H 319.684 -1.68628 -4.29374 0
M  V30 3552 H 317.927 -1.65015 -4.01189 0
M  V30 3553 H 318.598 -0.875197 -5.45018 0
M  V30 3554 H 321.074 0.526111 -4.12761 0
M  V30 3555 H 319.95 1.1323 -5.37094 0
M  V30 3556 H 320.211 2.06806 -3.90748 0
M  V30 3557 N 319.27 1.56325 -0.20005 0
M  V30 3558 C 320.681 1.8408 0.31167 0
M  V30 3559 C 321.032 1.12087 1.61031 0
M  V30 3560 O 320.157 0.38332 2.12978 0
M  V30 3561 C 320.752 3.33932 0.57226 0
M  V30 3562 C 319.311 3.6208 1.02834 0
M  V30 3563 C 318.458 2.77186 0.079634 0
M  V30 3564 H 321.409 1.52939 -0.423729 0
M  V30 3565 H 321.43 3.52971 1.42096 0
M  V30 3566 H 320.942 3.86303 -0.37308 0
M  V30 3567 H 319.043 3.15147 1.98778 0
M  V30 3568 H 319.156 4.7023 0.917624 0
M  V30 3569 H 317.52 2.47951 0.582448 0
M  V30 3570 H 318.303 3.32347 -0.860238 0
M  V30 3571 N 320.748 -0.0735177 1.57428 0
M  V30 3572 C 321.658 -1.10547 2.06922 0
M  V30 3573 C 322.674 -1.42506 0.998402 0
M  V30 3574 O 323.85 -1.52717 1.31299 0
M  V30 3575 C 320.915 -2.40019 2.50184 0
M  V30 3576 C 319.976 -2.15046 3.71556 0
M  V30 3577 C 319.209 -3.38345 4.12745 0
M  V30 3578 O 319.432 -4.47399 3.53822 0
M  V30 3579 O 318.366 -3.2666 5.05546 0
M  V30 3580 H 322.192 -0.715013 2.95163 0
M  V30 3581 H 319.777 -0.287531 1.46607 0
M  V30 3582 H 321.659 -3.16218 2.78539 0
M  V30 3583 H 320.334 -2.78447 1.65072 0
M  V30 3584 H 319.241 -1.36558 3.48285 0
M  V30 3585 H 320.574 -1.81499 4.57514 0
M  V30 3586 N 322.226 -1.5378 -0.344866 0
M  V30 3587 C 323.158 -1.77988 -1.44406 0
M  V30 3588 C 324.171 -0.661138 -1.48771 0
M  V30 3589 O 325.36 -0.937842 -1.51877 0
M  V30 3590 C 322.46 -1.86345 -2.8307 0
M  V30 3591 C 321.633 -3.16256 -3.0216 0
M  V30 3592 C 320.692 -3.15588 -4.21059 0
M  V30 3593 O 319.718 -3.89314 -4.15239 0
M  V30 3594 N 320.92 -2.37864 -5.29529 0
M  V30 3595 H 323.685 -2.72839 -1.24012 0
M  V30 3596 H 321.246 -1.52814 -0.534737 0
M  V30 3597 H 323.238 -1.83351 -3.60783 0
M  V30 3598 H 321.808 -0.986858 -2.96614 0
M  V30 3599 H 321.028 -3.32385 -2.11929 0
M  V30 3600 H 322.316 -4.0207 -3.11797 0
M  V30 3601 H 321.714 -1.77514 -5.37127 0
M  V30 3602 H 320.271 -2.40668 -6.05741 0
M  V30 3603 N 323.704 0.605807 -1.45491 0
M  V30 3604 C 324.95 1.36679 -1.49823 0
M  V30 3605 C 325.283 1.93693 -0.140175 0
M  V30 3606 O 324.558 1.75158 0.845581 0
M  V30 3607 C 324.841 2.51337 -2.57879 0
M  V30 3608 C 324.694 1.99508 -4.03134 0
M  V30 3609 C 326.013 3.53463 -2.62205 0
M  V30 3610 H 323.132 0.495617 -0.545466 0
M  V30 3611 H 325.774 0.682732 -1.7731 0
M  V30 3612 H 323.924 3.09691 -2.34571 0
M  V30 3613 H 325.596 1.45789 -4.37656 0
M  V30 3614 H 323.839 1.30496 -4.13707 0
M  V30 3615 H 324.51 2.82169 -4.74431 0
M  V30 3616 H 326.986 3.04953 -2.83095 0
M  V30 3617 H 325.862 4.31178 -3.39672 0
M  V30 3618 H 326.123 4.09197 -1.67363 0
M  V30 3619 N 325.182 1.32811 0.848464 0
M  V30 3620 C 326.431 1.23075 1.59798 0
M  V30 3621 C 326.744 -0.204419 1.94529 0
M  V30 3622 O 327.95 -0.423701 2.68173 0
M  V30 3623 C 326.406 2.15594 2.88179 0
M  V30 3624 C 326.014 3.64228 2.60849 0
M  V30 3625 C 327.758 2.14709 3.66197 0
M  V30 3626 C 325.665 4.48689 3.85269 0
M  V30 3627 H 324.595 0.457091 0.599653 0
M  V30 3628 H 327.246 1.57813 0.936342 0
M  V30 3629 H 325.628 1.73778 3.55833 0
M  V30 3630 H 326.802 4.14424 2.01467 0
M  V30 3631 H 325.117 3.67306 1.96151 0
M  V30 3632 H 327.714 2.75046 4.58534 0
M  V30 3633 H 328.057 1.13966 4.00397 0
M  V30 3634 H 328.59 2.54837 3.05455 0
M  V30 3635 H 325.329 5.5027 3.56207 0
M  V30 3636 H 324.849 4.03241 4.44024 0
M  V30 3637 H 326.528 4.62006 4.52946 0
M  V30 3638 N 326.66 -1.06551 1.16123 0
M  V30 3639 C 327.623 -2.12132 0.867906 0
M  V30 3640 C 328.623 -1.60224 -0.135944 0
M  V30 3641 O 329.813 -1.73943 0.0946422 0
M  V30 3642 C 326.945 -3.396 0.297419 0
M  V30 3643 H 328.138 -2.39586 1.80385 0
M  V30 3644 H 325.691 -1.22574 0.969812 0
M  V30 3645 H 326.426 -3.17794 -0.64633 0
M  V30 3646 H 326.211 -3.78581 1.02073 0
M  V30 3647 H 327.701 -4.17455 0.110052 0
M  V30 3648 N 328.138 -0.959301 -1.25041 0
M  V30 3649 C 329.048 -0.489994 -2.29426 0
M  V30 3650 C 330.064 0.444944 -1.68215 0
M  V30 3651 O 331.24 0.320046 -1.98841 0
M  V30 3652 C 328.305 0.220309 -3.45999 0
M  V30 3653 C 327.366 -0.753418 -4.22637 0
M  V30 3654 C 326.599 -0.076918 -5.33645 0
M  V30 3655 O 326.822 1.13649 -5.58963 0
M  V30 3656 O 325.756 -0.764824 -5.97021 0
M  V30 3657 H 329.582 -1.35755 -2.71669 0
M  V30 3658 H 327.167 -0.725961 -1.30576 0
M  V30 3659 H 329.049 0.619677 -4.16819 0
M  V30 3660 H 327.724 1.06296 -3.0575 0
M  V30 3661 H 326.631 -1.20308 -3.54227 0
M  V30 3662 H 327.964 -1.56423 -4.66683 0
M  V30 3663 N 329.616 1.39756 -0.72842 0
M  V30 3664 C 330.579 2.29012 -0.0927297 0
M  V30 3665 C 331.579 1.45992 0.674025 0
M  V30 3666 O 332.769 1.66749 0.50402 0
M  V30 3667 C 329.901 3.29396 0.878137 0
M  V30 3668 H 331.094 2.86729 -0.879011 0
M  V30 3669 H 328.647 1.48293 -0.493847 0
M  V30 3670 H 329.382 2.76722 1.69101 0
M  V30 3671 H 329.167 3.907 0.331051 0
M  V30 3672 H 330.657 3.96199 1.3197 0
M  V30 3673 N 331.094 0.475555 1.50254 0
M  V30 3674 C 332.343 -0.0795996 2.01543 0
M  V30 3675 C 332.656 -1.4038 1.36209 0
M  V30 3676 O 333.862 -2.04415 1.7868 0
M  V30 3677 C 332.318 -0.192363 3.59386 0
M  V30 3678 C 331.926 1.12367 4.33679 0
M  V30 3679 C 333.67 -0.699238 4.18701 0
M  V30 3680 C 331.577 0.974453 5.83317 0
M  V30 3681 H 330.507 -0.0335228 0.753254 0
M  V30 3682 H 333.158 0.611128 1.73025 0
M  V30 3683 H 331.54 -0.946974 3.84511 0
M  V30 3684 H 332.714 1.88958 4.20276 0
M  V30 3685 H 331.029 1.562 3.85993 0
M  V30 3686 H 333.626 -0.827978 5.28251 0
M  V30 3687 H 333.969 -1.69171 3.80377 0
M  V30 3688 H 334.502 -0.00188807 3.978 0
M  V30 3689 H 331.241 1.94042 6.26121 0
M  V30 3690 H 330.761 0.248998 5.99283 0
M  V30 3691 H 332.44 0.642867 6.43798 0
M  V30 3692 N 332.573 -1.56217 0.208337 0
M  V30 3693 C 333.989 -1.58919 -0.14729 0
M  V30 3694 C 334.189 -1.22486 -1.59998 0
M  V30 3695 O 333.245 -0.953849 -2.3379 0
M  V30 3696 C 334.558 -3.00236 0.167048 0
M  V30 3697 C 336.106 -3.12813 0.108219 0
M  V30 3698 C 336.581 -4.56284 0.396049 0
M  V30 3699 N 338.072 -4.61912 0.345142 0
M  V30 3700 C 338.807 -5.70837 0.541523 0
M  V30 3701 N 338.303 -6.88178 0.798968 0
M  V30 3702 N 340.096 -5.60091 0.474867 0
M  V30 3703 H 332.247 -1.78177 1.15614 0
M  V30 3704 H 334.51 -0.827555 0.462446 0
M  V30 3705 H 334.216 -3.31499 1.1748 0
M  V30 3706 H 334.09 -3.7354 -0.524184 0
M  V30 3707 H 336.477 -2.81354 -0.890157 0
M  V30 3708 H 336.558 -2.41866 0.832729 0
M  V30 3709 H 336.202 -4.88458 1.3918 0
M  V30 3710 H 336.132 -5.25439 -0.349502 0
M  V30 3711 H 338.623 -3.77589 0.153316 0
M  V30 3712 H 338.936 -7.67095 0.93727 0
M  V30 3713 H 337.281 -6.89953 0.836013 0
M  V30 3714 H 340.472 -4.67297 0.274064 0
M  V30 3715 H 340.645 -6.44917 0.631326 0
M  V30 3716 N 334.051 0.0651679 -1.57465 0
M  V30 3717 C 334.998 1.07675 -2.04144 0
M  V30 3718 C 335.968 1.38071 -0.923335 0
M  V30 3719 O 337.153 1.49026 -1.19146 0
M  V30 3720 C 334.293 2.38337 -2.49579 0
M  V30 3721 C 333.406 2.14413 -3.75035 0
M  V30 3722 C 332.541 3.38686 -4.09225 0
M  V30 3723 C 331.58 3.10156 -5.27702 0
M  V30 3724 N 330.717 4.26778 -5.57499 0
M  V30 3725 H 335.557 0.671716 -2.90331 0
M  V30 3726 H 333.094 0.3201 -1.43575 0
M  V30 3727 H 335.052 3.14632 -2.73975 0
M  V30 3728 H 333.682 2.7663 -1.6636 0
M  V30 3729 H 332.734 1.2878 -3.57939 0
M  V30 3730 H 334.046 1.89344 -4.61466 0
M  V30 3731 H 333.2 4.23373 -4.34558 0
M  V30 3732 H 331.939 3.66837 -3.21374 0
M  V30 3733 H 330.944 2.23866 -5.02159 0
M  V30 3734 H 332.169 2.8332 -6.17176 0
M  V30 3735 H 330.115 4.54948 -4.72608 0
M  V30 3736 H 330.032 4.05005 -6.38362 0
M  V30 3737 H 331.3 5.12443 -5.87386 0
M  V30 3738 N 335.529 1.53961 0.336706 0
M  V30 3739 C 336.476 1.82428 1.41381 0
M  V30 3740 C 337.446 0.670444 1.51968 0
M  V30 3741 O 338.631 0.915565 1.67398 0
M  V30 3742 C 335.771 2.04564 2.77934 0
M  V30 3743 C 334.884 3.32267 2.76084 0
M  V30 3744 C 334.019 3.44434 4.04399 0
M  V30 3745 C 333.058 4.66061 3.96804 0
M  V30 3746 N 332.195 4.75224 5.16823 0
M  V30 3747 H 337.035 2.74324 1.16405 0
M  V30 3748 H 334.572 1.35869 0.563752 0
M  V30 3749 H 336.53 2.15388 3.57301 0
M  V30 3750 H 335.16 1.15974 3.01247 0
M  V30 3751 H 334.212 3.3025 1.88784 0
M  V30 3752 H 335.524 4.21733 2.66351 0
M  V30 3753 H 334.678 3.54728 4.92192 0
M  V30 3754 H 333.417 2.53037 4.16921 0
M  V30 3755 H 332.422 4.55838 3.07396 0
M  V30 3756 H 333.647 5.58829 3.85858 0
M  V30 3757 H 331.593 3.86739 5.29876 0
M  V30 3758 H 331.51 5.58636 5.09374 0
M  V30 3759 H 332.778 4.89835 6.06367 0
M  V30 3760 N 337.007 -0.598083 1.45811 0
M  V30 3761 C 338.235 -1.38322 1.53866 0
M  V30 3762 C 338.65 -1.87992 0.174479 0
M  V30 3763 O 338.007 -1.62756 -0.825627 0
M  V30 3764 C 338.058 -2.58125 2.53089 0
M  V30 3765 O 337.779 -2.10516 3.84206 0
M  V30 3766 C 339.28 -3.50869 2.70935 0
M  V30 3767 H 336.5 -0.423093 0.520801 0
M  V30 3768 H 339.044 -0.728527 1.91083 0
M  V30 3769 H 337.199 -3.19615 2.18917 0
M  V30 3770 H 337.613 -2.88425 4.38077 0
M  V30 3771 H 339.087 -4.31451 3.44317 0
M  V30 3772 H 339.564 -4.01822 1.77301 0
M  V30 3773 H 340.17 -2.95225 3.06141 0
M  V30 3774 N 338.485 -1.33259 -0.841409 0
M  V30 3775 C 339.901 -1.12538 -1.13169 0
M  V30 3776 C 340.101 0.0854037 -2.01319 0
M  V30 3777 O 339.157 0.766417 -2.40587 0
M  V30 3778 C 340.47 -2.41156 -1.79623 0
M  V30 3779 C 342.018 -2.47038 -1.922 0
M  V30 3780 C 342.493 -3.7561 -2.6207 0
M  V30 3781 N 343.984 -3.76667 -2.69585 0
M  V30 3782 C 344.719 -4.72861 -3.2433 0
M  V30 3783 N 344.215 -5.79428 -3.79783 0
M  V30 3784 N 346.008 -4.6034 -3.22558 0
M  V30 3785 H 338.159 -2.10868 -0.254676 0
M  V30 3786 H 340.422 -0.931615 -0.175493 0
M  V30 3787 H 340.128 -3.29747 -1.22311 0
M  V30 3788 H 340.002 -2.53114 -2.79666 0
M  V30 3789 H 342.389 -1.58898 -2.48667 0
M  V30 3790 H 342.47 -2.39022 -0.911148 0
M  V30 3791 H 342.114 -4.64131 -2.06263 0
M  V30 3792 H 342.044 -3.80902 -3.63622 0
M  V30 3793 H 344.535 -2.99648 -2.30259 0
M  V30 3794 H 344.848 -6.48867 -4.19752 0
M  V30 3795 H 343.193 -5.83166 -3.78078 0
M  V30 3796 H 346.384 -3.76244 -2.78492 0
M  V30 3797 H 346.557 -5.35478 -3.64921 0
M  V30 3798 N 339.963 1.05934 -1.16686 0
M  V30 3799 C 341.188 1.83029 -0.975455 0
M  V30 3800 C 341.613 1.82096 0.471452 0
M  V30 3801 O 340.971 1.22443 1.33706 0
M  V30 3802 C 341.019 3.27372 -1.51195 0
M  V30 3803 O 340.123 4.06054 -0.720701 0
M  V30 3804 H 339.464 0.566194 -0.346872 0
M  V30 3805 H 341.994 1.33541 -1.55009 0
M  V30 3806 H 342.004 3.78186 -1.53099 0
M  V30 3807 H 340.679 3.27366 -2.56523 0
M  V30 3808 H 339.256 3.64812 -0.772458 0
M  V30 3809 N 341.441 0.965919 1.2453 0
M  V30 3810 C 342.374 0.4393 2.23932 0
M  V30 3811 C 343.352 -0.485615 1.55179 0
M  V30 3812 O 344.536 -0.417402 1.83821 0
M  V30 3813 C 341.663 -0.366042 3.36716 0
M  V30 3814 C 340.709 0.5009 4.23548 0
M  V30 3815 S 341.542 1.94002 4.99123 0
M  V30 3816 C 342.698 1.14342 6.15367 0
M  V30 3817 H 342.931 1.28167 2.68254 0
M  V30 3818 H 340.464 0.770819 1.33782 0
M  V30 3819 H 342.422 -0.824724 4.0213 0
M  V30 3820 H 341.083 -1.18337 2.90956 0
M  V30 3821 H 340.276 -0.117341 5.03863 0
M  V30 3822 H 339.878 0.89524 3.63127 0
M  V30 3823 H 342.17 0.397572 6.76332 0
M  V30 3824 H 343.113 1.92089 6.81548 0
M  V30 3825 H 343.521 0.668579 5.60527 0
M  V30 3826 N 342.919 -1.39368 0.735821 0
M  V30 3827 C 343.849 -2.33234 0.111506 0
M  V30 3828 C 344.83 -1.53954 -0.723334 0
M  V30 3829 O 346.015 -1.82344 -0.668147 0
M  V30 3830 C 343.145 -3.38057 -0.795917 0
M  V30 3831 C 342.099 -4.2795 -0.065172 0
M  V30 3832 C 341.425 -5.23479 -1.08967 0
M  V30 3833 C 342.725 -5.10741 1.09273 0
M  V30 3834 H 344.419 -2.85692 0.895571 0
M  V30 3835 H 341.965 -1.37364 0.432109 0
M  V30 3836 H 343.918 -4.02675 -1.24221 0
M  V30 3837 H 342.642 -2.8404 -1.61211 0
M  V30 3838 H 341.301 -3.64813 0.361511 0
M  V30 3839 H 340.949 -4.65758 -1.89944 0
M  V30 3840 H 340.649 -5.84472 -0.605489 0
M  V30 3841 H 342.173 -5.90974 -1.53565 0
M  V30 3842 H 343.587 -5.68699 0.724841 0
M  V30 3843 H 341.984 -5.8088 1.50659 0
M  V30 3844 H 343.054 -4.45525 1.91404 0
M  V30 3845 N 344.397 -0.483516 -1.5 0
M  V30 3846 C 345.327 0.293829 -2.31644 0
M  V30 3847 C 346.308 0.978864 -1.39112 0
M  V30 3848 O 347.493 0.973644 -1.68029 0
M  V30 3849 C 344.623 1.36897 -3.19181 0
M  V30 3850 C 343.577 0.804833 -4.20365 0
M  V30 3851 C 342.903 1.9792 -4.96721 0
M  V30 3852 C 344.203 -0.192313 -5.21946 0
M  V30 3853 H 345.897 -0.387616 -2.9688 0
M  V30 3854 H 343.443 -0.187856 -1.42769 0
M  V30 3855 H 345.396 1.92037 -3.751 0
M  V30 3856 H 344.12 2.07936 -2.51853 0
M  V30 3857 H 342.779 0.275319 -3.65565 0
M  V30 3858 H 342.427 2.67686 -4.25856 0
M  V30 3859 H 342.127 1.60789 -5.65173 0
M  V30 3860 H 343.651 2.53526 -5.55479 0
M  V30 3861 H 345.065 0.270333 -5.72662 0
M  V30 3862 H 343.462 -0.478543 -5.98189 0
M  V30 3863 H 344.532 -1.11409 -4.71928 0
M  V30 3864 N 345.875 1.56104 -0.216619 0
M  V30 3865 C 347.1 2.0301 0.424462 0
M  V30 3866 C 347.525 1.0955 1.52907 0
M  V30 3867 O 346.883 0.0827914 1.81111 0
M  V30 3868 C 346.931 3.4819 0.937883 0
M  V30 3869 O 346.035 3.57865 2.04955 0
M  V30 3870 H 345.376 0.656925 0.0966755 0
M  V30 3871 H 347.906 2.01859 -0.33381 0
M  V30 3872 H 347.916 3.88413 1.24897 0
M  V30 3873 H 346.591 4.15699 0.129387 0
M  V30 3874 H 345.168 3.29527 1.74546 0
M  V30 3875 N 347.353 -0.0568162 1.57498 0
M  V30 3876 C 348.578 -0.769402 1.92601 0
M  V30 3877 C 349.003 -1.69559 0.814336 0
M  V30 3878 O 348.361 -1.79811 -0.231903 0
M  V30 3879 C 348.409 -1.52634 3.26704 0
M  V30 3880 O 347.513 -2.63797 3.16994 0
M  V30 3881 H 346.854 -0.208909 0.63028 0
M  V30 3882 H 349.384 -0.0205798 2.0459 0
M  V30 3883 H 349.394 -1.90234 3.60936 0
M  V30 3884 H 348.069 -0.846875 4.07186 0
M  V30 3885 H 346.646 -2.28943 2.94346 0
M  V30 3886 N 348.832 -1.54138 -0.328536 0
M  V30 3887 C 349.742 -1.86192 -1.42723 0
M  V30 3888 C 350.758 -0.753382 -1.56844 0
M  V30 3889 O 351.934 -1.04718 -1.72035 0
M  V30 3890 C 348.999 -2.07824 -2.77507 0
M  V30 3891 C 348.06 -3.31641 -2.72603 0
M  V30 3892 C 347.293 -3.52232 -4.00959 0
M  V30 3893 O 347.516 -2.7636 -4.9898 0
M  V30 3894 O 346.45 -4.45699 -4.0452 0
M  V30 3895 H 350.276 -2.79608 -1.18547 0
M  V30 3896 H 347.861 -1.3998 -0.522104 0
M  V30 3897 H 349.743 -2.23411 -3.57303 0
M  V30 3898 H 348.418 -1.17596 -3.01584 0
M  V30 3899 H 347.325 -3.21444 -1.91376 0
M  V30 3900 H 348.658 -4.2191 -2.53481 0
M  V30 3901 N 350.31 0.590341 -1.46126 0
M  V30 3902 C 351.242 1.71427 -1.52136 0
M  V30 3903 C 352.255 1.57542 -0.41042 0
M  V30 3904 O 353.444 1.65106 -0.678389 0
M  V30 3905 C 350.544 3.09605 -1.37834 0
M  V30 3906 C 349.717 3.49566 -2.62912 0
M  V30 3907 C 348.776 4.66773 -2.42918 0
M  V30 3908 O 347.802 4.73019 -3.1661 0
M  V30 3909 N 349.004 5.61161 -1.4859 0
M  V30 3910 H 351.769 1.66728 -2.49042 0
M  V30 3911 H 349.33 0.776113 -1.42085 0
M  V30 3912 H 351.322 3.85796 -1.22243 0
M  V30 3913 H 349.892 3.08714 -0.491393 0
M  V30 3914 H 349.112 2.63158 -2.93499 0
M  V30 3915 H 350.4 3.73028 -3.46017 0
M  V30 3916 H 349.798 5.58844 -0.87808 0
M  V30 3917 H 348.355 6.36814 -1.38965 0
M  V30 3918 N 351.788 1.33704 0.83433 0
M  V30 3919 C 352.718 1.26967 1.95963 0
M  V30 3920 C 353.699 0.149337 1.69443 0
M  V30 3921 O 354.884 0.339852 1.91203 0
M  V30 3922 C 352.014 1.01275 3.32206 0
M  V30 3923 C 350.968 2.09652 3.73136 0
M  V30 3924 C 350.294 1.69166 5.07235 0
M  V30 3925 C 351.594 3.51372 3.86439 0
M  V30 3926 H 353.288 2.2112 2.01857 0
M  V30 3927 H 350.834 1.06447 0.969793 0
M  V30 3928 H 352.787 0.952106 4.10503 0
M  V30 3929 H 351.511 0.0356203 3.26581 0
M  V30 3930 H 350.17 2.14766 2.97104 0
M  V30 3931 H 349.818 0.701437 4.98085 0
M  V30 3932 H 349.518 2.41694 5.35591 0
M  V30 3933 H 351.042 1.64576 5.88003 0
M  V30 3934 H 352.456 3.48734 4.55036 0
M  V30 3935 H 350.853 4.22425 4.26236 0
M  V30 3936 H 351.923 3.89546 2.88759 0
M  V30 3937 N 353.266 -1.05314 1.17247 0
M  V30 3938 C 354.213 -2.13031 0.888058 0
M  V30 3939 C 355.183 -1.65253 -0.167537 0
M  V30 3940 O 356.368 -1.90775 -0.0305974 0
M  V30 3941 C 353.508 -3.42702 0.406147 0
M  V30 3942 C 352.621 -4.04161 1.52572 0
M  V30 3943 C 351.756 -5.21744 0.997808 0
M  V30 3944 C 350.795 -5.75207 2.09291 0
M  V30 3945 N 349.932 -6.84094 1.57986 0
M  V30 3946 H 354.772 -2.36698 1.81048 0
M  V30 3947 H 352.309 -1.16121 0.903013 0
M  V30 3948 H 354.267 -4.17059 0.108305 0
M  V30 3949 H 352.897 -3.19222 -0.479313 0
M  V30 3950 H 351.949 -3.27253 1.93931 0
M  V30 3951 H 353.261 -4.39881 2.35172 0
M  V30 3952 H 352.415 -6.03168 0.653739 0
M  V30 3953 H 351.154 -4.87495 0.141232 0
M  V30 3954 H 350.159 -4.92414 2.44557 0
M  V30 3955 H 351.384 -6.11505 2.95362 0
M  V30 3956 H 349.33 -6.51745 0.74598 0
M  V30 3957 H 349.247 -7.18811 2.34195 0
M  V30 3958 H 350.515 -7.69172 1.26468 0
M  V30 3959 N 354.744 -0.972509 -1.24016 0
M  V30 3960 C 355.674 -0.525548 -2.27509 0
M  V30 3961 C 356.655 0.437262 -1.64384 0
M  V30 3962 O 357.84 0.332343 -1.91335 0
M  V30 3963 C 354.97 0.180448 -3.46831 0
M  V30 3964 C 353.924 -0.698859 -4.22256 0
M  V30 3965 C 353.25 0.138903 -5.3452 0
M  V30 3966 C 354.55 -1.98582 -4.83076 0
M  V30 3967 H 356.244 -1.39058 -2.65148 0
M  V30 3968 H 353.79 -0.67009 -1.27459 0
M  V30 3969 H 355.743 0.504387 -4.18371 0
M  V30 3970 H 354.467 1.07987 -3.08231 0
M  V30 3971 H 353.126 -1.00614 -3.52523 0
M  V30 3972 H 352.774 1.03862 -4.9216 0
M  V30 3973 H 352.474 -0.446259 -5.85903 0
M  V30 3974 H 353.998 0.457404 -6.08884 0
M  V30 3975 H 355.412 -1.72715 -5.46665 0
M  V30 3976 H 353.809 -2.5181 -5.44713 0
M  V30 3977 H 354.879 -2.67769 -4.04262 0
M  V30 3978 N 356.222 1.38976 -0.743202 0
M  V30 3979 C 357.462 2.02193 -0.29954 0
M  V30 3980 C 357.826 1.5771 1.09506 0
M  V30 3981 O 359.027 2.13184 1.63726 0
M  V30 3982 C 357.298 3.55077 -0.406822 0
M  V30 3983 S 358.857 4.38778 -0.0442109 0
M  V30 3984 H 355.675 0.701335 -0.116836 0
M  V30 3985 H 358.277 1.69651 -0.971529 0
M  V30 3986 H 356.981 3.84942 -1.42295 0
M  V30 3987 H 356.512 3.92383 0.282707 0
M  V30 3988 H 358.527 4.82222 1.16947 0
M  V30 3989 N 357.7 0.491464 1.49741 0
M  V30 3990 C 358.946 -0.0565092 2.02721 0
M  V30 3991 C 359.279 -1.37522 1.37118 0
M  V30 3992 O 358.554 -1.87866 0.503645 0
M  V30 3993 C 358.837 -0.219051 3.59433 0
M  V30 3994 C 358.69 1.12211 4.35579 0
M  V30 3995 C 360.009 -0.964157 4.29409 0
M  V30 3996 H 357.128 -0.0190627 0.736753 0
M  V30 3997 H 359.77 0.641021 1.7886 0
M  V30 3998 H 357.92 -0.813165 3.79895 0
M  V30 3999 H 359.592 1.75437 4.26637 0
M  V30 4000 H 357.835 1.71377 3.98513 0
M  V30 4001 H 358.506 0.961794 5.43556 0
M  V30 4002 H 360.982 -0.460378 4.13545 0
M  V30 4003 H 359.858 -1.04671 5.38828 0
M  V30 4004 H 360.119 -2.00563 3.93988 0
M  V30 4005 N 359.178 -1.55987 0.224894 0
M  V30 4006 C 360.108 -2.23426 -0.678457 0
M  V30 4007 C 361.089 -1.20709 -1.19847 0
M  V30 4008 O 362.274 -1.49304 -1.24186 0
M  V30 4009 C 359.404 -2.91676 -1.88527 0
M  V30 4010 C 358.358 -4.00893 -1.49896 0
M  V30 4011 C 357.684 -4.56455 -2.78483 0
M  V30 4012 C 358.984 -5.17769 -0.686461 0
M  V30 4013 H 360.678 -2.99175 -0.116173 0
M  V30 4014 H 358.224 -1.43897 -0.054436 0
M  V30 4015 H 360.177 -3.37547 -2.5227 0
M  V30 4016 H 358.901 -2.1338 -2.47258 0
M  V30 4017 H 357.56 -3.55758 -0.884985 0
M  V30 4018 H 357.208 -3.74886 -3.35365 0
M  V30 4019 H 356.908 -5.30169 -2.53368 0
M  V30 4020 H 358.432 -5.05047 -3.43162 0
M  V30 4021 H 359.846 -5.60001 -1.22767 0
M  V30 4022 H 358.243 -5.97735 -0.532259 0
M  V30 4023 H 359.313 -4.83932 0.306196 0
M  V30 4024 N 360.656 0.0484629 -1.57525 0
M  V30 4025 C 361.566 1.07241 -2.08654 0
M  V30 4026 C 362.582 1.409 -1.02095 0
M  V30 4027 O 363.758 1.50609 -1.33712 0
M  V30 4028 C 360.823 2.36008 -2.5397 0
M  V30 4029 C 359.884 2.09108 -3.7493 0
M  V30 4030 C 359.117 3.31736 -4.18075 0
M  V30 4031 O 359.34 4.41714 -3.60895 0
M  V30 4032 O 358.274 3.18576 -5.10679 0
M  V30 4033 H 362.1 0.667965 -2.96263 0
M  V30 4034 H 359.685 0.26417 -1.47046 0
M  V30 4035 H 361.567 3.11747 -2.83535 0
M  V30 4036 H 360.242 2.75786 -1.69481 0
M  V30 4037 H 359.149 1.31 -3.50414 0
M  V30 4038 H 360.482 1.74198 -4.60343 0
M  V30 4039 N 362.134 1.5431 0.320358 0
M  V30 4040 C 363.364 1.7638 1.07582 0
M  V30 4041 C 363.772 0.513944 1.82086 0
M  V30 4042 O 363.115 -0.525123 1.76035 0
M  V30 4043 C 363.177 2.9055 2.1171 0
M  V30 4044 C 362.841 4.2934 1.56575 0
M  V30 4045 C 363.838 5.10077 1.00586 0
M  V30 4046 C 361.523 4.75893 1.60722 0
M  V30 4047 C 363.517 6.35477 0.494756 0
M  V30 4048 C 361.204 6.0126 1.09224 0
M  V30 4049 C 362.202 6.80886 0.53696 0
M  V30 4050 O 361.89 8.03894 0.0297371 0
M  V30 4051 H 361.622 0.592369 0.325692 0
M  V30 4052 H 364.176 2.02019 0.37116 0
M  V30 4053 H 362.406 2.60489 2.85801 0
M  V30 4054 H 364.095 3.00373 2.73003 0
M  V30 4055 H 364.861 4.75265 0.966869 0
M  V30 4056 H 360.74 4.13957 2.02882 0
M  V30 4057 H 364.284 6.97574 0.0606842 0
M  V30 4058 H 360.181 6.35562 1.12831 0
M  V30 4059 H 360.949 8.18372 0.14486 0
M  V30 4060 N 363.613 -0.582584 1.46437 0
M  V30 4061 C 364.545 -1.70618 1.53043 0
M  V30 4062 C 365.558 -1.57322 0.418769 0
M  V30 4063 O 366.747 -1.64744 0.687136 0
M  V30 4064 C 363.847 -3.08869 1.39474 0
M  V30 4065 C 363.02 -3.48166 2.64762 0
M  V30 4066 C 362.079 -4.65478 2.4539 0
M  V30 4067 O 361.105 -4.71333 3.19114 0
M  V30 4068 N 362.307 -5.60365 1.51564 0
M  V30 4069 H 365.072 -1.65405 2.49923 0
M  V30 4070 H 362.633 -0.768567 1.42494 0
M  V30 4071 H 364.625 -3.85143 1.24287 0
M  V30 4072 H 363.195 -3.08449 0.507758 0
M  V30 4073 H 362.415 -2.61598 2.9489 0
M  V30 4074 H 363.703 -3.71188 3.4799 0
M  V30 4075 H 363.101 -5.5837 0.907705 0
M  V30 4076 H 361.658 -6.36068 1.4234 0
M  V30 4077 N 365.091 -1.34144 -0.827227 0
M  V30 4078 C 366.339 -1.26009 -1.58007 0
M  V30 4079 C 366.66 0.170971 -1.94249 0
M  V30 4080 O 365.93 1.10256 -1.61927 0
M  V30 4081 H 364.51 -0.463414 -0.585881 0
M  V30 4082 H 367.172 -1.68005 -0.987951 0
M  V30 4083 H 366.268 -1.86187 -2.50481 0
M  V30 4084 N 366.569 1.04691 -1.17803 0
M  V30 4085 C 367.516 2.12557 -0.899343 0
M  V30 4086 C 368.486 1.65339 0.158771 0
M  V30 4087 O 369.671 1.90789 0.0204797 0
M  V30 4088 C 366.811 3.42481 -0.424315 0
M  V30 4089 C 365.924 4.03346 -1.54713 0
M  V30 4090 C 365.059 5.21208 -1.02546 0
M  V30 4091 C 364.098 5.74089 -2.12339 0
M  V30 4092 N 363.235 6.83247 -1.61612 0
M  V30 4093 H 368.075 2.35734 -1.823 0
M  V30 4094 H 365.612 1.1564 -0.909159 0
M  V30 4095 H 367.57 4.16996 -0.130421 0
M  V30 4096 H 366.2 3.19471 0.462377 0
M  V30 4097 H 365.252 3.2622 -1.95664 0
M  V30 4098 H 366.564 4.38628 -2.37501 0
M  V30 4099 H 365.718 6.02812 -0.685718 0
M  V30 4100 H 364.457 4.87414 -0.167084 0
M  V30 4101 H 363.462 4.91111 -2.47165 0
M  V30 4102 H 364.687 6.0993 -2.98601 0
M  V30 4103 H 362.633 6.5134 -0.780533 0
M  V30 4104 H 362.55 7.17559 -2.38003 0
M  V30 4105 H 363.818 7.68491 -1.30545 0
M  V30 4106 N 368.047 0.979072 1.23499 0
M  V30 4107 C 369.277 0.664237 1.95631 0
M  V30 4108 C 369.685 -0.772653 1.72704 0
M  V30 4109 O 369.028 -1.53141 1.01457 0
M  V30 4110 C 369.09 0.873115 3.48736 0
M  V30 4111 C 368.754 2.29182 3.95379 0
M  V30 4112 C 369.751 3.2704 4.04155 0
M  V30 4113 C 367.436 2.62256 4.28401 0
M  V30 4114 C 369.43 4.56052 4.45304 0
M  V30 4115 C 367.117 3.91491 4.69231 0
M  V30 4116 C 368.115 4.88201 4.77649 0
M  V30 4117 O 367.803 6.15129 5.17563 0
M  V30 4118 H 367.535 0.245915 0.629684 0
M  V30 4119 H 370.089 1.3127 1.57979 0
M  V30 4120 H 368.319 0.167476 3.86337 0
M  V30 4121 H 370.008 0.555642 4.02079 0
M  V30 4122 H 370.774 3.02819 3.78848 0
M  V30 4123 H 366.653 1.87692 4.21061 0
M  V30 4124 H 370.197 5.31538 4.51789 0
M  V30 4125 H 366.094 4.15508 4.93987 0
M  V30 4126 H 366.862 6.18862 5.35679 0
M  V30 4127 N 369.525 -1.3858 0.750561 0
M  V30 4128 C 370.774 -1.99424 0.302172 0
M  V30 4129 C 371.087 -1.60254 -1.12152 0
M  V30 4130 O 372.293 -2.14046 -1.67023 0
M  V30 4131 C 370.749 -3.56558 0.489307 0
M  V30 4132 C 370.357 -4.04682 1.92189 0
M  V30 4133 C 372.101 -4.24374 0.103478 0
M  V30 4134 C 370.008 -5.54446 2.05775 0
M  V30 4135 H 368.938 -0.746046 0.10923 0
M  V30 4136 H 371.589 -1.58383 0.92667 0
M  V30 4137 H 369.971 -3.95472 -0.204329 0
M  V30 4138 H 371.145 -3.77065 2.64875 0
M  V30 4139 H 369.46 -3.4958 2.26236 0
M  V30 4140 H 372.057 -5.34384 0.183787 0
M  V30 4141 H 372.4 -4.05468 -0.943481 0
M  V30 4142 H 372.933 -3.90688 0.748854 0
M  V30 4143 H 369.672 -5.78252 3.08714 0
M  V30 4144 H 369.192 -5.83816 1.37546 0
M  V30 4145 H 370.871 -6.20099 1.84626 0
M  V30 4146 N 371.003 -0.499398 -1.49478 0
M  V30 4147 C 371.933 0.269244 -2.31943 0
M  V30 4148 C 372.914 0.964054 -1.40143 0
M  V30 4149 O 374.099 0.955767 -1.69052 0
M  V30 4150 C 371.229 1.33504 -3.20615 0
M  V30 4151 C 370.183 0.760202 -4.21195 0
M  V30 4152 C 369.509 1.9264 -4.98792 0
M  V30 4153 C 370.809 -0.247661 -5.21712 0
M  V30 4154 H 372.503 -0.419082 -2.96452 0
M  V30 4155 H 370.049 -0.202988 -1.42562 0
M  V30 4156 H 372.002 1.88048 -3.77115 0
M  V30 4157 H 370.726 2.05253 -2.54045 0
M  V30 4158 H 369.385 0.23653 -3.65836 0
M  V30 4159 H 369.033 2.63154 -4.28671 0
M  V30 4160 H 368.733 1.54785 -5.66847 0
M  V30 4161 H 370.257 2.4762 -5.58137 0
M  V30 4162 H 371.671 0.209579 -5.72917 0
M  V30 4163 H 370.068 -0.541962 -5.97648 0
M  V30 4164 H 371.138 -1.16409 -4.7072 0
M  V30 4165 N 372.481 1.55866 -0.233164 0
M  V30 4166 C 373.428 2.20796 0.67215 0
M  V30 4167 C 374.398 1.16731 1.18166 0
M  V30 4168 O 375.583 1.45129 1.23864 0
M  V30 4169 C 372.723 2.90072 1.86955 0
M  V30 4170 C 371.836 4.08759 1.39786 0
M  V30 4171 C 370.971 4.65787 2.55374 0
M  V30 4172 C 370.01 5.76752 2.04998 0
M  V30 4173 N 369.147 6.28021 3.13901 0
M  V30 4174 H 373.987 2.9779 0.111749 0
M  V30 4175 H 371.524 1.47036 0.0434007 0
M  V30 4176 H 373.482 3.28428 2.57276 0
M  V30 4177 H 372.112 2.15575 2.40265 0
M  V30 4178 H 371.164 3.7581 0.589173 0
M  V30 4179 H 372.476 4.88906 0.98856 0
M  V30 4180 H 371.63 5.06646 3.33758 0
M  V30 4181 H 370.369 3.84828 2.99598 0
M  V30 4182 H 369.374 5.35383 1.25079 0
M  V30 4183 H 370.599 6.59553 1.61759 0
M  V30 4184 H 368.545 5.49971 3.57586 0
M  V30 4185 H 368.462 7.03323 2.7726 0
M  V30 4186 H 369.73 6.73538 3.92386 0
M  V30 4187 N 373.959 -0.0401083 1.57549 0
M  V30 4188 C 375.205 -0.734211 1.89043 0
M  V30 4189 C 375.538 -1.75591 0.829535 0
M  V30 4190 O 374.813 -1.93868 -0.156706 0
M  V30 4191 C 375.096 -1.41374 3.31188 0
M  V30 4192 C 374.949 -0.406299 4.47961 0
M  V30 4193 C 376.268 -2.35061 3.72068 0
M  V30 4194 H 373.387 -0.265447 0.687537 0
M  V30 4195 H 376.029 0.00294087 1.9 0
M  V30 4196 H 374.179 -2.04206 3.30503 0
M  V30 4197 H 375.851 0.219255 4.60779 0
M  V30 4198 H 374.094 0.275485 4.32924 0
M  V30 4199 H 374.765 -0.920022 5.44279 0
M  V30 4200 H 377.241 -1.82282 3.74049 0
M  V30 4201 H 376.117 -2.79593 4.72355 0
M  V30 4202 H 376.378 -3.21258 3.0372 0
M  V30 4203 N 375.437 -1.54477 -0.31217 0
M  V30 4204 C 376.677 -1.74958 -1.05684 0
M  V30 4205 C 377.041 -0.518414 -1.84869 0
M  V30 4206 O 378.242 -0.600759 -2.62001 0
M  V30 4207 C 376.513 -2.99656 -1.94785 0
M  V30 4208 S 378.072 -3.4109 -2.76049 0
M  V30 4209 H 374.89 -0.615104 -0.356606 0
M  V30 4210 H 377.492 -1.92669 -0.331514 0
M  V30 4211 H 376.196 -3.87397 -1.35468 0
M  V30 4212 H 375.727 -2.845 -2.71704 0
M  V30 4213 H 377.742 -2.97283 -3.97287 0
M  V30 4214 N 376.915 0.57481 -1.46744 0
M  V30 4215 C 378.163 1.33009 -1.52161 0
M  V30 4216 C 378.484 1.94185 -0.178092 0
M  V30 4217 O 377.754 1.7899 0.796196 0
M  V30 4218 H 376.334 0.493873 -0.560445 0
M  V30 4219 H 378.996 0.672589 -1.82927 0
M  V30 4220 H 378.092 2.13273 -2.27862 0
M  V30 4221 N 378.394 1.34581 0.820102 0
M  V30 4222 C 379.634 1.28448 1.58998 0
M  V30 4223 C 379.998 -0.142883 1.91468 0
M  V30 4224 O 381.199 -0.328422 2.66786 0
M  V30 4225 C 379.47 2.153 2.85273 0
M  V30 4226 S 381.029 2.26548 3.75794 0
M  V30 4227 H 377.847 0.456685 0.54494 0
M  V30 4228 H 380.449 1.69825 0.968487 0
M  V30 4229 H 379.153 3.18008 2.59421 0
M  V30 4230 H 378.684 1.7483 3.52417 0
M  V30 4231 H 380.699 1.44034 4.74835 0
M  V30 4232 N 379.872 -1.04064 1.18357 0
M  V30 4233 C 381.149 -1.74252 0.888581 0
M  V30 4234 C 381.529 -2.02138 -0.60856 0
M  V30 4235 O 380.877 -1.66656 -1.56327 0
M  V30 4236 C 381.087 -3.0277 1.73584 0
M  V30 4237 C 382.435 -3.76506 1.96286 0
M  V30 4238 O 383.459 -3.12668 1.70637 0
M  V30 4239 O 382.318 -4.91243 2.39464 0
M  V30 4240 H 379.412 -0.758271 0.330082 0
M  V30 4241 H 381.958 -1.1013 1.2911 0
M  V30 4242 H 380.73 -2.78299 2.75073 0
M  V30 4243 H 380.353 -3.74631 1.33183 0
M  V30 4244 N 381.35 -0.985608 -1.22978 0
M  V30 4245 C 382.26 -0.538548 -2.28335 0
M  V30 4246 C 383.276 0.409163 -1.69121 0
M  V30 4247 O 384.452 0.277797 -1.99475 0
M  V30 4248 C 381.517 0.146867 -3.46389 0
M  V30 4249 C 380.578 -0.842896 -4.20944 0
M  V30 4250 C 379.811 -0.190095 -5.33361 0
M  V30 4251 O 380.034 1.01767 -5.61248 0
M  V30 4252 O 378.968 -0.891289 -5.95264 0
M  V30 4253 H 382.794 -1.41487 -2.68729 0
M  V30 4254 H 380.379 -0.753495 -1.29007 0
M  V30 4255 H 382.261 0.531125 -4.1804 0
M  V30 4256 H 380.936 0.997871 -3.07935 0
M  V30 4257 H 379.843 -1.27795 -3.51595 0
M  V30 4258 H 381.176 -1.66287 -4.6326 0
M  V30 4259 N 382.828 1.3818 -0.7579 0
M  V30 4260 C 384.058 2.04004 -0.326463 0
M  V30 4261 C 384.466 1.57286 1.05156 0
M  V30 4262 O 383.809 0.743144 1.67997 0
M  V30 4263 C 383.871 3.58444 -0.275402 0
M  V30 4264 C 383.535 4.28237 -1.59569 0
M  V30 4265 C 384.532 4.53312 -2.54566 0
M  V30 4266 C 382.217 4.66341 -1.86631 0
M  V30 4267 C 384.211 5.15531 -3.74842 0
M  V30 4268 C 381.898 5.28283 -3.0718 0
M  V30 4269 C 382.896 5.52814 -4.01106 0
M  V30 4270 O 382.584 6.13465 -5.19534 0
M  V30 4271 H 382.316 0.662026 -0.136739 0
M  V30 4272 H 384.87 1.7777 -1.02893 0
M  V30 4273 H 383.1 3.83667 0.483337 0
M  V30 4274 H 384.789 4.05701 0.127099 0
M  V30 4275 H 385.555 4.24299 -2.34936 0
M  V30 4276 H 381.434 4.46591 -1.14358 0
M  V30 4277 H 384.978 5.34594 -4.48168 0
M  V30 4278 H 380.875 5.56719 -3.26702 0
M  V30 4279 H 381.643 6.31951 -5.20173 0
M  V30 4280 N 384.306 0.507319 1.49211 0
M  V30 4281 C 385.553 -0.0349529 2.0247 0
M  V30 4282 C 385.881 -1.36409 1.38647 0
M  V30 4283 O 385.136 -1.88841 0.513566 0
M  V30 4284 C 385.435 -0.229513 3.56662 0
M  V30 4285 C 385.101 1.02241 4.39156 0
M  V30 4286 C 383.763 1.36557 4.61417 0
M  V30 4287 C 386.115 1.85428 4.871 0
M  V30 4288 C 383.443 2.53999 5.28868 0
M  V30 4289 C 385.795 3.02028 5.55843 0
M  V30 4290 C 384.459 3.36717 5.76349 0
M  V30 4291 H 383.729 -0.0127902 0.74089 0
M  V30 4292 H 386.376 0.668756 1.79443 0
M  V30 4293 H 384.681 -1.0158 3.78403 0
M  V30 4294 H 386.378 -0.663641 3.9547 0
M  V30 4295 H 382.968 0.745124 4.22073 0
M  V30 4296 H 387.152 1.6023 4.69723 0
M  V30 4297 H 382.408 2.81105 5.42946 0
M  V30 4298 H 386.582 3.66808 5.91967 0
M  V30 4299 H 384.209 4.27821 6.28389 0
M  V30 4300 N 385.784 -1.5574 0.241426 0
M  V30 4301 C 386.714 -2.24133 -0.654722 0
M  V30 4302 C 387.695 -1.21974 -1.1856 0
M  V30 4303 O 388.88 -1.50612 -1.22595 0
M  V30 4304 C 386.01 -2.93659 -1.85423 0
M  V30 4305 C 384.964 -4.0246 -1.45636 0
M  V30 4306 C 384.29 -4.59383 -2.73626 0
M  V30 4307 C 385.59 -5.18468 -0.631506 0
M  V30 4308 H 387.284 -2.99281 -0.0844353 0
M  V30 4309 H 384.83 -1.43947 -0.0391707 0
M  V30 4310 H 386.783 -3.40203 -2.48676 0
M  V30 4311 H 385.507 -2.15991 -2.44981 0
M  V30 4312 H 384.166 -3.56676 -0.847202 0
M  V30 4313 H 383.814 -3.78422 -3.3137 0
M  V30 4314 H 383.514 -5.32826 -2.4773 0
M  V30 4315 H 385.038 -5.08658 -3.37786 0
M  V30 4316 H 386.452 -5.61272 -1.1682 0
M  V30 4317 H 384.849 -5.98266 -0.468831 0
M  V30 4318 H 385.919 -4.8358 0.357506 0
M  V30 4319 N 387.262 0.0317525 -1.57568 0
M  V30 4320 C 388.172 1.05021 -2.0978 0
M  V30 4321 C 389.188 1.39809 -1.03583 0
M  V30 4322 O 390.364 1.49182 -1.35302 0
M  V30 4323 C 387.429 2.33301 -2.56459 0
M  V30 4324 C 386.49 2.0512 -3.77127 0
M  V30 4325 C 385.723 3.27283 -4.2157 0
M  V30 4326 O 385.946 4.37861 -3.65559 0
M  V30 4327 O 384.88 3.13141 -5.14029 0
M  V30 4328 H 388.706 0.636505 -2.96955 0
M  V30 4329 H 386.291 0.248559 -1.47318 0
M  V30 4330 H 388.173 3.08722 -2.86825 0
M  V30 4331 H 386.848 2.73973 -1.72397 0
M  V30 4332 H 385.755 1.27276 -3.51784 0
M  V30 4333 H 387.088 1.69305 -4.62165 0
M  V30 4334 N 388.74 1.54641 0.303973 0
M  V30 4335 C 389.687 1.85386 1.37479 0
M  V30 4336 C 390.657 0.702528 1.50512 0
M  V30 4337 O 391.842 0.950867 1.65418 0
M  V30 4338 C 388.982 2.10413 2.73533 0
M  V30 4339 C 388.095 3.38049 2.68974 0
M  V30 4340 C 387.23 3.52934 3.97002 0
M  V30 4341 C 386.269 4.74373 3.86829 0
M  V30 4342 N 385.406 4.8608 5.06627 0
M  V30 4343 H 390.246 2.76732 1.1056 0
M  V30 4344 H 387.783 1.37034 0.534805 0
M  V30 4345 H 389.741 2.22919 3.52652 0
M  V30 4346 H 388.371 1.22338 2.98719 0
M  V30 4347 H 387.423 3.3418 1.81736 0
M  V30 4348 H 388.735 4.27288 2.57346 0
M  V30 4349 H 387.889 3.65088 4.84557 0
M  V30 4350 H 386.628 2.61824 4.1146 0
M  V30 4351 H 385.633 4.62255 2.97658 0
M  V30 4352 H 386.858 5.66888 3.73918 0
M  V30 4353 H 384.804 3.97891 5.21554 0
M  V30 4354 H 384.721 5.69315 4.9741 0
M  V30 4355 H 385.989 5.02587 5.95841 0
M  V30 4356 N 390.218 -0.567019 1.47046 0
M  V30 4357 C 391.448 -1.34831 1.56538 0
M  V30 4358 C 391.856 -1.8802 0.21101 0
M  V30 4359 O 391.199 -1.65152 -0.804387 0
M  V30 4360 C 391.261 -2.56139 2.52256 0
M  V30 4361 C 390.925 -2.24307 3.98165 0
M  V30 4362 C 391.922 -1.82192 4.86931 0
M  V30 4363 C 389.607 -2.35968 4.43423 0
M  V30 4364 C 391.601 -1.52153 6.18973 0
M  V30 4365 C 389.288 -2.05542 5.75496 0
M  V30 4366 C 390.286 -1.63701 6.63092 0
M  V30 4367 O 389.974 -1.33657 7.92711 0
M  V30 4368 H 389.706 -0.417683 0.531523 0
M  V30 4369 H 392.26 -0.694726 1.93294 0
M  V30 4370 H 390.49 -3.24356 2.10548 0
M  V30 4371 H 392.179 -3.18214 2.51982 0
M  V30 4372 H 392.945 -1.72684 4.53217 0
M  V30 4373 H 388.824 -2.67495 3.75456 0
M  V30 4374 H 392.368 -1.19421 6.87302 0
M  V30 4375 H 388.265 -2.14679 6.08755 0
M  V30 4376 H 389.033 -1.4737 8.05124 0
M  V30 4377 N 391.696 -1.35014 -0.812953 0
M  V30 4378 C 393.107 -1.25035 -1.38648 0
M  V30 4379 C 393.458 0.119967 -1.95833 0
M  V30 4380 O 392.583 1.02069 -1.90816 0
M  V30 4381 C 393.178 -2.26394 -2.52054 0
M  V30 4382 C 391.737 -2.20175 -3.05287 0
M  V30 4383 C 390.884 -2.12451 -1.78213 0
M  V30 4384 H 393.835 -1.46235 -0.616516 0
M  V30 4385 H 393.856 -1.88672 -3.30429 0
M  V30 4386 H 393.368 -3.26116 -2.10404 0
M  V30 4387 H 391.469 -1.23841 -3.51417 0
M  V30 4388 H 391.582 -3.11863 -3.63701 0
M  V30 4389 H 389.946 -1.58328 -1.9951 0
M  V30 4390 H 390.729 -3.14024 -1.38723 0
M  V30 4391 N 393.175 1.03435 -1.18907 0
M  V30 4392 C 394.105 2.13503 -0.945448 0
M  V30 4393 C 395.086 1.69682 0.119189 0
M  V30 4394 O 396.271 1.94169 -0.034707 0
M  V30 4395 C 393.401 3.44004 -0.477316 0
M  V30 4396 C 392.355 4.0148 -1.48316 0
M  V30 4397 C 391.681 5.27537 -0.872311 0
M  V30 4398 C 392.981 4.36921 -2.86177 0
M  V30 4399 H 394.675 2.34141 -1.86597 0
M  V30 4400 H 392.221 1.12523 -0.898584 0
M  V30 4401 H 394.174 4.20372 -0.294204 0
M  V30 4402 H 392.898 3.23072 0.478786 0
M  V30 4403 H 391.557 3.27201 -1.65332 0
M  V30 4404 H 391.205 5.02917 0.0911752 0
M  V30 4405 H 390.905 5.66954 -1.54393 0
M  V30 4406 H 392.429 6.06576 -0.699871 0
M  V30 4407 H 393.843 5.04248 -2.72776 0
M  V30 4408 H 392.24 4.87405 -3.50081 0
M  V30 4409 H 393.31 3.46466 -3.39248 0
M  V30 4410 N 394.653 0.992116 1.22453 0
M  V30 4411 C 395.878 0.685644 1.95739 0
M  V30 4412 C 396.303 -0.743 1.72804 0
M  V30 4413 O 395.661 -1.50778 1.00676 0
M  V30 4414 C 395.709 0.996293 3.46564 0
M  V30 4415 O 394.813 0.0945512 4.12292 0
M  V30 4416 H 394.154 0.256694 0.612376 0
M  V30 4417 H 396.684 1.32888 1.5557 0
M  V30 4418 H 396.694 0.93781 3.97076 0
M  V30 4419 H 395.369 2.03733 3.62582 0
M  V30 4420 H 393.946 0.208451 3.72317 0
M  V30 4421 N 396.131 -1.37776 0.765217 0
M  V30 4422 C 397.063 -2.28958 0.105361 0
M  V30 4423 C 398.076 -1.48316 -0.67128 0
M  V30 4424 O 399.265 -1.71046 -0.51045 0
M  V30 4425 C 396.365 -3.27421 -0.874569 0
M  V30 4426 C 395.538 -4.37132 -0.153123 0
M  V30 4427 C 394.597 -5.1571 -1.04547 0
M  V30 4428 O 393.623 -5.66896 -0.511672 0
M  V30 4429 N 394.825 -5.29808 -2.37243 0
M  V30 4430 H 397.59 -2.86227 0.888495 0
M  V30 4431 H 395.151 -1.49682 0.617 0
M  V30 4432 H 397.143 -3.7687 -1.47483 0
M  V30 4433 H 395.713 -2.70967 -1.55871 0
M  V30 4434 H 394.933 -3.89166 0.627975 0
M  V30 4435 H 396.221 -5.07625 0.345643 0
M  V30 4436 H 395.619 -4.89793 -2.83054 0
M  V30 4437 H 394.176 -5.82589 -2.9229 0
M  V30 4438 N 397.609 -0.515225 -1.4894 0
M  V30 4439 C 398.839 0.0205735 -2.0659 0
M  V30 4440 C 399.247 1.30064 -1.37405 0
M  V30 4441 O 398.59 1.78087 -0.450632 0
M  V30 4442 C 398.652 0.330124 -3.57981 0
M  V30 4443 C 398.316 -0.854295 -4.48944 0
M  V30 4444 C 399.313 -1.7487 -4.89609 0
M  V30 4445 C 396.998 -1.05712 -4.9105 0
M  V30 4446 C 398.992 -2.82996 -5.71132 0
M  V30 4447 C 396.679 -2.14154 -5.72347 0
M  V30 4448 C 397.677 -3.0263 -6.12294 0
M  V30 4449 O 397.365 -4.09198 -6.91962 0
M  V30 4450 H 397.097 -0.0236833 -0.675585 0
M  V30 4451 H 399.651 -0.715956 -1.92518 0
M  V30 4452 H 397.881 1.12044 -3.70112 0
M  V30 4453 H 399.57 0.806233 -3.97812 0
M  V30 4454 H 400.336 -1.60388 -4.57712 0
M  V30 4455 H 396.215 -0.377788 -4.59449 0
M  V30 4456 H 399.759 -3.52083 -6.02232 0
M  V30 4457 H 395.656 -2.28626 -6.03656 0
M  V30 4458 H 396.424 -4.06726 -7.10293 0
M  V30 4459 N 399.087 1.5561 -0.249682 0
M  V30 4460 C 400.034 2.21496 0.648694 0
M  V30 4461 C 401.004 1.17977 1.16921 0
M  V30 4462 O 402.189 1.46434 1.22318 0
M  V30 4463 C 399.329 2.92039 1.83868 0
M  V30 4464 C 398.442 4.10219 1.35442 0
M  V30 4465 C 397.577 4.6847 2.50419 0
M  V30 4466 C 396.616 5.78893 1.98869 0
M  V30 4467 N 395.753 6.31315 3.07223 0
M  V30 4468 H 400.593 2.97892 0.0801582 0
M  V30 4469 H 398.13 1.47074 0.0278031 0
M  V30 4470 H 400.088 3.31138 2.53778 0
M  V30 4471 H 398.718 2.18111 2.37965 0
M  V30 4472 H 397.77 3.76413 0.54928 0
M  V30 4473 H 399.082 4.89927 0.936649 0
M  V30 4474 H 398.236 5.10158 3.28366 0
M  V30 4475 H 396.975 3.87984 2.95499 0
M  V30 4476 H 395.98 5.3668 1.19393 0
M  V30 4477 H 397.205 6.61232 1.54755 0
M  V30 4478 H 395.151 5.53733 3.51732 0
M  V30 4479 H 395.068 7.06224 2.69784 0
M  V30 4480 H 396.336 6.77662 3.8522 0
M  V30 4481 N 400.565 -0.0233959 1.57583 0
M  V30 4482 C 401.795 -0.723631 1.93513 0
M  V30 4483 C 402.203 -1.69115 0.848333 0
M  V30 4484 O 401.546 -1.82781 -0.183484 0
M  V30 4485 C 401.608 -1.53075 3.25282 0
M  V30 4486 C 401.272 -0.727388 4.51174 0
M  V30 4487 C 402.269 -0.0251924 5.19894 0
M  V30 4488 C 399.954 -0.680256 4.97672 0
M  V30 4489 C 401.948 0.713374 6.33395 0
M  V30 4490 C 399.635 0.0620523 6.11068 0
M  V30 4491 C 400.633 0.757622 6.78785 0
M  V30 4492 O 400.321 1.48787 7.90011 0
M  V30 4493 H 400.053 -0.208051 0.643188 0
M  V30 4494 H 402.607 0.0167489 2.05393 0
M  V30 4495 H 400.837 -2.31508 3.09744 0
M  V30 4496 H 402.526 -2.11413 3.46496 0
M  V30 4497 H 403.292 -0.0526003 4.84971 0
M  V30 4498 H 399.171 -1.21116 4.44805 0
M  V30 4499 H 402.715 1.25683 6.86185 0
M  V30 4500 H 398.612 0.0913634 6.45435 0
M  V30 4501 H 399.38 1.40213 8.06401 0
M  V30 4502 N 402.043 -1.548 -0.295768 0
M  V30 4503 C 403.292 -1.73538 -1.02798 0
M  V30 4504 C 403.605 -0.531159 -1.8825 0
M  V30 4505 O 404.811 -0.600458 -2.64777 0
M  V30 4506 C 403.267 -3.07051 -1.87744 0
M  V30 4507 C 402.875 -4.34968 -1.07269 0
M  V30 4508 C 404.619 -3.35146 -2.60533 0
M  V30 4509 C 402.526 -5.5953 -1.91521 0
M  V30 4510 H 401.456 -0.646794 -0.387522 0
M  V30 4511 H 404.107 -1.81278 -0.284718 0
M  V30 4512 H 402.489 -2.93289 -2.66078 0
M  V30 4513 H 403.663 -4.5958 -0.335117 0
M  V30 4514 H 401.978 -4.13847 -0.460384 0
M  V30 4515 H 404.575 -4.2541 -3.23929 0
M  V30 4516 H 404.918 -2.54255 -3.29636 0
M  V30 4517 H 405.451 -3.49902 -1.89244 0
M  V30 4518 H 402.19 -6.43103 -1.26878 0
M  V30 4519 H 401.71 -5.39096 -2.62937 0
M  V30 4520 H 403.389 -5.96982 -2.49442 0
M  V30 4521 N 403.521 0.559213 -1.47345 0
M  V30 4522 C 404.937 0.884943 -1.32819 0
M  V30 4523 C 405.137 1.98988 -0.317173 0
M  V30 4524 O 404.193 2.51031 0.272011 0
M  V30 4525 C 405.506 1.28007 -2.72093 0
M  V30 4526 C 407.054 1.39161 -2.80363 0
M  V30 4527 C 407.529 1.82031 -4.20272 0
M  V30 4528 N 409.02 1.89185 -4.22804 0
M  V30 4529 C 409.755 2.2368 -5.27973 0
M  V30 4530 N 409.251 2.56802 -6.43447 0
M  V30 4531 N 411.044 2.24436 -5.15349 0
M  V30 4532 H 403.195 -0.170304 -2.11716 0
M  V30 4533 H 405.458 -0.0135247 -0.947904 0
M  V30 4534 H 405.164 0.542027 -3.47498 0
M  V30 4535 H 405.038 2.23665 -3.03733 0
M  V30 4536 H 407.425 2.12048 -2.05231 0
M  V30 4537 H 407.506 0.41696 -2.52379 0
M  V30 4538 H 407.15 1.09715 -4.95908 0
M  V30 4539 H 407.08 2.80495 -4.45679 0
M  V30 4540 H 409.571 1.65982 -3.39497 0
M  V30 4541 H 409.884 2.82144 -7.19454 0
M  V30 4542 H 408.229 2.54387 -6.46771 0
M  V30 4543 H 411.42 1.97998 -4.24163 0
M  V30 4544 H 411.593 2.50989 -5.97418 0
M  V30 4545 N 404.999 1.35443 0.805782 0
M  V30 4546 C 406.224 1.32037 1.59941 0
M  V30 4547 C 406.649 -0.0994215 1.87837 0
M  V30 4548 O 406.007 -1.06648 1.46615 0
M  V30 4549 C 406.055 2.13354 2.90711 0
M  V30 4550 O 405.159 1.5148 3.83572 0
M  V30 4551 H 404.5 0.452666 0.485787 0
M  V30 4552 H 407.03 1.78496 1.00002 0
M  V30 4553 H 407.04 2.25338 3.40128 0
M  V30 4554 H 405.715 3.16572 2.69732 0
M  V30 4555 H 404.292 1.4834 3.42125 0
M  V30 4556 N 406.477 -1.02803 1.19454 0
M  V30 4557 C 407.717 -1.77769 1.00883 0
M  V30 4558 C 408.081 -1.86596 -0.45233 0
M  V30 4559 O 409.282 -2.57895 -0.757877 0
M  V30 4560 C 407.553 -3.16486 1.66046 0
M  V30 4561 S 409.112 -4.07632 1.62424 0
M  V30 4562 H 405.93 -0.611949 0.361993 0
M  V30 4563 H 408.532 -1.23175 1.51816 0
M  V30 4564 H 407.236 -3.0768 2.7159 0
M  V30 4565 H 406.767 -3.76156 1.15196 0
M  V30 4566 H 408.782 -4.91937 0.64903 0
M  V30 4567 N 407.956 -0.998596 -1.21925 0
M  V30 4568 C 409.205 -0.673085 -1.90138 0
M  V30 4569 C 409.518 0.79895 -1.78539 0
M  V30 4570 O 410.724 1.23628 -2.4172 0
M  V30 4571 C 409.18 -1.15339 -3.40918 0
M  V30 4572 C 408.788 -2.65106 -3.61141 0
M  V30 4573 C 410.532 -0.902476 -4.14796 0
M  V30 4574 C 408.439 -3.0671 -5.05651 0
M  V30 4575 H 407.369 -0.248057 -0.712028 0
M  V30 4576 H 410.02 -1.20891 -1.38049 0
M  V30 4577 H 408.402 -0.545658 -3.92223 0
M  V30 4578 H 409.576 -3.31274 -3.20304 0
M  V30 4579 H 407.891 -2.88142 -3.00605 0
M  V30 4580 H 410.488 -1.18895 -5.21314 0
M  V30 4581 H 410.831 0.161349 -4.15987 0
M  V30 4582 H 411.364 -1.47269 -3.69536 0
M  V30 4583 H 408.103 -4.12292 -5.09603 0
M  V30 4584 H 407.623 -2.45249 -5.47369 0
M  V30 4585 H 409.302 -2.9833 -5.74115 0
M  V30 4586 N 409.434 1.37368 -0.772513 0
M  V30 4587 C 410.367 2.27956 -0.105593 0
M  V30 4588 C 411.345 1.46362 0.708295 0
M  V30 4589 O 412.529 1.75695 0.682895 0
M  V30 4590 C 409.656 3.27687 0.856686 0
M  V30 4591 C 408.702 4.26312 0.1267 0
M  V30 4592 S 409.535 5.22206 -1.1858 0
M  V30 4593 C 410.691 6.25488 -0.227081 0
M  V30 4594 H 410.924 2.84171 -0.87372 0
M  V30 4595 H 408.457 1.43654 -0.565939 0
M  V30 4596 H 410.415 3.85653 1.40648 0
M  V30 4597 H 409.076 2.70417 1.59793 0
M  V30 4598 H 408.269 4.96674 0.856212 0
M  V30 4599 H 407.871 3.72339 -0.352117 0
M  V30 4600 H 410.163 6.74836 0.600231 0
M  V30 4601 H 411.106 7.02371 -0.898899 0
M  V30 4602 H 411.514 5.64267 0.162053 0
M  V30 4603 N 410.912 0.523116 1.48665 0
M  V30 4604 C 411.842 -0.23231 2.32342 0
M  V30 4605 C 412.823 -0.941637 1.41659 0
M  V30 4606 O 414.008 -0.928751 1.70552 0
M  V30 4607 C 411.138 -1.28387 3.22698 0
M  V30 4608 C 410.092 -0.693098 4.22351 0
M  V30 4609 C 409.418 -1.8468 5.01794 0
M  V30 4610 C 410.718 0.33063 5.21252 0
M  V30 4611 H 412.412 0.466192 2.95748 0
M  V30 4612 H 409.958 0.225643 1.42221 0
M  V30 4613 H 411.911 -1.82024 3.80059 0
M  V30 4614 H 410.635 -2.01186 2.57278 0
M  V30 4615 H 409.294 -0.178299 3.66166 0
M  V30 4616 H 408.942 -2.56301 4.32804 0
M  V30 4617 H 408.642 -1.45747 5.69238 0
M  V30 4618 H 410.166 -2.38709 5.62006 0
M  V30 4619 H 411.58 -0.118407 5.73178 0
M  V30 4620 H 409.977 0.636974 5.9671 0
M  V30 4621 H 411.047 1.23883 4.68808 0
M  V30 4622 N 412.39 -1.55475 0.257931 0
M  V30 4623 C 413.638 -1.98813 -0.363009 0
M  V30 4624 C 413.959 -1.14757 -1.57657 0
M  V30 4625 O 413.229 -0.232956 -1.9451 0
M  V30 4626 H 411.809 -0.734308 -0.137113 0
M  V30 4627 H 414.471 -1.9156 0.359281 0
M  V30 4628 H 413.567 -3.04941 -0.664634 0
M  V30 4629 N 413.868 0.0150385 -1.57593 0
M  V30 4630 C 415.284 0.370907 -1.5523 0
M  V30 4631 C 415.484 1.75735 -0.985882 0
M  V30 4632 O 414.54 2.44944 -0.613077 0
M  V30 4633 C 415.853 0.259908 -2.99575 0
M  V30 4634 C 417.401 0.335959 -3.11192 0
M  V30 4635 C 417.876 0.254253 -4.57294 0
M  V30 4636 N 419.367 0.312618 -4.62144 0
M  V30 4637 C 420.102 0.272505 -5.72752 0
M  V30 4638 N 419.598 0.183864 -6.92556 0
M  V30 4639 N 421.391 0.323267 -5.6117 0
M  V30 4640 H 413.542 -0.892104 -1.92757 0
M  V30 4641 H 415.805 -0.340563 -0.884715 0
M  V30 4642 H 415.511 -0.693403 -3.44797 0
M  V30 4643 H 415.385 1.048 -3.62349 0
M  V30 4644 H 417.772 1.27971 -2.65909 0
M  V30 4645 H 417.853 -0.481739 -2.51223 0
M  V30 4646 H 417.497 -0.685887 -5.03247 0
M  V30 4647 H 417.427 1.09024 -5.15191 0
M  V30 4648 H 419.918 0.38307 -3.75953 0
M  V30 4649 H 420.231 0.15874 -7.72637 0
M  V30 4650 H 418.576 0.149708 -6.94839 0
M  V30 4651 H 421.767 0.390607 -4.66467 0
M  V30 4652 H 421.94 0.288539 -6.47357 0
M  V30 4653 N 415.346 1.54954 0.287554 0
M  V30 4654 C 416.279 1.81737 1.3801 0
M  V30 4655 C 417.257 0.669412 1.48181 0
M  V30 4656 O 418.441 0.910839 1.65033 0
M  V30 4657 C 415.568 1.96606 2.75796 0
M  V30 4658 C 414.614 3.19098 2.82982 0
M  V30 4659 S 415.447 4.7683 2.43707 0
M  V30 4660 C 416.603 4.94653 3.83496 0
M  V30 4661 H 416.836 2.74122 1.15085 0
M  V30 4662 H 414.369 1.46538 0.486403 0
M  V30 4663 H 416.327 2.05858 3.55152 0
M  V30 4664 H 414.988 1.05136 2.95982 0
M  V30 4665 H 414.181 3.26344 3.84077 0
M  V30 4666 H 413.783 3.08361 2.11635 0
M  V30 4667 H 416.075 4.79502 4.78628 0
M  V30 4668 H 417.018 5.96728 3.8121 0
M  V30 4669 H 417.426 4.2272 3.74123 0
M  V30 4670 N 416.824 -0.551391 1.4764 0
M  V30 4671 C 418.235 -1.13349 1.48354 0
M  V30 4672 C 418.586 -1.94709 0.241432 0
M  V30 4673 O 417.711 -2.06306 -0.653205 0
M  V30 4674 C 418.306 -2.0623 2.68802 0
M  V30 4675 C 416.865 -2.597 2.72457 0
M  V30 4676 C 416.012 -1.36201 2.41546 0
M  V30 4677 H 418.963 -0.337698 1.55065 0
M  V30 4678 H 418.984 -2.90196 2.46103 0
M  V30 4679 H 418.496 -1.46987 3.59188 0
M  V30 4680 H 416.597 -3.22724 1.86225 0
M  V30 4681 H 416.71 -3.00296 3.73308 0
M  V30 4682 H 415.074 -1.67068 1.9225 0
M  V30 4683 H 415.857 -0.787425 3.34147 0
M  V30 4684 N 418.302 -1.35869 -0.798587 0
M  V30 4685 C 419.25 -1.29491 -1.93222 0
M  V30 4686 C 420.244 -0.18836 -1.6835 0
M  V30 4687 O 421.45 -0.354822 -1.76468 0
M  V30 4688 H 417.825 -0.402901 -0.63496 0
M  V30 4689 H 419.796 -2.25247 -1.9572 0
M  V30 4690 C 418.545 -1.09184 -3.30112 0
M  V30 4691 H 417.868 -1.93574 -3.49813 0
M  V30 4692 H 419.308 -1.08766 -4.09812 0
M  V30 4693 C 417.767 0.203959 -3.36282 0
M  V30 4694 O 418.297 1.19699 -3.83451 0
M  V30 4695 N 416.503 0.245488 -2.89561 0
M  V30 4696 H 416.05 -0.563223 -2.51367 0
M  V30 4697 H 416.008 1.11219 -2.94071 0
M  V30 4698 N 419.78 1.02168 -1.19998 0
M  V30 4699 C 420.71 2.12488 -0.96804 0
M  V30 4700 C 421.691 1.69799 0.101185 0
M  V30 4701 O 422.876 1.94121 -0.0552993 0
M  V30 4702 C 420.006 3.43479 -0.513776 0
M  V30 4703 C 418.96 3.99884 -1.52566 0
M  V30 4704 C 418.286 5.26582 -0.928214 0
M  V30 4705 C 419.586 4.33861 -2.90795 0
M  V30 4706 H 421.28 2.32149 -1.89069 0
M  V30 4707 H 418.826 1.11564 -0.910468 0
M  V30 4708 H 420.779 4.20036 -0.338774 0
M  V30 4709 H 419.503 3.23561 0.444493 0
M  V30 4710 H 418.162 3.25429 -1.68794 0
M  V30 4711 H 417.81 5.02986 0.0378289 0
M  V30 4712 H 417.51 5.65284 -1.60397 0
M  V30 4713 H 419.034 6.05799 -0.764167 0
M  V30 4714 H 420.448 5.01327 -2.78109 0
M  V30 4715 H 418.845 4.83664 -3.55231 0
M  V30 4716 H 419.915 3.42848 -3.42904 0
M  V30 4717 N 421.258 1.00505 1.21394 0
M  V30 4718 C 422.191 0.51032 2.22421 0
M  V30 4719 C 423.169 -0.436 1.56645 0
M  V30 4720 O 424.353 -0.358709 1.85055 0
M  V30 4721 C 421.48 -0.258733 3.3771 0
M  V30 4722 C 420.526 0.635395 4.2174 0
M  V30 4723 S 421.359 2.09783 4.92698 0
M  V30 4724 C 422.515 1.33862 6.11418 0
M  V30 4725 H 422.748 1.36637 2.64041 0
M  V30 4726 H 420.281 0.812991 1.31262 0
M  V30 4727 H 422.239 -0.696372 4.0455 0
M  V30 4728 H 420.9 -1.0902 2.94573 0
M  V30 4729 H 420.093 0.0430189 5.03982 0
M  V30 4730 H 419.695 1.01031 3.60095 0
M  V30 4731 H 421.987 0.612541 6.74725 0
M  V30 4732 H 422.93 2.13675 6.75092 0
M  V30 4733 H 423.338 0.846568 5.58116 0
M  V30 4734 N 422.737 -1.36956 0.779787 0
M  V30 4735 C 423.667 -2.32761 0.185651 0
M  V30 4736 C 424.648 -1.56177 -0.673989 0
M  V30 4737 O 425.833 -1.84378 -0.609797 0
M  V30 4738 C 422.963 -3.40418 -0.687964 0
M  V30 4739 C 421.917 -4.27941 0.0710102 0
M  V30 4740 C 421.243 -5.26681 -0.922573 0
M  V30 4741 C 422.543 -5.07006 1.25467 0
M  V30 4742 H 424.237 -2.82698 0.986008 0
M  V30 4743 H 421.783 -1.3592 0.475592 0
M  V30 4744 H 423.736 -4.06423 -1.11348 0
M  V30 4745 H 422.46 -2.89025 -1.52093 0
M  V30 4746 H 421.119 -3.63478 0.47739 0
M  V30 4747 H 420.767 -4.71565 -1.7503 0
M  V30 4748 H 420.467 -5.86103 -0.419237 0
M  V30 4749 H 421.991 -5.9556 -1.34686 0
M  V30 4750 H 423.405 -5.66105 0.905401 0
M  V30 4751 H 421.802 -5.75793 1.69063 0
M  V30 4752 H 422.872 -4.3921 2.05481 0
M  V30 4753 N 424.215 -0.530993 -1.48385 0
M  V30 4754 C 425.148 0.278511 -2.26494 0
M  V30 4755 C 426.126 0.943905 -1.32398 0
M  V30 4756 O 427.31 0.968098 -1.61741 0
M  V30 4757 C 424.437 1.39453 -3.08659 0
M  V30 4758 C 423.483 0.840434 -4.18137 0
M  V30 4759 S 424.316 -0.292496 -5.34701 0
M  V30 4760 C 425.472 0.825973 -6.20426 0
M  V30 4761 H 425.705 -0.384365 -2.94805 0
M  V30 4762 H 423.238 -0.316799 -1.51115 0
M  V30 4763 H 425.196 2.03382 -3.56575 0
M  V30 4764 H 423.857 2.02913 -2.3976 0
M  V30 4765 H 423.05 1.67769 -4.75257 0
M  V30 4766 H 422.652 0.277819 -3.72967 0
M  V30 4767 H 424.944 1.72438 -6.55188 0
M  V30 4768 H 425.887 0.292728 -7.07495 0
M  V30 4769 H 426.295 1.10683 -5.53543 0
M  V30 4770 N 425.693 1.55336 -0.266172 0
M  V30 4771 C 426.656 2.20878 0.612001 0
M  V30 4772 C 427.656 1.18388 1.08816 0
M  V30 4773 O 428.846 1.4335 0.989774 0
M  V30 4774 C 425.978 2.86765 1.84332 0
M  V30 4775 H 427.171 2.99873 0.0398718 0
M  V30 4776 H 424.724 1.56291 -0.0167309 0
M  V30 4777 H 425.459 2.11759 2.45619 0
M  V30 4778 H 425.244 3.61862 1.5099 0
M  V30 4779 H 426.734 3.36867 2.46801 0
M  V30 4780 N 427.171 -0.0066808 1.57599 0
M  V30 4781 C 428.118 -1.00024 2.08 0
M  V30 4782 C 429.088 -1.34549 0.973943 0
M  V30 4783 O 430.273 -1.44502 1.24595 0
M  V30 4784 C 427.413 -2.2891 2.58252 0
M  V30 4785 C 426.526 -2.00346 3.82734 0
M  V30 4786 C 425.661 -3.23265 4.21513 0
M  V30 4787 C 424.7 -2.90357 5.3885 0
M  V30 4788 N 423.837 -4.05793 5.72954 0
M  V30 4789 H 428.677 -0.563499 2.92624 0
M  V30 4790 H 426.214 -0.266592 1.44664 0
M  V30 4791 H 428.172 -3.04247 2.85464 0
M  V30 4792 H 426.802 -2.70265 1.76512 0
M  V30 4793 H 425.854 -1.15406 3.62471 0
M  V30 4794 H 427.166 -1.72086 4.68175 0
M  V30 4795 H 426.32 -4.06953 4.49971 0
M  V30 4796 H 425.059 -3.54657 3.34768 0
M  V30 4797 H 424.064 -2.05075 5.10122 0
M  V30 4798 H 425.289 -2.60219 6.27266 0
M  V30 4799 H 423.235 -4.37094 4.89167 0
M  V30 4800 H 423.152 -3.81034 6.52954 0
M  V30 4801 H 424.42 -4.90289 6.06001 0
M  V30 4802 N 428.649 -1.55105 -0.279332 0
M  V30 4803 C 429.559 -1.90638 -1.36727 0
M  V30 4804 C 430.575 -0.802899 -1.54368 0
M  V30 4805 O 431.751 -1.10138 -1.68616 0
M  V30 4806 C 428.816 -2.16547 -2.70755 0
M  V30 4807 C 427.877 -3.40146 -2.61915 0
M  V30 4808 C 427.11 -3.6481 -3.8955 0
M  V30 4809 O 427.333 -2.92095 -4.89935 0
M  V30 4810 O 426.267 -4.58343 -3.90135 0
M  V30 4811 H 430.093 -2.83237 -1.09591 0
M  V30 4812 H 427.678 -1.4157 -0.477306 0
M  V30 4813 H 429.56 -2.34665 -3.50014 0
M  V30 4814 H 428.235 -1.27131 -2.9769 0
M  V30 4815 H 427.142 -3.2737 -1.81052 0
M  V30 4816 H 428.475 -4.29761 -2.3993 0
M  V30 4817 N 430.127 0.543554 -1.4793 0
M  V30 4818 C 431.352 1.32995 -1.59145 0
M  V30 4819 C 431.777 1.86472 -0.246956 0
M  V30 4820 O 431.135 1.63696 0.779324 0
M  V30 4821 C 431.183 2.46623 -2.63077 0
M  V30 4822 O 430.287 3.49261 -2.19295 0
M  V30 4823 H 429.628 0.394472 -0.534124 0
M  V30 4824 H 432.158 0.655489 -1.93816 0
M  V30 4825 H 432.168 2.93001 -2.83926 0
M  V30 4826 H 430.843 2.07059 -3.60693 0
M  V30 4827 H 429.42 3.09094 -2.08603 0
M  V30 4828 N 431.605 1.3629 0.791371 0
M  V30 4829 C 432.535 1.33137 1.91825 0
M  V30 4830 C 433.516 0.203168 1.68882 0
M  V30 4831 O 434.701 0.400509 1.90025 0
M  V30 4832 C 431.831 1.11793 3.28816 0
M  V30 4833 C 430.785 2.21417 3.66277 0
M  V30 4834 C 430.111 1.85218 5.01596 0
M  V30 4835 C 431.411 3.63489 3.75064 0
M  V30 4836 H 433.105 2.2743 1.9472 0
M  V30 4837 H 430.651 1.09479 0.935437 0
M  V30 4838 H 432.604 1.08222 4.07266 0
M  V30 4839 H 431.328 0.139501 3.26302 0
M  V30 4840 H 429.987 2.2411 2.90121 0
M  V30 4841 H 429.635 0.859544 4.95602 0
M  V30 4842 H 429.335 2.58611 5.27631 0
M  V30 4843 H 430.859 1.832 5.82469 0
M  V30 4844 H 432.273 3.63034 4.43711 0
M  V30 4845 H 430.67 4.35771 4.12582 0
M  V30 4846 H 431.74 3.98536 2.76219 0
M  V30 4847 N 433.083 -1.0153 1.20538 0
M  V30 4848 C 434.313 -1.78487 1.04048 0
M  V30 4849 C 434.721 -1.84631 -0.413292 0
M  V30 4850 O 434.064 -1.29919 -1.29872 0
M  V30 4851 C 434.126 -3.24367 1.55003 0
M  V30 4852 C 433.79 -3.41827 3.0332 0
M  V30 4853 C 434.787 -3.30941 4.00966 0
M  V30 4854 C 432.472 -3.67602 3.42307 0
M  V30 4855 C 434.466 -3.45577 5.35589 0
M  V30 4856 C 432.153 -3.81881 4.77085 0
M  V30 4857 C 433.151 -3.70874 5.73534 0
M  V30 4858 O 432.839 -3.84714 7.05868 0
M  V30 4859 H 432.571 -0.568108 0.366373 0
M  V30 4860 H 435.125 -1.28677 1.60098 0
M  V30 4861 H 433.355 -3.75266 0.933397 0
M  V30 4862 H 435.044 -3.82963 1.34514 0
M  V30 4863 H 435.81 -3.10964 3.72191 0
M  V30 4864 H 431.689 -3.75256 2.67776 0
M  V30 4865 H 435.233 -3.36902 6.10854 0
M  V30 4866 H 431.13 -4.01359 5.0555 0
M  V30 4867 H 431.898 -4.01724 7.13134 0
M  V30 4868 N 434.561 -1.01147 -1.20859 0
M  V30 4869 C 435.786 -0.716698 -1.94623 0
M  V30 4870 C 436.211 0.715415 -1.73964 0
M  V30 4871 O 435.569 1.49157 -1.03062 0
M  V30 4872 C 435.617 -1.0513 -3.44935 0
M  V30 4873 O 434.721 -0.160131 -4.12089 0
M  V30 4874 H 434.062 -0.266404 -0.608214 0
M  V30 4875 H 436.592 -1.35346 -1.53436 0
M  V30 4876 H 436.602 -1.00086 -3.95533 0
M  V30 4877 H 435.277 -2.09475 -3.59295 0
M  V30 4878 H 433.854 -0.267657 -3.71938 0
M  V30 4879 N 436.039 1.36541 -0.78704 0
M  V30 4880 C 436.971 2.28761 -0.141773 0
M  V30 4881 C 437.984 1.49365 0.647599 0
M  V30 4882 O 439.173 1.71836 0.483173 0
M  V30 4883 C 436.273 3.28771 0.822368 0
M  V30 4884 C 435.446 4.3732 0.0835594 0
M  V30 4885 C 434.505 5.17307 0.963296 0
M  V30 4886 O 433.531 5.67638 0.421419 0
M  V30 4887 N 434.733 5.33515 2.28784 0
M  V30 4888 H 437.498 2.84777 -0.933919 0
M  V30 4889 H 435.059 1.48682 -0.640735 0
M  V30 4890 H 437.051 3.79169 1.41468 0
M  V30 4891 H 435.621 2.73412 1.5154 0
M  V30 4892 H 434.841 3.88118 -0.689809 0
M  V30 4893 H 436.129 5.0701 -0.426358 0
M  V30 4894 H 435.527 4.94234 2.75226 0
M  V30 4895 H 434.084 5.87165 2.82985 0
M  V30 4896 N 437.518 0.538854 1.48102 0
M  V30 4897 C 438.448 -0.207654 2.32575 0
M  V30 4898 C 439.429 -0.926559 1.4265 0
M  V30 4899 O 440.614 -0.91061 1.71527 0
M  V30 4900 C 437.744 -1.24957 3.24042 0
M  V30 4901 C 436.698 -0.648263 4.23062 0
M  V30 4902 C 436.024 -1.79348 5.03725 0
M  V30 4903 C 437.324 0.385897 5.20872 0
M  V30 4904 H 439.018 0.497534 2.95237 0
M  V30 4905 H 436.564 0.240715 1.41974 0
M  V30 4906 H 438.517 -1.77983 3.81969 0
M  V30 4907 H 437.241 -1.98446 2.59397 0
M  V30 4908 H 435.9 -0.139452 3.66335 0
M  V30 4909 H 435.548 -2.51696 4.35498 0
M  V30 4910 H 435.248 -1.39702 5.70751 0
M  V30 4911 H 436.772 -2.32735 5.64506 0
M  V30 4912 H 438.186 -0.057607 5.73271 0
M  V30 4913 H 436.583 0.700227 5.96001 0
M  V30 4914 H 437.653 1.28848 4.67468 0
M  V30 4915 N 438.996 -1.55193 0.274407 0
M  V30 4916 C 440.407 -1.85358 -0.223488 0
M  V30 4917 C 440.758 -1.19642 -1.555 0
M  V30 4918 O 439.883 -0.484498 -2.10907 0
M  V30 4919 C 440.478 -3.36282 -0.412285 0
M  V30 4920 C 439.037 -3.66574 -0.854413 0
M  V30 4921 C 438.184 -2.7725 0.0527056 0
M  V30 4922 H 441.135 -1.50743 0.496215 0
M  V30 4923 H 441.156 -3.59349 -1.25094 0
M  V30 4924 H 440.668 -3.84083 0.556965 0
M  V30 4925 H 438.769 -3.24273 -1.83516 0
M  V30 4926 H 438.882 -4.74073 -0.692226 0
M  V30 4927 H 437.246 -2.50447 -0.463484 0
M  V30 4928 H 438.029 -3.27865 1.01783 0
M  V30 4929 N 440.474 -0.00167713 -1.576 0
M  V30 4930 C 441.407 1.02317 -2.03977 0
M  V30 4931 C 442.385 1.33381 -0.929963 0
M  V30 4932 O 443.569 1.45517 -1.19822 0
M  V30 4933 C 440.696 2.35035 -2.43878 0
M  V30 4934 C 439.742 2.19621 -3.65607 0
M  V30 4935 S 440.575 1.52068 -5.13455 0
M  V30 4936 C 441.731 2.86212 -5.56627 0
M  V30 4937 H 441.964 0.628285 -2.90585 0
M  V30 4938 H 439.497 0.209239 -1.52976 0
M  V30 4939 H 441.455 3.11345 -2.67534 0
M  V30 4940 H 440.116 2.71663 -1.57665 0
M  V30 4941 H 439.309 3.1767 -3.91282 0
M  V30 4942 H 438.911 1.51455 -3.41961 0
M  V30 4943 H 441.203 3.82509 -5.59189 0
M  V30 4944 H 442.146 2.65235 -6.56549 0
M  V30 4945 H 442.554 2.90199 -4.84195 0
M  V30 4946 N 441.952 1.55251 0.271103 0
M  V30 4947 C 443.229 1.66664 1.02384 0
M  V30 4948 C 443.609 0.534363 2.04225 0
M  V30 4949 O 442.957 -0.465337 2.23712 0
M  V30 4950 C 443.167 3.05961 1.67895 0
M  V30 4951 C 444.515 3.63772 2.18986 0
M  V30 4952 O 445.539 3.08606 1.77878 0
M  V30 4953 O 444.398 4.60429 2.94393 0
M  V30 4954 H 441.492 0.676957 0.475035 0
M  V30 4955 H 444.038 1.67589 0.26681 0
M  V30 4956 H 442.81 3.79815 0.941071 0
M  V30 4957 H 442.433 3.08943 2.5028 0
M  V30 4958 N 443.43 -0.535701 1.48216 0
M  V30 4959 C 444.67 -1.30238 1.57536 0
M  V30 4960 C 445.034 -1.90479 0.241229 0
M  V30 4961 O 446.235 -2.67983 0.20938 0
M  V30 4962 C 444.506 -2.3669 2.67792 0
M  V30 4963 S 446.065 -3.23159 2.9684 0
M  V30 4964 H 442.883 -0.443093 0.556048 0
M  V30 4965 H 445.485 -0.610937 1.85709 0
M  V30 4966 H 444.189 -1.90905 3.63296 0
M  V30 4967 H 443.72 -3.10548 2.41502 0
M  V30 4968 H 445.735 -4.36647 2.35699 0
M  V30 4969 N 444.908 -1.36708 -0.784132 0
M  V30 4970 C 446.155 -1.31231 -1.54222 0
M  V30 4971 C 446.483 0.106864 -1.94206 0
M  V30 4972 O 445.738 1.07734 -1.63376 0
M  V30 4973 C 446.037 -2.18571 -2.82774 0
M  V30 4974 C 445.703 -3.67039 -2.61903 0
M  V30 4975 C 444.365 -4.07503 -2.55919 0
M  V30 4976 C 446.717 -4.61149 -2.4288 0
M  V30 4977 C 444.045 -5.40211 -2.28886 0
M  V30 4978 C 446.397 -5.94081 -2.17373 0
M  V30 4979 C 445.061 -6.33664 -2.09825 0
M  V30 4980 H 444.331 -0.48021 -0.56434 0
M  V30 4981 H 446.978 -1.68807 -0.904233 0
M  V30 4982 H 445.283 -1.73949 -3.51068 0
M  V30 4983 H 446.98 -2.11655 -3.40592 0
M  V30 4984 H 443.57 -3.34941 -2.67418 0
M  V30 4985 H 447.754 -4.30756 -2.46501 0
M  V30 4986 H 443.01 -5.69855 -2.21529 0
M  V30 4987 H 447.184 -6.66566 -2.01649 0
M  V30 4988 H 444.811 -7.36423 -1.88641 0
M  V30 4989 N 446.386 1.0089 -1.21074 0
M  V30 4990 C 447.614 1.78191 -1.05145 0
M  V30 4991 C 448.029 1.84537 0.398952 0
M  V30 4992 O 447.386 1.30393 1.27687 0
M  V30 4993 C 447.437 3.22288 -1.63746 0
M  V30 4994 O 447.158 3.16315 -3.03111 0
M  V30 4995 C 448.659 4.16106 -1.52875 0
M  V30 4996 H 445.879 0.560129 -0.369454 0
M  V30 4997 H 448.423 1.26945 -1.60328 0
M  V30 4998 H 446.578 3.70655 -1.12664 0
M  V30 4999 H 446.992 4.06817 -3.31059 0
M  V30 5000 H 448.466 5.15026 -1.98626 0
M  V30 5001 H 448.943 4.36541 -0.482521 0
M  V30 5002 H 449.549 3.73625 -2.03185 0
M  V30 5003 N 447.864 1.01787 1.20321 0
M  V30 5004 C 448.797 0.533882 2.21867 0
M  V30 5005 C 449.775 -0.419361 1.57099 0
M  V30 5006 O 450.959 -0.339062 1.85426 0
M  V30 5007 C 448.086 -0.222899 3.37966 0
M  V30 5008 C 447.132 0.680091 4.21043 0
M  V30 5009 S 447.965 2.14997 4.90445 0
M  V30 5010 C 449.121 1.40339 6.09964 0
M  V30 5011 H 449.354 1.39429 2.62577 0
M  V30 5012 H 446.887 0.826867 1.30393 0
M  V30 5013 H 448.845 -0.653425 4.05266 0
M  V30 5014 H 447.506 -1.0589 2.95713 0
M  V30 5015 H 446.699 0.0964704 5.03908 0
M  V30 5016 H 446.301 1.04845 3.59004 0
M  V30 5017 H 448.593 0.68407 6.74038 0
M  V30 5018 H 449.536 2.20823 6.72787 0
M  V30 5019 H 449.944 0.905716 5.57187 0
M  V30 5020 N 449.342 -1.36122 0.79427 0
M  V30 5021 C 450.753 -1.81646 0.431446 0
M  V30 5022 C 451.104 -1.66043 -1.04518 0
M  V30 5023 O 450.229 -1.1841 -1.8113 0
M  V30 5024 C 450.824 -3.29785 0.776341 0
M  V30 5025 C 449.383 -3.73501 0.466282 0
M  V30 5026 C 448.53 -2.58313 1.00844 0
M  V30 5027 H 451.481 -1.24274 0.986995 0
M  V30 5028 H 451.502 -3.80437 0.0692413 0
M  V30 5029 H 451.014 -3.4111 1.8511 0
M  V30 5030 H 449.115 -3.67733 -0.600245 0
M  V30 5031 H 449.228 -4.68754 0.990288 0
M  V30 5032 H 447.592 -2.5102 0.431406 0
M  V30 5033 H 448.375 -2.72421 2.08906 0
M  V30 5034 N 450.82 -0.546701 -1.47814 0
M  V30 5035 C 452.045 -0.021268 -2.07389 0
M  V30 5036 C 452.47 1.25822 -1.39822 0
M  V30 5037 O 451.828 1.75111 -0.46968 0
M  V30 5038 C 451.876 0.168502 -3.60206 0
M  V30 5039 O 450.98 1.23347 -3.93522 0
M  V30 5040 H 450.321 -0.0466108 -0.662362 0
M  V30 5041 H 452.851 -0.759387 -1.89985 0
M  V30 5042 H 452.861 0.385982 -4.0617 0
M  V30 5043 H 451.536 -0.766075 -4.08784 0
M  V30 5044 H 450.113 0.997319 -3.59316 0
M  V30 5045 N 452.299 1.55045 -0.282633 0
M  V30 5046 C 453.529 2.03872 0.334635 0
M  V30 5047 C 453.937 1.16018 1.49454 0
M  V30 5048 O 453.28 0.174449 1.8287 0
M  V30 5049 C 453.342 3.48791 0.870905 0
M  V30 5050 C 453.006 4.56715 -0.161338 0
M  V30 5051 C 454.003 5.10513 -0.983466 0
M  V30 5052 C 451.688 5.01417 -0.297745 0
M  V30 5053 C 453.682 6.07538 -1.92811 0
M  V30 5054 C 451.369 5.98265 -1.24586 0
M  V30 5055 C 452.367 6.51208 -2.05954 0
M  V30 5056 O 452.055 7.46162 -2.99162 0
M  V30 5057 H 451.787 0.671324 0.0793742 0
M  V30 5058 H 454.341 2.01169 -0.41473 0
M  V30 5059 H 452.571 3.48758 1.67047 0
M  V30 5060 H 454.26 3.80916 1.40207 0
M  V30 5061 H 455.026 4.76785 -0.888856 0
M  V30 5062 H 450.905 4.59849 0.325604 0
M  V30 5063 H 454.449 6.48787 -2.56363 0
M  V30 5064 H 450.346 6.31412 -1.34126 0
M  V30 5065 H 451.114 7.63903 -2.93929 0
M  V30 5066 N 453.777 0.010035 1.57597 0
M  V30 5067 C 455.002 -0.687021 1.95691 0
M  V30 5068 C 455.427 -1.65952 0.885519 0
M  V30 5069 O 454.785 -1.80633 -0.15543 0
M  V30 5070 C 454.833 -1.3864 3.32884 0
M  V30 5071 O 453.937 -2.50115 3.27897 0
M  V30 5072 H 453.278 -0.181989 0.638573 0
M  V30 5073 H 455.808 0.0662122 2.04493 0
M  V30 5074 H 455.818 -1.74754 3.6868 0
M  V30 5075 H 454.493 -0.673411 4.10412 0
M  V30 5076 H 453.07 -2.16253 3.03791 0
M  V30 5077 N 455.255 -1.55392 -0.262866 0
M  V30 5078 C 456.671 -1.47459 -0.610582 0
M  V30 5079 C 456.871 -0.697031 -1.8906 0
M  V30 5080 O 455.927 -0.219952 -2.5154 0
M  V30 5081 C 457.24 -2.91751 -0.728131 0
M  V30 5082 C 458.788 -3.02027 -0.821517 0
M  V30 5083 C 459.263 -4.47594 -0.97076 0
M  V30 5084 N 460.754 -4.51465 -1.03603 0
M  V30 5085 C 461.489 -5.61326 -1.17049 0
M  V30 5086 N 460.985 -6.81032 -1.2715 0
M  V30 5087 N 462.778 -5.49089 -1.20239 0
M  V30 5088 H 454.929 -2.04395 0.577632 0
M  V30 5089 H 457.192 -0.927287 0.197086 0
M  V30 5090 H 456.898 -3.51413 0.142132 0
M  V30 5091 H 456.772 -3.4134 -1.6052 0
M  V30 5092 H 459.159 -2.42456 -1.68224 0
M  V30 5093 H 459.24 -2.55674 0.0803688 0
M  V30 5094 H 458.884 -5.07771 -0.114655 0
M  V30 5095 H 458.814 -4.91613 -1.88745 0
M  V30 5096 H 461.305 -3.6524 -0.96996 0
M  V30 5097 H 461.618 -7.60511 -1.37271 0
M  V30 5098 H 459.963 -6.83824 -1.24136 0
M  V30 5099 H 463.154 -4.54507 -1.11985 0
M  V30 5100 H 463.327 -6.34749 -1.30373 0
M  V30 5101 N 456.733 0.527833 -1.48498 0
M  V30 5102 C 458.149 0.856571 -1.34666 0
M  V30 5103 C 458.349 1.98271 -0.35931 0
M  V30 5104 O 457.405 2.51551 0.218703 0
M  V30 5105 C 458.718 1.22207 -2.74747 0
M  V30 5106 C 460.266 1.33183 -2.83251 0
M  V30 5107 C 460.741 1.73075 -4.24039 0
M  V30 5108 N 462.232 1.80174 -4.26722 0
M  V30 5109 C 462.967 2.1243 -5.32598 0
M  V30 5110 N 462.463 2.43096 -6.4875 0
M  V30 5111 N 464.256 2.13454 -5.19994 0
M  V30 5112 H 456.407 -0.215174 -2.11307 0
M  V30 5113 H 458.67 -0.0336281 -0.947403 0
M  V30 5114 H 458.376 0.468195 -3.4857 0
M  V30 5115 H 458.25 2.17173 -3.08409 0
M  V30 5116 H 460.637 2.07647 -2.09683 0
M  V30 5117 H 460.718 0.363333 -2.53206 0
M  V30 5118 H 460.362 0.991712 -4.98124 0
M  V30 5119 H 460.292 2.70979 -4.51529 0
M  V30 5120 H 462.783 1.58744 -3.42942 0
M  V30 5121 H 463.096 2.6682 -7.25277 0
M  V30 5122 H 461.441 2.40611 -6.52021 0
M  V30 5123 H 464.632 1.88956 -4.28268 0
M  V30 5124 H 464.805 2.38261 -6.02608 0
M  V30 5125 N 458.211 1.37122 0.776871 0
M  V30 5126 C 459.46 1.31373 1.53049 0
M  V30 5127 C 459.773 -0.101016 1.95339 0
M  V30 5128 O 460.979 -0.280953 2.70042 0
M  V30 5129 C 459.435 2.30567 2.76346 0
M  V30 5130 C 459.043 3.77543 2.41175 0
M  V30 5131 C 460.787 2.33818 3.54301 0
M  V30 5132 C 458.694 4.68481 3.60943 0
M  V30 5133 H 457.624 0.488234 0.574581 0
M  V30 5134 H 460.275 1.62554 0.851372 0
M  V30 5135 H 458.657 1.92396 3.46121 0
M  V30 5136 H 459.831 4.24521 1.79216 0
M  V30 5137 H 458.146 3.77187 1.76405 0
M  V30 5138 H 460.743 2.98965 4.4331 0
M  V30 5139 H 461.086 1.3503 3.93793 0
M  V30 5140 H 461.619 2.7067 2.91518 0
M  V30 5141 H 458.358 5.68378 3.26537 0
M  V30 5142 H 457.878 4.2621 4.22025 0
M  V30 5143 H 459.557 4.85366 4.27819 0
M  V30 5144 N 459.689 -1.00246 1.21608 0
M  V30 5145 C 460.914 -1.78167 1.06167 0
M  V30 5146 C 461.339 -1.84138 -0.384035 0
M  V30 5147 O 460.697 -1.28683 -1.27712 0
M  V30 5148 C 460.745 -3.19786 1.66642 0
M  V30 5149 O 459.849 -4.02153 0.913613 0
M  V30 5150 H 459.19 -0.549 0.37349 0
M  V30 5151 H 461.72 -1.25994 1.61204 0
M  V30 5152 H 461.73 -3.70451 1.70969 0
M  V30 5153 H 460.405 -3.14754 2.7185 0
M  V30 5154 H 458.982 -3.60711 0.945635 0
M  V30 5155 N 461.167 -1.02423 -1.1978 0
M  V30 5156 C 462.395 -0.737456 -1.93311 0
M  V30 5157 C 462.81 0.703023 -1.75223 0
M  V30 5158 O 462.167 1.47761 -1.07112 0
M  V30 5159 C 462.218 -1.0733 -3.45199 0
M  V30 5160 O 461.939 -2.4572 -3.62702 0
M  V30 5161 C 463.44 -0.80866 -4.35862 0
M  V30 5162 H 460.66 -0.2702 -0.614193 0
M  V30 5163 H 463.204 -1.36747 -1.52054 0
M  V30 5164 H 461.359 -0.488545 -3.84307 0
M  V30 5165 H 461.773 -2.58081 -4.56612 0
M  V30 5166 H 463.247 -1.09365 -5.41057 0
M  V30 5167 H 463.724 0.257025 -4.38447 0
M  V30 5168 H 464.33 -1.37592 -4.02428 0
M  V30 5169 N 462.645 1.35699 -0.801477 0
M  V30 5170 C 463.608 2.28199 -0.213994 0
M  V30 5171 C 464.608 1.49359 0.595691 0
M  V30 5172 O 465.798 1.69186 0.414921 0
M  V30 5173 C 462.93 3.33587 0.702297 0
M  V30 5174 H 464.123 2.81666 -1.02976 0
M  V30 5175 H 461.676 1.45467 -0.571759 0
M  V30 5176 H 462.411 2.85297 1.54195 0
M  V30 5177 H 462.196 3.91906 0.123484 0
M  V30 5178 H 463.686 4.02638 1.10783 0
M  V30 5179 N 464.123 0.554532 1.47522 0
M  V30 5180 C 465.351 0.034257 2.06872 0
M  V30 5181 C 465.766 -1.25826 1.40759 0
M  V30 5182 O 465.123 -1.75425 0.503217 0
M  V30 5183 C 465.174 -0.167827 3.6111 0
M  V30 5184 O 464.895 1.07351 4.24744 0
M  V30 5185 C 466.396 -0.72569 4.3732 0
M  V30 5186 H 463.616 0.0446275 0.669514 0
M  V30 5187 H 466.16 0.767181 1.89564 0
M  V30 5188 H 464.315 -0.850872 3.7794 0
M  V30 5189 H 464.729 0.869563 5.17242 0
M  V30 5190 H 466.203 -0.816394 5.45929 0
M  V30 5191 H 466.68 -1.73635 4.0342 0
M  V30 5192 H 467.286 -0.0784292 4.25228 0
M  V30 5193 N 465.601 -1.54893 0.290851 0
M  V30 5194 C 467.012 -1.85584 -0.203816 0
M  V30 5195 C 467.363 -1.21285 -1.54222 0
M  V30 5196 O 466.488 -0.506841 -2.10381 0
M  V30 5197 C 467.083 -3.367 -0.376595 0
M  V30 5198 C 465.642 -3.6746 -0.815485 0
M  V30 5199 C 464.789 -2.77178 0.0821087 0
M  V30 5200 H 467.74 -1.50208 0.512175 0
M  V30 5201 H 467.761 -3.60656 -1.21275 0
M  V30 5202 H 467.273 -3.8347 0.59767 0
M  V30 5203 H 465.374 -3.26201 -1.80066 0
M  V30 5204 H 465.487 -4.7478 -0.641905 0
M  V30 5205 H 463.851 -2.50925 -0.436895 0
M  V30 5206 H 464.634 -3.26767 1.05254 0
M  V30 5207 N 467.08 -0.0183926 -1.57589 0
M  V30 5208 C 468.31 0.67207 -1.95363 0
M  V30 5209 C 468.718 1.66807 -0.892872 0
M  V30 5210 O 468.061 1.83204 0.134958 0
M  V30 5211 C 468.123 1.44397 -3.29226 0
M  V30 5212 C 467.787 0.607511 -4.52944 0
M  V30 5213 C 468.784 -0.112657 -5.19778 0
M  V30 5214 C 466.469 0.548068 -4.99301 0
M  V30 5215 C 468.463 -0.881057 -6.31281 0
M  V30 5216 C 466.15 -0.224044 -6.10689 0
M  V30 5217 C 467.148 -0.937323 -6.76538 0
M  V30 5218 O 466.836 -1.6968 -7.85789 0
M  V30 5219 H 466.568 0.190925 -0.648478 0
M  V30 5220 H 469.122 -0.0711994 -2.05277 0
M  V30 5221 H 467.352 2.23214 -3.15773 0
M  V30 5222 H 469.041 2.02152 -3.51979 0
M  V30 5223 H 469.807 -0.0759998 -4.8494 0
M  V30 5224 H 465.686 1.09281 -4.4786 0
M  V30 5225 H 469.23 -1.43832 -6.82611 0
M  V30 5226 H 465.127 -0.262457 -6.44966 0
M  V30 5227 H 465.895 -1.61544 -8.024 0
M  V30 5228 N 468.558 1.5553 0.254621 0
M  V30 5229 C 469.491 1.84624 1.34124 0
M  V30 5230 C 470.469 0.700693 1.46728 0
M  V30 5231 O 471.653 0.94564 1.63064 0
M  V30 5232 C 468.78 2.02412 2.71564 0
M  V30 5233 C 467.826 3.25028 2.7615 0
M  V30 5234 S 468.659 4.81893 2.33538 0
M  V30 5235 C 469.815 5.02677 3.72917 0
M  V30 5236 H 470.048 2.76501 1.09245 0
M  V30 5237 H 467.581 1.47537 0.455211 0
M  V30 5238 H 469.539 2.13345 3.50705 0
M  V30 5239 H 468.2 1.11391 2.93685 0
M  V30 5240 H 467.393 3.34418 3.77069 0
M  V30 5241 H 466.995 3.12781 2.05046 0
M  V30 5242 H 469.287 4.89546 4.68349 0
M  V30 5243 H 470.23 6.0468 3.68467 0
M  V30 5244 H 470.638 4.30561 3.65072 0
M  V30 5245 N 470.036 -0.519951 1.48776 0
M  V30 5246 C 470.984 -1.64443 1.64503 0
M  V30 5247 C 471.978 -1.61501 0.511248 0
M  V30 5248 O 473.184 -1.66238 0.690294 0
M  V30 5249 H 469.559 -0.544776 0.518385 0
M  V30 5250 H 471.53 -1.48325 2.58925 0
M  V30 5251 C 470.279 -3.02673 1.71127 0
M  V30 5252 H 469.602 -3.05635 2.57735 0
M  V30 5253 H 471.042 -3.80941 1.86172 0
M  V30 5254 C 469.501 -3.33854 0.452032 0
M  V30 5255 O 470.031 -3.99385 -0.430678 0
M  V30 5256 N 468.237 -2.88825 0.32069 0
M  V30 5257 H 467.784 -2.35674 1.03998 0
M  V30 5258 H 467.742 -3.10056 -0.520814 0
M  V30 5259 N 471.514 -1.37532 -0.769588 0
M  V30 5260 C 472.762 -1.32597 -1.5252 0
M  V30 5261 C 473.083 0.0884294 -1.94799 0
M  V30 5262 O 472.353 1.03289 -1.66458 0
M  V30 5263 H 470.933 -0.487846 -0.565699 0
M  V30 5264 H 473.595 -1.72044 -0.915806 0
M  V30 5265 H 472.691 -1.96643 -2.42359 0
M  V30 5266 N 472.992 0.995999 -1.22138 0
M  V30 5267 C 473.902 2.11985 -1.00496 0
M  V30 5268 C 474.918 1.7394 0.0457701 0
M  V30 5269 O 476.094 2.00868 -0.146273 0
M  V30 5270 C 473.159 3.41779 -0.582086 0
M  V30 5271 C 472.22 3.93943 -1.70608 0
M  V30 5272 C 471.453 5.17542 -1.30328 0
M  V30 5273 O 471.676 5.70114 -0.180743 0
M  V30 5274 O 470.61 5.63382 -2.11861 0
M  V30 5275 H 474.436 2.33123 -1.94647 0
M  V30 5276 H 472.021 1.10358 -1.00705 0
M  V30 5277 H 473.903 4.1989 -0.356467 0
M  V30 5278 H 472.578 3.22007 0.330592 0
M  V30 5279 H 471.485 3.17019 -1.98619 0
M  V30 5280 H 472.818 4.18141 -2.59651 0
M  V30 5281 N 474.47 1.03057 1.19235 0
M  V30 5282 C 475.698 0.747697 1.92917 0
M  V30 5283 C 476.113 -0.69372 1.75593 0
M  V30 5284 O 475.47 -1.47191 1.07894 0
M  V30 5285 C 475.521 1.09159 3.44625 0
M  V30 5286 O 475.242 2.47641 3.61394 0
M  V30 5287 C 476.743 0.831763 4.35427 0
M  V30 5288 H 473.963 0.273453 0.612751 0
M  V30 5289 H 476.507 1.37552 1.51327 0
M  V30 5290 H 474.662 0.508919 3.84043 0
M  V30 5291 H 475.076 2.60499 4.55237 0
M  V30 5292 H 476.55 1.12233 5.4047 0
M  V30 5293 H 477.027 -0.233769 4.38577 0
M  V30 5294 H 477.633 1.39725 4.01693 0
M  V30 5295 N 475.948 -1.35272 0.808662 0
M  V30 5296 C 477.173 -2.03477 0.401475 0
M  V30 5297 C 477.598 -1.60537 -0.980279 0
M  V30 5298 O 476.956 -0.78304 -1.63518 0
M  V30 5299 C 477.004 -3.57181 0.495354 0
M  V30 5300 O 476.108 -4.09474 -0.490397 0
M  V30 5301 H 475.449 -0.642561 0.167366 0
M  V30 5302 H 477.979 -1.72824 1.09512 0
M  V30 5303 H 477.989 -4.06356 0.365912 0
M  V30 5304 H 476.664 -3.87784 1.5032 0
M  V30 5305 H 475.241 -3.71516 -0.321023 0
M  V30 5306 N 477.426 -0.562348 -1.47226 0
M  V30 5307 C 478.654 -0.0452275 -2.06851 0
M  V30 5308 C 479.069 1.25078 -1.41424 0
M  V30 5309 O 478.426 1.75156 -0.512513 0
M  V30 5310 C 478.477 0.148674 -3.61194 0
M  V30 5311 O 478.198 -1.09602 -4.24169 0
M  V30 5312 C 479.699 0.702488 -4.37699 0
M  V30 5313 H 476.919 -0.0481775 -0.669268 0
M  V30 5314 H 479.463 -0.777223 -1.89155 0
M  V30 5315 H 477.618 0.830817 -3.78386 0
M  V30 5316 H 478.032 -0.896982 -5.16773 0
M  V30 5317 H 479.506 0.78743 -5.46355 0
M  V30 5318 H 479.983 1.71493 -4.04335 0
M  V30 5319 H 480.589 0.0558772 -4.25263 0
M  V30 5320 N 478.904 1.54736 -0.299062 0
M  V30 5321 C 479.851 2.23448 0.577899 0
M  V30 5322 C 480.821 1.21637 1.13109 0
M  V30 5323 O 482.006 1.50252 1.17597 0
M  V30 5324 C 479.146 2.9774 1.74484 0
M  V30 5325 C 478.259 4.1432 1.22323 0
M  V30 5326 C 477.394 4.76199 2.35388 0
M  V30 5327 C 476.433 5.84927 1.80351 0
M  V30 5328 N 475.57 6.4077 2.86982 0
M  V30 5329 H 480.41 2.97996 -0.0146545 0
M  V30 5330 H 477.947 1.47088 -0.0190013 0
M  V30 5331 H 479.905 3.39045 2.43114 0
M  V30 5332 H 478.535 2.25572 2.30905 0
M  V30 5333 H 477.587 3.7797 0.429249 0
M  V30 5334 H 478.899 4.92659 0.780309 0
M  V30 5335 H 478.053 5.20346 3.11969 0
M  V30 5336 H 476.792 3.97188 2.83006 0
M  V30 5337 H 475.797 5.40207 1.02259 0
M  V30 5338 H 477.022 6.65821 1.3364 0
M  V30 5339 H 474.968 5.64643 3.33938 0
M  V30 5340 H 474.885 7.1445 2.4718 0
M  V30 5341 H 476.153 6.89574 3.63466 0
M  V30 5342 N 480.382 0.0267497 1.57577 0
M  V30 5343 C 481.607 -0.666227 1.96408 0
M  V30 5344 C 482.032 -1.65004 0.903071 0
M  V30 5345 O 481.39 -1.80787 -0.136263 0
M  V30 5346 C 481.438 -1.35101 3.34335 0
M  V30 5347 O 480.542 -2.46623 3.30531 0
M  V30 5348 H 479.883 -0.175206 0.640468 0
M  V30 5349 H 482.413 0.0878977 2.04411 0
M  V30 5350 H 482.423 -1.70834 3.70513 0
M  V30 5351 H 481.098 -0.629844 4.11103 0
M  V30 5352 H 479.675 -2.13019 3.06068 0
M  V30 5353 N 481.861 -1.55662 -0.24637 0
M  V30 5354 C 482.791 -1.93377 -1.30873 0
M  V30 5355 C 483.772 -0.798773 -1.50179 0
M  V30 5356 O 484.957 -1.0591 -1.62778 0
M  V30 5357 C 482.087 -2.22893 -2.66338 0
M  V30 5358 C 481.041 -3.38649 -2.61727 0
M  V30 5359 C 480.367 -3.53708 -4.00992 0
M  V30 5360 C 481.667 -4.74323 -2.18666 0
M  V30 5361 H 483.361 -2.82363 -0.995552 0
M  V30 5362 H 480.907 -1.35854 -0.477464 0
M  V30 5363 H 482.86 -2.47866 -3.40794 0
M  V30 5364 H 481.584 -1.30733 -2.99293 0
M  V30 5365 H 480.243 -3.13685 -1.89729 0
M  V30 5366 H 479.891 -2.58967 -4.31214 0
M  V30 5367 H 479.591 -4.31551 -3.98795 0
M  V30 5368 H 481.115 -3.81003 -4.77147 0
M  V30 5369 H 482.529 -4.98665 -2.82854 0
M  V30 5370 H 480.926 -5.55273 -2.27579 0
M  V30 5371 H 481.996 -4.71349 -1.13834 0
M  V30 5372 N 483.339 0.512053 -1.4905 0
M  V30 5373 C 484.585 1.26613 -1.59187 0
M  V30 5374 C 484.94 1.90494 -0.270163 0
M  V30 5375 O 484.233 1.77204 0.728648 0
M  V30 5376 C 484.427 2.36446 -2.68008 0
M  V30 5377 C 484.256 1.83334 -4.10632 0
M  V30 5378 C 483.026 1.65131 -4.77556 0
M  V30 5379 C 485.224 1.35153 -4.96224 0
M  V30 5380 N 483.206 1.06833 -6.04533 0
M  V30 5381 C 484.577 0.889186 -6.13591 0
M  V30 5382 C 486.632 1.23623 -4.82309 0
M  V30 5383 C 485.335 0.322953 -7.18575 0
M  V30 5384 C 487.361 0.683978 -5.87431 0
M  V30 5385 C 486.723 0.2318 -7.04018 0
M  V30 5386 H 482.822 0.453678 -0.636946 0
M  V30 5387 H 485.406 0.575217 -1.86009 0
M  V30 5388 H 483.577 3.03012 -2.42978 0
M  V30 5389 H 485.309 3.03485 -2.67729 0
M  V30 5390 H 482.064 1.89178 -4.34176 0
M  V30 5391 H 482.488 0.796425 -6.72299 0
M  V30 5392 H 487.13 1.57184 -3.92496 0
M  V30 5393 H 484.848 -0.024943 -8.08096 0
M  V30 5394 H 488.434 0.597694 -5.78722 0
M  V30 5395 H 487.314 -0.188869 -7.83973 0
M  V30 5396 N 484.817 1.37938 0.762283 0
M  V30 5397 C 486.063 1.33866 1.52341 0
M  V30 5398 C 486.396 -0.0738961 1.94059 0
M  V30 5399 O 485.671 -1.03326 1.64785 0
M  V30 5400 C 485.954 2.28644 2.78197 0
M  V30 5401 C 485.807 3.78722 2.42672 0
M  V30 5402 C 487.126 2.21702 3.80179 0
M  V30 5403 H 484.245 0.487593 0.55265 0
M  V30 5404 H 486.887 1.68717 0.873767 0
M  V30 5405 H 485.037 1.99055 3.33631 0
M  V30 5406 H 486.709 4.18948 1.93081 0
M  V30 5407 H 484.952 3.96827 1.75244 0
M  V30 5408 H 485.623 4.40486 3.3268 0
M  V30 5409 H 488.099 2.47805 3.34263 0
M  V30 5410 H 486.975 2.90143 4.65949 0
M  V30 5411 H 487.236 1.21301 4.25133 0
M  V30 5412 N 486.295 -0.989507 1.22664 0
M  V30 5413 C 487.544 -1.72375 1.04737 0
M  V30 5414 C 487.857 -1.91096 -0.417316 0
M  V30 5415 O 489.063 -2.6188 -0.716334 0
M  V30 5416 C 487.519 -3.10161 1.82561 0
M  V30 5417 C 487.127 -2.99358 3.333 0
M  V30 5418 C 488.871 -3.87607 1.73093 0
M  V30 5419 C 486.778 -4.32319 4.03552 0
M  V30 5420 H 485.708 -0.646326 0.388302 0
M  V30 5421 H 488.359 -1.10437 1.46546 0
M  V30 5422 H 486.741 -3.728 1.33552 0
M  V30 5423 H 487.915 -2.45863 3.89728 0
M  V30 5424 H 486.23 -2.35392 3.43481 0
M  V30 5425 H 488.827 -4.86025 2.22899 0
M  V30 5426 H 489.17 -4.10509 0.691976 0
M  V30 5427 H 489.703 -3.31652 2.19663 0
M  V30 5428 H 486.442 -4.14616 5.07714 0
M  V30 5429 H 485.962 -4.85714 3.51911 0
M  V30 5430 H 487.641 -5.01051 4.09337 0
M  V30 5431 N 487.773 -1.03688 -1.18687 0
M  V30 5432 C 488.721 -0.618292 -2.24232 0
M  V30 5433 C 489.715 0.353045 -1.6568 0
M  V30 5434 O 490.921 0.220749 -1.78641 0
M  V30 5435 H 487.296 -0.181711 -0.729716 0
M  V30 5436 H 489.267 -1.51893 -2.56848 0
M  V30 5437 C 488.016 0.00677342 -3.47699 0
M  V30 5438 H 487.339 -0.731692 -3.93047 0
M  V30 5439 H 488.779 0.262492 -4.23187 0
M  V30 5440 C 487.238 1.25572 -3.12623 0
M  V30 5441 O 487.768 2.34691 -3.26011 0
M  V30 5442 N 485.974 1.14755 -2.66982 0
M  V30 5443 H 485.521 0.259601 -2.56289 0
M  V30 5444 H 485.479 1.98412 -2.43885 0
M  V30 5445 N 489.251 1.34841 -0.815825 0
M  V30 5446 C 490.476 2.03261 -0.41226 0
M  V30 5447 C 490.901 1.61055 0.971751 0
M  V30 5448 O 490.259 0.7917 1.63101 0
M  V30 5449 C 490.307 3.56914 -0.514289 0
M  V30 5450 O 489.411 4.09728 0.468675 0
M  V30 5451 H 488.752 0.641664 -0.170771 0
M  V30 5452 H 491.282 1.72241 -1.10427 0
M  V30 5453 H 491.292 4.06156 -0.387457 0
M  V30 5454 H 489.967 3.86982 -1.52375 0
M  V30 5455 H 488.544 3.71681 0.301316 0
M  V30 5456 N 490.729 0.570148 1.46925 0
M  V30 5457 C 491.692 -0.159933 2.28641 0
M  V30 5458 C 492.692 -0.830638 1.37685 0
M  V30 5459 O 493.882 -0.684516 1.60187 0
M  V30 5460 C 491.014 -1.2354 3.17727 0
M  V30 5461 H 492.207 0.558035 2.94662 0
M  V30 5462 H 489.76 0.327603 1.52828 0
M  V30 5463 H 490.495 -1.98535 2.56426 0
M  V30 5464 H 490.28 -0.759125 3.84681 0
M  V30 5465 H 491.77 -1.74782 3.79264 0
M  V30 5466 N 492.207 -1.54576 0.307264 0
M  V30 5467 C 493.137 -2.26708 -0.55907 0
M  V30 5468 C 494.118 -1.26893 -1.1328 0
M  V30 5469 O 495.303 -1.55677 -1.16097 0
M  V30 5470 C 492.433 -3.01259 -1.72801 0
M  V30 5471 C 491.387 -4.08275 -1.28435 0
M  V30 5472 C 490.713 -4.70575 -2.53895 0
M  V30 5473 C 492.013 -5.2068 -0.411038 0
M  V30 5474 H 493.707 -2.9937 0.042576 0
M  V30 5475 H 491.253 -1.43983 0.0219173 0
M  V30 5476 H 493.206 -3.50444 -2.34023 0
M  V30 5477 H 491.93 -2.26187 -2.356 0
M  V30 5478 H 490.589 -3.59949 -0.695161 0
M  V30 5479 H 490.237 -3.92136 -3.15021 0
M  V30 5480 H 489.937 -5.42854 -2.24908 0
M  V30 5481 H 491.461 -5.22527 -3.15908 0
M  V30 5482 H 492.875 -5.65721 -0.929097 0
M  V30 5483 H 491.272 -5.99716 -0.214664 0
M  V30 5484 H 492.342 -4.81629 0.562287 0
M  V30 5485 N 493.685 -0.035106 -1.57561 0
M  V30 5486 C 495.101 0.321334 -1.56332 0
M  V30 5487 C 495.301 1.72509 -1.04129 0
M  V30 5488 O 494.357 2.4287 -0.690694 0
M  V30 5489 C 495.67 0.164469 -3.0025 0
M  V30 5490 C 497.218 0.236786 -3.12103 0
M  V30 5491 C 497.693 0.10864 -4.57871 0
M  V30 5492 N 499.184 0.165433 -4.62904 0
M  V30 5493 C 499.919 0.0901506 -5.73329 0
M  V30 5494 N 499.415 -0.0365606 -6.9279 0
M  V30 5495 N 501.208 0.144572 -5.61914 0
M  V30 5496 H 493.359 -0.952976 -1.89821 0
M  V30 5497 H 495.622 -0.368537 -0.873432 0
M  V30 5498 H 495.328 -0.802746 -3.42416 0
M  V30 5499 H 495.202 0.932194 -3.655 0
M  V30 5500 H 497.589 1.19446 -2.69845 0
M  V30 5501 H 497.67 -0.561419 -2.49563 0
M  V30 5502 H 497.314 -0.845644 -5.00811 0
M  V30 5503 H 497.244 0.925786 -5.18398 0
M  V30 5504 H 499.735 0.263269 -3.76982 0
M  V30 5505 H 500.048 -0.0871487 -7.72751 0
M  V30 5506 H 498.393 -0.0714256 -6.94963 0
M  V30 5507 H 501.584 0.242006 -4.67474 0
M  V30 5508 H 501.757 0.0824413 -6.47948 0
M  V30 5509 N 495.163 1.55791 0.238111 0
M  V30 5510 C 496.412 1.77234 0.962868 0
M  V30 5511 C 496.725 0.600661 1.86149 0
M  V30 5512 O 497.931 0.698315 2.62366 0
M  V30 5513 C 496.387 3.13808 1.76218 0
M  V30 5514 C 495.995 4.3865 0.910518 0
M  V30 5515 C 497.739 3.44585 2.47914 0
M  V30 5516 C 495.646 5.66252 1.70623 0
M  V30 5517 H 494.576 0.660731 0.36325 0
M  V30 5518 H 497.227 1.8221 0.217242 0
M  V30 5519 H 495.609 3.02963 2.55009 0
M  V30 5520 H 496.783 4.60507 0.164316 0
M  V30 5521 H 495.098 4.15271 0.30647 0
M  V30 5522 H 497.695 4.3714 3.07917 0
M  V30 5523 H 498.038 2.66314 3.19973 0
M  V30 5524 H 498.571 3.56685 1.76127 0
M  V30 5525 H 495.31 6.47369 1.02923 0
M  V30 5526 H 494.83 5.48483 2.42748 0
M  V30 5527 H 496.509 6.05829 2.27114 0
M  V30 5528 N 496.642 -0.504142 1.49319 0
M  V30 5529 C 497.589 -1.60603 1.65756 0
M  V30 5530 C 498.559 -1.58425 0.499082 0
M  V30 5531 O 499.744 -1.76459 0.725728 0
M  V30 5532 C 496.884 -2.98764 1.72726 0
M  V30 5533 C 495.997 -3.10982 2.99857 0
M  V30 5534 C 495.132 -4.39857 2.97824 0
M  V30 5535 C 494.171 -4.45697 4.19548 0
M  V30 5536 N 493.308 -5.65995 4.15444 0
M  V30 5537 H 498.148 -1.45895 2.59843 0
M  V30 5538 H 495.685 -0.709891 1.28837 0
M  V30 5539 H 497.643 -3.78839 1.74747 0
M  V30 5540 H 496.273 -3.12183 0.821075 0
M  V30 5541 H 495.325 -2.23991 3.07461 0
M  V30 5542 H 496.637 -3.11157 3.89849 0
M  V30 5543 H 495.791 -5.2825 2.98391 0
M  V30 5544 H 494.53 -4.42242 2.05604 0
M  V30 5545 H 493.535 -3.55707 4.19229 0
M  V30 5546 H 494.76 -4.4503 5.12957 0
M  V30 5547 H 492.706 -5.69229 3.26059 0
M  V30 5548 H 492.623 -5.67773 4.99169 0
M  V30 5549 H 493.891 -6.56604 4.20109 0
M  V30 5550 N 498.12 -1.38341 -0.754957 0
M  V30 5551 C 499.369 -1.33791 -1.5094 0
M  V30 5552 C 499.682 0.0699267 -1.95475 0
M  V30 5553 O 500.888 0.237956 -2.70455 0
M  V30 5554 C 499.344 -2.34934 -2.72643 0
M  V30 5555 C 498.952 -3.81332 -2.35138 0
M  V30 5556 C 500.696 -2.39425 -3.50536 0
M  V30 5557 C 498.603 -4.74164 -3.53444 0
M  V30 5558 H 497.533 -0.497314 -0.566741 0
M  V30 5559 H 500.184 -1.63888 -0.825403 0
M  V30 5560 H 498.566 -1.97878 -3.43017 0
M  V30 5561 H 499.74 -4.27319 -1.7244 0
M  V30 5562 H 498.055 -3.79946 -1.70382 0
M  V30 5563 H 500.652 -3.0598 -4.38498 0
M  V30 5564 H 500.995 -1.41278 -3.91594 0
M  V30 5565 H 501.528 -2.75274 -2.87174 0
M  V30 5566 H 498.267 -5.73501 -3.17453 0
M  V30 5567 H 497.787 -4.3287 -4.15191 0
M  V30 5568 H 499.466 -4.92111 -4.20043 0
M  V30 5569 N 499.598 0.982988 -1.23187 0
M  V30 5570 C 500.528 2.09301 -1.03515 0
M  V30 5571 C 501.509 1.70035 0.0471136 0
M  V30 5572 O 502.694 1.93847 -0.117029 0
M  V30 5573 C 499.824 3.4167 -0.622791 0
M  V30 5574 C 498.778 3.94828 -1.65211 0
M  V30 5575 C 498.104 5.23362 -1.09527 0
M  V30 5576 C 499.404 4.2439 -3.04451 0
M  V30 5577 H 501.098 2.26016 -1.96359 0
M  V30 5578 H 498.644 1.08611 -0.945501 0
M  V30 5579 H 500.597 4.18746 -0.472233 0
M  V30 5580 H 499.321 3.24811 0.341329 0
M  V30 5581 H 497.98 3.19895 -1.79061 0
M  V30 5582 H 497.628 5.02852 -0.122211 0
M  V30 5583 H 497.328 5.59895 -1.783 0
M  V30 5584 H 498.852 6.03062 -0.956511 0
M  V30 5585 H 500.266 4.92225 -2.93917 0
M  V30 5586 H 498.663 4.72118 -3.70438 0
M  V30 5587 H 499.733 3.31765 -3.53638 0
M  V30 5588 N 501.076 1.04316 1.18135 0
M  V30 5589 C 502.316 0.756937 1.89868 0
M  V30 5590 C 502.68 -0.702609 1.78682 0
M  V30 5591 O 503.881 -1.10255 2.45148 0
M  V30 5592 C 502.152 1.21327 3.36176 0
M  V30 5593 S 503.711 1.05307 4.25976 0
M  V30 5594 H 500.529 0.275143 0.655604 0
M  V30 5595 H 503.131 1.33597 1.42731 0
M  V30 5596 H 501.835 2.27086 3.41848 0
M  V30 5597 H 501.366 0.628137 3.88353 0
M  V30 5598 H 503.381 -0.0280093 4.96192 0
M  V30 5599 N 502.554 -1.34406 0.822964 0
M  V30 5600 C 503.517 -2.2783 0.250271 0
M  V30 5601 C 504.517 -1.50288 -0.571854 0
M  V30 5602 O 505.707 -1.69825 -0.387952 0
M  V30 5603 C 502.839 -3.34663 -0.649137 0
M  V30 5604 H 504.032 -2.79992 1.07444 0
M  V30 5605 H 501.585 -1.44539 0.594829 0
M  V30 5606 H 502.32 -2.87714 -1.49637 0
M  V30 5607 H 502.105 -3.92052 -0.0611199 0
M  V30 5608 H 503.595 -4.04349 -1.04363 0
M  V30 5609 N 504.032 -0.577932 -1.46621 0
M  V30 5610 C 505.26 -0.0671642 -2.06791 0
M  V30 5611 C 505.675 1.23571 -1.42743 0
M  V30 5612 O 505.032 1.74602 -0.531062 0
M  V30 5613 C 505.083 0.110357 -3.61332 0
M  V30 5614 O 504.804 -1.14095 -4.22982 0
M  V30 5615 C 506.305 0.656025 -4.38419 0
M  V30 5616 H 503.525 -0.0552732 -0.66872 0
M  V30 5617 H 506.069 -0.797242 -1.8832 0
M  V30 5618 H 504.224 0.790637 -3.79246 0
M  V30 5619 H 504.638 -0.951742 -5.15793 0
M  V30 5620 H 506.112 0.729438 -5.47159 0
M  V30 5621 H 506.589 1.67195 -4.06131 0
M  V30 5622 H 507.195 0.0107692 -4.25299 0
M  V30 5623 N 505.51 1.54411 -0.315457 0
M  V30 5624 C 506.74 2.04536 0.291315 0
M  V30 5625 C 507.148 1.19162 1.4696 0
M  V30 5626 O 506.491 0.213199 1.82459 0
M  V30 5627 C 506.553 3.5056 0.796725 0
M  V30 5628 C 506.217 4.5627 -0.258178 0
M  V30 5629 C 507.214 5.08312 -1.09153 0
M  V30 5630 C 504.899 5.00672 -0.404036 0
M  V30 5631 C 506.893 6.03312 -2.05655 0
M  V30 5632 C 504.58 5.95488 -1.37248 0
M  V30 5633 C 505.578 6.46693 -2.19721 0
M  V30 5634 O 505.266 7.39648 -3.14921 0
M  V30 5635 H 504.998 0.672856 0.0651165 0
M  V30 5636 H 507.552 2.00244 -0.457308 0
M  V30 5637 H 505.782 3.52223 1.59612 0
M  V30 5638 H 507.471 3.83804 1.32096 0
M  V30 5639 H 508.237 4.74793 -0.98979 0
M  V30 5640 H 504.116 4.60436 0.22799 0
M  V30 5641 H 507.66 6.43203 -2.70067 0
M  V30 5642 H 503.557 6.28424 -1.47489 0
M  V30 5643 H 504.325 7.57496 -3.10067 0
M  V30 5644 N 506.988 0.0434614 1.5754 0
M  V30 5645 C 508.234 -0.632971 1.92669 0
M  V30 5646 C 508.567 -1.70947 0.921446 0
M  V30 5647 O 507.842 -1.94426 -0.0537202 0
M  V30 5648 C 508.125 -1.23619 3.38216 0
M  V30 5649 C 507.978 -0.168274 4.49485 0
M  V30 5650 C 509.297 -2.15008 3.84005 0
M  V30 5651 H 506.416 -0.228629 0.700641 0
M  V30 5652 H 509.058 0.103651 1.89717 0
M  V30 5653 H 507.208 -1.864 3.40863 0
M  V30 5654 H 508.88 0.463196 4.58969 0
M  V30 5655 H 507.123 0.504581 4.30855 0
M  V30 5656 H 507.794 -0.630218 5.48391 0
M  V30 5657 H 510.27 -1.62198 3.83185 0
M  V30 5658 H 509.146 -2.54161 4.86511 0
M  V30 5659 H 509.407 -3.04707 3.20322 0
M  V30 5660 N 508.466 -1.55915 -0.229846 0
M  V30 5661 C 509.414 -1.9258 -1.30444 0
M  V30 5662 C 510.408 -0.806839 -1.48951 0
M  V30 5663 O 511.614 -0.991606 -1.50224 0
M  V30 5664 H 507.989 -0.611878 -0.437161 0
M  V30 5665 H 509.96 -2.82264 -0.96797 0
M  V30 5666 C 508.709 -2.25171 -2.6494 0
M  V30 5667 H 508.032 -3.10782 -2.51504 0
M  V30 5668 H 509.472 -2.54716 -3.38963 0
M  V30 5669 C 507.931 -1.07394 -3.19324 0
M  V30 5670 O 508.461 -0.330759 -4.00336 0
M  V30 5671 N 506.667 -0.859984 -2.77584 0
M  V30 5672 H 506.214 -1.46605 -2.11813 0
M  V30 5673 H 506.172 -0.0736671 -3.14314 0
M  V30 5674 N 509.944 0.496216 -1.49584 0
M  V30 5675 C 511.19 1.25189 -1.59548 0
M  V30 5676 C 511.523 1.9212 -0.283466 0
M  V30 5677 O 510.798 1.80947 0.713324 0
M  V30 5678 C 511.081 2.31516 -2.75812 0
M  V30 5679 C 510.934 1.69054 -4.16822 0
M  V30 5680 C 512.253 3.3304 -2.87702 0
M  V30 5681 H 509.372 0.45379 -0.580727 0
M  V30 5682 H 512.014 0.549327 -1.81886 0
M  V30 5683 H 510.164 2.91438 -2.56897 0
M  V30 5684 H 511.836 1.12923 -4.47265 0
M  V30 5685 H 510.079 0.994485 -4.22247 0
M  V30 5686 H 510.75 2.462 -4.94054 0
M  V30 5687 H 513.226 2.83114 -3.04936 0
M  V30 5688 H 512.102 4.04794 -3.7072 0
M  V30 5689 H 512.363 3.95655 -1.97255 0
M  V30 5690 N 511.423 1.38739 0.74761 0
M  V30 5691 C 512.371 1.36573 1.88283 0
M  V30 5692 C 513.365 0.250712 1.67534 0
M  V30 5693 O 514.571 0.420073 1.7503 0
M  V30 5694 H 510.946 0.42619 0.619569 0
M  V30 5695 H 512.917 2.32356 1.87226 0
M  V30 5696 C 511.666 1.21361 3.25832 0
M  V30 5697 H 510.989 2.06424 3.42388 0
M  V30 5698 H 512.429 1.23901 4.05493 0
M  V30 5699 C 510.888 -0.0790099 3.36807 0
M  V30 5700 O 511.418 -1.05385 3.8763 0
M  V30 5701 N 509.624 -0.13785 2.90273 0
M  V30 5702 H 509.171 0.656128 2.49104 0
M  V30 5703 H 509.129 -1.00228 2.97996 0
M  V30 5704 N 512.901 -0.976442 1.23707 0
M  V30 5705 C 514.15 -1.71254 1.06559 0
M  V30 5706 C 514.463 -1.91528 -0.397024 0
M  V30 5707 O 515.669 -2.62625 -0.688518 0
M  V30 5708 C 514.125 -3.08207 1.8584 0
M  V30 5709 C 513.733 -2.95806 3.36456 0
M  V30 5710 C 515.477 -3.85749 1.77194 0
M  V30 5711 C 513.384 -4.28015 4.08114 0
M  V30 5712 H 512.314 -0.642171 0.395136 0
M  V30 5713 H 514.965 -1.08877 1.4771 0
M  V30 5714 H 513.347 -3.71363 1.37498 0
M  V30 5715 H 514.521 -2.41716 3.92314 0
M  V30 5716 H 512.836 -2.31736 3.45959 0
M  V30 5717 H 515.433 -4.83633 2.28041 0
M  V30 5718 H 515.776 -4.09752 0.735477 0
M  V30 5719 H 516.309 -3.29303 2.23169 0
M  V30 5720 H 513.048 -4.09208 5.12083 0
M  V30 5721 H 512.568 -4.81955 3.57043 0
M  V30 5722 H 514.247 -4.96681 4.14629 0
M  V30 5723 N 514.379 -1.04941 -1.1758 0
M  V30 5724 C 515.795 -0.770282 -1.39781 0
M  V30 5725 C 515.995 0.636417 -1.91186 0
M  V30 5726 O 515.051 1.39923 -2.10185 0
M  V30 5727 C 516.364 -1.82376 -2.3908 0
M  V30 5728 C 517.912 -1.84569 -2.52791 0
M  V30 5729 C 518.387 -2.88933 -3.55361 0
M  V30 5730 N 519.878 -2.8788 -3.62877 0
M  V30 5731 C 520.613 -3.65282 -4.41992 0
M  V30 5732 N 520.109 -4.52461 -5.24643 0
M  V30 5733 N 521.902 -3.53732 -4.36841 0
M  V30 5734 H 514.053 -1.95705 -0.825438 0
M  V30 5735 H 516.316 -0.847284 -0.425222 0
M  V30 5736 H 516.022 -2.83323 -2.08376 0
M  V30 5737 H 515.896 -1.66327 -3.38549 0
M  V30 5738 H 518.283 -0.842879 -2.82807 0
M  V30 5739 H 518.364 -2.04696 -1.53406 0
M  V30 5740 H 518.008 -3.89398 -3.26085 0
M  V30 5741 H 517.938 -2.66059 -4.54445 0
M  V30 5742 H 520.429 -2.24666 -3.03864 0
M  V30 5743 H 520.742 -5.08211 -5.82187 0
M  V30 5744 H 519.087 -4.56524 -5.24033 0
M  V30 5745 H 522.278 -2.85021 -3.71323 0
M  V30 5746 H 522.451 -4.14302 -4.98255 0
M  V30 5747 N 515.857 1.33968 -0.830081 0
M  V30 5748 C 517.134 1.92554 -0.343858 0
M  V30 5749 C 517.514 1.7573 1.16971 0
M  V30 5750 O 516.862 1.14035 1.98011 0
M  V30 5751 C 517.072 3.40147 -0.781073 0
M  V30 5752 C 518.42 4.17299 -0.78402 0
M  V30 5753 O 519.444 3.48762 -0.724112 0
M  V30 5754 O 518.303 5.39631 -0.863739 0
M  V30 5755 H 515.397 0.821469 -0.0954827 0
M  V30 5756 H 517.943 1.42897 -0.915348 0
M  V30 5757 H 516.715 3.46225 -1.82329 0
M  V30 5758 H 516.338 3.97166 -0.18567 0
M  V30 5759 N 517.335 0.585699 1.46312 0
M  V30 5760 C 518.584 0.0701192 2.01578 0
M  V30 5761 C 518.897 -1.29889 1.46247 0
M  V30 5762 O 520.103 -1.90598 1.93351 0
M  V30 5763 C 518.559 0.0747499 3.59822 0
M  V30 5764 C 518.167 1.44226 4.24149 0
M  V30 5765 C 519.911 -0.38673 4.22735 0
M  V30 5766 C 517.818 1.40446 5.74481 0
M  V30 5767 H 516.748 0.0224441 0.753666 0
M  V30 5768 H 519.399 0.737789 1.68015 0
M  V30 5769 H 517.781 -0.659144 3.90476 0
M  V30 5770 H 518.955 2.19612 4.05101 0
M  V30 5771 H 517.27 1.84401 3.73343 0
M  V30 5772 H 519.867 -0.433853 5.32937 0
M  V30 5773 H 520.21 -1.40489 3.91878 0
M  V30 5774 H 520.743 0.293195 3.96718 0
M  V30 5775 H 517.482 2.39952 6.10003 0
M  V30 5776 H 517.002 0.692845 5.95785 0
M  V30 5777 H 518.681 1.11865 6.37256 0
M  V30 5778 N 518.813 -1.54241 0.323641 0
M  V30 5779 C 520.09 -1.92741 -0.333181 0
M  V30 5780 C 520.47 -1.25326 -1.69872 0
M  V30 5781 O 519.818 -0.396991 -2.25025 0
M  V30 5782 C 520.028 -3.46399 -0.425322 0
M  V30 5783 C 521.376 -4.19029 -0.68557 0
M  V30 5784 O 522.4 -3.52555 -0.50824 0
M  V30 5785 O 521.259 -5.36751 -1.02767 0
M  V30 5786 H 518.353 -0.804811 -0.190286 0
M  V30 5787 H 520.899 -1.65542 0.373361 0
M  V30 5788 H 519.671 -3.87643 0.533737 0
M  V30 5789 H 519.294 -3.79704 -1.17944 0
M  V30 5790 N 520.291 -0.0518155 -1.57515 0
M  V30 5791 C 521.238 0.922352 -2.11569 0
M  V30 5792 C 522.208 1.30842 -1.02321 0
M  V30 5793 O 523.393 1.39778 -1.29872 0
M  V30 5794 C 520.533 2.19167 -2.6657 0
M  V30 5795 C 519.646 1.86003 -3.89906 0
M  V30 5796 C 518.781 3.07398 -4.33221 0
M  V30 5797 C 517.82 2.70158 -5.49255 0
M  V30 5798 N 516.957 3.84248 -5.8762 0
M  V30 5799 H 521.797 0.454506 -2.94514 0
M  V30 5800 H 519.334 0.212718 -1.45554 0
M  V30 5801 H 521.292 2.93443 -2.96559 0
M  V30 5802 H 519.922 2.63528 -1.86421 0
M  V30 5803 H 518.974 1.01874 -3.66505 0
M  V30 5804 H 520.286 1.54592 -4.74239 0
M  V30 5805 H 519.44 3.89972 -4.64765 0
M  V30 5806 H 518.179 3.41988 -3.477 0
M  V30 5807 H 517.184 1.86001 -5.17382 0
M  V30 5808 H 518.409 2.36759 -6.36492 0
M  V30 5809 H 516.355 4.18638 -5.05053 0
M  V30 5810 H 516.272 3.56538 -6.66646 0
M  V30 5811 H 517.54 4.6746 -6.2378 0
M  V30 5812 N 521.769 1.56035 0.221574 0
M  V30 5813 C 523.018 1.78245 0.944016 0
M  V30 5814 C 523.331 0.620371 1.85501 0
M  V30 5815 O 524.537 0.726103 2.6161 0
M  V30 5816 C 522.993 3.15659 1.7288 0
M  V30 5817 C 522.601 4.39591 0.863942 0
M  V30 5818 C 524.345 3.47195 2.44246 0
M  V30 5819 C 522.252 5.6803 1.64607 0
M  V30 5820 H 521.182 0.664547 0.356222 0
M  V30 5821 H 523.833 1.8243 0.197904 0
M  V30 5822 H 522.215 3.0565 2.51781 0
M  V30 5823 H 523.389 4.60655 0.115464 0
M  V30 5824 H 521.704 4.15572 0.262407 0
M  V30 5825 H 524.301 4.40381 3.03263 0
M  V30 5826 H 524.644 2.69693 3.1713 0
M  V30 5827 H 525.177 3.58533 1.72334 0
M  V30 5828 H 521.916 6.48425 0.960507 0
M  V30 5829 H 521.436 5.51027 2.36917 0
M  V30 5830 H 523.115 6.08203 2.20675 0
M  V30 5831 N 523.247 -0.488276 1.49845 0
M  V30 5832 C 524.477 -1.26344 1.63465 0
M  V30 5833 C 524.885 -1.86637 0.310379 0
M  V30 5834 O 524.228 -1.69184 -0.715712 0
M  V30 5835 C 524.29 -2.42407 2.65479 0
M  V30 5836 C 523.954 -2.02886 4.09495 0
M  V30 5837 C 524.951 -1.56124 4.95904 0
M  V30 5838 C 522.636 -2.12131 4.55308 0
M  V30 5839 C 524.63 -1.19129 6.26169 0
M  V30 5840 C 522.317 -1.74747 5.85582 0
M  V30 5841 C 523.315 -1.28322 6.70837 0
M  V30 5842 O 523.003 -0.914491 7.98682 0
M  V30 5843 H 522.735 -0.388921 0.552916 0
M  V30 5844 H 525.289 -0.591288 1.96705 0
M  V30 5845 H 523.519 -3.12739 2.27445 0
M  V30 5846 H 525.208 -3.04409 2.68495 0
M  V30 5847 H 525.974 -1.48417 4.61733 0
M  V30 5848 H 521.853 -2.47217 3.89107 0
M  V30 5849 H 525.397 -0.828211 6.92666 0
M  V30 5850 H 521.294 -1.82109 6.19279 0
M  V30 5851 H 522.062 -1.04485 8.11804 0
M  V30 5852 N 524.725 -1.39134 -0.740242 0
M  V30 5853 C 525.971 -1.36273 -1.50192 0
M  V30 5854 C 526.304 0.0430136 -1.94152 0
M  V30 5855 O 525.579 1.00691 -1.66408 0
M  V30 5856 C 525.862 -2.33041 -2.74525 0
M  V30 5857 C 525.715 -3.82535 -2.36617 0
M  V30 5858 C 527.034 -2.27723 -3.76604 0
M  V30 5859 H 524.153 -0.496323 -0.544823 0
M  V30 5860 H 526.795 -1.70085 -0.846815 0
M  V30 5861 H 524.945 -2.04337 -3.30422 0
M  V30 5862 H 526.617 -4.21967 -1.86391 0
M  V30 5863 H 524.86 -3.99565 -1.68909 0
M  V30 5864 H 525.531 -4.45723 -3.2563 0
M  V30 5865 H 528.007 -2.53091 -3.30279 0
M  V30 5866 H 526.883 -2.97519 -4.61274 0
M  V30 5867 H 527.144 -1.28049 -4.2315 0
M  V30 5868 N 526.204 0.969867 -1.24223 0
M  V30 5869 C 527.62 1.23809 -1.00716 0
M  V30 5870 C 527.82 1.99469 0.285358 0
M  V30 5871 O 526.876 2.31764 1.00207 0
M  V30 5872 C 528.189 2.02734 -2.2208 0
M  V30 5873 C 529.737 2.15834 -2.26681 0
M  V30 5874 C 530.212 2.98154 -3.47661 0
M  V30 5875 N 531.703 3.05737 -3.47964 0
M  V30 5876 C 532.438 3.69785 -4.38231 0
M  V30 5877 N 531.934 4.35569 -5.3875 0
M  V30 5878 N 533.727 3.66775 -4.25949 0
M  V30 5879 H 525.878 0.463294 -2.07286 0
M  V30 5880 H 528.141 0.267348 -0.909521 0
M  V30 5881 H 527.847 1.54524 -3.15935 0
M  V30 5882 H 527.721 3.0347 -2.24021 0
M  V30 5883 H 530.108 2.63248 -1.33359 0
M  V30 5884 H 530.189 1.14453 -2.28767 0
M  V30 5885 H 529.833 2.51435 -4.41297 0
M  V30 5886 H 529.763 3.99729 -3.42818 0
M  V30 5887 H 532.254 2.58941 -2.75242 0
M  V30 5888 H 532.567 4.82251 -6.03866 0
M  V30 5889 H 530.912 4.34244 -5.42639 0
M  V30 5890 H 534.103 3.14558 -3.46657 0
M  V30 5891 H 534.276 4.16407 -4.96497 0
M  V30 5892 N 527.682 1.05563 1.17022 0
M  V30 5893 C 528.91 0.78845 1.91288 0
M  V30 5894 C 529.325 -0.656318 1.77025 0
M  V30 5895 O 528.682 -1.44869 1.10992 0
M  V30 5896 C 528.733 1.16444 3.42232 0
M  V30 5897 O 528.454 2.5525 3.5606 0
M  V30 5898 C 529.955 0.923937 4.33565 0
M  V30 5899 H 527.175 0.286389 0.606813 0
M  V30 5900 H 529.719 1.4073 1.48375 0
M  V30 5901 H 527.874 0.590266 3.82877 0
M  V30 5902 H 528.288 2.70097 4.49609 0
M  V30 5903 H 529.762 1.23672 5.37968 0
M  V30 5904 H 530.239 -0.140688 4.38975 0
M  V30 5905 H 530.845 1.48214 3.98639 0
M  V30 5906 N 529.16 -1.33526 0.837174 0
M  V30 5907 C 530.408 -1.97446 0.431211 0
M  V30 5908 C 530.729 -1.6665 -1.01255 0
M  V30 5909 O 529.999 -0.964559 -1.70508 0
M  V30 5910 H 528.579 -0.73043 0.156463 0
M  V30 5911 H 531.241 -1.62918 1.06976 0
M  V30 5912 H 530.337 -3.07001 0.561877 0
M  V30 5913 N 530.638 -0.59345 -1.46 0
M  V30 5914 C 531.887 -0.0808084 -2.01538 0
M  V30 5915 C 532.2 1.29112 -1.46934 0
M  V30 5916 O 533.406 1.8957 -1.94359 0
M  V30 5917 C 531.862 -0.0938311 -3.59778 0
M  V30 5918 C 531.47 -1.46474 -4.23379 0
M  V30 5919 C 533.214 0.364306 -4.22934 0
M  V30 5920 C 531.121 -1.4349 -5.73729 0
M  V30 5921 H 530.051 -0.0264407 -0.753536 0
M  V30 5922 H 532.702 -0.746689 -1.67621 0
M  V30 5923 H 531.084 0.638427 -3.9082 0
M  V30 5924 H 532.258 -2.21758 -4.03931 0
M  V30 5925 H 530.573 -1.86379 -3.7236 0
M  V30 5926 H 533.17 0.405584 -5.3316 0
M  V30 5927 H 533.513 1.38409 -3.92618 0
M  V30 5928 H 534.046 -0.31423 -3.96557 0
M  V30 5929 H 530.785 -2.43184 -6.08722 0
M  V30 5930 H 530.305 -0.724431 -5.95409 0
M  V30 5931 H 531.984 -1.15243 -6.36654 0
M  V30 5932 N 532.116 1.54067 -0.331816 0
M  V30 5933 C 533.346 2.04833 0.269605 0
M  V30 5934 C 533.754 1.20714 1.45687 0
M  V30 5935 O 533.097 0.232539 1.82222 0
M  V30 5936 C 533.159 3.51386 0.759499 0
M  V30 5937 C 532.823 4.55971 -0.306557 0
M  V30 5938 C 533.82 5.07126 -1.14538 0
M  V30 5939 C 531.505 5.00216 -0.457116 0
M  V30 5940 C 533.499 6.01096 -2.12042 0
M  V30 5941 C 531.186 5.93999 -1.43556 0
M  V30 5942 C 532.184 6.44326 -2.26568 0
M  V30 5943 O 531.872 7.36267 -3.22749 0
M  V30 5944 H 531.604 0.673509 0.0579763 0
M  V30 5945 H 534.158 1.99748 -0.478521 0
M  V30 5946 H 532.388 3.53896 1.55867 0
M  V30 5947 H 534.077 3.85184 1.28017 0
M  V30 5948 H 534.843 4.73716 -1.04009 0
M  V30 5949 H 530.722 4.60652 0.179142 0
M  V30 5950 H 534.266 6.40302 -2.76873 0
M  V30 5951 H 530.163 6.26825 -1.54146 0
M  V30 5952 H 530.931 7.54165 -3.18083 0
M  V30 5953 N 533.594 0.0601682 1.57485 0
M  V30 5954 C 534.544 -0.920969 2.08572 0
M  V30 5955 C 535.528 -1.26617 0.992827 0
M  V30 5956 O 536.72 -1.24708 1.25606 0
M  V30 5957 C 533.849 -2.19267 2.64153 0
M  V30 5958 C 532.935 -1.87447 3.80427 0
M  V30 5959 N 533.326 -1.26025 4.89848 0
M  V30 5960 C 531.624 -2.17265 3.89502 0
M  V30 5961 C 532.325 -1.12036 5.70809 0
M  V30 5962 N 531.301 -1.62624 5.18705 0
M  V30 5963 H 535.103 -0.441561 2.90564 0
M  V30 5964 H 532.617 -0.144043 1.6176 0
M  V30 5965 H 534.614 -2.90462 2.99061 0
M  V30 5966 H 533.274 -2.67806 1.83603 0
M  V30 5967 H 534.285 -0.931336 5.09457 0
M  V30 5968 H 530.962 -2.68262 3.19909 0
M  V30 5969 H 532.352 -0.642783 6.68818 0
M  V30 5970 N 535.072 -1.5615 -0.213296 0
M  V30 5971 C 536.32 -1.79191 -0.934612 0
M  V30 5972 C 536.641 -0.630112 -1.84539 0
M  V30 5973 O 535.911 0.35257 -1.92701 0
M  V30 5974 H 534.491 -0.660937 -0.348097 0
M  V30 5975 H 537.153 -1.93618 -0.22317 0
M  V30 5976 H 536.249 -2.71656 -1.53654 0
M  V30 5977 N 536.55 0.480323 -1.50102 0
M  V30 5978 C 537.798 1.23063 -1.60312 0
M  V30 5979 C 538.119 1.92659 -0.301226 0
M  V30 5980 O 537.389 1.83691 0.680753 0
M  V30 5981 H 535.969 0.457231 -0.590719 0
M  V30 5982 H 538.631 0.554893 -1.86834 0
M  V30 5983 H 537.727 1.9835 -2.40964 0
M  V30 5984 N 538.028 1.39524 0.732853 0
M  V30 5985 C 538.938 1.40695 1.87729 0
M  V30 5986 C 539.954 0.301496 1.71368 0
M  V30 5987 O 541.13 0.543313 1.93933 0
M  V30 5988 C 538.195 1.25098 3.23344 0
M  V30 5989 C 537.256 2.45634 3.52083 0
M  V30 5990 C 536.489 2.30772 4.81228 0
M  V30 5991 O 536.712 1.31233 5.55098 0
M  V30 5992 O 535.646 3.19799 5.09914 0
M  V30 5993 H 539.472 2.37168 1.89697 0
M  V30 5994 H 537.057 1.20663 0.880959 0
M  V30 5995 H 538.939 1.18541 4.04383 0
M  V30 5996 H 537.614 0.317209 3.22142 0
M  V30 5997 H 536.521 2.57767 2.71122 0
M  V30 5998 H 537.854 3.37712 3.58066 0
M  V30 5999 N 539.506 -0.963266 1.24736 0
M  V30 6000 C 540.917 -1.52145 1.08207 0
M  V30 6001 C 541.268 -1.93142 -0.345061 0
M  V30 6002 O 540.393 -1.77769 -1.23399 0
M  V30 6003 C 540.988 -2.76486 1.95808 0
M  V30 6004 C 539.547 -3.28646 1.8349 0
M  V30 6005 C 538.694 -2.01529 1.90476 0
M  V30 6006 H 541.645 -0.781083 1.38148 0
M  V30 6007 H 541.666 -3.49986 1.49297 0
M  V30 6008 H 541.178 -2.46617 2.99669 0
M  V30 6009 H 539.279 -3.63357 0.824787 0
M  V30 6010 H 539.392 -3.97246 2.67829 0
M  V30 6011 H 537.756 -2.16442 1.34258 0
M  V30 6012 H 538.539 -1.7402 2.95926 0
M  V30 6013 N 540.985 -1.06182 -1.16461 0
M  V30 6014 C 541.915 -0.692861 -2.22984 0
M  V30 6015 C 542.896 0.314122 -1.67174 0
M  V30 6016 O 544.081 0.189499 -1.93273 0
M  V30 6017 C 541.211 -0.07732 -3.47214 0
M  V30 6018 C 540.165 -1.01015 -4.15909 0
M  V30 6019 C 539.491 -0.257973 -5.34077 0
M  V30 6020 C 540.791 -2.33868 -4.67015 0
M  V30 6021 H 542.485 -1.58343 -2.54102 0
M  V30 6022 H 540.031 -0.76279 -1.22137 0
M  V30 6023 H 541.984 0.19266 -4.20959 0
M  V30 6024 H 540.708 0.848254 -3.15392 0
M  V30 6025 H 539.367 -1.26486 -3.44088 0
M  V30 6026 H 539.015 0.670684 -4.98509 0
M  V30 6027 H 538.715 -0.879638 -5.80979 0
M  V30 6028 H 540.239 0.00448788 -6.106 0
M  V30 6029 H 541.653 -2.1279 -5.32347 0
M  V30 6030 H 540.05 -2.91522 -5.24533 0
M  V30 6031 H 541.12 -2.97019 -3.83286 0
M  V30 6032 N 542.463 1.3308 -0.844243 0
M  V30 6033 C 543.703 1.99414 -0.448697 0
M  V30 6034 C 544.067 1.65398 0.975058 0
M  V30 6035 O 545.268 2.24741 1.47461 0
M  V30 6036 C 543.539 3.51081 -0.669089 0
M  V30 6037 S 545.098 4.37241 -0.369564 0
M  V30 6038 H 541.916 0.690736 -0.168538 0
M  V30 6039 H 544.518 1.61977 -1.0947 0
M  V30 6040 H 543.222 3.73326 -1.70457 0
M  V30 6041 H 542.753 3.93399 -0.00913211 0
M  V30 6042 H 544.768 4.89568 0.808552 0
M  V30 6043 N 543.941 0.601185 1.45683 0
M  V30 6044 C 545.218 0.0261659 1.95582 0
M  V30 6045 C 545.598 -1.4399 1.5437 0
M  V30 6046 O 544.946 -2.13919 0.80318 0
M  V30 6047 C 545.156 0.217557 3.48321 0
M  V30 6048 C 546.504 0.0950076 4.24494 0
M  V30 6049 O 547.528 0.147345 3.55895 0
M  V30 6050 O 546.387 -0.025261 5.46494 0
M  V30 6051 H 543.481 -0.0393688 0.826062 0
M  V30 6052 H 546.027 0.670798 1.55879 0
M  V30 6053 H 544.799 1.23601 3.71266 0
M  V30 6054 H 544.422 -0.46264 3.94899 0
M  V30 6055 N 545.419 -1.53889 0.339982 0
M  V30 6056 C 546.367 -2.26391 -0.533822 0
M  V30 6057 C 547.361 -1.28404 -1.10493 0
M  V30 6058 O 548.567 -1.46124 -1.05108 0
M  V30 6059 H 544.942 -0.727385 -0.190828 0
M  V30 6060 H 546.913 -2.98233 0.0997484 0
M  V30 6061 C 545.662 -3.04707 -1.67479 0
M  V30 6062 H 544.985 -3.79934 -1.2446 0
M  V30 6063 H 546.425 -3.58657 -2.26144 0
M  V30 6064 C 544.884 -2.13989 -2.60212 0
M  V30 6065 O 545.414 -1.73361 -3.62366 0
M  V30 6066 N 543.62 -1.79141 -2.28816 0
M  V30 6067 H 543.167 -2.12378 -1.45785 0
M  V30 6068 H 543.125 -1.18725 -2.91121 0
M  V30 6069 N 546.897 -0.0685191 -1.57451 0
M  V30 6070 C 548.143 0.602239 -1.93652 0
M  V30 6071 C 548.476 1.6946 -0.948526 0
M  V30 6072 O 547.751 1.94487 0.022782 0
M  V30 6073 C 548.034 1.18223 -3.4014 0
M  V30 6074 C 547.887 0.0967431 -4.49696 0
M  V30 6075 C 549.206 2.08872 -3.87377 0
M  V30 6076 H 546.325 0.217453 -0.70419 0
M  V30 6077 H 548.967 -0.133821 -1.89528 0
M  V30 6078 H 547.117 1.80953 -3.43785 0
M  V30 6079 H 548.789 -0.536155 -4.58174 0
M  V30 6080 H 547.032 -0.573063 -4.29998 0
M  V30 6081 H 547.703 0.542894 -5.49324 0
M  V30 6082 H 550.179 1.56081 -3.85717 0
M  V30 6083 H 549.055 2.46389 -4.90493 0
M  V30 6084 H 549.316 2.99572 -3.25129 0
M  V30 6085 N 548.375 1.56261 0.205012 0
M  V30 6086 C 549.323 1.94631 1.27364 0
M  V30 6087 C 550.317 0.830434 1.47649 0
M  V30 6088 O 551.523 1.01538 1.48627 0
M  V30 6089 H 547.898 0.618755 0.427371 0
M  V30 6090 H 549.869 2.83768 0.922941 0
M  V30 6091 C 548.618 2.29358 2.61324 0
M  V30 6092 H 547.941 3.14744 2.46528 0
M  V30 6093 H 549.381 2.60076 3.34868 0
M  V30 6094 C 547.84 1.12461 3.17575 0
M  V30 6095 O 548.37 0.394407 3.99759 0
M  V30 6096 N 546.576 0.904036 2.7618 0
M  V30 6097 H 546.123 1.49956 2.09454 0
M  V30 6098 H 546.081 0.123662 3.14157 0
M  V30 6099 N 549.853 -0.472356 1.50355 0
M  V30 6100 C 551.081 -1.24784 1.65035 0
M  V30 6101 C 551.496 -1.85837 0.333176 0
M  V30 6102 O 550.853 -1.69168 -0.68472 0
M  V30 6103 C 550.904 -2.35747 2.74054 0
M  V30 6104 O 550.625 -1.77197 4.00665 0
M  V30 6105 C 552.126 -3.26645 2.99696 0
M  V30 6106 H 549.346 -0.377432 0.554785 0
M  V30 6107 H 551.89 -0.563962 1.9657 0
M  V30 6108 H 550.045 -2.99912 2.45217 0
M  V30 6109 H 550.459 -2.5026 4.60945 0
M  V30 6110 H 551.933 -4.00718 3.79644 0
M  V30 6111 H 552.41 -3.8535 2.10718 0
M  V30 6112 H 553.016 -2.68218 3.3006 0
M  V30 6113 N 551.331 -1.39911 -0.725443 0
M  V30 6114 C 552.263 -1.35301 -1.85003 0
M  V30 6115 C 553.276 -0.260102 -1.60709 0
M  V30 6116 O 554.465 -0.519749 -1.70766 0
M  V30 6117 C 551.565 -1.08039 -3.21218 0
M  V30 6118 C 550.738 -2.28793 -3.7279 0
M  V30 6119 C 549.797 -1.97841 -4.87591 0
M  V30 6120 O 548.823 -2.70616 -5.00755 0
M  V30 6121 N 550.025 -0.950367 -5.72668 0
M  V30 6122 H 552.79 -2.32218 -1.89459 0
M  V30 6123 H 550.351 -1.34137 -0.90658 0
M  V30 6124 H 552.343 -0.853354 -3.95601 0
M  V30 6125 H 550.913 -0.198229 -3.11971 0
M  V30 6126 H 550.133 -2.67388 -2.8965 0
M  V30 6127 H 551.421 -3.09317 -4.03981 0
M  V30 6128 H 550.819 -0.347436 -5.64632 0
M  V30 6129 H 549.376 -0.783232 -6.47077 0
M  V30 6130 N 552.809 0.956637 -1.25245 0
M  V30 6131 C 554.225 1.22733 -1.02023 0
M  V30 6132 C 554.425 1.99761 0.264186 0
M  V30 6133 O 553.481 2.32814 0.977436 0
M  V30 6134 C 554.794 2.00367 -2.24217 0
M  V30 6135 C 556.342 2.13418 -2.28958 0
M  V30 6136 C 556.817 2.9445 -3.50803 0
M  V30 6137 N 558.308 3.02029 -3.51187 0
M  V30 6138 C 559.043 3.65116 -4.42129 0
M  V30 6139 N 558.539 4.2983 -5.43339 0
M  V30 6140 N 560.332 3.62237 -4.29815 0
M  V30 6141 H 552.483 0.441282 -2.07765 0
M  V30 6142 H 554.746 0.257686 -0.912306 0
M  V30 6143 H 554.452 1.51165 -3.17556 0
M  V30 6144 H 554.326 3.01077 -2.27228 0
M  V30 6145 H 556.713 2.61819 -1.36143 0
M  V30 6146 H 556.794 1.1202 -2.29968 0
M  V30 6147 H 556.438 2.46741 -4.43939 0
M  V30 6148 H 556.368 3.9607 -3.47039 0
M  V30 6149 H 558.859 2.56007 -2.77973 0
M  V30 6150 H 559.172 4.75819 -6.08947 0
M  V30 6151 H 557.517 4.28465 -5.47214 0
M  V30 6152 H 560.708 3.10863 -3.49974 0
M  V30 6153 H 560.881 4.11117 -5.00886 0
M  V30 6154 N 554.287 1.06798 1.15896 0
M  V30 6155 C 555.533 0.788934 1.86825 0
M  V30 6156 C 555.866 -0.683084 1.8179 0
M  V30 6157 O 555.141 -1.50086 1.23711 0
M  V30 6158 C 555.424 1.29065 3.36176 0
M  V30 6159 C 555.277 2.8268 3.49874 0
M  V30 6160 C 556.596 0.902655 4.30744 0
M  V30 6161 H 553.715 0.288066 0.678371 0
M  V30 6162 H 556.357 1.32479 1.36195 0
M  V30 6163 H 554.507 0.834806 3.79425 0
M  V30 6164 H 556.179 3.36511 3.15528 0
M  V30 6165 H 554.422 3.21157 2.91617 0
M  V30 6166 H 555.093 3.12852 4.54783 0
M  V30 6167 H 557.569 1.29535 3.95424 0
M  V30 6168 H 556.445 1.28111 5.3374 0
M  V30 6169 H 556.706 -0.191951 4.41683 0
M  V30 6170 N 555.766 -1.3263 0.851289 0
M  V30 6171 C 557.177 -1.79653 0.5081 0
M  V30 6172 C 557.528 -1.70327 -0.973815 0
M  V30 6173 O 556.653 -1.25986 -1.75944 0
M  V30 6174 C 557.248 -3.26196 0.915515 0
M  V30 6175 C 555.807 -3.71187 0.624277 0
M  V30 6176 C 554.954 -2.53804 1.11709 0
M  V30 6177 H 557.905 -1.19976 1.03882 0
M  V30 6178 H 557.926 -3.79801 0.230535 0
M  V30 6179 H 557.438 -3.32952 1.99411 0
M  V30 6180 H 555.539 -3.69948 -0.443737 0
M  V30 6181 H 555.652 -4.64132 1.18821 0
M  V30 6182 H 554.016 -2.48964 0.537484 0
M  V30 6183 H 554.799 -2.63315 2.20272 0
M  V30 6184 N 557.244 -0.608902 -1.45362 0
M  V30 6185 C 558.484 -0.10763 -2.04116 0
M  V30 6186 C 558.848 1.23883 -1.46686 0
M  V30 6187 O 560.049 1.83091 -1.96803 0
M  V30 6188 C 558.32 -0.0703351 -3.57331 0
M  V30 6189 S 559.879 0.369554 -4.37241 0
M  V30 6190 H 556.697 -0.0502123 -0.709225 0
M  V30 6191 H 559.299 -0.8073 -1.78053 0
M  V30 6192 H 558.003 -1.05379 -3.9664 0
M  V30 6193 H 557.534 0.651287 -3.87971 0
M  V30 6194 H 559.549 1.61878 -4.69052 0
M  V30 6195 N 558.722 1.53707 -0.348139 0
M  V30 6196 C 559.947 2.05877 0.250883 0
M  V30 6197 C 560.372 1.22115 1.43072 0
M  V30 6198 O 559.73 0.235986 1.79758 0
M  V30 6199 C 559.778 3.54886 0.639416 0
M  V30 6200 O 558.882 3.73948 1.73888 0
M  V30 6201 H 558.223 0.662754 0.040653 0
M  V30 6202 H 560.753 1.98303 -0.503685 0
M  V30 6203 H 560.763 3.97601 0.915295 0
M  V30 6204 H 559.438 4.153 -0.223386 0
M  V30 6205 H 558.015 3.43134 1.45991 0
M  V30 6206 N 560.2 0.0768682 1.57412 0
M  V30 6207 C 561.148 -0.906229 2.1422 0
M  V30 6208 C 562.142 -1.30477 1.08037 0
M  V30 6209 O 563.348 -1.28143 1.2641 0
M  V30 6210 H 559.723 -0.310207 0.685037 0
M  V30 6211 H 561.694 -0.402228 2.95677 0
M  V30 6212 C 560.443 -2.16245 2.72274 0
M  V30 6213 H 559.766 -1.86463 3.53655 0
M  V30 6214 H 561.206 -2.83134 3.15613 0
M  V30 6215 C 559.665 -2.92437 1.67279 0
M  V30 6216 O 560.195 -3.86322 1.10081 0
M  V30 6217 N 558.401 -2.55637 1.38195 0
M  V30 6218 H 557.948 -1.79363 1.84897 0
M  V30 6219 H 557.906 -3.06919 0.681787 0
M  V30 6220 N 561.678 -1.56367 -0.196722 0
M  V30 6221 C 563.089 -1.70462 -0.761545 0
M  V30 6222 C 563.44 -0.683161 -1.83922 0
M  V30 6223 O 562.565 0.160753 -2.15802 0
M  V30 6224 C 563.16 -3.09057 -1.38814 0
M  V30 6225 C 561.719 -3.24922 -1.90007 0
M  V30 6226 C 560.866 -2.66412 -0.769399 0
M  V30 6227 H 563.817 -1.58675 0.0283263 0
M  V30 6228 H 563.838 -3.06296 -2.2575 0
M  V30 6229 H 563.35 -3.83378 -0.603559 0
M  V30 6230 H 561.451 -2.55514 -2.71189 0
M  V30 6231 H 561.564 -4.3241 -2.06297 0
M  V30 6232 H 559.928 -2.25546 -1.18326 0
M  V30 6233 H 560.711 -3.433 0.00291773 0
M  V30 6234 N 563.156 0.464375 -1.50603 0
M  V30 6235 C 564.572 0.798684 -1.38178 0
M  V30 6236 C 564.772 1.96568 -0.44308 0
M  V30 6237 O 563.828 2.52252 0.111814 0
M  V30 6238 C 565.141 1.10444 -2.79683 0
M  V30 6239 C 566.689 1.2105 -2.88645 0
M  V30 6240 C 567.164 1.54934 -4.30998 0
M  V30 6241 N 568.655 1.61913 -4.3398 0
M  V30 6242 C 569.39 1.8965 -5.41129 0
M  V30 6243 N 568.886 2.15361 -6.58477 0
M  V30 6244 N 570.679 1.91207 -5.28579 0
M  V30 6245 H 562.83 -0.304603 -2.10204 0
M  V30 6246 H 565.093 -0.0737804 -0.945125 0
M  V30 6247 H 564.799 0.319934 -3.50242 0
M  V30 6248 H 564.673 2.03896 -3.17342 0
M  V30 6249 H 567.06 1.98567 -2.18301 0
M  V30 6250 H 567.141 0.255613 -2.5452 0
M  V30 6251 H 566.785 0.779549 -5.01882 0
M  V30 6252 H 566.715 2.51584 -4.62615 0
M  V30 6253 H 569.206 1.44055 -3.49366 0
M  V30 6254 H 569.519 2.35818 -7.35941 0
M  V30 6255 H 567.864 2.1274 -6.6164 0
M  V30 6256 H 571.055 1.70622 -4.35897 0
M  V30 6257 H 571.228 2.12488 -6.12171 0
M  V30 6258 N 564.634 1.40294 0.718013 0
M  V30 6259 C 565.88 1.39648 1.47885 0
M  V30 6260 C 566.235 -0.0023879 1.924 0
M  V30 6261 O 565.528 -0.972304 1.65096 0
M  V30 6262 C 565.722 2.31814 2.72024 0
M  V30 6263 C 565.551 3.80523 2.3965 0
M  V30 6264 C 564.321 4.49351 2.3111 0
M  V30 6265 C 566.519 4.72077 2.04079 0
M  V30 6266 N 564.501 5.83305 1.91385 0
M  V30 6267 C 565.872 5.94809 1.74935 0
M  V30 6268 C 567.927 4.59935 1.90694 0
M  V30 6269 C 566.63 7.06755 1.33753 0
M  V30 6270 C 568.656 5.7182 1.50915 0
M  V30 6271 C 568.018 6.93637 1.22668 0
M  V30 6272 H 564.117 0.566263 0.539324 0
M  V30 6273 H 566.701 1.75986 0.832891 0
M  V30 6274 H 564.872 1.97607 3.34374 0
M  V30 6275 H 566.604 2.22042 3.38348 0
M  V30 6276 H 563.359 4.03002 2.4877 0
M  V30 6277 H 563.783 6.54239 1.74068 0
M  V30 6278 H 568.425 3.66274 2.11194 0
M  V30 6279 H 566.143 8.00302 1.11995 0
M  V30 6280 H 569.729 5.64421 1.4114 0
M  V30 6281 H 568.609 7.78743 0.923502 0
M  V30 6282 N 566.112 -0.949982 1.2575 0
M  V30 6283 C 567.06 -2.06869 1.06339 0
M  V30 6284 C 568.054 -1.69399 -0.00708901 0
M  V30 6285 O 569.26 -1.79383 0.148897 0
M  V30 6286 H 565.635 -0.677197 0.326969 0
M  V30 6287 H 567.606 -2.20396 2.01167 0
M  V30 6288 C 566.355 -3.40503 0.703769 0
M  V30 6289 H 565.678 -3.69807 1.51931 0
M  V30 6290 H 567.118 -4.19623 0.607677 0
M  V30 6291 C 565.577 -3.31685 -0.5905 0
M  V30 6292 O 566.107 -3.67085 -1.63131 0
M  V30 6293 N 564.313 -2.84797 -0.577859 0
M  V30 6294 H 563.86 -2.56186 0.26951 0
M  V30 6295 H 563.818 -2.79279 -1.44398 0
M  V30 6296 N 567.59 -1.07411 -1.15328 0
M  V30 6297 C 568.5 -0.706438 -2.23711 0
M  V30 6298 C 569.516 0.282586 -1.7169 0
M  V30 6299 O 570.692 0.129066 -2.00986 0
M  V30 6300 C 567.757 -0.11048 -3.46524 0
M  V30 6301 C 566.818 -1.15282 -4.13532 0
M  V30 6302 C 566.051 -0.585205 -5.30482 0
M  V30 6303 O 566.274 0.598549 -5.67251 0
M  V30 6304 O 565.208 -1.33039 -5.87013 0
M  V30 6305 H 569.034 -1.61031 -2.57493 0
M  V30 6306 H 566.619 -0.847113 -1.23062 0
M  V30 6307 H 568.501 0.21957 -4.20828 0
M  V30 6308 H 567.176 0.766703 -3.14489 0
M  V30 6309 H 566.083 -1.53523 -3.41147 0
M  V30 6310 H 567.416 -2.00192 -4.49649 0
M  V30 6311 N 569.068 1.32177 -0.85831 0
M  V30 6312 C 570.314 1.97813 -0.47346 0
M  V30 6313 C 570.669 1.66674 0.961122 0
M  V30 6314 O 569.962 0.94657 1.66585 0
M  V30 6315 C 570.156 3.51372 -0.653658 0
M  V30 6316 C 569.985 3.97433 -2.1042 0
M  V30 6317 C 568.755 4.24338 -2.74345 0
M  V30 6318 C 570.953 4.12233 -3.0752 0
M  V30 6319 N 568.935 4.56672 -4.10272 0
M  V30 6320 C 570.306 4.48146 -4.28445 0
M  V30 6321 C 572.361 3.94577 -3.03667 0
M  V30 6322 C 571.064 4.68246 -5.4602 0
M  V30 6323 C 573.09 4.15864 -4.20489 0
M  V30 6324 C 572.452 4.52098 -5.40173 0
M  V30 6325 H 568.551 0.749808 -0.222061 0
M  V30 6326 H 571.135 1.59927 -1.11047 0
M  V30 6327 H 569.306 3.88372 -0.0463267 0
M  V30 6328 H 571.038 4.03998 -0.238343 0
M  V30 6329 H 567.793 4.16544 -2.25362 0
M  V30 6330 H 568.217 4.77019 -4.80398 0
M  V30 6331 H 572.859 3.65662 -2.12252 0
M  V30 6332 H 570.577 4.96014 -6.37962 0
M  V30 6333 H 574.163 4.03702 -4.18947 0
M  V30 6334 H 573.043 4.68238 -6.29065 0
M  V30 6335 N 570.547 0.616602 1.45037 0
M  V30 6336 C 571.477 -0.0840787 2.33349 0
M  V30 6337 C 572.458 -0.849641 1.4736 0
M  V30 6338 O 573.643 -0.818407 1.76113 0
M  V30 6339 C 570.773 -1.07604 3.3021 0
M  V30 6340 C 569.727 -0.423096 4.25904 0
M  V30 6341 C 569.053 -1.52394 5.12523 0
M  V30 6342 C 570.353 0.661457 5.18095 0
M  V30 6343 H 572.047 0.653333 2.92185 0
M  V30 6344 H 569.593 0.315634 1.40498 0
M  V30 6345 H 571.546 -1.57485 3.90866 0
M  V30 6346 H 570.27 -1.84416 2.69552 0
M  V30 6347 H 568.929 0.05493 3.66559 0
M  V30 6348 H 568.577 -2.28257 4.48227 0
M  V30 6349 H 568.277 -1.09251 5.77354 0
M  V30 6350 H 569.801 -2.02485 5.76049 0
M  V30 6351 H 571.215 0.246353 5.7277 0
M  V30 6352 H 569.612 1.01517 5.91451 0
M  V30 6353 H 570.682 1.53446 4.59981 0
M  V30 6354 N 572.025 -1.5352 0.356285 0
M  V30 6355 C 572.973 -2.26945 -0.50978 0
M  V30 6356 C 573.967 -1.29569 -1.09125 0
M  V30 6357 O 575.173 -1.47231 -1.03552 0
M  V30 6358 H 571.548 -0.729368 -0.183102 0
M  V30 6359 H 573.519 -2.98111 0.131374 0
M  V30 6360 C 572.268 -3.06466 -1.64237 0
M  V30 6361 H 571.591 -3.81233 -1.20423 0
M  V30 6362 H 573.031 -3.61035 -2.22327 0
M  V30 6363 C 571.49 -2.16737 -2.57928 0
M  V30 6364 O 572.02 -1.77195 -3.60507 0
M  V30 6365 N 570.226 -1.81558 -2.26903 0
M  V30 6366 H 569.773 -2.13913 -1.43524 0
M  V30 6367 H 569.731 -1.21806 -2.89846 0
M  V30 6368 N 573.503 -0.0852151 -1.57369 0
M  V30 6369 C 574.733 0.588605 -1.98038 0
M  V30 6370 C 575.141 1.62869 -0.962817 0
M  V30 6371 O 574.484 1.83611 0.057134 0
M  V30 6372 C 574.546 1.30303 -3.35054 0
M  V30 6373 C 574.21 0.414855 -4.55113 0
M  V30 6374 C 575.207 -0.333011 -5.18832 0
M  V30 6375 C 572.892 0.335804 -5.01176 0
M  V30 6376 C 574.886 -1.14801 -6.26976 0
M  V30 6377 C 572.573 -0.482857 -6.09189 0
M  V30 6378 C 573.571 -1.22342 -6.71953 0
M  V30 6379 O 573.259 -2.02855 -7.77885 0
M  V30 6380 H 572.991 0.163249 -0.655992 0
M  V30 6381 H 575.545 -0.1582 -2.0479 0
M  V30 6382 H 573.775 2.0962 -3.24956 0
M  V30 6383 H 575.464 1.87041 -3.60237 0
M  V30 6384 H 576.23 -0.281611 -4.84182 0
M  V30 6385 H 572.109 0.901869 -4.52092 0
M  V30 6386 H 575.653 -1.72654 -6.75897 0
M  V30 6387 H 571.55 -0.535773 -6.43273 0
M  V30 6388 H 572.318 -1.95432 -7.94826 0
M  V30 6389 N 574.981 1.5647 0.188427 0
M  V30 6390 C 576.258 1.71857 0.934058 0
M  V30 6391 C 576.638 0.641867 2.01105 0
M  V30 6392 O 575.986 -0.346098 2.25864 0
M  V30 6393 C 576.196 3.14431 1.5144 0
M  V30 6394 C 577.544 3.74869 1.99396 0
M  V30 6395 O 578.568 3.17601 1.61269 0
M  V30 6396 O 577.427 4.75387 2.69573 0
M  V30 6397 H 574.521 0.701186 0.438483 0
M  V30 6398 H 577.067 1.68768 0.177599 0
M  V30 6399 H 575.839 3.8427 0.738416 0
M  V30 6400 H 575.462 3.21775 2.33552 0
M  V30 6401 N 576.459 -0.456382 1.50847 0
M  V30 6402 C 577.708 -1.2042 1.61808 0
M  V30 6403 C 578.021 -1.9278 0.330932 0
M  V30 6404 O 579.227 -2.69612 0.319643 0
M  V30 6405 C 577.683 -2.18891 2.85683 0
M  V30 6406 C 577.291 -1.52267 4.2133 0
M  V30 6407 C 579.035 -2.94224 3.05994 0
M  V30 6408 C 576.942 -2.4911 5.36375 0
M  V30 6409 H 575.872 -0.453177 0.602616 0
M  V30 6410 H 578.523 -0.473144 1.77295 0
M  V30 6411 H 576.905 -2.95351 2.63787 0
M  V30 6412 H 578.079 -0.814949 4.53536 0
M  V30 6413 H 576.394 -0.891594 4.06743 0
M  V30 6414 H 578.991 -3.66732 3.89117 0
M  V30 6415 H 579.334 -3.54469 2.18306 0
M  V30 6416 H 579.867 -2.24874 3.28141 0
M  V30 6417 H 576.606 -1.93582 6.26264 0
M  V30 6418 H 576.126 -3.17991 5.08569 0
M  V30 6419 H 577.805 -3.10637 5.67551 0
M  V30 6420 N 577.937 -1.40673 -0.710563 0
M  V30 6421 C 579.167 -1.4234 -1.49742 0
M  V30 6422 C 579.575 -0.022821 -1.89186 0
M  V30 6423 O 578.918 0.964773 -1.56326 0
M  V30 6424 C 578.98 -2.25509 -2.79975 0
M  V30 6425 C 578.644 -3.73862 -2.62824 0
M  V30 6426 C 579.641 -4.66379 -2.29752 0
M  V30 6427 C 577.326 -4.17735 -2.78932 0
M  V30 6428 C 579.32 -6.00756 -2.13006 0
M  V30 6429 C 577.007 -5.5218 -2.61802 0
M  V30 6430 C 578.005 -6.43505 -2.28888 0
M  V30 6431 O 577.693 -7.75472 -2.11894 0
M  V30 6432 H 577.425 -0.487311 -0.468513 0
M  V30 6433 H 579.979 -1.8542 -0.883668 0
M  V30 6434 H 578.209 -1.77218 -3.43701 0
M  V30 6435 H 579.898 -2.19058 -3.41714 0
M  V30 6436 H 580.664 -4.33778 -2.16936 0
M  V30 6437 H 576.543 -3.46967 -3.03537 0
M  V30 6438 H 580.087 -6.72003 -1.87237 0
M  V30 6439 H 575.984 -5.84365 -2.74204 0
M  V30 6440 H 576.752 -7.86458 -2.26775 0
M  V30 6441 N 579.415 0.9433 -1.26252 0
M  V30 6442 C 580.664 1.68369 -1.11062 0
M  V30 6443 C 580.977 1.92514 0.346104 0
M  V30 6444 O 582.183 2.64358 0.618646 0
M  V30 6445 C 580.639 3.03171 -1.93946 0
M  V30 6446 C 580.247 2.86782 -3.4418 0
M  V30 6447 C 581.991 3.80916 -1.87359 0
M  V30 6448 C 579.898 4.17044 -4.19319 0
M  V30 6449 H 578.828 0.631469 -0.412023 0
M  V30 6450 H 581.479 1.04922 -1.50544 0
M  V30 6451 H 579.861 3.67587 -1.47296 0
M  V30 6452 H 581.035 2.31229 -3.98585 0
M  V30 6453 H 579.35 2.22482 -3.51981 0
M  V30 6454 H 581.947 4.77417 -2.40784 0
M  V30 6455 H 582.29 4.07658 -0.843857 0
M  V30 6456 H 582.823 3.2327 -2.31821 0
M  V30 6457 H 579.562 3.95487 -5.22753 0
M  V30 6458 H 579.082 4.72319 -3.69696 0
M  V30 6459 H 580.761 4.85513 -4.27651 0
M  V30 6460 N 580.893 1.08022 1.14757 0
M  V30 6461 C 582.304 0.829144 1.67279 0
M  V30 6462 C 582.655 -0.644721 1.85305 0
M  V30 6463 O 581.78 -1.49838 1.56133 0
M  V30 6464 C 582.375 1.49855 3.03857 0
M  V30 6465 C 580.934 1.29482 3.53428 0
M  V30 6466 C 580.081 1.56386 2.28995 0
M  V30 6467 H 583.032 1.24134 0.988762 0
M  V30 6468 H 583.053 0.923572 3.69121 0
M  V30 6469 H 582.565 2.57123 2.90705 0
M  V30 6470 H 580.666 0.242669 3.71809 0
M  V30 6471 H 580.779 2.01974 4.34446 0
M  V30 6472 H 579.143 0.985217 2.34874 0
M  V30 6473 H 579.926 2.64851 2.18423 0
M  V30 6474 N 582.371 -1.3172 0.865308 0
M  V30 6475 C 583.648 -1.91574 0.394789 0
M  V30 6476 C 584.028 -1.78769 -1.12271 0
M  V30 6477 O 583.376 -1.19245 -1.94918 0
M  V30 6478 C 583.586 -3.37957 0.870982 0
M  V30 6479 C 584.934 -4.15073 0.894384 0
M  V30 6480 O 585.958 -3.4672 0.816325 0
M  V30 6481 O 584.817 -5.37151 1.00651 0
M  V30 6482 H 581.911 -0.818649 0.117229 0
M  V30 6483 H 584.457 -1.4042 0.952913 0
M  V30 6484 H 583.229 -3.41269 1.91444 0
M  V30 6485 H 582.852 -3.96534 0.290907 0
M  V30 6486 N 583.85 -0.624285 -1.44708 0
M  V30 6487 C 584.779 0.0717025 -2.3339 0
M  V30 6488 C 585.76 0.841814 -1.47809 0
M  V30 6489 O 586.946 0.809056 -1.76544 0
M  V30 6490 C 584.076 1.05852 -3.30776 0
M  V30 6491 C 583.029 0.400503 -4.26122 0
M  V30 6492 C 582.356 1.49674 -5.13324 0
M  V30 6493 C 583.656 -0.688924 -5.17737 0
M  V30 6494 H 585.35 -0.668819 -2.91834 0
M  V30 6495 H 582.896 -0.32308 -1.40329 0
M  V30 6496 H 584.849 1.5541 -3.91696 0
M  V30 6497 H 583.572 1.82984 -2.70526 0
M  V30 6498 H 582.231 -0.0743687 -3.66525 0
M  V30 6499 H 581.88 2.25877 -4.49431 0
M  V30 6500 H 581.58 1.06188 -5.77926 0
M  V30 6501 H 583.104 1.99427 -5.77115 0
M  V30 6502 H 584.518 -0.276724 -5.72632 0
M  V30 6503 H 582.915 -1.04652 -5.90904 0
M  V30 6504 H 583.985 -1.55884 -4.5916 0
M  V30 6505 N 585.328 1.53329 -0.364422 0
M  V30 6506 C 586.739 1.86345 0.115039 0
M  V30 6507 C 587.09 1.28505 1.4826 0
M  V30 6508 O 586.215 0.606639 2.07723 0
M  V30 6509 C 586.81 3.38114 0.215522 0
M  V30 6510 C 585.369 3.70932 0.639237 0
M  V30 6511 C 584.516 2.76471 -0.214261 0
M  V30 6512 H 587.467 1.47593 -0.583258 0
M  V30 6513 H 587.488 3.66031 1.0393 0
M  V30 6514 H 587 3.80182 -0.779948 0
M  V30 6515 H 585.101 3.3442 1.64298 0
M  V30 6516 H 585.214 4.77302 0.41465 0
M  V30 6517 H 583.578 2.52724 0.316678 0
M  V30 6518 H 584.361 3.21373 -1.20725 0
M  V30 6519 N 586.806 0.0935595 1.57322 0
M  V30 6520 C 588.222 -0.263091 1.57417 0
M  V30 6521 C 588.422 -1.68526 1.1046 0
M  V30 6522 O 587.478 -2.40139 0.780357 0
M  V30 6523 C 588.791 -0.0529201 3.00653 0
M  V30 6524 C 590.339 -0.120788 3.12767 0
M  V30 6525 C 590.814 0.0613707 4.57959 0
M  V30 6526 N 592.305 0.00648534 4.632 0
M  V30 6527 C 593.04 0.122699 5.73269 0
M  V30 6528 N 592.536 0.29366 6.92177 0
M  V30 6529 N 594.329 0.0640787 5.62063 0
M  V30 6530 H 586.48 1.02277 1.86154 0
M  V30 6531 H 588.743 0.4007 0.859153 0
M  V30 6532 H 588.449 0.929279 3.39201 0
M  V30 6533 H 588.323 -0.795899 3.68708 0
M  V30 6534 H 590.71 -1.09349 2.74093 0
M  V30 6535 H 590.791 0.653656 2.47307 0
M  V30 6536 H 590.435 1.03093 4.97327 0
M  V30 6537 H 590.365 -0.732748 5.21477 0
M  V30 6538 H 592.856 -0.123173 3.77699 0
M  V30 6539 H 593.169 0.37389 7.71895 0
M  V30 6540 H 591.514 0.329307 6.94219 0
M  V30 6541 H 594.705 -0.0683396 4.6805 0
M  V30 6542 H 594.878 0.158097 6.47807 0
M  V30 6543 N 588.284 -1.56567 -0.180126 0
M  V30 6544 C 589.247 -1.94852 -1.20686 0
M  V30 6545 C 590.247 -0.831212 -1.3765 0
M  V30 6546 O 591.437 -1.09841 -1.35206 0
M  V30 6547 C 588.569 -2.23565 -2.57355 0
M  V30 6548 H 589.762 -2.86722 -0.879225 0
M  V30 6549 H 587.315 -1.50489 -0.422237 0
M  V30 6550 H 588.05 -1.34381 -2.95148 0
M  V30 6551 H 587.835 -3.04999 -2.46411 0
M  V30 6552 H 589.325 -2.54137 -3.31367 0
M  V30 6553 N 589.762 0.448376 -1.51087 0
M  V30 6554 C 590.725 1.52588 -1.71025 0
M  V30 6555 C 591.725 1.49958 -0.580442 0
M  V30 6556 O 592.915 1.52176 -0.847833 0
M  V30 6557 C 590.047 2.92163 -1.75652 0
M  V30 6558 H 591.24 1.36218 -2.67179 0
M  V30 6559 H 588.793 0.676313 -1.4091 0
M  V30 6560 H 589.528 3.13951 -0.812724 0
M  V30 6561 H 589.313 2.95478 -2.57751 0
M  V30 6562 H 590.803 3.70349 -1.92953 0
M  V30 6563 N 591.24 1.41047 0.703093 0
M  V30 6564 C 592.656 1.23351 1.01275 0
M  V30 6565 C 592.856 0.11754 2.01157 0
M  V30 6566 O 591.912 -0.520518 2.47077 0
M  V30 6567 C 593.225 2.58001 1.54454 0
M  V30 6568 C 594.773 2.65119 1.66376 0
M  V30 6569 C 595.248 4.00067 2.22958 0
M  V30 6570 N 596.739 4.01875 2.30328 0
M  V30 6571 C 597.474 5.03087 2.75119 0
M  V30 6572 N 596.97 6.14692 3.19571 0
M  V30 6573 N 598.763 4.90451 2.74616 0
M  V30 6574 H 590.914 2.1236 0.0412686 0
M  V30 6575 H 593.177 0.944543 0.08089 0
M  V30 6576 H 592.883 3.40378 0.88521 0
M  V30 6577 H 592.757 2.79962 2.52786 0
M  V30 6578 H 595.144 1.83106 2.31422 0
M  V30 6579 H 595.225 2.46975 0.666089 0
M  V30 6580 H 594.869 4.82526 1.58529 0
M  V30 6581 H 594.799 4.15547 3.23462 0
M  V30 6582 H 597.29 3.21291 1.98949 0
M  V30 6583 H 597.603 6.87799 3.52352 0
M  V30 6584 H 595.948 6.18239 3.17498 0
M  V30 6585 H 599.139 4.0235 2.39233 0
M  V30 6586 H 599.312 5.6947 3.09206 0
M  V30 6587 N 592.718 -0.936591 1.26751 0
M  V30 6588 C 593.648 -2.05315 1.11212 0
M  V30 6589 C 594.629 -1.70092 0.0160262 0
M  V30 6590 O 595.814 -1.93279 0.188894 0
M  V30 6591 C 592.944 -3.39123 0.749171 0
M  V30 6592 C 591.898 -3.88425 1.79751 0
M  V30 6593 C 591.224 -5.18936 1.28876 0
M  V30 6594 C 592.524 -4.12798 3.19992 0
M  V30 6595 H 594.218 -2.18573 2.04613 0
M  V30 6596 H 591.764 -1.05027 0.985159 0
M  V30 6597 H 593.717 -4.16704 0.627323 0
M  V30 6598 H 592.441 -3.25855 -0.220543 0
M  V30 6599 H 591.1 -3.13028 1.90811 0
M  V30 6600 H 590.748 -5.02051 0.308757 0
M  V30 6601 H 590.448 -5.52892 1.98958 0
M  V30 6602 H 591.972 -5.99096 1.17967 0
M  V30 6603 H 593.386 -4.80977 3.11983 0
M  V30 6604 H 591.783 -4.58044 3.87705 0
M  V30 6605 H 592.853 -3.18412 3.65707 0
M  V30 6606 N 594.196 -1.08629 -1.14182 0
M  V30 6607 C 595.436 -0.826884 -1.86928 0
M  V30 6608 C 595.8 0.635808 -1.81167 0
M  V30 6609 O 597.001 1.0108 -2.49071 0
M  V30 6610 C 595.272 -1.33721 -3.31442 0
M  V30 6611 S 596.831 -1.21045 -4.21774 0
M  V30 6612 H 593.649 -0.299286 -0.644941 0
M  V30 6613 H 596.251 -1.38802 -1.37674 0
M  V30 6614 H 594.955 -2.39617 -3.33184 0
M  V30 6615 H 594.486 -0.771839 -3.85754 0
M  V30 6616 H 596.501 -0.156168 -4.95954 0
M  V30 6617 N 595.674 1.31259 -0.872281 0
M  V30 6618 C 596.604 2.30929 -0.345554 0
M  V30 6619 C 597.585 1.60449 0.5648 0
M  V30 6620 O 598.77 1.8814 0.481335 0
M  V30 6621 C 595.9 3.44348 0.451823 0
M  V30 6622 C 594.854 4.26435 -0.365641 0
M  V30 6623 C 594.18 5.31785 0.557562 0
M  V30 6624 C 595.48 4.97159 -1.60095 0
M  V30 6625 H 597.174 2.75234 -1.17841 0
M  V30 6626 H 594.72 1.3232 -0.568094 0
M  V30 6627 H 596.673 4.13128 0.830854 0
M  V30 6628 H 595.397 2.98816 1.31821 0
M  V30 6629 H 594.056 3.59326 -0.726649 0
M  V30 6630 H 593.704 4.82502 1.4213 0
M  V30 6631 H 593.404 5.87598 0.0144878 0
M  V30 6632 H 594.928 6.03424 0.933387 0
M  V30 6633 H 596.342 5.58523 -1.29323 0
M  V30 6634 H 594.739 5.62779 -2.08327 0
M  V30 6635 H 595.809 4.24012 -2.35249 0
M  V30 6636 N 597.152 0.631951 1.44375 0
M  V30 6637 C 598.377 0.142146 2.06912 0
M  V30 6638 C 598.802 -1.17456 1.4692 0
M  V30 6639 O 598.16 -1.72074 0.570975 0
M  V30 6640 C 598.208 0.0417952 3.60576 0
M  V30 6641 O 597.312 -1.00194 4.00044 0
M  V30 6642 H 596.653 0.0851491 0.658518 0
M  V30 6643 H 599.183 0.868863 1.85235 0
M  V30 6644 H 599.193 -0.148517 4.0773 0
M  V30 6645 H 597.868 1.0031 4.03622 0
M  V30 6646 H 596.445 -0.786131 3.64519 0
M  V30 6647 N 598.631 -1.53133 0.372548 0
M  V30 6648 C 599.88 -2.00539 -0.216115 0
M  V30 6649 C 600.193 -1.26374 -1.49295 0
M  V30 6650 O 601.399 -1.64404 -2.16064 0
M  V30 6651 C 599.855 -3.57253 -0.435678 0
M  V30 6652 C 599.463 -4.40302 0.82693 0
M  V30 6653 C 601.207 -4.12995 -0.981618 0
M  V30 6654 C 599.114 -5.88583 0.576567 0
M  V30 6655 H 598.044 -0.749246 -0.084536 0
M  V30 6656 H 600.695 -1.76771 0.492364 0
M  V30 6657 H 599.077 -3.77202 -1.20559 0
M  V30 6658 H 600.251 -4.32124 1.60017 0
M  V30 6659 H 598.566 -3.95699 1.29659 0
M  V30 6660 H 601.163 -5.21418 -1.18436 0
M  V30 6661 H 601.506 -3.68027 -1.94581 0
M  V30 6662 H 602.039 -3.96871 -0.271696 0
M  V30 6663 H 598.778 -6.37841 1.51128 0
M  V30 6664 H 598.298 -5.99592 -0.158047 0
M  V30 6665 H 599.977 -6.46676 0.204722 0
M  V30 6666 N 600.109 -0.101901 -1.5727 0
M  V30 6667 C 601.349 0.563489 -1.96479 0
M  V30 6668 C 601.713 1.64926 -0.983021 0
M  V30 6669 O 602.914 2.37234 -1.26386 0
M  V30 6670 C 601.185 1.09809 -3.40113 0
M  V30 6671 S 602.744 1.7744 -4.01323 0
M  V30 6672 H 599.562 0.183675 -0.686866 0
M  V30 6673 H 602.164 -0.182922 -1.94642 0
M  V30 6674 H 600.868 0.296447 -4.09328 0
M  V30 6675 H 600.399 1.88018 -3.45562 0
M  V30 6676 H 602.414 3.0591 -3.90683 0
M  V30 6677 N 601.587 1.56661 0.17182 0
M  V30 6678 C 602.812 1.86459 0.908165 0
M  V30 6679 C 603.237 0.688181 1.75059 0
M  V30 6680 O 602.595 -0.362753 1.77634 0
M  V30 6681 C 602.643 3.14669 1.76112 0
M  V30 6682 O 601.747 2.96858 2.86268 0
M  V30 6683 H 601.088 0.613318 0.254434 0
M  V30 6684 H 603.618 2.03892 0.170113 0
M  V30 6685 H 603.628 3.46061 2.16115 0
M  V30 6686 H 602.303 3.99905 1.14233 0
M  V30 6687 H 600.88 2.76819 2.49852 0
M  V30 6688 N 603.065 -0.440357 1.51323 0
M  V30 6689 C 604.311 -1.19181 1.64085 0
M  V30 6690 C 604.644 -1.90936 0.354575 0
M  V30 6691 O 603.919 -1.8347 -0.645675 0
M  V30 6692 C 604.202 -2.2112 2.84215 0
M  V30 6693 C 604.055 -1.53468 4.22809 0
M  V30 6694 C 605.374 -3.22133 2.99864 0
M  V30 6695 H 602.493 -0.431924 0.597169 0
M  V30 6696 H 605.135 -0.481443 1.83799 0
M  V30 6697 H 603.285 -2.81703 2.67537 0
M  V30 6698 H 604.957 -0.962455 4.51148 0
M  V30 6699 H 603.2 -0.837086 4.25647 0
M  V30 6700 H 603.871 -2.27694 5.02852 0
M  V30 6701 H 606.347 -2.71601 3.15233 0
M  V30 6702 H 605.223 -3.90756 3.85488 0
M  V30 6703 H 605.484 -3.88061 2.11804 0
M  V30 6704 N 604.543 -1.41418 -0.695603 0
M  V30 6705 C 605.49 -1.43264 -1.80954 0
M  V30 6706 C 606.46 -0.287016 -1.63601 0
M  V30 6707 O 607.645 -0.488054 -1.84452 0
M  V30 6708 C 604.785 -1.32054 -3.18835 0
M  V30 6709 C 603.898 -2.56485 -3.4762 0
M  V30 6710 C 603.033 -2.3757 -4.75115 0
M  V30 6711 C 602.072 -3.57477 -4.96867 0
M  V30 6712 N 601.209 -3.37632 -6.15588 0
M  V30 6713 H 606.049 -2.38467 -1.78711 0
M  V30 6714 H 603.586 -1.18415 -0.872715 0
M  V30 6715 H 605.544 -1.23558 -3.98484 0
M  V30 6716 H 604.174 -0.404592 -3.20254 0
M  V30 6717 H 603.226 -2.75432 -2.62376 0
M  V30 6718 H 604.538 -3.45678 -3.59594 0
M  V30 6719 H 603.692 -2.2654 -5.62818 0
M  V30 6720 H 602.431 -1.45834 -4.65386 0
M  V30 6721 H 601.436 -3.68961 -4.07612 0
M  V30 6722 H 602.661 -4.50167 -5.08455 0
M  V30 6723 H 600.607 -2.48596 -6.07072 0
M  V30 6724 H 600.524 -4.20401 -6.2833 0
M  V30 6725 H 601.792 -3.30375 -7.06026 0
M  V30 6726 N 606.021 0.929856 -1.27246 0
M  V30 6727 C 607.269 1.674 -1.13233 0
M  V30 6728 C 607.59 1.92311 0.322744 0
M  V30 6729 O 606.86 1.52784 1.22612 0
M  V30 6730 H 605.44 0.620411 -0.416052 0
M  V30 6731 H 608.102 1.11663 -1.59741 0
M  V30 6732 H 607.198 2.64308 -1.65975 0
M  V30 6733 N 607.499 1.09233 1.13605 0
M  V30 6734 C 608.915 0.82163 1.36826 0
M  V30 6735 C 609.115 -0.565021 1.93416 0
M  V30 6736 O 608.171 -1.32026 2.15234 0
M  V30 6737 C 609.484 1.91124 2.32147 0
M  V30 6738 C 611.032 1.93824 2.45767 0
M  V30 6739 C 611.507 3.01923 3.44393 0
M  V30 6740 N 612.998 3.01149 3.51942 0
M  V30 6741 C 613.733 3.81434 4.2813 0
M  V30 6742 N 613.229 4.71621 5.07489 0
M  V30 6743 N 615.022 3.69702 4.23411 0
M  V30 6744 H 607.173 1.98633 0.752234 0
M  V30 6745 H 609.436 0.862482 0.393482 0
M  V30 6746 H 609.142 2.90862 1.97717 0
M  V30 6747 H 609.016 1.78777 3.32142 0
M  V30 6748 H 611.403 0.94726 2.79483 0
M  V30 6749 H 611.484 2.10248 1.45703 0
M  V30 6750 H 611.128 4.01232 3.11408 0
M  V30 6751 H 611.058 2.82742 4.44257 0
M  V30 6752 H 613.549 2.35789 2.95317 0
M  V30 6753 H 613.862 5.29468 5.62924 0
M  V30 6754 H 612.207 4.75658 5.06729 0
M  V30 6755 H 615.398 2.98606 3.60489 0
M  V30 6756 H 615.571 4.32509 4.82535 0
M  V30 6757 N 608.977 -1.30795 0.87923 0
M  V30 6758 C 609.924 -2.28282 0.339968 0
M  V30 6759 C 610.894 -1.56134 -0.566685 0
M  V30 6760 O 612.079 -1.84231 -0.496338 0
M  V30 6761 C 609.219 -3.42225 -0.444501 0
M  V30 6762 C 608.332 -4.29204 0.490717 0
M  V30 6763 C 607.467 -5.30302 -0.308784 0
M  V30 6764 C 606.506 -6.08929 0.622272 0
M  V30 6765 N 605.643 -7.01957 -0.14155 0
M  V30 6766 H 610.483 -2.73794 1.17647 0
M  V30 6767 H 608.02 -1.34682 0.591527 0
M  V30 6768 H 609.978 -4.07038 -0.915186 0
M  V30 6769 H 608.608 -2.97799 -1.24562 0
M  V30 6770 H 607.66 -3.6475 1.07988 0
M  V30 6771 H 608.972 -4.84045 1.20425 0
M  V30 6772 H 608.126 -6.00835 -0.841575 0
M  V30 6773 H 606.865 -4.7614 -1.05556 0
M  V30 6774 H 605.87 -5.37278 1.16674 0
M  V30 6775 H 607.095 -6.65178 1.36804 0
M  V30 6776 H 605.041 -6.50192 -0.870966 0
M  V30 6777 H 604.958 -7.54261 0.51246 0
M  V30 6778 H 606.226 -7.76741 -0.655271 0
M  V30 6779 N 610.455 -0.639598 -1.44038 0
M  V30 6780 C 611.703 -0.147188 -2.01563 0
M  V30 6781 C 612.024 1.2384 -1.50628 0
M  V30 6782 O 611.294 1.82452 -0.713316 0
M  V30 6783 H 609.874 -0.0514231 -0.745228 0
M  V30 6784 H 612.536 -0.828205 -1.76428 0
M  V30 6785 H 611.632 -0.121358 -3.11864 0
M  V30 6786 N 611.933 1.52934 -0.380664 0
M  V30 6787 C 612.896 2.24809 0.446473 0
M  V30 6788 C 613.896 1.26133 0.997347 0
M  V30 6789 O 615.086 1.50297 0.880714 0
M  V30 6790 C 612.218 2.99649 1.62553 0
M  V30 6791 H 613.411 2.99343 -0.182677 0
M  V30 6792 H 610.964 1.55736 -0.132618 0
M  V30 6793 H 611.699 2.29395 2.29235 0
M  V30 6794 H 611.484 3.72066 1.23732 0
M  V30 6795 H 612.974 3.54246 2.21133 0
M  V30 6796 N 613.412 0.11024 1.57214 0
M  V30 6797 C 614.359 -0.843195 2.14846 0
M  V30 6798 C 615.329 -1.26954 1.07107 0
M  V30 6799 O 616.514 -1.34861 1.34971 0
M  V30 6800 C 613.654 -2.09123 2.74521 0
M  V30 6801 C 612.767 -1.71404 3.96541 0
M  V30 6802 C 611.902 -2.91107 4.44331 0
M  V30 6803 C 610.941 -2.49586 5.58903 0
M  V30 6804 N 610.078 -3.62175 6.01477 0
M  V30 6805 H 614.918 -0.344886 2.95998 0
M  V30 6806 H 612.455 -0.15855 1.46243 0
M  V30 6807 H 614.413 -2.82234 3.07246 0
M  V30 6808 H 613.043 -2.56427 1.96074 0
M  V30 6809 H 612.095 -0.88201 3.70033 0
M  V30 6810 H 613.407 -1.36884 4.7965 0
M  V30 6811 H 612.561 -3.72454 4.78919 0
M  V30 6812 H 611.3 -3.28848 3.60153 0
M  V30 6813 H 610.305 -1.6667 5.23929 0
M  V30 6814 H 611.53 -2.12973 6.4484 0
M  V30 6815 H 609.476 -3.99605 5.20242 0
M  V30 6816 H 609.393 -3.3155 6.79419 0
M  V30 6817 H 610.661 -4.43987 6.407 0
M  V30 6818 N 614.89 -1.56749 -0.16351 0
M  V30 6819 C 615.8 -2.00255 -1.2221 0
M  V30 6820 C 616.816 -0.915194 -1.47987 0
M  V30 6821 O 617.992 -1.22342 -1.59982 0
M  V30 6822 C 615.057 -2.36035 -2.53946 0
M  V30 6823 C 614.118 -3.58637 -2.35962 0
M  V30 6824 C 613.351 -3.92701 -3.61416 0
M  V30 6825 O 613.574 -3.27632 -4.66919 0
M  V30 6826 O 612.508 -4.86019 -3.55062 0
M  V30 6827 H 616.334 -2.90586 -0.882794 0
M  V30 6828 H 613.919 -1.44721 -0.370978 0
M  V30 6829 H 615.801 -2.59982 -3.31643 0
M  V30 6830 H 614.476 -1.48863 -2.8744 0
M  V30 6831 H 613.383 -3.39898 -1.5627 0
M  V30 6832 H 614.716 -4.46374 -2.0739 0
M  V30 6833 N 616.368 0.432326 -1.51554 0
M  V30 6834 C 617.278 1.55023 -1.76082 0
M  V30 6835 C 618.294 1.61593 -0.645265 0
M  V30 6836 O 619.47 1.78742 -0.928086 0
M  V30 6837 C 616.535 2.90964 -1.88523 0
M  V30 6838 C 615.596 2.9447 -3.12388 0
M  V30 6839 C 614.829 4.23926 -3.24225 0
M  V30 6840 O 615.052 5.16576 -2.4188 0
M  V30 6841 O 613.986 4.33818 -4.17235 0
M  V30 6842 H 617.812 1.37238 -2.70923 0
M  V30 6843 H 615.397 0.615845 -1.36117 0
M  V30 6844 H 617.279 3.71633 -1.98662 0
M  V30 6845 H 615.954 3.08865 -0.9687 0
M  V30 6846 H 614.861 2.12737 -3.07723 0
M  V30 6847 H 616.194 2.81514 -4.03746 0
M  V30 6848 N 617.846 1.41785 0.688094 0
M  V30 6849 C 618.796 1.40684 1.79421 0
M  V30 6850 C 619.78 0.280096 1.58443 0
M  V30 6851 O 620.972 0.521332 1.69148 0
M  V30 6852 C 618.101 1.29874 3.17785 0
M  V30 6853 C 617.187 2.47442 3.44432 0
M  V30 6854 N 617.578 3.72895 3.41736 0
M  V30 6855 C 615.876 2.41416 3.75013 0
M  V30 6856 C 616.577 4.50912 3.67496 0
M  V30 6857 N 615.553 3.81131 3.87608 0
M  V30 6858 H 619.355 2.35591 1.7571 0
M  V30 6859 H 616.869 1.35946 0.888393 0
M  V30 6860 H 618.866 1.27168 3.97031 0
M  V30 6861 H 617.526 0.359587 3.22703 0
M  V30 6862 H 618.537 4.05676 3.21943 0
M  V30 6863 H 615.214 1.56011 3.87256 0
M  V30 6864 H 616.604 5.59865 3.71484 0
M  V30 6865 N 619.324 -0.923095 1.27737 0
M  V30 6866 C 620.564 -1.6858 1.15586 0
M  V30 6867 C 620.928 -1.89758 -0.292562 0
M  V30 6868 O 622.129 -2.6339 -0.536583 0
M  V30 6869 C 620.4 -3.01275 1.92271 0
M  V30 6870 S 621.959 -3.924 1.96387 0
M  V30 6871 H 618.777 -0.579069 0.412554 0
M  V30 6872 H 621.379 -1.09866 1.61709 0
M  V30 6873 H 620.083 -2.83556 2.96689 0
M  V30 6874 H 619.614 -3.6504 1.46661 0
M  V30 6875 H 621.629 -4.84667 1.06361 0
M  V30 6876 N 620.802 -1.09834 -1.13024 0
M  V30 6877 C 622.213 -0.855651 -1.65938 0
M  V30 6878 C 622.564 0.615159 -1.86307 0
M  V30 6879 O 621.689 1.47335 -1.58497 0
M  V30 6880 C 622.284 -1.5467 -3.01434 0
M  V30 6881 C 620.843 -1.35088 -3.51323 0
M  V30 6882 C 619.99 -1.6001 -2.26478 0
M  V30 6883 H 622.941 -1.25691 -0.968889 0
M  V30 6884 H 622.962 -0.982179 -3.67605 0
M  V30 6885 H 622.474 -2.61715 -2.86578 0
M  V30 6886 H 620.575 -0.30179 -3.71376 0
M  V30 6887 H 620.688 -2.0886 -4.31178 0
M  V30 6888 H 619.052 -1.02246 -2.33276 0
M  V30 6889 H 619.835 -2.68293 -2.14182 0
M  V30 6890 N 622.28 1.30327 -0.886154 0
M  V30 6891 C 623.21 2.30549 -0.370028 0
M  V30 6892 C 624.191 1.61039 0.547751 0
M  V30 6893 O 625.376 1.8864 0.461353 0
M  V30 6894 C 622.506 3.44808 0.415275 0
M  V30 6895 C 621.46 4.26024 -0.41085 0
M  V30 6896 C 620.786 5.32347 0.501128 0
M  V30 6897 C 622.086 4.95433 -1.65359 0
M  V30 6898 H 623.78 2.73969 -1.20754 0
M  V30 6899 H 621.326 1.3171 -0.582097 0
M  V30 6900 H 623.279 4.13986 0.78699 0
M  V30 6901 H 622.003 3.00197 1.28644 0
M  V30 6902 H 620.662 3.58535 -0.764719 0
M  V30 6903 H 620.31 4.83982 1.37004 0
M  V30 6904 H 620.01 5.87581 -0.0478356 0
M  V30 6905 H 621.534 6.0438 0.869333 0
M  V30 6906 H 622.948 5.5712 -1.35239 0
M  V30 6907 H 621.345 5.60537 -2.14284 0
M  V30 6908 H 622.415 4.21493 -2.39733 0
M  V30 6909 N 623.758 0.647228 1.43697 0
M  V30 6910 C 624.721 -0.0385101 2.29168 0
M  V30 6911 C 625.721 -0.756487 1.41894 0
M  V30 6912 O 626.911 -0.598641 1.63591 0
M  V30 6913 C 624.043 -1.06524 3.23829 0
M  V30 6914 H 625.236 0.713445 2.9129 0
M  V30 6915 H 622.789 0.408153 1.50877 0
M  V30 6916 H 623.524 -1.84664 2.66589 0
M  V30 6917 H 623.309 -0.554147 3.88164 0
M  V30 6918 H 624.799 -1.54432 3.87996 0
M  V30 6919 N 625.236 -1.5273 0.388769 0
M  V30 6920 C 626.482 -2.02545 -0.186351 0
M  V30 6921 C 626.837 -1.27017 -1.44514 0
M  V30 6922 O 626.13 -0.361948 -1.8815 0
M  V30 6923 C 626.324 -3.53765 -0.508445 0
M  V30 6924 C 626.153 -4.43938 0.71758 0
M  V30 6925 C 624.923 -4.89933 1.23668 0
M  V30 6926 C 627.121 -4.89113 1.58974 0
M  V30 6927 N 625.103 -5.64176 2.42031 0
M  V30 6928 C 626.474 -5.61931 2.61979 0
M  V30 6929 C 628.529 -4.71155 1.60989 0
M  V30 6930 C 627.232 -6.18698 3.66886 0
M  V30 6931 C 629.258 -5.28804 2.64803 0
M  V30 6932 C 628.62 -6.01527 3.6653 0
M  V30 6933 H 624.719 -0.781413 -0.0302921 0
M  V30 6934 H 627.303 -1.87104 0.538539 0
M  V30 6935 H 625.474 -3.6932 -1.20239 0
M  V30 6936 H 627.206 -3.9028 -1.07067 0
M  V30 6937 H 623.961 -4.66833 0.797763 0
M  V30 6938 H 624.385 -6.05949 3.01919 0
M  V30 6939 H 629.027 -4.14435 0.836881 0
M  V30 6940 H 626.745 -6.74501 4.45055 0
M  V30 6941 H 630.331 -5.1679 2.67245 0
M  V30 6942 H 629.211 -6.45339 4.45542 0
M  V30 6943 N 626.714 -0.118576 -1.57153 0
M  V30 6944 C 627.962 0.538461 -1.94795 0
M  V30 6945 C 628.283 1.67243 -1.00274 0
M  V30 6946 O 627.553 1.95811 -0.0589692 0
M  V30 6947 H 626.133 0.201904 -0.719197 0
M  V30 6948 H 628.795 -0.187418 -1.93997 0
M  V30 6949 H 627.891 0.933315 -2.97818 0
M  V30 6950 N 628.193 1.56834 0.155195 0
M  V30 6951 C 629.141 1.98584 1.21107 0
M  V30 6952 C 630.135 0.876987 1.44932 0
M  V30 6953 O 631.341 1.06215 1.45322 0
M  V30 6954 H 627.716 0.632039 0.407469 0
M  V30 6955 H 629.687 2.86561 0.832195 0
M  V30 6956 C 628.436 2.37555 2.53895 0
M  V30 6957 H 627.759 3.22428 2.3639 0
M  V30 6958 H 629.199 2.70598 3.26424 0
M  V30 6959 C 627.658 1.22507 3.13837 0
M  V30 6960 O 628.188 0.521388 3.98302 0
M  V30 6961 N 626.394 0.991444 2.73164 0
M  V30 6962 H 625.941 1.56544 2.04577 0
M  V30 6963 H 625.899 0.223546 3.13604 0
M  V30 6964 N 629.671 -0.424282 1.51781 0
M  V30 6965 C 630.92 -1.16961 1.64326 0
M  V30 6966 C 631.233 -1.92035 0.371749 0
M  V30 6967 O 632.439 -2.68873 0.37676 0
M  V30 6968 C 630.895 -2.12782 2.90262 0
M  V30 6969 C 630.503 -1.43295 4.24465 0
M  V30 6970 C 632.247 -2.87667 3.12166 0
M  V30 6971 C 630.154 -2.37676 5.41538 0
M  V30 6972 H 629.084 -0.440293 0.612093 0
M  V30 6973 H 631.735 -0.435431 1.78259 0
M  V30 6974 H 630.117 -2.8969 2.69992 0
M  V30 6975 H 631.291 -0.718564 4.55163 0
M  V30 6976 H 629.606 -0.805118 4.08542 0
M  V30 6977 H 632.203 -3.58395 3.96808 0
M  V30 6978 H 632.546 -3.49758 2.25776 0
M  V30 6979 H 633.079 -2.17863 3.32837 0
M  V30 6980 H 629.818 -1.80255 6.30229 0
M  V30 6981 H 629.338 -3.07132 5.15199 0
M  V30 6982 H 631.017 -2.98529 5.74012 0
M  V30 6983 N 631.149 -1.42148 -0.680565 0
M  V30 6984 C 632.097 -1.45401 -1.81552 0
M  V30 6985 C 633.091 -0.33036 -1.66147 0
M  V30 6986 O 634.297 -0.503103 -1.72826 0
M  V30 6987 H 630.672 -0.455265 -0.59853 0
M  V30 6988 H 632.643 -2.41024 -1.75926 0
M  V30 6989 C 631.392 -1.36769 -3.19671 0
M  V30 6990 H 630.715 -2.22525 -3.32149 0
M  V30 6991 H 632.155 -1.43106 -3.9912 0
M  V30 6992 C 630.614 -0.0817752 -3.36801 0
M  V30 6993 O 631.144 0.867707 -3.92216 0
M  V30 6994 N 629.35 -0.000799811 -2.906 0
M  V30 6995 H 628.897 -0.774231 -2.4569 0
M  V30 6996 H 628.855 0.858961 -3.02439 0
M  V30 6997 N 632.627 0.916307 -1.28225 0
M  V30 6998 C 633.557 2.0352 -1.14464 0
M  V30 6999 C 634.538 1.70045 -0.0430844 0
M  V30 7000 O 635.723 1.92954 -0.219619 0
M  V30 7001 C 632.853 3.37889 -0.803027 0
M  V30 7002 C 631.807 3.85516 -1.85908 0
M  V30 7003 C 631.133 5.1682 -1.37116 0
M  V30 7004 C 632.433 4.07655 -3.26519 0
M  V30 7005 H 634.127 2.1529 -2.08064 0
M  V30 7006 H 631.673 1.03446 -1.00174 0
M  V30 7007 H 633.626 4.15654 -0.693537 0
M  V30 7008 H 632.35 3.26164 0.168674 0
M  V30 7009 H 631.009 3.09953 -1.95767 0
M  V30 7010 H 630.657 5.01497 -0.38859 0
M  V30 7011 H 630.357 5.49657 -2.07728 0
M  V30 7012 H 631.881 5.97143 -1.27484 0
M  V30 7013 H 633.295 4.75953 -3.19596 0
M  V30 7014 H 631.692 4.51818 -3.94943 0
M  V30 7015 H 632.762 3.12553 -3.70727 0
M  V30 7016 N 634.105 1.10431 1.1244 0
M  V30 7017 C 635.352 0.846717 1.83948 0
M  V30 7018 C 635.68 -0.627709 1.84093 0
M  V30 7019 O 634.935 -1.47876 1.28184 0
M  V30 7020 C 635.234 1.34022 3.3132 0
M  V30 7021 C 634.9 2.82606 3.51347 0
M  V30 7022 C 633.562 3.23182 3.56521 0
M  V30 7023 C 635.914 3.78356 3.58464 0
M  V30 7024 C 633.242 4.58258 3.66356 0
M  V30 7025 C 635.594 5.13234 3.69829 0
M  V30 7026 C 634.258 5.53384 3.73259 0
M  V30 7027 H 633.528 0.309836 0.673114 0
M  V30 7028 H 636.175 1.38091 1.32677 0
M  V30 7029 H 634.48 0.726047 3.85014 0
M  V30 7030 H 636.177 1.11739 3.85118 0
M  V30 7031 H 632.767 2.50212 3.47983 0
M  V30 7032 H 636.951 3.48115 3.53737 0
M  V30 7033 H 632.207 4.88787 3.67284 0
M  V30 7034 H 636.381 5.87272 3.74279 0
M  V30 7035 H 634.008 6.58045 3.80633 0
M  V30 7036 N 635.583 -1.29855 0.893053 0
M  V30 7037 C 636.86 -1.90694 0.435336 0
M  V30 7038 C 637.24 -1.8111 -1.08454 0
M  V30 7039 O 636.588 -1.23352 -1.92345 0
M  V30 7040 C 636.798 -3.36033 0.942472 0
M  V30 7041 C 638.146 -4.13083 0.982226 0
M  V30 7042 O 639.17 -3.4491 0.889686 0
M  V30 7043 O 638.029 -5.34896 1.12022 0
M  V30 7044 H 635.123 -0.815978 0.134567 0
M  V30 7045 H 637.669 -1.38367 0.982484 0
M  V30 7046 H 636.441 -3.37132 1.9864 0
M  V30 7047 H 636.064 -3.95828 0.374952 0
M  V30 7048 N 637.061 -0.65484 -1.43351 0
M  V30 7049 C 638.291 -0.176429 -2.05845 0
M  V30 7050 C 638.699 1.16375 -1.49176 0
M  V30 7051 O 638.042 1.72981 -0.618322 0
M  V30 7052 C 638.104 -0.0125844 -3.59498 0
M  V30 7053 C 637.768 -1.27831 -4.38758 0
M  V30 7054 C 638.765 -2.2074 -4.70712 0
M  V30 7055 C 636.45 -1.52035 -4.78739 0
M  V30 7056 C 638.444 -3.36145 -5.41558 0
M  V30 7057 C 636.131 -2.67732 -5.49329 0
M  V30 7058 C 637.129 -3.59612 -5.80662 0
M  V30 7059 O 636.817 -4.73289 -6.4981 0
M  V30 7060 H 636.549 -0.0879682 -0.670252 0
M  V30 7061 H 639.103 -0.896193 -1.84818 0
M  V30 7062 H 637.333 0.762567 -3.79107 0
M  V30 7063 H 639.022 0.423392 -4.03686 0
M  V30 7064 H 639.788 -2.03284 -4.40341 0
M  V30 7065 H 635.667 -0.813987 -4.53757 0
M  V30 7066 H 639.211 -4.07881 -5.65932 0
M  V30 7067 H 635.108 -2.85122 -5.79116 0
M  V30 7068 H 635.876 -4.72575 -6.68293 0
M  V30 7069 N 638.539 1.52521 -0.396863 0
M  V30 7070 C 639.767 2.06091 0.18275 0
M  V30 7071 C 640.182 1.26796 1.39886 0
M  V30 7072 O 639.539 0.316585 1.79733 0
M  V30 7073 C 639.59 3.57362 0.545377 0
M  V30 7074 O 639.311 4.33656 -0.622428 0
M  V30 7075 C 640.812 4.27305 1.18004 0
M  V30 7076 H 638.032 0.670504 0.025789 0
M  V30 7077 H 640.576 1.96561 -0.564276 0
M  V30 7078 H 638.731 3.66941 1.2423 0
M  V30 7079 H 639.145 5.23507 -0.322662 0
M  V30 7080 H 640.619 5.34366 1.38408 0
M  V30 7081 H 641.096 3.83 2.1496 0
M  V30 7082 H 641.702 4.22064 0.523671 0
M  V30 7083 N 640.017 0.126909 1.57088 0
M  V30 7084 C 641.294 -0.573152 1.87014 0
M  V30 7085 C 641.674 -1.84297 1.02945 0
M  V30 7086 O 641.022 -2.28232 0.110573 0
M  V30 7087 C 641.232 -0.857984 3.38289 0
M  V30 7088 C 642.58 -1.20759 4.07066 0
M  V30 7089 O 643.604 -0.947992 3.43353 0
M  V30 7090 O 642.463 -1.69516 5.19545 0
M  V30 7091 H 639.557 -0.290082 0.774456 0
M  V30 7092 H 642.103 0.162008 1.68925 0
M  V30 7093 H 640.875 0.0415286 3.91278 0
M  V30 7094 H 640.498 -1.64803 3.61837 0
M  V30 7095 N 641.495 -1.56914 -0.146875 0
M  V30 7096 C 642.723 -1.87515 -0.874394 0
M  V30 7097 C 643.138 -0.715116 -1.74733 0
M  V30 7098 O 642.495 0.315113 -1.79759 0
M  V30 7099 C 642.546 -3.17362 -1.731 0
M  V30 7100 O 642.267 -4.28897 -0.893245 0
M  V30 7101 C 643.768 -3.61479 -2.56609 0
M  V30 7102 H 640.988 -0.621546 -0.252827 0
M  V30 7103 H 643.532 -2.04023 -0.139627 0
M  V30 7104 H 641.687 -3.02608 -2.41883 0
M  V30 7105 H 642.101 -5.03146 -1.48137 0
M  V30 7106 H 643.575 -4.5517 -3.12289 0
M  V30 7107 H 644.052 -2.86773 -3.32653 0
M  V30 7108 H 644.658 -3.78927 -1.93117 0
M  V30 7109 N 642.974 0.416227 -1.52004 0
M  V30 7110 C 643.904 1.51365 -1.77795 0
M  V30 7111 C 644.885 1.58059 -0.628601 0
M  V30 7112 O 646.07 1.73447 -0.873478 0
M  V30 7113 C 643.2 2.89256 -1.92219 0
M  V30 7114 C 642.154 2.97415 -3.0778 0
M  V30 7115 C 641.48 4.37492 -3.07417 0
M  V30 7116 C 642.78 2.69551 -4.47369 0
M  V30 7117 H 644.474 1.30033 -2.69688 0
M  V30 7118 H 642.02 0.624112 -1.29772 0
M  V30 7119 H 643.973 3.66008 -2.08845 0
M  V30 7120 H 642.697 3.11866 -0.969917 0
M  V30 7121 H 641.356 2.23107 -2.90893 0
M  V30 7122 H 641.004 4.571 -2.09925 0
M  V30 7123 H 640.704 4.43877 -3.85029 0
M  V30 7124 H 642.228 5.16188 -3.26162 0
M  V30 7125 H 643.642 3.36028 -4.64497 0
M  V30 7126 H 642.039 2.87321 -5.26846 0
M  V30 7127 H 643.109 1.65029 -4.55953 0
M  V30 7128 N 644.452 1.42507 0.673017 0
M  V30 7129 C 645.698 1.43284 1.43519 0
M  V30 7130 C 646.031 0.049668 1.94136 0
M  V30 7131 O 645.306 -0.926369 1.71022 0
M  V30 7132 C 645.589 2.45874 2.63093 0
M  V30 7133 C 645.442 3.93388 2.18096 0
M  V30 7134 C 646.761 2.45431 3.6531 0
M  V30 7135 H 643.88 0.521752 0.520522 0
M  V30 7136 H 646.522 1.73932 0.764701 0
M  V30 7137 H 644.672 2.19869 3.20296 0
M  V30 7138 H 646.344 4.30379 1.66046 0
M  V30 7139 H 644.587 4.07169 1.49652 0
M  V30 7140 H 645.258 4.60752 3.03993 0
M  V30 7141 H 647.734 2.68561 3.17827 0
M  V30 7142 H 646.61 3.19189 4.46553 0
M  V30 7143 H 646.871 1.48092 4.16559 0
M  V30 7144 N 645.93 -0.909495 1.28709 0
M  V30 7145 C 647.155 -1.69801 1.1909 0
M  V30 7146 C 647.58 -1.86479 -0.246388 0
M  V30 7147 O 646.938 -1.37802 -1.17815 0
M  V30 7148 C 646.986 -3.06543 1.89904 0
M  V30 7149 O 646.09 -3.94268 1.2094 0
M  V30 7150 H 645.431 -0.519783 0.413185 0
M  V30 7151 H 647.961 -1.13689 1.70106 0
M  V30 7152 H 647.971 -3.56748 1.97977 0
M  V30 7153 H 646.646 -2.93722 2.94449 0
M  V30 7154 H 645.223 -3.52702 1.2106 0
M  V30 7155 N 647.408 -1.11026 -1.11852 0
M  V30 7156 C 648.656 -0.854769 -1.83134 0
M  V30 7157 C 648.977 0.621375 -1.84835 0
M  V30 7158 O 648.247 1.45129 -1.31584 0
M  V30 7159 H 646.827 -0.313229 -0.678157 0
M  V30 7160 H 649.489 -1.40178 -1.35411 0
M  V30 7161 H 648.585 -1.22311 -2.87135 0
M  V30 7162 N 648.886 1.2938 -0.899927 0
M  V30 7163 C 649.833 2.27713 -0.376243 0
M  V30 7164 C 650.803 1.57016 0.541774 0
M  V30 7165 O 651.988 1.84997 0.466966 0
M  V30 7166 C 649.128 3.42889 0.39 0
M  V30 7167 C 648.241 4.28369 -0.558938 0
M  V30 7168 C 647.376 5.30726 0.224379 0
M  V30 7169 C 646.415 6.07862 -0.719068 0
M  V30 7170 N 645.552 7.02094 0.0298569 0
M  V30 7171 H 650.392 2.71888 -1.21988 0
M  V30 7172 H 647.929 1.33724 -0.612879 0
M  V30 7173 H 649.887 4.08443 0.850314 0
M  V30 7174 H 648.517 2.99743 1.19809 0
M  V30 7175 H 647.569 3.62986 -1.13777 0
M  V30 7176 H 648.881 4.82068 -1.2811 0
M  V30 7177 H 648.035 6.02098 0.745881 0
M  V30 7178 H 646.774 4.77759 0.979674 0
M  V30 7179 H 645.779 5.35353 -1.25207 0
M  V30 7180 H 647.004 6.62917 -1.4737 0
M  V30 7181 H 644.95 6.51496 0.767415 0
M  V30 7182 H 644.867 7.5335 -0.632391 0
M  V30 7183 H 646.135 7.77685 0.531615 0
M  V30 7184 N 650.364 0.662433 1.43002 0
M  V30 7185 C 651.297 -0.073459 2.28082 0
M  V30 7186 C 652.275 -0.820869 1.40358 0
M  V30 7187 O 653.459 -0.818545 1.698 0
M  V30 7188 C 650.586 -1.11097 3.19961 0
M  V30 7189 C 649.632 -0.460557 4.24006 0
M  V30 7190 S 650.465 0.772717 5.29896 0
M  V30 7191 C 651.621 -0.264028 6.25343 0
M  V30 7192 H 651.854 0.648227 2.90147 0
M  V30 7193 H 649.387 0.451566 1.47649 0
M  V30 7194 H 651.345 -1.70452 3.73439 0
M  V30 7195 H 650.006 -1.80503 2.57056 0
M  V30 7196 H 649.199 -1.24299 4.88432 0
M  V30 7197 H 648.801 0.0591038 3.73953 0
M  V30 7198 H 651.093 -1.12748 6.68052 0
M  V30 7199 H 652.036 0.345443 7.07257 0
M  V30 7200 H 652.444 -0.603964 5.6126 0
M  V30 7201 N 651.842 -1.52309 0.404946 0
M  V30 7202 C 652.805 -2.25491 -0.410651 0
M  V30 7203 C 653.805 -1.27704 -0.977154 0
M  V30 7204 O 654.995 -1.51679 -0.856691 0
M  V30 7205 C 652.127 -3.02197 -1.57765 0
M  V30 7206 H 653.32 -2.99015 0.230277 0
M  V30 7207 H 650.873 -1.55506 0.157377 0
M  V30 7208 H 651.608 -2.33013 -2.25556 0
M  V30 7209 H 651.393 -3.73987 -1.17797 0
M  V30 7210 H 652.883 -3.57719 -2.15469 0
M  V30 7211 N 653.32 -0.135238 -1.57019 0
M  V30 7212 C 654.25 0.805235 -2.19176 0
M  V30 7213 C 655.231 1.2656 -1.13651 0
M  V30 7214 O 656.416 1.32528 -1.4195 0
M  V30 7215 C 653.546 2.04914 -2.80406 0
M  V30 7216 C 652.5 1.72598 -3.91655 0
M  V30 7217 C 651.826 3.04154 -4.39766 0
M  V30 7218 C 653.126 0.981709 -5.12991 0
M  V30 7219 H 654.82 0.287232 -2.98019 0
M  V30 7220 H 652.366 0.136714 -1.4335 0
M  V30 7221 H 654.319 2.71178 -3.22553 0
M  V30 7222 H 653.043 2.59067 -1.98877 0
M  V30 7223 H 651.702 1.08717 -3.50109 0
M  V30 7224 H 651.35 3.56274 -3.55075 0
M  V30 7225 H 651.05 2.83299 -5.14796 0
M  V30 7226 H 652.574 3.71509 -4.84576 0
M  V30 7227 H 653.988 1.5462 -5.52056 0
M  V30 7228 H 652.385 0.873533 -5.93708 0
M  V30 7229 H 653.455 -0.0286887 -4.84892 0
M  V30 7230 N 654.798 1.5699 0.138552 0
M  V30 7231 C 655.746 1.99858 1.18994 0
M  V30 7232 C 656.74 0.89231 1.43994 0
M  V30 7233 O 657.946 1.0775 1.44187 0
M  V30 7234 H 654.321 0.636325 0.400743 0
M  V30 7235 H 656.292 2.87427 0.801755 0
M  V30 7236 C 655.041 2.40235 2.51361 0
M  V30 7237 H 654.364 3.24917 2.32957 0
M  V30 7238 H 655.804 2.74045 3.23535 0
M  V30 7239 C 654.263 1.25829 3.1252 0
M  V30 7240 O 654.793 0.563604 3.97727 0
M  V30 7241 N 652.999 1.02036 2.72097 0
M  V30 7242 H 652.546 1.58705 2.02905 0
M  V30 7243 H 652.504 0.256796 3.1335 0
M  V30 7244 N 656.276 -0.40816 1.52223 0
M  V30 7245 C 657.206 -1.5042 1.78595 0
M  V30 7246 C 658.187 -1.57723 0.636974 0
M  V30 7247 O 659.372 -1.72982 0.882664 0
M  V30 7248 C 656.502 -2.88232 1.93751 0
M  V30 7249 C 655.456 -2.95779 3.09352 0
M  V30 7250 C 654.782 -4.35855 3.09732 0
M  V30 7251 C 656.082 -2.67175 4.48793 0
M  V30 7252 H 657.776 -1.28601 2.70374 0
M  V30 7253 H 655.322 -0.617221 1.30101 0
M  V30 7254 H 657.275 -3.64895 2.10783 0
M  V30 7255 H 655.999 -3.11347 0.986443 0
M  V30 7256 H 654.658 -2.21561 2.92072 0
M  V30 7257 H 654.306 -4.55981 2.12346 0
M  V30 7258 H 654.006 -4.41829 3.87377 0
M  V30 7259 H 655.53 -5.14451 3.28895 0
M  V30 7260 H 656.944 -3.3356 4.66273 0
M  V30 7261 H 655.341 -2.84523 5.28362 0
M  V30 7262 H 656.411 -1.62609 4.56822 0
M  V30 7263 N 657.755 -1.42862 -0.66545 0
M  V30 7264 C 659.001 -1.4504 -1.426 0
M  V30 7265 C 659.356 -0.0690217 -1.92276 0
M  V30 7266 O 658.649 0.91036 -1.68591 0
M  V30 7267 C 658.843 -2.4175 -2.63233 0
M  V30 7268 C 658.672 -3.89155 -2.25362 0
M  V30 7269 C 657.442 -4.57619 -2.14273 0
M  V30 7270 C 659.64 -4.79326 -1.86417 0
M  V30 7271 N 657.622 -5.90006 -1.69604 0
M  V30 7272 C 658.993 -6.00892 -1.52738 0
M  V30 7273 C 661.048 -4.66696 -1.73492 0
M  V30 7274 C 659.751 -7.11232 -1.0743 0
M  V30 7275 C 661.777 -5.77027 -1.29589 0
M  V30 7276 C 661.139 -6.97712 -0.968393 0
M  V30 7277 H 657.238 -0.585889 -0.517936 0
M  V30 7278 H 659.822 -1.78956 -0.767002 0
M  V30 7279 H 657.993 -2.09881 -3.26809 0
M  V30 7280 H 659.725 -2.34447 -3.29874 0
M  V30 7281 H 656.48 -4.11957 -2.33641 0
M  V30 7282 H 656.904 -6.60249 -1.49666 0
M  V30 7283 H 661.546 -3.7386 -1.97455 0
M  V30 7284 H 659.264 -8.03907 -0.822147 0
M  V30 7285 H 662.85 -5.6927 -1.20095 0
M  V30 7286 H 661.73 -7.81634 -0.63384 0
M  V30 7287 N 659.233 0.902656 -1.29189 0
M  V30 7288 C 660.644 1.46809 -1.15343 0
M  V30 7289 C 660.995 1.94568 0.252517 0
M  V30 7290 O 660.12 1.83454 1.14777 0
M  V30 7291 C 660.715 2.66829 -2.08776 0
M  V30 7292 C 659.274 3.19518 -1.98961 0
M  V30 7293 C 658.421 1.92212 -1.99874 0
M  V30 7294 H 661.372 0.714282 -1.41717 0
M  V30 7295 H 661.393 3.42465 -1.65826 0
M  V30 7296 H 660.905 2.32039 -3.11094 0
M  V30 7297 H 659.006 3.59008 -0.99721 0
M  V30 7298 H 659.119 3.84016 -2.86477 0
M  V30 7299 H 657.483 2.0979 -1.44431 0
M  V30 7300 H 658.266 1.59702 -3.03891 0
M  V30 7301 N 660.711 1.11618 1.11262 0
M  V30 7302 C 661.957 0.867463 1.83311 0
M  V30 7303 C 662.29 -0.605366 1.84524 0
M  V30 7304 O 661.565 -1.44704 1.29965 0
M  V30 7305 C 661.848 1.43207 3.30399 0
M  V30 7306 C 661.701 2.97265 3.3757 0
M  V30 7307 C 663.02 1.08454 4.26528 0
M  V30 7308 H 660.139 0.316578 0.665543 0
M  V30 7309 H 662.781 1.38137 1.30454 0
M  V30 7310 H 660.931 0.994982 3.75543 0
M  V30 7311 H 662.603 3.49591 3.00971 0
M  V30 7312 H 660.846 3.33237 2.77733 0
M  V30 7313 H 661.517 3.31859 4.41105 0
M  V30 7314 H 663.993 1.4619 3.89574 0
M  V30 7315 H 662.869 1.50633 5.27826 0
M  V30 7316 H 663.13 -0.00444568 4.421 0
M  V30 7317 N 662.189 -1.289 0.906776 0
M  V30 7318 C 663.6 -1.77336 0.58384 0
M  V30 7319 C 663.951 -1.74304 -0.900697 0
M  V30 7320 O 663.076 -1.33335 -1.70443 0
M  V30 7321 C 663.671 -3.22019 1.05304 0
M  V30 7322 C 662.23 -3.68205 0.781148 0
M  V30 7323 C 661.377 -2.48837 1.22373 0
M  V30 7324 H 664.328 -1.15462 1.08877 0
M  V30 7325 H 664.349 -3.78481 0.391414 0
M  V30 7326 H 663.861 -3.24194 2.13353 0
M  V30 7327 H 661.962 -3.71497 -0.28643 0
M  V30 7328 H 662.075 -4.58675 1.384 0
M  V30 7329 H 660.439 -2.46461 0.642594 0
M  V30 7330 H 661.222 -2.53736 2.31242 0
M  V30 7331 N 663.667 -0.670007 -1.42649 0
M  V30 7332 C 664.617 0.0339546 -2.27975 0
M  V30 7333 C 665.601 0.778295 -1.40824 0
M  V30 7334 O 666.793 0.657997 -1.64315 0
M  V30 7335 C 663.922 0.987899 -3.28779 0
M  V30 7336 C 663.008 0.241153 -4.23414 0
M  V30 7337 N 663.399 -0.751392 -5.00188 0
M  V30 7338 C 661.697 0.480269 -4.43407 0
M  V30 7339 C 662.398 -1.19615 -5.69269 0
M  V30 7340 N 661.374 -0.527045 -5.41039 0
M  V30 7341 H 665.176 -0.727425 -2.84756 0
M  V30 7342 H 662.69 -0.498673 -1.54554 0
M  V30 7343 H 664.687 1.50716 -3.88703 0
M  V30 7344 H 663.347 1.74916 -2.73559 0
M  V30 7345 H 664.358 -1.13075 -5.05405 0
M  V30 7346 H 661.035 1.2214 -3.99234 0
M  V30 7347 H 662.425 -2.01836 -6.40868 0
M  V30 7348 N 665.145 1.52092 -0.413018 0
M  V30 7349 C 666.393 2.01456 0.161178 0
M  V30 7350 C 666.714 1.30034 1.45314 0
M  V30 7351 O 665.984 0.427435 1.9118 0
M  V30 7352 H 664.564 0.744376 0.0625526 0
M  V30 7353 H 667.226 1.86974 -0.550151 0
M  V30 7354 H 666.322 3.1008 0.354517 0
M  V30 7355 N 666.623 0.143563 1.56945 0
M  V30 7356 C 667.553 -0.7936 2.196 0
M  V30 7357 C 668.534 -1.25955 1.14321 0
M  V30 7358 O 669.719 -1.31773 1.42651 0
M  V30 7359 C 666.849 -2.03424 2.81489 0
M  V30 7360 C 665.803 -1.70519 3.92565 0
M  V30 7361 C 665.129 -3.01817 4.41373 0
M  V30 7362 C 666.429 -0.95449 5.13504 0
M  V30 7363 H 668.123 -0.271423 2.98167 0
M  V30 7364 H 665.669 -0.12911 1.4342 0
M  V30 7365 H 667.622 -2.69463 3.23987 0
M  V30 7366 H 666.346 -2.58008 2.00248 0
M  V30 7367 H 665.005 -1.06859 3.5068 0
M  V30 7368 H 664.653 -3.54386 3.56959 0
M  V30 7369 H 664.353 -2.80565 5.16292 0
M  V30 7370 H 665.877 -3.68934 4.86539 0
M  V30 7371 H 667.291 -1.5169 5.52868 0
M  V30 7372 H 665.688 -0.842035 5.94163 0
M  V30 7373 H 666.758 0.0544033 4.84869 0
M  V30 7374 N 668.101 -1.57061 -0.130224 0
M  V30 7375 C 669.011 -2.02802 -1.17934 0
M  V30 7376 C 670.027 -0.946378 -1.46013 0
M  V30 7377 O 671.203 -1.25708 -1.57351 0
M  V30 7378 C 668.268 -2.41368 -2.48882 0
M  V30 7379 C 667.329 -3.63561 -2.28301 0
M  V30 7380 C 666.562 -4.00279 -3.53005 0
M  V30 7381 O 666.785 -3.37463 -4.59864 0
M  V30 7382 O 665.719 -4.93441 -3.44673 0
M  V30 7383 H 669.545 -2.92394 -0.820958 0
M  V30 7384 H 667.13 -1.45475 -0.340197 0
M  V30 7385 H 669.012 -2.66958 -3.26054 0
M  V30 7386 H 667.687 -1.54926 -2.84217 0
M  V30 7387 H 666.594 -3.43136 -1.49025 0
M  V30 7388 H 667.927 -4.50673 -1.97875 0
M  V30 7389 N 669.579 0.400081 -1.52437 0
M  V30 7390 C 670.856 1.15973 -1.57511 0
M  V30 7391 C 671.236 2.0798 -0.361572 0
M  V30 7392 O 670.584 2.19032 0.650929 0
M  V30 7393 C 670.794 1.92912 -2.90837 0
M  V30 7394 C 672.142 2.48662 -3.44169 0
M  V30 7395 O 673.166 2.03081 -2.92637 0
M  V30 7396 O 672.025 3.31894 -4.34176 0
M  V30 7397 H 669.119 0.530023 -0.634827 0
M  V30 7398 H 671.665 0.40613 -1.64769 0
M  V30 7399 H 670.437 1.25564 -3.70607 0
M  V30 7400 H 670.06 2.75257 -2.86913 0
M  V30 7401 N 671.057 1.43213 0.657864 0
M  V30 7402 C 671.987 1.50815 1.78262 0
M  V30 7403 C 672.968 0.363211 1.66177 0
M  V30 7404 O 674.153 0.579806 1.85343 0
M  V30 7405 C 671.283 1.42625 3.16663 0
M  V30 7406 C 670.237 2.5532 3.43505 0
M  V30 7407 C 669.563 2.32184 4.81658 0
M  V30 7408 C 670.863 3.97583 3.38711 0
M  V30 7409 H 672.557 2.44954 1.72157 0
M  V30 7410 H 670.103 1.17896 0.82683 0
M  V30 7411 H 672.056 1.46548 3.95097 0
M  V30 7412 H 670.78 0.449877 3.23487 0
M  V30 7413 H 669.439 2.50742 2.6744 0
M  V30 7414 H 669.087 1.32801 4.85153 0
M  V30 7415 H 668.787 3.07724 5.00579 0
M  V30 7416 H 670.311 2.37883 5.62356 0
M  V30 7417 H 671.725 4.03673 4.07089 0
M  V30 7418 H 670.122 4.73112 3.69168 0
M  V30 7419 H 671.192 4.23049 2.36976 0
M  V30 7420 N 672.536 -0.895792 1.29666 0
M  V30 7421 C 673.466 -2.01673 1.17688 0
M  V30 7422 C 674.447 -1.69955 0.0701317 0
M  V30 7423 O 675.632 -1.9258 0.250289 0
M  V30 7424 C 672.762 -3.36568 0.856681 0
M  V30 7425 C 671.716 -3.82509 1.92017 0
M  V30 7426 C 671.042 -5.14574 1.4532 0
M  V30 7427 C 672.342 -4.02409 3.32963 0
M  V30 7428 H 674.036 -2.11953 2.11463 0
M  V30 7429 H 671.582 -1.01839 1.01807 0
M  V30 7430 H 673.535 -4.14498 0.759577 0
M  V30 7431 H 672.259 -3.26391 -0.116763 0
M  V30 7432 H 670.918 -3.068 2.00673 0
M  V30 7433 H 670.566 -5.00815 0.468325 0
M  V30 7434 H 670.266 -5.46283 2.16447 0
M  V30 7435 H 671.79 -5.9504 1.36968 0
M  V30 7436 H 673.204 -4.70808 3.27127 0
M  V30 7437 H 671.601 -4.45478 4.02082 0
M  V30 7438 H 672.671 -3.06616 3.75652 0
M  V30 7439 N 674.014 -1.12206 -1.10668 0
M  V30 7440 C 674.962 -0.782918 -2.19028 0
M  V30 7441 C 675.956 0.229175 -1.67843 0
M  V30 7442 O 677.162 0.0876295 -1.79787 0
M  V30 7443 H 673.537 -0.235339 -0.714227 0
M  V30 7444 H 675.508 -1.70527 -2.44874 0
M  V30 7445 C 674.257 -0.25116 -3.46792 0
M  V30 7446 H 673.58 -1.02123 -3.86537 0
M  V30 7447 H 675.02 -0.0521409 -4.23968 0
M  V30 7448 C 673.479 1.02037 -3.21076 0
M  V30 7449 O 674.009 2.09862 -3.42522 0
M  V30 7450 N 672.215 0.946348 -2.74759 0
M  V30 7451 H 671.762 0.068777 -2.57508 0
M  V30 7452 H 671.72 1.79775 -2.57931 0
M  V30 7453 N 675.492 1.28418 -0.913599 0
M  V30 7454 C 676.903 1.77024 -0.593237 0
M  V30 7455 C 677.254 1.74779 0.891441 0
M  V30 7456 O 676.379 1.34237 1.69733 0
M  V30 7457 C 676.974 3.21456 -1.07011 0
M  V30 7458 C 675.533 3.67786 -0.800664 0
M  V30 7459 C 674.68 2.48185 -1.23691 0
M  V30 7460 H 677.631 1.14883 -1.09487 0
M  V30 7461 H 677.652 3.78269 -0.411481 0
M  V30 7462 H 677.164 3.23058 -2.1507 0
M  V30 7463 H 675.265 3.71644 0.266725 0
M  V30 7464 H 675.378 4.57934 -1.4083 0
M  V30 7465 H 673.742 2.46116 -0.655655 0
M  V30 7466 H 674.525 2.52506 -2.32585 0
M  V30 7467 N 676.97 0.677563 1.42291 0
M  V30 7468 C 678.219 0.198173 2.00724 0
M  V30 7469 C 678.532 -1.20325 1.54211 0
M  V30 7470 O 679.738 -1.77916 2.05081 0
M  V30 7471 C 678.194 0.303432 3.58619 0
M  V30 7472 C 677.802 1.70909 4.14119 0
M  V30 7473 C 679.546 -0.117103 4.24338 0
M  V30 7474 C 677.453 1.76696 5.64387 0
M  V30 7475 H 676.383 0.070329 0.750713 0
M  V30 7476 H 679.034 0.843147 1.62982 0
M  V30 7477 H 677.416 -0.409482 3.93877 0
M  V30 7478 H 678.59 2.44931 3.90315 0
M  V30 7479 H 676.905 2.07771 3.6086 0
M  V30 7480 H 679.502 -0.0940471 5.34617 0
M  V30 7481 H 679.845 -1.15283 4.00019 0
M  V30 7482 H 680.378 0.5449 3.9405 0
M  V30 7483 H 677.117 2.7826 5.93508 0
M  V30 7484 H 676.637 1.07034 5.90173 0
M  V30 7485 H 678.316 1.52166 6.28852 0
M  V30 7486 N 678.448 -1.51871 0.421078 0
M  V30 7487 C 679.696 -2.01539 -0.150492 0
M  V30 7488 C 680.017 -1.30803 -1.44623 0
M  V30 7489 O 679.287 -0.437568 -1.90951 0
M  V30 7490 H 677.867 -0.744698 -0.0586041 0
M  V30 7491 H 680.529 -1.8668 0.560059 0
M  V30 7492 H 679.625 -3.10264 -0.338068 0
M  V30 7493 N 679.926 -0.151884 -1.56866 0
M  V30 7494 C 681.172 0.498742 -1.96572 0
M  V30 7495 C 681.505 1.64194 -1.03702 0
M  V30 7496 O 680.78 1.94334 -0.0803432 0
M  V30 7497 C 681.063 1.00027 -3.45929 0
M  V30 7498 C 680.916 -0.141767 -4.49577 0
M  V30 7499 C 682.235 1.88044 -3.97904 0
M  V30 7500 H 679.354 0.17982 -0.714726 0
M  V30 7501 H 681.996 -0.234097 -1.88552 0
M  V30 7502 H 680.146 1.62476 -3.52894 0
M  V30 7503 H 681.818 -0.778269 -4.54687 0
M  V30 7504 H 680.061 -0.80019 -4.26356 0
M  V30 7505 H 680.732 0.250947 -5.51429 0
M  V30 7506 H 683.208 1.35416 -3.93449 0
M  V30 7507 H 682.084 2.20043 -5.02864 0
M  V30 7508 H 682.345 2.81916 -3.40552 0
M  V30 7509 N 681.404 1.57128 0.121893 0
M  V30 7510 C 682.632 1.88883 0.844451 0
M  V30 7511 C 683.047 0.742824 1.73573 0
M  V30 7512 O 682.404 -0.286475 1.80238 0
M  V30 7513 C 682.455 3.20076 1.68029 0
M  V30 7514 O 682.176 4.30264 0.824898 0
M  V30 7515 C 683.677 3.65515 2.50826 0
M  V30 7516 H 680.897 0.62549 0.242907 0
M  V30 7517 H 683.441 2.04219 0.107151 0
M  V30 7518 H 681.596 3.06418 2.37038 0
M  V30 7519 H 682.01 5.05439 1.40113 0
M  V30 7520 H 683.484 4.60081 3.05008 0
M  V30 7521 H 683.961 2.92029 3.28048 0
M  V30 7522 H 684.567 3.81952 1.87064 0
M  V30 7523 N 682.882 -0.391992 1.52647 0
M  V30 7524 C 684.13 -1.13507 1.67214 0
M  V30 7525 C 684.451 -1.90575 0.41304 0
M  V30 7526 O 683.721 -1.87348 -0.572498 0
M  V30 7527 H 682.301 -0.422013 0.616372 0
M  V30 7528 H 684.963 -0.44502 1.89751 0
M  V30 7529 H 684.059 -1.83964 2.52118 0
M  V30 7530 N 684.36 -1.4356 -0.65026 0
M  V30 7531 C 685.585 -1.48995 -1.44275 0
M  V30 7532 C 686.01 -0.109954 -1.87778 0
M  V30 7533 O 685.368 0.896926 -1.57559 0
M  V30 7534 C 685.416 -2.44341 -2.65198 0
M  V30 7535 O 684.52 -1.93172 -3.6436 0
M  V30 7536 H 683.861 -0.503852 -0.432469 0
M  V30 7537 H 686.391 -1.88504 -0.795446 0
M  V30 7538 H 686.401 -2.61743 -3.12977 0
M  V30 7539 H 685.076 -3.44588 -2.32877 0
M  V30 7540 H 683.653 -1.85445 -3.23519 0
M  V30 7541 N 685.838 0.888903 -1.30139 0
M  V30 7542 C 686.786 2.0156 -1.16088 0
M  V30 7543 C 687.78 1.69239 -0.0737413 0
M  V30 7544 O 688.986 1.78468 -0.234313 0
M  V30 7545 H 685.361 0.660825 -0.358907 0
M  V30 7546 H 687.332 2.10547 -2.11453 0
M  V30 7547 C 686.081 3.36758 -0.865426 0
M  V30 7548 H 685.404 3.62137 -1.69402 0
M  V30 7549 H 686.844 4.16246 -0.807192 0
M  V30 7550 C 685.303 3.34124 0.431577 0
M  V30 7551 O 685.833 3.7445 1.45431 0
M  V30 7552 N 684.039 2.87229 0.441321 0
M  V30 7553 H 683.586 2.54609 -0.391433 0
M  V30 7554 H 683.544 2.8585 1.30909 0
M  V30 7555 N 687.317 1.12792 1.10072 0
M  V30 7556 C 688.728 0.899346 1.63611 0
M  V30 7557 C 689.079 -0.565547 1.87872 0
M  V30 7558 O 688.204 -1.43081 1.62348 0
M  V30 7559 C 688.799 1.62608 2.97227 0
M  V30 7560 C 687.358 1.44356 3.47618 0
M  V30 7561 C 686.505 1.65958 2.22156 0
M  V30 7562 H 689.456 1.28216 0.935223 0
M  V30 7563 H 689.477 1.0793 3.64872 0
M  V30 7564 H 688.989 2.69221 2.79538 0
M  V30 7565 H 687.09 0.400148 3.70445 0
M  V30 7566 H 687.203 2.20218 4.25489 0
M  V30 7567 H 685.567 1.08395 2.30484 0
M  V30 7568 H 686.35 2.73877 2.06993 0
M  V30 7569 N 688.795 -1.27931 0.920396 0
M  V30 7570 C 689.743 -2.29061 0.404191 0
M  V30 7571 C 690.737 -1.61615 -0.507634 0
M  V30 7572 O 691.943 -1.75765 -0.388144 0
M  V30 7573 H 688.318 -0.743594 0.112123 0
M  V30 7574 H 690.289 -2.70021 1.27008 0
M  V30 7575 C 689.038 -3.46088 -0.334466 0
M  V30 7576 H 688.361 -3.98194 0.35797 0
M  V30 7577 H 689.801 -4.18829 -0.660196 0
M  V30 7578 C 688.26 -2.99396 -1.54479 0
M  V30 7579 O 688.79 -3.02439 -2.64374 0
M  V30 7580 N 686.996 -2.54978 -1.39408 0
M  V30 7581 H 686.543 -2.52701 -0.500009 0
M  V30 7582 H 686.501 -2.24098 -2.20516 0
M  V30 7583 N 690.273 -0.685099 -1.4193 0
M  V30 7584 C 691.22 -0.0131869 -2.30796 0
M  V30 7585 C 692.19 0.782129 -1.46533 0
M  V30 7586 O 693.375 0.75229 -1.75343 0
M  V30 7587 C 690.515 0.924768 -3.32479 0
M  V30 7588 C 689.628 0.122181 -4.31827 0
M  V30 7589 C 688.763 1.05682 -5.20581 0
M  V30 7590 C 687.802 0.246526 -6.11603 0
M  V30 7591 N 686.939 1.13442 -6.92875 0
M  V30 7592 H 691.779 -0.776789 -2.87698 0
M  V30 7593 H 689.316 -0.394791 -1.41703 0
M  V30 7594 H 691.274 1.48251 -3.89971 0
M  V30 7595 H 689.904 1.65488 -2.77152 0
M  V30 7596 H 688.956 -0.552335 -3.76369 0
M  V30 7597 H 690.268 -0.506473 -4.96222 0
M  V30 7598 H 689.422 1.68415 -5.82856 0
M  V30 7599 H 688.161 1.71935 -4.56388 0
M  V30 7600 H 687.166 -0.393944 -5.48387 0
M  V30 7601 H 688.391 -0.412053 -6.77849 0
M  V30 7602 H 686.337 1.78316 -6.313 0
M  V30 7603 H 686.254 0.561089 -7.53915 0
M  V30 7604 H 687.522 1.74889 -7.59628 0
M  V30 7605 N 691.751 1.51645 -0.429126 0
M  V30 7606 C 692.661 2.31288 0.392809 0
M  V30 7607 C 693.677 1.39852 1.03525 0
M  V30 7608 O 694.853 1.72926 1.03241 0
M  V30 7609 C 691.918 3.13347 1.48372 0
M  V30 7610 C 690.979 4.20551 0.862268 0
M  V30 7611 C 690.212 4.98688 1.9012 0
M  V30 7612 O 690.435 4.77359 3.12225 0
M  V30 7613 O 689.369 5.83005 1.4963 0
M  V30 7614 H 693.195 3.02609 -0.257138 0
M  V30 7615 H 690.78 1.48163 -0.191851 0
M  V30 7616 H 692.662 3.64387 2.1166 0
M  V30 7617 H 691.337 2.44799 2.1179 0
M  V30 7618 H 690.244 3.73609 0.191568 0
M  V30 7619 H 691.577 4.91449 0.271704 0
M  V30 7620 N 693.229 0.160201 1.56784 0
M  V30 7621 C 694.457 -0.494165 2.00912 0
M  V30 7622 C 694.872 -1.57548 1.04038 0
M  V30 7623 O 694.229 -1.82457 0.0394581 0
M  V30 7624 C 694.28 -1.08271 3.44905 0
M  V30 7625 O 694.001 -0.0445704 4.38077 0
M  V30 7626 C 695.502 -1.8164 4.04378 0
M  V30 7627 H 692.722 -0.127498 0.658776 0
M  V30 7628 H 695.266 0.258665 2.02858 0
M  V30 7629 H 693.421 -1.78609 3.4377 0
M  V30 7630 H 693.835 -0.477544 5.22322 0
M  V30 7631 H 695.309 -2.18094 5.07089 0
M  V30 7632 H 695.786 -2.70727 3.45838 0
M  V30 7633 H 696.392 -1.15969 4.09184 0
M  V30 7634 N 694.707 -1.5719 -0.113559 0
M  V30 7635 C 696.118 -1.74259 -0.670116 0
M  V30 7636 C 696.469 -0.779694 -1.80042 0
M  V30 7637 O 695.594 0.0461353 -2.16351 0
M  V30 7638 C 696.189 -3.15981 -1.22236 0
M  V30 7639 C 694.748 -3.34537 -1.72516 0
M  V30 7640 C 693.895 -2.70116 -0.627098 0
M  V30 7641 H 696.846 -1.58301 0.112396 0
M  V30 7642 H 696.867 -3.17832 -2.09197 0
M  V30 7643 H 696.379 -3.86038 -0.39949 0
M  V30 7644 H 694.48 -2.6953 -2.57263 0
M  V30 7645 H 694.593 -4.42737 -1.83086 0
M  V30 7646 H 692.957 -2.31501 -1.06204 0
M  V30 7647 H 693.74 -3.42802 0.184889 0
M  V30 7648 N 696.185 0.383891 -1.52853 0
M  V30 7649 C 697.425 1.13731 -1.69837 0
M  V30 7650 C 697.789 1.87086 -0.431611 0
M  V30 7651 O 698.99 2.64518 -0.477886 0
M  V30 7652 C 697.261 2.08551 -2.90243 0
M  V30 7653 S 698.82 2.9166 -3.27841 0
M  V30 7654 H 695.638 0.384911 -0.5978 0
M  V30 7655 H 698.24 0.42103 -1.90913 0
M  V30 7656 H 696.944 1.53392 -3.80656 0
M  V30 7657 H 696.475 2.8468 -2.71516 0
M  V30 7658 H 698.49 4.10723 -2.78426 0
M  V30 7659 N 697.663 1.43903 0.642637 0
M  V30 7660 C 698.593 1.52697 1.76652 0
M  V30 7661 C 699.574 0.380816 1.65782 0
M  V30 7662 O 700.759 0.599432 1.84717 0
M  V30 7663 C 697.889 1.45975 3.15133 0
M  V30 7664 C 696.843 2.58949 3.40778 0
M  V30 7665 C 696.169 2.37279 4.79169 0
M  V30 7666 C 697.469 4.01153 3.34475 0
M  V30 7667 H 699.163 2.46766 1.69549 0
M  V30 7668 H 696.709 1.18767 0.814279 0
M  V30 7669 H 698.662 1.5073 3.93521 0
M  V30 7670 H 697.386 0.484162 3.22991 0
M  V30 7671 H 696.045 2.53564 2.64765 0
M  V30 7672 H 695.693 1.37939 4.83717 0
M  V30 7673 H 695.393 3.13016 4.97287 0
M  V30 7674 H 696.917 2.43834 5.59801 0
M  V30 7675 H 698.331 4.07968 4.02784 0
M  V30 7676 H 696.728 4.77001 3.64129 0
M  V30 7677 H 697.798 4.25539 2.32475 0
M  V30 7678 N 699.141 -0.881989 1.30609 0
M  V30 7679 C 700.051 -2.02076 1.19174 0
M  V30 7680 C 701.067 -1.73645 0.11102 0
M  V30 7681 O 702.243 -1.98735 0.326528 0
M  V30 7682 C 699.308 -3.3515 0.887438 0
M  V30 7683 C 698.369 -3.76983 2.05383 0
M  V30 7684 C 697.602 -5.03707 1.76395 0
M  V30 7685 O 697.825 -5.66171 0.693302 0
M  V30 7686 O 696.759 -5.42019 2.61723 0
M  V30 7687 H 700.585 -2.14652 2.14845 0
M  V30 7688 H 698.17 -1.00843 1.10232 0
M  V30 7689 H 700.052 -4.14975 0.73306 0
M  V30 7690 H 698.727 -3.23676 -0.0393354 0
M  V30 7691 H 697.634 -2.97849 2.26355 0
M  V30 7692 H 698.967 -3.93066 2.96243 0
M  V30 7693 N 700.619 -1.13374 -1.09472 0
M  V30 7694 C 701.549 -0.833268 -2.18126 0
M  V30 7695 C 702.53 0.207169 -1.68834 0
M  V30 7696 O 703.715 0.0662012 -1.94087 0
M  V30 7697 C 700.845 -0.297979 -3.46019 0
M  V30 7698 C 699.799 -1.27261 -4.08642 0
M  V30 7699 C 699.125 -0.597104 -5.31356 0
M  V30 7700 C 700.425 -2.63095 -4.51197 0
M  V30 7701 H 702.119 -1.74182 -2.43518 0
M  V30 7702 H 699.665 -0.838921 -1.17039 0
M  V30 7703 H 701.618 -0.0754444 -4.21332 0
M  V30 7704 H 700.342 0.645959 -3.20148 0
M  V30 7705 H 699.001 -1.48113 -3.35348 0
M  V30 7706 H 698.649 0.352293 -5.01765 0
M  V30 7707 H 698.349 -1.24734 -5.74208 0
M  V30 7708 H 699.873 -0.38384 -6.09392 0
M  V30 7709 H 701.287 -2.46214 -5.17737 0
M  V30 7710 H 699.684 -3.2429 -5.04932 0
M  V30 7711 H 700.754 -3.20793 -3.6362 0
M  V30 7712 N 702.098 1.27442 -0.927168 0
M  V30 7713 C 703.008 2.30599 -0.431448 0
M  V30 7714 C 704.024 1.67028 0.48761 0
M  V30 7715 O 705.2 1.97962 0.370546 0
M  V30 7716 C 702.265 3.45327 0.308292 0
M  V30 7717 C 701.326 4.24418 -0.645615 0
M  V30 7718 C 700.559 5.33667 0.0589164 0
M  V30 7719 O 700.782 5.5589 1.27838 0
M  V30 7720 O 699.716 5.98774 -0.612638 0
M  V30 7721 H 703.542 2.75036 -1.28797 0
M  V30 7722 H 701.127 1.32382 -0.692495 0
M  V30 7723 H 703.009 4.15107 0.725555 0
M  V30 7724 H 701.684 3.02945 1.14043 0
M  V30 7725 H 700.591 3.57174 -1.11255 0
M  V30 7726 H 701.924 4.70512 -1.44496 0
M  V30 7727 N 703.576 0.692616 1.41565 0
M  V30 7728 C 704.823 0.222335 2.01276 0
M  V30 7729 C 705.151 -1.17706 1.5484 0
M  V30 7730 O 704.406 -1.80795 0.749118 0
M  V30 7731 C 704.705 0.225073 3.56691 0
M  V30 7732 C 704.371 1.57158 4.22625 0
M  V30 7733 C 703.033 1.94022 4.40351 0
M  V30 7734 C 705.385 2.45758 4.59622 0
M  V30 7735 C 702.713 3.19076 4.92349 0
M  V30 7736 C 705.065 3.70141 5.13009 0
M  V30 7737 C 703.729 4.07152 5.28946 0
M  V30 7738 H 702.999 0.0813581 0.73652 0
M  V30 7739 H 705.646 0.891123 1.69503 0
M  V30 7740 H 703.951 -0.527259 3.88236 0
M  V30 7741 H 705.648 -0.156283 4.00695 0
M  V30 7742 H 702.238 1.27486 4.09201 0
M  V30 7743 H 706.422 2.18558 4.45585 0
M  V30 7744 H 701.678 3.4775 5.02872 0
M  V30 7745 H 705.852 4.38983 5.40617 0
M  V30 7746 H 703.479 5.04125 5.69001 0
M  V30 7747 N 705.054 -1.51416 0.437162 0
M  V30 7748 C 706.331 -1.94682 -0.189292 0
M  V30 7749 C 706.711 -1.37581 -1.60108 0
M  V30 7750 O 706.059 -0.562815 -2.2146 0
M  V30 7751 C 706.269 -3.48599 -0.167201 0
M  V30 7752 C 707.617 -4.2296 -0.372856 0
M  V30 7753 O 708.641 -3.55354 -0.245323 0
M  V30 7754 O 707.5 -5.42895 -0.626693 0
M  V30 7755 H 704.594 -0.816708 -0.130063 0
M  V30 7756 H 707.14 -1.62316 0.495128 0
M  V30 7757 H 705.912 -3.82616 0.81981 0
M  V30 7758 H 705.535 -3.87406 -0.894537 0
M  V30 7759 N 706.532 -0.168513 -1.56696 0
M  V30 7760 C 707.778 0.471368 -1.97863 0
M  V30 7761 C 708.133 1.61049 -1.05267 0
M  V30 7762 O 707.426 1.9138 -0.0917908 0
M  V30 7763 C 707.62 1.00441 -3.42996 0
M  V30 7764 C 707.449 -0.081524 -4.49626 0
M  V30 7765 C 706.219 -0.530242 -5.0251 0
M  V30 7766 C 708.417 -0.880897 -5.067 0
M  V30 7767 N 706.399 -1.59678 -5.9277 0
M  V30 7768 C 707.77 -1.79742 -5.93374 0
M  V30 7769 C 709.825 -0.92629 -4.89208 0
M  V30 7770 C 708.528 -2.7555 -6.64428 0
M  V30 7771 C 710.554 -1.8723 -5.6098 0
M  V30 7772 C 709.916 -2.77631 -6.4738 0
M  V30 7773 H 706.015 0.140671 -0.769244 0
M  V30 7774 H 708.599 -0.268084 -1.92846 0
M  V30 7775 H 706.77 1.71339 -3.48565 0
M  V30 7776 H 708.502 1.61269 -3.7118 0
M  V30 7777 H 705.257 -0.12847 -4.73426 0
M  V30 7778 H 705.681 -2.13045 -6.42605 0
M  V30 7779 H 710.323 -0.241412 -4.2211 0
M  V30 7780 H 708.041 -3.45027 -7.30741 0
M  V30 7781 H 711.627 -1.91349 -5.49433 0
M  V30 7782 H 710.507 -3.4964 -7.01941 0
M  V30 7783 N 708.01 1.57248 0.105221 0
M  V30 7784 C 709.257 1.8557 0.810552 0
M  V30 7785 C 709.585 0.755595 1.79223 0
M  V30 7786 O 708.84 -0.251788 1.94073 0
M  V30 7787 C 709.139 3.20437 1.58287 0
M  V30 7788 C 708.805 4.44716 0.744235 0
M  V30 7789 C 707.467 4.78458 0.513013 0
M  V30 7790 C 709.819 5.20953 0.160578 0
M  V30 7791 C 707.147 5.8587 -0.311894 0
M  V30 7792 C 709.499 6.29235 -0.651596 0
M  V30 7793 C 708.163 6.615 -0.893005 0
M  V30 7794 H 707.433 0.67905 0.296602 0
M  V30 7795 H 710.08 1.91363 0.0723968 0
M  V30 7796 H 708.385 3.10283 2.39232 0
M  V30 7797 H 710.082 3.39576 2.13282 0
M  V30 7798 H 706.672 4.18287 0.934555 0
M  V30 7799 H 710.856 4.95226 0.3264 0
M  V30 7800 H 706.112 6.09286 -0.508012 0
M  V30 7801 H 710.286 6.87484 -1.11077 0
M  V30 7802 H 707.913 7.44562 -1.53401 0
M  V30 7803 N 709.488 -0.375779 1.53054 0
M  V30 7804 C 710.713 -1.14484 1.7294 0
M  V30 7805 C 711.138 -1.82572 0.452668 0
M  V30 7806 O 710.496 -1.71343 -0.592567 0
M  V30 7807 C 710.544 -2.15857 2.88857 0
M  V30 7808 O 709.648 -3.22725 2.56753 0
M  V30 7809 H 708.989 -0.332666 0.574656 0
M  V30 7810 H 711.519 -0.436025 1.999 0
M  V30 7811 H 711.529 -2.59631 3.14731 0
M  V30 7812 H 710.204 -1.65689 3.81471 0
M  V30 7813 H 708.781 -2.83996 2.41663 0
M  V30 7814 N 710.966 -1.44241 -0.634997 0
M  V30 7815 C 712.191 -1.50516 -1.42687 0
M  V30 7816 C 712.616 -0.129864 -1.87651 0
M  V30 7817 O 711.974 0.880164 -1.58502 0
M  V30 7818 C 712.022 -2.4714 -2.62591 0
M  V30 7819 O 711.126 -1.97025 -3.62291 0
M  V30 7820 H 710.467 -0.50841 -0.427101 0
M  V30 7821 H 712.997 -1.89337 -0.775408 0
M  V30 7822 H 713.007 -2.65048 -3.10183 0
M  V30 7823 H 711.682 -3.47039 -2.29209 0
M  V30 7824 H 710.259 -1.88866 -3.21534 0
M  V30 7825 N 712.444 0.87505 -1.31075 0
M  V30 7826 C 713.69 1.63009 -1.20647 0
M  V30 7827 C 714.023 1.9276 0.236045 0
M  V30 7828 O 713.298 1.55559 1.16754 0
M  V30 7829 C 713.581 2.96357 -2.0456 0
M  V30 7830 C 713.434 2.73516 -3.57084 0
M  V30 7831 C 714.753 3.974 -1.89107 0
M  V30 7832 H 711.872 0.591518 -0.439631 0
M  V30 7833 H 714.514 1.0119 -1.60812 0
M  V30 7834 H 712.664 3.49119 -1.70435 0
M  V30 7835 H 714.336 2.27465 -4.01319 0
M  V30 7836 H 712.579 2.0784 -3.80769 0
M  V30 7837 H 713.25 3.68377 -4.11099 0
M  V30 7838 H 715.726 3.5383 -2.18961 0
M  V30 7839 H 714.602 4.88596 -2.5013 0
M  V30 7840 H 714.863 4.33794 -0.85296 0
M  V30 7841 N 713.922 1.13953 1.08869 0
M  V30 7842 C 715.168 0.906151 1.8143 0
M  V30 7843 C 715.501 -0.566089 1.85766 0
M  V30 7844 O 714.776 -1.41915 1.33006 0
M  V30 7845 C 715.059 1.50183 3.27287 0
M  V30 7846 C 714.912 3.04359 3.31189 0
M  V30 7847 C 716.231 1.17477 4.24131 0
M  V30 7848 H 713.35 0.330624 0.658678 0
M  V30 7849 H 715.992 1.40873 1.27495 0
M  V30 7850 H 714.142 1.07442 3.73348 0
M  V30 7851 H 715.814 3.55896 2.93488 0
M  V30 7852 H 714.057 3.39053 2.70602 0
M  V30 7853 H 714.728 3.41141 4.33966 0
M  V30 7854 H 717.204 1.5442 3.86385 0
M  V30 7855 H 716.08 1.61795 5.24513 0
M  V30 7856 H 716.341 0.0893312 4.4201 0
M  V30 7857 N 715.4 -1.26948 0.933913 0
M  V30 7858 C 716.347 -2.26635 0.436484 0
M  V30 7859 C 717.317 -1.58397 -0.499953 0
M  V30 7860 O 718.502 -1.86171 -0.417753 0
M  V30 7861 C 715.642 -3.43803 -0.298951 0
M  V30 7862 C 714.755 -4.26736 0.672316 0
M  V30 7863 C 713.89 -5.31134 -0.0835872 0
M  V30 7864 C 712.929 -6.05742 0.879979 0
M  V30 7865 N 712.066 -7.01926 0.156301 0
M  V30 7866 H 716.906 -2.68558 1.29154 0
M  V30 7867 H 714.443 -1.32052 0.648118 0
M  V30 7868 H 716.401 -4.10554 -0.741723 0
M  V30 7869 H 715.031 -3.02814 -1.1182 0
M  V30 7870 H 714.083 -3.59842 1.23361 0
M  V30 7871 H 715.395 -4.78502 1.40846 0
M  V30 7872 H 714.549 -6.03863 -0.585984 0
M  V30 7873 H 713.288 -4.80188 -0.852661 0
M  V30 7874 H 712.293 -5.31846 1.39357 0
M  V30 7875 H 713.518 -6.58777 1.64894 0
M  V30 7876 H 711.464 -6.53301 -0.594413 0
M  V30 7877 H 711.381 -7.51409 0.831906 0
M  V30 7878 H 712.649 -7.78821 -0.325239 0
M  V30 7879 N 716.879 -0.700114 -1.41195 0
M  V30 7880 C 718.126 -0.233006 -2.01155 0
M  V30 7881 C 718.454 1.16883 -1.55462 0
M  V30 7882 O 717.709 1.80395 -0.758695 0
M  V30 7883 C 718.008 -0.243986 -3.56566 0
M  V30 7884 C 717.674 -1.59397 -4.21786 0
M  V30 7885 C 716.336 -1.96355 -4.39316 0
M  V30 7886 C 718.688 -2.48192 -4.58312 0
M  V30 7887 C 716.016 -3.21683 -4.9065 0
M  V30 7888 C 718.368 -3.72857 -5.11039 0
M  V30 7889 C 717.032 -4.09951 -5.26779 0
M  V30 7890 H 716.302 -0.085263 -0.736078 0
M  V30 7891 H 718.949 -0.9001 -1.69028 0
M  V30 7892 H 717.254 0.506663 -3.8851 0
M  V30 7893 H 718.951 0.135031 -4.00773 0
M  V30 7894 H 715.541 -1.29654 -4.08519 0
M  V30 7895 H 719.725 -2.20918 -4.4442 0
M  V30 7896 H 714.981 -3.50412 -5.01021 0
M  V30 7897 H 719.155 -4.41844 -5.38282 0
M  V30 7898 H 716.782 -5.07136 -5.66319 0
M  V30 7899 N 718.357 1.51182 -0.445186 0
M  V30 7900 C 719.768 1.86693 0.0160999 0
M  V30 7901 C 720.119 1.36183 1.4124 0
M  V30 7902 O 719.244 0.715895 2.04215 0
M  V30 7903 C 719.839 3.38781 0.0359918 0
M  V30 7904 C 718.398 3.73799 0.441715 0
M  V30 7905 C 717.545 2.74947 -0.360511 0
M  V30 7906 H 720.496 1.44294 -0.660674 0
M  V30 7907 H 720.517 3.71026 0.843813 0
M  V30 7908 H 720.029 3.75513 -0.980378 0
M  V30 7909 H 718.13 3.42659 1.4634 0
M  V30 7910 H 718.243 4.78829 0.16106 0
M  V30 7911 H 716.607 2.54047 0.182269 0
M  V30 7912 H 717.39 3.14521 -1.3759 0
M  V30 7913 N 719.835 0.176821 1.56605 0
M  V30 7914 C 721.112 -0.513365 1.88743 0
M  V30 7915 C 721.492 -1.80929 1.08757 0
M  V30 7916 O 720.84 -2.27765 0.183127 0
M  V30 7917 C 721.05 -0.749925 3.40848 0
M  V30 7918 C 722.398 -1.07747 4.10701 0
M  V30 7919 O 723.422 -0.838277 3.46196 0
M  V30 7920 O 722.281 -1.52901 5.24675 0
M  V30 7921 H 719.375 -0.265296 0.783292 0
M  V30 7922 H 721.921 0.215669 1.68324 0
M  V30 7923 H 720.693 0.16599 3.90948 0
M  V30 7924 H 720.316 -1.53208 3.66897 0
M  V30 7925 N 721.313 -1.57302 -0.09688 0
M  V30 7926 C 722.246 -1.97179 -1.14872 0
M  V30 7927 C 723.224 -0.844734 -1.38935 0
M  V30 7928 O 724.408 -1.10487 -1.52725 0
M  V30 7929 C 721.535 -2.28703 -2.49826 0
M  V30 7930 C 720.581 -3.51158 -2.42054 0
M  V30 7931 S 721.414 -5.0294 -1.83879 0
M  V30 7932 C 722.57 -5.37639 -3.2046 0
M  V30 7933 H 722.803 -2.86088 -0.808771 0
M  V30 7934 H 720.336 -1.51368 -0.304492 0
M  V30 7935 H 722.294 -2.47541 -3.27466 0
M  V30 7936 H 720.955 -1.40368 -2.8099 0
M  V30 7937 H 720.148 -3.70651 -3.41517 0
M  V30 7938 H 719.75 -3.31821 -1.72543 0
M  V30 7939 H 722.042 -5.34175 -4.16729 0
M  V30 7940 H 722.985 -6.38677 -3.05773 0
M  V30 7941 H 723.393 -4.651 -3.19909 0
M  V30 7942 N 722.791 0.367657 -1.53252 0
M  V30 7943 C 724.016 1.13566 -1.73544 0
M  V30 7944 C 724.441 1.82329 -0.462344 0
M  V30 7945 O 723.799 1.71655 0.583472 0
M  V30 7946 C 723.847 2.14322 -2.89997 0
M  V30 7947 O 722.951 3.21359 -2.58461 0
M  V30 7948 H 722.292 0.329614 -0.576412 0
M  V30 7949 H 724.822 0.425417 -2.00128 0
M  V30 7950 H 724.832 2.57958 -3.16104 0
M  V30 7951 H 723.507 1.63664 -3.82344 0
M  V30 7952 H 722.084 2.8271 -2.43165 0
M  V30 7953 N 724.269 1.44576 0.627338 0
M  V30 7954 C 725.515 1.47777 1.38888 0
M  V30 7955 C 725.848 0.111406 1.9388 0
M  V30 7956 O 725.123 -0.87149 1.73883 0
M  V30 7957 C 725.406 2.54119 2.55138 0
M  V30 7958 C 725.259 4.00128 2.0547 0
M  V30 7959 C 726.578 2.56929 3.57317 0
M  V30 7960 H 723.697 0.538048 0.50366 0
M  V30 7961 H 726.339 1.76277 0.708978 0
M  V30 7962 H 724.489 2.29948 3.13139 0
M  V30 7963 H 726.161 4.35444 1.5227 0
M  V30 7964 H 724.404 4.11724 1.36623 0
M  V30 7965 H 725.075 4.7019 2.89181 0
M  V30 7966 H 727.551 2.78536 3.09122 0
M  V30 7967 H 726.427 3.33234 4.36173 0
M  V30 7968 H 726.688 1.6127 4.11636 0
M  V30 7969 N 725.747 -0.868086 1.31537 0
M  V30 7970 C 726.996 -1.61607 1.20689 0
M  V30 7971 C 727.309 -1.94204 -0.233275 0
M  V30 7972 O 728.515 -2.67515 -0.463465 0
M  V30 7973 C 726.971 -2.91348 2.11292 0
M  V30 7974 C 726.579 -2.66227 3.60315 0
M  V30 7975 C 728.323 -3.69344 2.09249 0
M  V30 7976 C 726.23 -3.91887 4.42921 0
M  V30 7977 H 725.16 -0.606373 0.448138 0
M  V30 7978 H 727.811 -0.959666 1.56405 0
M  V30 7979 H 726.193 -3.58374 1.68477 0
M  V30 7980 H 727.367 -2.07597 4.11388 0
M  V30 7981 H 725.682 -2.01582 3.64354 0
M  V30 7982 H 728.279 -4.62567 2.68209 0
M  V30 7983 H 728.622 -4.02044 1.0801 0
M  V30 7984 H 729.155 -3.09205 2.50274 0
M  V30 7985 H 725.894 -3.64336 5.44922 0
M  V30 7986 H 725.414 -4.49961 3.96605 0
M  V30 7987 H 727.093 -4.59754 4.55231 0
M  V30 7988 N 727.225 -1.14528 -1.08264 0
M  V30 7989 C 728.135 -0.84728 -2.18765 0
M  V30 7990 C 729.151 0.172826 -1.7314 0
M  V30 7991 O 730.327 0.000985336 -2.014 0
M  V30 7992 C 727.392 -0.330633 -3.4512 0
M  V30 7993 C 726.453 -1.41348 -4.05363 0
M  V30 7994 C 725.686 -0.921387 -5.25686 0
M  V30 7995 O 725.909 0.236587 -5.69909 0
M  V30 7996 O 724.843 -1.70101 -5.77364 0
M  V30 7997 H 728.669 -1.7708 -2.46731 0
M  V30 7998 H 726.254 -0.923661 -1.17426 0
M  V30 7999 H 728.136 -0.0485053 -4.21372 0
M  V30 8000 H 726.811 0.565147 -3.18728 0
M  V30 8001 H 725.718 -1.74908 -3.30693 0
M  V30 8002 H 727.051 -2.28383 -4.36007 0
M  V30 8003 N 728.703 1.26451 -0.940633 0
M  V30 8004 C 729.613 2.30128 -0.455881 0
M  V30 8005 C 730.629 1.67536 0.469867 0
M  V30 8006 O 731.805 1.98344 0.349529 0
M  V30 8007 C 728.87 3.45634 0.271648 0
M  V30 8008 C 727.931 4.23709 -0.690594 0
M  V30 8009 C 727.164 5.337 0.00231047 0
M  V30 8010 O 727.387 5.57215 1.21935 0
M  V30 8011 O 726.321 5.98091 -0.676111 0
M  V30 8012 H 730.147 2.73655 -1.31707 0
M  V30 8013 H 727.732 1.3164 -0.706497 0
M  V30 8014 H 729.614 4.15853 0.681486 0
M  V30 8015 H 728.289 3.04138 1.10824 0
M  V30 8016 H 727.196 3.55974 -1.15037 0
M  V30 8017 H 728.529 4.68953 -1.49478 0
M  V30 8018 N 730.181 0.707592 1.40822 0
M  V30 8019 C 731.131 0.0265008 2.27985 0
M  V30 8020 C 732.115 -0.740685 1.42838 0
M  V30 8021 O 733.307 -0.6142 1.66002 0
M  V30 8022 C 730.436 -0.900382 3.31282 0
M  V30 8023 C 729.522 -0.128807 4.23904 0
M  V30 8024 N 729.913 0.883744 4.9802 0
M  V30 8025 C 728.211 -0.362539 4.44524 0
M  V30 8026 C 728.912 1.34666 5.65898 0
M  V30 8027 N 727.888 0.670306 5.39451 0
M  V30 8028 H 731.69 0.802667 2.82727 0
M  V30 8029 H 729.204 0.539475 1.53178 0
M  V30 8030 H 731.201 -1.40357 3.92563 0
M  V30 8031 H 729.861 -1.67601 2.781 0
M  V30 8032 H 730.872 1.26435 5.0223 0
M  V30 8033 H 727.549 -1.11512 4.02332 0
M  V30 8034 H 728.939 2.18756 6.35292 0
M  V30 8035 N 731.66 -1.50943 0.453197 0
M  V30 8036 C 732.623 -2.26684 -0.338705 0
M  V30 8037 C 733.623 -1.30748 -0.936032 0
M  V30 8038 O 734.813 -1.54327 -0.808002 0
M  V30 8039 C 731.945 -3.07063 -1.48071 0
M  V30 8040 H 733.138 -2.98131 0.325289 0
M  V30 8041 H 730.691 -1.54926 0.206771 0
M  V30 8042 H 731.426 -2.4007 -2.18029 0
M  V30 8043 H 731.211 -3.77545 -1.0584 0
M  V30 8044 H 732.701 -3.64393 -2.0398 0
M  V30 8045 N 733.138 -0.185124 -1.56509 0
M  V30 8046 C 734.086 0.756505 -2.19954 0
M  V30 8047 C 735.08 1.22725 -1.16769 0
M  V30 8048 O 736.286 1.1913 -1.34937 0
M  V30 8049 H 732.661 0.262279 -0.704779 0
M  V30 8050 H 734.632 0.197587 -2.97745 0
M  V30 8051 C 733.381 1.96975 -2.86524 0
M  V30 8052 H 732.704 1.61658 -3.65659 0
M  V30 8053 H 734.144 2.60719 -3.34367 0
M  V30 8054 C 732.603 2.80219 -1.87027 0
M  V30 8055 O 733.133 3.77821 -1.36433 0
M  V30 8056 N 731.339 2.4551 -1.55477 0
M  V30 8057 H 730.886 1.66199 -1.96813 0
M  V30 8058 H 730.844 3.01493 -0.891597 0
M  V30 8059 N 734.616 1.57351 0.0885366 0
M  V30 8060 C 735.862 1.87564 0.786842 0
M  V30 8061 C 736.217 0.776774 1.76023 0
M  V30 8062 O 735.51 -0.220637 1.90325 0
M  V30 8063 C 735.704 3.22098 1.5488 0
M  V30 8064 C 735.533 4.44967 0.650706 0
M  V30 8065 C 734.303 5.04444 0.293957 0
M  V30 8066 C 736.501 5.1428 -0.0452187 0
M  V30 8067 N 734.483 6.10846 -0.611609 0
M  V30 8068 C 735.854 6.14704 -0.808603 0
M  V30 8069 C 737.909 4.97759 -0.118451 0
M  V30 8070 C 736.612 7.00392 -1.63839 0
M  V30 8071 C 738.638 5.8396 -0.935157 0
M  V30 8072 C 738 6.83909 -1.68664 0
M  V30 8073 H 734.099 0.73613 0.263887 0
M  V30 8074 H 736.683 1.94638 0.049074 0
M  V30 8075 H 734.854 3.16064 2.2574 0
M  V30 8076 H 736.586 3.40015 2.19481 0
M  V30 8077 H 733.341 4.69214 0.643086 0
M  V30 8078 H 733.765 6.68695 -1.05714 0
M  V30 8079 H 738.407 4.20418 0.448202 0
M  V30 8080 H 736.125 7.7712 -2.21608 0
M  V30 8081 H 739.711 5.73236 -0.994579 0
M  V30 8082 H 738.591 7.49454 -2.30842 0
M  V30 8083 N 736.094 -0.359525 1.53444 0
M  V30 8084 C 737.319 -1.12644 1.74144 0
M  V30 8085 C 737.744 -1.82082 0.472007 0
M  V30 8086 O 737.102 -1.71962 -0.57436 0
M  V30 8087 C 737.15 -2.12781 2.9113 0
M  V30 8088 O 736.254 -3.19984 2.60162 0
M  V30 8089 H 735.595 -0.326553 0.578152 0
M  V30 8090 H 738.125 -0.414798 2.00351 0
M  V30 8091 H 738.135 -2.56278 3.17467 0
M  V30 8092 H 736.81 -1.61634 3.83207 0
M  V30 8093 H 735.387 -2.81417 2.44661 0
M  V30 8094 N 737.572 -1.44907 -0.619662 0
M  V30 8095 C 738.818 -1.48512 -1.38102 0
M  V30 8096 C 739.151 -0.121686 -1.93818 0
M  V30 8097 O 738.426 0.862256 -1.74343 0
M  V30 8098 C 738.709 -2.55469 -2.53787 0
M  V30 8099 C 738.562 -4.01212 -2.03345 0
M  V30 8100 C 739.881 -2.58821 -3.55949 0
M  V30 8101 H 737 -0.540712 -0.500799 0
M  V30 8102 H 739.642 -1.7665 -0.69962 0
M  V30 8103 H 737.792 -2.31606 -3.11915 0
M  V30 8104 H 739.464 -4.36245 -1.49959 0
M  V30 8105 H 737.707 -4.12443 -1.34438 0
M  V30 8106 H 738.378 -4.71717 -2.86683 0
M  V30 8107 H 740.854 -2.80172 -3.07641 0
M  V30 8108 H 739.73 -3.35542 -4.34399 0
M  V30 8109 H 739.991 -1.63451 -4.10775 0
M  V30 8110 N 739.05 0.861098 -1.31996 0
M  V30 8111 C 740.275 1.65264 -1.2531 0
M  V30 8112 C 740.7 1.87265 0.177007 0
M  V30 8113 O 740.058 1.4208 1.12619 0
M  V30 8114 C 740.106 2.99284 -2.0115 0
M  V30 8115 O 739.21 3.89508 -1.3549 0
M  V30 8116 H 738.551 0.50409 -0.432192 0
M  V30 8117 H 741.081 1.07297 -1.74208 0
M  V30 8118 H 741.091 3.49154 -2.11081 0
M  V30 8119 H 739.766 2.82591 -3.05148 0
M  V30 8120 H 738.343 3.47966 -1.34066 0
M  V30 8121 N 740.528 1.15101 1.07655 0
M  V30 8122 C 741.944 0.893004 1.32279 0
M  V30 8123 C 742.144 -0.461701 1.96139 0
M  V30 8124 O 741.2 -1.20431 2.21929 0
M  V30 8125 C 742.513 2.03161 2.21689 0
M  V30 8126 C 744.061 2.06579 2.35147 0
M  V30 8127 C 744.536 3.19754 3.27905 0
M  V30 8128 N 746.027 3.19382 3.35484 0
M  V30 8129 C 746.762 4.03592 4.07309 0
M  V30 8130 N 746.258 4.97859 4.81776 0
M  V30 8131 N 748.051 3.91626 4.03219 0
M  V30 8132 H 740.202 2.02341 0.645886 0
M  V30 8133 H 742.465 0.882127 0.347211 0
M  V30 8134 H 742.171 3.00934 1.82021 0
M  V30 8135 H 742.045 1.96132 3.22199 0
M  V30 8136 H 744.432 1.09408 2.74069 0
M  V30 8137 H 744.513 2.17676 1.34353 0
M  V30 8138 H 744.157 4.17175 2.89702 0
M  V30 8139 H 744.087 3.05893 4.28645 0
M  V30 8140 H 746.578 2.51112 2.82403 0
M  V30 8141 H 746.891 5.58563 5.34067 0
M  V30 8142 H 745.236 5.0185 4.80803 0
M  V30 8143 H 748.427 3.17295 3.44154 0
M  V30 8144 H 748.6 4.57479 4.5893 0
M  V30 8145 N 742.006 -1.2595 0.947325 0
M  V30 8146 C 742.916 -2.29883 0.468079 0
M  V30 8147 C 743.932 -1.67783 -0.460975 0
M  V30 8148 O 745.108 -1.98526 -0.339006 0
M  V30 8149 C 742.173 -3.45773 -0.253315 0
M  V30 8150 C 741.234 -4.23337 0.713054 0
M  V30 8151 C 740.467 -5.33694 0.025993 0
M  V30 8152 O 740.69 -5.57853 -1.18978 0
M  V30 8153 O 739.624 -5.97724 0.70782 0
M  V30 8154 H 743.45 -2.72952 1.33156 0
M  V30 8155 H 741.035 -1.31263 0.713468 0
M  V30 8156 H 742.917 -4.16209 -0.659423 0
M  V30 8157 H 741.592 -3.04721 -1.09209 0
M  V30 8158 H 740.499 -3.55359 1.16923 0
M  V30 8159 H 741.832 -4.68154 1.51963 0
M  V30 8160 N 743.484 -0.715051 -1.40445 0
M  V30 8161 C 744.447 -0.0708726 -2.2909 0
M  V30 8162 C 745.447 0.687926 -1.45342 0
M  V30 8163 O 746.637 0.519908 -1.66261 0
M  V30 8164 C 743.769 0.909528 -3.28543 0
M  V30 8165 H 744.962 -0.851611 -2.87555 0
M  V30 8166 H 742.515 -0.479674 -1.48758 0
M  V30 8167 H 743.25 1.71734 -2.75096 0
M  V30 8168 H 743.035 0.368318 -3.90366 0
M  V30 8169 H 744.525 1.35744 -3.94922 0
M  V30 8170 N 744.962 1.50701 -0.461195 0
M  V30 8171 C 746.21 2.01867 0.0970051 0
M  V30 8172 C 746.531 1.34591 1.41104 0
M  V30 8173 O 745.801 0.488041 1.89723 0
M  V30 8174 H 744.381 0.74599 0.0388392 0
M  V30 8175 H 747.043 1.85129 -0.609357 0
M  V30 8176 H 746.139 3.11051 0.255688 0
M  V30 8177 N 746.441 0.193421 1.56409 0
M  V30 8178 C 747.688 -0.445789 1.97532 0
M  V30 8179 C 748.016 -1.61744 1.08024 0
M  V30 8180 O 747.271 -1.95338 0.118982 0
M  V30 8181 C 747.57 -0.949718 3.44551 0
M  V30 8182 C 747.236 0.108383 4.5077 0
M  V30 8183 C 745.898 0.399126 4.79542 0
M  V30 8184 C 748.25 0.825423 5.14622 0
M  V30 8185 C 745.578 1.41192 5.69457 0
M  V30 8186 C 747.93 1.82735 6.05632 0
M  V30 8187 C 746.594 2.12531 6.32761 0
M  V30 8188 H 745.864 -0.163126 0.722822 0
M  V30 8189 H 748.511 0.290035 1.89291 0
M  V30 8190 H 746.816 -1.76378 3.49854 0
M  V30 8191 H 748.513 -1.45367 3.73724 0
M  V30 8192 H 745.103 -0.128392 4.28408 0
M  V30 8193 H 749.287 0.61403 4.92487 0
M  V30 8194 H 744.543 1.6487 5.88751 0
M  V30 8195 H 748.717 2.3882 6.5417 0
M  V30 8196 H 746.344 2.91155 7.02234 0
M  V30 8197 N 747.919 -1.57396 -0.0801906 0
M  V30 8198 C 749.144 -1.91437 -0.797909 0
M  V30 8199 C 749.569 -0.789075 -1.70749 0
M  V30 8200 O 748.927 0.25857 -1.79447 0
M  V30 8201 C 748.975 -3.24402 -1.57467 0
M  V30 8202 O 748.079 -3.13043 -2.68473 0
M  V30 8203 H 747.42 -0.627109 -0.218243 0
M  V30 8204 H 749.95 -2.04537 -0.050949 0
M  V30 8205 H 749.96 -3.58072 -1.95571 0
M  V30 8206 H 748.635 -4.05884 -0.907229 0
M  V30 8207 H 747.212 -2.90915 -2.33287 0
M  V30 8208 N 749.397 0.351382 -1.53633 0
M  V30 8209 C 750.627 1.11113 -1.74176 0
M  V30 8210 C 751.035 1.83084 -0.477154 0
M  V30 8211 O 750.378 1.74941 0.560483 0
M  V30 8212 C 750.44 2.17521 -2.86225 0
M  V30 8213 C 750.104 1.65193 -4.26099 0
M  V30 8214 C 751.101 1.10842 -5.07947 0
M  V30 8215 C 748.786 1.70277 -4.72558 0
M  V30 8216 C 750.78 0.622689 -6.34351 0
M  V30 8217 C 748.467 1.21316 -5.98937 0
M  V30 8218 C 749.465 0.674033 -6.79666 0
M  V30 8219 O 749.153 0.191696 -8.03671 0
M  V30 8220 H 748.885 0.33756 -0.585687 0
M  V30 8221 H 751.439 0.411786 -2.0123 0
M  V30 8222 H 749.669 2.90991 -2.54678 0
M  V30 8223 H 751.358 2.78999 -2.94812 0
M  V30 8224 H 752.124 1.06243 -4.7322 0
M  V30 8225 H 748.003 2.11181 -4.09785 0
M  V30 8226 H 751.547 0.201216 -6.9731 0
M  V30 8227 H 747.444 1.25613 -6.3316 0
M  V30 8228 H 748.212 0.309712 -8.17914 0
M  V30 8229 N 750.875 1.45233 0.611969 0
M  V30 8230 C 752.1 1.52767 1.40274 0
M  V30 8231 C 752.525 0.159701 1.87421 0
M  V30 8232 O 751.883 -0.854837 1.59882 0
M  V30 8233 C 751.931 2.51286 2.58626 0
M  V30 8234 O 751.035 2.02764 3.59111 0
M  V30 8235 H 750.376 0.515141 0.418958 0
M  V30 8236 H 752.906 1.90547 0.745188 0
M  V30 8237 H 752.916 2.69949 3.05927 0
M  V30 8238 H 751.591 3.50641 2.23659 0
M  V30 8239 H 750.168 1.93957 3.18489 0
M  V30 8240 N 752.353 -0.854086 1.3245 0
M  V30 8241 C 753.303 -1.9508 1.18016 0
M  V30 8242 C 754.287 -1.60665 0.0869417 0
M  V30 8243 O 755.479 -1.74201 0.313505 0
M  V30 8244 C 752.608 -3.3113 0.905961 0
M  V30 8245 C 751.694 -3.71763 2.04091 0
M  V30 8246 N 752.085 -3.84218 3.28953 0
M  V30 8247 C 750.383 -4.01393 1.94421 0
M  V30 8248 C 751.084 -4.192 4.03294 0
M  V30 8249 N 750.06 -4.30749 3.31596 0
M  V30 8250 H 753.862 -2.02843 2.12678 0
M  V30 8251 H 751.376 -1.04588 1.24238 0
M  V30 8252 H 753.373 -4.09471 0.783508 0
M  V30 8253 H 752.033 -3.24684 -0.0322715 0
M  V30 8254 H 753.044 -3.68524 3.63883 0
M  V30 8255 H 749.721 -4.03246 1.08162 0
M  V30 8256 H 751.111 -4.36301 5.1097 0
M  V30 8257 N 753.831 -1.1567 -1.07043 0
M  V30 8258 C 754.794 -0.858906 -2.12498 0
M  V30 8259 C 755.794 0.142735 -1.60165 0
M  V30 8260 O 756.984 -0.0872678 -1.73981 0
M  V30 8261 C 754.116 -0.283021 -3.39723 0
M  V30 8262 H 755.309 -1.79368 -2.40348 0
M  V30 8263 H 752.862 -0.964608 -1.22984 0
M  V30 8264 H 753.597 0.659796 -3.17517 0
M  V30 8265 H 753.382 -1.00467 -3.7901 0
M  V30 8266 H 754.872 -0.0923543 -4.17498 0
M  V30 8267 N 755.309 1.25446 -0.953992 0
M  V30 8268 C 756.557 1.92762 -0.607227 0
M  V30 8269 C 756.878 1.7509 0.858399 0
M  V30 8270 O 756.148 1.11416 1.61132 0
M  V30 8271 H 754.728 0.713377 -0.221591 0
M  V30 8272 H 757.39 1.52625 -1.21209 0
M  V30 8273 H 756.486 3.00695 -0.835998 0
M  V30 8274 N 756.787 0.722489 1.40064 0
M  V30 8275 C 757.717 0.0892452 2.33329 0
M  V30 8276 C 758.698 -0.737992 1.53257 0
M  V30 8277 O 759.883 -0.685516 1.81698 0
M  V30 8278 C 757.013 -0.828139 3.37282 0
M  V30 8279 C 755.967 -0.106005 4.27869 0
M  V30 8280 C 755.293 -1.13957 5.22415 0
M  V30 8281 C 756.593 1.04395 5.11761 0
M  V30 8282 H 758.287 0.868269 2.86534 0
M  V30 8283 H 755.833 0.418982 1.3777 0
M  V30 8284 H 757.786 -1.28058 4.01471 0
M  V30 8285 H 756.51 -1.63914 2.82489 0
M  V30 8286 H 755.169 0.326683 3.65142 0
M  V30 8287 H 754.817 -1.9438 4.63924 0
M  V30 8288 H 754.517 -0.661233 5.83868 0
M  V30 8289 H 756.041 -1.59197 5.89482 0
M  V30 8290 H 757.455 0.670541 5.69365 0
M  V30 8291 H 755.852 1.4511 5.82291 0
M  V30 8292 H 756.922 1.87144 4.47331 0
M  V30 8293 N 758.265 -1.50454 0.469181 0
M  V30 8294 C 759.49 -2.0722 -0.0864892 0
M  V30 8295 C 759.915 -1.33098 -1.32916 0
M  V30 8296 O 759.273 -0.378084 -1.77314 0
M  V30 8297 C 759.321 -3.58845 -0.355384 0
M  V30 8298 O 758.425 -3.86583 -1.43622 0
M  V30 8299 H 757.766 -0.663889 0.0121414 0
M  V30 8300 H 760.296 -1.93674 0.659674 0
M  V30 8301 H 760.306 -4.03617 -0.596447 0
M  V30 8302 H 758.981 -4.12211 0.552698 0
M  V30 8303 H 757.558 -3.5365 -1.18262 0
M  V30 8304 N 759.743 -0.201713 -1.56304 0
M  V30 8305 C 760.691 0.733133 -2.20744 0
M  V30 8306 C 761.685 1.2148 -1.18064 0
M  V30 8307 O 762.891 1.17692 -1.36193 0
M  V30 8308 H 759.266 0.254789 -0.707521 0
M  V30 8309 H 761.237 0.165996 -2.97938 0
M  V30 8310 C 759.986 1.93925 -2.88597 0
M  V30 8311 H 759.309 1.5777 -3.67353 0
M  V30 8312 H 760.749 2.57158 -3.37114 0
M  V30 8313 C 759.208 2.78219 -1.89989 0
M  V30 8314 O 759.738 3.76353 -1.40432 0
M  V30 8315 N 757.944 2.43847 -1.58072 0
M  V30 8316 H 757.491 1.64103 -1.98565 0
M  V30 8317 H 757.449 3.0053 -0.923524 0
M  V30 8318 N 761.222 1.57436 0.0718424 0
M  V30 8319 C 762.638 1.53792 0.426628 0
M  V30 8320 C 762.838 0.921887 1.79174 0
M  V30 8321 O 761.894 0.524374 2.46995 0
M  V30 8322 C 763.207 2.98443 0.367739 0
M  V30 8323 C 764.755 3.09778 0.447928 0
M  V30 8324 C 765.23 4.5608 0.418946 0
M  V30 8325 N 766.721 4.60716 0.479022 0
M  V30 8326 C 767.456 5.71397 0.47881 0
M  V30 8327 N 766.952 6.91443 0.433417 0
M  V30 8328 N 768.745 5.59639 0.525364 0
M  V30 8329 H 760.896 1.95848 -0.822033 0
M  V30 8330 H 763.159 0.896418 -0.308447 0
M  V30 8331 H 762.865 3.47072 -0.56865 0
M  V30 8332 H 762.739 3.58335 1.17795 0
M  V30 8333 H 765.126 2.61122 1.37474 0
M  V30 8334 H 765.207 2.52796 -0.390857 0
M  V30 8335 H 764.851 5.05393 -0.504016 0
M  V30 8336 H 764.781 5.10925 1.27526 0
M  V30 8337 H 767.272 3.74328 0.518355 0
M  V30 8338 H 767.585 7.71562 0.43718 0
M  V30 8339 H 765.93 6.93847 0.400106 0
M  V30 8340 H 769.121 4.64756 0.558519 0
M  V30 8341 H 769.294 6.45896 0.52173 0
M  V30 8342 N 762.7 -0.34323 1.53817 0
M  V30 8343 C 763.63 -1.42709 1.84814 0
M  V30 8344 C 764.611 -1.5488 0.703297 0
M  V30 8345 O 765.796 -1.69082 0.955237 0
M  V30 8346 C 762.926 -2.79756 2.05801 0
M  V30 8347 C 761.88 -2.82392 3.21619 0
M  V30 8348 C 761.206 -4.22326 3.2794 0
M  V30 8349 C 762.506 -2.479 4.59721 0
M  V30 8350 H 764.2 -1.17018 2.75585 0
M  V30 8351 H 761.746 -0.561485 1.32602 0
M  V30 8352 H 763.699 -3.55627 2.26069 0
M  V30 8353 H 762.423 -3.06883 1.11761 0
M  V30 8354 H 761.082 -2.08974 3.01207 0
M  V30 8355 H 760.73 -4.46564 2.31494 0
M  V30 8356 H 760.43 -4.25001 4.05768 0
M  V30 8357 H 761.954 -5.00039 3.50419 0
M  V30 8358 H 763.368 -3.13484 4.80001 0
M  V30 8359 H 761.765 -2.61857 5.39954 0
M  V30 8360 H 762.835 -1.43087 4.63308 0
M  V30 8361 N 764.178 -1.45556 -0.604258 0
M  V30 8362 C 765.141 -1.54091 -1.69672 0
M  V30 8363 C 766.141 -0.420076 -1.55216 0
M  V30 8364 O 767.331 -0.683671 -1.60224 0
M  V30 8365 C 764.463 -1.44063 -3.08964 0
M  V30 8366 H 765.656 -2.51431 -1.6347 0
M  V30 8367 H 763.209 -1.33046 -0.820273 0
M  V30 8368 H 763.944 -0.479201 -3.2074 0
M  V30 8369 H 763.729 -2.25362 -3.20865 0
M  V30 8370 H 765.219 -1.53075 -3.88533 0
M  V30 8371 N 765.656 0.84705 -1.32902 0
M  V30 8372 C 767.072 1.13645 -1.12058 0
M  V30 8373 C 767.272 2.01281 0.093937 0
M  V30 8374 O 766.328 2.4026 0.776608 0
M  V30 8375 C 767.641 1.80644 -2.40392 0
M  V30 8376 C 769.189 1.93246 -2.46221 0
M  V30 8377 C 769.664 2.6366 -3.74496 0
M  V30 8378 N 771.155 2.71179 -3.75521 0
M  V30 8379 C 771.89 3.26332 -4.71482 0
M  V30 8380 N 771.386 3.82236 -5.77813 0
M  V30 8381 N 773.179 3.24507 -4.58968 0
M  V30 8382 H 765.33 0.263612 -2.10758 0
M  V30 8383 H 767.593 0.17944 -0.930863 0
M  V30 8384 H 767.299 1.23708 -3.29225 0
M  V30 8385 H 767.173 2.80736 -2.51926 0
M  V30 8386 H 769.56 2.49338 -1.57843 0
M  V30 8387 H 769.641 0.921272 -2.38634 0
M  V30 8388 H 769.285 2.08229 -4.63253 0
M  V30 8389 H 769.215 3.65234 -3.79357 0
M  V30 8390 H 771.706 2.31527 -2.9867 0
M  V30 8391 H 772.019 4.22499 -6.47082 0
M  V30 8392 H 770.364 3.80546 -5.81558 0
M  V30 8393 H 773.555 2.80085 -3.7506 0
M  V30 8394 H 773.728 3.67188 -5.33926 0
M  V30 8395 N 767.134 1.16236 1.06428 0
M  V30 8396 C 768.411 0.853294 1.76006 0
M  V30 8397 C 768.791 -0.649162 2.00871 0
M  V30 8398 O 768.139 -1.59653 1.63472 0
M  V30 8399 C 768.349 1.67448 3.06206 0
M  V30 8400 C 769.697 1.8866 3.80385 0
M  V30 8401 O 770.721 1.64303 3.16043 0
M  V30 8402 O 769.58 2.29518 4.95968 0
M  V30 8403 H 766.674 0.314737 0.764767 0
M  V30 8404 H 769.22 1.26865 1.12709 0
M  V30 8405 H 767.992 2.69411 2.83784 0
M  V30 8406 H 767.615 1.25608 3.77238 0
M  V30 8407 N 768.612 -1.24939 0.960631 0
M  V30 8408 C 769.56 -2.27659 0.47686 0
M  V30 8409 C 770.554 -1.63148 -0.455961 0
M  V30 8410 O 771.76 -1.76911 -0.332029 0
M  V30 8411 H 768.135 -0.739651 0.135723 0
M  V30 8412 H 770.106 -2.65844 1.35534 0
M  V30 8413 C 768.855 -3.46976 -0.224191 0
M  V30 8414 H 768.178 -3.96854 0.484471 0
M  V30 8415 H 769.618 -4.20717 -0.526615 0
M  V30 8416 C 768.077 -3.04159 -1.44876 0
M  V30 8417 O 768.607 -3.10697 -2.54618 0
M  V30 8418 N 766.813 -2.59284 -1.31226 0
M  V30 8419 H 766.36 -2.54164 -0.419361 0
M  V30 8420 H 766.318 -2.31 -2.13275 0
M  V30 8421 N 770.09 -0.729906 -1.39679 0
M  V30 8422 C 771 -0.0880322 -2.34435 0
M  V30 8423 C 772.016 0.727674 -1.58053 0
M  V30 8424 O 773.192 0.657321 -1.90371 0
M  V30 8425 C 770.257 0.812211 -3.37052 0
M  V30 8426 C 769.318 -0.0151681 -4.29297 0
M  V30 8427 C 768.551 0.842202 -5.27013 0
M  V30 8428 O 768.774 2.08108 -5.31081 0
M  V30 8429 O 767.708 0.27357 -6.01278 0
M  V30 8430 H 771.534 -0.869989 -2.90972 0
M  V30 8431 H 769.119 -0.490522 -1.41118 0
M  V30 8432 H 771.001 1.32745 -3.99946 0
M  V30 8433 H 769.676 1.57307 -2.82907 0
M  V30 8434 H 768.583 -0.575811 -3.69642 0
M  V30 8435 H 769.916 -0.738129 -4.86634 0
M  V30 8436 N 771.568 1.50203 -0.477153 0
M  V30 8437 C 772.498 2.31517 0.303646 0
M  V30 8438 C 773.479 1.38696 0.984753 0
M  V30 8439 O 774.664 1.67615 0.980758 0
M  V30 8440 C 771.794 3.18598 1.38249 0
M  V30 8441 C 770.748 4.2002 0.822645 0
M  V30 8442 C 770.074 4.95878 2.00024 0
M  V30 8443 C 771.374 5.22023 -0.170185 0
M  V30 8444 H 773.068 2.97042 -0.375027 0
M  V30 8445 H 770.614 1.42848 -0.181802 0
M  V30 8446 H 772.567 3.74282 1.93625 0
M  V30 8447 H 771.291 2.5097 2.09002 0
M  V30 8448 H 769.95 3.65445 0.290813 0
M  V30 8449 H 769.598 4.24717 2.69489 0
M  V30 8450 H 769.298 5.64487 1.63183 0
M  V30 8451 H 770.822 5.54399 2.55878 0
M  V30 8452 H 772.236 5.72543 0.294606 0
M  V30 8453 H 770.633 5.98386 -0.453181 0
M  V30 8454 H 771.703 4.72396 -1.09408 0
M  V30 8455 N 773.046 0.209999 1.56195 0
M  V30 8456 C 774.462 -0.145598 1.58934 0
M  V30 8457 C 774.662 -1.59868 1.22656 0
M  V30 8458 O 773.718 -2.33689 0.956336 0
M  V30 8459 C 775.031 0.170243 3.00218 0
M  V30 8460 C 776.579 0.111548 3.12801 0
M  V30 8461 C 777.054 0.400904 4.56242 0
M  V30 8462 N 778.545 0.350058 4.61875 0
M  V30 8463 C 779.28 0.547598 5.70779 0
M  V30 8464 N 778.776 0.806291 6.88092 0
M  V30 8465 N 780.569 0.480827 5.6004 0
M  V30 8466 H 772.72 1.15804 1.78054 0
M  V30 8467 H 774.983 0.463326 0.827063 0
M  V30 8468 H 774.689 1.17833 3.31373 0
M  V30 8469 H 774.563 -0.520208 3.73596 0
M  V30 8470 H 776.95 -0.887162 2.81449 0
M  V30 8471 H 777.031 0.835302 2.41777 0
M  V30 8472 H 776.675 1.397 4.8831 0
M  V30 8473 H 776.605 -0.34391 5.25476 0
M  V30 8474 H 779.096 0.157334 3.77572 0
M  V30 8475 H 779.409 0.945433 7.66995 0
M  V30 8476 H 777.754 0.843355 6.89864 0
M  V30 8477 H 780.945 0.279037 4.67268 0
M  V30 8478 H 781.118 0.638189 6.4485 0
M  V30 8479 N 774.524 -1.57472 -0.0634922 0
M  V30 8480 C 775.434 -2.07621 -1.09227 0
M  V30 8481 C 776.45 -1.00746 -1.41867 0
M  V30 8482 O 777.626 -1.32269 -1.51878 0
M  V30 8483 C 774.691 -2.51707 -2.38421 0
M  V30 8484 C 773.752 -3.72917 -2.12676 0
M  V30 8485 C 772.985 -4.14891 -3.3571 0
M  V30 8486 O 773.208 -3.56663 -4.45137 0
M  V30 8487 O 772.142 -5.07616 -3.23434 0
M  V30 8488 H 775.968 -2.95612 -0.696205 0
M  V30 8489 H 773.553 -1.46787 -0.27819 0
M  V30 8490 H 775.435 -2.80547 -3.14438 0
M  V30 8491 H 774.11 -1.66842 -2.77391 0
M  V30 8492 H 773.017 -3.49148 -1.34337 0
M  V30 8493 H 774.35 -4.5866 -1.78583 0
M  V30 8494 N 776.003 0.335068 -1.53997 0
M  V30 8495 C 776.951 1.43206 -1.83289 0
M  V30 8496 C 777.945 1.54081 -0.703953 0
M  V30 8497 O 779.151 1.56603 -0.887432 0
M  V30 8498 H 775.526 0.477655 -0.580818 0
M  V30 8499 H 777.497 1.15719 -2.75049 0
M  V30 8500 C 776.246 2.79602 -2.06683 0
M  V30 8501 H 775.569 2.72004 -2.93008 0
M  V30 8502 H 777.009 3.55459 -2.31139 0
M  V30 8503 C 775.468 3.25873 -0.854883 0
M  V30 8504 O 775.998 4.01657 -0.0584648 0
M  V30 8505 N 774.204 2.82777 -0.669729 0
M  V30 8506 H 773.751 2.21269 -1.31901 0
M  V30 8507 H 773.709 3.1409 0.13969 0
M  V30 8508 N 777.481 1.45874 0.596531 0
M  V30 8509 C 778.758 1.40942 1.35627 0
M  V30 8510 C 779.138 0.0857066 2.10926 0
M  V30 8511 O 778.486 -0.932544 2.08605 0
M  V30 8512 C 778.696 2.63027 2.29386 0
M  V30 8513 C 780.044 3.08588 2.91649 0
M  V30 8514 O 781.068 2.63478 2.39704 0
M  V30 8515 O 779.927 3.86902 3.85965 0
M  V30 8516 H 777.021 0.559838 0.608696 0
M  V30 8517 H 779.567 1.5802 0.618698 0
M  V30 8518 H 778.339 3.5094 1.7308 0
M  V30 8519 H 777.962 2.48338 3.10506 0
M  V30 8520 N 778.959 -0.83999 1.33349 0
M  V30 8521 C 779.906 -1.94972 1.23509 0
M  V30 8522 C 780.876 -1.65709 0.113967 0
M  V30 8523 O 782.061 -1.88552 0.292045 0
M  V30 8524 C 779.201 -3.30919 0.979105 0
M  V30 8525 C 778.314 -3.72587 2.18639 0
M  V30 8526 C 777.449 -4.97397 1.86465 0
M  V30 8527 C 776.488 -5.31597 3.03432 0
M  V30 8528 N 775.625 -6.47584 2.71254 0
M  V30 8529 H 780.465 -2.0272 2.18423 0
M  V30 8530 H 778.002 -0.992017 1.08616 0
M  V30 8531 H 779.96 -4.09239 0.811126 0
M  V30 8532 H 778.59 -3.22731 0.0667099 0
M  V30 8533 H 777.642 -2.89799 2.46416 0
M  V30 8534 H 778.954 -3.93844 3.06086 0
M  V30 8535 H 778.108 -5.83462 1.66305 0
M  V30 8536 H 776.847 -4.78107 0.96254 0
M  V30 8537 H 775.852 -4.44037 3.24208 0
M  V30 8538 H 777.077 -5.52836 3.94397 0
M  V30 8539 H 775.023 -6.29783 1.836 0
M  V30 8540 H 774.94 -6.68931 3.52231 0
M  V30 8541 H 776.208 -7.36764 2.54558 0
M  V30 8542 N 780.437 -1.16799 -1.0581 0
M  V30 8543 C 781.347 -0.893492 -2.16919 0
M  V30 8544 C 782.363 0.136061 -1.73467 0
M  V30 8545 O 783.539 -0.0417348 -2.01357 0
M  V30 8546 C 780.604 -0.403763 -3.44341 0
M  V30 8547 C 779.665 -1.49914 -4.02274 0
M  V30 8548 C 778.898 -1.03269 -5.23614 0
M  V30 8549 O 779.121 0.115647 -5.70283 0
M  V30 8550 O 778.055 -1.8231 -5.73626 0
M  V30 8551 H 781.881 -1.82274 -2.42919 0
M  V30 8552 H 779.466 -0.948361 -1.1544 0
M  V30 8553 H 781.348 -0.137874 -4.21174 0
M  V30 8554 H 780.023 0.497413 -3.19855 0
M  V30 8555 H 778.93 -1.81883 -3.26909 0
M  V30 8556 H 780.263 -2.3758 -4.31064 0
M  V30 8557 N 781.915 1.24427 -0.967243 0
M  V30 8558 C 782.847 2.24641 -0.454856 0
M  V30 8559 C 783.86 1.56849 0.436152 0
M  V30 8560 O 785.049 1.76846 0.242401 0
M  V30 8561 C 782.149 3.36954 0.362672 0
M  V30 8562 C 781.322 4.34318 -0.518324 0
M  V30 8563 C 780.381 5.25638 0.243122 0
M  V30 8564 O 779.407 5.68043 -0.362791 0
M  V30 8565 N 780.609 5.59897 1.53282 0
M  V30 8566 H 783.374 2.69238 -1.31648 0
M  V30 8567 H 780.935 1.38464 -0.839015 0
M  V30 8568 H 782.927 3.95014 0.880094 0
M  V30 8569 H 781.497 2.91646 1.12522 0
M  V30 8570 H 780.717 3.74953 -1.21672 0
M  V30 8571 H 782.005 4.96338 -1.11919 0
M  V30 8572 H 781.403 5.27373 2.04682 0
M  V30 8573 H 779.96 6.20488 1.99594 0
M  V30 8574 N 783.393 0.737304 1.3929 0
M  V30 8575 C 784.323 0.113988 2.33222 0
M  V30 8576 C 785.304 -0.721695 1.54031 0
M  V30 8577 O 786.489 -0.666206 1.82415 0
M  V30 8578 C 783.619 -0.792319 3.38141 0
M  V30 8579 C 782.573 -0.0606178 4.27957 0
M  V30 8580 C 781.899 -1.08409 5.23595 0
M  V30 8581 C 783.199 1.09817 5.10625 0
M  V30 8582 H 784.893 0.898611 2.85596 0
M  V30 8583 H 782.439 0.433571 1.37318 0
M  V30 8584 H 784.392 -1.23793 4.02807 0
M  V30 8585 H 783.116 -1.60908 2.84211 0
M  V30 8586 H 781.775 0.365393 3.64775 0
M  V30 8587 H 781.423 -1.89449 4.6596 0
M  V30 8588 H 781.123 -0.599269 5.84536 0
M  V30 8589 H 782.647 -1.52936 5.91137 0
M  V30 8590 H 784.061 0.730892 5.68622 0
M  V30 8591 H 782.458 1.51278 5.80719 0
M  V30 8592 H 783.528 1.91878 4.45321 0
M  V30 8593 N 784.871 -1.49948 0.485112 0
M  V30 8594 C 785.818 -2.28819 -0.301729 0
M  V30 8595 C 786.788 -1.34496 -0.974683 0
M  V30 8596 O 787.973 -1.63444 -0.984418 0
M  V30 8597 C 785.113 -3.16758 -1.36961 0
M  V30 8598 C 784.226 -4.26125 -0.710027 0
M  V30 8599 C 783.361 -5.01302 -1.75699 0
M  V30 8600 C 782.4 -6.02525 -1.07841 0
M  V30 8601 N 781.537 -6.70927 -2.06886 0
M  V30 8602 H 786.377 -2.95604 0.377127 0
M  V30 8603 H 783.914 -1.45764 0.197826 0
M  V30 8604 H 785.872 -3.66106 -2.00056 0
M  V30 8605 H 784.502 -2.51991 -2.01744 0
M  V30 8606 H 783.554 -3.80385 0.0338278 0
M  V30 8607 H 784.866 -4.98493 -0.175079 0
M  V30 8608 H 784.02 -5.54438 -2.46339 0
M  V30 8609 H 782.759 -4.28672 -2.32577 0
M  V30 8610 H 781.764 -5.48635 -0.357706 0
M  V30 8611 H 782.989 -6.77134 -0.516345 0
M  V30 8612 H 780.935 -6.01079 -2.62755 0
M  V30 8613 H 780.852 -7.39216 -1.58414 0
M  V30 8614 H 782.12 -7.28675 -2.76863 0
M  V30 8615 N 786.349 -0.21828 -1.56081 0
M  V30 8616 C 787.312 0.679633 -2.18892 0
M  V30 8617 C 788.312 1.12405 -1.14986 0
M  V30 8618 O 789.502 1.03339 -1.40238 0
M  V30 8619 C 786.634 1.93063 -2.80962 0
M  V30 8620 H 787.827 0.132066 -2.99609 0
M  V30 8621 H 785.38 0.0313374 -1.56269 0
M  V30 8622 H 786.115 2.52015 -2.04106 0
M  V30 8623 H 785.9 1.62046 -3.57048 0
M  V30 8624 H 787.39 2.57043 -3.29118 0
M  V30 8625 N 787.827 1.57504 0.0551401 0
M  V30 8626 C 789.076 1.87237 0.750009 0
M  V30 8627 C 789.389 0.813268 1.77891 0
M  V30 8628 O 790.595 0.99898 2.52453 0
M  V30 8629 C 789.051 3.32187 1.38491 0
M  V30 8630 C 788.659 4.46267 0.393707 0
M  V30 8631 C 790.403 3.71101 2.06117 0
M  V30 8632 C 788.31 5.82265 1.03547 0
M  V30 8633 H 787.24 0.698524 0.283866 0
M  V30 8634 H 789.891 1.835 0.00365997 0
M  V30 8635 H 788.273 3.30588 2.18008 0
M  V30 8636 H 789.447 4.59289 -0.372865 0
M  V30 8637 H 787.762 4.16015 -0.17902 0
M  V30 8638 H 790.359 4.70012 2.54937 0
M  V30 8639 H 790.702 3.01751 2.86796 0
M  V30 8640 H 791.235 3.74762 1.33409 0
M  V30 8641 H 787.974 6.54949 0.268644 0
M  V30 8642 H 787.494 5.73012 1.7725 0
M  V30 8643 H 789.173 6.28148 1.55047 0
M  V30 8644 N 789.305 -0.326896 1.54172 0
M  V30 8645 C 790.53 -1.08924 1.76494 0
M  V30 8646 C 790.955 -1.81039 0.510523 0
M  V30 8647 O 790.313 -1.73141 -0.537756 0
M  V30 8648 C 790.361 -2.06558 2.95578 0
M  V30 8649 O 789.465 -3.14394 2.6689 0
M  V30 8650 H 788.806 -0.314216 0.584948 0
M  V30 8651 H 791.336 -0.372207 2.01186 0
M  V30 8652 H 791.346 -2.49487 3.22832 0
M  V30 8653 H 790.021 -1.53469 3.86549 0
M  V30 8654 H 788.598 -2.76164 2.50576 0
M  V30 8655 N 790.784 -1.46188 -0.588786 0
M  V30 8656 C 792.012 -1.54743 -1.37339 0
M  V30 8657 C 792.427 -0.186446 -1.87877 0
M  V30 8658 O 791.784 0.815247 -1.63279 0
M  V30 8659 C 791.835 -2.54727 -2.56508 0
M  V30 8660 O 791.556 -3.85539 -2.08066 0
M  V30 8661 C 793.057 -2.73163 -3.49137 0
M  V30 8662 H 790.277 -0.523484 -0.419768 0
M  V30 8663 H 792.821 -1.91543 -0.716345 0
M  V30 8664 H 790.976 -2.20948 -3.18215 0
M  V30 8665 H 791.39 -4.39905 -2.85629 0
M  V30 8666 H 792.864 -3.47057 -4.2925 0
M  V30 8667 H 793.341 -1.79856 -4.00685 0
M  V30 8668 H 793.947 -3.08014 -2.9327 0
M  V30 8669 N 792.262 0.832906 -1.33792 0
M  V30 8670 C 793.678 1.1245 -1.13257 0
M  V30 8671 C 793.878 2.01369 0.0725832 0
M  V30 8672 O 792.934 2.41071 0.751082 0
M  V30 8673 C 794.247 1.78084 -2.42294 0
M  V30 8674 C 795.795 1.90624 -2.48257 0
M  V30 8675 C 796.27 2.59673 -3.77271 0
M  V30 8676 N 797.761 2.67181 -3.78376 0
M  V30 8677 C 798.496 3.21313 -4.74916 0
M  V30 8678 N 797.992 3.76086 -5.81835 0
M  V30 8679 N 799.785 3.19621 -4.62384 0
M  V30 8680 H 791.936 0.241244 -2.11026 0
M  V30 8681 H 794.199 0.169557 -0.932713 0
M  V30 8682 H 793.905 1.20209 -3.30519 0
M  V30 8683 H 793.779 2.78049 -2.5489 0
M  V30 8684 H 796.166 2.4765 -1.60478 0
M  V30 8685 H 796.247 0.89591 -2.39598 0
M  V30 8686 H 795.891 2.03304 -4.65435 0
M  V30 8687 H 795.821 3.61189 -3.8321 0
M  V30 8688 H 798.312 2.28346 -3.01108 0
M  V30 8689 H 798.625 4.15612 -6.51526 0
M  V30 8690 H 796.97 3.74357 -5.85561 0
M  V30 8691 H 800.161 2.76091 -3.7801 0
M  V30 8692 H 800.334 3.61504 -5.37791 0
M  V30 8693 N 793.74 1.17359 1.05189 0
M  V30 8694 C 795.017 0.871914 1.75091 0
M  V30 8695 C 795.397 -0.627821 2.01548 0
M  V30 8696 O 794.745 -1.5791 1.65156 0
M  V30 8697 C 794.955 1.70687 3.04413 0
M  V30 8698 C 796.303 1.92684 3.78362 0
M  V30 8699 O 797.327 1.67645 3.14282 0
M  V30 8700 O 796.186 2.34765 4.93505 0
M  V30 8701 H 793.28 0.322831 0.761386 0
M  V30 8702 H 795.826 1.28054 1.11357 0
M  V30 8703 H 794.598 2.72405 2.80911 0
M  V30 8704 H 794.221 1.29602 3.75884 0
M  V30 8705 N 795.218 -1.23913 0.973828 0
M  V30 8706 C 796.629 -1.73992 0.677021 0
M  V30 8707 C 796.98 -1.78833 -0.807036 0
M  V30 8708 O 796.105 -1.42183 -1.63135 0
M  V30 8709 C 796.7 -3.15985 1.22226 0
M  V30 8710 C 795.259 -3.63547 0.975228 0
M  V30 8711 C 794.406 -2.42001 1.35392 0
M  V30 8712 H 797.357 -1.09529 1.14844 0
M  V30 8713 H 797.378 -3.75875 0.591489 0
M  V30 8714 H 796.89 -3.12429 2.30238 0
M  V30 8715 H 794.991 -3.72493 -0.0891047 0
M  V30 8716 H 795.104 -4.50693 1.62518 0
M  V30 8717 H 793.468 -2.42708 0.772334 0
M  V30 8718 H 794.251 -2.41122 2.44367 0
M  V30 8719 N 796.696 -0.74468 -1.38897 0
M  V30 8720 C 797.626 -0.126355 -2.33158 0
M  V30 8721 C 798.607 0.713517 -1.54412 0
M  V30 8722 O 799.792 0.656523 -1.82766 0
M  V30 8723 C 796.922 0.774375 -3.38557 0
M  V30 8724 C 795.876 0.0379214 -4.27983 0
M  V30 8725 C 795.202 1.05631 -5.24162 0
M  V30 8726 C 796.502 -1.12523 -5.10035 0
M  V30 8727 H 798.196 -0.913744 -2.85116 0
M  V30 8728 H 795.742 -0.440847 -1.37086 0
M  V30 8729 H 797.695 1.21655 -4.03458 0
M  V30 8730 H 796.419 1.59399 -2.85061 0
M  V30 8731 H 795.078 -0.384733 -3.64576 0
M  V30 8732 H 794.726 1.86975 -4.66958 0
M  V30 8733 H 794.426 0.568261 -5.84846 0
M  V30 8734 H 795.95 1.49799 -5.9194 0
M  V30 8735 H 797.364 -0.761037 -5.68226 0
M  V30 8736 H 795.761 -1.54355 -5.79909 0
M  V30 8737 H 796.831 -1.94237 -4.44297 0
M  V30 8738 N 798.174 1.49689 -0.493057 0
M  V30 8739 C 799.399 2.07331 0.0535114 0
M  V30 8740 C 799.824 1.35196 1.30781 0
M  V30 8741 O 799.182 0.406246 1.7669 0
M  V30 8742 C 799.23 3.59364 0.29825 0
M  V30 8743 O 798.334 3.88819 1.37454 0
M  V30 8744 H 797.675 0.663612 -0.0227018 0
M  V30 8745 H 800.205 1.926 -0.690402 0
M  V30 8746 H 800.215 4.04515 0.532159 0
M  V30 8747 H 798.89 4.1128 -0.618207 0
M  V30 8748 H 797.467 3.55487 1.12621 0
M  V30 8749 N 799.652 0.226554 1.55963 0
M  V30 8750 C 800.562 -0.692725 2.24139 0
M  V30 8751 C 801.578 -1.20971 1.25068 0
M  V30 8752 O 802.754 -1.25027 1.57893 0
M  V30 8753 C 799.819 -1.88183 2.91184 0
M  V30 8754 C 798.88 -1.40633 4.05612 0
M  V30 8755 C 798.113 -2.53875 4.6945 0
M  V30 8756 O 798.336 -3.72129 4.32292 0
M  V30 8757 O 797.27 -2.24792 5.58348 0
M  V30 8758 H 801.096 -0.141921 3.03368 0
M  V30 8759 H 798.681 -0.0041049 1.49399 0
M  V30 8760 H 800.563 -2.57617 3.33484 0
M  V30 8761 H 799.238 -2.42064 2.14911 0
M  V30 8762 H 798.145 -0.67986 3.67871 0
M  V30 8763 H 799.478 -0.913838 4.83642 0
M  V30 8764 N 801.13 -1.57531 -0.0467866 0
M  V30 8765 C 802.379 -1.87632 -0.740069 0
M  V30 8766 C 802.692 -0.822691 -1.77457 0
M  V30 8767 O 803.898 -1.01235 -2.5192 0
M  V30 8768 C 802.354 -3.32917 -1.36727 0
M  V30 8769 C 801.962 -4.46469 -0.370035 0
M  V30 8770 C 803.706 -3.72189 -2.04146 0
M  V30 8771 C 801.613 -5.82806 -1.00457 0
M  V30 8772 H 800.543 -0.70002 -0.280158 0
M  V30 8773 H 803.194 -1.83499 0.00607151 0
M  V30 8774 H 801.576 -3.31739 -2.16252 0
M  V30 8775 H 802.75 -4.59085 0.397217 0
M  V30 8776 H 801.065 -4.15914 0.201079 0
M  V30 8777 H 803.662 -4.71357 -2.52441 0
M  V30 8778 H 804.005 -3.03268 -2.85192 0
M  V30 8779 H 804.538 -3.75465 -1.3142 0
M  V30 8780 H 801.277 -6.55083 -0.233907 0
M  V30 8781 H 800.797 -5.73944 -1.74209 0
M  V30 8782 H 802.476 -6.28961 -1.51713 0
M  V30 8783 N 802.608 0.318715 -1.54344 0
M  V30 8784 C 803.836 1.0755 -1.7675 0
M  V30 8785 C 804.251 1.81543 -0.518422 0
M  V30 8786 O 803.608 1.75198 0.511078 0
M  V30 8787 C 803.659 2.06983 -2.96378 0
M  V30 8788 O 803.38 1.35995 -4.16458 0
M  V30 8789 C 804.881 2.94841 -3.31034 0
M  V30 8790 H 802.101 0.319711 -0.589937 0
M  V30 8791 H 804.645 0.363369 -2.01246 0
M  V30 8792 H 802.8 2.73724 -2.74142 0
M  V30 8793 H 803.214 2.02623 -4.83781 0
M  V30 8794 H 804.688 3.60496 -4.18027 0
M  V30 8795 H 805.165 3.62199 -2.48412 0
M  V30 8796 H 805.771 2.33656 -3.55366 0
M  V30 8797 N 804.086 1.46499 0.581025 0
M  V30 8798 C 804.996 1.59778 1.71779 0
M  V30 8799 C 806.012 0.481223 1.67213 0
M  V30 8800 O 807.188 0.74557 1.87091 0
M  V30 8801 C 804.253 1.58626 3.08283 0
M  V30 8802 C 803.314 2.81527 3.241 0
M  V30 8803 C 802.547 2.80421 4.54092 0
M  V30 8804 O 802.77 1.89262 5.38085 0
M  V30 8805 O 801.704 3.71984 4.73193 0
M  V30 8806 H 805.53 2.55918 1.63523 0
M  V30 8807 H 803.115 1.29311 0.748267 0
M  V30 8808 H 804.997 1.60686 3.89561 0
M  V30 8809 H 803.672 0.656467 3.16973 0
M  V30 8810 H 802.579 2.85021 2.42309 0
M  V30 8811 H 803.912 3.73721 3.20302 0
M  V30 8812 N 805.565 -0.825799 1.34232 0
M  V30 8813 C 806.497 -1.94401 1.21413 0
M  V30 8814 C 807.51 -1.6218 0.141902 0
M  V30 8815 O 808.699 -1.74109 0.3935 0
M  V30 8816 C 805.799 -3.28257 0.842635 0
M  V30 8817 C 804.972 -3.88521 2.00924 0
M  V30 8818 C 804.031 -5.00752 1.61661 0
M  V30 8819 O 803.057 -5.19201 2.33279 0
M  V30 8820 N 804.259 -5.78084 0.52911 0
M  V30 8821 H 807.024 -2.05931 2.17744 0
M  V30 8822 H 804.585 -1.00223 1.27149 0
M  V30 8823 H 806.577 -4.00781 0.561822 0
M  V30 8824 H 805.147 -3.12585 -0.0304029 0
M  V30 8825 H 804.367 -3.08425 2.45495 0
M  V30 8826 H 805.655 -4.25516 2.78951 0
M  V30 8827 H 805.053 -5.65661 -0.0663322 0
M  V30 8828 H 803.61 -6.51072 0.308017 0
M  V30 8829 N 807.043 -1.17915 -1.04565 0
M  V30 8830 C 807.953 -0.916449 -2.15959 0
M  V30 8831 C 808.969 0.117655 -1.73602 0
M  V30 8832 O 810.145 -0.063089 -2.01301 0
M  V30 8833 C 807.21 -0.440262 -3.43893 0
M  V30 8834 C 806.271 -1.54172 -4.00661 0
M  V30 8835 C 805.504 -1.08816 -5.22489 0
M  V30 8836 O 805.727 0.0551547 -5.70373 0
M  V30 8837 O 804.661 -1.88383 -5.7166 0
M  V30 8838 H 808.487 -1.8484 -2.40972 0
M  V30 8839 H 806.072 -0.960552 -1.14428 0
M  V30 8840 H 807.954 -0.182537 -4.21004 0
M  V30 8841 H 806.629 0.46346 -3.20365 0
M  V30 8842 H 805.536 -1.85341 -3.24961 0
M  V30 8843 H 806.869 -2.42139 -4.2852 0
M  V30 8844 N 808.521 1.23394 -0.980386 0
M  V30 8845 C 809.468 2.24859 -0.520298 0
M  V30 8846 C 810.438 1.60144 0.440821 0
M  V30 8847 O 811.623 1.87593 0.348369 0
M  V30 8848 C 808.763 3.44675 0.171145 0
M  V30 8849 C 807.876 4.23947 -0.830233 0
M  V30 8850 C 807.011 5.31079 -0.113597 0
M  V30 8851 C 806.05 6.02058 -1.10419 0
M  V30 8852 N 805.187 7.00862 -0.416709 0
M  V30 8853 H 810.027 2.63579 -1.39032 0
M  V30 8854 H 807.564 1.29556 -0.696682 0
M  V30 8855 H 809.522 4.13024 0.588838 0
M  V30 8856 H 808.152 3.06755 1.00504 0
M  V30 8857 H 807.204 3.55016 -1.36631 0
M  V30 8858 H 808.516 4.72945 -1.58508 0
M  V30 8859 H 807.67 6.05622 0.36146 0
M  V30 8860 H 806.409 4.83022 0.673854 0
M  V30 8861 H 805.414 5.26307 -1.59 0
M  V30 8862 H 806.639 6.52203 -1.8923 0
M  V30 8863 H 804.585 6.55057 0.351535 0
M  V30 8864 H 804.502 7.47804 -1.11021 0
M  V30 8865 H 805.77 7.79492 0.0359606 0
M  V30 8866 N 809.999 0.752036 1.385 0
M  V30 8867 C 811.276 0.233075 1.94206 0
M  V30 8868 C 811.656 -1.26838 1.68746 0
M  V30 8869 O 811.004 -2.04214 1.02513 0
M  V30 8870 C 811.214 0.58509 3.44061 0
M  V30 8871 C 812.562 0.543871 4.21102 0
M  V30 8872 O 813.586 0.523291 3.52335 0
M  V30 8873 O 812.445 0.553436 5.4369 0
M  V30 8874 H 809.539 0.0483049 0.825588 0
M  V30 8875 H 812.085 0.832053 1.47902 0
M  V30 8876 H 810.857 1.62212 3.56094 0
M  V30 8877 H 810.48 -0.0419738 3.97578 0
M  V30 8878 N 811.477 -1.49425 0.500989 0
M  V30 8879 C 812.724 -2.02453 -0.0435355 0
M  V30 8880 C 813.052 -1.38067 -1.36995 0
M  V30 8881 O 812.307 -0.505557 -1.89057 0
M  V30 8882 C 812.606 -3.56562 -0.24463 0
M  V30 8883 C 812.272 -4.39585 1.00379 0
M  V30 8884 C 810.934 -4.61992 1.346 0
M  V30 8885 C 813.286 -4.87881 1.83361 0
M  V30 8886 C 810.614 -5.2994 2.51755 0
M  V30 8887 C 812.966 -5.57119 2.99669 0
M  V30 8888 C 811.63 -5.77771 3.3427 0
M  V30 8889 H 810.9 -0.740829 -0.0159308 0
M  V30 8890 H 813.547 -1.79725 0.661143 0
M  V30 8891 H 811.852 -3.77969 -1.03183 0
M  V30 8892 H 813.549 -3.95185 -0.6804 0
M  V30 8893 H 810.139 -4.22385 0.727225 0
M  V30 8894 H 814.323 -4.70398 1.58237 0
M  V30 8895 H 809.579 -5.44133 2.788 0
M  V30 8896 H 813.753 -5.93516 3.64296 0
M  V30 8897 H 811.38 -6.30197 4.25154 0
M  V30 8898 N 812.955 -0.234822 -1.55841 0
M  V30 8899 C 813.885 0.664217 -2.23854 0
M  V30 8900 C 814.866 1.19076 -1.2147 0
M  V30 8901 O 816.051 1.23232 -1.50091 0
M  V30 8902 C 813.181 1.86666 -2.9287 0
M  V30 8903 C 812.135 1.47341 -4.01839 0
M  V30 8904 C 811.461 2.75571 -4.58219 0
M  V30 8905 C 812.761 0.653479 -5.18196 0
M  V30 8906 H 814.455 0.0971213 -2.99242 0
M  V30 8907 H 812.001 0.0452724 -1.43929 0
M  V30 8908 H 813.954 2.50116 -3.39146 0
M  V30 8909 H 812.678 2.45894 -2.1495 0
M  V30 8910 H 811.337 0.862314 -3.56314 0
M  V30 8911 H 810.985 3.32971 -3.77014 0
M  V30 8912 H 810.685 2.49987 -5.31771 0
M  V30 8913 H 812.209 3.39939 -5.07221 0
M  V30 8914 H 813.623 1.19198 -5.60771 0
M  V30 8915 H 812.02 0.494188 -5.98062 0
M  V30 8916 H 813.09 -0.337004 -4.83728 0
M  V30 8917 N 814.433 1.57553 0.0384317 0
M  V30 8918 C 815.679 1.89973 0.726772 0
M  V30 8919 C 816.034 0.832381 1.73462 0
M  V30 8920 O 815.327 -0.159975 1.90931 0
M  V30 8921 C 815.521 3.26862 1.44554 0
M  V30 8922 C 815.35 4.46812 0.508814 0
M  V30 8923 C 814.12 5.05124 0.133323 0
M  V30 8924 C 816.318 5.13876 -0.20881 0
M  V30 8925 N 814.3 6.08591 -0.805636 0
M  V30 8926 C 815.671 6.11821 -1.00376 0
M  V30 8927 C 817.726 4.9713 -0.276749 0
M  V30 8928 C 816.429 6.94825 -1.86038 0
M  V30 8929 C 818.455 5.80689 -1.12047 0
M  V30 8930 C 817.817 6.78197 -1.90337 0
M  V30 8931 H 813.916 0.744153 0.240334 0
M  V30 8932 H 816.5 1.94696 -0.0128735 0
M  V30 8933 H 814.671 3.23085 2.1557 0
M  V30 8934 H 816.403 3.46826 2.08552 0
M  V30 8935 H 813.158 4.71022 0.493484 0
M  V30 8936 H 813.582 6.64994 -1.26935 0
M  V30 8937 H 818.224 4.21631 0.314222 0
M  V30 8938 H 815.942 7.69676 -2.46219 0
M  V30 8939 H 819.528 5.69782 -1.17645 0
M  V30 8940 H 818.408 7.41731 -2.54569 0
M  V30 8941 N 815.911 -0.310526 1.54511 0
M  V30 8942 C 817.136 -1.07046 1.7764 0
M  V30 8943 C 817.561 -1.80488 0.529696 0
M  V30 8944 O 816.919 -1.73702 -0.519361 0
M  V30 8945 C 816.967 -2.03411 2.97752 0
M  V30 8946 O 816.071 -3.11545 2.7021 0
M  V30 8947 H 815.412 -0.307994 0.588248 0
M  V30 8948 H 817.942 -0.350848 2.01569 0
M  V30 8949 H 817.952 -2.46048 3.2546 0
M  V30 8950 H 816.627 -1.49361 3.88155 0
M  V30 8951 H 815.204 -2.7349 2.53491 0
M  V30 8952 N 817.389 -1.46805 -0.573248 0
M  V30 8953 C 818.339 -1.54497 -1.67674 0
M  V30 8954 C 819.323 -0.405117 -1.55716 0
M  V30 8955 O 820.515 -0.654097 -1.64471 0
M  V30 8956 C 817.644 -1.54717 -3.0646 0
M  V30 8957 C 816.73 -2.7403 -3.2368 0
M  V30 8958 N 817.121 -3.98871 -3.11023 0
M  V30 8959 C 815.419 -2.70453 -3.54642 0
M  V30 8960 C 816.12 -4.78689 -3.30502 0
M  V30 8961 N 815.096 -4.10727 -3.56096 0
M  V30 8962 H 818.898 -2.48809 -1.56433 0
M  V30 8963 H 816.412 -1.42576 -0.777554 0
M  V30 8964 H 818.409 -1.58316 -3.8567 0
M  V30 8965 H 817.069 -0.614886 -3.18825 0
M  V30 8966 H 818.08 -4.29976 -2.88688 0
M  V30 8967 H 814.757 -1.86291 -3.73633 0
M  V30 8968 H 816.147 -5.87615 -3.2582 0
M  V30 8969 N 818.867 0.818669 -1.34668 0
M  V30 8970 C 820.283 1.11243 -1.14443 0
M  V30 8971 C 820.483 2.01435 0.0512212 0
M  V30 8972 O 819.539 2.41854 0.725471 0
M  V30 8973 C 820.852 1.75504 -2.4417 0
M  V30 8974 C 822.4 1.8798 -2.50265 0
M  V30 8975 C 822.875 2.55657 -3.80004 0
M  V30 8976 N 824.366 2.63153 -3.81189 0
M  V30 8977 C 825.101 3.16258 -4.78298 0
M  V30 8978 N 824.597 3.69893 -5.85791 0
M  V30 8979 N 826.39 3.14698 -4.65748 0
M  V30 8980 H 818.541 0.218848 -2.1127 0
M  V30 8981 H 820.804 0.159655 -0.934459 0
M  V30 8982 H 820.51 1.16697 -3.31775 0
M  V30 8983 H 820.384 2.75329 -2.57825 0
M  V30 8984 H 822.771 2.45934 -1.63096 0
M  V30 8985 H 822.852 0.870447 -2.40535 0
M  V30 8986 H 822.496 1.98356 -4.67565 0
M  V30 8987 H 822.426 3.57105 -3.87019 0
M  V30 8988 H 824.917 2.2514 -3.03513 0
M  V30 8989 H 825.23 4.08678 -6.55898 0
M  V30 8990 H 823.575 3.68125 -5.89499 0
M  V30 8991 H 826.766 2.72066 -3.80917 0
M  V30 8992 H 826.939 3.5578 -5.41594 0
M  V30 8993 N 820.346 1.18468 1.03938 0
M  V30 8994 C 821.296 0.880799 2.103 0
M  V30 8995 C 822.28 -0.150008 1.60199 0
M  V30 8996 O 823.472 0.054213 1.76917 0
M  V30 8997 C 820.601 0.409723 3.40846 0
M  V30 8998 C 819.687 1.47267 3.9771 0
M  V30 8999 N 820.078 2.68945 4.28371 0
M  V30 9000 C 818.376 1.33349 4.25598 0
M  V30 9001 C 819.077 3.37341 4.73894 0
M  V30 9002 N 818.053 2.64725 4.74786 0
M  V30 9003 H 821.855 1.80574 2.31884 0
M  V30 9004 H 819.369 1.07527 1.21703 0
M  V30 9005 H 821.366 0.17352 4.16539 0
M  V30 9006 H 820.026 -0.508862 3.20688 0
M  V30 9007 H 821.037 3.05801 4.17978 0
M  V30 9008 H 817.714 0.477548 4.1476 0
M  V30 9009 H 819.104 4.41338 5.06627 0
M  V30 9010 N 821.824 -1.22873 0.986916 0
M  V30 9011 C 823.054 -1.95204 0.67668 0
M  V30 9012 C 823.462 -1.73193 -0.761641 0
M  V30 9013 O 822.805 -1.0243 -1.52492 0
M  V30 9014 C 822.867 -3.48173 0.895302 0
M  V30 9015 C 822.531 -3.93912 2.31695 0
M  V30 9016 C 823.528 -4.02064 3.29607 0
M  V30 9017 C 821.213 -4.26722 2.64978 0
M  V30 9018 C 823.207 -4.42391 4.58878 0
M  V30 9019 C 820.894 -4.66729 3.94471 0
M  V30 9020 C 821.892 -4.74531 4.91232 0
M  V30 9021 O 821.58 -5.13636 6.18412 0
M  V30 9022 H 821.312 -0.628105 0.24992 0
M  V30 9023 H 823.866 -1.5714 1.32274 0
M  V30 9024 H 822.096 -3.86223 0.192072 0
M  V30 9025 H 823.785 -4.01717 0.581233 0
M  V30 9026 H 824.551 -3.76912 3.05225 0
M  V30 9027 H 820.43 -4.19858 1.9037 0
M  V30 9028 H 823.974 -4.48395 5.34404 0
M  V30 9029 H 819.871 -4.91332 4.18645 0
M  V30 9030 H 820.639 -5.31728 6.2226 0
M  V30 9031 N 823.302 -0.75937 -1.38099 0
M  V30 9032 C 824.542 -0.323116 -2.0183 0
M  V30 9033 C 824.906 1.07658 -1.58977 0
M  V30 9034 O 826.107 1.61227 -2.1508 0
M  V30 9035 C 824.378 -0.448234 -3.54578 0
M  V30 9036 S 825.937 -0.0954152 -4.38696 0
M  V30 9037 H 822.755 -0.125013 -0.699923 0
M  V30 9038 H 825.357 -0.991262 -1.68506 0
M  V30 9039 H 824.061 -1.46778 -3.83255 0
M  V30 9040 H 823.592 0.236895 -3.92686 0
M  V30 9041 H 825.607 1.11312 -4.83554 0
M  V30 9042 N 824.78 1.49157 -0.508906 0
M  V30 9043 C 826.026 2.02773 0.0328469 0
M  V30 9044 C 826.359 1.38714 1.35912 0
M  V30 9045 O 825.634 0.525536 1.87266 0
M  V30 9046 C 825.917 3.59664 0.177088 0
M  V30 9047 C 825.77 4.34239 -1.17287 0
M  V30 9048 C 827.089 4.30505 0.913977 0
M  V30 9049 H 824.208 0.736926 0.0104631 0
M  V30 9050 H 826.85 1.781 -0.661851 0
M  V30 9051 H 825 3.80818 0.768774 0
M  V30 9052 H 826.672 4.24561 -1.80404 0
M  V30 9053 H 824.915 3.96486 -1.76016 0
M  V30 9054 H 825.586 5.42397 -1.02516 0
M  V30 9055 H 828.062 4.14054 0.412084 0
M  V30 9056 H 826.938 5.40012 0.983759 0
M  V30 9057 H 827.199 3.96302 1.95951 0
M  V30 9058 N 826.258 0.243083 1.55714 0
M  V30 9059 C 827.486 -0.386971 2.03249 0
M  V30 9060 C 827.901 -1.51812 1.12243 0
M  V30 9061 O 827.258 -1.81992 0.136119 0
M  V30 9062 C 827.309 -0.898361 3.5016 0
M  V30 9063 O 827.03 0.187708 4.37698 0
M  V30 9064 C 828.531 -1.59949 4.13438 0
M  V30 9065 H 825.751 -0.0923981 0.664608 0
M  V30 9066 H 828.295 0.365832 2.01201 0
M  V30 9067 H 826.45 -1.60136 3.52754 0
M  V30 9068 H 826.864 -0.200001 5.24119 0
M  V30 9069 H 828.338 -1.90907 5.17937 0
M  V30 9070 H 828.815 -2.52014 3.59702 0
M  V30 9071 H 829.421 -0.941163 4.14756 0
M  V30 9072 N 827.736 -1.57571 -0.0300757 0
M  V30 9073 C 828.985 -1.88407 -0.720126 0
M  V30 9074 C 829.298 -0.841466 -1.76575 0
M  V30 9075 O 830.504 -1.03902 -2.50832 0
M  V30 9076 C 828.96 -3.34348 -1.33188 0
M  V30 9077 C 828.568 -4.46837 -0.32266 0
M  V30 9078 C 830.312 -3.74333 -2.00187 0
M  V30 9079 C 828.219 -5.83838 -0.942703 0
M  V30 9080 H 827.149 -0.702952 -0.272718 0
M  V30 9081 H 829.8 -1.83482 0.0255337 0
M  V30 9082 H 828.182 -3.34014 -2.12721 0
M  V30 9083 H 829.356 -4.58638 0.445887 0
M  V30 9084 H 827.671 -4.15678 0.245181 0
M  V30 9085 H 830.268 -4.74008 -2.47428 0
M  V30 9086 H 830.611 -3.06275 -2.81959 0
M  V30 9087 H 831.144 -3.76837 -1.2743 0
M  V30 9088 H 827.883 -6.55294 -0.164413 0
M  V30 9089 H 827.403 -5.75759 -1.68111 0
M  V30 9090 H 829.082 -6.30535 -1.45034 0
M  V30 9091 N 829.214 0.302327 -1.54673 0
M  V30 9092 C 830.625 0.875409 -1.64904 0
M  V30 9093 C 830.976 1.88132 -0.55684 0
M  V30 9094 O 830.101 2.14215 0.306754 0
M  V30 9095 C 830.696 1.59457 -2.9893 0
M  V30 9096 C 829.255 2.11607 -3.11287 0
M  V30 9097 C 828.402 0.948324 -2.6058 0
M  V30 9098 H 831.353 0.079362 -1.58501 0
M  V30 9099 H 831.374 2.46005 -2.90279 0
M  V30 9100 H 830.886 0.8622 -3.78402 0
M  V30 9101 H 828.987 2.87895 -2.36532 0
M  V30 9102 H 829.1 2.35151 -4.17422 0
M  V30 9103 H 827.464 1.33352 -2.17001 0
M  V30 9104 H 828.247 0.229936 -3.42529 0
M  V30 9105 N 830.692 1.47107 0.565454 0
M  V30 9106 C 831.602 1.61591 1.70075 0
M  V30 9107 C 832.618 0.498931 1.66693 0
M  V30 9108 O 833.794 0.765372 1.8629 0
M  V30 9109 C 830.859 1.61887 3.06583 0
M  V30 9110 C 829.92 2.84949 3.21096 0
M  V30 9111 C 829.153 2.85221 4.51093 0
M  V30 9112 O 829.376 1.94959 5.36048 0
M  V30 9113 O 828.31 3.76982 4.69221 0
M  V30 9114 H 832.136 2.57638 1.60799 0
M  V30 9115 H 829.721 1.30097 0.73451 0
M  V30 9116 H 831.603 1.64809 3.87835 0
M  V30 9117 H 830.278 0.69005 3.16259 0
M  V30 9118 H 829.185 2.87575 2.39273 0
M  V30 9119 H 830.518 3.77098 3.1632 0
M  V30 9120 N 832.17 -0.811516 1.35101 0
M  V30 9121 C 833.419 -1.56343 1.27435 0
M  V30 9122 C 833.732 -1.95019 -0.150696 0
M  V30 9123 O 834.938 -2.6924 -0.349586 0
M  V30 9124 C 833.394 -2.82124 2.23459 0
M  V30 9125 C 833.002 -2.50706 3.71283 0
M  V30 9126 C 834.746 -3.60137 2.24726 0
M  V30 9127 C 832.653 -3.72748 4.59143 0
M  V30 9128 H 831.583 -0.58682 0.473453 0
M  V30 9129 H 834.234 -0.892465 1.60335 0
M  V30 9130 H 832.616 -3.50905 1.83525 0
M  V30 9131 H 833.79 -1.89962 4.19823 0
M  V30 9132 H 832.105 -1.85947 3.72576 0
M  V30 9133 H 834.702 -4.50775 2.87587 0
M  V30 9134 H 835.045 -3.97101 1.24965 0
M  V30 9135 H 835.578 -2.98311 2.63164 0
M  V30 9136 H 832.317 -3.40896 5.59884 0
M  V30 9137 H 831.837 -4.32735 4.15332 0
M  V30 9138 H 833.516 -4.40033 4.74321 0
M  V30 9139 N 833.648 -1.19017 -1.03309 0
M  V30 9140 C 834.578 -0.94772 -2.13402 0
M  V30 9141 C 835.559 0.117383 -1.69694 0
M  V30 9142 O 836.744 -0.0367733 -1.94165 0
M  V30 9143 C 833.874 -0.480977 -3.43953 0
M  V30 9144 C 832.828 -1.48743 -4.01322 0
M  V30 9145 C 832.154 -0.877924 -5.27443 0
M  V30 9146 C 833.454 -2.86642 -4.36616 0
M  V30 9147 H 835.148 -1.86846 -2.33942 0
M  V30 9148 H 832.694 -0.899781 -1.12427 0
M  V30 9149 H 834.647 -0.298677 -4.2034 0
M  V30 9150 H 833.371 0.475348 -3.23122 0
M  V30 9151 H 832.03 -1.65681 -3.27025 0
M  V30 9152 H 831.678 0.0858232 -5.02927 0
M  V30 9153 H 831.378 -1.54996 -5.66789 0
M  V30 9154 H 832.902 -0.706326 -6.06501 0
M  V30 9155 H 834.316 -2.73312 -5.03958 0
M  V30 9156 H 832.713 -3.50599 -4.87032 0
M  V30 9157 H 833.783 -3.39617 -3.46105 0
M  V30 9158 N 835.127 1.22348 -0.993418 0
M  V30 9159 C 836.538 1.72893 -0.704616 0
M  V30 9160 C 836.889 1.80095 0.778483 0
M  V30 9161 O 836.014 1.4476 1.60853 0
M  V30 9162 C 836.609 3.14 -1.27237 0
M  V30 9163 C 835.168 3.61949 -1.03294 0
M  V30 9164 C 834.315 2.39816 -1.39225 0
M  V30 9165 H 837.266 1.07688 -1.16572 0
M  V30 9166 H 837.287 3.74886 -0.651212 0
M  V30 9167 H 836.799 3.08727 -2.3518 0
M  V30 9168 H 834.9 3.72588 0.0298329 0
M  V30 9169 H 835.013 4.48051 -1.69668 0
M  V30 9170 H 833.377 2.41448 -0.810849 0
M  V30 9171 H 834.16 2.37203 -2.48172 0
M  V30 9172 N 836.605 0.766683 1.37694 0
M  V30 9173 C 837.552 0.147725 2.30327 0
M  V30 9174 C 838.522 -0.695366 1.50844 0
M  V30 9175 O 839.707 -0.64878 1.79431 0
M  V30 9176 C 836.847 -0.72935 3.37305 0
M  V30 9177 C 835.96 0.129795 4.31805 0
M  V30 9178 C 835.095 -0.751511 5.25857 0
M  V30 9179 C 834.134 0.110475 6.12 0
M  V30 9180 N 833.271 -0.728522 6.9831 0
M  V30 9181 H 838.111 0.943204 2.82679 0
M  V30 9182 H 835.648 0.476736 1.3916 0
M  V30 9183 H 837.606 -1.25263 3.97951 0
M  V30 9184 H 836.236 -1.49048 2.86329 0
M  V30 9185 H 835.288 0.770829 3.72508 0
M  V30 9186 H 836.6 0.794923 4.92425 0
M  V30 9187 H 835.754 -1.34146 5.91684 0
M  V30 9188 H 834.493 -1.45034 4.65636 0
M  V30 9189 H 833.498 0.712999 5.45157 0
M  V30 9190 H 834.723 0.806557 6.74293 0
M  V30 9191 H 832.669 -1.41206 6.40622 0
M  V30 9192 H 832.586 -0.12058 7.55904 0
M  V30 9193 H 833.854 -1.30303 7.68532 0
M  V30 9194 N 838.083 -1.48885 0.516809 0
M  V30 9195 C 839.013 -2.32241 -0.242157 0
M  V30 9196 C 839.994 -1.41258 -0.947633 0
M  V30 9197 O 841.179 -1.70156 -0.935973 0
M  V30 9198 C 838.309 -3.22151 -1.29754 0
M  V30 9199 C 837.263 -4.22053 -0.710995 0
M  V30 9200 C 836.589 -5.01007 -1.86806 0
M  V30 9201 C 837.889 -5.21388 0.30853 0
M  V30 9202 H 839.583 -2.95943 0.453651 0
M  V30 9203 H 837.129 -1.42316 0.219612 0
M  V30 9204 H 839.082 -3.79284 -1.83634 0
M  V30 9205 H 837.806 -2.56423 -2.02274 0
M  V30 9206 H 836.465 -3.66087 -0.193819 0
M  V30 9207 H 836.113 -4.31713 -2.58133 0
M  V30 9208 H 835.813 -5.68615 -1.48159 0
M  V30 9209 H 837.337 -5.60989 -2.4109 0
M  V30 9210 H 838.751 -5.73122 -0.142703 0
M  V30 9211 H 837.148 -5.96975 0.611673 0
M  V30 9212 H 838.218 -4.69329 1.21894 0
M  V30 9213 N 839.561 -0.251338 -1.55583 0
M  V30 9214 C 840.491 0.640437 -2.24545 0
M  V30 9215 C 841.472 1.17781 -1.22726 0
M  V30 9216 O 842.657 1.21633 -1.5139 0
M  V30 9217 C 839.787 1.8355 -2.94834 0
M  V30 9218 C 838.741 1.4307 -4.03379 0
M  V30 9219 C 838.067 2.70695 -4.61116 0
M  V30 9220 C 839.367 0.59848 -5.1886 0
M  V30 9221 H 841.061 0.0653772 -2.99329 0
M  V30 9222 H 838.607 0.0300042 -1.43969 0
M  V30 9223 H 840.56 2.46505 -3.4178 0
M  V30 9224 H 839.284 2.43601 -2.17546 0
M  V30 9225 H 837.943 0.824474 -3.57209 0
M  V30 9226 H 837.591 3.28954 -3.80524 0
M  V30 9227 H 837.291 2.44332 -5.34393 0
M  V30 9228 H 838.815 3.34541 -5.10798 0
M  V30 9229 H 840.229 1.13244 -5.62004 0
M  V30 9230 H 838.626 0.430728 -5.98552 0
M  V30 9231 H 839.696 -0.38829 -4.83343 0
M  V30 9232 N 841.039 1.57585 0.0217189 0
M  V30 9233 C 841.969 2.10073 1.01939 0
M  V30 9234 C 842.95 1.0049 1.37243 0
M  V30 9235 O 844.135 1.28055 1.45999 0
M  V30 9236 C 841.265 2.58618 2.31806 0
M  V30 9237 C 840.219 3.72531 2.10724 0
M  V30 9238 C 839.545 4.07309 3.46415 0
M  V30 9239 C 840.845 5.00672 1.48743 0
M  V30 9240 H 842.539 2.9368 0.582432 0
M  V30 9241 H 840.085 1.41277 0.278715 0
M  V30 9242 H 842.038 2.9396 3.01936 0
M  V30 9243 H 840.762 1.72104 2.77575 0
M  V30 9244 H 839.421 3.37549 1.43025 0
M  V30 9245 H 839.069 3.17851 3.89846 0
M  V30 9246 H 838.769 4.84042 3.33132 0
M  V30 9247 H 840.293 4.45192 4.17895 0
M  V30 9248 H 841.707 5.33925 2.088 0
M  V30 9249 H 840.104 5.82065 1.46013 0
M  V30 9250 H 841.174 4.82769 0.45408 0
M  V30 9251 N 842.517 -0.29412 1.54831 0
M  V30 9252 C 843.742 -1.05156 1.78765 0
M  V30 9253 C 844.167 -1.79916 0.548809 0
M  V30 9254 O 843.525 -1.74243 -0.500909 0
M  V30 9255 C 843.573 -2.00242 2.99893 0
M  V30 9256 O 842.677 -3.08662 2.73499 0
M  V30 9257 H 842.018 -0.301737 0.591482 0
M  V30 9258 H 844.548 -0.329449 2.0193 0
M  V30 9259 H 844.558 -2.42583 3.28051 0
M  V30 9260 H 843.233 -1.45235 3.89717 0
M  V30 9261 H 841.81 -2.70786 2.56377 0
M  V30 9262 N 843.995 -1.47404 -0.557645 0
M  V30 9263 C 845.241 -1.54235 -1.31679 0
M  V30 9264 C 845.574 -0.203782 -1.93128 0
M  V30 9265 O 844.849 0.787536 -1.77843 0
M  V30 9266 C 845.132 -2.66003 -2.42723 0
M  V30 9267 C 844.985 -4.09475 -1.86145 0
M  V30 9268 C 846.304 -2.73685 -3.44652 0
M  V30 9269 H 843.423 -0.561466 -0.477415 0
M  V30 9270 H 846.065 -1.79459 -0.624067 0
M  V30 9271 H 844.215 -2.44627 -3.01811 0
M  V30 9272 H 845.887 -4.42213 -1.31321 0
M  V30 9273 H 844.13 -4.17774 -1.16823 0
M  V30 9274 H 844.801 -4.83451 -2.66418 0
M  V30 9275 H 847.277 -2.92968 -2.95481 0
M  V30 9276 H 846.153 -3.53665 -4.19777 0
M  V30 9277 H 846.414 -1.80726 -4.03473 0
M  V30 9278 N 845.473 0.80434 -1.35529 0
M  V30 9279 C 846.42 1.91629 -1.28635 0
M  V30 9280 C 847.39 1.65348 -0.157862 0
M  V30 9281 O 848.575 1.87711 -0.341934 0
M  V30 9282 C 845.715 3.28207 -1.0665 0
M  V30 9283 C 844.828 3.66659 -2.28441 0
M  V30 9284 C 843.963 4.92279 -1.99588 0
M  V30 9285 C 843.002 5.23365 -3.1742 0
M  V30 9286 N 842.139 6.40165 -2.88328 0
M  V30 9287 H 846.979 1.96858 -2.23721 0
M  V30 9288 H 844.516 0.962871 -1.11208 0
M  V30 9289 H 846.474 4.06945 -0.919343 0
M  V30 9290 H 845.104 3.22441 -0.152253 0
M  V30 9291 H 844.156 2.83164 -2.54013 0
M  V30 9292 H 845.468 3.8559 -3.1642 0
M  V30 9293 H 844.622 5.78847 -1.81715 0
M  V30 9294 H 843.361 4.75387 -1.08896 0
M  V30 9295 H 842.366 4.35285 -3.35867 0
M  V30 9296 H 843.591 5.42185 -4.08916 0
M  V30 9297 H 841.537 6.24694 -2.00233 0
M  V30 9298 H 841.454 6.59357 -3.69843 0
M  V30 9299 H 842.722 7.29755 -2.74002 0
M  V30 9300 N 846.951 1.19563 1.02676 0
M  V30 9301 C 848.197 1.01108 1.7649 0
M  V30 9302 C 848.552 -0.453152 1.86987 0
M  V30 9303 O 847.845 -1.33209 1.37717 0
M  V30 9304 C 848.039 1.61619 3.18769 0
M  V30 9305 C 847.868 3.13774 3.22142 0
M  V30 9306 C 846.638 3.82687 3.29968 0
M  V30 9307 C 848.836 4.11114 3.09014 0
M  V30 9308 N 846.818 5.2222 3.22737 0
M  V30 9309 C 848.189 5.37259 3.0944 0
M  V30 9310 C 850.244 4.02447 2.93157 0
M  V30 9311 C 848.947 6.55738 2.95636 0
M  V30 9312 C 850.973 5.20538 2.80703 0
M  V30 9313 C 850.335 6.45582 2.81785 0
M  V30 9314 H 846.434 0.424123 0.656996 0
M  V30 9315 H 849.018 1.5157 1.22207 0
M  V30 9316 H 847.189 1.13756 3.71368 0
M  V30 9317 H 848.921 1.36579 3.80957 0
M  V30 9318 H 845.676 3.3349 3.36275 0
M  V30 9319 H 846.1 5.95238 3.22523 0
M  V30 9320 H 850.742 3.0659 2.9114 0
M  V30 9321 H 848.46 7.51778 2.96403 0
M  V30 9322 H 852.046 5.15635 2.69466 0
M  V30 9323 H 850.926 7.35423 2.72254 0
M  V30 9324 N 848.429 -1.21819 0.999893 0
M  V30 9325 C 849.377 -2.26027 0.549047 0
M  V30 9326 C 850.371 -1.64516 -0.403826 0
M  V30 9327 O 851.577 -1.77878 -0.275578 0
M  V30 9328 H 847.952 -0.734958 0.159185 0
M  V30 9329 H 849.923 -2.61398 1.43923 0
M  V30 9330 C 848.672 -3.47514 -0.11369 0
M  V30 9331 H 847.995 -3.95112 0.610482 0
M  V30 9332 H 849.435 -4.22179 -0.3925 0
M  V30 9333 C 847.894 -3.08614 -1.35126 0
M  V30 9334 O 848.424 -3.1864 -2.44605 0
M  V30 9335 N 846.63 -2.63327 -1.22911 0
M  V30 9336 H 846.177 -2.55369 -0.338288 0
M  V30 9337 H 846.135 -2.37668 -2.05818 0
M  V30 9338 N 849.908 -0.773975 -1.37286 0
M  V30 9339 C 851.133 -0.349561 -2.04433 0
M  V30 9340 C 851.558 1.02082 -1.5799 0
M  V30 9341 O 850.916 1.65458 -0.741172 0
M  V30 9342 C 850.964 -0.404292 -3.58326 0
M  V30 9343 O 850.068 0.594447 -4.08093 0
M  V30 9344 H 849.409 -0.150959 -0.646612 0
M  V30 9345 H 851.939 -1.05079 -1.75555 0
M  V30 9346 H 851.949 -0.262378 -4.07155 0
M  V30 9347 H 850.624 -1.40403 -3.91484 0
M  V30 9348 H 849.201 0.415468 -3.70578 0
M  V30 9349 N 851.386 1.48609 -0.524698 0
M  V30 9350 C 852.802 1.58557 -0.182199 0
M  V30 9351 C 853.002 1.52732 1.31435 0
M  V30 9352 O 852.058 1.41362 2.0922 0
M  V30 9353 C 853.371 2.90406 -0.78004 0
M  V30 9354 C 854.919 3.03924 -0.748293 0
M  V30 9355 C 855.394 4.38427 -1.32462 0
M  V30 9356 N 856.885 4.4498 -1.28635 0
M  V30 9357 C 857.62 5.47551 -1.70223 0
M  V30 9358 N 857.116 6.57103 -2.19515 0
M  V30 9359 N 858.909 5.38402 -1.61493 0
M  V30 9360 H 851.06 1.50638 -1.4974 0
M  V30 9361 H 853.323 0.714952 -0.622533 0
M  V30 9362 H 853.029 3.00308 -1.83052 0
M  V30 9363 H 852.903 3.76343 -0.254075 0
M  V30 9364 H 855.29 2.93638 0.293407 0
M  V30 9365 H 855.371 2.19611 -1.31167 0
M  V30 9366 H 855.015 4.49466 -2.36522 0
M  V30 9367 H 854.945 5.21418 -0.736967 0
M  V30 9368 H 857.436 3.66393 -0.92545 0
M  V30 9369 H 857.749 7.31499 -2.49257 0
M  V30 9370 H 856.094 6.58081 -2.23506 0
M  V30 9371 H 859.285 4.5171 -1.22785 0
M  V30 9372 H 859.458 6.18208 -1.94225 0
M  V30 9373 N 852.864 0.259585 1.55447 0
M  V30 9374 C 854.141 -0.412595 1.91199 0
M  V30 9375 C 854.521 -1.74909 1.18194 0
M  V30 9376 O 853.869 -2.26474 0.303603 0
M  V30 9377 C 854.079 -0.568195 3.44344 0
M  V30 9378 C 855.427 -0.858253 4.15836 0
M  V30 9379 O 856.451 -0.653588 3.50152 0
M  V30 9380 O 855.31 -1.24874 5.32042 0
M  V30 9381 H 852.404 -0.223403 0.796254 0
M  V30 9382 H 854.95 0.30459 1.66944 0
M  V30 9383 H 853.722 0.372989 3.89518 0
M  V30 9384 H 853.345 -1.33544 3.74502 0
M  V30 9385 N 854.342 -1.57594 -0.0133615 0
M  V30 9386 C 855.252 -2.10991 -1.02566 0
M  V30 9387 C 856.268 -1.05208 -1.3859 0
M  V30 9388 O 857.444 -1.37034 -1.47593 0
M  V30 9389 C 854.509 -2.59165 -2.30292 0
M  V30 9390 C 853.57 -3.79495 -2.00704 0
M  V30 9391 C 852.803 -4.25361 -3.22341 0
M  V30 9392 O 853.026 -3.70645 -4.33565 0
M  V30 9393 O 851.96 -5.17649 -3.07121 0
M  V30 9394 H 855.786 -2.97678 -0.601806 0
M  V30 9395 H 853.371 -1.47598 -0.23135 0
M  V30 9396 H 855.253 -2.90409 -3.05354 0
M  V30 9397 H 853.928 -1.75582 -2.71942 0
M  V30 9398 H 852.835 -3.53245 -1.23161 0
M  V30 9399 H 854.168 -4.64109 -1.639 0
M  V30 9400 N 855.82 0.285905 -1.54985 0
M  V30 9401 C 857.066 1.02071 -1.75241 0
M  V30 9402 C 857.399 1.864 -0.544842 0
M  V30 9403 O 856.674 1.89034 0.457844 0
M  V30 9404 C 856.957 1.91409 -3.05016 0
M  V30 9405 C 856.81 1.10158 -4.36102 0
M  V30 9406 C 858.129 2.90335 -3.30747 0
M  V30 9407 H 855.248 0.369663 -0.637588 0
M  V30 9408 H 857.89 0.294114 -1.8771 0
M  V30 9409 H 856.04 2.53362 -2.94517 0
M  V30 9410 H 857.712 0.503756 -4.58541 0
M  V30 9411 H 855.955 0.404675 -4.31908 0
M  V30 9412 H 856.626 1.75956 -5.23205 0
M  V30 9413 H 859.102 2.38514 -3.40955 0
M  V30 9414 H 857.978 3.49997 -4.2284 0
M  V30 9415 H 858.239 3.64787 -2.49765 0
M  V30 9416 N 857.298 1.47698 0.54982 0
M  V30 9417 C 858.261 1.60282 1.63837 0
M  V30 9418 C 859.261 0.477394 1.5355 0
M  V30 9419 O 860.451 0.742665 1.57576 0
M  V30 9420 C 857.583 1.55431 3.03404 0
M  V30 9421 H 858.776 2.57325 1.54026 0
M  V30 9422 H 856.329 1.35999 0.770329 0
M  V30 9423 H 857.064 0.597912 3.1874 0
M  V30 9424 H 856.849 2.37116 3.12279 0
M  V30 9425 H 858.339 1.6739 3.82584 0
M  V30 9426 N 858.776 -0.797141 1.35954 0
M  V30 9427 C 859.708 -1.91782 1.25509 0
M  V30 9428 C 860.721 -1.61843 0.176271 0
M  V30 9429 O 861.91 -1.73235 0.430343 0
M  V30 9430 C 859.01 -3.26396 0.912073 0
M  V30 9431 C 858.183 -3.84171 2.0912 0
M  V30 9432 C 857.242 -4.9721 1.72246 0
M  V30 9433 O 856.268 -5.14136 2.44239 0
M  V30 9434 N 857.47 -5.76831 0.651611 0
M  V30 9435 H 860.235 -2.01266 2.22063 0
M  V30 9436 H 857.796 -0.975033 1.29247 0
M  V30 9437 H 859.788 -3.99499 0.646707 0
M  V30 9438 H 858.358 -3.12579 0.0359079 0
M  V30 9439 H 857.578 -3.03148 2.51982 0
M  V30 9440 H 858.866 -4.19503 2.87914 0
M  V30 9441 H 858.264 -5.65675 0.0536678 0
M  V30 9442 H 856.821 -6.50272 0.44605 0
M  V30 9443 N 860.254 -1.20106 -1.0204 0
M  V30 9444 C 861.187 -0.889795 -2.10138 0
M  V30 9445 C 862.165 0.156595 -1.61844 0
M  V30 9446 O 863.349 0.0310192 -1.88474 0
M  V30 9447 C 860.476 -0.333227 -3.37057 0
M  V30 9448 C 859.522 -1.36001 -4.04235 0
M  V30 9449 S 860.355 -2.92366 -4.48645 0
M  V30 9450 C 861.511 -2.38274 -5.78771 0
M  V30 9451 H 861.744 -1.80523 -2.36217 0
M  V30 9452 H 859.277 -1.02912 -1.15102 0
M  V30 9453 H 861.235 -0.0186507 -4.10496 0
M  V30 9454 H 859.896 0.560652 -3.09056 0
M  V30 9455 H 859.089 -0.919874 -4.95534 0
M  V30 9456 H 858.691 -1.62186 -3.37004 0
M  V30 9457 H 860.983 -1.77799 -6.53754 0
M  V30 9458 H 861.926 -3.27955 -6.27576 0
M  V30 9459 H 862.334 -1.8054 -5.34851 0
M  V30 9460 N 861.732 1.21287 -1.00634 0
M  V30 9461 C 862.962 1.94103 -0.70765 0
M  V30 9462 C 863.37 1.74382 0.733991 0
M  V30 9463 O 862.713 1.04843 1.50843 0
M  V30 9464 C 862.775 3.46705 -0.950581 0
M  V30 9465 C 862.439 3.90176 -2.37932 0
M  V30 9466 C 863.436 3.96769 -3.35961 0
M  V30 9467 C 861.121 4.22453 -2.71733 0
M  V30 9468 C 863.115 4.35034 -4.65858 0
M  V30 9469 C 860.802 4.60394 -4.01846 0
M  V30 9470 C 861.8 4.66656 -4.9872 0
M  V30 9471 O 861.488 5.03732 -6.26505 0
M  V30 9472 H 861.22 0.62405 -0.259881 0
M  V30 9473 H 863.774 1.55015 -1.34757 0
M  V30 9474 H 862.004 3.85868 -0.253492 0
M  V30 9475 H 863.693 4.00741 -0.645069 0
M  V30 9476 H 864.459 3.72009 -3.11182 0
M  V30 9477 H 860.338 4.16776 -1.97025 0
M  V30 9478 H 863.882 4.39836 -5.4147 0
M  V30 9479 H 859.779 4.84609 -4.26409 0
M  V30 9480 H 860.547 5.21761 -6.30641 0
M  V30 9481 N 863.21 0.781244 1.36873 0
M  V30 9482 C 864.45 0.355185 2.0129 0
M  V30 9483 C 864.814 -1.05115 1.6067 0
M  V30 9484 O 866.015 -1.57785 2.17618 0
M  V30 9485 C 864.286 0.504587 3.5382 0
M  V30 9486 S 865.845 0.165196 4.38489 0
M  V30 9487 H 862.663 0.136133 0.697846 0
M  V30 9488 H 865.265 1.01794 1.66908 0
M  V30 9489 H 863.969 1.52857 3.80871 0
M  V30 9490 H 863.5 -0.174392 3.93013 0
M  V30 9491 H 865.515 -1.03605 4.85263 0
M  V30 9492 N 864.689 -1.48329 0.532571 0
M  V30 9493 C 865.619 -2.32485 -0.217511 0
M  V30 9494 C 866.6 -1.42255 -0.932598 0
M  V30 9495 O 867.785 -1.7114 -0.917873 0
M  V30 9496 C 864.915 -3.23509 -1.26329 0
M  V30 9497 C 863.869 -4.22784 -0.666191 0
M  V30 9498 C 863.195 -5.0296 -1.81482 0
M  V30 9499 C 864.495 -5.21031 0.363813 0
M  V30 9500 H 866.189 -2.95445 0.485014 0
M  V30 9501 H 863.735 -1.42075 0.234694 0
M  V30 9502 H 865.688 -3.81211 -1.79601 0
M  V30 9503 H 864.412 -2.58554 -1.99543 0
M  V30 9504 H 863.071 -3.66272 -0.15498 0
M  V30 9505 H 862.719 -4.34427 -2.5354 0
M  V30 9506 H 862.419 -5.70154 -1.4212 0
M  V30 9507 H 863.943 -5.63514 -2.35126 0
M  V30 9508 H 865.357 -5.73241 -0.0819079 0
M  V30 9509 H 863.754 -5.96292 0.674956 0
M  V30 9510 H 864.824 -4.6801 1.26865 0
M  V30 9511 N 866.167 -0.267825 -1.55308 0
M  V30 9512 C 867.413 0.351556 -1.9973 0
M  V30 9513 C 867.746 1.56049 -1.15596 0
M  V30 9514 O 867.021 1.93203 -0.224274 0
M  V30 9515 C 867.304 0.74091 -3.52395 0
M  V30 9516 C 867.157 -0.474861 -4.47286 0
M  V30 9517 C 868.476 1.5801 -4.10756 0
M  V30 9518 H 865.595 0.126308 -0.726096 0
M  V30 9519 H 868.237 -0.373316 -1.86296 0
M  V30 9520 H 866.387 1.35851 -3.63973 0
M  V30 9521 H 868.059 -1.1134 -4.47662 0
M  V30 9522 H 866.302 -1.11425 -4.19246 0
M  V30 9523 H 866.973 -0.158782 -5.51772 0
M  V30 9524 H 869.449 1.05857 -4.0241 0
M  V30 9525 H 868.325 1.82135 -5.17801 0
M  V30 9526 H 868.586 2.55878 -3.60526 0
M  V30 9527 N 867.645 1.57599 0.00500368 0
M  V30 9528 C 868.592 2.08106 0.998025 0
M  V30 9529 C 869.562 0.975374 1.34446 0
M  V30 9530 O 870.747 1.24749 1.44369 0
M  V30 9531 C 867.887 2.58496 2.28635 0
M  V30 9532 C 867 3.82947 1.99939 0
M  V30 9533 C 866.135 4.21857 3.22816 0
M  V30 9534 C 865.174 5.39159 2.89783 0
M  V30 9535 N 864.311 5.73386 4.05183 0
M  V30 9536 H 869.151 2.92684 0.560385 0
M  V30 9537 H 866.688 1.44692 0.265053 0
M  V30 9538 H 868.646 2.85787 3.03943 0
M  V30 9539 H 867.276 1.768 2.70077 0
M  V30 9540 H 866.328 3.62594 1.1502 0
M  V30 9541 H 867.64 4.68358 1.71588 0
M  V30 9542 H 866.794 4.50404 4.06474 0
M  V30 9543 H 865.533 3.35145 3.54301 0
M  V30 9544 H 864.538 5.1034 2.04532 0
M  V30 9545 H 865.763 6.27543 2.59551 0
M  V30 9546 H 863.709 4.89632 4.36574 0
M  V30 9547 H 863.626 6.53359 3.80339 0
M  V30 9548 H 864.894 6.06522 4.89644 0
M  V30 9549 N 869.123 -0.277682 1.55134 0
M  V30 9550 C 870.4 -1.0309 1.66228 0
M  V30 9551 C 870.78 -2.0445 0.525701 0
M  V30 9552 O 870.128 -2.23512 -0.474816 0
M  V30 9553 C 870.338 -1.6919 3.05247 0
M  V30 9554 C 871.686 -2.20526 3.62841 0
M  V30 9555 O 872.71 -1.79185 3.07849 0
M  V30 9556 O 871.569 -2.96342 4.59177 0
M  V30 9557 H 868.663 -0.4779 0.674937 0
M  V30 9558 H 871.209 -0.273912 1.67475 0
M  V30 9559 H 869.981 -0.957163 3.79413 0
M  V30 9560 H 869.604 -2.51587 3.07879 0
M  V30 9561 N 870.601 -1.47988 -0.541979 0
M  V30 9562 C 871.847 -1.56604 -1.29795 0
M  V30 9563 C 872.202 -0.231728 -1.90999 0
M  V30 9564 O 871.495 0.764203 -1.757 0
M  V30 9565 C 871.689 -2.63189 -2.41798 0
M  V30 9566 C 871.518 -4.06855 -1.9157 0
M  V30 9567 C 870.288 -4.74132 -1.74719 0
M  V30 9568 C 872.486 -4.934 -1.45123 0
M  V30 9569 N 870.468 -6.02258 -1.18991 0
M  V30 9570 C 871.839 -6.11675 -1.01263 0
M  V30 9571 C 873.894 -4.7972 -1.33315 0
M  V30 9572 C 872.597 -7.17778 -0.467663 0
M  V30 9573 C 874.623 -5.85934 -0.802192 0
M  V30 9574 C 873.985 -7.03409 -0.373595 0
M  V30 9575 H 870.084 -0.627677 -0.466418 0
M  V30 9576 H 872.668 -1.84812 -0.612576 0
M  V30 9577 H 870.839 -2.36823 -3.07846 0
M  V30 9578 H 872.571 -2.6156 -3.08818 0
M  V30 9579 H 869.326 -4.30276 -1.97887 0
M  V30 9580 H 869.75 -6.70558 -0.931715 0
M  V30 9581 H 874.392 -3.89249 -1.6506 0
M  V30 9582 H 872.11 -8.07982 -0.137874 0
M  V30 9583 H 875.696 -5.774 -0.714171 0
M  V30 9584 H 874.576 -7.84194 0.0308796 0
M  V30 9585 N 872.079 0.78992 -1.36375 0
M  V30 9586 C 873.49 1.36506 -1.2737 0
M  V30 9587 C 873.841 1.96008 0.086711 0
M  V30 9588 O 872.966 1.92521 0.988159 0
M  V30 9589 C 873.561 2.48175 -2.30639 0
M  V30 9590 C 872.12 3.01506 -2.25325 0
M  V30 9591 C 871.267 1.74581 -2.15445 0
M  V30 9592 H 874.218 0.591606 -1.47261 0
M  V30 9593 H 874.239 3.27179 -1.94253 0
M  V30 9594 H 873.751 2.04838 -3.2964 0
M  V30 9595 H 871.852 3.49265 -1.29788 0
M  V30 9596 H 871.965 3.58355 -3.17992 0
M  V30 9597 H 870.329 1.96794 -1.61692 0
M  V30 9598 H 871.112 1.33373 -3.16333 0
M  V30 9599 N 873.557 1.20646 1.01402 0
M  V30 9600 C 874.968 1.01823 1.56489 0
M  V30 9601 C 875.319 -0.42463 1.9155 0
M  V30 9602 O 874.444 -1.30644 1.72514 0
M  V30 9603 C 875.039 1.84208 2.84347 0
M  V30 9604 C 873.598 1.69743 3.35953 0
M  V30 9605 C 872.745 1.8198 2.09233 0
M  V30 9606 H 875.696 1.348 0.837539 0
M  V30 9607 H 875.717 1.34698 3.55861 0
M  V30 9608 H 875.229 2.89215 2.58798 0
M  V30 9609 H 873.33 0.673833 3.66456 0
M  V30 9610 H 873.443 2.51173 4.07981 0
M  V30 9611 H 871.807 1.25193 2.21808 0
M  V30 9612 H 872.59 2.88477 1.86107 0
M  V30 9613 N 875.035 -1.20752 1.01276 0
M  V30 9614 C 876.284 -1.8934 0.695229 0
M  V30 9615 C 876.597 -1.79459 -0.77806 0
M  V30 9616 O 877.803 -2.43146 -1.20799 0
M  V30 9617 C 876.259 -3.39548 1.1931 0
M  V30 9618 C 875.867 -3.58023 2.69302 0
M  V30 9619 C 877.611 -4.13714 0.950823 0
M  V30 9620 C 875.518 -5.02037 3.1259 0
M  V30 9621 H 874.448 -0.709084 0.25635 0
M  V30 9622 H 877.099 -1.36629 1.22494 0
M  V30 9623 H 875.481 -3.91559 0.591395 0
M  V30 9624 H 876.655 -3.16416 3.34989 0
M  V30 9625 H 874.97 -2.97222 2.9163 0
M  V30 9626 H 877.567 -5.19891 1.24971 0
M  V30 9627 H 877.91 -4.16147 -0.112791 0
M  V30 9628 H 878.443 -3.67792 1.51571 0
M  V30 9629 H 875.182 -5.04757 4.18211 0
M  V30 9630 H 874.702 -5.44469 2.51621 0
M  V30 9631 H 876.381 -5.70594 3.0501 0
M  V30 9632 N 876.513 -0.788492 -1.36457 0
M  V30 9633 C 877.46 -0.18435 -2.30063 0
M  V30 9634 C 878.43 0.67128 -1.51931 0
M  V30 9635 O 879.615 0.620152 -1.8044 0
M  V30 9636 C 876.755 0.675596 -3.38422 0
M  V30 9637 C 875.868 -0.198475 -4.31544 0
M  V30 9638 C 875.003 0.667757 -5.26986 0
M  V30 9639 C 874.042 -0.207825 -6.11747 0
M  V30 9640 N 873.179 0.617335 -6.99381 0
M  V30 9641 H 878.019 -0.988056 -2.81143 0
M  V30 9642 H 875.556 -0.498815 -1.38384 0
M  V30 9643 H 877.514 1.18916 -3.99894 0
M  V30 9644 H 876.144 1.44474 -2.88664 0
M  V30 9645 H 875.196 -0.829995 -3.71235 0
M  V30 9646 H 876.508 -0.873163 -4.91098 0
M  V30 9647 H 875.662 1.24716 -5.93743 0
M  V30 9648 H 874.401 1.37607 -4.67884 0
M  V30 9649 H 873.406 -0.799638 -5.43954 0
M  V30 9650 H 874.631 -0.913729 -6.72925 0
M  V30 9651 H 872.577 1.30996 -6.42788 0
M  V30 9652 H 872.494 0.000307255 -7.56 0
M  V30 9653 H 873.762 1.1806 -7.70508 0
M  V30 9654 N 877.991 1.48044 -0.54043 0
M  V30 9655 C 879.402 1.86418 -0.102662 0
M  V30 9656 C 879.753 1.4489 1.32293 0
M  V30 9657 O 878.878 0.844319 1.99249 0
M  V30 9658 C 879.473 3.38324 -0.179533 0
M  V30 9659 C 878.032 3.75852 0.203098 0
M  V30 9660 C 877.179 2.72097 -0.534637 0
M  V30 9661 H 880.13 1.398 -0.751103 0
M  V30 9662 H 880.151 3.75641 0.606147 0
M  V30 9663 H 879.663 3.68518 -1.21721 0
M  V30 9664 H 877.764 3.51272 1.24252 0
M  V30 9665 H 877.877 4.78884 -0.143784 0
M  V30 9666 H 876.241 2.54692 0.0203358 0
M  V30 9667 H 877.024 3.05135 -1.57314 0
M  V30 9668 N 879.47 0.276058 1.55163 0
M  V30 9669 C 880.38 -0.621066 2.2623 0
M  V30 9670 C 881.396 -1.16931 1.28853 0
M  V30 9671 O 882.572 -1.1994 1.61791 0
M  V30 9672 C 879.637 -1.78824 2.97023 0
M  V30 9673 C 878.698 -1.27657 4.09881 0
M  V30 9674 C 877.931 -2.38812 4.77289 0
M  V30 9675 O 878.154 -3.58188 4.43912 0
M  V30 9676 O 877.088 -2.06915 5.65217 0
M  V30 9677 H 880.914 -0.0453346 3.03666 0
M  V30 9678 H 878.499 0.0434275 1.49337 0
M  V30 9679 H 880.381 -2.46877 3.41511 0
M  V30 9680 H 879.056 -2.35104 2.22503 0
M  V30 9681 H 877.963 -0.56248 3.69847 0
M  V30 9682 H 879.296 -0.759509 4.86305 0
M  V30 9683 N 880.948 -1.576 0.00335426 0
M  V30 9684 C 881.88 -2.0549 -1.01521 0
M  V30 9685 C 882.893 -0.973441 -1.30491 0
M  V30 9686 O 884.082 -1.25017 -1.27409 0
M  V30 9687 C 881.182 -2.44272 -2.34914 0
M  V30 9688 C 880.355 -3.75191 -2.24835 0
M  V30 9689 C 879.414 -4.00804 -3.40944 0
M  V30 9690 O 878.44 -4.71423 -3.18981 0
M  V30 9691 N 879.642 -3.48961 -4.63904 0
M  V30 9692 H 882.407 -2.93493 -0.60678 0
M  V30 9693 H 879.968 -1.60851 -0.18396 0
M  V30 9694 H 881.96 -2.58518 -3.11369 0
M  V30 9695 H 880.53 -1.6177 -2.67487 0
M  V30 9696 H 879.75 -3.70989 -1.3327 0
M  V30 9697 H 881.038 -4.61013 -2.15277 0
M  V30 9698 H 880.436 -2.9178 -4.84645 0
M  V30 9699 H 878.993 -3.68531 -5.37613 0
M  V30 9700 N 882.426 0.269451 -1.5528 0
M  V30 9701 C 883.389 1.31642 -1.87625 0
M  V30 9702 C 884.389 1.42182 -0.751058 0
M  V30 9703 O 885.579 1.41272 -1.01921 0
M  V30 9704 C 882.711 2.6973 -2.08467 0
M  V30 9705 H 883.904 1.0419 -2.81219 0
M  V30 9706 H 881.457 0.507685 -1.47825 0
M  V30 9707 H 882.192 3.02356 -1.17266 0
M  V30 9708 H 881.977 2.63465 -2.90394 0
M  V30 9709 H 883.467 3.4537 -2.34753 0
M  V30 9710 N 883.904 1.48273 0.534124 0
M  V30 9711 C 884.837 1.57053 1.65559 0
M  V30 9712 C 885.815 0.421213 1.5705 0
M  V30 9713 O 886.999 0.632242 1.77581 0
M  V30 9714 C 884.126 1.49465 3.03937 0
M  V30 9715 C 883.172 2.69186 3.30819 0
M  V30 9716 S 884.005 4.31192 3.17543 0
M  V30 9717 C 885.161 4.26197 4.58375 0
M  V30 9718 H 885.394 2.51927 1.57861 0
M  V30 9719 H 882.927 1.36755 0.716763 0
M  V30 9720 H 884.885 1.45775 3.83745 0
M  V30 9721 H 883.546 0.559357 3.09079 0
M  V30 9722 H 882.739 2.60005 4.31756 0
M  V30 9723 H 882.341 2.70118 2.58674 0
M  V30 9724 H 884.633 3.95874 5.49809 0
M  V30 9725 H 885.576 5.27299 4.72611 0
M  V30 9726 H 885.984 3.56723 4.37503 0
M  V30 9727 N 885.382 -0.782676 1.36792 0
M  V30 9728 C 886.292 -1.92679 1.33835 0
M  V30 9729 C 887.308 -1.72344 0.23952 0
M  V30 9730 O 888.484 -1.95766 0.473045 0
M  V30 9731 C 885.549 -3.27644 1.1336 0
M  V30 9732 C 884.61 -3.6071 2.32781 0
M  V30 9733 C 883.843 -4.89234 2.13273 0
M  V30 9734 O 884.066 -5.59468 1.11136 0
M  V30 9735 O 883 -5.21112 3.01208 0
M  V30 9736 H 886.826 -1.98124 2.30175 0
M  V30 9737 H 884.411 -0.923887 1.17408 0
M  V30 9738 H 886.293 -4.08394 1.03886 0
M  V30 9739 H 884.968 -3.23076 0.200868 0
M  V30 9740 H 883.875 -2.80238 2.47825 0
M  V30 9741 H 885.208 -3.70008 3.24584 0
M  V30 9742 N 886.86 -1.21182 -1.00761 0
M  V30 9743 C 887.79 -0.992773 -2.11344 0
M  V30 9744 C 888.771 0.0813618 -1.69905 0
M  V30 9745 O 889.956 -0.0779503 -1.94043 0
M  V30 9746 C 887.086 -0.553826 -3.42856 0
M  V30 9747 C 886.04 -1.57223 -3.98077 0
M  V30 9748 C 885.366 -0.989605 -5.25463 0
M  V30 9749 C 886.666 -2.95839 -4.30438 0
M  V30 9750 H 888.36 -1.91766 -2.29927 0
M  V30 9751 H 885.906 -0.923426 -1.10494 0
M  V30 9752 H 887.859 -0.387771 -4.19612 0
M  V30 9753 H 886.583 0.406702 -3.24058 0
M  V30 9754 H 885.242 -1.7258 -3.23437 0
M  V30 9755 H 884.89 -0.0208743 -5.02996 0
M  V30 9756 H 884.59 -1.66984 -5.63374 0
M  V30 9757 H 886.114 -0.834815 -6.04866 0
M  V30 9758 H 887.528 -2.8394 -4.98047 0
M  V30 9759 H 885.925 -3.60851 -4.79486 0
M  V30 9760 H 886.995 -3.46882 -3.38823 0
M  V30 9761 N 888.338 1.20213 -1.01915 0
M  V30 9762 C 889.268 2.25336 -0.612023 0
M  V30 9763 C 890.249 1.65933 0.374186 0
M  V30 9764 O 891.434 1.92464 0.259053 0
M  V30 9765 C 888.564 3.47267 0.047904 0
M  V30 9766 C 887.518 4.1928 -0.859557 0
M  V30 9767 C 886.844 5.3466 -0.0652655 0
M  V30 9768 C 888.144 4.75143 -2.1688 0
M  V30 9769 H 889.838 2.59645 -1.49079 0
M  V30 9770 H 887.384 1.24808 -0.718263 0
M  V30 9771 H 889.337 4.19991 0.344294 0
M  V30 9772 H 888.061 3.12129 0.961404 0
M  V30 9773 H 886.72 3.48425 -1.13999 0
M  V30 9774 H 886.368 4.95767 0.849964 0
M  V30 9775 H 886.068 5.83772 -0.669618 0
M  V30 9776 H 887.592 6.10187 0.224612 0
M  V30 9777 H 889.006 5.39672 -1.9346 0
M  V30 9778 H 887.403 5.34702 -2.72422 0
M  V30 9779 H 888.473 3.93744 -2.83008 0
M  V30 9780 N 889.816 0.795718 1.36037 0
M  V30 9781 C 891.093 0.294743 1.93367 0
M  V30 9782 C 891.473 -1.21406 1.72696 0
M  V30 9783 O 890.821 -2.00849 1.08959 0
M  V30 9784 C 891.031 0.694254 3.42025 0
M  V30 9785 C 892.379 0.677566 4.19159 0
M  V30 9786 O 893.403 0.635119 3.50492 0
M  V30 9787 O 892.262 0.726127 5.41655 0
M  V30 9788 H 889.356 0.0745459 0.823633 0
M  V30 9789 H 891.902 0.878685 1.4518 0
M  V30 9790 H 890.674 1.73458 3.50753 0
M  V30 9791 H 890.297 0.0845338 3.9751 0
M  V30 9792 N 891.294 -1.47756 0.548274 0
M  V30 9793 C 892.534 -2.04387 0.0231354 0
M  V30 9794 C 892.898 -1.41438 -1.29843 0
M  V30 9795 O 894.099 -1.89064 -1.91072 0
M  V30 9796 C 892.37 -3.57316 -0.077482 0
M  V30 9797 S 893.929 -4.35339 -0.550038 0
M  V30 9798 H 890.747 -0.710694 0.0208428 0
M  V30 9799 H 893.349 -1.81239 0.732984 0
M  V30 9800 H 892.053 -4.00658 0.88888 0
M  V30 9801 H 891.584 -3.84947 -0.811157 0
M  V30 9802 H 893.599 -4.61957 -1.81135 0
M  V30 9803 N 892.772 -0.284283 -1.55015 0
M  V30 9804 C 893.72 0.615091 -2.2432 0
M  V30 9805 C 894.714 1.15051 -1.24337 0
M  V30 9806 O 895.92 1.10308 -1.4224 0
M  V30 9807 H 892.295 0.216927 -0.720033 0
M  V30 9808 H 894.266 0.00783216 -2.98399 0
M  V30 9809 C 893.015 1.78355 -2.98471 0
M  V30 9810 H 892.338 1.38076 -3.752 0
M  V30 9811 H 893.778 2.38927 -3.50271 0
M  V30 9812 C 892.237 2.67757 -2.04469 0
M  V30 9813 O 892.767 3.6838 -1.60185 0
M  V30 9814 N 890.973 2.35125 -1.70776 0
M  V30 9815 H 890.52 1.53346 -2.06985 0
M  V30 9816 H 890.478 2.95212 -1.08153 0
M  V30 9817 N 894.251 1.57596 -0.0117121 0
M  V30 9818 C 895.481 1.95077 0.680346 0
M  V30 9819 C 895.889 0.885793 1.67184 0
M  V30 9820 O 895.232 -0.142723 1.83145 0
M  V30 9821 C 895.294 3.28611 1.45791 0
M  V30 9822 C 894.958 4.52682 0.626706 0
M  V30 9823 C 895.955 5.19821 -0.0906223 0
M  V30 9824 C 893.64 4.99064 0.569229 0
M  V30 9825 C 895.634 6.31649 -0.854289 0
M  V30 9826 C 893.321 6.10779 -0.198155 0
M  V30 9827 C 894.319 6.76929 -0.908636 0
M  V30 9828 O 894.007 7.86501 -1.66348 0
M  V30 9829 H 893.739 0.647663 0.193672 0
M  V30 9830 H 896.293 2.05305 -0.0624969 0
M  V30 9831 H 894.523 3.14824 2.2455 0
M  V30 9832 H 896.212 3.51119 2.03642 0
M  V30 9833 H 896.978 4.84968 -0.0554421 0
M  V30 9834 H 892.857 4.47393 1.11178 0
M  V30 9835 H 896.401 6.83215 -1.40937 0
M  V30 9836 H 892.298 6.45072 -0.235114 0
M  V30 9837 H 893.066 8.03078 -1.58141 0
M  V30 9838 N 895.729 -0.261212 1.5542 0
M  V30 9839 C 897.14 -0.83138 1.67167 0
M  V30 9840 C 897.491 -1.8659 0.606525 0
M  V30 9841 O 896.616 -2.14953 -0.24985 0
M  V30 9842 C 897.211 -1.51475 3.03052 0
M  V30 9843 C 895.77 -2.0328 3.16787 0
M  V30 9844 C 894.917 -0.878903 2.63003 0
M  V30 9845 H 897.868 -0.0373102 1.58656 0
M  V30 9846 H 897.889 -2.38222 2.96699 0
M  V30 9847 H 897.401 -0.76157 3.80554 0
M  V30 9848 H 895.502 -2.81523 2.44082 0
M  V30 9849 H 895.615 -2.24001 4.2351 0
M  V30 9850 H 893.979 -1.27551 2.2046 0
M  V30 9851 H 894.762 -0.13904 3.43018 0
M  V30 9852 N 897.207 -1.48554 -0.526253 0
M  V30 9853 C 898.484 -1.47252 -1.28748 0
M  V30 9854 C 898.864 -0.186245 -2.10277 0
M  V30 9855 O 898.212 0.831954 -2.12816 0
M  V30 9856 C 898.422 -2.73672 -2.16575 0
M  V30 9857 C 899.77 -3.22151 -2.76593 0
M  V30 9858 O 900.794 -2.74614 -2.2686 0
M  V30 9859 O 899.653 -4.04877 -3.67066 0
M  V30 9860 H 896.747 -0.588242 -0.581292 0
M  V30 9861 H 899.293 -1.60792 -0.5426 0
M  V30 9862 H 898.065 -3.58798 -1.56139 0
M  V30 9863 H 897.688 -2.6287 -2.98304 0
M  V30 9864 N 898.685 0.775411 -1.37205 0
M  V30 9865 C 900.096 1.35147 -1.28811 0
M  V30 9866 C 900.447 1.96089 0.0659168 0
M  V30 9867 O 899.572 1.93558 0.967684 0
M  V30 9868 C 900.167 2.45715 -2.33258 0
M  V30 9869 C 898.726 2.99099 -2.2851 0
M  V30 9870 C 897.873 1.72286 -2.17285 0
M  V30 9871 H 900.824 0.575954 -1.4788 0
M  V30 9872 H 900.845 3.251 -1.97712 0
M  V30 9873 H 900.357 2.01331 -3.31795 0
M  V30 9874 H 898.458 3.47868 -1.33485 0
M  V30 9875 H 898.571 3.54962 -3.21774 0
M  V30 9876 H 896.935 1.95068 -1.6377 0
M  V30 9877 H 897.718 1.3001 -3.1773 0
M  V30 9878 N 900.163 1.21714 1.00117 0
M  V30 9879 C 901.096 0.923113 2.08696 0
M  V30 9880 C 902.074 -0.130827 1.62073 0
M  V30 9881 O 903.258 -0.00103064 1.885 0
M  V30 9882 C 900.385 0.386807 3.36484 0
M  V30 9883 C 899.431 1.42414 4.0202 0
M  V30 9884 S 900.264 2.99466 4.43937 0
M  V30 9885 C 901.42 2.47452 5.74907 0
M  V30 9886 H 901.653 1.84258 2.33315 0
M  V30 9887 H 899.186 1.0473 1.1345 0
M  V30 9888 H 901.144 0.0839547 4.10414 0
M  V30 9889 H 899.805 -0.511413 3.09909 0
M  V30 9890 H 898.998 0.998593 4.94008 0
M  V30 9891 H 898.6 1.67527 3.34381 0
M  V30 9892 H 900.892 1.88177 6.50842 0
M  V30 9893 H 901.835 3.37898 6.22279 0
M  V30 9894 H 902.243 1.89027 5.31911 0
M  V30 9895 N 901.641 -1.19671 1.02551 0
M  V30 9896 C 902.887 -1.89548 0.721069 0
M  V30 9897 C 903.22 -1.79209 -0.748176 0
M  V30 9898 O 902.495 -1.1822 -1.54448 0
M  V30 9899 C 902.778 -3.4061 1.16861 0
M  V30 9900 C 902.631 -3.59838 2.69883 0
M  V30 9901 C 903.95 -4.33718 0.746782 0
M  V30 9902 H 901.069 -0.688315 0.263422 0
M  V30 9903 H 903.711 -1.40883 1.27483 0
M  V30 9904 H 901.861 -3.82188 0.697477 0
M  V30 9905 H 903.533 -3.27454 3.24917 0
M  V30 9906 H 901.776 -3.03005 3.10435 0
M  V30 9907 H 902.447 -4.65766 2.96253 0
M  V30 9908 H 904.923 -3.99837 1.15195 0
M  V30 9909 H 903.799 -5.38012 1.08786 0
M  V30 9910 H 904.06 -4.40704 -0.351057 0
M  V30 9911 N 903.119 -0.802921 -1.35613 0
M  V30 9912 C 904.535 -0.486214 -1.52014 0
M  V30 9913 C 904.735 0.993219 -1.75321 0
M  V30 9914 O 903.791 1.77835 -1.79251 0
M  V30 9915 C 905.104 -1.32839 -2.69767 0
M  V30 9916 C 906.652 -1.32346 -2.83643 0
M  V30 9917 C 907.127 -2.14967 -4.04417 0
M  V30 9918 N 908.618 -2.12484 -4.11588 0
M  V30 9919 C 909.353 -2.73173 -5.04147 0
M  V30 9920 N 908.849 -3.42774 -6.02061 0
M  V30 9921 N 910.642 -2.62834 -4.96865 0
M  V30 9922 H 902.793 -1.76109 -1.18741 0
M  V30 9923 H 905.056 -0.74936 -0.580658 0
M  V30 9924 H 904.762 -2.37813 -2.5911 0
M  V30 9925 H 904.636 -0.979058 -3.64272 0
M  V30 9926 H 907.023 -0.281586 -2.93753 0
M  V30 9927 H 907.104 -1.71264 -1.90006 0
M  V30 9928 H 906.748 -3.19193 -3.95068 0
M  V30 9929 H 906.678 -1.73411 -4.97228 0
M  V30 9930 H 909.169 -1.61839 -3.41492 0
M  V30 9931 H 909.482 -3.86378 -6.69277 0
M  V30 9932 H 907.827 -3.46878 -6.02246 0
M  V30 9933 H 911.018 -2.08049 -4.19325 0
M  V30 9934 H 911.191 -3.10421 -5.68808 0
M  V30 9935 N 904.597 1.47463 -0.556102 0
M  V30 9936 C 905.845 2.02075 -0.0315712 0
M  V30 9937 C 906.166 1.43292 1.32259 0
M  V30 9938 O 905.436 0.60771 1.86236 0
M  V30 9939 H 904.016 0.74695 -0.0086816 0
M  V30 9940 H 906.678 1.80879 -0.725859 0
M  V30 9941 H 905.774 3.12047 0.0573538 0
M  V30 9942 N 906.075 0.2925 1.54862 0
M  V30 9943 C 907.322 -0.319263 1.99967 0
M  V30 9944 C 907.65 -1.54547 1.18092 0
M  V30 9945 O 906.905 -1.94186 0.242969 0
M  V30 9946 C 907.204 -0.728674 3.49893 0
M  V30 9947 C 906.87 0.394836 4.49168 0
M  V30 9948 C 905.532 0.703289 4.76033 0
M  V30 9949 C 907.884 1.15103 5.08331 0
M  V30 9950 C 905.212 1.77121 5.59325 0
M  V30 9951 C 907.564 2.20881 5.92785 0
M  V30 9952 C 906.228 2.52342 6.17964 0
M  V30 9953 H 905.498 -0.116827 0.731733 0
M  V30 9954 H 908.145 0.40983 1.87063 0
M  V30 9955 H 906.45 -1.53772 3.60363 0
M  V30 9956 H 908.147 -1.21305 3.82212 0
M  V30 9957 H 904.737 0.144319 4.28357 0
M  V30 9958 H 908.921 0.92599 4.87585 0
M  V30 9959 H 904.177 2.01978 5.77074 0
M  V30 9960 H 908.351 2.79939 6.37657 0
M  V30 9961 H 905.978 3.35225 6.82296 0
M  V30 9962 N 907.553 -1.57587 0.0200696 0
M  V30 9963 C 908.516 -2.08595 -0.949767 0
M  V30 9964 C 909.516 -0.999215 -1.25985 0
M  V30 9965 O 910.706 -1.26115 -1.2017 0
M  V30 9966 C 907.838 -2.54424 -2.26895 0
M  V30 9967 H 909.031 -2.95563 -0.508161 0
M  V30 9968 H 906.584 -1.54631 -0.227798 0
M  V30 9969 H 907.319 -1.70758 -2.75703 0
M  V30 9970 H 907.104 -3.3381 -2.05702 0
M  V30 9971 H 908.594 -2.94144 -2.96427 0
M  V30 9972 N 909.032 0.252966 -1.55557 0
M  V30 9973 C 910.278 0.983306 -1.77367 0
M  V30 9974 C 910.611 1.85203 -0.584258 0
M  V30 9975 O 909.886 1.89963 0.417644 0
M  V30 9976 C 910.169 1.84896 -3.09007 0
M  V30 9977 C 910.022 1.00883 -4.38341 0
M  V30 9978 C 911.341 2.83254 -3.36831 0
M  V30 9979 H 908.46 0.356056 -0.645286 0
M  V30 9980 H 911.102 0.254232 -1.88291 0
M  V30 9981 H 909.252 2.47058 -2.99825 0
M  V30 9982 H 910.924 0.40638 -4.59507 0
M  V30 9983 H 909.167 0.31297 -4.3267 0
M  V30 9984 H 909.838 1.64818 -5.2682 0
M  V30 9985 H 912.314 2.31228 -3.45937 0
M  V30 9986 H 911.19 3.40949 -4.30169 0
M  V30 9987 H 911.451 3.59407 -2.57447 0
M  V30 9988 N 910.51 1.48831 0.518367 0
M  V30 9989 C 911.926 1.35209 0.847979 0
M  V30 9990 C 912.126 0.371927 1.98038 0
M  V30 9991 O 911.182 -0.202681 2.51685 0
M  V30 9992 C 912.495 2.7552 1.20455 0
M  V30 9993 C 914.043 2.84094 1.31377 0
M  V30 9994 C 914.518 4.25132 1.70372 0
M  V30 9995 N 916.009 4.27861 1.77453 0
M  V30 9996 C 916.744 5.3394 2.09035 0
M  V30 9997 N 916.24 6.50285 2.3896 0
M  V30 9998 N 918.033 5.21343 2.10139 0
M  V30 9999 H 910.184 2.11166 -0.228624 0
M  V30 10000 H 912.447 0.94717 -0.0396599 0
M  V30 10001 H 912.153 3.48861 0.445991 0
M  V30 10002 H 912.027 3.09785 2.15204 0
M  V30 10003 H 914.414 2.11001 2.06307 0
M  V30 10004 H 914.495 2.53433 0.347203 0
M  V30 10005 H 914.139 4.98745 0.959975 0
M  V30 10006 H 914.069 4.53245 2.68098 0
M  V30 10007 H 916.56 3.43945 1.56557 0
M  V30 10008 H 916.873 7.26961 2.62196 0
M  V30 10009 H 915.218 6.5354 2.36454 0
M  V30 10010 H 918.409 4.29462 1.86225 0
M  V30 10011 H 918.582 6.04112 2.34419 0
M  V30 10012 N 911.988 -0.768124 1.37614 0
M  V30 10013 C 913.228 -1.53979 1.34424 0
M  V30 10014 C 913.592 -1.91874 -0.0696803 0
M  V30 10015 O 914.793 -2.67845 -0.22633 0
M  V30 10016 C 913.064 -2.76845 2.26034 0
M  V30 10017 S 914.623 -3.66871 2.4073 0
M  V30 10018 H 911.441 -0.527108 0.477157 0
M  V30 10019 H 914.043 -0.902945 1.73399 0
M  V30 10020 H 912.747 -2.47091 3.2768 0
M  V30 10021 H 912.278 -3.45486 1.88157 0
M  V30 10022 H 914.293 -4.6899 1.62057 0
M  V30 10023 N 913.466 -1.22244 -0.994698 0
M  V30 10024 C 914.396 -1.01513 -2.10279 0
M  V30 10025 C 915.377 0.0633365 -1.69982 0
M  V30 10026 O 916.562 -0.0985268 -1.9395 0
M  V30 10027 C 913.692 -0.59016 -3.42249 0
M  V30 10028 C 912.646 -1.61436 -3.96387 0
M  V30 10029 C 911.972 -1.04528 -5.24383 0
M  V30 10030 C 913.272 -3.00388 -4.27276 0
M  V30 10031 H 914.966 -1.94194 -2.2788 0
M  V30 10032 H 912.512 -0.935094 -1.09508 0
M  V30 10033 H 914.465 -0.432254 -4.19177 0
M  V30 10034 H 913.189 0.372308 -3.24471 0
M  V30 10035 H 911.848 -1.76001 -3.21589 0
M  V30 10036 H 911.496 -0.0742225 -5.02945 0
M  V30 10037 H 911.196 -1.72949 -5.61571 0
M  V30 10038 H 912.72 -0.898922 -6.03947 0
M  V30 10039 H 914.134 -2.89207 -4.95007 0
M  V30 10040 H 912.531 -3.65916 -4.75631 0
M  V30 10041 H 913.601 -3.50456 -3.35125 0
M  V30 10042 N 914.944 1.19125 -1.03184 0
M  V30 10043 C 915.854 2.26112 -0.625329 0
M  V30 10044 C 916.87 1.7056 0.344298 0
M  V30 10045 O 918.046 2.0039 0.20144 0
M  V30 10046 C 915.111 3.46697 0.0145169 0
M  V30 10047 C 914.172 4.17419 -1.00299 0
M  V30 10048 C 913.405 5.32247 -0.393581 0
M  V30 10049 O 913.628 5.64724 0.802659 0
M  V30 10050 O 912.562 5.91428 -1.1179 0
M  V30 10051 H 916.388 2.63131 -1.51643 0
M  V30 10052 H 913.973 1.26036 -0.802197 0
M  V30 10053 H 915.855 4.19762 0.371139 0
M  V30 10054 H 914.53 3.11521 0.879581 0
M  V30 10055 H 913.437 3.4646 -1.41125 0
M  V30 10056 H 914.77 4.56573 -1.83852 0
M  V30 10057 N 916.422 0.810101 1.35185 0
M  V30 10058 C 917.369 0.220927 2.2974 0
M  V30 10059 C 918.339 -0.647024 1.5298 0
M  V30 10060 O 919.524 -0.591367 1.81404 0
M  V30 10061 C 916.664 -0.62167 3.39454 0
M  V30 10062 C 915.777 0.267104 4.31173 0
M  V30 10063 C 914.912 -0.583833 5.27982 0
M  V30 10064 C 913.951 0.305123 6.11339 0
M  V30 10065 N 913.088 -0.505992 7.00274 0
M  V30 10066 H 917.928 1.03266 2.79536 0
M  V30 10067 H 915.465 0.520768 1.37573 0
M  V30 10068 H 917.423 -1.12539 4.01735 0
M  V30 10069 H 916.053 -1.39863 2.90926 0
M  V30 10070 H 915.105 0.88895 3.69867 0
M  V30 10071 H 916.417 0.951182 4.89647 0
M  V30 10072 H 915.571 -1.15254 5.95652 0
M  V30 10073 H 914.31 -1.30146 4.70014 0
M  V30 10074 H 913.315 0.886075 5.42613 0
M  V30 10075 H 914.54 1.02067 6.71386 0
M  V30 10076 H 912.486 -1.20753 6.4479 0
M  V30 10077 H 912.403 0.119966 7.55905 0
M  V30 10078 H 913.671 -1.05787 7.72288 0
M  V30 10079 N 917.9 -1.47166 0.563914 0
M  V30 10080 C 919.13 -2.06546 0.0473599 0
M  V30 10081 C 919.538 -1.41607 -1.25476 0
M  V30 10082 O 918.881 -0.50894 -1.76509 0
M  V30 10083 C 918.943 -3.58873 -0.212249 0
M  V30 10084 C 918.607 -4.45893 1.00144 0
M  V30 10085 C 919.604 -4.83594 1.90873 0
M  V30 10086 C 917.289 -4.87309 1.218 0
M  V30 10087 C 919.283 -5.61519 3.01621 0
M  V30 10088 C 916.97 -5.64997 2.32856 0
M  V30 10089 C 917.968 -6.02013 3.22597 0
M  V30 10090 O 917.656 -6.78135 4.31727 0
M  V30 10091 H 917.388 -0.674441 0.0458823 0
M  V30 10092 H 919.942 -1.9006 0.778865 0
M  V30 10093 H 918.172 -3.73596 -0.998145 0
M  V30 10094 H 919.861 -4.00248 -0.675005 0
M  V30 10095 H 920.627 -4.52192 1.7535 0
M  V30 10096 H 916.506 -4.57959 0.528641 0
M  V30 10097 H 920.05 -5.90331 3.71693 0
M  V30 10098 H 915.947 -5.95813 2.48349 0
M  V30 10099 H 916.715 -6.96537 4.29859 0
M  V30 10100 N 919.378 -0.300708 -1.54705 0
M  V30 10101 C 920.308 0.568675 -2.26469 0
M  V30 10102 C 921.289 1.13817 -1.26411 0
M  V30 10103 O 922.474 1.16756 -1.55183 0
M  V30 10104 C 919.604 1.74077 -3.00524 0
M  V30 10105 C 918.558 1.30165 -4.07727 0
M  V30 10106 C 917.884 2.55888 -4.69495 0
M  V30 10107 C 919.184 0.433106 -5.20501 0
M  V30 10108 H 920.878 -0.0298851 -2.99385 0
M  V30 10109 H 918.424 -0.0158135 -1.43991 0
M  V30 10110 H 920.377 2.35506 -3.49449 0
M  V30 10111 H 919.101 2.36556 -2.25186 0
M  V30 10112 H 917.76 0.710414 -3.59651 0
M  V30 10113 H 917.408 3.16681 -3.90797 0
M  V30 10114 H 917.108 2.27207 -5.41895 0
M  V30 10115 H 918.632 3.18121 -5.21183 0
M  V30 10116 H 920.046 0.95307 -5.65322 0
M  V30 10117 H 918.443 0.240085 -5.9962 0
M  V30 10118 H 919.513 -0.541866 -4.81863 0
M  V30 10119 N 920.856 1.57574 -0.0284266 0
M  V30 10120 C 922.084 1.96071 0.660575 0
M  V30 10121 C 922.499 0.904881 1.65703 0
M  V30 10122 O 921.856 -0.113379 1.82147 0
M  V30 10123 C 921.907 3.34634 1.36756 0
M  V30 10124 O 921.628 4.36167 0.411041 0
M  V30 10125 C 923.129 3.87758 2.14845 0
M  V30 10126 H 920.349 0.645794 0.182183 0
M  V30 10127 H 922.893 2.04311 -0.0879858 0
M  V30 10128 H 921.048 3.27616 2.06753 0
M  V30 10129 H 921.462 5.16493 0.913 0
M  V30 10130 H 922.936 4.87058 2.59767 0
M  V30 10131 H 923.413 3.21967 2.9872 0
M  V30 10132 H 924.019 3.98043 1.49807 0
M  V30 10133 N 922.334 -0.244713 1.55689 0
M  V30 10134 C 923.611 -0.995407 1.68378 0
M  V30 10135 C 923.991 -2.03288 0.568949 0
M  V30 10136 O 923.339 -2.24469 -0.427299 0
M  V30 10137 C 923.549 -1.62678 3.08767 0
M  V30 10138 C 924.897 -2.1278 3.67437 0
M  V30 10139 O 925.921 -1.72614 3.11581 0
M  V30 10140 O 924.78 -2.86536 4.65359 0
M  V30 10141 H 921.874 -0.463476 0.684923 0
M  V30 10142 H 924.42 -0.238326 1.68018 0
M  V30 10143 H 923.192 -0.876469 3.81358 0
M  V30 10144 H 922.815 -2.45 3.13146 0
M  V30 10145 N 923.813 -1.49104 -0.510467 0
M  V30 10146 C 925.09 -1.48609 -1.27179 0
M  V30 10147 C 925.47 -0.208537 -2.10067 0
M  V30 10148 O 924.818 0.809335 -2.13687 0
M  V30 10149 C 925.028 -2.75953 -2.1366 0
M  V30 10150 C 926.376 -3.25067 -2.73161 0
M  V30 10151 O 927.4 -2.77005 -2.23934 0
M  V30 10152 O 926.259 -4.08747 -3.62751 0
M  V30 10153 H 923.353 -0.594374 -0.57502 0
M  V30 10154 H 925.899 -1.61358 -0.525515 0
M  V30 10155 H 924.671 -3.60434 -1.52325 0
M  V30 10156 H 924.294 -2.66019 -2.95499 0
M  V30 10157 N 925.291 0.760815 -1.38019 0
M  V30 10158 C 926.238 1.8744 -1.34666 0
M  V30 10159 C 927.208 1.64762 -0.210386 0
M  V30 10160 O 928.393 1.86528 -0.401479 0
M  V30 10161 C 925.533 3.24648 -1.17037 0
M  V30 10162 C 924.646 3.59206 -2.3999 0
M  V30 10163 C 923.781 4.8568 -2.15148 0
M  V30 10164 C 922.82 5.13002 -3.3391 0
M  V30 10165 N 921.957 6.30668 -3.08549 0
M  V30 10166 H 926.797 1.8964 -2.29871 0
M  V30 10167 H 924.334 0.927004 -1.14215 0
M  V30 10168 H 926.292 4.03814 -1.04834 0
M  V30 10169 H 924.922 3.21793 -0.254758 0
M  V30 10170 H 923.974 2.74939 -2.62893 0
M  V30 10171 H 925.286 3.75328 -3.28527 0
M  V30 10172 H 924.44 5.72773 -2.00039 0
M  V30 10173 H 923.179 4.71682 -1.23965 0
M  V30 10174 H 922.184 4.2438 -3.49545 0
M  V30 10175 H 923.409 5.28901 -4.25958 0
M  V30 10176 H 921.355 6.18008 -2.20006 0
M  V30 10177 H 921.272 6.47257 -3.90633 0
M  V30 10178 H 922.54 7.20669 -2.9708 0
M  V30 10179 N 926.769 1.22769 0.988202 0
M  V30 10180 C 927.699 1.02627 2.09738 0
M  V30 10181 C 928.68 -0.0543211 1.70013 0
M  V30 10182 O 929.865 0.108811 1.93895 0
M  V30 10183 C 926.995 0.608302 3.41931 0
M  V30 10184 C 925.949 1.63536 3.95525 0
M  V30 10185 C 925.275 1.07308 5.23822 0
M  V30 10186 C 926.575 3.02649 4.25677 0
M  V30 10187 H 928.269 1.954 2.26847 0
M  V30 10188 H 925.815 0.940888 1.09011 0
M  V30 10189 H 927.768 0.454478 4.18942 0
M  V30 10190 H 926.492 -0.355095 3.24664 0
M  V30 10191 H 925.151 1.77704 3.20651 0
M  V30 10192 H 924.799 0.100894 5.02899 0
M  V30 10193 H 924.499 1.75925 5.60646 0
M  V30 10194 H 926.023 0.930938 6.03462 0
M  V30 10195 H 927.437 2.91828 4.93467 0
M  V30 10196 H 925.834 3.68434 4.73684 0
M  V30 10197 H 926.904 3.52228 3.33262 0
M  V30 10198 N 928.247 -1.18576 1.03814 0
M  V30 10199 C 929.472 -1.92978 0.759873 0
M  V30 10200 C 929.897 -1.75514 -0.676486 0
M  V30 10201 O 929.255 -1.06359 -1.46824 0
M  V30 10202 C 929.303 -3.42507 1.12788 0
M  V30 10203 O 928.407 -4.1163 0.251886 0
M  V30 10204 H 927.748 -0.602129 0.279886 0
M  V30 10205 H 930.278 -1.50383 1.3873 0
M  V30 10206 H 930.288 -3.93206 1.08872 0
M  V30 10207 H 928.963 -3.5454 2.17427 0
M  V30 10208 H 927.54 -3.7125 0.350441 0
M  V30 10209 N 929.725 -0.817259 -1.34754 0
M  V30 10210 C 930.657 -0.192695 -2.28389 0
M  V30 10211 C 931.67 0.614167 -1.50771 0
M  V30 10212 O 932.859 0.444776 -1.7287 0
M  V30 10213 C 929.959 0.748929 -3.30521 0
M  V30 10214 C 929.132 -0.0138762 -4.37398 0
M  V30 10215 C 928.191 0.847825 -5.19325 0
M  V30 10216 O 927.217 0.29487 -5.68436 0
M  V30 10217 N 928.419 2.16843 -5.38479 0
M  V30 10218 H 931.184 -0.997122 -2.82626 0
M  V30 10219 H 928.745 -0.673696 -1.47217 0
M  V30 10220 H 930.737 1.32987 -3.82226 0
M  V30 10221 H 929.307 1.45412 -2.7672 0
M  V30 10222 H 928.527 -0.776093 -3.86485 0
M  V30 10223 H 929.815 -0.539191 -5.05935 0
M  V30 10224 H 929.213 2.64148 -5.00242 0
M  V30 10225 H 927.77 2.69835 -5.93323 0
M  V30 10226 N 931.203 1.46865 -0.571711 0
M  V30 10227 C 932.433 2.06518 -0.0583129 0
M  V30 10228 C 932.841 1.4227 1.24723 0
M  V30 10229 O 932.184 0.518293 1.76237 0
M  V30 10230 C 932.246 3.5898 0.193214 0
M  V30 10231 C 931.91 4.45355 -1.02507 0
M  V30 10232 C 932.907 4.82575 -1.93435 0
M  V30 10233 C 930.592 4.86656 -1.24382 0
M  V30 10234 C 932.586 5.59912 -3.04595 0
M  V30 10235 C 930.273 5.63754 -2.35849 0
M  V30 10236 C 931.271 6.00294 -3.25785 0
M  V30 10237 O 930.959 6.75836 -4.35318 0
M  V30 10238 H 930.691 0.674188 -0.0494584 0
M  V30 10239 H 933.245 1.89644 -0.788934 0
M  V30 10240 H 931.475 3.7412 0.978319 0
M  V30 10241 H 933.164 4.006 0.653769 0
M  V30 10242 H 933.93 4.51256 -1.77745 0
M  V30 10243 H 929.809 4.57672 -0.55292 0
M  V30 10244 H 933.353 5.88351 -3.74818 0
M  V30 10245 H 929.25 5.94487 -2.51506 0
M  V30 10246 H 930.018 6.94247 -4.33547 0
M  V30 10247 N 932.681 0.308908 1.54543 0
M  V30 10248 C 933.611 -0.556657 2.26768 0
M  V30 10249 C 934.592 -1.13145 1.27013 0
M  V30 10250 O 935.777 -1.15931 1.558 0
M  V30 10251 C 932.907 -1.72481 3.01443 0
M  V30 10252 C 931.861 -1.28001 4.08411 0
M  V30 10253 C 931.187 -2.53395 4.70845 0
M  V30 10254 C 932.487 -0.405497 5.20724 0
M  V30 10255 H 934.181 0.0457618 2.99365 0
M  V30 10256 H 931.727 0.0234495 1.43981 0
M  V30 10257 H 933.68 -2.3365 3.50693 0
M  V30 10258 H 932.404 -2.35359 2.26437 0
M  V30 10259 H 931.063 -0.69133 3.60022 0
M  V30 10260 H 930.711 -3.14604 3.92471 0
M  V30 10261 H 930.411 -2.2433 5.43093 0
M  V30 10262 H 931.935 -3.15352 5.22863 0
M  V30 10263 H 933.349 -0.923076 5.6582 0
M  V30 10264 H 931.746 -0.208282 5.99738 0
M  V30 10265 H 932.816 0.567412 4.81569 0
M  V30 10266 N 934.159 -1.57557 0.0367827 0
M  V30 10267 C 935.408 -1.91291 -0.639569 0
M  V30 10268 C 935.721 -0.915601 -1.72847 0
M  V30 10269 O 936.927 -1.14447 -2.46199 0
M  V30 10270 C 935.383 -3.39697 -1.18888 0
M  V30 10271 C 934.991 -4.47803 -0.132851 0
M  V30 10272 C 936.735 -3.82487 -1.8413 0
M  V30 10273 C 934.642 -5.87311 -0.694229 0
M  V30 10274 H 933.572 -0.713886 -0.242658 0
M  V30 10275 H 936.223 -1.83209 0.103332 0
M  V30 10276 H 934.605 -3.42736 -1.98363 0
M  V30 10277 H 935.779 -4.56334 0.640009 0
M  V30 10278 H 934.094 -4.14264 0.421264 0
M  V30 10279 H 936.691 -4.84076 -2.27101 0
M  V30 10280 H 937.034 -3.17959 -2.68716 0
M  V30 10281 H 937.567 -3.81903 -1.11332 0
M  V30 10282 H 934.306 -6.55401 0.113667 0
M  V30 10283 H 933.826 -5.82371 -1.4354 0
M  V30 10284 H 935.505 -6.36119 -1.1816 0
M  V30 10285 N 935.637 0.236453 -1.55816 0
M  V30 10286 C 936.569 1.31602 -1.87653 0
M  V30 10287 C 937.582 1.43782 -0.763584 0
M  V30 10288 O 938.771 1.44945 -1.04178 0
M  V30 10289 C 935.871 2.69342 -2.05689 0
M  V30 10290 C 935.044 2.79298 -3.36617 0
M  V30 10291 C 934.103 3.97952 -3.44268 0
M  V30 10292 O 933.129 3.86989 -4.17406 0
M  V30 10293 N 934.331 5.11594 -2.74321 0
M  V30 10294 H 937.096 1.04623 -2.80845 0
M  V30 10295 H 934.657 0.426534 -1.5618 0
M  V30 10296 H 936.649 3.47074 -2.08138 0
M  V30 10297 H 935.219 2.88984 -1.19192 0
M  V30 10298 H 934.439 1.8816 -3.46395 0
M  V30 10299 H 935.727 2.82908 -4.22895 0
M  V30 10300 H 935.125 5.23394 -2.14651 0
M  V30 10301 H 933.682 5.87422 -2.8245 0
M  V30 10302 N 937.115 1.49373 0.502552 0
M  V30 10303 C 938.045 1.68839 1.61294 0
M  V30 10304 C 939.026 0.537096 1.61398 0
M  V30 10305 O 940.211 0.772764 1.78163 0
M  V30 10306 C 937.341 1.75347 2.99784 0
M  V30 10307 C 936.295 2.90251 3.14545 0
M  V30 10308 C 935.621 2.8187 4.54371 0
M  V30 10309 C 936.921 4.31207 2.94717 0
M  V30 10310 H 938.615 2.61803 1.45257 0
M  V30 10311 H 936.161 1.25987 0.697371 0
M  V30 10312 H 938.114 1.87552 3.77362 0
M  V30 10313 H 936.838 0.789814 3.16906 0
M  V30 10314 H 935.497 2.77646 2.39392 0
M  V30 10315 H 935.145 1.83416 4.68367 0
M  V30 10316 H 934.845 3.5899 4.65188 0
M  V30 10317 H 936.369 2.96081 5.34012 0
M  V30 10318 H 937.783 4.44501 3.62065 0
M  V30 10319 H 936.18 5.09536 3.17007 0
M  V30 10320 H 937.25 4.45759 1.90857 0
M  V30 10321 N 938.594 -0.753485 1.38421 0
M  V30 10322 C 939.84 -1.51485 1.34834 0
M  V30 10323 C 940.173 -1.94102 -0.0615381 0
M  V30 10324 O 939.448 -1.65439 -1.02274 0
M  V30 10325 C 939.731 -2.76736 2.30411 0
M  V30 10326 C 939.584 -2.40256 3.80259 0
M  V30 10327 C 940.903 -3.7876 2.24119 0
M  V30 10328 H 938.022 -0.549534 0.491102 0
M  V30 10329 H 940.664 -0.863006 1.6927 0
M  V30 10330 H 938.814 -3.32357 2.01175 0
M  V30 10331 H 940.486 -1.90409 4.20169 0
M  V30 10332 H 938.729 -1.72714 3.97935 0
M  V30 10333 H 939.4 -3.29869 4.42595 0
M  V30 10334 H 941.876 -3.32679 2.49928 0
M  V30 10335 H 940.752 -4.64092 2.93104 0
M  V30 10336 H 941.013 -4.24352 1.24006 0
M  V30 10337 N 940.072 -1.23292 -0.981677 0
M  V30 10338 C 941.004 -0.970782 -2.07626 0
M  V30 10339 C 942.017 0.0547506 -1.62708 0
M  V30 10340 O 943.206 -0.180623 -1.77584 0
M  V30 10341 C 940.306 -0.44055 -3.36024 0
M  V30 10342 C 939.479 -1.52595 -4.09919 0
M  V30 10343 C 938.538 -1.00082 -5.16595 0
M  V30 10344 O 937.564 -1.68951 -5.43548 0
M  V30 10345 N 938.766 0.172017 -5.80245 0
M  V30 10346 H 941.531 -1.91316 -2.30691 0
M  V30 10347 H 939.092 -1.14133 -1.14828 0
M  V30 10348 H 941.084 -0.0743111 -4.04632 0
M  V30 10349 H 939.654 0.407211 -3.09936 0
M  V30 10350 H 938.874 -2.06501 -3.35784 0
M  V30 10351 H 940.162 -2.2559 -4.56055 0
M  V30 10352 H 939.56 0.748129 -5.60731 0
M  V30 10353 H 938.117 0.479532 -6.50034 0
M  V30 10354 N 941.55 1.18024 -1.04442 0
M  V30 10355 C 942.796 1.88377 -0.751133 0
M  V30 10356 C 943.129 1.80377 0.719571 0
M  V30 10357 O 942.404 1.20662 1.52548 0
M  V30 10358 C 942.687 3.38708 -1.22265 0
M  V30 10359 C 942.54 3.55499 -2.75574 0
M  V30 10360 C 943.859 4.32475 -0.815688 0
M  V30 10361 H 940.978 0.684037 -0.27434 0
M  V30 10362 H 943.62 1.38837 -1.29709 0
M  V30 10363 H 941.77 3.8103 -0.758192 0
M  V30 10364 H 943.442 3.22244 -3.30086 0
M  V30 10365 H 941.685 2.98028 -3.15217 0
M  V30 10366 H 942.356 4.60994 -3.03625 0
M  V30 10367 H 944.832 3.97953 -1.21542 0
M  V30 10368 H 943.708 5.36213 -1.17331 0
M  V30 10369 H 943.969 4.41207 0.280901 0
M  V30 10370 N 943.028 0.824394 1.34319 0
M  V30 10371 C 943.958 0.262077 2.32025 0
M  V30 10372 C 944.939 -0.622277 1.58309 0
M  V30 10373 O 946.124 -0.548848 1.86283 0
M  V30 10374 C 943.254 -0.57567 3.42496 0
M  V30 10375 C 942.208 0.21167 4.27476 0
M  V30 10376 C 941.534 -0.748913 5.29429 0
M  V30 10377 C 942.834 1.42068 5.02607 0
M  V30 10378 H 944.528 1.07842 2.79304 0
M  V30 10379 H 942.074 0.520022 1.34282 0
M  V30 10380 H 944.027 -0.979251 4.09864 0
M  V30 10381 H 942.751 -1.42508 2.93869 0
M  V30 10382 H 941.41 0.596636 3.61712 0
M  V30 10383 H 941.058 -1.59432 4.77064 0
M  V30 10384 H 940.758 -0.226313 5.87164 0
M  V30 10385 H 942.282 -1.15032 5.99667 0
M  V30 10386 H 943.696 1.09103 5.62823 0
M  V30 10387 H 942.093 1.87903 5.69923 0
M  V30 10388 H 943.163 2.1981 4.32217 0
M  V30 10389 N 944.506 -1.46559 0.579492 0
M  V30 10390 C 945.453 -2.30275 -0.155598 0
M  V30 10391 C 946.423 -1.40422 -0.887175 0
M  V30 10392 O 947.608 -1.69373 -0.878481 0
M  V30 10393 C 944.748 -3.24827 -1.16539 0
M  V30 10394 C 943.861 -4.29778 -0.43759 0
M  V30 10395 C 942.996 -5.11461 -1.43462 0
M  V30 10396 C 942.035 -6.08164 -0.693048 0
M  V30 10397 N 941.172 -6.82726 -1.63799 0
M  V30 10398 H 946.012 -2.92607 0.564356 0
M  V30 10399 H 943.549 -1.44211 0.290126 0
M  V30 10400 H 945.507 -3.78088 -1.76368 0
M  V30 10401 H 944.137 -2.64311 -1.8531 0
M  V30 10402 H 943.189 -3.794 0.27567 0
M  V30 10403 H 944.501 -4.98597 0.142298 0
M  V30 10404 H 943.655 -5.68982 -2.1058 0
M  V30 10405 H 942.394 -4.42595 -2.04844 0
M  V30 10406 H 941.399 -5.49799 -0.00807093 0
M  V30 10407 H 942.624 -6.79047 -0.0846678 0
M  V30 10408 H 940.57 -6.16572 -2.23997 0
M  V30 10409 H 940.487 -7.47795 -1.11082 0
M  V30 10410 H 941.755 -7.44807 -2.29962 0
M  V30 10411 N 945.984 -0.3171 -1.54377 0
M  V30 10412 C 947.214 0.289138 -2.04567 0
M  V30 10413 C 947.622 1.46833 -1.19318 0
M  V30 10414 O 946.965 1.82436 -0.215141 0
M  V30 10415 C 947.027 0.792994 -3.50645 0
M  V30 10416 C 946.691 -0.263033 -4.56242 0
M  V30 10417 C 947.688 -1.09694 -5.08196 0
M  V30 10418 C 945.373 -0.409364 -5.00629 0
M  V30 10419 C 947.367 -2.06297 -6.03092 0
M  V30 10420 C 945.054 -1.37882 -5.95342 0
M  V30 10421 C 946.052 -2.20409 -6.46459 0
M  V30 10422 O 945.74 -3.15708 -7.39313 0
M  V30 10423 H 945.472 0.0644005 -0.672925 0
M  V30 10424 H 948.026 -0.459438 -2.00196 0
M  V30 10425 H 946.256 1.59237 -3.52392 0
M  V30 10426 H 947.945 1.31687 -3.83944 0
M  V30 10427 H 948.711 -0.994842 -4.74687 0
M  V30 10428 H 944.59 0.223091 -4.6046 0
M  V30 10429 H 948.134 -2.70751 -6.42915 0
M  V30 10430 H 944.031 -1.48158 -6.28267 0
M  V30 10431 H 944.799 -3.10873 -7.57166 0
M  V30 10432 N 947.462 1.57535 -0.0451378 0
M  V30 10433 C 948.372 2.14653 0.946646 0
M  V30 10434 C 949.388 1.10279 1.3459 0
M  V30 10435 O 950.564 1.42417 1.42405 0
M  V30 10436 C 947.629 2.67533 2.20515 0
M  V30 10437 C 946.69 3.86682 1.86481 0
M  V30 10438 C 945.923 4.37031 3.06332 0
M  V30 10439 O 946.146 3.86481 4.1951 0
M  V30 10440 O 945.08 5.28691 2.87697 0
M  V30 10441 H 948.906 2.99706 0.49091 0
M  V30 10442 H 946.491 1.48355 0.17641 0
M  V30 10443 H 948.373 3.01542 2.94365 0
M  V30 10444 H 947.048 1.85554 2.65238 0
M  V30 10445 H 945.955 3.57573 1.09966 0
M  V30 10446 H 947.288 4.69873 1.46562 0
M  V30 10447 N 948.94 -0.228186 1.55939 0
M  V30 10448 C 949.872 -1.30605 1.88348 0
M  V30 10449 C 950.885 -1.43375 0.771198 0
M  V30 10450 O 952.074 -1.44391 1.04945 0
M  V30 10451 C 949.174 -2.68248 2.07115 0
M  V30 10452 C 948.347 -2.77509 3.38094 0
M  V30 10453 C 947.406 -3.96121 3.46373 0
M  V30 10454 O 946.432 -3.8477 4.19453 0
M  V30 10455 N 947.634 -5.10132 2.77031 0
M  V30 10456 H 950.399 -1.03132 2.81396 0
M  V30 10457 H 947.96 -0.418245 1.56404 0
M  V30 10458 H 949.952 -3.45966 2.09976 0
M  V30 10459 H 948.522 -2.88348 1.20723 0
M  V30 10460 H 947.742 -1.8632 3.47388 0
M  V30 10461 H 949.03 -2.80662 4.2439 0
M  V30 10462 H 948.428 -5.22249 2.17424 0
M  V30 10463 H 946.985 -5.85916 2.85561 0
M  V30 10464 N 950.418 -1.49637 -0.494624 0
M  V30 10465 C 951.648 -1.62928 -1.27036 0
M  V30 10466 C 952.056 -0.302464 -1.86767 0
M  V30 10467 O 951.399 0.722878 -1.68879 0
M  V30 10468 C 951.461 -2.64449 -2.43531 0
M  V30 10469 C 951.125 -4.08632 -2.0462 0
M  V30 10470 C 952.122 -4.95238 -1.58225 0
M  V30 10471 C 949.807 -4.54405 -2.1406 0
M  V30 10472 C 951.801 -6.25658 -1.21782 0
M  V30 10473 C 949.488 -5.84836 -1.77228 0
M  V30 10474 C 950.486 -6.70287 -1.31165 0
M  V30 10475 O 950.174 -7.98287 -0.948339 0
M  V30 10476 H 949.906 -0.551263 -0.391261 0
M  V30 10477 H 952.46 -1.96453 -0.599621 0
M  V30 10478 H 950.69 -2.26117 -3.137 0
M  V30 10479 H 952.379 -2.67203 -3.05545 0
M  V30 10480 H 953.145 -4.611 -1.50373 0
M  V30 10481 H 949.024 -3.88056 -2.48865 0
M  V30 10482 H 952.568 -6.92309 -0.857566 0
M  V30 10483 H 948.465 -6.18502 -1.84732 0
M  V30 10484 H 949.233 -8.11353 -1.07925 0
M  V30 10485 N 951.896 0.746133 -1.38819 0
M  V30 10486 C 952.826 1.87344 -1.39372 0
M  V30 10487 C 953.807 1.68123 -0.258583 0
M  V30 10488 O 954.992 1.88606 -0.462769 0
M  V30 10489 C 952.122 3.24962 -1.22543 0
M  V30 10490 C 951.076 3.58799 -2.33339 0
M  V30 10491 C 950.402 4.95235 -2.01609 0
M  V30 10492 C 951.702 3.62911 -3.75624 0
M  V30 10493 H 953.396 1.87138 -2.33709 0
M  V30 10494 H 950.942 0.898937 -1.12495 0
M  V30 10495 H 952.895 4.03488 -1.21554 0
M  V30 10496 H 951.619 3.25667 -0.246707 0
M  V30 10497 H 950.278 2.82596 -2.33527 0
M  V30 10498 H 949.926 4.92508 -1.02202 0
M  V30 10499 H 949.626 5.18843 -2.75819 0
M  V30 10500 H 951.15 5.76131 -2.02251 0
M  V30 10501 H 952.564 4.31535 -3.77426 0
M  V30 10502 H 950.961 3.98031 -4.491 0
M  V30 10503 H 952.031 2.62967 -4.07402 0
M  V30 10504 N 953.375 1.23811 0.975125 0
M  V30 10505 C 954.652 0.9815 1.69192 0
M  V30 10506 C 955.032 -0.498373 2.05133 0
M  V30 10507 O 954.38 -1.47087 1.74864 0
M  V30 10508 C 954.59 1.89701 2.92941 0
M  V30 10509 C 955.938 2.16357 3.65342 0
M  V30 10510 O 956.962 1.87293 3.02985 0
M  V30 10511 O 955.821 2.65675 4.77576 0
M  V30 10512 H 952.915 0.370599 0.739314 0
M  V30 10513 H 955.461 1.34876 1.02988 0
M  V30 10514 H 954.233 2.89719 2.63018 0
M  V30 10515 H 953.856 1.53244 3.66881 0
M  V30 10516 N 954.853 -1.17469 1.05066 0
M  V30 10517 C 955.801 -2.23495 0.644418 0
M  V30 10518 C 956.795 -1.66081 -0.333685 0
M  V30 10519 O 958.001 -1.78887 -0.199886 0
M  V30 10520 H 954.376 -0.727546 0.190214 0
M  V30 10521 H 956.347 -2.55058 1.5488 0
M  V30 10522 C 955.096 -3.47684 0.0338051 0
M  V30 10523 H 954.419 -3.92167 0.777513 0
M  V30 10524 H 955.859 -4.23464 -0.213086 0
M  V30 10525 C 954.318 -3.14067 -1.21915 0
M  V30 10526 O 954.848 -3.28728 -2.3087 0
M  V30 10527 N 953.054 -2.68304 -1.11631 0
M  V30 10528 H 952.601 -2.56574 -0.229673 0
M  V30 10529 H 952.559 -2.46184 -1.95553 0
M  V30 10530 N 956.331 -0.831506 -1.3388 0
M  V30 10531 C 957.261 -0.274378 -2.31882 0
M  V30 10532 C 958.242 0.613872 -1.58637 0
M  V30 10533 O 959.427 0.538961 -1.86571 0
M  V30 10534 C 956.557 0.557498 -3.42796 0
M  V30 10535 C 955.511 -0.234337 -4.27358 0
M  V30 10536 C 954.837 0.720825 -5.29819 0
M  V30 10537 C 956.137 -1.44732 -5.01847 0
M  V30 10538 H 957.831 -1.09322 -2.78728 0
M  V30 10539 H 955.377 -0.527136 -1.34005 0
M  V30 10540 H 957.33 0.957501 -4.10378 0
M  V30 10541 H 956.054 1.40947 -2.94621 0
M  V30 10542 H 954.713 -0.61581 -3.61391 0
M  V30 10543 H 954.361 1.569 -4.77903 0
M  V30 10544 H 954.061 0.195171 -5.87276 0
M  V30 10545 H 955.585 1.1185 -6.00268 0
M  V30 10546 H 956.999 -1.12087 -5.62236 0
M  V30 10547 H 955.396 -1.90923 -5.68919 0
M  V30 10548 H 956.466 -2.22099 -4.31045 0
M  V30 10549 N 957.809 1.4625 -0.587256 0
M  V30 10550 C 958.739 2.33132 0.131076 0
M  V30 10551 C 959.72 1.45619 0.879158 0
M  V30 10552 O 960.905 1.74428 0.853723 0
M  V30 10553 C 958.035 3.27975 1.14236 0
M  V30 10554 C 956.989 4.24965 0.508819 0
M  V30 10555 C 956.315 5.09349 1.62689 0
M  V30 10556 C 957.615 5.19322 -0.55694 0
M  V30 10557 H 959.309 2.93442 -0.594333 0
M  V30 10558 H 956.855 1.41106 -0.287263 0
M  V30 10559 H 958.808 3.87614 1.65328 0
M  V30 10560 H 957.532 2.65781 1.8981 0
M  V30 10561 H 956.191 3.66595 0.0189337 0
M  V30 10562 H 955.839 4.43537 2.37242 0
M  V30 10563 H 955.539 5.75036 1.20861 0
M  V30 10564 H 957.063 5.71852 2.14049 0
M  V30 10565 H 958.477 5.73151 -0.130903 0
M  V30 10566 H 956.874 5.93376 -0.895801 0
M  V30 10567 H 957.944 4.62979 -1.44148 0
M  V30 10568 N 959.287 0.325282 1.54207 0
M  V30 10569 C 960.533 -0.277185 2.00897 0
M  V30 10570 C 960.866 -1.51651 1.21308 0
M  V30 10571 O 960.141 -1.92237 0.295825 0
M  V30 10572 C 960.424 -0.60961 3.54902 0
M  V30 10573 C 960.277 0.640542 4.45216 0
M  V30 10574 C 961.596 -1.42656 4.16338 0
M  V30 10575 H 958.715 -0.0992722 0.730284 0
M  V30 10576 H 961.357 0.442201 1.84783 0
M  V30 10577 H 959.507 -1.22249 3.68765 0
M  V30 10578 H 961.179 1.27878 4.43221 0
M  V30 10579 H 959.422 1.26908 4.14821 0
M  V30 10580 H 960.093 0.363459 5.50802 0
M  V30 10581 H 962.569 -0.908494 4.06061 0
M  V30 10582 H 961.445 -1.62792 5.24204 0
M  V30 10583 H 961.706 -2.42321 3.69774 0
M  V30 10584 N 960.765 -1.57509 0.0534917 0
M  V30 10585 C 962.181 -1.56696 -0.303067 0
M  V30 10586 C 962.381 -1.06135 -1.71282 0
M  V30 10587 O 961.437 -0.71899 -2.42047 0
M  V30 10588 C 962.75 -3.00421 -0.129418 0
M  V30 10589 C 964.298 -3.12358 -0.200346 0
M  V30 10590 C 964.773 -4.57967 -0.0551971 0
M  V30 10591 N 966.264 -4.63066 -0.111398 0
M  V30 10592 C 966.999 -5.73395 -0.0232344 0
M  V30 10593 N 966.495 -6.92701 0.11741 0
M  V30 10594 N 968.288 -5.62045 -0.078984 0
M  V30 10595 H 960.439 -1.88696 0.975064 0
M  V30 10596 H 962.702 -0.869072 0.378706 0
M  V30 10597 H 962.408 -3.41456 0.842653 0
M  V30 10598 H 962.282 -3.66563 -0.889476 0
M  V30 10599 H 964.669 -2.71221 -1.16289 0
M  V30 10600 H 964.75 -2.48891 0.590506 0
M  V30 10601 H 964.394 -4.9979 0.904034 0
M  V30 10602 H 964.324 -5.19443 -0.865223 0
M  V30 10603 H 966.815 -3.77263 -0.219256 0
M  V30 10604 H 967.128 -7.72597 0.177326 0
M  V30 10605 H 965.473 -6.94833 0.152526 0
M  V30 10606 H 968.664 -4.67725 -0.187434 0
M  V30 10607 H 968.837 -6.48 -0.00681731 0
M  V30 10608 N 962.243 0.219913 -1.56058 0
M  V30 10609 C 963.49 0.944064 -1.79147 0
M  V30 10610 C 963.818 1.84268 -0.622531 0
M  V30 10611 O 963.073 1.91713 0.393013 0
M  V30 10612 C 963.372 1.81293 -3.08006 0
M  V30 10613 C 963.038 1.0674 -4.38084 0
M  V30 10614 C 961.7 0.86147 -4.73426 0
M  V30 10615 C 964.052 0.541049 -5.18384 0
M  V30 10616 C 961.38 0.117307 -5.86583 0
M  V30 10617 C 963.732 -0.189779 -6.32315 0
M  V30 10618 C 962.396 -0.406951 -6.66258 0
M  V30 10619 H 961.666 0.345458 -0.655546 0
M  V30 10620 H 964.313 0.212121 -1.90322 0
M  V30 10621 H 962.618 2.61278 -2.9196 0
M  V30 10622 H 964.315 2.3754 -3.23072 0
M  V30 10623 H 960.905 1.23789 -4.10334 0
M  V30 10624 H 965.089 0.687617 -4.91514 0
M  V30 10625 H 960.345 -0.0611651 -6.11369 0
M  V30 10626 H 964.519 -0.605134 -6.93766 0
M  V30 10627 H 962.146 -0.985511 -7.53785 0
M  V30 10628 N 963.721 1.49897 0.486681 0
M  V30 10629 C 964.651 1.7054 1.59494 0
M  V30 10630 C 965.632 0.554184 1.60819 0
M  V30 10631 O 966.817 0.791617 1.77333 0
M  V30 10632 C 963.947 1.78517 2.97908 0
M  V30 10633 C 962.901 2.93571 3.11449 0
M  V30 10634 C 962.227 2.86674 4.51356 0
M  V30 10635 C 963.527 4.34308 2.90127 0
M  V30 10636 H 965.221 2.63329 1.42472 0
M  V30 10637 H 962.767 1.2672 0.683969 0
M  V30 10638 H 964.72 1.91544 3.75352 0
M  V30 10639 H 963.444 0.823381 3.16051 0
M  V30 10640 H 962.103 2.80169 2.36433 0
M  V30 10641 H 961.751 1.88373 4.66395 0
M  V30 10642 H 961.451 3.63903 4.61355 0
M  V30 10643 H 962.975 3.01728 5.30841 0
M  V30 10644 H 964.389 4.48317 3.57331 0
M  V30 10645 H 962.786 5.12869 3.11585 0
M  V30 10646 H 963.856 4.47759 1.86119 0
M  V30 10647 N 965.199 -0.738761 1.39212 0
M  V30 10648 C 966.129 -1.86602 1.40364 0
M  V30 10649 C 967.11 -1.67984 0.267495 0
M  V30 10650 O 968.295 -1.88358 0.472765 0
M  V30 10651 C 965.425 -3.24308 1.24265 0
M  V30 10652 C 964.379 -3.57557 2.35239 0
M  V30 10653 C 963.705 -4.94159 2.04233 0
M  V30 10654 C 965.005 -3.60914 3.77543 0
M  V30 10655 H 966.699 -1.85896 2.34698 0
M  V30 10656 H 964.245 -0.892959 1.1297 0
M  V30 10657 H 966.198 -4.02838 1.23692 0
M  V30 10658 H 964.922 -3.25531 0.263974 0
M  V30 10659 H 963.581 -2.81354 2.35022 0
M  V30 10660 H 963.229 -4.91959 1.04813 0
M  V30 10661 H 962.929 -5.17373 2.78567 0
M  V30 10662 H 964.453 -5.7505 2.05303 0
M  V30 10663 H 965.867 -4.29528 3.79709 0
M  V30 10664 H 964.264 -3.95644 4.51205 0
M  V30 10665 H 965.334 -2.60803 4.08791 0
M  V30 10666 N 966.677 -1.24326 -0.968545 0
M  V30 10667 C 967.624 -1.0349 -2.06297 0
M  V30 10668 C 968.594 0.0515333 -1.6602 0
M  V30 10669 O 969.779 -0.102924 -1.90522 0
M  V30 10670 C 966.919 -0.64487 -3.39021 0
M  V30 10671 C 966.032 -1.80469 -3.92498 0
M  V30 10672 C 965.167 -1.36032 -5.13487 0
M  V30 10673 C 964.206 -2.49014 -5.59159 0
M  V30 10674 N 963.343 -2.05451 -6.71367 0
M  V30 10675 H 968.183 -1.97161 -2.23454 0
M  V30 10676 H 965.72 -0.982028 -1.0952 0
M  V30 10677 H 967.678 -0.399771 -4.1528 0
M  V30 10678 H 966.308 0.254845 -3.21792 0
M  V30 10679 H 965.36 -2.16348 -3.12886 0
M  V30 10680 H 966.672 -2.65365 -4.22354 0
M  V30 10681 H 965.826 -1.07405 -5.97117 0
M  V30 10682 H 964.565 -0.481887 -4.85313 0
M  V30 10683 H 963.57 -2.78402 -4.74102 0
M  V30 10684 H 964.795 -3.37413 -5.89346 0
M  V30 10685 H 962.741 -1.20004 -6.4493 0
M  V30 10686 H 962.658 -2.83901 -7.00668 0
M  V30 10687 H 963.926 -1.79962 -7.58442 0
M  V30 10688 N 968.156 1.1691 -1.05688 0
M  V30 10689 C 969.103 2.21095 -0.662246 0
M  V30 10690 C 970.073 1.62623 0.338083 0
M  V30 10691 O 971.258 1.89428 0.228362 0
M  V30 10692 C 968.398 3.45066 -0.0484018 0
M  V30 10693 C 967.511 4.17809 -1.09817 0
M  V30 10694 C 966.646 5.29281 -0.451114 0
M  V30 10695 C 965.685 5.93817 -1.48484 0
M  V30 10696 N 964.822 6.96793 -0.861588 0
M  V30 10697 H 969.662 2.54204 -1.55513 0
M  V30 10698 H 967.199 1.24863 -0.777665 0
M  V30 10699 H 969.157 4.15932 0.324978 0
M  V30 10700 H 967.787 3.12526 0.807918 0
M  V30 10701 H 966.839 3.45608 -1.58932 0
M  V30 10702 H 968.151 4.61907 -1.88265 0
M  V30 10703 H 967.305 6.06695 -0.0244251 0
M  V30 10704 H 966.044 4.8633 0.365306 0
M  V30 10705 H 965.049 5.1513 -1.92149 0
M  V30 10706 H 966.274 6.38848 -2.30325 0
M  V30 10707 H 964.22 6.55967 -0.0657688 0
M  V30 10708 H 964.137 7.39229 -1.58354 0
M  V30 10709 H 965.405 7.78142 -0.45984 0
M  V30 10710 N 969.634 0.838594 1.33437 0
M  V30 10711 C 970.597 0.276843 2.27522 0
M  V30 10712 C 971.597 -0.554275 1.50945 0
M  V30 10713 O 972.787 -0.368107 1.70266 0
M  V30 10714 C 969.919 -0.610036 3.35397 0
M  V30 10715 H 971.112 1.10705 2.78719 0
M  V30 10716 H 968.665 0.611657 1.43835 0
M  V30 10717 H 969.4 -1.46269 2.89441 0
M  V30 10718 H 969.185 -0.0153615 3.92097 0
M  V30 10719 H 970.675 -0.996368 4.05539 0
M  V30 10720 N 971.112 -1.45937 0.595003 0
M  V30 10721 C 972.042 -2.33198 -0.11871 0
M  V30 10722 C 973.023 -1.46083 -0.871423 0
M  V30 10723 O 974.208 -1.74879 -0.844461 0
M  V30 10724 C 971.338 -3.28576 -1.12495 0
M  V30 10725 C 970.292 -4.25229 -0.486275 0
M  V30 10726 C 969.618 -5.10204 -1.59986 0
M  V30 10727 C 970.918 -5.19019 0.584473 0
M  V30 10728 H 972.612 -2.93122 0.609886 0
M  V30 10729 H 970.158 -1.40951 0.294742 0
M  V30 10730 H 972.111 -3.88485 -1.6327 0
M  V30 10731 H 970.835 -2.66784 -1.88398 0
M  V30 10732 H 969.494 -3.666 0.000507962 0
M  V30 10733 H 969.142 -4.44789 -2.34886 0
M  V30 10734 H 968.842 -5.75669 -1.1781 0
M  V30 10735 H 970.366 -5.7298 -2.11014 0
M  V30 10736 H 971.78 -5.73073 0.161297 0
M  V30 10737 H 970.177 -5.92893 0.927256 0
M  V30 10738 H 971.247 -4.62208 1.46601 0
M  V30 10739 N 972.59 -0.333456 -1.54032 0
M  V30 10740 C 973.818 0.267813 -2.05159 0
M  V30 10741 C 974.233 1.4501 -1.20903 0
M  V30 10742 O 973.59 1.80888 -0.241994 0
M  V30 10743 C 973.641 0.69268 -3.54802 0
M  V30 10744 O 973.362 -0.442579 -4.35859 0
M  V30 10745 C 974.863 1.35572 -4.2206 0
M  V30 10746 H 972.083 0.0534924 -0.668864 0
M  V30 10747 H 974.627 -0.482515 -1.98726 0
M  V30 10748 H 972.782 1.39297 -3.6149 0
M  V30 10749 H 973.196 -0.105915 -5.24393 0
M  V30 10750 H 974.67 1.60385 -5.28186 0
M  V30 10751 H 975.147 2.30614 -3.73783 0
M  V30 10752 H 975.753 0.697748 -4.19537 0
M  V30 10753 N 974.068 1.57479 -0.061844 0
M  V30 10754 C 975.016 2.13346 0.926629 0
M  V30 10755 C 976.01 1.06787 1.31502 0
M  V30 10756 O 977.216 1.25181 1.29343 0
M  V30 10757 H 973.591 0.682046 0.316729 0
M  V30 10758 H 975.562 2.95279 0.430424 0
M  V30 10759 C 974.311 2.70198 2.18834 0
M  V30 10760 H 973.634 3.51859 1.89829 0
M  V30 10761 H 975.074 3.12897 2.86132 0
M  V30 10762 C 973.533 1.64481 2.9402 0
M  V30 10763 O 974.063 1.0639 3.87355 0
M  V30 10764 N 972.269 1.35749 2.56944 0
M  V30 10765 H 971.816 1.83177 1.81119 0
M  V30 10766 H 971.774 0.652469 3.07555 0
M  V30 10767 N 975.546 -0.211634 1.56173 0
M  V30 10768 C 976.478 -1.286 1.89723 0
M  V30 10769 C 977.491 -1.42549 0.786361 0
M  V30 10770 O 978.68 -1.4327 1.06471 0
M  V30 10771 C 975.78 -2.66036 2.09948 0
M  V30 10772 C 974.953 -2.73908 3.41018 0
M  V30 10773 C 974.012 -3.92425 3.50555 0
M  V30 10774 O 973.038 -3.803 4.2351 0
M  V30 10775 N 974.24 -5.07165 2.82426 0
M  V30 10776 H 977.005 -1.00142 2.82474 0
M  V30 10777 H 974.566 -0.401633 1.56839 0
M  V30 10778 H 976.558 -3.43719 2.13634 0
M  V30 10779 H 975.128 -2.87052 1.23774 0
M  V30 10780 H 974.348 -1.82625 3.49345 0
M  V30 10781 H 975.636 -2.76145 4.27342 0
M  V30 10782 H 975.034 -5.19913 2.2295 0
M  V30 10783 H 973.591 -5.82855 2.9176 0
M  V30 10784 N 977.024 -1.50153 -0.478725 0
M  V30 10785 C 978.44 -1.3741 -0.811833 0
M  V30 10786 C 978.64 -0.424303 -1.96982 0
M  V30 10787 O 977.696 0.13588 -2.52134 0
M  V30 10788 C 979.009 -2.78616 -1.13108 0
M  V30 10789 C 980.557 -2.87477 -1.23798 0
M  V30 10790 C 981.032 -4.295 -1.5904 0
M  V30 10791 N 982.523 -4.32415 -1.66047 0
M  V30 10792 C 983.258 -5.39295 -1.94805 0
M  V30 10793 N 982.754 -6.56392 -2.21635 0
M  V30 10794 N 984.547 -5.26731 -1.96243 0
M  V30 10795 H 976.698 -2.10486 0.284531 0
M  V30 10796 H 978.961 -0.945786 0.0647585 0
M  V30 10797 H 978.667 -3.49921 -0.35334 0
M  V30 10798 H 978.541 -3.15382 -2.06915 0
M  V30 10799 H 980.928 -2.16396 -2.00641 0
M  V30 10800 H 981.009 -2.54264 -0.279888 0
M  V30 10801 H 980.653 -5.01115 -0.827404 0
M  V30 10802 H 980.583 -4.60194 -2.55987 0
M  V30 10803 H 983.074 -3.47975 -1.47383 0
M  V30 10804 H 983.387 -7.33658 -2.4283 0
M  V30 10805 H 981.732 -6.59579 -2.19043 0
M  V30 10806 H 984.923 -4.34249 -1.74773 0
M  V30 10807 H 985.096 -6.10115 -2.1832 0
M  V30 10808 N 978.502 0.731368 -1.39602 0
M  V30 10809 C 979.751 1.48647 -1.36334 0
M  V30 10810 C 980.064 1.95565 0.0367383 0
M  V30 10811 O 981.27 2.7082 0.192017 0
M  V30 10812 C 979.726 2.68616 -2.39528 0
M  V30 10813 C 979.334 2.28632 -3.85268 0
M  V30 10814 C 981.078 3.46422 -2.45341 0
M  V30 10815 C 978.985 3.45345 -4.80095 0
M  V30 10816 H 977.915 0.558218 -0.506861 0
M  V30 10817 H 980.566 0.797467 -1.65266 0
M  V30 10818 H 978.948 3.39609 -2.03671 0
M  V30 10819 H 980.122 1.65162 -4.30184 0
M  V30 10820 H 978.437 1.63909 -3.82783 0
M  V30 10821 H 981.034 4.33241 -3.13379 0
M  V30 10822 H 981.377 3.8914 -1.47904 0
M  V30 10823 H 981.91 2.82461 -2.80108 0
M  V30 10824 H 978.649 3.07674 -5.78807 0
M  V30 10825 H 978.169 4.07784 -4.39855 0
M  V30 10826 H 979.848 4.1163 -4.99169 0
M  V30 10827 N 979.98 1.24838 0.961938 0
M  V30 10828 C 981.228 1.08936 1.70227 0
M  V30 10829 C 981.549 -0.371582 1.91427 0
M  V30 10830 O 980.819 -1.26461 1.49614 0
M  V30 10831 H 979.399 0.400128 0.630799 0
M  V30 10832 H 982.061 1.56848 1.15692 0
M  V30 10833 H 981.157 1.59195 2.68446 0
M  V30 10834 N 981.458 -1.16348 1.06306 0
M  V30 10835 C 982.408 -2.18717 0.643947 0
M  V30 10836 C 983.392 -1.57574 -0.325445 0
M  V30 10837 O 984.584 -1.76439 -0.140868 0
M  V30 10838 C 981.713 -3.43285 0.0320266 0
M  V30 10839 C 980.799 -4.11504 1.02592 0
M  V30 10840 N 981.19 -4.55374 2.20155 0
M  V30 10841 C 979.488 -4.37691 0.856887 0
M  V30 10842 C 980.189 -5.08149 2.83124 0
M  V30 10843 N 979.165 -5.01042 2.10851 0
M  V30 10844 H 982.967 -2.50353 1.53951 0
M  V30 10845 H 980.481 -1.328 0.934763 0
M  V30 10846 H 982.478 -4.15917 -0.286064 0
M  V30 10847 H 981.138 -3.13137 -0.858786 0
M  V30 10848 H 982.149 -4.49101 2.57931 0
M  V30 10849 H 978.826 -4.17496 0.0180742 0
M  V30 10850 H 980.216 -5.52131 3.82885 0
M  V30 10851 N 982.937 -0.845659 -1.3299 0
M  V30 10852 C 984.184 -0.444653 -1.97558 0
M  V30 10853 C 984.512 0.997682 -1.66963 0
M  V30 10854 O 983.767 1.71349 -0.94541 0
M  V30 10855 C 984.066 -0.6201 -3.51979 0
M  V30 10856 C 983.732 -2.03155 -4.02541 0
M  V30 10857 C 982.394 -2.4176 -4.16059 0
M  V30 10858 C 984.746 -2.95317 -4.29462 0
M  V30 10859 C 982.074 -3.71818 -4.53837 0
M  V30 10860 C 984.426 -4.24863 -4.68694 0
M  V30 10861 C 983.09 -4.63416 -4.80419 0
M  V30 10862 H 982.36 -0.16271 -0.722915 0
M  V30 10863 H 985.007 -1.07399 -1.58549 0
M  V30 10864 H 983.312 0.092513 -3.91691 0
M  V30 10865 H 985.009 -0.290012 -3.9995 0
M  V30 10866 H 981.599 -1.72174 -3.92497 0
M  V30 10867 H 985.783 -2.66726 -4.18534 0
M  V30 10868 H 981.039 -4.01484 -4.61108 0
M  V30 10869 H 985.213 -4.96347 -4.8848 0
M  V30 10870 H 982.84 -5.6424 -5.09448 0
M  V30 10871 N 984.415 1.45619 -0.602734 0
M  V30 10872 C 985.662 2.02272 -0.0960337 0
M  V30 10873 C 985.99 1.47177 1.27159 0
M  V30 10874 O 985.245 0.634593 1.85125 0
M  V30 10875 C 985.544 3.574 -0.00157909 0
M  V30 10876 C 985.21 4.31626 -1.30422 0
M  V30 10877 C 983.872 4.51622 -1.66106 0
M  V30 10878 C 986.224 4.74091 -2.16535 0
M  V30 10879 C 983.552 5.11338 -2.87663 0
M  V30 10880 C 985.904 5.35151 -3.37336 0
M  V30 10881 C 984.568 5.53371 -3.73278 0
M  V30 10882 H 983.838 0.740166 -0.0351412 0
M  V30 10883 H 986.485 1.74744 -0.783382 0
M  V30 10884 H 984.79 3.84179 0.769008 0
M  V30 10885 H 986.487 3.98934 0.406549 0
M  V30 10886 H 983.077 4.16372 -1.01647 0
M  V30 10887 H 987.261 4.5838 -1.90266 0
M  V30 10888 H 982.517 5.23634 -3.15622 0
M  V30 10889 H 986.691 5.67011 -4.04316 0
M  V30 10890 H 984.318 5.99412 -4.67556 0
M  V30 10891 N 985.893 0.34162 1.53853 0
M  V30 10892 C 987.14 -0.255484 2.00882 0
M  V30 10893 C 987.468 -1.50711 1.22949 0
M  V30 10894 O 986.723 -1.93315 0.304625 0
M  V30 10895 C 987.022 -0.616989 3.52034 0
M  V30 10896 C 986.688 0.537536 4.47684 0
M  V30 10897 C 985.35 0.854379 4.73554 0
M  V30 10898 C 987.702 1.31217 5.04412 0
M  V30 10899 C 985.03 1.94826 5.53407 0
M  V30 10900 C 987.382 2.39628 5.85458 0
M  V30 10901 C 986.046 2.71874 6.09623 0
M  V30 10902 H 985.316 -0.0934881 0.735079 0
M  V30 10903 H 987.963 0.469135 1.85665 0
M  V30 10904 H 986.268 -1.42229 3.65073 0
M  V30 10905 H 987.965 -1.09084 3.85878 0
M  V30 10906 H 984.555 0.280524 4.27681 0
M  V30 10907 H 988.739 1.08064 4.84392 0
M  V30 10908 H 983.995 2.20235 5.70356 0
M  V30 10909 H 988.169 3.00084 6.28429 0
M  V30 10910 H 985.796 3.56762 6.71286 0
M  V30 10911 N 987.371 -1.57444 0.0701946 0
M  V30 10912 C 988.617 -1.94528 -0.594177 0
M  V30 10913 C 988.972 -0.949898 -1.67316 0
M  V30 10914 O 988.265 0.0280668 -1.91579 0
M  V30 10915 C 988.459 -3.36044 -1.21694 0
M  V30 10916 C 988.288 -4.49256 -0.199806 0
M  V30 10917 C 987.058 -5.04843 0.214963 0
M  V30 10918 C 989.256 -5.11217 0.562312 0
M  V30 10919 N 987.238 -6.01595 1.22297 0
M  V30 10920 C 988.609 -6.03453 1.42284 0
M  V30 10921 C 990.664 -4.94043 0.618555 0
M  V30 10922 C 989.367 -6.80359 2.33461 0
M  V30 10923 C 991.393 -5.71591 1.51783 0
M  V30 10924 C 990.755 -6.63474 2.36604 0
M  V30 10925 H 986.854 -0.758941 -0.1885 0
M  V30 10926 H 989.438 -1.94145 0.146965 0
M  V30 10927 H 987.609 -3.37168 -1.92801 0
M  V30 10928 H 989.341 -3.60368 -1.84165 0
M  V30 10929 H 986.096 -4.73303 -0.167835 0
M  V30 10930 H 986.52 -6.5467 1.72443 0
M  V30 10931 H 991.162 -4.22794 -0.0230235 0
M  V30 10932 H 988.88 -7.50886 2.98656 0
M  V30 10933 H 992.466 -5.60324 1.56616 0
M  V30 10934 H 991.346 -7.22432 3.0506 0
M  V30 10935 N 988.849 0.203349 -1.56283 0
M  V30 10936 C 989.799 1.25595 -1.90289 0
M  V30 10937 C 990.783 1.41403 -0.767732 0
M  V30 10938 O 991.975 1.43912 -1.03046 0
M  V30 10939 C 989.104 2.60255 -2.23881 0
M  V30 10940 C 988.19 2.48274 -3.43833 0
M  V30 10941 N 988.581 2.05963 -4.61966 0
M  V30 10942 C 986.879 2.79188 -3.47808 0
M  V30 10943 C 987.58 2.05674 -5.44126 0
M  V30 10944 N 986.556 2.46862 -4.84314 0
M  V30 10945 H 990.358 0.920016 -2.79129 0
M  V30 10946 H 987.872 0.411829 -1.57091 0
M  V30 10947 H 989.869 3.36274 -2.46425 0
M  V30 10948 H 988.529 2.94678 -1.36363 0
M  V30 10949 H 989.54 1.76803 -4.86787 0
M  V30 10950 H 986.217 3.17863 -2.70684 0
M  V30 10951 H 987.607 1.74932 -6.48728 0
M  V30 10952 N 990.327 1.50405 0.470755 0
M  V30 10953 C 991.257 1.72222 1.57676 0
M  V30 10954 C 992.238 0.57121 1.60222 0
M  V30 10955 O 993.423 0.810381 1.76484 0
M  V30 10956 C 990.553 1.81666 2.95998 0
M  V30 10957 C 989.507 2.96857 3.08318 0
M  V30 10958 C 988.833 2.91445 4.4829 0
M  V30 10959 C 990.133 4.37361 2.85504 0
M  V30 10960 H 991.827 2.64825 1.39671 0
M  V30 10961 H 989.373 1.27438 0.67049 0
M  V30 10962 H 991.326 1.95514 3.73299 0
M  V30 10963 H 990.05 0.856856 3.1516 0
M  V30 10964 H 988.709 2.82661 2.33449 0
M  V30 10965 H 988.357 1.93309 4.64371 0
M  V30 10966 H 988.057 3.68776 4.57469 0
M  V30 10967 H 989.581 3.07341 5.27611 0
M  V30 10968 H 990.995 4.52081 3.52555 0
M  V30 10969 H 989.392 5.16145 3.06127 0
M  V30 10970 H 990.462 4.49708 1.81359 0
M  V30 10971 N 991.805 -0.723954 1.39988 0
M  V30 10972 C 992.752 -1.83803 1.39589 0
M  V30 10973 C 993.722 -1.64146 0.253996 0
M  V30 10974 O 994.907 -1.85398 0.450793 0
M  V30 10975 C 992.047 -3.21431 1.25604 0
M  V30 10976 C 991.16 -3.52717 2.49429 0
M  V30 10977 C 990.295 -4.79805 2.27949 0
M  V30 10978 C 989.334 -5.03968 3.47394 0
M  V30 10979 N 988.471 -6.22266 3.25161 0
M  V30 10980 H 993.311 -1.83479 2.34818 0
M  V30 10981 H 990.848 -0.896396 1.16633 0
M  V30 10982 H 992.806 -4.00892 1.15504 0
M  V30 10983 H 991.436 -3.21005 0.339986 0
M  V30 10984 H 990.488 -2.67872 2.7009 0
M  V30 10985 H 991.8 -3.66486 3.38363 0
M  V30 10986 H 990.954 -5.67268 2.15155 0
M  V30 10987 H 989.693 -4.68229 1.36428 0
M  V30 10988 H 988.698 -4.14963 3.60674 0
M  V30 10989 H 989.923 -5.17422 4.39831 0
M  V30 10990 H 987.869 -6.11957 2.36314 0
M  V30 10991 H 987.786 -6.36673 4.07656 0
M  V30 10992 H 989.054 -7.12539 3.16083 0
M  V30 10993 N 993.283 -1.25346 -0.955304 0
M  V30 10994 C 994.508 -1.12892 -1.73983 0
M  V30 10995 C 994.933 0.313455 -1.8547 0
M  V30 10996 O 994.291 1.22706 -1.33465 0
M  V30 10997 C 994.339 -1.78729 -3.1319 0
M  V30 10998 O 993.443 -1.06648 -3.98372 0
M  V30 10999 H 992.784 -0.394178 -0.534341 0
M  V30 11000 H 995.314 -1.65897 -1.19747 0
M  V30 11001 H 995.324 -1.84987 -3.63653 0
M  V30 11002 H 993.999 -2.83669 -3.04146 0
M  V30 11003 H 992.576 -1.08266 -3.56837 0
M  V30 11004 N 994.761 1.15782 -1.06922 0
M  V30 11005 C 995.671 2.24008 -0.696948 0
M  V30 11006 C 996.687 1.71569 0.289862 0
M  V30 11007 O 997.863 2.00929 0.137585 0
M  V30 11008 C 994.928 3.46568 -0.0957895 0
M  V30 11009 C 993.989 4.14017 -1.13528 0
M  V30 11010 C 993.222 5.30725 -0.562713 0
M  V30 11011 O 993.445 5.66992 0.62259 0
M  V30 11012 O 992.379 5.87572 -1.30549 0
M  V30 11013 H 996.205 2.58174 -1.59938 0
M  V30 11014 H 993.79 1.2342 -0.841889 0
M  V30 11015 H 995.672 4.20731 0.237407 0
M  V30 11016 H 994.347 3.14161 0.780027 0
M  V30 11017 H 993.254 3.41795 -1.52076 0
M  V30 11018 H 994.587 4.50493 -1.98285 0
M  V30 11019 N 996.239 0.8527 1.3254 0
M  V30 11020 C 997.172 0.240733 2.26927 0
M  V30 11021 C 998.15 -0.620158 1.50309 0
M  V30 11022 O 999.334 -0.577389 1.79439 0
M  V30 11023 C 996.461 -0.660644 3.32195 0
M  V30 11024 C 995.507 0.126604 4.26312 0
M  V30 11025 S 996.34 1.49372 5.14245 0
M  V30 11026 C 997.496 0.598002 6.23037 0
M  V30 11027 H 997.729 1.04088 2.78483 0
M  V30 11028 H 995.262 0.650222 1.40041 0
M  V30 11029 H 997.22 -1.17506 3.93323 0
M  V30 11030 H 995.881 -1.43458 2.79426 0
M  V30 11031 H 995.074 -0.559851 5.00881 0
M  V30 11032 H 994.676 0.572536 3.69592 0
M  V30 11033 H 996.968 -0.198555 6.77209 0
M  V30 11034 H 997.911 1.31428 6.95796 0
M  V30 11035 H 998.319 0.173211 5.64234 0
M  V30 11036 N 997.718 -1.45297 0.610449 0
M  V30 11037 C 998.668 -2.27639 -0.128194 0
M  V30 11038 C 999.652 -1.37485 -0.835861 0
M  V30 11039 O 1000.84 -1.61454 -0.725378 0
M  V30 11040 C 997.973 -3.24413 -1.123 0
M  V30 11041 C 997.059 -4.22055 -0.416029 0
M  V30 11042 N 997.45 -5.02867 0.543921 0
M  V30 11043 C 995.748 -4.41041 -0.663208 0
M  V30 11044 C 996.449 -5.73728 0.959731 0
M  V30 11045 N 995.425 -5.42756 0.302873 0
M  V30 11046 H 999.227 -2.8752 0.609056 0
M  V30 11047 H 996.741 -1.56484 0.434338 0
M  V30 11048 H 998.738 -3.82139 -1.6666 0
M  V30 11049 H 997.398 -2.66092 -1.86078 0
M  V30 11050 H 998.409 -5.09649 0.920799 0
M  V30 11051 H 995.086 -3.93842 -1.38544 0
M  V30 11052 H 996.476 -6.48666 1.75163 0
M  V30 11053 N 999.196 -0.349774 -1.5367 0
M  V30 11054 C 1000.14 0.519396 -2.26727 0
M  V30 11055 C 1001.14 1.09673 -1.29105 0
M  V30 11056 O 1002.34 1.04176 -1.46791 0
M  V30 11057 H 998.719 0.186192 -0.728585 0
M  V30 11058 H 1000.69 -0.118736 -2.98164 0
M  V30 11059 C 999.439 1.65535 -3.05767 0
M  V30 11060 H 998.762 1.22038 -3.80719 0
M  V30 11061 H 1000.2 2.23856 -3.6009 0
M  V30 11062 C 998.661 2.58844 -2.15642 0
M  V30 11063 O 999.191 3.61254 -1.75665 0
M  V30 11064 N 997.397 2.27671 -1.80595 0
M  V30 11065 H 996.944 1.44429 -2.13302 0
M  V30 11066 H 996.902 2.90359 -1.20577 0
M  V30 11067 N 1000.67 1.57404 -0.0785433 0
M  V30 11068 C 1001.62 2.13104 0.88631 0
M  V30 11069 C 1002.59 1.04527 1.29086 0
M  V30 11070 O 1003.78 1.32226 1.37553 0
M  V30 11071 C 1000.92 2.70252 2.14611 0
M  V30 11072 C 1000.03 3.93007 1.79358 0
M  V30 11073 C 999.164 4.38376 3 0
M  V30 11074 C 998.203 5.53761 2.60796 0
M  V30 11075 N 997.34 5.94058 3.74219 0
M  V30 11076 H 1002.18 2.95243 0.404452 0
M  V30 11077 H 999.717 1.45894 0.187982 0
M  V30 11078 H 1001.67 3.01497 2.88367 0
M  V30 11079 H 1000.3 1.90868 2.60326 0
M  V30 11080 H 999.357 3.68181 0.956384 0
M  V30 11081 H 1000.67 4.76795 1.4652 0
M  V30 11082 H 999.823 4.71317 3.82027 0
M  V30 11083 H 998.562 3.53455 3.36037 0
M  V30 11084 H 997.567 5.20464 1.77192 0
M  V30 11085 H 998.792 6.40419 2.25922 0
M  V30 11086 H 996.738 5.12085 4.10005 0
M  V30 11087 H 996.655 6.72602 3.45171 0
M  V30 11088 H 997.923 6.31624 4.56805 0
M  V30 11089 N 1002.15 -0.195058 1.56388 0
M  V30 11090 C 1003.38 -0.931642 1.84738 0
M  V30 11091 C 1003.79 -1.76849 0.661046 0
M  V30 11092 O 1003.15 -1.78705 -0.370241 0
M  V30 11093 C 1003.2 -1.82777 3.11889 0
M  V30 11094 O 1002.92 -1.02471 4.25948 0
M  V30 11095 C 1004.42 -2.67603 3.53417 0
M  V30 11096 H 1001.64 -0.271821 0.613477 0
M  V30 11097 H 1004.19 -0.202299 2.03497 0
M  V30 11098 H 1002.34 -2.51074 2.95027 0
M  V30 11099 H 1002.76 -1.63539 4.98353 0
M  V30 11100 H 1004.23 -3.26138 4.45352 0
M  V30 11101 H 1004.71 -3.41314 2.76408 0
M  V30 11102 H 1005.31 -2.04678 3.7281 0
M  V30 11103 N 1003.63 -1.50653 -0.462772 0
M  V30 11104 C 1004.88 -1.62297 -1.21603 0
M  V30 11105 C 1005.21 -0.326191 -1.91441 0
M  V30 11106 O 1004.48 0.67284 -1.82491 0
M  V30 11107 C 1004.77 -2.80901 -2.25315 0
M  V30 11108 C 1004.62 -4.20484 -1.59728 0
M  V30 11109 C 1005.94 -2.95049 -3.26549 0
M  V30 11110 H 1003.06 -0.590691 -0.440741 0
M  V30 11111 H 1005.7 -1.83064 -0.508675 0
M  V30 11112 H 1003.85 -2.63325 -2.85643 0
M  V30 11113 H 1005.52 -4.49669 -1.02932 0
M  V30 11114 H 1003.76 -4.24357 -0.900181 0
M  V30 11115 H 1004.44 -4.99416 -2.35133 0
M  V30 11116 H 1006.91 -3.11166 -2.76251 0
M  V30 11117 H 1005.79 -3.79645 -3.96435 0
M  V30 11118 H 1006.05 -2.06019 -3.91163 0
M  V30 11119 N 1005.11 0.71652 -1.4037 0
M  V30 11120 C 1006.33 1.51069 -1.42102 0
M  V30 11121 C 1006.76 1.88087 -0.0222387 0
M  V30 11122 O 1006.12 1.53204 0.969448 0
M  V30 11123 C 1006.16 2.76307 -2.31704 0
M  V30 11124 O 1005.27 3.72975 -1.75964 0
M  V30 11125 H 1004.61 0.455502 -0.483129 0
M  V30 11126 H 1007.14 0.882514 -1.84588 0
M  V30 11127 H 1007.15 3.24846 -2.46859 0
M  V30 11128 H 1005.82 2.48698 -3.3335 0
M  V30 11129 H 1004.4 3.31818 -1.70151 0
M  V30 11130 N 1006.59 1.25851 0.948643 0
M  V30 11131 C 1007.52 1.02549 2.04979 0
M  V30 11132 C 1008.53 -0.0115923 1.62796 0
M  V30 11133 O 1009.72 0.227643 1.77042 0
M  V30 11134 C 1006.82 0.529486 3.34738 0
M  V30 11135 C 1005.99 1.6341 4.05729 0
M  V30 11136 C 1005.05 1.13743 5.1376 0
M  V30 11137 O 1004.08 1.83303 5.38877 0
M  V30 11138 N 1005.28 -0.0181151 5.80497 0
M  V30 11139 H 1008.05 1.97365 2.25537 0
M  V30 11140 H 1005.61 1.17137 1.11761 0
M  V30 11141 H 1007.6 0.181566 4.04293 0
M  V30 11142 H 1006.17 -0.324893 3.10907 0
M  V30 11143 H 1005.39 2.15331 3.30191 0
M  V30 11144 H 1006.68 2.37603 4.49914 0
M  V30 11145 H 1006.07 -0.599198 5.62518 0
M  V30 11146 H 1004.63 -0.307019 6.51077 0
M  V30 11147 N 1008.06 -1.15214 1.07534 0
M  V30 11148 C 1009.48 -1.38031 0.801228 0
M  V30 11149 C 1009.68 -1.92556 -0.593672 0
M  V30 11150 O 1008.74 -2.1325 -1.35206 0
M  V30 11151 C 1010.05 -2.34958 1.87657 0
M  V30 11152 C 1011.6 -2.48617 1.90154 0
M  V30 11153 C 1012.07 -3.48837 2.96777 0
M  V30 11154 N 1013.56 -3.56374 2.95892 0
M  V30 11155 C 1014.3 -4.33746 3.75036 0
M  V30 11156 N 1013.79 -5.14435 4.64036 0
M  V30 11157 N 1015.59 -4.28853 3.63375 0
M  V30 11158 H 1007.74 -0.781639 1.97495 0
M  V30 11159 H 1010 -0.406243 0.856546 0
M  V30 11160 H 1009.71 -2.02013 2.87895 0
M  V30 11161 H 1009.58 -3.3476 1.73827 0
M  V30 11162 H 1011.97 -2.80859 0.905666 0
M  V30 11163 H 1012.05 -1.48808 2.08062 0
M  V30 11164 H 1011.69 -3.1733 3.96565 0
M  V30 11165 H 1011.62 -4.48406 2.76116 0
M  V30 11166 H 1014.11 -2.98784 2.31379 0
M  V30 11167 H 1014.43 -5.70722 5.21053 0
M  V30 11168 H 1012.77 -5.13734 4.68084 0
M  V30 11169 H 1015.96 -3.64882 2.93221 0
M  V30 11170 H 1016.14 -4.88903 4.25298 0
M  V30 11171 N 1009.54 -0.859717 -1.32086 0
M  V30 11172 C 1010.79 -0.465581 -1.97075 0
M  V30 11173 C 1011.12 0.979917 -1.68012 0
M  V30 11174 O 1010.37 1.70337 -0.96353 0
M  V30 11175 C 1010.67 -0.657397 -3.51302 0
M  V30 11176 C 1010.34 -2.07413 -4.00363 0
M  V30 11177 C 1009 -2.4616 -4.13472 0
M  V30 11178 C 1011.35 -2.99855 -4.26305 0
M  V30 11179 C 1008.68 -3.76611 -4.49868 0
M  V30 11180 C 1011.03 -4.2981 -4.64161 0
M  V30 11181 C 1009.7 -4.68485 -4.75476 0
M  V30 11182 H 1008.97 -0.170368 -0.721149 0
M  V30 11183 H 1011.61 -1.09074 -1.57401 0
M  V30 11184 H 1009.92 0.0509638 -3.91767 0
M  V30 11185 H 1011.61 -0.332416 -3.9962 0
M  V30 11186 H 1008.2 -1.76327 -3.90649 0
M  V30 11187 H 1012.39 -2.7115 -4.15682 0
M  V30 11188 H 1007.64 -4.06352 -4.56824 0
M  V30 11189 H 1011.82 -5.015 -4.83188 0
M  V30 11190 H 1009.45 -5.69612 -5.03435 0
M  V30 11191 N 1011.02 1.44971 -0.618145 0
M  V30 11192 C 1012.27 2.0176 -0.11725 0
M  V30 11193 C 1012.59 1.48773 1.26062 0
M  V30 11194 O 1011.86 0.686152 1.83491 0
M  V30 11195 H 1010.44 0.745909 -0.0403545 0
M  V30 11196 H 1013.1 1.77638 -0.801923 0
M  V30 11197 H 1012.2 3.1201 -0.0750477 0
M  V30 11198 N 1012.5 0.357919 1.53482 0
M  V30 11199 C 1013.43 -0.484231 2.28424 0
M  V30 11200 C 1014.41 -1.09046 1.30548 0
M  V30 11201 O 1015.59 -1.10916 1.59409 0
M  V30 11202 C 1012.72 -1.62803 3.06778 0
M  V30 11203 C 1011.68 -1.14943 4.12277 0
M  V30 11204 C 1011 -2.38287 4.78669 0
M  V30 11205 C 1012.3 -0.239627 5.2175 0
M  V30 11206 H 1014 0.140979 2.99068 0
M  V30 11207 H 1011.54 0.069244 1.43833 0
M  V30 11208 H 1013.5 -2.22374 3.57949 0
M  V30 11209 H 1012.22 -2.28036 2.3381 0
M  V30 11210 H 1010.88 -0.576442 3.6204 0
M  V30 11211 H 1010.53 -3.01959 4.02281 0
M  V30 11212 H 1010.23 -2.06939 5.49955 0
M  V30 11213 H 1011.75 -2.98558 5.32631 0
M  V30 11214 H 1013.17 -0.742597 5.6847 0
M  V30 11215 H 1011.56 -0.0173747 6.00097 0
M  V30 11216 H 1012.63 0.720333 4.7952 0
M  V30 11217 N 1013.98 -1.5736 0.0868897 0
M  V30 11218 C 1014.91 -2.16596 -0.872252 0
M  V30 11219 C 1015.89 -1.09706 -1.29995 0
M  V30 11220 O 1017.07 -1.37808 -1.36831 0
M  V30 11221 C 1014.2 -2.73972 -2.1344 0
M  V30 11222 C 1013.16 -3.86163 -1.8456 0
M  V30 11223 C 1012.48 -4.30206 -3.17533 0
M  V30 11224 C 1013.78 -5.0973 -1.13899 0
M  V30 11225 H 1015.48 -2.96995 -0.378738 0
M  V30 11226 H 1013.02 -1.42861 -0.18073 0
M  V30 11227 H 1014.98 -3.14062 -2.80968 0
M  V30 11228 H 1013.7 -1.90817 -2.6506 0
M  V30 11229 H 1012.36 -3.466 -1.19432 0
M  V30 11230 H 1012.01 -3.43951 -3.67024 0
M  V30 11231 H 1011.71 -5.05841 -2.98996 0
M  V30 11232 H 1013.23 -4.72922 -3.86234 0
M  V30 11233 H 1014.64 -5.4704 -1.71523 0
M  V30 11234 H 1013.04 -5.90741 -1.05569 0
M  V30 11235 H 1014.11 -4.8475 -0.120432 0
M  V30 11236 N 1015.45 0.186762 -1.56489 0
M  V30 11237 C 1016.38 1.23395 -1.98232 0
M  V30 11238 C 1017.37 1.4702 -0.855526 0
M  V30 11239 O 1018.55 1.58616 -1.12048 0
M  V30 11240 C 1015.68 2.57635 -2.32898 0
M  V30 11241 C 1014.63 2.48607 -3.48394 0
M  V30 11242 C 1013.96 3.87196 -3.68759 0
M  V30 11243 C 1015.26 2.00398 -4.82325 0
M  V30 11244 H 1016.95 0.887026 -2.85958 0
M  V30 11245 H 1014.5 0.42525 -1.37578 0
M  V30 11246 H 1016.45 3.31082 -2.60696 0
M  V30 11247 H 1015.18 2.94084 -1.42064 0
M  V30 11248 H 1013.84 1.77615 -3.207 0
M  V30 11249 H 1013.48 4.21012 -2.75241 0
M  V30 11250 H 1013.18 3.82029 -4.46462 0
M  V30 11251 H 1014.71 4.62253 -3.98941 0
M  V30 11252 H 1016.12 2.6361 -5.091 0
M  V30 11253 H 1014.52 2.06214 -5.63556 0
M  V30 11254 H 1015.59 0.957562 -4.75351 0
M  V30 11255 N 1016.93 1.50896 0.454776 0
M  V30 11256 C 1017.84 1.73762 1.5762 0
M  V30 11257 C 1018.86 0.621206 1.62533 0
M  V30 11258 O 1020.03 0.901449 1.801 0
M  V30 11259 C 1017.1 1.84183 2.9373 0
M  V30 11260 C 1016.16 3.07982 2.99075 0
M  V30 11261 C 1015.39 3.17896 4.28693 0
M  V30 11262 O 1015.62 2.34184 5.20109 0
M  V30 11263 O 1014.55 4.10749 4.39964 0
M  V30 11264 H 1018.38 2.68856 1.41245 0
M  V30 11265 H 1015.96 1.35187 0.635984 0
M  V30 11266 H 1017.84 1.93123 3.74542 0
M  V30 11267 H 1016.52 0.922742 3.10269 0
M  V30 11268 H 1015.43 3.04531 2.17282 0
M  V30 11269 H 1016.76 3.99523 2.87476 0
M  V30 11270 N 1018.41 -0.709066 1.40748 0
M  V30 11271 C 1019.64 -1.50313 1.42901 0
M  V30 11272 C 1020.06 -1.88072 0.032213 0
M  V30 11273 O 1019.42 -1.53716 -0.96131 0
M  V30 11274 C 1019.47 -2.75074 2.33166 0
M  V30 11275 O 1018.57 -3.72036 1.7794 0
M  V30 11276 H 1017.91 -0.452934 0.485538 0
M  V30 11277 H 1020.44 -0.872712 1.85054 0
M  V30 11278 H 1020.45 -3.23532 2.48578 0
M  V30 11279 H 1019.13 -2.46927 3.34664 0
M  V30 11280 H 1017.7 -3.30911 1.71908 0
M  V30 11281 N 1019.89 -1.26353 -0.941956 0
M  V30 11282 C 1021.12 -1.1446 -1.71996 0
M  V30 11283 C 1021.53 0.302957 -1.86759 0
M  V30 11284 O 1020.87 1.2193 -1.374 0
M  V30 11285 C 1020.93 -1.73986 -3.14593 0
M  V30 11286 C 1020.6 -3.23078 -3.23217 0
M  V30 11287 C 1021.59 -4.19905 -3.06554 0
M  V30 11288 C 1019.28 -3.63526 -3.46632 0
M  V30 11289 C 1021.27 -5.55159 -3.13172 0
M  V30 11290 C 1018.96 -4.98914 -3.52886 0
M  V30 11291 C 1019.96 -5.9454 -3.36172 0
M  V30 11292 O 1019.65 -7.27462 -3.42132 0
M  V30 11293 H 1019.38 -0.399453 -0.545356 0
M  V30 11294 H 1021.93 -1.67455 -1.18945 0
M  V30 11295 H 1020.16 -1.15453 -3.69063 0
M  V30 11296 H 1021.85 -1.57011 -3.74302 0
M  V30 11297 H 1022.62 -3.89995 -2.88321 0
M  V30 11298 H 1018.5 -2.8958 -3.58698 0
M  V30 11299 H 1022.04 -6.29777 -3.00044 0
M  V30 11300 H 1017.94 -5.28485 -3.70639 0
M  V30 11301 H 1018.7 -7.35725 -3.5868 0
M  V30 11302 N 1021.37 1.14642 -1.08144 0
M  V30 11303 C 1022.61 1.87277 -0.818953 0
M  V30 11304 C 1022.97 1.80896 0.643482 0
M  V30 11305 O 1024.17 2.4864 1.02135 0
M  V30 11306 C 1022.44 3.32006 -1.32314 0
M  V30 11307 S 1024 4.22284 -1.19256 0
M  V30 11308 H 1020.82 0.646204 -0.29655 0
M  V30 11309 H 1023.42 1.38261 -1.38217 0
M  V30 11310 H 1022.13 3.34197 -2.38203 0
M  V30 11311 H 1021.66 3.86078 -0.75548 0
M  V30 11312 H 1023.67 4.96016 -0.135143 0
M  V30 11313 N 1022.85 0.866709 1.31628 0
M  V30 11314 C 1024.26 0.558188 1.49521 0
M  V30 11315 C 1024.46 -0.90844 1.7986 0
M  V30 11316 O 1023.52 -1.6908 1.87531 0
M  V30 11317 C 1024.83 1.45559 2.63122 0
M  V30 11318 C 1026.38 1.45728 2.77006 0
M  V30 11319 C 1026.85 2.34017 3.937 0
M  V30 11320 N 1028.34 2.31879 4.00982 0
M  V30 11321 C 1029.08 2.96915 4.90539 0
M  V30 11322 N 1028.58 3.71109 5.85021 0
M  V30 11323 N 1030.37 2.86241 4.83759 0
M  V30 11324 H 1022.52 1.81574 1.10203 0
M  V30 11325 H 1024.78 0.77621 0.544244 0
M  V30 11326 H 1024.49 2.49904 2.47469 0
M  V30 11327 H 1024.36 1.15174 3.59186 0
M  V30 11328 H 1026.75 0.421419 2.92075 0
M  V30 11329 H 1026.83 1.80134 1.81619 0
M  V30 11330 H 1026.47 3.37678 3.79389 0
M  V30 11331 H 1026.4 1.96937 4.88388 0
M  V30 11332 H 1028.9 1.77948 3.33381 0
M  V30 11333 H 1029.21 4.1787 6.5008 0
M  V30 11334 H 1027.55 3.75217 5.8501 0
M  V30 11335 H 1030.74 2.27819 4.08921 0
M  V30 11336 H 1030.92 3.37206 5.5335 0
M  V30 11337 N 1024.32 -1.44642 0.625825 0
M  V30 11338 C 1025.29 -2.29085 -0.072526 0
M  V30 11339 C 1026.29 -1.40755 -0.777467 0
M  V30 11340 O 1027.48 -1.62684 -0.622861 0
M  V30 11341 C 1024.61 -3.22212 -1.1132 0
M  V30 11342 H 1025.8 -2.92317 0.670124 0
M  V30 11343 H 1023.35 -1.51466 0.38571 0
M  V30 11344 H 1024.09 -2.63819 -1.88601 0
M  V30 11345 H 1023.87 -3.87299 -0.611709 0
M  V30 11346 H 1025.36 -3.8566 -1.60175 0
M  V30 11347 N 1025.8 -0.366053 -1.5329 0
M  V30 11348 C 1027.04 0.223558 -2.03174 0
M  V30 11349 C 1027.41 1.45955 -1.24745 0
M  V30 11350 O 1028.61 2.12481 -1.64637 0
M  V30 11351 C 1026.88 0.507899 -3.53773 0
M  V30 11352 S 1028.44 1.07111 -4.25526 0
M  V30 11353 H 1025.25 0.0650309 -0.70802 0
M  V30 11354 H 1027.86 -0.509028 -1.88757 0
M  V30 11355 H 1026.56 -0.39913 -4.08455 0
M  V30 11356 H 1026.09 1.26954 -3.72352 0
M  V30 11357 H 1028.11 2.35533 -4.36737 0
M  V30 11358 N 1027.28 1.57312 -0.0952337 0
M  V30 11359 C 1028.53 1.93974 0.567319 0
M  V30 11360 C 1028.85 0.977805 1.68713 0
M  V30 11361 O 1028.12 0.0298944 1.95877 0
M  V30 11362 H 1026.7 0.71612 0.212558 0
M  V30 11363 H 1029.36 1.94254 -0.158598 0
M  V30 11364 H 1028.46 2.964 0.977423 0
M  V30 11365 N 1028.76 -0.17846 1.56586 0
M  V30 11366 C 1029.69 -1.2496 1.90946 0
M  V30 11367 C 1030.67 -1.43136 0.771424 0
M  V30 11368 O 1031.85 -1.58258 1.02405 0
M  V30 11369 C 1028.98 -2.61368 2.15417 0
M  V30 11370 C 1028.03 -2.59969 3.3811 0
M  V30 11371 S 1028.86 -2.09756 4.9271 0
M  V30 11372 C 1030.01 -3.47956 5.20267 0
M  V30 11373 H 1030.25 -0.956287 2.815 0
M  V30 11374 H 1027.78 -0.382709 1.49582 0
M  V30 11375 H 1029.74 -3.39882 2.30197 0
M  V30 11376 H 1028.4 -2.87903 1.25582 0
M  V30 11377 H 1027.59 -3.60309 3.52411 0
M  V30 11378 H 1027.19 -1.89547 3.2241 0
M  V30 11379 H 1029.49 -4.43914 5.11807 0
M  V30 11380 H 1030.43 -3.38536 6.21932 0
M  V30 11381 H 1030.84 -3.43637 4.47855 0
M  V30 11382 N 1030.24 -1.51135 -0.446768 0
M  V30 11383 C 1031.47 -1.66887 -1.21788 0
M  V30 11384 C 1031.87 -0.361729 -1.8571 0
M  V30 11385 O 1031.22 0.668784 -1.71093 0
M  V30 11386 C 1031.28 -2.72062 -2.34994 0
M  V30 11387 C 1030.94 -4.14935 -1.91516 0
M  V30 11388 C 1031.94 -5.00021 -1.42389 0
M  V30 11389 C 1029.62 -4.60985 -1.99495 0
M  V30 11390 C 1031.62 -6.29216 -1.01816 0
M  V30 11391 C 1029.31 -5.90179 -1.58532 0
M  V30 11392 C 1030.3 -6.74121 -1.09774 0
M  V30 11393 O 1029.99 -8.009 -0.69389 0
M  V30 11394 H 1029.72 -0.563431 -0.373525 0
M  V30 11395 H 1032.28 -1.98261 -0.536818 0
M  V30 11396 H 1030.51 -2.35983 -3.06348 0
M  V30 11397 H 1032.2 -2.76788 -2.96889 0
M  V30 11398 H 1032.96 -4.6565 -1.35627 0
M  V30 11399 H 1028.84 -3.95777 -2.36393 0
M  V30 11400 H 1032.39 -6.94687 -0.636879 0
M  V30 11401 H 1028.28 -6.24066 -1.64962 0
M  V30 11402 H 1029.05 -8.14376 -0.820582 0
M  V30 11403 N 1031.71 0.701592 -1.41122 0
M  V30 11404 C 1032.64 1.82815 -1.45262 0
M  V30 11405 C 1033.62 1.67215 -0.311939 0
M  V30 11406 O 1034.81 1.87038 -0.522538 0
M  V30 11407 C 1031.94 3.20899 -1.32819 0
M  V30 11408 C 1030.89 3.51194 -2.44636 0
M  V30 11409 C 1030.22 4.8857 -2.17263 0
M  V30 11410 C 1031.52 3.50777 -3.86979 0
M  V30 11411 H 1033.21 1.79608 -2.39544 0
M  V30 11412 H 1030.76 0.862693 -1.15298 0
M  V30 11413 H 1032.71 3.99417 -1.34329 0
M  V30 11414 H 1031.44 3.24717 -0.350191 0
M  V30 11415 H 1030.1 2.75024 -2.42399 0
M  V30 11416 H 1029.74 4.89007 -1.17819 0
M  V30 11417 H 1029.44 5.09805 -2.92186 0
M  V30 11418 H 1030.97 5.69405 -2.20478 0
M  V30 11419 H 1032.38 4.19309 -3.90964 0
M  V30 11420 H 1030.78 3.83542 -4.61536 0
M  V30 11421 H 1031.85 2.49873 -4.15562 0
M  V30 11422 N 1033.19 1.2685 0.935242 0
M  V30 11423 C 1034.14 1.08923 2.03481 0
M  V30 11424 C 1035.11 -0.00749786 1.66098 0
M  V30 11425 O 1036.29 0.153401 1.90182 0
M  V30 11426 C 1033.43 0.734529 3.37192 0
M  V30 11427 C 1032.55 1.90812 3.87576 0
M  V30 11428 C 1031.68 1.49599 5.097 0
M  V30 11429 C 1030.72 2.63752 5.5236 0
M  V30 11430 N 1029.86 2.23179 6.65684 0
M  V30 11431 H 1034.7 2.03016 2.18148 0
M  V30 11432 H 1032.23 1.01072 1.06878 0
M  V30 11433 H 1034.19 0.509734 4.14074 0
M  V30 11434 H 1032.82 -0.169438 3.22355 0
M  V30 11435 H 1031.87 2.24567 3.0704 0
M  V30 11436 H 1033.19 2.7647 4.1517 0
M  V30 11437 H 1032.34 1.23199 5.9406 0
M  V30 11438 H 1031.08 0.61039 4.83865 0
M  V30 11439 H 1030.08 2.90874 4.66554 0
M  V30 11440 H 1031.31 3.5292 5.80193 0
M  V30 11441 H 1029.26 1.37061 6.41522 0
M  V30 11442 H 1029.17 3.02379 6.92895 0
M  V30 11443 H 1030.44 2.00007 7.53404 0
M  V30 11444 N 1034.67 -1.14067 1.0875 0
M  V30 11445 C 1035.62 -2.17302 0.690195 0
M  V30 11446 C 1036.6 -1.58229 -0.291948 0
M  V30 11447 O 1037.8 -1.76698 -0.103411 0
M  V30 11448 C 1034.93 -3.4314 0.104835 0
M  V30 11449 C 1034.01 -4.09235 1.11298 0
M  V30 11450 N 1034.4 -4.50601 2.29765 0
M  V30 11451 C 1032.7 -4.35775 0.949535 0
M  V30 11452 C 1033.4 -5.02029 2.93839 0
M  V30 11453 N 1032.38 -4.96457 2.21431 0
M  V30 11454 H 1036.18 -2.47031 1.59226 0
M  V30 11455 H 1033.69 -1.30788 0.962722 0
M  V30 11456 H 1035.69 -4.16431 -0.197777 0
M  V30 11457 H 1034.35 -3.14888 -0.792172 0
M  V30 11458 H 1035.36 -4.43529 2.67399 0
M  V30 11459 H 1032.04 -4.17364 0.106627 0
M  V30 11460 H 1033.43 -5.43885 3.94511 0
M  V30 11461 N 1036.15 -0.873678 -1.31166 0
M  V30 11462 C 1037.08 -0.348011 -2.30892 0
M  V30 11463 C 1038.06 0.563092 -1.60509 0
M  V30 11464 O 1039.24 0.479332 -1.88192 0
M  V30 11465 C 1036.37 0.448158 -3.44396 0
M  V30 11466 C 1035.33 -0.370179 -4.26396 0
M  V30 11467 C 1034.65 0.551903 -5.31844 0
M  V30 11468 C 1035.95 -1.60624 -4.96988 0
M  V30 11469 H 1037.65 -1.18134 -2.75109 0
M  V30 11470 H 1035.19 -0.569502 -1.3226 0
M  V30 11471 H 1037.15 0.826458 -4.13216 0
M  V30 11472 H 1035.87 1.31503 -2.98956 0
M  V30 11473 H 1034.53 -0.730472 -3.59249 0
M  V30 11474 H 1034.18 1.41616 -4.82653 0
M  V30 11475 H 1033.88 0.00823478 -5.87599 0
M  V30 11476 H 1035.4 0.926965 -6.03523 0
M  V30 11477 H 1036.82 -1.29917 -5.58386 0
M  V30 11478 H 1035.21 -2.08926 -5.62557 0
M  V30 11479 H 1036.28 -2.357 -4.23761 0
M  V30 11480 N 1037.63 1.44308 -0.633487 0
M  V30 11481 C 1038.57 2.32455 0.0821956 0
M  V30 11482 C 1039.57 1.47482 0.833388 0
M  V30 11483 O 1040.77 1.63812 0.746021 0
M  V30 11484 H 1037.15 0.750631 0.045352 0
M  V30 11485 H 1039.12 2.90566 -0.679282 0
M  V30 11486 C 1037.87 3.31512 1.04858 0
M  V30 11487 H 1037.19 3.96908 0.479979 0
M  V30 11488 H 1038.63 3.95865 1.51879 0
M  V30 11489 C 1037.09 2.60615 2.13498 0
M  V30 11490 O 1037.62 2.40682 3.21613 0
M  V30 11491 N 1035.83 2.20315 1.89499 0
M  V30 11492 H 1035.37 2.36726 1.01581 0
M  V30 11493 H 1035.33 1.73205 2.62388 0
M  V30 11494 N 1039.1 0.374177 1.53094 0
M  V30 11495 C 1040.52 0.0234783 1.59583 0
M  V30 11496 C 1040.72 -1.45984 1.38892 0
M  V30 11497 O 1039.78 -2.22251 1.19836 0
M  V30 11498 C 1041.09 0.487117 2.96728 0
M  V30 11499 C 1042.64 0.442073 3.09862 0
M  V30 11500 C 1043.11 0.881659 4.49434 0
M  V30 11501 N 1044.6 0.837062 4.55574 0
M  V30 11502 C 1045.34 1.14878 5.61774 0
M  V30 11503 N 1044.83 1.53022 6.75689 0
M  V30 11504 N 1046.63 1.07102 5.51802 0
M  V30 11505 H 1038.78 1.34003 1.64794 0
M  V30 11506 H 1041.04 0.548281 0.773364 0
M  V30 11507 H 1040.75 1.52252 3.17037 0
M  V30 11508 H 1040.62 -0.121772 3.77003 0
M  V30 11509 H 1043.01 -0.584216 2.89259 0
M  V30 11510 H 1043.09 1.08657 2.31576 0
M  V30 11511 H 1042.73 1.90611 4.70776 0
M  V30 11512 H 1042.66 0.214326 5.26164 0
M  V30 11513 H 1045.15 0.556173 3.73785 0
M  V30 11514 H 1045.47 1.75211 7.52676 0
M  V30 11515 H 1043.81 1.56895 6.77059 0
M  V30 11516 H 1047 0.772149 4.61688 0
M  V30 11517 H 1047.18 1.31728 6.3447 0
M  V30 11518 N 1040.58 -1.57259 0.103575 0
M  V30 11519 C 1041.51 -2.1153 -0.882472 0
M  V30 11520 C 1042.53 -1.05446 -1.24036 0
M  V30 11521 O 1043.72 -1.32867 -1.192 0
M  V30 11522 C 1040.82 -2.58717 -2.18903 0
M  V30 11523 C 1039.99 -3.8873 -2.00519 0
M  V30 11524 C 1039.05 -4.21675 -3.14764 0
M  V30 11525 O 1038.07 -4.90755 -2.88355 0
M  V30 11526 N 1039.28 -3.77757 -4.40772 0
M  V30 11527 H 1042.04 -2.96758 -0.418901 0
M  V30 11528 H 1039.6 -1.61696 -0.0812921 0
M  V30 11529 H 1041.59 -2.77797 -2.94297 0
M  V30 11530 H 1040.16 -1.78454 -2.56657 0
M  V30 11531 H 1039.38 -3.78714 -1.09406 0
M  V30 11532 H 1040.67 -4.73771 -1.85522 0
M  V30 11533 H 1040.07 -3.22011 -4.65108 0
M  V30 11534 H 1038.63 -4.01975 -5.13088 0
M  V30 11535 N 1042.06 0.170153 -1.56679 0
M  V30 11536 C 1043.31 0.887906 -1.8233 0
M  V30 11537 C 1043.64 1.81845 -0.681608 0
M  V30 11538 O 1042.91 1.9191 0.316362 0
M  V30 11539 C 1043.2 1.68256 -3.18374 0
M  V30 11540 C 1043.05 0.775059 -4.43072 0
M  V30 11541 C 1044.37 2.65001 -3.51372 0
M  V30 11542 H 1041.49 0.32135 -0.663252 0
M  V30 11543 H 1044.13 0.154065 -1.89374 0
M  V30 11544 H 1042.28 2.30817 -3.12499 0
M  V30 11545 H 1043.95 0.162234 -4.61015 0
M  V30 11546 H 1042.2 0.0831809 -4.3372 0
M  V30 11547 H 1042.87 1.36661 -5.34816 0
M  V30 11548 H 1045.34 2.12566 -3.57708 0
M  V30 11549 H 1044.22 3.17667 -4.47637 0
M  V30 11550 H 1044.48 3.45255 -2.76136 0
M  V30 11551 N 1043.54 1.5137 0.438746 0
M  V30 11552 C 1044.45 1.75424 1.55768 0
M  V30 11553 C 1045.46 0.638409 1.61865 0
M  V30 11554 O 1046.64 0.9205 1.79133 0
M  V30 11555 C 1043.71 1.87288 2.9176 0
M  V30 11556 C 1042.77 3.11137 2.95791 0
M  V30 11557 C 1042 3.22425 4.25297 0
M  V30 11558 O 1042.22 2.39688 5.17596 0
M  V30 11559 O 1041.16 4.15393 4.35583 0
M  V30 11560 H 1044.98 2.70339 1.38386 0
M  V30 11561 H 1042.57 1.35854 0.621609 0
M  V30 11562 H 1044.45 1.97085 3.72472 0
M  V30 11563 H 1043.12 0.955599 3.09273 0
M  V30 11564 H 1042.03 3.06819 2.1404 0
M  V30 11565 H 1043.36 4.02549 2.83223 0
M  V30 11566 N 1045.02 -0.694098 1.41492 0
M  V30 11567 C 1045.98 -1.78976 1.43179 0
M  V30 11568 C 1046.98 -1.57539 0.322191 0
M  V30 11569 O 1048.17 -1.64185 0.582138 0
M  V30 11570 C 1045.3 -3.17368 1.2446 0
M  V30 11571 H 1046.49 -1.78874 2.40716 0
M  V30 11572 H 1044.05 -0.901867 1.27656 0
M  V30 11573 H 1044.78 -3.23109 0.277691 0
M  V30 11574 H 1044.57 -3.3433 2.04856 0
M  V30 11575 H 1046.06 -3.97345 1.28479 0
M  V30 11576 N 1046.49 -1.27344 -0.928501 0
M  V30 11577 C 1047.43 -1.04322 -2.02959 0
M  V30 11578 C 1048.41 0.0361118 -1.6256 0
M  V30 11579 O 1049.59 -0.108872 -1.88185 0
M  V30 11580 C 1046.72 -0.582329 -3.33656 0
M  V30 11581 C 1045.76 -1.65611 -3.93033 0
M  V30 11582 S 1046.6 -3.2484 -4.25722 0
M  V30 11583 C 1047.75 -2.8055 -5.59502 0
M  V30 11584 H 1047.98 -1.97548 -2.22176 0
M  V30 11585 H 1045.52 -1.11167 -1.07151 0
M  V30 11586 H 1047.48 -0.323095 -4.09227 0
M  V30 11587 H 1046.14 0.329858 -3.12363 0
M  V30 11588 H 1045.33 -1.28491 -4.87346 0
M  V30 11589 H 1044.93 -1.86738 -3.24045 0
M  V30 11590 H 1047.22 -2.25803 -6.38764 0
M  V30 11591 H 1048.17 -3.73603 -6.0152 0
M  V30 11592 H 1048.57 -2.19717 -5.19985 0
M  V30 11593 N 1047.97 1.13488 -1.09353 0
M  V30 11594 C 1048.88 2.2248 -0.744307 0
M  V30 11595 C 1049.9 1.72145 0.253404 0
M  V30 11596 O 1051.07 2.01176 0.0949339 0
M  V30 11597 C 1048.14 3.46286 -0.16928 0
M  V30 11598 C 1047.2 4.11516 -1.22284 0
M  V30 11599 C 1046.43 5.29412 -0.675161 0
M  V30 11600 O 1046.66 5.68185 0.502182 0
M  V30 11601 O 1045.59 5.8467 -1.42983 0
M  V30 11602 H 1049.42 2.54723 -1.65378 0
M  V30 11603 H 1047 1.21607 -0.867879 0
M  V30 11604 H 1048.88 4.2114 0.14811 0
M  V30 11605 H 1047.56 3.15745 0.713214 0
M  V30 11606 H 1046.47 3.38492 -1.59292 0
M  V30 11607 H 1047.8 4.46186 -2.07796 0
M  V30 11608 N 1049.45 0.880621 1.30701 0
M  V30 11609 C 1050.4 0.342397 2.28246 0
M  V30 11610 C 1051.37 -0.565023 1.56194 0
M  V30 11611 O 1052.55 -0.494377 1.84284 0
M  V30 11612 C 1049.69 -0.440859 3.42272 0
M  V30 11613 C 1048.81 0.495284 4.29151 0
M  V30 11614 C 1047.94 -0.303141 5.30334 0
M  V30 11615 C 1046.98 0.628751 6.08862 0
M  V30 11616 N 1046.12 -0.13408 7.01972 0
M  V30 11617 H 1050.96 1.17938 2.73669 0
M  V30 11618 H 1048.49 0.59296 1.34619 0
M  V30 11619 H 1050.45 -0.910854 4.07135 0
M  V30 11620 H 1049.08 -1.24245 2.97931 0
M  V30 11621 H 1048.13 1.08376 3.64635 0
M  V30 11622 H 1049.45 1.2094 4.83916 0
M  V30 11623 H 1048.6 -0.835181 6.00924 0
M  V30 11624 H 1047.34 -1.05049 4.76252 0
M  V30 11625 H 1046.34 1.17246 5.37153 0
M  V30 11626 H 1047.57 1.37512 6.65032 0
M  V30 11627 H 1045.52 -0.864046 6.50285 0
M  V30 11628 H 1045.43 0.520486 7.54206 0
M  V30 11629 H 1046.7 -0.647005 7.7681 0
M  V30 11630 N 1050.93 -1.4397 0.641131 0
M  V30 11631 C 1051.86 -2.33458 -0.04446 0
M  V30 11632 C 1052.84 -1.48781 -0.824507 0
M  V30 11633 O 1054.03 -1.77477 -0.788397 0
M  V30 11634 C 1051.16 -3.31989 -1.01984 0
M  V30 11635 C 1050.11 -4.2656 -0.350745 0
M  V30 11636 C 1049.44 -5.15036 -1.43673 0
M  V30 11637 C 1050.74 -5.16897 0.749299 0
M  V30 11638 H 1052.43 -2.91034 0.702832 0
M  V30 11639 H 1049.98 -1.39942 0.339435 0
M  V30 11640 H 1051.93 -3.93483 -1.50828 0
M  V30 11641 H 1050.65 -2.72643 -1.79815 0
M  V30 11642 H 1049.31 -3.66413 0.117139 0
M  V30 11643 H 1048.96 -4.52037 -2.20617 0
M  V30 11644 H 1048.66 -5.79125 -0.994358 0
M  V30 11645 H 1050.18 -5.79403 -1.92678 0
M  V30 11646 H 1051.6 -5.7227 0.343534 0
M  V30 11647 H 1049.99 -5.89643 1.11541 0
M  V30 11648 H 1051.06 -4.5731 1.61232 0
M  V30 11649 N 1052.41 -0.382291 -1.52893 0
M  V30 11650 C 1053.66 0.203342 -2.00672 0
M  V30 11651 C 1053.97 1.48487 -1.27322 0
M  V30 11652 O 1055.18 2.15013 -1.65776 0
M  V30 11653 C 1053.63 0.412922 -3.57523 0
M  V30 11654 C 1053.24 -0.854949 -4.39767 0
M  V30 11655 C 1054.98 0.955301 -4.13611 0
M  V30 11656 C 1052.89 -0.614033 -5.88204 0
M  V30 11657 H 1051.82 0.0797635 -0.749769 0
M  V30 11658 H 1054.47 -0.50361 -1.76454 0
M  V30 11659 H 1052.85 1.18155 -3.77962 0
M  V30 11660 H 1054.03 -1.62765 -4.31096 0
M  V30 11661 H 1052.34 -1.32176 -3.94865 0
M  V30 11662 H 1054.94 1.15114 -5.22162 0
M  V30 11663 H 1055.28 1.92233 -3.69259 0
M  V30 11664 H 1055.82 0.24642 -3.97036 0
M  V30 11665 H 1052.55 -1.55187 -6.36865 0
M  V30 11666 H 1052.07 0.119865 -5.9968 0
M  V30 11667 H 1053.75 -0.245895 -6.46533 0
M  V30 11668 N 1053.89 1.57202 -0.111913 0
M  V30 11669 C 1054.83 2.16186 0.858286 0
M  V30 11670 C 1055.83 1.10917 1.28039 0
M  V30 11671 O 1057.03 1.29233 1.25295 0
M  V30 11672 H 1053.41 0.691777 0.29487 0
M  V30 11673 H 1055.38 2.96499 0.336265 0
M  V30 11674 C 1054.13 2.77024 2.10127 0
M  V30 11675 H 1053.45 3.5772 1.78539 0
M  V30 11676 H 1054.89 3.21841 2.76033 0
M  V30 11677 C 1053.35 1.73752 2.88638 0
M  V30 11678 O 1053.88 1.18659 3.83774 0
M  V30 11679 N 1052.09 1.43855 2.52496 0
M  V30 11680 H 1051.63 1.88846 1.75199 0
M  V30 11681 H 1051.59 0.749985 3.05324 0
M  V30 11682 N 1055.36 -0.161842 1.56767 0
M  V30 11683 C 1056.29 -1.20226 2.0017 0
M  V30 11684 C 1057.27 -1.4564 0.878807 0
M  V30 11685 O 1058.46 -1.56813 1.14557 0
M  V30 11686 C 1055.59 -2.53897 2.36968 0
M  V30 11687 C 1054.54 -2.43033 3.52305 0
M  V30 11688 C 1053.87 -3.81281 3.74872 0
M  V30 11689 C 1055.17 -1.927 4.85453 0
M  V30 11690 H 1056.86 -0.84142 2.87333 0
M  V30 11691 H 1054.41 -0.403309 1.38237 0
M  V30 11692 H 1056.36 -3.26893 2.6593 0
M  V30 11693 H 1055.09 -2.91787 1.46724 0
M  V30 11694 H 1053.75 -1.7249 3.23485 0
M  V30 11695 H 1053.39 -4.1658 2.81904 0
M  V30 11696 H 1053.09 -3.74877 4.52483 0
M  V30 11697 H 1054.62 -4.55848 4.06245 0
M  V30 11698 H 1056.03 -2.55477 5.13229 0
M  V30 11699 H 1054.43 -1.97222 5.66766 0
M  V30 11700 H 1055.5 -0.881816 4.76814 0
M  V30 11701 N 1056.84 -1.516 -0.430713 0
M  V30 11702 C 1058.07 -1.68414 -1.20185 0
M  V30 11703 C 1058.48 -0.384297 -1.84847 0
M  V30 11704 O 1057.84 0.637808 -1.70992 0
M  V30 11705 C 1057.89 -2.80451 -2.28099 0
M  V30 11706 O 1057.61 -4.05399 -1.66081 0
M  V30 11707 C 1059.11 -3.0859 -3.18256 0
M  V30 11708 H 1056.33 -0.564982 -0.361989 0
M  V30 11709 H 1058.88 -1.9805 -0.50954 0
M  V30 11710 H 1057.03 -2.53395 -2.93036 0
M  V30 11711 H 1057.45 -4.67671 -2.37453 0
M  V30 11712 H 1058.92 -3.9055 -3.90096 0
M  V30 11713 H 1059.4 -2.21264 -3.79393 0
M  V30 11714 H 1060 -3.37331 -2.59014 0
M  V30 11715 N 1058.32 0.686584 -1.41858 0
M  V30 11716 C 1059.6 1.44176 -1.32185 0
M  V30 11717 C 1059.98 2.11049 0.046362 0
M  V30 11718 O 1059.32 2.02365 1.06117 0
M  V30 11719 C 1059.53 2.45385 -2.48168 0
M  V30 11720 C 1060.88 3.10375 -2.89746 0
M  V30 11721 O 1061.91 2.55711 -2.47973 0
M  V30 11722 O 1060.77 4.09404 -3.62009 0
M  V30 11723 H 1057.86 0.642513 -0.520678 0
M  V30 11724 H 1060.41 0.716303 -1.53841 0
M  V30 11725 H 1059.18 1.94687 -3.3943 0
M  V30 11726 H 1058.8 3.25428 -2.28435 0
M  V30 11727 N 1059.8 1.27835 0.921735 0
M  V30 11728 C 1061.05 1.13904 1.6646 0
M  V30 11729 C 1061.36 -0.313379 1.93073 0
M  V30 11730 O 1062.57 -0.573687 2.6537 0
M  V30 11731 C 1061.02 1.99064 2.99836 0
M  V30 11732 C 1060.63 3.48998 2.80899 0
M  V30 11733 C 1062.37 1.93797 3.77681 0
M  V30 11734 C 1060.28 4.26337 4.09867 0
M  V30 11735 H 1059.21 0.422681 0.624385 0
M  V30 11736 H 1061.86 1.52303 1.02352 0
M  V30 11737 H 1060.24 1.53514 3.65034 0
M  V30 11738 H 1061.42 4.02452 2.24431 0
M  V30 11739 H 1059.73 3.55707 2.16476 0
M  V30 11740 H 1062.33 2.48852 4.73262 0
M  V30 11741 H 1062.67 0.912928 4.06167 0
M  V30 11742 H 1063.21 2.37275 3.19289 0
M  V30 11743 H 1059.94 5.2939 3.86557 0
M  V30 11744 H 1059.46 3.77659 4.65976 0
M  V30 11745 H 1061.14 4.3583 4.78185 0
M  V30 11746 N 1061.28 -1.12907 1.09954 0
M  V30 11747 C 1062.21 -2.20585 0.765799 0
M  V30 11748 C 1063.19 -1.68117 -0.258989 0
M  V30 11749 O 1064.37 -1.93792 -0.125853 0
M  V30 11750 C 1061.5 -3.46772 0.191435 0
M  V30 11751 C 1060.46 -4.12363 1.14635 0
M  V30 11752 C 1059.78 -5.3294 0.433426 0
M  V30 11753 C 1061.08 -4.59073 2.49096 0
M  V30 11754 H 1062.78 -2.48759 1.66612 0
M  V30 11755 H 1060.32 -1.19563 0.802534 0
M  V30 11756 H 1062.27 -4.21365 -0.0541535 0
M  V30 11757 H 1061 -3.18011 -0.744101 0
M  V30 11758 H 1059.66 -3.39744 1.37731 0
M  V30 11759 H 1059.31 -5.00444 -0.506422 0
M  V30 11760 H 1059.01 -5.77772 1.07018 0
M  V30 11761 H 1060.53 -6.10284 0.196267 0
M  V30 11762 H 1061.94 -5.25063 2.30177 0
M  V30 11763 H 1060.34 -5.14665 3.0861 0
M  V30 11764 H 1061.41 -3.73313 3.0946 0
M  V30 11765 N 1062.75 -0.88754 -1.30232 0
M  V30 11766 C 1063.7 -0.354497 -2.28061 0
M  V30 11767 C 1064.67 0.556732 -1.56492 0
M  V30 11768 O 1065.86 0.484597 -1.84543 0
M  V30 11769 C 1063 0.422701 -3.42501 0
M  V30 11770 C 1062.11 -0.518036 -4.28883 0
M  V30 11771 C 1061.24 0.275011 -5.30488 0
M  V30 11772 C 1060.28 -0.661032 -6.0852 0
M  V30 11773 N 1059.42 0.0968509 -7.02033 0
M  V30 11774 H 1064.26 -1.19388 -2.73039 0
M  V30 11775 H 1061.8 -0.600091 -1.34303 0
M  V30 11776 H 1063.75 0.889249 -4.07613 0
M  V30 11777 H 1062.38 1.22664 -2.98586 0
M  V30 11778 H 1061.44 -1.10308 -3.64055 0
M  V30 11779 H 1062.75 -1.23504 -4.83268 0
M  V30 11780 H 1061.9 0.803301 -6.01358 0
M  V30 11781 H 1060.64 1.02522 -4.76802 0
M  V30 11782 H 1059.65 -1.20093 -5.36524 0
M  V30 11783 H 1060.87 -1.41037 -6.64293 0
M  V30 11784 H 1058.82 0.829548 -6.50734 0
M  V30 11785 H 1058.73 -0.560476 -7.5392 0
M  V30 11786 H 1060 0.6058 -7.77142 0
M  V30 11787 N 1064.23 1.43628 -0.648757 0
M  V30 11788 C 1065.16 2.29045 0.0841858 0
M  V30 11789 C 1066.18 1.42262 0.791537 0
M  V30 11790 O 1067.37 1.66243 0.650039 0
M  V30 11791 C 1064.47 3.19075 1.14212 0
M  V30 11792 C 1063.64 4.34372 0.513799 0
M  V30 11793 C 1062.7 5.05307 1.46803 0
M  V30 11794 O 1061.72 5.60729 0.978346 0
M  V30 11795 N 1062.93 5.08393 2.80209 0
M  V30 11796 H 1065.69 2.9259 -0.648948 0
M  V30 11797 H 1063.25 1.54268 -0.491209 0
M  V30 11798 H 1065.24 3.63395 1.78119 0
M  V30 11799 H 1063.81 2.57161 1.77728 0
M  V30 11800 H 1063.03 3.93024 -0.304262 0
M  V30 11801 H 1064.32 5.08745 0.0749871 0
M  V30 11802 H 1063.72 4.64729 3.22557 0
M  V30 11803 H 1062.28 5.56445 3.3943 0
M  V30 11804 N 1065.71 0.390394 1.52688 0
M  V30 11805 C 1066.62 -0.451543 2.30213 0
M  V30 11806 C 1067.64 -1.07051 1.37172 0
M  V30 11807 O 1068.81 -1.07609 1.70242 0
M  V30 11808 C 1065.88 -1.56299 3.0947 0
M  V30 11809 C 1064.94 -0.969017 4.18221 0
M  V30 11810 C 1064.17 -2.0275 4.93688 0
M  V30 11811 O 1064.39 -3.24273 4.69258 0
M  V30 11812 O 1063.33 -1.64418 5.79008 0
M  V30 11813 H 1067.15 0.180042 3.03166 0
M  V30 11814 H 1064.74 0.154082 1.48603 0
M  V30 11815 H 1066.62 -2.20864 3.58883 0
M  V30 11816 H 1065.3 -2.17952 2.3933 0
M  V30 11817 H 1064.2 -0.286587 3.73001 0
M  V30 11818 H 1065.54 -0.396687 4.90599 0
M  V30 11819 N 1067.19 -1.57141 0.120249 0
M  V30 11820 C 1068.14 -2.15379 -0.829497 0
M  V30 11821 C 1069.11 -1.07913 -1.2627 0
M  V30 11822 O 1070.29 -1.35827 -1.33999 0
M  V30 11823 C 1067.43 -2.75847 -2.0737 0
M  V30 11824 C 1066.54 -3.97624 -1.68875 0
M  V30 11825 C 1065.68 -4.46175 -2.88272 0
M  V30 11826 C 1064.72 -5.60481 -2.46023 0
M  V30 11827 N 1063.85 -6.0377 -3.58337 0
M  V30 11828 H 1068.69 -2.96211 -0.326031 0
M  V30 11829 H 1066.23 -1.46341 -0.149235 0
M  V30 11830 H 1068.19 -3.09037 -2.80272 0
M  V30 11831 H 1066.82 -1.97703 -2.55174 0
M  V30 11832 H 1065.87 -3.70588 -0.858431 0
M  V30 11833 H 1067.18 -4.80512 -1.33827 0
M  V30 11834 H 1066.34 -4.8128 -3.69397 0
M  V30 11835 H 1065.08 -3.6224 -3.26548 0
M  V30 11836 H 1064.08 -5.24979 -1.63331 0
M  V30 11837 H 1065.31 -6.46184 -2.08863 0
M  V30 11838 H 1063.25 -5.22776 -3.96284 0
M  V30 11839 H 1063.17 -6.81517 -3.27217 0
M  V30 11840 H 1064.44 -6.43514 -4.39898 0
M  V30 11841 N 1068.67 0.153526 -1.5685 0
M  V30 11842 C 1069.61 1.18973 -1.97773 0
M  V30 11843 C 1070.58 1.43041 -0.844311 0
M  V30 11844 O 1071.77 1.55484 -1.10586 0
M  V30 11845 C 1068.91 2.51981 -2.35795 0
M  V30 11846 C 1068.02 2.35143 -3.62397 0
M  V30 11847 C 1067.16 3.61141 -3.89552 0
M  V30 11848 C 1066.2 3.39311 -5.09445 0
M  V30 11849 N 1065.33 4.57423 -5.32643 0
M  V30 11850 H 1070.17 0.833758 -2.86099 0
M  V30 11851 H 1067.71 0.400252 -1.4155 0
M  V30 11852 H 1069.67 3.29527 -2.55867 0
M  V30 11853 H 1068.3 2.85539 -1.50557 0
M  V30 11854 H 1067.35 1.48684 -3.50139 0
M  V30 11855 H 1068.66 2.14969 -4.501 0
M  V30 11856 H 1067.82 4.47117 -4.10087 0
M  V30 11857 H 1066.55 3.84312 -3.00259 0
M  V30 11858 H 1065.56 2.51723 -4.8879 0
M  V30 11859 H 1066.78 3.17545 -6.00285 0
M  V30 11860 H 1064.73 4.8078 -4.46303 0
M  V30 11861 H 1064.65 4.40228 -6.14602 0
M  V30 11862 H 1065.92 5.44632 -5.57671 0
M  V30 11863 N 1070.14 1.51827 0.422667 0
M  V30 11864 C 1071.42 1.55772 1.18299 0
M  V30 11865 C 1071.8 0.330657 2.08494 0
M  V30 11866 O 1071.15 -0.683373 2.18042 0
M  V30 11867 C 1071.36 2.87941 1.97208 0
M  V30 11868 C 1072.71 3.4044 2.53744 0
M  V30 11869 O 1073.73 2.8959 2.07403 0
M  V30 11870 O 1072.59 4.29201 3.38303 0
M  V30 11871 H 1069.68 0.626889 0.539388 0
M  V30 11872 H 1072.23 1.64147 0.430545 0
M  V30 11873 H 1071 3.68702 1.31052 0
M  V30 11874 H 1070.63 2.82795 2.79486 0
M  V30 11875 N 1071.62 -0.679052 1.4222 0
M  V30 11876 C 1072.53 -1.82221 1.47759 0
M  V30 11877 C 1073.55 -1.70092 0.3667 0
M  V30 11878 O 1074.72 -1.91718 0.616957 0
M  V30 11879 C 1071.79 -3.18332 1.37351 0
M  V30 11880 C 1070.85 -3.42449 2.58896 0
M  V30 11881 C 1070.08 -4.72067 2.48976 0
M  V30 11882 O 1070.31 -5.49683 1.5233 0
M  V30 11883 O 1069.24 -4.97333 3.39033 0
M  V30 11884 H 1073.07 -1.80504 2.44238 0
M  V30 11885 H 1070.65 -0.834251 1.23938 0
M  V30 11886 H 1072.53 -3.99563 1.33893 0
M  V30 11887 H 1071.21 -3.20696 0.439965 0
M  V30 11888 H 1070.12 -2.61083 2.6793 0
M  V30 11889 H 1071.45 -3.44912 3.51136 0
M  V30 11890 N 1073.1 -1.28322 -0.914942 0
M  V30 11891 C 1074.33 -1.18254 -1.69775 0
M  V30 11892 C 1074.74 0.258978 -1.87015 0
M  V30 11893 O 1074.1 1.17514 -1.3963 0
M  V30 11894 C 1074.15 -1.8753 -3.09054 0
M  V30 11895 O 1073.87 -3.26051 -2.92613 0
M  V30 11896 C 1075.37 -1.83749 -4.03424 0
M  V30 11897 H 1072.59 -0.41055 -0.530744 0
M  V30 11898 H 1075.14 -1.69425 -1.14523 0
M  V30 11899 H 1073.29 -1.40233 -3.61128 0
M  V30 11900 H 1073.71 -3.60729 -3.80756 0
M  V30 11901 H 1075.18 -2.36813 -4.98622 0
M  V30 11902 H 1075.66 -0.809601 -4.31674 0
M  V30 11903 H 1076.26 -2.3072 -3.57279 0
M  V30 11904 N 1074.58 1.12322 -1.10551 0
M  V30 11905 C 1075.51 2.17819 -0.713263 0
M  V30 11906 C 1076.52 1.6086 0.250604 0
M  V30 11907 O 1077.71 1.78466 0.0348909 0
M  V30 11908 C 1074.81 3.38885 -0.0320325 0
M  V30 11909 C 1073.99 4.25332 -1.02038 0
M  V30 11910 C 1073.04 5.24895 -0.370412 0
M  V30 11911 O 1072.07 5.59958 -1.02157 0
M  V30 11912 N 1073.27 5.73934 0.870633 0
M  V30 11913 H 1076.04 2.52083 -1.62094 0
M  V30 11914 H 1073.6 1.27755 -0.994492 0
M  V30 11915 H 1075.59 4.02574 0.414285 0
M  V30 11916 H 1074.16 3.02762 0.778072 0
M  V30 11917 H 1073.38 3.5824 -1.64492 0
M  V30 11918 H 1074.67 4.79936 -1.68936 0
M  V30 11919 H 1074.07 5.47614 1.419 0
M  V30 11920 H 1072.62 6.39504 1.26008 0
M  V30 11921 N 1076.06 0.894434 1.2976 0
M  V30 11922 C 1077 0.366586 2.2787 0
M  V30 11923 C 1077.97 -0.548425 1.56785 0
M  V30 11924 O 1079.16 -0.474804 1.84798 0
M  V30 11925 C 1076.3 -0.404531 3.42721 0
M  V30 11926 C 1075.41 0.540774 4.28602 0
M  V30 11927 C 1074.55 -0.246875 5.30626 0
M  V30 11928 C 1073.59 0.693294 6.08161 0
M  V30 11929 N 1072.72 -0.059619 7.02075 0
M  V30 11930 H 1077.56 1.20834 2.72402 0
M  V30 11931 H 1075.1 0.607205 1.33983 0
M  V30 11932 H 1077.06 -0.86762 4.08079 0
M  V30 11933 H 1075.69 -1.21078 2.99232 0
M  V30 11934 H 1074.74 1.12237 3.63465 0
M  V30 11935 H 1076.05 1.26065 4.82606 0
M  V30 11936 H 1075.21 -0.771398 6.01776 0
M  V30 11937 H 1073.94 -0.999918 4.77339 0
M  V30 11938 H 1072.95 1.22936 5.35879 0
M  V30 11939 H 1074.17 1.44558 6.63536 0
M  V30 11940 H 1072.12 -0.795026 6.51165 0
M  V30 11941 H 1072.04 0.60045 7.53612 0
M  V30 11942 H 1073.31 -0.564577 7.77453 0
M  V30 11943 N 1077.53 -1.43282 0.656365 0
M  V30 11944 C 1078.78 -2.02075 0.171293 0
M  V30 11945 C 1079.11 -1.51682 -1.21269 0
M  V30 11946 O 1078.39 -0.711243 -1.81029 0
M  V30 11947 C 1078.67 -3.59621 0.185602 0
M  V30 11948 C 1078.52 -4.20239 1.60373 0
M  V30 11949 C 1079.84 -4.37515 -0.476289 0
M  V30 11950 H 1076.96 -0.73424 0.0637185 0
M  V30 11951 H 1079.6 -1.70539 0.837648 0
M  V30 11952 H 1077.75 -3.86619 -0.381804 0
M  V30 11953 H 1079.43 -4.0426 2.22197 0
M  V30 11954 H 1077.67 -3.76769 2.15006 0
M  V30 11955 H 1078.34 -5.29333 1.56557 0
M  V30 11956 H 1080.82 -4.16099 0.00651073 0
M  V30 11957 H 1079.69 -5.47169 -0.435562 0
M  V30 11958 H 1079.95 -4.14003 -1.55093 0
M  V30 11959 N 1079.01 -0.398486 -1.52479 0
M  V30 11960 C 1079.95 0.467426 -2.24383 0
M  V30 11961 C 1080.96 1.01908 -1.26959 0
M  V30 11962 O 1082.15 0.919843 -1.52974 0
M  V30 11963 C 1079.25 1.66146 -2.95379 0
M  V30 11964 C 1078.42 1.23557 -4.19586 0
M  V30 11965 C 1077.48 2.29532 -4.73499 0
M  V30 11966 O 1076.51 1.90561 -5.36354 0
M  V30 11967 N 1077.71 3.61564 -4.5415 0
M  V30 11968 H 1080.47 -0.148653 -2.99331 0
M  V30 11969 H 1078.03 -0.225313 -1.60325 0
M  V30 11970 H 1080.03 2.36585 -3.28344 0
M  V30 11971 H 1078.6 2.18369 -2.23682 0
M  V30 11972 H 1077.82 0.359715 -3.92555 0
M  V30 11973 H 1079.1 0.927812 -5.00269 0
M  V30 11974 H 1078.5 3.95983 -4.03998 0
M  V30 11975 H 1077.06 4.2801 -4.9158 0
M  V30 11976 N 1080.49 1.57075 -0.12858 0
M  V30 11977 C 1081.42 2.11553 0.855593 0
M  V30 11978 C 1082.4 1.03435 1.25459 0
M  V30 11979 O 1083.59 1.3115 1.35395 0
M  V30 11980 C 1080.71 2.62012 2.14633 0
M  V30 11981 C 1079.76 3.82105 1.89467 0
M  V30 11982 S 1080.59 5.24033 1.10228 0
M  V30 11983 C 1081.75 5.77867 2.4046 0
M  V30 11984 H 1081.98 2.94701 0.392248 0
M  V30 11985 H 1079.51 1.54164 0.0853746 0
M  V30 11986 H 1081.47 2.91737 2.8879 0
M  V30 11987 H 1080.13 1.79029 2.58084 0
M  V30 11988 H 1079.33 4.15592 2.8513 0
M  V30 11989 H 1078.93 3.53047 1.23427 0
M  V30 11990 H 1081.22 5.88175 3.36238 0
M  V30 11991 H 1082.16 6.75775 2.11504 0
M  V30 11992 H 1082.57 5.05991 2.50266 0
M  V30 11993 N 1081.97 -0.145205 1.5693 0
M  V30 11994 C 1082.92 -1.17923 1.98401 0
M  V30 11995 C 1083.89 -1.42591 0.851885 0
M  V30 11996 O 1085.07 -1.54896 1.11409 0
M  V30 11997 C 1082.21 -2.50727 2.37128 0
M  V30 11998 C 1081.32 -2.33218 3.63639 0
M  V30 11999 C 1080.46 -3.5907 3.91462 0
M  V30 12000 C 1079.5 -3.36605 5.11237 0
M  V30 12001 N 1078.64 -4.54592 5.35061 0
M  V30 12002 H 1083.48 -0.818573 2.86537 0
M  V30 12003 H 1081.01 -0.392739 1.4176 0
M  V30 12004 H 1082.97 -3.28165 2.57611 0
M  V30 12005 H 1081.6 -2.84736 1.52069 0
M  V30 12006 H 1080.65 -1.46826 3.50922 0
M  V30 12007 H 1081.96 -2.12579 4.51234 0
M  V30 12008 H 1081.12 -4.44936 4.12453 0
M  V30 12009 H 1079.86 -3.82715 3.02293 0
M  V30 12010 H 1078.86 -2.49127 4.90118 0
M  V30 12011 H 1080.09 -3.14357 6.01961 0
M  V30 12012 H 1078.03 -4.78406 4.48847 0
M  V30 12013 H 1077.95 -4.36962 6.16928 0
M  V30 12014 H 1079.22 -5.41666 5.60551 0
M  V30 12015 N 1083.45 -1.52049 -0.414609 0
M  V30 12016 C 1084.69 -1.65838 -1.16206 0
M  V30 12017 C 1085.02 -0.385623 -1.90639 0
M  V30 12018 O 1084.28 0.631214 -1.85241 0
M  V30 12019 C 1084.58 -2.82735 -2.18622 0
M  V30 12020 C 1084.24 -4.21163 -1.61037 0
M  V30 12021 C 1082.9 -4.58816 -1.45056 0
M  V30 12022 C 1085.26 -5.0745 -1.18928 0
M  V30 12023 C 1082.58 -5.8044 -0.854761 0
M  V30 12024 C 1084.94 -6.29674 -0.607686 0
M  V30 12025 C 1083.6 -6.66081 -0.434968 0
M  V30 12026 H 1082.87 -0.606845 -0.425229 0
M  V30 12027 H 1085.52 -1.86137 -0.450009 0
M  V30 12028 H 1083.82 -2.56749 -2.95952 0
M  V30 12029 H 1085.52 -2.90601 -2.76319 0
M  V30 12030 H 1082.11 -3.91488 -1.74457 0
M  V30 12031 H 1086.29 -4.78948 -1.30086 0
M  V30 12032 H 1081.55 -6.07276 -0.70891 0
M  V30 12033 H 1085.72 -6.95865 -0.272988 0
M  V30 12034 H 1083.35 -7.60195 0.0288116 0
M  V30 12035 N 1084.93 0.6715 -1.42579 0
M  V30 12036 C 1085.86 1.79693 -1.49107 0
M  V30 12037 C 1086.84 1.66516 -0.347338 0
M  V30 12038 O 1088.02 1.85887 -0.562094 0
M  V30 12039 C 1085.15 3.1801 -1.39596 0
M  V30 12040 C 1084.11 3.45926 -2.5203 0
M  V30 12041 C 1083.43 4.83852 -2.27577 0
M  V30 12042 C 1084.73 3.4249 -3.94333 0
M  V30 12043 H 1086.43 1.74486 -2.433 0
M  V30 12044 H 1083.97 0.838042 -1.17102 0
M  V30 12045 H 1085.92 3.96478 -1.42771 0
M  V30 12046 H 1084.65 3.23901 -0.418989 0
M  V30 12047 H 1083.31 2.6982 -2.48178 0
M  V30 12048 H 1082.96 4.86398 -1.28165 0
M  V30 12049 H 1082.66 5.03493 -3.02934 0
M  V30 12050 H 1084.18 5.646 -2.32506 0
M  V30 12051 H 1085.59 4.10922 -3.9977 0
M  V30 12052 H 1083.99 3.73666 -4.69568 0
M  V30 12053 H 1085.06 2.41002 -4.20768 0
M  V30 12054 N 1086.4 1.28806 0.908124 0
M  V30 12055 C 1087.65 1.1646 1.66027 0
M  V30 12056 C 1087.98 -0.285025 1.92097 0
M  V30 12057 O 1087.26 -1.20675 1.52538 0
M  V30 12058 C 1087.54 1.96951 3.01467 0
M  V30 12059 C 1087.39 3.50007 2.82515 0
M  V30 12060 C 1088.71 1.78932 4.02084 0
M  V30 12061 H 1085.83 0.424435 0.602515 0
M  V30 12062 H 1088.47 1.58185 1.0525 0
M  V30 12063 H 1086.62 1.61495 3.53344 0
M  V30 12064 H 1088.3 3.95401 2.37605 0
M  V30 12065 H 1086.54 3.75356 2.17463 0
M  V30 12066 H 1087.21 4.01591 3.7872 0
M  V30 12067 H 1089.69 2.09885 3.59287 0
M  V30 12068 H 1088.56 2.37615 4.94803 0
M  V30 12069 H 1088.82 0.742286 4.35824 0
M  V30 12070 N 1087.88 -1.11734 1.11145 0
M  V30 12071 C 1088.79 -2.21267 0.779607 0
M  V30 12072 C 1089.81 -1.72526 -0.225986 0
M  V30 12073 O 1090.98 -2.01302 -0.0629166 0
M  V30 12074 C 1088.05 -3.45973 0.22435 0
M  V30 12075 C 1087.11 -4.09518 1.28816 0
M  V30 12076 C 1086.34 -5.28271 0.7593 0
M  V30 12077 O 1086.57 -5.68912 -0.411725 0
M  V30 12078 O 1085.5 -5.82322 1.52266 0
M  V30 12079 H 1089.33 -2.5206 1.6941 0
M  V30 12080 H 1086.91 -1.20211 0.887115 0
M  V30 12081 H 1088.79 -4.21322 -0.0810921 0
M  V30 12082 H 1087.47 -3.1684 -0.662891 0
M  V30 12083 H 1086.37 -3.35915 1.64657 0
M  V30 12084 H 1087.71 -4.42824 2.14868 0
M  V30 12085 N 1089.36 -0.901303 -1.29284 0
M  V30 12086 C 1090.29 -0.337552 -2.26701 0
M  V30 12087 C 1091.3 0.517039 -1.54371 0
M  V30 12088 O 1092.49 0.333937 -1.75349 0
M  V30 12089 C 1089.59 0.537214 -3.34615 0
M  V30 12090 C 1088.77 -0.292017 -4.36424 0
M  V30 12091 C 1087.83 0.515837 -5.23666 0
M  V30 12092 O 1086.85 -0.0672303 -5.6916 0
M  V30 12093 N 1088.05 1.82159 -5.51179 0
M  V30 12094 H 1090.82 -1.17484 -2.75713 0
M  V30 12095 H 1088.38 -0.765957 -1.42635 0
M  V30 12096 H 1090.37 1.0841 -3.8991 0
M  V30 12097 H 1088.94 1.2752 -2.85408 0
M  V30 12098 H 1088.16 -1.02031 -3.80767 0
M  V30 12099 H 1089.45 -0.859855 -5.01482 0
M  V30 12100 H 1088.85 2.318 -5.16028 0
M  V30 12101 H 1087.4 2.31556 -6.09282 0
M  V30 12102 N 1090.84 1.42931 -0.663954 0
M  V30 12103 C 1091.77 2.28089 0.0710318 0
M  V30 12104 C 1092.75 1.40446 0.819375 0
M  V30 12105 O 1093.93 1.69887 0.816738 0
M  V30 12106 C 1091.06 3.20079 1.10756 0
M  V30 12107 C 1090.11 4.24055 0.456045 0
M  V30 12108 S 1090.94 5.29813 -0.778356 0
M  V30 12109 C 1092.09 6.25371 0.257373 0
M  V30 12110 H 1092.33 2.90078 -0.651315 0
M  V30 12111 H 1089.86 1.47601 -0.453137 0
M  V30 12112 H 1091.82 3.7362 1.70055 0
M  V30 12113 H 1090.48 2.57248 1.80229 0
M  V30 12114 H 1089.67 4.88564 1.23779 0
M  V30 12115 H 1089.27 3.73947 -0.0630832 0
M  V30 12116 H 1091.57 6.68172 1.12037 0
M  V30 12117 H 1092.51 7.0722 -0.352969 0
M  V30 12118 H 1092.92 5.61324 0.597991 0
M  V30 12119 N 1092.32 0.406567 1.52266 0
M  V30 12120 C 1093.73 0.0573228 1.59497 0
M  V30 12121 C 1093.93 -1.43005 1.41957 0
M  V30 12122 O 1092.99 -2.19659 1.24523 0
M  V30 12123 C 1094.3 0.549947 2.95628 0
M  V30 12124 C 1095.85 0.5077 3.08855 0
M  V30 12125 C 1096.32 0.976792 4.47463 0
M  V30 12126 N 1097.81 0.933508 4.53696 0
M  V30 12127 C 1098.55 1.26769 5.59211 0
M  V30 12128 N 1098.05 1.6732 6.72292 0
M  V30 12129 N 1099.84 1.18782 5.49406 0
M  V30 12130 H 1091.99 1.37468 1.61914 0
M  V30 12131 H 1094.25 0.564562 0.76156 0
M  V30 12132 H 1093.96 1.58943 3.13736 0
M  V30 12133 H 1093.83 -0.0417767 3.77177 0
M  V30 12134 H 1096.22 -0.522728 2.90433 0
M  V30 12135 H 1096.3 1.13545 2.29219 0
M  V30 12136 H 1095.94 2.00554 4.66627 0
M  V30 12137 H 1095.87 0.325885 5.25591 0
M  V30 12138 H 1098.37 0.635333 3.72521 0
M  V30 12139 H 1098.68 1.91137 7.4879 0
M  V30 12140 H 1097.02 1.71221 6.73579 0
M  V30 12141 H 1100.21 0.869906 4.59946 0
M  V30 12142 H 1100.39 1.45157 6.31533 0
M  V30 12143 N 1093.79 -1.57004 0.136909 0
M  V30 12144 C 1095.21 -1.58082 -0.21958 0
M  V30 12145 C 1095.41 -1.15065 -1.65415 0
M  V30 12146 O 1094.47 -0.846284 -2.37896 0
M  V30 12147 C 1095.78 -3.00685 0.0300112 0
M  V30 12148 C 1097.33 -3.12981 -0.0344899 0
M  V30 12149 C 1097.8 -4.57615 0.187639 0
M  V30 12150 N 1099.29 -4.63005 0.134219 0
M  V30 12151 C 1100.03 -5.72712 0.280743 0
M  V30 12152 N 1099.52 -6.91104 0.48443 0
M  V30 12153 N 1101.32 -5.61673 0.219055 0
M  V30 12154 H 1093.47 -1.83262 1.07372 0
M  V30 12155 H 1095.73 -0.847776 0.424241 0
M  V30 12156 H 1095.44 -3.36509 1.02247 0
M  V30 12157 H 1095.31 -3.70762 -0.693918 0
M  V30 12158 H 1097.7 -2.77004 -1.01749 0
M  V30 12159 H 1097.78 -2.45411 0.721608 0
M  V30 12160 H 1097.42 -4.94295 1.16769 0
M  V30 12161 H 1097.35 -5.23299 -0.588661 0
M  V30 12162 H 1099.84 -3.77895 -0.0189681 0
M  V30 12163 H 1100.16 -7.7057 0.586613 0
M  V30 12164 H 1098.5 -6.93047 0.520627 0
M  V30 12165 H 1101.69 -4.68061 0.0607606 0
M  V30 12166 H 1101.87 -6.47125 0.336683 0
M  V30 12167 N 1095.27 0.136881 -1.57004 0
M  V30 12168 C 1096.68 0.695911 -1.73245 0
M  V30 12169 C 1097.03 1.8118 -0.75288 0
M  V30 12170 O 1096.16 2.16258 0.0782477 0
M  V30 12171 C 1096.75 1.26914 -3.14131 0
M  V30 12172 C 1095.31 1.77463 -3.31939 0
M  V30 12173 C 1094.46 0.667128 -2.69156 0
M  V30 12174 H 1097.41 -0.0888841 -1.58451 0
M  V30 12175 H 1097.43 2.13892 -3.14691 0
M  V30 12176 H 1096.94 0.456754 -3.85403 0
M  V30 12177 H 1095.05 2.61236 -2.65681 0
M  V30 12178 H 1095.16 1.89638 -4.39971 0
M  V30 12179 H 1093.52 1.09629 -2.29899 0
M  V30 12180 H 1094.31 -0.13398 -3.43038 0
M  V30 12181 N 1096.75 1.52266 0.40654 0
M  V30 12182 C 1098.03 1.57018 1.1664 0
M  V30 12183 C 1098.41 0.352752 2.08132 0
M  V30 12184 O 1097.76 -0.660208 2.18754 0
M  V30 12185 C 1097.97 2.90016 1.94143 0
M  V30 12186 C 1099.31 3.43112 2.50119 0
M  V30 12187 O 1100.34 2.91773 2.0432 0
M  V30 12188 O 1099.2 4.32765 3.33731 0
M  V30 12189 H 1096.29 0.632574 0.532709 0
M  V30 12190 H 1098.84 1.64595 0.413111 0
M  V30 12191 H 1097.61 3.70071 1.27134 0
M  V30 12192 H 1097.23 2.85744 2.76471 0
M  V30 12193 N 1098.23 -0.663929 1.42933 0
M  V30 12194 C 1099.48 -1.42393 1.43981 0
M  V30 12195 C 1099.8 -1.94407 0.0601802 0
M  V30 12196 O 1099.06 -1.72019 -0.933172 0
M  V30 12197 C 1099.36 -2.62976 2.4203 0
M  V30 12198 C 1099.02 -2.29441 3.88159 0
M  V30 12199 C 1097.69 -2.20007 4.27961 0
M  V30 12200 C 1100.04 -2.02413 4.8029 0
M  V30 12201 C 1097.37 -1.81686 5.57859 0
M  V30 12202 C 1099.72 -1.65592 6.10542 0
M  V30 12203 C 1098.38 -1.54676 6.49332 0
M  V30 12204 H 1097.65 -0.521051 0.526865 0
M  V30 12205 H 1100.3 -0.756042 1.75944 0
M  V30 12206 H 1098.6 -3.34847 2.03433 0
M  V30 12207 H 1100.3 -3.21174 2.40101 0
M  V30 12208 H 1096.89 -2.3769 3.56653 0
M  V30 12209 H 1101.07 -2.08628 4.5032 0
M  V30 12210 H 1096.33 -1.71812 5.86763 0
M  V30 12211 H 1100.5 -1.43707 6.81411 0
M  V30 12212 H 1098.13 -1.24752 7.49894 0
M  V30 12213 N 1099.71 -1.29285 -0.901281 0
M  V30 12214 C 1100.64 -1.08603 -2.007 0
M  V30 12215 C 1101.62 0.00162233 -1.626 0
M  V30 12216 O 1102.8 -0.148764 -1.87912 0
M  V30 12217 C 1099.93 -0.652972 -3.32346 0
M  V30 12218 C 1098.97 -1.73911 -3.89432 0
M  V30 12219 S 1099.81 -3.33797 -4.18736 0
M  V30 12220 C 1100.96 -2.92355 -5.53425 0
M  V30 12221 H 1101.2 -2.02216 -2.17936 0
M  V30 12222 H 1098.73 -1.13414 -1.04769 0
M  V30 12223 H 1100.69 -0.409825 -4.08449 0
M  V30 12224 H 1099.35 0.263527 -3.12993 0
M  V30 12225 H 1098.54 -1.388 -4.84511 0
M  V30 12226 H 1098.14 -1.93569 -3.20011 0
M  V30 12227 H 1100.44 -2.39301 -6.33831 0
M  V30 12228 H 1101.38 -3.86278 -5.9346 0
M  V30 12229 H 1101.79 -2.30697 -5.15208 0
M  V30 12230 N 1101.18 1.11143 -1.11736 0
M  V30 12231 C 1102.46 1.79384 -0.779785 0
M  V30 12232 C 1102.84 1.98015 0.731668 0
M  V30 12233 O 1102.19 1.56731 1.66276 0
M  V30 12234 C 1102.4 3.12868 -1.54643 0
M  V30 12235 C 1103.75 3.8786 -1.7277 0
M  V30 12236 O 1104.77 3.22566 -1.51094 0
M  V30 12237 O 1103.63 5.05034 -2.08813 0
M  V30 12238 H 1100.72 0.777128 -0.282845 0
M  V30 12239 H 1103.27 1.17858 -1.22096 0
M  V30 12240 H 1102.04 2.94682 -2.57446 0
M  V30 12241 H 1101.67 3.82109 -1.09901 0
M  V30 12242 N 1102.66 0.908147 1.28804 0
M  V30 12243 C 1103.63 0.397058 2.25735 0
M  V30 12244 C 1104.63 -0.473483 1.53671 0
M  V30 12245 O 1105.82 -0.277335 1.71978 0
M  V30 12246 C 1102.95 -0.431392 3.38159 0
M  V30 12247 H 1104.14 1.25323 2.72459 0
M  V30 12248 H 1101.69 0.687041 1.4039 0
M  V30 12249 H 1102.43 -1.3072 2.96787 0
M  V30 12250 H 1102.21 0.192502 3.91627 0
M  V30 12251 H 1103.7 -0.78 4.10251 0
M  V30 12252 N 1104.14 -1.42577 0.671525 0
M  V30 12253 C 1105.07 -2.33499 0.00506984 0
M  V30 12254 C 1106.05 -1.50497 -0.792763 0
M  V30 12255 O 1107.24 -1.79109 -0.750574 0
M  V30 12256 C 1104.37 -3.34077 -0.949194 0
M  V30 12257 C 1103.32 -4.27208 -0.260187 0
M  V30 12258 C 1102.65 -5.17968 -1.32716 0
M  V30 12259 C 1103.95 -5.15192 0.858772 0
M  V30 12260 H 1105.64 -2.89477 0.764407 0
M  V30 12261 H 1103.19 -1.39191 0.369043 0
M  V30 12262 H 1105.14 -3.96594 -1.42448 0
M  V30 12263 H 1103.86 -2.76396 -1.73991 0
M  V30 12264 H 1102.52 -3.66082 0.194834 0
M  V30 12265 H 1102.17 -4.56615 -2.10979 0
M  V30 12266 H 1101.87 -5.81104 -0.871293 0
M  V30 12267 H 1103.39 -5.83359 -1.80345 0
M  V30 12268 H 1104.81 -5.71412 0.464844 0
M  V30 12269 H 1103.21 -5.87144 1.24023 0
M  V30 12270 H 1104.28 -4.53787 1.70895 0
M  V30 12271 N 1105.62 -0.414636 -1.52048 0
M  V30 12272 C 1106.55 0.443601 -2.24866 0
M  V30 12273 C 1107.56 1.00556 -1.28032 0
M  V30 12274 O 1108.75 0.903566 -1.53941 0
M  V30 12275 C 1105.85 1.63004 -2.97124 0
M  V30 12276 C 1105.03 1.191 -4.20873 0
M  V30 12277 C 1104.08 2.24497 -4.75907 0
M  V30 12278 O 1103.11 1.84861 -5.38345 0
M  V30 12279 N 1104.31 3.56727 -4.57959 0
M  V30 12280 H 1107.08 -0.180393 -2.99157 0
M  V30 12281 H 1104.64 -0.242305 -1.60077 0
M  V30 12282 H 1106.63 2.33089 -3.30835 0
M  V30 12283 H 1105.2 2.15984 -2.25986 0
M  V30 12284 H 1104.42 0.318059 -3.92915 0
M  V30 12285 H 1105.71 0.874699 -5.01225 0
M  V30 12286 H 1105.11 3.91675 -4.08175 0
M  V30 12287 H 1103.66 4.22772 -4.96092 0
M  V30 12288 N 1107.1 1.56929 -0.145233 0
M  V30 12289 C 1108.34 1.95681 0.50532 0
M  V30 12290 C 1108.67 1.03098 1.65516 0
M  V30 12291 O 1107.94 0.0921961 1.95683 0
M  V30 12292 H 1106.52 0.72252 0.189668 0
M  V30 12293 H 1109.18 1.93651 -0.220318 0
M  V30 12294 H 1108.27 2.99359 0.882631 0
M  V30 12295 N 1108.58 -0.128553 1.57075 0
M  V30 12296 C 1109.82 -0.83801 1.84347 0
M  V30 12297 C 1110.15 -1.80325 0.728906 0
M  V30 12298 O 1109.41 -1.93678 -0.280571 0
M  V30 12299 C 1109.7 -1.63027 3.18052 0
M  V30 12300 C 1109.37 -0.810171 4.43562 0
M  V30 12301 C 1108.03 -0.583984 4.77643 0
M  V30 12302 C 1110.38 -0.237896 5.20657 0
M  V30 12303 C 1107.71 0.224887 5.86269 0
M  V30 12304 C 1110.06 0.558114 6.30133 0
M  V30 12305 C 1108.73 0.794706 6.62752 0
M  V30 12306 H 1108 -0.30665 0.674572 0
M  V30 12307 H 1110.65 -0.100797 1.91235 0
M  V30 12308 H 1108.95 -2.43812 3.06697 0
M  V30 12309 H 1110.65 -2.183 3.36372 0
M  V30 12310 H 1107.24 -0.996547 4.16854 0
M  V30 12311 H 1111.42 -0.399881 4.94686 0
M  V30 12312 H 1106.68 0.417507 6.09973 0
M  V30 12313 H 1110.85 1.00859 6.89058 0
M  V30 12314 H 1108.48 1.42331 7.46757 0
M  V30 12315 N 1110.05 -1.5248 -0.398459 0
M  V30 12316 C 1110.98 -1.79549 -1.49279 0
M  V30 12317 C 1111.96 -0.647004 -1.57315 0
M  V30 12318 O 1113.15 -0.893661 -1.72416 0
M  V30 12319 C 1110.28 -1.95582 -2.86993 0
M  V30 12320 C 1109.23 -3.1123 -2.93803 0
M  V30 12321 C 1108.56 -3.12501 -4.33874 0
M  V30 12322 C 1109.86 -4.50485 -2.64312 0
M  V30 12323 H 1111.55 -2.71187 -1.26877 0
M  V30 12324 H 1109.1 -1.30492 -0.608924 0
M  V30 12325 H 1111.05 -2.13102 -3.63546 0
M  V30 12326 H 1109.78 -1.00625 -3.10712 0
M  V30 12327 H 1108.44 -2.93477 -2.19697 0
M  V30 12328 H 1108.08 -2.15245 -4.54619 0
M  V30 12329 H 1107.78 -3.90183 -4.39353 0
M  V30 12330 H 1109.31 -3.32164 -5.12347 0
M  V30 12331 H 1110.72 -4.68387 -3.30585 0
M  V30 12332 H 1109.12 -5.30163 -2.81153 0
M  V30 12333 H 1110.19 -4.57848 -1.59696 0
M  V30 12334 N 1111.53 0.65634 -1.43283 0
M  V30 12335 C 1112.76 1.44906 -1.48382 0
M  V30 12336 C 1113.18 1.87823 -0.101993 0
M  V30 12337 O 1112.54 1.57178 0.903597 0
M  V30 12338 C 1112.59 2.66231 -2.43215 0
M  V30 12339 O 1111.69 3.65176 -1.91625 0
M  V30 12340 H 1111.03 0.434601 -0.502014 0
M  V30 12341 H 1113.56 0.803429 -1.88165 0
M  V30 12342 H 1113.57 3.14083 -2.60414 0
M  V30 12343 H 1112.25 2.34336 -3.43598 0
M  V30 12344 H 1110.82 3.24302 -1.84072 0
M  V30 12345 N 1113.01 1.29761 0.894412 0
M  V30 12346 C 1114.42 1.16275 1.46072 0
M  V30 12347 C 1114.77 -0.240123 1.94725 0
M  V30 12348 O 1113.9 -1.13606 1.84181 0
M  V30 12349 C 1114.49 2.10471 2.65494 0
M  V30 12350 C 1113.05 2.00992 3.18244 0
M  V30 12351 C 1112.2 2.01094 1.90936 0
M  V30 12352 H 1115.15 1.42169 0.705243 0
M  V30 12353 H 1115.17 1.68003 3.41402 0
M  V30 12354 H 1114.68 3.12566 2.30053 0
M  V30 12355 H 1112.78 1.02005 3.58365 0
M  V30 12356 H 1112.9 2.88916 3.82184 0
M  V30 12357 H 1111.26 1.45764 2.08866 0
M  V30 12358 H 1112.04 3.04902 1.57764 0
M  V30 12359 N 1114.49 -1.10549 1.12324 0
M  V30 12360 C 1115.42 -2.18911 0.812416 0
M  V30 12361 C 1116.4 -1.68628 -0.22327 0
M  V30 12362 O 1117.58 -1.94015 -0.0847184 0
M  V30 12363 C 1114.71 -3.46288 0.264947 0
M  V30 12364 C 1113.67 -4.09838 1.23356 0
M  V30 12365 C 1112.99 -5.31901 0.546374 0
M  V30 12366 C 1114.29 -4.53686 2.58778 0
M  V30 12367 H 1115.99 -2.45169 1.71851 0
M  V30 12368 H 1113.53 -1.17834 0.827715 0
M  V30 12369 H 1115.49 -4.21385 0.0352364 0
M  V30 12370 H 1114.21 -3.19517 -0.676479 0
M  V30 12371 H 1112.87 -3.36746 1.44906 0
M  V30 12372 H 1112.52 -5.01406 -0.400157 0
M  V30 12373 H 1112.22 -5.75372 1.19249 0
M  V30 12374 H 1113.74 -6.09731 0.325673 0
M  V30 12375 H 1115.16 -5.20063 2.41263 0
M  V30 12376 H 1113.55 -5.08003 3.19457 0
M  V30 12377 H 1114.62 -3.66665 3.17309 0
M  V30 12378 N 1115.97 -0.914965 -1.28321 0
M  V30 12379 C 1116.91 -0.394477 -2.29231 0
M  V30 12380 C 1117.91 0.514481 -1.61398 0
M  V30 12381 O 1119.11 0.395591 -1.75599 0
M  V30 12382 H 1115.49 -0.108969 -0.744063 0
M  V30 12383 H 1117.46 -1.25862 -2.70557 0
M  V30 12384 C 1116.21 0.349134 -3.45943 0
M  V30 12385 H 1115.53 -0.341087 -3.98342 0
M  V30 12386 H 1116.97 0.677944 -4.18545 0
M  V30 12387 C 1115.43 1.55747 -2.98738 0
M  V30 12388 O 1115.96 2.65654 -3.01315 0
M  V30 12389 N 1114.17 1.40488 -2.54384 0
M  V30 12390 H 1113.71 0.510716 -2.52487 0
M  V30 12391 H 1113.67 2.21464 -2.23161 0
M  V30 12392 N 1117.44 1.42219 -0.679077 0
M  V30 12393 C 1118.85 1.8459 -0.279877 0
M  V30 12394 C 1119.21 1.56839 1.17881 0
M  V30 12395 O 1118.33 1.03039 1.90294 0
M  V30 12396 C 1118.93 3.35072 -0.501185 0
M  V30 12397 C 1117.48 3.76076 -0.156065 0
M  V30 12398 C 1116.63 2.65763 -0.791549 0
M  V30 12399 H 1119.58 1.32005 -0.880932 0
M  V30 12400 H 1119.6 3.79708 0.245349 0
M  V30 12401 H 1119.12 3.55239 -1.56291 0
M  V30 12402 H 1117.22 3.61516 0.90205 0
M  V30 12403 H 1117.33 4.75334 -0.599572 0
M  V30 12404 H 1115.69 2.53726 -0.222514 0
M  V30 12405 H 1116.48 2.88751 -1.85682 0
M  V30 12406 N 1118.92 0.422693 1.51826 0
M  V30 12407 C 1119.88 -0.384307 2.25955 0
M  V30 12408 C 1120.88 -0.962184 1.28836 0
M  V30 12409 O 1122.07 -0.838931 1.52668 0
M  V30 12410 C 1119.21 -1.54228 3.04018 0
M  V30 12411 H 1120.4 0.265157 2.98726 0
M  V30 12412 H 1117.95 0.175515 1.55311 0
M  V30 12413 H 1118.69 -2.22822 2.35629 0
M  V30 12414 H 1118.47 -1.13425 3.75336 0
M  V30 12415 H 1119.96 -2.1128 3.60209 0
M  V30 12416 N 1120.4 -1.5685 0.153553 0
M  V30 12417 C 1121.35 -2.13671 -0.795526 0
M  V30 12418 C 1122.33 -1.06624 -1.20499 0
M  V30 12419 O 1123.53 -1.32788 -1.17032 0
M  V30 12420 C 1120.65 -2.76704 -2.03199 0
M  V30 12421 C 1119.74 -3.90884 -1.64532 0
M  V30 12422 N 1120.13 -4.96466 -0.96723 0
M  V30 12423 C 1118.43 -4.01713 -1.93759 0
M  V30 12424 C 1119.13 -5.76453 -0.779527 0
M  V30 12425 N 1118.11 -5.27444 -1.31544 0
M  V30 12426 H 1121.91 -2.92673 -0.268288 0
M  V30 12427 H 1119.42 -1.6233 -0.0477596 0
M  V30 12428 H 1121.42 -3.15777 -2.72196 0
M  V30 12429 H 1120.08 -1.99177 -2.56434 0
M  V30 12430 H 1121.09 -5.14087 -0.627253 0
M  V30 12431 H 1117.77 -3.3527 -2.48797 0
M  V30 12432 H 1119.16 -6.71455 -0.244604 0
M  V30 12433 N 1121.88 0.120221 -1.57141 0
M  V30 12434 C 1122.81 1.1732 -1.96898 0
M  V30 12435 C 1123.82 1.37722 -0.868134 0
M  V30 12436 O 1125.01 1.36818 -1.14643 0
M  V30 12437 C 1122.11 2.53343 -2.25102 0
M  V30 12438 C 1121.28 2.53559 -3.56408 0
M  V30 12439 C 1120.34 3.71319 -3.72838 0
M  V30 12440 O 1119.37 3.54961 -4.44962 0
M  V30 12441 N 1120.57 4.89836 -3.11514 0
M  V30 12442 H 1123.34 0.835023 -2.87832 0
M  V30 12443 H 1120.9 0.309508 -1.58914 0
M  V30 12444 H 1122.89 3.30679 -2.3331 0
M  V30 12445 H 1121.46 2.79347 -1.403 0
M  V30 12446 H 1120.68 1.61946 -3.59398 0
M  V30 12447 H 1121.97 2.5076 -4.42716 0
M  V30 12448 H 1121.37 5.0603 -2.52884 0
M  V30 12449 H 1119.92 5.64853 -3.25246 0
M  V30 12450 N 1123.36 1.52689 0.390367 0
M  V30 12451 C 1124.29 1.80338 1.48325 0
M  V30 12452 C 1125.27 0.655338 1.56969 0
M  V30 12453 O 1126.45 0.902792 1.7194 0
M  V30 12454 C 1123.58 1.97101 2.85952 0
M  V30 12455 C 1122.54 3.12783 2.92148 0
M  V30 12456 C 1121.86 3.14798 4.32211 0
M  V30 12457 C 1123.16 4.5188 2.61919 0
M  V30 12458 H 1124.86 2.71857 1.25437 0
M  V30 12459 H 1122.4 1.30813 0.601995 0
M  V30 12460 H 1124.36 2.15027 3.62411 0
M  V30 12461 H 1123.08 1.02271 3.10174 0
M  V30 12462 H 1121.74 2.94638 2.18137 0
M  V30 12463 H 1121.39 2.17653 4.53471 0
M  V30 12464 H 1121.09 3.92507 4.37278 0
M  V30 12465 H 1122.61 3.34877 5.10578 0
M  V30 12466 H 1124.02 4.70134 3.28096 0
M  V30 12467 H 1122.42 5.31647 2.78337 0
M  V30 12468 H 1123.49 4.58689 1.57266 0
M  V30 12469 N 1124.83 -0.648732 1.43629 0
M  V30 12470 C 1126.08 -1.40579 1.45196 0
M  V30 12471 C 1126.4 -1.9484 0.0790556 0
M  V30 12472 O 1125.67 -1.74707 -0.886239 0
M  V30 12473 H 1124.25 -0.52175 0.53459 0
M  V30 12474 H 1126.92 -0.764796 1.79268 0
M  V30 12475 H 1126.01 -2.24591 2.16715 0
M  V30 12476 N 1126.31 -1.30234 -0.887518 0
M  V30 12477 C 1127.26 -1.16302 -2.01436 0
M  V30 12478 C 1128.25 -0.0755422 -1.69231 0
M  V30 12479 O 1129.46 -0.236213 -1.78443 0
M  V30 12480 H 1125.84 -0.35961 -0.660443 0
M  V30 12481 H 1127.81 -2.11677 -2.10322 0
M  V30 12482 C 1126.56 -0.869009 -3.36665 0
M  V30 12483 H 1125.88 -1.69787 -3.61956 0
M  V30 12484 H 1127.32 -0.811621 -4.16159 0
M  V30 12485 C 1125.78 0.428021 -3.3417 0
M  V30 12486 O 1126.31 1.45033 -3.74604 0
M  V30 12487 N 1124.51 0.438264 -2.87276 0
M  V30 12488 H 1124.06 -0.394142 -2.54567 0
M  V30 12489 H 1124.02 1.30604 -2.85989 0
M  V30 12490 N 1127.79 1.09952 -1.12909 0
M  V30 12491 C 1128.72 2.18477 -0.824014 0
M  V30 12492 C 1129.7 1.68744 0.214324 0
M  V30 12493 O 1130.89 1.94057 0.0744281 0
M  V30 12494 C 1128.02 3.46143 -0.283308 0
M  V30 12495 C 1126.97 4.09178 -1.25528 0
M  V30 12496 C 1126.3 5.31604 -0.574574 0
M  V30 12497 C 1127.6 4.52308 -2.6118 0
M  V30 12498 H 1129.29 2.44254 -1.73148 0
M  V30 12499 H 1126.84 1.17394 -0.833952 0
M  V30 12500 H 1128.79 4.21361 -0.057583 0
M  V30 12501 H 1127.51 3.19872 0.659525 0
M  V30 12502 H 1126.17 3.35973 -1.4669 0
M  V30 12503 H 1125.82 5.01611 0.37356 0
M  V30 12504 H 1125.52 5.74732 -1.22299 0
M  V30 12505 H 1127.04 6.0955 -0.358004 0
M  V30 12506 H 1128.46 5.18776 -2.44017 0
M  V30 12507 H 1126.86 5.06302 -3.22147 0
M  V30 12508 H 1127.93 3.64977 -3.19249 0
M  V30 12509 N 1129.27 0.921757 1.27833 0
M  V30 12510 C 1130.68 0.621102 1.47019 0
M  V30 12511 C 1130.88 -0.831338 1.83551 0
M  V30 12512 O 1129.94 -1.60974 1.94534 0
M  V30 12513 C 1131.25 1.56588 2.56712 0
M  V30 12514 C 1132.8 1.57346 2.70576 0
M  V30 12515 C 1133.28 2.50505 3.8342 0
M  V30 12516 N 1134.77 2.48678 3.90786 0
M  V30 12517 C 1135.5 3.17454 4.77505 0
M  V30 12518 N 1135 3.95588 5.68755 0
M  V30 12519 N 1136.79 3.06501 4.71183 0
M  V30 12520 H 1128.94 1.86085 1.02403 0
M  V30 12521 H 1131.21 0.798595 0.510833 0
M  V30 12522 H 1130.91 2.60175 2.36647 0
M  V30 12523 H 1130.79 1.30305 3.53978 0
M  V30 12524 H 1133.17 0.544919 2.90025 0
M  V30 12525 H 1133.25 1.87675 1.73815 0
M  V30 12526 H 1132.9 3.53466 3.64725 0
M  V30 12527 H 1132.83 2.17474 4.79596 0
M  V30 12528 H 1135.32 1.91928 3.25534 0
M  V30 12529 H 1135.63 4.45066 6.31772 0
M  V30 12530 H 1133.98 3.99692 5.6857 0
M  V30 12531 H 1137.17 2.44958 3.9889 0
M  V30 12532 H 1137.34 3.60372 5.3855 0
M  V30 12533 N 1130.75 -1.41857 0.686609 0
M  V30 12534 C 1131.68 -2.33481 0.0298353 0
M  V30 12535 C 1132.66 -1.51329 -0.776756 0
M  V30 12536 O 1133.84 -1.79895 -0.731535 0
M  V30 12537 C 1130.97 -3.35065 -0.913707 0
M  V30 12538 C 1129.93 -4.2746 -0.214861 0
M  V30 12539 C 1129.25 -5.19346 -1.27215 0
M  V30 12540 C 1130.55 -5.14252 0.913367 0
M  V30 12541 H 1132.25 -2.8865 0.795067 0
M  V30 12542 H 1129.79 -1.38792 0.383785 0
M  V30 12543 H 1131.75 -3.98082 -1.38234 0
M  V30 12544 H 1130.47 -2.78226 -1.7105 0
M  V30 12545 H 1129.13 -3.65855 0.233651 0
M  V30 12546 H 1128.78 -4.58827 -2.06124 0
M  V30 12547 H 1128.48 -5.81996 -0.80961 0
M  V30 12548 H 1130 -5.85239 -1.74147 0
M  V30 12549 H 1131.41 -5.70887 0.525424 0
M  V30 12550 H 1129.81 -5.85796 1.30244 0
M  V30 12551 H 1130.88 -4.51949 1.75699 0
M  V30 12552 N 1132.22 -0.430739 -1.51599 0
M  V30 12553 C 1133.13 0.390347 -2.3133 0
M  V30 12554 C 1134.15 1.03376 -1.39962 0
M  V30 12555 O 1135.33 1.03057 -1.73035 0
M  V30 12556 C 1132.39 1.48039 -3.13505 0
M  V30 12557 C 1131.45 0.857792 -4.20643 0
M  V30 12558 C 1130.69 1.89589 -4.9889 0
M  V30 12559 O 1130.91 3.11717 -4.77691 0
M  V30 12560 O 1129.84 1.49009 -5.83164 0
M  V30 12561 H 1133.67 -0.260358 -3.02582 0
M  V30 12562 H 1131.25 -0.193428 -1.48143 0
M  V30 12563 H 1133.14 2.11272 -3.64612 0
M  V30 12564 H 1131.81 2.1153 -2.45024 0
M  V30 12565 H 1130.72 0.187592 -3.73629 0
M  V30 12566 H 1132.05 0.266474 -4.91478 0
M  V30 12567 N 1133.7 1.56767 -0.161869 0
M  V30 12568 C 1134.61 2.21083 0.784814 0
M  V30 12569 C 1135.63 1.19959 1.26039 0
M  V30 12570 O 1136.8 1.52588 1.31449 0
M  V30 12571 C 1133.87 2.83153 2.00063 0
M  V30 12572 C 1132.93 3.9945 1.57285 0
M  V30 12573 C 1132.16 4.5855 2.7307 0
M  V30 12574 O 1132.39 4.16534 3.89686 0
M  V30 12575 O 1131.32 5.48575 2.47688 0
M  V30 12576 H 1135.15 3.02522 0.267243 0
M  V30 12577 H 1132.73 1.49255 0.0658783 0
M  V30 12578 H 1134.61 3.22546 2.71186 0
M  V30 12579 H 1133.29 2.04718 2.50744 0
M  V30 12580 H 1132.2 3.64745 0.831393 0
M  V30 12581 H 1133.53 4.7945 1.11304 0
M  V30 12582 N 1135.18 -0.111886 1.57202 0
M  V30 12583 C 1136.42 -0.82422 1.87045 0
M  V30 12584 C 1136.78 -1.76713 0.750765 0
M  V30 12585 O 1137.99 -2.52157 0.931154 0
M  V30 12586 C 1136.26 -1.5483 3.22122 0
M  V30 12587 S 1137.82 -2.30123 3.73616 0
M  V30 12588 H 1134.63 -0.274945 0.655687 0
M  V30 12589 H 1137.24 -0.0821899 1.95327 0
M  V30 12590 H 1135.94 -0.847704 4.0155 0
M  V30 12591 H 1135.47 -2.33056 3.16936 0
M  V30 12592 H 1137.49 -3.5597 3.45687 0
M  V30 12593 N 1136.66 -1.52894 -0.382264 0
M  V30 12594 C 1138.07 -1.42295 -0.722802 0
M  V30 12595 C 1138.27 -0.548717 -1.93885 0
M  V30 12596 O 1137.33 -0.0247431 -2.52488 0
M  V30 12597 C 1138.64 -2.85246 -0.9516 0
M  V30 12598 C 1140.19 -2.94768 -1.05265 0
M  V30 12599 C 1140.67 -4.38745 -1.31404 0
M  V30 12600 N 1142.16 -4.421 -1.38211 0
M  V30 12601 C 1142.89 -5.50592 -1.60113 0
M  V30 12602 N 1142.39 -6.69158 -1.79442 0
M  V30 12603 N 1144.18 -5.38145 -1.62347 0
M  V30 12604 H 1136.33 -2.0825 0.417816 0
M  V30 12605 H 1138.6 -0.939753 0.124776 0
M  V30 12606 H 1138.3 -3.51459 -0.130088 0
M  V30 12607 H 1138.18 -3.27903 -1.86439 0
M  V30 12608 H 1140.56 -2.28718 -1.86472 0
M  V30 12609 H 1140.64 -2.55529 -0.117619 0
M  V30 12610 H 1140.29 -5.05363 -0.507038 0
M  V30 12611 H 1140.22 -4.75542 -2.26202 0
M  V30 12612 H 1142.71 -3.56644 -1.24954 0
M  V30 12613 H 1143.02 -7.47615 -1.95681 0
M  V30 12614 H 1141.37 -6.72175 -1.76653 0
M  V30 12615 H 1144.56 -4.44485 -1.46803 0
M  V30 12616 H 1144.73 -6.22764 -1.79077 0
M  V30 12617 N 1138.14 0.641106 -1.43971 0
M  V30 12618 C 1139.39 1.39676 -1.45511 0
M  V30 12619 C 1139.7 1.95403 -0.0877084 0
M  V30 12620 O 1140.91 2.71493 0.0193965 0
M  V30 12621 C 1139.36 2.52839 -2.56126 0
M  V30 12622 C 1138.97 2.03668 -3.99028 0
M  V30 12623 C 1140.71 3.30118 -2.66875 0
M  V30 12624 C 1138.62 3.14114 -5.01085 0
M  V30 12625 H 1137.55 0.524854 -0.541336 0
M  V30 12626 H 1140.2 0.69075 -1.70003 0
M  V30 12627 H 1138.58 3.25968 -2.24857 0
M  V30 12628 H 1139.76 1.3747 -4.39817 0
M  V30 12629 H 1138.07 1.39233 -3.92432 0
M  V30 12630 H 1140.67 4.12434 -3.40297 0
M  V30 12631 H 1141.01 3.78946 -1.72353 0
M  V30 12632 H 1141.55 2.64075 -2.97505 0
M  V30 12633 H 1138.28 2.70241 -5.97202 0
M  V30 12634 H 1137.8 3.78985 -4.64898 0
M  V30 12635 H 1139.48 3.79051 -5.24337 0
M  V30 12636 N 1139.62 1.30703 0.880598 0
M  V30 12637 C 1140.55 1.11783 1.98947 0
M  V30 12638 C 1141.53 0.0242461 1.62582 0
M  V30 12639 O 1142.71 0.178641 1.87652 0
M  V30 12640 C 1139.84 0.705762 3.31265 0
M  V30 12641 C 1138.88 1.80084 3.86616 0
M  V30 12642 S 1139.72 3.40416 4.13373 0
M  V30 12643 C 1140.87 3.01122 5.48704 0
M  V30 12644 H 1141.11 2.05658 2.14691 0
M  V30 12645 H 1138.64 1.15067 1.02951 0
M  V30 12646 H 1140.6 0.474754 4.07745 0
M  V30 12647 H 1139.26 -0.213699 3.13372 0
M  V30 12648 H 1138.45 1.4649 4.82241 0
M  V30 12649 H 1138.05 1.98636 3.16891 0
M  V30 12650 H 1140.34 2.49355 6.29943 0
M  V30 12651 H 1141.29 3.95671 5.87239 0
M  V30 12652 H 1141.7 2.38865 5.11472 0
M  V30 12653 N 1141.09 -1.09351 1.1349 0
M  V30 12654 C 1142.32 -1.85844 0.92069 0
M  V30 12655 C 1142.74 -1.80616 -0.525303 0
M  V30 12656 O 1142.1 -1.1842 -1.37282 0
M  V30 12657 C 1142.15 -3.31716 1.4141 0
M  V30 12658 O 1141.25 -4.08014 0.599838 0
M  V30 12659 H 1140.59 -0.576242 0.32991 0
M  V30 12660 H 1143.12 -1.38084 1.50976 0
M  V30 12661 H 1143.13 -3.82564 1.41805 0
M  V30 12662 H 1141.81 -3.34837 2.46692 0
M  V30 12663 H 1140.39 -3.66944 0.663816 0
M  V30 12664 N 1142.57 -0.928524 -1.27343 0
M  V30 12665 C 1143.8 -0.58516 -1.98974 0
M  V30 12666 C 1144.22 0.829964 -1.68799 0
M  V30 12667 O 1143.58 1.55705 -0.928738 0
M  V30 12668 C 1143.63 -0.818662 -3.51184 0
M  V30 12669 O 1142.73 0.115355 -4.12239 0
M  V30 12670 H 1142.07 -0.225203 -0.624644 0
M  V30 12671 H 1144.6 -1.248 -1.6213 0
M  V30 12672 H 1144.61 -0.734554 -4.01333 0
M  V30 12673 H 1143.29 -1.8502 -3.72479 0
M  V30 12674 H 1141.86 -0.0187371 -3.72895 0
M  V30 12675 N 1144.05 1.41491 -0.694123 0
M  V30 12676 C 1145.01 2.2917 -0.0368562 0
M  V30 12677 C 1146.01 1.44305 0.709426 0
M  V30 12678 O 1147.2 1.6547 0.544533 0
M  V30 12679 C 1144.33 3.27156 0.958201 0
M  V30 12680 H 1145.53 2.88787 -0.808829 0
M  V30 12681 H 1143.08 1.49453 -0.457538 0
M  V30 12682 H 1143.82 2.72516 1.75799 0
M  V30 12683 H 1143.6 3.89776 0.426227 0
M  V30 12684 H 1145.09 3.92863 1.41592 0
M  V30 12685 N 1145.53 0.438773 1.51369 0
M  V30 12686 C 1146.47 -0.37195 2.27783 0
M  V30 12687 C 1147.44 -1.01558 1.31435 0
M  V30 12688 O 1148.63 -1.03421 1.60339 0
M  V30 12689 C 1145.77 -1.46636 3.12397 0
M  V30 12690 C 1144.88 -0.840727 4.2374 0
M  V30 12691 C 1144.02 -1.91031 4.95662 0
M  V30 12692 C 1143.06 -1.26318 5.98924 0
M  V30 12693 N 1142.19 -2.27419 6.64248 0
M  V30 12694 H 1147.03 0.286048 2.96624 0
M  V30 12695 H 1144.57 0.152909 1.46303 0
M  V30 12696 H 1146.53 -2.11219 3.59781 0
M  V30 12697 H 1145.16 -2.09397 2.45668 0
M  V30 12698 H 1144.21 -0.0831588 3.80309 0
M  V30 12699 H 1145.52 -0.328285 4.97719 0
M  V30 12700 H 1144.68 -2.63272 5.46601 0
M  V30 12701 H 1143.42 -2.45649 4.21317 0
M  V30 12702 H 1142.42 -0.526246 5.47276 0
M  V30 12703 H 1143.65 -0.724324 6.75226 0
M  V30 12704 H 1141.59 -2.81114 5.92715 0
M  V30 12705 H 1141.51 -1.81071 7.33996 0
M  V30 12706 H 1142.78 -2.99139 7.19817 0
M  V30 12707 N 1147.01 -1.56678 0.170181 0
M  V30 12708 C 1148.42 -1.58512 -0.185999 0
M  V30 12709 C 1148.62 -1.18548 -1.62937 0
M  V30 12710 O 1147.68 -0.896554 -2.36047 0
M  V30 12711 C 1148.99 -3.00554 0.0937842 0
M  V30 12712 C 1150.54 -3.12984 0.0319057 0
M  V30 12713 C 1151.01 -4.57115 0.284664 0
M  V30 12714 N 1152.5 -4.62617 0.2324 0
M  V30 12715 C 1153.24 -5.71988 0.40216 0
M  V30 12716 N 1152.74 -6.89921 0.630915 0
M  V30 12717 N 1154.53 -5.61082 0.338144 0
M  V30 12718 H 1146.68 -1.80944 1.11235 0
M  V30 12719 H 1148.94 -0.838586 0.442128 0
M  V30 12720 H 1148.65 -3.34265 1.09362 0
M  V30 12721 H 1148.52 -3.72151 -0.615118 0
M  V30 12722 H 1150.91 -2.791 -0.958502 0
M  V30 12723 H 1150.99 -2.43825 0.773501 0
M  V30 12724 H 1150.63 -4.91707 1.27227 0
M  V30 12725 H 1150.56 -5.2443 -0.477529 0
M  V30 12726 H 1153.06 -3.7785 0.0611933 0
M  V30 12727 H 1153.37 -7.69153 0.749931 0
M  V30 12728 H 1151.71 -6.91787 0.667516 0
M  V30 12729 H 1154.9 -4.67826 0.16003 0
M  V30 12730 H 1155.08 -6.46265 0.473872 0
M  V30 12731 N 1148.48 0.103547 -1.57259 0
M  V30 12732 C 1149.89 0.659006 -1.74683 0
M  V30 12733 C 1150.25 1.79542 -0.791142 0
M  V30 12734 O 1149.37 2.16376 0.0323585 0
M  V30 12735 C 1149.97 1.20222 -3.16752 0
M  V30 12736 C 1148.52 1.70382 -3.35629 0
M  V30 12737 C 1147.67 0.609886 -2.7051 0
M  V30 12738 H 1150.62 -0.122474 -1.58227 0
M  V30 12739 H 1150.64 2.07169 -3.19157 0
M  V30 12740 H 1150.16 0.374901 -3.86285 0
M  V30 12741 H 1148.26 2.55542 -2.71162 0
M  V30 12742 H 1148.37 1.80263 -4.43894 0
M  V30 12743 H 1146.73 1.04728 -2.32173 0
M  V30 12744 H 1147.52 -0.206713 -3.42677 0
M  V30 12745 N 1149.96 1.53094 0.37415 0
M  V30 12746 C 1150.89 1.81901 1.46404 0
M  V30 12747 C 1151.87 0.671949 1.56265 0
M  V30 12748 O 1153.06 0.920978 1.70973 0
M  V30 12749 C 1150.19 2.00123 2.83845 0
M  V30 12750 C 1149.14 3.15864 2.88814 0
M  V30 12751 C 1148.47 3.19364 4.28848 0
M  V30 12752 C 1149.77 4.54633 2.57112 0
M  V30 12753 H 1151.46 2.73172 1.22546 0
M  V30 12754 H 1149.01 1.31444 0.588087 0
M  V30 12755 H 1150.96 2.18859 3.6011 0
M  V30 12756 H 1149.68 1.05555 3.09072 0
M  V30 12757 H 1148.34 2.96935 2.15 0
M  V30 12758 H 1147.99 2.2245 4.51137 0
M  V30 12759 H 1147.69 3.97123 4.3309 0
M  V30 12760 H 1149.22 3.40273 5.06997 0
M  V30 12761 H 1150.63 4.73587 3.23091 0
M  V30 12762 H 1149.03 5.34569 2.72683 0
M  V30 12763 H 1150.1 4.60331 1.52392 0
M  V30 12764 N 1151.44 -0.633461 1.44309 0
M  V30 12765 C 1152.69 -1.39334 1.48181 0
M  V30 12766 C 1153.04 -1.92075 0.111835 0
M  V30 12767 O 1152.33 -1.70577 -0.87258 0
M  V30 12768 C 1152.53 -2.57783 2.47554 0
M  V30 12769 C 1152.36 -2.16638 3.94079 0
M  V30 12770 C 1151.13 -2.04027 4.62278 0
M  V30 12771 C 1153.32 -1.75694 4.83359 0
M  V30 12772 N 1151.31 -1.5642 5.93638 0
M  V30 12773 C 1152.68 -1.39315 6.04145 0
M  V30 12774 C 1154.73 -1.63053 4.70445 0
M  V30 12775 C 1153.44 -0.915604 7.13449 0
M  V30 12776 C 1155.46 -1.16703 5.79771 0
M  V30 12777 C 1154.82 -0.812735 6.99696 0
M  V30 12778 H 1150.92 -0.504757 0.597281 0
M  V30 12779 H 1153.51 -0.726948 1.8062 0
M  V30 12780 H 1151.68 -3.22053 2.17109 0
M  V30 12781 H 1153.41 -3.2457 2.41737 0
M  V30 12782 H 1150.16 -2.24407 4.17059 0
M  V30 12783 H 1150.59 -1.34922 6.63419 0
M  V30 12784 H 1155.23 -1.89078 3.78166 0
M  V30 12785 H 1152.95 -0.642869 8.05539 0
M  V30 12786 H 1156.53 -1.07385 5.71804 0
M  V30 12787 H 1155.41 -0.45957 7.82852 0
M  V30 12788 N 1152.92 -1.31168 -0.873655 0
M  V30 12789 C 1153.85 -1.21094 -1.99646 0
M  V30 12790 C 1154.83 -0.0989684 -1.69812 0
M  V30 12791 O 1156.01 -0.282939 -1.92128 0
M  V30 12792 C 1153.14 -0.913684 -3.35066 0
M  V30 12793 C 1152.1 -1.98482 -3.79195 0
M  V30 12794 C 1151.42 -1.54033 -5.12033 0
M  V30 12795 C 1152.72 -3.39745 -3.96699 0
M  V30 12796 H 1154.42 -2.1503 -2.08333 0
M  V30 12797 H 1151.96 -1.03521 -1.00097 0
M  V30 12798 H 1153.92 -0.829821 -4.13149 0
M  V30 12799 H 1152.64 0.0613471 -3.26542 0
M  V30 12800 H 1151.3 -2.05851 -3.03349 0
M  V30 12801 H 1150.95 -0.553261 -4.99948 0
M  V30 12802 H 1150.65 -2.25688 -5.4253 0
M  V30 12803 H 1152.17 -1.47047 -5.92629 0
M  V30 12804 H 1153.59 -3.35071 -4.65188 0
M  V30 12805 H 1151.98 -4.09585 -4.38589 0
M  V30 12806 H 1153.05 -3.80802 -3.00196 0
M  V30 12807 N 1154.4 1.08748 -1.14068 0
M  V30 12808 C 1155.34 2.17667 -0.819981 0
M  V30 12809 C 1156.34 1.68207 0.200654 0
M  V30 12810 O 1157.54 1.79909 0.0571014 0
M  V30 12811 H 1153.92 0.710129 -0.247427 0
M  V30 12812 H 1155.89 2.41944 -1.74659 0
M  V30 12813 C 1154.64 3.46315 -0.309985 0
M  V30 12814 H 1153.96 3.84748 -1.08669 0
M  V30 12815 H 1155.4 4.23818 -0.124094 0
M  V30 12816 C 1153.86 3.22762 0.965724 0
M  V30 12817 O 1154.39 3.46034 2.04018 0
M  V30 12818 N 1152.6 2.76326 0.899576 0
M  V30 12819 H 1152.14 2.57588 0.0250598 0
M  V30 12820 H 1152.1 2.60945 1.75371 0
M  V30 12821 N 1155.87 0.935264 1.26849 0
M  V30 12822 C 1157.12 0.590057 1.94653 0
M  V30 12823 C 1157.48 -0.860481 1.72086 0
M  V30 12824 O 1156.77 -1.60672 1.04379 0
M  V30 12825 C 1156.96 0.861098 3.46872 0
M  V30 12826 C 1156.79 2.33643 3.84241 0
M  V30 12827 C 1155.56 2.99052 4.07303 0
M  V30 12828 C 1157.76 3.3145 3.9325 0
M  V30 12829 N 1155.74 4.36659 4.31511 0
M  V30 12830 C 1157.11 4.54294 4.21921 0
M  V30 12831 C 1159.17 3.26555 3.75854 0
M  V30 12832 C 1157.87 5.72854 4.35006 0
M  V30 12833 C 1159.9 4.44435 3.90168 0
M  V30 12834 C 1159.26 5.66059 4.19233 0
M  V30 12835 H 1155.36 0.266182 0.735303 0
M  V30 12836 H 1157.94 1.20345 1.53053 0
M  V30 12837 H 1156.11 0.276803 3.87412 0
M  V30 12838 H 1157.84 0.477757 4.0187 0
M  V30 12839 H 1154.6 2.49692 4.02431 0
M  V30 12840 H 1155.02 5.07869 4.47658 0
M  V30 12841 H 1159.67 2.33585 3.52417 0
M  V30 12842 H 1157.38 6.66283 4.57266 0
M  V30 12843 H 1160.97 4.42174 3.78119 0
M  V30 12844 H 1159.85 6.55753 4.30068 0
M  V30 12845 N 1157.35 -1.41121 0.701616 0
M  V30 12846 C 1158.26 -2.34565 0.0407815 0
M  V30 12847 C 1159.28 -1.56555 -0.75937 0
M  V30 12848 O 1160.45 -1.89008 -0.695542 0
M  V30 12849 C 1157.52 -3.35347 -0.879954 0
M  V30 12850 C 1156.58 -4.29241 -0.0713279 0
M  V30 12851 C 1155.81 -5.25209 -0.948211 0
M  V30 12852 O 1156.04 -5.26781 -2.18766 0
M  V30 12853 O 1154.97 -6.00605 -0.394657 0
M  V30 12854 H 1158.8 -2.92666 0.811188 0
M  V30 12855 H 1156.38 -1.42077 0.461991 0
M  V30 12856 H 1158.26 -3.9719 -1.40776 0
M  V30 12857 H 1156.94 -2.7968 -1.62975 0
M  V30 12858 H 1155.85 -3.70727 0.50122 0
M  V30 12859 H 1157.18 -4.88022 0.639935 0
M  V30 12860 N 1158.83 -0.446794 -1.51134 0
M  V30 12861 C 1159.78 0.374154 -2.29571 0
M  V30 12862 C 1160.77 1.01241 -1.35818 0
M  V30 12863 O 1161.98 0.946293 -1.53119 0
M  V30 12864 H 1158.35 0.13948 -0.738951 0
M  V30 12865 H 1160.32 -0.308117 -2.96805 0
M  V30 12866 C 1159.07 1.45754 -3.15675 0
M  V30 12867 H 1158.4 0.975787 -3.87709 0
M  V30 12868 H 1159.84 2.00502 -3.73597 0
M  V30 12869 C 1158.3 2.44606 -2.31667 0
M  V30 12870 O 1158.83 3.49352 -1.98284 0
M  V30 12871 N 1157.03 2.15725 -1.94708 0
M  V30 12872 H 1156.58 1.30572 -2.22056 0
M  V30 12873 H 1156.54 2.82103 -1.38798 0
M  V30 12874 N 1160.31 1.56586 -0.178487 0
M  V30 12875 C 1161.72 1.83633 0.337009 0
M  V30 12876 C 1162.07 1.09857 1.6256 0
M  V30 12877 O 1161.2 0.353933 2.13486 0
M  V30 12878 C 1161.79 3.33112 0.618225 0
M  V30 12879 C 1160.35 3.60629 1.07814 0
M  V30 12880 C 1159.5 2.7705 0.117825 0
M  V30 12881 H 1162.45 1.53508 -0.402612 0
M  V30 12882 H 1162.47 3.5098 1.46947 0
M  V30 12883 H 1161.98 3.8678 -0.319808 0
M  V30 12884 H 1160.08 3.12378 2.03103 0
M  V30 12885 H 1160.19 4.68921 0.982339 0
M  V30 12886 H 1158.56 2.47125 0.616563 0
M  V30 12887 H 1159.34 3.33501 -0.814356 0
M  V30 12888 N 1161.79 -0.095206 1.57312 0
M  V30 12889 C 1163.06 -0.830388 1.77099 0
M  V30 12890 C 1163.44 -1.9694 0.760121 0
M  V30 12891 O 1162.79 -2.2752 -0.211403 0
M  V30 12892 C 1163 -1.32507 3.22867 0
M  V30 12893 C 1164.35 -1.7679 3.86045 0
M  V30 12894 O 1165.37 -1.42131 3.26615 0
M  V30 12895 O 1164.23 -2.40876 4.90552 0
M  V30 12896 H 1161.33 -0.396083 0.72598 0
M  V30 12897 H 1163.87 -0.0770965 1.69525 0
M  V30 12898 H 1162.64 -0.508992 3.87975 0
M  V30 12899 H 1162.27 -2.14037 3.35073 0
M  V30 12900 N 1163.26 -1.53291 -0.366026 0
M  V30 12901 C 1164.51 -1.68671 -1.10602 0
M  V30 12902 C 1164.83 -0.444793 -1.90476 0
M  V30 12903 O 1166.03 -0.479135 -2.67239 0
M  V30 12904 C 1164.49 -2.98174 -2.01545 0
M  V30 12905 C 1164.1 -4.29626 -1.26986 0
M  V30 12906 C 1165.84 -3.22921 -2.7554 0
M  V30 12907 C 1163.75 -5.50218 -2.16828 0
M  V30 12908 H 1162.68 -0.628456 -0.416604 0
M  V30 12909 H 1165.33 -1.79791 -0.367058 0
M  V30 12910 H 1163.71 -2.80855 -2.79171 0
M  V30 12911 H 1164.88 -4.57574 -0.544269 0
M  V30 12912 H 1163.2 -4.11318 -0.648558 0
M  V30 12913 H 1165.8 -4.10202 -3.42985 0
M  V30 12914 H 1166.14 -2.38964 -3.40884 0
M  V30 12915 H 1166.67 -3.40912 -2.04997 0
M  V30 12916 H 1163.41 -6.36651 -1.56063 0
M  V30 12917 H 1162.93 -5.26549 -2.87238 0
M  V30 12918 H 1164.61 -5.84991 -2.76396 0
M  V30 12919 N 1164.74 0.6258 -1.44643 0
M  V30 12920 C 1165.68 1.75056 -1.46392 0
M  V30 12921 C 1166.65 1.59376 -0.322179 0
M  V30 12922 O 1167.84 1.81187 -0.519956 0
M  V30 12923 C 1164.96 3.12689 -1.30166 0
M  V30 12924 C 1164.01 3.47005 -2.47972 0
M  V30 12925 S 1164.84 3.43885 -4.10491 0
M  V30 12926 C 1166 4.84129 -3.96698 0
M  V30 12927 H 1166.23 1.73306 -2.41562 0
M  V30 12928 H 1163.77 0.800879 -1.32005 0
M  V30 12929 H 1165.72 3.9211 -1.21492 0
M  V30 12930 H 1164.38 3.11972 -0.364982 0
M  V30 12931 H 1163.58 4.47171 -2.32496 0
M  V30 12932 H 1163.18 2.75059 -2.53414 0
M  V30 12933 H 1165.47 5.73488 -3.60718 0
M  V30 12934 H 1166.41 5.0466 -4.96713 0
M  V30 12935 H 1166.82 4.58954 -3.28666 0
M  V30 12936 N 1166.22 1.31629 0.866686 0
M  V30 12937 C 1167.45 1.24609 1.65793 0
M  V30 12938 C 1167.87 -0.184944 1.87189 0
M  V30 12939 O 1167.23 -1.1322 1.41601 0
M  V30 12940 C 1167.28 1.9988 3.00134 0
M  V30 12941 O 1166.38 1.33838 3.90079 0
M  V30 12942 H 1165.72 0.430051 0.505917 0
M  V30 12943 H 1168.25 1.73752 1.08035 0
M  V30 12944 H 1168.26 2.09599 3.50046 0
M  V30 12945 H 1166.94 3.03947 2.83882 0
M  V30 12946 H 1165.51 1.3259 3.48532 0
M  V30 12947 N 1167.7 -1.08142 1.14644 0
M  V30 12948 C 1168.61 -2.18675 0.849607 0
M  V30 12949 C 1169.63 -1.73158 -0.170983 0
M  V30 12950 O 1170.8 -2.014 0.0011579 0
M  V30 12951 C 1167.87 -3.45084 0.334305 0
M  V30 12952 C 1166.93 -4.05213 1.41779 0
M  V30 12953 C 1166.16 -5.25588 0.926981 0
M  V30 12954 O 1166.38 -5.69934 -0.230522 0
M  V30 12955 O 1165.32 -5.77183 1.70715 0
M  V30 12956 H 1169.14 -2.46542 1.77343 0
M  V30 12957 H 1166.73 -1.17328 0.924911 0
M  V30 12958 H 1168.61 -4.21367 0.0529893 0
M  V30 12959 H 1167.29 -3.18788 -0.561755 0
M  V30 12960 H 1166.19 -3.30507 1.7526 0
M  V30 12961 H 1167.53 -4.35764 2.28847 0
M  V30 12962 N 1169.18 -0.941978 -1.26351 0
M  V30 12963 C 1170.11 -0.469913 -2.28723 0
M  V30 12964 C 1171.09 0.477218 -1.63269 0
M  V30 12965 O 1172.27 0.378902 -1.90468 0
M  V30 12966 C 1169.4 0.264971 -3.46288 0
M  V30 12967 C 1168.36 -0.595682 -4.23834 0
M  V30 12968 C 1167.68 0.269208 -5.34022 0
M  V30 12969 C 1168.98 -1.86743 -4.87775 0
M  V30 12970 H 1170.68 -1.32551 -2.6846 0
M  V30 12971 H 1168.22 -0.638809 -1.29055 0
M  V30 12972 H 1170.18 0.606259 -4.17016 0
M  V30 12973 H 1168.9 1.15471 -3.05506 0
M  V30 12974 H 1167.56 -0.919875 -3.54872 0
M  V30 12975 H 1167.21 1.15832 -4.89481 0
M  V30 12976 H 1166.91 -0.30325 -5.86817 0
M  V30 12977 H 1168.43 0.605748 -6.07588 0
M  V30 12978 H 1169.85 -1.59333 -5.50714 0
M  V30 12979 H 1168.24 -2.38452 -5.50691 0
M  V30 12980 H 1169.31 -2.57831 -4.10671 0
M  V30 12981 N 1170.66 1.40747 -0.709091 0
M  V30 12982 C 1171.59 2.33404 -0.0669763 0
M  V30 12983 C 1172.57 1.52546 0.752582 0
M  V30 12984 O 1173.75 1.81036 0.702823 0
M  V30 12985 C 1170.88 3.36476 0.860285 0
M  V30 12986 C 1169.84 4.27748 0.146828 0
M  V30 12987 C 1169.16 5.21304 1.18937 0
M  V30 12988 C 1170.46 5.12734 -0.995064 0
M  V30 12989 H 1172.16 2.87349 -0.840888 0
M  V30 12990 H 1169.7 1.38163 -0.405817 0
M  V30 12991 H 1171.65 4.00231 1.31883 0
M  V30 12992 H 1170.38 2.80912 1.66602 0
M  V30 12993 H 1169.04 3.65437 -0.291826 0
M  V30 12994 H 1168.69 4.62048 1.98798 0
M  V30 12995 H 1168.39 5.8321 0.716917 0
M  V30 12996 H 1169.91 5.87936 1.64815 0
M  V30 12997 H 1171.32 5.69979 -0.61618 0
M  V30 12998 H 1169.72 5.83649 -1.39547 0
M  V30 12999 H 1170.79 4.49097 -1.82867 0
M  V30 13000 N 1172.13 0.454803 1.50895 0
M  V30 13001 C 1173.38 -0.10577 2.02224 0
M  V30 13002 C 1173.71 -1.41176 1.33789 0
M  V30 13003 O 1172.96 -1.90522 0.447181 0
M  V30 13004 C 1173.26 -0.354159 3.55641 0
M  V30 13005 C 1172.93 0.868136 4.42464 0
M  V30 13006 C 1171.59 1.2033 4.65912 0
M  V30 13007 C 1173.94 1.68272 4.93289 0
M  V30 13008 C 1171.27 2.3534 5.37431 0
M  V30 13009 C 1173.62 2.82396 5.6607 0
M  V30 13010 C 1172.29 3.16346 5.87777 0
M  V30 13011 H 1171.56 -0.0387041 0.739989 0
M  V30 13012 H 1174.2 0.605564 1.81673 0
M  V30 13013 H 1172.51 -1.14757 3.74617 0
M  V30 13014 H 1174.21 -0.8016 3.92906 0
M  V30 13015 H 1170.8 0.596995 4.24422 0
M  V30 13016 H 1174.98 1.43698 4.75042 0
M  V30 13017 H 1170.24 2.61936 5.52449 0
M  V30 13018 H 1174.41 3.45873 6.04438 0
M  V30 13019 H 1172.04 4.05574 6.42973 0
M  V30 13020 N 1173.61 -1.56489 0.186789 0
M  V30 13021 C 1174.54 -2.15911 -0.769104 0
M  V30 13022 C 1175.56 -1.11872 -1.18273 0
M  V30 13023 O 1176.75 -1.38999 -1.1199 0
M  V30 13024 C 1173.85 -2.69957 -2.04882 0
M  V30 13025 C 1173.02 -3.98812 -1.79631 0
M  V30 13026 C 1172.08 -4.37767 -2.9197 0
M  V30 13027 O 1171.1 -5.0535 -2.61935 0
M  V30 13028 N 1172.31 -4.0059 -4.20128 0
M  V30 13029 H 1175.07 -2.98561 -0.261007 0
M  V30 13030 H 1172.63 -1.61899 0.00453357 0
M  V30 13031 H 1174.62 -2.93006 -2.79158 0
M  V30 13032 H 1173.19 -1.91808 -2.46837 0
M  V30 13033 H 1172.41 -3.8398 -0.891776 0
M  V30 13034 H 1173.7 -4.82939 -1.60148 0
M  V30 13035 H 1173.1 -3.46213 -4.47385 0
M  V30 13036 H 1171.66 -4.28608 -4.91059 0
M  V30 13037 N 1175.09 0.086862 -1.5736 0
M  V30 13038 C 1176.04 1.12359 -2.03662 0
M  V30 13039 C 1177.03 1.40982 -0.939169 0
M  V30 13040 O 1178.24 1.40566 -1.12433 0
M  V30 13041 H 1174.61 0.379605 -0.649156 0
M  V30 13042 H 1176.58 0.706822 -2.89908 0
M  V30 13043 C 1175.33 2.43327 -2.48369 0
M  V30 13044 H 1174.66 2.22148 -3.324 0
M  V30 13045 H 1176.1 3.14351 -2.84534 0
M  V30 13046 C 1174.55 3.08214 -1.36036 0
M  V30 13047 O 1175.08 3.95659 -0.694063 0
M  V30 13048 N 1173.29 2.68596 -1.10927 0
M  V30 13049 H 1172.84 1.97578 -1.6529 0
M  V30 13050 H 1172.8 3.12336 -0.359679 0
M  V30 13051 N 1176.57 1.53483 0.357892 0
M  V30 13052 C 1177.52 1.81143 1.45911 0
M  V30 13053 C 1178.51 0.681002 1.55109 0
M  V30 13054 O 1179.72 0.864086 1.57904 0
M  V30 13055 H 1176.09 0.573663 0.486225 0
M  V30 13056 H 1178.06 2.733 1.19789 0
M  V30 13057 C 1176.81 2.02509 2.8264 0
M  V30 13058 H 1176.13 2.88938 2.76324 0
M  V30 13059 H 1177.57 2.25837 3.58851 0
M  V30 13060 C 1176.03 0.806412 3.27106 0
M  V30 13061 O 1176.56 -0.00116809 4.017 0
M  V30 13062 N 1174.77 0.627677 2.8374 0
M  V30 13063 H 1174.32 1.28601 2.23203 0
M  V30 13064 H 1174.27 -0.186301 3.13848 0
M  V30 13065 N 1178.05 -0.61812 1.44973 0
M  V30 13066 C 1178.96 -1.7579 1.55355 0
M  V30 13067 C 1179.97 -1.68384 0.438512 0
M  V30 13068 O 1181.15 -1.88928 0.697715 0
M  V30 13069 C 1178.21 -3.1222 1.50729 0
M  V30 13070 C 1177.27 -3.3116 2.73188 0
M  V30 13071 C 1176.51 -4.61082 2.68774 0
M  V30 13072 O 1176.73 -5.42728 1.75507 0
M  V30 13073 O 1175.66 -4.82506 3.59821 0
M  V30 13074 H 1179.49 -1.69983 2.51674 0
M  V30 13075 H 1177.07 -0.780934 1.27365 0
M  V30 13076 H 1178.96 -3.93524 1.5072 0
M  V30 13077 H 1177.63 -3.18541 0.575587 0
M  V30 13078 H 1176.54 -2.49485 2.78762 0
M  V30 13079 H 1177.87 -3.29709 3.65449 0
M  V30 13080 N 1179.52 -1.32087 -0.859693 0
M  V30 13081 C 1180.77 -1.21716 -1.60836 0
M  V30 13082 C 1181.09 0.220904 -1.94349 0
M  V30 13083 O 1182.29 0.446422 -2.67805 0
M  V30 13084 C 1180.75 -2.13143 -2.89997 0
M  V30 13085 C 1180.36 -3.62003 -2.63928 0
M  V30 13086 C 1182.1 -2.11596 -3.68004 0
M  V30 13087 C 1180.01 -4.45407 -3.89059 0
M  V30 13088 H 1178.94 -0.45199 -0.603507 0
M  V30 13089 H 1181.59 -1.57013 -0.949687 0
M  V30 13090 H 1179.97 -1.70755 -3.57294 0
M  V30 13091 H 1181.14 -4.12701 -2.04974 0
M  V30 13092 H 1179.46 -3.6563 -1.99258 0
M  V30 13093 H 1182.06 -2.71149 -4.6085 0
M  V30 13094 H 1182.4 -1.10568 -4.01348 0
M  V30 13095 H 1182.93 -2.52238 -3.07605 0
M  V30 13096 H 1179.67 -5.4723 -3.60859 0
M  V30 13097 H 1179.19 -3.99462 -4.47427 0
M  V30 13098 H 1180.87 -4.58149 -4.56846 0
M  V30 13099 N 1181 1.07532 -1.15215 0
M  V30 13100 C 1182.25 1.79474 -0.920439 0
M  V30 13101 C 1182.56 1.87593 0.553926 0
M  V30 13102 O 1183.77 2.56037 0.903169 0
M  V30 13103 C 1182.23 3.22509 -1.59738 0
M  V30 13104 C 1181.83 3.22596 -3.10863 0
M  V30 13105 C 1183.58 3.99072 -1.44714 0
M  V30 13106 C 1181.48 4.60273 -3.71352 0
M  V30 13107 H 1180.41 0.672625 -0.340722 0
M  V30 13108 H 1183.07 1.2071 -1.38208 0
M  V30 13109 H 1181.45 3.81454 -1.06342 0
M  V30 13110 H 1182.62 2.73306 -3.70999 0
M  V30 13111 H 1180.94 2.5953 -3.25627 0
M  V30 13112 H 1183.53 5.00823 -1.87299 0
M  V30 13113 H 1183.88 4.14428 -0.394386 0
M  V30 13114 H 1184.41 3.46617 -1.95195 0
M  V30 13115 H 1181.15 4.50122 -4.76519 0
M  V30 13116 H 1180.67 5.09809 -3.15998 0
M  V30 13117 H 1182.35 5.29243 -3.7217 0
M  V30 13118 N 1182.48 0.948665 1.2585 0
M  V30 13119 C 1183.73 0.600236 1.934 0
M  V30 13120 C 1184.06 -0.86185 1.74363 0
M  V30 13121 O 1183.31 -1.63294 1.07858 0
M  V30 13122 C 1183.61 0.89784 3.45939 0
M  V30 13123 C 1183.28 2.345 3.85124 0
M  V30 13124 C 1181.94 2.74058 3.95532 0
M  V30 13125 C 1184.29 3.2851 4.04636 0
M  V30 13126 C 1181.62 4.06707 4.22855 0
M  V30 13127 C 1183.97 4.60764 4.3345 0
M  V30 13128 C 1182.63 5.00127 4.42074 0
M  V30 13129 H 1181.9 0.219642 0.707699 0
M  V30 13130 H 1184.55 1.19658 1.49513 0
M  V30 13131 H 1182.86 0.219037 3.91187 0
M  V30 13132 H 1184.55 0.606916 3.96381 0
M  V30 13133 H 1181.14 2.02819 3.77574 0
M  V30 13134 H 1185.33 2.99141 3.96015 0
M  V30 13135 H 1180.58 4.36856 4.27746 0
M  V30 13136 H 1184.76 5.33594 4.47493 0
M  V30 13137 H 1182.38 6.02939 4.63 0
M  V30 13138 N 1183.96 -1.40369 0.716545 0
M  V30 13139 C 1184.91 -2.3071 0.0645944 0
M  V30 13140 C 1185.88 -1.48239 -0.749294 0
M  V30 13141 O 1187.06 -1.76975 -0.713045 0
M  V30 13142 C 1184.2 -3.34456 -0.850478 0
M  V30 13143 C 1183.31 -4.31992 -0.0259594 0
M  V30 13144 C 1182.45 -5.22806 -0.940599 0
M  V30 13145 C 1181.49 -6.12001 -0.110228 0
M  V30 13146 N 1180.62 -6.9523 -0.979796 0
M  V30 13147 H 1185.46 -2.85896 0.840682 0
M  V30 13148 H 1183 -1.40789 0.426258 0
M  V30 13149 H 1184.96 -3.93177 -1.39528 0
M  V30 13150 H 1183.59 -2.8077 -1.59274 0
M  V30 13151 H 1182.64 -3.75045 0.636036 0
M  V30 13152 H 1183.95 -4.94971 0.616883 0
M  V30 13153 H 1183.11 -5.86463 -1.5539 0
M  V30 13154 H 1181.85 -4.60104 -1.61726 0
M  V30 13155 H 1180.85 -5.47373 0.516001 0
M  V30 13156 H 1182.08 -6.76763 0.562944 0
M  V30 13157 H 1180.02 -6.35115 -1.64209 0
M  V30 13158 H 1179.94 -7.54978 -0.393012 0
M  V30 13159 H 1181.21 -7.63335 -1.57924 0
M  V30 13160 N 1185.44 -0.462799 -1.50652 0
M  V30 13161 C 1186.38 0.349784 -2.29955 0
M  V30 13162 C 1187.38 0.997947 -1.36885 0
M  V30 13163 O 1188.58 0.93 -1.54114 0
M  V30 13164 H 1184.96 0.131635 -0.740389 0
M  V30 13165 H 1186.93 -0.33958 -2.96461 0
M  V30 13166 C 1185.68 1.42398 -3.17204 0
M  V30 13167 H 1185 0.934611 -3.88722 0
M  V30 13168 H 1186.44 1.96528 -3.75703 0
M  V30 13169 C 1184.9 2.42135 -2.34248 0
M  V30 13170 O 1185.43 3.47229 -2.01978 0
M  V30 13171 N 1183.64 2.13647 -1.96985 0
M  V30 13172 H 1183.18 1.28209 -2.23428 0
M  V30 13173 H 1183.14 2.80615 -1.41783 0
M  V30 13174 N 1186.91 1.56388 -0.195085 0
M  V30 13175 C 1188.16 1.97189 0.44281 0
M  V30 13176 C 1188.48 1.08312 1.62153 0
M  V30 13177 O 1187.75 0.154404 1.95291 0
M  V30 13178 H 1186.33 0.728188 0.166585 0
M  V30 13179 H 1189 1.92852 -0.281815 0
M  V30 13180 H 1188.09 3.02016 0.786945 0
M  V30 13181 N 1188.39 -0.0785156 1.57404 0
M  V30 13182 C 1189.67 -0.811557 1.77969 0
M  V30 13183 C 1190.05 -1.96123 0.780966 0
M  V30 13184 O 1189.4 -2.27731 -0.18726 0
M  V30 13185 C 1189.61 -1.29075 3.24254 0
M  V30 13186 C 1190.96 -1.72685 3.87898 0
M  V30 13187 O 1191.98 -1.38658 3.28104 0
M  V30 13188 O 1190.84 -2.3566 4.93079 0
M  V30 13189 H 1187.93 -0.388361 0.73014 0
M  V30 13190 H 1190.48 -0.0591118 1.69597 0
M  V30 13191 H 1189.25 -0.467813 3.88494 0
M  V30 13192 H 1188.87 -2.10472 3.37324 0
M  V30 13193 N 1189.87 -1.5367 -0.349747 0
M  V30 13194 C 1191.15 -1.61238 -1.10732 0
M  V30 13195 C 1191.53 -0.429756 -2.06679 0
M  V30 13196 O 1190.88 0.578564 -2.21054 0
M  V30 13197 C 1191.09 -2.97022 -1.83245 0
M  V30 13198 C 1192.43 -3.52158 -2.37212 0
M  V30 13199 O 1193.46 -2.99156 -1.9335 0
M  V30 13200 O 1192.32 -4.44853 -3.1744 0
M  V30 13201 H 1189.41 -0.65191 -0.508864 0
M  V30 13202 H 1191.96 -1.66015 -0.351738 0
M  V30 13203 H 1190.73 -3.74535 -1.13311 0
M  V30 13204 H 1190.35 -2.95808 -2.65675 0
M  V30 13205 N 1191.35 0.610423 -1.45298 0
M  V30 13206 C 1192.28 1.73207 -1.56594 0
M  V30 13207 C 1193.26 1.64893 -0.417651 0
M  V30 13208 O 1194.44 1.83336 -0.64043 0
M  V30 13209 C 1191.57 3.11803 -1.52959 0
M  V30 13210 C 1190.53 3.34925 -2.66475 0
M  V30 13211 C 1189.85 4.73764 -2.47894 0
M  V30 13212 C 1191.15 3.25456 -4.08504 0
M  V30 13213 H 1192.85 1.6401 -2.50482 0
M  V30 13214 H 1190.39 0.787621 -1.20551 0
M  V30 13215 H 1192.35 3.90065 -1.59458 0
M  V30 13216 H 1191.07 3.21833 -0.55599 0
M  V30 13217 H 1189.73 2.59051 -2.59399 0
M  V30 13218 H 1189.38 4.80524 -1.4868 0
M  V30 13219 H 1189.08 4.90191 -3.24016 0
M  V30 13220 H 1190.6 5.54231 -2.56243 0
M  V30 13221 H 1192.02 3.93597 -4.16839 0
M  V30 13222 H 1190.41 3.53414 -4.84994 0
M  V30 13223 H 1191.48 2.22939 -4.30612 0
M  V30 13224 N 1192.83 1.32541 0.852676 0
M  V30 13225 C 1194.24 1.11575 1.14119 0
M  V30 13226 C 1194.44 -0.102469 2.01239 0
M  V30 13227 O 1193.5 -0.786786 2.39929 0
M  V30 13228 C 1194.81 2.39624 1.81661 0
M  V30 13229 C 1196.36 2.454 1.94288 0
M  V30 13230 C 1196.83 3.73375 2.65245 0
M  V30 13231 N 1198.33 3.74368 2.72769 0
M  V30 13232 C 1199.06 4.70094 3.28328 0
M  V30 13233 N 1198.56 5.76187 3.84682 0
M  V30 13234 N 1200.35 4.57588 3.26449 0
M  V30 13235 H 1192.5 2.10644 0.272544 0
M  V30 13236 H 1194.76 0.930094 0.183385 0
M  V30 13237 H 1194.47 3.28698 1.25102 0
M  V30 13238 H 1194.34 2.50734 2.81802 0
M  V30 13239 H 1196.73 1.56784 2.50005 0
M  V30 13240 H 1196.81 2.38241 0.931379 0
M  V30 13241 H 1196.46 4.62366 2.10191 0
M  V30 13242 H 1196.39 3.77806 3.66838 0
M  V30 13243 H 1198.88 2.97685 2.32791 0
M  V30 13244 H 1199.19 6.45285 4.25238 0
M  V30 13245 H 1197.53 5.79939 3.83008 0
M  V30 13246 H 1200.73 3.7387 2.81672 0
M  V30 13247 H 1200.9 5.32365 3.69448 0
M  V30 13248 N 1194.3 -1.0692 1.15784 0
M  V30 13249 C 1195.24 -2.14168 0.816375 0
M  V30 13250 C 1196.25 -1.61872 -0.17357 0
M  V30 13251 O 1197.44 -1.78429 0.0502973 0
M  V30 13252 C 1194.54 -3.38346 0.193682 0
M  V30 13253 C 1193.71 -4.19979 1.22215 0
M  V30 13254 C 1192.77 -5.2253 0.620424 0
M  V30 13255 O 1191.8 -5.54446 1.28757 0
M  V30 13256 N 1193 -5.77434 -0.595811 0
M  V30 13257 H 1195.76 -2.44062 1.73937 0
M  V30 13258 H 1193.32 -1.22865 1.05431 0
M  V30 13259 H 1195.32 -4.04092 -0.22174 0
M  V30 13260 H 1193.89 -3.06129 -0.632735 0
M  V30 13261 H 1193.11 -3.49984 1.81397 0
M  V30 13262 H 1194.39 -4.71329 1.91641 0
M  V30 13263 H 1193.79 -5.5376 -1.15611 0
M  V30 13264 H 1192.35 -6.44788 -0.953529 0
M  V30 13265 N 1195.78 -0.955326 -1.25345 0
M  V30 13266 C 1197.06 -0.527828 -1.88344 0
M  V30 13267 C 1197.44 0.994911 -1.86185 0
M  V30 13268 O 1196.79 1.86099 -1.32587 0
M  V30 13269 C 1197 -1.10525 -3.31037 0
M  V30 13270 C 1198.35 -1.18253 -4.07801 0
M  V30 13271 O 1199.37 -1.05685 -3.4016 0
M  V30 13272 O 1198.23 -1.37978 -5.28795 0
M  V30 13273 H 1195.32 -0.174206 -0.808444 0
M  V30 13274 H 1197.87 -1.0488 -1.3341 0
M  V30 13275 H 1196.64 -2.14847 -3.27042 0
M  V30 13276 H 1196.26 -0.567568 -3.93528 0
M  V30 13277 N 1197.26 1.39987 -0.723979 0
M  V30 13278 C 1198.19 2.28185 -0.0257726 0
M  V30 13279 C 1199.17 1.43795 0.75907 0
M  V30 13280 O 1200.36 1.73198 0.743948 0
M  V30 13281 C 1197.48 3.24489 0.970811 0
M  V30 13282 C 1196.53 4.25607 0.275778 0
M  V30 13283 S 1197.36 5.26035 -1.00237 0
M  V30 13284 C 1198.52 6.25899 -0.00809987 0
M  V30 13285 H 1198.75 2.87054 -0.773761 0
M  V30 13286 H 1196.28 1.45546 -0.515332 0
M  V30 13287 H 1198.24 3.80496 1.54055 0
M  V30 13288 H 1196.9 2.6466 1.69156 0
M  V30 13289 H 1196.1 4.93374 1.02946 0
M  V30 13290 H 1195.7 3.73343 -0.22163 0
M  V30 13291 H 1197.99 6.72323 0.835971 0
M  V30 13292 H 1198.93 7.05086 -0.652607 0
M  V30 13293 H 1199.34 5.63355 0.359377 0
M  V30 13294 N 1198.74 0.470782 1.50404 0
M  V30 13295 C 1199.67 -0.313458 2.31386 0
M  V30 13296 C 1200.65 -0.990623 1.38278 0
M  V30 13297 O 1201.84 -0.987854 1.67198 0
M  V30 13298 C 1198.97 -1.39599 3.18009 0
M  V30 13299 C 1197.92 -0.840443 4.19667 0
M  V30 13300 C 1197.25 -2.02124 4.95025 0
M  V30 13301 C 1198.55 0.148055 5.2209 0
M  V30 13302 H 1200.24 0.362432 2.97198 0
M  V30 13303 H 1197.79 0.175745 1.42924 0
M  V30 13304 H 1199.74 -1.9521 3.73458 0
M  V30 13305 H 1198.46 -2.10064 2.50081 0
M  V30 13306 H 1197.12 -0.306302 3.65318 0
M  V30 13307 H 1196.77 -2.71286 4.23571 0
M  V30 13308 H 1196.47 -1.65574 5.6379 0
M  V30 13309 H 1197.99 -2.58226 5.5331 0
M  V30 13310 H 1199.41 -0.318874 5.72413 0
M  V30 13311 H 1197.8 0.427811 5.98573 0
M  V30 13312 H 1198.87 1.07404 4.72855 0
M  V30 13313 N 1200.22 -1.56282 0.203376 0
M  V30 13314 C 1201.45 -2.02198 -0.438572 0
M  V30 13315 C 1201.86 -1.08343 -1.54619 0
M  V30 13316 O 1201.22 -0.0897594 -1.82279 0
M  V30 13317 C 1201.27 -3.4776 -0.987184 0
M  V30 13318 O 1200.99 -4.38034 0.0762552 0
M  V30 13319 C 1202.49 -4.09234 -1.70419 0
M  V30 13320 H 1199.71 -0.662041 -0.109282 0
M  V30 13321 H 1202.25 -2.02067 0.314509 0
M  V30 13322 H 1200.41 -3.48564 -1.69061 0
M  V30 13323 H 1200.82 -5.2344 -0.333322 0
M  V30 13324 H 1202.3 -5.1291 -2.04027 0
M  V30 13325 H 1202.77 -3.53172 -2.61087 0
M  V30 13326 H 1203.38 -4.12226 -1.04641 0
M  V30 13327 N 1201.7 0.070167 -1.57444 0
M  V30 13328 C 1202.63 1.08351 -2.06839 0
M  V30 13329 C 1203.61 1.40269 -0.962224 0
M  V30 13330 O 1204.79 1.49867 -1.23505 0
M  V30 13331 C 1201.92 2.39649 -2.51368 0
M  V30 13332 C 1200.88 2.22079 -3.65875 0
M  V30 13333 C 1200.2 3.58776 -3.96464 0
M  V30 13334 C 1201.5 1.64069 -4.95862 0
M  V30 13335 H 1203.2 0.672465 -2.9175 0
M  V30 13336 H 1200.74 0.322027 -1.40353 0
M  V30 13337 H 1202.69 3.10833 -2.84537 0
M  V30 13338 H 1201.42 2.82736 -1.63487 0
M  V30 13339 H 1200.08 1.53337 -3.32992 0
M  V30 13340 H 1199.73 3.99436 -3.05712 0
M  V30 13341 H 1199.43 3.47859 -4.7357 0
M  V30 13342 H 1200.95 4.31387 -4.32131 0
M  V30 13343 H 1202.36 2.2512 -5.27251 0
M  V30 13344 H 1200.76 1.63843 -5.773 0
M  V30 13345 H 1201.83 0.60232 -4.81145 0
M  V30 13346 N 1203.17 1.53854 0.341593 0
M  V30 13347 C 1204.11 1.78295 1.44027 0
M  V30 13348 C 1205.12 0.664303 1.4863 0
M  V30 13349 O 1206.31 0.941073 1.51678 0
M  V30 13350 C 1203.41 1.86947 2.82673 0
M  V30 13351 C 1202.58 3.16898 3.01487 0
M  V30 13352 C 1201.64 3.16483 4.20386 0
M  V30 13353 O 1200.67 3.90197 4.14409 0
M  V30 13354 N 1201.87 2.3899 5.29022 0
M  V30 13355 H 1204.63 2.73102 1.23431 0
M  V30 13356 H 1202.19 1.52928 0.531483 0
M  V30 13357 H 1204.19 1.84118 3.60392 0
M  V30 13358 H 1202.76 0.993169 2.96403 0
M  V30 13359 H 1201.98 3.32835 2.11221 0
M  V30 13360 H 1203.26 4.02733 3.1094 0
M  V30 13361 H 1202.66 1.78657 5.36748 0
M  V30 13362 H 1201.22 2.41957 6.05227 0
M  V30 13363 N 1204.65 -0.602709 1.4562 0
M  V30 13364 C 1205.9 -1.35769 1.49163 0
M  V30 13365 C 1206.21 -1.95102 0.139485 0
M  V30 13366 O 1207.42 -2.71449 0.0525919 0
M  V30 13367 C 1205.88 -2.45959 2.62739 0
M  V30 13368 C 1205.48 -1.93017 4.04288 0
M  V30 13369 C 1207.23 -3.22926 2.75534 0
M  V30 13370 C 1205.13 -3.00718 5.09237 0
M  V30 13371 H 1204.06 -0.510317 0.555061 0
M  V30 13372 H 1206.72 -0.645434 1.71774 0
M  V30 13373 H 1205.1 -3.19892 2.3342 0
M  V30 13374 H 1206.27 -1.2576 4.43307 0
M  V30 13375 H 1204.59 -1.2878 3.95986 0
M  V30 13376 H 1207.18 -4.03267 3.51112 0
M  V30 13377 H 1207.53 -3.74243 1.82339 0
M  V30 13378 H 1208.06 -2.56095 3.04402 0
M  V30 13379 H 1204.8 -2.54312 6.04157 0
M  V30 13380 H 1204.32 -3.66526 4.74783 0
M  V30 13381 H 1206 -3.65016 5.34202 0
M  V30 13382 N 1206.13 -1.32992 -0.845635 0
M  V30 13383 C 1207.38 -1.23415 -1.59536 0
M  V30 13384 C 1207.69 0.200278 -1.94572 0
M  V30 13385 O 1208.9 0.417993 -2.68263 0
M  V30 13386 C 1207.35 -2.16207 -2.8772 0
M  V30 13387 C 1206.96 -3.64782 -2.60073 0
M  V30 13388 C 1208.71 -2.15488 -3.65739 0
M  V30 13389 C 1206.61 -4.49508 -3.84313 0
M  V30 13390 H 1205.54 -0.458366 -0.598679 0
M  V30 13391 H 1208.19 -1.58012 -0.932981 0
M  V30 13392 H 1206.58 -1.74535 -3.55462 0
M  V30 13393 H 1207.75 -4.14852 -2.00585 0
M  V30 13394 H 1206.06 -3.67723 -1.95369 0
M  V30 13395 H 1208.66 -2.76021 -4.57948 0
M  V30 13396 H 1209 -1.14818 -4.00153 0
M  V30 13397 H 1209.54 -2.55487 -3.04912 0
M  V30 13398 H 1206.28 -5.51027 -3.55035 0
M  V30 13399 H 1205.8 -4.04185 -4.43165 0
M  V30 13400 H 1207.48 -4.62969 -4.51961 0
M  V30 13401 N 1207.61 1.06304 -1.1635 0
M  V30 13402 C 1209.02 1.31227 -0.90838 0
M  V30 13403 C 1209.22 1.96665 0.438779 0
M  V30 13404 O 1208.28 2.2332 1.17833 0
M  V30 13405 C 1209.59 2.19303 -2.05734 0
M  V30 13406 C 1211.14 2.3272 -2.09309 0
M  V30 13407 C 1211.62 3.24151 -3.23559 0
M  V30 13408 N 1213.11 3.31734 -3.23275 0
M  V30 13409 C 1213.84 4.02572 -4.08318 0
M  V30 13410 N 1213.34 4.75933 -5.03448 0
M  V30 13411 N 1215.13 3.98621 -3.96305 0
M  V30 13412 H 1207.28 0.622228 -2.03081 0
M  V30 13413 H 1209.54 0.336892 -0.886119 0
M  V30 13414 H 1209.25 1.78497 -3.03037 0
M  V30 13415 H 1209.12 3.19888 -1.99879 0
M  V30 13416 H 1211.51 2.72774 -1.12599 0
M  V30 13417 H 1211.59 1.31804 -2.19229 0
M  V30 13418 H 1211.24 2.84813 -4.20528 0
M  V30 13419 H 1211.17 4.25046 -3.10875 0
M  V30 13420 H 1213.66 2.79453 -2.5439 0
M  V30 13421 H 1213.97 5.27512 -5.64758 0
M  V30 13422 H 1212.32 4.74913 -5.07427 0
M  V30 13423 H 1215.51 3.40427 -3.21289 0
M  V30 13424 H 1215.68 4.5356 -4.62804 0
M  V30 13425 N 1209.09 0.96196 1.24836 0
M  V30 13426 C 1210.33 0.616342 1.92052 0
M  V30 13427 C 1210.65 -0.851601 1.76088 0
M  V30 13428 O 1211.85 -1.3075 2.37943 0
M  V30 13429 C 1210.31 1.05168 3.44191 0
M  V30 13430 C 1209.92 2.54268 3.68852 0
M  V30 13431 C 1211.66 0.778938 4.17292 0
M  V30 13432 C 1209.57 2.91564 5.14533 0
M  V30 13433 H 1208.5 0.22681 0.719078 0
M  V30 13434 H 1211.15 1.1674 1.41577 0
M  V30 13435 H 1209.53 0.428979 3.9367 0
M  V30 13436 H 1210.71 3.21619 3.29997 0
M  V30 13437 H 1209.02 2.79091 3.09026 0
M  V30 13438 H 1211.62 1.03366 5.24614 0
M  V30 13439 H 1211.96 -0.284772 4.15325 0
M  V30 13440 H 1212.49 1.36233 3.73745 0
M  V30 13441 H 1209.23 3.96982 5.21618 0
M  V30 13442 H 1208.75 2.28892 5.54408 0
M  V30 13443 H 1210.43 2.81155 5.82718 0
M  V30 13444 N 1210.56 -1.39601 0.731392 0
M  V30 13445 C 1211.5 -2.28169 0.0378735 0
M  V30 13446 C 1212.47 -1.44195 -0.751434 0
M  V30 13447 O 1213.66 -1.7359 -0.734753 0
M  V30 13448 C 1210.79 -3.24999 -0.953589 0
M  V30 13449 C 1209.83 -4.25748 -0.253203 0
M  V30 13450 S 1210.66 -5.25496 1.03025 0
M  V30 13451 C 1211.82 -6.25886 0.0412927 0
M  V30 13452 H 1212.05 -2.8664 0.788973 0
M  V30 13453 H 1209.59 -1.45271 0.523044 0
M  V30 13454 H 1211.54 -3.81308 -1.52035 0
M  V30 13455 H 1210.21 -2.65554 -1.6775 0
M  V30 13456 H 1209.4 -4.93913 -1.00328 0
M  V30 13457 H 1209 -3.7322 0.241426 0
M  V30 13458 H 1211.29 -6.72757 -0.800305 0
M  V30 13459 H 1212.24 -7.0473 0.68999 0
M  V30 13460 H 1212.64 -5.63538 -0.329495 0
M  V30 13461 N 1212.04 -0.478751 -1.50152 0
M  V30 13462 C 1212.95 0.316554 -2.32455 0
M  V30 13463 C 1213.97 0.98871 -1.4318 0
M  V30 13464 O 1215.14 0.974998 -1.76226 0
M  V30 13465 C 1212.21 1.3799 -3.18056 0
M  V30 13466 C 1211.27 0.723534 -4.23159 0
M  V30 13467 C 1210.5 1.73621 -5.0467 0
M  V30 13468 O 1210.73 2.96362 -4.87366 0
M  V30 13469 O 1209.66 1.30381 -5.87609 0
M  V30 13470 H 1213.49 -0.356491 -3.016 0
M  V30 13471 H 1211.07 -0.24046 -1.47452 0
M  V30 13472 H 1212.95 1.99565 -3.71149 0
M  V30 13473 H 1211.63 2.03627 -2.5163 0
M  V30 13474 H 1210.54 0.0686296 -3.74037 0
M  V30 13475 H 1211.87 0.109979 -4.92077 0
M  V30 13476 N 1213.52 1.56172 -0.211661 0
M  V30 13477 C 1214.47 2.21206 0.719063 0
M  V30 13478 C 1215.46 1.18835 1.20725 0
M  V30 13479 O 1216.67 1.36939 1.16823 0
M  V30 13480 H 1213.04 0.709129 0.250279 0
M  V30 13481 H 1215.01 2.98038 0.147022 0
M  V30 13482 C 1213.76 2.89826 1.92084 0
M  V30 13483 H 1213.09 3.68351 1.55428 0
M  V30 13484 H 1214.53 3.38744 2.55006 0
M  V30 13485 C 1212.99 1.91756 2.77004 0
M  V30 13486 O 1213.52 1.42826 3.75451 0
M  V30 13487 N 1211.72 1.59622 2.42836 0
M  V30 13488 H 1211.27 1.99606 1.62835 0
M  V30 13489 H 1211.23 0.942641 2.99936 0
M  V30 13490 N 1215 -0.0618163 1.57479 0
M  V30 13491 C 1216.25 -0.75794 1.86918 0
M  V30 13492 C 1216.56 -1.78234 0.80572 0
M  V30 13493 O 1217.77 -2.52874 0.98827 0
M  V30 13494 C 1216.22 -1.39898 3.31597 0
M  V30 13495 C 1215.83 -0.412621 4.46096 0
M  V30 13496 C 1217.57 -2.07688 3.70224 0
M  V30 13497 C 1215.48 -1.06014 5.8182 0
M  V30 13498 H 1214.41 -0.286825 0.697314 0
M  V30 13499 H 1217.06 -0.0114386 1.83496 0
M  V30 13500 H 1215.44 -2.19408 3.29661 0
M  V30 13501 H 1216.62 0.353392 4.59443 0
M  V30 13502 H 1214.93 0.161383 4.16087 0
M  V30 13503 H 1217.53 -2.56928 4.68927 0
M  V30 13504 H 1217.87 -2.88073 3.00532 0
M  V30 13505 H 1218.41 -1.34996 3.74194 0
M  V30 13506 H 1215.15 -0.296405 6.5483 0
M  V30 13507 H 1214.67 -1.79677 5.72255 0
M  V30 13508 H 1216.34 -1.57708 6.27485 0
M  V30 13509 N 1216.48 -1.54033 -0.333429 0
M  V30 13510 C 1217.72 -1.72958 -1.07038 0
M  V30 13511 C 1218.08 -0.492055 -1.86002 0
M  V30 13512 O 1217.37 0.515453 -1.84536 0
M  V30 13513 C 1217.56 -2.93926 -2.03328 0
M  V30 13514 C 1217.39 -4.29324 -1.33831 0
M  V30 13515 C 1216.16 -4.93647 -1.07892 0
M  V30 13516 C 1218.36 -5.08664 -0.75929 0
M  V30 13517 N 1216.34 -6.12897 -0.35082 0
M  V30 13518 C 1217.71 -6.19788 -0.162281 0
M  V30 13519 C 1219.77 -4.93491 -0.661131 0
M  V30 13520 C 1218.47 -7.17394 0.523351 0
M  V30 13521 C 1220.5 -5.91399 0.0107794 0
M  V30 13522 C 1219.86 -7.01867 0.596775 0
M  V30 13523 H 1215.96 -0.685828 -0.375718 0
M  V30 13524 H 1218.54 -1.91478 -0.35274 0
M  V30 13525 H 1216.71 -2.76889 -2.72373 0
M  V30 13526 H 1218.45 -3.01524 -2.69936 0
M  V30 13527 H 1215.2 -4.53392 -1.36868 0
M  V30 13528 H 1215.63 -6.77 -0.00120039 0
M  V30 13529 H 1220.27 -4.08242 -1.09991 0
M  V30 13530 H 1217.99 -8.02209 0.973994 0
M  V30 13531 H 1221.57 -5.81736 0.0862353 0
M  V30 13532 H 1220.45 -7.76327 1.10845 0
M  V30 13533 N 1217.95 0.594978 -1.45938 0
M  V30 13534 C 1218.89 1.71909 -1.51591 0
M  V30 13535 C 1219.9 1.57671 -0.405416 0
M  V30 13536 O 1221.09 1.65321 -0.673144 0
M  V30 13537 C 1218.19 3.10041 -1.3685 0
M  V30 13538 C 1217.36 3.50399 -2.61801 0
M  V30 13539 C 1216.42 4.67542 -2.41435 0
M  V30 13540 O 1215.45 4.74022 -3.15106 0
M  V30 13541 N 1216.65 5.6163 -1.46808 0
M  V30 13542 H 1219.41 1.67518 -2.48511 0
M  V30 13543 H 1216.97 0.78062 -1.41838 0
M  V30 13544 H 1218.97 3.86183 -1.21017 0
M  V30 13545 H 1217.54 3.08868 -0.481589 0
M  V30 13546 H 1216.76 2.64088 -2.92662 0
M  V30 13547 H 1218.04 3.74125 -3.44831 0
M  V30 13548 H 1217.44 5.5912 -0.860333 0
M  V30 13549 H 1216 6.37252 -1.36942 0
M  V30 13550 N 1219.43 1.33438 0.838571 0
M  V30 13551 C 1220.38 1.23698 1.96981 0
M  V30 13552 C 1221.37 0.138299 1.68835 0
M  V30 13553 O 1222.58 0.302278 1.77444 0
M  V30 13554 H 1218.96 0.383874 0.646641 0
M  V30 13555 H 1220.93 2.19337 2.02321 0
M  V30 13556 C 1219.68 0.993362 3.33208 0
M  V30 13557 H 1219 1.83104 3.55405 0
M  V30 13558 H 1220.44 0.965517 4.1286 0
M  V30 13559 C 1218.9 -0.303701 3.35528 0
M  V30 13560 O 1219.43 -1.3103 3.79729 0
M  V30 13561 N 1217.63 -0.331342 2.88705 0
M  V30 13562 H 1217.18 0.488351 2.52929 0
M  V30 13563 H 1217.14 -1.199 2.9064 0
M  V30 13564 N 1220.91 -1.05686 1.16912 0
M  V30 13565 C 1221.84 -2.1329 0.839044 0
M  V30 13566 C 1222.86 -1.62047 -0.156392 0
M  V30 13567 O 1224.04 -1.78366 0.0692192 0
M  V30 13568 C 1221.14 -3.38122 0.229558 0
M  V30 13569 C 1220.32 -4.18659 1.26662 0
M  V30 13570 C 1219.38 -5.21842 0.675811 0
M  V30 13571 O 1218.4 -5.53049 1.3463 0
M  V30 13572 N 1219.6 -5.78034 -0.534532 0
M  V30 13573 H 1222.37 -2.42203 1.76515 0
M  V30 13574 H 1219.93 -1.2174 1.06729 0
M  V30 13575 H 1221.92 -4.04305 -0.178868 0
M  V30 13576 H 1220.49 -3.06783 -0.60023 0
M  V30 13577 H 1219.71 -3.4804 1.85099 0
M  V30 13578 H 1221 -4.6927 1.9663 0
M  V30 13579 H 1220.4 -5.54955 -1.09731 0
M  V30 13580 H 1218.96 -6.45763 -0.885087 0
M  V30 13581 N 1222.39 -0.968567 -1.24324 0
M  V30 13582 C 1223.64 -0.629682 -1.9204 0
M  V30 13583 C 1223.96 0.837906 -1.7608 0
M  V30 13584 O 1223.23 1.5982 -1.13289 0
M  V30 13585 H 1221.81 -0.229901 -0.710742 0
M  V30 13586 H 1224.47 -1.22982 -1.512 0
M  V30 13587 H 1223.57 -0.871034 -2.99699 0
M  V30 13588 N 1223.87 1.39211 -0.738786 0
M  V30 13589 C 1224.8 2.33209 -0.11647 0
M  V30 13590 C 1225.78 1.54108 0.720056 0
M  V30 13591 O 1226.96 1.82486 0.664264 0
M  V30 13592 C 1224.09 3.38226 0.78872 0
M  V30 13593 C 1223.05 4.27963 0.0560636 0
M  V30 13594 C 1222.37 5.2371 1.07852 0
M  V30 13595 C 1223.67 5.10508 -1.1036 0
M  V30 13596 H 1225.37 2.85501 -0.901649 0
M  V30 13597 H 1222.91 1.37272 -0.435032 0
M  V30 13598 H 1224.87 4.02938 1.23364 0
M  V30 13599 H 1223.59 2.84382 1.60606 0
M  V30 13600 H 1222.25 3.64735 -0.369274 0
M  V30 13601 H 1221.9 4.66161 1.88953 0
M  V30 13602 H 1221.6 5.846 0.593048 0
M  V30 13603 H 1223.12 5.91299 1.52307 0
M  V30 13604 H 1224.53 5.68544 -0.736943 0
M  V30 13605 H 1222.93 5.80558 -1.51895 0
M  V30 13606 H 1224 4.45117 -1.92352 0
M  V30 13607 N 1225.34 0.486708 1.49896 0
M  V30 13608 C 1226.62 -0.125183 1.95199 0
M  V30 13609 C 1227 -1.55498 1.42771 0
M  V30 13610 O 1226.35 -2.1949 0.635322 0
M  V30 13611 C 1226.56 -0.0524982 3.48961 0
M  V30 13612 C 1227.91 -0.233595 4.23957 0
M  V30 13613 O 1228.93 -0.128357 3.55969 0
M  V30 13614 O 1227.79 -0.447862 5.44662 0
M  V30 13615 H 1224.88 -0.103141 0.820543 0
M  V30 13616 H 1227.43 0.548226 1.60601 0
M  V30 13617 H 1226.2 0.945163 3.79714 0
M  V30 13618 H 1225.83 -0.766683 3.90138 0
M  V30 13619 N 1226.82 -1.56058 0.219941 0
M  V30 13620 C 1227.75 -2.2321 -0.685547 0
M  V30 13621 C 1228.73 -1.20328 -1.20229 0
M  V30 13622 O 1229.92 -1.48909 -1.24659 0
M  V30 13623 C 1227.05 -2.91076 -1.89452 0
M  V30 13624 C 1226 -4.00415 -1.51169 0
M  V30 13625 C 1225.33 -4.55569 -2.79931 0
M  V30 13626 C 1226.63 -5.17549 -0.702896 0
M  V30 13627 H 1228.32 -2.99136 -0.125671 0
M  V30 13628 H 1225.87 -1.43879 -0.0590043 0
M  V30 13629 H 1227.82 -3.36744 -2.53341 0
M  V30 13630 H 1226.55 -2.12594 -2.47934 0
M  V30 13631 H 1225.21 -3.55475 -0.896275 0
M  V30 13632 H 1224.85 -3.73819 -3.36553 0
M  V30 13633 H 1224.55 -5.29361 -2.55049 0
M  V30 13634 H 1226.08 -5.03955 -3.44764 0
M  V30 13635 H 1227.49 -5.59608 -1.24544 0
M  V30 13636 H 1225.89 -5.97563 -0.551234 0
M  V30 13637 H 1226.96 -4.84027 0.29083 0
M  V30 13638 N 1228.3 0.053464 -1.57509 0
M  V30 13639 C 1229.72 0.408651 -1.5428 0
M  V30 13640 C 1229.92 1.78086 -0.942735 0
M  V30 13641 O 1228.97 2.46366 -0.553163 0
M  V30 13642 C 1230.29 0.332884 -2.98852 0
M  V30 13643 C 1231.83 0.411745 -3.1028 0
M  V30 13644 C 1232.31 0.365691 -4.56538 0
M  V30 13645 N 1233.8 0.425222 -4.61244 0
M  V30 13646 C 1234.54 0.412093 -5.71917 0
M  V30 13647 N 1234.03 0.352693 -6.91902 0
M  V30 13648 N 1235.82 0.460016 -5.60214 0
M  V30 13649 H 1227.98 -0.844834 -1.94875 0
M  V30 13650 H 1230.24 -0.318888 -0.892757 0
M  V30 13651 H 1229.94 -0.609116 -3.46385 0
M  V30 13652 H 1229.82 1.13605 -3.59686 0
M  V30 13653 H 1232.21 1.34417 -2.62709 0
M  V30 13654 H 1232.29 -0.420333 -2.52323 0
M  V30 13655 H 1231.93 -0.562963 -5.0477 0
M  V30 13656 H 1231.86 1.21555 -5.12379 0
M  V30 13657 H 1234.35 0.474634 -3.74908 0
M  V30 13658 H 1234.66 0.347105 -7.7202 0
M  V30 13659 H 1233.01 0.319104 -6.94267 0
M  V30 13660 H 1236.2 0.504242 -4.65376 0
M  V30 13661 H 1236.37 0.446315 -6.46461 0
M  V30 13662 N 1229.78 1.54207 0.325255 0
M  V30 13663 C 1230.71 1.78318 1.42401 0
M  V30 13664 C 1231.69 0.633078 1.49769 0
M  V30 13665 O 1232.87 0.870324 1.67205 0
M  V30 13666 C 1230 1.89823 2.80509 0
M  V30 13667 C 1229.05 3.12102 2.9068 0
M  V30 13668 S 1229.88 4.70746 2.55262 0
M  V30 13669 C 1231.04 4.85154 3.95444 0
M  V30 13670 H 1231.27 2.71234 1.21736 0
M  V30 13671 H 1228.8 1.45309 0.521993 0
M  V30 13672 H 1230.76 1.97136 3.60066 0
M  V30 13673 H 1229.42 0.978873 2.98458 0
M  V30 13674 H 1228.61 3.16881 3.91921 0
M  V30 13675 H 1228.22 3.03109 2.19091 0
M  V30 13676 H 1230.51 4.67687 4.90178 0
M  V30 13677 H 1231.45 5.87254 3.95649 0
M  V30 13678 H 1231.86 4.13471 3.8432 0
M  V30 13679 N 1231.26 -0.58723 1.46251 0
M  V30 13680 C 1232.19 -1.70694 1.5933 0
M  V30 13681 C 1233.17 -1.64208 0.443831 0
M  V30 13682 O 1234.35 -1.82294 0.669516 0
M  V30 13683 C 1231.48 -3.0933 1.579 0
M  V30 13684 C 1230.44 -3.30643 2.7177 0
M  V30 13685 C 1229.76 -4.69761 2.554 0
M  V30 13686 C 1231.06 -3.18916 4.1363 0
M  V30 13687 H 1232.76 -1.60004 2.53059 0
M  V30 13688 H 1230.3 -0.768343 1.21789 0
M  V30 13689 H 1232.26 -3.87479 1.65644 0
M  V30 13690 H 1230.98 -3.20907 0.60712 0
M  V30 13691 H 1229.64 -2.54892 2.63488 0
M  V30 13692 H 1229.29 -4.78098 1.56306 0
M  V30 13693 H 1228.99 -4.84974 3.31774 0
M  V30 13694 H 1230.51 -5.50084 2.65028 0
M  V30 13695 H 1231.93 -3.86915 4.23048 0
M  V30 13696 H 1230.32 -3.45653 4.90555 0
M  V30 13697 H 1231.39 -2.1606 4.34104 0
M  V30 13698 N 1232.74 -1.33881 -0.831482 0
M  V30 13699 C 1234.15 -1.23112 -1.40358 0
M  V30 13700 C 1234.5 0.146944 -1.95649 0
M  V30 13701 O 1233.62 1.04689 -1.89391 0
M  V30 13702 C 1234.22 -2.22899 -2.5515 0
M  V30 13703 C 1232.78 -2.15946 -3.08292 0
M  V30 13704 C 1231.92 -2.09975 -1.81124 0
M  V30 13705 H 1234.87 -1.45372 -0.63661 0
M  V30 13706 H 1234.9 -1.841 -3.32997 0
M  V30 13707 H 1234.41 -3.23186 -2.14878 0
M  V30 13708 H 1232.51 -1.18987 -3.53091 0
M  V30 13709 H 1232.62 -3.06822 -3.67964 0
M  V30 13710 H 1230.99 -1.55564 -2.01673 0
M  V30 13711 H 1231.77 -3.12082 -1.43037 0
M  V30 13712 N 1234.21 1.05064 -1.1747 0
M  V30 13713 C 1235.44 1.81497 -0.987031 0
M  V30 13714 C 1235.85 1.83323 0.467921 0
M  V30 13715 O 1235.19 1.26006 1.33672 0
M  V30 13716 C 1235.26 3.28826 -1.45306 0
M  V30 13717 C 1234.92 3.50681 -2.93039 0
M  V30 13718 C 1235.92 3.42699 -3.90965 0
M  V30 13719 C 1233.6 3.77602 -3.31243 0
M  V30 13720 C 1235.6 3.61325 -5.25093 0
M  V30 13721 C 1233.28 3.95876 -4.65538 0
M  V30 13722 C 1234.28 3.87737 -5.62271 0
M  V30 13723 O 1233.97 4.055 -6.94136 0
M  V30 13724 H 1233.7 0.578734 -0.349347 0
M  V30 13725 H 1236.26 1.33373 -1.56208 0
M  V30 13726 H 1234.49 3.77872 -0.821581 0
M  V30 13727 H 1236.17 3.86788 -1.23085 0
M  V30 13728 H 1236.94 3.21877 -3.62795 0
M  V30 13729 H 1232.82 3.8304 -2.56517 0
M  V30 13730 H 1236.36 3.54888 -6.00583 0
M  V30 13731 H 1232.26 4.16191 -4.93412 0
M  V30 13732 H 1233.03 4.22718 -7.00894 0
M  V30 13733 N 1235.69 0.975146 1.23809 0
M  V30 13734 C 1236.94 0.639858 1.91704 0
M  V30 13735 C 1237.26 -0.828557 1.76522 0
M  V30 13736 O 1236.53 -1.59217 1.14135 0
M  V30 13737 H 1235.11 0.233667 0.709513 0
M  V30 13738 H 1237.77 1.23782 1.50545 0
M  V30 13739 H 1236.87 0.886915 2.99233 0
M  V30 13740 N 1237.17 -1.38817 0.746158 0
M  V30 13741 C 1238.41 -2.02129 0.303843 0
M  V30 13742 C 1238.77 -1.57943 -1.0917 0
M  V30 13743 O 1239.97 -2.13532 -1.63272 0
M  V30 13744 C 1238.25 -3.5499 0.414379 0
M  V30 13745 S 1239.8 -4.38767 0.0535495 0
M  V30 13746 H 1236.62 -0.701084 0.118329 0
M  V30 13747 H 1239.22 -1.69444 0.975137 0
M  V30 13748 H 1237.93 -3.84638 1.43114 0
M  V30 13749 H 1237.46 -3.92442 -0.274355 0
M  V30 13750 H 1239.47 -4.82469 -1.15921 0
M  V30 13751 N 1238.65 -0.49465 -1.49636 0
M  V30 13752 C 1239.58 0.276606 -2.31856 0
M  V30 13753 C 1240.56 0.968499 -1.39836 0
M  V30 13754 O 1241.74 0.96113 -1.68748 0
M  V30 13755 C 1238.87 1.34522 -3.20189 0
M  V30 13756 C 1237.83 0.773571 -4.20951 0
M  V30 13757 C 1237.15 1.94223 -4.98178 0
M  V30 13758 C 1238.45 -0.231096 -5.21788 0
M  V30 13759 H 1240.15 -0.409668 -2.96584 0
M  V30 13760 H 1237.69 -0.198461 -1.42626 0
M  V30 13761 H 1239.65 1.89244 -3.76517 0
M  V30 13762 H 1238.37 2.06059 -2.53392 0
M  V30 13763 H 1237.03 0.248144 -3.65759 0
M  V30 13764 H 1236.68 2.64514 -4.27834 0
M  V30 13765 H 1236.38 1.56584 -5.66353 0
M  V30 13766 H 1237.9 2.49391 -5.57348 0
M  V30 13767 H 1239.32 0.227768 -5.72847 0
M  V30 13768 H 1237.71 -0.522984 -5.97817 0
M  V30 13769 H 1238.78 -1.14914 -4.71087 0
M  V30 13770 N 1240.13 1.55939 -0.228214 0
M  V30 13771 C 1241.35 2.0332 0.409364 0
M  V30 13772 C 1241.78 1.10683 1.52088 0
M  V30 13773 O 1241.13 0.0962484 1.81044 0
M  V30 13774 C 1241.18 3.48877 0.911981 0
M  V30 13775 O 1240.29 3.59378 2.02289 0
M  V30 13776 H 1239.63 0.657625 0.0917909 0
M  V30 13777 H 1242.16 2.01605 -0.348802 0
M  V30 13778 H 1242.17 3.89331 1.22007 0
M  V30 13779 H 1240.84 4.15783 0.0984902 0
M  V30 13780 H 1239.42 3.30815 1.72093 0
M  V30 13781 N 1241.6 -0.0451101 1.57535 0
M  V30 13782 C 1242.85 -0.738072 1.87711 0
M  V30 13783 C 1243.17 -1.7737 0.824579 0
M  V30 13784 O 1244.37 -2.51812 1.01503 0
M  V30 13785 C 1242.83 -1.36373 3.33062 0
M  V30 13786 C 1242.44 -0.365283 4.46508 0
M  V30 13787 C 1244.18 -2.0375 3.72406 0
M  V30 13788 C 1242.09 -0.998371 5.82912 0
M  V30 13789 H 1241.02 -0.279413 0.700317 0
M  V30 13790 H 1243.67 0.00802425 1.83498 0
M  V30 13791 H 1242.05 -2.15899 3.31969 0
M  V30 13792 H 1243.22 0.402102 4.59042 0
M  V30 13793 H 1241.54 0.205505 4.15893 0
M  V30 13794 H 1244.14 -2.51939 4.71625 0
M  V30 13795 H 1244.48 -2.84869 3.03571 0
M  V30 13796 H 1245.01 -1.3102 3.75604 0
M  V30 13797 H 1241.75 -0.226935 6.55107 0
M  V30 13798 H 1241.27 -1.73598 5.74129 0
M  V30 13799 H 1242.95 -1.51044 6.29122 0
M  V30 13800 N 1243.08 -1.54377 -0.317073 0
M  V30 13801 C 1244.33 -1.72551 -1.05216 0
M  V30 13802 C 1244.65 -0.5055 -1.88334 0
M  V30 13803 O 1243.92 0.480439 -1.89917 0
M  V30 13804 H 1242.5 -0.636222 -0.391447 0
M  V30 13805 H 1245.16 -1.91696 -0.35194 0
M  V30 13806 H 1244.26 -2.60791 -1.71448 0
M  V30 13807 N 1244.56 0.579466 -1.4656 0
M  V30 13808 C 1245.84 1.33973 -1.42515 0
M  V30 13809 C 1246.22 2.10812 -0.110317 0
M  V30 13810 O 1245.57 2.09679 0.908135 0
M  V30 13811 C 1245.78 2.26301 -2.65686 0
M  V30 13812 C 1247.12 2.88027 -3.1197 0
M  V30 13813 O 1248.15 2.36612 -2.66257 0
M  V30 13814 O 1247.01 3.81423 -3.9138 0
M  V30 13815 H 1244.1 0.602121 -0.566903 0
M  V30 13816 H 1246.65 0.600214 -1.58731 0
M  V30 13817 H 1245.42 1.68973 -3.52936 0
M  V30 13818 H 1245.04 3.07586 -2.51945 0
M  V30 13819 N 1246.04 1.3432 0.824371 0
M  V30 13820 C 1247.28 1.27942 1.59405 0
M  V30 13821 C 1247.64 -0.148961 1.91421 0
M  V30 13822 O 1248.84 -0.336891 2.6668 0
M  V30 13823 C 1247.11 2.14393 2.85955 0
M  V30 13824 S 1248.67 2.25354 3.76512 0
M  V30 13825 H 1245.49 0.454953 0.546387 0
M  V30 13826 H 1248.09 1.69517 0.973873 0
M  V30 13827 H 1246.8 3.17182 2.60429 0
M  V30 13828 H 1246.33 1.7371 3.52971 0
M  V30 13829 H 1248.34 1.42526 4.7529 0
M  V30 13830 N 1247.52 -1.0444 1.18026 0
M  V30 13831 C 1248.76 -1.77838 0.974756 0
M  V30 13832 C 1249.1 -1.87792 -0.494755 0
M  V30 13833 O 1248.37 -1.38327 -1.36733 0
M  V30 13834 C 1248.65 -3.21315 1.62569 0
M  V30 13835 C 1248.51 -3.19327 3.16781 0
M  V30 13836 C 1249.83 -4.19337 1.33583 0
M  V30 13837 H 1246.94 -0.645575 0.35553 0
M  V30 13838 H 1249.59 -1.22023 1.45638 0
M  V30 13839 H 1247.74 -3.68974 1.21617 0
M  V30 13840 H 1249.41 -2.79687 3.66842 0
M  V30 13841 H 1247.65 -2.57461 3.49137 0
M  V30 13842 H 1248.32 -4.20626 3.5746 0
M  V30 13843 H 1250.8 -3.80208 1.69059 0
M  V30 13844 H 1249.67 -5.17953 1.81702 0
M  V30 13845 H 1249.94 -4.41346 0.258016 0
M  V30 13846 N 1248.99 -0.981699 -1.2329 0
M  V30 13847 C 1250.24 -0.650015 -1.91361 0
M  V30 13848 C 1250.56 0.819184 -1.76959 0
M  V30 13849 O 1249.83 1.5861 -1.14977 0
M  V30 13850 H 1248.41 -0.237427 -0.708264 0
M  V30 13851 H 1251.08 -1.24579 -1.49887 0
M  V30 13852 H 1250.17 -0.902772 -2.98758 0
M  V30 13853 N 1250.47 1.3842 -0.753509 0
M  V30 13854 C 1251.4 2.33073 -0.141198 0
M  V30 13855 C 1252.38 1.54863 0.70367 0
M  V30 13856 O 1253.57 1.8318 0.644872 0
M  V30 13857 C 1250.7 3.39043 0.752802 0
M  V30 13858 C 1249.65 4.27999 0.0106692 0
M  V30 13859 C 1248.98 5.24824 1.02291 0
M  V30 13860 C 1250.28 5.09308 -1.15768 0
M  V30 13861 H 1251.97 2.84528 -0.93188 0
M  V30 13862 H 1249.52 1.36802 -0.449567 0
M  V30 13863 H 1251.47 4.04224 1.19083 0
M  V30 13864 H 1250.2 2.8607 1.57581 0
M  V30 13865 H 1248.85 3.64323 -0.407939 0
M  V30 13866 H 1248.5 4.68139 1.83998 0
M  V30 13867 H 1248.2 5.85196 0.53101 0
M  V30 13868 H 1249.73 5.92882 1.46026 0
M  V30 13869 H 1251.14 5.6773 -0.797203 0
M  V30 13870 H 1249.54 5.78914 -1.58044 0
M  V30 13871 H 1250.61 4.43051 -1.97062 0
M  V30 13872 N 1251.95 0.502579 1.49372 0
M  V30 13873 C 1253.2 -0.0432341 2.01654 0
M  V30 13874 C 1253.51 -1.379 1.38719 0
M  V30 13875 O 1254.72 -2.01159 1.82338 0
M  V30 13876 C 1253.17 -0.127509 3.59674 0
M  V30 13877 C 1252.78 1.20171 4.31582 0
M  V30 13878 C 1254.53 -0.623603 4.19895 0
M  V30 13879 C 1252.43 1.07951 5.81464 0
M  V30 13880 H 1251.36 -0.0199308 0.753737 0
M  V30 13881 H 1254.01 0.642237 1.71894 0
M  V30 13882 H 1252.4 -0.877465 3.86156 0
M  V30 13883 H 1253.57 1.96508 4.16799 0
M  V30 13884 H 1251.89 1.63136 3.83113 0
M  V30 13885 H 1254.48 -0.732562 5.29658 0
M  V30 13886 H 1254.83 -1.62282 3.83367 0
M  V30 13887 H 1255.36 0.0698641 3.97739 0
M  V30 13888 H 1252.1 2.05304 6.22519 0
M  V30 13889 H 1251.62 0.357051 5.98736 0
M  V30 13890 H 1253.3 0.758885 6.42534 0
M  V30 13891 N 1253.43 -1.55816 0.23648 0
M  V30 13892 C 1254.34 -2.24576 -0.678439 0
M  V30 13893 C 1255.35 -1.25836 -1.20172 0
M  V30 13894 O 1256.53 -1.58686 -1.24019 0
M  V30 13895 C 1253.6 -2.92376 -1.86325 0
M  V30 13896 C 1252.66 -4.06499 -1.38047 0
M  V30 13897 C 1251.89 -4.71057 -2.50881 0
M  V30 13898 O 1252.11 -4.34652 -3.69369 0
M  V30 13899 O 1251.05 -5.59768 -2.21232 0
M  V30 13900 H 1254.87 -3.03452 -0.122601 0
M  V30 13901 H 1252.46 -1.49399 0.00540803 0
M  V30 13902 H 1254.34 -3.35117 -2.55488 0
M  V30 13903 H 1253.01 -2.16448 -2.40691 0
M  V30 13904 H 1251.92 -3.68296 -0.656422 0
M  V30 13905 H 1253.25 -4.84214 -0.883024 0
M  V30 13906 N 1254.91 0.036755 -1.57557 0
M  V30 13907 C 1256.15 0.730186 -1.89199 0
M  V30 13908 C 1256.49 1.75414 -0.833271 0
M  V30 13909 O 1255.76 1.93901 0.152579 0
M  V30 13910 C 1256.04 1.40669 -3.31488 0
M  V30 13911 C 1255.9 0.396764 -4.48047 0
M  V30 13912 C 1257.22 2.34268 -3.72567 0
M  V30 13913 H 1254.33 0.263983 -0.6881 0
M  V30 13914 H 1256.98 -0.0069847 -1.89999 0
M  V30 13915 H 1255.13 2.03502 -3.30937 0
M  V30 13916 H 1256.8 -0.229062 -4.60731 0
M  V30 13917 H 1255.04 -0.284698 -4.32865 0
M  V30 13918 H 1255.71 0.908436 -5.44474 0
M  V30 13919 H 1258.19 1.81485 -3.74436 0
M  V30 13920 H 1257.06 2.78587 -4.72949 0
M  V30 13921 H 1257.33 3.20611 -3.04403 0
M  V30 13922 N 1256.39 1.54543 0.308881 0
M  V30 13923 C 1257.63 1.73706 1.04661 0
M  V30 13924 C 1257.96 0.517111 1.87189 0
M  V30 13925 O 1257.24 -0.485856 1.88334 0
M  V30 13926 C 1257.52 3.02141 1.95916 0
M  V30 13927 C 1257.38 4.34419 1.1662 0
M  V30 13928 C 1258.69 3.26401 2.95213 0
M  V30 13929 H 1255.81 0.63203 0.379087 0
M  V30 13930 H 1258.46 1.87253 0.321947 0
M  V30 13931 H 1256.61 2.90723 2.57706 0
M  V30 13932 H 1258.28 4.57743 0.571772 0
M  V30 13933 H 1256.52 4.3126 0.468747 0
M  V30 13934 H 1257.19 5.20535 1.83704 0
M  V30 13935 H 1259.67 3.37377 2.43549 0
M  V30 13936 H 1258.54 4.17597 3.56235 0
M  V30 13937 H 1258.8 2.44322 3.68455 0
M  V30 13938 N 1257.86 -0.571685 1.46866 0
M  V30 13939 C 1259.28 -0.896172 1.32064 0
M  V30 13940 C 1259.48 -1.9925 0.300291 0
M  V30 13941 O 1258.54 -2.50791 -0.293284 0
M  V30 13942 C 1259.85 -1.3031 2.70998 0
M  V30 13943 C 1261.4 -1.41533 2.79173 0
M  V30 13944 C 1261.87 -1.85587 4.18714 0
M  V30 13945 N 1263.36 -1.92762 4.21185 0
M  V30 13946 C 1264.1 -2.28148 5.26057 0
M  V30 13947 N 1263.59 -2.62248 6.41247 0
M  V30 13948 N 1265.39 -2.28797 5.13428 0
M  V30 13949 H 1257.54 0.152349 2.11853 0
M  V30 13950 H 1259.8 0.00548777 0.947984 0
M  V30 13951 H 1259.51 -0.571469 3.47026 0
M  V30 13952 H 1259.38 -2.26233 3.01826 0
M  V30 13953 H 1261.77 -2.1378 2.03426 0
M  V30 13954 H 1261.85 -0.438342 2.52016 0
M  V30 13955 H 1261.49 -1.13915 4.9496 0
M  V30 13956 H 1261.42 -2.84264 4.43285 0
M  V30 13957 H 1263.91 -1.68854 3.38078 0
M  V30 13958 H 1264.23 -2.88234 7.17036 0
M  V30 13959 H 1262.57 -2.59861 6.44591 0
M  V30 13960 H 1265.76 -2.01587 4.22469 0
M  V30 13961 H 1265.94 -2.56045 5.95269 0
M  V30 13962 N 1259.34 -1.34755 -0.817236 0
M  V30 13963 C 1260.29 -1.26816 -1.94988 0
M  V30 13964 C 1261.28 -0.165142 -1.68593 0
M  V30 13965 O 1262.49 -0.330469 -1.7694 0
M  V30 13966 H 1258.86 -0.394113 -0.640452 0
M  V30 13967 H 1260.84 -2.22528 -1.98806 0
M  V30 13968 C 1259.58 -1.04625 -3.31586 0
M  V30 13969 H 1258.91 -1.88735 -3.52447 0
M  V30 13970 H 1260.35 -1.03108 -4.11272 0
M  V30 13971 C 1258.81 0.250283 -3.35969 0
M  V30 13972 O 1259.34 1.24972 -3.81765 0
M  V30 13973 N 1257.54 0.285369 -2.89195 0
M  V30 13974 H 1257.09 -0.528528 -2.5212 0
M  V30 13975 H 1257.05 1.15261 -2.9251 0
M  V30 13976 N 1260.82 1.03812 -1.18578 0
M  V30 13977 C 1262.04 1.8124 -1.00831 0
M  V30 13978 C 1262.47 1.82917 0.43853 0
M  V30 13979 O 1261.83 1.24835 1.31476 0
M  V30 13980 C 1261.88 3.24592 -1.57075 0
M  V30 13981 O 1260.98 4.04688 -0.793824 0
M  V30 13982 H 1260.32 0.559846 -0.357028 0
M  V30 13983 H 1262.85 1.30724 -1.57393 0
M  V30 13984 H 1262.86 3.75363 -1.59896 0
M  V30 13985 H 1261.54 3.22686 -2.62387 0
M  V30 13986 H 1260.11 3.63359 -0.838134 0
M  V30 13987 N 1262.3 0.988223 1.22768 0
M  V30 13988 C 1263.25 0.505913 2.22316 0
M  V30 13989 C 1264.23 -0.423346 1.55231 0
M  V30 13990 O 1265.42 -0.250927 1.75212 0
M  V30 13991 C 1262.55 -0.182707 3.42813 0
M  V30 13992 C 1261.64 0.766582 4.17114 0
M  V30 13993 N 1262.03 1.91248 4.6825 0
M  V30 13994 C 1260.33 0.581503 4.42193 0
M  V30 13995 C 1261.03 2.50793 5.2486 0
M  V30 13996 N 1260 1.79106 5.13247 0
M  V30 13997 H 1263.81 1.37994 2.5949 0
M  V30 13998 H 1261.32 0.849888 1.38386 0
M  V30 13999 H 1263.32 -0.545595 4.13315 0
M  V30 14000 H 1261.98 -1.05292 3.07154 0
M  V30 14001 H 1262.99 2.29342 4.64352 0
M  V30 14002 H 1259.67 -0.243039 4.16792 0
M  V30 14003 H 1261.06 3.47609 5.74994 0
M  V30 14004 N 1263.78 -1.38018 0.760839 0
M  V30 14005 C 1265 -2.04231 0.331285 0
M  V30 14006 C 1265.42 -1.57385 -1.04285 0
M  V30 14007 O 1264.78 -0.750168 -1.66369 0
M  V30 14008 C 1264.83 -3.59772 0.353021 0
M  V30 14009 O 1264.55 -4.049 1.67294 0
M  V30 14010 C 1266.05 -4.4321 -0.0894942 0
M  V30 14011 H 1263.27 -0.656145 0.140408 0
M  V30 14012 H 1265.81 -1.76567 1.03172 0
M  V30 14013 H 1263.97 -3.86246 -0.298735 0
M  V30 14014 H 1264.38 -4.99369 1.60408 0
M  V30 14015 H 1265.86 -5.51995 -0.0231262 0
M  V30 14016 H 1266.33 -4.2419 -1.13839 0
M  V30 14017 H 1266.94 -4.21939 0.533661 0
M  V30 14018 N 1265.25 -0.510493 -1.49103 0
M  V30 14019 C 1266.5 0.0325393 -2.01674 0
M  V30 14020 C 1266.82 1.37162 -1.39448 0
M  V30 14021 O 1268.02 2.00189 -1.83402 0
M  V30 14022 C 1266.48 0.108433 -3.59737 0
M  V30 14023 C 1266.09 -1.22458 -4.30939 0
M  V30 14024 C 1267.83 0.601326 -4.20219 0
M  V30 14025 C 1265.74 -1.11033 -5.80884 0
M  V30 14026 H 1264.67 0.0159333 -0.753832 0
M  V30 14027 H 1267.32 -0.651344 -1.71551 0
M  V30 14028 H 1265.7 0.856974 -3.86616 0
M  V30 14029 H 1266.87 -1.98715 -4.15751 0
M  V30 14030 H 1265.19 -1.65166 -3.82242 0
M  V30 14031 H 1267.79 0.704462 -5.30039 0
M  V30 14032 H 1268.13 1.60247 -3.84222 0
M  V30 14033 H 1268.66 -0.0909561 -3.97696 0
M  V30 14034 H 1265.4 -2.08603 -6.21422 0
M  V30 14035 H 1264.92 -0.388798 -5.98539 0
M  V30 14036 H 1266.6 -0.792949 -6.42123 0
M  V30 14037 N 1266.73 1.55688 -0.24474 0
M  V30 14038 C 1267.66 2.17317 0.696311 0
M  V30 14039 C 1268.64 1.12456 1.17441 0
M  V30 14040 O 1269.83 1.40832 1.25294 0
M  V30 14041 C 1266.95 2.77211 1.94606 0
M  V30 14042 C 1266 3.95107 1.60602 0
M  V30 14043 S 1266.83 5.30765 0.710525 0
M  V30 14044 C 1267.99 5.94111 1.96933 0
M  V30 14045 H 1268.22 2.96799 0.172566 0
M  V30 14046 H 1265.75 1.54372 -0.0292155 0
M  V30 14047 H 1267.71 3.12355 2.66354 0
M  V30 14048 H 1266.37 1.9768 2.44093 0
M  V30 14049 H 1265.57 4.35598 2.53517 0
M  V30 14050 H 1265.17 3.61229 0.968986 0
M  V30 14051 H 1267.46 6.11496 2.91682 0
M  V30 14052 H 1268.4 6.89602 1.60794 0
M  V30 14053 H 1268.81 5.23161 2.12043 0
M  V30 14054 N 1268.21 -0.0283989 1.57574 0
M  V30 14055 C 1269.14 -1.05641 2.03403 0
M  V30 14056 C 1270.15 -1.32426 0.946953 0
M  V30 14057 O 1271.34 -1.29902 1.22425 0
M  V30 14058 C 1268.44 -2.39788 2.39489 0
M  V30 14059 C 1267.62 -2.32348 3.70585 0
M  V30 14060 C 1266.68 -3.4895 3.93853 0
M  V30 14061 O 1265.7 -3.28414 4.64901 0
M  V30 14062 N 1266.9 -4.7084 3.39543 0
M  V30 14063 H 1269.67 -0.665788 2.92211 0
M  V30 14064 H 1267.23 -0.21633 1.60448 0
M  V30 14065 H 1269.22 -3.16514 2.52193 0
M  V30 14066 H 1267.79 -2.70692 1.56348 0
M  V30 14067 H 1267.01 -1.40717 3.68229 0
M  V30 14068 H 1268.3 -2.24521 4.56582 0
M  V30 14069 H 1267.7 -4.90425 2.81956 0
M  V30 14070 H 1266.25 -5.44929 3.57625 0
M  V30 14071 N 1269.69 -1.54705 -0.300681 0
M  V30 14072 C 1270.94 -1.73211 -1.03349 0
M  V30 14073 C 1271.25 -0.52518 -1.88418 0
M  V30 14074 O 1272.46 -0.592049 -2.64966 0
M  V30 14075 C 1270.91 -3.06453 -1.88717 0
M  V30 14076 C 1270.52 -4.34625 -1.0865 0
M  V30 14077 C 1272.26 -3.34317 -2.61595 0
M  V30 14078 C 1270.17 -5.58919 -1.93297 0
M  V30 14079 H 1269.1 -0.64556 -0.389574 0
M  V30 14080 H 1271.75 -1.81186 -0.290472 0
M  V30 14081 H 1270.13 -2.92443 -2.67008 0
M  V30 14082 H 1271.31 -4.59471 -0.349707 0
M  V30 14083 H 1269.62 -4.13699 -0.473521 0
M  V30 14084 H 1272.22 -4.2438 -3.25278 0
M  V30 14085 H 1272.56 -2.53207 -3.30442 0
M  V30 14086 H 1273.1 -3.493 -1.90354 0
M  V30 14087 H 1269.83 -6.42697 -1.2892 0
M  V30 14088 H 1269.35 -5.38258 -2.64647 0
M  V30 14089 H 1271.03 -5.96187 -2.51336 0
M  V30 14090 N 1271.17 0.563888 -1.47167 0
M  V30 14091 C 1272.1 1.68655 -1.55204 0
M  V30 14092 C 1273.11 1.56776 -0.438769 0
M  V30 14093 O 1274.3 1.63856 -0.708059 0
M  V30 14094 C 1271.4 3.07068 -1.43396 0
M  V30 14095 C 1270.57 3.44767 -2.69174 0
M  V30 14096 C 1269.63 4.62316 -2.51298 0
M  V30 14097 O 1268.66 4.67231 -3.2509 0
M  V30 14098 N 1269.86 5.58389 -1.58688 0
M  V30 14099 H 1272.63 1.62209 -2.52009 0
M  V30 14100 H 1270.19 0.750359 -1.43462 0
M  V30 14101 H 1272.18 3.83529 -1.29181 0
M  V30 14102 H 1270.75 3.07777 -0.546997 0
M  V30 14103 H 1269.97 2.57821 -2.98198 0
M  V30 14104 H 1271.26 3.66726 -3.52689 0
M  V30 14105 H 1270.65 5.57169 -0.978737 0
M  V30 14106 H 1269.21 6.34204 -1.50428 0
M  V30 14107 N 1272.64 1.35187 0.810078 0
M  V30 14108 C 1273.88 1.29626 1.58039 0
M  V30 14109 C 1274.25 -0.12865 1.91569 0
M  V30 14110 O 1275.45 -0.308587 2.67023 0
M  V30 14111 C 1273.72 2.17414 2.83665 0
M  V30 14112 S 1275.28 2.29334 3.741 0
M  V30 14113 H 1272.1 0.460722 0.541531 0
M  V30 14114 H 1274.7 1.7054 0.955839 0
M  V30 14115 H 1273.4 3.19927 2.57051 0
M  V30 14116 H 1272.93 1.77444 3.51108 0
M  V30 14117 H 1274.95 1.47559 4.73752 0
M  V30 14118 N 1274.12 -1.03182 1.19127 0
M  V30 14119 C 1275.07 -2.11394 0.926339 0
M  V30 14120 C 1276.04 -1.65528 -0.137703 0
M  V30 14121 O 1277.22 -1.908 0.00381804 0
M  V30 14122 C 1274.36 -3.41913 0.467894 0
M  V30 14123 C 1273.48 -4.01343 1.59837 0
M  V30 14124 C 1272.61 -5.1986 1.09175 0
M  V30 14125 C 1271.65 -5.71339 2.19632 0
M  V30 14126 N 1270.79 -6.81133 1.703 0
M  V30 14127 H 1275.63 -2.33393 1.85288 0
M  V30 14128 H 1273.17 -1.14473 0.923811 0
M  V30 14129 H 1275.12 -4.16796 0.183513 0
M  V30 14130 H 1273.75 -3.20034 -0.421656 0
M  V30 14131 H 1272.81 -3.23702 1.99803 0
M  V30 14132 H 1274.12 -4.35568 2.43068 0
M  V30 14133 H 1273.27 -6.0189 0.762427 0
M  V30 14134 H 1272.01 -4.87161 0.22914 0
M  V30 14135 H 1271.02 -4.87923 2.53399 0
M  V30 14136 H 1272.24 -6.06078 3.06344 0
M  V30 14137 H 1270.19 -6.50293 0.863415 0
M  V30 14138 H 1270.1 -7.1447 2.47122 0
M  V30 14139 H 1271.37 -7.66766 1.40321 0
M  V30 14140 N 1275.6 -0.99472 -1.22242 0
M  V30 14141 C 1276.85 -0.670275 -1.90661 0
M  V30 14142 C 1277.17 0.800369 -1.77818 0
M  V30 14143 O 1276.44 1.57381 -1.16653 0
M  V30 14144 H 1275.02 -0.244925 -0.705706 0
M  V30 14145 H 1277.68 -1.26162 -1.48557 0
M  V30 14146 H 1276.78 -0.934408 -2.97784 0
M  V30 14147 N 1277.08 1.37613 -0.768148 0
M  V30 14148 C 1278.33 1.99384 -0.330187 0
M  V30 14149 C 1278.65 1.61283 1.09604 0
M  V30 14150 O 1277.92 0.876551 1.75195 0
M  V30 14151 H 1276.5 0.737445 -0.119095 0
M  V30 14152 H 1279.16 1.6815 -0.985476 0
M  V30 14153 H 1278.26 3.09462 -0.40494 0
M  V30 14154 N 1278.56 0.518393 1.4883 0
M  V30 14155 C 1279.49 -0.239685 2.32267 0
M  V30 14156 C 1280.47 -0.94613 1.41359 0
M  V30 14157 O 1281.65 -0.934162 1.70256 0
M  V30 14158 C 1278.78 -1.29411 3.22289 0
M  V30 14159 C 1277.74 -0.706504 4.22129 0
M  V30 14160 C 1277.06 -1.86273 5.01205 0
M  V30 14161 C 1278.36 0.314079 5.21355 0
M  V30 14162 H 1280.06 0.4568 2.95895 0
M  V30 14163 H 1277.6 0.221126 1.42292 0
M  V30 14164 H 1279.56 -1.8323 3.7948 0
M  V30 14165 H 1278.28 -2.02001 2.56638 0
M  V30 14166 H 1276.94 -0.189924 3.66108 0
M  V30 14167 H 1276.59 -2.57674 4.31988 0
M  V30 14168 H 1276.29 -1.47554 5.68772 0
M  V30 14169 H 1277.81 -2.40492 5.61245 0
M  V30 14170 H 1279.22 -0.136604 5.73137 0
M  V30 14171 H 1277.62 0.618026 5.96909 0
M  V30 14172 H 1278.69 1.22394 4.69199 0
M  V30 14173 N 1280.03 -1.55556 0.252993 0
M  V30 14174 C 1280.98 -2.21634 -0.643979 0
M  V30 14175 C 1281.95 -1.18226 -1.1667 0
M  V30 14176 O 1283.14 -1.46694 -1.22006 0
M  V30 14177 C 1280.28 -2.92429 -1.83246 0
M  V30 14178 C 1279.39 -4.10506 -1.34569 0
M  V30 14179 C 1278.52 -4.69001 -2.49421 0
M  V30 14180 C 1277.56 -5.79315 -1.97636 0
M  V30 14181 N 1276.7 -6.31967 -3.05878 0
M  V30 14182 H 1281.54 -2.97909 -0.0738178 0
M  V30 14183 H 1279.08 -1.47079 -0.0246728 0
M  V30 14184 H 1281.04 -3.31678 -2.53072 0
M  V30 14185 H 1279.67 -2.18617 -2.375 0
M  V30 14186 H 1278.72 -3.76529 -0.541268 0
M  V30 14187 H 1280.03 -4.90125 -0.92622 0
M  V30 14188 H 1279.18 -5.10855 -3.27279 0
M  V30 14189 H 1277.92 -3.88612 -2.94673 0
M  V30 14190 H 1276.93 -5.36933 -1.18251 0
M  V30 14191 H 1278.15 -6.6156 -1.53347 0
M  V30 14192 H 1276.1 -5.5448 -3.50553 0
M  V30 14193 H 1276.02 -7.06797 -2.68281 0
M  V30 14194 H 1277.28 -6.7848 -3.83777 0
M  V30 14195 N 1281.51 0.0200419 -1.57587 0
M  V30 14196 C 1282.76 0.707627 -1.89307 0
M  V30 14197 C 1283.08 1.7541 -0.851831 0
M  V30 14198 O 1282.35 1.95571 0.113404 0
M  V30 14199 H 1280.93 0.264349 -0.698662 0
M  V30 14200 H 1283.59 -0.0161428 -1.94893 0
M  V30 14201 H 1282.69 1.19152 -2.8846 0
M  V30 14202 N 1282.99 1.54862 0.292472 0
M  V30 14203 C 1283.95 1.8565 1.34413 0
M  V30 14204 C 1284.95 0.729868 1.43281 0
M  V30 14205 O 1286.14 0.998128 1.42769 0
M  V30 14206 C 1283.28 2.0444 2.72795 0
M  V30 14207 H 1284.47 2.79642 1.08354 0
M  V30 14208 H 1282.02 1.47055 0.529574 0
M  V30 14209 H 1282.76 1.12765 3.04063 0
M  V30 14210 H 1282.54 2.86451 2.67747 0
M  V30 14211 H 1284.03 2.296 3.48817 0
M  V30 14212 N 1284.47 -0.556076 1.47464 0
M  V30 14213 C 1285.4 -1.67275 1.62915 0
M  V30 14214 C 1286.38 -1.63229 0.478562 0
M  V30 14215 O 1287.56 -1.80833 0.708032 0
M  V30 14216 C 1284.69 -3.05911 1.64426 0
M  V30 14217 C 1283.65 -3.24804 2.78722 0
M  V30 14218 C 1282.97 -4.64238 2.65307 0
M  V30 14219 C 1284.27 -3.10071 4.20302 0
M  V30 14220 H 1285.97 -1.54601 2.56396 0
M  V30 14221 H 1283.51 -0.742337 1.23391 0
M  V30 14222 H 1285.47 -3.83878 1.73826 0
M  V30 14223 H 1284.19 -3.19547 0.675053 0
M  V30 14224 H 1282.85 -2.49246 2.68835 0
M  V30 14225 H 1282.5 -4.74675 1.66412 0
M  V30 14226 H 1282.2 -4.77828 3.41986 0
M  V30 14227 H 1283.72 -5.44339 2.76637 0
M  V30 14228 H 1285.14 -3.77855 4.3116 0
M  V30 14229 H 1283.53 -3.3517 4.97776 0
M  V30 14230 H 1284.6 -2.06803 4.38589 0
M  V30 14231 N 1285.95 -1.35615 -0.802897 0
M  V30 14232 C 1286.88 -1.24695 -1.92312 0
M  V30 14233 C 1287.89 -0.169409 -1.61916 0
M  V30 14234 O 1289.08 -0.422995 -1.73416 0
M  V30 14235 C 1286.18 -0.898229 -3.2678 0
M  V30 14236 C 1285.35 -2.07489 -3.85054 0
M  V30 14237 C 1284.41 -1.70137 -4.97936 0
M  V30 14238 O 1283.44 -2.42057 -5.15167 0
M  V30 14239 N 1284.64 -0.627153 -5.77102 0
M  V30 14240 H 1287.41 -2.21208 -2.02205 0
M  V30 14241 H 1284.97 -1.28832 -0.980503 0
M  V30 14242 H 1286.96 -0.629766 -3.9977 0
M  V30 14243 H 1285.53 -0.0226571 -3.12592 0
M  V30 14244 H 1284.75 -2.50694 -3.04214 0
M  V30 14245 H 1286.04 -2.86133 -4.2072 0
M  V30 14246 H 1285.44 -0.0296879 -5.65692 0
M  V30 14247 H 1283.99 -0.41848 -6.50455 0
M  V30 14248 N 1287.43 1.02549 -1.19673 0
M  V30 14249 C 1288.67 1.76004 -1.00144 0
M  V30 14250 C 1289 1.888 0.467423 0
M  V30 14251 O 1288.26 1.404 1.36331 0
M  V30 14252 C 1288.55 3.18597 -1.61959 0
M  V30 14253 C 1288.22 3.258 -3.11713 0
M  V30 14254 C 1286.88 3.27473 -3.52583 0
M  V30 14255 C 1289.23 3.24675 -4.0772 0
M  V30 14256 C 1286.56 3.25681 -4.88005 0
M  V30 14257 C 1288.91 3.24424 -5.43076 0
M  V30 14258 C 1287.58 3.24396 -5.83372 0
M  V30 14259 H 1286.85 0.644044 -0.366453 0
M  V30 14260 H 1289.5 1.20338 -1.48966 0
M  V30 14261 H 1287.8 3.77364 -1.05375 0
M  V30 14262 H 1289.5 3.74109 -1.44374 0
M  V30 14263 H 1286.09 3.25228 -2.7915 0
M  V30 14264 H 1290.27 3.2256 -3.77185 0
M  V30 14265 H 1285.53 3.23986 -5.18501 0
M  V30 14266 H 1289.7 3.22504 -6.17223 0
M  V30 14267 H 1287.33 3.22762 -6.8828 0
M  V30 14268 N 1288.9 1.00119 1.21713 0
M  V30 14269 C 1289.85 0.551452 2.25969 0
M  V30 14270 C 1290.85 -0.402075 1.64559 0
M  V30 14271 O 1292.05 -0.273685 1.77907 0
M  V30 14272 H 1288.43 0.159968 0.734789 0
M  V30 14273 H 1290.4 1.44201 2.61244 0
M  V30 14274 C 1289.15 -0.109992 3.47526 0
M  V30 14275 H 1288.47 0.614686 3.95046 0
M  V30 14276 H 1289.91 -0.388007 4.22221 0
M  V30 14277 C 1288.37 -1.34798 3.08757 0
M  V30 14278 O 1288.9 -2.44266 3.189 0
M  V30 14279 N 1287.1 -1.2263 2.63458 0
M  V30 14280 H 1286.65 -0.335571 2.55405 0
M  V30 14281 H 1286.61 -2.05565 2.37887 0
M  V30 14282 N 1290.38 -1.37203 0.775435 0
M  V30 14283 C 1291.61 -2.04396 0.351737 0
M  V30 14284 C 1292.03 -1.58099 -1.01913 0
M  V30 14285 O 1291.39 -0.742932 -1.65379 0
M  V30 14286 C 1291.44 -3.58283 0.408105 0
M  V30 14287 O 1290.54 -4.08156 -0.590104 0
M  V30 14288 H 1289.88 -0.646451 0.151647 0
M  V30 14289 H 1292.41 -1.75443 1.05265 0
M  V30 14290 H 1292.42 -4.07127 0.266711 0
M  V30 14291 H 1291.1 -3.91335 1.40819 0
M  V30 14292 H 1289.67 -3.70622 -0.411524 0
M  V30 14293 N 1291.86 -0.526279 -1.48553 0
M  V30 14294 C 1292.81 0.258285 -2.26532 0
M  V30 14295 C 1293.79 0.913187 -1.32475 0
M  V30 14296 O 1294.99 0.816606 -1.57037 0
M  V30 14297 C 1292.11 1.30686 -3.17452 0
M  V30 14298 C 1291.2 0.656933 -4.18981 0
M  V30 14299 N 1291.59 -0.255186 -5.05156 0
M  V30 14300 C 1289.89 0.914575 -4.36522 0
M  V30 14301 C 1290.59 -0.629753 -5.78281 0
M  V30 14302 N 1289.57 0.00829904 -5.43599 0
M  V30 14303 H 1293.37 -0.44348 -2.90535 0
M  V30 14304 H 1290.88 -0.344054 -1.58714 0
M  V30 14305 H 1292.88 1.8826 -3.71973 0
M  V30 14306 H 1291.54 2.01004 -2.55005 0
M  V30 14307 H 1292.55 -0.627564 -5.14084 0
M  V30 14308 H 1289.23 1.6086 -3.85266 0
M  V30 14309 H 1290.62 -1.37746 -6.57629 0
M  V30 14310 N 1293.34 1.5542 -0.261239 0
M  V30 14311 C 1294.57 2.03687 0.363225 0
M  V30 14312 C 1294.98 1.14007 1.50492 0
M  V30 14313 O 1294.34 0.157349 1.8182 0
M  V30 14314 C 1294.39 3.51184 0.857435 0
M  V30 14315 O 1294.11 4.37449 -0.238776 0
M  V30 14316 C 1295.61 4.15277 1.55113 0
M  V30 14317 H 1292.83 0.665641 0.0846356 0
M  V30 14318 H 1295.37 2.00761 -0.389288 0
M  V30 14319 H 1293.53 3.54599 1.56008 0
M  V30 14320 H 1293.94 5.24316 0.138821 0
M  V30 14321 H 1295.42 5.20129 1.8485 0
M  V30 14322 H 1295.89 3.62619 2.47799 0
M  V30 14323 H 1296.5 4.15826 0.892695 0
M  V30 14324 N 1294.82 -0.0116844 1.57596 0
M  V30 14325 C 1295.75 -1.00599 2.10718 0
M  V30 14326 C 1296.73 -1.36601 1.01362 0
M  V30 14327 O 1297.91 -1.4518 1.28982 0
M  V30 14328 C 1295.04 -2.30155 2.60089 0
M  V30 14329 C 1294 -2.08347 3.73866 0
M  V30 14330 C 1293.32 -3.43814 4.09507 0
M  V30 14331 C 1294.62 -1.45552 5.01609 0
M  V30 14332 H 1296.32 -0.563721 2.94045 0
M  V30 14333 H 1293.86 -0.269714 1.41452 0
M  V30 14334 H 1295.81 -3.00058 2.95877 0
M  V30 14335 H 1294.54 -2.76473 1.73868 0
M  V30 14336 H 1293.2 -1.40872 3.38453 0
M  V30 14337 H 1292.85 -3.87814 3.20326 0
M  V30 14338 H 1292.55 -3.30043 4.86154 0
M  V30 14339 H 1294.07 -4.15052 4.47844 0
M  V30 14340 H 1295.48 -2.05396 5.35243 0
M  V30 14341 H 1293.88 -1.42304 5.82983 0
M  V30 14342 H 1294.95 -0.423331 4.83049 0
M  V30 14343 N 1296.29 -1.55015 -0.284256 0
M  V30 14344 C 1297.24 -1.83508 -1.3531 0
M  V30 14345 C 1298.23 -0.693244 -1.452 0
M  V30 14346 O 1299.42 -0.954312 -1.4907 0
M  V30 14347 C 1296.55 -2.10059 -2.71533 0
M  V30 14348 C 1295.63 -3.30472 -2.65799 0
M  V30 14349 N 1296.03 -4.50644 -2.29682 0
M  V30 14350 C 1294.32 -3.32836 -2.96878 0
M  V30 14351 C 1295.02 -5.32708 -2.33661 0
M  V30 14352 N 1294 -4.70837 -2.71687 0
M  V30 14353 H 1297.8 -2.73973 -1.06377 0
M  V30 14354 H 1295.32 -1.5474 -0.492875 0
M  V30 14355 H 1297.31 -2.28624 -3.48621 0
M  V30 14356 H 1295.97 -1.20872 -3.01364 0
M  V30 14357 H 1296.98 -4.76945 -2.0185 0
M  V30 14358 H 1293.66 -2.53807 -3.31494 0
M  V30 14359 H 1295.05 -6.38766 -2.08394 0
M  V30 14360 N 1297.77 0.548248 -1.47757 0
M  V30 14361 C 1298.7 1.66999 -1.56984 0
M  V30 14362 C 1299.72 1.56302 -0.455372 0
M  V30 14363 O 1300.91 1.63096 -0.725399 0
M  V30 14364 C 1298.01 3.0553 -1.46645 0
M  V30 14365 C 1297.18 3.41892 -2.72816 0
M  V30 14366 C 1296.24 4.59624 -2.56187 0
M  V30 14367 O 1295.26 4.63757 -3.30028 0
M  V30 14368 N 1296.47 5.56675 -1.64601 0
M  V30 14369 H 1299.23 1.59527 -2.53715 0
M  V30 14370 H 1296.79 0.735101 -1.44249 0
M  V30 14371 H 1298.78 3.82137 -1.33242 0
M  V30 14372 H 1297.35 3.0718 -0.57961 0
M  V30 14373 H 1296.57 2.54644 -3.00916 0
M  V30 14374 H 1297.86 3.62965 -3.56559 0
M  V30 14375 H 1297.26 5.561 -1.03778 0
M  V30 14376 H 1295.82 6.32573 -1.57146 0
M  V30 14377 N 1299.25 1.36039 0.795694 0
M  V30 14378 C 1300.5 1.3112 1.55497 0
M  V30 14379 C 1300.85 -0.110471 1.92083 0
M  V30 14380 O 1300.14 -1.06352 1.59373 0
M  V30 14381 C 1300.34 2.16166 2.84617 0
M  V30 14382 C 1300.17 3.66459 2.60649 0
M  V30 14383 C 1298.94 4.35658 2.55989 0
M  V30 14384 C 1301.13 4.59866 2.30277 0
M  V30 14385 N 1299.12 5.71632 2.23852 0
M  V30 14386 C 1300.49 5.84042 2.08074 0
M  V30 14387 C 1302.54 4.48496 2.16231 0
M  V30 14388 C 1301.25 6.98125 1.73246 0
M  V30 14389 C 1303.27 5.62439 1.82801 0
M  V30 14390 C 1302.63 6.8565 1.61441 0
M  V30 14391 H 1298.73 0.53507 0.570284 0
M  V30 14392 H 1301.32 1.71029 0.930441 0
M  V30 14393 H 1299.49 1.78511 3.44947 0
M  V30 14394 H 1301.22 2.02684 3.50288 0
M  V30 14395 H 1297.97 3.8839 2.71017 0
M  V30 14396 H 1298.4 6.43428 2.10547 0
M  V30 14397 H 1303.04 3.53831 2.31437 0
M  V30 14398 H 1300.76 7.92746 1.56777 0
M  V30 14399 H 1304.34 5.556 1.72626 0
M  V30 14400 H 1303.22 7.72325 1.35953 0
M  V30 14401 N 1300.73 -1.01913 1.20215 0
M  V30 14402 C 1301.66 -2.12282 0.97256 0
M  V30 14403 C 1302.64 -1.6982 -0.0975709 0
M  V30 14404 O 1303.82 -1.94109 0.0594307 0
M  V30 14405 C 1300.95 -3.43369 0.521085 0
M  V30 14406 C 1299.91 -3.99559 1.53417 0
M  V30 14407 C 1299.23 -5.26383 0.93942 0
M  V30 14408 C 1300.53 -4.33241 2.91718 0
M  V30 14409 H 1302.23 -2.31746 1.89563 0
M  V30 14410 H 1299.77 -1.1137 0.912841 0
M  V30 14411 H 1301.73 -4.19963 0.347713 0
M  V30 14412 H 1300.45 -3.23655 -0.437605 0
M  V30 14413 H 1299.11 -3.25069 1.69486 0
M  V30 14414 H 1298.76 -5.02993 -0.0271236 0
M  V30 14415 H 1298.46 -5.64942 1.616 0
M  V30 14416 H 1299.98 -6.05635 0.777059 0
M  V30 14417 H 1301.4 -5.00734 2.79175 0
M  V30 14418 H 1299.79 -4.82907 3.56259 0
M  V30 14419 H 1300.86 -3.42118 3.43633 0
M  V30 14420 N 1302.21 -1.00763 -1.2118 0
M  V30 14421 C 1303.15 -0.570257 -2.23644 0
M  V30 14422 C 1304.12 0.405039 -1.61086 0
M  V30 14423 O 1305.31 0.306496 -1.88322 0
M  V30 14424 C 1302.45 0.094325 -3.44971 0
M  V30 14425 C 1301.56 -0.924463 -4.21993 0
M  V30 14426 C 1300.7 -0.231869 -5.30694 0
M  V30 14427 C 1299.74 -1.23803 -5.99449 0
M  V30 14428 N 1298.87 -0.572725 -6.9976 0
M  V30 14429 H 1303.71 -1.44869 -2.60417 0
M  V30 14430 H 1301.25 -0.725369 -1.27972 0
M  V30 14431 H 1303.21 0.496689 -4.14233 0
M  V30 14432 H 1301.84 0.936457 -3.08918 0
M  V30 14433 H 1300.89 -1.44505 -3.51884 0
M  V30 14434 H 1302.2 -1.69004 -4.69296 0
M  V30 14435 H 1301.36 0.226465 -6.06277 0
M  V30 14436 H 1300.09 0.566092 -4.84403 0
M  V30 14437 H 1299.1 -1.70684 -5.22635 0
M  V30 14438 H 1300.32 -2.03711 -6.47826 0
M  V30 14439 H 1298.27 0.205531 -6.55678 0
M  V30 14440 H 1298.19 -1.27651 -7.45145 0
M  V30 14441 H 1299.46 -0.137683 -7.79378 0
M  V30 14442 N 1303.68 1.3679 -0.7827 0
M  V30 14443 C 1304.96 1.93639 -0.276278 0
M  V30 14444 C 1305.34 1.7153 1.23048 0
M  V30 14445 O 1304.69 1.07037 2.01879 0
M  V30 14446 C 1304.9 3.42672 -0.661586 0
M  V30 14447 C 1306.25 4.19786 -0.637538 0
M  V30 14448 O 1307.27 3.51082 -0.601645 0
M  V30 14449 O 1306.13 5.42323 -0.674408 0
M  V30 14450 H 1303.22 0.824307 -0.0666832 0
M  V30 14451 H 1305.77 1.46012 -0.864792 0
M  V30 14452 H 1304.54 3.52393 -1.70103 0
M  V30 14453 H 1304.17 3.97573 -0.0465987 0
M  V30 14454 N 1305.16 0.53415 1.48272 0
M  V30 14455 C 1306.11 -0.226335 2.29688 0
M  V30 14456 C 1307.08 -0.929937 1.37628 0
M  V30 14457 O 1308.26 -0.930149 1.66592 0
M  V30 14458 C 1305.4 -1.26472 3.2109 0
M  V30 14459 C 1304.52 -0.569542 4.28229 0
M  V30 14460 C 1303.65 -1.59122 5.06807 0
M  V30 14461 C 1302.69 -0.879734 6.05745 0
M  V30 14462 N 1301.83 -1.84715 6.77366 0
M  V30 14463 H 1306.67 0.474111 2.94204 0
M  V30 14464 H 1304.21 0.245643 1.45034 0
M  V30 14465 H 1306.16 -1.87911 3.72485 0
M  V30 14466 H 1304.79 -1.9335 2.58487 0
M  V30 14467 H 1303.85 0.158872 3.80068 0
M  V30 14468 H 1305.16 -0.0110904 4.98799 0
M  V30 14469 H 1304.31 -2.27977 5.62238 0
M  V30 14470 H 1303.05 -2.18357 4.36086 0
M  V30 14471 H 1302.06 -0.177134 5.49515 0
M  V30 14472 H 1303.28 -0.293439 6.78466 0
M  V30 14473 H 1301.23 -2.42851 6.09393 0
M  V30 14474 H 1301.14 -1.34025 7.44025 0
M  V30 14475 H 1302.41 -2.52756 7.37384 0
M  V30 14476 N 1306.64 -1.55279 0.269478 0
M  V30 14477 C 1307.59 -2.23723 -0.636468 0
M  V30 14478 C 1308.58 -1.23234 -1.16232 0
M  V30 14479 O 1309.79 -1.41181 -1.1166 0
M  V30 14480 H 1306.16 -0.71793 -0.223788 0
M  V30 14481 H 1308.13 -2.98378 -0.0363057 0
M  V30 14482 C 1306.88 -2.96755 -1.81195 0
M  V30 14483 H 1306.21 -3.73865 -1.4165 0
M  V30 14484 H 1307.65 -3.47975 -2.42258 0
M  V30 14485 C 1306.11 -2.01905 -2.69696 0
M  V30 14486 O 1306.64 -1.56662 -3.69892 0
M  V30 14487 N 1304.84 -1.68524 -2.36744 0
M  V30 14488 H 1304.39 -2.05512 -1.55314 0
M  V30 14489 H 1304.35 -1.05331 -2.96231 0
M  V30 14490 N 1308.12 0.00332656 -1.576 0
M  V30 14491 C 1309.07 0.99581 -2.08212 0
M  V30 14492 C 1310.04 1.34342 -0.976804 0
M  V30 14493 O 1311.22 1.44236 -1.24902 0
M  V30 14494 C 1308.36 2.2836 -2.58739 0
M  V30 14495 C 1307.47 1.99531 -3.8316 0
M  V30 14496 C 1306.61 3.22367 -4.222 0
M  V30 14497 C 1305.65 2.89209 -5.39467 0
M  V30 14498 N 1304.78 4.04572 -5.73817 0
M  V30 14499 H 1309.62 0.55727 -2.92743 0
M  V30 14500 H 1307.16 0.263513 -1.4472 0
M  V30 14501 H 1309.12 3.03639 -2.86111 0
M  V30 14502 H 1307.75 2.69889 -1.77087 0
M  V30 14503 H 1306.8 1.14634 -3.62716 0
M  V30 14504 H 1308.11 1.71089 -4.6854 0
M  V30 14505 H 1307.27 4.05994 -4.50837 0
M  V30 14506 H 1306.01 3.53944 -3.35522 0
M  V30 14507 H 1305.01 2.03989 -5.10557 0
M  V30 14508 H 1306.24 2.58883 -6.27819 0
M  V30 14509 H 1304.18 4.36052 -4.90096 0
M  V30 14510 H 1304.1 3.79643 -6.53764 0
M  V30 14511 H 1305.37 4.88998 -6.07043 0
M  V30 14512 N 1309.6 1.55164 0.276031 0
M  V30 14513 C 1310.84 1.7528 1.00604 0
M  V30 14514 C 1311.17 0.555256 1.86928 0
M  V30 14515 O 1310.44 -0.429917 1.91124 0
M  V30 14516 H 1309.02 0.646377 0.374441 0
M  V30 14517 H 1311.68 1.92562 0.300992 0
M  V30 14518 H 1310.77 2.65245 1.64473 0
M  V30 14519 N 1311.07 -0.540404 1.48045 0
M  V30 14520 C 1311.98 -1.67308 1.64455 0
M  V30 14521 C 1313 -1.65823 0.527152 0
M  V30 14522 O 1314.18 -1.84964 0.796881 0
M  V30 14523 C 1311.24 -3.03792 1.67068 0
M  V30 14524 C 1310.3 -3.16213 2.90358 0
M  V30 14525 C 1309.54 -4.46187 2.92837 0
M  V30 14526 O 1309.76 -5.32662 2.04029 0
M  V30 14527 O 1308.69 -4.62754 3.84892 0
M  V30 14528 H 1312.52 -1.56403 2.6033 0
M  V30 14529 H 1310.1 -0.712323 1.31325 0
M  V30 14530 H 1311.99 -3.84982 1.71368 0
M  V30 14531 H 1310.66 -3.15043 0.74363 0
M  V30 14532 H 1309.57 -2.34357 2.91595 0
M  V30 14533 H 1310.9 -3.09874 3.82412 0
M  V30 14534 N 1312.55 -1.36459 -0.788468 0
M  V30 14535 C 1313.8 -1.3007 -1.54158 0
M  V30 14536 C 1314.11 0.117574 -1.95246 0
M  V30 14537 O 1315.32 0.303837 -2.69795 0
M  V30 14538 C 1313.78 -2.28216 -2.78291 0
M  V30 14539 C 1313.38 -3.75484 -2.44368 0
M  V30 14540 C 1315.13 -2.30806 -3.56271 0
M  V30 14541 C 1313.04 -4.65404 -3.64902 0
M  V30 14542 H 1311.97 -0.483345 -0.5787 0
M  V30 14543 H 1314.62 -1.61827 -0.865123 0
M  V30 14544 H 1313 -1.89454 -3.4774 0
M  V30 14545 H 1314.17 -4.22986 -1.82809 0
M  V30 14546 H 1312.49 -3.75678 -1.79597 0
M  V30 14547 H 1315.08 -2.95196 -4.45829 0
M  V30 14548 H 1315.43 -1.31687 -3.94923 0
M  V30 14549 H 1315.96 -2.68189 -2.93802 0
M  V30 14550 H 1312.7 -5.65589 -3.31344 0
M  V30 14551 H 1312.22 -4.22617 -4.25623 0
M  V30 14552 H 1313.9 -4.81721 -4.31919 0
M  V30 14553 N 1314.03 1.01274 -1.20754 0
M  V30 14554 C 1315.26 1.78265 -1.04427 0
M  V30 14555 C 1315.67 1.84718 0.409361 0
M  V30 14556 O 1315.01 1.30195 1.29595 0
M  V30 14557 C 1315.07 3.24037 -1.55693 0
M  V30 14558 C 1314.74 3.41181 -3.04047 0
M  V30 14559 C 1315.73 3.30087 -4.0167 0
M  V30 14560 C 1313.42 3.66872 -3.43089 0
M  V30 14561 C 1315.41 3.44436 -5.36323 0
M  V30 14562 C 1313.1 3.80865 -4.77896 0
M  V30 14563 C 1314.1 3.69652 -5.74322 0
M  V30 14564 O 1313.79 3.83211 -7.06686 0
M  V30 14565 H 1313.52 0.567327 -0.367582 0
M  V30 14566 H 1316.07 1.28336 -1.60372 0
M  V30 14567 H 1314.3 3.75067 -0.941382 0
M  V30 14568 H 1315.99 3.82676 -1.35328 0
M  V30 14569 H 1316.76 3.10172 -3.72852 0
M  V30 14570 H 1312.64 3.74685 -2.68574 0
M  V30 14571 H 1316.18 3.35601 -6.1157 0
M  V30 14572 H 1312.08 4.00282 -5.06403 0
M  V30 14573 H 1312.85 4.00205 -7.13987 0
M  V30 14574 N 1315.51 1.01404 1.20644 0
M  V30 14575 C 1316.79 0.617088 1.85611 0
M  V30 14576 C 1317.17 -0.904947 1.9072 0
M  V30 14577 O 1316.51 -1.79562 1.41315 0
M  V30 14578 C 1316.72 1.26193 3.25386 0
M  V30 14579 C 1318.07 1.37575 4.01694 0
M  V30 14580 O 1319.1 1.21795 3.34731 0
M  V30 14581 O 1317.96 1.6305 5.2161 0
M  V30 14582 H 1315.05 0.212579 0.799211 0
M  V30 14583 H 1317.6 1.11126 1.28254 0
M  V30 14584 H 1316.37 2.30206 3.16419 0
M  V30 14585 H 1315.99 0.754679 3.90372 0
M  V30 14586 N 1316.99 -1.36373 0.789944 0
M  V30 14587 C 1317.95 -2.28372 0.194639 0
M  V30 14588 C 1318.95 -1.48849 -0.608332 0
M  V30 14589 O 1320.14 -1.68829 -0.42925 0
M  V30 14590 C 1317.27 -3.3298 -0.730553 0
M  V30 14591 H 1318.47 -2.82529 1.00585 0
M  V30 14592 H 1316.02 -1.45946 0.559406 0
M  V30 14593 H 1316.75 -2.8398 -1.56608 0
M  V30 14594 H 1316.54 -3.91787 -0.156706 0
M  V30 14595 H 1318.03 -4.01684 -1.14192 0
M  V30 14596 N 1318.47 -0.542005 -1.47987 0
M  V30 14597 C 1319.43 0.203537 -2.28294 0
M  V30 14598 C 1320.43 0.856762 -1.36074 0
M  V30 14599 O 1321.62 0.71496 -1.58852 0
M  V30 14600 C 1318.75 1.29581 -3.15312 0
M  V30 14601 H 1319.94 -0.501701 -2.95674 0
M  V30 14602 H 1317.5 -0.298378 -1.53426 0
M  V30 14603 H 1318.23 2.03393 -2.5259 0
M  V30 14604 H 1318.02 0.832398 -3.83163 0
M  V30 14605 H 1319.51 1.81988 -3.75859 0
M  V30 14606 N 1319.94 1.55134 -0.277709 0
M  V30 14607 C 1321.19 1.98831 0.338982 0
M  V30 14608 C 1321.51 1.16958 1.56781 0
M  V30 14609 O 1322.71 1.50811 2.25762 0
M  V30 14610 C 1321.17 3.53899 0.654465 0
M  V30 14611 C 1320.78 4.44553 -0.554703 0
M  V30 14612 C 1322.52 4.06179 1.23364 0
M  V30 14613 C 1320.43 5.91014 -0.213663 0
M  V30 14614 H 1319.36 0.742632 0.130434 0
M  V30 14615 H 1322.01 1.79463 -0.382768 0
M  V30 14616 H 1320.39 3.69078 1.43519 0
M  V30 14617 H 1321.56 4.41143 -1.33151 0
M  V30 14618 H 1319.88 4.02921 -1.0509 0
M  V30 14619 H 1322.48 5.13152 1.50265 0
M  V30 14620 H 1322.82 3.5537 2.16836 0
M  V30 14621 H 1323.35 3.9445 0.515147 0
M  V30 14622 H 1320.09 6.45924 -1.11633 0
M  V30 14623 H 1319.61 5.97486 0.526329 0
M  V30 14624 H 1321.29 6.46712 0.19319 0
M  V30 14625 N 1321.42 0.00503138 1.57599 0
M  V30 14626 C 1322.7 -0.716079 1.82021 0
M  V30 14627 C 1323.08 -1.91707 0.883829 0
M  V30 14628 O 1322.43 -2.28404 -0.0662812 0
M  V30 14629 C 1322.64 -1.11706 3.3064 0
M  V30 14630 C 1323.98 -1.51881 3.96506 0
M  V30 14631 O 1325.01 -1.21071 3.34993 0
M  V30 14632 O 1323.87 -2.09191 5.04877 0
M  V30 14633 H 1320.96 -0.349112 0.7497 0
M  V30 14634 H 1323.51 0.030871 1.69672 0
M  V30 14635 H 1322.28 -0.261223 3.90427 0
M  V30 14636 H 1321.9 -1.92295 3.48006 0
M  V30 14637 N 1322.9 -1.55308 -0.267798 0
M  V30 14638 C 1323.83 -1.91555 -1.33525 0
M  V30 14639 C 1324.81 -0.778001 -1.51265 0
M  V30 14640 O 1326 -1.03657 -1.64222 0
M  V30 14641 C 1323.13 -2.19201 -2.69385 0
M  V30 14642 C 1322.08 -3.3501 -2.66369 0
M  V30 14643 C 1321.41 -3.48148 -4.05829 0
M  V30 14644 C 1322.71 -4.71265 -2.25182 0
M  V30 14645 H 1324.4 -2.80965 -1.03437 0
M  V30 14646 H 1321.95 -1.35183 -0.496141 0
M  V30 14647 H 1323.9 -2.43146 -3.44177 0
M  V30 14648 H 1322.62 -1.26596 -3.01067 0
M  V30 14649 H 1321.28 -3.11041 -1.94034 0
M  V30 14650 H 1320.93 -2.53 -4.34741 0
M  V30 14651 H 1320.63 -4.26014 -4.04704 0
M  V30 14652 H 1322.15 -3.74391 -4.82352 0
M  V30 14653 H 1323.57 -4.94719 -2.89699 0
M  V30 14654 H 1321.96 -5.52084 -2.3521 0
M  V30 14655 H 1323.03 -4.69735 -1.20319 0
M  V30 14656 N 1324.38 0.532545 -1.4833 0
M  V30 14657 C 1325.62 1.28851 -1.56217 0
M  V30 14658 C 1325.95 1.93076 -0.234967 0
M  V30 14659 O 1325.21 1.79722 0.774508 0
M  V30 14660 C 1325.51 2.40117 -2.64724 0
M  V30 14661 C 1325.17 1.93562 -4.0724 0
M  V30 14662 C 1323.83 1.80583 -4.46031 0
M  V30 14663 C 1326.19 1.58349 -4.96563 0
M  V30 14664 C 1323.51 1.30722 -5.71952 0
M  V30 14665 C 1325.87 1.09951 -6.22972 0
M  V30 14666 C 1324.53 0.955866 -6.60621 0
M  V30 14667 H 1323.8 0.4715 -0.571637 0
M  V30 14668 H 1326.45 0.594564 -1.82036 0
M  V30 14669 H 1324.75 3.15171 -2.32754 0
M  V30 14670 H 1326.45 2.98252 -2.68042 0
M  V30 14671 H 1323.04 2.04614 -3.76605 0
M  V30 14672 H 1327.22 1.67237 -4.67274 0
M  V30 14673 H 1322.48 1.18286 -5.99849 0
M  V30 14674 H 1326.65 0.817736 -6.91582 0
M  V30 14675 H 1324.28 0.567302 -7.5808 0
M  V30 14676 N 1325.86 1.36875 0.78122 0
M  V30 14677 C 1327.08 1.34732 1.57019 0
M  V30 14678 C 1327.5 -0.0695423 1.88672 0
M  V30 14679 O 1326.86 -1.02873 1.50743 0
M  V30 14680 C 1326.91 2.17668 2.88623 0
M  V30 14681 O 1326.63 3.53832 2.5833 0
M  V30 14682 C 1328.13 2.23398 3.82895 0
M  V30 14683 H 1325.35 0.461857 0.486754 0
M  V30 14684 H 1327.89 1.80086 0.968989 0
M  V30 14685 H 1326.05 1.75848 3.4519 0
M  V30 14686 H 1326.46 3.972 3.42538 0
M  V30 14687 H 1327.94 2.85769 4.72271 0
M  V30 14688 H 1328.41 1.23972 4.2134 0
M  V30 14689 H 1329.02 2.65489 3.32258 0
M  V30 14690 N 1327.33 -1.00632 1.21289 0
M  V30 14691 C 1328.75 -1.26744 0.969956 0
M  V30 14692 C 1328.95 -1.98534 -0.344449 0
M  V30 14693 O 1328.01 -2.28687 -1.07044 0
M  V30 14694 C 1329.32 -2.09238 2.15963 0
M  V30 14695 C 1330.87 -2.22469 2.20174 0
M  V30 14696 C 1331.34 -3.08344 3.38656 0
M  V30 14697 N 1332.83 -3.15932 3.38734 0
M  V30 14698 C 1333.57 -3.82632 4.2706 0
M  V30 14699 N 1333.06 -4.51371 5.25582 0
M  V30 14700 N 1334.86 -3.79259 4.14872 0
M  V30 14701 H 1327.01 -0.524626 2.05819 0
M  V30 14702 H 1329.27 -0.294231 0.901184 0
M  V30 14703 H 1328.98 -1.63835 3.11209 0
M  V30 14704 H 1328.85 -3.09987 2.14914 0
M  V30 14705 H 1331.24 -2.67091 1.25485 0
M  V30 14706 H 1331.32 -1.21194 2.25268 0
M  V30 14707 H 1330.96 -2.64425 4.33638 0
M  V30 14708 H 1330.89 -4.0973 3.30801 0
M  V30 14709 H 1333.38 -2.66998 2.67434 0
M  V30 14710 H 1333.7 -4.99966 5.89283 0
M  V30 14711 H 1332.04 -4.50162 5.29508 0
M  V30 14712 H 1335.23 -3.2471 3.37166 0
M  V30 14713 H 1335.41 -4.30963 4.83916 0
M  V30 14714 N 1328.81 -1.02043 -1.20104 0
M  V30 14715 C 1330.04 -0.731142 -1.94085 0
M  V30 14716 C 1330.46 0.702467 -1.74491 0
M  V30 14717 O 1329.82 1.48387 -1.04168 0
M  V30 14718 C 1329.87 -1.07691 -3.44144 0
M  V30 14719 O 1328.97 -0.190751 -4.11959 0
M  V30 14720 H 1328.31 -0.270917 -0.606218 0
M  V30 14721 H 1330.84 -1.36483 -1.52426 0
M  V30 14722 H 1330.85 -1.03023 -3.94779 0
M  V30 14723 H 1329.53 -2.1214 -3.57728 0
M  V30 14724 H 1328.1 -0.29529 -3.71729 0
M  V30 14725 N 1330.29 1.35952 -0.797165 0
M  V30 14726 C 1331.53 2.00862 -0.378652 0
M  V30 14727 C 1331.89 1.61886 1.03233 0
M  V30 14728 O 1333.1 2.19444 1.55234 0
M  V30 14729 C 1331.37 3.53207 -0.545845 0
M  V30 14730 S 1332.93 4.38266 -0.216358 0
M  V30 14731 H 1329.74 0.69621 -0.144268 0
M  V30 14732 H 1332.35 1.65708 -1.03735 0
M  V30 14733 H 1331.05 3.79062 -1.57291 0
M  V30 14734 H 1330.58 3.9319 0.128514 0
M  V30 14735 H 1332.6 4.86439 0.979344 0
M  V30 14736 N 1331.77 0.549846 1.47697 0
M  V30 14737 C 1332.73 -0.191427 2.28399 0
M  V30 14738 C 1333.73 -0.849533 1.36527 0
M  V30 14739 O 1334.92 -0.706526 1.59229 0
M  V30 14740 C 1332.05 -1.27907 3.15995 0
M  V30 14741 H 1333.25 0.517375 2.95404 0
M  V30 14742 H 1330.8 0.30651 1.53265 0
M  V30 14743 H 1331.53 -2.0205 2.53665 0
M  V30 14744 H 1331.32 -0.812066 3.83599 0
M  V30 14745 H 1332.81 -1.79992 3.76819 0
M  V30 14746 N 1333.25 -1.54984 0.285932 0
M  V30 14747 C 1334.49 -1.99436 -0.32709 0
M  V30 14748 C 1334.82 -1.17582 -1.55562 0
M  V30 14749 O 1334.09 -0.268002 -1.94058 0
M  V30 14750 H 1332.67 -0.736662 -0.123846 0
M  V30 14751 H 1335.33 -1.90881 0.393774 0
M  V30 14752 H 1334.42 -3.0609 -0.609523 0
M  V30 14753 N 1334.72 -0.0133892 -1.57594 0
M  V30 14754 C 1335.95 0.67827 -1.95149 0
M  V30 14755 C 1336.36 1.67089 -0.887572 0
M  V30 14756 O 1335.71 1.8316 0.140774 0
M  V30 14757 C 1335.77 1.45441 -3.28766 0
M  V30 14758 C 1335.43 0.621889 -4.52749 0
M  V30 14759 C 1336.43 -0.0961541 -5.19811 0
M  V30 14760 C 1334.11 0.563917 -4.99124 0
M  V30 14761 C 1336.11 -0.86101 -6.31558 0
M  V30 14762 C 1333.79 -0.204654 -6.10757 0
M  V30 14763 C 1334.79 -0.915839 -6.76832 0
M  V30 14764 O 1334.48 -1.67184 -7.86323 0
M  V30 14765 H 1334.21 0.192983 -0.647869 0
M  V30 14766 H 1336.77 -0.0646816 -2.05298 0
M  V30 14767 H 1335 2.24215 -3.15063 0
M  V30 14768 H 1336.69 2.03268 -3.51336 0
M  V30 14769 H 1337.45 -0.0606029 -4.84962 0
M  V30 14770 H 1333.33 1.10702 -4.47511 0
M  V30 14771 H 1336.87 -1.41664 -6.83064 0
M  V30 14772 H 1332.77 -0.241979 -6.45046 0
M  V30 14773 H 1333.54 -1.58996 -8.02909 0
M  V30 14774 N 1336.2 1.55448 0.259558 0
M  V30 14775 C 1337.44 1.78444 0.996849 0
M  V30 14776 C 1337.81 0.580862 1.83003 0
M  V30 14777 O 1339.01 0.68934 2.59811 0
M  V30 14778 C 1337.28 3.06094 1.84502 0
M  V30 14779 S 1338.84 3.50263 2.64313 0
M  V30 14780 H 1335.66 0.626854 0.335523 0
M  V30 14781 H 1338.26 1.93683 0.265929 0
M  V30 14782 H 1336.96 3.91772 1.22241 0
M  V30 14783 H 1336.49 2.93558 2.61891 0
M  V30 14784 H 1338.51 3.10596 3.86968 0
M  V30 14785 N 1337.68 -0.524672 1.4861 0
M  V30 14786 C 1338.93 -1.28211 1.5713 0
M  V30 14787 C 1339.26 -1.92626 0.246751 0
M  V30 14788 O 1338.53 -1.79553 -0.747725 0
M  V30 14789 C 1338.82 -2.36737 2.71344 0
M  V30 14790 C 1338.67 -1.76978 4.1352 0
M  V30 14791 C 1339.99 -3.3847 2.81294 0
M  V30 14792 H 1337.11 -0.46479 0.571961 0
M  V30 14793 H 1339.75 -0.583937 1.80804 0
M  V30 14794 H 1337.9 -2.96287 2.51289 0
M  V30 14795 H 1339.57 -1.21438 4.45029 0
M  V30 14796 H 1337.82 -1.07488 4.20272 0
M  V30 14797 H 1338.49 -2.55583 4.89266 0
M  V30 14798 H 1340.96 -2.88882 2.99477 0
M  V30 14799 H 1339.84 -4.11795 3.62928 0
M  V30 14800 H 1340.1 -3.99347 1.89669 0
M  V30 14801 N 1339.16 -1.37287 -0.77395 0
M  V30 14802 C 1340.12 -1.32699 -1.86878 0
M  V30 14803 C 1341.12 -0.231486 -1.59125 0
M  V30 14804 O 1342.31 -0.487203 -1.67248 0
M  V30 14805 C 1339.44 -1.0609 -3.23972 0
M  V30 14806 H 1340.64 -2.30083 -1.92359 0
M  V30 14807 H 1338.19 -1.22284 -0.973459 0
M  V30 14808 H 1338.92 -0.0922868 -3.24169 0
M  V30 14809 H 1338.71 -1.85383 -3.45508 0
M  V30 14810 H 1340.2 -1.05524 -4.04048 0
M  V30 14811 N 1340.64 0.999871 -1.21821 0
M  V30 14812 C 1341.86 1.77405 -1.06467 0
M  V30 14813 C 1342.28 1.84828 0.385227 0
M  V30 14814 O 1341.64 1.31338 1.26714 0
M  V30 14815 C 1341.69 3.21062 -1.66137 0
M  V30 14816 O 1341.41 3.14054 -3.05454 0
M  V30 14817 C 1342.91 4.14958 -1.55963 0
M  V30 14818 H 1340.13 0.557368 -0.373607 0
M  V30 14819 H 1342.67 1.2575 -1.61267 0
M  V30 14820 H 1340.83 3.69808 -1.15416 0
M  V30 14821 H 1341.24 4.04346 -3.34073 0
M  V30 14822 H 1342.72 5.13536 -2.02448 0
M  V30 14823 H 1343.19 4.36171 -0.514949 0
M  V30 14824 H 1343.8 3.72105 -2.05956 0
M  V30 14825 N 1342.11 1.02678 1.19562 0
M  V30 14826 C 1343.36 0.722016 1.89191 0
M  V30 14827 C 1343.69 -0.749217 1.79491 0
M  V30 14828 O 1342.94 -1.56105 1.18025 0
M  V30 14829 C 1343.24 1.11603 3.39529 0
M  V30 14830 C 1342.91 2.58518 3.69431 0
M  V30 14831 C 1341.57 2.98658 3.77302 0
M  V30 14832 C 1343.92 3.53579 3.82925 0
M  V30 14833 C 1341.25 4.32776 3.96134 0
M  V30 14834 C 1343.6 4.87398 4.0327 0
M  V30 14835 C 1342.27 5.27229 4.09373 0
M  V30 14836 H 1341.54 0.264204 0.692298 0
M  V30 14837 H 1344.18 1.28924 1.41601 0
M  V30 14838 H 1342.49 0.467374 3.89002 0
M  V30 14839 H 1344.19 0.857771 3.91718 0
M  V30 14840 H 1340.78 2.26421 3.63911 0
M  V30 14841 H 1344.96 3.23721 3.76189 0
M  V30 14842 H 1340.22 4.63175 3.99098 0
M  V30 14843 H 1344.39 5.60973 4.12653 0
M  V30 14844 H 1342.02 6.31164 4.23718 0
M  V30 14845 N 1343.59 -1.35528 0.804364 0
M  V30 14846 C 1344.84 -1.98084 0.380196 0
M  V30 14847 C 1345.15 -1.64531 -1.05778 0
M  V30 14848 O 1346.36 -2.20435 -1.58495 0
M  V30 14849 C 1344.82 -3.54364 0.628848 0
M  V30 14850 C 1344.42 -3.96828 2.07921 0
M  V30 14851 C 1346.17 -4.23641 0.269927 0
M  V30 14852 C 1344.08 -5.45944 2.27374 0
M  V30 14853 H 1343.01 -0.741185 0.138422 0
M  V30 14854 H 1345.66 -1.54624 0.988107 0
M  V30 14855 H 1344.04 -3.9597 -0.0489837 0
M  V30 14856 H 1345.21 -3.6638 2.79467 0
M  V30 14857 H 1343.53 -3.40433 2.39779 0
M  V30 14858 H 1346.12 -5.33251 0.393344 0
M  V30 14859 H 1346.47 -4.08858 -0.783644 0
M  V30 14860 H 1347 -3.87448 0.901588 0
M  V30 14861 H 1343.74 -5.65693 3.31168 0
M  V30 14862 H 1343.26 -5.77969 1.6035 0
M  V30 14863 H 1344.94 -6.12376 2.08817 0
M  V30 14864 N 1345.07 -0.557671 -1.47404 0
M  V30 14865 C 1346 0.178019 -2.3282 0
M  V30 14866 C 1346.98 0.908318 -1.43818 0
M  V30 14867 O 1348.17 0.888693 -1.72673 0
M  V30 14868 C 1345.3 1.2082 -3.25607 0
M  V30 14869 C 1344.25 0.594335 -4.23853 0
M  V30 14870 C 1343.58 1.72919 -5.05968 0
M  V30 14871 C 1344.88 -0.452196 -5.20339 0
M  V30 14872 H 1346.57 -0.535091 -2.9458 0
M  V30 14873 H 1344.12 -0.258775 -1.41656 0
M  V30 14874 H 1346.07 1.73104 -3.84204 0
M  V30 14875 H 1344.79 1.95126 -2.61903 0
M  V30 14876 H 1343.45 0.0927898 -3.66483 0
M  V30 14877 H 1343.1 2.4613 -4.38668 0
M  V30 14878 H 1342.8 1.32422 -5.72484 0
M  V30 14879 H 1344.33 2.25527 -5.67424 0
M  V30 14880 H 1345.74 -0.0154011 -5.73298 0
M  V30 14881 H 1344.14 -0.776068 -5.95061 0
M  V30 14882 H 1345.21 -1.34791 -4.65789 0
M  V30 14883 N 1346.55 1.54831 -0.294147 0
M  V30 14884 C 1347.8 1.99606 0.316509 0
M  V30 14885 C 1348.12 1.18405 1.54936 0
M  V30 14886 O 1347.39 0.278289 1.93913 0
M  V30 14887 H 1345.97 0.737309 0.119938 0
M  V30 14888 H 1348.63 1.90669 -0.403891 0
M  V30 14889 H 1347.73 3.06409 0.593282 0
M  V30 14890 N 1348.03 0.0217466 1.57585 0
M  V30 14891 C 1349.28 -0.657793 1.90672 0
M  V30 14892 C 1349.59 -1.73713 0.899066 0
M  V30 14893 O 1350.8 -2.4728 1.12092 0
M  V30 14894 C 1349.25 -1.22124 3.38547 0
M  V30 14895 C 1348.86 -0.175575 4.47656 0
M  V30 14896 C 1350.6 -1.87771 3.80713 0
M  V30 14897 C 1348.51 -0.750239 5.86622 0
M  V30 14898 H 1347.44 -0.249459 0.711538 0
M  V30 14899 H 1350.09 0.0858449 1.83299 0
M  V30 14900 H 1348.47 -2.01625 3.40828 0
M  V30 14901 H 1349.65 0.596436 4.56924 0
M  V30 14902 H 1347.96 0.381715 4.14647 0
M  V30 14903 H 1350.56 -2.3171 4.81887 0
M  V30 14904 H 1350.9 -2.71737 3.1538 0
M  V30 14905 H 1351.44 -1.14971 3.80823 0
M  V30 14906 H 1348.17 0.0511222 6.5548 0
M  V30 14907 H 1347.69 -1.49091 5.80975 0
M  V30 14908 H 1349.37 -1.24225 6.34962 0
M  V30 14909 N 1349.51 -1.55583 -0.251311 0
M  V30 14910 C 1350.75 -1.76859 -0.978031 0
M  V30 14911 C 1351.07 -0.584924 -1.86021 0
M  V30 14912 O 1350.34 0.399456 -1.91784 0
M  V30 14913 H 1348.92 -0.652252 -0.364111 0
M  V30 14914 H 1351.59 -1.93016 -0.270319 0
M  V30 14915 H 1350.68 -2.67828 -1.60233 0
M  V30 14916 N 1350.98 0.516783 -1.48886 0
M  V30 14917 C 1352.26 1.27808 -1.48069 0
M  V30 14918 C 1352.64 2.10154 -0.19963 0
M  V30 14919 O 1351.99 2.13342 0.818386 0
M  V30 14920 C 1352.2 2.14828 -2.75045 0
M  V30 14921 C 1353.55 2.74536 -3.23906 0
M  V30 14922 O 1354.57 2.25107 -2.76053 0
M  V30 14923 O 1353.43 3.6448 -4.07206 0
M  V30 14924 H 1350.52 0.577535 -0.591931 0
M  V30 14925 H 1353.07 0.532351 -1.61134 0
M  V30 14926 H 1351.84 1.53852 -3.59785 0
M  V30 14927 H 1351.46 2.96624 -2.64764 0
M  V30 14928 N 1352.46 1.37696 0.766659 0
M  V30 14929 C 1353.88 1.18607 1.06792 0
M  V30 14930 C 1354.08 0.0257195 2.01484 0
M  V30 14931 O 1353.13 -0.632608 2.44447 0
M  V30 14932 C 1354.45 2.50692 1.66054 0
M  V30 14933 C 1355.99 2.57259 1.78288 0
M  V30 14934 C 1356.47 3.89488 2.40963 0
M  V30 14935 N 1357.96 3.90957 2.48408 0
M  V30 14936 C 1358.7 4.90023 2.97767 0
M  V30 14937 N 1358.19 5.99485 3.4726 0
M  V30 14938 N 1359.98 4.77423 2.96688 0
M  V30 14939 H 1352.14 2.11951 0.138031 0
M  V30 14940 H 1354.4 0.939873 0.123863 0
M  V30 14941 H 1354.1 3.35989 1.03945 0
M  V30 14942 H 1353.98 2.68148 2.65286 0
M  V30 14943 H 1356.37 1.72366 2.39528 0
M  V30 14944 H 1356.45 2.43682 0.777981 0
M  V30 14945 H 1356.09 4.74797 1.8036 0
M  V30 14946 H 1356.02 4.0037 3.42069 0
M  V30 14947 H 1358.51 3.11888 2.13388 0
M  V30 14948 H 1358.82 6.71022 3.8334 0
M  V30 14949 H 1357.17 6.03123 3.45351 0
M  V30 14950 H 1360.36 3.91026 2.57325 0
M  V30 14951 H 1360.53 5.54783 3.34844 0
M  V30 14952 N 1353.94 -0.993397 1.22349 0
M  V30 14953 C 1354.89 -2.06784 0.960445 0
M  V30 14954 C 1355.87 -1.60655 -0.0887385 0
M  V30 14955 O 1357.07 -1.76581 0.121716 0
M  V30 14956 C 1354.19 -3.39034 0.539552 0
M  V30 14957 C 1353.28 -3.91798 1.62344 0
M  V30 14958 N 1353.67 -4.17791 2.85104 0
M  V30 14959 C 1351.97 -4.20197 1.49501 0
M  V30 14960 C 1352.67 -4.6067 3.55187 0
M  V30 14961 N 1351.65 -4.64333 2.82658 0
M  V30 14962 H 1355.45 -2.24821 1.89295 0
M  V30 14963 H 1352.96 -1.17509 1.12095 0
M  V30 14964 H 1354.96 -4.15573 0.332419 0
M  V30 14965 H 1353.62 -3.22397 -0.38606 0
M  V30 14966 H 1354.63 -4.05999 3.21536 0
M  V30 14967 H 1351.31 -4.12634 0.635546 0
M  V30 14968 H 1352.7 -4.89408 4.60358 0
M  V30 14969 N 1355.42 -1.03311 -1.19015 0
M  V30 14970 C 1356.37 -0.611169 -2.24427 0
M  V30 14971 C 1357.36 0.358303 -1.65567 0
M  V30 14972 O 1358.57 0.22642 -1.7857 0
M  V30 14973 H 1354.94 -0.179393 -0.730289 0
M  V30 14974 H 1356.91 -1.51077 -2.57329 0
M  V30 14975 C 1355.66 0.0178126 -3.47695 0
M  V30 14976 H 1354.98 -0.71921 -3.93278 0
M  V30 14977 H 1356.42 0.275926 -4.23101 0
M  V30 14978 C 1354.88 1.26564 -3.12223 0
M  V30 14979 O 1355.41 2.35725 -3.25264 0
M  V30 14980 N 1353.62 1.15602 -2.66617 0
M  V30 14981 H 1353.17 0.267736 -2.56205 0
M  V30 14982 H 1353.12 1.99186 -2.43254 0
M  V30 14983 N 1356.9 1.35099 -0.81154 0
M  V30 14984 C 1358.12 2.03391 -0.405805 0
M  V30 14985 C 1358.55 1.60745 0.97686 0
M  V30 14986 O 1357.9 0.786518 1.63351 0
M  V30 14987 C 1357.95 3.57075 -0.502954 0
M  V30 14988 O 1357.06 4.09577 0.481681 0
M  V30 14989 H 1356.4 0.642203 -0.168733 0
M  V30 14990 H 1358.93 1.72591 -1.0988 0
M  V30 14991 H 1358.94 4.06277 -0.37456 0
M  V30 14992 H 1357.61 3.87463 -1.51145 0
M  V30 14993 H 1356.19 3.71583 0.313115 0
M  V30 14994 N 1358.37 0.56548 1.47106 0
M  V30 14995 C 1359.32 -0.190542 2.31818 0
M  V30 14996 C 1360.32 -0.901279 1.43434 0
M  V30 14997 O 1361.52 -0.821625 1.60154 0
M  V30 14998 H 1357.9 -0.0803183 0.747698 0
M  V30 14999 H 1359.87 0.542999 2.93418 0
M  V30 15000 C 1358.62 -1.20208 3.2626 0
M  V30 15001 H 1357.94 -0.664608 3.94237 0
M  V30 15002 H 1359.38 -1.7018 3.88349 0
M  V30 15003 C 1357.84 -2.25423 2.50372 0
M  V30 15004 O 1358.37 -3.3249 2.25418 0
M  V30 15005 N 1356.57 -1.9957 2.11235 0
M  V30 15006 H 1356.12 -1.12513 2.31729 0
M  V30 15007 H 1356.08 -2.70182 1.60777 0
M  V30 15008 N 1359.85 -1.54672 0.302354 0
M  V30 15009 C 1361.1 -1.99345 -0.307307 0
M  V30 15010 C 1361.41 -1.19437 -1.549 0
M  V30 15011 O 1362.62 -1.54384 -2.23334 0
M  V30 15012 C 1361.08 -3.54896 -0.59808 0
M  V30 15013 C 1360.68 -4.43614 0.625357 0
M  V30 15014 C 1362.43 -4.08091 -1.16886 0
M  V30 15015 C 1360.34 -5.90599 0.307661 0
M  V30 15016 H 1359.27 -0.744614 -0.118603 0
M  V30 15017 H 1361.92 -1.78832 0.411271 0
M  V30 15018 H 1360.3 -3.71314 -1.37629 0
M  V30 15019 H 1361.47 -4.38969 1.40152 0
M  V30 15020 H 1359.79 -4.01198 1.11487 0
M  V30 15021 H 1362.38 -5.15477 -1.42082 0
M  V30 15022 H 1362.73 -3.58775 -2.11155 0
M  V30 15023 H 1363.26 -3.9522 -0.452329 0
M  V30 15024 H 1360 -6.44067 1.21895 0
M  V30 15025 H 1359.52 -5.98248 -0.431208 0
M  V30 15026 H 1361.2 -6.46937 -0.0902796 0
M  V30 15027 N 1361.33 -0.0301034 -1.57571 0
M  V30 15028 C 1362.26 0.986212 -2.05789 0
M  V30 15029 C 1363.24 1.31682 -0.95387 0
M  V30 15030 O 1364.43 1.43332 -1.22427 0
M  V30 15031 C 1361.55 2.30598 -2.48077 0
M  V30 15032 C 1360.6 2.12991 -3.69509 0
M  V30 15033 S 1361.43 1.42782 -5.16114 0
M  V30 15034 C 1362.59 2.76126 -5.61699 0
M  V30 15035 H 1362.82 0.575769 -2.91671 0
M  V30 15036 H 1360.35 0.181613 -1.53328 0
M  V30 15037 H 1362.31 3.06469 -2.73107 0
M  V30 15038 H 1360.97 2.68775 -1.62539 0
M  V30 15039 H 1360.17 3.1056 -3.96949 0
M  V30 15040 H 1359.77 1.45263 -3.44637 0
M  V30 15041 H 1362.06 3.72361 -5.65998 0
M  V30 15042 H 1363 2.53349 -6.61226 0
M  V30 15043 H 1363.41 2.81418 -4.89351 0
M  V30 15044 N 1362.81 1.55714 0.243056 0
M  V30 15045 C 1364.05 1.77989 0.971993 0
M  V30 15046 C 1364.39 0.596038 1.84827 0
M  V30 15047 O 1363.66 -0.40554 1.90225 0
M  V30 15048 C 1363.95 3.10178 1.82925 0
M  V30 15049 C 1363.8 4.38974 0.9809 0
M  V30 15050 C 1365.12 3.38628 2.81103 0
M  V30 15051 H 1362.24 0.64754 0.35194 0
M  V30 15052 H 1364.88 1.88449 0.242237 0
M  V30 15053 H 1363.03 3.01392 2.45143 0
M  V30 15054 H 1364.7 4.59756 0.377113 0
M  V30 15055 H 1362.94 4.3286 0.285414 0
M  V30 15056 H 1363.61 5.27858 1.61461 0
M  V30 15057 H 1366.09 3.47403 2.29021 0
M  V30 15058 H 1364.97 4.32331 3.38203 0
M  V30 15059 H 1365.23 2.5973 3.57761 0
M  V30 15060 N 1364.29 -0.50888 1.49158 0
M  V30 15061 C 1365.23 -1.61129 1.65246 0
M  V30 15062 C 1366.2 -1.58582 0.49405 0
M  V30 15063 O 1367.39 -1.76689 0.720122 0
M  V30 15064 C 1364.53 -2.99311 1.71776 0
M  V30 15065 C 1363.64 -3.11933 2.98868 0
M  V30 15066 C 1362.78 -4.408 2.96426 0
M  V30 15067 C 1361.82 -4.47027 4.18131 0
M  V30 15068 N 1360.95 -5.67311 4.13645 0
M  V30 15069 H 1365.79 -1.4672 2.59379 0
M  V30 15070 H 1363.33 -0.713978 1.28611 0
M  V30 15071 H 1365.29 -3.79392 1.73543 0
M  V30 15072 H 1363.92 -3.12442 0.811159 0
M  V30 15073 H 1362.97 -2.24966 3.06748 0
M  V30 15074 H 1364.28 -3.12393 3.8886 0
M  V30 15075 H 1363.44 -5.29194 2.96712 0
M  V30 15076 H 1362.17 -4.42893 2.04199 0
M  V30 15077 H 1361.18 -3.57036 4.18097 0
M  V30 15078 H 1362.4 -4.46656 5.11542 0
M  V30 15079 H 1360.35 -5.70261 3.2425 0
M  V30 15080 H 1360.27 -5.69355 4.97364 0
M  V30 15081 H 1361.54 -6.57934 4.18022 0
M  V30 15082 N 1365.76 -1.381 -0.759346 0
M  V30 15083 C 1367.04 -1.24517 -1.50847 0
M  V30 15084 C 1367.42 0.155929 -2.10523 0
M  V30 15085 O 1366.77 1.16485 -1.96579 0
M  V30 15086 C 1366.98 -2.35086 -2.57945 0
M  V30 15087 C 1368.33 -2.73232 -3.25007 0
M  V30 15088 O 1369.35 -2.34355 -2.68247 0
M  V30 15089 O 1368.21 -3.40254 -4.27656 0
M  V30 15090 H 1365.3 -0.486599 -0.668693 0
M  V30 15091 H 1367.85 -1.49913 -0.795249 0
M  V30 15092 H 1366.62 -3.28858 -2.12056 0
M  V30 15093 H 1366.25 -2.11222 -3.36854 0
M  V30 15094 N 1367.24 0.986894 -1.22875 0
M  V30 15095 C 1368.52 1.70121 -0.965311 0
M  V30 15096 C 1368.9 2.04648 0.517924 0
M  V30 15097 O 1368.25 1.73453 1.48749 0
M  V30 15098 C 1368.46 2.94738 -1.86897 0
M  V30 15099 C 1369.81 3.6739 -2.12861 0
M  V30 15100 O 1370.83 3.04758 -1.84394 0
M  V30 15101 O 1369.69 4.8009 -2.61106 0
M  V30 15102 H 1366.78 0.742817 -0.363527 0
M  V30 15103 H 1369.33 1.0427 -1.33887 0
M  V30 15104 H 1368.1 2.65771 -2.87196 0
M  V30 15105 H 1367.72 3.68327 -1.49736 0
M  V30 15106 N 1368.72 1.0394 1.18466 0
M  V30 15107 C 1369.97 0.740576 1.88042 0
M  V30 15108 C 1370.29 -0.733822 1.80666 0
M  V30 15109 O 1369.56 -1.52943 1.22414 0
M  V30 15110 H 1368.14 0.270949 0.696129 0
M  V30 15111 H 1370.8 1.31588 1.43772 0
M  V30 15112 H 1369.9 1.04429 2.94111 0
M  V30 15113 N 1370.2 -1.34667 0.818693 0
M  V30 15114 C 1371.13 -2.28368 0.195126 0
M  V30 15115 C 1372.14 -1.50836 -0.612562 0
M  V30 15116 O 1373.33 -1.72917 -0.442936 0
M  V30 15117 C 1370.43 -3.30601 -0.745411 0
M  V30 15118 C 1369.61 -4.37396 0.0185308 0
M  V30 15119 C 1368.66 -5.19415 -0.842298 0
M  V30 15120 O 1367.69 -5.68467 -0.288821 0
M  V30 15121 N 1368.89 -5.38709 -2.1627 0
M  V30 15122 H 1371.66 -2.8252 1.00013 0
M  V30 15123 H 1369.22 -1.47146 0.675262 0
M  V30 15124 H 1371.21 -3.82367 -1.3258 0
M  V30 15125 H 1369.78 -2.76875 -1.45118 0
M  V30 15126 H 1369 -3.86402 0.780205 0
M  V30 15127 H 1370.29 -5.05877 0.544575 0
M  V30 15128 H 1369.69 -5.00523 -2.63616 0
M  V30 15129 H 1368.24 -5.9361 -2.69204 0
M  V30 15130 N 1371.68 -0.573274 -1.46804 0
M  V30 15131 C 1372.61 0.153316 -2.32996 0
M  V30 15132 C 1373.59 0.893013 -1.44773 0
M  V30 15133 O 1374.77 0.870329 -1.73606 0
M  V30 15134 C 1371.9 1.1736 -3.2687 0
M  V30 15135 C 1370.86 0.549347 -4.2446 0
M  V30 15136 C 1370.18 1.67542 -5.07773 0
M  V30 15137 C 1371.48 -0.50736 -5.1983 0
M  V30 15138 H 1373.18 -0.566305 -2.93995 0
M  V30 15139 H 1370.72 -0.273785 -1.41373 0
M  V30 15140 H 1372.68 1.6902 -3.86019 0
M  V30 15141 H 1371.4 1.92337 -2.63958 0
M  V30 15142 H 1370.06 0.0539142 -3.6656 0
M  V30 15143 H 1369.71 2.41463 -4.41253 0
M  V30 15144 H 1369.41 1.26343 -5.73856 0
M  V30 15145 H 1370.93 2.19496 -5.69784 0
M  V30 15146 H 1372.34 -0.0762061 -5.73249 0
M  V30 15147 H 1370.74 -0.839139 -5.94204 0
M  V30 15148 H 1371.81 -1.39723 -4.64333 0
M  V30 15149 N 1373.15 1.5451 -0.310553 0
M  V30 15150 C 1374.4 2.00326 0.295904 0
M  V30 15151 C 1374.73 1.19887 1.53158 0
M  V30 15152 O 1373.98 0.265615 1.93889 0
M  V30 15153 C 1374.28 3.5072 0.68779 0
M  V30 15154 C 1373.95 4.48677 -0.447229 0
M  V30 15155 C 1372.61 4.7518 -0.758796 0
M  V30 15156 C 1374.96 5.06953 -1.21028 0
M  V30 15157 C 1372.29 5.5722 -1.83637 0
M  V30 15158 C 1374.64 5.90167 -2.27784 0
M  V30 15159 C 1373.31 6.14977 -2.59537 0
M  V30 15160 H 1372.58 0.733046 0.108279 0
M  V30 15161 H 1375.22 1.86572 -0.431633 0
M  V30 15162 H 1373.53 3.62133 1.49556 0
M  V30 15163 H 1375.23 3.83602 1.16836 0
M  V30 15164 H 1371.82 4.28159 -0.1943 0
M  V30 15165 H 1376 4.86471 -0.98283 0
M  V30 15166 H 1371.26 5.74678 -2.08699 0
M  V30 15167 H 1375.43 6.34347 -2.87362 0
M  V30 15168 H 1373.06 6.78338 -3.43165 0
M  V30 15169 N 1374.63 0.0384594 1.57553 0
M  V30 15170 C 1375.58 -0.949625 2.07283 0
M  V30 15171 C 1376.57 -1.27973 0.975284 0
M  V30 15172 O 1377.76 -1.26428 1.23875 0
M  V30 15173 C 1374.89 -2.22887 2.61106 0
M  V30 15174 C 1373.97 -1.92672 3.77807 0
M  V30 15175 N 1374.37 -1.32764 4.88065 0
M  V30 15176 C 1372.66 -2.22612 3.86471 0
M  V30 15177 C 1373.36 -1.19892 5.69211 0
M  V30 15178 N 1372.34 -1.69757 5.16414 0
M  V30 15179 H 1376.14 -0.481562 2.89928 0
M  V30 15180 H 1373.66 -0.166321 1.61546 0
M  V30 15181 H 1375.65 -2.94556 2.9503 0
M  V30 15182 H 1374.31 -2.70311 1.79895 0
M  V30 15183 H 1375.32 -1.00146 5.08125 0
M  V30 15184 H 1372 -2.72645 3.16182 0
M  V30 15185 H 1373.39 -0.734892 6.67869 0
M  V30 15186 N 1376.11 -1.55841 -0.234795 0
M  V30 15187 C 1377.36 -1.77438 -0.959094 0
M  V30 15188 C 1377.67 -0.604621 -1.86021 0
M  V30 15189 O 1378.88 -0.703897 -2.62217 0
M  V30 15190 C 1377.34 -3.14182 -1.7555 0
M  V30 15191 C 1376.94 -4.38843 -0.90118 0
M  V30 15192 C 1378.69 -3.45112 -2.47181 0
M  V30 15193 C 1376.59 -5.66614 -1.69417 0
M  V30 15194 H 1375.52 -0.661503 -0.361843 0
M  V30 15195 H 1378.18 -1.82255 -0.213364 0
M  V30 15196 H 1376.56 -3.03505 -2.54364 0
M  V30 15197 H 1377.73 -4.60541 -0.154515 0
M  V30 15198 H 1376.05 -4.15335 -0.297631 0
M  V30 15199 H 1378.64 -4.37794 -3.06986 0
M  V30 15200 H 1378.99 -2.66995 -3.19405 0
M  V30 15201 H 1379.52 -3.57059 -1.75368 0
M  V30 15202 H 1376.26 -6.47587 -1.01545 0
M  V30 15203 H 1375.78 -5.48998 -2.4158 0
M  V30 15204 H 1377.46 -6.06311 -2.25824 0
M  V30 15205 N 1377.59 0.500963 -1.49426 0
M  V30 15206 C 1378.87 1.26231 -1.49416 0
M  V30 15207 C 1379.25 2.0993 -0.221908 0
M  V30 15208 O 1378.59 2.14198 0.795712 0
M  V30 15209 C 1378.8 2.11899 -2.77308 0
M  V30 15210 C 1380.15 2.71086 -3.26799 0
M  V30 15211 O 1381.18 2.22166 -2.78425 0
M  V30 15212 O 1380.04 3.60141 -4.11049 0
M  V30 15213 H 1377.13 0.571224 -0.598024 0
M  V30 15214 H 1379.68 0.51523 -1.61689 0
M  V30 15215 H 1378.45 1.50027 -3.61397 0
M  V30 15216 H 1378.07 2.93799 -2.67896 0
M  V30 15217 N 1379.07 1.38501 0.752011 0
M  V30 15218 C 1380.31 1.34795 1.51118 0
M  V30 15219 C 1380.64 -0.0615084 1.94403 0
M  V30 15220 O 1379.9 -1.03892 1.65846 0
M  V30 15221 C 1380.2 2.25111 2.77596 0
M  V30 15222 C 1379.86 3.73052 2.53265 0
M  V30 15223 C 1378.52 4.13365 2.46339 0
M  V30 15224 C 1380.88 4.66692 2.32051 0
M  V30 15225 C 1378.2 5.45406 2.16216 0
M  V30 15226 C 1380.56 5.98992 2.03448 0
M  V30 15227 C 1379.22 6.38388 1.94979 0
M  V30 15228 H 1378.49 0.49325 0.552979 0
M  V30 15229 H 1381.14 1.70872 0.864588 0
M  V30 15230 H 1379.44 1.82096 3.46913 0
M  V30 15231 H 1381.14 2.19547 3.3556 0
M  V30 15232 H 1377.73 3.41091 2.59528 0
M  V30 15233 H 1381.91 4.36392 2.3638 0
M  V30 15234 H 1377.17 5.7487 2.08168 0
M  V30 15235 H 1381.34 6.71091 1.86037 0
M  V30 15236 H 1378.97 7.40625 1.71402 0
M  V30 15237 N 1380.55 -0.980364 1.23396 0
M  V30 15238 C 1381.79 -1.71826 1.06397 0
M  V30 15239 C 1382.11 -1.90854 -0.399958 0
M  V30 15240 O 1381.38 -1.47721 -1.28668 0
M  V30 15241 H 1379.96 -0.636669 0.390719 0
M  V30 15242 H 1382.63 -1.18008 1.55113 0
M  V30 15243 H 1381.72 -2.7078 1.55192 0
M  V30 15244 N 1382.02 -1.04567 -1.17913 0
M  V30 15245 C 1382.97 -0.611407 -2.19649 0
M  V30 15246 C 1383.96 0.348802 -1.57074 0
M  V30 15247 O 1385.15 0.167045 -1.7621 0
M  V30 15248 C 1382.28 0.0189379 -3.43295 0
M  V30 15249 C 1381.36 -0.96472 -4.12982 0
M  V30 15250 N 1381.76 -2.13371 -4.58592 0
M  V30 15251 C 1380.05 -0.791817 -4.38915 0
M  V30 15252 C 1380.75 -2.75549 -5.12296 0
M  V30 15253 N 1379.73 -2.0339 -5.04117 0
M  V30 15254 H 1383.53 -1.50217 -2.5261 0
M  V30 15255 H 1381.05 -0.914946 -1.34173 0
M  V30 15256 H 1383.04 0.347776 -4.15447 0
M  V30 15257 H 1381.7 0.905177 -3.11828 0
M  V30 15258 H 1382.71 -2.51236 -4.52881 0
M  V30 15259 H 1379.39 0.0439054 -4.17477 0
M  V30 15260 H 1380.78 -3.74647 -5.57754 0
M  V30 15261 N 1383.5 1.34231 -0.825823 0
M  V30 15262 C 1384.75 1.98196 -0.415276 0
M  V30 15263 C 1385.08 1.65463 1.02236 0
M  V30 15264 O 1384.33 0.919868 1.72734 0
M  V30 15265 C 1384.63 3.52861 -0.56778 0
M  V30 15266 C 1384.3 4.05512 -1.97157 0
M  V30 15267 C 1382.96 4.19602 -2.35557 0
M  V30 15268 C 1385.31 4.33798 -2.88909 0
M  V30 15269 C 1382.64 4.59307 -3.6504 0
M  V30 15270 C 1384.99 4.74949 -4.17859 0
M  V30 15271 C 1383.65 4.87245 -4.56233 0
M  V30 15272 H 1382.92 0.725251 -0.15196 0
M  V30 15273 H 1385.57 1.60126 -1.05033 0
M  V30 15274 H 1383.88 3.9151 0.15065 0
M  V30 15275 H 1385.57 4.00336 -0.230608 0
M  V30 15276 H 1382.16 3.9501 -1.66328 0
M  V30 15277 H 1386.35 4.22448 -2.60483 0
M  V30 15278 H 1381.6 4.67017 -3.94594 0
M  V30 15279 H 1385.78 4.95795 -4.8904 0
M  V30 15280 H 1383.4 5.17768 -5.56615 0
M  V30 15281 N 1384.98 0.581051 1.46498 0
M  V30 15282 C 1385.91 -0.140957 2.33074 0
M  V30 15283 C 1386.89 -0.885323 1.45245 0
M  V30 15284 O 1388.08 -0.86111 1.74065 0
M  V30 15285 C 1385.21 -1.15625 3.27488 0
M  V30 15286 C 1384.16 -0.526829 4.24745 0
M  V30 15287 C 1383.49 -1.64847 5.08655 0
M  V30 15288 C 1384.79 0.53492 5.19554 0
M  V30 15289 H 1386.48 0.581888 2.93691 0
M  V30 15290 H 1384.03 0.281278 1.41226 0
M  V30 15291 H 1385.98 -1.6697 3.8691 0
M  V30 15292 H 1384.7 -1.90935 2.64974 0
M  V30 15293 H 1383.36 -0.0344738 3.66584 0
M  V30 15294 H 1383.01 -2.3912 4.42528 0
M  V30 15295 H 1382.71 -1.23298 5.74518 0
M  V30 15296 H 1384.23 -2.16472 5.7094 0
M  V30 15297 H 1385.65 0.106606 5.73201 0
M  V30 15298 H 1384.04 0.870639 5.93751 0
M  V30 15299 H 1385.11 1.42184 4.63586 0
M  V30 15300 N 1386.46 -1.54343 0.318742 0
M  V30 15301 C 1387.73 -1.92635 -0.339299 0
M  V30 15302 C 1388.11 -1.24786 -1.7027 0
M  V30 15303 O 1387.46 -0.389844 -2.2515 0
M  V30 15304 C 1387.67 -3.46262 -0.436318 0
M  V30 15305 C 1389.02 -4.18809 -0.698871 0
M  V30 15306 O 1390.04 -3.52392 -0.519431 0
M  V30 15307 O 1388.9 -5.36422 -1.04471 0
M  V30 15308 H 1386 -0.804202 -0.192841 0
M  V30 15309 H 1388.54 -1.6566 0.368104 0
M  V30 15310 H 1387.32 -3.8781 0.521427 0
M  V30 15311 H 1386.94 -3.79327 -1.19149 0
M  V30 15312 N 1387.94 -0.0468143 -1.5753 0
M  V30 15313 C 1388.89 0.938619 -2.07783 0
M  V30 15314 C 1389.87 1.27454 -0.982057 0
M  V30 15315 O 1391.06 1.25769 -1.24544 0
M  V30 15316 C 1388.19 2.21499 -2.62285 0
M  V30 15317 C 1387.28 1.90665 -3.78824 0
M  V30 15318 N 1387.67 1.30174 -4.88762 0
M  V30 15319 C 1385.97 2.20559 -3.87646 0
M  V30 15320 C 1386.67 1.16872 -5.69838 0
M  V30 15321 N 1385.64 1.67016 -5.17307 0
M  V30 15322 H 1389.44 0.466179 -2.90179 0
M  V30 15323 H 1386.96 0.157752 -1.61632 0
M  V30 15324 H 1388.96 2.92987 -2.96588 0
M  V30 15325 H 1387.62 2.69353 -1.81326 0
M  V30 15326 H 1388.63 0.974495 -5.08649 0
M  V30 15327 H 1385.3 2.70964 -3.17623 0
M  V30 15328 H 1386.69 0.699463 -6.68249 0
M  V30 15329 N 1389.41 1.55964 0.226527 0
M  V30 15330 C 1390.36 1.92007 1.28069 0
M  V30 15331 C 1391.33 0.776666 1.46823 0
M  V30 15332 O 1392.52 1.03213 1.60474 0
M  V30 15333 C 1389.66 2.23784 2.62707 0
M  V30 15334 C 1388.77 3.51034 2.51792 0
M  V30 15335 C 1387.9 3.72281 3.7892 0
M  V30 15336 C 1386.94 4.93062 3.62707 0
M  V30 15337 N 1386.08 5.10725 4.81772 0
M  V30 15338 H 1390.92 2.81898 0.96631 0
M  V30 15339 H 1388.46 1.39529 0.465847 0
M  V30 15340 H 1390.42 2.40217 3.41104 0
M  V30 15341 H 1389.05 1.37073 2.92251 0
M  V30 15342 H 1388.1 3.42822 1.64856 0
M  V30 15343 H 1389.41 4.39582 2.35731 0
M  V30 15344 H 1388.56 3.88783 4.6576 0
M  V30 15345 H 1387.3 2.82004 3.97901 0
M  V30 15346 H 1386.31 4.76515 2.7425 0
M  V30 15347 H 1387.53 5.84819 3.45201 0
M  V30 15348 H 1385.48 4.2339 5.01076 0
M  V30 15349 H 1385.4 5.93397 4.68419 0
M  V30 15350 H 1386.66 5.31658 5.70053 0
M  V30 15351 N 1390.89 -0.493031 1.4969 0
M  V30 15352 C 1391.84 -1.59367 1.66945 0
M  V30 15353 C 1392.81 -1.58049 0.510842 0
M  V30 15354 O 1393.99 -1.75915 0.738822 0
M  V30 15355 C 1391.13 -2.97472 1.74941 0
M  V30 15356 C 1390.25 -3.08745 3.02159 0
M  V30 15357 C 1389.38 -4.37632 3.01085 0
M  V30 15358 C 1388.42 -4.42567 4.22849 0
M  V30 15359 N 1387.56 -5.62892 4.19639 0
M  V30 15360 H 1392.4 -1.4396 2.6092 0
M  V30 15361 H 1389.94 -0.700297 1.29361 0
M  V30 15362 H 1391.89 -3.7753 1.77558 0
M  V30 15363 H 1390.52 -3.11564 0.844252 0
M  V30 15364 H 1389.58 -2.217 3.09117 0
M  V30 15365 H 1390.89 -3.08251 3.92151 0
M  V30 15366 H 1390.04 -5.26018 3.02309 0
M  V30 15367 H 1388.78 -4.40702 2.08885 0
M  V30 15368 H 1387.79 -3.52581 4.21861 0
M  V30 15369 H 1389.01 -4.41205 5.1625 0
M  V30 15370 H 1386.96 -5.6679 3.30281 0
M  V30 15371 H 1386.87 -5.64048 5.03374 0
M  V30 15372 H 1388.14 -6.53464 4.24977 0
M  V30 15373 N 1392.37 -1.38898 -0.744656 0
M  V30 15374 C 1393.32 -1.36845 -1.85855 0
M  V30 15375 C 1394.29 -0.2296 -1.64505 0
M  V30 15376 O 1395.47 -0.423221 -1.86047 0
M  V30 15377 C 1392.61 -1.20818 -3.2326 0
M  V30 15378 C 1391.73 -2.44166 -3.5638 0
M  V30 15379 C 1390.86 -2.20801 -4.83136 0
M  V30 15380 C 1389.9 -3.39874 -5.0907 0
M  V30 15381 N 1389.04 -3.15888 -6.27024 0
M  V30 15382 H 1393.88 -2.32068 -1.86945 0
M  V30 15383 H 1391.41 -1.15289 -0.913611 0
M  V30 15384 H 1393.37 -1.0954 -4.02563 0
M  V30 15385 H 1392 -0.292295 -3.21474 0
M  V30 15386 H 1391.05 -2.66083 -2.71852 0
M  V30 15387 H 1392.37 -3.32885 -3.71469 0
M  V30 15388 H 1391.52 -2.0671 -5.704 0
M  V30 15389 H 1390.26 -1.29462 -4.70203 0
M  V30 15390 H 1389.26 -3.54474 -4.20271 0
M  V30 15391 H 1390.49 -4.32102 -5.23894 0
M  V30 15392 H 1388.43 -2.27204 -6.15398 0
M  V30 15393 H 1388.35 -3.9816 -6.42655 0
M  V30 15394 H 1389.62 -3.0547 -7.17153 0
M  V30 15395 N 1393.85 0.973806 -1.23914 0
M  V30 15396 C 1394.8 2.06734 -1.02614 0
M  V30 15397 C 1395.77 1.65997 0.0585705 0
M  V30 15398 O 1396.95 1.90564 -0.0948467 0
M  V30 15399 C 1394.09 3.39292 -0.630493 0
M  V30 15400 C 1393.2 3.9326 -1.78803 0
M  V30 15401 C 1392.34 5.14059 -1.33854 0
M  V30 15402 C 1391.38 5.60209 -2.46642 0
M  V30 15403 N 1390.51 6.72232 -2.02603 0
M  V30 15404 H 1395.35 2.24287 -1.96212 0
M  V30 15405 H 1392.89 1.09935 -0.977376 0
M  V30 15406 H 1394.85 4.15446 -0.382163 0
M  V30 15407 H 1393.48 3.21682 0.268483 0
M  V30 15408 H 1392.53 3.13801 -2.15019 0
M  V30 15409 H 1393.84 4.23475 -2.63573 0
M  V30 15410 H 1393 5.97567 -1.04873 0
M  V30 15411 H 1391.74 4.85513 -0.46131 0
M  V30 15412 H 1390.74 4.75278 -2.7639 0
M  V30 15413 H 1391.97 5.90771 -3.34912 0
M  V30 15414 H 1389.91 6.45433 -1.17269 0
M  V30 15415 H 1389.83 7.01865 -2.80929 0
M  V30 15416 H 1391.1 7.59198 -1.76745 0
M  V30 15417 N 1395.33 1.05191 1.17357 0
M  V30 15418 C 1396.57 0.761984 1.87617 0
M  V30 15419 C 1396.9 -0.710976 1.8104 0
M  V30 15420 O 1396.16 -1.53566 1.21309 0
M  V30 15421 C 1396.46 1.18779 3.37085 0
M  V30 15422 C 1396.12 2.66296 3.63864 0
M  V30 15423 C 1394.78 3.06594 3.70882 0
M  V30 15424 C 1397.14 3.61622 3.75339 0
M  V30 15425 C 1394.46 4.41081 3.86865 0
M  V30 15426 C 1396.82 4.95842 3.9284 0
M  V30 15427 C 1395.48 5.35793 3.98097 0
M  V30 15428 H 1394.75 0.27883 0.686538 0
M  V30 15429 H 1397.4 1.31899 1.38834 0
M  V30 15430 H 1395.7 0.549782 3.87923 0
M  V30 15431 H 1397.4 0.940667 3.89811 0
M  V30 15432 H 1393.99 2.34089 3.59027 0
M  V30 15433 H 1398.17 3.31628 3.69238 0
M  V30 15434 H 1393.43 4.71536 3.89183 0
M  V30 15435 H 1397.6 5.696 4.00661 0
M  V30 15436 H 1395.23 6.40009 4.10234 0
M  V30 15437 N 1396.8 -1.33791 0.83293 0
M  V30 15438 C 1398.05 -1.97582 0.42494 0
M  V30 15439 C 1398.37 -1.66328 -1.01784 0
M  V30 15440 O 1397.64 -0.959141 -1.70814 0
M  V30 15441 H 1396.22 -0.730923 0.154143 0
M  V30 15442 H 1398.89 -1.63257 1.06458 0
M  V30 15443 H 1397.98 -3.07177 0.552127 0
M  V30 15444 N 1398.28 -0.588812 -1.46187 0
M  V30 15445 C 1399.51 -0.0824104 -2.06436 0
M  V30 15446 C 1399.92 1.23054 -1.43716 0
M  V30 15447 O 1399.26 1.7562 -0.538825 0
M  V30 15448 C 1399.33 0.151307 -3.59181 0
M  V30 15449 C 1398.99 -1.07697 -4.44129 0
M  V30 15450 C 1399.99 -1.99053 -4.80285 0
M  V30 15451 C 1397.67 -1.30053 -4.85172 0
M  V30 15452 C 1399.67 -3.11108 -5.56319 0
M  V30 15453 C 1397.35 -2.42412 -5.60963 0
M  V30 15454 C 1398.35 -3.32769 -5.96451 0
M  V30 15455 O 1398.04 -4.43175 -6.70709 0
M  V30 15456 H 1397.77 -0.0573231 -0.673565 0
M  V30 15457 H 1400.32 -0.811012 -1.88711 0
M  V30 15458 H 1398.55 0.934591 -3.75236 0
M  V30 15459 H 1400.24 0.606973 -4.01336 0
M  V30 15460 H 1401.01 -1.83 -4.4915 0
M  V30 15461 H 1396.89 -0.606295 -4.56996 0
M  V30 15462 H 1400.43 -3.81659 -5.83937 0
M  V30 15463 H 1396.33 -2.58426 -5.91512 0
M  V30 15464 H 1397.1 -4.4162 -6.8914 0
M  V30 15465 N 1399.76 1.54172 -0.326923 0
M  V30 15466 C 1400.71 2.24454 0.537501 0
M  V30 15467 C 1401.68 1.23658 1.10896 0
M  V30 15468 O 1402.86 1.52348 1.14868 0
M  V30 15469 C 1400 3.00839 1.69085 0
M  V30 15470 C 1399.12 4.16459 1.1483 0
M  V30 15471 C 1398.25 4.80368 2.26761 0
M  V30 15472 C 1397.29 5.88085 1.69771 0
M  V30 15473 N 1396.43 6.45842 2.75378 0
M  V30 15474 H 1401.27 2.97921 -0.0684022 0
M  V30 15475 H 1398.8 1.4703 -0.0455287 0
M  V30 15476 H 1400.76 3.43375 2.36959 0
M  V30 15477 H 1399.39 2.297 2.26799 0
M  V30 15478 H 1398.44 3.78683 0.361004 0
M  V30 15479 H 1399.76 4.93986 0.69132 0
M  V30 15480 H 1398.91 5.25889 3.02533 0
M  V30 15481 H 1397.65 4.02228 2.75796 0
M  V30 15482 H 1396.65 5.41963 0.924985 0
M  V30 15483 H 1397.88 6.68123 1.21609 0
M  V30 15484 H 1395.82 5.70574 3.23699 0
M  V30 15485 H 1395.74 7.18792 2.34253 0
M  V30 15486 H 1397.01 6.96018 3.50969 0
M  V30 15487 N 1401.24 0.0551678 1.57503 0
M  V30 15488 C 1402.65 -0.3014 1.56728 0
M  V30 15489 C 1402.85 -1.71169 1.06317 0
M  V30 15490 O 1401.91 -2.4197 0.721566 0
M  V30 15491 C 1403.22 -0.12622 3.00435 0
M  V30 15492 C 1404.77 -0.197022 3.12379 0
M  V30 15493 C 1405.25 -0.0503235 4.57972 0
M  V30 15494 N 1406.74 -0.106471 4.63078 0
M  V30 15495 C 1407.47 -0.0171325 5.73397 0
M  V30 15496 N 1406.97 0.124781 6.92688 0
M  V30 15497 N 1408.76 -0.0730028 5.62053 0
M  V30 15498 H 1400.91 0.977072 1.88592 0
M  V30 15499 H 1403.18 0.37963 0.868668 0
M  V30 15500 H 1402.88 0.846286 3.41366 0
M  V30 15501 H 1402.76 -0.885574 3.66657 0
M  V30 15502 H 1405.14 -1.16 2.71345 0
M  V30 15503 H 1405.22 0.593155 2.48828 0
M  V30 15504 H 1404.87 0.909352 4.99693 0
M  V30 15505 H 1404.8 -0.859695 5.19535 0
M  V30 15506 H 1407.29 -0.215241 3.77287 0
M  V30 15507 H 1407.6 0.185548 7.72577 0
M  V30 15508 H 1405.95 0.15992 6.94816 0
M  V30 15509 H 1409.14 -0.182456 4.67744 0
M  V30 15510 H 1409.31 7.85052e-05 6.48 0
M  V30 15511 N 1402.72 -1.56081 -0.218252 0
M  V30 15512 C 1403.63 -1.95856 -1.29141 0
M  V30 15513 C 1404.64 -0.862857 -1.51099 0
M  V30 15514 O 1405.82 -1.1667 -1.64165 0
M  V30 15515 C 1402.88 -2.27005 -2.62049 0
M  V30 15516 C 1401.94 -3.50162 -2.48365 0
M  V30 15517 C 1401.18 -3.79815 -3.74935 0
M  V30 15518 O 1401.4 -3.11095 -4.78096 0
M  V30 15519 O 1400.33 -4.73299 -3.71849 0
M  V30 15520 H 1404.16 -2.8732 -0.983922 0
M  V30 15521 H 1401.75 -1.43334 -0.421385 0
M  V30 15522 H 1403.63 -2.4822 -3.40536 0
M  V30 15523 H 1402.3 -1.38715 -2.92472 0
M  V30 15524 H 1401.21 -3.34222 -1.68066 0
M  V30 15525 H 1402.54 -4.38845 -2.22881 0
M  V30 15526 N 1404.2 0.485086 -1.49949 0
M  V30 15527 C 1405.61 0.817651 -1.37064 0
M  V30 15528 C 1405.81 1.9716 -0.415949 0
M  V30 15529 O 1404.87 2.52074 0.146567 0
M  V30 15530 C 1406.18 1.14288 -2.78134 0
M  V30 15531 C 1407.73 1.25016 -2.8695 0
M  V30 15532 C 1408.2 1.60859 -4.28822 0
M  V30 15533 N 1409.69 1.67878 -4.31707 0
M  V30 15534 C 1410.43 1.97089 -5.38464 0
M  V30 15535 N 1409.93 2.24415 -6.55446 0
M  V30 15536 N 1411.72 1.98474 -5.25894 0
M  V30 15537 H 1403.87 -0.275606 -2.10604 0
M  V30 15538 H 1406.13 -0.0607486 -0.946052 0
M  V30 15539 H 1405.84 0.36817 -3.49768 0
M  V30 15540 H 1405.71 2.0825 -3.14502 0
M  V30 15541 H 1408.1 2.01556 -2.15544 0
M  V30 15542 H 1408.18 0.290664 -2.54143 0
M  V30 15543 H 1407.82 0.848639 -5.0076 0
M  V30 15544 H 1407.75 2.57936 -4.59104 0
M  V30 15545 H 1410.25 1.48856 -3.47347 0
M  V30 15546 H 1410.56 2.45938 -7.32622 0
M  V30 15547 H 1408.9 2.21837 -6.58645 0
M  V30 15548 H 1412.09 1.76612 -4.33504 0
M  V30 15549 H 1412.27 2.20904 -6.09184 0
M  V30 15550 N 1405.67 1.39291 0.737279 0
M  V30 15551 C 1406.92 1.36592 1.49901 0
M  V30 15552 C 1407.25 -0.0388812 1.94161 0
M  V30 15553 O 1406.53 -1.00337 1.66622 0
M  V30 15554 C 1406.81 2.33625 2.74028 0
M  V30 15555 C 1406.66 3.83037 2.35802 0
M  V30 15556 C 1407.98 2.28524 3.76118 0
M  V30 15557 H 1405.1 0.497482 0.543765 0
M  V30 15558 H 1407.74 1.70265 0.843193 0
M  V30 15559 H 1405.89 2.0504 3.29986 0
M  V30 15560 H 1407.57 4.22363 1.85493 0
M  V30 15561 H 1405.81 3.99924 1.68058 0
M  V30 15562 H 1406.48 4.46415 3.24681 0
M  V30 15563 H 1408.96 2.53794 3.29739 0
M  V30 15564 H 1407.83 2.98501 4.60639 0
M  V30 15565 H 1408.09 1.28949 4.22876 0
M  V30 15566 N 1407.15 -0.967221 1.24429 0
M  V30 15567 C 1408.56 -1.52488 1.07723 0
M  V30 15568 C 1408.91 -1.93031 -0.351191 0
M  V30 15569 O 1408.04 -1.77376 -1.23963 0
M  V30 15570 C 1408.63 -2.77107 1.94929 0
M  V30 15571 C 1407.19 -3.29227 1.82446 0
M  V30 15572 C 1406.34 -2.02133 1.89835 0
M  V30 15573 H 1409.29 -0.785465 1.37899 0
M  V30 15574 H 1409.31 -3.50459 1.48186 0
M  V30 15575 H 1408.82 -2.47567 2.98885 0
M  V30 15576 H 1406.92 -3.63617 0.813246 0
M  V30 15577 H 1407.04 -3.98095 2.66566 0
M  V30 15578 H 1405.4 -2.16867 1.3357 0
M  V30 15579 H 1406.18 -1.74958 2.95372 0
M  V30 15580 N 1408.63 -1.05812 -1.16797 0
M  V30 15581 C 1409.88 -0.771923 -1.8721 0
M  V30 15582 C 1410.2 0.701365 -1.81414 0
M  V30 15583 O 1409.46 1.5292 -1.22122 0
M  V30 15584 C 1409.76 -1.20565 -3.3645 0
M  V30 15585 C 1409.42 -2.68222 -3.62447 0
M  V30 15586 C 1408.09 -3.08556 -3.69251 0
M  V30 15587 C 1410.44 -3.63607 -3.73416 0
M  V30 15588 C 1407.77 -4.43126 -3.84521 0
M  V30 15589 C 1410.12 -4.97918 -3.90205 0
M  V30 15590 C 1408.78 -5.37897 -3.9525 0
M  V30 15591 H 1408.05 -0.282467 -0.68505 0
M  V30 15592 H 1410.7 -1.32633 -1.38133 0
M  V30 15593 H 1409 -0.570347 -3.87626 0
M  V30 15594 H 1410.7 -0.961326 -3.89306 0
M  V30 15595 H 1407.29 -2.3599 -3.5778 0
M  V30 15596 H 1411.48 -3.33581 -3.67474 0
M  V30 15597 H 1406.73 -4.73593 -3.86677 0
M  V30 15598 H 1410.91 -5.71716 -3.97635 0
M  V30 15599 H 1408.53 -6.42176 -4.06834 0
M  V30 15600 N 1410.11 1.33347 -0.840014 0
M  V30 15601 C 1411.35 1.98037 -0.43692 0
M  V30 15602 C 1411.69 1.66382 1.00154 0
M  V30 15603 O 1410.96 0.944311 1.70038 0
M  V30 15604 C 1411.24 3.54012 -0.65937 0
M  V30 15605 C 1411.1 3.9535 -2.14518 0
M  V30 15606 C 1412.42 4.39972 -0.106258 0
M  V30 15607 H 1409.54 0.719373 -0.160221 0
M  V30 15608 H 1412.18 1.57969 -1.05574 0
M  V30 15609 H 1410.33 3.88274 -0.132633 0
M  V30 15610 H 1412 3.7134 -2.73687 0
M  V30 15611 H 1410.24 3.4504 -2.62926 0
M  V30 15612 H 1410.91 5.03992 -2.25158 0
M  V30 15613 H 1413.39 4.12362 -0.556511 0
M  V30 15614 H 1412.27 5.48125 -0.291583 0
M  V30 15615 H 1412.53 4.30872 0.990032 0
M  V30 15616 N 1411.59 0.596556 1.45873 0
M  V30 15617 C 1412.52 -0.116229 2.33211 0
M  V30 15618 C 1413.5 -0.869868 1.46176 0
M  V30 15619 O 1414.68 -0.842599 1.74968 0
M  V30 15620 C 1411.81 -1.12145 3.28696 0
M  V30 15621 C 1410.77 -0.481749 4.2528 0
M  V30 15622 C 1410.09 -1.59443 5.10374 0
M  V30 15623 C 1411.39 0.589996 5.18957 0
M  V30 15624 H 1413.09 0.613005 2.93057 0
M  V30 15625 H 1410.63 0.296242 1.4092 0
M  V30 15626 H 1412.58 -1.62857 3.88659 0
M  V30 15627 H 1411.31 -1.88114 2.66985 0
M  V30 15628 H 1409.97 0.0044092 3.666 0
M  V30 15629 H 1409.62 -2.34413 4.45039 0
M  V30 15630 H 1409.32 -1.17197 5.75794 0
M  V30 15631 H 1410.84 -2.10404 5.73204 0
M  V30 15632 H 1412.25 0.167395 5.73056 0
M  V30 15633 H 1410.65 0.933565 5.92794 0
M  V30 15634 H 1411.72 1.47093 4.62052 0
M  V30 15635 N 1413.06 -1.53996 0.335095 0
M  V30 15636 C 1414.29 -2.05188 -0.26563 0
M  V30 15637 C 1414.71 -1.21058 -1.44881 0
M  V30 15638 O 1414.06 -0.243919 -1.80863 0
M  V30 15639 C 1414.11 -3.54875 -0.688904 0
M  V30 15640 O 1413.84 -4.35811 0.447217 0
M  V30 15641 C 1415.34 -4.22204 -1.35123 0
M  V30 15642 H 1412.56 -0.668921 -0.0527806 0
M  V30 15643 H 1415.1 -1.98675 0.48463 0
M  V30 15644 H 1413.26 -3.61638 -1.38912 0
M  V30 15645 H 1413.67 -5.24381 0.111495 0
M  V30 15646 H 1415.14 -5.28356 -1.59823 0
M  V30 15647 H 1415.62 -3.74029 -2.30216 0
M  V30 15648 H 1416.23 -4.19611 -0.693283 0
M  V30 15649 N 1414.54 -0.0635198 -1.57472 0
M  V30 15650 C 1415.47 0.93602 -2.09216 0
M  V30 15651 C 1416.49 1.2668 -1.02255 0
M  V30 15652 O 1417.68 1.22543 -1.2979 0
M  V30 15653 C 1414.78 2.25417 -2.53062 0
M  V30 15654 C 1413.95 2.10347 -3.83501 0
M  V30 15655 C 1413.01 3.25394 -4.13528 0
M  V30 15656 O 1412.03 3.00751 -4.83257 0
M  V30 15657 N 1413.24 4.50243 -3.66417 0
M  V30 15658 H 1416 0.494288 -2.95596 0
M  V30 15659 H 1413.56 0.122416 -1.61437 0
M  V30 15660 H 1415.55 3.01272 -2.70217 0
M  V30 15661 H 1414.12 2.61116 -1.71864 0
M  V30 15662 H 1413.34 1.19009 -3.75807 0
M  V30 15663 H 1414.63 1.97519 -4.68896 0
M  V30 15664 H 1414.03 4.73152 -3.1007 0
M  V30 15665 H 1412.59 5.23152 -3.88787 0
M  V30 15666 N 1416.02 1.56195 0.209972 0
M  V30 15667 C 1417.3 1.70553 0.957653 0
M  V30 15668 C 1417.68 0.614091 2.01971 0
M  V30 15669 O 1417.02 -0.377192 2.25365 0
M  V30 15670 C 1417.23 3.12314 1.55759 0
M  V30 15671 C 1418.58 3.72085 2.04543 0
M  V30 15672 O 1419.61 3.15349 1.65631 0
M  V30 15673 O 1418.47 4.71627 2.76099 0
M  V30 15674 H 1415.56 0.695077 0.448104 0
M  V30 15675 H 1418.11 1.68507 0.20084 0
M  V30 15676 H 1416.88 3.83215 0.791302 0
M  V30 15677 H 1416.5 3.18526 2.37964 0
M  V30 15678 N 1417.5 -0.477127 1.50204 0
M  V30 15679 C 1418.74 -1.22964 1.60891 0
M  V30 15680 C 1419.07 -1.9207 0.306464 0
M  V30 15681 O 1418.33 -1.82472 -0.707272 0
M  V30 15682 C 1418.63 -2.30126 2.73453 0
M  V30 15683 C 1418.29 -1.78314 4.14143 0
M  V30 15684 C 1416.95 -1.63904 4.52425 0
M  V30 15685 C 1419.31 -1.3981 5.02098 0
M  V30 15686 C 1416.63 -1.09404 5.76409 0
M  V30 15687 C 1418.99 -0.867538 6.26623 0
M  V30 15688 C 1417.65 -0.710022 6.63713 0
M  V30 15689 H 1416.92 -0.449959 0.588743 0
M  V30 15690 H 1419.57 -0.526592 1.84118 0
M  V30 15691 H 1417.87 -3.06315 2.44291 0
M  V30 15692 H 1419.57 -2.88099 2.78927 0
M  V30 15693 H 1416.16 -1.90496 3.83939 0
M  V30 15694 H 1420.34 -1.49779 4.73159 0
M  V30 15695 H 1415.6 -0.959413 6.03825 0
M  V30 15696 H 1419.77 -0.560496 6.94141 0
M  V30 15697 H 1417.4 -0.285555 7.59663 0
M  V30 15698 N 1418.98 -1.3968 -0.729882 0
M  V30 15699 C 1419.91 -1.41549 -1.85704 0
M  V30 15700 C 1420.89 -0.278186 -1.6781 0
M  V30 15701 O 1422.07 -0.484749 -1.88053 0
M  V30 15702 C 1419.2 -1.26327 -3.2351 0
M  V30 15703 C 1418.16 -2.37511 -3.56051 0
M  V30 15704 C 1417.48 -2.07375 -4.92849 0
M  V30 15705 C 1418.78 -3.79833 -3.58502 0
M  V30 15706 H 1420.48 -2.35877 -1.84398 0
M  V30 15707 H 1418.02 -1.13536 -0.885747 0
M  V30 15708 H 1419.98 -1.26254 -4.02042 0
M  V30 15709 H 1418.7 -0.284697 -3.25357 0
M  V30 15710 H 1417.36 -2.36809 -2.79852 0
M  V30 15711 H 1417.01 -1.07943 -4.91281 0
M  V30 15712 H 1416.71 -2.81855 -5.15588 0
M  V30 15713 H 1418.23 -2.08961 -5.73731 0
M  V30 15714 H 1419.64 -3.82436 -4.27101 0
M  V30 15715 H 1418.04 -4.53715 -3.92763 0
M  V30 15716 H 1419.11 -4.10443 -2.58195 0
M  V30 15717 N 1420.45 0.960609 -1.2494 0
M  V30 15718 C 1421.7 1.69884 -1.08731 0
M  V30 15719 C 1422.02 1.92018 0.372602 0
M  V30 15720 O 1423.22 2.6348 0.655018 0
M  V30 15721 C 1421.68 3.05815 -1.8975 0
M  V30 15722 C 1421.29 2.91498 -3.40196 0
M  V30 15723 C 1423.03 3.83462 -1.82092 0
M  V30 15724 C 1420.94 4.22783 -4.13532 0
M  V30 15725 H 1419.87 0.637087 -0.403281 0
M  V30 15726 H 1422.52 1.06987 -1.49084 0
M  V30 15727 H 1420.9 3.69582 -1.42216 0
M  V30 15728 H 1422.07 2.367 -3.9536 0
M  V30 15729 H 1420.39 2.27312 -3.48882 0
M  V30 15730 H 1422.99 4.8069 -2.34181 0
M  V30 15731 H 1423.33 4.08782 -0.787597 0
M  V30 15732 H 1423.86 3.26435 -2.27344 0
M  V30 15733 H 1420.6 4.02653 -5.17253 0
M  V30 15734 H 1420.12 4.77369 -3.63152 0
M  V30 15735 H 1421.8 4.91361 -4.2092 0
M  V30 15736 N 1421.93 1.0643 1.16234 0
M  V30 15737 C 1423.18 0.782998 1.87075 0
M  V30 15738 C 1423.51 -0.688852 1.81572 0
M  V30 15739 O 1422.79 -1.50478 1.23234 0
M  V30 15740 C 1423.07 1.27997 3.36584 0
M  V30 15741 C 1422.92 2.81568 3.5077 0
M  V30 15742 C 1424.24 0.888975 4.31028 0
M  V30 15743 H 1421.36 0.28591 0.679282 0
M  V30 15744 H 1424 1.32046 1.36615 0
M  V30 15745 H 1422.15 0.822756 3.79688 0
M  V30 15746 H 1423.82 3.35508 3.16595 0
M  V30 15747 H 1422.07 3.2023 2.92635 0
M  V30 15748 H 1422.74 3.11406 4.55774 0
M  V30 15749 H 1425.21 1.28279 3.95833 0
M  V30 15750 H 1424.09 1.26416 5.34144 0
M  V30 15751 H 1424.35 -0.205973 4.4162 0
M  V30 15752 N 1423.41 -1.329 0.847073 0
M  V30 15753 C 1424.66 -1.96774 0.443022 0
M  V30 15754 C 1424.97 -1.67813 -1.0049 0
M  V30 15755 O 1426.18 -2.25366 -1.51402 0
M  V30 15756 C 1424.63 -3.52184 0.741268 0
M  V30 15757 C 1424.24 -3.90013 2.20441 0
M  V30 15758 C 1425.99 -4.22568 0.404569 0
M  V30 15759 C 1423.89 -5.38434 2.44627 0
M  V30 15760 H 1422.82 -0.736406 0.161932 0
M  V30 15761 H 1425.47 -1.51402 1.0368 0
M  V30 15762 H 1423.86 -3.95925 0.0770158 0
M  V30 15763 H 1425.03 -3.57304 2.90982 0
M  V30 15764 H 1423.35 -3.32633 2.50489 0
M  V30 15765 H 1425.94 -5.3173 0.562795 0
M  V30 15766 H 1426.29 -4.11144 -0.653172 0
M  V30 15767 H 1426.82 -3.84384 1.0244 0
M  V30 15768 H 1423.56 -5.5487 3.48997 0
M  V30 15769 H 1423.08 -5.72575 1.78656 0
M  V30 15770 H 1424.76 -6.05423 2.28194 0
M  V30 15771 N 1424.89 -0.604284 -1.45555 0
M  V30 15772 C 1426.11 -0.102634 -2.07146 0
M  V30 15773 C 1426.54 1.20239 -1.44652 0
M  V30 15774 O 1425.9 1.73133 -0.538033 0
M  V30 15775 C 1425.94 0.0270231 -3.6059 0
M  V30 15776 O 1425.05 1.0781 -3.98059 0
M  V30 15777 H 1424.39 -0.0725667 -0.660023 0
M  V30 15778 H 1426.92 -0.833355 -1.86859 0
M  V30 15779 H 1426.93 0.226299 -4.07372 0
M  V30 15780 H 1425.6 -0.925896 -4.05463 0
M  V30 15781 H 1424.18 0.855552 -3.62953 0
M  V30 15782 N 1426.37 1.53816 -0.343257 0
M  V30 15783 C 1427.31 2.25011 0.513664 0
M  V30 15784 C 1428.28 1.24827 1.09578 0
M  V30 15785 O 1429.47 1.53558 1.13245 0
M  V30 15786 C 1426.61 3.02616 1.65885 0
M  V30 15787 C 1425.72 4.17653 1.10406 0
M  V30 15788 C 1424.86 4.82746 2.21653 0
M  V30 15789 C 1423.9 5.89853 1.63524 0
M  V30 15790 N 1423.03 6.48726 2.68512 0
M  V30 15791 H 1427.87 2.97832 -0.099997 0
M  V30 15792 H 1425.41 1.46973 -0.0611206 0
M  V30 15793 H 1427.37 3.45868 2.33304 0
M  V30 15794 H 1426 2.32092 2.2435 0
M  V30 15795 H 1425.05 3.79045 0.320819 0
M  V30 15796 H 1426.36 4.94691 0.638887 0
M  V30 15797 H 1425.52 5.29068 2.96938 0
M  V30 15798 H 1424.25 4.05131 2.71515 0
M  V30 15799 H 1423.26 5.42914 0.86745 0
M  V30 15800 H 1424.48 6.69375 1.14515 0
M  V30 15801 H 1422.43 5.73975 3.17629 0
M  V30 15802 H 1422.35 7.21236 2.26616 0
M  V30 15803 H 1423.62 6.99701 3.43567 0
M  V30 15804 N 1427.84 0.0718701 1.57436 0
M  V30 15805 C 1429.09 -0.596052 1.9311 0
M  V30 15806 C 1429.41 -1.70146 0.952652 0
M  V30 15807 O 1428.68 -1.959 0.000812941 0
M  V30 15808 H 1427.26 -0.223165 0.712886 0
M  V30 15809 H 1429.93 0.129744 1.94468 0
M  V30 15810 H 1429.02 -1.02132 2.94916 0
M  V30 15811 N 1429.32 -1.56304 -0.201686 0
M  V30 15812 C 1430.29 -1.93171 -1.2336 0
M  V30 15813 C 1431.29 -0.812164 -1.38782 0
M  V30 15814 O 1432.48 -1.07967 -1.36707 0
M  V30 15815 C 1429.61 -2.19997 -2.60411 0
M  V30 15816 H 1430.8 -2.85483 -0.918654 0
M  V30 15817 H 1428.35 -1.49893 -0.442935 0
M  V30 15818 H 1429.09 -1.30301 -2.96972 0
M  V30 15819 H 1428.87 -3.01574 -2.5059 0
M  V30 15820 H 1430.36 -2.49547 -3.34838 0
M  V30 15821 N 1430.8 0.469154 -1.50455 0
M  V30 15822 C 1431.73 1.58443 -1.65615 0
M  V30 15823 C 1432.75 1.53668 -0.537584 0
M  V30 15824 O 1433.93 1.59021 -0.810832 0
M  V30 15825 C 1431.03 2.97327 -1.62634 0
M  V30 15826 C 1430.21 3.2695 -2.90555 0
M  V30 15827 C 1429.27 4.45398 -2.80191 0
M  V30 15828 O 1428.29 4.45611 -3.54146 0
M  V30 15829 N 1429.49 5.47167 -1.93878 0
M  V30 15830 H 1432.26 1.45854 -2.61814 0
M  V30 15831 H 1429.82 0.657604 -1.47943 0
M  V30 15832 H 1431.81 3.74537 -1.53311 0
M  V30 15833 H 1430.38 3.03675 -0.741624 0
M  V30 15834 H 1429.6 2.38335 -3.13991 0
M  V30 15835 H 1430.89 3.43554 -3.75297 0
M  V30 15836 H 1430.29 5.49817 -1.33109 0
M  V30 15837 H 1428.85 6.23353 -1.90457 0
M  V30 15838 N 1432.28 1.40065 0.722464 0
M  V30 15839 C 1433.19 1.42086 1.86678 0
M  V30 15840 C 1434.2 0.314223 1.71139 0
M  V30 15841 O 1435.38 0.55771 1.93524 0
M  V30 15842 C 1432.45 1.27498 3.22405 0
M  V30 15843 C 1431.51 2.48243 3.50248 0
M  V30 15844 C 1430.74 2.34342 4.79499 0
M  V30 15845 O 1430.96 1.35355 5.54108 0
M  V30 15846 O 1429.9 3.23579 5.07523 0
M  V30 15847 H 1433.72 2.38571 1.87929 0
M  V30 15848 H 1431.31 1.21314 0.871968 0
M  V30 15849 H 1433.19 1.21543 4.03491 0
M  V30 15850 H 1431.86 0.341141 3.21897 0
M  V30 15851 H 1430.77 2.59775 2.69199 0
M  V30 15852 H 1432.1 3.40364 3.55547 0
M  V30 15853 N 1433.76 -0.95397 1.25448 0
M  V30 15854 C 1435 -1.71348 1.11441 0
M  V30 15855 C 1435.36 -1.88988 -0.338748 0
M  V30 15856 O 1436.56 -2.62003 -0.600652 0
M  V30 15857 C 1434.83 -3.05874 1.84867 0
M  V30 15858 S 1436.39 -3.97072 1.86759 0
M  V30 15859 H 1433.21 -0.588957 0.39831 0
M  V30 15860 H 1435.81 -1.13776 1.58982 0
M  V30 15861 H 1434.52 -2.90706 2.89686 0
M  V30 15862 H 1434.05 -3.68508 1.37715 0
M  V30 15863 H 1436.06 -4.87116 0.945109 0
M  V30 15864 N 1435.24 -1.07045 -1.15668 0
M  V30 15865 C 1436.46 -0.812746 -1.90268 0
M  V30 15866 C 1436.88 0.633722 -1.77847 0
M  V30 15867 O 1436.24 1.43444 -1.12828 0
M  V30 15868 C 1436.29 -1.20793 -3.40722 0
M  V30 15869 O 1436.01 -2.59764 -3.52781 0
M  V30 15870 C 1437.51 -0.979074 -4.32353 0
M  V30 15871 H 1434.73 -0.294093 -0.603117 0
M  V30 15872 H 1437.27 -1.42609 -1.46571 0
M  V30 15873 H 1435.43 -0.638975 -3.82094 0
M  V30 15874 H 1435.84 -2.75801 -4.46133 0
M  V30 15875 H 1437.32 -1.30513 -5.36349 0
M  V30 15876 H 1437.79 0.0847752 -4.39118 0
M  V30 15877 H 1438.4 -1.53278 -3.96719 0
M  V30 15878 N 1436.71 1.32449 -0.85411 0
M  V30 15879 C 1437.66 2.2889 -0.296341 0
M  V30 15880 C 1438.63 1.55024 0.596378 0
M  V30 15881 O 1439.82 1.8325 0.531406 0
M  V30 15882 C 1436.96 3.41315 0.509729 0
M  V30 15883 C 1436.07 4.30062 -0.40872 0
M  V30 15884 C 1435.2 5.29616 0.409928 0
M  V30 15885 C 1434.24 6.10005 -0.505953 0
M  V30 15886 N 1433.38 7.01559 0.275483 0
M  V30 15887 H 1438.22 2.75989 -1.12401 0
M  V30 15888 H 1435.76 1.35787 -0.565717 0
M  V30 15889 H 1437.71 4.05218 0.992697 0
M  V30 15890 H 1436.34 2.95367 1.30223 0
M  V30 15891 H 1435.4 3.66745 -1.01007 0
M  V30 15892 H 1436.71 4.86255 -1.11165 0
M  V30 15893 H 1435.86 5.99119 0.956083 0
M  V30 15894 H 1434.6 4.74039 1.14623 0
M  V30 15895 H 1433.61 5.39406 -1.064 0
M  V30 15896 H 1434.83 6.67667 -1.24086 0
M  V30 15897 H 1432.78 6.48412 0.994887 0
M  V30 15898 H 1432.69 7.55102 -0.368426 0
M  V30 15899 H 1433.96 7.75349 0.803382 0
M  V30 15900 N 1438.19 0.611994 1.45232 0
M  V30 15901 C 1439.42 0.115409 2.06578 0
M  V30 15902 C 1439.83 -1.20206 1.45588 0
M  V30 15903 O 1439.19 -1.73315 0.571668 0
M  V30 15904 C 1439.24 -0.0259943 3.61491 0
M  V30 15905 O 1438.96 1.23936 4.20204 0
M  V30 15906 C 1440.46 -0.553522 4.39831 0
M  V30 15907 H 1437.68 0.0708656 0.667247 0
M  V30 15908 H 1440.23 0.840977 1.86408 0
M  V30 15909 H 1438.38 -0.701909 3.80988 0
M  V30 15910 H 1438.8 1.07187 5.13431 0
M  V30 15911 H 1440.27 -0.601536 5.48713 0
M  V30 15912 H 1440.75 -1.57671 4.09923 0
M  V30 15913 H 1441.35 0.0884954 4.25208 0
M  V30 15914 N 1439.67 -1.53632 0.351409 0
M  V30 15915 C 1441.09 -1.596 -0.000214515 0
M  V30 15916 C 1441.29 -1.36709 -1.4803 0
M  V30 15917 O 1440.34 -1.16524 -2.24006 0
M  V30 15918 C 1441.65 -2.97419 0.443013 0
M  V30 15919 C 1443.2 -3.10485 0.396025 0
M  V30 15920 C 1443.68 -4.50693 0.814843 0
M  V30 15921 N 1445.17 -4.56766 0.76934 0
M  V30 15922 C 1445.9 -5.63418 1.06526 0
M  V30 15923 N 1445.4 -6.77887 1.42974 0
M  V30 15924 N 1447.19 -5.53331 0.988986 0
M  V30 15925 H 1439.34 -1.66765 1.31542 0
M  V30 15926 H 1441.61 -0.781418 0.53674 0
M  V30 15927 H 1441.31 -3.19262 1.47529 0
M  V30 15928 H 1441.19 -3.76781 -0.177725 0
M  V30 15929 H 1443.57 -2.8836 -0.627092 0
M  V30 15930 H 1443.65 -2.33163 1.05207 0
M  V30 15931 H 1443.3 -4.73554 1.83601 0
M  V30 15932 H 1443.23 -5.26424 0.136193 0
M  V30 15933 H 1445.72 -3.74569 0.500623 0
M  V30 15934 H 1446.03 -7.55194 1.64018 0
M  V30 15935 H 1444.38 -6.79314 1.46827 0
M  V30 15936 H 1447.57 -4.62783 0.703526 0
M  V30 15937 H 1447.74 -6.36355 1.22295 0
M  V30 15938 N 1441.15 -0.0802183 -1.57396 0
M  V30 15939 C 1442.06 0.898597 -2.16708 0
M  V30 15940 C 1443.07 1.321 -1.1325 0
M  V30 15941 O 1444.25 1.39197 -1.45554 0
M  V30 15942 C 1441.31 2.14501 -2.72379 0
M  V30 15943 C 1440.38 1.77822 -3.9074 0
M  V30 15944 C 1439.61 2.96521 -4.43747 0
M  V30 15945 O 1439.83 4.10797 -3.9573 0
M  V30 15946 O 1438.77 2.75849 -5.34968 0
M  V30 15947 H 1442.59 0.424027 -3.00725 0
M  V30 15948 H 1440.18 0.14332 -1.48711 0
M  V30 15949 H 1442.06 2.87575 -3.08024 0
M  V30 15950 H 1440.73 2.61039 -1.91416 0
M  V30 15951 H 1439.64 1.01974 -3.59934 0
M  V30 15952 H 1440.97 1.36059 -4.73021 0
M  V30 15953 N 1442.63 1.56409 0.193394 0
M  V30 15954 C 1443.87 1.80724 0.913521 0
M  V30 15955 C 1444.2 0.653718 1.83185 0
M  V30 15956 O 1443.46 -0.360417 1.92353 0
M  V30 15957 C 1443.75 3.11039 1.76039 0
M  V30 15958 C 1443.42 4.39832 0.992892 0
M  V30 15959 C 1442.08 4.7482 0.780991 0
M  V30 15960 C 1444.43 5.19228 0.452985 0
M  V30 15961 C 1441.76 5.86697 0.0177286 0
M  V30 15962 C 1444.11 6.31902 -0.297075 0
M  V30 15963 C 1442.78 6.65472 -0.519977 0
M  V30 15964 H 1442.05 0.661315 0.334281 0
M  V30 15965 H 1444.7 1.90654 0.179786 0
M  V30 15966 H 1443 2.96353 2.56285 0
M  V30 15967 H 1444.7 3.27058 2.32022 0
M  V30 15968 H 1441.29 4.12376 1.16806 0
M  V30 15969 H 1445.47 4.9261 0.604092 0
M  V30 15970 H 1440.73 6.11178 -0.164925 0
M  V30 15971 H 1444.9 6.92639 -0.7228 0
M  V30 15972 H 1442.53 7.52004 -1.11331 0
M  V30 15973 N 1444.1 -0.461169 1.50702 0
M  V30 15974 C 1445.01 -1.58355 1.73092 0
M  V30 15975 C 1446.03 -1.62795 0.61431 0
M  V30 15976 O 1447.21 -1.8048 0.893806 0
M  V30 15977 C 1444.27 -2.94509 1.82936 0
M  V30 15978 C 1443.33 -3.00378 3.06711 0
M  V30 15979 C 1442.56 -4.30037 3.16076 0
M  V30 15980 O 1442.79 -5.21097 2.31978 0
M  V30 15981 O 1441.72 -4.41702 4.08881 0
M  V30 15982 H 1445.55 -1.42384 2.68255 0
M  V30 15983 H 1443.13 -0.641709 1.34916 0
M  V30 15984 H 1445.01 -3.75357 1.91534 0
M  V30 15985 H 1443.69 -3.10658 0.909581 0
M  V30 15986 H 1442.6 -2.18571 3.03608 0
M  V30 15987 H 1443.93 -2.89167 3.983 0
M  V30 15988 N 1445.58 -1.40446 -0.715026 0
M  V30 15989 C 1447 -1.22488 -1.02317 0
M  V30 15990 C 1447.2 -0.100481 -2.01249 0
M  V30 15991 O 1446.25 0.541447 -2.46626 0
M  V30 15992 C 1447.57 -2.56682 -1.56636 0
M  V30 15993 C 1449.11 -2.63699 -1.68617 0
M  V30 15994 C 1449.59 -3.98163 -2.26342 0
M  V30 15995 N 1451.08 -3.99907 -2.33727 0
M  V30 15996 C 1451.82 -5.00737 -2.79375 0
M  V30 15997 N 1451.31 -6.11961 -3.24771 0
M  V30 15998 N 1453.1 -4.88106 -2.78764 0
M  V30 15999 H 1445.26 -2.12317 -0.0592712 0
M  V30 16000 H 1447.52 -0.943823 -0.088895 0
M  V30 16001 H 1447.22 -3.39615 -0.914036 0
M  V30 16002 H 1447.1 -2.77809 -2.55151 0
M  V30 16003 H 1449.49 -1.81138 -2.32966 0
M  V30 16004 H 1449.57 -2.46402 -0.687004 0
M  V30 16005 H 1449.21 -4.81164 -1.62614 0
M  V30 16006 H 1449.14 -4.1279 -3.26974 0
M  V30 16007 H 1451.63 -3.19592 -2.01666 0
M  V30 16008 H 1451.94 -6.84787 -3.58171 0
M  V30 16009 H 1450.29 -6.15525 -3.22729 0
M  V30 16010 H 1453.48 -4.00307 -2.42635 0
M  V30 16011 H 1453.65 -5.66828 -3.14023 0
M  V30 16012 N 1447.06 0.947303 -1.25952 0
M  V30 16013 C 1448.31 1.69279 -1.11135 0
M  V30 16014 C 1448.63 1.9139 0.346407 0
M  V30 16015 O 1447.89 1.48786 1.27126 0
M  V30 16016 C 1448.19 3.07652 -1.81892 0
M  V30 16017 C 1447.85 3.05317 -3.31802 0
M  V30 16018 C 1446.52 3.04387 -3.72695 0
M  V30 16019 C 1448.87 2.98088 -4.27543 0
M  V30 16020 C 1446.2 2.93987 -5.07729 0
M  V30 16021 C 1448.55 2.89229 -5.62609 0
M  V30 16022 C 1447.21 2.86639 -6.02822 0
M  V30 16023 H 1446.48 0.619435 -0.40667 0
M  V30 16024 H 1449.13 1.10621 -1.56318 0
M  V30 16025 H 1447.43 3.69898 -1.29161 0
M  V30 16026 H 1449.13 3.6417 -1.67873 0
M  V30 16027 H 1445.72 3.06817 -2.99268 0
M  V30 16028 H 1449.91 2.9792 -3.96935 0
M  V30 16029 H 1445.16 2.90355 -5.38056 0
M  V30 16030 H 1449.34 2.82598 -6.36483 0
M  V30 16031 H 1446.96 2.78336 -7.07413 0
M  V30 16032 N 1448.54 1.07657 1.15099 0
M  V30 16033 C 1449.47 0.657598 2.19564 0
M  V30 16034 C 1450.48 -0.29146 1.6017 0
M  V30 16035 O 1451.67 -0.0802981 1.78319 0
M  V30 16036 C 1448.77 -0.0542221 3.38857 0
M  V30 16037 C 1447.95 0.911803 4.27791 0
M  V30 16038 C 1447 0.236709 5.25667 0
M  V30 16039 O 1446.03 0.878731 5.62376 0
M  V30 16040 N 1447.23 -1.01641 5.71532 0
M  V30 16041 H 1450 1.55626 2.56126 0
M  V30 16042 H 1447.56 0.961657 1.30245 0
M  V30 16043 H 1449.55 -0.516603 4.01389 0
M  V30 16044 H 1448.12 -0.854871 3.00684 0
M  V30 16045 H 1447.34 1.55322 3.6231 0
M  V30 16046 H 1448.63 1.56667 4.8408 0
M  V30 16047 H 1448.03 -1.55791 5.43825 0
M  V30 16048 H 1446.58 -1.42242 6.3609 0
M  V30 16049 N 1450.02 -1.31994 0.861122 0
M  V30 16050 C 1450.93 -2.32495 0.313555 0
M  V30 16051 C 1451.94 -1.64331 -0.571966 0
M  V30 16052 O 1453.12 -1.9582 -0.470794 0
M  V30 16053 C 1450.18 -3.43311 -0.483603 0
M  V30 16054 C 1449.24 -4.27153 0.428825 0
M  V30 16055 C 1448.48 -5.32676 -0.330383 0
M  V30 16056 O 1448.7 -5.48665 -1.55957 0
M  V30 16057 O 1447.63 -6.01116 0.307174 0
M  V30 16058 H 1451.46 -2.81234 1.14636 0
M  V30 16059 H 1449.05 -1.35734 0.624239 0
M  V30 16060 H 1450.93 -4.10877 -0.935831 0
M  V30 16061 H 1449.6 -2.9675 -1.2931 0
M  V30 16062 H 1448.51 -3.62372 0.929366 0
M  V30 16063 H 1449.84 -4.77255 1.20368 0
M  V30 16064 N 1451.49 -0.619688 -1.44906 0
M  V30 16065 C 1452.43 0.141137 -2.27763 0
M  V30 16066 C 1453.41 0.862176 -1.3786 0
M  V30 16067 O 1454.59 0.868593 -1.67295 0
M  V30 16068 C 1451.72 1.20547 -3.16522 0
M  V30 16069 C 1450.76 0.586228 -4.22452 0
M  V30 16070 S 1451.6 -0.615067 -5.31956 0
M  V30 16071 C 1452.75 0.449556 -6.24283 0
M  V30 16072 H 1452.98 -0.561806 -2.91944 0
M  V30 16073 H 1450.52 -0.407535 -1.48925 0
M  V30 16074 H 1452.48 1.81463 -3.68214 0
M  V30 16075 H 1451.14 1.88054 -2.51584 0
M  V30 16076 H 1450.33 1.38744 -4.84527 0
M  V30 16077 H 1449.93 0.0519375 -3.73964 0
M  V30 16078 H 1452.22 1.32531 -6.64411 0
M  V30 16079 H 1453.17 -0.135328 -7.07971 0
M  V30 16080 H 1453.57 0.770319 -5.59219 0
M  V30 16081 N 1452.97 1.53444 -0.359552 0
M  V30 16082 C 1454.21 2.03077 0.232169 0
M  V30 16083 C 1454.58 1.24125 1.46482 0
M  V30 16084 O 1455.78 1.63735 2.13177 0
M  V30 16085 C 1454.05 3.53554 0.522891 0
M  V30 16086 S 1455.61 4.25068 1.08914 0
M  V30 16087 H 1452.43 0.707738 0.0680317 0
M  V30 16088 H 1455.03 1.88971 -0.501022 0
M  V30 16089 H 1453.73 4.0862 -0.381812 0
M  V30 16090 H 1453.26 3.71811 1.28532 0
M  V30 16091 H 1455.28 4.35734 2.37382 0
M  V30 16092 N 1454.45 0.0885642 1.57351 0
M  V30 16093 C 1455.68 -0.584389 1.98163 0
M  V30 16094 C 1456.09 -1.62664 0.966281 0
M  V30 16095 O 1455.43 -1.83623 -0.053226 0
M  V30 16096 C 1455.49 -1.2959 3.35331 0
M  V30 16097 C 1455.16 -0.405168 4.552 0
M  V30 16098 C 1456.15 0.344053 5.1876 0
M  V30 16099 C 1453.84 -0.325136 5.01247 0
M  V30 16100 C 1455.83 1.16135 6.26731 0
M  V30 16101 C 1453.52 0.495821 6.09085 0
M  V30 16102 C 1454.52 1.23772 6.71691 0
M  V30 16103 O 1454.21 2.04511 7.77451 0
M  V30 16104 H 1453.94 -0.161852 0.656338 0
M  V30 16105 H 1456.49 0.162558 2.04756 0
M  V30 16106 H 1454.72 -2.08928 3.25401 0
M  V30 16107 H 1456.41 -1.86274 3.60634 0
M  V30 16108 H 1457.18 0.291916 4.84121 0
M  V30 16109 H 1453.06 -0.892245 4.52283 0
M  V30 16110 H 1456.6 1.74093 6.75528 0
M  V30 16111 H 1452.5 0.549463 6.43157 0
M  V30 16112 H 1453.27 1.97123 7.94409 0
M  V30 16113 N 1455.93 -1.56509 -0.185096 0
M  V30 16114 C 1456.88 -1.95336 -1.22934 0
M  V30 16115 C 1457.85 -0.81532 -1.44713 0
M  V30 16116 O 1459.03 -1.07431 -1.57681 0
M  V30 16117 C 1456.17 -2.30671 -2.56681 0
M  V30 16118 C 1455.28 -3.57586 -2.42397 0
M  V30 16119 C 1454.42 -3.82197 -3.68916 0
M  V30 16120 C 1453.46 -5.02505 -3.49507 0
M  V30 16121 N 1452.59 -5.23319 -4.68062 0
M  V30 16122 H 1457.43 -2.84361 -0.89123 0
M  V30 16123 H 1454.97 -1.40715 -0.428689 0
M  V30 16124 H 1456.93 -2.49176 -3.34615 0
M  V30 16125 H 1455.56 -1.44773 -2.88514 0
M  V30 16126 H 1454.61 -3.47072 -1.55709 0
M  V30 16127 H 1455.92 -4.45677 -2.23994 0
M  V30 16128 H 1455.08 -4.00996 -4.55288 0
M  V30 16129 H 1453.82 -2.92455 -3.90284 0
M  V30 16130 H 1452.82 -4.83619 -2.6152 0
M  V30 16131 H 1454.05 -5.93765 -3.29574 0
M  V30 16132 H 1451.99 -4.36526 -4.89674 0
M  V30 16133 H 1451.91 -6.05608 -4.52521 0
M  V30 16134 H 1453.18 -5.46585 -5.55757 0
M  V30 16135 N 1457.41 0.45317 -1.50944 0
M  V30 16136 C 1458.37 1.5313 -1.7054 0
M  V30 16137 C 1459.37 1.50142 -0.575678 0
M  V30 16138 O 1460.56 1.52444 -0.842997 0
M  V30 16139 C 1457.69 2.92719 -1.74723 0
M  V30 16140 H 1458.88 1.37066 -2.66745 0
M  V30 16141 H 1456.44 0.680783 -1.40695 0
M  V30 16142 H 1457.17 3.14208 -0.802753 0
M  V30 16143 H 1456.96 2.96295 -2.56811 0
M  V30 16144 H 1458.45 3.7096 -1.91777 0
M  V30 16145 N 1458.88 1.40823 0.707568 0
M  V30 16146 C 1460.11 1.42659 1.49439 0
M  V30 16147 C 1460.52 0.0268475 1.89181 0
M  V30 16148 O 1459.87 -0.961444 1.56531 0
M  V30 16149 C 1459.93 2.26104 2.79494 0
M  V30 16150 C 1459.59 3.7442 2.62027 0
M  V30 16151 C 1460.59 4.66867 2.28759 0
M  V30 16152 C 1458.27 4.18328 2.78042 0
M  V30 16153 C 1460.27 6.01208 2.11727 0
M  V30 16154 C 1457.95 5.52736 2.60627 0
M  V30 16155 C 1458.95 6.43991 2.27518 0
M  V30 16156 O 1458.64 7.75921 2.10243 0
M  V30 16157 H 1458.37 0.488307 0.467475 0
M  V30 16158 H 1460.93 1.85607 0.879719 0
M  V30 16159 H 1459.16 1.77949 3.43323 0
M  V30 16160 H 1460.85 2.19785 3.41247 0
M  V30 16161 H 1461.61 4.34239 2.16012 0
M  V30 16162 H 1457.49 3.47612 3.02798 0
M  V30 16163 H 1461.03 6.724 1.85807 0
M  V30 16164 H 1456.93 5.84947 2.7296 0
M  V30 16165 H 1457.7 7.86938 2.251 0
M  V30 16166 N 1460.36 -0.94061 1.26453 0
M  V30 16167 C 1461.29 -2.05667 1.10559 0
M  V30 16168 C 1462.27 -1.70097 0.0106258 0
M  V30 16169 O 1463.46 -1.93338 0.182756 0
M  V30 16170 C 1460.59 -3.3936 0.7384 0
M  V30 16171 C 1459.54 -3.88993 1.78517 0
M  V30 16172 C 1458.87 -5.19343 1.27228 0
M  V30 16173 C 1460.17 -4.13812 3.1868 0
M  V30 16174 H 1461.86 -2.19221 2.03918 0
M  V30 16175 H 1459.41 -1.05339 0.98182 0
M  V30 16176 H 1461.36 -4.16902 0.61409 0
M  V30 16177 H 1460.09 -3.25783 -0.230887 0
M  V30 16178 H 1458.74 -3.13633 1.89816 0
M  V30 16179 H 1458.39 -5.02147 0.292816 0
M  V30 16180 H 1458.09 -5.53521 1.97201 0
M  V30 16181 H 1459.62 -5.99468 1.16065 0
M  V30 16182 H 1461.03 -4.81966 3.10455 0
M  V30 16183 H 1459.43 -4.59273 3.86249 0
M  V30 16184 H 1460.5 -3.19571 3.64695 0
M  V30 16185 N 1461.84 -1.08266 -1.14527 0
M  V30 16186 C 1462.8 -0.715117 -2.17758 0
M  V30 16187 C 1463.8 0.24935 -1.58855 0
M  V30 16188 O 1464.99 0.0290846 -1.74176 0
M  V30 16189 C 1462.13 -0.055575 -3.40855 0
M  V30 16190 H 1463.32 -1.62921 -2.51787 0
M  V30 16191 H 1460.87 -0.880346 -1.2915 0
M  V30 16192 H 1461.61 0.870312 -3.12404 0
M  V30 16193 H 1461.39 -0.749382 -3.84872 0
M  V30 16194 H 1462.88 0.186592 -4.17183 0
M  V30 16195 N 1463.32 1.31536 -0.86811 0
M  V30 16196 C 1464.57 1.96045 -0.474271 0
M  V30 16197 C 1464.88 1.6939 0.978071 0
M  V30 16198 O 1466.09 2.27746 1.47797 0
M  V30 16199 C 1464.54 3.5096 -0.797203 0
M  V30 16200 C 1464.15 3.86456 -2.26618 0
M  V30 16201 C 1465.9 4.21871 -0.471745 0
M  V30 16202 C 1463.8 5.34474 -2.53162 0
M  V30 16203 H 1462.73 0.733737 -0.173627 0
M  V30 16204 H 1465.38 1.49734 -1.06076 0
M  V30 16205 H 1463.77 3.95752 -0.139994 0
M  V30 16206 H 1464.94 3.52629 -2.9663 0
M  V30 16207 H 1463.25 3.28605 -2.55749 0
M  V30 16208 H 1465.85 5.30767 -0.647317 0
M  V30 16209 H 1466.19 4.12131 0.58768 0
M  V30 16210 H 1466.73 3.82706 -1.08542 0
M  V30 16211 H 1463.47 5.49248 -3.57781 0
M  V30 16212 H 1462.99 5.6966 -1.87743 0
M  V30 16213 H 1464.67 6.01716 -2.37797 0
M  V30 16214 N 1464.8 0.627364 1.44575 0
M  V30 16215 C 1466.21 0.292662 1.56894 0
M  V30 16216 C 1466.41 -1.20429 1.61552 0
M  V30 16217 O 1465.47 -1.98819 1.55651 0
M  V30 16218 C 1466.78 0.981267 2.84239 0
M  V30 16219 C 1468.33 0.959053 2.97945 0
M  V30 16220 C 1468.81 1.62805 4.28087 0
M  V30 16221 N 1470.3 1.59446 4.34892 0
M  V30 16222 C 1471.03 2.08107 5.34302 0
M  V30 16223 N 1470.53 2.64942 6.40139 0
M  V30 16224 N 1472.32 1.98758 5.25787 0
M  V30 16225 H 1464.47 1.5991 1.39795 0
M  V30 16226 H 1466.73 0.671019 0.669655 0
M  V30 16227 H 1466.44 2.0361 2.86768 0
M  V30 16228 H 1466.31 0.516703 3.73644 0
M  V30 16229 H 1468.7 -0.0872902 2.94971 0
M  V30 16230 H 1468.78 1.46207 2.09898 0
M  V30 16231 H 1468.43 2.67382 4.31821 0
M  V30 16232 H 1468.36 1.09989 5.14985 0
M  V30 16233 H 1470.85 1.17947 3.59022 0
M  V30 16234 H 1471.16 2.99814 7.12272 0
M  V30 16235 H 1469.51 2.68991 6.40835 0
M  V30 16236 H 1472.7 1.54081 4.42014 0
M  V30 16237 H 1472.87 2.36992 6.03107 0
M  V30 16238 N 1466.28 -1.53251 0.367684 0
M  V30 16239 C 1467.21 -2.23396 -0.512539 0
M  V30 16240 C 1468.22 -1.2488 -1.04446 0
M  V30 16241 O 1469.41 -1.5109 -0.950477 0
M  V30 16242 C 1466.51 -2.91971 -1.72064 0
M  V30 16243 C 1465.68 -4.17011 -1.31986 0
M  V30 16244 C 1464.74 -4.68779 -2.39025 0
M  V30 16245 O 1463.77 -5.32405 -2.01328 0
M  V30 16246 N 1464.97 -4.46773 -3.7064 0
M  V30 16247 H 1467.73 -2.9957 0.0883152 0
M  V30 16248 H 1465.3 -1.60746 0.192966 0
M  V30 16249 H 1467.29 -3.23511 -2.43152 0
M  V30 16250 H 1465.86 -2.19237 -2.22831 0
M  V30 16251 H 1465.08 -3.91751 -0.438732 0
M  V30 16252 H 1466.37 -4.98298 -1.02842 0
M  V30 16253 H 1465.76 -3.95938 -4.04042 0
M  V30 16254 H 1464.32 -4.82857 -4.37827 0
M  V30 16255 N 1467.75 -0.0969077 -1.57302 0
M  V30 16256 C 1468.7 0.872039 -2.10664 0
M  V30 16257 C 1469.69 1.24265 -1.02211 0
M  V30 16258 O 1470.88 1.21743 -1.28482 0
M  V30 16259 C 1468.01 2.13042 -2.69199 0
M  V30 16260 C 1467.09 1.78517 -3.84698 0
M  V30 16261 N 1467.49 1.14558 -4.92656 0
M  V30 16262 C 1465.78 2.08115 -3.94467 0
M  V30 16263 C 1466.48 0.986837 -5.73268 0
M  V30 16264 N 1465.46 1.50473 -5.22359 0
M  V30 16265 H 1469.26 0.373625 -2.91515 0
M  V30 16266 H 1466.78 0.10625 -1.62052 0
M  V30 16267 H 1468.77 2.83403 -3.05759 0
M  V30 16268 H 1467.43 2.63448 -1.89803 0
M  V30 16269 H 1468.44 0.812179 -5.11492 0
M  V30 16270 H 1465.12 2.60722 -3.26083 0
M  V30 16271 H 1466.51 0.48651 -6.70136 0
M  V30 16272 N 1469.23 1.56605 0.176793 0
M  V30 16273 C 1470.19 1.95109 1.20271 0
M  V30 16274 C 1471.19 0.83414 1.37473 0
M  V30 16275 O 1472.38 1.10128 1.34972 0
M  V30 16276 C 1469.52 2.24112 2.56878 0
M  V30 16277 H 1470.71 2.86909 0.87312 0
M  V30 16278 H 1468.26 1.50578 0.419033 0
M  V30 16279 H 1469 1.35009 2.94861 0
M  V30 16280 H 1468.78 3.05523 2.45761 0
M  V30 16281 H 1470.27 2.54842 3.30825 0
M  V30 16282 N 1470.71 -0.445159 1.51182 0
M  V30 16283 C 1471.66 -1.5604 1.72494 0
M  V30 16284 C 1472.65 -1.58753 0.591101 0
M  V30 16285 O 1473.86 -1.62591 0.772285 0
M  V30 16286 H 1470.23 -0.518265 0.544891 0
M  V30 16287 H 1472.2 -1.35237 2.65995 0
M  V30 16288 C 1470.95 -2.93768 1.85999 0
M  V30 16289 H 1470.28 -2.9241 2.72647 0
M  V30 16290 H 1471.72 -3.71189 2.04926 0
M  V30 16291 C 1470.17 -3.31186 0.617853 0
M  V30 16292 O 1470.7 -4.01035 -0.231101 0
M  V30 16293 N 1468.91 -2.86868 0.464234 0
M  V30 16294 H 1468.46 -2.30198 1.15614 0
M  V30 16295 H 1468.42 -3.12267 -0.365643 0
M  V30 16296 N 1472.19 -1.41197 -0.700089 0
M  V30 16297 C 1473.12 -1.45456 -1.8266 0
M  V30 16298 C 1474.1 -0.313719 -1.67182 0
M  V30 16299 O 1475.28 -0.524528 -1.86982 0
M  V30 16300 C 1472.41 -1.33161 -3.20758 0
M  V30 16301 C 1471.37 -2.4501 -3.50933 0
M  V30 16302 C 1470.69 -2.17782 -4.88339 0
M  V30 16303 C 1471.99 -3.87352 -3.50365 0
M  V30 16304 H 1473.69 -2.39735 -1.79353 0
M  V30 16305 H 1471.23 -1.1539 -0.861465 0
M  V30 16306 H 1473.19 -1.34754 -3.99274 0
M  V30 16307 H 1471.91 -0.353646 -3.2468 0
M  V30 16308 H 1470.57 -2.42692 -2.74766 0
M  V30 16309 H 1470.22 -1.1834 -4.88881 0
M  V30 16310 H 1469.92 -2.92728 -5.09494 0
M  V30 16311 H 1471.44 -2.21083 -5.6917 0
M  V30 16312 H 1472.86 -3.9141 -4.18893 0
M  V30 16313 H 1471.25 -4.61944 -3.83051 0
M  V30 16314 H 1472.32 -4.15827 -2.4943 0
M  V30 16315 N 1473.67 0.933891 -1.2695 0
M  V30 16316 C 1474.91 1.68091 -1.12924 0
M  V30 16317 C 1475.24 1.91747 0.326088 0
M  V30 16318 O 1474.5 1.50126 1.25541 0
M  V30 16319 C 1474.79 3.05706 -1.85145 0
M  V30 16320 C 1474.46 3.01781 -3.35021 0
M  V30 16321 C 1473.12 3.00417 -3.75903 0
M  V30 16322 C 1475.47 2.93537 -4.3068 0
M  V30 16323 C 1472.8 2.88585 -5.10818 0
M  V30 16324 C 1475.15 2.83246 -5.65645 0
M  V30 16325 C 1473.82 2.80229 -6.05828 0
M  V30 16326 H 1473.09 0.615087 -0.413217 0
M  V30 16327 H 1475.74 1.08957 -1.57482 0
M  V30 16328 H 1474.04 3.68508 -1.33077 0
M  V30 16329 H 1475.74 3.62369 -1.71726 0
M  V30 16330 H 1472.33 3.03626 -3.02505 0
M  V30 16331 H 1476.51 2.93693 -4.00073 0
M  V30 16332 H 1471.77 2.84632 -5.41105 0
M  V30 16333 H 1475.94 2.75832 -6.39445 0
M  V30 16334 H 1473.57 2.70818 -7.10325 0
M  V30 16335 N 1475.14 1.08871 1.13951 0
M  V30 16336 C 1476.39 0.816198 1.84448 0
M  V30 16337 C 1476.71 -0.660396 1.84114 0
M  V30 16338 O 1477.91 -1.04825 2.50448 0
M  V30 16339 C 1476.37 1.41015 3.31123 0
M  V30 16340 C 1475.98 2.91888 3.39861 0
M  V30 16341 C 1477.72 1.21633 4.06701 0
M  V30 16342 C 1475.63 3.44397 4.80775 0
M  V30 16343 H 1474.56 0.301662 0.691025 0
M  V30 16344 H 1477.21 1.31072 1.28423 0
M  V30 16345 H 1475.59 0.843333 3.86916 0
M  V30 16346 H 1476.76 3.54747 2.94094 0
M  V30 16347 H 1475.08 3.10238 2.77743 0
M  V30 16348 H 1477.68 1.58324 5.10723 0
M  V30 16349 H 1478.02 0.156519 4.16006 0
M  V30 16350 H 1478.55 1.75035 3.57222 0
M  V30 16351 H 1475.29 4.49973 4.7666 0
M  V30 16352 H 1474.81 2.86299 5.27061 0
M  V30 16353 H 1476.49 3.41266 5.49679 0
M  V30 16354 N 1476.62 -1.31073 0.875073 0
M  V30 16355 C 1477.57 -2.30335 0.3238 0
M  V30 16356 C 1478.56 -1.5974 -0.563869 0
M  V30 16357 O 1479.77 -1.743 -0.449402 0
M  V30 16358 H 1476.14 -0.747062 0.0860376 0
M  V30 16359 H 1478.12 -2.743 1.17483 0
M  V30 16360 C 1476.86 -3.44705 -0.455348 0
M  V30 16361 H 1476.19 -3.99203 0.218433 0
M  V30 16362 H 1477.63 -4.16262 -0.806329 0
M  V30 16363 C 1476.09 -2.93807 -1.6486 0
M  V30 16364 O 1476.62 -2.93004 -2.74794 0
M  V30 16365 N 1474.82 -2.49944 -1.48244 0
M  V30 16366 H 1474.37 -2.50797 -0.588116 0
M  V30 16367 H 1474.33 -2.16245 -2.28222 0
M  V30 16368 N 1478.1 -0.635022 -1.4424 0
M  V30 16369 C 1479.03 0.0543561 -2.33437 0
M  V30 16370 C 1480.01 0.830807 -1.48431 0
M  V30 16371 O 1481.2 0.795913 -1.77141 0
M  V30 16372 C 1478.33 1.03391 -3.31553 0
M  V30 16373 C 1477.28 0.368824 -4.26408 0
M  V30 16374 C 1476.61 1.45855 -5.14422 0
M  V30 16375 C 1477.91 -0.727381 -5.1721 0
M  V30 16376 H 1479.6 -0.690489 -2.91329 0
M  V30 16377 H 1477.15 -0.3335 -1.40085 0
M  V30 16378 H 1479.1 1.52495 -3.9284 0
M  V30 16379 H 1477.82 1.80969 -2.71878 0
M  V30 16380 H 1476.48 -0.101605 -3.66459 0
M  V30 16381 H 1476.13 2.22531 -4.51098 0
M  V30 16382 H 1475.83 1.0189 -5.78699 0
M  V30 16383 H 1477.35 1.95132 -5.78581 0
M  V30 16384 H 1478.77 -0.319272 -5.7241 0
M  V30 16385 H 1477.17 -1.09041 -5.9011 0
M  V30 16386 H 1478.24 -1.59292 -4.57989 0
M  V30 16387 N 1479.58 1.53054 -0.375806 0
M  V30 16388 C 1480.83 2.01401 0.210673 0
M  V30 16389 C 1481.15 1.26275 1.47935 0
M  V30 16390 O 1480.41 0.347611 1.92588 0
M  V30 16391 C 1480.71 3.53321 0.538419 0
M  V30 16392 C 1480.37 4.46376 -0.637126 0
M  V30 16393 C 1479.04 4.71534 -0.959653 0
M  V30 16394 C 1481.39 5.01364 -1.42421 0
M  V30 16395 C 1478.72 5.4893 -2.07105 0
M  V30 16396 C 1481.07 5.79975 -2.5261 0
M  V30 16397 C 1479.73 6.03416 -2.85386 0
M  V30 16398 H 1479 0.736979 0.0770907 0
M  V30 16399 H 1481.65 1.84574 -0.510376 0
M  V30 16400 H 1479.95 3.6815 1.34062 0
M  V30 16401 H 1481.65 3.88212 1.00461 0
M  V30 16402 H 1478.24 4.2695 -0.375722 0
M  V30 16403 H 1482.42 4.81865 -1.18828 0
M  V30 16404 H 1477.68 5.65309 -2.32886 0
M  V30 16405 H 1481.85 6.21588 -3.14008 0
M  V30 16406 H 1479.48 6.63172 -3.71627 0
M  V30 16407 N 1481.06 0.105248 1.57248 0
M  V30 16408 C 1482.28 -0.567515 1.99484 0
M  V30 16409 C 1482.71 -1.60298 0.984182 0
M  V30 16410 O 1482.06 -1.81242 -0.0459944 0
M  V30 16411 C 1482.11 -1.18271 3.40653 0
M  V30 16412 O 1481.22 -2.29843 3.42412 0
M  V30 16413 H 1480.56 -0.143069 0.648404 0
M  V30 16414 H 1483.09 0.189661 2.03719 0
M  V30 16415 H 1483.1 -1.52157 3.78566 0
M  V30 16416 H 1481.77 -0.424179 4.13731 0
M  V30 16417 H 1480.35 -1.975 3.16304 0
M  V30 16418 N 1482.53 -1.56697 -0.168486 0
M  V30 16419 C 1483.47 -1.91738 -1.23741 0
M  V30 16420 C 1484.45 -0.780522 -1.42642 0
M  V30 16421 O 1485.63 -1.0341 -1.57602 0
M  V30 16422 C 1482.76 -2.17077 -2.59991 0
M  V30 16423 C 1481.8 -3.39759 -2.5781 0
M  V30 16424 S 1482.64 -4.94035 -2.06614 0
M  V30 16425 C 1483.79 -5.22472 -3.44636 0
M  V30 16426 H 1484.02 -2.82104 -0.938344 0
M  V30 16427 H 1481.56 -1.49822 -0.373177 0
M  V30 16428 H 1483.52 -2.32356 -3.38409 0
M  V30 16429 H 1482.18 -1.27413 -2.87097 0
M  V30 16430 H 1481.37 -3.54698 -3.58058 0
M  V30 16431 H 1480.97 -3.2361 -1.8749 0
M  V30 16432 H 1483.26 -5.14623 -4.40647 0
M  V30 16433 H 1484.21 -6.24075 -3.34569 0
M  V30 16434 H 1484.61 -4.50034 -3.40779 0
M  V30 16435 N 1484.01 0.437135 -1.51416 0
M  V30 16436 C 1484.95 1.55058 -1.67429 0
M  V30 16437 C 1485.92 1.53997 -0.521878 0
M  V30 16438 O 1487.11 1.73121 -0.74574 0
M  V30 16439 C 1484.23 2.93637 -1.68805 0
M  V30 16440 C 1483.28 3.12721 -2.90013 0
M  V30 16441 S 1484.11 2.88998 -4.50822 0
M  V30 16442 C 1485.27 4.29858 -4.54942 0
M  V30 16443 H 1485.5 1.41241 -2.61607 0
M  V30 16444 H 1483.04 0.62684 -1.41103 0
M  V30 16445 H 1484.99 3.73516 -1.70282 0
M  V30 16446 H 1483.65 3.04816 -0.758031 0
M  V30 16447 H 1482.85 4.14041 -2.87377 0
M  V30 16448 H 1482.45 2.40667 -2.86278 0
M  V30 16449 H 1484.74 5.23062 -4.30596 0
M  V30 16450 H 1485.68 4.37528 -5.56754 0
M  V30 16451 H 1486.09 4.13523 -3.84265 0
M  V30 16452 N 1485.49 1.41566 0.692592 0
M  V30 16453 C 1486.42 1.46423 1.81886 0
M  V30 16454 C 1487.4 0.32258 1.67013 0
M  V30 16455 O 1488.59 0.534437 1.86701 0
M  V30 16456 C 1485.72 1.3486 3.20047 0
M  V30 16457 C 1484.67 2.46867 3.49629 0
M  V30 16458 C 1484 2.20369 4.87177 0
M  V30 16459 C 1485.3 3.89205 3.48306 0
M  V30 16460 H 1486.99 2.40683 1.78079 0
M  V30 16461 H 1484.54 1.15845 0.855334 0
M  V30 16462 H 1486.49 1.36869 3.98553 0
M  V30 16463 H 1485.21 0.370859 3.24488 0
M  V30 16464 H 1483.87 2.44146 2.73475 0
M  V30 16465 H 1483.52 1.20931 4.88247 0
M  V30 16466 H 1483.22 2.95426 5.07934 0
M  V30 16467 H 1484.74 2.24099 5.6799 0
M  V30 16468 H 1486.16 3.93626 4.16811 0
M  V30 16469 H 1484.56 4.63969 3.80595 0
M  V30 16470 H 1485.63 4.17144 2.47222 0
M  V30 16471 N 1486.97 -0.927146 1.27443 0
M  V30 16472 C 1488.22 -1.67159 1.13589 0
M  V30 16473 C 1488.54 -1.92379 -0.31865 0
M  V30 16474 O 1487.81 -1.53045 -1.22287 0
M  V30 16475 H 1486.39 -0.619524 0.417371 0
M  V30 16476 H 1489.05 -1.11323 1.59979 0
M  V30 16477 H 1488.15 -2.63954 1.66537 0
M  V30 16478 N 1488.45 -1.09474 -1.13372 0
M  V30 16479 C 1489.67 -0.853093 -1.89043 0
M  V30 16480 C 1490.1 0.590075 -1.78605 0
M  V30 16481 O 1489.45 1.41462 -1.13394 0
M  V30 16482 C 1489.5 -1.29359 -3.36599 0
M  V30 16483 O 1488.61 -0.452355 -4.09912 0
M  V30 16484 H 1487.95 -0.308922 -0.587761 0
M  V30 16485 H 1490.48 -1.459 -1.43437 0
M  V30 16486 H 1490.49 -1.27921 -3.87428 0
M  V30 16487 H 1489.16 -2.3446 -3.43513 0
M  V30 16488 H 1487.74 -0.531098 -3.69099 0
M  V30 16489 N 1489.92 1.30607 -0.882012 0
M  V30 16490 C 1491.17 1.95869 -0.497978 0
M  V30 16491 C 1491.49 1.69991 0.955405 0
M  V30 16492 O 1490.76 1.02188 1.67136 0
M  V30 16493 H 1489.34 0.724699 -0.181165 0
M  V30 16494 H 1492.01 1.59193 -1.12444 0
M  V30 16495 H 1491.1 3.04917 -0.665754 0
M  V30 16496 N 1491.4 0.642663 1.43901 0
M  V30 16497 C 1492.34 -0.104884 2.27959 0
M  V30 16498 C 1493.31 -0.840134 1.39214 0
M  V30 16499 O 1494.5 -0.841868 1.68656 0
M  V30 16500 C 1491.62 -1.15496 3.184 0
M  V30 16501 C 1490.67 -0.518946 4.23331 0
M  V30 16502 S 1491.5 0.699619 5.3091 0
M  V30 16503 C 1492.66 -0.350181 6.2492 0
M  V30 16504 H 1492.89 0.608181 2.91013 0
M  V30 16505 H 1490.43 0.431176 1.48257 0
M  V30 16506 H 1492.38 -1.75582 3.71054 0
M  V30 16507 H 1491.04 -1.84028 2.54544 0
M  V30 16508 H 1490.24 -1.31018 4.86673 0
M  V30 16509 H 1489.84 0.00756354 3.73999 0
M  V30 16510 H 1492.13 -1.21944 6.66435 0
M  V30 16511 H 1493.07 0.247942 7.07666 0
M  V30 16512 H 1493.48 -0.681254 5.60374 0
M  V30 16513 N 1492.88 -1.52852 0.383918 0
M  V30 16514 C 1494.29 -1.86477 -0.0912997 0
M  V30 16515 C 1494.64 -1.30382 -1.46611 0
M  V30 16516 O 1493.77 -0.633042 -2.06934 0
M  V30 16517 C 1494.36 -3.38361 -0.172447 0
M  V30 16518 C 1492.92 -3.71716 -0.591948 0
M  V30 16519 C 1492.07 -2.76176 0.24945 0
M  V30 16520 H 1495.02 -1.46839 0.602006 0
M  V30 16521 H 1495.04 -3.67325 -0.992603 0
M  V30 16522 H 1494.55 -3.79158 0.8283 0
M  V30 16523 H 1492.65 -3.36486 -1.60026 0
M  V30 16524 H 1492.77 -4.77792 -0.353835 0
M  V30 16525 H 1491.13 -2.53106 -0.284469 0
M  V30 16526 H 1491.91 -3.19809 1.24808 0
M  V30 16527 N 1494.36 -0.113586 -1.5719 0
M  V30 16528 C 1495.27 0.852428 -2.18565 0
M  V30 16529 C 1496.29 1.29668 -1.16026 0
M  V30 16530 O 1497.46 1.36079 -1.48474 0
M  V30 16531 C 1494.53 2.08675 -2.76867 0
M  V30 16532 C 1493.59 1.69493 -3.94424 0
M  V30 16533 C 1492.82 2.87042 -4.49936 0
M  V30 16534 O 1493.04 4.02311 -4.04354 0
M  V30 16535 O 1491.98 2.64439 -5.40699 0
M  V30 16536 H 1495.8 0.360144 -3.01557 0
M  V30 16537 H 1493.39 0.111744 -1.48982 0
M  V30 16538 H 1495.27 2.80976 -3.14054 0
M  V30 16539 H 1493.95 2.5692 -1.9691 0
M  V30 16540 H 1492.85 0.943161 -3.62016 0
M  V30 16541 H 1494.19 1.25995 -4.758 0
M  V30 16542 N 1495.84 1.56784 0.160173 0
M  V30 16543 C 1496.77 2.00298 1.20012 0
M  V30 16544 C 1497.75 0.880356 1.45546 0
M  V30 16545 O 1498.93 1.14724 1.56691 0
M  V30 16546 C 1496.06 2.37238 2.53645 0
M  V30 16547 C 1495.02 3.52563 2.42658 0
M  V30 16548 C 1494.34 3.75278 3.80881 0
M  V30 16549 C 1495.64 4.85657 1.92183 0
M  V30 16550 H 1497.34 2.87423 0.838362 0
M  V30 16551 H 1494.88 1.3828 0.401838 0
M  V30 16552 H 1496.84 2.66278 3.2661 0
M  V30 16553 H 1495.56 1.47035 2.9163 0
M  V30 16554 H 1494.22 3.23669 1.72146 0
M  V30 16555 H 1493.87 2.82347 4.1628 0
M  V30 16556 H 1493.57 4.52882 3.74396 0
M  V30 16557 H 1495.09 4.0673 4.55415 0
M  V30 16558 H 1496.51 5.13501 2.54931 0
M  V30 16559 H 1494.9 5.66975 1.96619 0
M  V30 16560 H 1495.97 4.76908 0.876742 0
M  V30 16561 N 1497.32 -0.429099 1.51646 0
M  V30 16562 C 1498.25 -1.53996 1.69758 0
M  V30 16563 C 1499.26 -1.52189 0.578138 0
M  V30 16564 O 1500.45 -1.56816 0.852709 0
M  V30 16565 C 1497.55 -2.9291 1.7046 0
M  V30 16566 C 1496.72 -3.19132 2.99122 0
M  V30 16567 C 1495.78 -4.37813 2.91901 0
M  V30 16568 O 1494.81 -4.36065 3.65836 0
M  V30 16569 N 1496.01 -5.41834 2.08317 0
M  V30 16570 H 1498.77 -1.38861 2.65589 0
M  V30 16571 H 1496.34 -0.618148 1.49635 0
M  V30 16572 H 1498.33 -3.7034 1.63187 0
M  V30 16573 H 1496.9 -3.01602 0.821877 0
M  V30 16574 H 1496.12 -2.29926 3.20199 0
M  V30 16575 H 1497.41 -3.33483 3.84274 0
M  V30 16576 H 1496.8 -5.46094 1.4764 0
M  V30 16577 H 1495.36 -6.18085 2.06917 0
M  V30 16578 N 1498.79 -1.41931 -0.685074 0
M  V30 16579 C 1500.02 -1.45432 -1.47866 0
M  V30 16580 C 1500.44 -0.0641302 -1.87991 0
M  V30 16581 O 1499.8 0.935081 -1.55325 0
M  V30 16582 C 1499.85 -2.37801 -2.71077 0
M  V30 16583 O 1498.95 -1.84229 -3.68963 0
M  V30 16584 H 1498.29 -0.493156 -0.444627 0
M  V30 16585 H 1500.82 -1.86508 -0.841177 0
M  V30 16586 H 1500.83 -2.54033 -3.19266 0
M  V30 16587 H 1499.51 -3.38807 -2.41211 0
M  V30 16588 H 1498.09 -1.775 -3.27945 0
M  V30 16589 N 1500.27 0.920374 -1.27933 0
M  V30 16590 C 1501.52 1.66883 -1.147 0
M  V30 16591 C 1501.85 1.92082 0.305732 0
M  V30 16592 O 1501.1 1.51449 1.23942 0
M  V30 16593 C 1501.4 3.03725 -1.88377 0
M  V30 16594 C 1501.07 2.9821 -3.38203 0
M  V30 16595 C 1499.73 2.96413 -3.79068 0
M  V30 16596 C 1502.08 2.88952 -4.3377 0
M  V30 16597 C 1499.41 2.83151 -5.13851 0
M  V30 16598 C 1501.76 2.77231 -5.68618 0
M  V30 16599 C 1500.42 2.73788 -6.08766 0
M  V30 16600 H 1499.69 0.61067 -0.419718 0
M  V30 16601 H 1502.34 1.0728 -1.58629 0
M  V30 16602 H 1500.65 3.67075 -1.36978 0
M  V30 16603 H 1502.34 3.60527 -1.7556 0
M  V30 16604 H 1498.93 3.004 -3.05709 0
M  V30 16605 H 1503.12 2.89433 -4.03165 0
M  V30 16606 H 1498.37 2.78877 -5.44093 0
M  V30 16607 H 1502.55 2.69034 -6.42335 0
M  V30 16608 H 1500.17 2.63268 -7.13158 0
M  V30 16609 N 1501.75 1.10074 1.1279 0
M  V30 16610 C 1503.03 0.753069 1.80522 0
M  V30 16611 C 1503.41 -0.760982 1.96907 0
M  V30 16612 O 1502.75 -1.68584 1.54245 0
M  V30 16613 C 1502.96 1.49982 3.15129 0
M  V30 16614 C 1504.31 1.66993 3.90382 0
M  V30 16615 O 1505.34 1.46289 3.24774 0
M  V30 16616 O 1504.2 2.01293 5.08078 0
M  V30 16617 H 1501.29 0.271277 0.781241 0
M  V30 16618 H 1503.84 1.20333 1.19658 0
M  V30 16619 H 1502.61 2.53043 2.98471 0
M  V30 16620 H 1502.23 1.04217 3.83699 0
M  V30 16621 N 1503.23 -1.30138 0.888926 0
M  V30 16622 C 1504.5 -1.90831 0.42928 0
M  V30 16623 C 1504.88 -1.80765 -1.09028 0
M  V30 16624 O 1504.23 -1.22741 -1.92735 0
M  V30 16625 C 1504.44 -3.36331 0.931798 0
M  V30 16626 C 1505.79 -4.13393 0.969106 0
M  V30 16627 O 1506.81 -3.45191 0.878731 0
M  V30 16628 O 1505.67 -5.35249 1.10323 0
M  V30 16629 H 1502.77 -0.816401 0.131976 0
M  V30 16630 H 1505.31 -1.38678 0.978086 0
M  V30 16631 H 1504.09 -3.37761 1.97568 0
M  V30 16632 H 1503.71 -3.95945 0.362383 0
M  V30 16633 N 1504.71 -0.650285 -1.43559 0
M  V30 16634 C 1505.95 -0.159832 -2.01066 0
M  V30 16635 C 1506.27 1.23246 -1.51887 0
M  V30 16636 O 1507.47 1.81797 -2.01648 0
M  V30 16637 C 1505.93 -0.23494 -3.59132 0
M  V30 16638 C 1505.54 -1.62975 -4.17305 0
M  V30 16639 C 1507.28 0.198061 -4.24038 0
M  V30 16640 C 1505.19 -1.65894 -5.67656 0
M  V30 16641 H 1504.12 -0.0559899 -0.751918 0
M  V30 16642 H 1506.77 -0.811891 -1.64562 0
M  V30 16643 H 1505.15 0.484573 -3.93024 0
M  V30 16644 H 1506.33 -2.37438 -3.94918 0
M  V30 16645 H 1504.64 -2.00847 -3.64759 0
M  V30 16646 H 1507.24 0.196054 -5.3434 0
M  V30 16647 H 1507.58 1.22896 -3.97747 0
M  V30 16648 H 1508.11 -0.469602 -3.95018 0
M  V30 16649 H 1504.85 -2.66883 -5.9871 0
M  V30 16650 H 1504.37 -0.957519 -5.92108 0
M  V30 16651 H 1506.05 -1.40137 -6.31641 0
M  V30 16652 N 1506.18 1.52647 -0.392018 0
M  V30 16653 C 1507.15 2.25135 0.429754 0
M  V30 16654 C 1508.15 1.26871 0.987946 0
M  V30 16655 O 1509.34 1.50947 0.86952 0
M  V30 16656 C 1506.47 3.00849 1.60321 0
M  V30 16657 H 1507.66 2.99199 -0.204918 0
M  V30 16658 H 1505.21 1.55634 -0.144188 0
M  V30 16659 H 1505.95 2.31092 2.27524 0
M  V30 16660 H 1505.73 3.72975 1.20964 0
M  V30 16661 H 1507.22 3.55879 2.18494 0
M  V30 16662 N 1507.66 0.121921 1.57128 0
M  V30 16663 C 1508.89 -0.542225 1.99358 0
M  V30 16664 C 1509.3 -1.60578 1.00057 0
M  V30 16665 O 1508.64 -1.83694 -0.0142649 0
M  V30 16666 C 1508.71 -1.22448 3.38004 0
M  V30 16667 C 1508.37 -0.308522 4.55957 0
M  V30 16668 C 1509.37 0.454012 5.17914 0
M  V30 16669 C 1507.05 -0.218741 5.01823 0
M  V30 16670 C 1509.05 1.29403 6.24126 0
M  V30 16671 C 1506.73 0.624906 6.07896 0
M  V30 16672 C 1507.73 1.37992 6.68915 0
M  V30 16673 O 1507.42 2.20955 7.72938 0
M  V30 16674 H 1507.15 -0.147894 0.659624 0
M  V30 16675 H 1509.7 0.205954 2.04365 0
M  V30 16676 H 1507.93 -2.01979 3.2976 0
M  V30 16677 H 1509.62 -1.78583 3.64504 0
M  V30 16678 H 1510.39 0.394539 4.83393 0
M  V30 16679 H 1506.27 -0.796109 4.54074 0
M  V30 16680 H 1509.81 1.88382 6.71683 0
M  V30 16681 H 1505.71 0.685762 6.41847 0
M  V30 16682 H 1506.48 2.13929 7.90049 0
M  V30 16683 N 1509.14 -1.56867 -0.151857 0
M  V30 16684 C 1510.39 -1.82273 -0.863689 0
M  V30 16685 C 1510.7 -0.702377 -1.82554 0
M  V30 16686 O 1511.91 -0.841903 -2.58117 0
M  V30 16687 C 1510.36 -3.23046 -1.58649 0
M  V30 16688 C 1509.97 -4.43003 -0.667292 0
M  V30 16689 C 1511.72 -3.57729 -2.28539 0
M  V30 16690 C 1509.62 -5.74798 -1.39144 0
M  V30 16691 H 1508.55 -0.679753 -0.326269 0
M  V30 16692 H 1511.2 -1.8313 -0.116454 0
M  V30 16693 H 1509.59 -3.16561 -2.37918 0
M  V30 16694 H 1510.76 -4.60712 0.0898254 0
M  V30 16695 H 1509.08 -4.16329 -0.0770521 0
M  V30 16696 H 1511.67 -4.53451 -2.83348 0
M  V30 16697 H 1512.02 -2.8355 -3.04803 0
M  V30 16698 H 1512.55 -3.65853 -1.56194 0
M  V30 16699 H 1509.29 -6.52059 -0.670747 0
M  V30 16700 H 1508.81 -5.61032 -2.12139 0
M  V30 16701 H 1510.49 -6.17429 -1.93367 0
M  V30 16702 N 1510.62 0.421051 -1.51871 0
M  V30 16703 C 1512.03 0.758781 -1.40409 0
M  V30 16704 C 1512.23 1.95219 -0.499197 0
M  V30 16705 O 1511.29 2.52469 0.0395216 0
M  V30 16706 C 1512.6 1.02388 -2.82731 0
M  V30 16707 C 1514.15 1.12733 -2.91994 0
M  V30 16708 C 1514.63 1.42527 -4.35259 0
M  V30 16709 N 1516.12 1.49417 -4.38439 0
M  V30 16710 C 1516.85 1.74074 -5.46339 0
M  V30 16711 N 1516.35 1.96414 -6.64375 0
M  V30 16712 N 1518.14 1.7599 -5.33839 0
M  V30 16713 H 1510.29 -0.364682 -2.09246 0
M  V30 16714 H 1512.56 -0.100819 -0.942624 0
M  V30 16715 H 1512.26 0.219491 -3.51014 0
M  V30 16716 H 1512.14 1.94724 -3.23052 0
M  V30 16717 H 1514.52 1.92233 -2.23899 0
M  V30 16718 H 1514.6 0.182611 -2.55147 0
M  V30 16719 H 1514.25 0.635486 -5.03909 0
M  V30 16720 H 1514.18 2.38231 -4.69631 0
M  V30 16721 H 1516.67 1.3399 -3.53348 0
M  V30 16722 H 1516.98 2.14644 -7.42393 0
M  V30 16723 H 1515.33 1.93702 -6.67461 0
M  V30 16724 H 1518.52 1.58067 -4.40605 0
M  V30 16725 H 1518.69 1.94868 -6.18005 0
M  V30 16726 N 1512.1 1.42293 0.677538 0
M  V30 16727 C 1513.04 1.45556 1.79114 0
M  V30 16728 C 1514.01 0.307826 1.63223 0
M  V30 16729 O 1515.2 0.511504 1.83816 0
M  V30 16730 C 1512.34 1.36104 3.17127 0
M  V30 16731 C 1511.45 2.60891 3.44325 0
M  V30 16732 C 1510.59 2.43601 4.72051 0
M  V30 16733 C 1509.63 3.63775 4.92274 0
M  V30 16734 N 1508.76 3.45444 6.11239 0
M  V30 16735 H 1513.6 2.40723 1.7566 0
M  V30 16736 H 1511.14 1.19517 0.857565 0
M  V30 16737 H 1513.1 1.28622 3.96878 0
M  V30 16738 H 1511.73 0.445342 3.19713 0
M  V30 16739 H 1510.78 2.78751 2.58848 0
M  V30 16740 H 1512.09 3.50229 3.55163 0
M  V30 16741 H 1511.25 2.33689 5.59888 0
M  V30 16742 H 1509.98 1.51748 4.63491 0
M  V30 16743 H 1508.99 3.74122 4.0288 0
M  V30 16744 H 1510.21 4.56605 5.02681 0
M  V30 16745 H 1508.16 2.56306 6.03857 0
M  V30 16746 H 1508.08 4.28368 6.22926 0
M  V30 16747 H 1509.35 3.39339 7.01762 0
M  V30 16748 N 1513.57 -0.913576 1.28419 0
M  V30 16749 C 1514.8 -1.69649 1.18435 0
M  V30 16750 C 1515.22 -1.87043 -0.256987 0
M  V30 16751 O 1514.57 -1.39755 -1.17366 0
M  V30 16752 C 1514.63 -3.08855 1.87859 0
M  V30 16753 O 1514.35 -2.92265 3.26363 0
M  V30 16754 C 1515.85 -4.03229 1.84178 0
M  V30 16755 H 1513.07 -0.530307 0.411115 0
M  V30 16756 H 1515.61 -1.14342 1.69547 0
M  V30 16757 H 1513.77 -3.60979 1.40617 0
M  V30 16758 H 1514.18 -3.80372 3.61134 0
M  V30 16759 H 1515.65 -4.98369 2.37344 0
M  V30 16760 H 1516.13 -4.31587 0.814195 0
M  V30 16761 H 1516.74 -3.57033 2.311 0
M  V30 16762 N 1515.05 -1.1067 -1.12204 0
M  V30 16763 C 1515.98 -0.779829 -2.20093 0
M  V30 16764 C 1516.96 0.248279 -1.68278 0
M  V30 16765 O 1518.15 0.113511 -1.93868 0
M  V30 16766 C 1515.28 -0.213511 -3.46643 0
M  V30 16767 C 1514.23 -1.17258 -4.11624 0
M  V30 16768 C 1513.56 -0.467352 -5.32654 0
M  V30 16769 C 1514.86 -2.52014 -4.57478 0
M  V30 16770 H 1516.55 -1.68192 -2.47693 0
M  V30 16771 H 1514.1 -0.810131 -1.1905 0
M  V30 16772 H 1516.05 0.0273225 -4.21391 0
M  V30 16773 H 1514.78 0.723837 -3.18478 0
M  V30 16774 H 1513.43 -1.39891 -3.3886 0
M  V30 16775 H 1513.08 0.474547 -5.00756 0
M  V30 16776 H 1512.78 -1.10694 -5.77079 0
M  V30 16777 H 1514.31 -0.235122 -6.10147 0
M  V30 16778 H 1515.72 -2.33516 -5.23587 0
M  V30 16779 H 1514.12 -3.1188 -5.1269 0
M  V30 16780 H 1515.19 -3.11831 -3.71335 0
M  V30 16781 N 1516.53 1.29665 -0.895815 0
M  V30 16782 C 1517.49 2.26103 -0.3755 0
M  V30 16783 C 1518.49 1.53212 0.488126 0
M  V30 16784 O 1519.68 1.71706 0.293733 0
M  V30 16785 C 1516.82 3.37732 0.46364 0
M  V30 16786 H 1518.01 2.73643 -1.22718 0
M  V30 16787 H 1515.56 1.4104 -0.673613 0
M  V30 16788 H 1516.3 2.95526 1.33546 0
M  V30 16789 H 1516.08 3.91793 -0.155123 0
M  V30 16790 H 1517.57 4.09488 0.819112 0
M  V30 16791 N 1518.01 0.657889 1.43212 0
M  V30 16792 C 1518.94 -0.0172114 2.33494 0
M  V30 16793 C 1519.92 -0.807087 1.49733 0
M  V30 16794 O 1521.1 -0.767631 1.78385 0
M  V30 16795 C 1518.23 -0.981029 3.33156 0
M  V30 16796 C 1517.19 -0.30094 4.26941 0
M  V30 16797 C 1516.51 -1.37653 5.16678 0
M  V30 16798 C 1517.81 0.809572 5.15988 0
M  V30 16799 H 1519.51 0.736749 2.90194 0
M  V30 16800 H 1517.05 0.355744 1.39537 0
M  V30 16801 H 1519.01 -1.46226 3.95216 0
M  V30 16802 H 1517.73 -1.76621 2.74723 0
M  V30 16803 H 1516.39 0.159893 3.66251 0
M  V30 16804 H 1516.04 -2.15326 4.54581 0
M  V30 16805 H 1515.74 -0.926704 5.80246 0
M  V30 16806 H 1517.26 -1.85903 5.81612 0
M  V30 16807 H 1518.68 0.410297 5.7183 0
M  V30 16808 H 1517.07 1.18415 5.88301 0
M  V30 16809 H 1518.14 1.66558 4.55397 0
M  V30 16810 N 1519.49 -1.52437 0.400108 0
M  V30 16811 C 1520.76 -1.94162 -0.23671 0
M  V30 16812 C 1521.14 -1.33636 -1.63416 0
M  V30 16813 O 1520.49 -0.508643 -2.22767 0
M  V30 16814 C 1520.7 -3.48088 -0.252159 0
M  V30 16815 C 1522.05 -4.21925 -0.475887 0
M  V30 16816 O 1523.07 -3.5465 -0.331905 0
M  V30 16817 O 1521.93 -5.41205 -0.758895 0
M  V30 16818 H 1519.03 -0.813294 -0.14994 0
M  V30 16819 H 1521.57 -1.63475 0.455399 0
M  V30 16820 H 1520.34 -3.84501 0.726263 0
M  V30 16821 H 1519.97 -3.8511 -0.988742 0
M  V30 16822 N 1520.96 -0.130252 -1.57061 0
M  V30 16823 C 1521.91 0.815767 -2.15902 0
M  V30 16824 C 1522.88 1.2558 -1.08715 0
M  V30 16825 O 1524.07 1.33132 -1.36677 0
M  V30 16826 C 1521.21 2.0561 -2.77162 0
M  V30 16827 C 1520.32 1.6634 -3.98692 0
M  V30 16828 C 1519.45 2.85425 -4.48002 0
M  V30 16829 C 1518.49 2.42449 -5.62036 0
M  V30 16830 N 1517.63 3.54486 -6.0604 0
M  V30 16831 H 1522.47 0.307164 -2.96413 0
M  V30 16832 H 1520.01 0.139913 -1.46433 0
M  V30 16833 H 1521.97 2.78298 -3.10815 0
M  V30 16834 H 1520.6 2.5391 -1.99323 0
M  V30 16835 H 1519.65 0.834817 -3.71127 0
M  V30 16836 H 1520.96 1.30765 -4.81354 0
M  V30 16837 H 1520.11 3.66325 -4.83623 0
M  V30 16838 H 1518.85 3.24235 -3.64312 0
M  V30 16839 H 1517.86 1.59985 -5.26008 0
M  V30 16840 H 1519.08 2.04744 -6.475 0
M  V30 16841 H 1517.03 3.92948 -5.25289 0
M  V30 16842 H 1516.95 3.22871 -6.83586 0
M  V30 16843 H 1518.21 4.35792 -6.46302 0
M  V30 16844 N 1522.44 1.56945 0.143535 0
M  V30 16845 C 1523.67 1.87701 0.870401 0
M  V30 16846 C 1524.09 0.718833 1.7458 0
M  V30 16847 O 1523.44 -0.311286 1.79826 0
M  V30 16848 C 1523.49 3.1773 1.72424 0
M  V30 16849 O 1523.22 4.29086 0.884115 0
M  V30 16850 C 1524.72 3.62024 2.55839 0
M  V30 16851 H 1521.94 0.622083 0.251504 0
M  V30 16852 H 1524.48 2.04052 0.135285 0
M  V30 16853 H 1522.64 3.03122 2.41238 0
M  V30 16854 H 1523.05 5.0346 1.47065 0
M  V30 16855 H 1524.52 4.55834 3.11319 0
M  V30 16856 H 1525 2.87481 3.32041 0
M  V30 16857 H 1525.61 3.79338 1.9231 0
M  V30 16858 N 1523.92 -0.412991 1.52093 0
M  V30 16859 C 1524.83 -1.52768 1.78042 0
M  V30 16860 C 1525.85 -1.60758 0.665791 0
M  V30 16861 O 1527.02 -1.77545 0.950772 0
M  V30 16862 C 1524.09 -2.8854 1.92213 0
M  V30 16863 C 1523.15 -2.90468 3.16112 0
M  V30 16864 C 1522.38 -4.19763 3.29598 0
M  V30 16865 O 1522.61 -5.13454 2.48438 0
M  V30 16866 O 1521.54 -4.2847 4.22726 0
M  V30 16867 H 1525.37 -1.33777 2.72649 0
M  V30 16868 H 1522.95 -0.598461 1.3689 0
M  V30 16869 H 1524.83 -3.69073 2.03379 0
M  V30 16870 H 1523.51 -3.07607 1.00795 0
M  V30 16871 H 1522.41 -2.08801 3.10408 0
M  V30 16872 H 1523.75 -2.76349 4.07298 0
M  V30 16873 N 1525.4 -1.4265 -0.669982 0
M  V30 16874 C 1526.33 -1.42457 -1.79551 0
M  V30 16875 C 1527.34 -0.322966 -1.59564 0
M  V30 16876 O 1528.53 -0.586359 -1.68594 0
M  V30 16877 C 1525.63 -1.20561 -3.16731 0
M  V30 16878 C 1524.81 -2.43246 -3.63525 0
M  V30 16879 C 1523.87 -2.16823 -4.79452 0
M  V30 16880 O 1522.89 -2.90058 -4.8975 0
M  V30 16881 N 1524.09 -1.17436 -5.68497 0
M  V30 16882 H 1526.86 -2.39474 -1.80201 0
M  V30 16883 H 1524.42 -1.37591 -0.853244 0
M  V30 16884 H 1526.41 -1.00794 -3.91947 0
M  V30 16885 H 1524.98 -0.320497 -3.10953 0
M  V30 16886 H 1524.2 -2.78549 -2.78934 0
M  V30 16887 H 1525.49 -3.24931 -3.91532 0
M  V30 16888 H 1524.89 -0.568736 -5.62834 0
M  V30 16889 H 1523.44 -1.03655 -6.43505 0
M  V30 16890 N 1526.88 0.906753 -1.28902 0
M  V30 16891 C 1527.79 2.04313 -1.15296 0
M  V30 16892 C 1528.8 1.73826 -0.0778619 0
M  V30 16893 O 1529.98 1.99322 -0.288543 0
M  V30 16894 C 1527.04 3.36782 -0.823317 0
M  V30 16895 C 1526.11 3.80834 -1.98152 0
M  V30 16896 C 1525.34 5.06981 -1.66751 0
M  V30 16897 O 1525.56 5.67391 -0.58513 0
M  V30 16898 O 1524.5 5.46915 -2.51332 0
M  V30 16899 H 1528.32 2.18713 -2.10709 0
M  V30 16900 H 1525.91 1.02928 -1.08287 0
M  V30 16901 H 1527.79 4.16298 -0.653735 0
M  V30 16902 H 1526.46 3.23542 0.101097 0
M  V30 16903 H 1525.37 3.02115 -2.2063 0
M  V30 16904 H 1526.7 3.98648 -2.88688 0
M  V30 16905 N 1528.36 1.11264 1.11616 0
M  V30 16906 C 1529.32 0.7726 2.15786 0
M  V30 16907 C 1530.32 -0.207145 1.5946 0
M  V30 16908 O 1531.51 0.0171053 1.74192 0
M  V30 16909 C 1528.64 0.145927 3.40588 0
M  V30 16910 H 1529.83 1.69539 2.47379 0
M  V30 16911 H 1527.39 0.914278 1.2677 0
M  V30 16912 H 1528.12 -0.787178 3.14601 0
M  V30 16913 H 1527.91 0.851161 3.8275 0
M  V30 16914 H 1529.4 -0.0759176 4.17531 0
M  V30 16915 N 1529.83 -1.29188 0.902679 0
M  V30 16916 C 1530.76 -2.3006 0.399357 0
M  V30 16917 C 1531.74 -1.61724 -0.527199 0
M  V30 16918 O 1532.93 -1.89213 -0.437293 0
M  V30 16919 C 1530.06 -3.45309 -0.371331 0
M  V30 16920 C 1529.01 -4.25466 0.465068 0
M  V30 16921 C 1528.34 -5.32941 -0.433295 0
M  V30 16922 C 1529.64 -4.93287 1.71655 0
M  V30 16923 H 1531.33 -2.72409 1.24233 0
M  V30 16924 H 1528.88 -1.30958 0.598822 0
M  V30 16925 H 1530.83 -4.14955 -0.734207 0
M  V30 16926 H 1529.56 -3.01811 -1.24811 0
M  V30 16927 H 1528.22 -3.57532 0.810315 0
M  V30 16928 H 1527.86 -4.85688 -1.3083 0
M  V30 16929 H 1527.56 -5.87472 0.122657 0
M  V30 16930 H 1529.09 -6.05438 -0.792298 0
M  V30 16931 H 1530.5 -5.55353 1.42323 0
M  V30 16932 H 1528.9 -5.57763 2.21405 0
M  V30 16933 H 1529.97 -4.18406 2.45081 0
M  V30 16934 N 1531.31 -0.665475 -1.42861 0
M  V30 16935 C 1532.22 0.018927 -2.34592 0
M  V30 16936 C 1533.24 0.798967 -1.54572 0
M  V30 16937 O 1534.41 0.743419 -1.87177 0
M  V30 16938 C 1531.48 0.965013 -3.32999 0
M  V30 16939 C 1530.54 0.180544 -4.2892 0
M  V30 16940 C 1529.77 1.08157 -5.22626 0
M  V30 16941 O 1530 2.32101 -5.21043 0
M  V30 16942 O 1528.93 0.54738 -5.99406 0
M  V30 16943 H 1532.76 -0.736444 -2.94636 0
M  V30 16944 H 1530.34 -0.425684 -1.43207 0
M  V30 16945 H 1532.22 1.50839 -3.93479 0
M  V30 16946 H 1530.9 1.7004 -2.75442 0
M  V30 16947 H 1529.8 -0.40671 -3.71883 0
M  V30 16948 H 1531.14 -0.515529 -4.89493 0
M  V30 16949 N 1532.79 1.52222 -0.408187 0
M  V30 16950 C 1534.02 2.05922 0.167187 0
M  V30 16951 C 1534.43 1.27824 1.3949 0
M  V30 16952 O 1533.77 0.323065 1.80837 0
M  V30 16953 C 1533.83 3.54734 0.583435 0
M  V30 16954 C 1533.5 4.53876 -0.533419 0
M  V30 16955 C 1534.49 5.00788 -1.3967 0
M  V30 16956 C 1532.18 4.97316 -0.705841 0
M  V30 16957 C 1534.17 5.89782 -2.41736 0
M  V30 16958 C 1531.86 5.86106 -1.72981 0
M  V30 16959 C 1532.86 6.32234 -2.58397 0
M  V30 16960 O 1532.55 7.19267 -3.59041 0
M  V30 16961 H 1532.28 0.675562 0.0243385 0
M  V30 16962 H 1534.83 1.97115 -0.577475 0
M  V30 16963 H 1533.06 3.61224 1.38036 0
M  V30 16964 H 1534.75 3.91085 1.08662 0
M  V30 16965 H 1535.52 4.67944 -1.27489 0
M  V30 16966 H 1531.4 4.60972 -0.0506558 0
M  V30 16967 H 1534.94 6.25708 -3.0844 0
M  V30 16968 H 1530.84 6.18364 -1.85193 0
M  V30 16969 H 1531.6 7.37376 -3.55274 0
M  V30 16970 N 1534.27 0.138579 1.5699 0
M  V30 16971 C 1535.51 -0.514627 1.95852 0
M  V30 16972 C 1535.84 -1.65424 1.02299 0
M  V30 16973 O 1535.1 -1.95635 0.0505654 0
M  V30 16974 C 1535.4 -1.06969 3.41017 0
M  V30 16975 C 1535.06 -0.049396 4.50873 0
M  V30 16976 C 1533.72 0.231103 4.80645 0
M  V30 16977 C 1536.08 0.644865 5.17195 0
M  V30 16978 C 1533.4 1.21181 5.74049 0
M  V30 16979 C 1535.76 1.61434 6.11655 0
M  V30 16980 C 1534.42 1.90262 6.3981 0
M  V30 16981 H 1533.69 -0.188315 0.716672 0
M  V30 16982 H 1536.34 0.223629 1.9019 0
M  V30 16983 H 1534.64 -1.88511 3.43469 0
M  V30 16984 H 1536.34 -1.58354 3.68409 0
M  V30 16985 H 1532.93 -0.278202 4.27696 0
M  V30 16986 H 1537.11 0.441346 4.94334 0
M  V30 16987 H 1532.37 1.4417 5.94159 0
M  V30 16988 H 1536.54 2.15786 6.62125 0
M  V30 16989 H 1534.17 2.66407 7.11991 0
M  V30 16990 N 1535.75 -1.57019 -0.13521 0
M  V30 16991 C 1536.68 -1.94319 -1.19646 0
M  V30 16992 C 1537.66 -0.810603 -1.40954 0
M  V30 16993 O 1538.84 -1.0673 -1.55374 0
M  V30 16994 C 1535.97 -2.22542 -2.55328 0
M  V30 16995 C 1535.01 -3.45151 -2.50546 0
M  V30 16996 S 1535.85 -4.98307 -1.96089 0
M  V30 16997 C 1537 -5.29665 -3.33476 0
M  V30 16998 H 1537.24 -2.8403 -0.878294 0
M  V30 16999 H 1534.77 -1.5058 -0.341313 0
M  V30 17000 H 1536.73 -2.39482 -3.33405 0
M  V30 17001 H 1535.39 -1.33474 -2.8433 0
M  V30 17002 H 1534.58 -3.62213 -3.50454 0
M  V30 17003 H 1534.18 -3.27514 -1.80583 0
M  V30 17004 H 1536.47 -5.23854 -4.29631 0
M  V30 17005 H 1537.42 -6.31031 -3.21256 0
M  V30 17006 H 1537.83 -4.57161 -3.31156 0
M  V30 17007 N 1537.22 0.404919 -1.52309 0
M  V30 17008 C 1538.17 1.49363 -1.75953 0
M  V30 17009 C 1539.14 1.54802 -0.60212 0
M  V30 17010 O 1540.33 1.71308 -0.840128 0
M  V30 17011 C 1537.47 2.86767 -1.91987 0
M  V30 17012 C 1536.58 2.90603 -3.19646 0
M  V30 17013 C 1535.71 4.19333 -3.26088 0
M  V30 17014 C 1534.75 4.17161 -4.47932 0
M  V30 17015 N 1533.89 5.37469 -4.51743 0
M  V30 17016 H 1538.73 1.28503 -2.6887 0
M  V30 17017 H 1536.27 0.623684 -1.33224 0
M  V30 17018 H 1538.23 3.66536 -1.99267 0
M  V30 17019 H 1536.86 3.06112 -1.02447 0
M  V30 17020 H 1535.91 2.033 -3.21517 0
M  V30 17021 H 1537.22 2.84864 -4.09456 0
M  V30 17022 H 1536.37 5.07497 -3.32463 0
M  V30 17023 H 1535.11 4.27774 -2.34224 0
M  V30 17024 H 1534.12 3.27386 -4.417 0
M  V30 17025 H 1535.34 4.10356 -5.41096 0
M  V30 17026 H 1533.29 5.46569 -3.62764 0
M  V30 17027 H 1533.21 5.3374 -5.35404 0
M  V30 17028 H 1534.47 6.27575 -4.62353 0
M  V30 17029 N 1538.7 1.43003 0.662408 0
M  V30 17030 C 1539.63 1.43407 1.78793 0
M  V30 17031 C 1540.65 0.331423 1.59391 0
M  V30 17032 O 1541.84 0.595291 1.68281 0
M  V30 17033 C 1538.94 1.22239 3.16087 0
M  V30 17034 C 1538.11 2.4517 3.6223 0
M  V30 17035 C 1537.17 2.19362 4.78296 0
M  V30 17036 O 1536.19 2.92651 4.88205 0
M  V30 17037 N 1537.4 1.20449 5.67866 0
M  V30 17038 H 1540.16 2.40426 1.78928 0
M  V30 17039 H 1537.72 1.38042 0.845936 0
M  V30 17040 H 1539.71 1.02871 3.91407 0
M  V30 17041 H 1538.28 0.336983 3.10778 0
M  V30 17042 H 1537.5 2.80024 2.77453 0
M  V30 17043 H 1538.79 3.27003 3.89803 0
M  V30 17044 H 1538.19 0.598577 5.62524 0
M  V30 17045 H 1536.75 1.07066 6.42946 0
M  V30 17046 N 1540.18 -0.899904 1.29381 0
M  V30 17047 C 1541.11 -2.00584 1.08817 0
M  V30 17048 C 1542.09 -1.626 0.000108013 0
M  V30 17049 O 1543.28 -1.87896 0.150764 0
M  V30 17050 C 1540.4 -3.32276 0.656508 0
M  V30 17051 C 1539.45 -3.89247 1.74325 0
M  V30 17052 S 1540.28 -4.18381 3.34242 0
M  V30 17053 C 1541.44 -5.53114 2.92943 0
M  V30 17054 H 1541.67 -2.1772 2.02448 0
M  V30 17055 H 1539.2 -1.04648 1.13526 0
M  V30 17056 H 1541.16 -4.08405 0.414172 0
M  V30 17057 H 1539.82 -3.1302 -0.260196 0
M  V30 17058 H 1539.02 -4.84363 1.39315 0
M  V30 17059 H 1538.62 -3.19805 1.9391 0
M  V30 17060 H 1540.91 -6.33576 2.39976 0
M  V30 17061 H 1541.85 -5.93048 3.8691 0
M  V30 17062 H 1542.26 -5.14962 2.31245 0
M  V30 17063 N 1541.66 -1.11854 -1.11024 0
M  V30 17064 C 1542.61 -0.77596 -2.19275 0
M  V30 17065 C 1543.6 0.234503 -1.67769 0
M  V30 17066 O 1544.81 0.0933372 -1.79758 0
M  V30 17067 H 1541.18 -0.23307 -0.71497 0
M  V30 17068 H 1543.15 -1.69749 -2.45414 0
M  V30 17069 C 1541.9 -0.240148 -3.4687 0
M  V30 17070 H 1541.22 -1.00895 -3.86859 0
M  V30 17071 H 1542.66 -0.0386799 -4.23982 0
M  V30 17072 C 1541.12 1.03056 -3.20751 0
M  V30 17073 O 1541.65 2.10948 -3.41854 0
M  V30 17074 N 1539.86 0.955066 -2.74457 0
M  V30 17075 H 1539.41 0.0769523 -2.57485 0
M  V30 17076 H 1539.36 1.80593 -2.57359 0
M  V30 17077 N 1543.14 1.28707 -0.909517 0
M  V30 17078 C 1544.41 1.90124 -0.459585 0
M  V30 17079 C 1544.79 1.82477 1.06139 0
M  V30 17080 O 1544.14 1.25792 1.90758 0
M  V30 17081 C 1544.35 3.34806 -0.985188 0
M  V30 17082 C 1545.7 4.11799 -1.03475 0
M  V30 17083 O 1546.72 3.43749 -0.933536 0
M  V30 17084 O 1545.58 5.33426 -1.18825 0
M  V30 17085 H 1542.68 0.814199 -0.144948 0
M  V30 17086 H 1545.22 1.37104 -1.00002 0
M  V30 17087 H 1543.99 3.34575 -2.02917 0
M  V30 17088 H 1543.62 3.95318 -0.425329 0
M  V30 17089 N 1544.61 0.673042 1.42506 0
M  V30 17090 C 1545.58 0.00283156 2.292 0
M  V30 17091 C 1546.58 -0.73077 1.43235 0
M  V30 17092 O 1547.77 -0.569037 1.64644 0
M  V30 17093 C 1544.9 -1.00666 3.25698 0
M  V30 17094 H 1546.09 0.765869 2.89956 0
M  V30 17095 H 1543.65 0.435301 1.50116 0
M  V30 17096 H 1544.38 -1.79825 2.69877 0
M  V30 17097 H 1544.17 -0.484043 3.89101 0
M  V30 17098 H 1545.66 -1.47409 3.90718 0
M  V30 17099 N 1546.09 -1.52004 0.416254 0
M  V30 17100 C 1547.04 -2.24037 -0.423226 0
M  V30 17101 C 1548.03 -1.25444 -1.0076 0
M  V30 17102 O 1549.22 -1.50646 -0.92924 0
M  V30 17103 C 1546.35 -3.07048 -1.53547 0
M  V30 17104 C 1545.43 -4.13056 -0.961518 0
M  V30 17105 N 1545.82 -5.0567 -0.114849 0
M  V30 17106 C 1544.12 -4.28667 -1.2313 0
M  V30 17107 C 1544.82 -5.81338 0.205249 0
M  V30 17108 N 1543.8 -5.42084 -0.405736 0
M  V30 17109 H 1547.6 -2.93 0.229864 0
M  V30 17110 H 1545.12 -1.60804 0.227087 0
M  V30 17111 H 1547.11 -3.57212 -2.14954 0
M  V30 17112 H 1545.77 -2.39626 -2.19111 0
M  V30 17113 H 1546.78 -5.17296 0.250006 0
M  V30 17114 H 1543.46 -3.72474 -1.88599 0
M  V30 17115 H 1544.85 -6.6594 0.892938 0
M  V30 17116 N 1547.57 -0.146903 -1.56914 0
M  V30 17117 C 1548.52 0.804576 -2.13332 0
M  V30 17118 C 1549.5 1.2095 -1.06112 0
M  V30 17119 O 1550.7 1.17594 -1.3229 0
M  V30 17120 C 1547.83 2.0437 -2.7584 0
M  V30 17121 C 1546.91 1.66188 -3.90183 0
M  V30 17122 N 1547.3 0.988267 -4.96051 0
M  V30 17123 C 1545.6 1.9546 -4.00888 0
M  V30 17124 C 1546.3 0.803957 -5.76118 0
M  V30 17125 N 1545.28 1.33779 -5.26882 0
M  V30 17126 H 1549.08 0.280693 -2.92557 0
M  V30 17127 H 1546.59 0.0546404 -1.62308 0
M  V30 17128 H 1548.59 2.73532 -3.1462 0
M  V30 17129 H 1547.25 2.57276 -1.98089 0
M  V30 17130 H 1548.26 0.64904 -5.13817 0
M  V30 17131 H 1544.94 2.50216 -3.34213 0
M  V30 17132 H 1546.33 0.273065 -6.71345 0
M  V30 17133 N 1549.05 1.57088 0.126881 0
M  V30 17134 C 1550.3 1.84071 0.834397 0
M  V30 17135 C 1550.62 0.730896 1.80784 0
M  V30 17136 O 1549.89 -0.245791 1.94352 0
M  V30 17137 H 1548.47 0.679123 0.311128 0
M  V30 17138 H 1551.13 1.94554 0.116083 0
M  V30 17139 H 1550.23 2.79714 1.38443 0
M  V30 17140 N 1550.53 -0.396836 1.52522 0
M  V30 17141 C 1551.77 -1.14037 1.66853 0
M  V30 17142 C 1552.1 -1.90706 0.406987 0
M  V30 17143 O 1551.37 -1.87165 -0.578443 0
M  V30 17144 H 1549.95 -0.423967 0.615029 0
M  V30 17145 H 1552.61 -0.451042 1.89609 0
M  V30 17146 H 1551.7 -1.84763 2.51533 0
M  V30 17147 N 1552.01 -1.43353 -0.654814 0
M  V30 17148 C 1553.25 -1.46096 -1.41518 0
M  V30 17149 C 1553.61 -0.0833089 -1.9222 0
M  V30 17150 O 1552.9 0.897806 -1.69263 0
M  V30 17151 C 1553.09 -2.437 -2.61429 0
M  V30 17152 C 1552.92 -3.90819 -2.22464 0
M  V30 17153 C 1551.69 -4.59199 -2.10867 0
M  V30 17154 C 1553.89 -4.80698 -1.8285 0
M  V30 17155 N 1551.87 -5.91251 -1.65215 0
M  V30 17156 C 1553.24 -6.0201 -1.48269 0
M  V30 17157 C 1555.3 -4.67972 -1.70019 0
M  V30 17158 C 1554 -7.12011 -1.02142 0
M  V30 17159 C 1556.03 -5.77975 -1.25297 0
M  V30 17160 C 1555.39 -6.98412 -0.916516 0
M  V30 17161 H 1551.49 -0.589722 -0.513568 0
M  V30 17162 H 1554.07 -1.79521 -0.753681 0
M  V30 17163 H 1552.24 -2.12304 -3.25241 0
M  V30 17164 H 1553.98 -2.36892 -3.28123 0
M  V30 17165 H 1550.73 -4.13682 -2.30573 0
M  V30 17166 H 1551.15 -6.61343 -1.44756 0
M  V30 17167 H 1555.8 -3.75317 -1.94671 0
M  V30 17168 H 1553.51 -8.04496 -0.762381 0
M  V30 17169 H 1557.1 -5.70147 -1.15861 0
M  V30 17170 H 1555.98 -7.82084 -0.575735 0
M  V30 17171 N 1553.48 0.89303 -1.29857 0
M  V30 17172 C 1554.71 1.67744 -1.21119 0
M  V30 17173 C 1555.13 1.87428 0.227198 0
M  V30 17174 O 1554.48 1.41605 1.15128 0
M  V30 17175 C 1554.53 3.05827 -1.92749 0
M  V30 17176 O 1554.26 2.87036 -3.30971 0
M  V30 17177 C 1555.76 4.00248 -1.9057 0
M  V30 17178 H 1552.98 0.523699 -0.4195 0
M  V30 17179 H 1555.52 1.1163 -1.71344 0
M  V30 17180 H 1553.68 3.58696 -1.46342 0
M  V30 17181 H 1554.09 3.74578 -3.6714 0
M  V30 17182 H 1555.56 4.9453 -2.45242 0
M  V30 17183 H 1556.04 4.30237 -0.882753 0
M  V30 17184 H 1556.65 3.53312 -2.36751 0
M  V30 17185 N 1554.96 1.12442 1.10429 0
M  V30 17186 C 1556.19 0.902599 1.86174 0
M  V30 17187 C 1556.6 -0.548147 1.80668 0
M  V30 17188 O 1555.96 -1.37898 1.19543 0
M  V30 17189 C 1556.01 1.36912 3.34571 0
M  V30 17190 O 1555.73 2.763 3.39985 0
M  V30 17191 C 1557.23 1.18424 4.27189 0
M  V30 17192 H 1554.45 0.322534 0.588399 0
M  V30 17193 H 1557 1.49439 1.396 0
M  V30 17194 H 1555.15 0.82055 3.7861 0
M  V30 17195 H 1555.57 2.96772 4.32466 0
M  V30 17196 H 1557.04 1.55954 5.29511 0
M  V30 17197 H 1557.52 0.12483 4.39023 0
M  V30 17198 H 1558.12 1.72032 3.88954 0
M  V30 17199 N 1556.44 -1.28223 0.91633 0
M  V30 17200 C 1557.39 -2.27215 0.40521 0
M  V30 17201 C 1558.36 -1.57693 -0.521734 0
M  V30 17202 O 1559.54 -1.85577 -0.443369 0
M  V30 17203 C 1556.68 -3.43358 -0.346303 0
M  V30 17204 C 1555.79 -4.27622 0.613443 0
M  V30 17205 C 1554.93 -5.30969 -0.156775 0
M  V30 17206 C 1553.97 -6.06897 0.796418 0
M  V30 17207 N 1553.11 -7.02075 0.0595539 0
M  V30 17208 H 1557.95 -2.70312 1.2544 0
M  V30 17209 H 1555.48 -1.32933 0.629859 0
M  V30 17210 H 1557.44 -4.09492 -0.798231 0
M  V30 17211 H 1556.07 -3.01244 -1.15982 0
M  V30 17212 H 1555.12 -3.61508 1.1839 0
M  V30 17213 H 1556.43 -4.80397 1.34239 0
M  V30 17214 H 1555.59 -6.02999 -0.669146 0
M  V30 17215 H 1554.33 -4.78968 -0.918755 0
M  V30 17216 H 1553.33 -5.33716 1.32014 0
M  V30 17217 H 1554.56 -6.60987 1.558 0
M  V30 17218 H 1552.5 -6.5242 -0.684388 0
M  V30 17219 H 1552.42 -7.52484 0.728275 0
M  V30 17220 H 1553.69 -7.78299 -0.432538 0
M  V30 17221 N 1557.92 -0.68059 -1.42147 0
M  V30 17222 C 1558.85 0.0444079 -2.28157 0
M  V30 17223 C 1559.83 0.802929 -1.41392 0
M  V30 17224 O 1561.01 0.796856 -1.70829 0
M  V30 17225 C 1558.14 1.07013 -3.2135 0
M  V30 17226 C 1557.19 0.406524 -4.24558 0
M  V30 17227 S 1558.02 -0.840134 -5.28869 0
M  V30 17228 C 1559.17 0.184372 -6.25628 0
M  V30 17229 H 1559.41 -0.685124 -2.89298 0
M  V30 17230 H 1556.94 -0.470332 -1.47062 0
M  V30 17231 H 1558.9 1.65683 -3.75579 0
M  V30 17232 H 1557.56 1.77215 -2.59333 0
M  V30 17233 H 1556.75 1.18069 -4.89975 0
M  V30 17234 H 1556.35 -0.10672 -3.73848 0
M  V30 17235 H 1558.65 1.04232 -6.69434 0
M  V30 17236 H 1559.59 -0.43548 -7.0676 0
M  V30 17237 H 1560 0.532442 -5.61983 0
M  V30 17238 N 1559.4 1.51781 -0.424309 0
M  V30 17239 C 1560.67 1.94514 0.205791 0
M  V30 17240 C 1561.05 1.36219 1.61269 0
M  V30 17241 O 1560.4 0.544019 2.21929 0
M  V30 17242 C 1560.61 3.48445 0.196749 0
M  V30 17243 C 1561.96 4.22628 0.408702 0
M  V30 17244 O 1562.98 3.55133 0.275441 0
M  V30 17245 O 1561.84 5.42344 0.672698 0
M  V30 17246 H 1558.94 0.815576 0.136983 0
M  V30 17247 H 1561.48 1.6273 -0.481349 0
M  V30 17248 H 1560.25 3.83297 -0.787342 0
M  V30 17249 H 1559.88 3.86634 0.92735 0
M  V30 17250 N 1560.87 0.155222 1.56834 0
M  V30 17251 C 1562.12 -0.488126 1.97456 0
M  V30 17252 C 1562.47 -1.61935 1.03898 0
M  V30 17253 O 1561.77 -1.91451 0.0755621 0
M  V30 17254 C 1561.96 -1.03346 3.42132 0
M  V30 17255 C 1561.79 0.0434014 4.49679 0
M  V30 17256 C 1560.56 0.487619 5.02942 0
M  V30 17257 C 1562.76 0.837907 5.07428 0
M  V30 17258 N 1560.74 1.54646 5.94102 0
M  V30 17259 C 1562.11 1.74705 5.94877 0
M  V30 17260 C 1564.17 0.884781 4.89976 0
M  V30 17261 C 1562.87 2.69907 6.6674 0
M  V30 17262 C 1564.9 1.82467 5.62548 0
M  V30 17263 C 1564.26 2.72132 6.4971 0
M  V30 17264 H 1560.36 -0.147187 0.768023 0
M  V30 17265 H 1562.94 0.251725 1.93066 0
M  V30 17266 H 1561.11 -1.74288 3.471 0
M  V30 17267 H 1562.84 -1.6441 3.69799 0
M  V30 17268 H 1559.6 0.0883276 4.73518 0
M  V30 17269 H 1560.02 2.07589 6.44388 0
M  V30 17270 H 1564.66 0.205617 4.223 0
M  V30 17271 H 1562.38 3.3882 7.33639 0
M  V30 17272 H 1565.97 1.86684 5.51036 0
M  V30 17273 H 1564.85 3.43676 7.0488 0
M  V30 17274 N 1562.35 -1.57153 -0.118549 0
M  V30 17275 C 1563.6 -1.84064 -0.824832 0
M  V30 17276 C 1563.91 -0.740941 -1.81023 0
M  V30 17277 O 1565.12 -0.896464 -2.56273 0
M  V30 17278 C 1563.58 -3.26338 -1.51761 0
M  V30 17279 C 1563.18 -4.44318 -0.573174 0
M  V30 17280 C 1564.93 -3.62496 -2.209 0
M  V30 17281 C 1562.83 -5.7762 -1.2692 0
M  V30 17282 H 1561.76 -0.686521 -0.311777 0
M  V30 17283 H 1564.42 -1.83336 -0.0775833 0
M  V30 17284 H 1562.8 -3.21537 -2.3115 0
M  V30 17285 H 1563.97 -4.60418 0.187529 0
M  V30 17286 H 1562.29 -4.16398 0.0112747 0
M  V30 17287 H 1564.88 -4.5936 -2.73666 0
M  V30 17288 H 1565.23 -2.89952 -2.9872 0
M  V30 17289 H 1565.76 -3.69084 -1.48399 0
M  V30 17290 H 1562.5 -6.53335 -0.532285 0
M  V30 17291 H 1562.02 -5.65406 -2.00191 0
M  V30 17292 H 1563.7 -6.21391 -1.80227 0
M  V30 17293 N 1563.83 0.388742 -1.5273 0
M  V30 17294 C 1565.08 1.13375 -1.67787 0
M  V30 17295 C 1565.4 1.89957 -0.417925 0
M  V30 17296 O 1564.66 1.86286 0.599682 0
M  V30 17297 C 1564.96 2.13792 -2.86405 0
M  V30 17298 C 1564.62 1.53865 -4.23835 0
M  V30 17299 C 1563.29 1.37248 -4.61212 0
M  V30 17300 C 1565.64 1.10298 -5.09395 0
M  V30 17301 C 1562.97 0.756119 -5.81807 0
M  V30 17302 C 1565.32 0.500723 -6.30615 0
M  V30 17303 C 1563.98 0.321851 -6.66724 0
M  V30 17304 H 1563.25 0.414868 -0.613975 0
M  V30 17305 H 1565.9 0.418351 -1.86874 0
M  V30 17306 H 1564.2 2.91551 -2.61735 0
M  V30 17307 H 1565.9 2.71346 -2.95249 0
M  V30 17308 H 1562.49 1.67787 -3.94393 0
M  V30 17309 H 1566.68 1.21938 -4.81087 0
M  V30 17310 H 1561.93 0.605734 -6.08392 0
M  V30 17311 H 1566.11 0.154839 -6.96228 0
M  V30 17312 H 1563.73 -0.157836 -7.60036 0
M  V30 17313 N 1565.31 1.43698 0.647203 0
M  V30 17314 C 1566.26 1.45765 1.75318 0
M  V30 17315 C 1567.24 0.32536 1.57576 0
M  V30 17316 O 1568.43 0.569564 1.67586 0
M  V30 17317 C 1565.56 1.38923 3.13935 0
M  V30 17318 C 1564.65 2.57205 3.37204 0
M  V30 17319 N 1565.04 3.82529 3.30916 0
M  V30 17320 C 1563.34 2.52057 3.67944 0
M  V30 17321 C 1564.04 4.61252 3.54431 0
M  V30 17322 N 1563.01 3.92076 3.76534 0
M  V30 17323 H 1566.82 2.40527 1.6889 0
M  V30 17324 H 1564.33 1.38435 0.849093 0
M  V30 17325 H 1566.33 1.38487 3.93226 0
M  V30 17326 H 1564.99 0.451864 3.2154 0
M  V30 17327 H 1566 4.1473 3.10192 0
M  V30 17328 H 1562.68 1.67038 3.82628 0
M  V30 17329 H 1564.07 5.70275 3.55297 0
M  V30 17330 N 1566.79 -0.886131 1.30328 0
M  V30 17331 C 1568.01 -1.67099 1.22007 0
M  V30 17332 C 1568.43 -1.87546 -0.217255 0
M  V30 17333 O 1567.79 -1.42213 -1.14375 0
M  V30 17334 C 1567.84 -3.048 1.94368 0
M  V30 17335 O 1567.56 -2.85277 3.32489 0
M  V30 17336 C 1569.06 -3.99231 1.9269 0
M  V30 17337 H 1566.28 -0.521467 0.422271 0
M  V30 17338 H 1568.82 -1.1072 1.71934 0
M  V30 17339 H 1566.98 -3.57915 1.48242 0
M  V30 17340 H 1567.39 -3.72626 3.69121 0
M  V30 17341 H 1568.87 -4.93223 2.47861 0
M  V30 17342 H 1569.34 -4.29763 0.905558 0
M  V30 17343 H 1569.95 -3.52051 2.38621 0
M  V30 17344 N 1568.26 -1.13026 -1.09832 0
M  V30 17345 C 1569.51 -0.884093 -1.81292 0
M  V30 17346 C 1569.83 0.591608 -1.86439 0
M  V30 17347 O 1571.03 0.954571 -2.54166 0
M  V30 17348 C 1569.49 -1.53207 -3.25662 0
M  V30 17349 C 1569.1 -3.043 -3.28794 0
M  V30 17350 C 1570.84 -1.36644 -4.01906 0
M  V30 17351 C 1568.75 -3.62003 -4.67662 0
M  V30 17352 H 1567.68 -0.327101 -0.679353 0
M  V30 17353 H 1570.33 -1.35748 -1.2347 0
M  V30 17354 H 1568.71 -0.986353 -3.83519 0
M  V30 17355 H 1569.88 -3.65418 -2.80725 0
M  V30 17356 H 1568.2 -3.20332 -2.66038 0
M  V30 17357 H 1570.8 -1.7717 -5.04495 0
M  V30 17358 H 1571.14 -0.310809 -4.15138 0
M  V30 17359 H 1571.67 -1.88172 -3.5048 0
M  V30 17360 H 1568.41 -4.67354 -4.59631 0
M  V30 17361 H 1567.93 -3.05663 -5.16072 0
M  V30 17362 H 1569.61 -3.61432 -5.36634 0
M  V30 17363 N 1569.74 1.27735 -0.923117 0
M  V30 17364 C 1570.69 2.26997 -0.417254 0
M  V30 17365 C 1571.66 1.57968 0.513364 0
M  V30 17366 O 1572.84 1.8581 0.433521 0
M  V30 17367 C 1569.98 3.43537 0.328089 0
M  V30 17368 C 1569.1 4.27291 -0.636112 0
M  V30 17369 C 1568.23 5.31044 0.128614 0
M  V30 17370 C 1567.27 6.06466 -0.828592 0
M  V30 17371 N 1566.41 7.02033 -0.0967858 0
M  V30 17372 H 1571.25 2.69643 -1.26872 0
M  V30 17373 H 1568.79 1.32597 -0.6369 0
M  V30 17374 H 1570.74 4.0991 0.776504 0
M  V30 17375 H 1569.37 3.01855 1.14383 0
M  V30 17376 H 1568.43 3.60875 -1.20306 0
M  V30 17377 H 1569.74 4.79679 -1.36784 0
M  V30 17378 H 1568.89 6.03345 0.637159 0
M  V30 17379 H 1567.63 4.79448 0.893341 0
M  V30 17380 H 1566.64 5.33008 -1.34843 0
M  V30 17381 H 1567.86 6.60151 -1.59303 0
M  V30 17382 H 1565.81 6.52774 0.649779 0
M  V30 17383 H 1565.72 7.52087 -0.768171 0
M  V30 17384 H 1566.99 7.78517 0.391257 0
M  V30 17385 N 1571.22 0.688118 1.41784 0
M  V30 17386 C 1572.15 -0.02099 2.2919 0
M  V30 17387 C 1573.17 -0.752005 1.44391 0
M  V30 17388 O 1574.35 -0.603947 1.67972 0
M  V30 17389 C 1571.45 -1.0537 3.22103 0
M  V30 17390 C 1570.63 -0.393817 4.35624 0
M  V30 17391 C 1569.69 -1.32812 5.09163 0
M  V30 17392 O 1568.71 -0.823341 5.63214 0
M  V30 17393 N 1569.91 -2.66083 5.15927 0
M  V30 17394 H 1572.68 0.729389 2.90689 0
M  V30 17395 H 1570.24 0.533564 1.52855 0
M  V30 17396 H 1572.23 -1.6803 3.68169 0
M  V30 17397 H 1570.8 -1.70568 2.61964 0
M  V30 17398 H 1570.02 0.41253 3.92035 0
M  V30 17399 H 1571.31 0.065338 5.08758 0
M  V30 17400 H 1570.71 -3.09619 4.73448 0
M  V30 17401 H 1569.27 -3.23956 5.65593 0
M  V30 17402 N 1572.7 -1.51554 0.432352 0
M  V30 17403 C 1573.65 -2.24474 -0.39944 0
M  V30 17404 C 1574.63 -1.26505 -0.994242 0
M  V30 17405 O 1575.82 -1.51623 -0.913209 0
M  V30 17406 C 1572.95 -3.08659 -1.50282 0
M  V30 17407 C 1572.04 -4.14053 -0.917654 0
M  V30 17408 N 1572.43 -5.05763 -0.061209 0
M  V30 17409 C 1570.73 -4.29949 -1.18576 0
M  V30 17410 C 1571.43 -5.81087 0.266897 0
M  V30 17411 N 1570.41 -5.42484 -0.348218 0
M  V30 17412 H 1574.21 -2.92739 0.260928 0
M  V30 17413 H 1571.72 -1.60555 0.24413 0
M  V30 17414 H 1573.72 -3.59472 -2.11153 0
M  V30 17415 H 1572.38 -2.41936 -2.16557 0
M  V30 17416 H 1573.39 -5.17002 0.304858 0
M  V30 17417 H 1570.07 -3.74453 -1.84638 0
M  V30 17418 H 1571.46 -6.64956 0.963519 0
M  V30 17419 N 1574.18 -0.163538 -1.56749 0
M  V30 17420 C 1575.14 0.755801 -2.1638 0
M  V30 17421 C 1576.14 1.16359 -1.10982 0
M  V30 17422 O 1577.33 1.08182 -1.36537 0
M  V30 17423 C 1574.46 2.02775 -2.74035 0
M  V30 17424 H 1575.65 0.23681 -2.98964 0
M  V30 17425 H 1573.21 0.0859925 -1.56063 0
M  V30 17426 H 1573.94 2.59002 -1.95163 0
M  V30 17427 H 1573.73 1.74439 -3.5116 0
M  V30 17428 H 1575.22 2.684 -3.19923 0
M  V30 17429 N 1575.65 1.57214 0.110213 0
M  V30 17430 C 1576.58 2.04015 1.13579 0
M  V30 17431 C 1577.57 0.926215 1.42672 0
M  V30 17432 O 1578.75 1.19651 1.52962 0
M  V30 17433 C 1575.88 2.45187 2.45969 0
M  V30 17434 C 1574.83 3.60105 2.31319 0
M  V30 17435 C 1574.16 3.87205 3.68749 0
M  V30 17436 C 1575.46 4.91526 1.76635 0
M  V30 17437 H 1577.15 2.89944 0.746496 0
M  V30 17438 H 1574.7 1.39488 0.357642 0
M  V30 17439 H 1576.65 2.76534 3.17973 0
M  V30 17440 H 1575.38 1.56238 2.86805 0
M  V30 17441 H 1574.04 3.28981 1.61762 0
M  V30 17442 H 1573.68 2.95448 4.07087 0
M  V30 17443 H 1573.38 4.64563 3.59798 0
M  V30 17444 H 1574.91 4.21013 4.42245 0
M  V30 17445 H 1576.32 5.21351 2.38465 0
M  V30 17446 H 1574.72 5.72944 1.78482 0
M  V30 17447 H 1575.79 4.79456 0.724573 0
M  V30 17448 N 1577.13 -0.380637 1.52934 0
M  V30 17449 C 1578.08 -1.48584 1.78957 0
M  V30 17450 C 1579.07 -1.56103 0.657901 0
M  V30 17451 O 1580.28 -1.59169 0.84055 0
M  V30 17452 H 1576.66 -0.494687 0.566382 0
M  V30 17453 H 1578.63 -1.23833 2.71492 0
M  V30 17454 C 1577.38 -2.85615 1.98291 0
M  V30 17455 H 1576.7 -2.80583 2.84804 0
M  V30 17456 H 1578.14 -3.62164 2.20485 0
M  V30 17457 C 1576.6 -3.28267 0.757764 0
M  V30 17458 O 1577.13 -4.01654 -0.0608007 0
M  V30 17459 N 1575.33 -2.84641 0.585486 0
M  V30 17460 H 1574.88 -2.25087 1.25274 0
M  V30 17461 H 1574.84 -3.13536 -0.232871 0
M  V30 17462 O 1578.65 -1.52674 -0.526592 0
M  V30 17463 H 1579.34 -1.53479 -1.18169 0
M  V30 END ATOM
M  V30 BEGIN BOND
M  V30 END BOND
M  V30 END CTAB
M  END
$$$$
