drugbank_target|P42328 Alcohol dehydrogenase (DB03226)
 OpenBabel12092120013D

  0  0  0     0  0            999 V3000
M  V30 BEGIN CTAB
M  V30 COUNTS 5165 5216 0 0 0
M  V30 BEGIN ATOM
M  V30 1 H -0.908 1.98254 -0.117106 0
M  V30 2 N 0 1.576 0 0
M  V30 3 C 0.933 2.03868 1.02534 0
M  V30 4 C 1.911 0.928543 1.3348 0
M  V30 5 O 3.095 1.19667 1.45644 0
M  V30 6 C 0.222 2.43627 2.35294 0
M  V30 7 C -0.732 3.65373 2.2001 0
M  V30 8 S 0.101 5.13292 1.52614 0
M  V30 9 C 1.257 5.56322 2.86805 0
M  V30 10 H 1.49 2.90518 0.631377 0
M  V30 11 H -0.977 1.52953 0.210867 0
M  V30 12 H 0.981 2.67203 3.11629 0
M  V30 13 H -0.358 1.57376 2.7183 0
M  V30 14 H -1.165 3.90944 3.18086 0
M  V30 15 H -1.563 3.418 1.51819 0
M  V30 16 H 0.729 5.58782 3.83104 0
M  V30 17 H 1.672 6.56266 2.65933 0
M  V30 18 H 2.08 4.83886 2.90714 0
M  V30 19 N 1.4781 -0.272755 1.55222 0
M  V30 20 C 2.4251 -1.33716 1.88119 0
M  V30 21 C 3.3951 -1.49066 0.73271 0
M  V30 22 O 4.5801 -1.63469 0.984002 0
M  V30 23 C 1.7201 -2.69238 2.15882 0
M  V30 24 C 0.8331 -2.62108 3.43399 0
M  V30 25 C -0.0319 -3.89811 3.60861 0
M  V30 26 C -0.9929 -3.77193 4.8207 0
M  V30 27 N -1.8559 -4.9673 4.96189 0
M  V30 28 H 2.9841 -1.04962 2.78903 0
M  V30 29 H 0.5211 -0.507088 1.38083 0
M  V30 30 H 2.4791 -3.48089 2.29978 0
M  V30 31 H 1.1091 -2.96194 1.28331 0
M  V30 32 H 0.1611 -1.74967 3.37773 0
M  V30 33 H 1.4731 -2.48685 4.32386 0
M  V30 34 H 0.6271 -4.77103 3.74777 0
M  V30 35 H -0.6339 -4.06102 2.7006 0
M  V30 36 H -1.6289 -2.88284 4.68159 0
M  V30 37 H -0.4039 -3.62421 5.74307 0
M  V30 38 H -2.4579 -5.13431 4.08319 0
M  V30 39 H -2.5409 -4.85839 5.79221 0
M  V30 40 H -1.2729 -5.85594 5.1449 0
M  V30 41 N 2.9562 -1.48159 -0.537278 0
M  V30 42 C 3.9192 -1.61665 -1.62472 0
M  V30 43 C 4.9192 -0.490395 -1.5314 0
M  V30 44 O 6.1092 -0.755998 -1.5694 0
M  V30 45 C 3.2412 -1.57997 -3.02076 0
M  V30 46 H 4.4342 -2.58621 -1.51839 0
M  V30 47 H 1.9872 -1.36647 -0.758771 0
M  V30 48 H 2.7222 -0.624913 -3.18222 0
M  V30 49 H 2.5072 -2.39755 -3.10258 0
M  V30 50 H 3.9972 -1.70627 -3.81151 0
M  V30 51 N 4.4343 0.785586 -1.36625 0
M  V30 52 C 5.3973 1.87999 -1.31107 0
M  V30 53 C 6.3973 1.59316 -0.217959 0
M  V30 54 O 7.5873 1.67656 -0.472977 0
M  V30 55 C 4.7193 3.24861 -1.03334 0
M  V30 56 H 5.9123 1.94307 -2.2844 0
M  V30 57 H 3.4653 0.983813 -1.21453 0
M  V30 58 H 4.2003 3.24235 -0.0647432 0
M  V30 59 H 3.9853 3.4707 -1.82441 0
M  V30 60 H 5.4753 4.04929 -1.02088 0
M  V30 61 N 5.9124 1.20967 1.01018 0
M  V30 62 C 7.1584 1.02526 1.74975 0
M  V30 63 C 7.4914 -0.4408 1.89131 0
M  V30 64 O 6.7664 -1.32718 1.42184 0
M  V30 65 C 7.0494 1.71699 3.1653 0
M  V30 66 C 6.9024 3.25791 3.10129 0
M  V30 67 C 8.2214 1.45531 4.15342 0
M  V30 68 H 5.3404 0.373863 0.635134 0
M  V30 69 H 7.9824 1.49071 1.17805 0
M  V30 70 H 6.1324 1.32128 3.65341 0
M  V30 71 H 7.8044 3.74697 2.69072 0
M  V30 72 H 6.0474 3.56363 2.47362 0
M  V30 73 H 6.7184 3.69353 4.10222 0
M  V30 74 H 9.1944 1.79872 3.75213 0
M  V30 75 H 8.0704 1.96453 5.1254 0
M  V30 76 H 8.3314 0.384237 4.40427 0
M  V30 77 N 7.3905 -1.2043 1.01659 0
M  V30 78 C 8.6365 -1.90079 0.706963 0
M  V30 79 C 8.9695 -1.78648 -0.761474 0
M  V30 80 O 8.2445 -1.17069 -1.55323 0
M  V30 81 C 8.5275 -3.41469 1.14327 0
M  V30 82 C 8.3805 -3.61833 2.67201 0
M  V30 83 C 9.6995 -4.34261 0.714529 0
M  V30 84 H 6.8185 -0.690254 0.2583 0
M  V30 85 H 9.4605 -1.41826 1.26433 0
M  V30 86 H 7.6105 -3.82696 0.669056 0
M  V30 87 H 9.2825 -3.2986 3.22475 0
M  V30 88 H 7.5255 -3.05304 3.08175 0
M  V30 89 H 8.1965 -4.67955 2.92783 0
M  V30 90 H 10.6725 -4.00682 1.12221 0
M  V30 91 H 9.5485 -5.38806 1.04784 0
M  V30 92 H 9.8095 -4.40431 -0.383799 0
M  V30 93 N 8.8686 -0.792821 -1.36206 0
M  V30 94 C 9.7786 -0.194808 -2.3379 0
M  V30 95 C 10.7946 0.654869 -1.61206 0
M  V30 96 O 11.9706 0.569856 -1.9317 0
M  V30 97 C 9.0356 0.657721 -3.40404 0
M  V30 98 C 8.0966 -0.210849 -4.28782 0
M  V30 99 C 7.3296 0.601086 -5.30304 0
M  V30 100 O 7.5526 1.83682 -5.40016 0
M  V30 101 O 6.4866 -0.000808277 -6.019 0
M  V30 102 H 10.3126 -1.00172 -2.86704 0
M  V30 103 H 7.8976 -0.554341 -1.38735 0
M  V30 104 H 9.7796 1.14375 -4.05581 0
M  V30 105 H 8.4546 1.44247 -2.89784 0
M  V30 106 H 7.3616 -0.743714 -3.66633 0
M  V30 107 H 8.6946 -0.959195 -4.82763 0
M  V30 108 N 10.3467 1.47872 -0.545128 0
M  V30 109 C 11.2787 2.27869 0.246621 0
M  V30 110 C 12.2917 1.36282 0.890561 0
M  V30 111 O 13.4807 1.61207 0.766449 0
M  V30 112 C 10.5807 3.10159 1.36582 0
M  V30 113 C 9.7537 4.29627 0.820954 0
M  V30 114 C 8.8127 4.93607 1.82314 0
M  V30 115 O 7.8387 5.52366 1.37406 0
M  V30 116 N 9.0407 4.87211 3.15603 0
M  V30 117 H 11.8057 2.96459 -0.439539 0
M  V30 118 H 9.3667 1.57367 -0.380421 0
M  V30 119 H 11.3587 3.49829 2.03474 0
M  V30 120 H 9.9287 2.43891 1.9554 0
M  V30 121 H 9.1487 3.94192 -0.0244032 0
M  V30 122 H 10.4367 5.06928 0.436063 0
M  V30 123 H 9.8347 4.40651 3.54744 0
M  V30 124 H 8.3917 5.30937 3.78087 0
M  V30 125 N 11.8248 0.280983 1.55075 0
M  V30 126 C 13.0718 -0.334115 1.99725 0
M  V30 127 C 13.3998 -1.5542 1.1694 0
M  V30 128 O 12.6548 -1.94361 0.228531 0
M  V30 129 C 12.9538 -0.754656 3.49342 0
M  V30 130 C 12.6198 0.361445 4.49449 0
M  V30 131 C 11.2818 0.667893 4.76542 0
M  V30 132 C 13.6338 1.11322 5.09173 0
M  V30 133 C 10.9618 1.7296 5.60626 0
M  V30 134 C 13.3138 2.1647 5.9441 0
M  V30 135 C 11.9778 2.47742 6.19822 0
M  V30 136 H 11.2478 -0.122261 0.730844 0
M  V30 137 H 13.8948 0.395917 1.87363 0
M  V30 138 H 12.1998 -1.56446 3.5921 0
M  V30 139 H 13.8968 -1.24142 3.813 0
M  V30 140 H 10.4868 0.112481 4.28452 0
M  V30 141 H 14.6708 0.88973 4.8826 0
M  V30 142 H 9.9268 1.97684 5.78559 0
M  V30 143 H 14.1008 2.75193 6.3972 0
M  V30 144 H 11.7278 3.30145 6.84769 0
M  V30 145 N 13.3029 -1.57598 0.00835791 0
M  V30 146 C 14.2499 -2.08945 -0.980346 0
M  V30 147 C 15.2199 -0.986738 -1.33614 0
M  V30 148 O 16.4049 -1.25968 -1.43306 0
M  V30 149 C 13.5449 -2.60425 -2.26435 0
M  V30 150 C 12.6579 -3.84628 -1.96685 0
M  V30 151 C 11.7929 -4.24579 -3.19228 0
M  V30 152 C 10.8319 -5.41596 -2.85202 0
M  V30 153 N 9.9689 -5.768 -4.00307 0
M  V30 154 H 14.8089 -2.93148 -0.535551 0
M  V30 155 H 12.3459 -1.44912 -0.252776 0
M  V30 156 H 14.3039 -2.88354 -3.01509 0
M  V30 157 H 12.9339 -1.79083 -2.68568 0
M  V30 158 H 11.9859 -3.63556 -1.11942 0
M  V30 159 H 13.2979 -4.69796 -1.67611 0
M  V30 160 H 12.4519 -4.53834 -4.02641 0
M  V30 161 H 11.1909 -3.38137 -3.51447 0
M  V30 162 H 10.1959 -5.12056 -2.00198 0
M  V30 163 H 11.4209 -6.29721 -2.54222 0
M  V30 164 H 9.3669 -4.93316 -4.32407 0
M  V30 165 H 9.2839 -6.5656 -3.74786 0
M  V30 166 H 10.5519 -6.10652 -4.84484 0
M  V30 167 N 14.781 0.264519 -1.55364 0
M  V30 168 C 15.691 1.34902 -1.91934 0
M  V30 169 C 16.707 1.53595 -0.817593 0
M  V30 170 O 17.883 1.67558 -1.11742 0
M  V30 171 C 14.948 2.68676 -2.19121 0
M  V30 172 C 14.009 2.58657 -3.4263 0
M  V30 173 C 13.242 3.86051 -3.68511 0
M  V30 174 O 13.465 4.87126 -2.96757 0
M  V30 175 O 12.399 3.85744 -4.62045 0
M  V30 176 H 16.225 1.06883 -2.8427 0
M  V30 177 H 13.81 0.463775 -1.42019 0
M  V30 178 H 15.692 3.47759 -2.37995 0
M  V30 179 H 14.367 2.96463 -1.29966 0
M  V30 180 H 13.274 1.7792 -3.29082 0
M  V30 181 H 14.607 2.35818 -4.32031 0
M  V30 182 N 16.2591 1.48442 0.529413 0
M  V30 183 C 17.6701 1.5002 1.11134 0
M  V30 184 C 18.0211 0.27031 1.94329 0
M  V30 185 O 17.1461 -0.622507 2.07253 0
M  V30 186 C 17.7411 2.71834 2.02217 0
M  V30 187 C 16.3001 2.76283 2.55627 0
M  V30 188 C 15.4471 2.43542 1.326 0
M  V30 189 H 18.3981 1.5555 0.314641 0
M  V30 190 H 18.4191 2.50384 2.8651 0
M  V30 191 H 17.9311 3.61331 1.41639 0
M  V30 192 H 16.0321 1.90995 3.19924 0
M  V30 193 H 16.1451 3.77725 2.94721 0
M  V30 194 H 14.5091 1.94709 1.64196 0
M  V30 195 H 15.2921 3.3528 0.737734 0
M  V30 196 N 17.7372 -0.778329 1.37039 0
M  V30 197 C 18.6672 -1.90546 1.34962 0
M  V30 198 C 19.6482 -1.68681 0.219274 0
M  V30 199 O 20.8332 -1.89634 0.418624 0
M  V30 200 C 17.9632 -3.27734 1.14925 0
M  V30 201 C 16.9172 -3.64147 2.24902 0
M  V30 202 C 16.2432 -4.99806 1.89996 0
M  V30 203 C 17.5432 -3.71579 3.67051 0
M  V30 204 H 19.2372 -1.92541 2.29277 0
M  V30 205 H 16.7832 -0.924948 1.10366 0
M  V30 206 H 18.7362 -4.06215 1.12104 0
M  V30 207 H 17.4602 -3.26154 0.170631 0
M  V30 208 H 16.1192 -2.8797 2.26868 0
M  V30 209 H 15.7672 -4.94759 0.906796 0
M  V30 210 H 15.4672 -5.25139 2.63634 0
M  V30 211 H 16.9912 -5.80694 1.88749 0
M  V30 212 H 18.4052 -4.40227 3.67251 0
M  V30 213 H 16.8022 -4.08405 4.39688 0
M  V30 214 H 17.8722 -2.72404 4.01154 0
M  V30 215 N 19.2153 -1.21501 -1.00376 0
M  V30 216 C 20.1623 -0.975387 -2.09177 0
M  V30 217 C 21.1323 0.0990615 -1.65804 0
M  V30 218 O 22.3173 -0.0483147 -1.90739 0
M  V30 219 C 19.4573 -0.547507 -3.40729 0
M  V30 220 C 18.5703 -1.69153 -3.97506 0
M  V30 221 C 17.7053 -1.2127 -5.17172 0
M  V30 222 C 16.7443 -2.32897 -5.66061 0
M  V30 223 N 15.8813 -1.86138 -6.76976 0
M  V30 224 H 20.7213 -1.9068 -2.29009 0
M  V30 225 H 18.2583 -0.950257 -1.12288 0
M  V30 226 H 20.2163 -0.280667 -4.16255 0
M  V30 227 H 18.8463 0.346904 -3.20931 0
M  V30 228 H 17.8983 -2.07298 -3.18954 0
M  V30 229 H 19.2103 -2.5316 -4.29781 0
M  V30 230 H 18.3643 -0.902591 -5.99948 0
M  V30 231 H 17.1033 -0.342692 -4.86495 0
M  V30 232 H 16.1083 -2.64709 -4.81881 0
M  V30 233 H 17.3333 -3.20396 -5.98768 0
M  V30 234 H 15.2793 -1.01484 -6.48103 0
M  V30 235 H 15.1963 -2.63717 -7.08512 0
M  V30 236 H 16.4643 -1.58165 -7.63285 0
M  V30 237 N 20.6934 1.19889 -1.02296 0
M  V30 238 C 21.9424 1.88743 -0.711257 0
M  V30 239 C 22.2554 1.80112 0.762817 0
M  V30 240 O 23.4614 2.44161 1.18733 0
M  V30 241 C 21.9174 3.38525 -1.22185 0
M  V30 242 C 21.5254 3.55727 -2.72328 0
M  V30 243 C 23.2694 4.12893 -0.985864 0
M  V30 244 C 21.1764 4.99369 -3.16835 0
M  V30 245 H 20.1064 0.706885 -0.262353 0
M  V30 246 H 22.7574 1.35586 -1.23648 0
M  V30 247 H 21.1394 3.91044 -0.624571 0
M  V30 248 H 22.3134 3.13564 -3.3766 0
M  V30 249 H 20.6284 2.94739 -2.9414 0
M  V30 250 H 23.2254 5.18813 -1.29374 0
M  V30 251 H 23.5684 4.16228 0.0775055 0
M  V30 252 H 24.1014 3.66494 -1.54684 0
M  V30 253 H 20.8404 5.01193 -4.22476 0
M  V30 254 H 20.3604 5.42317 -2.56228 0
M  V30 255 H 22.0394 5.67988 -3.09837 0
M  V30 256 N 22.1715 0.800033 1.35784 0
M  V30 257 C 23.1185 0.203848 2.29898 0
M  V30 258 C 24.0885 -0.658375 1.52495 0
M  V30 259 O 25.2735 -0.604832 1.8096 0
M  V30 260 C 22.4135 -0.64688 3.38983 0
M  V30 261 C 21.5265 0.235054 4.3136 0
M  V30 262 C 20.6615 -0.623054 5.27533 0
M  V30 263 C 19.7005 0.259682 6.11549 0
M  V30 264 N 18.8375 -0.558019 6.99879 0
M  V30 265 H 23.6775 1.01186 2.80295 0
M  V30 266 H 21.2145 0.51053 1.37957 0
M  V30 267 H 23.1725 -1.15521 4.00887 0
M  V30 268 H 21.8025 -1.42021 2.89879 0
M  V30 269 H 20.8545 0.861438 3.70518 0
M  V30 270 H 22.1665 0.914768 4.9034 0
M  V30 271 H 21.3205 -1.19678 5.94779 0
M  V30 272 H 20.0595 -1.33636 4.69034 0
M  V30 273 H 19.0645 0.845726 5.43256 0
M  V30 274 H 20.2895 0.970748 6.72126 0
M  V30 275 H 18.2355 -1.25542 6.43875 0
M  V30 276 H 18.1525 0.0637872 7.55973 0
M  V30 277 H 19.4205 -1.11523 7.71481 0
M  V30 278 N 23.6496 -1.47581 0.552962 0
M  V30 279 C 24.5596 -2.33743 -0.200353 0
M  V30 280 C 25.5756 -1.47928 -0.916151 0
M  V30 281 O 26.7516 -1.80865 -0.885993 0
M  V30 282 C 23.8166 -3.24536 -1.21973 0
M  V30 283 C 22.8776 -4.26238 -0.511819 0
M  V30 284 C 22.1106 -5.12693 -1.48263 0
M  V30 285 O 22.3336 -5.01525 -2.71714 0
M  V30 286 O 21.2676 -5.93375 -1.00945 0
M  V30 287 H 25.0936 -2.9945 0.506304 0
M  V30 288 H 22.6786 -1.46071 0.313622 0
M  V30 289 H 24.5606 -3.80631 -1.80827 0
M  V30 290 H 23.2356 -2.61462 -1.90839 0
M  V30 291 H 22.1426 -3.73914 0.117799 0
M  V30 292 H 23.4756 -4.92014 0.135308 0
M  V30 293 N 25.1277 -0.289203 -1.54924 0
M  V30 294 C 26.3737 0.323998 -2.00195 0
M  V30 295 C 26.7067 1.54441 -1.17735 0
M  V30 296 O 25.9817 1.92875 -0.250878 0
M  V30 297 C 26.2647 0.692276 -3.53383 0
M  V30 298 C 26.1177 -0.536457 -4.46589 0
M  V30 299 C 27.4367 1.52335 -4.12895 0
M  V30 300 H 24.5557 0.116289 -0.727768 0
M  V30 301 H 27.1977 -0.398954 -1.85764 0
M  V30 302 H 25.3477 1.30822 -3.65811 0
M  V30 303 H 27.0197 -1.17499 -4.46085 0
M  V30 304 H 25.2627 -1.17192 -4.1767 0
M  V30 305 H 25.9337 -0.234806 -5.515 0
M  V30 306 H 28.4097 1.00302 -4.0383 0
M  V30 307 H 27.2857 1.74982 -5.20262 0
M  V30 308 H 27.5467 2.50886 -3.64018 0
M  V30 309 N 26.6058 1.57591 -0.0167156 0
M  V30 310 C 27.5158 2.1291 0.98521 0
M  V30 311 C 28.5318 1.07834 1.36557 0
M  V30 312 O 29.7078 1.39826 1.44951 0
M  V30 313 C 26.7728 2.63512 2.25305 0
M  V30 314 C 25.8338 3.83256 1.93426 0
M  V30 315 C 25.0668 4.31435 3.14165 0
M  V30 316 O 25.2898 3.78851 4.26413 0
M  V30 317 O 24.2238 5.23416 2.97186 0
M  V30 318 H 28.0498 2.98772 0.544888 0
M  V30 319 H 25.6348 1.48012 0.203141 0
M  V30 320 H 27.5168 2.96183 2.99756 0
M  V30 321 H 26.1918 1.8074 2.68542 0
M  V30 322 H 25.0988 3.55531 1.16398 0
M  V30 323 H 26.4318 4.67153 1.55013 0
M  V30 324 N 28.0839 -0.256276 1.55502 0
M  V30 325 C 29.0309 -1.31714 1.89526 0
M  V30 326 C 30.0009 -1.4828 0.748479 0
M  V30 327 O 31.1859 -1.62416 1.00128 0
M  V30 328 C 28.3259 -2.66933 2.18725 0
M  V30 329 C 27.4389 -2.58452 3.4616 0
M  V30 330 C 26.5739 -3.85961 3.64976 0
M  V30 331 C 25.6129 -3.72059 4.86044 0
M  V30 332 N 24.7499 -4.9144 5.01429 0
M  V30 333 H 29.5899 -1.01998 2.80001 0
M  V30 334 H 27.1269 -0.492413 1.38613 0
M  V30 335 H 29.0849 -3.4563 2.33657 0
M  V30 336 H 27.7149 -2.94816 1.31466 0
M  V30 337 H 26.7669 -1.71374 3.3961 0
M  V30 338 H 28.0789 -2.44085 4.34999 0
M  V30 339 H 27.2329 -4.73101 3.79816 0
M  V30 340 H 25.9719 -4.03215 2.74353 0
M  V30 341 H 24.9769 -2.83302 4.7119 0
M  V30 342 H 26.2019 -3.56309 5.78118 0
M  V30 343 H 24.1479 -5.09072 4.13741 0
M  V30 344 H 24.0649 -4.79668 5.84341 0
M  V30 345 H 25.3329 -5.80104 5.20672 0
M  V30 346 N 29.562 -1.4872 -0.521534 0
M  V30 347 C 30.973 -1.50607 -1.10337 0
M  V30 348 C 31.324 -0.280612 -1.94183 0
M  V30 349 O 30.449 0.611507 -2.0758 0
M  V30 350 C 31.044 -2.72903 -2.00772 0
M  V30 351 C 29.603 -2.77634 -2.54158 0
M  V30 352 C 28.75 -2.44241 -1.31307 0
M  V30 353 H 31.701 -1.55714 -0.306388 0
M  V30 354 H 31.722 -2.519 -2.85178 0
M  V30 355 H 31.234 -3.62077 -1.39721 0
M  V30 356 H 29.335 -1.92689 -3.18907 0
M  V30 357 H 29.448 -3.79283 -2.92714 0
M  V30 358 H 27.812 -1.95577 -1.63161 0
M  V30 359 H 28.595 -3.35666 -0.719943 0
M  V30 360 N 31.0401 0.771051 -1.3745 0
M  V30 361 C 32.2681 1.56015 -1.35893 0
M  V30 362 C 32.6831 1.88718 0.0555523 0
M  V30 363 O 32.0401 1.51502 1.01752 0
M  V30 364 C 32.0911 2.87001 -2.19801 0
M  V30 365 O 31.8121 2.557 -3.55738 0
M  V30 366 C 33.3131 3.81228 -2.26231 0
M  V30 367 H 30.5331 0.483317 -0.465453 0
M  V30 368 H 33.0771 0.955611 -1.80799 0
M  V30 369 H 31.2321 3.43877 -1.78402 0
M  V30 370 H 31.6461 3.39584 -3.99729 0
M  V30 371 H 33.1201 4.70139 -2.89263 0
M  V30 372 H 33.5971 4.20409 -1.27093 0
M  V30 373 H 34.2031 3.30281 -2.67945 0
M  V30 374 N 32.5182 1.22032 0.997298 0
M  V30 375 C 33.7672 1.03637 1.73038 0
M  V30 376 C 34.0802 -0.429475 1.90827 0
M  V30 377 O 35.2862 -0.732995 2.61418 0
M  V30 378 C 33.7422 1.80582 3.11317 0
M  V30 379 C 33.3502 3.31387 3.01474 0
M  V30 380 C 35.0942 1.70621 3.88701 0
M  V30 381 C 33.0012 4.00791 4.3488 0
M  V30 382 H 31.9312 0.384179 0.648785 0
M  V30 383 H 34.5822 1.4584 1.11368 0
M  V30 384 H 32.9642 1.31175 3.73643 0
M  V30 385 H 34.1382 3.88155 2.4834 0
M  V30 386 H 32.4532 3.41976 2.37575 0
M  V30 387 H 35.0502 2.19799 4.87434 0
M  V30 388 H 35.3932 0.665823 4.10941 0
M  V30 389 H 35.9262 2.17547 3.33044 0
M  V30 390 H 32.6652 5.05064 4.1784 0
M  V30 391 H 32.1852 3.48811 4.87945 0
M  V30 392 H 33.8642 4.06139 5.03647 0
M  V30 393 N 33.9963 -1.19345 1.0293 0
M  V30 394 C 35.2213 -1.93538 0.745511 0
M  V30 395 C 35.6463 -1.75007 -0.689511 0
M  V30 396 O 35.0043 -1.05265 -1.47611 0
M  V30 397 C 35.0523 -3.43336 1.10239 0
M  V30 398 O 34.1563 -4.11806 0.221289 0
M  V30 399 H 33.4973 -0.604193 0.275404 0
M  V30 400 H 36.0273 -1.5141 1.37609 0
M  V30 401 H 36.0373 -3.94004 1.05947 0
M  V30 402 H 34.7123 -3.56146 2.14786 0
M  V30 403 H 33.2893 -3.715 0.322842 0
M  V30 404 N 35.4744 -0.807222 -1.35358 0
M  V30 405 C 36.7044 -0.399796 -2.02695 0
M  V30 406 C 37.1124 0.994176 -1.60974 0
M  V30 407 O 36.4554 1.65209 -0.803226 0
M  V30 408 C 36.5174 -0.404445 -3.57218 0
M  V30 409 C 36.1814 -1.74904 -4.22206 0
M  V30 410 C 37.1784 -2.70743 -4.4384 0
M  V30 411 C 34.8634 -2.03322 -4.5931 0
M  V30 412 C 36.8574 -3.93183 -5.01683 0
M  V30 413 C 34.5444 -3.26026 -5.16866 0
M  V30 414 C 35.5424 -4.20774 -5.37994 0
M  V30 415 O 35.2304 -5.41312 -5.94337 0
M  V30 416 H 34.9624 -0.160517 -0.656666 0
M  V30 417 H 37.5164 -1.09235 -1.73945 0
M  V30 418 H 35.7464 0.344707 -3.85161 0
M  V30 419 H 37.4354 -0.0192429 -4.05895 0
M  V30 420 H 38.2014 -2.5008 -4.15554 0
M  V30 421 H 34.0804 -1.30384 -4.42178 0
M  V30 422 H 37.6244 -4.6715 -5.1809 0
M  V30 423 H 33.5214 -3.46559 -5.44579 0
M  V30 424 H 34.2894 -5.42618 -6.12787 0
M  V30 425 N 36.9525 1.47285 -0.560781 0
M  V30 426 C 38.2005 2.02064 -0.0379868 0
M  V30 427 C 38.5215 1.43711 1.31803 0
M  V30 428 O 37.7915 0.61362 1.86042 0
M  V30 429 H 36.3715 0.746918 -0.0110531 0
M  V30 430 H 39.0335 1.80648 -0.731598 0
M  V30 431 H 38.1295 3.12064 0.0474463 0
M  V30 432 N 38.4306 0.297415 1.54768 0
M  V30 433 C 39.3406 -0.58983 2.27064 0
M  V30 434 C 40.3566 -1.15144 1.30453 0
M  V30 435 O 41.5326 -1.17699 1.63428 0
M  V30 436 C 38.5976 -1.74714 2.9946 0
M  V30 437 C 37.6586 -1.21997 4.11601 0
M  V30 438 C 36.8916 -2.32212 4.80535 0
M  V30 439 O 37.1146 -3.52036 4.48806 0
M  V30 440 O 36.0486 -1.99106 5.68014 0
M  V30 441 H 39.8746 -0.00348199 3.037 0
M  V30 442 H 37.4596 0.0640035 1.49263 0
M  V30 443 H 39.3416 -2.42147 3.44881 0
M  V30 444 H 38.0166 -2.32016 2.25722 0
M  V30 445 H 36.9236 -0.511458 3.70587 0
M  V30 446 H 38.2566 -0.692419 4.87305 0
M  V30 447 N 39.9087 -1.5758 0.0250728 0
M  V30 448 C 41.1547 -1.91917 -0.655413 0
M  V30 449 C 41.4877 -0.901433 -1.72011 0
M  V30 450 O 40.7627 0.0764069 -1.9435 0
M  V30 451 C 41.0457 -3.36751 -1.27558 0
M  V30 452 C 40.8987 -4.49258 -0.220719 0
M  V30 453 C 42.2177 -3.81469 -2.19475 0
M  V30 454 H 39.3367 -0.697925 -0.23679 0
M  V30 455 H 41.9787 -1.89825 0.0815036 0
M  V30 456 H 40.1287 -3.38664 -1.90365 0
M  V30 457 H 41.8007 -4.59478 0.409601 0
M  V30 458 H 40.0437 -4.31415 0.454264 0
M  V30 459 H 40.7147 -5.47618 -0.694175 0
M  V30 460 H 43.1907 -3.81266 -1.66659 0
M  V30 461 H 42.0667 -4.83512 -2.59822 0
M  V30 462 H 42.3277 -3.16744 -3.08424 0
M  V30 463 N 41.3868 0.248026 -1.55636 0
M  V30 464 C 42.3168 1.31079 -1.93237 0
M  V30 465 C 43.2978 1.50264 -0.797174 0
M  V30 466 O 44.4828 1.62891 -1.05737 0
M  V30 467 C 41.6128 2.66575 -2.22609 0
M  V30 468 C 40.5668 2.62087 -3.3837 0
M  V30 469 C 39.8928 4.01369 -3.53281 0
M  V30 470 C 41.1928 2.19171 -4.7409 0
M  V30 471 H 42.8868 0.998556 -2.82257 0
M  V30 472 H 40.4328 0.47891 -1.35803 0
M  V30 473 H 42.3858 3.41057 -2.47503 0
M  V30 474 H 41.1098 2.99432 -1.30414 0
M  V30 475 H 39.7688 1.90063 -3.13483 0
M  V30 476 H 39.4168 4.31489 -2.58508 0
M  V30 477 H 39.1168 3.99254 -4.31127 0
M  V30 478 H 40.6408 4.77552 -3.80495 0
M  V30 479 H 42.0548 2.83384 -4.98363 0
M  V30 480 H 40.4518 2.2817 -5.5503 0
M  V30 481 H 41.5218 1.14336 -4.71227 0
M  V30 482 N 42.8649 1.48995 0.513639 0
M  V30 483 C 44.1109 1.58076 1.27042 0
M  V30 484 C 44.4439 0.261026 1.92438 0
M  V30 485 O 43.7189 -0.734393 1.80103 0
M  V30 486 C 44.0019 2.73091 2.34719 0
M  V30 487 C 43.8549 4.14821 1.73907 0
M  V30 488 C 45.1739 2.83796 3.36375 0
M  V30 489 H 42.2929 0.575391 0.460536 0
M  V30 490 H 44.9349 1.81232 0.570516 0
M  V30 491 H 43.0849 2.53479 2.94416 0
M  V30 492 H 44.7569 4.45917 1.18135 0
M  V30 493 H 42.9999 4.21058 1.0437 0
M  V30 494 H 43.6709 4.91147 2.51949 0
M  V30 495 H 46.1469 3.01611 2.86653 0
M  V30 496 H 45.0229 3.65971 4.09093 0
M  V30 497 H 45.2839 1.92624 3.9793 0
M  V30 498 N 44.343 -0.763751 1.37857 0
M  V30 499 C 45.759 -1.06542 1.18832 0
M  V30 500 C 45.959 -2.01478 0.0299722 0
M  V30 501 O 45.015 -2.4458 -0.627447 0
M  V30 502 C 46.328 -1.65525 2.51042 0
M  V30 503 C 47.876 -1.77745 2.57635 0
M  V30 504 C 48.351 -2.4014 3.89996 0
M  V30 505 N 49.842 -2.47582 3.91481 0
M  V30 506 C 50.577 -2.96732 4.9065 0
M  V30 507 N 50.073 -3.45993 6.00217 0
M  V30 508 N 51.866 -2.95679 4.78048 0
M  V30 509 H 44.017 -0.133556 2.1198 0
M  V30 510 H 46.28 -0.121879 0.940133 0
M  V30 511 H 45.986 -1.03236 3.36207 0
M  V30 512 H 45.86 -2.64719 2.68707 0
M  V30 513 H 48.247 -2.39164 1.72872 0
M  V30 514 H 48.328 -0.772836 2.43846 0
M  V30 515 H 47.972 -1.79358 4.75177 0
M  V30 516 H 47.902 -3.41223 4.01092 0
M  V30 517 H 50.393 -2.1273 3.12337 0
M  V30 518 H 50.706 -3.81922 6.7183 0
M  V30 519 H 49.051 -3.44077 6.03851 0
M  V30 520 H 52.242 -2.56499 3.91568 0
M  V30 521 H 52.415 -3.33672 5.55488 0
M  V30 522 N 45.8211 -1.22559 -0.990812 0
M  V30 523 C 47.0701 -1.04553 -1.72486 0
M  V30 524 C 47.3831 0.419349 -1.91052 0
M  V30 525 O 48.5891 0.719121 -2.61803 0
M  V30 526 C 47.0451 -1.82231 -3.10355 0
M  V30 527 C 46.6531 -3.32981 -2.99713 0
M  V30 528 C 48.3971 -1.7268 -3.87791 0
M  V30 529 C 46.3041 -4.03091 -4.32748 0
M  V30 530 H 45.2341 -0.387614 -0.646739 0
M  V30 531 H 47.8851 -1.46429 -1.10593 0
M  V30 532 H 46.2671 -1.33155 -3.72942 0
M  V30 533 H 47.4411 -3.89466 -2.46278 0
M  V30 534 H 45.7561 -3.43231 -2.35758 0
M  V30 535 H 48.3531 -2.22381 -4.86262 0
M  V30 536 H 48.6961 -0.687607 -4.10582 0
M  V30 537 H 49.2291 -2.1931 -3.31885 0
M  V30 538 H 45.9681 -5.07273 -4.15156 0
M  V30 539 H 45.4881 -3.51394 -4.86089 0
M  V30 540 H 47.1671 -4.08804 -5.01486 0
M  V30 541 N 47.2992 1.18797 -1.03562 0
M  V30 542 C 48.2462 2.22253 -0.622259 0
M  V30 543 C 49.2162 1.61987 0.36736 0
M  V30 544 O 50.4012 1.88986 0.262492 0
M  V30 545 C 47.5412 3.45097 0.0138462 0
M  V30 546 C 46.6542 4.19722 -1.02263 0
M  V30 547 C 45.7892 5.30009 -0.355573 0
M  V30 548 C 44.8282 5.96399 -1.37749 0
M  V30 549 N 43.9652 6.98234 -0.735766 0
M  V30 550 H 48.8052 2.56968 -1.50903 0
M  V30 551 H 46.3422 1.26245 -0.755017 0
M  V30 552 H 48.3002 4.15279 0.399948 0
M  V30 553 H 46.9302 3.11018 0.864158 0
M  V30 554 H 45.9822 3.48418 -1.52673 0
M  V30 555 H 47.2942 4.65227 -1.79903 0
M  V30 556 H 46.4482 6.0664 0.0850095 0
M  V30 557 H 45.1872 4.85592 0.452967 0
M  V30 558 H 44.1922 5.18512 -1.82826 0
M  V30 559 H 45.4172 6.42899 -2.18764 0
M  V30 560 H 43.3632 6.55979 0.0525597 0
M  V30 561 H 43.2802 7.41965 -1.44995 0
M  V30 562 H 44.5482 7.78845 -0.31941 0
M  V30 563 N 48.7773 0.814389 1.34928 0
M  V30 564 C 49.7403 0.235759 2.27984 0
M  V30 565 C 50.7403 -0.581412 1.49921 0
M  V30 566 O 51.9303 -0.398758 1.69575 0
M  V30 567 C 49.0623 -0.670433 3.34242 0
M  V30 568 H 50.2553 1.05659 2.80671 0
M  V30 569 H 47.8083 0.585614 1.44915 0
M  V30 570 H 48.5433 -1.51466 2.86755 0
M  V30 571 H 48.3283 -0.0860822 3.92005 0
M  V30 572 H 49.8183 -1.06935 4.03676 0
M  V30 573 N 50.2554 -1.46986 0.568584 0
M  V30 574 C 51.4954 -2.04336 0.0512999 0
M  V30 575 C 51.8594 -1.43214 -1.27881 0
M  V30 576 O 53.0604 -1.91679 -1.88448 0
M  V30 577 C 51.3314 -3.57389 -0.0282328 0
M  V30 578 S 52.8904 -4.36056 -0.489991 0
M  V30 579 H 49.7084 -0.71034 0.0306349 0
M  V30 580 H 52.3104 -1.80212 0.757891 0
M  V30 581 H 51.0144 -3.99395 0.944011 0
M  V30 582 H 50.5454 -3.86028 -0.75803 0
M  V30 583 H 52.5604 -4.6441 -1.74752 0
M  V30 584 N 51.7335 -0.305618 -1.54608 0
M  V30 585 C 52.9815 0.301701 -1.99835 0
M  V30 586 C 53.3025 1.54054 -1.19551 0
M  V30 587 O 52.5725 1.93702 -0.292658 0
M  V30 588 H 51.1525 0.114468 -0.738178 0
M  V30 589 H 53.8145 -0.418016 -1.90364 0
M  V30 590 H 52.9105 0.570548 -3.06841 0
M  V30 591 N 53.2116 1.57565 -0.0334293 0
M  V30 592 C 54.4576 1.92262 0.645226 0
M  V30 593 C 54.7906 0.910543 1.71531 0
M  V30 594 O 54.0656 -0.066099 1.94388 0
M  V30 595 C 54.3486 3.37422 1.2577 0
M  V30 596 C 54.2016 4.49369 0.196891 0
M  V30 597 C 55.5206 3.82628 2.17449 0
M  V30 598 H 52.6396 0.699171 0.233085 0
M  V30 599 H 55.2816 1.89779 -0.0915694 0
M  V30 600 H 53.4316 3.39669 1.88566 0
M  V30 601 H 55.1036 4.59254 -0.433962 0
M  V30 602 H 53.3466 4.31168 -0.477137 0
M  V30 603 H 54.0176 5.47978 0.665124 0
M  V30 604 H 56.4936 3.82145 1.64634 0
M  V30 605 H 55.3696 4.84883 2.57254 0
M  V30 606 H 55.6306 3.18376 3.0674 0
M  V30 607 N 54.6897 -0.239769 1.55765 0
M  V30 608 C 55.9297 -0.974076 1.79697 0
M  V30 609 C 56.2937 -1.82249 0.604088 0
M  V30 610 O 57.4947 -2.58913 0.722324 0
M  V30 611 C 55.7657 -1.80595 3.08416 0
M  V30 612 S 57.3247 -2.59838 3.53596 0
M  V30 613 H 54.1427 -0.327524 0.63107 0
M  V30 614 H 56.7447 -0.241277 1.94005 0
M  V30 615 H 55.4487 -1.17249 3.93295 0
M  V30 616 H 54.9797 -2.58137 2.96865 0
M  V30 617 H 56.9947 -3.82987 3.15492 0
M  V30 618 N 56.1678 -1.49265 -0.50573 0
M  V30 619 C 57.1178 -1.6198 -1.60457 0
M  V30 620 C 58.1018 -0.47568 -1.53708 0
M  V30 621 O 59.2938 -0.728392 -1.61318 0
M  V30 622 C 56.4228 -1.68526 -2.99089 0
M  V30 623 C 55.5088 -2.885 -3.10852 0
M  V30 624 N 55.8998 -4.12635 -2.92517 0
M  V30 625 C 54.1978 -2.86338 -3.41945 0
M  V30 626 C 54.8988 -4.93258 -3.08337 0
M  V30 627 N 53.8748 -4.26533 -3.37003 0
M  V30 628 H 57.6768 -2.55681 -1.44928 0
M  V30 629 H 55.1908 -1.45972 -0.711752 0
M  V30 630 H 57.1878 -1.75732 -3.78053 0
M  V30 631 H 55.8478 -0.759584 -3.1569 0
M  V30 632 H 56.8588 -4.42689 -2.68787 0
M  V30 633 H 53.5358 -2.03129 -3.64753 0
M  V30 634 H 54.9258 -6.01856 -2.98695 0
M  V30 635 N 57.6459 0.756429 -1.3826 0
M  V30 636 C 58.8739 1.54565 -1.3754 0
M  V30 637 C 59.2889 1.88767 0.0355331 0
M  V30 638 O 58.6459 1.52572 1.0014 0
M  V30 639 C 58.6969 2.84654 -2.22833 0
M  V30 640 O 58.4179 2.51912 -3.5843 0
M  V30 641 C 59.9189 3.78807 -2.30261 0
M  V30 642 H 57.1389 0.478353 -0.470553 0
M  V30 643 H 59.6829 0.936381 -1.81803 0
M  V30 644 H 57.8379 3.41965 -1.8204 0
M  V30 645 H 58.2519 3.35325 -4.03308 0
M  V30 646 H 59.7259 4.67045 -2.94233 0
M  V30 647 H 60.2029 4.19038 -1.31545 0
M  V30 648 H 60.8089 3.2742 -2.71433 0
M  V30 649 N 59.124 1.23083 0.984299 0
M  V30 650 C 60.401 0.9689 1.69917 0
M  V30 651 C 60.781 -0.513604 2.04757 0
M  V30 652 O 60.129 -1.48383 1.73767 0
M  V30 653 C 60.339 1.87518 2.94343 0
M  V30 654 C 61.687 2.13636 3.6694 0
M  V30 655 O 62.711 1.85036 3.04368 0
M  V30 656 O 61.57 2.62119 4.79537 0
M  V30 657 H 58.664 0.365095 0.742048 0
M  V30 658 H 61.21 1.34107 1.03987 0
M  V30 659 H 59.982 2.87756 2.65164 0
M  V30 660 H 59.605 1.50514 3.6801 0
M  V30 661 N 60.6021 -1.18246 1.0419 0
M  V30 662 C 61.5321 -2.24127 0.654914 0
M  V30 663 C 62.5131 -1.66617 -0.342451 0
M  V30 664 O 63.6981 -1.92924 -0.222277 0
M  V30 665 C 60.8281 -3.47295 0.0183757 0
M  V30 666 C 59.7821 -4.17563 0.939414 0
M  V30 667 C 59.1081 -5.34438 0.167286 0
M  V30 668 C 60.4081 -4.70917 2.25908 0
M  V30 669 H 62.1021 -2.56753 1.54007 0
M  V30 670 H 59.6481 -1.23414 0.74195 0
M  V30 671 H 61.6011 -4.20572 -0.264082 0
M  V30 672 H 60.3251 -3.13907 -0.901664 0
M  V30 673 H 58.9841 -3.46186 1.20628 0
M  V30 674 H 58.6321 -4.97298 -0.7552 0
M  V30 675 H 58.3321 -5.82388 0.780901 0
M  V30 676 H 59.8561 -6.10504 -0.108125 0
M  V30 677 H 61.2701 -5.35882 2.03724 0
M  V30 678 H 59.6671 -5.29406 2.82577 0
M  V30 679 H 60.7371 -3.88272 2.9047 0
M  V30 680 N 62.0802 -0.821533 -1.34494 0
M  V30 681 C 63.0302 -0.214793 -2.26986 0
M  V30 682 C 64.0142 0.620125 -1.4847 0
M  V30 683 O 65.2062 0.474933 -1.70509 0
M  V30 684 C 62.3352 0.623566 -3.37589 0
M  V30 685 C 61.4212 -0.221904 -4.23519 0
M  V30 686 N 61.8122 -1.29223 -4.89014 0
M  V30 687 C 60.1102 -0.00600922 -4.46 0
M  V30 688 C 60.8112 -1.80965 -5.52835 0
M  V30 689 N 59.7872 -1.11376 -5.32068 0
M  V30 690 H 63.5892 -1.03354 -2.75128 0
M  V30 691 H 61.1032 -0.6642 -1.48196 0
M  V30 692 H 63.1002 1.0744 -4.02818 0
M  V30 693 H 61.7602 1.44049 -2.90998 0
M  V30 694 H 62.7712 -1.67502 -4.90065 0
M  V30 695 H 59.4482 0.77886 -4.10171 0
M  V30 696 H 60.8382 -2.70502 -6.15043 0
M  V30 697 N 63.5583 1.46682 -0.576371 0
M  V30 698 C 64.5213 2.28707 0.150239 0
M  V30 699 C 65.5213 1.38035 0.824794 0
M  V30 700 O 66.7113 1.60476 0.677719 0
M  V30 701 C 63.8433 3.18248 1.22192 0
M  V30 702 H 65.0363 2.94423 -0.570521 0
M  V30 703 H 62.5893 1.52688 -0.334078 0
M  V30 704 H 63.3243 2.57265 1.97447 0
M  V30 705 H 63.1093 3.85 0.742812 0
M  V30 706 H 64.5993 3.80001 1.73172 0
M  V30 707 N 65.0364 0.313813 1.54444 0
M  V30 708 C 65.9994 -0.54379 2.22656 0
M  V30 709 C 66.9994 -1.05124 1.21678 0
M  V30 710 O 68.1894 -0.945225 1.46325 0
M  V30 711 C 65.3214 -1.75427 2.92298 0
M  V30 712 H 66.5144 0.0523599 2.99854 0
M  V30 713 H 64.0674 0.0647834 1.56166 0
M  V30 714 H 64.8024 -2.38991 2.19211 0
M  V30 715 H 64.5874 -1.39791 3.66334 0
M  V30 716 H 66.0774 -2.36325 3.44297 0
M  V30 717 N 66.5145 -1.57545 0.0417849 0
M  V30 718 C 67.4645 -2.07483 -0.945247 0
M  V30 719 C 68.4485 -0.977983 -1.27767 0
M  V30 720 O 69.6405 -1.24142 -1.26166 0
M  V30 721 C 66.7695 -2.61576 -2.22335 0
M  V30 722 C 65.8555 -3.78213 -1.91874 0
M  V30 723 N 66.2465 -4.88344 -1.31733 0
M  V30 724 C 64.5445 -3.8694 -2.21796 0
M  V30 725 C 65.2455 -5.69462 -1.1869 0
M  V30 726 N 64.2215 -5.16771 -1.68666 0
M  V30 727 H 68.0235 -2.90029 -0.475441 0
M  V30 728 H 65.5375 -1.61581 -0.162911 0
M  V30 729 H 67.5345 -2.95651 -2.93932 0
M  V30 730 H 66.1945 -1.80465 -2.69931 0
M  V30 731 H 67.2055 -5.08335 -0.990729 0
M  V30 732 H 63.8825 -3.16757 -2.71977 0
M  V30 733 H 65.2725 -6.68023 -0.720793 0
M  V30 734 N 67.9926 0.231505 -1.5589 0
M  V30 735 C 69.2406 0.955461 -1.78088 0
M  V30 736 C 69.5616 1.85262 -0.608533 0
M  V30 737 O 68.8316 1.92277 0.375035 0
M  V30 738 H 67.4116 0.355787 -0.656829 0
M  V30 739 H 70.0736 0.245751 -1.93344 0
M  V30 740 H 69.1696 1.56814 -2.69844 0
M  V30 741 N 69.4707 1.49531 0.497807 0
M  V30 742 C 70.7477 1.49682 1.25915 0
M  V30 743 C 71.1277 0.226339 2.09883 0
M  V30 744 O 70.4757 -0.791189 2.14365 0
M  V30 745 C 70.6857 2.77755 2.11313 0
M  V30 746 C 72.0337 3.27371 2.70395 0
M  V30 747 O 73.0577 2.78894 2.21578 0
M  V30 748 O 71.9167 4.11808 3.59272 0
M  V30 749 H 69.0107 0.599228 0.56996 0
M  V30 750 H 71.5567 1.61798 0.511816 0
M  V30 751 H 70.3287 3.61713 1.49264 0
M  V30 752 H 69.9517 2.68515 2.93233 0
M  V30 753 N 70.9488 -0.749086 1.3866 0
M  V30 754 C 72.1948 -1.50959 1.36319 0
M  V30 755 C 72.5498 -1.92347 -0.0452451 0
M  V30 756 O 71.8428 -1.6289 -1.00884 0
M  V30 757 C 72.0368 -2.7712 2.25697 0
M  V30 758 C 71.8658 -2.48067 3.7509 0
M  V30 759 C 70.6358 -2.41062 4.44091 0
M  V30 760 C 72.8338 -2.14544 4.67414 0
M  V30 761 N 70.8158 -2.04331 5.78897 0
M  V30 762 C 72.1868 -1.88141 5.90765 0
M  V30 763 C 74.2418 -2.00892 4.55573 0
M  V30 764 C 72.9448 -1.49463 7.036 0
M  V30 765 C 74.9708 -1.63616 5.68317 0
M  V30 766 C 74.3328 -1.38088 6.90732 0
M  V30 767 H 70.4318 -0.551804 0.554108 0
M  V30 768 H 73.0158 -0.871886 1.74087 0
M  V30 769 H 71.1868 -3.38693 1.9011 0
M  V30 770 H 72.9188 -3.4321 2.1445 0
M  V30 771 H 69.6738 -2.57685 3.9736 0
M  V30 772 H 70.0978 -1.88598 6.502 0
M  V30 773 H 74.7398 -2.19301 3.61479 0
M  V30 774 H 72.4578 -1.29794 7.97608 0
M  V30 775 H 76.0438 -1.53678 5.61137 0
M  V30 776 H 74.9238 -1.09674 7.76493 0
M  V30 777 N 72.4269 -1.23603 -0.977757 0
M  V30 778 C 73.8379 -1.06424 -1.53398 0
M  V30 779 C 74.1889 0.367578 -1.92726 0
M  V30 780 O 73.3139 1.25465 -1.76316 0
M  V30 781 C 73.9089 -1.92568 -2.78753 0
M  V30 782 C 72.4679 -1.79642 -3.30765 0
M  V30 783 C 71.6149 -1.88111 -2.03739 0
M  V30 784 H 74.5659 -1.37227 -0.797152 0
M  V30 785 H 74.5869 -1.45203 -3.51705 0
M  V30 786 H 74.0989 -2.96771 -2.50098 0
M  V30 787 H 72.1999 -0.782325 -3.64294 0
M  V30 788 H 72.3129 -2.63174 -4.00345 0
M  V30 789 H 70.6769 -1.31723 -2.17994 0
M  V30 790 H 71.4599 -2.93875 -1.77461 0
M  V30 791 N 73.905 1.17692 -1.04816 0
M  V30 792 C 75.151 1.88137 -0.75711 0
M  V30 793 C 75.484 1.80604 0.713841 0
M  V30 794 O 74.759 1.21146 1.52164 0
M  V30 795 C 75.042 3.38318 -1.2334 0
M  V30 796 C 74.895 3.54622 -2.76701 0
M  V30 797 C 76.214 4.32214 -0.829415 0
M  V30 798 H 73.333 0.683163 -0.27651 0
M  V30 799 H 75.975 1.38424 -1.30149 0
M  V30 800 H 74.125 3.80787 -0.770286 0
M  V30 801 H 75.797 3.21194 -3.31107 0
M  V30 802 H 74.04 2.97026 -3.16161 0
M  V30 803 H 74.711 4.60028 -3.05088 0
M  V30 804 H 77.187 3.97565 -1.22805 0
M  V30 805 H 76.063 5.35838 -1.19033 0
M  V30 806 H 76.324 4.41294 0.266891 0
M  V30 807 N 75.3831 0.828654 1.34056 0
M  V30 808 C 76.3301 0.252567 2.29414 0
M  V30 809 C 77.3001 -0.62588 1.53857 0
M  V30 810 O 78.4851 -0.566312 1.82202 0
M  V30 811 C 75.6251 -0.574831 3.40279 0
M  V30 812 C 74.7381 0.326499 4.30764 0
M  V30 813 C 73.8731 -0.511016 5.28736 0
M  V30 814 C 72.9121 0.389342 6.1086 0
M  V30 815 N 72.0491 -0.409439 7.00905 0
M  V30 816 H 76.8891 1.07108 2.78086 0
M  V30 817 H 74.4261 0.539677 1.36843 0
M  V30 818 H 76.3841 -1.06992 4.03248 0
M  V30 819 H 75.0141 -1.35841 2.92826 0
M  V30 820 H 74.0661 0.939837 3.68607 0
M  V30 821 H 75.3781 1.01857 4.88289 0
M  V30 822 H 74.5321 -1.07035 5.97184 0
M  V30 823 H 73.2711 -1.23657 4.71763 0
M  V30 824 H 72.2761 0.960769 5.4134 0
M  V30 825 H 73.5011 1.1131 6.69916 0
M  V30 826 H 71.4471 -1.11856 6.46393 0
M  V30 827 H 71.3641 0.224126 7.55668 0
M  V30 828 H 72.6321 -0.951336 7.73673 0
M  V30 829 N 76.8612 -1.46375 0.584142 0
M  V30 830 C 78.2722 -1.86031 0.157959 0
M  V30 831 C 78.6232 -1.48753 -1.27933 0
M  V30 832 O 77.7482 -0.903098 -1.96655 0
M  V30 833 C 78.3432 -3.37642 0.279892 0
M  V30 834 C 76.9022 -3.76289 -0.09143 0
M  V30 835 C 76.0492 -2.7039 0.615178 0
M  V30 836 H 79.0002 -1.37509 0.792274 0
M  V30 837 H 79.0212 -3.77275 -0.494364 0
M  V30 838 H 78.5332 -3.64742 1.32607 0
M  V30 839 H 76.6342 -3.54806 -1.13769 0
M  V30 840 H 76.7472 -4.78246 0.285886 0
M  V30 841 H 75.1112 -2.5464 0.0552833 0
M  V30 842 H 75.8942 -3.0033 1.66303 0
M  V30 843 N 78.3393 -0.321999 -1.54275 0
M  V30 844 C 79.2863 0.544664 -2.24281 0
M  V30 845 C 80.2563 1.1129 -1.23303 0
M  V30 846 O 81.4413 1.15354 -1.51981 0
M  V30 847 C 78.5813 1.70045 -3.00298 0
M  V30 848 C 77.6943 1.16159 -4.1609 0
M  V30 849 C 76.8293 2.28293 -4.79641 0
M  V30 850 C 75.8683 1.71648 -5.8754 0
M  V30 851 N 75.0053 2.77438 -6.44959 0
M  V30 852 H 79.8453 -0.0588907 -2.97942 0
M  V30 853 H 77.3823 -0.0408345 -1.47043 0
M  V30 854 H 79.3403 2.38054 -3.42616 0
M  V30 855 H 77.9703 2.27531 -2.28975 0
M  V30 856 H 77.0223 0.373092 -3.78566 0
M  V30 857 H 78.3343 0.707087 -4.93763 0
M  V30 858 H 77.4883 3.0421 -5.2492 0
M  V30 859 H 76.2273 2.77079 -4.01346 0
M  V30 860 H 75.2323 0.942282 -5.41665 0
M  V30 861 H 76.4573 1.23741 -6.67731 0
M  V30 862 H 74.4033 3.25519 -5.69538 0
M  V30 863 H 74.3203 2.36547 -7.1804 0
M  V30 864 H 75.5883 3.53189 -6.94894 0
M  V30 865 N 79.8174 1.5752 -0.0501392 0
M  V30 866 C 80.7474 2.14502 0.922566 0
M  V30 867 C 81.7284 1.06642 1.3252 0
M  V30 868 O 82.9134 1.34577 1.4001 0
M  V30 869 C 80.0434 2.68916 2.19776 0
M  V30 870 C 78.9974 3.8175 1.93523 0
M  V30 871 C 78.3234 4.22677 3.27487 0
M  V30 872 C 79.6234 5.06932 1.25765 0
M  V30 873 H 81.3174 2.9603 0.447952 0
M  V30 874 H 78.8634 1.42401 0.214024 0
M  V30 875 H 80.8164 3.07419 2.88222 0
M  V30 876 H 79.5404 1.84578 2.69441 0
M  V30 877 H 78.1994 3.43718 1.27489 0
M  V30 878 H 77.8474 3.35291 3.74952 0
M  V30 879 H 77.5474 4.98725 3.1072 0
M  V30 880 H 79.0714 4.63779 3.97166 0
M  V30 881 H 80.4854 5.42888 1.84244 0
M  V30 882 H 78.8824 5.88116 1.19328 0
M  V30 883 H 79.9524 4.84337 0.233536 0
M  V30 884 N 81.2955 -0.223234 1.56011 0
M  V30 885 C 82.7065 -0.790368 1.69145 0
M  V30 886 C 83.0575 -1.85055 0.651845 0
M  V30 887 O 82.1825 -2.15498 -0.197359 0
M  V30 888 C 82.7775 -1.4404 3.06656 0
M  V30 889 C 81.3365 -1.95494 3.2165 0
M  V30 890 C 80.4835 -0.814506 2.65068 0
M  V30 891 H 83.4345 0.00139011 1.587 0
M  V30 892 H 83.4555 -2.30916 3.0242 0
M  V30 893 H 82.9675 -0.668543 3.82298 0
M  V30 894 H 81.0685 -2.75487 2.50874 0
M  V30 895 H 81.1815 -2.13607 4.28846 0
M  V30 896 H 79.5455 -1.22137 2.23505 0
M  V30 897 H 80.3285 -0.0553515 3.43255 0
M  V30 898 N 82.7736 -1.49793 -0.48987 0
M  V30 899 C 83.7036 -1.70201 -1.59856 0
M  V30 900 C 84.6846 -0.55076 -1.60937 0
M  V30 901 O 85.8696 -0.787841 -1.77501 0
M  V30 902 C 82.9996 -1.77882 -2.98287 0
M  V30 903 C 81.9536 -2.92907 -3.12073 0
M  V30 904 C 81.2796 -2.85712 -4.51965 0
M  V30 905 C 82.5796 -4.3369 -2.91051 0
M  V30 906 H 84.2736 -2.63025 -1.43032 0
M  V30 907 H 81.8196 -1.26574 -0.686664 0
M  V30 908 H 83.7726 -1.90744 -3.75759 0
M  V30 909 H 82.4966 -0.816653 -3.16225 0
M  V30 910 H 81.1556 -2.79665 -2.37029 0
M  V30 911 H 80.8036 -1.8738 -4.66795 0
M  V30 912 H 80.5036 -3.62921 -4.62128 0
M  V30 913 H 82.0276 -3.00598 -5.31482 0
M  V30 914 H 83.4416 -4.47555 -3.58284 0
M  V30 915 H 81.8386 -5.12205 -3.12675 0
M  V30 916 H 82.9086 -4.47362 -1.87071 0
M  V30 917 N 84.2517 0.741722 -1.39055 0
M  V30 918 C 85.5007 1.49656 -1.35225 0
M  V30 919 C 85.8137 1.95533 0.0512708 0
M  V30 920 O 87.0197 2.7067 0.212138 0
M  V30 921 C 85.4757 2.70389 -2.37525 0
M  V30 922 C 85.0837 2.31489 -3.83558 0
M  V30 923 C 86.8277 3.48236 -2.42759 0
M  V30 924 C 84.7347 3.48903 -4.77515 0
M  V30 925 H 83.6647 0.56197 -0.502699 0
M  V30 926 H 86.3157 0.809727 -1.64668 0
M  V30 927 H 84.6977 3.41113 -2.01142 0
M  V30 928 H 85.8717 1.68354 -4.28945 0
M  V30 929 H 84.1867 1.66749 -3.81554 0
M  V30 930 H 86.7837 4.35558 -3.1015 0
M  V30 931 H 87.1267 3.90229 -1.45008 0
M  V30 932 H 87.6597 2.84535 -2.78002 0
M  V30 933 H 84.3987 3.11966 -5.76504 0
M  V30 934 H 83.9187 4.11041 -4.36813 0
M  V30 935 H 85.5977 4.15328 -4.96096 0
M  V30 936 N 85.7298 1.2412 0.971189 0
M  V30 937 C 87.1408 1.07236 1.52831 0
M  V30 938 C 87.4918 -0.357352 1.92918 0
M  V30 939 O 86.6168 -1.24528 1.76979 0
M  V30 940 C 87.2118 1.94043 2.77728 0
M  V30 941 C 85.7708 1.81394 3.29808 0
M  V30 942 C 84.9178 1.89189 2.02738 0
M  V30 943 H 87.8688 1.37648 0.789864 0
M  V30 944 H 87.8898 1.47066 3.5093 0
M  V30 945 H 87.4018 2.98093 2.4852 0
M  V30 946 H 85.5028 0.801634 3.63874 0
M  V30 947 H 85.6158 2.65294 3.98944 0
M  V30 948 H 83.9798 1.32877 2.17292 0
M  V30 949 H 84.7628 2.94812 1.759 0
M  V30 950 N 87.2079 -1.17134 1.05439 0
M  V30 951 C 88.4559 -1.87085 0.764429 0
M  V30 952 C 88.7769 -1.81584 -0.710787 0
M  V30 953 O 88.0469 -1.24349 -1.51374 0
M  V30 954 H 86.6269 -0.692627 0.279779 0
M  V30 955 H 89.2889 -1.42087 1.33406 0
M  V30 956 H 88.3849 -2.92759 1.0816 0
M  V30 957 N 88.686 -0.835752 -1.33615 0
M  V30 958 C 89.636 -0.238856 -2.26745 0
M  V30 959 C 90.62 0.604343 -1.49119 0
M  V30 960 O 91.812 0.456822 -1.71003 0
M  V30 961 C 88.941 0.587725 -3.38232 0
M  V30 962 C 88.027 -0.266811 -4.2326 0
M  V30 963 N 88.418 -1.34403 -4.87616 0
M  V30 964 C 86.716 -0.0533131 -4.45968 0
M  V30 965 C 87.417 -1.86819 -5.50884 0
M  V30 966 N 86.393 -1.17013 -5.30857 0
M  V30 967 H 90.195 -1.06266 -2.74016 0
M  V30 968 H 87.709 -0.679881 -1.47483 0
M  V30 969 H 89.706 1.03161 -4.03935 0
M  V30 970 H 88.366 1.40954 -2.9251 0
M  V30 971 H 89.377 -1.7269 -4.88261 0
M  V30 972 H 86.054 0.735312 -4.10974 0
M  V30 973 H 87.444 -2.7701 -6.1214 0
M  V30 974 N 90.1641 1.46063 -0.591896 0
M  V30 975 C 91.0741 2.34192 0.13831 0
M  V30 976 C 92.0901 1.50305 0.876608 0
M  V30 977 O 93.2661 1.8315 0.837728 0
M  V30 978 C 90.3311 3.27656 1.13326 0
M  V30 979 C 89.3921 4.27445 0.39863 0
M  V30 980 C 88.6251 5.16443 1.34618 0
M  V30 981 O 88.8481 5.08553 2.58321 0
M  V30 982 O 87.7821 5.95843 0.851768 0
M  V30 983 H 91.6081 2.98002 -0.58552 0
M  V30 984 H 89.1931 1.45188 -0.352239 0
M  V30 985 H 91.0751 3.85291 1.70671 0
M  V30 986 H 89.7501 2.6643 1.83839 0
M  V30 987 H 88.6571 3.73471 -0.216895 0
M  V30 988 H 89.9901 4.91482 -0.265709 0
M  V30 989 N 91.6422 0.330177 1.54103 0
M  V30 990 C 92.8902 -0.269871 2.0029 0
M  V30 991 C 93.2112 -1.52133 1.21986 0
M  V30 992 O 92.4812 -1.93212 0.323438 0
M  V30 993 H 91.0612 -0.10271 0.739905 0
M  V30 994 H 93.7232 0.448249 1.89675 0
M  V30 995 H 92.8192 -0.52166 3.07709 0
M  V30 996 N 93.1203 -1.57491 0.0584922 0
M  V30 997 C 94.3663 -1.93264 -0.614558 0
M  V30 998 C 94.6993 -0.937717 -1.7006 0
M  V30 999 O 93.9743 0.0351652 -1.94468 0
M  V30 1000 C 94.2573 -3.3938 -1.20386 0
M  V30 1001 C 94.1103 -4.49625 -0.125375 0
M  V30 1002 C 95.4293 -3.86039 -2.11334 0
M  V30 1003 H 92.5483 -0.702791 -0.221933 0
M  V30 1004 H 95.1903 -1.8961 0.12175 0
M  V30 1005 H 93.3403 -3.42626 -1.83139 0
M  V30 1006 H 95.0123 -4.58506 0.506971 0
M  V30 1007 H 93.2553 -4.30354 0.545672 0
M  V30 1008 H 93.9263 -5.48967 -0.577861 0
M  V30 1009 H 96.4023 -3.84716 -1.58534 0
M  V30 1010 H 95.2783 -4.88914 -2.49507 0
M  V30 1011 H 95.5393 -3.23215 -3.01636 0
M  V30 1012 N 94.5984 0.214957 -1.56127 0
M  V30 1013 C 95.8464 0.936518 -1.79091 0
M  V30 1014 C 96.1674 1.84606 -0.628148 0
M  V30 1015 O 95.4374 1.92664 0.35462 0
M  V30 1016 H 94.0174 0.3488 -0.660566 0
M  V30 1017 H 96.6794 0.22523 -1.93594 0
M  V30 1018 H 95.7754 1.53943 -2.71492 0
M  V30 1019 N 96.0765 1.50051 0.48192 0
M  V30 1020 C 97.3255 1.59741 1.23149 0
M  V30 1021 C 97.6385 0.298163 1.93314 0
M  V30 1022 O 98.8445 0.273835 2.70116 0
M  V30 1023 C 97.3005 2.81926 2.23708 0
M  V30 1024 C 96.9085 4.18685 1.59396 0
M  V30 1025 C 98.6525 3.00956 2.99375 0
M  V30 1026 C 96.5595 5.3207 2.58178 0
M  V30 1027 H 95.4895 0.594838 0.46334 0
M  V30 1028 H 98.1405 1.76467 0.503169 0
M  V30 1029 H 96.5225 2.58736 2.99786 0
M  V30 1030 H 97.6965 4.52088 0.891811 0
M  V30 1031 H 96.0115 4.05171 0.960503 0
M  V30 1032 H 98.6085 3.82836 3.73283 0
M  V30 1033 H 98.9515 2.12258 3.58123 0
M  V30 1034 H 99.4845 3.24277 2.30411 0
M  V30 1035 H 96.2235 6.22888 2.04184 0
M  V30 1036 H 95.7435 5.03098 3.26577 0
M  V30 1037 H 97.4225 5.62196 3.20225 0
M  V30 1038 N 97.5546 -0.734337 1.39446 0
M  V30 1039 C 98.8006 -1.49613 1.36908 0
M  V30 1040 C 99.1336 -1.94169 -0.0347829 0
M  V30 1041 O 98.4086 -1.66833 -0.999847 0
M  V30 1042 C 98.6916 -2.73534 2.34203 0
M  V30 1043 C 98.5446 -2.34993 3.83534 0
M  V30 1044 C 99.8636 -3.75635 2.29317 0
M  V30 1045 H 96.9826 -0.542714 0.498629 0
M  V30 1046 H 99.6246 -0.839597 1.70443 0
M  V30 1047 H 97.7746 -3.29553 2.05736 0
M  V30 1048 H 99.4466 -1.84601 4.22753 0
M  V30 1049 H 97.6896 -1.67213 4.00278 0
M  V30 1050 H 98.3606 -3.23738 4.47099 0
M  V30 1051 H 100.837 -3.29203 2.54489 0
M  V30 1052 H 99.7126 -4.60008 2.99472 0
M  V30 1053 H 99.9736 -4.22603 1.29842 0
M  V30 1054 N 99.0327 -1.24633 -0.964593 0
M  V30 1055 C 99.9427 -1.05859 -2.09359 0
M  V30 1056 C 100.959 0.00148855 -1.74 0
M  V30 1057 O 102.135 -0.197346 -2.00431 0
M  V30 1058 C 99.1997 -0.668879 -3.40187 0
M  V30 1059 C 98.2607 -1.80578 -3.89474 0
M  V30 1060 C 97.4937 -1.43457 -5.14058 0
M  V30 1061 O 97.7167 -0.325775 -5.69469 0
M  V30 1062 O 96.6507 -2.2613 -5.57807 0
M  V30 1063 H 100.477 -2.00516 -2.28094 0
M  V30 1064 H 98.0617 -1.03481 -1.0776 0
M  V30 1065 H 99.9437 -0.463211 -4.18846 0
M  V30 1066 H 98.6187 0.248536 -3.22744 0
M  V30 1067 H 97.5257 -2.06623 -3.11862 0
M  V30 1068 H 98.8587 -2.70208 -4.11398 0
M  V30 1069 N 100.511 1.16574 -1.06058 0
M  V30 1070 C 101.421 2.2452 -0.680282 0
M  V30 1071 C 102.437 1.71348 0.302604 0
M  V30 1072 O 103.613 2.00822 0.152513 0
M  V30 1073 C 100.678 3.46629 -0.0700315 0
M  V30 1074 C 99.7388 4.14849 -1.10448 0
M  V30 1075 C 98.9718 5.31129 -0.523256 0
M  V30 1076 O 99.1948 5.66514 0.664709 0
M  V30 1077 O 98.1288 5.88526 -1.26179 0
M  V30 1078 H 101.955 2.59355 -1.58015 0
M  V30 1079 H 99.5398 1.24043 -0.832694 0
M  V30 1080 H 101.422 4.20543 0.268667 0
M  V30 1081 H 100.097 3.13573 0.803353 0
M  V30 1082 H 99.0038 3.42916 -1.49532 0
M  V30 1083 H 100.337 4.51954 -1.94931 0
M  V30 1084 N 101.989 0.842826 1.3317 0
M  V30 1085 C 103.235 0.441099 1.97945 0
M  V30 1086 C 103.568 -0.998024 1.66593 0
M  V30 1087 O 102.843 -1.69839 0.947898 0
M  V30 1088 C 103.126 0.666841 3.53872 0
M  V30 1089 C 102.979 2.15352 3.94897 0
M  V30 1090 C 104.298 0.115544 4.39948 0
M  V30 1091 H 101.417 0.161739 0.719034 0
M  V30 1092 H 104.059 1.05907 1.57746 0
M  V30 1093 H 102.209 0.140828 3.88245 0
M  V30 1094 H 103.881 2.7447 3.70761 0
M  V30 1095 H 102.124 2.63653 3.44484 0
M  V30 1096 H 102.795 2.26221 5.03516 0
M  V30 1097 H 105.271 0.565213 4.12243 0
M  V30 1098 H 104.147 0.303152 5.48062 0
M  V30 1099 H 104.408 -0.980935 4.3108 0
M  V30 1100 N 103.467 -1.45747 0.599634 0
M  V30 1101 C 104.715 -2.01893 0.0915472 0
M  V30 1102 C 105.036 -1.47155 -1.27946 0
M  V30 1103 O 104.306 -0.66273 -1.84349 0
M  V30 1104 H 102.886 -0.746363 0.0308524 0
M  V30 1105 H 105.548 -1.78645 0.779237 0
M  V30 1106 H 104.644 -3.1208 0.0353086 0
M  V30 1107 N 104.945 -0.338344 -1.53925 0
M  V30 1108 C 106.356 0.146651 -1.86123 0
M  V30 1109 C 106.707 1.5042 -1.2597 0
M  V30 1110 O 105.832 2.08723 -0.571294 0
M  V30 1111 C 106.427 0.272879 -3.37699 0
M  V30 1112 C 104.986 0.702103 -3.69794 0
M  V30 1113 C 104.133 -0.167304 -2.76795 0
M  V30 1114 H 107.084 -0.558123 -1.48562 0
M  V30 1115 H 107.105 1.10128 -3.64214 0
M  V30 1116 H 106.617 -0.715307 -3.81451 0
M  V30 1117 H 104.718 1.6995 -3.31584 0
M  V30 1118 H 104.831 0.495604 -4.7653 0
M  V30 1119 H 103.195 0.359527 -2.5215 0
M  V30 1120 H 103.978 -1.15253 -3.23375 0
M  V30 1121 N 106.423 1.57458 -0.0668435 0
M  V30 1122 C 107.671 1.92919 0.602214 0
M  V30 1123 C 107.992 0.947215 1.70449 0
M  V30 1124 O 107.262 -0.00544117 1.95899 0
M  V30 1125 H 105.842 0.71217 0.22544 0
M  V30 1126 H 108.504 1.94508 -0.123535 0
M  V30 1127 H 107.6 2.94589 1.03073 0
M  V30 1128 N 107.901 -0.206675 1.56239 0
M  V30 1129 C 109.147 -0.930218 1.80208 0
M  V30 1130 C 109.48 -1.83387 0.638981 0
M  V30 1131 O 108.755 -1.91119 -0.361066 0
M  V30 1132 C 109.038 -1.75641 3.1436 0
M  V30 1133 C 108.891 -0.878257 4.41142 0
M  V30 1134 C 110.21 -2.73129 3.45092 0
M  V30 1135 H 107.329 -0.336742 0.655571 0
M  V30 1136 H 109.971 -0.198222 1.88963 0
M  V30 1137 H 108.121 -2.38048 3.07027 0
M  V30 1138 H 109.793 -0.269787 4.6051 0
M  V30 1139 H 108.036 -0.184385 4.33408 0
M  V30 1140 H 108.707 -1.49106 5.3148 0
M  V30 1141 H 111.183 -2.20856 3.52649 0
M  V30 1142 H 110.059 -3.28028 4.40101 0
M  V30 1143 H 110.32 -3.51606 2.68003 0
M  V30 1144 N 109.379 -1.50304 -0.473955 0
M  V30 1145 C 110.607 -1.64902 -1.24959 0
M  V30 1146 C 111.022 -0.331198 -1.85872 0
M  V30 1147 O 110.379 0.68652 -1.69095 0
M  V30 1148 C 110.43 -2.73803 -2.36038 0
M  V30 1149 O 110.151 -4.00477 -1.77624 0
M  V30 1150 C 111.652 -2.99349 -3.26964 0
M  V30 1151 H 108.872 -0.554383 -0.378022 0
M  V30 1152 H 111.416 -1.9651 -0.566054 0
M  V30 1153 H 109.571 -2.44898 -3.00173 0
M  V30 1154 H 109.985 -4.60678 -2.5075 0
M  V30 1155 H 111.459 -3.79217 -4.01121 0
M  V30 1156 H 111.936 -2.10307 -3.85574 0
M  V30 1157 H 112.542 -3.29774 -2.68569 0
M  V30 1158 N 110.857 0.726932 -1.39834 0
M  V30 1159 C 111.807 1.83232 -1.35683 0
M  V30 1160 C 112.791 1.59155 -0.236295 0
M  V30 1161 O 113.983 1.70522 -0.474488 0
M  V30 1162 C 111.112 3.21246 -1.21062 0
M  V30 1163 C 110.198 3.51125 -2.37849 0
M  V30 1164 N 110.589 3.51889 -3.63329 0
M  V30 1165 C 108.887 3.81527 -2.30982 0
M  V30 1166 C 109.588 3.79791 -4.40606 0
M  V30 1167 N 108.564 3.97971 -3.70297 0
M  V30 1168 H 112.366 1.8214 -2.30656 0
M  V30 1169 H 109.88 0.925545 -1.33444 0
M  V30 1170 H 111.877 4.00387 -1.16171 0
M  V30 1171 H 110.537 3.23572 -0.270458 0
M  V30 1172 H 111.548 3.33008 -3.96643 0
M  V30 1173 H 108.225 3.91411 -1.45272 0
M  V30 1174 H 109.615 3.86783 -5.49408 0
M  V30 1175 N 112.336 1.25143 0.95797 0
M  V30 1176 C 113.266 1.07711 2.07173 0
M  V30 1177 C 114.247 -0.0128462 1.70095 0
M  V30 1178 O 115.432 0.156061 1.93572 0
M  V30 1179 C 112.562 0.691503 3.40346 0
M  V30 1180 C 111.516 1.73132 3.9142 0
M  V30 1181 C 110.842 1.20049 5.21049 0
M  V30 1182 C 112.142 3.1294 4.1817 0
M  V30 1183 H 113.836 2.00873 2.22014 0
M  V30 1184 H 111.382 0.967191 1.06684 0
M  V30 1185 H 113.335 0.556505 4.17709 0
M  V30 1186 H 112.059 -0.275819 3.25433 0
M  V30 1187 H 110.718 1.8547 3.16222 0
M  V30 1188 H 110.366 0.223499 5.02503 0
M  V30 1189 H 110.066 1.89545 5.56189 0
M  V30 1190 H 111.59 1.07782 6.01012 0
M  V30 1191 H 113.004 3.03775 4.86203 0
M  V30 1192 H 111.401 3.79875 4.64559 0
M  V30 1193 H 112.471 3.6025 3.24573 0
M  V30 1194 N 113.814 -1.1601 1.06675 0
M  V30 1195 C 114.761 -2.20525 0.680967 0
M  V30 1196 C 115.731 -1.62904 -0.324283 0
M  V30 1197 O 116.916 -1.89615 -0.212294 0
M  V30 1198 C 114.056 -3.45013 0.0776551 0
M  V30 1199 C 113.169 -4.16863 1.13355 0
M  V30 1200 C 112.304 -5.2888 0.49597 0
M  V30 1201 C 111.343 -5.92537 1.53513 0
M  V30 1202 N 110.48 -6.96038 0.920631 0
M  V30 1203 H 115.32 -2.52876 1.57663 0
M  V30 1204 H 112.857 -1.24199 0.788223 0
M  V30 1205 H 114.815 -4.16193 -0.289704 0
M  V30 1206 H 113.445 -3.132 -0.781393 0
M  V30 1207 H 112.497 -3.44248 1.61857 0
M  V30 1208 H 113.809 -4.60294 1.92174 0
M  V30 1209 H 112.963 -6.06653 0.0758604 0
M  V30 1210 H 111.702 -4.86622 -0.324062 0
M  V30 1211 H 110.707 -5.13482 1.9651 0
M  V30 1212 H 111.932 -6.36873 2.35733 0
M  V30 1213 H 109.878 -6.55888 0.12138 0
M  V30 1214 H 109.795 -7.3786 1.64616 0
M  V30 1215 H 111.063 -7.77725 0.525795 0
M  V30 1216 N 115.292 -0.849877 -1.32721 0
M  V30 1217 C 116.538 -0.451591 -1.97708 0
M  V30 1218 C 116.871 0.989175 -1.6712 0
M  V30 1219 O 116.146 1.69334 -0.956891 0
M  V30 1220 C 116.429 -0.685598 -3.53513 0
M  V30 1221 C 116.282 -2.17444 -3.93749 0
M  V30 1222 C 117.601 -0.138874 -4.39881 0
M  V30 1223 H 114.72 -0.16555 -0.718166 0
M  V30 1224 H 117.362 -1.06742 -1.57182 0
M  V30 1225 H 115.512 -0.161416 -3.88165 0
M  V30 1226 H 117.184 -2.76433 -3.693 0
M  V30 1227 H 115.427 -2.65476 -3.43081 0
M  V30 1228 H 116.098 -2.28888 -5.02309 0
M  V30 1229 H 118.574 -0.587068 -4.11938 0
M  V30 1230 H 117.45 -0.332213 -5.47894 0
M  V30 1231 H 117.711 0.95806 -4.31594 0
M  V30 1232 N 116.77 1.45427 -0.607355 0
M  V30 1233 C 118.018 2.01841 -0.102253 0
M  V30 1234 C 118.339 1.47832 1.27164 0
M  V30 1235 O 117.609 0.672497 1.83995 0
M  V30 1236 H 116.189 0.746188 -0.0348101 0
M  V30 1237 H 118.851 1.78229 -0.7887 0
M  V30 1238 H 117.947 3.12057 -0.0518585 0
M  V30 1239 N 118.248 0.346503 1.53744 0
M  V30 1240 C 119.525 -0.304532 1.93215 0
M  V30 1241 C 119.905 -1.67993 1.27834 0
M  V30 1242 O 119.253 -2.24411 0.430352 0
M  V30 1243 C 119.463 -0.373852 3.46992 0
M  V30 1244 C 120.811 -0.62329 4.2 0
M  V30 1245 O 121.835 -0.455847 3.53271 0
M  V30 1246 O 120.694 -0.947879 5.38217 0
M  V30 1247 H 117.788 -0.178318 0.807547 0
M  V30 1248 H 120.334 0.397895 1.64969 0
M  V30 1249 H 119.106 0.591224 3.86808 0
M  V30 1250 H 118.729 -1.12294 3.81413 0
M  V30 1251 N 119.726 -1.57421 0.075193 0
M  V30 1252 C 121.142 -1.57099 -0.281444 0
M  V30 1253 C 121.342 -1.08486 -1.69803 0
M  V30 1254 O 120.398 -0.752279 -2.41033 0
M  V30 1255 C 121.711 -3.00571 -0.0880041 0
M  V30 1256 C 123.259 -3.12605 -0.157281 0
M  V30 1257 C 123.734 -4.57999 0.0079207 0
M  V30 1258 N 125.225 -4.63176 -0.0475725 0
M  V30 1259 C 125.96 -5.73373 0.0557876 0
M  V30 1260 N 125.456 -6.92473 0.21286 0
M  V30 1261 N 127.249 -5.621 -0.00152098 0
M  V30 1262 H 119.4 -1.87335 1.00098 0
M  V30 1263 H 121.663 -0.86377 0.390646 0
M  V30 1264 H 121.369 -3.40262 0.889629 0
M  V30 1265 H 121.243 -3.67754 -0.838875 0
M  V30 1266 H 123.63 -2.72798 -1.1254 0
M  V30 1267 H 123.711 -2.48053 0.62475 0
M  V30 1268 H 123.355 -4.98496 0.972824 0
M  V30 1269 H 123.285 -5.20586 -0.793556 0
M  V30 1270 H 125.776 -3.7753 -0.167244 0
M  V30 1271 H 126.089 -7.72279 0.283781 0
M  V30 1272 H 124.434 -6.94556 0.248267 0
M  V30 1273 H 127.625 -4.67938 -0.122958 0
M  V30 1274 H 127.798 -6.47948 0.0824844 0
M  V30 1275 N 121.204 0.198386 -1.56346 0
M  V30 1276 C 122.45 0.920648 -1.80698 0
M  V30 1277 C 122.783 1.83045 -0.648697 0
M  V30 1278 O 122.058 1.91308 0.350925 0
M  V30 1279 C 122.341 1.73971 -3.15287 0
M  V30 1280 C 122.194 0.85485 -4.41602 0
M  V30 1281 C 123.513 2.71296 -3.46535 0
M  V30 1282 H 120.632 0.333261 -0.657348 0
M  V30 1283 H 123.274 0.188198 -1.89066 0
M  V30 1284 H 121.424 2.36416 -3.08285 0
M  V30 1285 H 123.096 0.245362 -4.60647 0
M  V30 1286 H 121.339 0.161398 -4.335 0
M  V30 1287 H 122.01 1.46286 -5.32264 0
M  V30 1288 H 124.486 2.18983 -3.53816 0
M  V30 1289 H 123.362 3.2569 -4.41834 0
M  V30 1290 H 123.623 3.5018 -2.69864 0
M  V30 1291 N 122.682 1.50554 0.465978 0
M  V30 1292 C 123.93 1.61479 1.21528 0
M  V30 1293 C 124.251 0.319596 1.92363 0
M  V30 1294 O 123.521 -0.663194 1.84333 0
M  V30 1295 H 122.101 0.595055 0.451573 0
M  V30 1296 H 124.763 1.87355 0.53704 0
M  V30 1297 H 123.859 2.42846 1.96042 0
M  V30 1298 N 124.16 -0.719506 1.40217 0
M  V30 1299 C 125.409 -1.47486 1.37589 0
M  V30 1300 C 125.722 -1.9559 -0.0201568 0
M  V30 1301 O 126.928 -2.70973 -0.169049 0
M  V30 1302 C 125.384 -2.66575 2.41796 0
M  V30 1303 C 124.992 -2.25358 3.87192 0
M  V30 1304 C 126.736 -3.4433 2.48269 0
M  V30 1305 C 124.643 -3.41262 4.83005 0
M  V30 1306 H 123.573 -0.553901 0.511576 0
M  V30 1307 H 126.224 -0.783427 1.65936 0
M  V30 1308 H 124.606 -3.3787 2.06543 0
M  V30 1309 H 125.78 -1.61509 4.31569 0
M  V30 1310 H 124.095 -1.60657 3.84159 0
M  V30 1311 H 126.692 -4.30569 3.17041 0
M  V30 1312 H 127.035 -3.87872 1.51198 0
M  V30 1313 H 127.568 -2.80076 2.82493 0
M  V30 1314 H 124.307 -3.02755 5.81394 0
M  V30 1315 H 123.827 -4.0404 4.43297 0
M  V30 1316 H 125.506 -4.07383 5.02641 0
M  V30 1317 N 125.638 -1.25649 -0.95132 0
M  V30 1318 C 127.049 -1.09654 -1.51106 0
M  V30 1319 C 127.4 0.326615 -1.93462 0
M  V30 1320 O 126.525 1.21697 -1.78938 0
M  V30 1321 C 127.12 -1.98437 -2.74605 0
M  V30 1322 C 125.679 -1.86618 -3.2688 0
M  V30 1323 C 124.826 -1.9239 -1.99703 0
M  V30 1324 H 127.777 -1.38887 -0.767865 0
M  V30 1325 H 127.798 -1.5263 -3.48546 0
M  V30 1326 H 127.31 -3.02009 -2.43746 0
M  V30 1327 H 125.411 -0.859421 -3.62553 0
M  V30 1328 H 125.524 -2.71607 -3.94673 0
M  V30 1329 H 123.888 -1.36317 -2.15151 0
M  V30 1330 H 124.671 -2.97573 -1.71188 0
M  V30 1331 N 127.117 1.15442 -1.07289 0
M  V30 1332 C 128.363 1.8672 -0.806679 0
M  V30 1333 C 128.718 1.80723 0.660084 0
M  V30 1334 O 128.011 1.21902 1.47819 0
M  V30 1335 C 128.205 3.3489 -1.24834 0
M  V30 1336 C 128.034 3.55313 -2.7565 0
M  V30 1337 C 126.804 3.7082 -3.4325 0
M  V30 1338 C 129.002 3.53188 -3.73848 0
M  V30 1339 N 126.984 3.7929 -4.82713 0
M  V30 1340 C 128.355 3.67765 -4.99149 0
M  V30 1341 C 130.41 3.36459 -3.67015 0
M  V30 1342 C 129.113 3.6734 -6.18428 0
M  V30 1343 C 131.139 3.37333 -4.85758 0
M  V30 1344 C 130.501 3.52438 -6.09891 0
M  V30 1345 H 126.6 0.700433 -0.347733 0
M  V30 1346 H 129.184 1.38441 -1.36902 0
M  V30 1347 H 127.355 3.81786 -0.713713 0
M  V30 1348 H 129.087 3.93875 -0.929745 0
M  V30 1349 H 125.842 3.71568 -2.93656 0
M  V30 1350 H 126.266 3.8727 -5.55294 0
M  V30 1351 H 130.908 3.237 -2.71989 0
M  V30 1352 H 128.626 3.78878 -7.13777 0
M  V30 1353 H 132.212 3.25617 -4.82146 0
M  V30 1354 H 131.092 3.53047 -7.00234 0
M  V30 1355 N 128.595 0.856903 1.32268 0
M  V30 1356 C 129.525 0.31858 2.31316 0
M  V30 1357 C 130.506 -0.583487 1.59779 0
M  V30 1358 O 131.691 -0.503259 1.87566 0
M  V30 1359 C 128.821 -0.491979 3.43798 0
M  V30 1360 C 127.775 0.315849 4.26833 0
M  V30 1361 C 127.101 -0.619586 5.31098 0
M  V30 1362 C 128.401 1.54282 4.98993 0
M  V30 1363 H 130.095 1.14621 2.76591 0
M  V30 1364 H 127.641 0.552613 1.32974 0
M  V30 1365 H 129.594 -0.879012 4.1213 0
M  V30 1366 H 128.318 -1.35299 2.97257 0
M  V30 1367 H 126.977 0.684664 3.6015 0
M  V30 1368 H 126.625 -1.47751 4.8081 0
M  V30 1369 H 126.325 -0.0830621 5.87541 0
M  V30 1370 H 127.849 -1.00375 6.02293 0
M  V30 1371 H 129.263 1.22796 5.59995 0
M  V30 1372 H 127.66 2.01745 5.65172 0
M  V30 1373 H 128.73 2.30285 4.26728 0
M  V30 1374 N 130.073 -1.45103 0.615059 0
M  V30 1375 C 131.303 -2.06254 0.119596 0
M  V30 1376 C 131.711 -1.4591 -1.20445 0
M  V30 1377 O 131.054 -0.570384 -1.7462 0
M  V30 1378 C 131.116 -3.59396 -0.0865591 0
M  V30 1379 C 130.78 -4.42116 1.15683 0
M  V30 1380 C 131.777 -4.7662 2.07676 0
M  V30 1381 C 129.462 -4.82749 1.38775 0
M  V30 1382 C 131.456 -5.50622 3.21082 0
M  V30 1383 C 129.143 -5.56504 2.52481 0
M  V30 1384 C 130.141 -5.90358 3.43463 0
M  V30 1385 O 129.829 -6.62615 4.55189 0
M  V30 1386 H 129.561 -0.672423 0.0694512 0
M  V30 1387 H 132.115 -1.87219 0.844885 0
M  V30 1388 H 130.345 -3.76859 -0.866823 0
M  V30 1389 H 132.034 -4.02365 -0.534555 0
M  V30 1390 H 132.8 -4.4578 1.91063 0
M  V30 1391 H 128.679 -4.55829 0.688545 0
M  V30 1392 H 132.223 -5.76965 3.92119 0
M  V30 1393 H 128.12 -5.86759 2.69043 0
M  V30 1394 H 128.888 -6.81071 4.53966 0
M  V30 1395 N 131.551 -0.354651 -1.53558 0
M  V30 1396 C 132.776 0.242153 -2.05981 0
M  V30 1397 C 133.201 1.42553 -1.2272 0
M  V30 1398 O 132.559 1.79656 -0.243604 0
M  V30 1399 C 132.607 0.624367 -3.55154 0
M  V30 1400 O 131.711 1.72301 -3.74681 0
M  V30 1401 H 131.052 0.0378432 -0.662921 0
M  V30 1402 H 133.582 -0.512087 -1.98088 0
M  V30 1403 H 133.592 0.898433 -3.97985 0
M  V30 1404 H 132.267 -0.240989 -4.15201 0
M  V30 1405 H 130.844 1.44535 -3.4375 0
M  V30 1406 N 133.029 1.57378 -0.0835403 0
M  V30 1407 C 133.992 2.12252 0.864959 0
M  V30 1408 C 134.992 1.04916 1.21858 0
M  V30 1409 O 136.182 1.30853 1.14991 0
M  V30 1410 C 133.314 2.63358 2.16461 0
M  V30 1411 H 134.507 2.97371 0.388676 0
M  V30 1412 H 132.06 1.55423 0.165317 0
M  V30 1413 H 132.795 1.81727 2.686 0
M  V30 1414 H 132.58 3.41826 1.92087 0
M  V30 1415 H 134.07 3.05847 2.84337 0
M  V30 1416 N 134.507 -0.190092 1.56449 0
M  V30 1417 C 135.747 -0.916414 1.82705 0
M  V30 1418 C 136.111 -1.80235 0.661763 0
M  V30 1419 O 137.312 -2.56484 0.80433 0
M  V30 1420 C 135.583 -1.70691 3.14005 0
M  V30 1421 S 137.142 -2.48457 3.61683 0
M  V30 1422 H 133.96 -0.307281 0.64117 0
M  V30 1423 H 136.562 -0.179433 1.94675 0
M  V30 1424 H 135.266 -1.04677 3.96826 0
M  V30 1425 H 134.797 -2.48562 3.04927 0
M  V30 1426 H 136.812 -3.72756 3.27517 0
M  V30 1427 N 135.985 -1.50799 -0.457987 0
M  V30 1428 C 137.233 -1.62121 -1.2067 0
M  V30 1429 C 137.554 -0.329793 -1.92191 0
M  V30 1430 O 136.824 0.653409 -1.84682 0
M  V30 1431 H 135.404 -0.597441 -0.448411 0
M  V30 1432 H 138.066 -1.87637 -0.527096 0
M  V30 1433 H 137.162 -2.43882 -1.94751 0
M  V30 1434 N 137.463 0.71206 -1.40597 0
M  V30 1435 C 138.413 1.81783 -1.37619 0
M  V30 1436 C 139.397 1.58896 -0.253162 0
M  V30 1437 O 140.589 1.70009 -0.492547 0
M  V30 1438 C 137.718 3.19944 -1.24462 0
M  V30 1439 C 136.804 3.48582 -2.4156 0
M  V30 1440 N 137.195 3.48016 -3.67041 0
M  V30 1441 C 135.493 3.79056 -2.35016 0
M  V30 1442 C 136.194 3.75096 -4.44609 0
M  V30 1443 N 135.17 3.94022 -3.74497 0
M  V30 1444 H 138.972 1.79683 -2.32575 0
M  V30 1445 H 136.486 0.91134 -1.34419 0
M  V30 1446 H 138.483 3.99133 -1.20411 0
M  V30 1447 H 137.143 3.23267 -0.304762 0
M  V30 1448 H 138.154 3.28782 -4.00153 0
M  V30 1449 H 134.831 3.89848 -1.49415 0
M  V30 1450 H 136.221 3.80934 -5.53479 0
M  V30 1451 N 138.941 1.26152 0.944643 0
M  V30 1452 C 140.181 1.12708 1.70517 0
M  V30 1453 C 140.545 -0.324727 1.89234 0
M  V30 1454 O 141.746 -0.581211 2.62441 0
M  V30 1455 C 140.017 1.8713 3.04495 0
M  V30 1456 S 141.576 1.89698 3.95677 0
M  V30 1457 H 138.394 0.402665 0.585988 0
M  V30 1458 H 140.996 1.59821 1.12594 0
M  V30 1459 H 139.7 2.91833 2.88551 0
M  V30 1460 H 139.231 1.40444 3.67477 0
M  V30 1461 H 141.246 0.981198 4.86402 0
M  V30 1462 N 140.419 -1.14872 1.07899 0
M  V30 1463 C 141.696 -1.81928 0.71845 0
M  V30 1464 C 142.076 -1.95417 -0.798455 0
M  V30 1465 O 141.424 -1.50997 -1.715 0
M  V30 1466 C 141.634 -3.17937 1.43935 0
M  V30 1467 C 142.982 -3.93501 1.59506 0
M  V30 1468 O 144.006 -3.27509 1.40058 0
M  V30 1469 O 142.865 -5.1183 1.91551 0
M  V30 1470 H 139.959 -0.78628 0.256305 0
M  V30 1471 H 142.505 -1.21934 1.18026 0
M  V30 1472 H 141.277 -3.0325 2.47295 0
M  V30 1473 H 140.9 -3.85619 0.968687 0
M  V30 1474 N 141.898 -0.863906 -1.31812 0
M  V30 1475 C 143.128 -0.485406 -2.00817 0
M  V30 1476 C 143.536 0.925007 -1.65046 0
M  V30 1477 O 142.879 1.61653 -0.872574 0
M  V30 1478 C 142.941 -0.555589 -3.55181 0
M  V30 1479 C 142.605 -1.92654 -4.14407 0
M  V30 1480 C 143.602 -2.89324 -4.31958 0
M  V30 1481 C 141.287 -2.2262 -4.50273 0
M  V30 1482 C 143.281 -4.14108 -4.84555 0
M  V30 1483 C 140.968 -3.47654 -5.02573 0
M  V30 1484 C 141.966 -4.43214 -5.19664 0
M  V30 1485 O 141.654 -5.66033 -5.70843 0
M  V30 1486 H 141.386 -0.188224 -0.649267 0
M  V30 1487 H 143.94 -1.16514 -1.69156 0
M  V30 1488 H 142.17 0.181037 -3.86276 0
M  V30 1489 H 143.859 -0.19138 -4.05449 0
M  V30 1490 H 144.625 -2.6748 -4.04573 0
M  V30 1491 H 140.504 -1.4902 -4.3625 0
M  V30 1492 H 144.048 -4.88703 -4.9781 0
M  V30 1493 H 139.945 -3.69345 -5.29391 0
M  V30 1494 H 140.713 -5.6812 -5.89222 0
M  V30 1495 N 143.376 1.44774 -0.622745 0
M  V30 1496 C 144.616 2.04004 -0.127102 0
M  V30 1497 C 144.98 1.47862 1.22478 0
M  V30 1498 O 146.181 1.98541 1.81204 0
M  V30 1499 C 144.452 3.57247 -0.104429 0
M  V30 1500 S 146.011 4.37574 0.327814 0
M  V30 1501 H 142.829 0.708713 -0.0569776 0
M  V30 1502 H 145.431 1.77275 -0.824253 0
M  V30 1503 H 144.135 3.95616 -1.09159 0
M  V30 1504 H 143.666 3.88575 0.614236 0
M  V30 1505 H 145.681 4.70575 1.57395 0
M  V30 1506 N 144.854 0.36279 1.53368 0
M  V30 1507 C 145.784 -0.476976 2.28576 0
M  V30 1508 C 146.765 -1.08631 1.30894 0
M  V30 1509 O 147.95 -1.10409 1.59761 0
M  V30 1510 C 145.08 -1.61828 3.07293 0
M  V30 1511 C 144.034 -1.13633 4.1264 0
M  V30 1512 C 143.36 -2.36766 4.79423 0
M  V30 1513 C 144.66 -0.223061 5.21823 0
M  V30 1514 H 146.354 0.150474 2.99022 0
M  V30 1515 H 143.9 0.0738103 1.43811 0
M  V30 1516 H 145.853 -2.21237 3.58653 0
M  V30 1517 H 144.577 -2.27292 2.34533 0
M  V30 1518 H 143.236 -0.564945 3.62221 0
M  V30 1519 H 142.884 -3.0068 4.03238 0
M  V30 1520 H 142.584 -2.05192 5.50609 0
M  V30 1521 H 144.108 -2.96865 5.33576 0
M  V30 1522 H 145.522 -0.724545 5.68703 0
M  V30 1523 H 143.919 0.001678 6.001 0
M  V30 1524 H 144.989 0.735553 4.79289 0
M  V30 1525 N 146.332 -1.57332 0.0918853 0
M  V30 1526 C 147.557 -1.98995 -0.584442 0
M  V30 1527 C 147.982 -0.970528 -1.61128 0
M  V30 1528 O 147.34 0.0613904 -1.81196 0
M  V30 1529 C 147.388 -3.39636 -1.21161 0
M  V30 1530 O 146.492 -3.40447 -2.32744 0
M  V30 1531 H 145.833 -0.647165 -0.148572 0
M  V30 1532 H 148.363 -2.03873 0.172347 0
M  V30 1533 H 148.373 -3.7726 -1.55367 0
M  V30 1534 H 147.048 -4.13356 -0.459313 0
M  V30 1535 H 145.625 -3.14614 -2.0018 0
M  V30 1536 N 147.81 0.181792 -1.56548 0
M  V30 1537 C 149.058 0.89832 -1.81038 0
M  V30 1538 C 149.379 1.83232 -0.667164 0
M  V30 1539 O 148.649 1.93372 0.313673 0
M  V30 1540 H 147.229 0.33471 -0.667816 0
M  V30 1541 H 149.891 0.184116 -1.94028 0
M  V30 1542 H 148.987 1.4815 -2.74696 0
M  V30 1543 N 149.288 1.51039 0.449983 0
M  V30 1544 C 150.22 1.67617 1.56324 0
M  V30 1545 C 151.233 0.557083 1.52972 0
M  V30 1546 O 152.422 0.830989 1.57977 0
M  V30 1547 C 149.522 1.66402 2.95235 0
M  V30 1548 C 148.695 2.9469 3.23229 0
M  V30 1549 C 147.754 2.85832 4.41799 0
M  V30 1550 O 146.78 3.59785 4.41071 0
M  V30 1551 N 147.982 2.00821 5.44657 0
M  V30 1552 H 150.747 2.63648 1.42512 0
M  V30 1553 H 148.308 1.48767 0.638737 0
M  V30 1554 H 150.3 1.58062 3.72557 0
M  V30 1555 H 148.87 0.780182 3.02708 0
M  V30 1556 H 148.09 3.16996 2.34323 0
M  V30 1557 H 149.378 3.79636 3.38754 0
M  V30 1558 H 148.776 1.40091 5.48079 0
M  V30 1559 H 147.333 1.98368 6.20881 0
M  V30 1560 N 150.766 -0.704594 1.40972 0
M  V30 1561 C 151.676 -1.84856 1.44448 0
M  V30 1562 C 152.692 -1.70726 0.335961 0
M  V30 1563 O 153.868 -1.92799 0.582276 0
M  V30 1564 C 150.933 -3.20758 1.31587 0
M  V30 1565 C 149.994 -3.47063 2.52677 0
M  V30 1566 C 149.227 -4.76481 2.4042 0
M  V30 1567 O 149.45 -5.52341 1.42391 0
M  V30 1568 O 148.384 -5.03367 3.30007 0
M  V30 1569 H 152.21 -1.8488 2.40942 0
M  V30 1570 H 149.795 -0.85647 1.22413 0
M  V30 1571 H 151.677 -4.01913 1.26665 0
M  V30 1572 H 150.352 -3.21438 0.382049 0
M  V30 1573 H 149.259 -2.65873 2.63177 0
M  V30 1574 H 150.592 -3.5119 3.44858 0
M  V30 1575 N 152.244 -1.26651 -0.937939 0
M  V30 1576 C 153.472 -1.15173 -1.7188 0
M  V30 1577 C 153.887 0.292668 -1.86518 0
M  V30 1578 O 153.244 1.20014 -1.37488 0
M  V30 1579 C 153.295 -1.81925 -3.12387 0
M  V30 1580 O 153.016 -3.2072 -2.98446 0
M  V30 1581 C 154.517 -1.76442 -4.06673 0
M  V30 1582 H 151.737 -0.400911 -0.538063 0
M  V30 1583 H 154.281 -1.67332 -1.1756 0
M  V30 1584 H 152.436 -1.33696 -3.63599 0
M  V30 1585 H 152.85 -3.53802 -3.872 0
M  V30 1586 H 154.324 -2.27781 -5.02812 0
M  V30 1587 H 154.801 -0.731608 -4.33064 0
M  V30 1588 H 155.407 -2.24238 -3.61382 0
M  V30 1589 N 153.722 1.14298 -1.08507 0
M  V30 1590 C 154.652 2.21542 -0.737646 0
M  V30 1591 C 155.633 1.67773 0.280377 0
M  V30 1592 O 156.818 1.93616 0.150521 0
M  V30 1593 C 153.948 3.46988 -0.147259 0
M  V30 1594 C 152.902 4.13789 -1.09374 0
M  V30 1595 C 152.228 5.33449 -0.365524 0
M  V30 1596 C 153.528 4.62208 -2.4323 0
M  V30 1597 H 155.222 2.5086 -1.6343 0
M  V30 1598 H 152.768 1.20576 -0.787243 0
M  V30 1599 H 154.721 4.21262 0.107808 0
M  V30 1600 H 153.445 3.17037 0.784538 0
M  V30 1601 H 152.104 3.4147 -1.33393 0
M  V30 1602 H 151.752 4.99759 0.57011 0
M  V30 1603 H 151.452 5.79088 -0.996512 0
M  V30 1604 H 152.976 6.10485 -0.118534 0
M  V30 1605 H 154.39 5.27952 -2.23472 0
M  V30 1606 H 152.787 5.18553 -3.02031 0
M  V30 1607 H 153.857 3.77224 -3.04681 0
M  V30 1608 N 155.201 0.870884 1.31352 0
M  V30 1609 C 156.441 0.488783 1.9847 0
M  V30 1610 C 156.805 -0.941536 1.67329 0
M  V30 1611 O 158.006 -1.42903 2.27667 0
M  V30 1612 C 156.277 0.739688 3.49662 0
M  V30 1613 S 157.836 0.457582 4.36408 0
M  V30 1614 H 154.654 0.18242 0.6872 0
M  V30 1615 H 157.256 1.12711 1.59739 0
M  V30 1616 H 155.96 1.77944 3.69816 0
M  V30 1617 H 155.491 0.0883905 3.93301 0
M  V30 1618 H 157.506 -0.709752 4.91098 0
M  V30 1619 N 156.679 -1.44442 0.630414 0
M  V30 1620 C 157.589 -2.34476 -0.0761693 0
M  V30 1621 C 158.605 -1.52576 -0.836449 0
M  V30 1622 O 159.781 -1.85307 -0.788874 0
M  V30 1623 C 156.846 -3.30545 -1.04599 0
M  V30 1624 C 155.907 -4.28352 -0.28516 0
M  V30 1625 C 155.14 -5.19831 -1.20878 0
M  V30 1626 O 155.363 -5.15223 -2.44747 0
M  V30 1627 O 154.297 -5.97892 -0.693491 0
M  V30 1628 H 158.123 -2.96345 0.664324 0
M  V30 1629 H 155.708 -1.44203 0.39061 0
M  V30 1630 H 157.59 -3.89681 -1.60396 0
M  V30 1631 H 156.265 -2.7121 -1.76711 0
M  V30 1632 H 155.172 -3.72764 0.315837 0
M  V30 1633 H 156.505 -4.90605 0.395924 0
M  V30 1634 N 158.157 -0.370918 -1.53173 0
M  V30 1635 C 159.107 0.489588 -2.22681 0
M  V30 1636 C 160.091 1.04442 -1.22395 0
M  V30 1637 O 161.283 0.973578 -1.47819 0
M  V30 1638 C 158.412 1.626 -3.02351 0
M  V30 1639 C 157.498 1.08379 -4.10018 0
M  V30 1640 N 157.889 0.265004 -5.05105 0
M  V30 1641 C 156.187 1.35809 -4.2482 0
M  V30 1642 C 156.888 -0.0324755 -5.81691 0
M  V30 1643 N 155.864 0.566581 -5.40639 0
M  V30 1644 H 159.666 -0.142729 -2.93553 0
M  V30 1645 H 157.18 -0.179221 -1.61408 0
M  V30 1646 H 159.177 2.2547 -3.50669 0
M  V30 1647 H 157.837 2.26132 -2.33011 0
M  V30 1648 H 158.848 -0.0962352 -5.17811 0
M  V30 1649 H 155.525 1.9958 -3.66707 0
M  V30 1650 H 156.915 -0.69473 -6.68299 0
M  V30 1651 N 159.635 1.57281 -0.100228 0
M  V30 1652 C 160.567 2.11342 0.886972 0
M  V30 1653 C 161.58 1.05182 1.24261 0
M  V30 1654 O 162.769 1.32613 1.19483 0
M  V30 1655 C 159.869 2.5825 2.19454 0
M  V30 1656 C 159.042 3.88302 2.01346 0
M  V30 1657 C 158.101 4.21004 3.15661 0
M  V30 1658 O 157.127 4.9014 2.89398 0
M  V30 1659 N 158.329 3.76818 4.41575 0
M  V30 1660 H 161.094 2.96668 0.425216 0
M  V30 1661 H 158.655 1.61678 0.0847334 0
M  V30 1662 H 160.647 2.7717 2.94888 0
M  V30 1663 H 159.217 1.77907 2.57037 0
M  V30 1664 H 158.437 3.7848 1.10212 0
M  V30 1665 H 159.725 4.73375 1.8653 0
M  V30 1666 H 159.123 3.2102 4.65792 0
M  V30 1667 H 157.68 4.00882 5.13942 0
M  V30 1668 N 161.113 -0.173488 1.56642 0
M  V30 1669 C 162.06 -1.21482 1.96242 0
M  V30 1670 C 163.03 -1.44104 0.826027 0
M  V30 1671 O 164.215 -1.5688 1.08597 0
M  V30 1672 C 161.355 -2.54964 2.32567 0
M  V30 1673 C 160.468 -2.39739 3.59373 0
M  V30 1674 C 159.603 -3.66072 3.84921 0
M  V30 1675 C 158.642 -3.45771 5.05083 0
M  V30 1676 N 157.779 -4.64169 5.26775 0
M  V30 1677 H 162.619 -0.870123 2.85014 0
M  V30 1678 H 160.156 -0.418245 1.41029 0
M  V30 1679 H 162.114 -3.32758 2.5165 0
M  V30 1680 H 160.744 -2.87433 1.46908 0
M  V30 1681 H 159.796 -1.53131 3.48217 0
M  V30 1682 H 161.108 -2.20683 4.47326 0
M  V30 1683 H 160.262 -4.52303 4.0436 0
M  V30 1684 H 159.001 -3.88105 2.9534 0
M  V30 1685 H 158.006 -2.57927 4.85545 0
M  V30 1686 H 159.231 -3.25163 5.96193 0
M  V30 1687 H 157.177 -4.86425 4.40144 0
M  V30 1688 H 157.094 -4.48019 6.08946 0
M  V30 1689 H 158.362 -5.51689 5.5069 0
M  V30 1690 N 162.591 -1.51276 -0.441967 0
M  V30 1691 C 163.539 -1.72823 -1.55676 0
M  V30 1692 C 164.533 -0.59445 -1.58627 0
M  V30 1693 O 165.739 -0.775715 -1.62427 0
M  V30 1694 H 162.114 -0.545983 -0.517113 0
M  V30 1695 H 164.085 -2.6628 -1.34675 0
M  V30 1696 C 162.834 -1.86619 -2.93375 0
M  V30 1697 H 162.157 -2.73264 -2.91834 0
M  V30 1698 H 163.597 -2.05709 -3.70756 0
M  V30 1699 C 162.056 -0.624842 -3.31055 0
M  V30 1700 O 162.586 0.222636 -4.01083 0
M  V30 1701 N 160.792 -0.470288 -2.86769 0
M  V30 1702 H 160.339 -1.161 -2.29953 0
M  V30 1703 H 160.297 0.359051 -3.12343 0
M  V30 1704 N 164.069 0.697108 -1.41344 0
M  V30 1705 C 165.032 1.79281 -1.42797 0
M  V30 1706 C 166.032 1.57607 -0.318837 0
M  V30 1707 O 167.222 1.64309 -0.578642 0
M  V30 1708 C 164.354 3.17632 -1.23785 0
M  V30 1709 H 165.547 1.79385 -2.40335 0
M  V30 1710 H 163.1 0.904582 -1.27464 0
M  V30 1711 H 163.835 3.23167 -0.270814 0
M  V30 1712 H 163.62 3.34765 -2.04144 0
M  V30 1713 H 165.11 3.97617 -1.27633 0
M  V30 1714 N 165.547 1.27147 0.931209 0
M  V30 1715 C 166.795 1.13055 1.6752 0
M  V30 1716 C 167.116 -0.324791 1.92276 0
M  V30 1717 O 166.386 -1.22775 1.52654 0
M  V30 1718 H 164.966 0.415391 0.620854 0
M  V30 1719 H 167.628 1.59623 1.11833 0
M  V30 1720 H 166.724 1.65694 2.64485 0
M  V30 1721 N 167.025 -1.13721 1.09112 0
M  V30 1722 C 168.255 -1.88499 0.845671 0
M  V30 1723 C 168.663 -1.79218 -0.606432 0
M  V30 1724 O 168.006 -1.1544 -1.42896 0
M  V30 1725 C 168.068 -3.38954 1.19793 0
M  V30 1726 C 167.732 -3.72018 2.65428 0
M  V30 1727 C 168.729 -3.7153 3.63677 0
M  V30 1728 C 166.414 -4.01775 3.01467 0
M  V30 1729 C 168.408 -4.00336 4.95994 0
M  V30 1730 C 166.095 -4.30243 4.33975 0
M  V30 1731 C 167.093 -4.29508 5.31048 0
M  V30 1732 O 166.781 -4.5728 6.61173 0
M  V30 1733 H 166.513 -0.603702 0.304171 0
M  V30 1734 H 169.067 -1.44903 1.45576 0
M  V30 1735 H 167.297 -3.83039 0.530871 0
M  V30 1736 H 168.986 -3.95052 0.932146 0
M  V30 1737 H 169.752 -3.4862 3.37179 0
M  V30 1738 H 165.631 -4.01496 2.26544 0
M  V30 1739 H 169.175 -3.99678 5.71755 0
M  V30 1740 H 165.072 -4.52625 4.60219 0
M  V30 1741 H 165.84 -4.74964 6.66597 0
M  V30 1742 N 168.503 -0.877838 -1.30888 0
M  V30 1743 C 169.728 -0.506629 -2.01117 0
M  V30 1744 C 170.153 0.895564 -1.65412 0
M  V30 1745 O 169.511 1.5923 -0.866922 0
M  V30 1746 C 169.559 -0.680223 -3.54126 0
M  V30 1747 O 168.663 0.277033 -4.11468 0
M  V30 1748 H 168.004 -0.200518 -0.633 0
M  V30 1749 H 170.534 -1.18342 -1.66902 0
M  V30 1750 H 170.544 -0.5765 -4.03907 0
M  V30 1751 H 169.219 -1.70261 -3.79452 0
M  V30 1752 H 167.796 0.127606 -3.72682 0
M  V30 1753 N 169.982 1.44106 -0.638065 0
M  V30 1754 C 171.228 2.02277 -0.145546 0
M  V30 1755 C 171.561 1.50125 1.23191 0
M  V30 1756 O 170.836 0.688133 1.8192 0
M  V30 1757 C 171.119 3.59829 -0.139791 0
M  V30 1758 C 170.972 4.22247 -1.55008 0
M  V30 1759 C 172.291 4.36873 0.531966 0
M  V30 1760 H 169.41 0.734992 -0.0543632 0
M  V30 1761 H 172.052 1.71592 -0.815863 0
M  V30 1762 H 170.202 3.86102 0.431007 0
M  V30 1763 H 171.874 4.07057 -2.1703 0
M  V30 1764 H 170.117 3.79476 -2.10191 0
M  V30 1765 H 170.788 5.31284 -1.49804 0
M  V30 1766 H 173.264 4.16074 0.0464781 0
M  V30 1767 H 172.14 5.4657 0.505206 0
M  V30 1768 H 172.401 4.11995 1.60352 0
M  V30 1769 N 171.46 0.379036 1.52974 0
M  V30 1770 C 172.737 -0.263479 1.93817 0
M  V30 1771 C 173.117 -1.65244 1.31368 0
M  V30 1772 O 172.465 -2.23448 0.477856 0
M  V30 1773 C 172.675 -0.300166 3.47707 0
M  V30 1774 C 174.023 -0.534061 4.21228 0
M  V30 1775 O 175.047 -0.38081 3.54159 0
M  V30 1776 O 173.906 -0.833501 5.40106 0
M  V30 1777 H 171 -0.161149 0.811147 0
M  V30 1778 H 173.546 0.432798 1.64088 0
M  V30 1779 H 172.318 0.673138 3.85467 0
M  V30 1780 H 171.941 -1.04179 3.83709 0
M  V30 1781 N 172.938 -1.57226 0.108567 0
M  V30 1782 C 174.186 -1.94448 -0.550853 0
M  V30 1783 C 174.507 -0.992074 -1.67878 0
M  V30 1784 O 173.777 -0.0465 -1.95845 0
M  V30 1785 H 172.357 -0.717897 -0.206479 0
M  V30 1786 H 175.019 -1.94112 0.175062 0
M  V30 1787 H 174.115 -2.97218 -0.952259 0
M  V30 1788 N 174.416 0.165178 -1.56732 0
M  V30 1789 C 175.664 0.879068 -1.8198 0
M  V30 1790 C 175.985 1.82514 -0.686561 0
M  V30 1791 O 175.255 1.93694 0.293146 0
M  V30 1792 H 173.835 0.327608 -0.671329 0
M  V30 1793 H 176.497 0.163526 -1.94213 0
M  V30 1794 H 175.593 1.45228 -2.76252 0
M  V30 1795 N 175.894 1.51508 0.433938 0
M  V30 1796 C 177.124 1.67914 1.20369 0
M  V30 1797 C 177.532 0.377461 1.85397 0
M  V30 1798 O 176.875 -0.654255 1.71654 0
M  V30 1799 C 176.937 2.74045 2.32679 0
M  V30 1800 C 176.601 4.16543 1.87991 0
M  V30 1801 C 177.598 5.01211 1.38145 0
M  V30 1802 C 175.283 4.6266 1.95579 0
M  V30 1803 C 177.277 6.30056 0.964774 0
M  V30 1804 C 174.964 5.91501 1.53523 0
M  V30 1805 C 175.962 6.75027 1.04055 0
M  V30 1806 O 175.65 8.01459 0.625964 0
M  V30 1807 H 175.382 0.566578 0.368735 0
M  V30 1808 H 177.936 1.98709 0.51999 0
M  V30 1809 H 176.166 2.38572 3.04336 0
M  V30 1810 H 177.855 2.79295 2.94532 0
M  V30 1811 H 178.621 4.66783 1.31675 0
M  V30 1812 H 174.5 3.97767 2.33029 0
M  V30 1813 H 178.044 6.95202 0.57796 0
M  V30 1814 H 173.941 6.25442 1.59665 0
M  V30 1815 H 174.709 8.15043 0.751509 0
M  V30 1816 N 177.372 -0.689602 1.41712 0
M  V30 1817 C 178.335 -1.78521 1.43746 0
M  V30 1818 C 179.335 -1.57436 0.327191 0
M  V30 1819 O 180.525 -1.64 0.587348 0
M  V30 1820 C 177.657 -3.16971 1.25467 0
M  V30 1821 H 178.85 -1.78108 2.41283 0
M  V30 1822 H 176.403 -0.89781 1.27942 0
M  V30 1823 H 177.138 -3.23019 0.287948 0
M  V30 1824 H 176.923 -3.33678 2.05917 0
M  V30 1825 H 178.413 -3.96935 1.2974 0
M  V30 1826 N 178.85 -1.27639 -0.924453 0
M  V30 1827 C 179.76 -1.12466 -2.05885 0
M  V30 1828 C 180.776 -0.053869 -1.73917 0
M  V30 1829 O 181.952 -0.261012 -1.99702 0
M  V30 1830 C 179.017 -0.776768 -3.37886 0
M  V30 1831 C 178.078 -1.92878 -3.83532 0
M  V30 1832 C 177.311 -1.59739 -5.09234 0
M  V30 1833 O 177.534 -0.506782 -5.68144 0
M  V30 1834 O 176.468 -2.43761 -5.50331 0
M  V30 1835 H 180.294 -2.07671 -2.21599 0
M  V30 1836 H 177.879 -1.06857 -1.04413 0
M  V30 1837 H 179.761 -0.596229 -4.17161 0
M  V30 1838 H 178.436 0.145732 -3.23372 0
M  V30 1839 H 177.343 -2.1644 -3.0513 0
M  V30 1840 H 178.676 -2.8316 -4.02593 0
M  V30 1841 N 180.328 1.1314 -1.09713 0
M  V30 1842 C 181.558 1.88048 -0.855656 0
M  V30 1843 C 181.966 1.79537 0.596919 0
M  V30 1844 O 181.309 1.16196 1.42282 0
M  V30 1845 C 181.371 3.38314 -1.21589 0
M  V30 1846 C 181.035 3.70605 -2.67397 0
M  V30 1847 C 182.032 3.69596 -3.65643 0
M  V30 1848 C 179.717 4.0017 -3.03593 0
M  V30 1849 C 181.711 3.977 -4.9811 0
M  V30 1850 C 179.398 4.27935 -4.36251 0
M  V30 1851 C 180.396 4.26685 -5.33318 0
M  V30 1852 O 180.084 4.53767 -6.63589 0
M  V30 1853 H 179.816 0.60208 -0.307368 0
M  V30 1854 H 182.37 1.44128 -1.46343 0
M  V30 1855 H 180.6 3.82752 -0.551177 0
M  V30 1856 H 182.289 3.94552 -0.953083 0
M  V30 1857 H 183.055 3.46826 -3.39023 0
M  V30 1858 H 178.934 4.00289 -2.2867 0
M  V30 1859 H 182.478 3.9664 -5.73866 0
M  V30 1860 H 178.375 4.50178 -4.62613 0
M  V30 1861 H 179.143 4.71422 -6.69107 0
M  V30 1862 N 181.806 0.884767 1.30421 0
M  V30 1863 C 183.046 0.509806 1.9794 0
M  V30 1864 C 183.41 -0.923736 1.68319 0
M  V30 1865 O 184.611 -1.40481 2.29169 0
M  V30 1866 C 182.882 0.776732 3.48858 0
M  V30 1867 S 184.441 0.503843 4.35898 0
M  V30 1868 H 181.259 0.189699 0.685227 0
M  V30 1869 H 183.861 1.14399 1.58535 0
M  V30 1870 H 182.565 1.81857 3.67908 0
M  V30 1871 H 182.096 0.1301 3.93185 0
M  V30 1872 H 184.111 -0.657625 4.91823 0
M  V30 1873 N 183.284 -1.43765 0.645699 0
M  V30 1874 C 184.7 -1.56509 0.312591 0
M  V30 1875 C 184.9 -1.6307 -1.18365 0
M  V30 1876 O 183.956 -1.58167 -1.96824 0
M  V30 1877 C 185.269 -2.82968 1.01733 0
M  V30 1878 C 186.817 -2.96701 0.996865 0
M  V30 1879 C 187.292 -4.25982 1.68236 0
M  V30 1880 N 188.783 -4.32829 1.64964 0
M  V30 1881 C 189.518 -5.31613 2.14885 0
M  V30 1882 N 189.014 -6.36718 2.73061 0
M  V30 1883 N 190.807 -5.23217 2.05428 0
M  V30 1884 H 182.958 -1.3775 1.61675 0
M  V30 1885 H 185.221 -0.661067 0.679481 0
M  V30 1886 H 184.927 -2.84156 2.0724 0
M  V30 1887 H 184.801 -3.72957 0.564177 0
M  V30 1888 H 187.188 -2.95058 -0.0497719 0
M  V30 1889 H 187.269 -2.08022 1.48865 0
M  V30 1890 H 186.913 -4.28386 2.72852 0
M  V30 1891 H 186.843 -5.13545 1.16529 0
M  V30 1892 H 189.334 -3.57493 1.22503 0
M  V30 1893 H 189.647 -7.08401 3.08848 0
M  V30 1894 H 187.992 -6.37362 2.77118 0
M  V30 1895 H 191.183 -4.40019 1.59689 0
M  V30 1896 H 191.356 -6.00045 2.44643 0
M  V30 1897 N 184.763 -0.387143 -1.52771 0
M  V30 1898 C 185.726 0.436939 -2.24997 0
M  V30 1899 C 186.726 0.991991 -1.26555 0
M  V30 1900 O 187.916 0.874335 -1.50669 0
M  V30 1901 C 185.048 1.61281 -3.00335 0
M  V30 1902 H 186.241 -0.195365 -2.99263 0
M  V30 1903 H 183.794 -0.139218 -1.55679 0
M  V30 1904 H 184.529 2.2826 -2.30364 0
M  V30 1905 H 184.314 1.22154 -3.72587 0
M  V30 1906 H 185.804 2.19629 -3.5518 0
M  V30 1907 N 186.241 1.57166 -0.116904 0
M  V30 1908 C 187.204 2.14039 0.819742 0
M  V30 1909 C 188.204 1.07477 1.19605 0
M  V30 1910 O 189.394 1.33263 1.1219 0
M  V30 1911 C 186.526 2.67891 2.10826 0
M  V30 1912 H 187.719 2.98128 0.325511 0
M  V30 1913 H 185.272 1.55739 0.132312 0
M  V30 1914 H 186.007 1.87384 2.64685 0
M  V30 1915 H 185.792 3.45823 1.84793 0
M  V30 1916 H 187.282 3.11809 2.77785 0
M  V30 1917 N 187.719 -0.156864 1.56817 0
M  V30 1918 C 188.682 -1.17781 1.96622 0
M  V30 1919 C 189.682 -1.36401 0.851555 0
M  V30 1920 O 190.872 -1.33561 1.11836 0
M  V30 1921 C 188.004 -2.54008 2.27361 0
M  V30 1922 H 189.197 -0.836564 2.87996 0
M  V30 1923 H 186.75 -0.39985 1.51099 0
M  V30 1924 H 187.485 -2.9312 1.38748 0
M  V30 1925 H 187.27 -2.41856 3.08623 0
M  V30 1926 H 188.76 -3.27558 2.59029 0
M  V30 1927 N 189.197 -1.51736 -0.425897 0
M  V30 1928 C 190.474 -1.55519 -1.1863 0
M  V30 1929 C 190.854 -0.326219 -2.08564 0
M  V30 1930 O 190.202 0.688012 -2.17896 0
M  V30 1931 C 190.412 -2.87521 -1.9782 0
M  V30 1932 C 191.76 -3.39899 -2.54468 0
M  V30 1933 O 192.784 -2.89148 -2.08019 0
M  V30 1934 O 191.643 -4.2848 -3.39215 0
M  V30 1935 H 188.737 -0.625739 -0.540721 0
M  V30 1936 H 191.283 -1.64055 -0.434038 0
M  V30 1937 H 190.055 -3.68422 -1.31836 0
M  V30 1938 H 189.678 -2.822 -2.80088 0
M  V30 1939 N 190.675 0.682077 -1.42076 0
M  V30 1940 C 191.905 1.46844 -1.45329 0
M  V30 1941 C 192.313 1.89102 -0.0609328 0
M  V30 1942 O 191.656 1.58238 0.933082 0
M  V30 1943 C 191.718 2.75375 -2.31104 0
M  V30 1944 C 191.382 2.55238 -3.79081 0
M  V30 1945 C 192.379 2.20309 -4.70914 0
M  V30 1946 C 190.064 2.70459 -4.2327 0
M  V30 1947 C 192.058 2.00859 -6.04925 0
M  V30 1948 C 189.745 2.50624 -5.57343 0
M  V30 1949 C 190.743 2.15876 -6.47986 0
M  V30 1950 O 190.431 1.96227 -7.79583 0
M  V30 1951 H 190.163 0.4586 -0.496651 0
M  V30 1952 H 192.717 0.846131 -1.87162 0
M  V30 1953 H 190.947 3.40061 -1.84107 0
M  V30 1954 H 192.636 3.37231 -2.25898 0
M  V30 1955 H 193.402 2.08153 -4.38061 0
M  V30 1956 H 189.281 2.96485 -3.53012 0
M  V30 1957 H 192.825 1.7366 -6.75639 0
M  V30 1958 H 188.722 2.62375 -5.89771 0
M  V30 1959 H 189.49 2.10883 -7.90867 0
M  V30 1960 N 192.153 1.28127 0.917671 0
M  V30 1961 C 193.399 1.15223 1.66888 0
M  V30 1962 C 193.732 -0.299293 1.9188 0
M  V30 1963 O 193.007 -1.21805 1.51637 0
M  V30 1964 C 193.29 1.94706 3.02922 0
M  V30 1965 C 193.143 3.47898 2.85109 0
M  V30 1966 C 194.462 1.75939 4.03402 0
M  V30 1967 H 191.581 0.419946 0.605652 0
M  V30 1968 H 194.223 1.57398 1.06423 0
M  V30 1969 H 192.373 1.58864 3.54534 0
M  V30 1970 H 194.045 3.93624 2.40537 0
M  V30 1971 H 192.288 3.7373 2.20246 0
M  V30 1972 H 192.959 3.98765 3.81694 0
M  V30 1973 H 195.435 2.07209 3.60837 0
M  V30 1974 H 194.311 2.33931 4.96556 0
M  V30 1975 H 194.572 0.709877 4.36364 0
M  V30 1976 N 193.631 -1.12557 1.10312 0
M  V30 1977 C 194.877 -1.84311 0.846011 0
M  V30 1978 C 195.21 -1.83805 -0.626859 0
M  V30 1979 O 194.485 -1.28268 -1.46211 0
M  V30 1980 C 194.768 -3.32048 1.39341 0
M  V30 1981 C 194.621 -3.41016 2.93305 0
M  V30 1982 C 195.94 -4.27764 1.03468 0
M  V30 1983 H 193.059 -0.669192 0.30879 0
M  V30 1984 H 195.701 -1.32057 1.36605 0
M  V30 1985 H 193.851 -3.76678 0.951087 0
M  V30 1986 H 195.523 -3.05031 3.46055 0
M  V30 1987 H 193.766 -2.81603 3.29973 0
M  V30 1988 H 194.437 -4.44948 3.26689 0
M  V30 1989 H 196.913 -3.91253 1.41633 0
M  V30 1990 H 195.789 -5.29549 1.44463 0
M  V30 1991 H 196.05 -4.42064 -0.0560404 0
M  V30 1992 N 195.109 -0.891671 -1.2995 0
M  V30 1993 C 196.056 -0.361736 -2.27948 0
M  V30 1994 C 197.026 0.551761 -1.56668 0
M  V30 1995 O 198.211 0.478736 -1.84696 0
M  V30 1996 C 195.351 0.411825 -3.42634 0
M  V30 1997 C 194.464 -0.531651 -4.28716 0
M  V30 1998 C 193.599 0.258167 -5.30572 0
M  V30 1999 C 192.638 -0.680349 -6.08307 0
M  V30 2000 N 191.775 0.0745613 -7.0206 0
M  V30 2001 H 196.615 -1.20254 -2.72659 0
M  V30 2002 H 194.152 -0.604352 -1.34112 0
M  V30 2003 H 196.11 0.876304 -4.07893 0
M  V30 2004 H 194.74 1.21715 -2.98974 0
M  V30 2005 H 193.792 -1.11463 -3.63703 0
M  V30 2006 H 195.104 -1.25038 -4.82874 0
M  V30 2007 H 194.258 0.784204 -6.0161 0
M  V30 2008 H 192.997 1.01008 -4.77126 0
M  V30 2009 H 192.002 -1.21796 -5.3614 0
M  V30 2010 H 193.227 -1.43145 -6.63842 0
M  V30 2011 H 191.173 0.808883 -6.50994 0
M  V30 2012 H 191.09 -0.584409 -7.53738 0
M  V30 2013 H 192.358 0.581123 -7.77331 0
M  V30 2014 N 196.587 1.43421 -0.653314 0
M  V30 2015 C 197.836 2.01032 -0.164076 0
M  V30 2016 C 198.149 1.52147 1.22926 0
M  V30 2017 O 199.355 2.02031 1.81371 0
M  V30 2018 C 197.811 3.59082 -0.24252 0
M  V30 2019 C 197.419 4.1696 -1.63855 0
M  V30 2020 C 199.163 4.24079 0.18911 0
M  V30 2021 C 197.07 5.67304 -1.67092 0
M  V30 2022 H 196 0.751798 -0.0575769 0
M  V30 2023 H 198.651 1.6439 -0.815362 0
M  V30 2024 H 197.033 3.93125 0.476276 0
M  V30 2025 H 198.207 3.94416 -2.38271 0
M  V30 2026 H 196.522 3.64335 -2.01616 0
M  V30 2027 H 199.119 5.34381 0.184775 0
M  V30 2028 H 199.462 3.98005 1.22056 0
M  V30 2029 H 199.995 3.94918 -0.477938 0
M  V30 2030 H 196.734 5.98145 -2.68146 0
M  V30 2031 H 196.254 5.91904 -0.970014 0
M  V30 2032 H 197.933 6.31344 -1.4147 0
M  V30 2033 N 198.065 0.39524 1.52563 0
M  V30 2034 C 199.476 -0.0774719 1.86539 0
M  V30 2035 C 199.827 -1.45641 1.31466 0
M  V30 2036 O 198.952 -2.06459 0.648367 0
M  V30 2037 C 199.547 -0.147356 3.38479 0
M  V30 2038 C 198.106 -0.564373 3.72145 0
M  V30 2039 C 197.253 0.269919 2.75983 0
M  V30 2040 H 200.204 0.612876 1.46388 0
M  V30 2041 H 200.225 -0.965343 3.68051 0
M  V30 2042 H 199.737 0.856387 3.78534 0
M  V30 2043 H 197.838 -1.57527 3.37663 0
M  V30 2044 H 197.951 -0.318402 4.78041 0
M  V30 2045 H 196.315 -0.265696 2.5331 0
M  V30 2046 H 197.098 1.27175 3.18875 0
M  V30 2047 N 199.544 -1.57102 0.125237 0
M  V30 2048 C 200.821 -1.86953 -0.575142 0
M  V30 2049 C 201.201 -1.02749 -1.84407 0
M  V30 2050 O 200.549 -0.108144 -2.28244 0
M  V30 2051 C 200.759 -3.38198 -0.861583 0
M  V30 2052 C 202.107 -4.06937 -1.21192 0
M  V30 2053 O 203.131 -3.43252 -0.951645 0
M  V30 2054 O 201.99 -5.19364 -1.70068 0
M  V30 2055 H 199.084 -0.774147 -0.290906 0
M  V30 2056 H 201.63 -1.68942 0.160211 0
M  V30 2057 H 200.402 -3.91282 0.0373647 0
M  V30 2058 H 200.025 -3.61661 -1.65188 0
M  V30 2059 N 201.022 0.148545 -1.56898 0
M  V30 2060 C 201.97 1.20265 -1.99096 0
M  V30 2061 C 202.964 1.44559 -0.883123 0
M  V30 2062 O 204.17 1.4487 -1.0683 0
M  V30 2063 H 200.545 0.404786 -0.63376 0
M  V30 2064 H 202.516 0.82004 -2.86911 0
M  V30 2065 C 201.265 2.52886 -2.3863 0
M  V30 2066 H 200.588 2.35021 -3.23427 0
M  V30 2067 H 202.028 3.25274 -2.7198 0
M  V30 2068 C 200.487 3.13315 -1.23837 0
M  V30 2069 O 201.017 3.98077 -0.538268 0
M  V30 2070 N 199.223 2.72742 -1.00301 0
M  V30 2071 H 198.77 2.03912 -1.5741 0
M  V30 2072 H 198.728 3.13507 -0.236838 0
M  V30 2073 N 202.5 1.5196 0.417844 0
M  V30 2074 C 203.43 1.77634 1.51554 0
M  V30 2075 C 204.411 0.626918 1.58126 0
M  V30 2076 O 205.596 0.871632 1.7354 0
M  V30 2077 C 202.726 1.91911 2.8946 0
M  V30 2078 C 201.68 3.07463 2.97743 0
M  V30 2079 C 201.006 3.06951 4.37819 0
M  V30 2080 C 202.306 4.47082 2.70027 0
M  V30 2081 H 204 2.6955 1.3032 0
M  V30 2082 H 201.546 1.29706 0.625492 0
M  V30 2083 H 203.499 2.08455 3.6623 0
M  V30 2084 H 202.223 0.966598 3.11969 0
M  V30 2085 H 200.882 2.90656 2.23416 0
M  V30 2086 H 200.53 2.09438 4.57323 0
M  V30 2087 H 200.23 3.84556 4.44286 0
M  V30 2088 H 201.754 3.25613 5.16535 0
M  V30 2089 H 203.168 4.6414 3.36522 0
M  V30 2090 H 201.565 5.2654 2.87881 0
M  V30 2091 H 202.635 4.55777 1.65514 0
M  V30 2092 N 203.978 -0.674533 1.42435 0
M  V30 2093 C 205.203 -1.46784 1.46524 0
M  V30 2094 C 205.628 -1.87938 0.078066 0
M  V30 2095 O 204.986 -1.56014 -0.92354 0
M  V30 2096 C 205.034 -2.69307 2.39805 0
M  V30 2097 O 204.138 -3.67587 1.86959 0
M  V30 2098 H 203.479 -0.440959 0.496439 0
M  V30 2099 H 206.009 -0.827326 1.87127 0
M  V30 2100 H 206.019 -3.17374 2.56393 0
M  V30 2101 H 204.694 -2.38692 3.40586 0
M  V30 2102 H 203.271 -3.2662 1.79927 0
M  V30 2103 N 205.456 -1.28612 -0.910864 0
M  V30 2104 C 206.703 -1.15934 -1.66029 0
M  V30 2105 C 207.031 0.291483 -1.92303 0
M  V30 2106 O 206.286 1.22816 -1.52364 0
M  V30 2107 C 206.585 -1.90624 -3.0232 0
M  V30 2108 C 206.251 -3.40405 -2.95695 0
M  V30 2109 C 204.913 -3.81255 -2.93595 0
M  V30 2110 C 207.265 -4.359 -2.85728 0
M  V30 2111 C 204.593 -5.15936 -2.79334 0
M  V30 2112 C 206.945 -5.70657 -2.73007 0
M  V30 2113 C 205.609 -6.10779 -2.69267 0
M  V30 2114 H 204.879 -0.424234 -0.607541 0
M  V30 2115 H 207.526 -1.5942 -1.06101 0
M  V30 2116 H 205.831 -1.39696 -3.6605 0
M  V30 2117 H 207.528 -1.78228 -3.59215 0
M  V30 2118 H 204.118 -3.07927 -2.98125 0
M  V30 2119 H 208.302 -4.053 -2.86436 0
M  V30 2120 H 203.558 -5.46146 -2.74835 0
M  V30 2121 H 207.732 -6.44311 -2.64264 0
M  V30 2122 H 205.359 -7.1509 -2.57974 0
M  V30 2123 N 206.934 1.1197 -1.10907 0
M  V30 2124 C 207.844 2.21433 -0.774896 0
M  V30 2125 C 208.86 1.72478 0.229657 0
M  V30 2126 O 210.036 2.01288 0.0672008 0
M  V30 2127 C 207.101 3.4602 -0.216986 0
M  V30 2128 C 206.162 4.09791 -1.27944 0
M  V30 2129 C 205.395 5.28431 -0.748055 0
M  V30 2130 O 205.618 5.68823 0.423833 0
M  V30 2131 O 204.552 5.82644 -1.51027 0
M  V30 2132 H 208.378 2.5242 -1.68873 0
M  V30 2133 H 205.963 1.20399 -0.884555 0
M  V30 2134 H 207.845 4.21304 0.090059 0
M  V30 2135 H 206.52 3.16698 0.669633 0
M  V30 2136 H 205.427 3.36265 -1.63941 0
M  V30 2137 H 206.76 4.4328 -2.13925 0
M  V30 2138 N 208.412 0.89855 1.29475 0
M  V30 2139 C 209.322 0.379974 2.31502 0
M  V30 2140 C 210.338 -0.524695 1.659 0
M  V30 2141 O 211.514 -0.414551 1.97087 0
M  V30 2142 C 208.579 -0.385138 3.44554 0
M  V30 2143 C 207.64 0.550914 4.2575 0
M  V30 2144 C 206.873 -0.177778 5.33404 0
M  V30 2145 O 207.096 -1.40189 5.52904 0
M  V30 2146 O 206.03 0.479106 5.9999 0
M  V30 2147 H 209.856 1.22639 2.77837 0
M  V30 2148 H 207.441 0.662834 1.33891 0
M  V30 2149 H 209.323 -0.817841 4.13388 0
M  V30 2150 H 207.998 -1.20763 3.0033 0
M  V30 2151 H 206.905 1.03271 3.59564 0
M  V30 2152 H 208.238 1.33979 4.73614 0
M  V30 2153 N 209.89 -1.43072 0.660911 0
M  V30 2154 C 210.853 -2.29194 -0.0166406 0
M  V30 2155 C 211.853 -1.42609 -0.742912 0
M  V30 2156 O 213.043 -1.64155 -0.583004 0
M  V30 2157 C 210.175 -3.24831 -1.0343 0
M  V30 2158 H 211.368 -2.90596 0.741208 0
M  V30 2159 H 208.921 -1.5048 0.422532 0
M  V30 2160 H 209.656 -2.68339 -1.82111 0
M  V30 2161 H 209.441 -3.88676 -0.517082 0
M  V30 2162 H 210.931 -3.89451 -1.50723 0
M  V30 2163 N 211.368 -0.403325 -1.52352 0
M  V30 2164 C 212.331 0.413051 -2.25447 0
M  V30 2165 C 213.331 0.978513 -1.276 0
M  V30 2166 O 214.521 0.858305 -1.51587 0
M  V30 2167 C 211.653 1.58087 -3.02029 0
M  V30 2168 H 212.846 -0.227094 -2.99039 0
M  V30 2169 H 210.399 -0.155722 -1.55522 0
M  V30 2170 H 211.134 2.25804 -2.32772 0
M  V30 2171 H 210.919 1.18195 -3.73861 0
M  V30 2172 H 212.409 2.1585 -3.57489 0
M  V30 2173 N 212.846 1.57033 -0.133567 0
M  V30 2174 C 214.257 1.82593 0.389464 0
M  V30 2175 C 214.608 1.05156 1.6564 0
M  V30 2176 O 213.733 0.292644 2.14412 0
M  V30 2177 C 214.328 3.31204 0.713377 0
M  V30 2178 C 212.887 3.57393 1.18098 0
M  V30 2179 C 212.034 2.76598 0.197126 0
M  V30 2180 H 214.985 1.54598 -0.358481 0
M  V30 2181 H 215.006 3.46627 1.56939 0
M  V30 2182 H 214.518 3.87537 -0.2089 0
M  V30 2183 H 212.619 3.06433 2.11966 0
M  V30 2184 H 212.732 4.65915 1.11624 0
M  V30 2185 H 211.096 2.45257 0.687088 0
M  V30 2186 H 211.879 3.35697 -0.718504 0
M  V30 2187 N 214.325 -0.140222 1.56975 0
M  V30 2188 C 215.574 -0.850152 1.82908 0
M  V30 2189 C 215.887 -1.82028 0.715892 0
M  V30 2190 O 217.093 -2.57485 0.861016 0
M  V30 2191 C 215.549 -1.5625 3.24213 0
M  V30 2192 C 215.157 -0.63443 4.43485 0
M  V30 2193 C 216.901 -2.25881 3.59413 0
M  V30 2194 C 214.808 -1.34879 5.75814 0
M  V30 2195 H 213.738 -0.321221 0.682153 0
M  V30 2196 H 216.389 -0.102874 1.83211 0
M  V30 2197 H 214.771 -2.35565 3.18316 0
M  V30 2198 H 215.945 0.12398 4.60633 0
M  V30 2199 H 214.26 -0.0461836 4.16374 0
M  V30 2200 H 216.857 -2.79978 4.5554 0
M  V30 2201 H 217.2 -3.02693 2.85802 0
M  V30 2202 H 217.733 -1.53477 3.67001 0
M  V30 2203 H 214.472 -0.622385 6.52539 0
M  V30 2204 H 213.992 -2.07974 5.6259 0
M  V30 2205 H 215.671 -1.88784 6.18845 0
M  V30 2206 N 215.803 -1.52179 -0.40978 0
M  V30 2207 C 217.05 -1.66206 -1.15679 0
M  V30 2208 C 217.378 -0.391674 -1.90516 0
M  V30 2209 O 216.633 0.62533 -1.8544 0
M  V30 2210 C 216.932 -2.83428 -2.17723 0
M  V30 2211 C 216.598 -4.21672 -1.59699 0
M  V30 2212 C 215.26 -4.59274 -1.43599 0
M  V30 2213 C 217.612 -5.07825 -1.17317 0
M  V30 2214 C 214.94 -5.80709 -0.836328 0
M  V30 2215 C 217.292 -6.29864 -0.587691 0
M  V30 2216 C 215.956 -6.66216 -0.413818 0
M  V30 2217 H 215.226 -0.608192 -0.423301 0
M  V30 2218 H 217.873 -1.86279 -0.444097 0
M  V30 2219 H 216.178 -2.57687 -2.95135 0
M  V30 2220 H 217.875 -2.91477 -2.75394 0
M  V30 2221 H 214.465 -3.9204 -1.73213 0
M  V30 2222 H 218.649 -4.79359 -1.28565 0
M  V30 2223 H 213.905 -6.07498 -0.689626 0
M  V30 2224 H 218.079 -6.95948 -0.250894 0
M  V30 2225 H 215.706 -7.60182 0.0529471 0
M  V30 2226 N 217.281 0.66697 -1.42791 0
M  V30 2227 C 218.521 1.43892 -1.4517 0
M  V30 2228 C 218.885 1.91877 -0.0687551 0
M  V30 2229 O 220.086 2.6878 0.0327455 0
M  V30 2230 C 218.357 2.59839 -2.45395 0
M  V30 2231 S 219.916 3.48572 -2.66539 0
M  V30 2232 H 216.734 0.491356 -0.513897 0
M  V30 2233 H 219.336 0.775656 -1.79454 0
M  V30 2234 H 218.04 2.22838 -3.44632 0
M  V30 2235 H 217.571 3.3103 -2.12562 0
M  V30 2236 H 219.586 4.56094 -1.95429 0
M  V30 2237 N 218.759 1.29093 0.90403 0
M  V30 2238 C 219.722 1.1386 1.98919 0
M  V30 2239 C 220.722 0.0753457 1.60623 0
M  V30 2240 O 221.912 0.321931 1.71199 0
M  V30 2241 C 219.044 0.740198 3.32767 0
M  V30 2242 H 220.237 2.10246 2.13861 0
M  V30 2243 H 217.79 1.12218 1.08797 0
M  V30 2244 H 218.525 -0.223997 3.23525 0
M  V30 2245 H 218.31 1.50838 3.61926 0
M  V30 2246 H 219.8 0.656546 4.12407 0
M  V30 2247 N 220.237 -1.11381 1.11499 0
M  V30 2248 C 221.485 -1.8277 0.862524 0
M  V30 2249 C 221.806 -1.85097 -0.613534 0
M  V30 2250 O 221.076 -1.32198 -1.4457 0
M  V30 2251 H 219.656 -0.676823 0.316101 0
M  V30 2252 H 222.318 -1.34816 1.4075 0
M  V30 2253 H 221.414 -2.86614 1.23527 0
M  V30 2254 N 221.715 -0.905404 -1.28997 0
M  V30 2255 C 222.961 -0.535039 -1.95615 0
M  V30 2256 C 223.294 0.917404 -1.71165 0
M  V30 2257 O 222.569 1.65123 -1.02785 0
M  V30 2258 C 222.852 -0.834918 -3.50287 0
M  V30 2259 C 222.705 -2.33948 -3.84172 0
M  V30 2260 C 224.024 -0.325318 -4.38896 0
M  V30 2261 H 221.143 -0.195861 -0.710498 0
M  V30 2262 H 223.785 -1.13313 -1.52513 0
M  V30 2263 H 221.935 -0.325904 -3.87131 0
M  V30 2264 H 223.607 -2.91847 -3.57243 0
M  V30 2265 H 221.85 -2.79789 -3.31513 0
M  V30 2266 H 222.521 -2.49987 -4.92149 0
M  V30 2267 H 224.997 -0.761256 -4.09077 0
M  V30 2268 H 223.873 -0.564295 -5.45992 0
M  V30 2269 H 224.134 0.774144 -4.35269 0
M  V30 2270 N 223.193 1.4272 -0.668489 0
M  V30 2271 C 224.421 2.05966 -0.196348 0
M  V30 2272 C 224.836 1.50191 1.14403 0
M  V30 2273 O 224.193 0.639208 1.7094 0
M  V30 2274 C 224.244 3.61314 -0.115815 0
M  V30 2275 O 223.965 4.1502 -1.40322 0
M  V30 2276 C 225.466 4.41663 0.380579 0
M  V30 2277 H 222.686 0.663954 -0.0969829 0
M  V30 2278 H 225.23 1.82966 -0.913446 0
M  V30 2279 H 223.385 3.83448 0.551931 0
M  V30 2280 H 223.799 5.08832 -1.27243 0
M  V30 2281 H 225.273 5.5065 0.385848 0
M  V30 2282 H 225.75 4.15792 1.41471 0
M  V30 2283 H 226.356 4.24534 -0.255209 0
M  V30 2284 N 224.671 0.411399 1.52136 0
M  V30 2285 C 225.899 -0.163076 2.06256 0
M  V30 2286 C 226.314 -1.3867 1.28125 0
M  V30 2287 O 225.671 -1.79423 0.333721 0
M  V30 2288 C 225.722 -0.511252 3.57867 0
M  V30 2289 O 225.443 0.66378 4.33042 0
M  V30 2290 C 226.944 -1.13921 4.28412 0
M  V30 2291 H 224.164 -0.0193897 0.67072 0
M  V30 2292 H 226.708 0.583007 1.96013 0
M  V30 2293 H 224.863 -1.20723 3.6811 0
M  V30 2294 H 225.277 0.372601 5.23175 0
M  V30 2295 H 226.751 -1.33302 5.35663 0
M  V30 2296 H 227.228 -2.11296 3.85033 0
M  V30 2297 H 227.834 -0.483373 4.22544 0
M  V30 2298 N 226.149 -1.5696 0.141893 0
M  V30 2299 C 227.379 -2.00031 -0.516828 0
M  V30 2300 C 227.787 -1.02091 -1.59293 0
M  V30 2301 O 227.13 -0.00909657 -1.83698 0
M  V30 2302 C 227.192 -3.39534 -1.1814 0
M  V30 2303 C 226.856 -4.56313 -0.250513 0
M  V30 2304 C 227.853 -5.17295 0.519839 0
M  V30 2305 C 225.538 -5.02061 -0.154907 0
M  V30 2306 C 227.532 -6.2243 1.3733 0
M  V30 2307 C 225.219 -6.07053 0.702161 0
M  V30 2308 C 226.217 -6.67106 1.46487 0
M  V30 2309 O 225.905 -7.70066 2.30767 0
M  V30 2310 H 225.637 -0.661451 -0.139493 0
M  V30 2311 H 228.191 -2.04086 0.231926 0
M  V30 2312 H 226.421 -3.32302 -1.97769 0
M  V30 2313 H 228.11 -3.66745 -1.73933 0
M  V30 2314 H 228.876 -4.82852 0.45598 0
M  V30 2315 H 224.755 -4.5505 -0.7383 0
M  V30 2316 H 228.299 -6.69233 1.96909 0
M  V30 2317 H 224.196 -6.40923 0.76733 0
M  V30 2318 H 224.964 -7.87264 2.23959 0
M  V30 2319 N 227.627 0.131896 -1.57047 0
M  V30 2320 C 228.574 1.16236 -1.99393 0
M  V30 2321 C 229.544 1.41863 -0.863943 0
M  V30 2322 O 230.729 1.53946 -1.12718 0
M  V30 2323 C 227.869 2.48708 -2.39245 0
M  V30 2324 C 226.982 2.30127 -3.65603 0
M  V30 2325 C 226.117 3.55738 -3.94492 0
M  V30 2326 C 225.156 3.32259 -5.14073 0
M  V30 2327 N 224.293 4.50039 -5.38896 0
M  V30 2328 H 229.133 0.794251 -2.87221 0
M  V30 2329 H 226.67 0.380707 -1.42088 0
M  V30 2330 H 228.628 3.25969 -2.60384 0
M  V30 2331 H 227.258 2.83437 -1.54478 0
M  V30 2332 H 226.31 1.43845 -3.52154 0
M  V30 2333 H 227.622 2.08746 -4.5302 0
M  V30 2334 H 226.776 4.41423 -4.1621 0
M  V30 2335 H 225.515 3.80138 -3.05526 0
M  V30 2336 H 224.52 2.44963 -4.92212 0
M  V30 2337 H 225.745 3.09242 -6.04604 0
M  V30 2338 H 223.691 4.74584 -4.52886 0
M  V30 2339 H 223.608 4.31716 -6.2061 0
M  V30 2340 H 224.876 5.36895 -5.65123 0
M  V30 2341 N 229.106 1.52395 0.401703 0
M  V30 2342 C 230.069 1.75636 1.47257 0
M  V30 2343 C 231.069 0.62628 1.48103 0
M  V30 2344 O 232.259 0.894227 1.49497 0
M  V30 2345 C 229.391 1.84553 2.86624 0
M  V30 2346 H 230.584 2.71241 1.27938 0
M  V30 2347 H 228.137 1.42923 0.632662 0
M  V30 2348 H 228.872 0.908882 3.11303 0
M  V30 2349 H 228.657 2.66715 2.87412 0
M  V30 2350 H 230.147 2.04251 3.64241 0
M  V30 2351 N 230.584 -0.659388 1.43143 0
M  V30 2352 C 231.514 -1.78422 1.50625 0
M  V30 2353 C 232.495 -1.66216 0.361443 0
M  V30 2354 O 233.68 -1.85404 0.577834 0
M  V30 2355 C 230.81 -3.16815 1.42287 0
M  V30 2356 C 229.764 -3.43777 2.54954 0
M  V30 2357 C 229.09 -4.81905 2.31671 0
M  V30 2358 C 230.39 -3.39134 3.97222 0
M  V30 2359 H 232.084 -1.72417 2.44771 0
M  V30 2360 H 229.63 -0.828084 1.17808 0
M  V30 2361 H 231.583 -3.95253 1.46127 0
M  V30 2362 H 230.307 -3.23534 0.446435 0
M  V30 2363 H 228.966 -2.67707 2.50457 0
M  V30 2364 H 228.614 -4.85294 1.32284 0
M  V30 2365 H 228.314 -5.00906 3.07192 0
M  V30 2366 H 229.838 -5.62609 2.37284 0
M  V30 2367 H 231.252 -4.07518 4.03239 0
M  V30 2368 H 229.649 -3.69671 4.72719 0
M  V30 2369 H 230.719 -2.37426 4.22797 0
M  V30 2370 N 232.062 -1.29571 -0.897171 0
M  V30 2371 C 233.009 -1.14916 -2.00158 0
M  V30 2372 C 233.979 -0.0418149 -1.66047 0
M  V30 2373 O 235.164 -0.209793 -1.89643 0
M  V30 2374 C 232.304 -0.834307 -3.34863 0
M  V30 2375 C 231.417 -2.02234 -3.8174 0
M  V30 2376 C 230.552 -1.64664 -5.05034 0
M  V30 2377 C 229.591 -2.80033 -5.44286 0
M  V30 2378 N 228.728 -2.42843 -6.58765 0
M  V30 2379 H 233.568 -2.09403 -2.12025 0
M  V30 2380 H 231.105 -1.042 -1.0383 0
M  V30 2381 H 233.063 -0.632436 -4.12379 0
M  V30 2382 H 231.693 0.0736656 -3.22716 0
M  V30 2383 H 230.745 -2.33583 -3.00238 0
M  V30 2384 H 232.057 -2.88673 -4.06779 0
M  V30 2385 H 231.211 -1.4078 -5.9014 0
M  V30 2386 H 229.95 -0.753766 -4.8184 0
M  V30 2387 H 228.955 -3.04596 -4.57713 0
M  V30 2388 H 230.18 -3.69989 -5.6946 0
M  V30 2389 H 228.126 -1.56046 -6.3717 0
M  V30 2390 H 228.043 -3.22815 -6.83613 0
M  V30 2391 H 229.311 -2.22285 -7.47134 0
M  V30 2392 N 233.54 1.10788 -1.12088 0
M  V30 2393 C 234.786 1.82942 -0.875226 0
M  V30 2394 C 235.119 1.84779 0.597538 0
M  V30 2395 O 234.394 1.30578 1.44152 0
M  V30 2396 C 234.677 3.29789 -1.44606 0
M  V30 2397 C 234.53 3.36307 -2.98693 0
M  V30 2398 C 235.849 4.26064 -1.10261 0
M  V30 2399 H 232.968 0.664195 -0.319397 0
M  V30 2400 H 235.61 1.29867 -1.38689 0
M  V30 2401 H 233.76 3.75118 -1.01089 0
M  V30 2402 H 235.432 2.99487 -3.50864 0
M  V30 2403 H 233.675 2.76318 -3.34411 0
M  V30 2404 H 234.346 4.39694 -3.33726 0
M  V30 2405 H 236.822 3.88951 -1.4784 0
M  V30 2406 H 235.698 5.27183 -1.52869 0
M  V30 2407 H 235.959 4.42098 -0.0142953 0
M  V30 2408 N 235.018 0.912232 1.28515 0
M  V30 2409 C 236.246 0.560416 1.99166 0
M  V30 2410 C 236.661 -0.857927 1.68182 0
M  V30 2411 O 236.018 -1.56805 0.933733 0
M  V30 2412 C 236.069 0.758142 3.53461 0
M  V30 2413 O 235.79 2.12067 3.83352 0
M  V30 2414 C 237.291 0.412954 4.41372 0
M  V30 2415 H 234.511 0.213805 0.636026 0
M  V30 2416 H 237.055 1.22502 1.63749 0
M  V30 2417 H 235.21 0.140556 3.87145 0
M  V30 2418 H 235.624 2.15923 4.77993 0
M  V30 2419 H 237.098 0.60208 5.48707 0
M  V30 2420 H 237.575 -0.65073 4.34353 0
M  V30 2421 H 238.181 1.00802 4.13182 0
M  V30 2422 N 236.496 -1.42363 0.676048 0
M  V30 2423 C 237.744 -2.01123 0.198437 0
M  V30 2424 C 238.065 -1.53731 -1.19966 0
M  V30 2425 O 237.335 -0.759518 -1.80577 0
M  V30 2426 H 235.915 -0.743678 0.0703721 0
M  V30 2427 H 238.577 -1.74263 0.872837 0
M  V30 2428 H 237.673 -3.11454 0.200686 0
M  V30 2429 N 237.974 -0.419461 -1.51915 0
M  V30 2430 C 238.937 0.389116 -2.25873 0
M  V30 2431 C 239.937 0.964924 -1.28631 0
M  V30 2432 O 241.127 0.842179 -1.52489 0
M  V30 2433 C 238.259 1.54874 -3.03689 0
M  V30 2434 H 239.452 -0.258799 -2.98781 0
M  V30 2435 H 237.005 -0.172209 -1.55348 0
M  V30 2436 H 237.74 2.23323 -2.35154 0
M  V30 2437 H 237.525 1.14223 -3.75094 0
M  V30 2438 H 239.015 2.12046 -3.59759 0
M  V30 2439 N 239.452 1.56882 -0.150215 0
M  V30 2440 C 240.399 2.16922 0.788244 0
M  V30 2441 C 241.369 1.10303 1.24187 0
M  V30 2442 O 242.554 1.38359 1.31383 0
M  V30 2443 C 239.694 2.79754 2.02068 0
M  V30 2444 C 238.807 4.00775 1.61257 0
M  V30 2445 C 237.942 4.51595 2.79705 0
M  V30 2446 C 236.981 5.65074 2.35282 0
M  V30 2447 N 236.118 6.10499 3.4675 0
M  V30 2448 H 240.958 2.96779 0.269444 0
M  V30 2449 H 238.495 1.46599 0.12128 0
M  V30 2450 H 240.453 3.14329 2.74323 0
M  V30 2451 H 239.083 2.02536 2.51354 0
M  V30 2452 H 238.135 3.72158 0.787553 0
M  V30 2453 H 239.447 4.82978 1.24633 0
M  V30 2454 H 238.601 4.88242 3.60145 0
M  V30 2455 H 237.34 3.68406 3.19576 0
M  V30 2456 H 236.345 5.28 1.53283 0
M  V30 2457 H 237.57 6.50052 1.96493 0
M  V30 2458 H 235.516 5.30243 3.86236 0
M  V30 2459 H 235.433 6.87637 3.14152 0
M  V30 2460 H 236.701 6.51791 4.27537 0
M  V30 2461 N 240.93 -0.123565 1.57115 0
M  V30 2462 C 242.341 -0.681198 1.73829 0
M  V30 2463 C 242.692 -1.80535 0.768214 0
M  V30 2464 O 241.817 -2.16317 -0.0599103 0
M  V30 2465 C 242.412 -1.24246 3.15196 0
M  V30 2466 C 240.971 -1.74643 3.33432 0
M  V30 2467 C 240.118 -0.644284 2.69711 0
M  V30 2468 H 243.069 0.102315 1.5837 0
M  V30 2469 H 243.09 -2.11216 3.16493 0
M  V30 2470 H 242.602 -0.424062 3.85776 0
M  V30 2471 H 240.703 -2.58974 2.67886 0
M  V30 2472 H 240.816 -1.85902 4.41562 0
M  V30 2473 H 239.18 -1.07676 2.3082 0
M  V30 2474 H 239.963 0.163058 3.42913 0
M  V30 2475 N 242.408 -1.52605 -0.393616 0
M  V30 2476 C 243.656 -1.67093 -1.13685 0
M  V30 2477 C 243.977 -0.411011 -1.90619 0
M  V30 2478 O 243.247 0.574491 -1.87287 0
M  V30 2479 H 241.827 -0.615923 -0.422668 0
M  V30 2480 H 244.489 -1.89704 -0.447039 0
M  V30 2481 H 243.585 -2.51922 -1.84232 0
M  V30 2482 N 243.887 0.651787 -1.4349 0
M  V30 2483 C 244.797 1.79368 -1.5121 0
M  V30 2484 C 245.813 1.69361 -0.399093 0
M  V30 2485 O 246.989 1.90505 -0.653431 0
M  V30 2486 C 244.054 3.15653 -1.43401 0
M  V30 2487 C 243.115 3.37446 -2.65384 0
M  V30 2488 C 242.348 4.67229 -2.57939 0
M  V30 2489 O 242.571 5.46676 -1.62792 0
M  V30 2490 O 241.505 4.90773 -3.48462 0
M  V30 2491 H 245.331 1.7581 -2.47638 0
M  V30 2492 H 242.916 0.810447 -1.25507 0
M  V30 2493 H 244.798 3.96935 -1.41494 0
M  V30 2494 H 243.473 3.19798 -0.501085 0
M  V30 2495 H 242.38 2.55923 -2.72863 0
M  V30 2496 H 243.713 3.38148 -3.57654 0
M  V30 2497 N 245.365 1.30045 0.890287 0
M  V30 2498 C 246.611 1.19747 1.64415 0
M  V30 2499 C 246.966 -0.246591 1.90813 0
M  V30 2500 O 246.259 -1.174 1.51419 0
M  V30 2501 C 246.453 1.95409 2.99249 0
M  V30 2502 C 246.282 3.47025 2.86013 0
M  V30 2503 C 245.052 4.1638 2.86279 0
M  V30 2504 C 247.25 4.42353 2.62351 0
M  V30 2505 N 245.232 5.54293 2.63879 0
M  V30 2506 C 246.603 5.67792 2.49022 0
M  V30 2507 C 248.658 4.32009 2.47533 0
M  V30 2508 C 247.361 6.8406 2.22383 0
M  V30 2509 C 249.387 5.48038 2.22279 0
M  V30 2510 C 248.749 6.72455 2.09722 0
M  V30 2511 H 244.848 0.493223 0.60684 0
M  V30 2512 H 247.432 1.6399 1.04954 0
M  V30 2513 H 245.603 1.53565 3.56752 0
M  V30 2514 H 247.335 1.77298 3.63796 0
M  V30 2515 H 244.09 3.68164 2.97913 0
M  V30 2516 H 244.514 6.26852 2.55706 0
M  V30 2517 H 249.156 3.36503 2.55979 0
M  V30 2518 H 246.874 7.79612 2.12675 0
M  V30 2519 H 250.46 5.41939 2.11643 0
M  V30 2520 H 249.34 7.60722 1.90453 0
M  V30 2521 N 246.843 -1.10192 1.12674 0
M  V30 2522 C 248.089 -1.82475 0.884915 0
M  V30 2523 C 248.422 -1.85093 -0.58773 0
M  V30 2524 O 247.697 -1.3134 -1.43457 0
M  V30 2525 C 247.98 -3.29018 1.46353 0
M  V30 2526 C 247.833 -3.34718 3.00473 0
M  V30 2527 C 249.152 -4.25473 1.12519 0
M  V30 2528 H 246.271 -0.662492 0.322915 0
M  V30 2529 H 248.913 -1.2913 1.39375 0
M  V30 2530 H 247.063 -3.74576 1.03077 0
M  V30 2531 H 248.735 -2.97622 3.52447 0
M  V30 2532 H 246.978 -2.74541 3.35872 0
M  V30 2533 H 247.649 -4.37918 3.36053 0
M  V30 2534 H 250.125 -3.88161 1.499 0
M  V30 2535 H 249.001 -5.26365 1.55663 0
M  V30 2536 H 249.262 -4.42084 0.0377407 0
M  V30 2537 N 248.321 -0.919034 -1.28029 0
M  V30 2538 C 249.284 -0.416182 -2.2539 0
M  V30 2539 C 250.284 0.460438 -1.54067 0
M  V30 2540 O 251.474 0.262744 -1.72207 0
M  V30 2541 C 248.606 0.402707 -3.38513 0
M  V30 2542 H 249.799 -1.27629 -2.71387 0
M  V30 2543 H 247.352 -0.698919 -1.39803 0
M  V30 2544 H 248.087 1.282 -2.97885 0
M  V30 2545 H 247.872 -0.225698 -3.9145 0
M  V30 2546 H 249.362 0.745191 -4.10897 0
M  V30 2547 N 249.799 1.42003 -0.683588 0
M  V30 2548 C 251.048 2.00638 -0.206681 0
M  V30 2549 C 251.361 1.5472 1.19671 0
M  V30 2550 O 252.567 2.05833 1.77045 0
M  V30 2551 C 251.023 3.58487 -0.318632 0
M  V30 2552 C 250.631 4.1339 -1.72663 0
M  V30 2553 C 252.375 4.24384 0.0991141 0
M  V30 2554 C 250.282 5.63633 -1.79087 0
M  V30 2555 H 249.212 0.750408 -0.0735107 0
M  V30 2556 H 251.863 1.62624 -0.850048 0
M  V30 2557 H 250.245 3.94047 0.392781 0
M  V30 2558 H 251.419 3.89273 -2.46583 0
M  V30 2559 H 249.734 3.59976 -2.09299 0
M  V30 2560 H 252.331 5.34652 0.0713833 0
M  V30 2561 H 252.674 4.00505 1.13586 0
M  V30 2562 H 253.207 3.93816 -0.561599 0
M  V30 2563 H 249.946 5.92323 -2.80774 0
M  V30 2564 H 249.466 5.89714 -1.09535 0
M  V30 2565 H 251.145 6.28201 -1.5483 0
M  V30 2566 N 251.277 0.427512 1.51691 0
M  V30 2567 C 252.507 -0.140986 2.06118 0
M  V30 2568 C 252.915 -1.37854 1.29588 0
M  V30 2569 O 252.258 -1.80411 0.346036 0
M  V30 2570 C 252.32 -0.538276 3.55447 0
M  V30 2571 C 251.984 0.591095 4.53161 0
M  V30 2572 C 252.981 1.46027 4.98971 0
M  V30 2573 C 250.666 0.769028 4.96378 0
M  V30 2574 C 252.66 2.49216 5.8666 0
M  V30 2575 C 250.347 1.80421 5.83859 0
M  V30 2576 C 251.345 2.66417 6.28897 0
M  V30 2577 O 251.033 3.68159 7.14643 0
M  V30 2578 H 250.765 -0.0157455 0.675817 0
M  V30 2579 H 253.319 0.602495 1.96365 0
M  V30 2580 H 251.549 -1.33432 3.6295 0
M  V30 2581 H 253.238 -1.0368 3.92435 0
M  V30 2582 H 254.004 1.33429 4.66285 0
M  V30 2583 H 249.883 0.109273 4.6087 0
M  V30 2584 H 253.427 3.16372 6.21735 0
M  V30 2585 H 249.324 1.93042 6.15959 0
M  V30 2586 H 250.092 3.64622 7.32798 0
M  V30 2587 N 252.755 -1.56801 0.158532 0
M  V30 2588 C 254.003 -1.96102 -0.488712 0
M  V30 2589 C 254.324 -1.04498 -1.64636 0
M  V30 2590 O 253.594 -0.108783 -1.95598 0
M  V30 2591 H 252.174 -0.724102 -0.183535 0
M  V30 2592 H 254.836 -1.93457 0.236728 0
M  V30 2593 H 253.932 -3.00097 -0.857219 0
M  V30 2594 N 254.233 0.115231 -1.57178 0
M  V30 2595 C 255.482 0.820945 -1.84237 0
M  V30 2596 C 255.795 1.80866 -0.744761 0
M  V30 2597 O 257.001 2.56083 -0.901871 0
M  V30 2598 C 255.457 1.51072 -3.26658 0
M  V30 2599 C 255.065 0.563795 -4.44438 0
M  V30 2600 C 256.809 2.20134 -3.62962 0
M  V30 2601 C 254.716 1.25701 -5.77887 0
M  V30 2602 H 253.646 0.310328 -0.687177 0
M  V30 2603 H 256.297 0.0737134 -1.83352 0
M  V30 2604 H 254.679 2.30471 -3.22024 0
M  V30 2605 H 255.853 -0.197247 -4.60378 0
M  V30 2606 H 254.168 -0.0200638 -4.16395 0
M  V30 2607 H 256.765 2.72696 -4.59936 0
M  V30 2608 H 257.108 2.98107 -2.90582 0
M  V30 2609 H 257.641 1.47619 -3.69396 0
M  V30 2610 H 254.38 0.518493 -6.53446 0
M  V30 2611 H 253.9 1.98997 -5.65827 0
M  V30 2612 H 255.579 1.78915 -6.2177 0
M  V30 2613 N 255.711 1.52812 0.385517 0
M  V30 2614 C 256.959 1.67694 1.12797 0
M  V30 2615 C 257.28 0.421115 1.90399 0
M  V30 2616 O 256.55 -0.564551 1.87589 0
M  V30 2617 H 255.13 0.618155 0.419396 0
M  V30 2618 H 257.792 1.89938 0.436972 0
M  V30 2619 H 256.888 2.52896 1.82894 0
M  V30 2620 N 257.189 -0.644168 1.43834 0
M  V30 2621 C 258.437 -1.40117 1.45642 0
M  V30 2622 C 258.758 -1.94814 0.0852413 0
M  V30 2623 O 258.028 -1.74988 -0.880688 0
M  V30 2624 H 256.608 -0.52005 0.536243 0
M  V30 2625 H 259.27 -0.7591 1.7951 0
M  V30 2626 H 258.366 -2.23902 2.17427 0
M  V30 2627 N 258.668 -1.30515 -0.883378 0
M  V30 2628 C 259.598 -1.19607 -2.00541 0
M  V30 2629 C 260.579 -0.086346 -1.69881 0
M  V30 2630 O 261.764 -0.268654 -1.92333 0
M  V30 2631 C 258.894 -0.888758 -3.35736 0
M  V30 2632 C 257.848 -1.95659 -3.8066 0
M  V30 2633 C 257.174 -1.50224 -5.13164 0
M  V30 2634 C 258.474 -3.36788 -3.99213 0
M  V30 2635 H 260.168 -2.13476 -2.09925 0
M  V30 2636 H 257.714 -1.02775 -1.00863 0
M  V30 2637 H 259.667 -0.799094 -4.13754 0
M  V30 2638 H 258.391 0.0856125 -3.26488 0
M  V30 2639 H 257.05 -2.03591 -3.04871 0
M  V30 2640 H 256.698 -0.516092 -5.00345 0
M  V30 2641 H 256.398 -2.2165 -5.44192 0
M  V30 2642 H 257.922 -1.42639 -5.93706 0
M  V30 2643 H 259.336 -3.31605 -4.67665 0
M  V30 2644 H 257.733 -4.06314 -4.41621 0
M  V30 2645 H 258.803 -3.78561 -3.03017 0
M  V30 2646 N 260.146 1.09593 -1.13257 0
M  V30 2647 C 261.394 1.81375 -0.891492 0
M  V30 2648 C 261.715 1.86049 0.584009 0
M  V30 2649 O 260.985 1.34481 1.42449 0
M  V30 2650 H 259.565 0.671708 -0.326828 0
M  V30 2651 H 262.227 1.3256 -1.42877 0
M  V30 2652 H 261.323 2.84612 -1.28071 0
M  V30 2653 N 261.624 0.925811 1.2754 0
M  V30 2654 C 262.574 0.394488 2.24561 0
M  V30 2655 C 263.558 -0.500183 1.52928 0
M  V30 2656 O 264.75 -0.337936 1.73744 0
M  V30 2657 C 261.879 -0.353328 3.41477 0
M  V30 2658 C 260.965 0.557752 4.20416 0
M  V30 2659 N 261.356 1.67674 4.77199 0
M  V30 2660 C 259.654 0.360404 4.44541 0
M  V30 2661 C 260.355 2.24324 5.36706 0
M  V30 2662 N 259.331 1.53305 5.21535 0
M  V30 2663 H 263.133 1.2489 2.66045 0
M  V30 2664 H 260.647 0.779864 1.4245 0
M  V30 2665 H 262.644 -0.7509 4.10082 0
M  V30 2666 H 261.304 -1.20469 3.01525 0
M  V30 2667 H 262.315 2.05915 4.75204 0
M  V30 2668 H 258.992 -0.450454 4.15063 0
M  V30 2669 H 260.382 3.18521 5.91603 0
M  V30 2670 N 263.102 -1.41638 0.69111 0
M  V30 2671 C 264.348 -2.01598 0.220519 0
M  V30 2672 C 264.681 -1.54594 -1.17535 0
M  V30 2673 O 263.956 -0.755177 -1.79241 0
M  V30 2674 C 264.239 -3.59062 0.273243 0
M  V30 2675 C 264.092 -4.16203 1.70573 0
M  V30 2676 C 265.411 -4.38546 -0.369457 0
M  V30 2677 H 262.53 -0.732468 0.0816045 0
M  V30 2678 H 265.172 -1.68445 0.878986 0
M  V30 2679 H 263.322 -3.87435 -0.287411 0
M  V30 2680 H 264.994 -3.98722 2.31989 0
M  V30 2681 H 263.237 -3.71414 2.2413 0
M  V30 2682 H 263.908 -5.25358 1.69419 0
M  V30 2683 H 266.384 -4.1596 0.107977 0
M  V30 2684 H 265.26 -5.48069 -0.302002 0
M  V30 2685 H 265.521 -4.17662 -1.44951 0
M  V30 2686 N 264.58 -0.43555 -1.51462 0
M  V30 2687 C 265.543 0.365137 -2.26273 0
M  V30 2688 C 266.543 0.951227 -1.29647 0
M  V30 2689 O 267.733 0.825958 -1.53374 0
M  V30 2690 C 264.865 1.51645 -3.05314 0
M  V30 2691 H 266.058 -0.290474 -2.9849 0
M  V30 2692 H 263.611 -0.188676 -1.55157 0
M  V30 2693 H 264.346 2.20816 -2.3751 0
M  V30 2694 H 264.131 1.10238 -3.76284 0
M  V30 2695 H 265.621 2.08218 -3.61987 0
M  V30 2696 N 266.058 1.56714 -0.166846 0
M  V30 2697 C 267.304 1.97039 0.479962 0
M  V30 2698 C 267.637 1.05264 1.63197 0
M  V30 2699 O 266.912 0.0988833 1.94248 0
M  V30 2700 C 267.195 3.46867 0.967212 0
M  V30 2701 C 267.048 4.49421 -0.18466 0
M  V30 2702 C 268.367 3.9968 1.84238 0
M  V30 2703 H 265.486 0.71641 0.172992 0
M  V30 2704 H 268.128 1.8832 -0.252079 0
M  V30 2705 H 266.278 3.54428 1.59101 0
M  V30 2706 H 267.95 4.53924 -0.821621 0
M  V30 2707 H 266.193 4.25573 -0.840837 0
M  V30 2708 H 266.864 5.51644 0.198317 0
M  V30 2709 H 269.34 3.94723 1.31655 0
M  V30 2710 H 268.216 5.04941 2.15234 0
M  V30 2711 H 268.477 3.43226 2.78654 0
M  V30 2712 N 267.536 -0.106894 1.57237 0
M  V30 2713 C 268.468 -1.15646 1.97885 0
M  V30 2714 C 269.481 -1.36981 0.879779 0
M  V30 2715 O 270.67 -1.35841 1.15799 0
M  V30 2716 C 267.77 -2.51425 2.27241 0
M  V30 2717 C 266.943 -2.50529 3.58545 0
M  V30 2718 C 266.002 -3.68145 3.75973 0
M  V30 2719 O 265.028 -3.51176 4.47956 0
M  V30 2720 N 266.23 -4.87177 3.15656 0
M  V30 2721 H 268.995 -0.81059 2.8853 0
M  V30 2722 H 266.556 -0.296024 1.59171 0
M  V30 2723 H 268.548 -3.28689 2.36105 0
M  V30 2724 H 267.118 -2.78147 1.42663 0
M  V30 2725 H 266.338 -1.58894 3.60758 0
M  V30 2726 H 267.626 -2.46997 4.44826 0
M  V30 2727 H 267.024 -5.03868 2.57165 0
M  V30 2728 H 265.581 -5.62075 3.30023 0
M  V30 2729 N 269.014 -1.53014 -0.377408 0
M  V30 2730 C 270.244 -1.72265 -1.14054 0
M  V30 2731 C 270.652 -0.44601 -1.83868 0
M  V30 2732 O 269.995 0.590095 -1.73964 0
M  V30 2733 C 270.057 -2.82492 -2.22348 0
M  V30 2734 C 269.721 -4.23233 -1.72402 0
M  V30 2735 C 270.718 -5.05992 -1.19448 0
M  V30 2736 C 268.403 -4.696 -1.78273 0
M  V30 2737 C 270.397 -6.33203 -0.730268 0
M  V30 2738 C 268.084 -5.96792 -1.31464 0
M  V30 2739 C 269.082 -6.78424 -0.789297 0
M  V30 2740 O 268.77 -8.0323 -0.328077 0
M  V30 2741 H 268.502 -0.579873 -0.347453 0
M  V30 2742 H 271.056 -2.00502 -0.445882 0
M  V30 2743 H 269.286 -2.49702 -2.95272 0
M  V30 2744 H 270.975 -2.90034 -2.83963 0
M  V30 2745 H 271.741 -4.71349 -1.14259 0
M  V30 2746 H 267.62 -4.06142 -2.18106 0
M  V30 2747 H 271.164 -6.96868 -0.319542 0
M  V30 2748 H 267.061 -6.30937 -1.36342 0
M  V30 2749 H 267.829 -8.1727 -0.448493 0
M  V30 2750 N 270.492 0.636531 -1.44174 0
M  V30 2751 C 271.455 1.73063 -1.50273 0
M  V30 2752 C 272.455 1.56113 -0.385397 0
M  V30 2753 O 273.645 1.61707 -0.64781 0
M  V30 2754 C 270.777 3.12096 -1.37145 0
M  V30 2755 H 271.97 1.69031 -2.47727 0
M  V30 2756 H 269.523 0.849706 -1.31186 0
M  V30 2757 H 270.258 3.21728 -0.407636 0
M  V30 2758 H 270.043 3.25805 -2.18159 0
M  V30 2759 H 271.533 3.91846 -1.44382 0
M  V30 2760 N 271.97 1.30982 0.876444 0
M  V30 2761 C 272.917 1.18085 1.98304 0
M  V30 2762 C 273.887 0.0682263 1.6596 0
M  V30 2763 O 275.072 0.239937 1.89285 0
M  V30 2764 C 272.212 0.887475 3.33493 0
M  V30 2765 C 271.325 2.08281 3.78475 0
M  V30 2766 C 270.46 1.72678 5.0235 0
M  V30 2767 C 269.499 2.88657 5.39762 0
M  V30 2768 N 268.636 2.53292 6.54819 0
M  V30 2769 H 273.476 2.1275 2.08666 0
M  V30 2770 H 271.013 1.05839 1.02159 0
M  V30 2771 H 272.971 0.697961 4.1132 0
M  V30 2772 H 271.601 -0.022315 3.22792 0
M  V30 2773 H 270.653 2.3833 2.96484 0
M  V30 2774 H 271.965 2.95108 4.02135 0
M  V30 2775 H 271.119 1.50151 5.87826 0
M  V30 2776 H 269.858 0.830327 4.8058 0
M  V30 2777 H 268.863 3.1184 4.52809 0
M  V30 2778 H 270.088 3.79002 5.63502 0
M  V30 2779 H 268.034 1.66163 6.34607 0
M  V30 2780 H 267.951 3.3365 6.7839 0
M  V30 2781 H 269.219 2.34143 7.43503 0
M  V30 2782 N 273.449 -1.08991 1.13837 0
M  V30 2783 C 274.412 -2.13925 0.822715 0
M  V30 2784 C 275.412 -1.599 -0.1699 0
M  V30 2785 O 276.602 -1.74104 0.0577251 0
M  V30 2786 C 273.734 -3.40155 0.225318 0
M  V30 2787 H 274.927 -2.43358 1.75262 0
M  V30 2788 H 272.48 -1.24603 0.943594 0
M  V30 2789 H 273.215 -3.16352 -0.713594 0
M  V30 2790 H 273 -3.80661 0.940193 0
M  V30 2791 H 274.49 -4.17594 0.0214784 0
M  V30 2792 N 274.927 -0.932562 -1.27047 0
M  V30 2793 C 275.86 -0.379774 -2.25018 0
M  V30 2794 C 276.838 0.526587 -1.53837 0
M  V30 2795 O 278.022 0.465992 -1.82649 0
M  V30 2796 C 275.149 0.455187 -3.35627 0
M  V30 2797 C 274.195 -0.388428 -4.24728 0
M  V30 2798 S 275.028 -1.80701 -5.04091 0
M  V30 2799 C 276.184 -0.979865 -6.18182 0
M  V30 2800 H 276.417 -1.2101 -2.71558 0
M  V30 2801 H 273.95 -0.735078 -1.35779 0
M  V30 2802 H 275.908 0.931052 -3.99802 0
M  V30 2803 H 274.569 1.26009 -2.87716 0
M  V30 2804 H 273.762 0.25089 -5.03375 0
M  V30 2805 H 273.364 -0.798649 -3.65373 0
M  V30 2806 H 275.656 -0.218115 -6.77149 0
M  V30 2807 H 276.599 -1.73951 -6.86401 0
M  V30 2808 H 277.007 -0.51973 -5.62102 0
M  V30 2809 N 276.405 1.4127 -0.698611 0
M  V30 2810 C 277.653 2.00782 -0.230409 0
M  V30 2811 C 277.974 1.5562 1.17505 0
M  V30 2812 O 277.244 0.78815 1.79346 0
M  V30 2813 H 275.824 0.742464 -0.0821944 0
M  V30 2814 H 278.486 1.72852 -0.90045 0
M  V30 2815 H 277.582 3.11095 -0.25021 0
M  V30 2816 N 277.883 0.443576 1.51229 0
M  V30 2817 C 278.813 -0.355142 2.30783 0
M  V30 2818 C 279.794 -1.0154 1.36468 0
M  V30 2819 O 280.979 -1.01785 1.65389 0
M  V30 2820 C 278.109 -1.45312 3.15439 0
M  V30 2821 C 277.063 -0.916002 4.18083 0
M  V30 2822 C 276.389 -2.1102 4.91299 0
M  V30 2823 C 277.689 0.0538602 5.22272 0
M  V30 2824 H 279.383 0.308767 2.97804 0
M  V30 2825 H 276.929 0.149937 1.43217 0
M  V30 2826 H 278.882 -2.01914 3.69876 0
M  V30 2827 H 277.606 -2.14541 2.46252 0
M  V30 2828 H 276.265 -0.372145 3.64706 0
M  V30 2829 H 275.913 -2.78882 4.18609 0
M  V30 2830 H 275.613 -1.75717 5.60712 0
M  V30 2831 H 277.137 -2.68164 5.48562 0
M  V30 2832 H 278.551 -0.422069 5.71744 0
M  V30 2833 H 276.948 0.319776 5.99247 0
M  V30 2834 H 278.018 0.98858 4.74716 0
M  V30 2835 N 279.361 -1.56624 0.175154 0
M  V30 2836 C 280.309 -2.19468 -0.770495 0
M  V30 2837 C 281.303 -1.15985 -1.23466 0
M  V30 2838 O 282.509 -1.34176 -1.19987 0
M  V30 2839 H 278.884 -0.703095 -0.266761 0
M  V30 2840 H 280.855 -2.97613 -0.216542 0
M  V30 2841 C 279.604 -2.85264 -1.98796 0
M  V30 2842 H 278.927 -3.64623 -1.63983 0
M  V30 2843 H 280.367 -3.327 -2.62843 0
M  V30 2844 C 278.826 -1.85239 -2.81404 0
M  V30 2845 O 279.356 -1.34024 -3.78682 0
M  V30 2846 N 277.562 -1.53911 -2.46495 0
M  V30 2847 H 277.109 -1.95751 -1.67449 0
M  V30 2848 H 277.067 -0.872382 -3.02054 0
M  V30 2849 N 280.839 0.0985539 -1.57292 0
M  V30 2850 C 282.085 0.803867 -1.86188 0
M  V30 2851 C 282.418 1.78549 -0.763794 0
M  V30 2852 O 281.693 1.93153 0.22855 0
M  V30 2853 C 281.976 1.53568 -3.25713 0
M  V30 2854 C 281.829 0.572277 -4.46145 0
M  V30 2855 C 283.148 2.48708 -3.63087 0
M  V30 2856 H 280.267 0.290781 -0.677211 0
M  V30 2857 H 282.909 0.0675783 -1.8988 0
M  V30 2858 H 281.059 2.16332 -3.22696 0
M  V30 2859 H 282.731 -0.0480894 -4.61275 0
M  V30 2860 H 280.974 -0.114618 -4.33649 0
M  V30 2861 H 281.645 1.12139 -5.40489 0
M  V30 2862 H 284.121 1.96039 -3.67026 0
M  V30 2863 H 282.997 2.96932 -4.61652 0
M  V30 2864 H 283.258 3.32309 -2.91588 0
M  V30 2865 N 282.317 1.53212 0.369288 0
M  V30 2866 C 283.563 1.69466 1.11397 0
M  V30 2867 C 283.896 0.443257 1.89074 0
M  V30 2868 O 283.171 -0.559386 1.86282 0
M  V30 2869 C 283.454 2.9422 2.07621 0
M  V30 2870 C 283.307 4.29508 1.33577 0
M  V30 2871 C 284.626 3.14565 3.07794 0
M  V30 2872 H 281.745 0.616667 0.403597 0
M  V30 2873 H 284.387 1.85845 0.395179 0
M  V30 2874 H 282.537 2.80387 2.68916 0
M  V30 2875 H 284.209 4.55147 0.750955 0
M  V30 2876 H 282.452 4.29088 0.637618 0
M  V30 2877 H 283.123 5.12926 2.03989 0
M  V30 2878 H 285.599 3.2756 2.56601 0
M  V30 2879 H 284.475 4.03297 3.72348 0
M  V30 2880 H 284.736 2.29675 3.77759 0
M  V30 2881 N 283.795 -0.628877 1.44509 0
M  V30 2882 C 284.758 -1.72263 1.51188 0
M  V30 2883 C 285.758 -1.55907 0.39367 0
M  V30 2884 O 286.948 -1.61361 0.656377 0
M  V30 2885 C 284.08 -3.11365 1.38798 0
M  V30 2886 H 285.273 -1.67714 2.4862 0
M  V30 2887 H 282.826 -0.842737 1.31634 0
M  V30 2888 H 283.561 -3.21507 0.424693 0
M  V30 2889 H 283.346 -3.24644 2.19884 0
M  V30 2890 H 284.836 -3.91075 1.46458 0
M  V30 2891 N 285.273 -1.31445 -0.869486 0
M  V30 2892 C 286.519 -1.21337 -1.62496 0
M  V30 2893 C 286.852 0.227872 -1.92858 0
M  V30 2894 O 286.127 1.16094 -1.56053 0
M  V30 2895 C 286.41 -2.05814 -2.95487 0
M  V30 2896 C 286.263 -3.5824 -2.72 0
M  V30 2897 C 287.582 -1.9079 -3.96594 0
M  V30 2898 H 284.701 -0.442135 -0.589649 0
M  V30 2899 H 287.343 -1.6124 -1.00507 0
M  V30 2900 H 285.493 -1.71913 -3.48394 0
M  V30 2901 H 287.165 -4.0228 -2.25762 0
M  V30 2902 H 285.408 -3.81647 -2.06224 0
M  V30 2903 H 286.079 -4.12657 -3.66631 0
M  V30 2904 H 288.555 -2.20459 -3.52898 0
M  V30 2905 H 287.431 -2.52199 -4.87531 0
M  V30 2906 H 287.692 -0.871341 -4.33428 0
M  V30 2907 N 286.751 1.08385 -1.14413 0
M  V30 2908 C 288.028 1.77429 -0.823297 0
M  V30 2909 C 288.408 1.9974 0.683163 0
M  V30 2910 O 287.756 1.60739 1.62405 0
M  V30 2911 C 287.966 3.09004 -1.62227 0
M  V30 2912 C 289.314 3.83532 -1.82177 0
M  V30 2913 O 290.338 3.18786 -1.58915 0
M  V30 2914 O 289.197 4.99792 -2.21067 0
M  V30 2915 H 286.291 0.769999 -0.301712 0
M  V30 2916 H 288.837 1.14846 -1.24934 0
M  V30 2917 H 287.609 2.88316 -2.64555 0
M  V30 2918 H 287.232 3.79316 -1.19187 0
M  V30 2919 N 288.23 0.939286 1.26551 0
M  V30 2920 C 289.479 0.581601 1.93133 0
M  V30 2921 C 289.792 -0.883224 1.74524 0
M  V30 2922 O 290.998 -1.3502 2.35546 0
M  V30 2923 C 289.454 0.989425 3.46032 0
M  V30 2924 C 289.062 2.47573 3.73379 0
M  V30 2925 C 290.806 0.703544 4.18629 0
M  V30 2926 C 288.713 2.82235 5.19709 0
M  V30 2927 H 287.643 0.213803 0.723052 0
M  V30 2928 H 290.294 1.14167 1.4366 0
M  V30 2929 H 288.676 0.357902 3.94379 0
M  V30 2930 H 289.85 3.15614 3.35744 0
M  V30 2931 H 288.165 2.73471 3.1401 0
M  V30 2932 H 290.762 0.938869 5.26393 0
M  V30 2933 H 291.105 -0.359639 4.14744 0
M  V30 2934 H 291.638 1.2947 3.76141 0
M  V30 2935 H 288.377 3.87509 5.28694 0
M  V30 2936 H 287.897 2.18854 5.58447 0
M  V30 2937 H 289.576 2.70599 5.87695 0
M  V30 2938 N 289.708 -1.40897 0.706093 0
M  V30 2939 C 290.956 -2.00657 0.241054 0
M  V30 2940 C 291.277 -1.56241 -1.16678 0
M  V30 2941 O 290.547 -0.79765 -1.78926 0
M  V30 2942 H 289.127 -0.742018 0.0861308 0
M  V30 2943 H 291.789 -1.72372 0.909604 0
M  V30 2944 H 290.885 -3.10958 0.266705 0
M  V30 2945 N 291.186 -0.45159 -1.50991 0
M  V30 2946 C 292.463 0.170707 -1.94854 0
M  V30 2947 C 292.843 1.58788 -1.39103 0
M  V30 2948 O 292.191 2.20913 -0.583921 0
M  V30 2949 C 292.401 0.133929 -3.48743 0
M  V30 2950 C 293.749 0.33248 -4.23296 0
M  V30 2951 O 294.773 0.211403 -3.55572 0
M  V30 2952 O 293.632 0.57486 -5.43468 0
M  V30 2953 H 290.726 0.122264 -0.817912 0
M  V30 2954 H 293.272 -0.510594 -1.61836 0
M  V30 2955 H 292.044 -0.856283 -3.81816 0
M  V30 2956 H 291.667 0.857529 -3.88242 0
M  V30 2957 N 292.664 1.56529 -0.183458 0
M  V30 2958 C 293.574 2.22144 0.754272 0
M  V30 2959 C 294.59 1.21684 1.24374 0
M  V30 2960 O 295.766 1.54385 1.29333 0
M  V30 2961 C 292.831 2.85884 1.96141 0
M  V30 2962 C 291.892 4.01579 1.51765 0
M  V30 2963 C 291.125 4.6227 2.66725 0
M  V30 2964 O 291.348 4.21865 3.83909 0
M  V30 2965 O 290.282 5.51936 2.40104 0
M  V30 2966 H 294.108 3.02861 0.225527 0
M  V30 2967 H 291.693 1.49331 0.0453032 0
M  V30 2968 H 293.575 3.26253 2.66715 0
M  V30 2969 H 292.25 2.08154 2.47899 0
M  V30 2970 H 291.157 3.65856 0.781049 0
M  V30 2971 H 292.49 4.80938 1.04686 0
M  V30 2972 N 294.142 -0.090211 1.57342 0
M  V30 2973 C 295.089 -1.10909 2.02405 0
M  V30 2974 C 296.059 -1.39523 0.901252 0
M  V30 2975 O 297.244 -1.50903 1.1676 0
M  V30 2976 C 294.384 -2.42277 2.45755 0
M  V30 2977 C 293.497 -2.20352 3.71576 0
M  V30 2978 C 292.632 -3.45154 4.03785 0
M  V30 2979 C 291.671 -3.18512 5.22701 0
M  V30 2980 N 290.808 -4.35593 5.50639 0
M  V30 2981 H 295.648 -0.71782 2.89225 0
M  V30 2982 H 293.185 -0.342901 1.43048 0
M  V30 2983 H 295.143 -3.18951 2.68935 0
M  V30 2984 H 293.773 -2.79242 1.61938 0
M  V30 2985 H 292.825 -1.34458 3.55844 0
M  V30 2986 H 294.137 -1.96661 4.58395 0
M  V30 2987 H 293.291 -4.30233 4.27767 0
M  V30 2988 H 292.03 -3.71904 3.15498 0
M  V30 2989 H 291.035 -2.31827 4.98534 0
M  V30 2990 H 292.26 -2.93103 6.12591 0
M  V30 2991 H 290.206 -4.6241 4.6531 0
M  V30 2992 H 290.123 -4.1511 6.31838 0
M  V30 2993 H 291.391 -5.21723 5.7916 0
M  V30 2994 N 295.62 -1.53406 -0.361157 0
M  V30 2995 C 296.55 -1.83136 -1.44857 0
M  V30 2996 C 297.531 -0.685174 -1.5569 0
M  V30 2997 O 298.716 -0.93544 -1.70186 0
M  V30 2998 C 295.846 -2.02522 -2.82138 0
M  V30 2999 C 294.8 -3.18302 -2.86126 0
M  V30 3000 C 294.126 -3.22989 -4.26125 0
M  V30 3001 C 295.426 -4.56796 -2.53248 0
M  V30 3002 H 297.12 -2.74201 -1.20226 0
M  V30 3003 H 294.666 -1.31938 -0.576922 0
M  V30 3004 H 296.619 -2.21904 -3.58241 0
M  V30 3005 H 295.343 -1.08172 -3.08166 0
M  V30 3006 H 294.002 -2.98747 -2.12475 0
M  V30 3007 H 293.65 -2.26267 -4.49235 0
M  V30 3008 H 293.35 -4.00781 -4.29708 0
M  V30 3009 H 294.874 -3.44559 -5.04094 0
M  V30 3010 H 296.288 -4.7631 -3.19064 0
M  V30 3011 H 294.685 -5.36862 -2.68141 0
M  V30 3012 H 295.755 -4.61606 -1.48484 0
M  V30 3013 N 297.098 0.621204 -1.44841 0
M  V30 3014 C 298.008 1.7612 -1.5498 0
M  V30 3015 C 299.024 1.68477 -0.434927 0
M  V30 3016 O 300.2 1.89076 -0.693693 0
M  V30 3017 C 297.265 3.1254 -1.50065 0
M  V30 3018 C 296.326 3.31741 -2.72482 0
M  V30 3019 C 295.559 4.61653 -2.67792 0
M  V30 3020 O 295.782 5.431 -1.74352 0
M  V30 3021 O 294.716 4.83271 -3.58794 0
M  V30 3022 H 298.542 1.70518 -2.51311 0
M  V30 3023 H 296.127 0.783643 -1.27198 0
M  V30 3024 H 298.009 3.93844 -1.49882 0
M  V30 3025 H 296.684 3.18663 -0.568806 0
M  V30 3026 H 295.591 2.50077 -2.7823 0
M  V30 3027 H 296.924 3.30486 -3.64746 0
M  V30 3028 N 298.576 1.31904 0.862503 0
M  V30 3029 C 299.506 1.22782 1.98612 0
M  V30 3030 C 300.487 0.113362 1.69722 0
M  V30 3031 O 301.672 0.299218 1.91881 0
M  V30 3032 C 298.802 0.942058 3.34279 0
M  V30 3033 C 297.756 2.0169 3.77499 0
M  V30 3034 C 297.082 1.58369 5.10709 0
M  V30 3035 C 298.382 3.43096 3.93805 0
M  V30 3036 H 300.076 2.16788 2.06502 0
M  V30 3037 H 297.622 1.04366 0.992154 0
M  V30 3038 H 299.575 0.864818 4.1243 0
M  V30 3039 H 298.299 -0.0336603 3.26583 0
M  V30 3040 H 296.958 2.08416 3.01593 0
M  V30 3041 H 296.606 0.595628 4.99461 0
M  V30 3042 H 296.306 2.30279 5.40597 0
M  V30 3043 H 297.83 1.52067 5.91361 0
M  V30 3044 H 299.244 3.39003 4.62331 0
M  V30 3045 H 297.641 4.13288 4.35101 0
M  V30 3046 H 298.711 3.83334 2.96957 0
M  V30 3047 N 300.054 -1.07777 1.14986 0
M  V30 3048 C 301.017 -2.13041 0.845358 0
M  V30 3049 C 302.017 -1.60071 -0.152931 0
M  V30 3050 O 303.207 -1.74033 0.0761879 0
M  V30 3051 C 300.339 -3.39896 0.261383 0
M  V30 3052 H 301.532 -2.41485 1.77834 0
M  V30 3053 H 299.085 -1.23595 0.956757 0
M  V30 3054 H 299.82 -3.17091 -0.68 0
M  V30 3055 H 299.605 -3.79642 0.980514 0
M  V30 3056 H 301.095 -4.17548 0.0657687 0
M  V30 3057 N 301.532 -0.945985 -1.26051 0
M  V30 3058 C 302.479 -0.45809 -2.26208 0
M  V30 3059 C 303.449 0.484816 -1.58867 0
M  V30 3060 O 304.634 0.399969 -1.86561 0
M  V30 3061 C 301.774 0.266131 -3.44072 0
M  V30 3062 C 300.887 -0.713005 -4.26075 0
M  V30 3063 C 300.022 0.0329013 -5.3119 0
M  V30 3064 C 299.061 -0.93774 -6.04874 0
M  V30 3065 N 298.198 -0.223274 -7.01745 0
M  V30 3066 H 303.038 -1.3171 -2.67313 0
M  V30 3067 H 300.575 -0.66069 -1.31428 0
M  V30 3068 H 302.533 0.702514 -4.11243 0
M  V30 3069 H 301.163 1.08925 -3.03867 0
M  V30 3070 H 300.215 -1.26789 -3.58648 0
M  V30 3071 H 301.527 -1.45406 -4.77136 0
M  V30 3072 H 300.681 0.528335 -6.04395 0
M  V30 3073 H 299.42 0.806801 -4.8098 0
M  V30 3074 H 298.425 -1.44425 -5.30492 0
M  V30 3075 H 299.65 -1.71172 -6.57173 0
M  V30 3076 H 297.596 0.532046 -6.53839 0
M  V30 3077 H 297.513 -0.90357 -7.50581 0
M  V30 3078 H 298.781 0.250907 -7.79096 0
M  V30 3079 N 303.011 1.40521 -0.713556 0
M  V30 3080 C 303.921 2.34522 -0.0606667 0
M  V30 3081 C 304.937 1.57193 0.74607 0
M  V30 3082 O 306.113 1.89591 0.679493 0
M  V30 3083 C 303.178 3.36081 0.851491 0
M  V30 3084 C 302.239 4.29286 0.0349339 0
M  V30 3085 C 301.472 5.25994 0.903649 0
M  V30 3086 O 301.695 5.28616 2.14292 0
M  V30 3087 O 300.629 6.00918 0.343723 0
M  V30 3088 H 304.455 2.91968 -0.835972 0
M  V30 3089 H 302.04 1.41681 -0.47402 0
M  V30 3090 H 303.922 3.98369 1.37404 0
M  V30 3091 H 302.597 2.81052 1.60598 0
M  V30 3092 H 301.504 3.70289 -0.532633 0
M  V30 3093 H 302.837 4.87462 -0.681287 0
M  V30 3094 N 304.489 0.459591 1.5075 0
M  V30 3095 C 305.419 -0.330644 2.31147 0
M  V30 3096 C 306.4 -1.00087 1.37538 0
M  V30 3097 O 307.585 -1.00025 1.66459 0
M  V30 3098 C 304.715 -1.41958 3.16962 0
M  V30 3099 C 303.669 -0.871608 4.19031 0
M  V30 3100 C 302.995 -2.05797 4.9351 0
M  V30 3101 C 304.295 0.109251 5.22186 0
M  V30 3102 H 305.989 0.340336 2.97459 0
M  V30 3103 H 303.535 0.165119 1.4305 0
M  V30 3104 H 305.488 -1.9798 3.71997 0
M  V30 3105 H 304.212 -2.11917 2.48513 0
M  V30 3106 H 302.871 -0.333442 3.6508 0
M  V30 3107 H 302.519 -2.74427 4.21544 0
M  V30 3108 H 302.219 -1.6976 5.62544 0
M  V30 3109 H 303.743 -2.62331 5.51375 0
M  V30 3110 H 305.157 -0.361405 5.7216 0
M  V30 3111 H 303.554 0.383316 5.98875 0
M  V30 3112 H 304.624 1.03887 4.73641 0
M  V30 3113 N 305.967 -1.56429 0.191757 0
M  V30 3114 C 307.215 -1.97095 -0.447006 0
M  V30 3115 C 307.536 -1.07967 -1.62383 0
M  V30 3116 O 306.806 -0.150248 -1.95323 0
M  V30 3117 H 305.386 -0.727832 -0.168135 0
M  V30 3118 H 308.048 -1.92911 0.27771 0
M  V30 3119 H 307.144 -3.01848 -0.793371 0
M  V30 3120 N 307.445 0.0818655 -1.57387 0
M  V30 3121 C 308.408 1.08265 -2.02018 0
M  V30 3122 C 309.408 1.32183 -0.915664 0
M  V30 3123 O 310.598 1.28073 -1.18081 0
M  V30 3124 C 307.73 2.42871 -2.39221 0
M  V30 3125 H 308.923 0.698204 -2.91659 0
M  V30 3126 H 306.476 0.327303 -1.52835 0
M  V30 3127 H 307.211 2.86167 -1.52575 0
M  V30 3128 H 306.996 2.26855 -3.19811 0
M  V30 3129 H 308.486 3.14826 -2.74362 0
M  V30 3130 N 308.923 1.53595 0.353017 0
M  V30 3131 C 310.2 1.61002 1.11075 0
M  V30 3132 C 310.58 0.425356 2.0677 0
M  V30 3133 O 309.928 -0.583267 2.2093 0
M  V30 3134 C 310.138 2.96631 1.83877 0
M  V30 3135 C 311.486 3.51653 2.37961 0
M  V30 3136 O 312.51 2.98743 1.93987 0
M  V30 3137 O 311.369 4.44177 3.18386 0
M  V30 3138 H 308.463 0.650825 0.510251 0
M  V30 3139 H 311.009 1.6594 0.35527 0
M  V30 3140 H 309.781 3.74293 1.14108 0
M  V30 3141 H 309.404 2.95242 2.66304 0
M  V30 3142 N 310.401 -0.613514 1.45168 0
M  V30 3143 C 311.331 -1.7354 1.56225 0
M  V30 3144 C 312.312 -1.64981 0.41414 0
M  V30 3145 O 313.497 -1.83472 0.636526 0
M  V30 3146 C 310.627 -3.12128 1.52295 0
M  V30 3147 C 309.581 -3.35491 2.65762 0
M  V30 3148 C 308.907 -4.74291 2.46885 0
M  V30 3149 C 310.207 -3.26325 4.0781 0
M  V30 3150 H 311.901 -1.64543 2.50132 0
M  V30 3151 H 309.447 -0.790185 1.20383 0
M  V30 3152 H 311.4 -3.90404 1.58628 0
M  V30 3153 H 310.124 -3.2195 0.549139 0
M  V30 3154 H 308.783 -2.59603 2.58847 0
M  V30 3155 H 308.431 -4.80839 1.47657 0
M  V30 3156 H 308.131 -4.9088 3.22972 0
M  V30 3157 H 309.655 -5.54775 2.55063 0
M  V30 3158 H 311.069 -3.94483 4.16 0
M  V30 3159 H 309.466 -3.54445 4.8424 0
M  V30 3160 H 310.536 -2.23855 4.30136 0
M  V30 3161 N 311.879 -1.3236 -0.855495 0
M  V30 3162 C 313.125 -1.23054 -1.612 0
M  V30 3163 C 313.458 0.207404 -1.93089 0
M  V30 3164 O 312.733 1.14432 -1.57275 0
M  V30 3165 C 313.016 -2.08937 -2.93287 0
M  V30 3166 C 312.869 -3.61105 -2.68185 0
M  V30 3167 C 314.188 -1.94986 -3.94549 0
M  V30 3168 H 311.307 -0.448364 -0.584926 0
M  V30 3169 H 313.949 -1.62297 -0.987917 0
M  V30 3170 H 312.099 -1.75599 -3.46551 0
M  V30 3171 H 313.771 -4.04652 -2.21483 0
M  V30 3172 H 312.014 -3.83813 -2.02164 0
M  V30 3173 H 312.685 -4.16522 -3.62234 0
M  V30 3174 H 315.161 -2.24189 -3.5054 0
M  V30 3175 H 314.037 -2.57356 -4.84829 0
M  V30 3176 H 314.298 -0.917263 -4.3248 0
M  V30 3177 N 313.357 1.07166 -1.15556 0
M  V30 3178 C 314.603 1.80065 -0.932984 0
M  V30 3179 C 314.936 1.86586 0.53845 0
M  V30 3180 O 314.211 1.35098 1.39924 0
M  V30 3181 C 314.494 3.25022 -1.55025 0
M  V30 3182 C 314.347 3.26634 -3.09242 0
M  V30 3183 C 315.666 4.22341 -1.2376 0
M  V30 3184 H 312.785 0.653697 -0.340366 0
M  V30 3185 H 315.427 1.25389 -1.4275 0
M  V30 3186 H 313.577 3.71712 -1.12972 0
M  V30 3187 H 315.249 2.88173 -3.60214 0
M  V30 3188 H 313.492 2.65539 -3.43033 0
M  V30 3189 H 314.163 4.28854 -3.47546 0
M  V30 3190 H 316.639 3.8405 -1.60139 0
M  V30 3191 H 315.515 5.22053 -1.69564 0
M  V30 3192 H 315.776 4.41828 -0.154938 0
M  V30 3193 N 314.835 0.952656 1.25548 0
M  V30 3194 C 315.783 0.462354 2.27958 0
M  V30 3195 C 316.777 -0.46634 1.62855 0
M  V30 3196 O 317.983 -0.343287 1.76696 0
M  V30 3197 H 314.358 0.13101 0.7405 0
M  V30 3198 H 316.329 1.33839 2.66702 0
M  V30 3199 C 315.078 -0.24628 3.46827 0
M  V30 3200 H 314.401 0.459192 3.97154 0
M  V30 3201 H 315.841 -0.553393 4.20373 0
M  V30 3202 C 314.3 -1.4681 3.0323 0
M  V30 3203 O 314.83 -2.56591 3.09069 0
M  V30 3204 N 313.036 -1.32874 2.58443 0
M  V30 3205 H 312.583 -0.435536 2.53891 0
M  V30 3206 H 312.541 -2.14742 2.29637 0
M  V30 3207 N 316.313 -1.40141 0.720998 0
M  V30 3208 C 317.724 -1.83678 0.334553 0
M  V30 3209 C 318.075 -1.6027 -1.13173 0
M  V30 3210 O 317.2 -1.08643 -1.87152 0
M  V30 3211 C 317.795 -3.33437 0.600437 0
M  V30 3212 C 316.354 -3.75447 0.267642 0
M  V30 3213 C 315.501 -2.63296 0.870097 0
M  V30 3214 H 318.452 -1.29331 0.919732 0
M  V30 3215 H 318.473 -3.80269 -0.132517 0
M  V30 3216 H 317.985 -3.50442 1.66768 0
M  V30 3217 H 316.086 -3.64035 -0.794329 0
M  V30 3218 H 316.199 -4.73344 0.74042 0
M  V30 3219 H 314.563 -2.52954 0.297739 0
M  V30 3220 H 315.346 -2.83112 1.94172 0
M  V30 3221 N 317.792 -0.46758 -1.50504 0
M  V30 3222 C 318.722 0.318381 -2.31319 0
M  V30 3223 C 319.703 0.993564 -1.38066 0
M  V30 3224 O 320.888 0.991411 -1.66987 0
M  V30 3225 C 318.018 1.40275 -3.17711 0
M  V30 3226 C 316.972 0.849373 -4.19487 0
M  V30 3227 C 316.298 2.03177 -4.94594 0
M  V30 3228 C 317.598 -0.136942 -5.2212 0
M  V30 3229 H 319.292 -0.356106 -2.97275 0
M  V30 3230 H 316.838 -0.172703 -1.42961 0
M  V30 3231 H 318.791 1.96004 -3.73042 0
M  V30 3232 H 317.515 2.10596 -2.49634 0
M  V30 3233 H 316.174 0.314076 -3.65252 0
M  V30 3234 H 315.822 2.72187 -4.22993 0
M  V30 3235 H 315.522 1.66774 -5.63436 0
M  V30 3236 H 317.046 2.59403 -5.52759 0
M  V30 3237 H 318.46 0.331056 -5.72343 0
M  V30 3238 H 316.857 -0.41507 -5.98663 0
M  V30 3239 H 317.927 -1.06398 -4.73083 0
M  V30 3240 N 319.27 1.56325 -0.20005 0
M  V30 3241 C 320.217 2.1932 0.718833 0
M  V30 3242 C 321.187 1.14198 1.20615 0
M  V30 3243 O 322.372 1.42469 1.26914 0
M  V30 3244 C 319.512 2.86041 1.93066 0
M  V30 3245 C 318.625 4.05702 1.48425 0
M  V30 3246 C 317.76 4.60266 2.65196 0
M  V30 3247 C 316.799 5.72273 2.17185 0
M  V30 3248 N 315.936 6.21221 3.27152 0
M  V30 3249 H 320.776 2.97486 0.17489 0
M  V30 3250 H 318.313 1.46911 0.0745794 0
M  V30 3251 H 320.271 3.22897 2.64184 0
M  V30 3252 H 318.901 2.1043 2.44783 0
M  V30 3253 H 317.953 3.74475 0.668755 0
M  V30 3254 H 319.265 4.86699 1.09204 0
M  V30 3255 H 318.419 4.99453 3.4443 0
M  V30 3256 H 317.158 3.78386 3.07693 0
M  V30 3257 H 316.163 5.3261 1.36407 0
M  V30 3258 H 317.388 6.55974 1.75713 0
M  V30 3259 H 315.334 5.42263 3.69171 0
M  V30 3260 H 315.251 6.97284 2.92116 0
M  V30 3261 H 316.519 6.65063 4.06585 0
M  V30 3262 N 320.748 -0.0735177 1.57428 0
M  V30 3263 C 321.658 -1.10547 2.06922 0
M  V30 3264 C 322.674 -1.42506 0.998402 0
M  V30 3265 O 323.85 -1.52717 1.31299 0
M  V30 3266 C 320.915 -2.40019 2.50184 0
M  V30 3267 C 319.976 -2.15046 3.71556 0
M  V30 3268 C 319.209 -3.38345 4.12745 0
M  V30 3269 O 319.432 -4.47399 3.53822 0
M  V30 3270 O 318.366 -3.2666 5.05546 0
M  V30 3271 H 322.192 -0.715013 2.95163 0
M  V30 3272 H 319.777 -0.287531 1.46607 0
M  V30 3273 H 321.659 -3.16218 2.78539 0
M  V30 3274 H 320.334 -2.78447 1.65072 0
M  V30 3275 H 319.241 -1.36558 3.48285 0
M  V30 3276 H 320.574 -1.81499 4.57514 0
M  V30 3277 N 322.226 -1.5378 -0.344866 0
M  V30 3278 C 323.503 -1.61589 -1.10219 0
M  V30 3279 C 323.883 -0.436316 -2.06542 0
M  V30 3280 O 323.231 0.571543 -2.21237 0
M  V30 3281 C 323.441 -2.97602 -1.82301 0
M  V30 3282 C 324.789 -3.5291 -2.36093 0
M  V30 3283 O 325.813 -2.99768 -1.924 0
M  V30 3284 O 324.672 -4.45859 -3.16026 0
M  V30 3285 H 321.766 -0.653522 -0.506792 0
M  V30 3286 H 324.312 -1.66126 -0.346465 0
M  V30 3287 H 323.084 -3.74893 -1.12121 0
M  V30 3288 H 322.707 -2.9665 -2.64735 0
M  V30 3289 N 323.704 0.605807 -1.45491 0
M  V30 3290 C 324.667 1.69836 -1.5391 0
M  V30 3291 C 325.667 1.55261 -0.418424 0
M  V30 3292 O 326.857 1.60296 -0.681965 0
M  V30 3293 C 323.989 3.09117 -1.43734 0
M  V30 3294 H 325.182 1.63738 -2.51257 0
M  V30 3295 H 322.735 0.821689 -1.32959 0
M  V30 3296 H 323.47 3.20791 -0.475788 0
M  V30 3297 H 323.255 3.21104 -2.25021 0
M  V30 3298 H 324.745 3.88696 -1.52661 0
M  V30 3299 N 325.182 1.32811 0.848464 0
M  V30 3300 C 326.145 1.22194 1.9391 0
M  V30 3301 C 327.145 0.143404 1.60159 0
M  V30 3302 O 328.335 0.394253 1.6968 0
M  V30 3303 C 325.467 0.88067 3.29328 0
M  V30 3304 H 326.66 2.19127 2.04752 0
M  V30 3305 H 324.213 1.16731 1.0394 0
M  V30 3306 H 324.948 -0.0865776 3.24184 0
M  V30 3307 H 324.733 1.66052 3.55203 0
M  V30 3308 H 326.223 0.830871 4.09251 0
M  V30 3309 N 326.66 -1.06551 1.16123 0
M  V30 3310 C 327.607 -2.13961 0.865414 0
M  V30 3311 C 328.577 -1.65066 -0.185055 0
M  V30 3312 O 329.762 -1.90732 -0.05083 0
M  V30 3313 C 326.902 -3.43113 0.369776 0
M  V30 3314 C 326.015 -4.05756 1.48276 0
M  V30 3315 C 325.15 -5.22773 0.942414 0
M  V30 3316 C 324.189 -5.77395 2.03179 0
M  V30 3317 N 323.326 -6.85731 1.50721 0
M  V30 3318 H 328.166 -2.38605 1.78527 0
M  V30 3319 H 325.703 -1.17072 0.890646 0
M  V30 3320 H 327.661 -4.17151 0.0640643 0
M  V30 3321 H 326.291 -3.18695 -0.513143 0
M  V30 3322 H 325.343 -3.29292 1.9045 0
M  V30 3323 H 326.655 -4.42351 2.30493 0
M  V30 3324 H 325.809 -6.03827 0.589729 0
M  V30 3325 H 324.548 -4.87618 0.0895191 0
M  V30 3326 H 323.553 -4.94981 2.3932 0
M  V30 3327 H 324.778 -6.14603 2.8886 0
M  V30 3328 H 322.724 -6.52499 0.676811 0
M  V30 3329 H 322.641 -7.21254 2.26557 0
M  V30 3330 H 323.909 -7.7047 1.18303 0
M  V30 3331 N 328.138 -0.959301 -1.25041 0
M  V30 3332 C 329.385 -0.616611 -1.92884 0
M  V30 3333 C 329.713 0.847036 -1.75087 0
M  V30 3334 O 328.968 1.62374 -1.09239 0
M  V30 3335 C 329.267 -0.927136 -3.45165 0
M  V30 3336 C 328.933 -2.37757 -3.83122 0
M  V30 3337 C 327.595 -2.77402 -3.93194 0
M  V30 3338 C 329.947 -3.31929 -4.01836 0
M  V30 3339 C 327.275 -4.10277 -4.19392 0
M  V30 3340 C 329.627 -4.64423 -4.29528 0
M  V30 3341 C 328.291 -5.03857 -4.37818 0
M  V30 3342 H 327.561 -0.225634 -0.705812 0
M  V30 3343 H 330.208 -1.20921 -1.48493 0
M  V30 3344 H 328.513 -0.252195 -3.90987 0
M  V30 3345 H 330.21 -0.6405 -3.95852 0
M  V30 3346 H 326.8 -2.06013 -3.75841 0
M  V30 3347 H 330.984 -3.02488 -3.93465 0
M  V30 3348 H 326.24 -4.40467 -4.24027 0
M  V30 3349 H 330.414 -5.37369 -4.42953 0
M  V30 3350 H 328.041 -6.06843 -4.57871 0
M  V30 3351 N 329.616 1.39756 -0.72842 0
M  V30 3352 C 330.549 2.28176 -0.0330172 0
M  V30 3353 C 331.527 1.44035 0.754501 0
M  V30 3354 O 332.711 1.73434 0.738445 0
M  V30 3355 C 329.838 3.24795 0.960504 0
M  V30 3356 C 328.884 4.25693 0.262264 0
M  V30 3357 S 329.717 5.25714 -1.01906 0
M  V30 3358 C 330.873 6.25894 -0.0279717 0
M  V30 3359 H 331.106 2.86807 -0.78287 0
M  V30 3360 H 328.639 1.45382 -0.519951 0
M  V30 3361 H 330.597 3.80983 1.52846 0
M  V30 3362 H 329.258 2.65196 1.68315 0
M  V30 3363 H 328.451 4.93699 1.01379 0
M  V30 3364 H 328.053 3.7327 -0.233482 0
M  V30 3365 H 330.345 6.72585 0.814621 0
M  V30 3366 H 331.288 7.04876 -0.67499 0
M  V30 3367 H 331.696 5.63466 0.341489 0
M  V30 3368 N 331.094 0.475555 1.50254 0
M  V30 3369 C 332.041 -0.316293 2.28622 0
M  V30 3370 C 333.011 -0.983227 1.33873 0
M  V30 3371 O 334.196 -0.994805 1.62814 0
M  V30 3372 C 331.336 -1.38975 3.1588 0
M  V30 3373 C 330.449 -0.737146 4.25664 0
M  V30 3374 C 329.584 -1.78887 5.00173 0
M  V30 3375 C 328.623 -1.11676 6.01826 0
M  V30 3376 N 327.76 -2.11154 6.69596 0
M  V30 3377 H 332.6 0.358297 2.95838 0
M  V30 3378 H 330.137 0.188541 1.45887 0
M  V30 3379 H 332.095 -2.02383 3.64825 0
M  V30 3380 H 330.725 -2.03344 2.50701 0
M  V30 3381 H 329.777 0.0096065 3.80399 0
M  V30 3382 H 331.089 -0.206816 4.98371 0
M  V30 3383 H 330.243 -2.49865 5.52859 0
M  V30 3384 H 328.982 -2.35302 4.27182 0
M  V30 3385 H 327.987 -0.392633 5.48396 0
M  V30 3386 H 329.212 -0.55945 6.76792 0
M  V30 3387 H 327.158 -2.66577 5.99394 0
M  V30 3388 H 327.075 -1.63118 7.38193 0
M  V30 3389 H 328.343 -2.81497 7.26897 0
M  V30 3390 N 332.573 -1.56217 0.208337 0
M  V30 3391 C 333.483 -2.23316 -0.718836 0
M  V30 3392 C 334.499 -1.23648 -1.22422 0
M  V30 3393 O 335.675 -1.56423 -1.26861 0
M  V30 3394 C 332.74 -2.88968 -1.91568 0
M  V30 3395 C 331.801 -4.03943 -1.45357 0
M  V30 3396 C 331.034 -4.66455 -2.59337 0
M  V30 3397 O 331.257 -4.27919 -3.77149 0
M  V30 3398 O 330.191 -5.55686 -2.31293 0
M  V30 3399 H 334.017 -3.03182 -0.177315 0
M  V30 3400 H 331.602 -1.49384 -0.0215402 0
M  V30 3401 H 333.484 -3.30455 -2.61491 0
M  V30 3402 H 332.159 -2.12071 -2.44556 0
M  V30 3403 H 331.066 -3.67052 -0.722746 0
M  V30 3404 H 332.399 -4.82543 -0.970219 0
M  V30 3405 N 334.051 0.0651679 -1.57465 0
M  V30 3406 C 334.998 1.07675 -2.04144 0
M  V30 3407 C 335.968 1.38071 -0.923335 0
M  V30 3408 O 337.153 1.49026 -1.19146 0
M  V30 3409 C 334.293 2.38337 -2.49579 0
M  V30 3410 C 333.406 2.14413 -3.75035 0
M  V30 3411 C 332.541 3.38686 -4.09225 0
M  V30 3412 C 331.58 3.10156 -5.27702 0
M  V30 3413 N 330.717 4.26778 -5.57499 0
M  V30 3414 H 335.557 0.671716 -2.90331 0
M  V30 3415 H 333.094 0.3201 -1.43575 0
M  V30 3416 H 335.052 3.14632 -2.73975 0
M  V30 3417 H 333.682 2.7663 -1.6636 0
M  V30 3418 H 332.734 1.2878 -3.57939 0
M  V30 3419 H 334.046 1.89344 -4.61466 0
M  V30 3420 H 333.2 4.23373 -4.34558 0
M  V30 3421 H 331.939 3.66837 -3.21374 0
M  V30 3422 H 330.944 2.23866 -5.02159 0
M  V30 3423 H 332.169 2.8332 -6.17176 0
M  V30 3424 H 330.115 4.54948 -4.72608 0
M  V30 3425 H 330.032 4.05005 -6.38362 0
M  V30 3426 H 331.3 5.12443 -5.87386 0
M  V30 3427 N 335.529 1.53961 0.336706 0
M  V30 3428 C 336.775 1.7179 1.07777 0
M  V30 3429 C 337.108 0.483263 1.88091 0
M  V30 3430 O 336.383 -0.519747 1.87427 0
M  V30 3431 C 336.666 2.98558 2.01334 0
M  V30 3432 C 336.519 4.32245 1.24437 0
M  V30 3433 C 337.838 3.21023 3.01052 0
M  V30 3434 H 334.957 0.625089 0.390426 0
M  V30 3435 H 337.599 1.86641 0.35567 0
M  V30 3436 H 335.749 2.86028 2.62908 0
M  V30 3437 H 337.421 4.56637 0.654243 0
M  V30 3438 H 335.664 4.30344 0.546458 0
M  V30 3439 H 336.335 5.17137 1.93063 0
M  V30 3440 H 338.811 3.32929 2.49595 0
M  V30 3441 H 337.687 4.11104 3.6371 0
M  V30 3442 H 337.948 2.37637 3.72802 0
M  V30 3443 N 337.007 -0.598083 1.45811 0
M  V30 3444 C 338.255 -1.35413 1.50026 0
M  V30 3445 C 338.576 -1.94444 0.147177 0
M  V30 3446 O 337.846 -1.77701 -0.824571 0
M  V30 3447 H 336.426 -0.502727 0.552517 0
M  V30 3448 H 339.088 -0.701606 1.81834 0
M  V30 3449 H 338.184 -2.16871 2.2444 0
M  V30 3450 N 338.485 -1.33259 -0.841409 0
M  V30 3451 C 339.733 -1.24326 -1.59334 0
M  V30 3452 C 340.054 0.191564 -1.94057 0
M  V30 3453 O 339.324 1.11967 -1.60749 0
M  V30 3454 H 337.904 -0.457174 -0.590763 0
M  V30 3455 H 340.566 -1.66947 -1.00571 0
M  V30 3456 H 339.662 -1.8352 -2.52442 0
M  V30 3457 N 339.963 1.05934 -1.16686 0
M  V30 3458 C 341.209 1.79065 -0.95203 0
M  V30 3459 C 341.542 1.87147 0.518629 0
M  V30 3460 O 340.817 1.36574 1.38484 0
M  V30 3461 C 341.1 3.23359 -1.58464 0
M  V30 3462 C 340.953 3.23336 -3.12689 0
M  V30 3463 C 342.272 4.21004 -1.28232 0
M  V30 3464 H 339.391 0.65005 -0.34728 0
M  V30 3465 H 342.033 1.23868 -1.44072 0
M  V30 3466 H 340.183 3.70493 -1.16908 0
M  V30 3467 H 341.855 2.84336 -3.6325 0
M  V30 3468 H 340.098 2.61886 -3.4583 0
M  V30 3469 H 340.769 4.25144 -3.52075 0
M  V30 3470 H 343.245 3.8233 -1.64203 0
M  V30 3471 H 342.121 5.20225 -1.75092 0
M  V30 3472 H 342.382 4.41639 -0.201791 0
M  V30 3473 N 341.441 0.965919 1.2453 0
M  V30 3474 C 342.391 0.465731 2.23193 0
M  V30 3475 C 343.375 -0.451277 1.54442 0
M  V30 3476 O 344.567 -0.282489 1.74731 0
M  V30 3477 C 341.696 -0.244511 3.42428 0
M  V30 3478 C 340.782 0.691222 4.18429 0
M  V30 3479 N 341.173 1.82771 4.71623 0
M  V30 3480 C 339.471 0.501649 4.4317 0
M  V30 3481 C 340.172 2.41285 5.29298 0
M  V30 3482 N 339.148 1.69819 5.16394 0
M  V30 3483 H 342.95 1.33291 2.61937 0
M  V30 3484 H 340.464 0.824789 1.39896 0
M  V30 3485 H 342.461 -0.620056 4.12263 0
M  V30 3486 H 341.121 -1.10815 3.05205 0
M  V30 3487 H 342.132 2.20929 4.68413 0
M  V30 3488 H 338.809 -0.318177 4.16286 0
M  V30 3489 H 340.199 3.37181 5.8117 0
M  V30 3490 N 342.919 -1.39368 0.735821 0
M  V30 3491 C 343.882 -2.2896 0.104874 0
M  V30 3492 C 344.882 -1.46347 -0.666274 0
M  V30 3493 O 346.072 -1.67014 -0.49517 0
M  V30 3494 C 343.204 -3.29857 -0.860656 0
M  V30 3495 H 344.397 -2.86259 0.894205 0
M  V30 3496 H 341.95 -1.48029 0.501704 0
M  V30 3497 H 342.685 -2.77615 -1.67631 0
M  V30 3498 H 342.47 -3.9087 -0.310327 0
M  V30 3499 H 343.96 -3.96893 -1.29867 0
M  V30 3500 N 344.397 -0.483516 -1.5 0
M  V30 3501 C 345.36 0.292965 -2.2732 0
M  V30 3502 C 346.36 0.909499 -1.32608 0
M  V30 3503 O 347.55 0.776745 -1.55924 0
M  V30 3504 C 344.682 1.41854 -3.09984 0
M  V30 3505 H 345.875 -0.385289 -2.97415 0
M  V30 3506 H 343.428 -0.237942 -1.54478 0
M  V30 3507 H 344.163 2.13148 -2.44414 0
M  V30 3508 H 343.948 0.982114 -3.79601 0
M  V30 3509 H 345.438 1.96597 -3.68429 0
M  V30 3510 N 345.875 1.56104 -0.216619 0
M  V30 3511 C 347.121 1.98466 0.417033 0
M  V30 3512 C 347.454 1.10403 1.59765 0
M  V30 3513 O 346.729 0.160632 1.93836 0
M  V30 3514 C 347.012 3.49769 0.85637 0
M  V30 3515 C 346.865 4.48606 -0.327546 0
M  V30 3516 C 348.184 4.05339 1.7143 0
M  V30 3517 H 345.303 0.721551 0.150112 0
M  V30 3518 H 347.945 1.87423 -0.311864 0
M  V30 3519 H 346.095 3.5931 1.47745 0
M  V30 3520 H 347.767 4.5108 -0.965618 0
M  V30 3521 H 346.01 4.22682 -0.975805 0
M  V30 3522 H 346.681 5.51995 0.0227149 0
M  V30 3523 H 349.157 3.98712 1.19031 0
M  V30 3524 H 348.033 5.11533 1.99061 0
M  V30 3525 H 348.294 3.51918 2.67593 0
M  V30 3526 N 347.353 -0.0568162 1.57498 0
M  V30 3527 C 348.599 -0.75422 1.88253 0
M  V30 3528 C 348.932 -1.76461 0.810865 0
M  V30 3529 O 348.207 -1.93691 -0.177259 0
M  V30 3530 C 348.49 -1.44878 3.2967 0
M  V30 3531 C 348.343 -0.453789 4.47505 0
M  V30 3532 C 349.662 -2.38994 3.69554 0
M  V30 3533 H 346.781 -0.272724 0.684683 0
M  V30 3534 H 349.423 -0.0172113 1.89992 0
M  V30 3535 H 347.573 -2.077 3.28318 0
M  V30 3536 H 349.245 0.170371 4.60985 0
M  V30 3537 H 347.488 0.229552 4.33192 0
M  V30 3538 H 348.159 -0.977699 5.43273 0
M  V30 3539 H 350.635 -1.86239 3.72095 0
M  V30 3540 H 349.511 -2.84587 4.69363 0
M  V30 3541 H 349.772 -3.24461 3.00296 0
M  V30 3542 N 348.832 -1.54138 -0.328536 0
M  V30 3543 C 350.06 -1.76062 -1.08673 0
M  V30 3544 C 350.475 -0.506852 -1.81869 0
M  V30 3545 O 349.832 0.522223 -1.74869 0
M  V30 3546 C 349.883 -2.95054 -2.08866 0
M  V30 3547 O 349.604 -4.15583 -1.38644 0
M  V30 3548 C 351.105 -3.2915 -2.96943 0
M  V30 3549 H 348.325 -0.587889 -0.323461 0
M  V30 3550 H 350.869 -2.0101 -0.376175 0
M  V30 3551 H 349.024 -2.72394 -2.75464 0
M  V30 3552 H 349.438 -4.82481 -2.05699 0
M  V30 3553 H 350.912 -4.15723 -3.63151 0
M  V30 3554 H 351.389 -2.461 -3.63774 0
M  V30 3555 H 351.995 -3.53871 -2.35914 0
M  V30 3556 N 350.31 0.590341 -1.46126 0
M  V30 3557 C 351.273 1.68194 -1.55703 0
M  V30 3558 C 352.273 1.54808 -0.434868 0
M  V30 3559 O 353.463 1.59564 -0.698928 0
M  V30 3560 C 350.595 3.07575 -1.47005 0
M  V30 3561 H 351.788 1.61064 -2.52979 0
M  V30 3562 H 349.341 0.807541 -1.33823 0
M  V30 3563 H 350.076 3.20268 -0.509785 0
M  V30 3564 H 349.861 3.187 -2.28414 0
M  V30 3565 H 351.351 3.87055 -1.56776 0
M  V30 3566 N 351.788 1.33704 0.83433 0
M  V30 3567 C 353.034 1.25603 1.59222 0
M  V30 3568 C 353.367 -0.176659 1.93395 0
M  V30 3569 O 352.642 -1.11915 1.59076 0
M  V30 3570 C 352.925 2.13576 2.89926 0
M  V30 3571 C 352.778 3.65326 2.62406 0
M  V30 3572 C 354.097 2.01238 3.91397 0
M  V30 3573 H 351.216 0.457613 0.577719 0
M  V30 3574 H 353.858 1.63848 0.961972 0
M  V30 3575 H 352.008 1.8109 3.43713 0
M  V30 3576 H 353.68 4.08124 2.15017 0
M  V30 3577 H 351.923 3.8698 1.96033 0
M  V30 3578 H 352.594 4.22232 3.55562 0
M  V30 3579 H 355.07 2.29738 3.46929 0
M  V30 3580 H 353.946 2.65036 4.80673 0
M  V30 3581 H 354.207 0.985951 4.30966 0
M  V30 3582 N 353.266 -1.05314 1.17247 0
M  V30 3583 C 354.491 -1.82509 0.985148 0
M  V30 3584 C 354.916 -1.82343 -0.461788 0
M  V30 3585 O 354.274 -1.23151 -1.33055 0
M  V30 3586 C 354.322 -3.26566 1.52929 0
M  V30 3587 O 353.426 -4.05666 0.742225 0
M  V30 3588 H 352.767 -0.564347 0.349869 0
M  V30 3589 H 355.297 -1.32718 1.55715 0
M  V30 3590 H 355.307 -3.77369 1.55103 0
M  V30 3591 H 353.982 -3.26001 2.58256 0
M  V30 3592 H 352.559 -3.64397 0.791794 0
M  V30 3593 N 354.744 -0.972509 -1.24016 0
M  V30 3594 C 355.691 -0.505969 -2.25186 0
M  V30 3595 C 356.661 0.451009 -1.5986 0
M  V30 3596 O 357.846 0.360307 -1.87367 0
M  V30 3597 C 354.986 0.193089 -3.44559 0
M  V30 3598 C 354.099 -0.803222 -4.24467 0
M  V30 3599 C 353.234 -0.0797793 -5.3114 0
M  V30 3600 C 352.273 -1.06583 -6.02749 0
M  V30 3601 N 351.41 -0.372074 -7.01113 0
M  V30 3602 H 356.25 -1.37351 -2.64459 0
M  V30 3603 H 353.787 -0.688419 -1.29997 0
M  V30 3604 H 355.745 0.615125 -4.1264 0
M  V30 3605 H 354.375 1.02455 -3.06109 0
M  V30 3606 H 353.427 -1.34368 -3.55878 0
M  V30 3607 H 354.739 -1.55494 -4.73944 0
M  V30 3608 H 353.893 0.400015 -6.0538 0
M  V30 3609 H 352.632 0.704597 -4.82583 0
M  V30 3610 H 351.637 -1.55645 -5.27309 0
M  V30 3611 H 352.862 -1.85074 -6.53395 0
M  V30 3612 H 350.808 0.393238 -6.5482 0
M  V30 3613 H 350.725 -1.06258 -7.48495 0
M  V30 3614 H 351.993 0.0855932 -7.79453 0
M  V30 3615 N 356.222 1.38976 -0.743202 0
M  V30 3616 C 357.633 1.83123 -0.363732 0
M  V30 3617 C 357.984 1.6205 1.10609 0
M  V30 3618 O 357.109 1.11606 1.854 0
M  V30 3619 C 357.704 3.32439 -0.653408 0
M  V30 3620 C 356.263 3.74974 -0.327338 0
M  V30 3621 C 355.41 2.61878 -0.911875 0
M  V30 3622 H 358.361 1.27852 -0.940191 0
M  V30 3623 H 358.382 3.80432 0.0720031 0
M  V30 3624 H 357.894 3.47745 -1.72323 0
M  V30 3625 H 355.995 3.65252 0.736314 0
M  V30 3626 H 356.108 4.72106 -0.815631 0
M  V30 3627 H 354.472 2.52448 -0.337944 0
M  V30 3628 H 355.255 2.79987 -1.98651 0
M  V30 3629 N 357.7 0.491464 1.49741 0
M  V30 3630 C 358.663 -0.280906 2.27472 0
M  V30 3631 C 359.663 -0.902454 1.33088 0
M  V30 3632 O 360.853 -0.768465 1.56334 0
M  V30 3633 C 357.985 -1.40209 3.10732 0
M  V30 3634 H 359.178 0.401056 2.97206 0
M  V30 3635 H 356.731 0.246131 1.5435 0
M  V30 3636 H 357.466 -2.11849 2.45541 0
M  V30 3637 H 357.251 -0.961969 3.80117 0
M  V30 3638 H 358.741 -1.9464 3.69466 0
M  V30 3639 N 359.178 -1.55987 0.224894 0
M  V30 3640 C 360.425 -1.9839 -0.4059 0
M  V30 3641 C 360.753 -1.11261 -1.59535 0
M  V30 3642 O 360.008 -0.158314 -1.95059 0
M  V30 3643 C 360.307 -3.46394 -0.880106 0
M  V30 3644 C 359.973 -4.5046 0.19918 0
M  V30 3645 C 358.635 -4.7864 0.495661 0
M  V30 3646 C 360.987 -5.12855 0.928939 0
M  V30 3647 C 358.315 -5.66497 1.52636 0
M  V30 3648 C 360.667 -6.01828 1.949 0
M  V30 3649 C 359.331 -6.28351 2.25236 0
M  V30 3650 H 358.601 -0.725961 -0.148529 0
M  V30 3651 H 361.248 -1.88668 0.328113 0
M  V30 3652 H 359.553 -3.53337 -1.69294 0
M  V30 3653 H 361.25 -3.76577 -1.37808 0
M  V30 3654 H 357.84 -4.28579 -0.0420526 0
M  V30 3655 H 362.024 -4.9115 0.713129 0
M  V30 3656 H 357.28 -5.8531 1.76698 0
M  V30 3657 H 361.454 -6.49225 2.51951 0
M  V30 3658 H 359.081 -6.96226 3.05244 0
M  V30 3659 N 360.656 0.0484629 -1.57525 0
M  V30 3660 C 361.588 1.08222 -2.02041 0
M  V30 3661 C 362.601 1.33621 -0.930012 0
M  V30 3662 O 363.79 1.3145 -1.20761 0
M  V30 3663 C 360.89 2.42818 -2.36416 0
M  V30 3664 C 360.063 2.37049 -3.67596 0
M  V30 3665 C 359.122 3.53937 -3.89378 0
M  V30 3666 O 358.148 3.34308 -4.60681 0
M  V30 3667 N 359.35 4.75126 -3.3352 0
M  V30 3668 H 362.115 0.702946 -2.9134 0
M  V30 3669 H 359.676 0.236745 -1.6016 0
M  V30 3670 H 361.668 3.197 -2.48141 0
M  V30 3671 H 360.238 2.72661 -1.52888 0
M  V30 3672 H 359.458 1.45395 -3.66407 0
M  V30 3673 H 360.746 2.30318 -4.53686 0
M  V30 3674 H 360.144 4.93976 -2.75688 0
M  V30 3675 H 358.701 5.49439 -3.50656 0
M  V30 3676 N 362.134 1.5431 0.320358 0
M  V30 3677 C 363.359 1.76954 1.08175 0
M  V30 3678 C 363.784 0.518193 1.80821 0
M  V30 3679 O 363.142 -0.530411 1.73368 0
M  V30 3680 C 363.19 2.96451 2.05303 0
M  V30 3681 O 362.294 2.68221 3.13259 0
M  V30 3682 H 361.635 0.586275 0.311733 0
M  V30 3683 H 364.165 2.01342 0.363676 0
M  V30 3684 H 364.175 3.23887 2.48116 0
M  V30 3685 H 362.85 3.87196 1.51829 0
M  V30 3686 H 361.427 2.51744 2.75099 0
M  V30 3687 N 363.613 -0.582584 1.46437 0
M  V30 3688 C 364.576 -1.67366 1.56592 0
M  V30 3689 C 365.576 -1.54575 0.443072 0
M  V30 3690 O 366.766 -1.59191 0.707381 0
M  V30 3691 C 363.898 -3.06791 1.48634 0
M  V30 3692 H 365.091 -1.5972 2.5383 0
M  V30 3693 H 362.644 -0.800432 1.34249 0
M  V30 3694 H 363.379 -3.19993 0.526763 0
M  V30 3695 H 363.164 -3.17484 2.30101 0
M  V30 3696 H 364.654 -3.86218 1.58826 0
M  V30 3697 N 365.091 -1.34144 -0.827227 0
M  V30 3698 C 366.321 -1.29138 -1.61267 0
M  V30 3699 C 366.729 0.137597 -1.88699 0
M  V30 3700 O 366.072 1.09379 -1.47587 0
M  V30 3701 C 366.134 -2.0097 -2.9808 0
M  V30 3702 C 365.798 -3.50242 -2.93563 0
M  V30 3703 C 366.795 -4.4523 -2.68452 0
M  V30 3704 C 364.48 -3.92592 -3.13331 0
M  V30 3705 C 366.474 -5.80542 -2.63154 0
M  V30 3706 C 364.161 -5.28005 -3.07658 0
M  V30 3707 C 365.159 -6.21792 -2.82602 0
M  V30 3708 O 364.847 -7.54723 -2.76853 0
M  V30 3709 H 364.579 -0.445851 -0.508127 0
M  V30 3710 H 367.133 -1.77263 -1.03763 0
M  V30 3711 H 365.363 -1.47451 -3.57484 0
M  V30 3712 H 367.052 -1.89309 -3.5905 0
M  V30 3713 H 367.818 -4.13832 -2.52919 0
M  V30 3714 H 363.697 -3.19994 -3.31851 0
M  V30 3715 H 367.241 -6.53717 -2.43516 0
M  V30 3716 H 363.138 -5.59023 -3.22743 0
M  V30 3717 H 363.906 -7.64409 -2.92611 0
M  V30 3718 N 366.569 1.04691 -1.17803 0
M  V30 3719 C 367.517 2.14665 -0.895635 0
M  V30 3720 C 368.511 1.68806 0.141679 0
M  V30 3721 O 369.717 1.79999 -0.00587914 0
M  V30 3722 H 366.092 0.701038 -0.272121 0
M  V30 3723 H 368.063 2.35685 -1.83017 0
M  V30 3724 C 366.812 3.45019 -0.430962 0
M  V30 3725 H 366.135 3.8071 -1.22064 0
M  V30 3726 H 367.575 4.23125 -0.272301 0
M  V30 3727 C 366.034 3.25943 0.852207 0
M  V30 3728 O 366.564 3.5296 1.91786 0
M  V30 3729 N 364.77 2.79304 0.802346 0
M  V30 3730 H 364.317 2.57518 -0.0650788 0
M  V30 3731 H 364.275 2.66921 1.66134 0
M  V30 3732 N 368.047 0.979072 1.23499 0
M  V30 3733 C 369.272 0.664845 1.96455 0
M  V30 3734 C 369.697 -0.761287 1.72006 0
M  V30 3735 O 369.055 -1.51837 0.990713 0
M  V30 3736 C 369.103 0.959479 3.47601 0
M  V30 3737 O 368.207 0.0508168 4.12369 0
M  V30 3738 H 367.548 0.250185 0.615064 0
M  V30 3739 H 370.078 1.31231 1.5697 0
M  V30 3740 H 370.088 0.895642 3.98048 0
M  V30 3741 H 368.763 1.99876 3.64723 0
M  V30 3742 H 367.34 0.16895 3.72517 0
M  V30 3743 N 369.525 -1.3858 0.750561 0
M  V30 3744 C 370.774 -1.99424 0.302172 0
M  V30 3745 C 371.087 -1.60254 -1.12152 0
M  V30 3746 O 372.293 -2.14046 -1.67023 0
M  V30 3747 C 370.749 -3.56558 0.489307 0
M  V30 3748 C 370.357 -4.04682 1.92189 0
M  V30 3749 C 372.101 -4.24374 0.103478 0
M  V30 3750 C 370.008 -5.54446 2.05775 0
M  V30 3751 H 368.938 -0.746046 0.10923 0
M  V30 3752 H 371.589 -1.58383 0.92667 0
M  V30 3753 H 369.971 -3.95472 -0.204329 0
M  V30 3754 H 371.145 -3.77065 2.64875 0
M  V30 3755 H 369.46 -3.4958 2.26236 0
M  V30 3756 H 372.057 -5.34384 0.183787 0
M  V30 3757 H 372.4 -4.05468 -0.943481 0
M  V30 3758 H 372.933 -3.90688 0.748854 0
M  V30 3759 H 369.672 -5.78252 3.08714 0
M  V30 3760 H 369.192 -5.83816 1.37546 0
M  V30 3761 H 370.871 -6.20099 1.84626 0
M  V30 3762 N 371.003 -0.499398 -1.49478 0
M  V30 3763 C 372.419 -0.155261 -1.58843 0
M  V30 3764 C 372.619 1.34008 -1.50479 0
M  V30 3765 O 371.675 2.11589 -1.37791 0
M  V30 3766 C 372.988 -0.730636 -2.91689 0
M  V30 3767 C 374.536 -0.696599 -3.0515 0
M  V30 3768 C 375.011 -1.25001 -4.40612 0
M  V30 3769 N 376.502 -1.21064 -4.47099 0
M  V30 3770 C 377.237 -1.60905 -5.50361 0
M  V30 3771 N 376.733 -2.08331 -6.60735 0
M  V30 3772 N 378.526 -1.52331 -5.41065 0
M  V30 3773 H 370.677 -1.47162 -1.53158 0
M  V30 3774 H 372.94 -0.610309 -0.725415 0
M  V30 3775 H 372.646 -1.77928 -3.03372 0
M  V30 3776 H 372.52 -0.190161 -3.7672 0
M  V30 3777 H 374.907 0.343204 -2.93097 0
M  V30 3778 H 374.988 -1.2742 -2.21806 0
M  V30 3779 H 374.632 -2.28859 -4.53416 0
M  V30 3780 H 374.562 -0.64836 -5.22593 0
M  V30 3781 H 377.053 -0.863128 -3.67911 0
M  V30 3782 H 377.366 -2.36805 -7.35624 0
M  V30 3783 H 375.711 -2.12304 -6.6178 0
M  V30 3784 H 378.902 -1.151 -4.53729 0
M  V30 3785 H 379.075 -1.83704 -6.21415 0
M  V30 3786 N 372.481 1.55866 -0.233164 0
M  V30 3787 C 373.897 1.59133 0.121988 0
M  V30 3788 C 374.097 1.25016 1.58029 0
M  V30 3789 O 373.153 0.990922 2.32243 0
M  V30 3790 C 374.466 2.99932 -0.214792 0
M  V30 3791 C 376.014 3.12601 -0.157971 0
M  V30 3792 C 376.489 4.55597 -0.46859 0
M  V30 3793 N 377.98 4.61305 -0.418585 0
M  V30 3794 C 378.715 5.69903 -0.63227 0
M  V30 3795 N 378.211 6.86819 -0.90835 0
M  V30 3796 N 380.004 5.59264 -0.563913 0
M  V30 3797 H 372.155 1.76315 -1.18434 0
M  V30 3798 H 374.418 0.820093 -0.475553 0
M  V30 3799 H 374.124 3.29588 -1.22739 0
M  V30 3800 H 373.998 3.74327 0.464691 0
M  V30 3801 H 376.385 2.82735 0.845283 0
M  V30 3802 H 376.466 2.40511 -0.871102 0
M  V30 3803 H 376.11 4.86182 -1.46934 0
M  V30 3804 H 376.04 5.25928 0.265865 0
M  V30 3805 H 378.531 3.77297 -0.213368 0
M  V30 3806 H 378.844 7.65507 -1.05919 0
M  V30 3807 H 377.189 6.88536 -0.945673 0
M  V30 3808 H 380.38 4.66802 -0.348372 0
M  V30 3809 H 380.553 6.43831 -0.733847 0
M  V30 3810 N 373.959 -0.0401083 1.57549 0
M  V30 3811 C 375.207 -0.731677 1.8839 0
M  V30 3812 C 375.528 -1.76481 0.829425 0
M  V30 3813 O 374.798 -1.95411 -0.1383 0
M  V30 3814 H 373.378 -0.273225 0.695239 0
M  V30 3815 H 376.04 -0.00867725 1.94898 0
M  V30 3816 H 375.136 -1.22816 2.86919 0
M  V30 3817 N 375.437 -1.54477 -0.31217 0
M  V30 3818 C 376.685 -1.72884 -1.04668 0
M  V30 3819 C 377.006 -0.511477 -1.88173 0
M  V30 3820 O 376.276 0.474407 -1.90069 0
M  V30 3821 H 374.856 -0.637461 -0.389425 0
M  V30 3822 H 377.518 -1.91807 -0.345852 0
M  V30 3823 H 376.614 -2.61334 -1.70619 0
M  V30 3824 N 376.915 0.57481 -1.46744 0
M  V30 3825 C 377.878 1.66533 -1.57478 0
M  V30 3826 C 378.878 1.54338 -0.451263 0
M  V30 3827 O 380.068 1.58814 -0.715813 0
M  V30 3828 C 377.2 3.05999 -1.50259 0
M  V30 3829 H 378.393 1.58372 -2.54673 0
M  V30 3830 H 375.946 0.793301 -1.34672 0
M  V30 3831 H 376.681 3.19709 -0.543725 0
M  V30 3832 H 376.466 3.16259 -2.31781 0
M  V30 3833 H 377.956 3.8537 -1.60872 0
M  V30 3834 N 378.394 1.34581 0.820102 0
M  V30 3835 C 379.634 1.28448 1.58998 0
M  V30 3836 C 379.998 -0.142883 1.91468 0
M  V30 3837 O 381.199 -0.328422 2.66786 0
M  V30 3838 C 379.47 2.153 2.85273 0
M  V30 3839 S 381.029 2.26548 3.75794 0
M  V30 3840 H 377.847 0.456685 0.54494 0
M  V30 3841 H 380.449 1.69825 0.968487 0
M  V30 3842 H 379.153 3.18008 2.59421 0
M  V30 3843 H 378.684 1.7483 3.52417 0
M  V30 3844 H 380.699 1.44034 4.74835 0
M  V30 3845 N 379.872 -1.04064 1.18357 0
M  V30 3846 C 381.118 -1.77528 0.980397 0
M  V30 3847 C 381.451 -1.87948 -0.48879 0
M  V30 3848 O 380.726 -1.3876 -1.36293 0
M  V30 3849 C 381.009 -3.20797 1.63588 0
M  V30 3850 C 380.862 -3.1832 3.17793 0
M  V30 3851 C 382.181 -4.18911 1.34914 0
M  V30 3852 H 379.3 -0.644443 0.357578 0
M  V30 3853 H 381.942 -1.2156 1.46024 0
M  V30 3854 H 380.092 -3.68586 1.22788 0
M  V30 3855 H 381.764 -2.78521 3.67728 0
M  V30 3856 H 380.007 -2.56351 3.49952 0
M  V30 3857 H 380.678 -4.19489 3.58794 0
M  V30 3858 H 383.154 -3.7967 1.70265 0
M  V30 3859 H 382.03 -5.17374 1.83346 0
M  V30 3860 H 382.291 -4.41262 0.272027 0
M  V30 3861 N 381.35 -0.985608 -1.22978 0
M  V30 3862 C 382.28 -0.549649 -2.26939 0
M  V30 3863 C 383.261 0.419803 -1.64838 0
M  V30 3864 O 384.446 0.31203 -1.91677 0
M  V30 3865 C 381.576 0.143652 -3.47003 0
M  V30 3866 C 380.53 -0.743606 -4.21491 0
M  V30 3867 C 379.856 0.0822027 -5.34637 0
M  V30 3868 C 381.156 -2.03694 -4.80943 0
M  V30 3869 H 382.85 -1.41862 -2.63658 0
M  V30 3870 H 380.396 -0.683571 -1.26741 0
M  V30 3871 H 382.349 0.459985 -4.18882 0
M  V30 3872 H 381.073 1.04711 -3.09359 0
M  V30 3873 H 379.732 -1.04347 -3.51436 0
M  V30 3874 H 379.38 0.986359 -4.93234 0
M  V30 3875 H 379.08 -0.508377 -5.85397 0
M  V30 3876 H 380.604 0.392797 -6.09335 0
M  V30 3877 H 382.018 -1.78504 -5.44802 0
M  V30 3878 H 380.415 -2.57573 -5.42011 0
M  V30 3879 H 381.485 -2.72042 -4.01399 0
M  V30 3880 N 382.828 1.3818 -0.7579 0
M  V30 3881 C 384.074 2.00316 -0.316453 0
M  V30 3882 C 384.407 1.60026 1.10025 0
M  V30 3883 O 383.682 0.839835 1.75434 0
M  V30 3884 C 383.965 3.57349 -0.444245 0
M  V30 3885 C 383.818 4.07591 -1.90236 0
M  V30 3886 C 385.137 4.3981 0.1598 0
M  V30 3887 H 382.256 0.727741 -0.116459 0
M  V30 3888 H 384.898 1.6406 -0.958352 0
M  V30 3889 H 383.048 3.88365 0.102233 0
M  V30 3890 H 384.72 3.87199 -2.50748 0
M  V30 3891 H 382.963 3.60297 -2.41595 0
M  V30 3892 H 383.634 5.16677 -1.94291 0
M  V30 3893 H 386.11 4.14971 -0.306314 0
M  V30 3894 H 384.986 5.48885 0.0401675 0
M  V30 3895 H 385.247 4.24102 1.24859 0
M  V30 3896 N 384.306 0.507319 1.49211 0
M  V30 3897 C 385.554 -0.0348839 2.0207 0
M  V30 3898 C 385.875 -1.36898 1.38866 0
M  V30 3899 O 385.145 -1.88133 0.546151 0
M  V30 3900 H 383.725 -0.0158812 0.746831 0
M  V30 3901 H 386.387 0.665998 1.83168 0
M  V30 3902 H 385.483 -0.159917 3.1169 0
M  V30 3903 N 385.784 -1.5574 0.241426 0
M  V30 3904 C 386.714 -2.24133 -0.654722 0
M  V30 3905 C 387.695 -1.21974 -1.1856 0
M  V30 3906 O 388.88 -1.50612 -1.22595 0
M  V30 3907 C 386.01 -2.93659 -1.85423 0
M  V30 3908 C 384.964 -4.0246 -1.45636 0
M  V30 3909 C 384.29 -4.59383 -2.73626 0
M  V30 3910 C 385.59 -5.18468 -0.631506 0
M  V30 3911 H 387.284 -2.99281 -0.0844353 0
M  V30 3912 H 384.83 -1.43947 -0.0391707 0
M  V30 3913 H 386.783 -3.40203 -2.48676 0
M  V30 3914 H 385.507 -2.15991 -2.44981 0
M  V30 3915 H 384.166 -3.56676 -0.847202 0
M  V30 3916 H 383.814 -3.78422 -3.3137 0
M  V30 3917 H 383.514 -5.32826 -2.4773 0
M  V30 3918 H 385.038 -5.08658 -3.37786 0
M  V30 3919 H 386.452 -5.61272 -1.1682 0
M  V30 3920 H 384.849 -5.98266 -0.468831 0
M  V30 3921 H 385.919 -4.8358 0.357506 0
M  V30 3922 N 387.262 0.0317525 -1.57568 0
M  V30 3923 C 388.673 0.578692 -1.77505 0
M  V30 3924 C 389.024 1.75749 -0.872164 0
M  V30 3925 O 388.149 2.16298 -0.0663106 0
M  V30 3926 C 388.744 1.05658 -3.21904 0
M  V30 3927 C 387.303 1.54906 -3.43047 0
M  V30 3928 C 386.45 0.485939 -2.73009 0
M  V30 3929 H 389.401 -0.194475 -1.57504 0
M  V30 3930 H 389.422 1.92404 -3.28269 0
M  V30 3931 H 388.934 0.198422 -3.87592 0
M  V30 3932 H 387.035 2.42915 -2.82529 0
M  V30 3933 H 387.148 1.59841 -4.5165 0
M  V30 3934 H 385.512 0.940354 -2.36705 0
M  V30 3935 H 386.295 -0.362709 -3.41379 0
M  V30 3936 N 388.74 1.54641 0.303973 0
M  V30 3937 C 390.151 1.64811 0.877163 0
M  V30 3938 C 390.502 0.554838 1.88191 0
M  V30 3939 O 389.627 -0.309033 2.14182 0
M  V30 3940 C 390.222 2.9876 1.59775 0
M  V30 3941 C 388.781 3.11061 2.11938 0
M  V30 3942 C 387.928 2.60479 0.951097 0
M  V30 3943 H 390.879 1.58493 0.0810486 0
M  V30 3944 H 390.9 2.90017 2.46314 0
M  V30 3945 H 390.412 3.7831 0.866226 0
M  V30 3946 H 388.513 2.36225 2.88146 0
M  V30 3947 H 388.626 4.17171 2.35595 0
M  V30 3948 H 386.99 2.16859 1.33583 0
M  V30 3949 H 387.773 3.42504 0.233581 0
M  V30 3950 N 390.218 -0.567019 1.47046 0
M  V30 3951 C 391.128 -1.70247 1.6141 0
M  V30 3952 C 392.144 -1.66746 0.497157 0
M  V30 3953 O 393.32 -1.86371 0.763389 0
M  V30 3954 C 390.385 -3.06756 1.61561 0
M  V30 3955 C 389.446 -3.21399 2.84607 0
M  V30 3956 C 388.679 -4.51396 2.84741 0
M  V30 3957 O 388.902 -5.36255 1.94388 0
M  V30 3958 O 387.836 -4.69621 3.76483 0
M  V30 3959 H 391.662 -1.61073 2.57467 0
M  V30 3960 H 389.247 -0.735894 1.30019 0
M  V30 3961 H 391.129 -3.8801 1.64396 0
M  V30 3962 H 389.804 -3.16333 0.686684 0
M  V30 3963 H 388.711 -2.39579 2.8732 0
M  V30 3964 H 390.044 -3.16721 3.76761 0
M  V30 3965 N 391.696 -1.35014 -0.812953 0
M  V30 3966 C 392.606 -1.2951 -1.95613 0
M  V30 3967 C 393.622 -0.20107 -1.72834 0
M  V30 3968 O 394.798 -0.42932 -1.96771 0
M  V30 3969 C 391.863 -1.06033 -3.30088 0
M  V30 3970 C 390.924 -2.24688 -3.65805 0
M  V30 3971 C 390.157 -2.02322 -4.93864 0
M  V30 3972 O 390.38 -0.986464 -5.61805 0
M  V30 3973 O 389.314 -2.89525 -5.27692 0
M  V30 3974 H 393.14 -2.25705 -2.03202 0
M  V30 3975 H 390.725 -1.15321 -0.949811 0
M  V30 3976 H 392.607 -0.94763 -4.10607 0
M  V30 3977 H 391.282 -0.128852 -3.23443 0
M  V30 3978 H 390.189 -2.41521 -2.85689 0
M  V30 3979 H 391.522 -3.16261 -3.77147 0
M  V30 3980 N 393.175 1.03435 -1.18907 0
M  V30 3981 C 394.108 2.11162 -0.86521 0
M  V30 3982 C 395.086 1.6165 0.175473 0
M  V30 3983 O 396.27 1.88425 0.0530129 0
M  V30 3984 C 393.397 3.37423 -0.293868 0
M  V30 3985 C 392.443 4.05795 -1.31274 0
M  V30 3986 S 393.276 4.52027 -2.8711 0
M  V30 3987 C 394.432 5.81513 -2.31504 0
M  V30 3988 H 394.665 2.38308 -1.77754 0
M  V30 3989 H 392.198 1.16295 -1.01562 0
M  V30 3990 H 394.156 4.1049 0.0292572 0
M  V30 3991 H 392.817 3.0838 0.596682 0
M  V30 3992 H 392.01 4.96574 -0.86198 0
M  V30 3993 H 391.612 3.38874 -1.58242 0
M  V30 3994 H 393.904 6.55784 -1.70157 0
M  V30 3995 H 394.847 6.3136 -3.20608 0
M  V30 3996 H 395.255 5.36921 -1.74286 0
M  V30 3997 N 394.653 0.992116 1.22453 0
M  V30 3998 C 396.064 0.702776 1.72968 0
M  V30 3999 C 396.415 -0.780399 1.80012 0
M  V30 4000 O 395.54 -1.61007 1.44589 0
M  V30 4001 C 396.135 1.26903 3.14135 0
M  V30 4002 C 394.694 1.02909 3.62059 0
M  V30 4003 C 393.841 1.38969 2.39964 0
M  V30 4004 H 396.792 1.16457 1.07812 0
M  V30 4005 H 396.813 0.647223 3.74955 0
M  V30 4006 H 396.325 2.34851 3.08977 0
M  V30 4007 H 394.426 -0.0337979 3.72585 0
M  V30 4008 H 394.539 1.69191 4.48231 0
M  V30 4009 H 392.903 0.808279 2.41535 0
M  V30 4010 H 393.686 2.4792 2.37467 0
M  V30 4011 N 396.131 -1.37776 0.765217 0
M  V30 4012 C 397.38 -1.99092 0.323307 0
M  V30 4013 C 397.693 -1.61434 -1.10446 0
M  V30 4014 O 398.899 -2.15805 -1.64743 0
M  V30 4015 C 397.355 -3.56019 0.527098 0
M  V30 4016 C 396.963 -4.0262 1.96471 0
M  V30 4017 C 398.707 -4.2424 0.148483 0
M  V30 4018 C 396.614 -5.52233 2.11644 0
M  V30 4019 H 395.544 -0.744846 0.117137 0
M  V30 4020 H 398.195 -1.57391 0.943417 0
M  V30 4021 H 396.577 -3.95667 -0.162372 0
M  V30 4022 H 397.751 -3.74234 2.68859 0
M  V30 4023 H 396.066 -3.47161 2.29931 0
M  V30 4024 H 398.663 -5.34159 0.240456 0
M  V30 4025 H 399.006 -4.06446 -0.900422 0
M  V30 4026 H 399.539 -3.89872 0.79025 0
M  V30 4027 H 396.278 -5.74945 3.1483 0
M  V30 4028 H 395.798 -5.82324 1.4373 0
M  V30 4029 H 397.477 -6.18106 1.91193 0
M  V30 4030 N 397.609 -0.515225 -1.4894 0
M  V30 4031 C 399.02 -0.0710067 -1.86565 0
M  V30 4032 C 399.371 1.34733 -1.42623 0
M  V30 4033 O 398.496 2.00653 -0.810379 0
M  V30 4034 C 399.091 -0.122083 -3.3858 0
M  V30 4035 C 397.65 0.266863 -3.75453 0
M  V30 4036 C 396.797 -0.488376 -2.72966 0
M  V30 4037 H 399.748 -0.727266 -1.41055 0
M  V30 4038 H 399.769 0.669818 -3.74558 0
M  V30 4039 H 399.281 -1.15448 -3.70531 0
M  V30 4040 H 397.382 1.30196 -3.49113 0
M  V30 4041 H 397.495 -0.0624811 -4.79059 0
M  V30 4042 H 395.859 0.0635622 -2.54621 0
M  V30 4043 H 396.642 -1.52113 -3.07761 0
M  V30 4044 N 399.087 1.5561 -0.249682 0
M  V30 4045 C 400.336 1.98187 0.37479 0
M  V30 4046 C 400.649 1.14111 1.58865 0
M  V30 4047 O 401.855 1.46714 2.28445 0
M  V30 4048 C 400.311 3.52661 0.718192 0
M  V30 4049 C 399.919 4.45481 -0.474428 0
M  V30 4050 C 401.663 4.03888 1.3067 0
M  V30 4051 C 399.57 5.91303 -0.107026 0
M  V30 4052 H 398.5 0.740159 0.143808 0
M  V30 4053 H 401.151 1.80125 -0.350336 0
M  V30 4054 H 399.533 3.66429 1.50152 0
M  V30 4055 H 400.707 4.43473 -1.25172 0
M  V30 4056 H 399.022 4.04751 -0.978052 0
M  V30 4057 H 401.619 5.10358 1.59496 0
M  V30 4058 H 401.962 3.51401 2.23211 0
M  V30 4059 H 402.495 3.93457 0.586211 0
M  V30 4060 H 399.234 6.47833 -0.999642 0
M  V30 4061 H 398.754 5.9644 0.634013 0
M  V30 4062 H 400.433 6.46258 0.309807 0
M  V30 4063 N 400.565 -0.0233959 1.57583 0
M  V30 4064 C 401.812 -0.713063 1.8953 0
M  V30 4065 C 402.14 -1.75056 0.847673 0
M  V30 4066 O 401.395 -1.95119 -0.150636 0
M  V30 4067 C 401.694 -1.41428 3.28227 0
M  V30 4068 C 401.36 -0.512222 4.47981 0
M  V30 4069 C 400.022 -0.263785 4.80476 0
M  V30 4070 C 402.374 0.110248 5.21083 0
M  V30 4071 C 399.702 0.615804 5.83459 0
M  V30 4072 C 402.054 0.977573 6.25001 0
M  V30 4073 C 400.718 1.23542 6.55968 0
M  V30 4074 H 399.988 -0.260928 0.69354 0
M  V30 4075 H 402.635 0.0271047 1.91481 0
M  V30 4076 H 400.94 -2.22791 3.22291 0
M  V30 4077 H 402.637 -1.95355 3.50196 0
M  V30 4078 H 399.227 -0.716013 4.22577 0
M  V30 4079 H 403.411 -0.0687137 4.96252 0
M  V30 4080 H 398.667 0.82382 6.05824 0
M  V30 4081 H 402.841 1.46638 6.80786 0
M  V30 4082 H 400.468 1.91871 7.35588 0
M  V30 4083 N 402.043 -1.548 -0.295768 0
M  V30 4084 C 403.32 -1.65014 -1.05023 0
M  V30 4085 C 403.7 -0.501805 -2.05049 0
M  V30 4086 O 403.048 0.500869 -2.22943 0
M  V30 4087 C 403.258 -3.03252 -1.72741 0
M  V30 4088 C 404.606 -3.60242 -2.24746 0
M  V30 4089 O 405.63 -3.05737 -1.82765 0
M  V30 4090 O 404.489 -4.55687 -3.01681 0
M  V30 4091 H 401.583 -0.669314 -0.485744 0
M  V30 4092 H 404.129 -1.67144 -0.293438 0
M  V30 4093 H 402.901 -3.7827 -1.00138 0
M  V30 4094 H 402.524 -3.04922 -2.55163 0
M  V30 4095 N 403.521 0.559213 -1.47345 0
M  V30 4096 C 404.749 1.34194 -1.57479 0
M  V30 4097 C 405.164 1.87463 -0.224261 0
M  V30 4098 O 404.521 1.64888 0.782185 0
M  V30 4099 C 404.572 2.51324 -2.59843 0
M  V30 4100 O 404.293 2.00256 -3.89653 0
M  V30 4101 C 405.794 3.43563 -2.80142 0
M  V30 4102 H 403.014 0.409136 -0.531835 0
M  V30 4103 H 405.558 0.677609 -1.92947 0
M  V30 4104 H 403.713 3.13699 -2.27314 0
M  V30 4105 H 404.127 2.76708 -4.4557 0
M  V30 4106 H 405.601 4.2217 -3.55635 0
M  V30 4107 H 406.078 3.9698 -1.87892 0
M  V30 4108 H 406.684 2.87005 -3.1386 0
M  V30 4109 N 404.999 1.35443 0.805782 0
M  V30 4110 C 406.245 1.28952 1.56522 0
M  V30 4111 C 406.578 -0.135597 1.93726 0
M  V30 4112 O 405.853 -1.08516 1.61414 0
M  V30 4113 C 406.136 2.19678 2.85331 0
M  V30 4114 C 405.989 3.7081 2.54598 0
M  V30 4115 C 407.308 2.09495 3.8704 0
M  V30 4116 H 404.427 0.469764 0.567883 0
M  V30 4117 H 407.069 1.65851 0.927001 0
M  V30 4118 H 405.219 1.8834 3.39795 0
M  V30 4119 H 406.891 4.12593 2.06312 0
M  V30 4120 H 405.134 3.91051 1.8778 0
M  V30 4121 H 405.805 4.29679 3.46525 0
M  V30 4122 H 408.281 2.37045 3.41978 0
M  V30 4123 H 407.157 2.75173 4.74943 0
M  V30 4124 H 407.418 1.07714 4.28777 0
M  V30 4125 N 406.477 -1.02803 1.19454 0
M  V30 4126 C 407.407 -2.12999 0.956758 0
M  V30 4127 C 408.388 -1.69743 -0.110188 0
M  V30 4128 O 409.573 -1.94148 0.0450038 0
M  V30 4129 C 406.703 -3.43746 0.495553 0
M  V30 4130 C 405.657 -4.00688 1.50443 0
M  V30 4131 C 404.983 -5.27067 0.900275 0
M  V30 4132 C 406.283 -4.35397 2.8849 0
M  V30 4133 H 407.977 -2.33148 1.87836 0
M  V30 4134 H 405.523 -1.12045 0.904539 0
M  V30 4135 H 407.476 -4.2021 0.316493 0
M  V30 4136 H 406.2 -3.23321 -0.461646 0
M  V30 4137 H 404.859 -3.2632 1.67065 0
M  V30 4138 H 404.507 -5.02959 -0.064503 0
M  V30 4139 H 404.207 -5.66127 1.57397 0
M  V30 4140 H 405.731 -6.06196 0.73203 0
M  V30 4141 H 407.145 -5.02795 2.75446 0
M  V30 4142 H 405.542 -4.85541 3.52661 0
M  V30 4143 H 406.612 -3.44662 3.41081 0
M  V30 4144 N 407.956 -0.998596 -1.21925 0
M  V30 4145 C 408.904 -0.546641 -2.26085 0
M  V30 4146 C 409.898 0.405576 -1.64473 0
M  V30 4147 O 411.104 0.277471 -1.77849 0
M  V30 4148 H 407.479 -0.158403 -0.735127 0
M  V30 4149 H 409.45 -1.43645 -2.61551 0
M  V30 4150 C 408.199 0.117388 -3.47502 0
M  V30 4151 H 407.522 -0.606277 -3.95176 0
M  V30 4152 H 408.962 0.396993 -4.22137 0
M  V30 4153 C 407.421 1.35455 -3.0847 0
M  V30 4154 O 407.951 2.44944 -3.18379 0
M  V30 4155 N 406.157 1.23191 -2.63196 0
M  V30 4156 H 405.704 0.341006 -2.55333 0
M  V30 4157 H 405.662 2.06071 -2.37449 0
M  V30 4158 N 409.434 1.37368 -0.772513 0
M  V30 4159 C 410.682 1.99279 -0.336516 0
M  V30 4160 C 411.003 1.6163 1.09091 0
M  V30 4161 O 410.273 0.882109 1.74916 0
M  V30 4162 H 408.853 0.737063 -0.121435 0
M  V30 4163 H 411.515 1.67836 -0.990809 0
M  V30 4164 H 410.611 3.09332 -0.414763 0
M  V30 4165 N 410.912 0.523116 1.48665 0
M  V30 4166 C 412.161 -0.01544 2.01694 0
M  V30 4167 C 412.474 -1.35975 1.40606 0
M  V30 4168 O 413.68 -1.98627 1.85093 0
M  V30 4169 C 412.136 -0.0779303 3.59816 0
M  V30 4170 C 411.744 1.26107 4.29885 0
M  V30 4171 C 413.488 -0.565678 4.20714 0
M  V30 4172 C 411.395 1.15954 5.79921 0
M  V30 4173 H 410.325 -0.00954163 0.75394 0
M  V30 4174 H 412.976 0.665865 1.70993 0
M  V30 4175 H 411.358 -0.824165 3.87329 0
M  V30 4176 H 412.532 2.02233 4.14051 0
M  V30 4177 H 410.847 1.68401 3.80828 0
M  V30 4178 H 413.444 -0.6595 5.30617 0
M  V30 4179 H 413.787 -1.56984 3.85567 0
M  V30 4180 H 414.32 0.12467 3.97605 0
M  V30 4181 H 411.059 2.13864 6.19631 0
M  V30 4182 H 410.579 0.439529 5.98187 0
M  V30 4183 H 412.258 0.847361 6.41427 0
M  V30 4184 N 412.39 -1.55475 0.257931 0
M  V30 4185 C 413.337 -2.21837 -0.636939 0
M  V30 4186 C 414.307 -1.18596 -1.16294 0
M  V30 4187 O 415.492 -1.47081 -1.21539 0
M  V30 4188 C 412.632 -2.9301 -1.82317 0
M  V30 4189 C 411.745 -4.10931 -1.33265 0
M  V30 4190 C 410.88 -4.69791 -2.47931 0
M  V30 4191 C 409.919 -5.7994 -1.95796 0
M  V30 4192 N 409.056 -6.32935 -3.0387 0
M  V30 4193 H 413.896 -2.9793 -0.0643591 0
M  V30 4194 H 411.433 -1.47086 -0.0200031 0
M  V30 4195 H 413.391 -3.3248 -2.52018 0
M  V30 4196 H 412.021 -2.1937 -2.36805 0
M  V30 4197 H 411.073 -3.76699 -0.52931 0
M  V30 4198 H 412.385 -4.90417 -0.910654 0
M  V30 4199 H 411.539 -5.11892 -3.25656 0
M  V30 4200 H 410.278 -3.89545 -2.93438 0
M  V30 4201 H 409.283 -5.37305 -1.16546 0
M  V30 4202 H 410.508 -6.62043 -1.51246 0
M  V30 4203 H 408.454 -5.55591 -3.48791 0
M  V30 4204 H 408.371 -7.07645 -2.66035 0
M  V30 4205 H 409.639 -6.79695 -3.81621 0
M  V30 4206 N 413.868 0.0150385 -1.57593 0
M  V30 4207 C 415.117 0.702115 -1.89085 0
M  V30 4208 C 415.43 1.75764 -0.858277 0
M  V30 4209 O 416.636 2.49829 -1.0629 0
M  V30 4210 C 415.092 1.29992 -3.35604 0
M  V30 4211 C 414.7 0.280007 -4.47124 0
M  V30 4212 C 416.444 1.96606 -3.76227 0
M  V30 4213 C 414.351 0.886949 -5.84711 0
M  V30 4214 H 413.281 0.265997 -0.705522 0
M  V30 4215 H 415.932 -0.0430408 -1.8345 0
M  V30 4216 H 414.314 2.09525 -3.36029 0
M  V30 4217 H 415.488 -0.489631 -4.58191 0
M  V30 4218 H 413.803 -0.284835 -4.15425 0
M  V30 4219 H 416.4 2.42893 -4.76347 0
M  V30 4220 H 416.743 2.79024 -3.08952 0
M  V30 4221 H 417.276 1.23828 -3.78036 0
M  V30 4222 H 414.015 0.101876 -6.55421 0
M  V30 4223 H 413.535 1.6261 -5.77337 0
M  V30 4224 H 415.214 1.39011 -6.3189 0
M  V30 4225 N 415.346 1.54954 0.287554 0
M  V30 4226 C 416.595 1.74081 1.01877 0
M  V30 4227 C 416.908 0.541135 1.87966 0
M  V30 4228 O 418.114 0.614491 2.64455 0
M  V30 4229 C 416.57 3.08042 1.86113 0
M  V30 4230 C 416.178 4.35531 1.04961 0
M  V30 4231 C 417.922 3.36523 2.58752 0
M  V30 4232 C 415.829 5.60538 1.88551 0
M  V30 4233 H 414.759 0.64884 0.384087 0
M  V30 4234 H 417.41 1.81426 0.275101 0
M  V30 4235 H 415.792 2.94696 2.64519 0
M  V30 4236 H 416.966 4.59751 0.31074 0
M  V30 4237 H 415.281 4.14085 0.43843 0
M  V30 4238 H 417.878 4.27122 3.21668 0
M  V30 4239 H 418.221 2.56 3.28283 0
M  V30 4240 H 418.754 3.50901 1.87386 0
M  V30 4241 H 415.493 6.43767 1.23466 0
M  V30 4242 H 415.013 5.40483 2.60074 0
M  V30 4243 H 416.692 5.98297 2.46273 0
M  V30 4244 N 416.824 -0.551391 1.4764 0
M  V30 4245 C 418.072 -1.30572 1.54258 0
M  V30 4246 C 418.393 -1.93877 0.208963 0
M  V30 4247 O 417.663 -1.80234 -0.767619 0
M  V30 4248 H 416.243 -0.484894 0.568231 0
M  V30 4249 H 418.905 -0.643402 1.83974 0
M  V30 4250 H 418.001 -2.09621 2.31226 0
M  V30 4251 N 418.302 -1.35869 -0.798587 0
M  V30 4252 C 419.527 -1.32883 -1.59238 0
M  V30 4253 C 419.952 0.0894587 -1.87887 0
M  V30 4254 O 419.31 1.05869 -1.47178 0
M  V30 4255 C 419.358 -2.14892 -2.89575 0
M  V30 4256 O 418.462 -1.53512 -3.82763 0
M  V30 4257 H 417.803 -0.455236 -0.48338 0
M  V30 4258 H 420.333 -1.79024 -0.990539 0
M  V30 4259 H 420.343 -2.27139 -3.38928 0
M  V30 4260 H 419.018 -3.17998 -2.68049 0
M  V30 4261 H 417.595 -1.50153 -3.41334 0
M  V30 4262 N 419.78 1.02168 -1.19998 0
M  V30 4263 C 421.029 1.75091 -1.0013 0
M  V30 4264 C 421.342 1.89923 0.467835 0
M  V30 4265 O 422.548 2.59888 0.785515 0
M  V30 4266 C 421.004 3.14892 -1.74273 0
M  V30 4267 C 420.612 3.0809 -3.25245 0
M  V30 4268 C 422.356 3.9206 -1.62755 0
M  V30 4269 C 420.263 4.42867 -3.91948 0
M  V30 4270 H 419.193 0.656394 -0.37103 0
M  V30 4271 H 421.844 1.14284 -1.43567 0
M  V30 4272 H 420.226 3.7621 -1.2362 0
M  V30 4273 H 421.4 2.5611 -3.83072 0
M  V30 4274 H 419.715 2.44416 -3.3712 0
M  V30 4275 H 422.312 4.91764 -2.09934 0
M  V30 4276 H 422.655 4.12199 -0.582894 0
M  V30 4277 H 423.188 3.37359 -2.10793 0
M  V30 4278 H 419.927 4.27931 -4.96543 0
M  V30 4279 H 419.447 4.94874 -3.3891 0
M  V30 4280 H 421.126 5.11728 -3.95909 0
M  V30 4281 N 421.258 1.00505 1.21394 0
M  V30 4282 C 422.504 0.688793 1.90745 0
M  V30 4283 C 422.837 -0.778486 1.77914 0
M  V30 4284 O 422.112 -1.56433 1.15581 0
M  V30 4285 C 422.395 1.11063 3.42545 0
M  V30 4286 C 422.248 2.63737 3.64367 0
M  V30 4287 C 423.567 0.673059 4.34923 0
M  V30 4288 H 420.686 0.251702 0.692687 0
M  V30 4289 H 423.328 1.25074 1.43026 0
M  V30 4290 H 421.478 0.632508 3.83317 0
M  V30 4291 H 423.15 3.19313 3.32922 0
M  V30 4292 H 421.393 3.05248 3.08231 0
M  V30 4293 H 422.064 2.88305 4.70727 0
M  V30 4294 H 424.54 1.08392 4.01734 0
M  V30 4295 H 423.416 0.996383 5.39781 0
M  V30 4296 H 423.677 -0.425808 4.40045 0
M  V30 4297 N 422.737 -1.36956 0.779787 0
M  V30 4298 C 423.985 -1.99097 0.347079 0
M  V30 4299 C 424.306 -1.62206 -1.08232 0
M  V30 4300 O 423.576 -0.891373 -1.74446 0
M  V30 4301 H 422.156 -0.736409 0.125342 0
M  V30 4302 H 424.818 -1.67308 0.999696 0
M  V30 4303 H 423.914 -3.09107 0.431162 0
M  V30 4304 N 424.215 -0.530993 -1.48385 0
M  V30 4305 C 425.443 -0.00134122 -2.069 0
M  V30 4306 C 425.858 1.2805 -1.3874 0
M  V30 4307 O 425.215 1.76204 -0.475244 0
M  V30 4308 C 425.266 0.225256 -3.60798 0
M  V30 4309 O 424.987 -1.0058 -4.26398 0
M  V30 4310 C 426.488 0.795172 -4.3611 0
M  V30 4311 H 423.708 -0.0339704 -0.67014 0
M  V30 4312 H 426.252 -0.736926 -1.90761 0
M  V30 4313 H 424.407 0.910891 -3.76539 0
M  V30 4314 H 424.821 -0.787165 -5.1856 0
M  V30 4315 H 426.295 0.903143 -5.44562 0
M  V30 4316 H 426.772 1.80031 -4.00606 0
M  V30 4317 H 427.378 0.146069 -4.25049 0
M  V30 4318 N 425.693 1.55336 -0.266172 0
M  V30 4319 C 427.109 1.59356 0.0882065 0
M  V30 4320 C 427.309 1.2834 1.55342 0
M  V30 4321 O 426.365 1.03996 2.30089 0
M  V30 4322 C 427.678 2.99409 -0.278364 0
M  V30 4323 C 429.226 3.12196 -0.224243 0
M  V30 4324 C 429.701 4.545 -0.565123 0
M  V30 4325 N 431.192 4.60313 -0.51634 0
M  V30 4326 C 431.927 5.68434 -0.753013 0
M  V30 4327 N 431.423 6.84738 -1.05383 0
M  V30 4328 N 433.216 5.57942 -0.682414 0
M  V30 4329 H 425.367 1.73764 -1.22147 0
M  V30 4330 H 427.63 0.809822 -0.492841 0
M  V30 4331 H 427.336 3.2691 -1.29703 0
M  V30 4332 H 427.21 3.75228 0.385186 0
M  V30 4333 H 429.597 2.84464 0.78512 0
M  V30 4334 H 429.678 2.38609 -0.921922 0
M  V30 4335 H 429.322 4.82956 -1.57213 0
M  V30 4336 H 429.252 5.26374 0.154248 0
M  V30 4337 H 431.743 3.7676 -0.29335 0
M  V30 4338 H 432.056 7.63088 -1.22133 0
M  V30 4339 H 430.401 6.86375 -1.09151 0
M  V30 4340 H 433.592 4.65958 -0.44731 0
M  V30 4341 H 433.765 6.4213 -0.870248 0
M  V30 4342 N 427.171 -0.0066808 1.57599 0
M  V30 4343 C 428.118 -1.00024 2.08 0
M  V30 4344 C 429.088 -1.34549 0.973943 0
M  V30 4345 O 430.273 -1.44502 1.24595 0
M  V30 4346 C 427.413 -2.2891 2.58252 0
M  V30 4347 C 426.526 -2.00346 3.82734 0
M  V30 4348 C 425.661 -3.23265 4.21513 0
M  V30 4349 C 424.7 -2.90357 5.3885 0
M  V30 4350 N 423.837 -4.05793 5.72954 0
M  V30 4351 H 428.677 -0.563499 2.92624 0
M  V30 4352 H 426.214 -0.266592 1.44664 0
M  V30 4353 H 428.172 -3.04247 2.85464 0
M  V30 4354 H 426.802 -2.70265 1.76512 0
M  V30 4355 H 425.854 -1.15406 3.62471 0
M  V30 4356 H 427.166 -1.72086 4.68175 0
M  V30 4357 H 426.32 -4.06953 4.49971 0
M  V30 4358 H 425.059 -3.54657 3.34768 0
M  V30 4359 H 424.064 -2.05075 5.10122 0
M  V30 4360 H 425.289 -2.60219 6.27266 0
M  V30 4361 H 423.235 -4.37094 4.89167 0
M  V30 4362 H 423.152 -3.81034 6.52954 0
M  V30 4363 H 424.42 -4.90289 6.06001 0
M  V30 4364 N 428.649 -1.55105 -0.279332 0
M  V30 4365 C 429.926 -1.66119 -1.03267 0
M  V30 4366 C 430.306 -0.523525 -2.04505 0
M  V30 4367 O 429.654 0.477194 -2.23462 0
M  V30 4368 C 429.864 -3.05067 -1.69515 0
M  V30 4369 C 431.212 -3.62606 -2.20912 0
M  V30 4370 O 432.236 -3.07659 -1.79512 0
M  V30 4371 O 431.095 -4.58861 -2.96831 0
M  V30 4372 H 428.189 -0.674429 -0.478618 0
M  V30 4373 H 430.735 -1.67446 -0.275694 0
M  V30 4374 H 429.507 -3.79311 -0.9612 0
M  V30 4375 H 429.13 -3.07611 -2.51915 0
M  V30 4376 N 430.127 0.543554 -1.4793 0
M  V30 4377 C 431.057 1.65888 -1.64327 0
M  V30 4378 C 432.038 1.62818 -0.492383 0
M  V30 4379 O 433.223 1.80226 -0.723338 0
M  V30 4380 C 430.353 3.04506 -1.67013 0
M  V30 4381 C 429.307 3.2243 -2.81466 0
M  V30 4382 C 428.633 4.61972 -2.69233 0
M  V30 4383 C 429.933 3.06496 -4.22915 0
M  V30 4384 H 431.627 1.52421 -2.57698 0
M  V30 4385 H 429.173 0.731849 -1.24016 0
M  V30 4386 H 431.126 3.82391 -1.77074 0
M  V30 4387 H 429.85 3.18964 -0.70212 0
M  V30 4388 H 428.509 2.46957 -2.70938 0
M  V30 4389 H 428.157 4.73247 -1.7043 0
M  V30 4390 H 427.857 4.74911 -3.46025 0
M  V30 4391 H 429.381 5.41974 -2.81242 0
M  V30 4392 H 430.795 3.74186 -4.34348 0
M  V30 4393 H 429.192 3.30938 -5.006 0
M  V30 4394 H 430.262 2.03077 -4.40327 0
M  V30 4395 N 431.605 1.3629 0.791371 0
M  V30 4396 C 432.537 1.26321 1.91248 0
M  V30 4397 C 433.55 0.18313 1.61767 0
M  V30 4398 O 434.739 0.437682 1.73051 0
M  V30 4399 C 431.839 0.925901 3.26007 0
M  V30 4400 C 431.012 2.10746 3.83281 0
M  V30 4401 C 430.071 1.74352 4.96475 0
M  V30 4402 O 429.097 2.46416 5.13096 0
M  V30 4403 N 430.299 0.676058 5.7655 0
M  V30 4404 H 433.064 2.22915 2.00323 0
M  V30 4405 H 430.625 1.29659 0.969546 0
M  V30 4406 H 432.617 0.663636 3.99222 0
M  V30 4407 H 431.187 0.0491581 3.12561 0
M  V30 4408 H 430.407 2.53264 3.02077 0
M  V30 4409 H 431.695 2.8969 4.18279 0
M  V30 4410 H 431.093 0.0776467 5.65647 0
M  V30 4411 H 429.65 0.473612 6.50077 0
M  V30 4412 N 433.083 -1.0153 1.20538 0
M  V30 4413 C 433.993 -2.13557 0.971113 0
M  V30 4414 C 435.009 -1.73845 -0.0734366 0
M  V30 4415 O 436.185 -2.01075 0.114299 0
M  V30 4416 C 433.25 -3.42661 0.527639 0
M  V30 4417 C 432.311 -3.96608 1.64319 0
M  V30 4418 C 431.544 -5.1955 1.22078 0
M  V30 4419 O 431.767 -5.70329 0.0900198 0
M  V30 4420 O 430.701 -5.66681 2.02871 0
M  V30 4421 H 434.527 -2.3619 1.90913 0
M  V30 4422 H 432.112 -1.11946 0.989362 0
M  V30 4423 H 433.994 -4.20404 0.289621 0
M  V30 4424 H 432.669 -3.21441 -0.381779 0
M  V30 4425 H 431.576 -3.20139 1.93551 0
M  V30 4426 H 432.909 -4.22219 2.52966 0
M  V30 4427 N 434.561 -1.01147 -1.20859 0
M  V30 4428 C 435.524 -0.582224 -2.21682 0
M  V30 4429 C 436.524 0.344887 -1.57058 0
M  V30 4430 O 437.714 0.134281 -1.73682 0
M  V30 4431 C 434.846 0.150496 -3.40568 0
M  V30 4432 H 436.039 -1.47408 -2.61172 0
M  V30 4433 H 433.592 -0.800695 -1.34233 0
M  V30 4434 H 434.327 1.0575 -3.06574 0
M  V30 4435 H 434.112 -0.515444 -3.88697 0
M  V30 4436 H 435.602 0.438344 -4.15293 0
M  V30 4437 N 436.039 1.36541 -0.78704 0
M  V30 4438 C 436.969 2.32659 -0.197992 0
M  V30 4439 C 437.95 1.56533 0.665697 0
M  V30 4440 O 439.135 1.84698 0.60001 0
M  V30 4441 C 436.265 3.40778 0.669901 0
M  V30 4442 C 435.219 4.27897 -0.0937039 0
M  V30 4443 C 434.545 5.27163 0.894629 0
M  V30 4444 C 435.845 5.06334 -1.28154 0
M  V30 4445 H 437.539 2.82171 -1.00099 0
M  V30 4446 H 435.085 1.35665 -0.482793 0
M  V30 4447 H 437.038 4.07008 1.09191 0
M  V30 4448 H 435.762 2.89827 1.50558 0
M  V30 4449 H 434.421 3.6322 -0.49666 0
M  V30 4450 H 434.069 4.72486 1.72527 0
M  V30 4451 H 433.769 5.86317 0.388149 0
M  V30 4452 H 435.293 5.96266 1.31525 0
M  V30 4453 H 436.707 5.65617 -0.93541 0
M  V30 4454 H 435.104 5.74888 -1.72115 0
M  V30 4455 H 436.174 4.38114 -2.07807 0
M  V30 4456 N 437.518 0.538854 1.48102 0
M  V30 4457 C 438.45 -0.256278 2.27763 0
M  V30 4458 C 439.463 -0.89633 1.35904 0
M  V30 4459 O 440.652 -0.773275 1.60881 0
M  V30 4460 C 437.752 -1.37896 3.09577 0
M  V30 4461 C 436.925 -0.839159 4.29275 0
M  V30 4462 C 435.984 -1.84405 4.9283 0
M  V30 4463 O 435.01 -1.39746 5.51779 0
M  V30 4464 N 436.212 -3.17666 4.85869 0
M  V30 4465 H 438.977 0.426968 2.96643 0
M  V30 4466 H 436.538 0.373747 1.57527 0
M  V30 4467 H 438.53 -2.04955 3.48963 0
M  V30 4468 H 437.1 -1.96572 2.4306 0
M  V30 4469 H 436.32 0.00769287 3.94199 0
M  V30 4470 H 437.608 -0.457548 5.06739 0
M  V30 4471 H 437.006 -3.56609 4.39143 0
M  V30 4472 H 435.563 -3.80334 5.29329 0
M  V30 4473 N 438.996 -1.55193 0.274407 0
M  V30 4474 C 440.243 -1.99581 -0.342579 0
M  V30 4475 C 440.571 -1.1628 -1.55914 0
M  V30 4476 O 439.826 -0.22029 -1.94456 0
M  V30 4477 C 440.125 -3.49019 -0.769458 0
M  V30 4478 C 439.791 -4.49598 0.342389 0
M  V30 4479 C 438.453 -4.76821 0.647686 0
M  V30 4480 C 440.805 -5.0964 1.09163 0
M  V30 4481 C 438.133 -5.61354 1.70581 0
M  V30 4482 C 440.485 -5.95323 2.13948 0
M  V30 4483 C 439.149 -6.20867 2.45113 0
M  V30 4484 H 438.419 -0.730319 -0.125358 0
M  V30 4485 H 441.066 -1.87529 0.387971 0
M  V30 4486 H 439.371 -3.58544 -1.57967 0
M  V30 4487 H 441.068 -3.8077 -1.25757 0
M  V30 4488 H 437.658 -4.28496 0.094318 0
M  V30 4489 H 441.842 -4.88632 0.869024 0
M  V30 4490 H 437.098 -5.79392 1.9523 0
M  V30 4491 H 441.272 -6.40881 2.72478 0
M  V30 4492 H 438.899 -6.86162 3.27239 0
M  V30 4493 N 440.474 -0.00167713 -1.576 0
M  V30 4494 C 441.437 0.974046 -2.07473 0
M  V30 4495 C 442.437 1.27143 -0.984444 0
M  V30 4496 O 443.627 1.21633 -1.24703 0
M  V30 4497 C 440.759 2.29849 -2.51759 0
M  V30 4498 H 441.952 0.54262 -2.9495 0
M  V30 4499 H 439.505 0.245829 -1.54355 0
M  V30 4500 H 440.24 2.77677 -1.67529 0
M  V30 4501 H 440.025 2.09584 -3.31386 0
M  V30 4502 H 441.515 2.9984 -2.90664 0
M  V30 4503 N 441.952 1.55251 0.271103 0
M  V30 4504 C 442.915 1.87484 1.31842 0
M  V30 4505 C 443.915 0.749545 1.42262 0
M  V30 4506 O 445.105 1.01771 1.4138 0
M  V30 4507 C 442.237 2.0818 2.69951 0
M  V30 4508 H 443.43 2.81108 1.0449 0
M  V30 4509 H 440.983 1.47771 0.509258 0
M  V30 4510 H 441.718 1.16944 3.02481 0
M  V30 4511 H 441.503 2.90114 2.63774 0
M  V30 4512 H 442.993 2.34385 3.4562 0
M  V30 4513 N 443.43 -0.535701 1.48216 0
M  V30 4514 C 444.34 -1.66785 1.64985 0
M  V30 4515 C 445.356 -1.65654 0.532414 0
M  V30 4516 O 446.532 -1.8471 0.80275 0
M  V30 4517 C 443.597 -3.0326 1.68031 0
M  V30 4518 C 442.658 -3.1529 2.9136 0
M  V30 4519 C 441.891 -4.45255 2.94252 0
M  V30 4520 O 442.114 -5.32011 2.05719 0
M  V30 4521 O 441.048 -4.6153 3.86359 0
M  V30 4522 H 444.874 -1.55576 2.60825 0
M  V30 4523 H 442.459 -0.70815 1.31551 0
M  V30 4524 H 444.341 -3.84436 1.72589 0
M  V30 4525 H 443.016 -3.14805 0.753628 0
M  V30 4526 H 441.923 -2.3343 2.92337 0
M  V30 4527 H 443.256 -3.08658 3.83394 0
M  V30 4528 N 444.908 -1.36708 -0.784132 0
M  V30 4529 C 446.156 -1.30972 -1.53918 0
M  V30 4530 C 446.477 0.109086 -1.94695 0
M  V30 4531 O 445.747 1.05048 -1.65353 0
M  V30 4532 H 444.327 -0.481819 -0.570841 0
M  V30 4533 H 446.989 -1.71063 -0.934002 0
M  V30 4534 H 446.085 -1.94061 -2.44431 0
M  V30 4535 N 446.386 1.0089 -1.21074 0
M  V30 4536 C 447.333 2.09588 -0.966512 0
M  V30 4537 C 448.303 1.65761 0.106089 0
M  V30 4538 O 449.488 1.90758 -0.0402287 0
M  V30 4539 C 446.628 3.40958 -0.533058 0
M  V30 4540 C 445.741 3.9822 -1.67467 0
M  V30 4541 C 444.876 5.17682 -1.19076 0
M  V30 4542 C 443.915 5.67043 -2.30496 0
M  V30 4543 N 443.052 6.77759 -1.83267 0
M  V30 4544 H 447.892 2.29815 -1.89708 0
M  V30 4545 H 445.429 1.12689 -0.945489 0
M  V30 4546 H 447.387 4.1637 -0.263019 0
M  V30 4547 H 446.017 3.20781 0.360505 0
M  V30 4548 H 445.069 3.1983 -2.05944 0
M  V30 4549 H 446.381 4.3085 -2.51336 0
M  V30 4550 H 445.535 6.00326 -0.877151 0
M  V30 4551 H 444.274 4.86635 -0.322066 0
M  V30 4552 H 443.279 4.82999 -2.62664 0
M  V30 4553 H 444.504 6.00121 -3.17855 0
M  V30 4554 H 442.45 6.48527 -0.987356 0
M  V30 4555 H 442.367 7.09624 -2.60711 0
M  V30 4556 H 443.635 7.63949 -1.54928 0
M  V30 4557 N 447.864 1.01787 1.20321 0
M  V30 4558 C 449.11 0.708985 1.90003 0
M  V30 4559 C 449.443 -0.759572 1.78729 0
M  V30 4560 O 448.718 -1.55198 1.17234 0
M  V30 4561 C 449.001 1.1469 3.41348 0
M  V30 4562 C 448.854 2.67586 3.61549 0
M  V30 4563 C 450.173 0.71915 4.34185 0
M  V30 4564 H 447.292 0.259034 0.689978 0
M  V30 4565 H 449.934 1.26584 1.41692 0
M  V30 4566 H 448.084 0.673128 3.82624 0
M  V30 4567 H 449.756 3.22826 3.29517 0
M  V30 4568 H 447.999 3.085 3.04976 0
M  V30 4569 H 448.67 2.93281 4.67643 0
M  V30 4570 H 451.146 1.12647 4.00562 0
M  V30 4571 H 450.022 1.05358 5.38694 0
M  V30 4572 H 450.283 -0.379111 4.40472 0
M  V30 4573 N 449.342 -1.36122 0.79427 0
M  V30 4574 C 450.289 -2.29982 0.194101 0
M  V30 4575 C 451.259 -1.52214 -0.664833 0
M  V30 4576 O 452.444 -1.80702 -0.612498 0
M  V30 4577 C 449.584 -3.38706 -0.661244 0
M  V30 4578 C 448.697 -4.31456 0.216766 0
M  V30 4579 C 447.832 -5.27265 -0.645411 0
M  V30 4580 C 446.871 -6.11653 0.233756 0
M  V30 4581 N 446.008 -6.99636 -0.587682 0
M  V30 4582 H 450.848 -2.80722 0.999965 0
M  V30 4583 H 448.385 -1.38172 0.504677 0
M  V30 4584 H 450.343 -4.00394 -1.17219 0
M  V30 4585 H 448.973 -2.89274 -1.43249 0
M  V30 4586 H 448.025 -3.7088 0.845724 0
M  V30 4587 H 449.337 -4.90724 0.893973 0
M  V30 4588 H 448.491 -5.94266 -1.22198 0
M  V30 4589 H 447.23 -4.68463 -1.35623 0
M  V30 4590 H 446.235 -5.4361 0.82269 0
M  V30 4591 H 447.46 -6.72531 0.942247 0
M  V30 4592 H 445.406 -6.43337 -1.2827 0
M  V30 4593 H 445.323 -7.55993 0.0317402 0
M  V30 4594 H 446.591 -7.71001 -1.14792 0
M  V30 4595 N 450.82 -0.546701 -1.47814 0
M  V30 4596 C 452.048 -0.0232857 -2.06887 0
M  V30 4597 C 452.463 1.26571 -1.4009 0
M  V30 4598 O 451.82 1.7569 -0.493906 0
M  V30 4599 C 451.871 0.186975 -3.61016 0
M  V30 4600 O 451.592 -1.05097 -4.25307 0
M  V30 4601 C 453.093 0.748872 -4.36929 0
M  V30 4602 H 450.313 -0.0410763 -0.669742 0
M  V30 4603 H 452.857 -0.757117 -1.89968 0
M  V30 4604 H 451.012 0.870903 -3.77484 0
M  V30 4605 H 451.426 -0.842121 -5.17695 0
M  V30 4606 H 452.9 0.845334 -5.45489 0
M  V30 4607 H 453.377 1.75772 -4.02493 0
M  V30 4608 H 453.983 0.100979 -4.2518 0
M  V30 4609 N 452.299 1.55045 -0.282633 0
M  V30 4610 C 453.548 1.98938 0.332667 0
M  V30 4611 C 453.861 1.17455 1.56409 0
M  V30 4612 O 455.067 1.51527 2.25282 0
M  V30 4613 C 453.523 3.54105 0.643226 0
M  V30 4614 C 453.131 4.44374 -0.568814 0
M  V30 4615 C 454.875 4.06569 1.22074 0
M  V30 4616 C 452.782 5.90943 -0.232426 0
M  V30 4617 H 451.712 0.743043 0.128075 0
M  V30 4618 H 454.363 1.79341 -0.388464 0
M  V30 4619 H 452.745 3.69532 1.42346 0
M  V30 4620 H 453.919 4.40718 -1.34551 0
M  V30 4621 H 452.234 4.02585 -1.06369 0
M  V30 4622 H 454.831 5.13626 1.48635 0
M  V30 4623 H 455.174 3.56057 2.15707 0
M  V30 4624 H 455.707 3.94612 0.502621 0
M  V30 4625 H 452.446 6.45567 -1.13683 0
M  V30 4626 H 451.966 5.9765 0.507357 0
M  V30 4627 H 453.645 6.4677 0.172657 0
M  V30 4628 N 453.777 0.010035 1.57597 0
M  V30 4629 C 455.026 -0.671945 1.90178 0
M  V30 4630 C 455.339 -1.74376 0.886131 0
M  V30 4631 O 456.545 -2.48107 1.10252 0
M  V30 4632 C 455.001 -1.24636 3.3763 0
M  V30 4633 C 454.609 -0.208838 4.47513 0
M  V30 4634 C 456.353 -1.90595 3.79307 0
M  V30 4635 C 454.26 -0.793814 5.86048 0
M  V30 4636 H 453.19 -0.25474 0.709665 0
M  V30 4637 H 455.841 0.0722206 1.83358 0
M  V30 4638 H 454.223 -2.04152 3.3932 0
M  V30 4639 H 455.397 0.562463 4.57354 0
M  V30 4640 H 453.712 0.350889 4.14919 0
M  V30 4641 H 456.309 -2.35284 4.80151 0
M  V30 4642 H 456.652 -2.74074 3.13352 0
M  V30 4643 H 457.185 -1.17798 3.79958 0
M  V30 4644 H 453.924 0.00240855 6.555 0
M  V30 4645 H 453.444 -1.53404 5.79851 0
M  V30 4646 H 455.123 -1.2894 6.34022 0
M  V30 4647 N 455.255 -1.55392 -0.262866 0
M  V30 4648 C 456.165 -1.92077 -1.34698 0
M  V30 4649 C 457.181 -0.819227 -1.53508 0
M  V30 4650 O 458.357 -1.11921 -1.67439 0
M  V30 4651 C 455.422 -2.19407 -2.68443 0
M  V30 4652 C 454.483 -3.42905 -2.58292 0
M  V30 4653 C 453.716 -3.68921 -3.85659 0
M  V30 4654 O 453.939 -2.97275 -4.8681 0
M  V30 4655 O 452.873 -4.62455 -3.85252 0
M  V30 4656 H 456.699 -2.84384 -1.06581 0
M  V30 4657 H 454.284 -1.42069 -0.462264 0
M  V30 4658 H 456.166 -2.38365 -3.47506 0
M  V30 4659 H 454.841 -1.30282 -2.96325 0
M  V30 4660 H 453.748 -3.29272 -1.7757 0
M  V30 4661 H 455.081 -4.32282 -2.35358 0
M  V30 4662 N 456.733 0.527833 -1.48498 0
M  V30 4663 C 457.979 1.28545 -1.56857 0
M  V30 4664 C 458.312 1.92678 -0.242651 0
M  V30 4665 O 457.587 1.79394 0.751545 0
M  V30 4666 C 457.87 2.37314 -2.70839 0
M  V30 4667 C 457.723 1.77858 -4.13142 0
M  V30 4668 C 459.042 3.39068 -2.80573 0
M  V30 4669 H 456.161 0.466006 -0.570971 0
M  V30 4670 H 458.803 0.587784 -1.8068 0
M  V30 4671 H 456.953 2.96821 -2.50658 0
M  V30 4672 H 458.625 1.22385 -4.44769 0
M  V30 4673 H 456.868 1.08383 -4.20042 0
M  V30 4674 H 457.539 2.56624 -4.88721 0
M  V30 4675 H 460.015 2.89518 -2.98862 0
M  V30 4676 H 458.891 4.12566 -3.6205 0
M  V30 4677 H 459.152 3.9975 -1.88818 0
M  V30 4678 N 458.211 1.37122 0.776871 0
M  V30 4679 C 459.143 1.28342 1.89897 0
M  V30 4680 C 460.156 0.200277 1.61563 0
M  V30 4681 O 461.345 0.456012 1.72577 0
M  V30 4682 C 458.445 0.960427 3.25006 0
M  V30 4683 C 457.618 2.148 3.81025 0
M  V30 4684 C 456.677 1.79608 4.94598 0
M  V30 4685 O 455.703 2.51845 5.10454 0
M  V30 4686 N 456.905 0.737171 5.758 0
M  V30 4687 H 459.67 2.25027 1.97947 0
M  V30 4688 H 457.231 1.3068 0.955739 0
M  V30 4689 H 459.223 0.705942 3.98495 0
M  V30 4690 H 457.793 0.0823066 3.12492 0
M  V30 4691 H 457.013 2.56454 2.99374 0
M  V30 4692 H 458.301 2.9411 4.15183 0
M  V30 4693 H 457.699 0.137637 5.65533 0
M  V30 4694 H 456.256 0.542534 6.49538 0
M  V30 4695 N 459.689 -1.00246 1.21608 0
M  V30 4696 C 461.1 -1.55511 1.03312 0
M  V30 4697 C 461.451 -1.91946 -0.406332 0
M  V30 4698 O 460.576 -1.73753 -1.28992 0
M  V30 4699 C 461.171 -2.82576 1.86913 0
M  V30 4700 C 459.73 -3.34318 1.72941 0
M  V30 4701 C 458.877 -2.07487 1.83968 0
M  V30 4702 H 461.828 -0.824638 1.35593 0
M  V30 4703 H 461.849 -3.54559 1.38087 0
M  V30 4704 H 461.361 -2.56026 2.91672 0
M  V30 4705 H 459.462 -3.65797 0.70877 0
M  V30 4706 H 459.575 -4.05566 2.55055 0
M  V30 4707 H 457.939 -2.20603 1.27304 0
M  V30 4708 H 458.722 -1.83346 2.9024 0
M  V30 4709 N 461.167 -1.02423 -1.1978 0
M  V30 4710 C 462.097 -0.62157 -2.25075 0
M  V30 4711 C 463.078 0.367148 -1.6609 0
M  V30 4712 O 464.263 0.250892 -1.92573 0
M  V30 4713 C 461.393 0.0331826 -3.47284 0
M  V30 4714 C 460.347 -0.877323 -4.18912 0
M  V30 4715 C 459.673 -0.0879296 -5.34628 0
M  V30 4716 C 460.973 -2.18892 -4.74219 0
M  V30 4717 H 462.667 -1.50179 -2.59011 0
M  V30 4718 H 460.213 -0.723547 -1.24502 0
M  V30 4719 H 462.166 0.326488 -4.20133 0
M  V30 4720 H 460.89 0.948164 -3.12534 0
M  V30 4721 H 459.549 -1.15475 -3.47938 0
M  V30 4722 H 459.197 0.828941 -4.96123 0
M  V30 4723 H 458.897 -0.694359 -5.83483 0
M  V30 4724 H 460.421 0.198743 -6.10276 0
M  V30 4725 H 461.835 -1.95746 -5.38847 0
M  V30 4726 H 460.232 -2.74686 -5.33542 0
M  V30 4727 H 461.302 -2.84674 -3.92541 0
M  V30 4728 N 462.645 1.35699 -0.801477 0
M  V30 4729 C 463.555 2.33661 -0.209691 0
M  V30 4730 C 464.571 1.6162 0.644591 0
M  V30 4731 O 465.747 1.93529 0.557545 0
M  V30 4732 C 462.812 3.40816 0.636033 0
M  V30 4733 C 461.873 4.28639 -0.238147 0
M  V30 4734 C 461.106 5.30676 0.567307 0
M  V30 4735 O 461.329 5.41174 1.8024 0
M  V30 4736 O 460.263 6.01887 -0.0391336 0
M  V30 4737 H 464.089 2.8606 -1.01996 0
M  V30 4738 H 461.674 1.38379 -0.563164 0
M  V30 4739 H 463.556 4.06301 1.11791 0
M  V30 4740 H 462.231 2.90696 1.42399 0
M  V30 4741 H 461.138 3.66152 -0.767044 0
M  V30 4742 H 462.471 4.82143 -0.989915 0
M  V30 4743 N 464.123 0.554532 1.47522 0
M  V30 4744 C 465.07 -0.19466 2.29978 0
M  V30 4745 C 466.04 -0.910882 1.38896 0
M  V30 4746 O 467.225 -0.907102 1.67858 0
M  V30 4747 C 464.365 -1.22035 3.22802 0
M  V30 4748 C 463.478 -0.510474 4.28973 0
M  V30 4749 C 462.613 -1.52123 5.08952 0
M  V30 4750 C 461.652 -0.796173 6.069 0
M  V30 4751 N 460.789 -1.75363 6.79847 0
M  V30 4752 H 465.629 0.51461 2.93523 0
M  V30 4753 H 463.166 0.265607 1.44682 0
M  V30 4754 H 465.124 -1.8276 3.7504 0
M  V30 4755 H 463.754 -1.89769 2.61127 0
M  V30 4756 H 462.806 0.211234 3.79813 0
M  V30 4757 H 464.118 0.0576503 4.98767 0
M  V30 4758 H 463.272 -2.20207 5.65326 0
M  V30 4759 H 462.011 -2.12327 4.39054 0
M  V30 4760 H 461.016 -0.101388 5.49707 0
M  V30 4761 H 462.241 -0.199911 6.78806 0
M  V30 4762 H 460.187 -2.3443 6.12682 0
M  V30 4763 H 460.104 -1.23759 7.45801 0
M  V30 4764 H 461.372 -2.4257 7.40797 0
M  V30 4765 N 465.601 -1.54893 0.290851 0
M  V30 4766 C 466.85 -1.99111 -0.322113 0
M  V30 4767 C 467.163 -1.18283 -1.55784 0
M  V30 4768 O 468.369 -1.5272 -2.24475 0
M  V30 4769 C 466.825 -3.54442 -0.624438 0
M  V30 4770 C 466.433 -4.44066 0.592373 0
M  V30 4771 C 468.177 -4.07211 -1.19916 0
M  V30 4772 C 466.084 -5.90812 0.263762 0
M  V30 4773 H 465.014 -0.743712 -0.124133 0
M  V30 4774 H 467.665 -1.79132 0.39797 0
M  V30 4775 H 466.047 -3.70281 -1.40384 0
M  V30 4776 H 467.221 -4.39999 1.36886 0
M  V30 4777 H 465.536 -4.02015 1.08502 0
M  V30 4778 H 468.133 -5.14407 -1.45909 0
M  V30 4779 H 468.476 -3.57196 -2.13815 0
M  V30 4780 H 469.009 -3.94873 -0.481687 0
M  V30 4781 H 465.748 -6.44955 1.17105 0
M  V30 4782 H 465.268 -5.97911 -0.475655 0
M  V30 4783 H 466.947 -6.46852 -0.138354 0
M  V30 4784 N 467.08 -0.0183926 -1.57589 0
M  V30 4785 C 468.028 0.985111 -2.10709 0
M  V30 4786 C 469.022 1.34397 -1.0312 0
M  V30 4787 O 470.228 1.32746 -1.21567 0
M  V30 4788 H 466.603 0.335418 -0.673052 0
M  V30 4789 H 468.574 0.511689 -2.9398 0
M  V30 4790 C 467.323 2.26202 -2.64061 0
M  V30 4791 H 466.646 1.9946 -3.4649 0
M  V30 4792 H 468.086 2.94652 -3.04887 0
M  V30 4793 C 466.545 2.98444 -1.5631 0
M  V30 4794 O 467.075 3.90142 -0.956674 0
M  V30 4795 N 465.281 2.6059 -1.28612 0
M  V30 4796 H 464.828 1.86101 -1.78112 0
M  V30 4797 H 464.786 3.09238 -0.567406 0
M  V30 4798 N 468.558 1.5553 0.254621 0
M  V30 4799 C 469.468 1.92789 1.33677 0
M  V30 4800 C 470.484 0.827356 1.53071 0
M  V30 4801 O 471.66 1.12807 1.66843 0
M  V30 4802 C 468.725 2.20827 2.67275 0
M  V30 4803 C 467.786 3.4427 2.5647 0
M  V30 4804 C 467.019 3.70961 3.83697 0
M  V30 4805 O 467.242 2.99852 4.85227 0
M  V30 4806 O 466.176 4.64491 3.82794 0
M  V30 4807 H 470.002 2.84945 1.05071 0
M  V30 4808 H 467.587 1.42312 0.454723 0
M  V30 4809 H 469.469 2.40204 3.46237 0
M  V30 4810 H 468.144 1.31851 2.9563 0
M  V30 4811 H 467.051 3.30209 1.75821 0
M  V30 4812 H 468.384 4.33524 2.33062 0
M  V30 4813 N 470.036 -0.519951 1.48776 0
M  V30 4814 C 471.282 -1.27711 1.57536 0
M  V30 4815 C 471.615 -1.92547 0.252866 0
M  V30 4816 O 470.89 -1.7979 -0.742021 0
M  V30 4817 C 471.173 -2.35875 2.72094 0
M  V30 4818 C 471.026 -1.75664 4.1408 0
M  V30 4819 C 472.345 -3.37575 2.82367 0
M  V30 4820 H 469.464 -0.462971 0.573434 0
M  V30 4821 H 472.106 -0.578194 1.80989 0
M  V30 4822 H 470.256 -2.95488 2.52228 0
M  V30 4823 H 471.928 -1.20025 4.45412 0
M  V30 4824 H 470.171 -1.06154 4.20611 0
M  V30 4825 H 470.842 -2.54029 4.90075 0
M  V30 4826 H 473.318 -2.87929 3.00393 0
M  V30 4827 H 472.194 -4.1064 3.64233 0
M  V30 4828 H 472.455 -3.98743 1.90936 0
M  V30 4829 N 471.514 -1.37532 -0.769588 0
M  V30 4830 C 472.761 -1.3286 -1.52822 0
M  V30 4831 C 473.089 0.0862597 -1.94309 0
M  V30 4832 O 472.344 1.05995 -1.6451 0
M  V30 4833 C 472.643 -2.21558 -2.8044 0
M  V30 4834 C 472.309 -3.69796 -2.57996 0
M  V30 4835 C 470.971 -4.10194 -2.51583 0
M  V30 4836 C 473.323 -4.63699 -2.37976 0
M  V30 4837 C 470.651 -5.42608 -2.23144 0
M  V30 4838 C 473.003 -5.96353 -2.1106 0
M  V30 4839 C 471.667 -6.35853 -2.03093 0
M  V30 4840 H 470.937 -0.486168 -0.559215 0
M  V30 4841 H 473.584 -1.69757 -0.886277 0
M  V30 4842 H 471.889 -1.77663 -3.49204 0
M  V30 4843 H 473.586 -2.15256 -3.38328 0
M  V30 4844 H 470.176 -3.37759 -2.63851 0
M  V30 4845 H 474.36 -4.33346 -2.41919 0
M  V30 4846 H 469.616 -5.72173 -2.15472 0
M  V30 4847 H 473.79 -6.68667 -1.94568 0
M  V30 4848 H 471.417 -7.38382 -1.8082 0
M  V30 4849 N 472.992 0.995999 -1.22138 0
M  V30 4850 C 474.269 1.70834 -0.952642 0
M  V30 4851 C 474.649 2.04257 0.533119 0
M  V30 4852 O 473.997 1.72343 1.50034 0
M  V30 4853 C 474.207 2.96119 -1.84701 0
M  V30 4854 C 475.555 3.68962 -2.10124 0
M  V30 4855 O 476.579 3.0612 -1.82124 0
M  V30 4856 O 475.438 4.82017 -2.57531 0
M  V30 4857 H 472.532 0.745498 -0.357997 0
M  V30 4858 H 475.078 1.05262 -1.33109 0
M  V30 4859 H 473.85 2.67898 -2.85213 0
M  V30 4860 H 473.473 3.6943 -1.46995 0
M  V30 4861 N 474.47 1.03057 1.19235 0
M  V30 4862 C 475.886 0.747947 1.40989 0
M  V30 4863 C 476.086 -0.666752 1.90149 0
M  V30 4864 O 475.142 -1.43249 2.07933 0
M  V30 4865 C 476.455 1.7855 2.41951 0
M  V30 4866 C 478.003 1.80524 2.55695 0
M  V30 4867 C 478.478 2.83243 3.59913 0
M  V30 4868 N 479.969 2.8207 3.67411 0
M  V30 4869 C 480.704 3.58204 4.47747 0
M  V30 4870 N 480.2 4.44057 5.31775 0
M  V30 4871 N 481.993 3.46738 4.42413 0
M  V30 4872 H 474.144 1.94367 0.856468 0
M  V30 4873 H 476.407 0.840412 0.438647 0
M  V30 4874 H 476.113 2.79973 2.12857 0
M  V30 4875 H 475.987 1.6092 3.41152 0
M  V30 4876 H 478.374 0.79778 2.84112 0
M  V30 4877 H 478.455 2.02229 1.56643 0
M  V30 4878 H 478.099 3.84161 3.32239 0
M  V30 4879 H 478.029 2.58795 4.5862 0
M  V30 4880 H 480.52 2.19803 3.074 0
M  V30 4881 H 480.833 4.98884 5.90199 0
M  V30 4882 H 479.178 4.48129 5.3123 0
M  V30 4883 H 482.369 2.79077 3.75811 0
M  V30 4884 H 482.542 4.06322 5.04783 0
M  V30 4885 N 475.948 -1.35272 0.808662 0
M  V30 4886 C 476.881 -2.27595 0.165994 0
M  V30 4887 C 477.859 -1.48189 -0.669241 0
M  V30 4888 O 479.043 -1.77444 -0.636073 0
M  V30 4889 C 476.17 -3.29843 -0.769505 0
M  V30 4890 C 475.216 -4.26498 -0.0136267 0
M  V30 4891 S 476.049 -5.18878 1.32384 0
M  V30 4892 C 477.205 -6.24666 0.392838 0
M  V30 4893 H 477.438 -2.81755 0.948756 0
M  V30 4894 H 474.971 -1.42103 0.603828 0
M  V30 4895 H 476.929 -3.89247 -1.30374 0
M  V30 4896 H 475.59 -2.74558 -1.52567 0
M  V30 4897 H 474.783 -4.98769 -0.724227 0
M  V30 4898 H 474.385 -3.71274 0.450713 0
M  V30 4899 H 476.677 -6.7619 -0.4211 0
M  V30 4900 H 477.62 -6.99741 1.0848 0
M  V30 4901 H 478.028 -5.64499 -0.0123908 0
M  V30 4902 N 477.426 -0.562348 -1.47226 0
M  V30 4903 C 478.356 0.170627 -2.32876 0
M  V30 4904 C 479.337 0.903748 -1.44106 0
M  V30 4905 O 480.522 0.883206 -1.72954 0
M  V30 4906 C 477.652 1.19786 -3.25989 0
M  V30 4907 C 476.606 0.580875 -4.2404 0
M  V30 4908 C 475.932 1.71311 -5.06514 0
M  V30 4909 C 477.232 -0.468714 -5.20193 0
M  V30 4910 H 478.926 -0.544441 -2.94408 0
M  V30 4911 H 476.472 -0.263271 -1.41573 0
M  V30 4912 H 478.425 1.71884 -3.84752 0
M  V30 4913 H 477.149 1.94294 -2.62521 0
M  V30 4914 H 475.808 0.0811538 -3.6651 0
M  V30 4915 H 475.456 2.44736 -4.39447 0
M  V30 4916 H 475.156 1.30604 -5.72902 0
M  V30 4917 H 476.68 2.23725 -5.68137 0
M  V30 4918 H 478.094 -0.0336028 -5.7329 0
M  V30 4919 H 476.491 -0.794957 -5.94811 0
M  V30 4920 H 477.561 -1.36269 -4.65359 0
M  V30 4921 N 478.904 1.54736 -0.299062 0
M  V30 4922 C 479.851 2.23448 0.577899 0
M  V30 4923 C 480.821 1.21637 1.13109 0
M  V30 4924 O 482.006 1.50252 1.17597 0
M  V30 4925 C 479.146 2.9774 1.74484 0
M  V30 4926 C 478.259 4.1432 1.22323 0
M  V30 4927 C 477.394 4.76199 2.35388 0
M  V30 4928 C 476.433 5.84927 1.80351 0
M  V30 4929 N 475.57 6.4077 2.86982 0
M  V30 4930 H 480.41 2.97996 -0.0146545 0
M  V30 4931 H 477.947 1.47088 -0.0190013 0
M  V30 4932 H 479.905 3.39045 2.43114 0
M  V30 4933 H 478.535 2.25572 2.30905 0
M  V30 4934 H 477.587 3.7797 0.429249 0
M  V30 4935 H 478.899 4.92659 0.780309 0
M  V30 4936 H 478.053 5.20346 3.11969 0
M  V30 4937 H 476.792 3.97188 2.83006 0
M  V30 4938 H 475.797 5.40207 1.02259 0
M  V30 4939 H 477.022 6.65821 1.3364 0
M  V30 4940 H 474.968 5.64643 3.33938 0
M  V30 4941 H 474.885 7.1445 2.4718 0
M  V30 4942 H 476.153 6.89574 3.63466 0
M  V30 4943 N 480.382 0.0267497 1.57577 0
M  V30 4944 C 481.63 -0.651116 1.91324 0
M  V30 4945 C 481.951 -1.72804 0.90353 0
M  V30 4946 O 481.221 -1.95822 -0.0552946 0
M  V30 4947 H 479.801 -0.243491 0.706202 0
M  V30 4948 H 482.463 0.0739935 1.94759 0
M  V30 4949 H 481.559 -1.10536 2.9187 0
M  V30 4950 N 481.861 -1.55662 -0.24637 0
M  V30 4951 C 482.793 -1.86811 -1.32794 0
M  V30 4952 C 483.806 -0.754413 -1.44265 0
M  V30 4953 O 484.995 -1.03253 -1.45606 0
M  V30 4954 C 482.095 -2.0397 -2.70646 0
M  V30 4955 C 481.268 -3.34832 -2.81436 0
M  V30 4956 C 480.327 -3.41727 -4.00136 0
M  V30 4957 O 479.353 -4.14934 -3.89639 0
M  V30 4958 N 480.555 -2.71058 -5.1333 0
M  V30 4959 H 483.32 -2.80174 -1.06409 0
M  V30 4960 H 480.881 -1.55906 -0.43647 0
M  V30 4961 H 482.873 -2.05924 -3.48393 0
M  V30 4962 H 481.443 -1.1735 -2.89738 0
M  V30 4963 H 480.663 -3.4519 -1.90361 0
M  V30 4964 H 481.951 -4.21085 -2.85595 0
M  V30 4965 H 481.349 -2.11314 -5.2475 0
M  V30 4966 H 479.906 -2.78704 -5.89209 0
M  V30 4967 N 483.339 0.512053 -1.4905 0
M  V30 4968 C 484.588 1.26343 -1.57227 0
M  V30 4969 C 484.901 1.93876 -0.259155 0
M  V30 4970 O 486.107 2.70612 -0.219358 0
M  V30 4971 C 484.563 2.29343 -2.77362 0
M  V30 4972 C 484.171 1.67799 -4.15388 0
M  V30 4973 C 485.915 3.05378 -2.94864 0
M  V30 4974 C 483.822 2.68845 -5.2676 0
M  V30 4975 H 482.752 0.475231 -0.585382 0
M  V30 4976 H 485.403 0.53862 -1.75417 0
M  V30 4977 H 483.785 3.04938 -2.52643 0
M  V30 4978 H 484.959 0.982715 -4.50199 0
M  V30 4979 H 483.274 1.04194 -4.03153 0
M  V30 4980 H 485.871 3.80921 -3.75238 0
M  V30 4981 H 486.214 3.62327 -2.05 0
M  V30 4982 H 486.747 2.36898 -3.19569 0
M  V30 4983 H 483.486 2.16692 -6.18647 0
M  V30 4984 H 483.006 3.36647 -4.96416 0
M  V30 4985 H 484.685 3.31487 -5.5563 0
M  V30 4986 N 484.817 1.37938 0.762283 0
M  V30 4987 C 485.765 1.34569 1.89721 0
M  V30 4988 C 486.759 0.232929 1.67791 0
M  V30 4989 O 487.965 0.401485 1.75465 0
M  V30 4990 H 484.34 0.419594 0.624055 0
M  V30 4991 H 486.311 2.30357 1.8968 0
M  V30 4992 C 485.06 1.17898 3.27101 0
M  V30 4993 H 484.383 2.02781 3.44558 0
M  V30 4994 H 485.823 1.19593 4.06784 0
M  V30 4995 C 484.282 -0.114728 3.36705 0
M  V30 4996 O 484.812 -1.0949 3.8649 0
M  V30 4997 N 483.018 -0.16863 2.9011 0
M  V30 4998 H 482.565 0.62967 2.49786 0
M  V30 4999 H 482.523 -1.03383 2.96916 0
M  V30 5000 N 486.295 -0.989507 1.22664 0
M  V30 5001 C 487.543 -1.72612 1.05117 0
M  V30 5002 C 487.864 -1.90552 -0.414131 0
M  V30 5003 O 487.134 -1.4676 -1.29762 0
M  V30 5004 H 485.714 -0.639555 0.385977 0
M  V30 5005 H 488.376 -1.19158 1.54232 0
M  V30 5006 H 487.472 -2.71926 1.53175 0
M  V30 5007 N 487.773 -1.03688 -1.18687 0
M  V30 5008 C 489.189 -0.755413 -1.4059 0
M  V30 5009 C 489.389 0.656659 -1.905 0
M  V30 5010 O 488.445 1.42144 -2.08689 0
M  V30 5011 C 489.758 -1.7983 -2.41001 0
M  V30 5012 C 491.306 -1.81877 -2.54735 0
M  V30 5013 C 491.781 -2.85148 -3.58406 0
M  V30 5014 N 493.272 -2.84015 -3.6591 0
M  V30 5015 C 494.007 -3.60573 -4.45841 0
M  V30 5016 N 493.503 -4.46871 -5.29413 0
M  V30 5017 N 495.296 -3.49079 -4.40568 0
M  V30 5018 H 487.447 -1.94818 -0.846148 0
M  V30 5019 H 489.71 -0.842727 -0.434184 0
M  V30 5020 H 489.416 -2.81097 -2.1137 0
M  V30 5021 H 489.29 -1.62727 -3.40294 0
M  V30 5022 H 491.677 -0.812836 -2.83685 0
M  V30 5023 H 491.758 -2.03057 -1.55568 0
M  V30 5024 H 491.402 -3.85918 -3.30197 0
M  V30 5025 H 491.332 -2.61224 -4.57241 0
M  V30 5026 H 493.823 -2.21431 -3.0623 0
M  V30 5027 H 494.136 -5.02007 -5.87545 0
M  V30 5028 H 492.481 -4.5094 -5.28846 0
M  V30 5029 H 495.672 -2.81066 -3.74325 0
M  V30 5030 H 495.845 -4.08994 -5.02621 0
M  V30 5031 N 489.251 1.34841 -0.815825 0
M  V30 5032 C 490.497 1.98793 -0.401129 0
M  V30 5033 C 490.83 1.64548 1.03139 0
M  V30 5034 O 490.105 0.913487 1.71714 0
M  V30 5035 C 490.388 3.55143 -0.595409 0
M  V30 5036 C 490.241 3.99155 -2.07352 0
M  V30 5037 C 491.56 4.40092 -0.0268823 0
M  V30 5038 H 488.679 0.722146 -0.14722 0
M  V30 5039 H 491.321 1.59847 -1.02707 0
M  V30 5040 H 489.471 3.8845 -0.0625779 0
M  V30 5041 H 491.143 3.76216 -2.66945 0
M  V30 5042 H 489.386 3.49726 -2.56659 0
M  V30 5043 H 490.057 5.07971 -2.1603 0
M  V30 5044 H 492.533 4.13298 -0.482042 0
M  V30 5045 H 491.409 5.48562 -0.19267 0
M  V30 5046 H 491.67 4.29016 1.06759 0
M  V30 5047 N 490.729 0.570148 1.46925 0
M  V30 5048 C 491.975 0.0510284 2.02736 0
M  V30 5049 C 492.308 -1.3006 1.44215 0
M  V30 5050 O 491.583 -1.84932 0.602521 0
M  V30 5051 C 491.866 -0.028215 3.60089 0
M  V30 5052 C 491.719 1.35142 4.29018 0
M  V30 5053 C 493.038 -0.735181 4.33916 0
M  V30 5054 H 490.157 0.0200178 0.736728 0
M  V30 5055 H 492.799 0.73493 1.75211 0
M  V30 5056 H 490.949 -0.610648 3.83671 0
M  V30 5057 H 492.621 1.97806 4.16738 0
M  V30 5058 H 490.864 1.9226 3.88868 0
M  V30 5059 H 491.535 1.24857 5.37694 0
M  V30 5060 H 494.011 -0.240519 4.15404 0
M  V30 5061 H 492.887 -0.759622 5.43618 0
M  V30 5062 H 493.148 -1.79397 4.04066 0
M  V30 5063 N 492.207 -1.54576 0.307264 0
M  V30 5064 C 493.137 -2.26708 -0.55907 0
M  V30 5065 C 494.118 -1.26893 -1.1328 0
M  V30 5066 O 495.303 -1.55677 -1.16097 0
M  V30 5067 C 492.433 -3.01259 -1.72801 0
M  V30 5068 C 491.387 -4.08275 -1.28435 0
M  V30 5069 C 490.713 -4.70575 -2.53895 0
M  V30 5070 C 492.013 -5.2068 -0.411038 0
M  V30 5071 H 493.707 -2.9937 0.042576 0
M  V30 5072 H 491.253 -1.43983 0.0219173 0
M  V30 5073 H 493.206 -3.50444 -2.34023 0
M  V30 5074 H 491.93 -2.26187 -2.356 0
M  V30 5075 H 490.589 -3.59949 -0.695161 0
M  V30 5076 H 490.237 -3.92136 -3.15021 0
M  V30 5077 H 489.937 -5.42854 -2.24908 0
M  V30 5078 H 491.461 -5.22527 -3.15908 0
M  V30 5079 H 492.875 -5.65721 -0.929097 0
M  V30 5080 H 491.272 -5.99716 -0.214664 0
M  V30 5081 H 492.342 -4.81629 0.562287 0
M  V30 5082 N 493.685 -0.035106 -1.57561 0
M  V30 5083 C 494.913 0.652258 -1.9635 0
M  V30 5084 C 495.328 1.65317 -0.911897 0
M  V30 5085 O 494.685 1.82194 0.105657 0
M  V30 5086 C 494.736 1.35337 -3.35211 0
M  V30 5087 O 494.457 0.392548 -4.36338 0
M  V30 5088 C 495.958 2.13199 -3.88666 0
M  V30 5089 H 493.178 0.179444 -0.646561 0
M  V30 5090 H 495.722 -0.0966459 -2.04271 0
M  V30 5091 H 493.877 2.05362 -3.28489 0
M  V30 5092 H 494.291 0.891097 -5.16875 0
M  V30 5093 H 495.765 2.577 -4.88154 0
M  V30 5094 H 496.242 2.97353 -3.23231 0
M  V30 5095 H 496.848 1.48118 -3.98674 0
M  V30 5096 N 495.163 1.55791 0.238111 0
M  V30 5097 C 496.093 1.94068 1.29846 0
M  V30 5098 C 497.074 0.806726 1.49753 0
M  V30 5099 O 498.259 1.06772 1.62214 0
M  V30 5100 C 495.389 2.24302 2.65153 0
M  V30 5101 C 494.343 3.40032 2.59927 0
M  V30 5102 C 493.669 3.55829 3.99111 0
M  V30 5103 C 494.969 4.75476 2.16148 0
M  V30 5104 H 496.663 2.82887 0.980563 0
M  V30 5105 H 494.209 1.36105 0.470253 0
M  V30 5106 H 496.162 2.4967 3.39475 0
M  V30 5107 H 494.886 1.32318 2.98596 0
M  V30 5108 H 493.545 3.14687 1.88063 0
M  V30 5109 H 493.193 2.6125 4.29834 0
M  V30 5110 H 492.893 4.3366 3.96501 0
M  V30 5111 H 494.417 3.83528 4.7512 0
M  V30 5112 H 495.831 5.00158 2.80205 0
M  V30 5113 H 494.228 5.56472 2.24631 0
M  V30 5114 H 495.298 4.71946 1.11333 0
M  V30 5115 N 496.642 -0.504142 1.49319 0
M  V30 5116 C 497.552 -1.63248 1.68486 0
M  V30 5117 C 498.568 -1.64488 0.567432 0
M  V30 5118 O 499.744 -1.82966 0.841749 0
M  V30 5119 C 496.809 -2.99627 1.74426 0
M  V30 5120 C 495.87 -3.09039 2.97982 0
M  V30 5121 C 495.103 -4.38913 3.0363 0
M  V30 5122 O 495.326 -5.27528 2.16958 0
M  V30 5123 O 494.26 -4.53231 3.96062 0
M  V30 5124 H 498.086 -1.50008 2.64067 0
M  V30 5125 H 495.671 -0.680086 1.33023 0
M  V30 5126 H 497.553 -3.80689 1.80705 0
M  V30 5127 H 496.228 -3.13136 0.820233 0
M  V30 5128 H 495.135 -2.27177 2.97223 0
M  V30 5129 H 496.468 -3.00456 3.89855 0
M  V30 5130 N 498.12 -1.38341 -0.754957 0
M  V30 5131 C 499.397 -1.24995 -1.50451 0
M  V30 5132 C 499.777 0.149244 -2.10572 0
M  V30 5133 O 499.125 1.15861 -1.96948 0
M  V30 5134 C 499.335 -2.35904 -2.57197 0
M  V30 5135 C 500.683 -2.74262 -3.24138 0
M  V30 5136 O 501.707 -2.35205 -2.67501 0
M  V30 5137 O 500.566 -3.4161 -4.26574 0
M  V30 5138 H 497.66 -0.48872 -0.667144 0
M  V30 5139 H 500.206 -1.50165 -0.790486 0
M  V30 5140 H 498.978 -3.2953 -2.11011 0
M  V30 5141 H 498.601 -2.12291 -3.36182 0
M  V30 5142 N 499.598 0.982988 -1.23187 0
M  V30 5143 C 500.545 2.07491 -1.01075 0
M  V30 5144 C 501.515 1.65949 0.070905 0
M  V30 5145 O 502.7 1.90629 -0.0806822 0
M  V30 5146 C 499.84 3.39751 -0.605261 0
M  V30 5147 C 498.953 3.94578 -1.75876 0
M  V30 5148 C 498.088 5.15039 -1.3003 0
M  V30 5149 C 497.127 5.62027 -2.42472 0
M  V30 5150 N 496.264 6.73719 -1.97602 0
M  V30 5151 H 501.104 2.25739 -1.9454 0
M  V30 5152 H 498.641 1.10659 -0.969179 0
M  V30 5153 H 500.599 4.15719 -0.351279 0
M  V30 5154 H 499.229 3.21473 0.292382 0
M  V30 5155 H 498.281 3.1539 -2.12681 0
M  V30 5156 H 499.593 4.25422 -2.60418 0
M  V30 5157 H 498.747 5.9833 -1.00429 0
M  V30 5158 H 497.486 4.85843 -0.425216 0
M  V30 5159 H 496.491 4.77318 -2.7285 0
M  V30 5160 H 497.716 5.93244 -3.30512 0
M  V30 5161 H 495.662 6.46287 -1.1247 0
M  V30 5162 H 495.579 7.03934 -2.75705 0
M  V30 5163 H 496.847 7.6049 -1.71098 0
M  V30 5164 O 501.115 1.16872 1.1146 0
M  V30 5165 H 501.806 0.903209 1.71353 0
M  V30 END ATOM
M  V30 BEGIN BOND
M  V30 END BOND
M  V30 END CTAB
M  END
$$$$
