drugbank_target|P42357 Histidine ammonia-lyase (DB00117)
 OpenBabel12092119243D

  0  0  0     0  0            999 V3000
M  V30 BEGIN CTAB
M  V30 COUNTS 10291 10395 0 0 0
M  V30 BEGIN ATOM
M  V30 1 H -0.908 1.98254 -0.117106 0
M  V30 2 N 0 1.576 0 0
M  V30 3 C 0.933 2.03868 1.02534 0
M  V30 4 C 1.911 0.928543 1.3348 0
M  V30 5 O 3.095 1.19667 1.45644 0
M  V30 6 C 0.222 2.43627 2.35294 0
M  V30 7 C -0.732 3.65373 2.2001 0
M  V30 8 S 0.101 5.13292 1.52614 0
M  V30 9 C 1.257 5.56322 2.86805 0
M  V30 10 H 1.49 2.90518 0.631377 0
M  V30 11 H -0.977 1.52953 0.210867 0
M  V30 12 H 0.981 2.67203 3.11629 0
M  V30 13 H -0.358 1.57376 2.7183 0
M  V30 14 H -1.165 3.90944 3.18086 0
M  V30 15 H -1.563 3.418 1.51819 0
M  V30 16 H 0.729 5.58782 3.83104 0
M  V30 17 H 1.672 6.56266 2.65933 0
M  V30 18 H 2.08 4.83886 2.90714 0
M  V30 19 N 1.4781 -0.272755 1.55222 0
M  V30 20 C 2.8891 -0.84378 1.66545 0
M  V30 21 C 3.2401 -1.87035 0.592641 0
M  V30 22 O 2.3651 -2.14761 -0.265818 0
M  V30 23 C 2.9601 -1.53723 3.01918 0
M  V30 24 C 1.5191 -2.05628 3.15268 0
M  V30 25 C 0.6661 -0.898424 2.62343 0
M  V30 26 H 3.6171 -0.0490998 1.58624 0
M  V30 27 H 3.6381 -2.40421 2.94921 0
M  V30 28 H 3.1501 -0.78983 3.79978 0
M  V30 29 H 1.2511 -2.83329 2.41983 0
M  V30 30 H 1.3641 -2.27142 4.21833 0
M  V30 31 H -0.2719 -1.29186 2.19506 0
M  V30 32 H 0.5111 -0.164528 3.42906 0
M  V30 33 N 2.9562 -1.48159 -0.537278 0
M  V30 34 C 4.3722 -1.34118 -0.865129 0
M  V30 35 C 4.5722 -0.346678 -1.98495 0
M  V30 36 O 3.6282 0.234715 -2.51407 0
M  V30 37 C 4.9412 -2.73963 -1.23954 0
M  V30 38 C 6.4892 -2.82397 -1.34984 0
M  V30 39 C 6.9642 -4.22928 -1.75772 0
M  V30 40 N 8.4552 -4.25566 -1.82887 0
M  V30 41 C 9.1902 -5.31235 -2.15817 0
M  V30 42 N 8.6862 -6.47189 -2.47222 0
M  V30 43 N 10.4792 -5.18624 -2.16761 0
M  V30 44 H 2.6302 -2.1144 0.201715 0
M  V30 45 H 4.8932 -0.947598 0.0275949 0
M  V30 46 H 4.5992 -3.48264 -0.490381 0
M  V30 47 H 4.4732 -3.0702 -2.19132 0
M  V30 48 H 6.8602 -2.08356 -2.08978 0
M  V30 49 H 6.9412 -2.5297 -0.379448 0
M  V30 50 H 6.5852 -4.97482 -1.02341 0
M  V30 51 H 6.5152 -4.49794 -2.73848 0
M  V30 52 H 9.0062 -3.41924 -1.60924 0
M  V30 53 H 9.3192 -7.23564 -2.71433 0
M  V30 54 H 7.6642 -6.50476 -2.44757 0
M  V30 55 H 10.8552 -4.27056 -1.91679 0
M  V30 56 H 11.0282 -6.01078 -2.42093 0
M  V30 57 N 4.4343 0.785586 -1.36625 0
M  V30 58 C 5.6643 1.5722 -1.34036 0
M  V30 59 C 6.0723 1.89033 0.0795062 0
M  V30 60 O 5.4153 1.50881 1.04789 0
M  V30 61 C 5.4773 2.91759 -2.10041 0
M  V30 62 C 5.1413 2.82654 -3.59104 0
M  V30 63 C 6.1383 2.54634 -4.53274 0
M  V30 64 C 3.8233 3.01111 -4.02042 0
M  V30 65 C 5.8173 2.45177 -5.88359 0
M  V30 66 C 3.5043 2.91276 -5.37216 0
M  V30 67 C 4.5023 2.63348 -6.30188 0
M  V30 68 O 4.1903 2.53514 -7.6288 0
M  V30 69 H 3.9223 0.494177 -0.461265 0
M  V30 70 H 6.4763 0.982632 -1.8037 0
M  V30 71 H 4.7063 3.52781 -1.58375 0
M  V30 72 H 6.3953 3.53059 -2.00261 0
M  V30 73 H 7.1613 2.40073 -4.21414 0
M  V30 74 H 3.0403 3.21854 -3.30047 0
M  V30 75 H 6.5843 2.23299 -6.60896 0
M  V30 76 H 2.4813 3.054 -5.68684 0
M  V30 77 H 3.2493 2.68967 -7.73045 0
M  V30 78 N 5.9124 1.20967 1.01018 0
M  V30 79 C 7.1404 1.04956 1.78303 0
M  V30 80 C 7.5554 -0.400915 1.84494 0
M  V30 81 O 6.9124 -1.27826 1.30257 0
M  V30 82 C 6.9634 1.63403 3.22462 0
M  V30 83 O 6.6844 3.02775 3.16637 0
M  V30 84 C 8.1854 1.52432 4.16268 0
M  V30 85 H 5.4054 0.368858 0.560522 0
M  V30 86 H 7.9494 1.60193 1.27116 0
M  V30 87 H 6.1044 1.1227 3.70775 0
M  V30 88 H 6.5184 3.30626 4.07169 0
M  V30 89 H 7.9924 1.98078 5.15237 0
M  V30 90 H 8.4694 0.477875 4.36592 0
M  V30 91 H 9.0754 2.02787 3.73841 0
M  V30 92 N 7.3905 -1.2043 1.01659 0
M  V30 93 C 8.6365 -1.90079 0.706963 0
M  V30 94 C 8.9695 -1.78648 -0.761474 0
M  V30 95 O 8.2445 -1.17069 -1.55323 0
M  V30 96 C 8.5275 -3.41469 1.14327 0
M  V30 97 C 8.3805 -3.61833 2.67201 0
M  V30 98 C 9.6995 -4.34261 0.714529 0
M  V30 99 H 6.8185 -0.690254 0.2583 0
M  V30 100 H 9.4605 -1.41826 1.26433 0
M  V30 101 H 7.6105 -3.82696 0.669056 0
M  V30 102 H 9.2825 -3.2986 3.22475 0
M  V30 103 H 7.5255 -3.05304 3.08175 0
M  V30 104 H 8.1965 -4.67955 2.92783 0
M  V30 105 H 10.6725 -4.00682 1.12221 0
M  V30 106 H 9.5485 -5.38806 1.04784 0
M  V30 107 H 9.8095 -4.40431 -0.383799 0
M  V30 108 N 8.8686 -0.792821 -1.36206 0
M  V30 109 C 9.8186 -0.166598 -2.27391 0
M  V30 110 C 10.8026 0.651479 -1.47121 0
M  V30 111 O 11.9946 0.510994 -1.69463 0
M  V30 112 C 9.1236 0.695033 -3.36191 0
M  V30 113 C 8.2096 -0.132019 -4.23894 0
M  V30 114 N 8.6006 -1.18822 -4.91645 0
M  V30 115 C 6.8986 0.0885952 -4.45912 0
M  V30 116 C 7.5996 -1.69198 -5.56549 0
M  V30 117 N 6.5756 -1.00065 -5.34311 0
M  V30 118 H 10.3776 -0.974947 -2.77258 0
M  V30 119 H 7.8916 -0.632616 -1.49572 0
M  V30 120 H 9.8886 1.1596 -4.00448 0
M  V30 121 H 8.5486 1.50189 -2.87877 0
M  V30 122 H 9.5596 -1.57069 -4.93507 0
M  V30 123 H 6.2366 0.865688 -4.08426 0
M  V30 124 H 7.6266 -2.57395 -6.20643 0
M  V30 125 N 10.3467 1.47872 -0.545128 0
M  V30 126 C 11.5927 2.02793 -0.0166104 0
M  V30 127 C 11.9257 1.41987 1.32489 0
M  V30 128 O 11.2007 0.571045 1.85928 0
M  V30 129 C 11.4837 3.59989 0.0893294 0
M  V30 130 C 11.3367 4.3125 -1.27841 0
M  V30 131 C 12.6557 4.32606 0.808724 0
M  V30 132 H 9.7747 0.736962 -0.00751035 0
M  V30 133 H 12.4167 1.76433 -0.705085 0
M  V30 134 H 10.5667 3.82579 0.675681 0
M  V30 135 H 12.2387 4.20035 -1.90704 0
M  V30 136 H 10.4817 3.92076 -1.85632 0
M  V30 137 H 11.1527 5.39736 -1.15713 0
M  V30 138 H 13.6287 4.14936 0.310992 0
M  V30 139 H 12.5047 5.42251 0.851782 0
M  V30 140 H 12.7657 4.00963 1.86229 0
M  V30 141 N 11.8248 0.280983 1.55075 0
M  V30 142 C 13.2408 -0.0729964 1.59433 0
M  V30 143 C 13.4408 -1.5411 1.29817 0
M  V30 144 O 12.4968 -2.29086 1.06187 0
M  V30 145 C 13.8098 0.306921 2.9913 0
M  V30 146 C 15.3578 0.254023 3.11968 0
M  V30 147 C 15.8328 0.608467 4.5394 0
M  V30 148 N 17.3238 0.560241 4.59799 0
M  V30 149 C 18.0588 0.80722 5.6769 0
M  V30 150 N 17.5548 1.11912 6.83701 0
M  V30 151 N 19.3478 0.735623 5.57266 0
M  V30 152 H 11.4988 1.238 1.7259 0
M  V30 153 H 13.7618 0.500547 0.805082 0
M  V30 154 H 13.4678 1.32816 3.25657 0
M  V30 155 H 13.3418 -0.349363 3.75579 0
M  V30 156 H 15.7288 -0.75794 2.852 0
M  V30 157 H 15.8098 0.944649 2.37718 0
M  V30 158 H 15.4538 1.61814 4.81434 0
M  V30 159 H 15.3838 -0.104013 5.26497 0
M  V30 160 H 17.8748 0.329288 3.76463 0
M  V30 161 H 18.1878 1.29409 7.61888 0
M  V30 162 H 16.5328 1.15695 6.85303 0
M  V30 163 H 19.7238 0.491752 4.6551 0
M  V30 164 H 19.8968 0.931482 6.4127 0
M  V30 165 N 13.3029 -1.57598 0.00835791 0
M  V30 166 C 14.5509 -1.90551 -0.6734 0
M  V30 167 C 14.8719 -0.883301 -1.73847 0
M  V30 168 O 14.1419 0.0781442 -1.95744 0
M  V30 169 H 12.7219 -0.703312 -0.251717 0
M  V30 170 H 15.3839 -1.94833 0.0512592 0
M  V30 171 H 14.4799 -2.9056 -1.13935 0
M  V30 172 N 14.781 0.264519 -1.55364 0
M  V30 173 C 15.691 1.34902 -1.91934 0
M  V30 174 C 16.707 1.53595 -0.817593 0
M  V30 175 O 17.883 1.67558 -1.11742 0
M  V30 176 C 14.948 2.68676 -2.19121 0
M  V30 177 C 14.009 2.58657 -3.4263 0
M  V30 178 C 13.242 3.86051 -3.68511 0
M  V30 179 O 13.465 4.87126 -2.96757 0
M  V30 180 O 12.399 3.85744 -4.62045 0
M  V30 181 H 16.225 1.06883 -2.8427 0
M  V30 182 H 13.81 0.463775 -1.42019 0
M  V30 183 H 15.692 3.47759 -2.37995 0
M  V30 184 H 14.367 2.96463 -1.29966 0
M  V30 185 H 13.274 1.7792 -3.29082 0
M  V30 186 H 14.607 2.35818 -4.32031 0
M  V30 187 N 16.2591 1.48442 0.529413 0
M  V30 188 C 17.5051 1.57699 1.28463 0
M  V30 189 C 17.8601 0.247913 1.90796 0
M  V30 190 O 17.1531 -0.749279 1.76342 0
M  V30 191 C 17.3471 2.6523 2.39558 0
M  V30 192 C 17.1761 4.08464 1.88114 0
M  V30 193 C 15.9461 4.75596 1.70693 0
M  V30 194 C 18.1441 4.94613 1.40935 0
M  V30 195 N 16.1261 6.03245 1.13881 0
M  V30 196 C 17.4971 6.12511 0.960734 0
M  V30 197 C 19.5521 4.80833 1.29243 0
M  V30 198 C 18.2551 7.18149 0.406792 0
M  V30 199 C 20.2811 5.86593 0.752487 0
M  V30 200 C 19.6431 7.037 0.313946 0
M  V30 201 H 15.7421 0.631608 0.46108 0
M  V30 202 H 18.3261 1.85325 0.596886 0
M  V30 203 H 16.4971 2.39425 3.05827 0
M  V30 204 H 18.2291 2.64169 3.06589 0
M  V30 205 H 14.9841 4.31938 1.94232 0
M  V30 206 H 15.4081 6.71324 0.874831 0
M  V30 207 H 20.0501 3.90635 1.61754 0
M  V30 208 H 17.7681 8.0807 0.0693671 0
M  V30 209 H 21.3541 5.77985 0.665192 0
M  V30 210 H 20.2341 7.8414 -0.0973632 0
M  V30 211 N 17.7372 -0.778329 1.37039 0
M  V30 212 C 18.6672 -1.90546 1.34962 0
M  V30 213 C 19.6482 -1.68681 0.219274 0
M  V30 214 O 20.8332 -1.89634 0.418624 0
M  V30 215 C 17.9632 -3.27734 1.14925 0
M  V30 216 C 16.9172 -3.64147 2.24902 0
M  V30 217 C 16.2432 -4.99806 1.89996 0
M  V30 218 C 17.5432 -3.71579 3.67051 0
M  V30 219 H 19.2372 -1.92541 2.29277 0
M  V30 220 H 16.7832 -0.924948 1.10366 0
M  V30 221 H 18.7362 -4.06215 1.12104 0
M  V30 222 H 17.4602 -3.26154 0.170631 0
M  V30 223 H 16.1192 -2.8797 2.26868 0
M  V30 224 H 15.7672 -4.94759 0.906796 0
M  V30 225 H 15.4672 -5.25139 2.63634 0
M  V30 226 H 16.9912 -5.80694 1.88749 0
M  V30 227 H 18.4052 -4.40227 3.67251 0
M  V30 228 H 16.8022 -4.08405 4.39688 0
M  V30 229 H 17.8722 -2.72404 4.01154 0
M  V30 230 N 19.2153 -1.21501 -1.00376 0
M  V30 231 C 20.1783 -0.976927 -2.07337 0
M  V30 232 C 21.1783 0.0525322 -1.60714 0
M  V30 233 O 22.3683 -0.184869 -1.73216 0
M  V30 234 C 19.5003 -0.473423 -3.37597 0
M  V30 235 H 20.6933 -1.92587 -2.29892 0
M  V30 236 H 18.2463 -1.03217 -1.17371 0
M  V30 237 H 18.9813 0.480379 -3.20722 0
M  V30 238 H 18.7663 -1.216 -3.72768 0
M  V30 239 H 20.2563 -0.32675 -4.1632 0
M  V30 240 N 20.6934 1.19889 -1.02296 0
M  V30 241 C 21.9394 1.89701 -0.717033 0
M  V30 242 C 22.2724 1.7905 0.751989 0
M  V30 243 O 21.5474 1.17891 1.547 0
M  V30 244 C 21.8304 3.40858 -1.16136 0
M  V30 245 C 21.6834 3.60411 -2.69117 0
M  V30 246 C 23.0024 4.33876 -0.737549 0
M  V30 247 H 20.1214 0.688874 -0.261957 0
M  V30 248 H 22.7634 1.41154 -1.27183 0
M  V30 249 H 20.9134 3.82335 -0.689342 0
M  V30 250 H 22.5854 3.28145 -3.2422 0
M  V30 251 H 20.8284 3.03665 -3.0979 0
M  V30 252 H 21.4994 4.66396 -2.95261 0
M  V30 253 H 23.9754 4.00081 -1.14344 0
M  V30 254 H 22.8514 5.38242 -1.0764 0
M  V30 255 H 23.1124 4.40628 0.360436 0
M  V30 256 N 22.1715 0.800033 1.35784 0
M  V30 257 C 23.5825 0.439142 1.81462 0
M  V30 258 C 23.9335 -1.03813 1.66485 0
M  V30 259 O 23.0585 -1.80626 1.19177 0
M  V30 260 C 23.6535 0.790314 3.29453 0
M  V30 261 C 22.2125 0.482111 3.733 0
M  V30 262 C 21.3595 1.01938 2.57883 0
M  V30 263 H 24.3105 0.992254 1.23855 0
M  V30 264 H 24.3315 0.0853677 3.80404 0
M  V30 265 H 23.8435 1.86554 3.40322 0
M  V30 266 H 21.9445 -0.584652 3.67984 0
M  V30 267 H 22.0575 1.01015 4.6833 0
M  V30 268 H 20.4215 0.442043 2.50835 0
M  V30 269 H 21.2045 2.10059 2.71533 0
M  V30 270 N 23.6496 -1.47581 0.552962 0
M  V30 271 C 24.8896 -2.04379 0.0296245 0
M  V30 272 C 25.2536 -1.4185 -1.29393 0
M  V30 273 O 26.4546 -1.89669 -1.90471 0
M  V30 274 C 24.7256 -3.57339 -0.0661371 0
M  V30 275 S 26.2846 -4.35511 -0.536213 0
M  V30 276 H 23.1026 -0.710625 0.0230991 0
M  V30 277 H 25.7046 -1.81005 0.738734 0
M  V30 278 H 24.4086 -4.00374 0.901596 0
M  V30 279 H 23.9396 -3.85202 -0.798931 0
M  V30 280 H 25.9546 -4.6253 -1.79668 0
M  V30 281 N 25.1277 -0.289203 -1.54924 0
M  V30 282 C 26.0597 0.625583 -2.20497 0
M  V30 283 C 27.0727 1.10667 -1.19402 0
M  V30 284 O 28.2617 1.02615 -1.46056 0
M  V30 285 C 25.3617 1.86702 -2.82835 0
M  V30 286 C 24.5347 1.5304 -4.09753 0
M  V30 287 C 23.5937 2.62576 -4.56005 0
M  V30 288 O 22.6197 2.28167 -5.21468 0
M  V30 289 N 23.8217 3.92901 -4.27328 0
M  V30 290 H 26.5867 0.0642801 -2.99631 0
M  V30 291 H 24.1477 -0.110896 -1.6152 0
M  V30 292 H 26.1397 2.59304 -3.10715 0
M  V30 293 H 24.7097 2.33702 -2.07611 0
M  V30 294 H 23.9297 0.637564 -3.8901 0
M  V30 295 H 25.2177 1.28072 -4.92418 0
M  V30 296 H 24.6157 4.23671 -3.74859 0
M  V30 297 H 23.1727 4.61837 -4.59946 0
M  V30 298 N 26.6058 1.57591 -0.0167156 0
M  V30 299 C 27.8828 1.82547 0.702564 0
M  V30 300 C 28.2628 0.898018 1.91047 0
M  V30 301 O 27.6108 -0.0493456 2.28447 0
M  V30 302 C 27.8208 3.31459 1.09251 0
M  V30 303 C 29.1688 3.97622 1.48937 0
M  V30 304 O 30.1928 3.35881 1.18584 0
M  V30 305 O 29.0518 5.06415 2.05442 0
M  V30 306 H 26.1458 0.752268 0.343544 0
M  V30 307 H 28.6918 1.69644 -0.0434495 0
M  V30 308 H 27.4638 3.9061 0.23227 0
M  V30 309 H 27.0868 3.49422 1.89709 0
M  V30 310 N 28.0839 -0.256276 1.55502 0
M  V30 311 C 29.0469 -1.30047 1.88734 0
M  V30 312 C 30.0469 -1.4154 0.763086 0
M  V30 313 O 31.2369 -1.40403 1.03115 0
M  V30 314 C 28.3689 -2.67953 2.10747 0
M  V30 315 H 29.5619 -1.01802 2.82093 0
M  V30 316 H 27.1149 -0.495134 1.4825 0
M  V30 317 H 27.8499 -3.01351 1.19825 0
M  V30 318 H 27.6349 -2.60993 2.92617 0
M  V30 319 H 29.1249 -3.43368 2.37673 0
M  V30 320 N 29.562 -1.4872 -0.521534 0
M  V30 321 C 30.494 -1.59968 -1.64143 0
M  V30 322 C 31.507 -0.483463 -1.55456 0
M  V30 323 O 32.696 -0.75467 -1.61762 0
M  V30 324 C 29.796 -1.52127 -3.02838 0
M  V30 325 C 28.969 -2.78932 -3.36921 0
M  V30 326 C 28.028 -2.64428 -4.54933 0
M  V30 327 O 27.054 -3.38331 -4.57735 0
M  V30 328 N 28.256 -1.74606 -5.53618 0
M  V30 329 H 31.021 -2.56548 -1.54929 0
M  V30 330 H 28.582 -1.45551 -0.708988 0
M  V30 331 H 30.574 -1.40106 -3.79674 0
M  V30 332 H 29.144 -0.634868 -3.06085 0
M  V30 333 H 28.364 -3.05455 -2.4918 0
M  V30 334 H 29.652 -3.63041 -3.56481 0
M  V30 335 H 29.05 -1.13782 -5.54139 0
M  V30 336 H 27.607 -1.6852 -6.29638 0
M  V30 337 N 31.0401 0.771051 -1.3745 0
M  V30 338 C 31.9701 1.89827 -1.3597 0
M  V30 339 C 32.9511 1.68562 -0.228216 0
M  V30 340 O 34.1361 1.8941 -0.428675 0
M  V30 341 C 31.2661 3.2712 -1.16662 0
M  V30 342 C 30.2201 3.6295 -2.2683 0
M  V30 343 C 29.5461 4.98791 -1.92644 0
M  V30 344 C 30.8461 3.69627 -3.69017 0
M  V30 345 H 32.5401 1.91323 -2.30295 0
M  V30 346 H 30.0861 0.919082 -1.10855 0
M  V30 347 H 32.0391 4.05615 -1.14256 0
M  V30 348 H 30.7631 3.26059 -0.187926 0
M  V30 349 H 29.4221 2.86763 -2.28392 0
M  V30 350 H 29.0701 4.94271 -0.933021 0
M  V30 351 H 28.7701 5.23733 -2.66416 0
M  V30 352 H 30.2941 5.79685 -1.91826 0
M  V30 353 H 31.7081 4.38273 -3.69581 0
M  V30 354 H 30.1051 4.06067 -4.41848 0
M  V30 355 H 31.1751 2.70273 -4.02592 0
M  V30 356 N 32.5182 1.22032 0.997298 0
M  V30 357 C 33.7462 1.06841 1.7718 0
M  V30 358 C 34.1612 -0.381325 1.84909 0
M  V30 359 O 33.5182 -1.26437 1.31605 0
M  V30 360 C 33.5692 1.66814 3.20711 0
M  V30 361 O 33.2902 3.06116 3.13408 0
M  V30 362 C 34.7912 1.56838 4.14628 0
M  V30 363 H 32.0112 0.374782 0.556578 0
M  V30 364 H 34.5552 1.61532 1.2541 0
M  V30 365 H 32.7102 1.16196 3.69564 0
M  V30 366 H 33.1242 3.34926 4.0364 0
M  V30 367 H 34.5982 2.03532 5.13107 0
M  V30 368 H 35.0752 0.524155 4.36061 0
M  V30 369 H 35.6812 2.06741 3.7167 0
M  V30 370 N 33.9963 -1.19345 1.0293 0
M  V30 371 C 35.2423 -1.89318 0.727083 0
M  V30 372 C 35.5753 -1.79446 -0.742483 0
M  V30 373 O 34.8503 -1.1871 -1.54072 0
M  V30 374 C 35.1333 -3.40238 1.17942 0
M  V30 375 C 34.9863 -3.58979 2.71024 0
M  V30 376 C 36.3053 -4.33479 0.760548 0
M  V30 377 H 33.4243 -0.687475 0.265606 0
M  V30 378 H 36.0663 -1.40477 1.2793 0
M  V30 379 H 34.2163 -3.81964 0.709608 0
M  V30 380 H 35.8883 -3.26421 3.25955 0
M  V30 381 H 34.1313 -3.02018 3.11396 0
M  V30 382 H 34.8023 -4.64823 2.9773 0
M  V30 383 H 37.2783 -3.99469 1.16464 0
M  V30 384 H 36.1543 -5.37664 1.10493 0
M  V30 385 H 36.4153 -4.40813 -0.337063 0
M  V30 386 N 35.4744 -0.807222 -1.35358 0
M  V30 387 C 36.7224 -0.387122 -1.98358 0
M  V30 388 C 37.0434 1.04942 -1.64354 0
M  V30 389 O 36.3134 1.72615 -0.926339 0
M  V30 390 H 34.8934 -0.140154 -0.733734 0
M  V30 391 H 37.5554 -1.0332 -1.6526 0
M  V30 392 H 36.6514 -0.493352 -3.08176 0
M  V30 393 N 36.9525 1.47285 -0.560781 0
M  V30 394 C 38.1985 2.03347 -0.0463654 0
M  V30 395 C 38.5535 1.42702 1.2905 0
M  V30 396 O 37.8465 0.574619 1.8278 0
M  V30 397 C 38.0405 3.57258 0.100784 0
M  V30 398 C 37.8695 4.32827 -1.22027 0
M  V30 399 C 36.6395 4.72588 -1.78854 0
M  V30 400 C 38.8375 4.67739 -2.13834 0
M  V30 401 N 36.8195 5.32816 -3.04927 0
M  V30 402 C 38.1905 5.28307 -3.24487 0
M  V30 403 C 40.2455 4.49667 -2.13784 0
M  V30 404 C 38.9485 5.72711 -4.35194 0
M  V30 405 C 40.9745 4.95073 -3.23506 0
M  V30 406 C 40.3365 5.55693 -4.32879 0
M  V30 407 H 36.4355 0.779755 -0.0592166 0
M  V30 408 H 39.0195 1.79723 -0.748857 0
M  V30 409 H 37.1905 3.80642 0.772404 0
M  V30 410 H 38.9225 3.9996 0.617589 0
M  V30 411 H 35.6775 4.54656 -1.32609 0
M  V30 412 H 36.1015 5.67471 -3.69197 0
M  V30 413 H 40.7435 4.02154 -1.30507 0
M  V30 414 H 38.4615 6.19214 -5.1923 0
M  V30 415 H 42.0475 4.82859 -3.24559 0
M  V30 416 H 40.9275 5.90188 -5.1638 0
M  V30 417 N 38.4306 0.297415 1.54768 0
M  V30 418 C 39.3606 -0.573494 2.26348 0
M  V30 419 C 40.3416 -1.14085 1.26169 0
M  V30 420 O 41.5266 -1.17086 1.54934 0
M  V30 421 C 38.6566 -1.74716 3.00153 0
M  V30 422 C 37.6106 -1.31032 4.07449 0
M  V30 423 C 36.9366 -2.56887 4.68949 0
M  V30 424 C 38.2366 -0.444183 5.20408 0
M  V30 425 H 39.9306 0.0235131 2.99391 0
M  V30 426 H 37.4766 0.0127488 1.43994 0
M  V30 427 H 39.4296 -2.3625 3.48947 0
M  V30 428 H 38.1536 -2.37035 2.24682 0
M  V30 429 H 36.8126 -0.718066 3.59499 0
M  V30 430 H 36.4606 -3.17512 3.90122 0
M  V30 431 H 36.1606 -2.2836 5.41411 0
M  V30 432 H 37.6846 -3.19229 5.20505 0
M  V30 433 H 39.0986 -0.9651 5.65118 0
M  V30 434 H 37.4956 -0.252846 5.99567 0
M  V30 435 H 38.5656 0.531609 4.81977 0
M  V30 436 N 39.9087 -1.5758 0.0250728 0
M  V30 437 C 41.1567 -1.91255 -0.653151 0
M  V30 438 C 41.4777 -0.901691 -1.729 0
M  V30 439 O 40.7477 0.0573785 -1.95816 0
M  V30 440 H 39.3277 -0.705942 -0.244243 0
M  V30 441 H 41.9897 -1.94767 0.0719209 0
M  V30 442 H 41.0857 -2.91752 -1.10847 0
M  V30 443 N 41.3868 0.248026 -1.55636 0
M  V30 444 C 42.8028 0.596483 -1.48035 0
M  V30 445 C 43.0028 1.88386 -0.715039 0
M  V30 446 O 42.0588 2.51319 -0.243944 0
M  V30 447 C 43.3718 0.700258 -2.92433 0
M  V30 448 C 44.9198 0.792659 -3.02797 0
M  V30 449 C 45.3948 0.928005 -4.485 0
M  V30 450 N 46.8858 0.992903 -4.52433 0
M  V30 451 C 47.6208 1.11687 -5.62418 0
M  V30 452 N 47.1168 1.20645 -6.82214 0
M  V30 453 N 48.9098 1.14994 -5.50212 0
M  V30 454 H 41.0608 -0.597109 -2.03834 0
M  V30 455 H 43.3238 -0.205925 -0.925364 0
M  V30 456 H 43.0298 -0.175658 -3.51261 0
M  V30 457 H 42.9038 1.57255 -3.42857 0
M  V30 458 H 45.2908 1.65903 -2.4405 0
M  V30 459 H 45.3718 -0.104762 -2.55585 0
M  V30 460 H 45.0158 0.0661971 -5.07857 0
M  V30 461 H 44.9458 1.84045 -4.93391 0
M  V30 462 H 47.4368 0.935064 -3.66149 0
M  V30 463 H 47.7498 1.30008 -7.61786 0
M  V30 464 H 46.0948 1.17605 -6.84977 0
M  V30 465 H 49.2858 1.07643 -4.55555 0
M  V30 466 H 49.4588 1.24311 -6.35965 0
M  V30 467 N 42.8649 1.48995 0.513639 0
M  V30 468 C 43.7749 1.67443 1.64317 0
M  V30 469 C 44.7909 0.556947 1.64846 0
M  V30 470 O 45.9669 0.830082 1.83498 0
M  V30 471 C 43.0319 1.72515 3.00732 0
M  V30 472 C 42.0929 2.96009 3.1093 0
M  V30 473 C 41.3259 3.00829 4.40837 0
M  V30 474 O 41.5489 2.13594 5.28898 0
M  V30 475 O 40.4829 3.93168 4.55744 0
M  V30 476 H 44.3089 2.63106 1.51687 0
M  V30 477 H 41.8939 1.32588 0.688543 0
M  V30 478 H 43.7759 1.78277 3.81831 0
M  V30 479 H 42.4509 0.800278 3.13651 0
M  V30 480 H 41.3579 2.9577 2.29065 0
M  V30 481 H 42.6909 3.87934 3.02933 0
M  V30 482 N 44.343 -0.763751 1.37857 0
M  V30 483 C 45.306 -1.85889 1.34081 0
M  V30 484 C 46.306 -1.58949 0.243277 0
M  V30 485 O 47.496 -1.66882 0.499589 0
M  V30 486 C 44.628 -3.23176 1.08489 0
M  V30 487 H 45.821 -1.90648 2.31502 0
M  V30 488 H 43.374 -0.964367 1.23003 0
M  V30 489 H 44.109 -3.24091 0.116318 0
M  V30 490 H 43.894 -3.44124 1.8794 0
M  V30 491 H 45.384 -4.03254 1.08517 0
M  V30 492 N 45.8211 -1.22559 -0.990812 0
M  V30 493 C 47.0671 -1.05297 -1.73322 0
M  V30 494 C 47.4001 0.410655 -1.89808 0
M  V30 495 O 46.6751 1.30439 -1.44277 0
M  V30 496 C 46.9581 -1.76713 -3.13759 0
M  V30 497 C 46.8111 -3.30684 -3.04907 0
M  V30 498 C 48.1301 -1.52121 -4.12974 0
M  V30 499 H 45.2491 -0.38392 -0.629106 0
M  V30 500 H 47.8911 -1.50926 -1.15418 0
M  V30 501 H 46.0411 -1.37924 -3.63193 0
M  V30 502 H 47.7131 -3.7893 -2.63077 0
M  V30 503 H 45.9561 -3.60253 -2.41661 0
M  V30 504 H 46.6271 -3.75833 -4.04294 0
M  V30 505 H 49.1031 -1.85819 -3.72304 0
M  V30 506 H 47.9791 -2.04582 -5.0935 0
M  V30 507 H 48.2401 -0.454257 -4.3976 0
M  V30 508 N 47.2992 1.18797 -1.03562 0
M  V30 509 C 48.7152 1.40671 -0.753917 0
M  V30 510 C 48.9152 1.9043 0.658686 0
M  V30 511 O 47.9712 2.08538 1.42366 0
M  V30 512 C 49.2842 2.41192 -1.79574 0
M  V30 513 C 50.8322 2.54928 -1.81606 0
M  V30 514 C 51.3072 3.58709 -2.84766 0
M  V30 515 N 52.7982 3.66212 -2.83625 0
M  V30 516 C 53.5332 4.46225 -3.60098 0
M  V30 517 N 53.0292 5.29888 -4.46308 0
M  V30 518 N 54.8222 4.40939 -3.4861 0
M  V30 519 H 46.9732 0.848221 -1.94728 0
M  V30 520 H 49.2362 0.435081 -0.842264 0
M  V30 521 H 48.9422 2.11669 -2.80872 0
M  V30 522 H 48.8162 3.40467 -1.62365 0
M  V30 523 H 51.2032 2.83771 -0.809817 0
M  V30 524 H 51.2842 1.55784 -2.02891 0
M  V30 525 H 50.9282 3.30607 -3.85566 0
M  V30 526 H 50.8582 4.57519 -2.60737 0
M  V30 527 H 53.3492 3.06466 -2.21105 0
M  V30 528 H 53.6622 5.88078 -5.01382 0
M  V30 529 H 52.0072 5.29326 -4.50377 0
M  V30 530 H 55.1982 3.74624 -2.80668 0
M  V30 531 H 55.3712 5.03056 -4.08459 0
M  V30 532 N 48.7773 0.814389 1.34928 0
M  V30 533 C 50.1933 0.499084 1.51596 0
M  V30 534 C 50.3933 -0.978319 1.76157 0
M  V30 535 O 49.4493 -1.76309 1.80752 0
M  V30 536 C 50.7623 1.35121 2.68631 0
M  V30 537 C 52.3103 1.34746 2.82511 0
M  V30 538 C 52.7853 2.18388 4.0258 0
M  V30 539 N 54.2763 2.15966 4.09772 0
M  V30 540 C 55.0113 2.77437 5.01813 0
M  V30 541 N 54.5073 3.47866 5.99134 0
M  V30 542 N 56.3003 2.67037 4.94619 0
M  V30 543 H 48.4513 1.7711 1.17243 0
M  V30 544 H 50.7143 0.754256 0.574284 0
M  V30 545 H 50.4203 2.40001 2.57085 0
M  V30 546 H 50.2943 1.00991 3.63429 0
M  V30 547 H 52.6813 0.30648 2.93504 0
M  V30 548 H 52.7623 1.72869 1.88547 0
M  V30 549 H 52.4063 3.2253 3.92347 0
M  V30 550 H 52.3363 1.77621 4.9574 0
M  V30 551 H 54.8273 1.64729 3.40107 0
M  V30 552 H 55.1403 3.92038 6.65977 0
M  V30 553 H 53.4853 3.51972 5.99284 0
M  V30 554 H 56.6763 2.11597 4.17546 0
M  V30 555 H 56.8493 3.15232 5.66156 0
M  V30 556 N 50.2554 -1.46986 0.568584 0
M  V30 557 C 51.4854 -2.0653 0.0539173 0
M  V30 558 C 51.8934 -1.42004 -1.25026 0
M  V30 559 O 51.2364 -0.514541 -1.76347 0
M  V30 560 C 51.2984 -3.58938 -0.200854 0
M  V30 561 C 50.9624 -4.45572 1.01559 0
M  V30 562 C 51.9594 -4.82986 1.92407 0
M  V30 563 C 49.6444 -4.8692 1.23346 0
M  V30 564 C 51.6384 -5.60559 3.03402 0
M  V30 565 C 49.3254 -5.64255 2.34649 0
M  V30 566 C 50.3234 -6.00986 3.24507 0
M  V30 567 O 50.0114 -6.76761 4.33878 0
M  V30 568 H 49.7434 -0.674292 0.0480234 0
M  V30 569 H 52.2974 -1.89812 0.784896 0
M  V30 570 H 50.5274 -3.73911 -0.986279 0
M  V30 571 H 52.2164 -4.0046 -0.662294 0
M  V30 572 H 52.9824 -4.51633 1.76785 0
M  V30 573 H 48.8614 -4.57789 0.543178 0
M  V30 574 H 52.4054 -5.89147 3.73565 0
M  V30 575 H 48.3024 -5.95021 2.5024 0
M  V30 576 H 49.0704 -6.95168 4.32068 0
M  V30 577 N 51.7335 -0.305618 -1.54608 0
M  V30 578 C 52.9825 0.303098 -1.9941 0
M  V30 579 C 53.2955 1.54648 -1.19764 0
M  V30 580 O 54.5015 2.23007 -1.54855 0
M  V30 581 C 52.9575 0.590588 -3.55021 0
M  V30 582 C 52.5655 -0.634719 -4.43481 0
M  V30 583 C 54.3095 1.16025 -4.08336 0
M  V30 584 C 52.2165 -0.320126 -5.90533 0
M  V30 585 H 51.1465 0.117031 -0.744862 0
M  V30 586 H 53.7975 -0.415045 -1.78745 0
M  V30 587 H 52.1795 1.36845 -3.71604 0
M  V30 588 H 53.3535 -1.41079 -4.38672 0
M  V30 589 H 51.6685 -1.12333 -4.00962 0
M  V30 590 H 54.2655 1.40994 -5.15776 0
M  V30 591 H 54.6085 2.10397 -3.5922 0
M  V30 592 H 55.1415 0.443985 -3.95315 0
M  V30 593 H 51.8805 -1.23254 -6.43808 0
M  V30 594 H 51.4005 0.418579 -5.98338 0
M  V30 595 H 53.0795 0.0766241 -6.46955 0
M  V30 596 N 53.2116 1.57565 -0.0334293 0
M  V30 597 C 54.1586 2.10478 0.946981 0
M  V30 598 C 55.1286 1.00787 1.32027 0
M  V30 599 O 56.3136 1.28232 1.41284 0
M  V30 600 C 53.4536 2.63994 2.22263 0
M  V30 601 C 52.5666 3.87709 1.90541 0
M  V30 602 C 51.7016 4.29604 3.12433 0
M  V30 603 C 50.7406 5.46065 2.76549 0
M  V30 604 N 49.8776 5.83096 3.9108 0
M  V30 605 H 54.7176 2.93963 0.488846 0
M  V30 606 H 52.2546 1.45296 0.22969 0
M  V30 607 H 54.2126 2.93114 2.96884 0
M  V30 608 H 52.8426 1.83333 2.65685 0
M  V30 609 H 51.8946 3.65291 1.06144 0
M  V30 610 H 53.2066 4.72403 1.60116 0
M  V30 611 H 52.3606 4.60182 3.9537 0
M  V30 612 H 51.0996 3.43685 3.46023 0
M  V30 613 H 50.1046 5.15176 1.92026 0
M  V30 614 H 51.3296 6.33685 2.44171 0
M  V30 615 H 49.2756 5.00132 4.24504 0
M  V30 616 H 49.1926 6.6244 3.64293 0
M  V30 617 H 50.4606 6.18282 4.74708 0
M  V30 618 N 54.6897 -0.239769 1.55765 0
M  V30 619 C 55.6377 -1.31668 1.91745 0
M  V30 620 C 56.6317 -1.49462 0.797338 0
M  V30 621 O 57.8377 -1.50852 0.982021 0
M  V30 622 H 54.2127 -0.441048 0.609082 0
M  V30 623 H 56.1837 -0.985923 2.81642 0
M  V30 624 C 54.9327 -2.66368 2.2348 0
M  V30 625 H 54.2557 -2.53478 3.09175 0
M  V30 626 H 55.6957 -3.40578 2.52553 0
M  V30 627 C 54.1547 -3.20002 1.05359 0
M  V30 628 O 54.6847 -4.00538 0.305261 0
M  V30 629 N 52.8907 -2.78126 0.842292 0
M  V30 630 H 52.4377 -2.12742 1.45253 0
M  V30 631 H 52.3957 -3.14354 0.053652 0
M  V30 632 N 56.1678 -1.49265 -0.50573 0
M  V30 633 C 57.1148 -1.65585 -1.6078 0
M  V30 634 C 58.0848 -0.497396 -1.58478 0
M  V30 635 O 59.2698 -0.72385 -1.76536 0
M  V30 636 C 56.4098 -1.72408 -2.98948 0
M  V30 637 C 55.5228 -2.99525 -3.11301 0
M  V30 638 C 54.6578 -2.97356 -4.40174 0
M  V30 639 C 53.6968 -4.19074 -4.46143 0
M  V30 640 N 52.8338 -4.14841 -5.66437 0
M  V30 641 H 57.6738 -2.59688 -1.46172 0
M  V30 642 H 55.2108 -1.28761 -0.711261 0
M  V30 643 H 57.1688 -1.74344 -3.79025 0
M  V30 644 H 55.7988 -0.817753 -3.1227 0
M  V30 645 H 54.8508 -3.07222 -2.24318 0
M  V30 646 H 56.1628 -3.89518 -3.11572 0
M  V30 647 H 55.3168 -2.97829 -5.28567 0
M  V30 648 H 54.0558 -2.05133 -4.42461 0
M  V30 649 H 53.0608 -4.1885 -3.56153 0
M  V30 650 H 54.2858 -5.12483 -4.45575 0
M  V30 651 H 52.2318 -3.25453 -5.69575 0
M  V30 652 H 52.1488 -4.98564 -5.68304 0
M  V30 653 H 53.4168 -4.1941 -6.57051 0
M  V30 654 N 57.6459 0.756429 -1.3826 0
M  V30 655 C 59.0569 1.33359 -1.30661 0
M  V30 656 C 59.4079 1.96161 0.0388875 0
M  V30 657 O 58.5329 1.94874 0.940918 0
M  V30 658 C 59.1279 2.42477 -2.36622 0
M  V30 659 C 57.6869 2.95922 -2.3261 0
M  V30 660 C 56.8339 1.69275 -2.19639 0
M  V30 661 H 59.7849 0.55552 -1.4866 0
M  V30 662 H 59.8059 3.22345 -2.02174 0
M  V30 663 H 59.3179 1.96739 -3.34538 0
M  V30 664 H 57.4189 3.45996 -1.38267 0
M  V30 665 H 57.5319 3.50494 -3.26636 0
M  V30 666 H 55.8959 1.92793 -1.66442 0
M  V30 667 H 56.6789 1.25619 -3.19491 0
M  V30 668 N 59.124 1.23083 0.984299 0
M  V30 669 C 60.401 0.9689 1.69917 0
M  V30 670 C 60.781 -0.513604 2.04757 0
M  V30 671 O 60.129 -1.48383 1.73767 0
M  V30 672 C 60.339 1.87518 2.94343 0
M  V30 673 C 61.687 2.13636 3.6694 0
M  V30 674 O 62.711 1.85036 3.04368 0
M  V30 675 O 61.57 2.62119 4.79537 0
M  V30 676 H 58.664 0.365095 0.742048 0
M  V30 677 H 61.21 1.34107 1.03987 0
M  V30 678 H 59.982 2.87756 2.65164 0
M  V30 679 H 59.605 1.50514 3.6801 0
M  V30 680 N 60.6021 -1.18246 1.0419 0
M  V30 681 C 61.5501 -2.23968 0.627792 0
M  V30 682 C 62.5441 -1.65828 -0.346019 0
M  V30 683 O 63.7501 -1.78733 -0.213175 0
M  V30 684 H 60.1251 -0.728939 0.184802 0
M  V30 685 H 62.0961 -2.56202 1.52981 0
M  V30 686 C 60.8451 -3.47699 0.00796591 0
M  V30 687 H 60.1681 -3.92734 0.748347 0
M  V30 688 H 61.6081 -4.23294 -0.24455 0
M  V30 689 C 60.0671 -3.13153 -1.24246 0
M  V30 690 O 60.5971 -3.27003 -2.33307 0
M  V30 691 N 58.8031 -2.67467 -1.13622 0
M  V30 692 H 58.3501 -2.56396 -0.248734 0
M  V30 693 H 58.3081 -2.44724 -1.97377 0
M  V30 694 N 62.0802 -0.821533 -1.34494 0
M  V30 695 C 63.3282 -0.408139 -1.97936 0
M  V30 696 C 63.6492 1.03193 -1.65457 0
M  V30 697 O 62.9192 1.71622 -0.944595 0
M  V30 698 H 61.4992 -0.147928 -0.732206 0
M  V30 699 H 64.1612 -1.05067 -1.64155 0
M  V30 700 H 63.2572 -0.52601 -3.07635 0
M  V30 701 N 63.5583 1.46682 -0.576371 0
M  V30 702 C 64.8063 2.02013 -0.0594163 0
M  V30 703 C 65.1273 1.45101 1.30271 0
M  V30 704 O 64.3973 0.633317 1.8538 0
M  V30 705 H 62.9773 0.746759 -0.0189745 0
M  V30 706 H 65.6393 1.79862 -0.750717 0
M  V30 707 H 64.7353 3.12097 0.014345 0
M  V30 708 N 65.0364 0.313813 1.54444 0
M  V30 709 C 66.2834 -0.291675 2.00388 0
M  V30 710 C 66.6114 -1.52904 1.2021 0
M  V30 711 O 65.8664 -1.93833 0.269707 0
M  V30 712 C 66.1654 -0.680386 3.50864 0
M  V30 713 C 65.8314 0.456699 4.48581 0
M  V30 714 C 64.4934 0.768824 4.75018 0
M  V30 715 C 66.8454 1.22098 5.06697 0
M  V30 716 C 64.1734 1.84812 5.56831 0
M  V30 717 C 66.5254 2.29029 5.89685 0
M  V30 718 C 65.1894 2.60834 6.14428 0
M  V30 719 H 64.4594 -0.106732 0.733273 0
M  V30 720 H 67.1064 0.43557 1.86481 0
M  V30 721 H 65.4114 -1.48791 3.62448 0
M  V30 722 H 67.1084 -1.16026 3.83847 0
M  V30 723 H 63.6984 0.203337 4.28117 0
M  V30 724 H 67.8824 0.993096 4.86263 0
M  V30 725 H 63.1384 2.09912 5.74236 0
M  V30 726 H 67.3124 2.887 6.33739 0
M  V30 727 H 64.9394 3.44596 6.77612 0
M  V30 728 N 66.5145 -1.57545 0.0417849 0
M  V30 729 C 67.7425 -1.96624 -0.643928 0
M  V30 730 C 68.1575 -0.918897 -1.64929 0
M  V30 731 O 67.5145 0.0979323 -1.82237 0
M  V30 732 C 67.5655 -3.35781 -1.33914 0
M  V30 733 O 67.2865 -4.365 -0.374048 0
M  V30 734 C 68.7875 -3.89566 -2.1155 0
M  V30 735 H 66.0075 -0.647316 -0.176702 0
M  V30 736 H 68.5515 -2.04229 0.105304 0
M  V30 737 H 66.7065 -3.29357 -2.03968 0
M  V30 738 H 67.1205 -5.17248 -0.869179 0
M  V30 739 H 68.5945 -4.89242 -2.55628 0
M  V30 740 H 69.0715 -3.24488 -2.9598 0
M  V30 741 H 69.6775 -3.99298 -1.46427 0
M  V30 742 N 67.9926 0.231505 -1.5589 0
M  V30 743 C 69.2176 0.978689 -1.82856 0
M  V30 744 C 69.6426 1.77559 -0.620846 0
M  V30 745 O 69.0006 1.76119 0.430305 0
M  V30 746 C 69.0486 1.87997 -3.07716 0
M  V30 747 O 68.1526 2.97393 -2.85712 0
M  V30 748 H 67.4936 0.277663 -0.603158 0
M  V30 749 H 70.0236 0.24783 -2.03093 0
M  V30 750 H 70.0336 2.2917 -3.37558 0
M  V30 751 H 68.7086 1.29417 -3.95252 0
M  V30 752 H 67.2856 2.60238 -2.67078 0
M  V30 753 N 69.4707 1.49531 0.497807 0
M  V30 754 C 70.7167 1.59415 1.25358 0
M  V30 755 C 71.0497 0.281422 1.9215 0
M  V30 756 O 70.3247 -0.715249 1.80871 0
M  V30 757 C 70.6077 2.75566 2.3181 0
M  V30 758 C 70.4607 4.16642 1.69498 0
M  V30 759 C 71.7797 2.87347 3.33346 0
M  V30 760 H 68.8987 0.580244 0.454408 0
M  V30 761 H 71.5407 1.81827 0.551262 0
M  V30 762 H 69.6907 2.56587 2.91711 0
M  V30 763 H 71.3627 4.47145 1.13399 0
M  V30 764 H 69.6057 4.22141 0.998978 0
M  V30 765 H 70.2767 4.93792 2.46725 0
M  V30 766 H 72.7527 3.04634 2.83438 0
M  V30 767 H 71.6287 3.70289 4.05188 0
M  V30 768 H 71.8897 1.96834 3.95865 0
M  V30 769 N 70.9488 -0.749086 1.3866 0
M  V30 770 C 72.2258 -1.4992 1.25632 0
M  V30 771 C 72.6058 -2.10633 -0.140317 0
M  V30 772 O 71.9538 -1.97437 -1.15025 0
M  V30 773 C 72.1638 -2.56195 2.36992 0
M  V30 774 C 73.5118 -3.22972 2.75634 0
M  V30 775 O 74.5358 -2.66502 2.36337 0
M  V30 776 O 73.3948 -4.25122 3.43415 0
M  V30 777 H 70.4888 -0.665067 0.491544 0
M  V30 778 H 73.0348 -0.784113 1.50498 0
M  V30 779 H 71.8068 -2.09612 3.30422 0
M  V30 780 H 71.4298 -3.35279 2.13714 0
M  V30 781 N 72.4269 -1.23603 -0.977757 0
M  V30 782 C 73.7039 -0.977897 -1.69401 0
M  V30 783 C 74.0839 0.502738 -2.05026 0
M  V30 784 O 73.4319 1.47459 -1.74551 0
M  V30 785 C 73.6419 -1.89077 -2.93345 0
M  V30 786 C 74.9899 -2.15579 -3.65802 0
M  V30 787 O 76.0139 -1.86648 -3.03383 0
M  V30 788 O 74.8729 -2.64658 -4.78141 0
M  V30 789 H 71.9669 -0.369025 -0.740101 0
M  V30 790 H 74.5129 -1.34657 -1.03274 0
M  V30 791 H 73.2849 -2.89158 -2.63634 0
M  V30 792 H 72.9079 -1.52463 -3.67207 0
M  V30 793 N 73.905 1.17692 -1.04816 0
M  V30 794 C 74.868 2.19787 -0.650117 0
M  V30 795 C 75.868 1.58044 0.296427 0
M  V30 796 O 77.058 1.74012 0.0808097 0
M  V30 797 C 74.19 3.40869 0.0456987 0
M  V30 798 H 75.383 2.56516 -1.5537 0
M  V30 799 H 72.936 1.31708 -0.841594 0
M  V30 800 H 73.671 3.09681 0.962726 0
M  V30 801 H 73.456 3.86928 -0.634727 0
M  V30 802 H 74.946 4.16445 0.310432 0
M  V30 803 N 75.3831 0.828654 1.34056 0
M  V30 804 C 76.3331 0.226828 2.26869 0
M  V30 805 C 77.3171 -0.612243 1.48796 0
M  V30 806 O 78.5091 -0.465884 1.70759 0
M  V30 807 C 75.6381 -0.605654 3.37915 0
M  V30 808 C 74.7241 0.244361 4.23395 0
M  V30 809 N 75.1151 1.31815 4.88322 0
M  V30 810 C 73.4131 0.0296616 4.4599 0
M  V30 811 C 74.1141 1.83895 5.51867 0
M  V30 812 N 73.0901 1.14196 5.3147 0
M  V30 813 H 76.8921 1.04811 2.74576 0
M  V30 814 H 74.4061 0.67205 1.47842 0
M  V30 815 H 76.4031 -1.05302 4.03382 0
M  V30 816 H 75.0631 -1.42504 2.91758 0
M  V30 817 H 76.0741 1.70099 4.8917 0
M  V30 818 H 72.7511 -0.757097 4.10578 0
M  V30 819 H 74.1411 2.7376 6.136 0
M  V30 820 N 76.8612 -1.46375 0.584142 0
M  V30 821 C 78.1082 -2.02378 0.0702675 0
M  V30 822 C 78.4362 -1.45545 -1.29023 0
M  V30 823 O 77.6912 -0.610967 -1.85918 0
M  V30 824 C 77.9902 -3.57373 -0.0439342 0
M  V30 825 C 77.6562 -4.33252 1.24915 0
M  V30 826 C 76.3182 -4.53701 1.60341 0
M  V30 827 C 78.6702 -4.7681 2.1048 0
M  V30 828 C 75.9982 -5.1496 2.81128 0
M  V30 829 C 78.3502 -5.39404 3.30494 0
M  V30 830 C 77.0142 -5.5808 3.66201 0
M  V30 831 H 76.2842 -0.740554 0.0257127 0
M  V30 832 H 78.9312 -1.75727 0.761065 0
M  V30 833 H 77.2362 -3.83169 -0.817869 0
M  V30 834 H 78.9332 -3.98384 -0.457318 0
M  V30 835 H 75.5232 -4.17633 0.963364 0
M  V30 836 H 79.7072 -4.60766 1.84414 0
M  V30 837 H 74.9632 -5.27611 3.08928 0
M  V30 838 H 79.1372 -5.72114 3.97063 0
M  V30 839 H 76.7642 -6.05318 4.59885 0
M  V30 840 N 78.3393 -0.321999 -1.54275 0
M  V30 841 C 79.2693 0.537411 -2.27231 0
M  V30 842 C 80.2503 1.12064 -1.27968 0
M  V30 843 O 81.4353 1.14606 -1.56777 0
M  V30 844 C 78.5653 1.69919 -3.02894 0
M  V30 845 C 77.5193 1.24534 -4.09482 0
M  V30 846 C 76.8453 2.49394 -4.72977 0
M  V30 847 C 78.1453 0.361335 -5.21049 0
M  V30 848 H 79.8393 -0.0711406 -2.99315 0
M  V30 849 H 77.3853 -0.0356555 -1.43956 0
M  V30 850 H 79.3383 2.30668 -3.52662 0
M  V30 851 H 78.0623 2.33431 -2.28424 0
M  V30 852 H 76.7213 0.660782 -3.60596 0
M  V30 853 H 76.3693 3.11265 -3.95124 0
M  V30 854 H 76.0693 2.19718 -5.44975 0
M  V30 855 H 77.5933 3.10908 -5.25517 0
M  V30 856 H 79.0073 0.875072 -5.66582 0
M  V30 857 H 77.4043 0.157428 -5.99893 0
M  V30 858 H 78.4743 -0.60822 -4.8107 0
M  V30 859 N 79.8174 1.5752 -0.0501392 0
M  V30 860 C 81.0634 1.92936 0.624798 0
M  V30 861 C 81.3964 0.928685 1.70555 0
M  V30 862 O 80.6714 -0.0454779 1.94447 0
M  V30 863 C 80.9544 3.38737 1.22185 0
M  V30 864 C 80.8074 4.49552 0.149218 0
M  V30 865 C 82.1264 3.84913 2.13378 0
M  V30 866 H 79.2454 0.701604 0.225657 0
M  V30 867 H 81.8874 1.89671 -0.111693 0
M  V30 868 H 80.0374 3.4165 1.84953 0
M  V30 869 H 81.7094 4.58768 -0.482648 0
M  V30 870 H 79.9524 4.30638 -0.522841 0
M  V30 871 H 80.6234 5.48653 0.606966 0
M  V30 872 H 83.0994 3.8387 1.60572 0
M  V30 873 H 81.9754 4.87584 2.52097 0
M  V30 874 H 82.2364 3.21611 3.03346 0
M  V30 875 N 81.2955 -0.223234 1.56011 0
M  V30 876 C 82.7115 -0.572856 1.48965 0
M  V30 877 C 82.9115 -1.87225 0.74492 0
M  V30 878 O 81.9675 -2.50899 0.283896 0
M  V30 879 C 83.2805 -0.653646 2.9351 0
M  V30 880 C 84.8285 -0.744386 3.0402 0
M  V30 881 C 85.3035 -0.856535 4.49919 0
M  V30 882 N 86.7945 -0.9208 4.53955 0
M  V30 883 C 87.5295 -1.02726 5.64123 0
M  V30 884 N 87.0255 -1.09777 6.84047 0
M  V30 885 N 88.8185 -1.06226 5.51971 0
M  V30 886 H 80.9695 0.629462 2.02858 0
M  V30 887 H 83.2325 0.220621 0.921971 0
M  V30 888 H 82.9385 0.231518 3.50937 0
M  V30 889 H 82.8125 -1.51781 3.45315 0
M  V30 890 H 85.1995 -1.61999 2.46658 0
M  V30 891 H 85.2805 0.14541 2.55386 0
M  V30 892 H 84.9245 0.0146069 5.07898 0
M  V30 893 H 84.8545 -1.76172 4.96257 0
M  V30 894 H 87.3455 -0.876694 3.6759 0
M  V30 895 H 87.6585 -1.17872 7.63758 0
M  V30 896 H 86.0035 -1.06693 6.86762 0
M  V30 897 H 89.1945 -1.00382 4.5721 0
M  V30 898 H 89.3675 -1.14177 6.37862 0
M  V30 899 N 82.7736 -1.49793 -0.48987 0
M  V30 900 C 84.1896 -1.36803 -0.822022 0
M  V30 901 C 84.3896 -0.409652 -1.97292 0
M  V30 902 O 83.4456 0.154614 -2.52026 0
M  V30 903 C 84.7586 -2.77768 -1.15175 0
M  V30 904 C 86.3066 -2.86549 -1.25931 0
M  V30 905 C 86.7816 -4.28306 -1.62228 0
M  V30 906 N 88.2726 -4.31169 -1.69256 0
M  V30 907 C 89.0076 -5.37832 -1.98807 0
M  V30 908 N 88.5036 -6.54726 -2.26507 0
M  V30 909 N 90.2966 -5.25258 -2.00152 0
M  V30 910 H 82.4476 -2.10691 0.268881 0
M  V30 911 H 84.7106 -0.946241 0.057728 0
M  V30 912 H 84.4166 -3.49648 -0.379335 0
M  V30 913 H 84.2906 -3.13836 -2.09253 0
M  V30 914 H 86.6776 -2.14899 -2.02243 0
M  V30 915 H 86.7586 -2.54049 -0.298776 0
M  V30 916 H 86.4026 -5.00486 -0.864622 0
M  V30 917 H 86.3326 -4.58279 -2.594 0
M  V30 918 H 88.8236 -3.4687 -1.49965 0
M  V30 919 H 89.1366 -7.31833 -2.48276 0
M  V30 920 H 87.4816 -6.57933 -2.23939 0
M  V30 921 H 90.6726 -4.32938 -1.77996 0
M  V30 922 H 90.8456 -6.08476 -2.22848 0
M  V30 923 N 84.2517 0.741722 -1.39055 0
M  V30 924 C 85.4917 1.51385 -1.37338 0
M  V30 925 C 85.8557 1.91972 0.0330513 0
M  V30 926 O 87.0567 2.68229 0.175174 0
M  V30 927 C 85.3277 2.72481 -2.31276 0
M  V30 928 S 86.8867 3.62211 -2.47687 0
M  V30 929 H 83.7047 0.517906 -0.487129 0
M  V30 930 H 86.3067 0.86969 -1.7509 0
M  V30 931 H 85.0107 2.40793 -3.32336 0
M  V30 932 H 84.5417 3.41832 -1.94716 0
M  V30 933 H 86.5567 4.65812 -1.70978 0
M  V30 934 N 85.7298 1.2412 0.971189 0
M  V30 935 C 86.6768 1.0305 2.06517 0
M  V30 936 C 87.6468 -0.0550666 1.66009 0
M  V30 937 O 88.8318 0.0988688 1.90544 0
M  V30 938 C 85.9718 0.637653 3.39158 0
M  V30 939 C 85.0848 1.79633 3.92882 0
M  V30 940 C 84.2198 1.34939 5.13775 0
M  V30 941 C 83.2588 2.47823 5.59687 0
M  V30 942 N 82.3958 2.04022 6.71803 0
M  V30 943 H 87.2358 1.96685 2.23873 0
M  V30 944 H 84.7728 0.979694 1.09729 0
M  V30 945 H 86.7308 0.390931 4.15364 0
M  V30 946 H 85.3608 -0.261693 3.21737 0
M  V30 947 H 84.4128 2.15681 3.13346 0
M  V30 948 H 85.7248 2.64466 4.22918 0
M  V30 949 H 84.8788 1.06134 5.97345 0
M  V30 950 H 83.6178 0.471557 4.85415 0
M  V30 951 H 82.6228 2.77392 4.74693 0
M  V30 952 H 83.8478 3.36158 5.90063 0
M  V30 953 H 81.7938 1.18632 6.45184 0
M  V30 954 H 81.7108 2.82409 7.01271 0
M  V30 955 H 82.9788 1.78347 7.58823 0
M  V30 956 N 87.2079 -1.17134 1.05439 0
M  V30 957 C 88.4559 -1.87085 0.764429 0
M  V30 958 C 88.7769 -1.81584 -0.710787 0
M  V30 959 O 88.0469 -1.24349 -1.51374 0
M  V30 960 H 86.6269 -0.692627 0.279779 0
M  V30 961 H 89.2889 -1.42087 1.33406 0
M  V30 962 H 88.3849 -2.92759 1.0816 0
M  V30 963 N 88.686 -0.835752 -1.33615 0
M  V30 964 C 89.616 -0.281739 -2.31794 0
M  V30 965 C 90.597 0.608833 -1.58831 0
M  V30 966 O 91.782 0.533035 -1.86741 0
M  V30 967 C 88.912 0.546612 -3.42971 0
M  V30 968 C 87.866 -0.247904 -4.27281 0
M  V30 969 C 87.192 0.704001 -5.30045 0
M  V30 970 C 88.492 -1.46324 -5.01385 0
M  V30 971 H 90.186 -1.10206 -2.78379 0
M  V30 972 H 87.732 -0.531388 -1.33837 0
M  V30 973 H 89.685 0.944467 -4.1068 0
M  V30 974 H 88.409 1.40011 -2.95067 0
M  V30 975 H 87.068 -0.627281 -3.61194 0
M  V30 976 H 86.716 1.55381 -4.78399 0
M  V30 977 H 86.416 0.176524 -5.87335 0
M  V30 978 H 87.94 1.09944 -6.0062 0
M  V30 979 H 89.354 -1.13871 -5.61877 0
M  V30 980 H 87.751 -1.92728 -5.6831 0
M  V30 981 H 88.821 -2.23467 -4.30338 0
M  V30 982 N 90.1641 1.46063 -0.591896 0
M  V30 983 C 91.4121 2.01938 -0.0808391 0
M  V30 984 C 91.7331 1.46475 1.28725 0
M  V30 985 O 91.0031 0.652944 1.84698 0
M  V30 986 H 89.5831 0.746516 -0.0268938 0
M  V30 987 H 92.2451 1.79055 -0.769752 0
M  V30 988 H 91.3411 3.12094 -0.0187578 0
M  V30 989 N 91.6422 0.330177 1.54103 0
M  V30 990 C 92.5722 -0.525353 2.27513 0
M  V30 991 C 93.5532 -1.11383 1.2856 0
M  V30 992 O 94.7382 -1.13773 1.57383 0
M  V30 993 C 91.8682 -1.6831 3.03791 0
M  V30 994 C 90.8222 -1.2236 4.10137 0
M  V30 995 C 90.1482 -2.46882 4.74293 0
M  V30 996 C 91.4482 -0.333697 5.21233 0
M  V30 997 H 93.1422 0.087013 2.99274 0
M  V30 998 H 90.6882 0.0432893 1.43935 0
M  V30 999 H 92.6412 -2.28795 3.5388 0
M  V30 1000 H 91.3652 -2.32216 2.29659 0
M  V30 1001 H 90.0242 -0.64165 3.60941 0
M  V30 1002 H 89.6722 -3.09165 3.96769 0
M  V30 1003 H 89.3722 -2.16825 5.46133 0
M  V30 1004 H 90.8962 -3.08117 5.27159 0
M  V30 1005 H 92.3102 -0.845013 5.67038 0
M  V30 1006 H 90.7072 -0.125612 5.99969 0
M  V30 1007 H 91.7772 0.633724 4.80741 0
M  V30 1008 N 93.1203 -1.57491 0.0584922 0
M  V30 1009 C 94.0503 -2.14988 -0.911178 0
M  V30 1010 C 95.0313 -1.07343 -1.31952 0
M  V30 1011 O 96.2163 -1.35318 -1.39294 0
M  V30 1012 C 93.3463 -2.70078 -2.18347 0
M  V30 1013 C 92.3003 -3.82771 -1.91495 0
M  V30 1014 C 91.6263 -4.24408 -3.25241 0
M  V30 1015 C 92.9263 -5.07592 -1.23075 0
M  V30 1016 H 94.6203 -2.96263 -0.432246 0
M  V30 1017 H 92.1663 -1.42512 -0.206469 0
M  V30 1018 H 94.1193 -3.08943 -2.86587 0
M  V30 1019 H 92.8433 -1.86005 -2.68458 0
M  V30 1020 H 91.5023 -3.44389 -1.25664 0
M  V30 1021 H 91.1503 -3.37275 -3.73168 0
M  V30 1022 H 90.8503 -5.00366 -3.08071 0
M  V30 1023 H 92.3743 -4.65879 -3.94701 0
M  V30 1024 H 93.7883 -5.43857 -1.81362 0
M  V30 1025 H 92.1853 -5.88741 -1.16207 0
M  V30 1026 H 93.2553 -4.84454 -0.207847 0
M  V30 1027 N 94.5984 0.214957 -1.56127 0
M  V30 1028 C 95.8754 0.963093 -1.70247 0
M  V30 1029 C 96.2554 2.02166 -0.60764 0
M  V30 1030 O 95.6034 2.25244 0.384385 0
M  V30 1031 C 95.8134 1.56756 -3.11815 0
M  V30 1032 C 97.1614 2.0573 -3.7143 0
M  V30 1033 O 98.1854 1.66637 -3.14818 0
M  V30 1034 O 97.0444 2.77603 -4.70743 0
M  V30 1035 H 94.1384 0.450321 -0.693643 0
M  V30 1036 H 96.6844 0.206219 -1.68442 0
M  V30 1037 H 95.4564 0.803533 -3.82961 0
M  V30 1038 H 95.0794 2.3898 -3.17765 0
M  V30 1039 N 96.0765 1.50051 0.48192 0
M  V30 1040 C 97.0245 1.68635 1.60203 0
M  V30 1041 C 98.0185 0.552184 1.60148 0
M  V30 1042 O 99.2245 0.732377 1.64427 0
M  V30 1043 H 95.5995 0.532081 0.531407 0
M  V30 1044 H 97.5705 2.62616 1.41688 0
M  V30 1045 C 96.3195 1.78775 2.9822 0
M  V30 1046 H 95.6425 2.6543 2.98976 0
M  V30 1047 H 97.0825 1.95806 3.7608 0
M  V30 1048 C 95.5415 0.536849 3.32595 0
M  V30 1049 O 96.0715 -0.328897 4.00351 0
M  V30 1050 N 94.2775 0.394091 2.87915 0
M  V30 1051 H 93.8245 1.09962 2.32951 0
M  V30 1052 H 93.7825 -0.441737 3.11281 0
M  V30 1053 N 97.5546 -0.734337 1.39446 0
M  V30 1054 C 98.4646 -1.87879 1.40495 0
M  V30 1055 C 99.4806 -1.714 0.299672 0
M  V30 1056 O 100.657 -1.93991 0.541249 0
M  V30 1057 C 97.7216 -3.23477 1.24754 0
M  V30 1058 C 96.7826 -3.52344 2.45259 0
M  V30 1059 C 96.0156 -4.81473 2.30259 0
M  V30 1060 O 96.2386 -5.55237 1.30643 0
M  V30 1061 O 95.1726 -5.10254 3.19256 0
M  V30 1062 H 98.9986 -1.89949 2.36966 0
M  V30 1063 H 96.5836 -0.882243 1.20569 0
M  V30 1064 H 98.4656 -4.04509 1.18111 0
M  V30 1065 H 97.1406 -3.22176 0.313781 0
M  V30 1066 H 96.0476 -2.71396 2.57478 0
M  V30 1067 H 97.3806 -3.58426 3.37331 0
M  V30 1068 N 99.0327 -1.24633 -0.964593 0
M  V30 1069 C 100.31 -0.995809 -1.68354 0
M  V30 1070 C 100.69 0.480964 -2.05548 0
M  V30 1071 O 100.038 1.45599 -1.76105 0
M  V30 1072 C 100.248 -1.92177 -2.91323 0
M  V30 1073 C 101.596 -2.19446 -3.63495 0
M  V30 1074 O 102.62 -1.89855 -3.01386 0
M  V30 1075 O 101.479 -2.69714 -4.75307 0
M  V30 1076 H 98.5727 -0.376854 -0.736146 0
M  V30 1077 H 101.119 -1.35745 -1.0184 0
M  V30 1078 H 99.8907 -2.91938 -2.60553 0
M  V30 1079 H 99.5137 -1.56349 -3.65569 0
M  V30 1080 N 100.511 1.16574 -1.06058 0
M  V30 1081 C 101.927 1.3904 -0.783585 0
M  V30 1082 C 102.127 1.91784 0.618145 0
M  V30 1083 O 101.183 2.11511 1.37911 0
M  V30 1084 C 102.496 2.37329 -1.84649 0
M  V30 1085 C 104.044 2.51018 -1.86973 0
M  V30 1086 C 104.519 3.52588 -2.92311 0
M  V30 1087 N 106.01 3.60113 -2.91329 0
M  V30 1088 C 106.745 4.38486 -3.69482 0
M  V30 1089 N 106.241 5.20302 -4.57447 0
M  V30 1090 N 108.034 4.33446 -3.57885 0
M  V30 1091 H 100.185 0.806725 -1.96483 0
M  V30 1092 H 102.448 0.417117 -0.851303 0
M  V30 1093 H 102.154 2.05663 -2.85299 0
M  V30 1094 H 102.028 3.36946 -1.6955 0
M  V30 1095 H 104.415 2.81989 -0.869827 0
M  V30 1096 H 104.496 1.51445 -2.0615 0
M  V30 1097 H 104.14 3.22354 -3.92492 0
M  V30 1098 H 104.07 4.51886 -2.70383 0
M  V30 1099 H 106.561 3.01707 -2.27555 0
M  V30 1100 H 106.874 5.77311 -5.13743 0
M  V30 1101 H 105.219 5.19653 -4.61503 0
M  V30 1102 H 108.41 3.68586 -2.88551 0
M  V30 1103 H 108.583 4.94279 -4.19037 0
M  V30 1104 N 101.989 0.842826 1.3317 0
M  V30 1105 C 102.919 0.294028 2.31641 0
M  V30 1106 C 103.9 -0.600401 1.59151 0
M  V30 1107 O 105.085 -0.523124 1.87022 0
M  V30 1108 C 102.215 -0.528416 3.43257 0
M  V30 1109 C 101.169 0.27056 4.27144 0
M  V30 1110 C 100.495 -0.675881 5.30411 0
M  V30 1111 C 101.795 1.48981 5.00602 0
M  V30 1112 H 103.489 1.11681 2.77791 0
M  V30 1113 H 101.035 0.538478 1.33553 0
M  V30 1114 H 102.988 -0.922674 4.11175 0
M  V30 1115 H 101.712 -1.38445 2.95805 0
M  V30 1116 H 100.371 0.646427 3.60856 0
M  V30 1117 H 100.019 -1.52842 4.79216 0
M  V30 1118 H 99.7189 -0.145374 5.8742 0
M  V30 1119 H 101.243 -1.06757 6.01195 0
M  V30 1120 H 102.657 1.16849 5.61266 0
M  V30 1121 H 101.054 1.95739 5.6728 0
M  V30 1122 H 102.124 2.25746 4.29147 0
M  V30 1123 N 103.467 -1.45747 0.599634 0
M  V30 1124 C 104.377 -2.34262 -0.125888 0
M  V30 1125 C 105.393 -1.50768 -0.868625 0
M  V30 1126 O 106.569 -1.83592 -0.828003 0
M  V30 1127 C 103.634 -3.28252 -1.11587 0
M  V30 1128 C 102.695 -4.27651 -0.375956 0
M  V30 1129 C 101.928 -5.1715 -1.31877 0
M  V30 1130 O 102.151 -5.09916 -2.55621 0
M  V30 1131 O 101.085 -5.96286 -0.820157 0
M  V30 1132 H 104.911 -2.97688 0.601315 0
M  V30 1133 H 102.496 -1.44999 0.359934 0
M  V30 1134 H 104.378 -3.86191 -1.68626 0
M  V30 1135 H 103.053 -2.67401 -1.82424 0
M  V30 1136 H 101.96 -3.7335 0.236698 0
M  V30 1137 H 103.293 -4.91334 0.29177 0
M  V30 1138 N 104.945 -0.338344 -1.53925 0
M  V30 1139 C 106.191 0.260143 -2.01125 0
M  V30 1140 C 106.524 1.50617 -1.22589 0
M  V30 1141 O 105.799 1.91979 -0.312113 0
M  V30 1142 C 106.082 0.579499 -3.55407 0
M  V30 1143 C 105.935 -0.678264 -4.44657 0
M  V30 1144 C 107.254 1.39122 -4.17532 0
M  V30 1145 H 104.373 0.0930772 -0.731099 0
M  V30 1146 H 107.015 -0.457852 -1.84401 0
M  V30 1147 H 105.165 1.19118 -3.69788 0
M  V30 1148 H 106.837 -1.31631 -4.42121 0
M  V30 1149 H 105.08 -1.3042 -4.13731 0
M  V30 1150 H 105.751 -0.410143 -5.50474 0
M  V30 1151 H 108.227 0.874035 -4.06817 0
M  V30 1152 H 107.103 1.58342 -5.25565 0
M  V30 1153 H 107.364 2.39178 -3.71815 0
M  V30 1154 N 106.423 1.57458 -0.0668435 0
M  V30 1155 C 107.386 2.11323 0.887422 0
M  V30 1156 C 108.386 1.03618 1.22964 0
M  V30 1157 O 109.576 1.29626 1.16373 0
M  V30 1158 C 106.708 2.61048 2.19242 0
M  V30 1159 H 107.901 2.96942 0.420194 0
M  V30 1160 H 105.454 1.55239 0.181793 0
M  V30 1161 H 106.189 1.78868 2.70512 0
M  V30 1162 H 105.974 3.39769 1.95702 0
M  V30 1163 H 107.464 3.02814 2.87565 0
M  V30 1164 N 107.901 -0.206675 1.56239 0
M  V30 1165 C 108.831 -1.25909 1.96645 0
M  V30 1166 C 109.812 -1.48097 0.836734 0
M  V30 1167 O 110.997 -1.6003 1.10019 0
M  V30 1168 C 108.127 -2.6058 2.29599 0
M  V30 1169 C 107.081 -2.53024 3.452 0
M  V30 1170 C 106.407 -3.91861 3.63798 0
M  V30 1171 C 107.707 -2.06524 4.79734 0
M  V30 1172 H 109.401 -0.923369 2.84806 0
M  V30 1173 H 106.947 -0.442735 1.37025 0
M  V30 1174 H 108.9 -3.34375 2.56459 0
M  V30 1175 H 107.624 -2.95869 1.38307 0
M  V30 1176 H 106.283 -1.81684 3.18412 0
M  V30 1177 H 105.931 -4.24483 2.69857 0
M  V30 1178 H 105.631 -3.87683 4.4156 0
M  V30 1179 H 107.155 -4.67296 3.93022 0
M  V30 1180 H 108.569 -2.70072 5.05702 0
M  V30 1181 H 106.966 -2.13374 5.60885 0
M  V30 1182 H 108.036 -1.01802 4.74093 0
M  V30 1183 N 109.379 -1.50304 -0.473955 0
M  V30 1184 C 110.289 -1.7174 -1.5982 0
M  V30 1185 C 111.305 -0.600457 -1.63311 0
M  V30 1186 O 112.481 -0.878441 -1.81233 0
M  V30 1187 C 109.546 -1.80427 -2.96052 0
M  V30 1188 C 108.607 -3.04148 -3.02972 0
M  V30 1189 C 107.84 -3.12411 -4.32706 0
M  V30 1190 O 108.063 -2.27542 -5.23049 0
M  V30 1191 O 106.997 -4.05113 -4.45159 0
M  V30 1192 H 110.823 -2.67035 -1.44657 0
M  V30 1193 H 108.408 -1.34366 -0.653148 0
M  V30 1194 H 110.29 -1.88338 -3.7697 0
M  V30 1195 H 108.965 -0.883156 -3.11419 0
M  V30 1196 H 107.872 -3.0174 -2.21142 0
M  V30 1197 H 109.205 -3.95829 -2.92541 0
M  V30 1198 N 110.857 0.726932 -1.39834 0
M  V30 1199 C 111.805 1.86235 -1.39353 0
M  V30 1200 C 112.799 1.67144 -0.275555 0
M  V30 1201 O 114.005 1.74387 -0.44601 0
M  V30 1202 H 110.38 0.613174 -0.43534 0
M  V30 1203 H 112.351 1.83756 -2.35109 0
M  V30 1204 C 111.1 3.23995 -1.26185 0
M  V30 1205 H 110.423 3.39285 -2.11484 0
M  V30 1206 H 111.863 4.03609 -1.29907 0
M  V30 1207 C 110.322 3.36888 0.0290018 0
M  V30 1208 O 110.852 3.89152 0.99619 0
M  V30 1209 N 109.058 2.90446 0.0947437 0
M  V30 1210 H 108.605 2.48102 -0.693035 0
M  V30 1211 H 108.563 2.99451 0.957932 0
M  V30 1212 N 112.336 1.25143 0.95797 0
M  V30 1213 C 113.284 1.05019 2.07542 0
M  V30 1214 C 114.278 -0.0178751 1.69391 0
M  V30 1215 O 115.484 0.137472 1.79474 0
M  V30 1216 H 111.859 0.32265 0.679265 0
M  V30 1217 H 113.83 1.99759 2.21673 0
M  V30 1218 C 112.579 0.682074 3.40944 0
M  V30 1219 H 111.902 1.49573 3.70767 0
M  V30 1220 H 113.342 0.580945 4.20001 0
M  V30 1221 C 111.801 -0.611608 3.31302 0
M  V30 1222 O 112.331 -1.65465 3.66038 0
M  V30 1223 N 110.537 -0.595982 2.84423 0
M  V30 1224 H 110.084 0.253192 2.56353 0
M  V30 1225 H 110.042 -1.46173 2.78354 0
M  V30 1226 N 113.814 -1.1601 1.06675 0
M  V30 1227 C 114.724 -2.24156 0.692179 0
M  V30 1228 C 115.74 -1.71507 -0.293513 0
M  V30 1229 O 116.916 -2.009 -0.141861 0
M  V30 1230 C 113.981 -3.46587 0.0884131 0
M  V30 1231 C 113.042 -4.14257 1.12646 0
M  V30 1232 C 112.275 -5.30844 0.551416 0
M  V30 1233 O 112.498 -5.66858 -0.634656 0
M  V30 1234 O 111.432 -5.87848 1.29298 0
M  V30 1235 H 115.258 -2.58513 1.59388 0
M  V30 1236 H 112.843 -1.23599 0.83926 0
M  V30 1237 H 114.725 -4.20679 -0.246361 0
M  V30 1238 H 113.4 -3.13994 -0.786712 0
M  V30 1239 H 112.307 -3.42118 1.51348 0
M  V30 1240 H 113.64 -4.50914 1.97325 0
M  V30 1241 N 115.292 -0.849877 -1.32721 0
M  V30 1242 C 116.539 -0.450923 -1.97416 0
M  V30 1243 C 116.867 0.992376 -1.67279 0
M  V30 1244 O 116.122 1.71048 -0.950845 0
M  V30 1245 C 116.421 -0.631272 -3.51781 0
M  V30 1246 C 116.087 -2.04432 -4.01894 0
M  V30 1247 C 114.749 -2.4308 -4.1529 0
M  V30 1248 C 117.101 -2.96679 -4.28522 0
M  V30 1249 C 114.429 -3.73257 -4.52654 0
M  V30 1250 C 116.781 -4.26349 -4.67343 0
M  V30 1251 C 115.445 -4.64939 -4.78945 0
M  V30 1252 H 114.715 -0.165004 -0.722395 0
M  V30 1253 H 117.362 -1.07901 -1.58207 0
M  V30 1254 H 115.667 0.0800767 -3.91718 0
M  V30 1255 H 117.364 -0.302709 -3.99856 0
M  V30 1256 H 113.954 -1.73419 -3.91949 0
M  V30 1257 H 118.138 -2.68054 -4.17685 0
M  V30 1258 H 113.394 -4.02946 -4.59831 0
M  V30 1259 H 117.568 -4.97895 -4.86902 0
M  V30 1260 H 115.195 -5.65855 -5.07654 0
M  V30 1261 N 116.77 1.45427 -0.607355 0
M  V30 1262 C 118.016 2.0254 -0.102607 0
M  V30 1263 C 118.349 1.47478 1.26348 0
M  V30 1264 O 117.624 0.64939 1.83339 0
M  V30 1265 C 117.907 3.60044 -0.0634347 0
M  V30 1266 C 117.76 4.2544 -1.46017 0
M  V30 1267 C 119.079 4.35646 0.624514 0
M  V30 1268 H 116.198 0.73598 -0.0387607 0
M  V30 1269 H 118.84 1.73284 -0.779282 0
M  V30 1270 H 116.99 3.85101 0.512808 0
M  V30 1271 H 118.662 4.11569 -2.08347 0
M  V30 1272 H 116.905 3.83849 -2.02094 0
M  V30 1273 H 117.576 5.34342 -1.385 0
M  V30 1274 H 120.052 4.15882 0.134723 0
M  V30 1275 H 118.928 5.45376 0.621028 0
M  V30 1276 H 119.189 4.08501 1.69055 0
M  V30 1277 N 118.248 0.346503 1.53744 0
M  V30 1278 C 119.158 -0.517293 2.28826 0
M  V30 1279 C 120.174 -1.10935 1.3405 0
M  V30 1280 O 121.35 -1.1244 1.6709 0
M  V30 1281 C 118.415 -1.65098 3.04866 0
M  V30 1282 C 117.476 -1.0884 4.15274 0
M  V30 1283 C 116.709 -2.16806 4.87679 0
M  V30 1284 O 116.932 -3.3758 4.59778 0
M  V30 1285 O 115.866 -1.80934 5.74061 0
M  V30 1286 H 119.692 0.0931396 3.03557 0
M  V30 1287 H 117.277 0.111458 1.48984 0
M  V30 1288 H 119.159 -2.31053 3.5241 0
M  V30 1289 H 117.834 -2.24717 2.32989 0
M  V30 1290 H 116.741 -0.3933 3.72027 0
M  V30 1291 H 118.074 -0.537036 4.89261 0
M  V30 1292 N 119.726 -1.57421 0.075193 0
M  V30 1293 C 120.972 -1.93905 -0.594025 0
M  V30 1294 C 121.305 -0.955701 -1.69056 0
M  V30 1295 O 120.58 0.0145373 -1.94495 0
M  V30 1296 C 120.863 -3.40638 -1.1678 0
M  V30 1297 C 120.716 -4.49733 -0.0776792 0
M  V30 1298 C 122.035 -3.88259 -2.07228 0
M  V30 1299 H 119.154 -0.705105 -0.214466 0
M  V30 1300 H 121.796 -1.8947 0.141854 0
M  V30 1301 H 119.946 -3.44549 -1.79494 0
M  V30 1302 H 121.618 -4.57942 0.555573 0
M  V30 1303 H 119.861 -4.29751 0.591286 0
M  V30 1304 H 120.532 -5.49549 -0.519603 0
M  V30 1305 H 123.008 -3.86376 -1.54445 0
M  V30 1306 H 121.884 -4.91533 -2.44308 0
M  V30 1307 H 122.145 -3.26396 -2.98191 0
M  V30 1308 N 121.204 0.198386 -1.56346 0
M  V30 1309 C 122.45 0.920648 -1.80698 0
M  V30 1310 C 122.783 1.83045 -0.648697 0
M  V30 1311 O 122.058 1.91308 0.350925 0
M  V30 1312 C 122.341 1.73971 -3.15287 0
M  V30 1313 C 122.194 0.85485 -4.41602 0
M  V30 1314 C 123.513 2.71296 -3.46535 0
M  V30 1315 H 120.632 0.333261 -0.657348 0
M  V30 1316 H 123.274 0.188198 -1.89066 0
M  V30 1317 H 121.424 2.36416 -3.08285 0
M  V30 1318 H 123.096 0.245362 -4.60647 0
M  V30 1319 H 121.339 0.161398 -4.335 0
M  V30 1320 H 122.01 1.46286 -5.32264 0
M  V30 1321 H 124.486 2.18983 -3.53816 0
M  V30 1322 H 123.362 3.2569 -4.41834 0
M  V30 1323 H 123.623 3.5018 -2.69864 0
M  V30 1324 N 122.682 1.50554 0.465978 0
M  V30 1325 C 123.931 1.61038 1.21448 0
M  V30 1326 C 124.244 0.31865 1.92987 0
M  V30 1327 O 125.45 0.302469 2.6981 0
M  V30 1328 C 123.906 2.84283 2.20706 0
M  V30 1329 C 123.514 4.20352 1.54946 0
M  V30 1330 C 125.258 3.04115 2.96166 0
M  V30 1331 C 123.165 5.34778 2.5252 0
M  V30 1332 H 122.095 0.599718 0.457005 0
M  V30 1333 H 124.746 1.7699 0.484424 0
M  V30 1334 H 123.128 2.61901 2.97025 0
M  V30 1335 H 124.302 4.53008 0.843811 0
M  V30 1336 H 122.617 4.06167 0.917475 0
M  V30 1337 H 125.214 3.86774 3.69202 0
M  V30 1338 H 125.557 2.16045 3.55852 0
M  V30 1339 H 126.09 3.26702 2.26959 0
M  V30 1340 H 122.829 6.25018 1.97566 0
M  V30 1341 H 122.349 5.06534 3.21222 0
M  V30 1342 H 124.028 5.65561 3.14245 0
M  V30 1343 N 124.16 -0.719506 1.40217 0
M  V30 1344 C 125.07 -1.86378 1.42479 0
M  V30 1345 C 126.086 -1.71073 0.317834 0
M  V30 1346 O 127.262 -1.93406 0.561794 0
M  V30 1347 C 124.327 -3.22136 1.28178 0
M  V30 1348 C 123.388 -3.49723 2.48982 0
M  V30 1349 C 122.621 -4.79004 2.35353 0
M  V30 1350 O 122.844 -5.53821 1.36524 0
M  V30 1351 O 121.778 -5.06839 3.2465 0
M  V30 1352 H 125.604 -1.87425 2.38968 0
M  V30 1353 H 123.189 -0.869405 1.21498 0
M  V30 1354 H 125.071 -4.03234 1.22395 0
M  V30 1355 H 123.746 -3.21825 0.347934 0
M  V30 1356 H 122.653 -2.6865 2.60342 0
M  V30 1357 H 123.986 -3.54828 3.41113 0
M  V30 1358 N 125.638 -1.25649 -0.95132 0
M  V30 1359 C 126.886 -1.10375 -1.69298 0
M  V30 1360 C 127.207 0.355339 -1.91735 0
M  V30 1361 O 126.477 1.25188 -1.50681 0
M  V30 1362 H 125.057 -0.405461 -0.627384 0
M  V30 1363 H 127.719 -1.57823 -1.14358 0
M  V30 1364 H 126.815 -1.61465 -2.67087 0
M  V30 1365 N 127.117 1.15442 -1.07289 0
M  V30 1366 C 128.394 1.82306 -0.708792 0
M  V30 1367 C 128.774 1.94991 0.808807 0
M  V30 1368 O 128.122 1.50085 1.72298 0
M  V30 1369 C 128.332 3.18695 -1.42247 0
M  V30 1370 C 129.68 3.94341 -1.57417 0
M  V30 1371 O 130.704 3.28247 -1.38319 0
M  V30 1372 O 129.563 5.12839 -1.88834 0
M  V30 1373 H 126.657 0.787628 -0.252132 0
M  V30 1374 H 129.203 1.22559 -1.17377 0
M  V30 1375 H 127.975 3.04557 -2.45684 0
M  V30 1376 H 127.598 3.86128 -0.948223 0
M  V30 1377 N 128.595 0.856903 1.32268 0
M  V30 1378 C 129.558 0.308171 2.27119 0
M  V30 1379 C 130.558 -0.533421 1.51695 0
M  V30 1380 O 131.748 -0.344607 1.70757 0
M  V30 1381 C 128.88 -0.563757 3.36206 0
M  V30 1382 H 130.073 1.14535 2.77167 0
M  V30 1383 H 127.626 0.631421 1.42978 0
M  V30 1384 H 128.361 -1.42266 2.91429 0
M  V30 1385 H 128.146 0.0386749 3.92081 0
M  V30 1386 H 129.636 -0.940386 4.06874 0
M  V30 1387 N 130.073 -1.45103 0.615059 0
M  V30 1388 C 131.006 -2.27717 -0.148408 0
M  V30 1389 C 131.984 -1.37584 -0.866572 0
M  V30 1390 O 133.168 -1.67017 -0.87393 0
M  V30 1391 C 130.295 -3.16136 -1.21557 0
M  V30 1392 C 129.341 -4.22263 -0.599712 0
M  V30 1393 S 130.174 -5.3215 0.598081 0
M  V30 1394 C 131.33 -6.24137 -0.469484 0
M  V30 1395 H 131.563 -2.92121 0.552483 0
M  V30 1396 H 129.096 -1.49054 0.402778 0
M  V30 1397 H 131.054 -3.67633 -1.82638 0
M  V30 1398 H 129.715 -2.50982 -1.88857 0
M  V30 1399 H 128.908 -4.84081 -1.4029 0
M  V30 1400 H 128.51 -3.73945 -0.063876 0
M  V30 1401 H 130.802 -6.63984 -1.34652 0
M  V30 1402 H 131.745 -7.0801 0.112725 0
M  V30 1403 H 132.153 -5.58971 -0.788168 0
M  V30 1404 N 131.551 -0.354651 -1.53558 0
M  V30 1405 C 132.776 0.242153 -2.05981 0
M  V30 1406 C 133.201 1.42553 -1.2272 0
M  V30 1407 O 132.559 1.79656 -0.243604 0
M  V30 1408 C 132.607 0.624367 -3.55154 0
M  V30 1409 O 131.711 1.72301 -3.74681 0
M  V30 1410 H 131.052 0.0378432 -0.662921 0
M  V30 1411 H 133.582 -0.512087 -1.98088 0
M  V30 1412 H 133.592 0.898433 -3.97985 0
M  V30 1413 H 132.267 -0.240989 -4.15201 0
M  V30 1414 H 130.844 1.44535 -3.4375 0
M  V30 1415 N 133.029 1.57378 -0.0835403 0
M  V30 1416 C 134.44 1.81261 0.447358 0
M  V30 1417 C 134.791 0.998331 1.68902 0
M  V30 1418 O 133.916 0.224282 2.15235 0
M  V30 1419 C 134.511 3.28767 0.818386 0
M  V30 1420 C 133.07 3.53455 1.29409 0
M  V30 1421 C 132.217 2.75831 0.285024 0
M  V30 1422 H 135.168 1.5566 -0.309115 0
M  V30 1423 H 135.189 3.41459 1.67887 0
M  V30 1424 H 134.701 3.88006 -0.0855019 0
M  V30 1425 H 132.802 2.99534 2.21608 0
M  V30 1426 H 132.915 4.62128 1.2639 0
M  V30 1427 H 131.279 2.42947 0.764767 0
M  V30 1428 H 132.062 3.37813 -0.611341 0
M  V30 1429 N 134.507 -0.190092 1.56449 0
M  V30 1430 C 135.784 -0.935886 1.71757 0
M  V30 1431 C 136.164 -2.01173 0.639726 0
M  V30 1432 O 135.512 -2.25827 -0.348502 0
M  V30 1433 C 135.722 -1.51775 3.1427 0
M  V30 1434 C 137.07 -1.99794 3.74656 0
M  V30 1435 O 138.094 -1.61607 3.1743 0
M  V30 1436 O 136.953 -2.70079 4.751 0
M  V30 1437 H 134.047 -0.439229 0.700719 0
M  V30 1438 H 136.593 -0.179395 1.68749 0
M  V30 1439 H 135.365 -0.742505 3.84191 0
M  V30 1440 H 134.988 -2.33894 3.21527 0
M  V30 1441 N 135.985 -1.50799 -0.457987 0
M  V30 1442 C 137.232 -1.62442 -1.20908 0
M  V30 1443 C 137.56 -0.330865 -1.91665 0
M  V30 1444 O 136.815 0.68401 -1.83357 0
M  V30 1445 C 137.114 -2.76358 -2.2663 0
M  V30 1446 C 136.78 -4.16378 -1.73033 0
M  V30 1447 C 135.442 -4.54473 -1.58138 0
M  V30 1448 C 137.794 -5.03836 -1.33413 0
M  V30 1449 C 135.122 -5.77754 -1.02065 0
M  V30 1450 C 137.474 -6.27676 -0.78778 0
M  V30 1451 C 136.138 -6.64562 -0.625561 0
M  V30 1452 H 135.408 -0.594417 -0.442435 0
M  V30 1453 H 138.055 -1.84772 -0.503136 0
M  V30 1454 H 136.36 -2.48167 -3.03184 0
M  V30 1455 H 138.057 -2.82568 -2.84528 0
M  V30 1456 H 134.647 -3.86331 -1.85598 0
M  V30 1457 H 138.831 -4.75026 -1.4375 0
M  V30 1458 H 134.087 -6.04997 -0.882547 0
M  V30 1459 H 138.261 -6.94797 -0.472177 0
M  V30 1460 H 135.888 -7.59965 -0.188926 0
M  V30 1461 N 137.463 0.71206 -1.40597 0
M  V30 1462 C 138.712 1.46754 -1.38369 0
M  V30 1463 C 139.025 1.95598 0.0097839 0
M  V30 1464 O 140.231 2.71059 0.154677 0
M  V30 1465 C 138.687 2.65289 -2.43207 0
M  V30 1466 C 138.295 2.23301 -3.88382 0
M  V30 1467 C 140.039 3.43008 -2.50091 0
M  V30 1468 C 137.946 3.38696 -4.84808 0
M  V30 1469 H 136.876 0.55118 -0.514506 0
M  V30 1470 H 139.527 0.774616 -1.66349 0
M  V30 1471 H 137.909 3.36769 -2.08332 0
M  V30 1472 H 139.083 1.59218 -4.32419 0
M  V30 1473 H 137.398 1.58618 -3.85006 0
M  V30 1474 H 139.995 4.28881 -3.1932 0
M  V30 1475 H 140.338 3.87065 -1.53253 0
M  V30 1476 H 140.871 2.78574 -2.83974 0
M  V30 1477 H 137.61 2.99668 -5.82992 0
M  V30 1478 H 137.13 4.01683 -4.45433 0
M  V30 1479 H 138.809 4.04712 -5.04794 0
M  V30 1480 N 138.941 1.26152 0.944643 0
M  V30 1481 C 140.352 1.10454 1.50522 0
M  V30 1482 C 140.703 -0.31635 1.93633 0
M  V30 1483 O 139.828 -1.20746 1.79581 0
M  V30 1484 C 140.423 1.99891 2.73549 0
M  V30 1485 C 138.982 1.88348 3.25886 0
M  V30 1486 C 138.129 1.93447 1.9868 0
M  V30 1487 H 141.08 1.39292 0.760489 0
M  V30 1488 H 141.101 1.54477 3.47732 0
M  V30 1489 H 140.613 3.03297 2.42141 0
M  V30 1490 H 138.714 0.878636 3.62092 0
M  V30 1491 H 138.827 2.73696 3.93227 0
M  V30 1492 H 137.191 1.37456 2.14425 0
M  V30 1493 H 137.974 2.98476 1.69607 0
M  V30 1494 N 140.419 -1.14872 1.07899 0
M  V30 1495 C 141.644 -1.90202 0.826926 0
M  V30 1496 C 142.069 -1.77774 -0.614664 0
M  V30 1497 O 141.427 -1.11431 -1.43013 0
M  V30 1498 C 141.475 -3.38352 1.24702 0
M  V30 1499 O 140.579 -4.10497 0.39575 0
M  V30 1500 H 139.92 -0.591968 0.300782 0
M  V30 1501 H 142.45 -1.45437 1.43907 0
M  V30 1502 H 142.46 -3.89156 1.22563 0
M  V30 1503 H 141.135 -3.46715 2.29698 0
M  V30 1504 H 139.712 -3.69796 0.480117 0
M  V30 1505 N 141.898 -0.863906 -1.31812 0
M  V30 1506 C 142.83 -0.272485 -2.27575 0
M  V30 1507 C 143.843 0.56104 -1.52827 0
M  V30 1508 O 145.032 0.384021 -1.7432 0
M  V30 1509 C 142.132 0.63283 -3.32939 0
M  V30 1510 C 141.305 -0.166902 -4.37081 0
M  V30 1511 C 140.364 0.665608 -5.21973 0
M  V30 1512 O 139.39 0.0958091 -5.69119 0
M  V30 1513 N 140.592 1.9787 -5.45736 0
M  V30 1514 H 143.357 -1.0954 -2.78964 0
M  V30 1515 H 140.918 -0.724791 -1.4477 0
M  V30 1516 H 142.91 1.19532 -3.86645 0
M  V30 1517 H 141.48 1.35642 -2.81638 0
M  V30 1518 H 140.7 -0.910838 -3.83533 0
M  V30 1519 H 141.988 -0.715874 -5.03739 0
M  V30 1520 H 141.386 2.46484 -5.09178 0
M  V30 1521 H 139.943 2.48911 -6.024 0
M  V30 1522 N 143.376 1.44774 -0.622745 0
M  V30 1523 C 144.787 1.85546 -0.207226 0
M  V30 1524 C 145.138 1.52093 1.23944 0
M  V30 1525 O 144.263 0.95492 1.94191 0
M  V30 1526 C 144.858 3.36781 -0.369313 0
M  V30 1527 C 143.417 3.76399 -0.00836847 0
M  V30 1528 C 142.564 2.68664 -0.686651 0
M  V30 1529 H 145.515 1.3536 -0.828454 0
M  V30 1530 H 145.536 3.78453 0.394162 0
M  V30 1531 H 145.048 3.61098 -1.42231 0
M  V30 1532 H 143.149 3.57698 1.04322 0
M  V30 1533 H 143.262 4.7732 -0.412584 0
M  V30 1534 H 141.626 2.54404 -0.122777 0
M  V30 1535 H 142.409 2.95815 -1.74208 0
M  V30 1536 N 144.854 0.36279 1.53368 0
M  V30 1537 C 145.764 -0.492994 2.29362 0
M  V30 1538 C 146.78 -1.09507 1.35219 0
M  V30 1539 O 147.956 -1.10662 1.68273 0
M  V30 1540 C 145.021 -1.61855 3.066 0
M  V30 1541 C 144.082 -1.04429 4.16405 0
M  V30 1542 C 143.315 -2.11621 4.89951 0
M  V30 1543 O 143.538 -3.32684 4.63333 0
M  V30 1544 O 142.472 -1.74835 5.75948 0
M  V30 1545 H 146.298 0.125331 3.03441 0
M  V30 1546 H 143.883 0.127253 1.48857 0
M  V30 1547 H 145.765 -2.27302 3.54841 0
M  V30 1548 H 144.44 -2.22233 2.3536 0
M  V30 1549 H 143.347 -0.353819 3.72423 0
M  V30 1550 H 144.68 -0.485113 4.89804 0
M  V30 1551 N 146.332 -1.57332 0.0918853 0
M  V30 1552 C 147.58 -1.93853 -0.571446 0
M  V30 1553 C 147.901 -0.974212 -1.6892 0
M  V30 1554 O 147.171 -0.0257254 -1.95883 0
M  V30 1555 H 145.751 -0.715666 -0.214082 0
M  V30 1556 H 148.413 -1.94287 0.154464 0
M  V30 1557 H 147.509 -2.96191 -0.983729 0
M  V30 1558 N 147.81 0.181792 -1.56548 0
M  V30 1559 C 149.056 0.901431 -1.81665 0
M  V30 1560 C 149.389 1.82347 -0.668075 0
M  V30 1561 O 148.664 1.91669 0.330615 0
M  V30 1562 C 148.947 1.70618 -3.17115 0
M  V30 1563 C 148.8 0.807964 -4.42484 0
M  V30 1564 C 150.119 2.67605 -3.49393 0
M  V30 1565 H 147.238 0.32627 -0.660846 0
M  V30 1566 H 149.88 0.168134 -1.89255 0
M  V30 1567 H 148.03 2.33133 -3.10775 0
M  V30 1568 H 149.702 0.19649 -4.60881 0
M  V30 1569 H 147.945 0.115411 -4.33646 0
M  V30 1570 H 148.616 1.40632 -5.33785 0
M  V30 1571 H 151.092 2.15218 -3.56118 0
M  V30 1572 H 149.968 3.20985 -4.45264 0
M  V30 1573 H 150.229 3.47298 -2.73563 0
M  V30 1574 N 149.288 1.51039 0.449983 0
M  V30 1575 C 150.518 1.66627 1.22143 0
M  V30 1576 C 150.926 0.357776 1.85786 0
M  V30 1577 O 150.269 -0.672424 1.70951 0
M  V30 1578 C 150.331 2.71562 2.35573 0
M  V30 1579 C 149.995 4.14526 1.92399 0
M  V30 1580 C 150.992 4.99717 1.43453 0
M  V30 1581 C 148.677 4.60559 2.00475 0
M  V30 1582 C 150.671 6.28998 1.03155 0
M  V30 1583 C 148.358 5.8984 1.59788 0
M  V30 1584 C 149.356 6.73886 1.11208 0
M  V30 1585 O 149.044 8.0075 0.710935 0
M  V30 1586 H 148.776 0.562635 0.374724 0
M  V30 1587 H 151.33 1.98146 0.541036 0
M  V30 1588 H 149.56 2.3533 3.06849 0
M  V30 1589 H 151.249 2.76156 2.97478 0
M  V30 1590 H 152.015 4.65361 1.36618 0
M  V30 1591 H 147.894 3.95273 2.37235 0
M  V30 1592 H 151.438 6.9455 0.651663 0
M  V30 1593 H 147.335 6.23713 1.66289 0
M  V30 1594 H 148.103 8.142 0.837913 0
M  V30 1595 N 150.766 -0.704594 1.40972 0
M  V30 1596 C 151.696 -1.83124 1.44872 0
M  V30 1597 C 152.677 -1.67281 0.30838 0
M  V30 1598 O 153.862 -1.87149 0.518556 0
M  V30 1599 C 150.992 -3.21181 1.32136 0
M  V30 1600 C 149.946 -3.51714 2.43888 0
M  V30 1601 C 149.272 -4.89032 2.16222 0
M  V30 1602 C 150.572 -3.516 3.86232 0
M  V30 1603 H 152.266 -1.80117 2.39161 0
M  V30 1604 H 149.812 -0.865145 1.15114 0
M  V30 1605 H 151.765 -3.99702 1.33479 0
M  V30 1606 H 150.489 -3.24791 0.343279 0
M  V30 1607 H 149.148 -2.75539 2.41813 0
M  V30 1608 H 148.796 -4.89256 1.16778 0
M  V30 1609 H 148.496 -5.10426 2.911 0
M  V30 1610 H 150.02 -5.69873 2.19265 0
M  V30 1611 H 151.434 -4.2014 3.9007 0
M  V30 1612 H 149.831 -3.84523 4.60719 0
M  V30 1613 H 150.901 -2.50757 4.15029 0
M  V30 1614 N 152.244 -1.26651 -0.937939 0
M  V30 1615 C 153.474 -1.15006 -1.71631 0
M  V30 1616 C 153.882 0.297026 -1.86854 0
M  V30 1617 O 153.225 1.21493 -1.37786 0
M  V30 1618 C 153.287 -1.74984 -3.14039 0
M  V30 1619 C 152.951 -3.24103 -3.2219 0
M  V30 1620 C 153.948 -4.20877 -3.05219 0
M  V30 1621 C 151.633 -3.64625 -3.45476 0
M  V30 1622 C 153.627 -5.56151 -3.11408 0
M  V30 1623 C 151.314 -5.00032 -3.513 0
M  V30 1624 C 152.312 -5.95604 -3.34282 0
M  V30 1625 O 152 -7.28545 -3.3982 0
M  V30 1626 H 151.732 -0.401183 -0.544085 0
M  V30 1627 H 154.286 -1.67832 -1.18413 0
M  V30 1628 H 152.516 -1.16624 -3.68695 0
M  V30 1629 H 154.205 -1.58199 -3.73802 0
M  V30 1630 H 154.971 -3.90908 -2.87081 0
M  V30 1631 H 150.85 -2.90718 -3.57777 0
M  V30 1632 H 154.394 -6.30727 -2.98043 0
M  V30 1633 H 150.291 -5.29659 -3.68959 0
M  V30 1634 H 151.059 -7.3686 -3.56343 0
M  V30 1635 N 153.722 1.14298 -1.08507 0
M  V30 1636 C 154.947 1.8976 -0.837001 0
M  V30 1637 C 155.372 1.78097 0.605228 0
M  V30 1638 O 154.73 1.12188 1.4242 0
M  V30 1639 C 154.778 3.37685 -1.26495 0
M  V30 1640 O 153.882 4.10281 -0.417514 0
M  V30 1641 H 153.223 0.590365 -0.303917 0
M  V30 1642 H 155.753 1.44672 -1.44676 0
M  V30 1643 H 155.763 3.88501 -1.24625 0
M  V30 1644 H 154.438 3.45492 -2.31534 0
M  V30 1645 H 153.015 3.69536 -0.499722 0
M  V30 1646 N 155.201 0.870884 1.31352 0
M  V30 1647 C 156.148 0.325425 2.28494 0
M  V30 1648 C 157.118 -0.576615 1.5577 0
M  V30 1649 O 158.303 -0.508059 1.83911 0
M  V30 1650 C 155.443 -0.466283 3.41935 0
M  V30 1651 C 154.556 0.463378 4.29508 0
M  V30 1652 C 153.691 -0.342544 5.30094 0
M  V30 1653 C 152.73 0.583486 6.09313 0
M  V30 1654 N 151.867 -0.186244 7.01853 0
M  V30 1655 H 156.707 1.15901 2.74538 0
M  V30 1656 H 154.244 0.58294 1.35056 0
M  V30 1657 H 156.202 -0.941085 4.06447 0
M  V30 1658 H 154.832 -1.26456 2.97 0
M  V30 1659 H 153.884 1.05663 3.65431 0
M  V30 1660 H 155.196 1.1734 4.84802 0
M  V30 1661 H 154.35 -0.879816 6.00287 0
M  V30 1662 H 153.089 -1.08585 4.75458 0
M  V30 1663 H 152.094 1.13251 5.3801 0
M  V30 1664 H 153.319 1.32566 6.66035 0
M  V30 1665 H 151.265 -0.912348 6.49625 0
M  V30 1666 H 151.182 0.464422 7.54572 0
M  V30 1667 H 152.45 -0.704716 7.76308 0
M  V30 1668 N 156.679 -1.44442 0.630414 0
M  V30 1669 C 157.909 -2.06115 0.141465 0
M  V30 1670 C 158.317 -1.47179 -1.1889 0
M  V30 1671 O 157.66 -0.588873 -1.74006 0
M  V30 1672 C 157.722 -3.59467 -0.0484355 0
M  V30 1673 C 157.386 -4.40864 1.20366 0
M  V30 1674 C 158.383 -4.74391 2.12719 0
M  V30 1675 C 156.068 -4.8125 1.43887 0
M  V30 1676 C 158.062 -5.47186 3.26904 0
M  V30 1677 C 155.749 -5.53795 2.5837 0
M  V30 1678 C 156.747 -5.86682 3.49705 0
M  V30 1679 O 156.435 -6.57749 4.62191 0
M  V30 1680 H 156.167 -0.671648 0.0765792 0
M  V30 1681 H 158.721 -1.86312 0.864695 0
M  V30 1682 H 156.951 -3.77758 -0.826803 0
M  V30 1683 H 158.64 -4.02909 -0.491849 0
M  V30 1684 H 159.406 -4.43728 1.95781 0
M  V30 1685 H 155.285 -4.55073 0.736853 0
M  V30 1686 H 158.829 -5.72773 3.98217 0
M  V30 1687 H 154.726 -5.83872 2.75251 0
M  V30 1688 H 155.494 -6.76217 4.61164 0
M  V30 1689 N 158.157 -0.370918 -1.53173 0
M  V30 1690 C 159.573 -0.0200818 -1.59587 0
M  V30 1691 C 159.773 1.46279 -1.38581 0
M  V30 1692 O 158.829 2.22506 -1.19363 0
M  V30 1693 C 160.142 -0.4808 -2.96831 0
M  V30 1694 C 161.69 -0.435477 -3.09956 0
M  V30 1695 C 162.165 -0.872092 -4.4962 0
M  V30 1696 N 163.656 -0.827364 -4.55751 0
M  V30 1697 C 164.391 -1.13683 -5.62018 0
M  V30 1698 N 163.887 -1.51584 -6.76014 0
M  V30 1699 N 165.68 -1.05927 -5.52029 0
M  V30 1700 H 157.831 -1.33652 -1.65079 0
M  V30 1701 H 160.094 -0.546634 -0.774529 0
M  V30 1702 H 159.8 -1.51577 -3.1736 0
M  V30 1703 H 159.674 0.129796 -3.76977 0
M  V30 1704 H 162.061 0.590371 -2.89134 0
M  V30 1705 H 162.142 -1.08164 -2.31806 0
M  V30 1706 H 161.786 -1.89608 -4.71181 0
M  V30 1707 H 161.716 -0.203127 -5.26208 0
M  V30 1708 H 164.207 -0.548216 -3.73902 0
M  V30 1709 H 164.52 -1.73609 -7.53047 0
M  V30 1710 H 162.865 -1.55454 -6.77391 0
M  V30 1711 H 166.056 -0.762321 -4.61851 0
M  V30 1712 H 166.229 -1.30378 -6.34749 0
M  V30 1713 N 159.635 1.57281 -0.100228 0
M  V30 1714 C 160.545 2.17833 0.870965 0
M  V30 1715 C 161.561 1.14921 1.30649 0
M  V30 1716 O 162.737 1.47313 1.37335 0
M  V30 1717 C 159.802 2.75085 2.1102 0
M  V30 1718 C 158.863 3.9297 1.72838 0
M  V30 1719 C 158.096 4.47482 2.90854 0
M  V30 1720 O 158.319 4.00922 4.05731 0
M  V30 1721 O 157.253 5.38433 2.69023 0
M  V30 1722 H 161.079 3.0124 0.38575 0
M  V30 1723 H 158.664 1.48881 0.124397 0
M  V30 1724 H 160.546 3.11656 2.83634 0
M  V30 1725 H 159.221 1.94721 2.58584 0
M  V30 1726 H 158.128 3.61201 0.973883 0
M  V30 1727 H 159.461 4.74713 1.30033 0
M  V30 1728 N 161.113 -0.173488 1.56642 0
M  V30 1729 C 162.524 -0.736155 1.71574 0
M  V30 1730 C 162.875 -1.82888 0.710389 0
M  V30 1731 O 162 -2.16017 -0.1287 0
M  V30 1732 C 162.595 -1.34211 3.11083 0
M  V30 1733 C 161.154 -1.85162 3.27707 0
M  V30 1734 C 160.301 -0.729765 2.67525 0
M  V30 1735 H 163.252 0.0518786 1.58615 0
M  V30 1736 H 163.273 -2.21178 3.09613 0
M  V30 1737 H 162.785 -0.546579 3.84232 0
M  V30 1738 H 160.886 -2.67366 2.59512 0
M  V30 1739 H 160.999 -1.99855 4.35425 0
M  V30 1740 H 159.363 -1.14965 2.27278 0
M  V30 1741 H 160.146 0.0538806 3.43258 0
M  V30 1742 N 162.591 -1.51276 -0.441967 0
M  V30 1743 C 163.501 -1.75092 -1.56141 0
M  V30 1744 C 164.517 -0.634963 -1.62001 0
M  V30 1745 O 165.693 -0.916686 -1.79329 0
M  V30 1746 C 162.758 -1.86666 -2.92158 0
M  V30 1747 C 161.819 -3.10506 -2.96453 0
M  V30 1748 C 161.052 -3.21519 -4.25982 0
M  V30 1749 O 161.275 -2.38586 -5.18105 0
M  V30 1750 O 160.209 -4.14465 -4.36466 0
M  V30 1751 H 164.035 -2.70044 -1.38961 0
M  V30 1752 H 161.62 -1.35722 -0.624499 0
M  V30 1753 H 163.502 -1.96292 -3.72891 0
M  V30 1754 H 162.177 -0.949014 -3.09476 0
M  V30 1755 H 161.084 -3.06363 -2.14692 0
M  V30 1756 H 162.417 -4.01945 -2.84079 0
M  V30 1757 N 164.069 0.697108 -1.41344 0
M  V30 1758 C 165.016 1.81106 -1.43071 0
M  V30 1759 C 165.986 1.63632 -0.285275 0
M  V30 1760 O 167.171 1.84504 -0.486091 0
M  V30 1761 C 164.311 3.18975 -1.31715 0
M  V30 1762 C 163.424 3.47892 -2.56115 0
M  V30 1763 C 162.559 4.75367 -2.37064 0
M  V30 1764 C 161.598 4.97247 -3.56948 0
M  V30 1765 N 160.735 6.15947 -3.36977 0
M  V30 1766 H 165.575 1.78965 -2.38276 0
M  V30 1767 H 163.112 0.873975 -1.18322 0
M  V30 1768 H 165.07 3.98615 -1.23133 0
M  V30 1769 H 163.7 3.20297 -0.401183 0
M  V30 1770 H 162.752 2.62669 -2.75153 0
M  V30 1771 H 164.064 3.59962 -3.45295 0
M  V30 1772 H 163.218 5.63059 -2.25941 0
M  V30 1773 H 161.957 4.65541 -1.45338 0
M  V30 1774 H 160.962 4.08004 -3.68527 0
M  V30 1775 H 162.187 5.08934 -4.49626 0
M  V30 1776 H 160.133 6.07336 -2.47949 0
M  V30 1777 H 160.05 6.28777 -4.19732 0
M  V30 1778 H 161.318 7.06377 -3.29623 0
M  V30 1779 N 165.547 1.27147 0.931209 0
M  V30 1780 C 166.777 1.15914 1.71019 0
M  V30 1781 C 167.185 -0.287112 1.87009 0
M  V30 1782 O 166.528 -1.20761 1.38429 0
M  V30 1783 C 166.59 1.76647 3.13107 0
M  V30 1784 C 166.254 3.25807 3.20467 0
M  V30 1785 C 167.251 4.22489 3.02983 0
M  V30 1786 C 164.936 3.66452 3.43538 0
M  V30 1787 C 166.93 5.57794 3.08454 0
M  V30 1788 C 164.617 5.01888 3.48643 0
M  V30 1789 C 165.615 5.97369 3.31119 0
M  V30 1790 O 165.303 7.30337 3.35952 0
M  V30 1791 H 165.035 0.404062 0.54195 0
M  V30 1792 H 167.589 1.68457 1.17521 0
M  V30 1793 H 165.819 1.18578 3.68071 0
M  V30 1794 H 167.508 1.60179 3.72958 0
M  V30 1795 H 168.274 3.92425 2.85004 0
M  V30 1796 H 164.153 2.92611 3.5623 0
M  V30 1797 H 167.697 6.32298 2.94694 0
M  V30 1798 H 163.594 5.31609 3.66145 0
M  V30 1799 H 164.362 7.38739 3.5243 0
M  V30 1800 N 167.025 -1.13721 1.09112 0
M  V30 1801 C 168.274 -1.84275 0.82009 0
M  V30 1802 C 168.587 -1.84253 -0.656509 0
M  V30 1803 O 169.793 -2.50668 -1.04296 0
M  V30 1804 C 168.249 -3.30825 1.41714 0
M  V30 1805 C 167.857 -3.39244 2.92605 0
M  V30 1806 C 169.601 -4.06443 1.22492 0
M  V30 1807 C 167.508 -4.80047 3.45411 0
M  V30 1808 H 166.438 -0.690387 0.30312 0
M  V30 1809 H 169.089 -1.28146 1.31343 0
M  V30 1810 H 167.471 -3.86737 0.851498 0
M  V30 1811 H 168.645 -2.93344 3.55367 0
M  V30 1812 H 166.96 -2.77088 3.10823 0
M  V30 1813 H 169.557 -5.10387 1.59402 0
M  V30 1814 H 169.9 -4.15972 0.165299 0
M  V30 1815 H 170.433 -3.56852 1.75788 0
M  V30 1816 H 167.172 -4.75709 4.50978 0
M  V30 1817 H 166.692 -5.26455 2.87411 0
M  V30 1818 H 168.371 -5.48957 3.42425 0
M  V30 1819 N 168.503 -0.877838 -1.30888 0
M  V30 1820 C 169.413 -0.343096 -2.32078 0
M  V30 1821 C 170.429 0.551022 -1.65045 0
M  V30 1822 O 171.605 0.445854 -1.96403 0
M  V30 1823 C 168.67 0.439905 -3.43898 0
M  V30 1824 C 167.731 -0.483111 -4.26573 0
M  V30 1825 C 166.964 0.262616 -5.33053 0
M  V30 1826 O 167.187 1.48967 -5.50604 0
M  V30 1827 O 166.121 -0.383593 -6.00676 0
M  V30 1828 H 169.947 -1.18203 -2.79753 0
M  V30 1829 H 167.532 -0.64145 -1.34929 0
M  V30 1830 H 169.414 0.883504 -4.12034 0
M  V30 1831 H 168.089 1.25526 -2.98371 0
M  V30 1832 H 166.996 -0.975374 -3.61161 0
M  V30 1833 H 168.329 -1.26427 -4.75686 0
M  V30 1834 N 169.982 1.44106 -0.638065 0
M  V30 1835 C 170.912 2.33448 0.0494287 0
M  V30 1836 C 171.893 1.48606 0.827672 0
M  V30 1837 O 173.078 1.77308 0.792173 0
M  V30 1838 C 170.208 3.31771 1.02691 0
M  V30 1839 C 169.162 4.26485 0.359823 0
M  V30 1840 C 168.488 5.14729 1.44769 0
M  V30 1841 C 169.788 5.17056 -0.738296 0
M  V30 1842 H 171.482 2.91183 -0.696636 0
M  V30 1843 H 169.028 1.40014 -0.336456 0
M  V30 1844 H 170.981 3.93161 1.51666 0
M  V30 1845 H 169.705 2.7226 1.80395 0
M  V30 1846 H 168.364 3.66437 -0.10934 0
M  V30 1847 H 168.012 4.51566 2.21578 0
M  V30 1848 H 167.712 5.78913 1.00668 0
M  V30 1849 H 169.236 5.78991 1.93911 0
M  V30 1850 H 170.65 5.72342 -0.331354 0
M  V30 1851 H 169.047 5.89879 -1.10286 0
M  V30 1852 H 170.117 4.57652 -1.60258 0
M  V30 1853 N 171.46 0.379036 1.52974 0
M  V30 1854 C 172.737 -0.263479 1.93817 0
M  V30 1855 C 173.117 -1.65244 1.31368 0
M  V30 1856 O 172.465 -2.23448 0.477856 0
M  V30 1857 C 172.675 -0.300166 3.47707 0
M  V30 1858 C 174.023 -0.534061 4.21228 0
M  V30 1859 O 175.047 -0.38081 3.54159 0
M  V30 1860 O 173.906 -0.833501 5.40106 0
M  V30 1861 H 171 -0.161149 0.811147 0
M  V30 1862 H 173.546 0.432798 1.64088 0
M  V30 1863 H 172.318 0.673138 3.85467 0
M  V30 1864 H 171.941 -1.04179 3.83709 0
M  V30 1865 N 172.938 -1.57226 0.108567 0
M  V30 1866 C 174.186 -1.94448 -0.550853 0
M  V30 1867 C 174.507 -0.992074 -1.67878 0
M  V30 1868 O 173.777 -0.0465 -1.95845 0
M  V30 1869 H 172.357 -0.717897 -0.206479 0
M  V30 1870 H 175.019 -1.94112 0.175062 0
M  V30 1871 H 174.115 -2.97218 -0.952259 0
M  V30 1872 N 174.416 0.165178 -1.56732 0
M  V30 1873 C 175.693 0.908443 -1.73224 0
M  V30 1874 C 176.073 2.0013 -0.67165 0
M  V30 1875 O 175.421 2.26353 0.31253 0
M  V30 1876 C 175.631 1.46756 -3.16644 0
M  V30 1877 C 176.979 1.93809 -3.77787 0
M  V30 1878 O 178.003 1.56537 -3.1996 0
M  V30 1879 O 176.862 2.62486 -4.79336 0
M  V30 1880 H 173.956 0.428025 -0.707618 0
M  V30 1881 H 176.502 0.152526 -1.69013 0
M  V30 1882 H 175.274 0.68129 -3.85323 0
M  V30 1883 H 174.897 2.28749 -3.25207 0
M  V30 1884 N 175.894 1.51508 0.433938 0
M  V30 1885 C 177.31 1.39759 0.770682 0
M  V30 1886 C 177.51 0.482594 1.95636 0
M  V30 1887 O 176.566 -0.0609691 2.52426 0
M  V30 1888 C 177.879 2.81851 1.04787 0
M  V30 1889 C 179.427 2.91025 1.1521 0
M  V30 1890 C 179.902 4.34032 1.46219 0
M  V30 1891 N 181.393 4.37154 1.53136 0
M  V30 1892 C 182.128 5.4484 1.78709 0
M  V30 1893 N 181.624 6.62682 2.02051 0
M  V30 1894 N 183.417 5.32324 1.80519 0
M  V30 1895 H 175.568 2.09548 -0.346892 0
M  V30 1896 H 177.831 0.943446 -0.0928074 0
M  V30 1897 H 177.537 3.50815 0.249304 0
M  V30 1898 H 177.411 3.21386 1.97461 0
M  V30 1899 H 179.798 2.22257 1.94128 0
M  V30 1900 H 179.879 2.54983 0.204281 0
M  V30 1901 H 179.523 5.03351 0.678274 0
M  V30 1902 H 179.453 4.6759 2.42212 0
M  V30 1903 H 181.944 3.52197 1.36987 0
M  V30 1904 H 182.257 7.40543 2.20943 0
M  V30 1905 H 180.602 6.65791 1.99366 0
M  V30 1906 H 183.793 4.39246 1.61805 0
M  V30 1907 H 183.966 6.16328 2.00111 0
M  V30 1908 N 177.372 -0.689602 1.41712 0
M  V30 1909 C 178.302 -1.81577 1.46806 0
M  V30 1910 C 179.283 -1.66945 0.326105 0
M  V30 1911 O 180.468 -1.86588 0.538377 0
M  V30 1912 C 177.598 -3.19762 1.35535 0
M  V30 1913 C 176.552 -3.49107 2.47605 0
M  V30 1914 C 175.878 -4.86711 2.21397 0
M  V30 1915 C 177.178 -3.47483 3.89939 0
M  V30 1916 H 178.872 -1.7757 2.41058 0
M  V30 1917 H 176.418 -0.852887 1.16025 0
M  V30 1918 H 178.371 -3.98263 1.3771 0
M  V30 1919 H 177.095 -3.24409 0.377708 0
M  V30 1920 H 175.754 -2.72959 2.44722 0
M  V30 1921 H 175.402 -4.8799 1.21961 0
M  V30 1922 H 175.102 -5.0731 2.96497 0
M  V30 1923 H 176.626 -5.67515 2.25297 0
M  V30 1924 H 178.04 -4.1598 3.94505 0
M  V30 1925 H 176.437 -3.79615 4.64771 0
M  V30 1926 H 177.507 -2.46341 4.17665 0
M  V30 1927 N 178.85 -1.27639 -0.924453 0
M  V30 1928 C 180.078 -1.16989 -1.70649 0
M  V30 1929 C 180.493 0.272869 -1.86818 0
M  V30 1930 O 179.85 1.18549 -1.38753 0
M  V30 1931 C 179.901 -1.85229 -3.10439 0
M  V30 1932 O 179.622 -3.23868 -2.95028 0
M  V30 1933 C 181.123 -1.80746 -4.04779 0
M  V30 1934 H 178.343 -0.406595 -0.53378 0
M  V30 1935 H 180.887 -1.68569 -1.15778 0
M  V30 1936 H 179.042 -1.37545 -3.6216 0
M  V30 1937 H 179.456 -3.57889 -3.83426 0
M  V30 1938 H 180.93 -2.33101 -5.00368 0
M  V30 1939 H 181.407 -0.777499 -4.32263 0
M  V30 1940 H 182.013 -2.28059 -3.58984 0
M  V30 1941 N 180.328 1.1314 -1.09713 0
M  V30 1942 C 181.556 1.88321 -0.856898 0
M  V30 1943 C 181.971 1.79276 0.592073 0
M  V30 1944 O 181.328 1.16142 1.40774 0
M  V30 1945 C 181.379 3.37812 -1.28706 0
M  V30 1946 O 181.1 3.46627 -2.67921 0
M  V30 1947 C 182.601 4.29952 -1.07964 0
M  V30 1948 H 179.821 0.596094 -0.308079 0
M  V30 1949 H 182.365 1.43205 -1.45988 0
M  V30 1950 H 180.52 3.805 -0.727912 0
M  V30 1951 H 180.934 4.39579 -2.8613 0
M  V30 1952 H 182.408 5.33159 -1.42986 0
M  V30 1953 H 182.885 4.39196 -0.0176577 0
M  V30 1954 H 183.491 3.93036 -1.62489 0
M  V30 1955 N 181.806 0.884767 1.30421 0
M  V30 1956 C 182.716 0.355398 2.31892 0
M  V30 1957 C 183.732 -0.542261 1.65335 0
M  V30 1958 O 184.908 -0.435432 1.96637 0
M  V30 1959 C 181.973 -0.421661 3.44126 0
M  V30 1960 C 181.034 0.505727 4.26311 0
M  V30 1961 C 180.267 -0.234343 5.33185 0
M  V30 1962 O 180.49 -1.46045 5.51386 0
M  V30 1963 O 179.424 0.415443 6.00465 0
M  V30 1964 H 183.25 1.19685 2.79122 0
M  V30 1965 H 180.835 0.648596 1.34587 0
M  V30 1966 H 182.717 -0.861641 4.12497 0
M  V30 1967 H 181.392 -1.23942 2.99032 0
M  V30 1968 H 180.299 0.994513 3.60639 0
M  V30 1969 H 181.632 1.28948 4.75009 0
M  V30 1970 N 183.284 -1.43765 0.645699 0
M  V30 1971 C 184.561 -1.9541 0.0862963 0
M  V30 1972 C 184.941 -1.58725 -1.39175 0
M  V30 1973 O 184.289 -0.868581 -2.11348 0
M  V30 1974 C 184.499 -3.47488 0.324565 0
M  V30 1975 C 185.847 -4.24001 0.225497 0
M  V30 1976 O 186.871 -3.55274 0.256715 0
M  V30 1977 O 185.73 -5.46313 0.142801 0
M  V30 1978 H 182.824 -0.826882 -0.0139483 0
M  V30 1979 H 185.37 -1.53743 0.718415 0
M  V30 1980 H 184.142 -3.67289 1.3496 0
M  V30 1981 H 183.765 -3.96135 -0.340987 0
M  V30 1982 N 184.763 -0.387143 -1.52771 0
M  V30 1983 C 185.693 0.440551 -2.29306 0
M  V30 1984 C 186.674 1.06535 -1.32606 0
M  V30 1985 O 187.859 1.07853 -1.61497 0
M  V30 1986 C 184.989 1.56919 -3.09829 0
M  V30 1987 C 183.943 1.07054 -4.14395 0
M  V30 1988 C 183.269 2.29109 -4.83129 0
M  V30 1989 C 184.569 0.140015 -5.22112 0
M  V30 1990 H 186.263 -0.198026 -2.98744 0
M  V30 1991 H 183.809 -0.09668 -1.43675 0
M  V30 1992 H 185.762 2.15503 -3.62128 0
M  V30 1993 H 184.486 2.23532 -2.3812 0
M  V30 1994 H 183.145 0.507247 -3.63074 0
M  V30 1995 H 182.793 2.94227 -4.0797 0
M  V30 1996 H 182.493 1.96406 -5.53804 0
M  V30 1997 H 184.017 2.88339 -5.38231 0
M  V30 1998 H 185.431 0.633978 -5.69784 0
M  V30 1999 H 183.828 -0.0971485 -6.00021 0
M  V30 2000 H 184.898 -0.811711 -4.78058 0
M  V30 2001 N 186.241 1.57166 -0.116904 0
M  V30 2002 C 187.487 1.95412 0.542405 0
M  V30 2003 C 187.82 1.00019 1.66463 0
M  V30 2004 O 187.095 0.0370346 1.94465 0
M  V30 2005 C 187.378 3.43615 1.07708 0
M  V30 2006 C 187.231 4.49781 -0.0415868 0
M  V30 2007 C 188.55 3.93616 1.96861 0
M  V30 2008 H 185.669 0.710543 0.195696 0
M  V30 2009 H 188.311 1.89027 -0.192038 0
M  V30 2010 H 186.461 3.49187 1.70296 0
M  V30 2011 H 188.133 4.56308 -0.676793 0
M  V30 2012 H 186.376 4.28033 -0.705019 0
M  V30 2013 H 187.047 5.50733 0.373717 0
M  V30 2014 H 189.523 3.90335 1.44146 0
M  V30 2015 H 188.399 4.97838 2.3119 0
M  V30 2016 H 188.66 3.34188 2.89432 0
M  V30 2017 N 187.719 -0.156864 1.56817 0
M  V30 2018 C 188.667 -1.21319 1.98455 0
M  V30 2019 C 189.661 -1.45025 0.875444 0
M  V30 2020 O 190.867 -1.45435 1.0606 0
M  V30 2021 H 187.242 -0.408142 0.631605 0
M  V30 2022 H 189.213 -0.835244 2.86472 0
M  V30 2023 C 187.962 -2.54148 2.37285 0
M  V30 2024 H 187.285 -2.36733 3.22176 0
M  V30 2025 H 188.725 -3.26712 2.70251 0
M  V30 2026 C 187.184 -3.13967 1.22173 0
M  V30 2027 O 187.714 -3.98357 0.517149 0
M  V30 2028 N 185.92 -2.7327 0.988536 0
M  V30 2029 H 185.467 -2.04744 1.56326 0
M  V30 2030 H 185.425 -3.13628 0.220209 0
M  V30 2031 N 189.197 -1.51736 -0.425897 0
M  V30 2032 C 190.127 -1.76827 -1.52494 0
M  V30 2033 C 191.108 -0.618524 -1.58456 0
M  V30 2034 O 192.293 -0.862416 -1.74 0
M  V30 2035 C 189.423 -1.90374 -2.90474 0
M  V30 2036 C 188.377 -3.0588 -2.99369 0
M  V30 2037 C 187.703 -3.04625 -4.3944 0
M  V30 2038 C 189.003 -4.45644 -2.72394 0
M  V30 2039 H 190.697 -2.68855 -1.31748 0
M  V30 2040 H 188.243 -1.29372 -0.632362 0
M  V30 2041 H 190.196 -2.0651 -3.6733 0
M  V30 2042 H 188.92 -0.95004 -3.12477 0
M  V30 2043 H 187.579 -2.89467 -2.24954 0
M  V30 2044 H 187.227 -2.0701 -4.58428 0
M  V30 2045 H 186.927 -3.82195 -4.46319 0
M  V30 2046 H 188.451 -3.22869 -5.18255 0
M  V30 2047 H 189.865 -4.62348 -3.38979 0
M  V30 2048 H 188.262 -5.25006 -2.9067 0
M  V30 2049 H 189.332 -4.54893 -1.67929 0
M  V30 2050 N 190.675 0.682077 -1.42076 0
M  V30 2051 C 191.923 1.4393 -1.41876 0
M  V30 2052 C 192.244 1.94971 -0.0335599 0
M  V30 2053 O 191.514 1.72591 0.926773 0
M  V30 2054 H 190.094 0.534085 -0.522267 0
M  V30 2055 H 192.756 0.806427 -1.77434 0
M  V30 2056 H 191.852 2.29588 -2.11414 0
M  V30 2057 N 192.153 1.28127 0.917671 0
M  V30 2058 C 193.1 1.11717 2.0196 0
M  V30 2059 C 194.07 0.0153929 1.66093 0
M  V30 2060 O 195.255 0.179596 1.89953 0
M  V30 2061 C 192.395 0.780927 3.36148 0
M  V30 2062 C 191.508 1.96135 3.84909 0
M  V30 2063 C 190.643 1.56609 5.0759 0
M  V30 2064 C 189.682 2.71339 5.48673 0
M  V30 2065 N 188.819 2.32332 6.62545 0
M  V30 2066 H 193.659 2.06003 2.15329 0
M  V30 2067 H 191.196 1.02535 1.05475 0
M  V30 2068 H 193.154 0.56675 4.13333 0
M  V30 2069 H 191.784 -0.124998 3.22558 0
M  V30 2070 H 190.836 2.28777 3.03916 0
M  V30 2071 H 192.148 2.82165 4.1132 0
M  V30 2072 H 191.302 1.31374 5.92305 0
M  V30 2073 H 190.041 0.677014 4.82978 0
M  V30 2074 H 189.046 2.97276 4.62501 0
M  V30 2075 H 190.271 3.60882 5.75274 0
M  V30 2076 H 188.217 1.45889 6.39572 0
M  V30 2077 H 188.134 3.11899 6.88662 0
M  V30 2078 H 189.402 2.10371 7.50576 0
M  V30 2079 N 193.631 -1.12557 1.10312 0
M  V30 2080 C 194.879 -1.83675 0.843091 0
M  V30 2081 C 195.2 -1.84435 -0.633131 0
M  V30 2082 O 194.47 -1.30657 -1.45964 0
M  V30 2083 H 193.05 -0.680138 0.308904 0
M  V30 2084 H 195.712 -1.36301 1.39313 0
M  V30 2085 H 194.808 -2.87908 1.2048 0
M  V30 2086 N 195.109 -0.891671 -1.2995 0
M  V30 2087 C 196.525 -0.58662 -1.48428 0
M  V30 2088 C 196.725 0.873951 -1.81561 0
M  V30 2089 O 195.781 1.65471 -1.90724 0
M  V30 2090 C 197.094 -1.50553 -2.60296 0
M  V30 2091 C 198.642 -1.50988 -2.74175 0
M  V30 2092 C 199.117 -2.41488 -3.89163 0
M  V30 2093 N 200.608 -2.39489 -3.96483 0
M  V30 2094 C 201.343 -3.06223 -4.84784 0
M  V30 2095 N 200.839 -3.82206 -5.77833 0
M  V30 2096 N 202.632 -2.95421 -4.78208 0
M  V30 2097 H 194.783 -1.83644 -1.06718 0
M  V30 2098 H 197.046 -0.786455 -0.529332 0
M  V30 2099 H 196.752 -2.54581 -2.42654 0
M  V30 2100 H 196.626 -1.22008 -3.56923 0
M  V30 2101 H 199.013 -0.47708 -2.91218 0
M  V30 2102 H 199.094 -1.83567 -1.78148 0
M  V30 2103 H 198.738 -3.44857 -3.72876 0
M  V30 2104 H 198.668 -2.06222 -4.84541 0
M  V30 2105 H 201.159 -1.84278 -3.29924 0
M  V30 2106 H 201.472 -4.302 -6.41988 0
M  V30 2107 H 199.817 -3.86313 -5.77743 0
M  V30 2108 H 203.008 -2.35581 -4.04499 0
M  V30 2109 H 203.181 -3.47704 -5.46814 0
M  V30 2110 N 196.587 1.43421 -0.653314 0
M  V30 2111 C 197.817 2.05864 -0.174238 0
M  V30 2112 C 198.225 1.49052 1.16534 0
M  V30 2113 O 197.568 0.616481 1.73047 0
M  V30 2114 C 197.63 3.59499 -0.00875873 0
M  V30 2115 C 197.294 4.38893 -1.27364 0
M  V30 2116 C 198.291 4.70947 -2.20239 0
M  V30 2117 C 195.976 4.789 -1.51525 0
M  V30 2118 C 197.97 5.41916 -3.35568 0
M  V30 2119 C 195.657 5.49614 -2.67147 0
M  V30 2120 C 196.655 5.81044 -3.58994 0
M  V30 2121 O 196.343 6.50313 -4.72597 0
M  V30 2122 H 196.075 0.670345 -0.0872549 0
M  V30 2123 H 198.629 1.84913 -0.894226 0
M  V30 2124 H 196.859 3.79025 0.7666 0
M  V30 2125 H 198.548 4.0364 0.427687 0
M  V30 2126 H 199.314 4.40558 -2.02815 0
M  V30 2127 H 195.193 4.53843 -0.809158 0
M  V30 2128 H 198.737 5.66365 -4.07279 0
M  V30 2129 H 194.634 5.79419 -2.84505 0
M  V30 2130 H 195.402 6.68795 -4.71864 0
M  V30 2131 N 198.065 0.39524 1.52563 0
M  V30 2132 C 199.012 -0.437036 2.26624 0
M  V30 2133 C 199.982 -1.05281 1.28472 0
M  V30 2134 O 201.167 -1.07971 1.57311 0
M  V30 2135 C 198.307 -1.55524 3.08069 0
M  V30 2136 C 197.42 -0.961745 4.21158 0
M  V30 2137 C 196.555 -2.05149 4.89987 0
M  V30 2138 C 195.594 -1.4342 5.95061 0
M  V30 2139 N 194.731 -2.46351 6.57462 0
M  V30 2140 H 199.571 0.200976 2.97322 0
M  V30 2141 H 197.108 0.110944 1.46681 0
M  V30 2142 H 199.066 -2.21437 3.53584 0
M  V30 2143 H 197.696 -2.16348 2.3957 0
M  V30 2144 H 196.748 -0.192048 3.79915 0
M  V30 2145 H 198.06 -0.470701 4.96574 0
M  V30 2146 H 197.214 -2.78819 5.38837 0
M  V30 2147 H 195.953 -2.57615 4.14109 0
M  V30 2148 H 194.958 -0.682774 5.45544 0
M  V30 2149 H 196.183 -0.917416 6.72875 0
M  V30 2150 H 194.129 -2.97975 5.8442 0
M  V30 2151 H 194.046 -2.02019 7.28508 0
M  V30 2152 H 195.314 -3.19633 7.10954 0
M  V30 2153 N 199.544 -1.57102 0.125237 0
M  V30 2154 C 200.793 -1.94582 -0.531095 0
M  V30 2155 C 201.106 -1.01126 -1.6743 0
M  V30 2156 O 202.312 -1.28097 -2.39381 0
M  V30 2157 C 200.768 -3.45839 -0.996164 0
M  V30 2158 C 200.376 -4.47842 0.118926 0
M  V30 2159 C 202.12 -3.92227 -1.62352 0
M  V30 2160 C 200.027 -5.90284 -0.363192 0
M  V30 2161 H 198.957 -0.726391 -0.20217 0
M  V30 2162 H 201.608 -1.82339 0.206092 0
M  V30 2163 H 199.99 -3.53338 -1.78796 0
M  V30 2164 H 201.164 -4.52018 0.895358 0
M  V30 2165 H 199.479 -4.11243 0.653324 0
M  V30 2166 H 202.076 -4.96069 -1.99548 0
M  V30 2167 H 202.419 -3.32552 -2.50429 0
M  V30 2168 H 202.952 -3.87554 -0.897019 0
M  V30 2169 H 199.691 -6.53728 0.481679 0
M  V30 2170 H 199.211 -5.89515 -1.10597 0
M  V30 2171 H 200.89 -6.41752 -0.822377 0
M  V30 2172 N 201.022 0.148545 -1.56898 0
M  V30 2173 C 201.969 1.18345 -1.98149 0
M  V30 2174 C 202.939 1.42772 -0.848848 0
M  V30 2175 O 204.124 1.55132 -1.11079 0
M  V30 2176 C 201.264 2.51231 -2.36594 0
M  V30 2177 C 200.377 2.33991 -3.63142 0
M  V30 2178 C 199.512 3.59902 -3.90697 0
M  V30 2179 C 198.551 3.37692 -5.1052 0
M  V30 2180 N 197.688 4.5573 -5.34092 0
M  V30 2181 H 202.528 0.82467 -2.86362 0
M  V30 2182 H 200.065 0.395756 -1.41676 0
M  V30 2183 H 202.023 3.28713 -2.56912 0
M  V30 2184 H 200.653 2.85059 -1.51463 0
M  V30 2185 H 199.705 1.47572 -3.50609 0
M  V30 2186 H 201.017 2.13539 -4.5078 0
M  V30 2187 H 200.171 4.45813 -4.11505 0
M  V30 2188 H 198.91 3.83357 -3.01477 0
M  V30 2189 H 197.915 2.5017 -4.89587 0
M  V30 2190 H 199.14 3.15637 -6.0129 0
M  V30 2191 H 197.086 4.79361 -4.47827 0
M  V30 2192 H 197.003 4.38274 -6.15996 0
M  V30 2193 H 198.271 5.42858 -5.59397 0
M  V30 2194 N 202.5 1.5196 0.417844 0
M  V30 2195 C 203.43 1.77634 1.51554 0
M  V30 2196 C 204.411 0.626918 1.58126 0
M  V30 2197 O 205.596 0.871632 1.7354 0
M  V30 2198 C 202.726 1.91911 2.8946 0
M  V30 2199 C 201.68 3.07463 2.97743 0
M  V30 2200 C 201.006 3.06951 4.37819 0
M  V30 2201 C 202.306 4.47082 2.70027 0
M  V30 2202 H 204 2.6955 1.3032 0
M  V30 2203 H 201.546 1.29706 0.625492 0
M  V30 2204 H 203.499 2.08455 3.6623 0
M  V30 2205 H 202.223 0.966598 3.11969 0
M  V30 2206 H 200.882 2.90656 2.23416 0
M  V30 2207 H 200.53 2.09438 4.57323 0
M  V30 2208 H 200.23 3.84556 4.44286 0
M  V30 2209 H 201.754 3.25613 5.16535 0
M  V30 2210 H 203.168 4.6414 3.36522 0
M  V30 2211 H 201.565 5.2654 2.87881 0
M  V30 2212 H 202.635 4.55777 1.65514 0
M  V30 2213 N 203.978 -0.674533 1.42435 0
M  V30 2214 C 205.206 -1.46283 1.46317 0
M  V30 2215 C 205.621 -1.88653 0.0745836 0
M  V30 2216 O 204.978 -1.58151 -0.91074 0
M  V30 2217 C 205.029 -2.71178 2.3905 0
M  V30 2218 O 204.75 -2.30586 3.72507 0
M  V30 2219 C 206.251 -3.64738 2.51955 0
M  V30 2220 H 203.471 -0.450104 0.497642 0
M  V30 2221 H 206.015 -0.828792 1.86953 0
M  V30 2222 H 204.17 -3.3077 2.01667 0
M  V30 2223 H 204.584 -3.11241 4.22172 0
M  V30 2224 H 206.058 -4.49096 3.20962 0
M  V30 2225 H 206.535 -4.10656 1.55752 0
M  V30 2226 H 207.141 -3.11038 2.90061 0
M  V30 2227 N 205.456 -1.28612 -0.910864 0
M  V30 2228 C 206.867 -1.14406 -1.47541 0
M  V30 2229 C 207.218 0.264901 -1.94403 0
M  V30 2230 O 206.343 1.15942 -1.82719 0
M  V30 2231 C 206.938 -2.07073 -2.68153 0
M  V30 2232 C 205.497 -1.96923 -3.20778 0
M  V30 2233 C 204.644 -1.98646 -1.93481 0
M  V30 2234 H 207.595 -1.41259 -0.723291 0
M  V30 2235 H 207.616 -1.63642 -3.43514 0
M  V30 2236 H 207.128 -3.09611 -2.34015 0
M  V30 2237 H 205.229 -0.97433 -3.59635 0
M  V30 2238 H 205.342 -2.84026 -3.85832 0
M  V30 2239 H 203.706 -1.43093 -2.10705 0
M  V30 2240 H 204.489 -3.02868 -1.61634 0
M  V30 2241 N 206.934 1.1197 -1.10907 0
M  V30 2242 C 208.162 1.87402 -0.876824 0
M  V30 2243 C 208.577 1.79894 0.573025 0
M  V30 2244 O 207.934 1.17629 1.39534 0
M  V30 2245 C 207.985 3.36428 -1.32282 0
M  V30 2246 O 207.706 3.43765 -2.71582 0
M  V30 2247 C 209.207 4.28783 -1.12518 0
M  V30 2248 H 206.427 0.592793 -0.314384 0
M  V30 2249 H 208.971 1.41649 -1.47499 0
M  V30 2250 H 207.126 3.79706 -0.768229 0
M  V30 2251 H 207.54 4.3652 -2.90776 0
M  V30 2252 H 209.014 5.31613 -1.48633 0
M  V30 2253 H 209.491 4.39153 -0.0642394 0
M  V30 2254 H 210.097 3.91291 -1.66648 0
M  V30 2255 N 208.412 0.89855 1.29475 0
M  V30 2256 C 209.375 0.380272 2.26023 0
M  V30 2257 C 210.375 -0.484891 1.53315 0
M  V30 2258 O 211.565 -0.290108 1.71767 0
M  V30 2259 C 208.697 -0.45651 3.3783 0
M  V30 2260 H 209.89 1.23295 2.73383 0
M  V30 2261 H 207.443 0.676589 1.40897 0
M  V30 2262 H 208.178 -1.32922 2.95808 0
M  V30 2263 H 207.963 0.163393 3.91759 0
M  V30 2264 H 209.453 -0.810466 4.0966 0
M  V30 2265 N 209.89 -1.43072 0.660911 0
M  V30 2266 C 210.8 -2.34585 -0.0264163 0
M  V30 2267 C 211.816 -1.54316 -0.803898 0
M  V30 2268 O 212.992 -1.86939 -0.749391 0
M  V30 2269 C 210.057 -3.32689 -0.975639 0
M  V30 2270 C 209.118 -4.2886 -0.194236 0
M  V30 2271 C 208.351 -5.22278 -1.09825 0
M  V30 2272 O 208.574 -5.20299 -2.33763 0
M  V30 2273 O 207.508 -5.99228 -0.566513 0
M  V30 2274 H 211.334 -2.94869 0.727034 0
M  V30 2275 H 208.919 -1.43342 0.42111 0
M  V30 2276 H 210.801 -3.92995 -1.52094 0
M  V30 2277 H 209.476 -2.74898 -1.70918 0
M  V30 2278 H 208.383 -3.72011 0.394835 0
M  V30 2279 H 209.716 -4.89655 0.499899 0
M  V30 2280 N 211.368 -0.403325 -1.52352 0
M  V30 2281 C 212.315 0.425011 -2.26853 0
M  V30 2282 C 213.285 1.04598 -1.29029 0
M  V30 2283 O 214.47 1.07135 -1.57882 0
M  V30 2284 C 211.61 1.53888 -3.08889 0
M  V30 2285 C 210.723 0.939396 -4.21663 0
M  V30 2286 C 209.858 2.02547 -4.91068 0
M  V30 2287 C 208.897 1.40263 -5.95813 0
M  V30 2288 N 208.034 2.4286 -6.58759 0
M  V30 2289 H 212.874 -0.21674 -2.97211 0
M  V30 2290 H 210.411 -0.118722 -1.4662 0
M  V30 2291 H 212.369 2.19558 -3.54753 0
M  V30 2292 H 210.999 2.15074 -2.40714 0
M  V30 2293 H 210.051 0.171898 -3.80011 0
M  V30 2294 H 211.363 0.44436 -4.96817 0
M  V30 2295 H 210.517 2.75958 -5.40308 0
M  V30 2296 H 209.256 2.55415 -4.15469 0
M  V30 2297 H 208.261 0.653833 -5.45898 0
M  V30 2298 H 209.486 0.881719 -6.73352 0
M  V30 2299 H 207.432 2.94871 -5.85992 0
M  V30 2300 H 207.349 1.98152 -7.2957 0
M  V30 2301 H 208.617 3.15858 -7.12639 0
M  V30 2302 N 212.846 1.57033 -0.133567 0
M  V30 2303 C 214.262 1.58035 0.222944 0
M  V30 2304 C 214.462 1.14713 1.6566 0
M  V30 2305 O 213.518 0.841218 2.38075 0
M  V30 2306 C 214.831 3.00691 -0.0236116 0
M  V30 2307 C 216.379 3.12973 0.0411512 0
M  V30 2308 C 216.854 4.57654 -0.177899 0
M  V30 2309 N 218.345 4.63033 -0.124365 0
M  V30 2310 C 219.08 5.72771 -0.268553 0
M  V30 2311 N 218.576 6.91206 -0.46972 0
M  V30 2312 N 220.369 5.61718 -0.2071 0
M  V30 2313 H 212.52 1.8349 -1.06981 0
M  V30 2314 H 214.783 0.848677 -0.422436 0
M  V30 2315 H 214.489 3.36726 -1.0153 0
M  V30 2316 H 214.363 3.70614 0.701808 0
M  V30 2317 H 216.75 2.76787 1.02338 0
M  V30 2318 H 216.831 2.45564 -0.716383 0
M  V30 2319 H 216.475 4.94542 -1.15717 0
M  V30 2320 H 216.405 5.23173 0.599797 0
M  V30 2321 H 218.896 3.7789 0.027011 0
M  V30 2322 H 219.209 7.70693 -0.570212 0
M  V30 2323 H 217.554 6.93156 -0.505876 0
M  V30 2324 H 220.745 4.68072 -0.0507986 0
M  V30 2325 H 220.918 6.47195 -0.322909 0
M  V30 2326 N 214.325 -0.140222 1.56975 0
M  V30 2327 C 215.571 -0.852949 1.83991 0
M  V30 2328 C 215.904 -1.80512 0.716187 0
M  V30 2329 O 215.179 -1.92479 -0.279681 0
M  V30 2330 C 215.462 -1.6215 3.21527 0
M  V30 2331 C 215.315 -0.690363 4.4447 0
M  V30 2332 C 216.634 -2.58247 3.56366 0
M  V30 2333 H 213.753 -0.308634 0.669264 0
M  V30 2334 H 216.395 -0.117898 1.89634 0
M  V30 2335 H 214.545 -2.24812 3.16847 0
M  V30 2336 H 216.217 -0.0742264 4.6124 0
M  V30 2337 H 214.46 -0.000396433 4.338 0
M  V30 2338 H 215.131 -1.2643 5.37326 0
M  V30 2339 H 217.607 -2.05701 3.61699 0
M  V30 2340 H 216.483 -3.09067 4.53617 0
M  V30 2341 H 216.744 -3.39923 2.82674 0
M  V30 2342 N 215.803 -1.52179 -0.40978 0
M  V30 2343 C 216.735 -1.71703 -1.51825 0
M  V30 2344 C 217.748 -0.597445 -1.51441 0
M  V30 2345 O 218.937 -0.872582 -1.55719 0
M  V30 2346 C 216.037 -1.74171 -2.90719 0
M  V30 2347 C 215.21 -3.03156 -3.15302 0
M  V30 2348 C 214.269 -2.97445 -4.34065 0
M  V30 2349 O 213.295 -3.71352 -4.31377 0
M  V30 2350 N 214.497 -2.15191 -5.39141 0
M  V30 2351 H 217.262 -2.67334 -1.35472 0
M  V30 2352 H 214.823 -1.50409 -0.599069 0
M  V30 2353 H 216.815 -1.67884 -3.68235 0
M  V30 2354 H 215.385 -0.860166 -3.00533 0
M  V30 2355 H 214.605 -3.23097 -2.25836 0
M  V30 2356 H 215.893 -3.88484 -3.28569 0
M  V30 2357 H 215.291 -1.54573 -5.44173 0
M  V30 2358 H 213.848 -2.1476 -6.15403 0
M  V30 2359 N 217.281 0.66697 -1.42791 0
M  V30 2360 C 218.228 1.7803 -1.4688 0
M  V30 2361 C 219.198 1.6299 -0.319919 0
M  V30 2362 O 220.383 1.83432 -0.525118 0
M  V30 2363 C 217.523 3.1611 -1.38451 0
M  V30 2364 C 216.636 3.42381 -2.63437 0
M  V30 2365 C 215.771 4.70232 -2.47094 0
M  V30 2366 C 214.81 4.89564 -3.67415 0
M  V30 2367 N 213.947 6.08661 -3.49966 0
M  V30 2368 H 218.787 1.7387 -2.42019 0
M  V30 2369 H 216.324 0.84868 -1.20149 0
M  V30 2370 H 218.282 3.95914 -1.31561 0
M  V30 2371 H 216.912 3.19374 -0.469033 0
M  V30 2372 H 215.964 2.56774 -2.80662 0
M  V30 2373 H 217.276 3.52557 -3.52853 0
M  V30 2374 H 216.43 5.5814 -2.37834 0
M  V30 2375 H 215.169 4.62353 -1.5518 0
M  V30 2376 H 214.174 4.00096 -3.77099 0
M  V30 2377 H 215.399 4.99282 -4.6032 0
M  V30 2378 H 213.345 6.0194 -2.60776 0
M  V30 2379 H 213.262 6.19733 -4.32975 0
M  V30 2380 H 214.53 6.99226 -3.44532 0
M  V30 2381 N 218.759 1.29093 0.90403 0
M  V30 2382 C 219.984 1.19809 1.69294 0
M  V30 2383 C 220.409 -0.238481 1.86582 0
M  V30 2384 O 219.767 -1.1723 1.383 0
M  V30 2385 C 219.815 1.91202 3.05736 0
M  V30 2386 O 218.919 1.22611 3.93752 0
M  V30 2387 H 218.26 0.415385 0.518027 0
M  V30 2388 H 220.79 1.70586 1.12967 0
M  V30 2389 H 220.8 1.99487 3.55906 0
M  V30 2390 H 219.475 2.95692 2.92471 0
M  V30 2391 H 218.052 1.22554 3.52186 0
M  V30 2392 N 220.237 -1.11381 1.11499 0
M  V30 2393 C 221.653 -1.35143 0.849031 0
M  V30 2394 C 221.853 -1.94515 -0.525938 0
M  V30 2395 O 220.909 -2.1785 -1.27662 0
M  V30 2396 C 222.222 -2.28249 1.95762 0
M  V30 2397 C 223.77 -2.41812 1.98736 0
M  V30 2398 C 224.245 -3.3824 3.088 0
M  V30 2399 N 225.736 -3.45803 3.08179 0
M  V30 2400 C 226.471 -4.20358 3.89982 0
M  V30 2401 N 225.967 -4.97884 4.8175 0
M  V30 2402 N 227.76 -4.15877 3.78157 0
M  V30 2403 H 219.911 -0.712062 2.00109 0
M  V30 2404 H 222.174 -0.376025 0.870235 0
M  V30 2405 H 221.88 -1.91817 2.94787 0
M  V30 2406 H 221.754 -3.28473 1.85433 0
M  V30 2407 H 224.141 -2.77518 1.00338 0
M  V30 2408 H 224.222 -1.41437 2.13141 0
M  V30 2409 H 223.866 -3.03261 4.07425 0
M  V30 2410 H 223.796 -4.38471 2.91635 0
M  V30 2411 H 226.287 -2.90506 2.41691 0
M  V30 2412 H 226.6 -5.52142 5.40702 0
M  V30 2413 H 224.945 -4.97043 4.85771 0
M  V30 2414 H 228.136 -3.544 3.05808 0
M  V30 2415 H 228.309 -4.73723 4.42143 0
M  V30 2416 N 221.715 -0.905404 -1.28997 0
M  V30 2417 C 222.625 -0.392246 -2.31298 0
M  V30 2418 C 223.641 0.515889 -1.66176 0
M  V30 2419 O 224.817 0.404093 -1.97304 0
M  V30 2420 C 221.882 0.36686 -3.44754 0
M  V30 2421 C 220.943 -0.573485 -4.25452 0
M  V30 2422 C 220.176 0.149488 -5.33491 0
M  V30 2423 O 220.399 1.37255 -5.5364 0
M  V30 2424 O 219.333 -0.510919 -5.99728 0
M  V30 2425 H 223.159 -1.2411 -2.77183 0
M  V30 2426 H 220.744 -0.669926 -1.33538 0
M  V30 2427 H 222.626 0.795907 -4.13816 0
M  V30 2428 H 221.301 1.19169 -3.00966 0
M  V30 2429 H 220.208 -1.05176 -3.59011 0
M  V30 2430 H 221.541 -1.36489 -4.72897 0
M  V30 2431 N 223.193 1.4272 -0.668489 0
M  V30 2432 C 224.439 2.01923 -0.188419 0
M  V30 2433 C 224.772 1.52704 1.19979 0
M  V30 2434 O 224.047 0.726566 1.8042 0
M  V30 2435 C 224.33 3.59451 -0.216085 0
M  V30 2436 C 224.183 4.18864 -1.6393 0
M  V30 2437 C 225.502 4.37903 0.439179 0
M  V30 2438 H 222.621 0.733674 -0.0699412 0
M  V30 2439 H 225.263 1.69822 -0.852076 0
M  V30 2440 H 223.413 3.86929 0.349012 0
M  V30 2441 H 225.085 4.02362 -2.25616 0
M  V30 2442 H 223.328 3.74933 -2.18193 0
M  V30 2443 H 223.999 5.27987 -1.61039 0
M  V30 2444 H 226.475 4.16079 -0.0417878 0
M  V30 2445 H 225.351 5.47519 0.389157 0
M  V30 2446 H 225.612 4.15303 1.51577 0
M  V30 2447 N 224.671 0.411399 1.52136 0
M  V30 2448 C 225.92 -0.165009 2.01024 0
M  V30 2449 C 226.233 -1.4603 1.30133 0
M  V30 2450 O 227.439 -2.1181 1.69849 0
M  V30 2451 C 225.895 -0.344618 3.58246 0
M  V30 2452 C 225.503 0.938716 4.38055 0
M  V30 2453 C 227.247 -0.876195 4.15359 0
M  V30 2454 C 225.154 0.726172 5.86925 0
M  V30 2455 H 224.084 -0.0654407 0.751155 0
M  V30 2456 H 226.735 0.537192 1.75461 0
M  V30 2457 H 225.117 -1.10921 3.80148 0
M  V30 2458 H 226.291 1.70963 4.27912 0
M  V30 2459 H 224.606 1.39688 3.92271 0
M  V30 2460 H 227.203 -1.05128 5.24263 0
M  V30 2461 H 227.546 -1.85152 3.7286 0
M  V30 2462 H 228.079 -0.170607 3.97434 0
M  V30 2463 H 224.818 1.67312 6.33788 0
M  V30 2464 H 224.338 -0.00540283 5.998 0
M  V30 2465 H 226.017 0.369231 6.45946 0
M  V30 2466 N 226.149 -1.5696 0.141893 0
M  V30 2467 C 227.426 -1.87553 -0.555281 0
M  V30 2468 C 227.806 -1.04699 -1.83306 0
M  V30 2469 O 227.154 -0.132346 -2.28116 0
M  V30 2470 C 227.364 -3.39093 -0.825664 0
M  V30 2471 C 228.712 -4.08199 -1.16869 0
M  V30 2472 O 229.736 -3.44242 -0.915185 0
M  V30 2473 O 228.595 -5.21139 -1.6455 0
M  V30 2474 H 225.689 -0.777188 -0.282679 0
M  V30 2475 H 228.235 -1.68763 0.17812 0
M  V30 2476 H 227.007 -3.91221 0.0788633 0
M  V30 2477 H 226.63 -3.63393 -1.61343 0
M  V30 2478 N 227.627 0.131896 -1.57047 0
M  V30 2479 C 228.852 0.860418 -1.8871 0
M  V30 2480 C 229.277 1.73251 -0.73251 0
M  V30 2481 O 228.635 1.785 0.317429 0
M  V30 2482 C 228.683 1.68047 -3.19049 0
M  V30 2483 O 227.787 2.7862 -3.04047 0
M  V30 2484 H 227.128 0.238743 -0.619595 0
M  V30 2485 H 229.658 0.118169 -2.04258 0
M  V30 2486 H 229.668 2.07238 -3.51449 0
M  V30 2487 H 228.343 1.04018 -4.02682 0
M  V30 2488 H 226.92 2.42726 -2.83088 0
M  V30 2489 N 229.106 1.52395 0.401703 0
M  V30 2490 C 230.355 1.66044 1.14509 0
M  V30 2491 C 230.668 0.400216 1.91462 0
M  V30 2492 O 231.874 0.416632 2.68284 0
M  V30 2493 C 230.33 2.93388 2.0845 0
M  V30 2494 C 229.938 4.26545 1.36978 0
M  V30 2495 C 231.682 3.16402 2.83001 0
M  V30 2496 C 229.589 5.45007 2.29611 0
M  V30 2497 H 228.519 0.618562 0.431158 0
M  V30 2498 H 231.17 1.78886 0.40892 0
M  V30 2499 H 229.552 2.74263 2.8565 0
M  V30 2500 H 230.726 4.56179 0.650916 0
M  V30 2501 H 229.041 4.09692 0.74438 0
M  V30 2502 H 231.638 4.02085 3.52465 0
M  V30 2503 H 231.981 2.30943 3.46368 0
M  V30 2504 H 232.514 3.36034 2.12898 0
M  V30 2505 H 229.253 6.32835 1.70879 0
M  V30 2506 H 228.773 5.19702 2.9945 0
M  V30 2507 H 230.452 5.7838 2.89974 0
M  V30 2508 N 230.584 -0.659388 1.43143 0
M  V30 2509 C 231.833 -1.41518 1.43721 0
M  V30 2510 C 232.146 -1.95499 0.0628176 0
M  V30 2511 O 233.352 -2.71446 -0.0539683 0
M  V30 2512 C 231.808 -2.5608 2.52885 0
M  V30 2513 C 231.416 -2.08733 3.96402 0
M  V30 2514 C 233.16 -3.3349 2.62649 0
M  V30 2515 C 231.067 -3.20469 4.97045 0
M  V30 2516 H 229.997 -0.531705 0.534608 0
M  V30 2517 H 232.648 -0.712343 1.69109 0
M  V30 2518 H 231.03 -3.28805 2.20688 0
M  V30 2519 H 232.204 -1.43059 4.3803 0
M  V30 2520 H 230.519 -1.44219 3.90627 0
M  V30 2521 H 233.116 -4.16734 3.35017 0
M  V30 2522 H 233.459 -3.8111 1.67513 0
M  V30 2523 H 233.992 -2.67842 2.94118 0
M  V30 2524 H 230.731 -2.77824 5.93712 0
M  V30 2525 H 230.251 -3.84874 4.60034 0
M  V30 2526 H 231.93 -3.85698 5.19467 0
M  V30 2527 N 232.062 -1.29571 -0.897171 0
M  V30 2528 C 233.009 -1.14916 -2.00158 0
M  V30 2529 C 233.979 -0.0418149 -1.66047 0
M  V30 2530 O 235.164 -0.209793 -1.89643 0
M  V30 2531 C 232.304 -0.834307 -3.34863 0
M  V30 2532 C 231.417 -2.02234 -3.8174 0
M  V30 2533 C 230.552 -1.64664 -5.05034 0
M  V30 2534 C 229.591 -2.80033 -5.44286 0
M  V30 2535 N 228.728 -2.42843 -6.58765 0
M  V30 2536 H 233.568 -2.09403 -2.12025 0
M  V30 2537 H 231.105 -1.042 -1.0383 0
M  V30 2538 H 233.063 -0.632436 -4.12379 0
M  V30 2539 H 231.693 0.0736656 -3.22716 0
M  V30 2540 H 230.745 -2.33583 -3.00238 0
M  V30 2541 H 232.057 -2.88673 -4.06779 0
M  V30 2542 H 231.211 -1.4078 -5.9014 0
M  V30 2543 H 229.95 -0.753766 -4.8184 0
M  V30 2544 H 228.955 -3.04596 -4.57713 0
M  V30 2545 H 230.18 -3.69989 -5.6946 0
M  V30 2546 H 228.126 -1.56046 -6.3717 0
M  V30 2547 H 228.043 -3.22815 -6.83613 0
M  V30 2548 H 229.311 -2.22285 -7.47134 0
M  V30 2549 N 233.54 1.10788 -1.12088 0
M  V30 2550 C 234.45 2.20599 -0.798338 0
M  V30 2551 C 235.466 1.72712 0.21135 0
M  V30 2552 O 236.642 2.01348 0.0458477 0
M  V30 2553 C 233.707 3.45771 -0.253674 0
M  V30 2554 C 232.768 4.08411 -1.32283 0
M  V30 2555 C 232.001 5.27608 -0.80406 0
M  V30 2556 O 232.224 5.69241 0.363478 0
M  V30 2557 O 231.158 5.8101 -1.57198 0
M  V30 2558 H 234.984 2.50614 -1.7154 0
M  V30 2559 H 232.569 1.19454 -0.897275 0
M  V30 2560 H 234.451 4.21376 0.0453691 0
M  V30 2561 H 233.126 3.1739 0.636005 0
M  V30 2562 H 232.033 3.34507 -1.67499 0
M  V30 2563 H 233.366 4.40986 -2.18614 0
M  V30 2564 N 235.018 0.912232 1.28515 0
M  V30 2565 C 235.965 0.397954 2.27343 0
M  V30 2566 C 236.935 -0.526766 1.57526 0
M  V30 2567 O 238.12 -0.449292 1.85435 0
M  V30 2568 C 235.26 -0.357263 3.43246 0
M  V30 2569 C 234.373 0.599788 4.27816 0
M  V30 2570 C 233.508 -0.173725 5.30916 0
M  V30 2571 C 232.547 0.777039 6.07148 0
M  V30 2572 N 231.684 0.0371398 7.0209 0
M  V30 2573 H 236.524 1.24577 2.70711 0
M  V30 2574 H 234.061 0.625612 1.33133 0
M  V30 2575 H 236.019 -0.8113 4.09236 0
M  V30 2576 H 234.649 -1.16943 3.00872 0
M  V30 2577 H 233.701 1.17235 3.61884 0
M  V30 2578 H 235.013 1.32704 4.80823 0
M  V30 2579 H 234.167 -0.688394 6.02782 0
M  V30 2580 H 232.906 -0.934041 4.78672 0
M  V30 2581 H 231.911 1.3031 5.34134 0
M  V30 2582 H 233.136 1.53689 6.61481 0
M  V30 2583 H 231.082 -0.705213 6.52198 0
M  V30 2584 H 230.999 0.704249 7.52713 0
M  V30 2585 H 232.267 -0.457383 7.78157 0
M  V30 2586 N 236.496 -1.42363 0.676048 0
M  V30 2587 C 237.724 -2.05859 0.207268 0
M  V30 2588 C 238.139 -1.50796 -1.13605 0
M  V30 2589 O 237.496 -0.648265 -1.70598 0
M  V30 2590 C 237.547 -3.61248 0.134975 0
M  V30 2591 O 237.268 -4.1427 1.42521 0
M  V30 2592 C 238.769 -4.41859 -0.357151 0
M  V30 2593 H 235.989 -0.663431 0.100503 0
M  V30 2594 H 238.533 -1.82479 0.923136 0
M  V30 2595 H 236.688 -3.83735 -0.531588 0
M  V30 2596 H 237.102 -5.0815 1.29939 0
M  V30 2597 H 238.576 -5.50847 -0.356641 0
M  V30 2598 H 239.053 -4.16536 -1.39264 0
M  V30 2599 H 239.659 -4.24392 0.27772 0
M  V30 2600 N 237.974 -0.419461 -1.51915 0
M  V30 2601 C 239.22 0.153166 -2.02221 0
M  V30 2602 C 239.553 1.43907 -1.30401 0
M  V30 2603 O 238.828 1.90055 -0.413438 0
M  V30 2604 C 239.111 0.390291 -3.57979 0
M  V30 2605 C 238.964 -0.913014 -4.40436 0
M  V30 2606 C 240.283 1.16794 -4.2432 0
M  V30 2607 H 237.402 0.0541924 -0.735005 0
M  V30 2608 H 240.044 -0.554955 -1.81715 0
M  V30 2609 H 238.194 0.993491 -3.75582 0
M  V30 2610 H 239.866 -1.54882 -4.34522 0
M  V30 2611 H 238.109 -1.52168 -4.06236 0
M  V30 2612 H 238.78 -0.701361 -5.47526 0
M  V30 2613 H 241.256 0.657161 -4.10878 0
M  V30 2614 H 240.132 1.3026 -5.3322 0
M  V30 2615 H 240.393 2.19132 -3.83971 0
M  V30 2616 N 239.452 1.56882 -0.150215 0
M  V30 2617 C 240.698 1.96518 0.500834 0
M  V30 2618 C 241.031 1.03527 1.64304 0
M  V30 2619 O 240.306 0.0782751 1.94342 0
M  V30 2620 C 240.589 3.45822 1.00395 0
M  V30 2621 C 240.442 4.49591 -0.136983 0
M  V30 2622 C 241.761 3.97704 1.88467 0
M  V30 2623 H 238.88 0.714535 0.18058 0
M  V30 2624 H 241.522 1.88577 -0.232091 0
M  V30 2625 H 239.672 3.5272 1.62851 0
M  V30 2626 H 241.344 4.5477 -0.77343 0
M  V30 2627 H 239.587 4.26441 -0.795652 0
M  V30 2628 H 240.258 5.51402 0.256815 0
M  V30 2629 H 242.734 3.93304 1.35834 0
M  V30 2630 H 241.61 5.0263 2.20578 0
M  V30 2631 H 241.871 3.40252 2.82279 0
M  V30 2632 N 240.93 -0.123565 1.57115 0
M  V30 2633 C 242.16 -0.845233 1.88519 0
M  V30 2634 C 242.568 -1.74168 0.739064 0
M  V30 2635 O 241.911 -1.81244 -0.299355 0
M  V30 2636 C 241.973 -1.73452 3.14888 0
M  V30 2637 C 241.637 -1.01285 4.45635 0
M  V30 2638 C 242.634 -0.355774 5.18681 0
M  V30 2639 C 240.319 -0.99538 4.92339 0
M  V30 2640 C 242.313 0.309114 6.3665 0
M  V30 2641 C 240 -0.32669 6.10226 0
M  V30 2642 C 240.998 0.324406 6.82229 0
M  V30 2643 O 240.686 0.982437 7.97874 0
M  V30 2644 H 240.418 -0.248534 0.628655 0
M  V30 2645 H 242.972 -0.113907 2.05084 0
M  V30 2646 H 241.202 -2.50737 2.94394 0
M  V30 2647 H 242.891 -2.33021 3.32349 0
M  V30 2648 H 243.657 -0.360918 4.83655 0
M  V30 2649 H 239.536 -1.49159 4.36202 0
M  V30 2650 H 243.08 0.8179 6.92789 0
M  V30 2651 H 238.977 -0.319294 6.4471 0
M  V30 2652 H 239.745 0.886454 8.13686 0
M  V30 2653 N 242.408 -1.52605 -0.393616 0
M  V30 2654 C 243.656 -1.67093 -1.13685 0
M  V30 2655 C 243.977 -0.411011 -1.90619 0
M  V30 2656 O 243.247 0.574491 -1.87287 0
M  V30 2657 H 241.827 -0.615923 -0.422668 0
M  V30 2658 H 244.489 -1.89704 -0.447039 0
M  V30 2659 H 243.585 -2.51922 -1.84232 0
M  V30 2660 N 243.887 0.651787 -1.4349 0
M  V30 2661 C 245.136 1.40754 -1.44469 0
M  V30 2662 C 245.449 1.95463 -0.0731845 0
M  V30 2663 O 246.655 2.71471 0.0395721 0
M  V30 2664 C 245.111 2.54735 -2.5424 0
M  V30 2665 C 244.719 2.06628 -3.97504 0
M  V30 2666 C 246.463 3.32092 -2.64414 0
M  V30 2667 C 244.37 3.17829 -4.98737 0
M  V30 2668 H 243.3 0.528862 -0.53742 0
M  V30 2669 H 245.951 0.703365 -1.69485 0
M  V30 2670 H 244.333 3.2763 -2.22428 0
M  V30 2671 H 245.507 1.40734 -4.38783 0
M  V30 2672 H 243.822 1.42146 -3.91387 0
M  V30 2673 H 246.419 4.14952 -3.37223 0
M  V30 2674 H 246.762 3.80217 -1.69532 0
M  V30 2675 H 247.295 2.66279 -2.95534 0
M  V30 2676 H 244.034 2.74671 -5.95177 0
M  V30 2677 H 243.554 3.82429 -4.62069 0
M  V30 2678 H 245.233 3.82937 -5.21505 0
M  V30 2679 N 245.365 1.30045 0.890287 0
M  V30 2680 C 246.593 1.21472 1.67487 0
M  V30 2681 C 247.008 -0.223241 1.87476 0
M  V30 2682 O 246.365 -1.14828 1.41847 0
M  V30 2683 C 246.416 1.93394 3.05419 0
M  V30 2684 O 246.137 3.31576 2.86337 0
M  V30 2685 C 247.638 1.91414 3.99844 0
M  V30 2686 H 244.858 0.420604 0.522813 0
M  V30 2687 H 247.402 1.7158 1.11268 0
M  V30 2688 H 245.557 1.47099 3.58386 0
M  V30 2689 H 245.971 3.67929 3.73802 0
M  V30 2690 H 247.445 2.46285 4.94012 0
M  V30 2691 H 247.922 0.891833 4.3005 0
M  V30 2692 H 248.528 2.37496 3.52811 0
M  V30 2693 N 246.843 -1.10192 1.12674 0
M  V30 2694 C 248.071 -1.85983 0.906527 0
M  V30 2695 C 248.486 -1.80783 -0.544333 0
M  V30 2696 O 247.843 -1.19834 -1.37645 0
M  V30 2697 C 247.894 -3.34281 1.37618 0
M  V30 2698 O 247.615 -3.39401 2.77017 0
M  V30 2699 C 249.116 -4.26938 1.19325 0
M  V30 2700 H 246.336 -0.587716 0.323775 0
M  V30 2701 H 248.88 -1.39284 1.49734 0
M  V30 2702 H 247.035 -3.78436 0.828539 0
M  V30 2703 H 247.449 -4.31838 2.97684 0
M  V30 2704 H 248.923 -5.29181 1.57071 0
M  V30 2705 H 249.4 -4.38995 0.134097 0
M  V30 2706 H 250.006 -3.8859 1.72852 0
M  V30 2707 N 248.321 -0.919034 -1.28029 0
M  V30 2708 C 249.569 -0.553838 -1.94363 0
M  V30 2709 C 249.89 0.906357 -1.72656 0
M  V30 2710 O 249.16 1.64143 -1.0693 0
M  V30 2711 H 247.74 -0.201834 -0.719216 0
M  V30 2712 H 250.402 -1.16954 -1.55909 0
M  V30 2713 H 249.498 -0.752758 -3.02886 0
M  V30 2714 N 249.799 1.42003 -0.683588 0
M  V30 2715 C 251.046 2.01413 -0.209514 0
M  V30 2716 C 251.374 1.54088 1.1869 0
M  V30 2717 O 250.629 0.737591 1.81268 0
M  V30 2718 C 250.928 3.56827 -0.202357 0
M  V30 2719 C 250.594 4.23617 -1.54464 0
M  V30 2720 C 249.256 4.41577 -1.91215 0
M  V30 2721 C 251.608 4.61178 -2.42826 0
M  V30 2722 C 248.936 4.9437 -3.15935 0
M  V30 2723 C 251.288 5.15355 -3.66867 0
M  V30 2724 C 249.952 5.31528 -4.03776 0
M  V30 2725 H 249.222 0.737023 -0.0766668 0
M  V30 2726 H 251.869 1.70067 -0.880312 0
M  V30 2727 H 250.174 3.87892 0.551969 0
M  V30 2728 H 251.871 4.00588 0.181793 0
M  V30 2729 H 248.461 4.10004 -1.24877 0
M  V30 2730 H 252.645 4.46968 -2.15717 0
M  V30 2731 H 247.901 5.05076 -3.44541 0
M  V30 2732 H 252.075 5.43402 -4.35531 0
M  V30 2733 H 249.702 5.72199 -5.00492 0
M  V30 2734 N 251.277 0.427512 1.51691 0
M  V30 2735 C 252.525 -0.141948 2.01601 0
M  V30 2736 C 252.846 -1.44067 1.31414 0
M  V30 2737 O 252.116 -1.90763 0.445658 0
M  V30 2738 H 250.696 -0.0554468 0.744939 0
M  V30 2739 H 253.358 0.567968 1.86441 0
M  V30 2740 H 252.454 -0.324913 3.10404 0
M  V30 2741 N 252.755 -1.56801 0.158532 0
M  V30 2742 C 253.702 -2.17337 -0.776729 0
M  V30 2743 C 254.672 -1.1096 -1.23601 0
M  V30 2744 O 255.857 -1.39054 -1.30647 0
M  V30 2745 C 252.997 -2.80822 -2.00582 0
M  V30 2746 C 252.11 -4.01624 -1.59129 0
M  V30 2747 C 251.245 -4.53072 -2.77306 0
M  V30 2748 C 250.284 -5.66314 -2.32282 0
M  V30 2749 N 249.421 -6.12329 -3.43508 0
M  V30 2750 H 254.261 -2.96918 -0.253701 0
M  V30 2751 H 251.798 -1.46661 -0.113504 0
M  V30 2752 H 253.756 -3.15779 -2.72652 0
M  V30 2753 H 252.386 -2.03866 -2.50277 0
M  V30 2754 H 251.438 -3.72571 -0.767806 0
M  V30 2755 H 252.75 -4.83633 -1.2207 0
M  V30 2756 H 251.904 -4.90145 -3.57551 0
M  V30 2757 H 250.643 -3.70095 -3.17617 0
M  V30 2758 H 249.648 -5.28806 -1.5048 0
M  V30 2759 H 250.873 -6.51085 -1.93043 0
M  V30 2760 H 248.819 -5.32284 -3.83418 0
M  V30 2761 H 248.736 -6.89293 -3.105 0
M  V30 2762 H 250.004 -6.5405 -4.24075 0
M  V30 2763 N 254.233 0.115231 -1.57178 0
M  V30 2764 C 255.48 0.822351 -1.8505 0
M  V30 2765 C 255.808 1.79701 -0.744168 0
M  V30 2766 O 255.063 1.93909 0.26414 0
M  V30 2767 C 255.362 1.60324 -3.19423 0
M  V30 2768 C 255.028 0.772536 -4.44233 0
M  V30 2769 C 253.69 0.543468 -4.78121 0
M  V30 2770 C 256.042 0.193746 -5.2084 0
M  V30 2771 C 253.37 -0.274583 -5.86057 0
M  V30 2772 C 255.722 -0.611517 -6.29637 0
M  V30 2773 C 254.386 -0.850867 -6.62055 0
M  V30 2774 H 253.656 0.30092 -0.677147 0
M  V30 2775 H 256.303 0.0845802 -1.91313 0
M  V30 2776 H 254.608 2.41203 -3.08753 0
M  V30 2777 H 256.305 2.1544 -3.38211 0
M  V30 2778 H 252.895 0.96117 -4.17683 0
M  V30 2779 H 257.079 0.357926 -4.95008 0
M  V30 2780 H 252.335 -0.469206 -6.09597 0
M  V30 2781 H 256.509 -1.06697 -6.88178 0
M  V30 2782 H 254.136 -1.48657 -7.45523 0
M  V30 2783 N 255.711 1.52812 0.385517 0
M  V30 2784 C 256.674 1.77188 1.45386 0
M  V30 2785 C 257.674 0.641953 1.4743 0
M  V30 2786 O 258.864 0.910033 1.4854 0
M  V30 2787 C 255.996 1.87582 2.8465 0
M  V30 2788 H 257.189 2.72583 1.25054 0
M  V30 2789 H 254.742 1.43586 0.617467 0
M  V30 2790 H 255.477 0.941849 3.10322 0
M  V30 2791 H 255.262 2.69748 2.84567 0
M  V30 2792 H 256.752 2.08102 3.62054 0
M  V30 2793 N 257.189 -0.644168 1.43834 0
M  V30 2794 C 258.605 -0.960875 1.27434 0
M  V30 2795 C 258.805 -2.00499 0.200618 0
M  V30 2796 O 257.861 -2.49018 -0.417906 0
M  V30 2797 C 259.174 -1.43653 2.64167 0
M  V30 2798 C 260.722 -1.55271 2.71772 0
M  V30 2799 C 261.197 -2.06224 4.08944 0
M  V30 2800 N 262.688 -2.13513 4.11055 0
M  V30 2801 C 263.423 -2.54081 5.14033 0
M  V30 2802 N 262.919 -2.9388 6.27381 0
M  V30 2803 N 264.712 -2.54101 5.01387 0
M  V30 2804 H 256.863 0.0465779 2.12349 0
M  V30 2805 H 259.126 -0.0417638 0.94708 0
M  V30 2806 H 258.832 -0.743706 3.43747 0
M  V30 2807 H 258.706 -2.40993 2.90176 0
M  V30 2808 H 261.093 -2.23653 1.92519 0
M  V30 2809 H 261.174 -0.563395 2.49519 0
M  V30 2810 H 260.818 -1.38441 4.88668 0
M  V30 2811 H 260.748 -3.06003 4.28567 0
M  V30 2812 H 263.239 -1.85493 3.29242 0
M  V30 2813 H 263.552 -3.2361 7.01781 0
M  V30 2814 H 261.897 -2.91663 6.30839 0
M  V30 2815 H 265.088 -2.22391 4.11898 0
M  V30 2816 H 265.261 -2.85394 5.81768 0
M  V30 2817 N 258.668 -1.30515 -0.883378 0
M  V30 2818 C 259.896 -1.22359 -1.66841 0
M  V30 2819 C 260.311 0.213296 -1.87591 0
M  V30 2820 O 259.668 1.14075 -1.42454 0
M  V30 2821 C 259.719 -1.95011 -3.04389 0
M  V30 2822 O 259.44 -3.3309 -2.84575 0
M  V30 2823 C 260.941 -1.93532 -3.98824 0
M  V30 2824 H 258.161 -0.423371 -0.520575 0
M  V30 2825 H 260.705 -1.72167 -1.10357 0
M  V30 2826 H 258.86 -1.48997 -3.57601 0
M  V30 2827 H 259.274 -3.69907 -3.71846 0
M  V30 2828 H 260.748 -2.48902 -4.92699 0
M  V30 2829 H 261.225 -0.914627 -4.29571 0
M  V30 2830 H 261.831 -2.39364 -3.51547 0
M  V30 2831 N 260.146 1.09593 -1.13257 0
M  V30 2832 C 261.392 1.82003 -0.89458 0
M  V30 2833 C 261.725 1.85402 0.577906 0
M  V30 2834 O 261 1.32099 1.42759 0
M  V30 2835 C 261.283 3.28237 -1.48096 0
M  V30 2836 C 261.136 3.3312 -3.02244 0
M  V30 2837 C 262.455 4.24871 -1.14774 0
M  V30 2838 H 259.574 0.66077 -0.326424 0
M  V30 2839 H 262.216 1.28389 -1.40058 0
M  V30 2840 H 260.366 3.74024 -1.05062 0
M  V30 2841 H 262.038 2.95748 -3.54021 0
M  V30 2842 H 260.281 2.72756 -3.37323 0
M  V30 2843 H 260.952 4.3613 -3.38371 0
M  V30 2844 H 263.428 3.87361 -1.51957 0
M  V30 2845 H 262.304 5.25532 -1.58452 0
M  V30 2846 H 262.565 4.42058 -0.0611849 0
M  V30 2847 N 261.624 0.925811 1.2754 0
M  V30 2848 C 262.873 0.561084 1.93739 0
M  V30 2849 C 263.186 -0.901685 1.73577 0
M  V30 2850 O 264.392 -1.37511 2.34101 0
M  V30 2851 C 262.848 0.952668 3.47062 0
M  V30 2852 C 262.456 2.43599 3.75983 0
M  V30 2853 C 264.2 0.659103 4.19352 0
M  V30 2854 C 262.107 2.76707 5.22673 0
M  V30 2855 H 261.037 0.206122 0.725279 0
M  V30 2856 H 263.688 1.12637 1.44863 0
M  V30 2857 H 262.07 0.316053 3.94737 0
M  V30 2858 H 263.244 3.12035 3.39073 0
M  V30 2859 H 261.559 2.70125 3.16893 0
M  V30 2860 H 264.156 0.882985 5.27359 0
M  V30 2861 H 264.499 -0.403607 4.14339 0
M  V30 2862 H 265.032 1.25473 3.77494 0
M  V30 2863 H 261.771 3.8188 5.32774 0
M  V30 2864 H 261.291 2.12919 5.60737 0
M  V30 2865 H 262.97 2.6435 5.90532 0
M  V30 2866 N 263.102 -1.41638 0.69111 0
M  V30 2867 C 264.513 -1.84346 0.295517 0
M  V30 2868 C 264.864 -1.57833 -1.16547 0
M  V30 2869 O 263.989 -1.04648 -1.89414 0
M  V30 2870 C 264.584 -3.34636 0.529575 0
M  V30 2871 C 263.143 -3.7593 0.187944 0
M  V30 2872 C 262.29 -2.65082 0.814052 0
M  V30 2873 H 265.241 -1.31253 0.892092 0
M  V30 2874 H 265.262 -3.79903 -0.213148 0
M  V30 2875 H 264.774 -3.53901 1.59297 0
M  V30 2876 H 262.875 -3.62268 -0.871367 0
M  V30 2877 H 262.988 -4.74808 0.63985 0
M  V30 2878 H 261.352 -2.53528 0.244017 0
M  V30 2879 H 262.135 -2.87167 1.88123 0
M  V30 2880 N 264.58 -0.43555 -1.51462 0
M  V30 2881 C 265.829 0.133007 -2.01261 0
M  V30 2882 C 266.142 1.43942 -1.32439 0
M  V30 2883 O 267.348 2.09081 -1.73198 0
M  V30 2884 C 265.804 0.287581 -3.58749 0
M  V30 2885 C 265.412 -1.00829 -4.36506 0
M  V30 2886 C 267.156 0.810004 -4.167 0
M  V30 2887 C 265.063 -0.819454 -5.85695 0
M  V30 2888 H 263.993 0.0534822 -0.752101 0
M  V30 2889 H 266.644 -0.565038 -1.74584 0
M  V30 2890 H 265.026 1.04859 -3.81865 0
M  V30 2891 H 266.2 -1.77749 -4.25138 0
M  V30 2892 H 264.515 -1.45911 -3.89999 0
M  V30 2893 H 267.112 0.967743 -5.2587 0
M  V30 2894 H 267.455 1.79196 -3.75758 0
M  V30 2895 H 267.988 0.107357 -3.97655 0
M  V30 2896 H 264.727 -1.77374 -6.31046 0
M  V30 2897 H 264.247 -0.0900208 -5.99732 0
M  V30 2898 H 265.926 -0.471949 -6.45276 0
M  V30 2899 N 266.058 1.56714 -0.166846 0
M  V30 2900 C 267.006 2.19056 0.782123 0
M  V30 2901 C 268 1.15328 1.24079 0
M  V30 2902 O 269.206 1.33537 1.20697 0
M  V30 2903 H 265.581 0.70167 0.270486 0
M  V30 2904 H 267.552 2.97494 0.232322 0
M  V30 2905 C 266.301 2.84206 2.00306 0
M  V30 2906 H 265.624 3.63748 1.65914 0
M  V30 2907 H 267.064 3.31302 2.64604 0
M  V30 2908 C 265.523 1.83744 2.82382 0
M  V30 2909 O 266.053 1.32014 3.79388 0
M  V30 2910 N 264.259 1.52601 2.47308 0
M  V30 2911 H 263.806 1.9486 1.68485 0
M  V30 2912 H 263.764 0.856351 3.02513 0
M  V30 2913 N 267.536 -0.106894 1.57237 0
M  V30 2914 C 268.483 -1.13049 2.01217 0
M  V30 2915 C 269.453 -1.40471 0.886403 0
M  V30 2916 O 270.638 -1.52133 1.15153 0
M  V30 2917 C 267.778 -2.4487 2.43172 0
M  V30 2918 C 266.891 -2.24281 3.69218 0
M  V30 2919 C 266.026 -3.49417 4.00101 0
M  V30 2920 C 265.065 -3.24038 5.19294 0
M  V30 2921 N 264.202 -4.41409 5.45988 0
M  V30 2922 H 269.042 -0.748456 2.88448 0
M  V30 2923 H 266.579 -0.358054 1.42676 0
M  V30 2924 H 268.537 -3.21786 2.65537 0
M  V30 2925 H 267.167 -2.80944 1.58967 0
M  V30 2926 H 266.219 -1.38224 3.54398 0
M  V30 2927 H 267.531 -2.01512 4.56283 0
M  V30 2928 H 266.685 -4.34746 4.2318 0
M  V30 2929 H 265.424 -3.75229 3.11535 0
M  V30 2930 H 264.429 -2.37102 4.96047 0
M  V30 2931 H 265.654 -2.99584 6.09447 0
M  V30 2932 H 263.6 -4.67319 4.60379 0
M  V30 2933 H 263.517 -4.21788 6.274 0
M  V30 2934 H 264.785 -5.27836 5.73593 0
M  V30 2935 N 269.014 -1.53014 -0.377408 0
M  V30 2936 C 269.944 -1.81589 -1.46791 0
M  V30 2937 C 270.925 -0.668622 -1.56408 0
M  V30 2938 O 272.11 -0.917337 -1.71168 0
M  V30 2939 C 269.24 -1.99519 -2.8427 0
M  V30 2940 C 268.194 -3.15249 -2.89486 0
M  V30 2941 C 267.52 -3.18451 -4.29527 0
M  V30 2942 C 268.82 -4.54084 -2.58079 0
M  V30 2943 H 270.514 -2.7291 -1.23127 0
M  V30 2944 H 268.06 -1.31319 -0.590883 0
M  V30 2945 H 270.013 -2.18092 -3.60575 0
M  V30 2946 H 268.737 -1.04897 -3.09296 0
M  V30 2947 H 267.396 -2.96477 -2.15631 0
M  V30 2948 H 267.044 -2.2149 -4.5161 0
M  V30 2949 H 266.744 -3.962 -4.33934 0
M  V30 2950 H 268.268 -3.39193 -5.07721 0
M  V30 2951 H 269.682 -4.72899 -3.24098 0
M  V30 2952 H 268.079 -5.33987 -2.7382 0
M  V30 2953 H 269.149 -4.60006 -1.53372 0
M  V30 2954 N 270.492 0.636531 -1.44174 0
M  V30 2955 C 271.424 1.7618 -1.46606 0
M  V30 2956 C 272.437 1.58768 -0.360091 0
M  V30 2957 O 273.626 1.67181 -0.625518 0
M  V30 2958 C 270.726 3.13833 -1.27915 0
M  V30 2959 C 269.899 3.57753 -2.51658 0
M  V30 2960 C 268.958 4.74265 -2.27945 0
M  V30 2961 O 267.984 4.82852 -3.01401 0
M  V30 2962 N 269.186 5.65604 -1.30662 0
M  V30 2963 H 271.951 1.74567 -2.43612 0
M  V30 2964 H 269.512 0.820924 -1.39544 0
M  V30 2965 H 271.504 3.8949 -1.09907 0
M  V30 2966 H 270.074 3.10121 -0.39293 0
M  V30 2967 H 269.294 2.72362 -2.84978 0
M  V30 2968 H 270.582 3.83847 -3.33974 0
M  V30 2969 H 269.98 5.61354 -0.699844 0
M  V30 2970 H 268.537 6.40913 -1.18634 0
M  V30 2971 N 271.97 1.30982 0.876444 0
M  V30 2972 C 272.88 1.2003 2.01569 0
M  V30 2973 C 273.896 0.11838 1.73597 0
M  V30 2974 O 275.072 0.33495 1.98595 0
M  V30 2975 C 272.137 0.901637 3.34771 0
M  V30 2976 C 271.198 2.06979 3.76109 0
M  V30 2977 C 270.431 1.78529 5.02954 0
M  V30 2978 O 270.654 0.717296 5.65872 0
M  V30 2979 O 269.588 2.64019 5.40905 0
M  V30 2980 H 273.414 2.15753 2.13739 0
M  V30 2981 H 270.999 1.10658 1.00375 0
M  V30 2982 H 272.881 0.750645 4.1466 0
M  V30 2983 H 271.556 -0.0256141 3.2369 0
M  V30 2984 H 270.463 2.27616 2.96887 0
M  V30 2985 H 271.796 2.97907 3.91807 0
M  V30 2986 N 273.449 -1.08991 1.13837 0
M  V30 2987 C 274.379 -2.17771 0.842507 0
M  V30 2988 C 275.36 -1.6892 -0.20001 0
M  V30 2989 O 276.545 -1.94113 -0.0579731 0
M  V30 2990 C 273.675 -3.4589 0.312644 0
M  V30 2991 C 272.629 -4.08099 1.28992 0
M  V30 2992 C 271.955 -5.31098 0.619623 0
M  V30 2993 C 273.255 -4.50077 2.65005 0
M  V30 2994 H 274.949 -2.42777 1.75213 0
M  V30 2995 H 272.495 -1.16682 0.843875 0
M  V30 2996 H 274.448 -4.21297 0.0933043 0
M  V30 2997 H 273.172 -3.20419 -0.632382 0
M  V30 2998 H 271.831 -3.34717 1.49533 0
M  V30 2999 H 271.479 -5.0191 -0.33102 0
M  V30 3000 H 271.179 -5.73674 1.27167 0
M  V30 3001 H 272.703 -6.09224 0.409669 0
M  V30 3002 H 274.117 -5.16688 2.48407 0
M  V30 3003 H 272.514 -5.03553 3.26427 0
M  V30 3004 H 273.584 -3.62257 3.22332 0
M  V30 3005 N 274.927 -0.932562 -1.27047 0
M  V30 3006 C 275.859 -0.392734 -2.2581 0
M  V30 3007 C 276.872 0.479241 -1.55586 0
M  V30 3008 O 278.061 0.291078 -1.76111 0
M  V30 3009 C 275.161 0.455456 -3.35826 0
M  V30 3010 C 274.334 -0.398355 -4.35582 0
M  V30 3011 C 273.393 0.387985 -5.24768 0
M  V30 3012 O 272.419 -0.206003 -5.68827 0
M  V30 3013 N 273.621 1.68664 -5.55457 0
M  V30 3014 H 276.386 -1.24173 -2.72766 0
M  V30 3015 H 273.947 -0.800511 -1.40725 0
M  V30 3016 H 275.939 0.988692 -3.92437 0
M  V30 3017 H 274.509 1.20522 -2.88432 0
M  V30 3018 H 273.729 -1.11286 -3.78165 0
M  V30 3019 H 275.017 -0.981889 -4.99236 0
M  V30 3020 H 274.415 2.19147 -5.21528 0
M  V30 3021 H 272.972 2.1663 -6.14748 0
M  V30 3022 N 276.405 1.4127 -0.698611 0
M  V30 3023 C 277.651 2.01478 -0.231207 0
M  V30 3024 C 277.984 1.55215 1.16713 0
M  V30 3025 O 277.259 0.764672 1.78838 0
M  V30 3026 C 277.542 3.58912 -0.292281 0
M  V30 3027 C 277.395 4.15293 -1.72778 0
M  V30 3028 C 278.714 4.38736 0.346194 0
M  V30 3029 H 275.833 0.732025 -0.0854878 0
M  V30 3030 H 278.475 1.67977 -0.887906 0
M  V30 3031 H 276.625 3.87582 0.26686 0
M  V30 3032 H 278.297 3.97486 -2.341 0
M  V30 3033 H 276.54 3.7022 -2.26096 0
M  V30 3034 H 277.211 5.24452 -1.72202 0
M  V30 3035 H 279.687 4.15897 -0.130035 0
M  V30 3036 H 278.563 5.48221 0.272932 0
M  V30 3037 H 278.824 4.18425 1.42734 0
M  V30 3038 N 277.883 0.443576 1.51229 0
M  V30 3039 C 278.831 -0.37904 2.29491 0
M  V30 3040 C 279.825 -1.0153 1.35603 0
M  V30 3041 O 281.031 -0.94955 1.52917 0
M  V30 3042 H 277.406 -0.141053 0.738653 0
M  V30 3043 H 279.377 0.301799 2.9687 0
M  V30 3044 C 278.126 -1.46426 3.15364 0
M  V30 3045 H 277.449 -0.984037 3.87501 0
M  V30 3046 H 278.889 -2.01297 3.7317 0
M  V30 3047 C 277.348 -2.45099 2.31146 0
M  V30 3048 O 277.878 -3.49773 1.9754 0
M  V30 3049 N 276.084 -2.16139 1.94249 0
M  V30 3050 H 275.631 -1.31044 2.21777 0
M  V30 3051 H 275.589 -2.82398 1.38198 0
M  V30 3052 N 279.361 -1.56624 0.175154 0
M  V30 3053 C 280.291 -2.21155 -0.749195 0
M  V30 3054 C 281.272 -1.16836 -1.23626 0
M  V30 3055 O 282.457 -1.45277 -1.28873 0
M  V30 3056 C 279.587 -2.8553 -1.97711 0
M  V30 3057 C 278.541 -3.95921 -1.62575 0
M  V30 3058 C 277.867 -4.47365 -2.92864 0
M  V30 3059 C 279.167 -5.15323 -0.850838 0
M  V30 3060 H 280.861 -2.98653 -0.211295 0
M  V30 3061 H 278.407 -1.43651 -0.100188 0
M  V30 3062 H 280.36 -3.2935 -2.62881 0
M  V30 3063 H 279.084 -2.05406 -2.53921 0
M  V30 3064 H 277.743 -3.52762 -0.997719 0
M  V30 3065 H 277.391 -3.64027 -3.47122 0
M  V30 3066 H 277.091 -5.21839 -2.70106 0
M  V30 3067 H 278.615 -4.93873 -3.59056 0
M  V30 3068 H 280.029 -5.55812 -1.40521 0
M  V30 3069 H 278.426 -5.95739 -0.722154 0
M  V30 3070 H 279.496 -4.84661 0.152082 0
M  V30 3071 N 280.839 0.0985539 -1.57292 0
M  V30 3072 C 282.085 0.803867 -1.86188 0
M  V30 3073 C 282.418 1.78549 -0.763794 0
M  V30 3074 O 281.693 1.93153 0.22855 0
M  V30 3075 C 281.976 1.53568 -3.25713 0
M  V30 3076 C 281.829 0.572277 -4.46145 0
M  V30 3077 C 283.148 2.48708 -3.63087 0
M  V30 3078 H 280.267 0.290781 -0.677211 0
M  V30 3079 H 282.909 0.0675783 -1.8988 0
M  V30 3080 H 281.059 2.16332 -3.22696 0
M  V30 3081 H 282.731 -0.0480894 -4.61275 0
M  V30 3082 H 280.974 -0.114618 -4.33649 0
M  V30 3083 H 281.645 1.12139 -5.40489 0
M  V30 3084 H 284.121 1.96039 -3.67026 0
M  V30 3085 H 282.997 2.96932 -4.61652 0
M  V30 3086 H 283.258 3.32309 -2.91588 0
M  V30 3087 N 282.317 1.53212 0.369288 0
M  V30 3088 C 283.733 1.42902 0.710712 0
M  V30 3089 C 283.933 0.565135 1.93413 0
M  V30 3090 O 282.989 0.0461484 2.52458 0
M  V30 3091 C 284.302 2.86042 0.927382 0
M  V30 3092 C 285.85 2.9565 1.02762 0
M  V30 3093 C 286.325 4.39843 1.27679 0
M  V30 3094 N 287.816 4.43256 1.34457 0
M  V30 3095 C 288.551 5.51929 1.55439 0
M  V30 3096 N 288.047 6.70655 1.73762 0
M  V30 3097 N 289.84 5.39502 1.57779 0
M  V30 3098 H 281.991 2.07888 -0.435457 0
M  V30 3099 H 284.254 0.938661 -0.132739 0
M  V30 3100 H 283.96 3.51557 0.100287 0
M  V30 3101 H 283.834 3.29472 1.83653 0
M  V30 3102 H 286.221 2.30291 1.84527 0
M  V30 3103 H 286.302 2.5562 0.0959504 0
M  V30 3104 H 285.946 5.05774 0.464175 0
M  V30 3105 H 285.876 4.77443 2.22162 0
M  V30 3106 H 288.367 3.5769 1.21926 0
M  V30 3107 H 288.68 7.49248 1.89335 0
M  V30 3108 H 287.025 6.73648 1.70948 0
M  V30 3109 H 290.216 4.45713 1.43029 0
M  V30 3110 H 290.389 6.2426 1.7379 0
M  V30 3111 N 283.795 -0.628877 1.44509 0
M  V30 3112 C 285.02 -1.42048 1.5112 0
M  V30 3113 C 285.445 -1.87594 0.137818 0
M  V30 3114 O 284.803 -1.58873 -0.873437 0
M  V30 3115 C 284.851 -2.61541 2.48251 0
M  V30 3116 O 283.955 -3.61453 1.98559 0
M  V30 3117 H 283.296 -0.424942 0.510216 0
M  V30 3118 H 285.826 -0.767374 1.89664 0
M  V30 3119 H 285.836 -3.09057 2.66361 0
M  V30 3120 H 284.511 -2.27736 3.48007 0
M  V30 3121 H 283.088 -3.20731 1.90227 0
M  V30 3122 N 285.273 -1.31445 -0.869486 0
M  V30 3123 C 286.223 -1.15731 -1.96444 0
M  V30 3124 C 287.207 -0.0681855 -1.60755 0
M  V30 3125 O 288.399 -0.293154 -1.74555 0
M  V30 3126 C 285.528 -0.867255 -3.32165 0
M  V30 3127 C 284.614 -1.99738 -3.74119 0
M  V30 3128 N 285.005 -3.24447 -3.88031 0
M  V30 3129 C 283.303 -1.89723 -4.03635 0
M  V30 3130 C 284.004 -3.98374 -4.23879 0
M  V30 3131 N 282.98 -3.26547 -4.3459 0
M  V30 3132 H 286.782 -2.10296 -2.05312 0
M  V30 3133 H 284.296 -1.23009 -1.06031 0
M  V30 3134 H 286.293 -0.735668 -4.10358 0
M  V30 3135 H 284.953 0.0701614 -3.24624 0
M  V30 3136 H 285.964 -3.59557 -3.72746 0
M  V30 3137 H 282.641 -1.03449 -4.04481 0
M  V30 3138 H 284.031 -5.05844 -4.42235 0
M  V30 3139 N 286.751 1.08385 -1.14413 0
M  V30 3140 C 287.976 1.85057 -0.936413 0
M  V30 3141 C 288.401 1.81055 0.509971 0
M  V30 3142 O 287.759 1.1958 1.36273 0
M  V30 3143 C 287.807 3.30505 -1.44217 0
M  V30 3144 O 286.911 4.07491 -0.634409 0
M  V30 3145 H 286.252 0.573425 -0.334784 0
M  V30 3146 H 288.782 1.36799 -1.52142 0
M  V30 3147 H 288.792 3.81348 -1.45043 0
M  V30 3148 H 287.467 3.32734 -2.49522 0
M  V30 3149 H 286.044 3.66368 -0.694902 0
M  V30 3150 N 288.23 0.939286 1.26551 0
M  V30 3151 C 289.455 0.602008 1.98471 0
M  V30 3152 C 289.88 -0.815624 1.69497 0
M  V30 3153 O 289.238 -1.54912 0.941905 0
M  V30 3154 C 289.286 0.848407 3.50477 0
M  V30 3155 O 288.39 -0.0804009 4.12322 0
M  V30 3156 H 287.731 0.23049 0.622712 0
M  V30 3157 H 290.261 1.2617 1.61066 0
M  V30 3158 H 290.271 0.768553 4.00696 0
M  V30 3159 H 288.946 1.88171 3.70897 0
M  V30 3160 H 287.523 0.0503508 3.72866 0
M  V30 3161 N 289.708 -1.40897 0.706093 0
M  V30 3162 C 290.956 -2.00657 0.241054 0
M  V30 3163 C 291.277 -1.56241 -1.16678 0
M  V30 3164 O 290.547 -0.79765 -1.78926 0
M  V30 3165 H 289.127 -0.742018 0.0861308 0
M  V30 3166 H 291.789 -1.72372 0.909604 0
M  V30 3167 H 290.885 -3.10958 0.266705 0
M  V30 3168 N 291.186 -0.45159 -1.50991 0
M  V30 3169 C 292.432 0.110237 -2.025 0
M  V30 3170 C 292.765 1.41109 -1.33424 0
M  V30 3171 O 292.04 1.89135 -0.453659 0
M  V30 3172 C 292.323 0.314271 -3.58726 0
M  V30 3173 C 292.176 -1.00623 -4.38401 0
M  V30 3174 C 293.495 1.07767 -4.26702 0
M  V30 3175 H 290.614 0.0385897 -0.735989 0
M  V30 3176 H 293.256 -0.593374 -1.80497 0
M  V30 3177 H 291.406 0.913601 -3.77605 0
M  V30 3178 H 293.078 -1.64064 -4.31139 0
M  V30 3179 H 291.321 -1.6075 -4.02917 0
M  V30 3180 H 291.992 -0.817341 -5.45915 0
M  V30 3181 H 294.468 0.56986 -4.12179 0
M  V30 3182 H 293.344 1.18921 -5.35863 0
M  V30 3183 H 293.605 2.10939 -3.88532 0
M  V30 3184 N 292.664 1.56529 -0.183458 0
M  V30 3185 C 293.912 1.96855 0.457452 0
M  V30 3186 C 294.233 1.07104 1.62953 0
M  V30 3187 O 293.503 0.139887 1.954 0
M  V30 3188 H 292.083 0.72693 0.171992 0
M  V30 3189 H 294.745 1.93056 -0.267476 0
M  V30 3190 H 293.841 3.01423 0.809368 0
M  V30 3191 N 294.142 -0.090211 1.57342 0
M  V30 3192 C 295.089 -1.10909 2.02405 0
M  V30 3193 C 296.059 -1.39523 0.901252 0
M  V30 3194 O 297.244 -1.50903 1.1676 0
M  V30 3195 C 294.384 -2.42277 2.45755 0
M  V30 3196 C 293.497 -2.20352 3.71576 0
M  V30 3197 C 292.632 -3.45154 4.03785 0
M  V30 3198 C 291.671 -3.18512 5.22701 0
M  V30 3199 N 290.808 -4.35593 5.50639 0
M  V30 3200 H 295.648 -0.71782 2.89225 0
M  V30 3201 H 293.185 -0.342901 1.43048 0
M  V30 3202 H 295.143 -3.18951 2.68935 0
M  V30 3203 H 293.773 -2.79242 1.61938 0
M  V30 3204 H 292.825 -1.34458 3.55844 0
M  V30 3205 H 294.137 -1.96661 4.58395 0
M  V30 3206 H 293.291 -4.30233 4.27767 0
M  V30 3207 H 292.03 -3.71904 3.15498 0
M  V30 3208 H 291.035 -2.31827 4.98534 0
M  V30 3209 H 292.26 -2.93103 6.12591 0
M  V30 3210 H 290.206 -4.6241 4.6531 0
M  V30 3211 H 290.123 -4.1511 6.31838 0
M  V30 3212 H 291.391 -5.21723 5.7916 0
M  V30 3213 N 295.62 -1.53406 -0.361157 0
M  V30 3214 C 297.031 -1.61442 -0.937728 0
M  V30 3215 C 297.382 -0.48461 -1.90121 0
M  V30 3216 O 296.507 0.388312 -2.12888 0
M  V30 3217 C 297.102 -2.92624 -1.70753 0
M  V30 3218 C 295.661 -3.02981 -2.23337 0
M  V30 3219 C 294.808 -2.5677 -1.04712 0
M  V30 3220 H 297.759 -1.58083 -0.139816 0
M  V30 3221 H 297.78 -2.80675 -2.56908 0
M  V30 3222 H 297.292 -3.74834 -1.00604 0
M  V30 3223 H 295.393 -2.25368 -2.96715 0
M  V30 3224 H 295.506 -4.0814 -2.50916 0
M  V30 3225 H 293.87 -2.11752 -1.41539 0
M  V30 3226 H 294.653 -3.41402 -0.360539 0
M  V30 3227 N 297.098 0.621204 -1.44841 0
M  V30 3228 C 298.028 1.74366 -1.55303 0
M  V30 3229 C 299.009 1.65199 -0.405385 0
M  V30 3230 O 300.194 1.83807 -0.626787 0
M  V30 3231 C 297.324 3.12931 -1.50637 0
M  V30 3232 C 296.278 3.36896 -2.63979 0
M  V30 3233 C 295.604 4.75594 -2.44366 0
M  V30 3234 C 296.904 3.28483 -4.06074 0
M  V30 3235 H 298.598 1.65867 -2.49256 0
M  V30 3236 H 296.144 0.796558 -1.19962 0
M  V30 3237 H 298.097 3.9124 -1.56555 0
M  V30 3238 H 296.821 3.22237 -0.532057 0
M  V30 3239 H 295.48 2.60972 -2.57467 0
M  V30 3240 H 295.128 4.81616 -1.45105 0
M  V30 3241 H 294.828 4.92586 -3.20364 0
M  V30 3242 H 296.352 5.5612 -2.52117 0
M  V30 3243 H 297.766 3.96684 -4.13902 0
M  V30 3244 H 296.163 3.57008 -4.82354 0
M  V30 3245 H 297.233 2.26133 -4.28943 0
M  V30 3246 N 298.576 1.31904 0.862503 0
M  V30 3247 C 299.801 1.25135 1.65397 0
M  V30 3248 C 300.226 -0.179 1.87246 0
M  V30 3249 O 299.584 -1.1277 1.4196 0
M  V30 3250 C 299.632 2.00832 2.99498 0
M  V30 3251 O 298.736 1.35075 3.89652 0
M  V30 3252 H 298.077 0.431655 0.504549 0
M  V30 3253 H 300.607 1.74094 1.07483 0
M  V30 3254 H 300.617 2.10709 3.49379 0
M  V30 3255 H 299.292 3.04847 2.82916 0
M  V30 3256 H 297.869 1.33696 3.48109 0
M  V30 3257 N 300.054 -1.07777 1.14986 0
M  V30 3258 C 301.465 -1.61766 0.932127 0
M  V30 3259 C 301.816 -1.88974 -0.527581 0
M  V30 3260 O 300.941 -1.65198 -1.39781 0
M  V30 3261 C 301.536 -2.93891 1.68563 0
M  V30 3262 C 300.095 -3.44639 1.5133 0
M  V30 3263 C 299.242 -2.18767 1.704 0
M  V30 3264 H 302.193 -0.909201 1.30074 0
M  V30 3265 H 302.214 -3.62623 1.15259 0
M  V30 3266 H 301.726 -2.74057 2.74799 0
M  V30 3267 H 299.827 -3.69564 0.474702 0
M  V30 3268 H 299.94 -4.20966 2.28746 0
M  V30 3269 H 298.304 -2.28253 1.13016 0
M  V30 3270 H 299.087 -2.01433 2.77992 0
M  V30 3271 N 301.532 -0.945985 -1.26051 0
M  V30 3272 C 302.442 -0.465633 -2.29933 0
M  V30 3273 C 303.458 0.462761 -1.67733 0
M  V30 3274 O 304.634 0.341118 -1.9849 0
M  V30 3275 C 301.699 0.256994 -3.45746 0
M  V30 3276 C 300.76 -0.708549 -4.23412 0
M  V30 3277 C 299.993 -0.0203135 -5.33696 0
M  V30 3278 O 300.216 1.19571 -5.57726 0
M  V30 3279 O 299.15 -0.701459 -5.97799 0
M  V30 3280 H 302.976 -1.32866 -2.73094 0
M  V30 3281 H 300.561 -0.712071 -1.31339 0
M  V30 3282 H 302.443 0.663852 -4.16138 0
M  V30 3283 H 301.118 1.09533 -3.04605 0
M  V30 3284 H 300.025 -1.16545 -3.55483 0
M  V30 3285 H 301.358 -1.51465 -4.68315 0
M  V30 3286 N 303.011 1.40521 -0.713556 0
M  V30 3287 C 304.427 1.54839 -0.386907 0
M  V30 3288 C 304.627 1.68532 1.1045 0
M  V30 3289 O 303.683 1.67377 1.89053 0
M  V30 3290 C 304.996 2.77792 -1.15118 0
M  V30 3291 C 306.544 2.91607 -1.13729 0
M  V30 3292 C 307.019 4.1747 -1.88368 0
M  V30 3293 N 308.51 4.24466 -1.85427 0
M  V30 3294 C 309.245 5.20755 -2.40004 0
M  V30 3295 N 308.741 6.22965 -3.03129 0
M  V30 3296 N 310.534 5.1282 -2.30158 0
M  V30 3297 H 302.685 1.29879 -1.68063 0
M  V30 3298 H 304.948 0.627896 -0.710247 0
M  V30 3299 H 304.654 2.73944 -2.20561 0
M  V30 3300 H 304.528 3.6984 -0.741477 0
M  V30 3301 H 306.915 2.94959 -0.0910608 0
M  V30 3302 H 306.996 2.00682 -1.5862 0
M  V30 3303 H 306.64 4.1488 -2.9298 0
M  V30 3304 H 306.57 5.074 -1.40898 0
M  V30 3305 H 309.061 3.51241 -1.3942 0
M  V30 3306 H 309.374 6.92859 -3.42295 0
M  V30 3307 H 307.719 6.23415 -3.07212 0
M  V30 3308 H 310.91 4.31899 -1.80501 0
M  V30 3309 H 311.083 5.87689 -2.72993 0
M  V30 3310 N 304.489 0.459591 1.5075 0
M  V30 3311 C 305.729 -0.09824 2.04164 0
M  V30 3312 C 306.093 -1.3801 1.33481 0
M  V30 3313 O 307.294 -2.01959 1.77387 0
M  V30 3314 C 305.565 -0.289467 3.56226 0
M  V30 3315 S 307.124 -0.807507 4.31306 0
M  V30 3316 H 303.942 -0.0213845 0.710678 0
M  V30 3317 H 306.544 0.624098 1.85271 0
M  V30 3318 H 305.248 0.649461 4.05229 0
M  V30 3319 H 304.779 -1.03825 3.79452 0
M  V30 3320 H 306.794 -2.0824 4.50389 0
M  V30 3321 N 305.967 -1.56429 0.191757 0
M  V30 3322 C 307.383 -1.58754 -0.164137 0
M  V30 3323 C 307.583 -1.20782 -1.61288 0
M  V30 3324 O 306.639 -0.928999 -2.34789 0
M  V30 3325 C 307.952 -3.00396 0.135195 0
M  V30 3326 C 309.5 -3.1291 0.0750351 0
M  V30 3327 C 309.975 -4.56679 0.347632 0
M  V30 3328 N 311.466 -4.62252 0.296131 0
M  V30 3329 C 312.201 -5.71379 0.480948 0
M  V30 3330 N 311.697 -6.88986 0.725933 0
M  V30 3331 N 313.49 -5.60563 0.415435 0
M  V30 3332 H 305.641 -1.79393 1.13718 0
M  V30 3333 H 307.904 -0.832414 0.453643 0
M  V30 3334 H 307.61 -3.32726 1.13958 0
M  V30 3335 H 307.484 -3.72963 -0.563773 0
M  V30 3336 H 309.871 -2.80394 -0.919948 0
M  V30 3337 H 309.952 -2.42736 0.807029 0
M  V30 3338 H 309.596 -4.89907 1.33992 0
M  V30 3339 H 309.526 -5.25039 -0.405212 0
M  V30 3340 H 312.017 -3.7773 0.113259 0
M  V30 3341 H 312.33 -7.68046 0.855857 0
M  V30 3342 H 310.675 -6.90801 0.762788 0
M  V30 3343 H 313.866 -4.67561 0.224486 0
M  V30 3344 H 314.039 -6.45551 0.562889 0
M  V30 3345 N 307.445 0.0818655 -1.57387 0
M  V30 3346 C 308.378 1.12986 -1.98266 0
M  V30 3347 C 309.356 1.38123 -0.857954 0
M  V30 3348 O 310.54 1.51663 -1.1194 0
M  V30 3349 C 307.667 2.47632 -2.31076 0
M  V30 3350 C 306.713 2.38693 -3.53452 0
M  V30 3351 S 307.546 1.79071 -5.04672 0
M  V30 3352 C 308.702 3.15316 -5.40673 0
M  V30 3353 H 308.935 0.781435 -2.86846 0
M  V30 3354 H 306.468 0.290034 -1.51651 0
M  V30 3355 H 308.426 3.25089 -2.50654 0
M  V30 3356 H 307.087 2.79638 -1.43043 0
M  V30 3357 H 306.28 3.37964 -3.73893 0
M  V30 3358 H 305.882 1.69369 -3.33452 0
M  V30 3359 H 308.174 4.11613 -5.38127 0
M  V30 3360 H 309.117 2.99664 -6.41566 0
M  V30 3361 H 309.525 3.15457 -4.68132 0
M  V30 3362 N 308.923 1.53595 0.353017 0
M  V30 3363 C 309.853 1.83902 1.43883 0
M  V30 3364 C 310.834 0.693421 1.55324 0
M  V30 3365 O 312.019 0.944452 1.69687 0
M  V30 3366 C 309.149 2.04016 2.8106 0
M  V30 3367 C 308.103 3.19814 2.84434 0
M  V30 3368 C 307.429 3.25244 4.24406 0
M  V30 3369 C 308.729 4.58133 2.50822 0
M  V30 3370 H 310.423 2.74835 1.1877 0
M  V30 3371 H 307.969 1.32242 0.569917 0
M  V30 3372 H 309.922 2.238 3.57059 0
M  V30 3373 H 308.646 1.09804 3.07588 0
M  V30 3374 H 307.305 2.9987 2.10887 0
M  V30 3375 H 306.953 2.28646 4.48029 0
M  V30 3376 H 306.653 4.03054 4.27576 0
M  V30 3377 H 308.177 3.47228 5.0226 0
M  V30 3378 H 309.591 4.77995 3.16534 0
M  V30 3379 H 307.988 5.38276 2.6529 0
M  V30 3380 H 309.058 4.62387 1.46034 0
M  V30 3381 N 310.401 -0.613514 1.45168 0
M  V30 3382 C 311.331 -1.7354 1.56225 0
M  V30 3383 C 312.312 -1.64981 0.41414 0
M  V30 3384 O 313.497 -1.83472 0.636526 0
M  V30 3385 C 310.627 -3.12128 1.52295 0
M  V30 3386 C 309.581 -3.35491 2.65762 0
M  V30 3387 C 308.907 -4.74291 2.46885 0
M  V30 3388 C 310.207 -3.26325 4.0781 0
M  V30 3389 H 311.901 -1.64543 2.50132 0
M  V30 3390 H 309.447 -0.790185 1.20383 0
M  V30 3391 H 311.4 -3.90404 1.58628 0
M  V30 3392 H 310.124 -3.2195 0.549139 0
M  V30 3393 H 308.783 -2.59603 2.58847 0
M  V30 3394 H 308.431 -4.80839 1.47657 0
M  V30 3395 H 308.131 -4.9088 3.22972 0
M  V30 3396 H 309.655 -5.54775 2.55063 0
M  V30 3397 H 311.069 -3.94483 4.16 0
M  V30 3398 H 309.466 -3.54445 4.8424 0
M  V30 3399 H 310.536 -2.23855 4.30136 0
M  V30 3400 N 311.879 -1.3236 -0.855495 0
M  V30 3401 C 312.842 -1.21164 -1.94556 0
M  V30 3402 C 313.842 -0.134908 -1.60233 0
M  V30 3403 O 315.032 -0.385249 -1.69887 0
M  V30 3404 C 312.164 -0.863192 -3.29791 0
M  V30 3405 H 313.357 -2.18038 -2.05911 0
M  V30 3406 H 310.91 -1.16179 -1.04557 0
M  V30 3407 H 311.645 0.103769 -3.24134 0
M  V30 3408 H 311.43 -1.64166 -3.56078 0
M  V30 3409 H 312.92 -0.809156 -4.09686 0
M  V30 3410 N 313.357 1.07166 -1.15556 0
M  V30 3411 C 314.287 2.16403 -0.877046 0
M  V30 3412 C 315.268 1.69217 0.173111 0
M  V30 3413 O 316.453 1.94181 0.027084 0
M  V30 3414 C 313.583 3.45349 -0.367632 0
M  V30 3415 C 312.537 4.05995 -1.35468 0
M  V30 3416 C 311.863 5.30045 -0.704038 0
M  V30 3417 C 313.163 4.45804 -2.72132 0
M  V30 3418 H 314.857 2.39959 -1.79053 0
M  V30 3419 H 312.403 1.15325 -0.862331 0
M  V30 3420 H 314.356 4.21095 -0.160317 0
M  V30 3421 H 313.08 3.21385 0.581326 0
M  V30 3422 H 311.739 3.32296 -1.54839 0
M  V30 3423 H 311.387 5.02373 0.251128 0
M  V30 3424 H 311.087 5.71579 -1.36277 0
M  V30 3425 H 312.611 6.08495 -0.50654 0
M  V30 3426 H 314.025 5.12671 -2.56595 0
M  V30 3427 H 312.422 4.98296 -3.34397 0
M  V30 3428 H 313.492 3.57083 -3.28054 0
M  V30 3429 N 314.835 0.952656 1.25548 0
M  V30 3430 C 316.251 0.656769 1.4546 0
M  V30 3431 C 316.451 -0.78633 1.85524 0
M  V30 3432 O 315.507 -1.56183 1.98402 0
M  V30 3433 C 316.82 1.62801 2.52817 0
M  V30 3434 C 318.368 1.63897 2.66659 0
M  V30 3435 C 318.843 2.5978 3.77198 0
M  V30 3436 N 320.334 2.58133 3.84606 0
M  V30 3437 C 321.069 3.29003 4.69621 0
M  V30 3438 N 320.565 4.09339 5.58939 0
M  V30 3439 N 322.358 3.179 4.63569 0
M  V30 3440 H 314.509 1.88526 0.978344 0
M  V30 3441 H 316.772 0.810815 0.491206 0
M  V30 3442 H 316.478 2.65869 2.30232 0
M  V30 3443 H 316.352 1.38898 3.50695 0
M  V30 3444 H 318.739 0.615481 2.8861 0
M  V30 3445 H 318.82 1.91858 1.69187 0
M  V30 3446 H 318.464 3.62254 3.55997 0
M  V30 3447 H 318.394 2.29105 4.7415 0
M  V30 3448 H 320.885 1.99809 3.20757 0
M  V30 3449 H 321.198 4.6034 6.20731 0
M  V30 3450 H 319.543 4.13438 5.58654 0
M  V30 3451 H 322.734 2.54612 3.92798 0
M  V30 3452 H 322.907 3.73398 5.29602 0
M  V30 3453 N 316.313 -1.40141 0.720998 0
M  V30 3454 C 317.562 -2.0002 0.259804 0
M  V30 3455 C 317.875 -1.57839 -1.15526 0
M  V30 3456 O 319.081 -2.10455 -1.71525 0
M  V30 3457 C 317.537 -3.57516 0.413566 0
M  V30 3458 C 317.145 -4.08667 1.83562 0
M  V30 3459 C 318.889 -4.24498 0.0134387 0
M  V30 3460 C 316.796 -5.58686 1.93968 0
M  V30 3461 H 315.726 -0.748195 0.0933806 0
M  V30 3462 H 318.377 -1.60313 0.892866 0
M  V30 3463 H 316.759 -3.9495 -0.288169 0
M  V30 3464 H 317.933 -3.82598 2.56817 0
M  V30 3465 H 316.248 -3.543 2.1877 0
M  V30 3466 H 318.845 -5.34654 0.0703954 0
M  V30 3467 H 319.188 -4.03375 -1.02927 0
M  V30 3468 H 319.721 -3.92188 0.665815 0
M  V30 3469 H 316.46 -5.8467 2.96379 0
M  V30 3470 H 315.98 -5.86602 1.25131 0
M  V30 3471 H 317.659 -6.23875 1.71431 0
M  V30 3472 N 317.792 -0.46758 -1.50504 0
M  V30 3473 C 318.74 0.342482 -2.30065 0
M  V30 3474 C 319.734 0.993596 -1.37201 0
M  V30 3475 O 320.94 0.925102 -1.54408 0
M  V30 3476 H 317.315 0.129283 -0.740803 0
M  V30 3477 H 319.286 -0.34899 -2.96352 0
M  V30 3478 C 318.035 1.4139 -3.17654 0
M  V30 3479 H 317.358 0.922264 -3.89017 0
M  V30 3480 H 318.798 1.95335 -3.76325 0
M  V30 3481 C 317.257 2.4139 -2.35016 0
M  V30 3482 O 317.787 3.46586 -2.03079 0
M  V30 3483 N 315.993 2.13021 -1.97662 0
M  V30 3484 H 315.54 1.27499 -2.23834 0
M  V30 3485 H 315.498 2.80164 -1.42673 0
M  V30 3486 N 319.27 1.56325 -0.20005 0
M  V30 3487 C 320.516 1.98012 0.438059 0
M  V30 3488 C 320.849 1.08702 1.60927 0
M  V30 3489 O 320.124 0.140064 1.93995 0
M  V30 3490 C 320.407 3.48841 0.893419 0
M  V30 3491 C 320.26 4.48928 -0.279947 0
M  V30 3492 C 321.579 4.03498 1.75719 0
M  V30 3493 H 318.698 0.719918 0.157757 0
M  V30 3494 H 321.34 1.87743 -0.291968 0
M  V30 3495 H 319.49 3.57723 1.51547 0
M  V30 3496 H 321.162 4.52079 -0.91772 0
M  V30 3497 H 319.405 4.23694 -0.930919 0
M  V30 3498 H 320.076 5.5194 0.0812601 0
M  V30 3499 H 322.552 3.97427 1.23253 0
M  V30 3500 H 321.428 5.09393 2.04476 0
M  V30 3501 H 321.689 3.4906 2.71311 0
M  V30 3502 N 320.748 -0.0735177 1.57428 0
M  V30 3503 C 321.678 -1.0879 2.06608 0
M  V30 3504 C 322.659 -1.40473 0.959237 0
M  V30 3505 O 323.844 -1.5013 1.23185 0
M  V30 3506 C 320.974 -2.40183 2.50857 0
M  V30 3507 C 319.928 -2.22858 3.65402 0
M  V30 3508 C 319.254 -3.59619 3.957 0
M  V30 3509 C 320.554 -1.65123 4.95511 0
M  V30 3510 H 322.248 -0.678673 2.91607 0
M  V30 3511 H 319.794 -0.325013 1.40284 0
M  V30 3512 H 321.747 -3.11437 2.83874 0
M  V30 3513 H 320.471 -2.83083 1.62885 0
M  V30 3514 H 319.13 -1.54045 3.32664 0
M  V30 3515 H 318.778 -4.00086 3.04861 0
M  V30 3516 H 318.478 -3.48866 4.72828 0
M  V30 3517 H 320.002 -4.32306 4.31212 0
M  V30 3518 H 321.416 -2.26241 5.26771 0
M  V30 3519 H 319.813 -1.65071 5.7695 0
M  V30 3520 H 320.883 -0.612559 4.81015 0
M  V30 3521 N 322.226 -1.5378 -0.344866 0
M  V30 3522 C 323.189 -1.80981 -1.40637 0
M  V30 3523 C 324.189 -0.680816 -1.45676 0
M  V30 3524 O 325.379 -0.949095 -1.46075 0
M  V30 3525 C 322.511 -1.95063 -2.79577 0
M  V30 3526 H 323.704 -2.75803 -1.17783 0
M  V30 3527 H 321.257 -1.45173 -0.579181 0
M  V30 3528 H 321.992 -1.02379 -3.07716 0
M  V30 3529 H 321.777 -2.77198 -2.77315 0
M  V30 3530 H 323.267 -2.17629 -3.56409 0
M  V30 3531 N 323.704 0.605807 -1.45491 0
M  V30 3532 C 324.651 1.7164 -1.54299 0
M  V30 3533 C 325.621 1.61486 -0.388761 0
M  V30 3534 O 326.806 1.81039 -0.602445 0
M  V30 3535 C 323.946 3.09953 -1.51734 0
M  V30 3536 C 323.059 3.309 -2.77721 0
M  V30 3537 C 322.194 4.59329 -2.66816 0
M  V30 3538 C 321.233 4.7354 -3.87848 0
M  V30 3539 N 320.37 5.9327 -3.75467 0
M  V30 3540 H 325.21 1.63449 -2.49176 0
M  V30 3541 H 322.747 0.796957 -1.23641 0
M  V30 3542 H 324.705 3.89977 -1.48235 0
M  V30 3543 H 323.335 3.17098 -0.604068 0
M  V30 3544 H 322.387 2.44639 -2.913 0
M  V30 3545 H 323.699 3.37274 -3.67488 0
M  V30 3546 H 322.853 5.4755 -2.61292 0
M  V30 3547 H 321.592 4.55355 -1.74651 0
M  V30 3548 H 320.597 3.83741 -3.93729 0
M  V30 3549 H 321.822 4.79309 -4.81082 0
M  V30 3550 H 319.768 5.90338 -2.86072 0
M  V30 3551 H 319.685 6.00811 -4.5887 0
M  V30 3552 H 320.953 6.83984 -3.73879 0
M  V30 3553 N 325.182 1.32811 0.848464 0
M  V30 3554 C 326.43 1.23479 1.59991 0
M  V30 3555 C 326.751 -0.201853 1.93952 0
M  V30 3556 O 326.021 -1.12818 1.60153 0
M  V30 3557 H 324.601 0.454034 0.593179 0
M  V30 3558 H 327.263 1.66412 1.01455 0
M  V30 3559 H 326.359 1.82178 2.53412 0
M  V30 3560 N 326.66 -1.06551 1.16123 0
M  V30 3561 C 327.89 -1.8274 0.963838 0
M  V30 3562 C 328.298 -1.82712 -0.491228 0
M  V30 3563 O 327.641 -1.24294 -1.35265 0
M  V30 3564 C 327.703 -3.3065 1.41106 0
M  V30 3565 C 327.367 -3.54384 2.88549 0
M  V30 3566 C 328.364 -3.4765 3.86569 0
M  V30 3567 C 326.049 -3.81789 3.26408 0
M  V30 3568 C 328.043 -3.67982 5.2045 0
M  V30 3569 C 325.73 -4.01772 4.60459 0
M  V30 3570 C 326.728 -3.94866 5.57288 0
M  V30 3571 O 326.416 -4.14306 6.88916 0
M  V30 3572 H 326.148 -0.583136 0.341948 0
M  V30 3573 H 328.702 -1.35351 1.54497 0
M  V30 3574 H 326.932 -3.78887 0.773394 0
M  V30 3575 H 328.621 -3.88324 1.1815 0
M  V30 3576 H 329.387 -3.2647 3.58667 0
M  V30 3577 H 325.266 -3.86276 2.51619 0
M  V30 3578 H 328.81 -3.62507 5.96015 0
M  V30 3579 H 324.707 -4.2244 4.88072 0
M  V30 3580 H 325.475 -4.31609 6.95454 0
M  V30 3581 N 328.138 -0.959301 -1.25041 0
M  V30 3582 C 329.363 -0.633507 -1.97488 0
M  V30 3583 C 329.788 0.788555 -1.70773 0
M  V30 3584 O 329.146 1.53394 -0.966431 0
M  V30 3585 C 329.194 -0.904057 -3.49083 0
M  V30 3586 O 328.298 0.0147939 -4.12397 0
M  V30 3587 H 327.639 -0.240368 -0.618966 0
M  V30 3588 H 330.169 -1.28717 -1.59038 0
M  V30 3589 H 330.179 -0.832203 -3.99423 0
M  V30 3590 H 328.854 -1.94048 -3.67856 0
M  V30 3591 H 327.431 -0.109664 -3.72739 0
M  V30 3592 N 329.616 1.39756 -0.72842 0
M  V30 3593 C 330.864 2.00248 -0.272946 0
M  V30 3594 C 331.185 1.58077 1.14178 0
M  V30 3595 O 330.455 0.826014 1.77634 0
M  V30 3596 H 329.035 0.740554 -0.0979247 0
M  V30 3597 H 331.697 1.70903 -0.936912 0
M  V30 3598 H 330.793 3.10495 -0.316142 0
M  V30 3599 N 331.094 0.475555 1.50254 0
M  V30 3600 C 332.343 -0.0795996 2.01543 0
M  V30 3601 C 332.656 -1.4038 1.36209 0
M  V30 3602 O 333.862 -2.04415 1.7868 0
M  V30 3603 C 332.318 -0.192363 3.59386 0
M  V30 3604 C 331.926 1.12367 4.33679 0
M  V30 3605 C 333.67 -0.699238 4.18701 0
M  V30 3606 C 331.577 0.974453 5.83317 0
M  V30 3607 H 330.507 -0.0335228 0.753254 0
M  V30 3608 H 333.158 0.611128 1.73025 0
M  V30 3609 H 331.54 -0.946974 3.84511 0
M  V30 3610 H 332.714 1.88958 4.20276 0
M  V30 3611 H 331.029 1.562 3.85993 0
M  V30 3612 H 333.626 -0.827978 5.28251 0
M  V30 3613 H 333.969 -1.69171 3.80377 0
M  V30 3614 H 334.502 -0.00188807 3.978 0
M  V30 3615 H 331.241 1.94042 6.26121 0
M  V30 3616 H 330.761 0.248998 5.99283 0
M  V30 3617 H 332.44 0.642867 6.43798 0
M  V30 3618 N 332.573 -1.56217 0.208337 0
M  V30 3619 C 333.798 -2.02782 -0.435222 0
M  V30 3620 C 334.223 -1.08738 -1.53485 0
M  V30 3621 O 333.581 -0.0731855 -1.81152 0
M  V30 3622 C 333.629 -3.47687 -0.956335 0
M  V30 3623 O 332.733 -3.56773 -2.06849 0
M  V30 3624 H 332.074 -0.656403 -0.100158 0
M  V30 3625 H 334.604 -2.02033 0.3231 0
M  V30 3626 H 334.614 -3.87745 -1.26955 0
M  V30 3627 H 333.289 -4.15624 -0.15143 0
M  V30 3628 H 331.866 -3.28597 -1.76292 0
M  V30 3629 N 334.051 0.0651679 -1.57465 0
M  V30 3630 C 334.981 1.07693 -2.07182 0
M  V30 3631 C 335.962 1.39962 -0.966673 0
M  V30 3632 O 337.147 1.49475 -1.2398 0
M  V30 3633 C 334.277 2.3885 -2.52127 0
M  V30 3634 C 333.231 2.20917 -3.66579 0
M  V30 3635 C 332.557 3.57515 -3.97601 0
M  V30 3636 C 333.857 1.62493 -4.9638 0
M  V30 3637 H 335.551 0.663199 -2.91962 0
M  V30 3638 H 333.097 0.317569 -1.40455 0
M  V30 3639 H 335.05 3.09928 -2.85522 0
M  V30 3640 H 333.774 2.82215 -1.64384 0
M  V30 3641 H 332.433 1.52279 -3.33477 0
M  V30 3642 H 332.081 3.98463 -3.06979 0
M  V30 3643 H 331.781 3.46353 -4.74672 0
M  V30 3644 H 333.305 4.30013 -4.33499 0
M  V30 3645 H 334.719 2.23445 -5.27963 0
M  V30 3646 H 333.116 1.62009 -5.77818 0
M  V30 3647 H 334.186 0.587041 -4.81333 0
M  V30 3648 N 335.529 1.53961 0.336706 0
M  V30 3649 C 336.439 1.85432 1.43708 0
M  V30 3650 C 337.455 0.745053 1.57242 0
M  V30 3651 O 338.631 1.03804 1.72588 0
M  V30 3652 C 335.696 2.06349 2.78605 0
M  V30 3653 C 334.757 3.30191 2.74358 0
M  V30 3654 C 333.99 3.50101 4.02822 0
M  V30 3655 O 334.213 2.7371 5.00439 0
M  V30 3656 O 333.147 4.43547 4.06878 0
M  V30 3657 H 336.973 2.78975 1.20028 0
M  V30 3658 H 334.558 1.39701 0.52952 0
M  V30 3659 H 336.44 2.21513 3.58483 0
M  V30 3660 H 335.115 1.15995 3.02203 0
M  V30 3661 H 334.022 3.20425 1.93078 0
M  V30 3662 H 335.355 4.2056 2.55715 0
M  V30 3663 N 337.007 -0.598083 1.45811 0
M  V30 3664 C 338.235 -1.38322 1.53866 0
M  V30 3665 C 338.65 -1.87992 0.174479 0
M  V30 3666 O 338.007 -1.62756 -0.825627 0
M  V30 3667 C 338.058 -2.58125 2.53089 0
M  V30 3668 O 337.779 -2.10516 3.84206 0
M  V30 3669 C 339.28 -3.50869 2.70935 0
M  V30 3670 H 336.5 -0.423093 0.520801 0
M  V30 3671 H 339.044 -0.728527 1.91083 0
M  V30 3672 H 337.199 -3.19615 2.18917 0
M  V30 3673 H 337.613 -2.88425 4.38077 0
M  V30 3674 H 339.087 -4.31451 3.44317 0
M  V30 3675 H 339.564 -4.01822 1.77301 0
M  V30 3676 H 340.17 -2.95225 3.06141 0
M  V30 3677 N 338.485 -1.33259 -0.841409 0
M  V30 3678 C 339.415 -1.25926 -1.96634 0
M  V30 3679 C 340.396 -0.140349 -1.6952 0
M  V30 3680 O 341.581 -0.329707 -1.91381 0
M  V30 3681 C 338.711 -0.99512 -3.32738 0
M  V30 3682 C 337.665 -2.0767 -3.74242 0
M  V30 3683 C 336.991 -1.66474 -5.08125 0
M  V30 3684 C 338.291 -3.49318 -3.88297 0
M  V30 3685 H 339.985 -2.20046 -2.03027 0
M  V30 3686 H 337.531 -1.05931 -0.975425 0
M  V30 3687 H 339.484 -0.930323 -4.11002 0
M  V30 3688 H 338.208 -0.0183004 -3.26595 0
M  V30 3689 H 336.867 -2.13187 -2.98239 0
M  V30 3690 H 336.515 -0.675012 -4.9845 0
M  V30 3691 H 336.215 -2.3885 -5.36865 0
M  V30 3692 H 337.739 -1.61455 -5.88867 0
M  V30 3693 H 339.153 -3.46316 -4.56879 0
M  V30 3694 H 337.55 -4.20158 -4.28471 0
M  V30 3695 H 338.62 -3.8801 -2.9082 0
M  V30 3696 N 339.963 1.05934 -1.16686 0
M  V30 3697 C 340.91 2.13499 -0.876748 0
M  V30 3698 C 341.88 1.65162 0.176299 0
M  V30 3699 O 343.065 1.90757 0.0407143 0
M  V30 3700 C 340.205 3.42912 -0.387967 0
M  V30 3701 C 339.318 4.04964 -1.50426 0
M  V30 3702 C 338.453 5.22266 -0.970125 0
M  V30 3703 C 337.492 5.76309 -2.06238 0
M  V30 3704 N 336.629 6.84922 -1.54356 0
M  V30 3705 H 341.469 2.37654 -1.7979 0
M  V30 3706 H 339.006 1.16598 -0.896843 0
M  V30 3707 H 340.964 4.17111 -0.086186 0
M  V30 3708 H 339.594 3.18963 0.496235 0
M  V30 3709 H 338.646 3.28277 -1.92193 0
M  V30 3710 H 339.958 4.41122 -2.32836 0
M  V30 3711 H 339.112 6.03506 -0.621743 0
M  V30 3712 H 337.851 4.87564 -0.115377 0
M  V30 3713 H 336.856 4.93704 -2.41942 0
M  V30 3714 H 338.081 6.13062 -2.92115 0
M  V30 3715 H 336.027 6.52131 -0.711406 0
M  V30 3716 H 335.944 7.20043 -2.30379 0
M  V30 3717 H 337.212 7.69832 -1.22387 0
M  V30 3718 N 341.441 0.965919 1.2453 0
M  V30 3719 C 342.373 0.452465 2.2469 0
M  V30 3720 C 343.386 -0.437821 1.56802 0
M  V30 3721 O 344.575 -0.244283 1.76821 0
M  V30 3722 C 341.675 -0.366258 3.36915 0
M  V30 3723 C 340.848 0.513701 4.34373 0
M  V30 3724 C 339.907 -0.248716 5.25612 0
M  V30 3725 O 338.933 0.356745 5.68081 0
M  V30 3726 N 340.135 -1.53877 5.59734 0
M  V30 3727 H 342.9 1.31361 2.69378 0
M  V30 3728 H 340.461 0.837541 1.38553 0
M  V30 3729 H 342.453 -0.884297 3.94921 0
M  V30 3730 H 341.023 -1.12832 2.91526 0
M  V30 3731 H 340.243 1.21273 3.75082 0
M  V30 3732 H 341.531 1.11391 4.96457 0
M  V30 3733 H 340.929 -2.05243 5.27154 0
M  V30 3734 H 339.486 -2.00254 6.20275 0
M  V30 3735 N 342.919 -1.39368 0.735821 0
M  V30 3736 C 344.165 -2.00794 0.284544 0
M  V30 3737 C 344.498 -1.58255 -1.12557 0
M  V30 3738 O 343.773 -0.811819 -1.76748 0
M  V30 3739 C 344.056 -3.58011 0.387337 0
M  V30 3740 C 343.909 -4.10566 1.83728 0
M  V30 3741 C 345.228 -4.395 -0.22975 0
M  V30 3742 H 342.347 -0.729501 0.104866 0
M  V30 3743 H 344.989 -1.65564 0.93213 0
M  V30 3744 H 343.139 -3.88154 -0.164006 0
M  V30 3745 H 344.811 -3.91139 2.44556 0
M  V30 3746 H 343.054 -3.64095 2.35833 0
M  V30 3747 H 343.725 -5.19702 1.86047 0
M  V30 3748 H 346.201 -4.15406 0.240257 0
M  V30 3749 H 345.077 -5.48752 -0.127485 0
M  V30 3750 H 345.338 -4.22062 -1.3159 0
M  V30 3751 N 344.397 -0.483516 -1.5 0
M  V30 3752 C 345.646 0.0689102 -2.01582 0
M  V30 3753 C 345.959 1.39655 -1.36952 0
M  V30 3754 O 347.165 2.03465 -1.79762 0
M  V30 3755 C 345.621 0.173302 -3.59483 0
M  V30 3756 C 345.229 -1.14665 -4.33077 0
M  V30 3757 C 346.973 0.677024 -4.19066 0
M  V30 3758 C 344.88 -1.00537 -5.82792 0
M  V30 3759 H 343.81 0.0295277 -0.753422 0
M  V30 3760 H 346.461 -0.620295 -1.72698 0
M  V30 3761 H 344.843 0.926569 -3.85007 0
M  V30 3762 H 346.017 -1.91184 -4.19268 0
M  V30 3763 H 344.332 -1.58244 -3.85159 0
M  V30 3764 H 346.929 0.799952 -5.28682 0
M  V30 3765 H 347.272 1.67151 -3.81269 0
M  V30 3766 H 347.805 -0.0192083 -3.97795 0
M  V30 3767 H 344.544 -1.9736 -6.25083 0
M  V30 3768 H 344.064 -0.280776 -5.99142 0
M  V30 3769 H 345.743 -0.677 -6.43448 0
M  V30 3770 N 345.875 1.56104 -0.216619 0
M  V30 3771 C 346.785 2.23694 0.706982 0
M  V30 3772 C 347.801 1.24295 1.21765 0
M  V30 3773 O 348.977 1.57094 1.2603 0
M  V30 3774 C 346.042 2.8998 1.90033 0
M  V30 3775 C 345.103 4.04708 1.43213 0
M  V30 3776 C 344.336 4.67824 2.56859 0
M  V30 3777 O 344.559 4.29913 3.74874 0
M  V30 3778 O 343.493 5.56905 2.28343 0
M  V30 3779 H 347.319 3.03272 0.161235 0
M  V30 3780 H 344.904 1.49394 0.0136177 0
M  V30 3781 H 346.786 3.31837 2.59735 0
M  V30 3782 H 345.461 2.13365 2.43428 0
M  V30 3783 H 344.368 3.6743 0.70327 0
M  V30 3784 H 345.701 4.83051 0.944615 0
M  V30 3785 N 347.353 -0.0568162 1.57498 0
M  V30 3786 C 348.286 -1.09817 2.00039 0
M  V30 3787 C 349.264 -1.3674 0.879819 0
M  V30 3788 O 350.448 -1.49863 1.14338 0
M  V30 3789 C 347.575 -2.43924 2.34986 0
M  V30 3790 C 346.621 -2.33039 3.57204 0
M  V30 3791 S 347.454 -1.7102 5.07457 0
M  V30 3792 C 348.61 -3.06674 5.45621 0
M  V30 3793 H 348.843 -0.735701 2.88053 0
M  V30 3794 H 346.376 -0.265871 1.52094 0
M  V30 3795 H 348.334 -3.2106 2.55795 0
M  V30 3796 H 346.995 -2.77327 1.47474 0
M  V30 3797 H 346.188 -3.31973 3.79223 0
M  V30 3798 H 345.79 -1.64043 3.36104 0
M  V30 3799 H 348.082 -4.03 5.44608 0
M  V30 3800 H 349.025 -2.8942 6.46252 0
M  V30 3801 H 349.433 -3.07969 4.73091 0
M  V30 3802 N 348.832 -1.54138 -0.328536 0
M  V30 3803 C 350.079 -1.72105 -1.06706 0
M  V30 3804 C 350.407 -0.492111 -1.88171 0
M  V30 3805 O 349.662 0.526153 -1.88494 0
M  V30 3806 C 349.961 -2.9457 -2.02393 0
M  V30 3807 C 349.627 -4.29544 -1.37122 0
M  V30 3808 C 348.289 -4.6624 -1.19052 0
M  V30 3809 C 350.641 -5.1333 -0.902331 0
M  V30 3810 C 347.969 -5.84325 -0.527331 0
M  V30 3811 C 350.321 -6.32094 -0.252988 0
M  V30 3812 C 348.985 -6.67473 -0.0600901 0
M  V30 3813 H 348.255 -0.629775 -0.390466 0
M  V30 3814 H 350.902 -1.88372 -0.34473 0
M  V30 3815 H 349.207 -2.72969 -2.81061 0
M  V30 3816 H 350.904 -3.05665 -2.59557 0
M  V30 3817 H 347.494 -4.0067 -1.52188 0
M  V30 3818 H 351.678 -4.855 -1.02974 0
M  V30 3819 H 346.934 -6.103 -0.366634 0
M  V30 3820 H 351.108 -6.96299 0.118366 0
M  V30 3821 H 348.735 -7.58832 0.455828 0
M  V30 3822 N 350.31 0.590341 -1.46126 0
M  V30 3823 C 351.258 1.72105 -1.5647 0
M  V30 3824 C 352.252 1.63756 -0.433612 0
M  V30 3825 O 353.458 1.69342 -0.610194 0
M  V30 3826 H 349.833 0.568889 -0.491802 0
M  V30 3827 H 351.804 1.6051 -2.51553 0
M  V30 3828 C 350.553 3.10493 -1.56491 0
M  V30 3829 H 349.876 3.17583 -2.4286 0
M  V30 3830 H 351.316 3.8939 -1.67785 0
M  V30 3831 C 349.775 3.3563 -0.292231 0
M  V30 3832 O 350.305 3.96875 0.620739 0
M  V30 3833 N 348.511 2.90026 -0.182523 0
M  V30 3834 H 348.058 2.40367 -0.926356 0
M  V30 3835 H 348.016 3.07218 0.668152 0
M  V30 3836 N 351.788 1.33704 0.83433 0
M  V30 3837 C 352.751 1.24244 1.92603 0
M  V30 3838 C 353.751 0.160383 1.59998 0
M  V30 3839 O 354.941 0.412228 1.69252 0
M  V30 3840 C 352.073 0.91555 3.28376 0
M  V30 3841 H 353.266 2.21287 2.02416 0
M  V30 3842 H 350.819 1.17827 1.02696 0
M  V30 3843 H 351.554 -0.0521886 3.24258 0
M  V30 3844 H 351.339 1.69811 3.53422 0
M  V30 3845 H 352.829 0.874231 4.08347 0
M  V30 3846 N 353.266 -1.05314 1.17247 0
M  V30 3847 C 354.491 -1.82509 0.985148 0
M  V30 3848 C 354.916 -1.82343 -0.461788 0
M  V30 3849 O 354.274 -1.23151 -1.33055 0
M  V30 3850 C 354.322 -3.26566 1.52929 0
M  V30 3851 O 353.426 -4.05666 0.742225 0
M  V30 3852 H 352.767 -0.564347 0.349869 0
M  V30 3853 H 355.297 -1.32718 1.55715 0
M  V30 3854 H 355.307 -3.77369 1.55103 0
M  V30 3855 H 353.982 -3.26001 2.58256 0
M  V30 3856 H 352.559 -3.64397 0.791794 0
M  V30 3857 N 354.744 -0.972509 -1.24016 0
M  V30 3858 C 355.984 -0.644951 -1.93958 0
M  V30 3859 C 356.348 0.80559 -1.74282 0
M  V30 3860 O 357.549 1.2436 -2.38302 0
M  V30 3861 C 355.82 -1.01521 -3.42678 0
M  V30 3862 S 357.379 -0.802927 -4.31391 0
M  V30 3863 H 354.197 -0.236452 -0.670531 0
M  V30 3864 H 356.799 -1.25048 -1.50277 0
M  V30 3865 H 355.503 -2.06769 -3.54506 0
M  V30 3866 H 355.034 -0.400648 -3.91355 0
M  V30 3867 H 357.049 0.317256 -4.95185 0
M  V30 3868 N 356.222 1.38976 -0.743202 0
M  V30 3869 C 357.152 2.33171 -0.123873 0
M  V30 3870 C 358.133 1.54336 0.71516 0
M  V30 3871 O 359.318 1.82696 0.658467 0
M  V30 3872 C 356.448 3.38474 0.777978 0
M  V30 3873 C 355.402 4.27979 0.0424758 0
M  V30 3874 C 354.728 5.2405 1.06189 0
M  V30 3875 C 356.028 5.10155 -1.1198 0
M  V30 3876 H 357.722 2.85213 -0.910709 0
M  V30 3877 H 355.268 1.37133 -0.439388 0
M  V30 3878 H 357.221 4.03328 1.22084 0
M  V30 3879 H 355.945 2.84891 1.59702 0
M  V30 3880 H 354.604 3.64616 -0.380853 0
M  V30 3881 H 354.252 4.66758 1.87472 0
M  V30 3882 H 353.952 5.84785 0.574485 0
M  V30 3883 H 355.476 5.9178 1.50428 0
M  V30 3884 H 356.89 5.68307 -0.75499 0
M  V30 3885 H 355.287 5.80073 -1.53738 0
M  V30 3886 H 356.357 4.44504 -1.93764 0
M  V30 3887 N 357.7 0.491464 1.49741 0
M  V30 3888 C 359.111 0.0413169 1.86654 0
M  V30 3889 C 359.462 -1.36985 1.40462 0
M  V30 3890 O 358.587 -2.01917 0.778354 0
M  V30 3891 C 359.182 0.0682023 3.38731 0
M  V30 3892 C 357.741 -0.32656 3.74981 0
M  V30 3893 C 356.888 0.444888 2.73708 0
M  V30 3894 H 359.839 0.704733 1.42194 0
M  V30 3895 H 359.86 -0.729322 3.73445 0
M  V30 3896 H 359.372 1.09539 3.72321 0
M  V30 3897 H 357.473 -1.35734 3.46997 0
M  V30 3898 H 357.586 -0.013741 4.79098 0
M  V30 3899 H 355.95 -0.104062 2.54487 0
M  V30 3900 H 356.733 1.47197 3.10142 0
M  V30 3901 N 359.178 -1.55987 0.224894 0
M  V30 3902 C 360.408 -2.02489 -0.41007 0
M  V30 3903 C 360.816 -1.10391 -1.53657 0
M  V30 3904 O 360.159 -0.106458 -1.83391 0
M  V30 3905 C 360.221 -3.45319 -0.999757 0
M  V30 3906 C 359.885 -4.56999 -0.00827976 0
M  V30 3907 C 360.882 -5.13812 0.793314 0
M  V30 3908 C 358.567 -5.02176 0.111442 0
M  V30 3909 C 360.561 -6.14276 1.7013 0
M  V30 3910 C 358.248 -6.02477 1.02296 0
M  V30 3911 C 359.246 -6.58403 1.81643 0
M  V30 3912 O 358.934 -7.56751 2.71262 0
M  V30 3913 H 358.666 -0.667915 -0.104235 0
M  V30 3914 H 361.22 -2.0257 0.339782 0
M  V30 3915 H 359.45 -3.42318 -1.79876 0
M  V30 3916 H 361.139 -3.7545 -1.54248 0
M  V30 3917 H 361.905 -4.79756 0.711288 0
M  V30 3918 H 357.784 -4.58323 -0.49605 0
M  V30 3919 H 361.328 -6.57854 2.32107 0
M  V30 3920 H 357.225 -6.35954 1.10599 0
M  V30 3921 H 357.993 -7.74286 2.65375 0
M  V30 3922 N 360.656 0.0484629 -1.57525 0
M  V30 3923 C 361.902 0.744226 -1.88651 0
M  V30 3924 C 362.235 1.76029 -0.820212 0
M  V30 3925 O 361.51 1.93782 0.166985 0
M  V30 3926 C 361.793 1.43128 -3.30434 0
M  V30 3927 C 361.646 0.43005 -4.47739 0
M  V30 3928 C 362.965 2.37031 -3.70816 0
M  V30 3929 H 360.084 0.269089 -0.68612 0
M  V30 3930 H 362.726 0.00713532 -1.89999 0
M  V30 3931 H 360.876 2.05956 -3.29415 0
M  V30 3932 H 362.548 -0.194816 -4.60888 0
M  V30 3933 H 360.791 -0.252522 -4.33064 0
M  V30 3934 H 361.462 0.948874 -5.43783 0
M  V30 3935 H 363.938 1.84263 -3.73077 0
M  V30 3936 H 362.814 2.82094 -4.70865 0
M  V30 3937 H 363.075 3.22864 -3.02012 0
M  V30 3938 N 362.134 1.5431 0.320358 0
M  V30 3939 C 363.545 1.63872 0.894594 0
M  V30 3940 C 363.896 0.534847 1.88769 0
M  V30 3941 O 363.021 -0.331732 2.13842 0
M  V30 3942 C 363.616 2.97049 1.62934 0
M  V30 3943 C 362.175 3.08796 2.15226 0
M  V30 3944 C 361.322 2.59456 0.978671 0
M  V30 3945 H 364.273 1.58398 0.0978544 0
M  V30 3946 H 364.294 2.87388 2.49376 0
M  V30 3947 H 363.806 3.7737 0.906302 0
M  V30 3948 H 361.907 2.33156 2.90636 0
M  V30 3949 H 362.02 4.14649 2.40006 0
M  V30 3950 H 360.384 2.1543 1.35875 0
M  V30 3951 H 361.167 3.42237 0.269895 0
M  V30 3952 N 363.613 -0.582584 1.46437 0
M  V30 3953 C 364.523 -1.71949 1.59595 0
M  V30 3954 C 365.539 -1.67264 0.479443 0
M  V30 3955 O 366.715 -1.87171 0.743579 0
M  V30 3956 C 363.78 -3.08452 1.58298 0
M  V30 3957 C 362.841 -3.244 2.81182 0
M  V30 3958 C 362.074 -4.54391 2.79937 0
M  V30 3959 O 362.297 -5.38287 1.8869 0
M  V30 3960 O 361.231 -4.73588 3.71481 0
M  V30 3961 H 365.057 -1.63795 2.55744 0
M  V30 3962 H 362.642 -0.749643 1.29231 0
M  V30 3963 H 364.524 -3.89732 1.60271 0
M  V30 3964 H 363.199 -3.17043 0.653094 0
M  V30 3965 H 362.106 -2.42613 2.84763 0
M  V30 3966 H 363.439 -3.20699 3.7338 0
M  V30 3967 N 365.091 -1.34144 -0.827227 0
M  V30 3968 C 366.038 -1.25364 -1.93785 0
M  V30 3969 C 367.008 -0.129774 -1.65592 0
M  V30 3970 O 368.193 -0.310024 -1.88264 0
M  V30 3971 C 365.333 -1.01064 -3.2997 0
M  V30 3972 C 364.446 -2.22185 -3.70484 0
M  V30 3973 C 363.581 -1.91203 -4.95595 0
M  V30 3974 C 362.62 -3.08491 -5.28677 0
M  V30 3975 N 361.757 -2.77421 -6.44967 0
M  V30 3976 H 366.597 -2.20347 -2.00627 0
M  V30 3977 H 364.134 -1.09558 -0.981608 0
M  V30 3978 H 366.092 -0.850139 -4.08446 0
M  V30 3979 H 364.722 -0.0975026 -3.22653 0
M  V30 3980 H 363.774 -2.4917 -2.87434 0
M  V30 3981 H 365.086 -3.0983 -3.90905 0
M  V30 3982 H 364.24 -1.71864 -5.81848 0
M  V30 3983 H 362.979 -1.00812 -4.77167 0
M  V30 3984 H 361.984 -3.28431 -4.40923 0
M  V30 3985 H 363.209 -3.99655 -5.49047 0
M  V30 3986 H 361.155 -1.89601 -6.28003 0
M  V30 3987 H 361.072 -3.58598 -6.6554 0
M  V30 3988 H 362.34 -2.61577 -7.34301 0
M  V30 3989 N 366.569 1.04691 -1.17803 0
M  V30 3990 C 367.817 1.7743 -0.967617 0
M  V30 3991 C 368.138 1.88359 0.504574 0
M  V30 3992 O 367.408 1.40402 1.36617 0
M  V30 3993 H 365.988 0.657242 -0.355024 0
M  V30 3994 H 368.65 1.2638 -1.48371 0
M  V30 3995 H 367.746 2.78924 -1.40027 0
M  V30 3996 N 368.047 0.979072 1.23499 0
M  V30 3997 C 369.275 0.665202 1.95915 0
M  V30 3998 C 369.69 -0.767571 1.72493 0
M  V30 3999 O 369.047 -1.51635 1.01554 0
M  V30 4000 C 369.098 0.944438 3.48945 0
M  V30 4001 O 368.819 2.3209 3.71572 0
M  V30 4002 C 370.32 0.646336 4.38563 0
M  V30 4003 H 367.54 0.247218 0.623798 0
M  V30 4004 H 370.084 1.31009 1.57025 0
M  V30 4005 H 368.239 0.345575 3.85856 0
M  V30 4006 H 368.653 2.40957 4.65876 0
M  V30 4007 H 370.127 0.892091 5.44744 0
M  V30 4008 H 370.604 -0.419575 4.37191 0
M  V30 4009 H 371.21 1.22562 4.07258 0
M  V30 4010 N 369.525 -1.3858 0.750561 0
M  V30 4011 C 370.771 -2.00481 0.305825 0
M  V30 4012 C 371.104 -1.5944 -1.10872 0
M  V30 4013 O 370.379 -0.83052 -1.75877 0
M  V30 4014 C 370.662 -3.5758 0.425287 0
M  V30 4015 C 370.515 -4.08594 1.88072 0
M  V30 4016 C 371.834 -4.39719 -0.183122 0
M  V30 4017 H 368.953 -0.728348 0.112598 0
M  V30 4018 H 371.595 -1.64566 0.949638 0
M  V30 4019 H 369.745 -3.88306 -0.122828 0
M  V30 4020 H 371.417 -3.88523 2.48691 0
M  V30 4021 H 369.66 -3.61574 2.39681 0
M  V30 4022 H 370.331 -5.177 1.91548 0
M  V30 4023 H 372.807 -4.15128 0.284303 0
M  V30 4024 H 371.683 -5.48856 -0.0692757 0
M  V30 4025 H 371.944 -4.23434 -1.27106 0
M  V30 4026 N 371.003 -0.499398 -1.49478 0
M  V30 4027 C 372.251 0.0455996 -2.02049 0
M  V30 4028 C 372.572 1.37633 -1.38138 0
M  V30 4029 O 371.842 1.8842 -0.536166 0
M  V30 4030 H 370.422 0.0198416 -0.746736 0
M  V30 4031 H 373.084 -0.656274 -1.83519 0
M  V30 4032 H 372.18 0.176445 -3.11601 0
M  V30 4033 N 372.481 1.55866 -0.233164 0
M  V30 4034 C 373.444 2.1953 0.658715 0
M  V30 4035 C 374.444 1.16053 1.11303 0
M  V30 4036 O 375.634 1.41218 1.01996 0
M  V30 4037 C 372.766 2.82791 1.90373 0
M  V30 4038 H 373.959 2.99721 0.10347 0
M  V30 4039 H 371.512 1.56291 0.0164245 0
M  V30 4040 H 372.247 2.06501 2.50056 0
M  V30 4041 H 372.032 3.58578 1.58632 0
M  V30 4042 H 373.522 3.31556 2.53891 0
M  V30 4043 N 373.959 -0.0401083 1.57549 0
M  V30 4044 C 375.184 -0.748931 1.93406 0
M  V30 4045 C 375.609 -1.68686 0.832274 0
M  V30 4046 O 374.967 -1.80047 -0.212818 0
M  V30 4047 C 375.015 -1.4916 3.28304 0
M  V30 4048 O 374.119 -2.6042 3.19774 0
M  V30 4049 H 373.46 -0.202212 0.63246 0
M  V30 4050 H 375.99 0.00112086 2.046 0
M  V30 4051 H 376 -1.86395 3.62934 0
M  V30 4052 H 374.675 -0.80364 4.08062 0
M  V30 4053 H 373.252 -2.25808 2.96758 0
M  V30 4054 N 375.437 -1.54477 -0.31217 0
M  V30 4055 C 376.685 -1.72884 -1.04668 0
M  V30 4056 C 377.006 -0.511477 -1.88173 0
M  V30 4057 O 376.276 0.474407 -1.90069 0
M  V30 4058 H 374.856 -0.637461 -0.389425 0
M  V30 4059 H 377.518 -1.91807 -0.345852 0
M  V30 4060 H 376.614 -2.61334 -1.70619 0
M  V30 4061 N 376.915 0.57481 -1.46744 0
M  V30 4062 C 378.192 1.3352 -1.4294 0
M  V30 4063 C 378.572 2.10775 -0.117009 0
M  V30 4064 O 377.92 2.09966 0.901474 0
M  V30 4065 C 378.13 2.25456 -2.66403 0
M  V30 4066 C 379.478 2.87035 -3.12883 0
M  V30 4067 O 380.502 2.35766 -2.67007 0
M  V30 4068 O 379.361 3.80179 -3.92589 0
M  V30 4069 H 376.455 0.600318 -0.568812 0
M  V30 4070 H 379.001 0.595171 -1.58921 0
M  V30 4071 H 377.773 1.67851 -3.53471 0
M  V30 4072 H 377.396 3.06785 -2.52921 0
M  V30 4073 N 378.394 1.34581 0.820102 0
M  V30 4074 C 379.324 1.29038 1.94606 0
M  V30 4075 C 380.305 0.1673 1.69275 0
M  V30 4076 O 381.49 0.360112 1.90832 0
M  V30 4077 C 378.62 1.04793 3.31113 0
M  V30 4078 C 377.574 2.13597 3.70891 0
M  V30 4079 C 376.9 1.74537 5.05412 0
M  V30 4080 C 378.2 3.55451 3.8269 0
M  V30 4081 H 379.894 2.23248 1.99501 0
M  V30 4082 H 377.44 1.0747 0.958449 0
M  V30 4083 H 379.393 0.995592 4.0947 0
M  V30 4084 H 378.117 0.0702565 3.26524 0
M  V30 4085 H 376.776 2.17905 2.9481 0
M  V30 4086 H 376.424 0.754226 4.97313 0
M  V30 4087 H 376.124 2.47361 5.32997 0
M  V30 4088 H 377.648 1.70803 5.86224 0
M  V30 4089 H 379.062 3.5354 4.51312 0
M  V30 4090 H 377.459 4.26922 4.21732 0
M  V30 4091 H 378.529 3.92587 2.84611 0
M  V30 4092 N 379.872 -1.04064 1.18357 0
M  V30 4093 C 380.835 -2.10243 0.912707 0
M  V30 4094 C 381.835 -1.60477 -0.101928 0
M  V30 4095 O 383.025 -1.73703 0.131517 0
M  V30 4096 C 380.157 -3.38893 0.369387 0
M  V30 4097 H 381.35 -2.35706 1.85426 0
M  V30 4098 H 378.903 -1.20489 0.995594 0
M  V30 4099 H 379.638 -3.19094 -0.578776 0
M  V30 4100 H 379.423 -3.76331 1.1008 0
M  V30 4101 H 380.913 -4.17128 0.198575 0
M  V30 4102 N 381.35 -0.985608 -1.22978 0
M  V30 4103 C 382.761 -0.693593 -1.73338 0
M  V30 4104 C 383.112 0.789935 -1.79595 0
M  V30 4105 O 382.237 1.61771 -1.43733 0
M  V30 4106 C 382.832 -1.25235 -3.14804 0
M  V30 4107 C 381.391 -1.00987 -3.626 0
M  V30 4108 C 380.538 -1.37695 -2.40698 0
M  V30 4109 H 383.489 -1.15884 -1.08428 0
M  V30 4110 H 383.51 -0.627329 -3.75293 0
M  V30 4111 H 383.022 -2.33209 -3.10218 0
M  V30 4112 H 381.123 0.0535565 -3.72562 0
M  V30 4113 H 381.236 -1.66812 -4.49122 0
M  V30 4114 H 379.6 -0.795459 -2.4196 0
M  V30 4115 H 380.383 -2.46657 -2.38779 0
M  V30 4116 N 382.828 1.3818 -0.7579 0
M  V30 4117 C 383.758 2.33027 -0.148597 0
M  V30 4118 C 384.739 1.55085 0.69875 0
M  V30 4119 O 385.924 1.83384 0.639053 0
M  V30 4120 C 383.054 3.3928 0.742034 0
M  V30 4121 C 382.008 4.28 -0.00291946 0
M  V30 4122 C 381.334 5.25146 1.00625 0
M  V30 4123 C 382.634 5.08938 -1.17385 0
M  V30 4124 H 384.328 2.84231 -0.940909 0
M  V30 4125 H 381.874 1.36659 -0.453908 0
M  V30 4126 H 383.827 4.046 1.17799 0
M  V30 4127 H 382.551 2.86569 1.56671 0
M  V30 4128 H 381.21 3.64192 -0.419504 0
M  V30 4129 H 380.858 4.68721 1.8251 0
M  V30 4130 H 380.558 5.85361 0.512428 0
M  V30 4131 H 382.082 5.93342 1.44143 0
M  V30 4132 H 383.496 5.67474 -0.815224 0
M  V30 4133 H 381.893 5.7841 -1.59882 0
M  V30 4134 H 382.963 4.42424 -1.98468 0
M  V30 4135 N 384.306 0.507319 1.49211 0
M  V30 4136 C 385.531 -0.033725 2.07373 0
M  V30 4137 C 385.956 -1.29485 1.36437 0
M  V30 4138 O 385.314 -1.76294 0.423087 0
M  V30 4139 C 385.362 -0.263945 3.59633 0
M  V30 4140 O 384.466 -1.33737 3.90113 0
M  V30 4141 H 383.807 0.0290331 0.663365 0
M  V30 4142 H 386.337 0.708749 1.91932 0
M  V30 4143 H 386.347 -0.493536 4.05004 0
M  V30 4144 H 385.022 0.657424 4.10671 0
M  V30 4145 H 383.599 -1.09224 3.56545 0
M  V30 4146 N 385.784 -1.5574 0.241426 0
M  V30 4147 C 386.734 -2.17803 -0.674233 0
M  V30 4148 C 387.718 -1.13225 -1.14319 0
M  V30 4149 O 388.91 -1.39153 -1.09387 0
M  V30 4150 C 386.039 -2.87682 -1.87333 0
M  V30 4151 C 385.125 -3.99509 -1.42313 0
M  V30 4152 N 385.516 -5.01115 -0.686798 0
M  V30 4153 C 383.814 -4.11964 -1.70885 0
M  V30 4154 C 384.515 -5.79922 -0.454456 0
M  V30 4155 N 383.491 -5.34001 -1.01705 0
M  V30 4156 H 387.293 -2.93718 -0.103447 0
M  V30 4157 H 384.807 -1.62342 0.0435095 0
M  V30 4158 H 386.804 -3.3057 -2.54026 0
M  V30 4159 H 385.464 -2.13269 -2.4484 0
M  V30 4160 H 386.475 -5.16799 -0.337459 0
M  V30 4161 H 383.152 -3.48718 -2.2957 0
M  V30 4162 H 384.542 -6.71768 0.132992 0
M  V30 4163 N 387.262 0.0317525 -1.57568 0
M  V30 4164 C 388.192 1.03274 -2.0942 0
M  V30 4165 C 389.173 1.3788 -0.996143 0
M  V30 4166 O 390.358 1.46811 -1.27122 0
M  V30 4167 C 387.488 2.33448 -2.57137 0
M  V30 4168 C 386.442 2.13091 -3.71182 0
M  V30 4169 C 385.768 3.49001 -4.05095 0
M  V30 4170 C 387.068 1.51928 -4.99715 0
M  V30 4171 H 388.762 0.60112 -2.93303 0
M  V30 4172 H 386.308 0.287705 -1.41097 0
M  V30 4173 H 388.261 3.03802 -2.92032 0
M  V30 4174 H 386.985 2.78665 -1.70333 0
M  V30 4175 H 385.644 1.45171 -3.36632 0
M  V30 4176 H 385.292 3.91862 -3.15362 0
M  V30 4177 H 384.992 3.36207 -4.81911 0
M  V30 4178 H 386.516 4.20721 -4.42522 0
M  V30 4179 H 387.93 2.12196 -5.32584 0
M  V30 4180 H 386.327 1.49716 -5.81124 0
M  V30 4181 H 387.397 0.484811 -4.8247 0
M  V30 4182 N 388.74 1.54641 0.303973 0
M  V30 4183 C 389.703 1.84646 1.35789 0
M  V30 4184 C 390.703 0.7192 1.4382 0
M  V30 4185 O 391.893 0.987491 1.43507 0
M  V30 4186 C 389.025 2.02407 2.74307 0
M  V30 4187 H 390.218 2.78829 1.10429 0
M  V30 4188 H 387.771 1.46658 0.540487 0
M  V30 4189 H 388.506 1.10502 3.04893 0
M  V30 4190 H 388.291 2.84453 2.69868 0
M  V30 4191 H 389.781 2.27002 3.50514 0
M  V30 4192 N 390.218 -0.567019 1.47046 0
M  V30 4193 C 391.148 -1.68482 1.61667 0
M  V30 4194 C 392.129 -1.6358 0.466418 0
M  V30 4195 O 393.314 -1.81354 0.694574 0
M  V30 4196 C 390.444 -3.07124 1.62148 0
M  V30 4197 C 389.398 -3.26867 2.76301 0
M  V30 4198 C 388.724 -4.66196 2.61849 0
M  V30 4199 C 390.024 -3.13186 4.17986 0
M  V30 4200 H 391.718 -1.56502 2.5524 0
M  V30 4201 H 389.264 -0.751486 1.22836 0
M  V30 4202 H 391.217 -3.8516 1.70968 0
M  V30 4203 H 389.941 -3.2004 0.651287 0
M  V30 4204 H 388.6 -2.51237 2.66975 0
M  V30 4205 H 388.248 -4.75898 1.62879 0
M  V30 4206 H 387.948 -4.80356 3.38425 0
M  V30 4207 H 389.472 -5.46379 2.72584 0
M  V30 4208 H 390.886 -3.81049 4.2834 0
M  V30 4209 H 389.283 -3.3886 4.95272 0
M  V30 4210 H 390.353 -2.10057 4.3704 0
M  V30 4211 N 391.696 -1.35014 -0.812953 0
M  V30 4212 C 392.944 -1.27678 -1.56661 0
M  V30 4213 C 393.265 0.150359 -1.94419 0
M  V30 4214 O 392.535 1.08532 -1.63088 0
M  V30 4215 H 391.115 -0.469602 -0.580933 0
M  V30 4216 H 393.777 -1.69043 -0.970076 0
M  V30 4217 H 392.873 -1.88833 -2.48492 0
M  V30 4218 N 393.175 1.03435 -1.18907 0
M  V30 4219 C 394.105 2.13503 -0.945448 0
M  V30 4220 C 395.086 1.69682 0.119189 0
M  V30 4221 O 396.271 1.94169 -0.034707 0
M  V30 4222 C 393.401 3.44004 -0.477316 0
M  V30 4223 C 392.355 4.0148 -1.48316 0
M  V30 4224 C 391.681 5.27537 -0.872311 0
M  V30 4225 C 392.981 4.36921 -2.86177 0
M  V30 4226 H 394.675 2.34141 -1.86597 0
M  V30 4227 H 392.221 1.12523 -0.898584 0
M  V30 4228 H 394.174 4.20372 -0.294204 0
M  V30 4229 H 392.898 3.23072 0.478786 0
M  V30 4230 H 391.557 3.27201 -1.65332 0
M  V30 4231 H 391.205 5.02917 0.0911752 0
M  V30 4232 H 390.905 5.66954 -1.54393 0
M  V30 4233 H 392.429 6.06576 -0.699871 0
M  V30 4234 H 393.843 5.04248 -2.72776 0
M  V30 4235 H 392.24 4.87405 -3.50081 0
M  V30 4236 H 393.31 3.46466 -3.39248 0
M  V30 4237 N 394.653 0.992116 1.22453 0
M  V30 4238 C 395.899 0.668523 1.91464 0
M  V30 4239 C 396.232 -0.797313 1.77078 0
M  V30 4240 O 395.507 -1.5765 1.13916 0
M  V30 4241 C 395.79 1.07424 3.43703 0
M  V30 4242 C 395.643 2.59857 3.67143 0
M  V30 4243 C 396.962 0.626891 4.35612 0
M  V30 4244 H 394.081 0.244341 0.695318 0
M  V30 4245 H 396.723 1.2355 1.44345 0
M  V30 4246 H 394.873 0.591816 3.83966 0
M  V30 4247 H 396.545 3.15764 3.3629 0
M  V30 4248 H 394.788 3.01961 3.11451 0
M  V30 4249 H 395.459 2.83296 4.73759 0
M  V30 4250 H 397.935 1.04125 4.02861 0
M  V30 4251 H 396.811 0.939076 5.40807 0
M  V30 4252 H 397.072 -0.472457 4.39568 0
M  V30 4253 N 396.131 -1.37776 0.765217 0
M  V30 4254 C 397.379 -1.99454 0.325943 0
M  V30 4255 C 397.7 -1.61049 -1.09947 0
M  V30 4256 O 396.97 -0.872821 -1.75381 0
M  V30 4257 H 395.55 -0.737697 0.117525 0
M  V30 4258 H 398.212 -1.68359 0.981895 0
M  V30 4259 H 397.308 -3.09547 0.398353 0
M  V30 4260 N 397.609 -0.515225 -1.4894 0
M  V30 4261 C 398.519 0.259774 -2.33157 0
M  V30 4262 C 399.535 0.953501 -1.45548 0
M  V30 4263 O 400.711 0.931735 -1.78552 0
M  V30 4264 C 397.776 1.30193 -3.21326 0
M  V30 4265 C 396.837 0.620129 -4.24797 0
M  V30 4266 C 396.07 1.61263 -5.08753 0
M  V30 4267 O 396.293 2.84389 -4.94448 0
M  V30 4268 O 395.227 1.16013 -5.90614 0
M  V30 4269 H 399.053 -0.429932 -3.00641 0
M  V30 4270 H 396.638 -0.276346 -1.46822 0
M  V30 4271 H 398.52 1.90455 -3.75905 0
M  V30 4272 H 397.195 1.97431 -2.56521 0
M  V30 4273 H 396.102 -0.0226019 -3.74093 0
M  V30 4274 H 397.435 -0.0100493 -4.92199 0
M  V30 4275 N 399.087 1.5561 -0.249682 0
M  V30 4276 C 400.335 1.98618 0.373548 0
M  V30 4277 C 400.656 1.13919 1.58264 0
M  V30 4278 O 399.926 0.222637 1.94631 0
M  V30 4279 H 398.506 0.733571 0.141006 0
M  V30 4280 H 401.168 1.91748 -0.349117 0
M  V30 4281 H 400.264 3.04584 0.680796 0
M  V30 4282 N 400.565 -0.0233959 1.57583 0
M  V30 4283 C 401.512 -1.02224 2.06927 0
M  V30 4284 C 402.482 -1.35575 0.959617 0
M  V30 4285 O 403.667 -1.45815 1.23055 0
M  V30 4286 C 400.807 -2.31636 2.5581 0
M  V30 4287 C 399.92 -2.04394 3.80588 0
M  V30 4288 C 399.055 -3.27717 4.18061 0
M  V30 4289 C 398.094 -2.96056 5.3574 0
M  V30 4290 N 397.231 -4.11847 5.68618 0
M  V30 4291 H 402.071 -0.594504 2.9201 0
M  V30 4292 H 399.608 -0.281921 1.44373 0
M  V30 4293 H 401.566 -3.07258 2.82221 0
M  V30 4294 H 400.196 -2.72122 1.73636 0
M  V30 4295 H 399.248 -1.19244 3.61227 0
M  V30 4296 H 400.56 -1.77042 4.66323 0
M  V30 4297 H 399.714 -4.11702 4.4563 0
M  V30 4298 H 398.453 -3.58188 3.30988 0
M  V30 4299 H 397.458 -2.10474 5.07918 0
M  V30 4300 H 398.683 -2.66857 6.24471 0
M  V30 4301 H 396.629 -4.42258 4.84504 0
M  V30 4302 H 396.546 -3.87938 6.48876 0
M  V30 4303 H 397.814 -4.96689 6.00766 0
M  V30 4304 N 402.043 -1.548 -0.295768 0
M  V30 4305 C 402.976 -1.81003 -1.38972 0
M  V30 4306 C 403.954 -0.661544 -1.48534 0
M  V30 4307 O 405.138 -0.902074 -1.65514 0
M  V30 4308 C 402.265 -1.95141 -2.76835 0
M  V30 4309 C 401.311 -3.17592 -2.84671 0
M  V30 4310 S 402.144 -4.75531 -2.46232 0
M  V30 4311 C 403.3 -4.92613 -3.86114 0
M  V30 4312 H 403.533 -2.73507 -1.16537 0
M  V30 4313 H 401.066 -1.46278 -0.494168 0
M  V30 4314 H 403.024 -2.03972 -3.56238 0
M  V30 4315 H 401.685 -1.03565 -2.96535 0
M  V30 4316 H 400.878 -3.24303 -3.85803 0
M  V30 4317 H 400.48 -3.07235 -2.13267 0
M  V30 4318 H 402.772 -4.76957 -4.81164 0
M  V30 4319 H 403.715 -5.94698 -3.8437 0
M  V30 4320 H 404.123 -4.2073 -3.76359 0
M  V30 4321 N 403.521 0.559213 -1.47345 0
M  V30 4322 C 404.767 1.31614 -1.55079 0
M  V30 4323 C 405.122 1.91257 -0.209422 0
M  V30 4324 O 404.415 1.74796 0.784656 0
M  V30 4325 C 404.609 2.44853 -2.6035 0
M  V30 4326 C 404.438 1.96305 -4.04591 0
M  V30 4327 C 403.208 1.8024 -4.72061 0
M  V30 4328 C 405.406 1.50872 -4.91673 0
M  V30 4329 N 403.388 1.26011 -6.00828 0
M  V30 4330 C 404.759 1.08395 -6.10451 0
M  V30 4331 C 406.814 1.38905 -4.78132 0
M  V30 4332 C 405.517 0.551399 -7.17183 0
M  V30 4333 C 407.543 0.870518 -5.84958 0
M  V30 4334 C 406.905 0.455661 -7.02925 0
M  V30 4335 H 403.004 0.473712 -0.62219 0
M  V30 4336 H 405.588 0.634103 -1.84085 0
M  V30 4337 H 403.759 3.10589 -2.33215 0
M  V30 4338 H 405.491 3.11849 -2.57938 0
M  V30 4339 H 402.246 2.02895 -4.27937 0
M  V30 4340 H 402.67 1.00991 -6.69425 0
M  V30 4341 H 407.312 1.69591 -3.87297 0
M  V30 4342 H 405.03 0.232159 -8.07766 0
M  V30 4343 H 408.616 0.781507 -5.76527 0
M  V30 4344 H 407.496 0.0606414 -7.84177 0
M  V30 4345 N 404.999 1.35443 0.805782 0
M  V30 4346 C 406.224 1.32037 1.59941 0
M  V30 4347 C 406.649 -0.0994215 1.87837 0
M  V30 4348 O 406.007 -1.06648 1.46615 0
M  V30 4349 C 406.055 2.13354 2.90711 0
M  V30 4350 O 405.159 1.5148 3.83572 0
M  V30 4351 H 404.5 0.452666 0.485787 0
M  V30 4352 H 407.03 1.78496 1.00002 0
M  V30 4353 H 407.04 2.25338 3.40128 0
M  V30 4354 H 405.715 3.16572 2.69732 0
M  V30 4355 H 404.292 1.4834 3.42125 0
M  V30 4356 N 406.477 -1.02803 1.19454 0
M  V30 4357 C 407.888 -1.57667 0.999899 0
M  V30 4358 C 408.239 -1.91041 -0.446956 0
M  V30 4359 O 407.364 -1.70978 -1.32648 0
M  V30 4360 C 407.959 -2.86477 1.80877 0
M  V30 4361 C 406.518 -3.37911 1.65811 0
M  V30 4362 C 405.665 -2.11343 1.79526 0
M  V30 4363 H 408.616 -0.853214 1.33813 0
M  V30 4364 H 408.637 -3.57408 1.30536 0
M  V30 4365 H 408.149 -2.62155 2.86175 0
M  V30 4366 H 406.25 -3.67218 0.63102 0
M  V30 4367 H 406.363 -4.10885 2.46395 0
M  V30 4368 H 404.727 -2.23254 1.22596 0
M  V30 4369 H 405.51 -1.89461 2.86285 0
M  V30 4370 N 407.956 -0.998596 -1.21925 0
M  V30 4371 C 408.903 -0.553621 -2.24062 0
M  V30 4372 C 409.873 0.416999 -1.6078 0
M  V30 4373 O 411.058 0.320482 -1.88089 0
M  V30 4374 C 408.198 0.119959 -3.44891 0
M  V30 4375 C 407.311 -0.893077 -4.22668 0
M  V30 4376 C 406.446 -0.192424 -5.30851 0
M  V30 4377 C 405.485 -1.19344 -6.00353 0
M  V30 4378 N 404.622 -0.520707 -7.00166 0
M  V30 4379 H 409.462 -1.4293 -2.61486 0
M  V30 4380 H 406.999 -0.715838 -1.28507 0
M  V30 4381 H 408.957 0.527459 -4.13852 0
M  V30 4382 H 407.587 0.959389 -3.08214 0
M  V30 4383 H 406.639 -1.41886 -3.52948 0
M  V30 4384 H 407.951 -1.65512 -4.70539 0
M  V30 4385 H 407.105 0.271515 -6.06092 0
M  V30 4386 H 405.844 0.602075 -4.83969 0
M  V30 4387 H 404.849 -1.66795 -5.23889 0
M  V30 4388 H 406.074 -1.98891 -6.49322 0
M  V30 4389 H 404.02 0.254252 -6.55507 0
M  V30 4390 H 403.937 -1.2211 -7.46073 0
M  V30 4391 H 405.205 -0.0797596 -7.79459 0
M  V30 4392 N 409.434 1.37368 -0.772513 0
M  V30 4393 C 410.659 2.0447 -0.347386 0
M  V30 4394 C 411.084 1.57882 1.0225 0
M  V30 4395 O 410.442 0.73941 1.65537 0
M  V30 4396 C 410.49 3.58369 -0.400479 0
M  V30 4397 O 409.594 4.0803 0.598789 0
M  V30 4398 H 408.935 0.646773 -0.15027 0
M  V30 4399 H 411.465 1.75667 -1.04892 0
M  V30 4400 H 411.475 4.07183 -0.258045 0
M  V30 4401 H 410.15 3.91633 -1.39986 0
M  V30 4402 H 408.727 3.70534 0.419411 0
M  V30 4403 N 410.912 0.523116 1.48665 0
M  V30 4404 C 412.16 -0.0134497 2.02096 0
M  V30 4405 C 412.481 -1.35418 1.40311 0
M  V30 4406 O 411.751 -1.87543 0.566074 0
M  V30 4407 H 410.331 -0.00795915 0.746958 0
M  V30 4408 H 412.993 0.685388 1.82451 0
M  V30 4409 H 412.089 -0.126849 3.11842 0
M  V30 4410 N 412.39 -1.55475 0.257931 0
M  V30 4411 C 413.636 -2.00237 -0.357338 0
M  V30 4412 C 413.991 -1.14313 -1.54759 0
M  V30 4413 O 413.284 -0.201187 -1.90541 0
M  V30 4414 C 413.478 -3.48183 -0.806433 0
M  V30 4415 C 413.307 -4.48422 0.338758 0
M  V30 4416 C 412.077 -4.98651 0.817011 0
M  V30 4417 C 414.275 -5.00827 1.16949 0
M  V30 4418 N 412.257 -5.82658 1.93346 0
M  V30 4419 C 413.628 -5.82113 2.13413 0
M  V30 4420 C 415.683 -4.83104 1.2048 0
M  V30 4421 C 414.386 -6.47566 3.13131 0
M  V30 4422 C 416.412 -5.49343 2.19034 0
M  V30 4423 C 415.774 -6.30427 3.14232 0
M  V30 4424 H 411.873 -0.776034 -0.0964083 0
M  V30 4425 H 414.457 -1.90995 0.37803 0
M  V30 4426 H 412.628 -3.57801 -1.51107 0
M  V30 4427 H 414.36 -3.79802 -1.39758 0
M  V30 4428 H 411.115 -4.71914 0.39925 0
M  V30 4429 H 411.539 -6.29356 2.49478 0
M  V30 4430 H 416.181 -4.20036 0.482634 0
M  V30 4431 H 413.899 -7.09793 3.8629 0
M  V30 4432 H 417.485 -5.37579 2.22485 0
M  V30 4433 H 416.365 -6.80777 3.89246 0
M  V30 4434 N 413.868 0.0150385 -1.57593 0
M  V30 4435 C 414.831 0.995996 -2.06428 0
M  V30 4436 C 415.831 1.2818 -0.970903 0
M  V30 4437 O 417.021 1.22949 -1.23406 0
M  V30 4438 C 414.153 2.32506 -2.49307 0
M  V30 4439 H 415.346 0.573873 -2.94358 0
M  V30 4440 H 412.899 0.262186 -1.54085 0
M  V30 4441 H 413.634 2.79438 -1.64575 0
M  V30 4442 H 413.419 2.13087 -3.29145 0
M  V30 4443 H 414.909 3.02906 -2.87468 0
M  V30 4444 N 415.346 1.54954 0.287554 0
M  V30 4445 C 416.623 1.65569 1.04146 0
M  V30 4446 C 417.003 0.512672 2.0478 0
M  V30 4447 O 416.351 -0.489038 2.23205 0
M  V30 4448 C 416.561 3.04163 1.71131 0
M  V30 4449 C 417.909 3.61429 2.22832 0
M  V30 4450 O 418.933 3.06702 1.81141 0
M  V30 4451 O 417.792 4.57281 2.9926 0
M  V30 4452 H 414.886 0.671881 0.482188 0
M  V30 4453 H 417.432 1.67297 0.28457 0
M  V30 4454 H 416.204 3.78796 0.981303 0
M  V30 4455 H 415.827 3.06271 2.53543 0
M  V30 4456 N 416.824 -0.551391 1.4764 0
M  V30 4457 C 417.787 -1.64007 1.60107 0
M  V30 4458 C 418.787 -1.53601 0.47576 0
M  V30 4459 O 419.977 -1.57655 0.740988 0
M  V30 4460 C 417.109 -3.03569 1.55108 0
M  V30 4461 H 418.302 -1.543 2.57161 0
M  V30 4462 H 415.855 -0.771776 1.35917 0
M  V30 4463 H 416.59 -3.18804 0.594519 0
M  V30 4464 H 416.375 -3.12532 2.36783 0
M  V30 4465 H 417.865 -3.82762 1.66982 0
M  V30 4466 N 418.302 -1.35869 -0.798587 0
M  V30 4467 C 419.249 -1.29446 -1.91082 0
M  V30 4468 C 420.219 -0.16487 -1.6528 0
M  V30 4469 O 421.404 -0.349888 -1.87564 0
M  V30 4470 C 418.544 -1.0804 -3.27752 0
M  V30 4471 C 417.657 -2.29993 -3.65687 0
M  V30 4472 C 416.792 -2.01673 -4.91428 0
M  V30 4473 C 415.831 -3.19636 -5.22015 0
M  V30 4474 N 414.968 -2.91039 -6.38937 0
M  V30 4475 H 419.808 -2.24553 -1.95907 0
M  V30 4476 H 417.345 -1.11615 -0.958148 0
M  V30 4477 H 419.303 -0.936586 -4.06551 0
M  V30 4478 H 417.933 -0.16592 -3.22373 0
M  V30 4479 H 416.985 -2.55211 -2.82085 0
M  V30 4480 H 418.297 -3.18052 -3.84245 0
M  V30 4481 H 417.451 -1.84168 -5.78072 0
M  V30 4482 H 416.19 -1.10911 -4.74921 0
M  V30 4483 H 415.195 -3.37709 -4.33858 0
M  V30 4484 H 416.42 -4.11211 -5.40447 0
M  V30 4485 H 414.366 -2.0288 -6.2384 0
M  V30 4486 H 414.283 -3.72635 -6.57784 0
M  V30 4487 H 415.551 -2.77093 -7.28587 0
M  V30 4488 N 419.78 1.02168 -1.19998 0
M  V30 4489 C 421.01 1.79036 -1.031 0
M  V30 4490 C 421.418 1.84409 0.423078 0
M  V30 4491 O 420.761 1.29228 1.30559 0
M  V30 4492 C 420.823 3.25185 -1.53281 0
M  V30 4493 C 420.487 3.43431 -3.01503 0
M  V30 4494 C 421.484 3.33063 -3.99206 0
M  V30 4495 C 419.169 3.69412 -3.40353 0
M  V30 4496 C 421.163 3.48413 -5.33748 0
M  V30 4497 C 418.85 3.84406 -4.75053 0
M  V30 4498 C 419.848 3.7391 -5.71559 0
M  V30 4499 O 419.536 3.88452 -7.03818 0
M  V30 4500 H 419.268 0.570043 -0.363355 0
M  V30 4501 H 421.822 1.29524 -1.59414 0
M  V30 4502 H 420.052 3.75756 -0.913483 0
M  V30 4503 H 421.741 3.83671 -1.32481 0
M  V30 4504 H 422.507 3.12934 -3.70537 0
M  V30 4505 H 418.386 3.76671 -2.65782 0
M  V30 4506 H 421.93 3.40137 -6.09059 0
M  V30 4507 H 417.827 4.04035 -5.03415 0
M  V30 4508 H 418.595 4.055 -7.10993 0
M  V30 4509 N 421.258 1.00505 1.21394 0
M  V30 4510 C 422.504 0.688793 1.90745 0
M  V30 4511 C 422.837 -0.778486 1.77914 0
M  V30 4512 O 422.112 -1.56433 1.15581 0
M  V30 4513 C 422.395 1.11063 3.42545 0
M  V30 4514 C 422.248 2.63737 3.64367 0
M  V30 4515 C 423.567 0.673059 4.34923 0
M  V30 4516 H 420.686 0.251702 0.692687 0
M  V30 4517 H 423.328 1.25074 1.43026 0
M  V30 4518 H 421.478 0.632508 3.83317 0
M  V30 4519 H 423.15 3.19313 3.32922 0
M  V30 4520 H 421.393 3.05248 3.08231 0
M  V30 4521 H 422.064 2.88305 4.70727 0
M  V30 4522 H 424.54 1.08392 4.01734 0
M  V30 4523 H 423.416 0.996383 5.39781 0
M  V30 4524 H 423.677 -0.425808 4.40045 0
M  V30 4525 N 422.737 -1.36956 0.779787 0
M  V30 4526 C 423.667 -2.32761 0.185651 0
M  V30 4527 C 424.648 -1.56177 -0.673989 0
M  V30 4528 O 425.833 -1.84378 -0.609797 0
M  V30 4529 C 422.963 -3.40418 -0.687964 0
M  V30 4530 C 421.917 -4.27941 0.0710102 0
M  V30 4531 C 421.243 -5.26681 -0.922573 0
M  V30 4532 C 422.543 -5.07006 1.25467 0
M  V30 4533 H 424.237 -2.82698 0.986008 0
M  V30 4534 H 421.783 -1.3592 0.475592 0
M  V30 4535 H 423.736 -4.06423 -1.11348 0
M  V30 4536 H 422.46 -2.89025 -1.52093 0
M  V30 4537 H 421.119 -3.63478 0.47739 0
M  V30 4538 H 420.767 -4.71565 -1.7503 0
M  V30 4539 H 420.467 -5.86103 -0.419237 0
M  V30 4540 H 421.991 -5.9556 -1.34686 0
M  V30 4541 H 423.405 -5.66105 0.905401 0
M  V30 4542 H 421.802 -5.75793 1.69063 0
M  V30 4543 H 422.872 -4.3921 2.05481 0
M  V30 4544 N 424.215 -0.530993 -1.48385 0
M  V30 4545 C 425.125 0.23503 -2.3342 0
M  V30 4546 C 426.141 0.93801 -1.46552 0
M  V30 4547 O 427.317 0.912745 -1.7953 0
M  V30 4548 C 424.382 1.26778 -3.22689 0
M  V30 4549 C 423.443 0.575038 -4.25431 0
M  V30 4550 C 422.676 1.55858 -5.10435 0
M  V30 4551 O 422.899 2.79129 -4.97437 0
M  V30 4552 O 421.833 1.09742 -5.91811 0
M  V30 4553 H 425.659 -0.461794 -3.00169 0
M  V30 4554 H 423.244 -0.291903 -1.46521 0
M  V30 4555 H 425.126 1.86457 -3.77904 0
M  V30 4556 H 423.801 1.94699 -2.586 0
M  V30 4557 H 422.708 -0.0622782 -3.74048 0
M  V30 4558 H 424.041 -0.062253 -4.92161 0
M  V30 4559 N 425.693 1.55336 -0.266172 0
M  V30 4560 C 426.656 2.20878 0.612001 0
M  V30 4561 C 427.656 1.18388 1.08816 0
M  V30 4562 O 428.846 1.4335 0.989774 0
M  V30 4563 C 425.978 2.86765 1.84332 0
M  V30 4564 H 427.171 2.99873 0.0398718 0
M  V30 4565 H 424.724 1.56291 -0.0167309 0
M  V30 4566 H 425.459 2.11759 2.45619 0
M  V30 4567 H 425.244 3.61862 1.5099 0
M  V30 4568 H 426.734 3.36867 2.46801 0
M  V30 4569 N 427.171 -0.0066808 1.57599 0
M  V30 4570 C 428.121 -1.0086 2.04478 0
M  V30 4571 C 429.105 -1.30714 0.938231 0
M  V30 4572 O 430.297 -1.29924 1.20203 0
M  V30 4573 C 427.426 -2.30273 2.54615 0
M  V30 4574 C 426.512 -2.03413 3.72134 0
M  V30 4575 N 426.903 -1.46688 4.84062 0
M  V30 4576 C 425.201 -2.33589 3.79937 0
M  V30 4577 C 425.902 -1.36146 5.65543 0
M  V30 4578 N 424.878 -1.84477 5.1134 0
M  V30 4579 H 428.68 -0.564402 2.8843 0
M  V30 4580 H 426.194 -0.212521 1.61003 0
M  V30 4581 H 428.191 -3.02885 2.86472 0
M  V30 4582 H 426.851 -2.75352 1.72079 0
M  V30 4583 H 427.862 -1.14658 5.05049 0
M  V30 4584 H 424.539 -2.81589 3.08243 0
M  V30 4585 H 425.929 -0.925873 6.6549 0
M  V30 4586 N 428.649 -1.55105 -0.279332 0
M  V30 4587 C 429.897 -1.75066 -1.00977 0
M  V30 4588 C 430.218 -0.551276 -1.87045 0
M  V30 4589 O 429.488 0.433984 -1.91032 0
M  V30 4590 H 428.068 -0.645578 -0.375816 0
M  V30 4591 H 430.73 -1.92497 -0.305089 0
M  V30 4592 H 429.826 -2.64894 -1.65038 0
M  V30 4593 N 430.127 0.543554 -1.4793 0
M  V30 4594 C 431.057 1.65888 -1.64327 0
M  V30 4595 C 432.038 1.62818 -0.492383 0
M  V30 4596 O 433.223 1.80226 -0.723338 0
M  V30 4597 C 430.353 3.04506 -1.67013 0
M  V30 4598 C 429.307 3.2243 -2.81466 0
M  V30 4599 C 428.633 4.61972 -2.69233 0
M  V30 4600 C 429.933 3.06496 -4.22915 0
M  V30 4601 H 431.627 1.52421 -2.57698 0
M  V30 4602 H 429.173 0.731849 -1.24016 0
M  V30 4603 H 431.126 3.82391 -1.77074 0
M  V30 4604 H 429.85 3.18964 -0.70212 0
M  V30 4605 H 428.509 2.46957 -2.70938 0
M  V30 4606 H 428.157 4.73247 -1.7043 0
M  V30 4607 H 427.857 4.74911 -3.46025 0
M  V30 4608 H 429.381 5.41974 -2.81242 0
M  V30 4609 H 430.795 3.74186 -4.34348 0
M  V30 4610 H 429.192 3.30938 -5.006 0
M  V30 4611 H 430.262 2.03077 -4.40327 0
M  V30 4612 N 431.605 1.3629 0.791371 0
M  V30 4613 C 432.552 1.30458 1.90393 0
M  V30 4614 C 433.522 0.173632 1.6519 0
M  V30 4615 O 434.707 0.35983 1.87376 0
M  V30 4616 C 431.847 1.09777 3.27174 0
M  V30 4617 C 430.96 2.31929 3.64462 0
M  V30 4618 C 430.095 2.04276 4.90352 0
M  V30 4619 C 429.134 3.224 5.20312 0
M  V30 4620 N 428.271 2.94424 6.37385 0
M  V30 4621 H 433.111 2.25589 1.94714 0
M  V30 4622 H 430.648 1.12122 0.952216 0
M  V30 4623 H 432.606 0.958133 4.06049 0
M  V30 4624 H 431.236 0.183014 3.22281 0
M  V30 4625 H 430.288 2.56703 2.80727 0
M  V30 4626 H 431.6 3.20085 3.82553 0
M  V30 4627 H 430.754 1.87231 5.77087 0
M  V30 4628 H 429.493 1.13428 4.74326 0
M  V30 4629 H 428.498 3.40005 4.32061 0
M  V30 4630 H 429.723 4.14071 5.38258 0
M  V30 4631 H 427.669 2.06185 6.22755 0
M  V30 4632 H 427.586 3.76118 6.55798 0
M  V30 4633 H 428.854 2.80953 7.27108 0
M  V30 4634 N 433.083 -1.0153 1.20538 0
M  V30 4635 C 434.494 -1.56598 1.01657 0
M  V30 4636 C 434.845 -1.91505 -0.426668 0
M  V30 4637 O 433.97 -1.72375 -1.30827 0
M  V30 4638 C 434.565 -2.84542 1.83905 0
M  V30 4639 C 433.124 -3.36133 1.69386 0
M  V30 4640 C 432.271 -2.09427 1.81757 0
M  V30 4641 H 435.222 -0.838974 1.34711 0
M  V30 4642 H 435.243 -3.56004 1.34319 0
M  V30 4643 H 434.755 -2.59105 2.8894 0
M  V30 4644 H 432.856 -3.66528 0.669933 0
M  V30 4645 H 432.969 -4.08248 2.50739 0
M  V30 4646 H 431.333 -2.21941 1.24957 0
M  V30 4647 H 432.116 -1.86414 2.88279 0
M  V30 4648 N 434.561 -1.01147 -1.20859 0
M  V30 4649 C 435.807 -0.698899 -1.90377 0
M  V30 4650 C 436.14 0.76904 -1.78324 0
M  V30 4651 O 435.415 1.55817 -1.16409 0
M  V30 4652 C 435.698 -1.12878 -3.41951 0
M  V30 4653 C 435.551 -2.65665 -3.62963 0
M  V30 4654 C 436.87 -0.696114 -4.3456 0
M  V30 4655 H 433.989 -0.255372 -0.691342 0
M  V30 4656 H 436.631 -1.25831 -1.42361 0
M  V30 4657 H 434.781 -0.652827 -3.82976 0
M  V30 4658 H 436.453 -3.21074 -3.31224 0
M  V30 4659 H 434.696 -3.06878 -3.06608 0
M  V30 4660 H 435.367 -2.90797 -4.69192 0
M  V30 4661 H 437.843 -1.10521 -4.01154 0
M  V30 4662 H 436.719 -1.025 -5.39245 0
M  V30 4663 H 436.98 0.402465 -4.40264 0
M  V30 4664 N 436.039 1.36541 -0.78704 0
M  V30 4665 C 437.288 1.98552 -0.35494 0
M  V30 4666 C 437.601 1.63171 1.07864 0
M  V30 4667 O 438.807 2.18399 1.61289 0
M  V30 4668 C 437.263 3.55136 -0.583671 0
M  V30 4669 C 436.871 3.99444 -2.02851 0
M  V30 4670 C 438.615 4.2395 -0.215957 0
M  V30 4671 C 436.522 5.48796 -2.20403 0
M  V30 4672 H 435.452 0.742888 -0.128972 0
M  V30 4673 H 438.103 1.5587 -0.968337 0
M  V30 4674 H 436.485 3.95875 0.0994046 0
M  V30 4675 H 437.659 3.6991 -2.74779 0
M  V30 4676 H 435.974 3.43459 -2.35425 0
M  V30 4677 H 438.571 5.33709 -0.325405 0
M  V30 4678 H 438.914 4.07827 0.835646 0
M  V30 4679 H 439.447 3.88565 -0.852175 0
M  V30 4680 H 436.186 5.69864 -3.23937 0
M  V30 4681 H 435.706 5.79964 -1.52977 0
M  V30 4682 H 437.385 6.14986 -2.01002 0
M  V30 4683 N 437.518 0.538854 1.48102 0
M  V30 4684 C 438.448 -0.207654 2.32575 0
M  V30 4685 C 439.429 -0.926559 1.4265 0
M  V30 4686 O 440.614 -0.91061 1.71527 0
M  V30 4687 C 437.744 -1.24957 3.24042 0
M  V30 4688 C 436.698 -0.648263 4.23062 0
M  V30 4689 C 436.024 -1.79348 5.03725 0
M  V30 4690 C 437.324 0.385897 5.20872 0
M  V30 4691 H 439.018 0.497534 2.95237 0
M  V30 4692 H 436.564 0.240715 1.41974 0
M  V30 4693 H 438.517 -1.77983 3.81969 0
M  V30 4694 H 437.241 -1.98446 2.59397 0
M  V30 4695 H 435.9 -0.139452 3.66335 0
M  V30 4696 H 435.548 -2.51696 4.35498 0
M  V30 4697 H 435.248 -1.39702 5.70751 0
M  V30 4698 H 436.772 -2.32735 5.64506 0
M  V30 4699 H 438.186 -0.057607 5.73271 0
M  V30 4700 H 436.583 0.700227 5.96001 0
M  V30 4701 H 437.653 1.28848 4.67468 0
M  V30 4702 N 438.996 -1.55193 0.274407 0
M  V30 4703 C 439.943 -2.225 -0.613374 0
M  V30 4704 C 440.913 -1.19823 -1.15029 0
M  V30 4705 O 442.098 -1.48362 -1.19973 0
M  V30 4706 C 439.238 -2.94927 -1.79199 0
M  V30 4707 C 438.351 -4.12322 -1.28899 0
M  V30 4708 C 437.486 -4.72394 -2.42934 0
M  V30 4709 C 436.525 -5.81984 -1.89634 0
M  V30 4710 N 435.662 -6.36123 -2.9714 0
M  V30 4711 H 440.502 -2.97982 -0.032756 0
M  V30 4712 H 438.039 -1.47099 -0.00440146 0
M  V30 4713 H 439.997 -3.35134 -2.48478 0
M  V30 4714 H 438.627 -2.2187 -2.34465 0
M  V30 4715 H 437.679 -3.7724 -0.489327 0
M  V30 4716 H 438.991 -4.91355 -0.858587 0
M  V30 4717 H 438.145 -5.15317 -3.20208 0
M  V30 4718 H 436.884 -3.92636 -2.8929 0
M  V30 4719 H 435.889 -5.38511 -1.1084 0
M  V30 4720 H 437.114 -6.6361 -1.44215 0
M  V30 4721 H 435.06 -5.59259 -3.42878 0
M  V30 4722 H 434.977 -7.10427 -2.58515 0
M  V30 4723 H 436.245 -6.83704 -3.74391 0
M  V30 4724 N 440.474 -0.00167713 -1.576 0
M  V30 4725 C 441.885 0.54091 -1.78693 0
M  V30 4726 C 442.236 1.7386 -0.909247 0
M  V30 4727 O 441.361 2.16109 -0.112176 0
M  V30 4728 C 441.956 0.98806 -3.24072 0
M  V30 4729 C 440.515 1.47594 -3.46256 0
M  V30 4730 C 439.662 0.42792 -2.73978 0
M  V30 4731 H 442.613 -0.22784 -1.57056 0
M  V30 4732 H 442.634 1.85398 -3.32277 0
M  V30 4733 H 442.146 0.116164 -3.87926 0
M  V30 4734 H 440.247 2.36868 -2.87618 0
M  V30 4735 H 440.36 1.50225 -4.54939 0
M  V30 4736 H 438.724 0.889934 -2.38647 0
M  V30 4737 H 439.507 -0.435038 -3.40532 0
M  V30 4738 N 441.952 1.55251 0.271103 0
M  V30 4739 C 442.899 1.88261 1.33516 0
M  V30 4740 C 443.869 0.734296 1.48988 0
M  V30 4741 O 445.054 0.985741 1.63364 0
M  V30 4742 C 442.194 2.16168 2.69008 0
M  V30 4743 C 441.307 3.43678 2.61743 0
M  V30 4744 C 440.442 3.61276 3.89427 0
M  V30 4745 C 439.481 4.82472 3.7668 0
M  V30 4746 N 438.618 4.96717 4.96202 0
M  V30 4747 H 443.458 2.79015 1.04665 0
M  V30 4748 H 440.995 1.38137 0.505618 0
M  V30 4749 H 442.953 2.30349 3.47844 0
M  V30 4750 H 441.583 1.28646 2.96057 0
M  V30 4751 H 440.635 3.37959 1.74607 0
M  V30 4752 H 441.947 4.3265 2.48224 0
M  V30 4753 H 441.101 3.75284 4.76704 0
M  V30 4754 H 439.84 2.70492 4.05814 0
M  V30 4755 H 438.845 4.68465 2.87786 0
M  V30 4756 H 440.07 5.74692 3.61809 0
M  V30 4757 H 438.016 4.08865 5.12997 0
M  V30 4758 H 437.933 5.79738 4.85222 0
M  V30 4759 H 439.201 5.15113 5.85046 0
M  V30 4760 N 443.43 -0.535701 1.48216 0
M  V30 4761 C 444.34 -1.66785 1.64985 0
M  V30 4762 C 445.356 -1.65654 0.532414 0
M  V30 4763 O 446.532 -1.8471 0.80275 0
M  V30 4764 C 443.597 -3.0326 1.68031 0
M  V30 4765 C 442.658 -3.1529 2.9136 0
M  V30 4766 C 441.891 -4.45255 2.94252 0
M  V30 4767 O 442.114 -5.32011 2.05719 0
M  V30 4768 O 441.048 -4.6153 3.86359 0
M  V30 4769 H 444.874 -1.55576 2.60825 0
M  V30 4770 H 442.459 -0.70815 1.31551 0
M  V30 4771 H 444.341 -3.84436 1.72589 0
M  V30 4772 H 443.016 -3.14805 0.753628 0
M  V30 4773 H 441.923 -2.3343 2.92337 0
M  V30 4774 H 443.256 -3.08658 3.83394 0
M  V30 4775 N 444.908 -1.36708 -0.784132 0
M  V30 4776 C 446.156 -1.30972 -1.53918 0
M  V30 4777 C 446.477 0.109086 -1.94695 0
M  V30 4778 O 445.747 1.05048 -1.65353 0
M  V30 4779 H 444.327 -0.481819 -0.570841 0
M  V30 4780 H 446.989 -1.71063 -0.934002 0
M  V30 4781 H 446.085 -1.94061 -2.44431 0
M  V30 4782 N 446.386 1.0089 -1.21074 0
M  V30 4783 C 447.316 2.1145 -0.990523 0
M  V30 4784 C 448.297 1.69897 0.0831699 0
M  V30 4785 O 449.482 1.94052 -0.0758853 0
M  V30 4786 C 446.612 3.42914 -0.550177 0
M  V30 4787 C 445.566 3.98244 -1.56799 0
M  V30 4788 C 444.892 5.25568 -0.984013 0
M  V30 4789 C 446.192 4.30752 -2.95381 0
M  V30 4790 H 447.886 2.3013 -1.91521 0
M  V30 4791 H 445.432 1.10592 -0.92225 0
M  V30 4792 H 447.385 4.19653 -0.383305 0
M  V30 4793 H 446.109 3.24014 0.41015 0
M  V30 4794 H 444.768 3.23621 -1.72236 0
M  V30 4795 H 444.416 5.02998 -0.0155216 0
M  V30 4796 H 444.116 5.63551 -1.66384 0
M  V30 4797 H 445.64 6.04955 -0.828378 0
M  V30 4798 H 447.054 4.98349 -2.8341 0
M  V30 4799 H 445.451 4.79869 -3.60341 0
M  V30 4800 H 446.521 3.39192 -3.46521 0
M  V30 4801 N 447.864 1.01787 1.20321 0
M  V30 4802 C 448.827 0.593972 2.2137 0
M  V30 4803 C 449.827 -0.336553 1.57239 0
M  V30 4804 O 451.017 -0.125069 1.7375 0
M  V30 4805 C 448.149 -0.132433 3.40643 0
M  V30 4806 H 449.342 1.48791 2.60387 0
M  V30 4807 H 446.895 0.807803 1.33807 0
M  V30 4808 H 447.63 -1.04123 3.0713 0
M  V30 4809 H 447.415 0.53605 3.88418 0
M  V30 4810 H 448.905 -0.416314 4.1552 0
M  V30 4811 N 449.342 -1.36122 0.79427 0
M  V30 4812 C 450.272 -2.32551 0.210328 0
M  V30 4813 C 451.253 -1.56884 -0.657386 0
M  V30 4814 O 452.438 -1.85014 -0.590207 0
M  V30 4815 C 449.568 -3.41128 -0.651819 0
M  V30 4816 C 448.522 -4.27842 0.116395 0
M  V30 4817 C 447.848 -5.2763 -0.86666 0
M  V30 4818 C 449.148 -5.05647 1.30837 0
M  V30 4819 H 450.842 -2.81636 1.01594 0
M  V30 4820 H 448.388 -1.35407 0.489981 0
M  V30 4821 H 450.341 -4.07581 -1.07031 0
M  V30 4822 H 449.065 -2.90622 -1.49019 0
M  V30 4823 H 447.724 -3.62952 0.515915 0
M  V30 4824 H 447.372 -4.73395 -1.70019 0
M  V30 4825 H 447.072 -5.86514 -0.35705 0
M  V30 4826 H 448.596 -5.96955 -1.28361 0
M  V30 4827 H 450.01 -5.65113 0.965393 0
M  V30 4828 H 448.407 -5.73967 1.75161 0
M  V30 4829 H 449.477 -4.37006 2.10128 0
M  V30 4830 N 450.82 -0.546701 -1.47814 0
M  V30 4831 C 452.069 -0.0166497 -2.01693 0
M  V30 4832 C 452.382 1.33721 -1.42752 0
M  V30 4833 O 453.588 1.95658 -1.8823 0
M  V30 4834 C 452.044 0.0206769 -3.59894 0
M  V30 4835 C 451.652 -1.3293 -4.27824 0
M  V30 4836 C 453.396 0.498674 -4.21561 0
M  V30 4837 C 451.303 -1.25165 -5.78003 0
M  V30 4838 H 450.233 -0.0024541 -0.753996 0
M  V30 4839 H 452.884 -0.692984 -1.69912 0
M  V30 4840 H 451.266 0.76244 -3.88591 0
M  V30 4841 H 452.44 -2.08795 -4.10781 0
M  V30 4842 H 450.755 -1.74438 -3.78101 0
M  V30 4843 H 453.352 0.575 -5.31599 0
M  V30 4844 H 453.695 1.5083 -3.88016 0
M  V30 4845 H 454.228 -0.18791 -3.97356 0
M  V30 4846 H 450.967 -2.23695 -6.1615 0
M  V30 4847 H 450.487 -0.53464 -5.97412 0
M  V30 4848 H 452.166 -0.949299 -6.39998 0
M  V30 4849 N 452.299 1.55045 -0.282633 0
M  V30 4850 C 453.247 2.24254 0.617478 0
M  V30 4851 C 454.241 1.24215 1.15183 0
M  V30 4852 O 455.447 1.42123 1.10459 0
M  V30 4853 H 451.822 0.719801 0.217693 0
M  V30 4854 H 453.793 2.98398 0.0110076 0
M  V30 4855 C 452.542 2.98281 1.78672 0
M  V30 4856 H 451.865 3.75053 1.38475 0
M  V30 4857 H 453.305 3.50017 2.393 0
M  V30 4858 C 451.764 2.04184 2.67975 0
M  V30 4859 O 452.294 1.59792 3.6855 0
M  V30 4860 N 450.5 1.70526 2.35307 0
M  V30 4861 H 450.047 2.06821 1.53567 0
M  V30 4862 H 450.005 1.07839 2.95327 0
M  V30 4863 N 453.777 0.010035 1.57597 0
M  V30 4864 C 455.025 -0.671371 1.90623 0
M  V30 4865 C 455.346 -1.73753 0.885151 0
M  V30 4866 O 454.616 -1.95752 -0.0760611 0
M  V30 4867 H 453.196 -0.250968 0.703579 0
M  V30 4868 H 455.858 0.0533325 1.94827 0
M  V30 4869 H 454.954 -1.13626 2.90681 0
M  V30 4870 N 455.255 -1.55392 -0.262866 0
M  V30 4871 C 456.483 -1.80513 -1.01108 0
M  V30 4872 C 456.898 -0.583533 -1.79556 0
M  V30 4873 O 456.255 0.447585 -1.76926 0
M  V30 4874 C 456.306 -3.03648 -1.96164 0
M  V30 4875 O 456.027 -4.2109 -1.20893 0
M  V30 4876 C 457.528 -3.41448 -2.82715 0
M  V30 4877 H 454.748 -0.601079 -0.298236 0
M  V30 4878 H 457.292 -2.02425 -0.290582 0
M  V30 4879 H 455.447 -2.83832 -2.63663 0
M  V30 4880 H 455.861 -4.90771 -1.85051 0
M  V30 4881 H 457.335 -4.30751 -3.45192 0
M  V30 4882 H 457.812 -2.61308 -3.53008 0
M  V30 4883 H 458.418 -3.63559 -2.20693 0
M  V30 4884 N 456.733 0.527833 -1.48498 0
M  V30 4885 C 457.665 1.6482 -1.5927 0
M  V30 4886 C 458.678 1.55659 -0.476869 0
M  V30 4887 O 459.867 1.62081 -0.747806 0
M  V30 4888 C 456.967 3.0348 -1.50842 0
M  V30 4889 C 456.14 3.381 -2.77502 0
M  V30 4890 C 455.199 4.5605 -2.62497 0
M  V30 4891 O 454.225 4.59165 -3.36387 0
M  V30 4892 N 455.427 5.54353 -1.72257 0
M  V30 4893 H 458.192 1.56015 -2.55889 0
M  V30 4894 H 455.753 0.715152 -1.45249 0
M  V30 4895 H 457.745 3.80264 -1.38496 0
M  V30 4896 H 456.315 3.06352 -0.621887 0
M  V30 4897 H 455.535 2.50473 -3.04396 0
M  V30 4898 H 456.823 3.58017 -3.61527 0
M  V30 4899 H 456.221 5.54617 -1.11431 0
M  V30 4900 H 454.778 6.30347 -1.65849 0
M  V30 4901 N 458.211 1.37122 0.776871 0
M  V30 4902 C 459.144 1.26835 1.89705 0
M  V30 4903 C 460.122 0.14992 1.61907 0
M  V30 4904 O 461.306 0.323242 1.85708 0
M  V30 4905 C 458.433 0.95986 3.24814 0
M  V30 4906 C 457.479 2.09447 3.7153 0
M  V30 4907 S 458.312 3.71368 3.85806 0
M  V30 4908 C 459.468 3.42659 5.23771 0
M  V30 4909 H 459.701 2.21647 1.98141 0
M  V30 4910 H 457.234 1.22685 0.937433 0
M  V30 4911 H 459.192 0.788696 4.02852 0
M  V30 4912 H 457.853 0.0293137 3.14086 0
M  V30 4913 H 457.046 1.8335 4.69467 0
M  V30 4914 H 456.648 2.2255 3.00578 0
M  V30 4915 H 458.94 2.9733 6.0877 0
M  V30 4916 H 459.883 4.39905 5.54878 0
M  V30 4917 H 460.291 2.77708 4.91466 0
M  V30 4918 N 459.689 -1.00246 1.21608 0
M  V30 4919 C 460.938 -1.73476 1.02902 0
M  V30 4920 C 461.251 -1.90643 -0.437561 0
M  V30 4921 O 462.457 -2.61105 -0.74407 0
M  V30 4922 C 460.913 -3.12079 1.79261 0
M  V30 4923 C 460.521 -3.02877 3.30106 0
M  V30 4924 C 462.265 -3.89421 1.68972 0
M  V30 4925 C 460.172 -4.36575 3.98944 0
M  V30 4926 H 459.102 -0.650408 0.381425 0
M  V30 4927 H 461.753 -1.11985 1.45367 0
M  V30 4928 H 460.135 -3.74196 1.2959 0
M  V30 4929 H 461.309 -2.49983 3.87098 0
M  V30 4930 H 459.624 -2.39022 3.40965 0
M  V30 4931 H 462.221 -4.88362 2.17731 0
M  V30 4932 H 462.564 -4.1122 0.648397 0
M  V30 4933 H 463.097 -3.33963 2.16133 0
M  V30 4934 H 459.836 -4.19978 5.03288 0
M  V30 4935 H 459.356 -4.8942 3.4674 0
M  V30 4936 H 461.035 -5.05364 4.04 0
M  V30 4937 N 461.167 -1.02423 -1.1978 0
M  V30 4938 C 462.395 -0.737456 -1.93311 0
M  V30 4939 C 462.81 0.703023 -1.75223 0
M  V30 4940 O 462.167 1.47761 -1.07112 0
M  V30 4941 C 462.218 -1.0733 -3.45199 0
M  V30 4942 O 461.939 -2.4572 -3.62702 0
M  V30 4943 C 463.44 -0.80866 -4.35862 0
M  V30 4944 H 460.66 -0.2702 -0.614193 0
M  V30 4945 H 463.204 -1.36747 -1.52054 0
M  V30 4946 H 461.359 -0.488545 -3.84307 0
M  V30 4947 H 461.773 -2.58081 -4.56612 0
M  V30 4948 H 463.247 -1.09365 -5.41057 0
M  V30 4949 H 463.724 0.257025 -4.38447 0
M  V30 4950 H 464.33 -1.37592 -4.02428 0
M  V30 4951 N 462.645 1.35699 -0.801477 0
M  V30 4952 C 463.87 2.03687 -0.390678 0
M  V30 4953 C 464.295 1.60015 0.988778 0
M  V30 4954 O 463.653 0.774357 1.63931 0
M  V30 4955 C 463.701 3.57439 -0.476404 0
M  V30 4956 O 462.805 4.09208 0.512106 0
M  V30 4957 H 462.146 0.64344 -0.163956 0
M  V30 4958 H 464.676 1.73403 -1.08594 0
M  V30 4959 H 464.686 4.06544 -0.344357 0
M  V30 4960 H 463.361 3.88576 -1.48262 0
M  V30 4961 H 461.938 3.7134 0.340721 0
M  V30 4962 N 464.123 0.554532 1.47522 0
M  V30 4963 C 465.053 -0.182974 2.32782 0
M  V30 4964 C 466.034 -0.911377 1.43624 0
M  V30 4965 O 467.219 -0.892366 1.72483 0
M  V30 4966 C 464.349 -1.21513 3.25349 0
M  V30 4967 C 463.303 -0.603355 4.23726 0
M  V30 4968 C 462.629 -1.73995 5.05598 0
M  V30 4969 C 463.929 0.441121 5.20434 0
M  V30 4970 H 465.623 0.52882 2.94693 0
M  V30 4971 H 463.169 0.255759 1.41711 0
M  V30 4972 H 465.122 -1.73922 3.83835 0
M  V30 4973 H 463.846 -1.95683 2.61487 0
M  V30 4974 H 462.505 -0.10059 3.66462 0
M  V30 4975 H 462.153 -2.47063 4.38143 0
M  V30 4976 H 461.853 -1.3364 5.72201 0
M  V30 4977 H 463.377 -2.26735 5.66942 0
M  V30 4978 H 464.791 0.00319931 5.733 0
M  V30 4979 H 463.188 0.763402 5.95224 0
M  V30 4980 H 464.258 1.33799 4.66075 0
M  V30 4981 N 465.601 -1.54893 0.290851 0
M  V30 4982 C 466.849 -1.99538 -0.320756 0
M  V30 4983 C 467.17 -1.18075 -1.55188 0
M  V30 4984 O 466.44 -0.274162 -1.93972 0
M  V30 4985 H 465.02 -0.737052 -0.121507 0
M  V30 4986 H 467.682 -1.90755 0.399832 0
M  V30 4987 H 466.778 -3.06282 -0.599802 0
M  V30 4988 N 467.08 -0.0183926 -1.57589 0
M  V30 4989 C 468.32 0.666846 -1.93216 0
M  V30 4990 C 468.684 1.69905 -0.894215 0
M  V30 4991 O 469.885 2.436 -1.13633 0
M  V30 4992 C 468.156 1.27684 -3.33814 0
M  V30 4993 S 469.715 1.98464 -3.91353 0
M  V30 4994 H 466.533 0.219826 -0.676164 0
M  V30 4995 H 469.135 -0.0794893 -1.95338 0
M  V30 4996 H 467.839 0.513006 -4.07181 0
M  V30 4997 H 467.37 2.06071 -3.3511 0
M  V30 4998 H 469.385 3.26189 -3.73918 0
M  V30 4999 N 468.558 1.5553 0.254621 0
M  V30 5000 C 469.468 1.92789 1.33677 0
M  V30 5001 C 470.484 0.827356 1.53071 0
M  V30 5002 O 471.66 1.12807 1.66843 0
M  V30 5003 C 468.725 2.20827 2.67275 0
M  V30 5004 C 467.786 3.4427 2.5647 0
M  V30 5005 C 467.019 3.70961 3.83697 0
M  V30 5006 O 467.242 2.99852 4.85227 0
M  V30 5007 O 466.176 4.64491 3.82794 0
M  V30 5008 H 470.002 2.84945 1.05071 0
M  V30 5009 H 467.587 1.42312 0.454723 0
M  V30 5010 H 469.469 2.40204 3.46237 0
M  V30 5011 H 468.144 1.31851 2.9563 0
M  V30 5012 H 467.051 3.30209 1.75821 0
M  V30 5013 H 468.384 4.33524 2.33062 0
M  V30 5014 N 470.036 -0.519951 1.48776 0
M  V30 5015 C 470.999 -1.60574 1.6355 0
M  V30 5016 C 471.999 -1.52557 0.508234 0
M  V30 5017 O 473.189 -1.56047 0.774262 0
M  V30 5018 C 470.321 -3.00211 1.61512 0
M  V30 5019 H 471.514 -1.4881 2.60376 0
M  V30 5020 H 469.067 -0.742772 1.37523 0
M  V30 5021 H 469.802 -3.17471 0.662009 0
M  V30 5022 H 469.587 -3.07439 2.43359 0
M  V30 5023 H 471.077 -3.79134 1.75064 0
M  V30 5024 N 471.514 -1.37532 -0.769588 0
M  V30 5025 C 472.76 -1.33057 -1.53048 0
M  V30 5026 C 473.093 0.0841865 -1.94017 0
M  V30 5027 O 472.368 1.04198 -1.64235 0
M  V30 5028 C 472.651 -2.27166 -2.79406 0
M  V30 5029 C 472.504 -3.77429 -2.44677 0
M  V30 5030 C 473.823 -2.19683 -3.81349 0
M  V30 5031 H 470.942 -0.484655 -0.555228 0
M  V30 5032 H 473.584 -1.68251 -0.882702 0
M  V30 5033 H 471.734 -1.97283 -3.34682 0
M  V30 5034 H 473.406 -4.17918 -1.953 0
M  V30 5035 H 471.649 -3.95892 -1.77346 0
M  V30 5036 H 472.32 -4.38716 -3.35011 0
M  V30 5037 H 474.796 -2.46029 -3.35573 0
M  V30 5038 H 473.672 -2.87668 -4.67481 0
M  V30 5039 H 473.933 -1.19045 -4.25771 0
M  V30 5040 N 472.992 0.995999 -1.22138 0
M  V30 5041 C 473.902 2.11985 -1.00496 0
M  V30 5042 C 474.918 1.7394 0.0457701 0
M  V30 5043 O 476.094 2.00868 -0.146273 0
M  V30 5044 C 473.159 3.41779 -0.582086 0
M  V30 5045 C 472.22 3.93943 -1.70608 0
M  V30 5046 C 471.453 5.17542 -1.30328 0
M  V30 5047 O 471.676 5.70114 -0.180743 0
M  V30 5048 O 470.61 5.63382 -2.11861 0
M  V30 5049 H 474.436 2.33123 -1.94647 0
M  V30 5050 H 472.021 1.10358 -1.00705 0
M  V30 5051 H 473.903 4.1989 -0.356467 0
M  V30 5052 H 472.578 3.22007 0.330592 0
M  V30 5053 H 471.485 3.17019 -1.98619 0
M  V30 5054 H 472.818 4.18141 -2.59651 0
M  V30 5055 N 474.47 1.03057 1.19235 0
M  V30 5056 C 475.886 0.747947 1.40989 0
M  V30 5057 C 476.086 -0.666752 1.90149 0
M  V30 5058 O 475.142 -1.43249 2.07933 0
M  V30 5059 C 476.455 1.7855 2.41951 0
M  V30 5060 C 478.003 1.80524 2.55695 0
M  V30 5061 C 478.478 2.83243 3.59913 0
M  V30 5062 N 479.969 2.8207 3.67411 0
M  V30 5063 C 480.704 3.58204 4.47747 0
M  V30 5064 N 480.2 4.44057 5.31775 0
M  V30 5065 N 481.993 3.46738 4.42413 0
M  V30 5066 H 474.144 1.94367 0.856468 0
M  V30 5067 H 476.407 0.840412 0.438647 0
M  V30 5068 H 476.113 2.79973 2.12857 0
M  V30 5069 H 475.987 1.6092 3.41152 0
M  V30 5070 H 478.374 0.79778 2.84112 0
M  V30 5071 H 478.455 2.02229 1.56643 0
M  V30 5072 H 478.099 3.84161 3.32239 0
M  V30 5073 H 478.029 2.58795 4.5862 0
M  V30 5074 H 480.52 2.19803 3.074 0
M  V30 5075 H 480.833 4.98884 5.90199 0
M  V30 5076 H 479.178 4.48129 5.3123 0
M  V30 5077 H 482.369 2.79077 3.75811 0
M  V30 5078 H 482.542 4.06322 5.04783 0
M  V30 5079 N 475.948 -1.35272 0.808662 0
M  V30 5080 C 476.911 -2.28082 0.226093 0
M  V30 5081 C 477.911 -1.49673 -0.587762 0
M  V30 5082 O 479.101 -1.69404 -0.405943 0
M  V30 5083 C 476.233 -3.33955 -0.684596 0
M  V30 5084 H 477.426 -2.81116 1.04469 0
M  V30 5085 H 474.979 -1.45162 0.579466 0
M  V30 5086 H 475.714 -2.86111 -1.5268 0
M  V30 5087 H 475.499 -3.91965 -0.102699 0
M  V30 5088 H 476.989 -4.03219 -1.08646 0
M  V30 5089 N 477.426 -0.562348 -1.47226 0
M  V30 5090 C 478.651 -0.0432632 -2.07355 0
M  V30 5091 C 479.076 1.24332 -1.41149 0
M  V30 5092 O 478.434 1.74603 -0.488226 0
M  V30 5093 C 478.482 0.130288 -3.60365 0
M  V30 5094 O 477.586 1.19166 -3.94808 0
M  V30 5095 H 476.927 -0.0536334 -0.66183 0
M  V30 5096 H 479.457 -0.779495 -1.89169 0
M  V30 5097 H 479.467 0.342881 -4.06557 0
M  V30 5098 H 478.142 -0.809389 -4.07948 0
M  V30 5099 H 476.719 0.959153 -3.60354 0
M  V30 5100 N 478.904 1.54736 -0.299062 0
M  V30 5101 C 479.867 2.22127 0.565012 0
M  V30 5102 C 480.867 1.20669 1.06281 0
M  V30 5103 O 482.057 1.45417 0.959145 0
M  V30 5104 C 479.189 2.90611 1.78208 0
M  V30 5105 H 480.382 2.99891 -0.0237448 0
M  V30 5106 H 477.935 1.5622 -0.0498788 0
M  V30 5107 H 478.67 2.16921 2.41072 0
M  V30 5108 H 478.455 3.64984 1.43281 0
M  V30 5109 H 479.945 3.42026 2.396 0
M  V30 5110 N 480.382 0.0267497 1.57577 0
M  V30 5111 C 481.631 -0.651736 1.9088 0
M  V30 5112 C 481.944 -1.73427 0.904576 0
M  V30 5113 O 483.15 -2.46923 1.12877 0
M  V30 5114 C 481.606 -1.21048 3.38933 0
M  V30 5115 C 481.214 -0.161362 4.47709 0
M  V30 5116 C 482.958 -1.86562 3.81307 0
M  V30 5117 C 480.865 -0.731611 5.86857 0
M  V30 5118 H 479.795 -0.247198 0.712326 0
M  V30 5119 H 482.446 0.0916641 1.83271 0
M  V30 5120 H 480.828 -2.00542 3.41466 0
M  V30 5121 H 482.002 0.61094 4.56732 0
M  V30 5122 H 480.317 0.394877 4.14523 0
M  V30 5123 H 482.914 -2.30178 4.8262 0
M  V30 5124 H 483.257 -2.70735 3.16241 0
M  V30 5125 H 483.79 -1.13762 3.81186 0
M  V30 5126 H 480.529 0.0719329 6.55461 0
M  V30 5127 H 480.049 -1.47245 5.81445 0
M  V30 5128 H 481.728 -1.22208 6.35354 0
M  V30 5129 N 481.861 -1.55662 -0.24637 0
M  V30 5130 C 482.824 -1.89558 -1.28842 0
M  V30 5131 C 483.824 -0.772082 -1.41052 0
M  V30 5132 O 485.014 -1.04007 -1.39743 0
M  V30 5133 C 482.146 -2.12449 -2.66605 0
M  V30 5134 H 483.339 -2.82735 -1.00004 0
M  V30 5135 H 480.892 -1.48562 -0.485684 0
M  V30 5136 H 481.627 -1.21742 -3.00582 0
M  V30 5137 H 481.412 -2.94273 -2.59125 0
M  V30 5138 H 482.902 -2.39854 -3.41847 0
M  V30 5139 N 483.339 0.512053 -1.4905 0
M  V30 5140 C 484.755 0.84224 -1.35567 0
M  V30 5141 C 484.955 1.97878 -0.380319 0
M  V30 5142 O 484.011 2.51769 0.19201 0
M  V30 5143 C 485.324 1.19286 -2.76028 0
M  V30 5144 C 486.872 1.30171 -2.84648 0
M  V30 5145 C 487.347 1.68568 -4.25851 0
M  V30 5146 N 488.838 1.75638 -4.28609 0
M  V30 5147 C 489.573 2.06769 -5.34821 0
M  V30 5148 N 489.069 2.36201 -6.51292 0
M  V30 5149 N 490.862 2.07927 -5.22229 0
M  V30 5150 H 483.013 -0.237574 -2.11067 0
M  V30 5151 H 485.276 -0.0436747 -0.946993 0
M  V30 5152 H 484.982 0.431199 -3.49047 0
M  V30 5153 H 484.856 2.13889 -3.10695 0
M  V30 5154 H 487.243 2.05411 -2.11873 0
M  V30 5155 H 487.324 0.336457 -2.53578 0
M  V30 5156 H 486.968 0.938824 -4.99148 0
M  V30 5157 H 486.898 2.66174 -4.54377 0
M  V30 5158 H 489.389 1.55097 -3.44606 0
M  V30 5159 H 489.702 2.59112 -7.28066 0
M  V30 5160 H 488.047 2.33681 -6.54536 0
M  V30 5161 H 491.238 1.84403 -4.30248 0
M  V30 5162 H 491.411 2.31856 -6.05101 0
M  V30 5163 N 484.817 1.37938 0.762283 0
M  V30 5164 C 485.749 1.30349 1.88525 0
M  V30 5165 C 486.762 0.217402 1.61342 0
M  V30 5166 O 487.951 0.474291 1.72084 0
M  V30 5167 C 485.051 0.994844 3.23969 0
M  V30 5168 C 484.224 2.18829 3.78725 0
M  V30 5169 C 483.283 1.84844 4.92665 0
M  V30 5170 O 482.309 2.57244 5.07754 0
M  V30 5171 N 483.511 0.798201 5.74986 0
M  V30 5172 H 486.276 2.27114 1.95549 0
M  V30 5173 H 483.837 1.31686 0.941825 0
M  V30 5174 H 485.829 0.748168 3.97724 0
M  V30 5175 H 484.399 0.115446 3.12387 0
M  V30 5176 H 483.619 2.59615 2.96637 0
M  V30 5177 H 484.907 2.98497 4.1204 0
M  V30 5178 H 484.305 0.197611 5.65355 0
M  V30 5179 H 482.862 0.611396 6.48926 0
M  V30 5180 N 486.295 -0.989507 1.22664 0
M  V30 5181 C 487.258 -2.06183 1.00106 0
M  V30 5182 C 488.258 -1.60765 -0.0337726 0
M  V30 5183 O 489.448 -1.72989 0.205072 0
M  V30 5184 C 486.58 -3.37021 0.51279 0
M  V30 5185 H 487.773 -2.27629 1.95256 0
M  V30 5186 H 485.326 -1.16158 1.0458 0
M  V30 5187 H 486.061 -3.21261 -0.442917 0
M  V30 5188 H 485.846 -3.71323 1.25942 0
M  V30 5189 H 487.336 -4.1591 0.375315 0
M  V30 5190 N 487.773 -1.03688 -1.18687 0
M  V30 5191 C 489.05 -0.652397 -1.84399 0
M  V30 5192 C 489.43 0.868386 -1.92412 0
M  V30 5193 O 488.778 1.76832 -1.44716 0
M  V30 5194 C 488.988 -1.3238 -3.22919 0
M  V30 5195 C 490.336 -1.45216 -3.98996 0
M  V30 5196 O 491.36 -1.2816 -3.32345 0
M  V30 5197 O 490.219 -1.72975 -5.18403 0
M  V30 5198 H 487.313 -0.227793 -0.795009 0
M  V30 5199 H 489.859 -1.13553 -1.2611 0
M  V30 5200 H 488.631 -2.36202 -3.11968 0
M  V30 5201 H 488.254 -0.829039 -3.88861 0
M  V30 5202 N 489.251 1.34841 -0.815825 0
M  V30 5203 C 490.5 1.97755 -0.396976 0
M  V30 5204 C 490.813 1.65422 1.04379 0
M  V30 5205 O 492.019 2.21771 1.5662 0
M  V30 5206 C 490.475 3.53818 -0.658869 0
M  V30 5207 C 490.083 3.95051 -2.11278 0
M  V30 5208 C 491.827 4.23397 -0.305834 0
M  V30 5209 C 489.734 5.43997 -2.31994 0
M  V30 5210 H 488.664 0.739985 -0.1447 0
M  V30 5211 H 491.315 1.53781 -1.00118 0
M  V30 5212 H 489.697 3.95997 0.0154112 0
M  V30 5213 H 490.871 3.63998 -2.82564 0
M  V30 5214 H 489.186 3.38388 -2.42657 0
M  V30 5215 H 491.783 5.32899 -0.43854 0
M  V30 5216 H 492.126 4.09508 0.748952 0
M  V30 5217 H 492.659 3.8667 -0.934403 0
M  V30 5218 H 489.398 5.62865 -3.35952 0
M  V30 5219 H 488.918 5.76589 -1.65244 0
M  V30 5220 H 490.597 6.10584 -2.14001 0
M  V30 5221 N 490.729 0.570148 1.46925 0
M  V30 5222 C 491.975 0.0510284 2.02736 0
M  V30 5223 C 492.308 -1.3006 1.44215 0
M  V30 5224 O 491.583 -1.84932 0.602521 0
M  V30 5225 C 491.866 -0.028215 3.60089 0
M  V30 5226 C 491.719 1.35142 4.29018 0
M  V30 5227 C 493.038 -0.735181 4.33916 0
M  V30 5228 H 490.157 0.0200178 0.736728 0
M  V30 5229 H 492.799 0.73493 1.75211 0
M  V30 5230 H 490.949 -0.610648 3.83671 0
M  V30 5231 H 492.621 1.97806 4.16738 0
M  V30 5232 H 490.864 1.9226 3.88868 0
M  V30 5233 H 491.535 1.24857 5.37694 0
M  V30 5234 H 494.011 -0.240519 4.15404 0
M  V30 5235 H 492.887 -0.759622 5.43618 0
M  V30 5236 H 493.148 -1.79397 4.04066 0
M  V30 5237 N 492.207 -1.54576 0.307264 0
M  V30 5238 C 493.17 -2.22423 -0.553224 0
M  V30 5239 C 494.17 -1.21231 -1.05639 0
M  V30 5240 O 495.36 -1.45923 -0.951419 0
M  V30 5241 C 492.492 -2.91552 -1.76664 0
M  V30 5242 H 493.685 -2.99874 0.0396484 0
M  V30 5243 H 491.238 -1.56192 0.0581629 0
M  V30 5244 H 491.973 -2.18196 -2.39918 0
M  V30 5245 H 491.758 -3.65738 -1.41343 0
M  V30 5246 H 493.248 -3.43292 -2.37783 0
M  V30 5247 N 493.685 -0.035106 -1.57561 0
M  V30 5248 C 494.648 0.929819 -2.09492 0
M  V30 5249 C 495.648 1.25026 -1.01119 0
M  V30 5250 O 496.838 1.18961 -1.27255 0
M  V30 5251 C 493.97 2.24457 -2.56577 0
M  V30 5252 H 495.163 0.479935 -2.96035 0
M  V30 5253 H 492.716 0.213033 -1.54841 0
M  V30 5254 H 493.451 2.74061 -1.73382 0
M  V30 5255 H 493.236 2.02508 -3.35757 0
M  V30 5256 H 494.726 2.93607 -2.96959 0
M  V30 5257 N 495.163 1.55791 0.238111 0
M  V30 5258 C 496.093 1.94068 1.29846 0
M  V30 5259 C 497.074 0.806726 1.49753 0
M  V30 5260 O 498.259 1.06772 1.62214 0
M  V30 5261 C 495.389 2.24302 2.65153 0
M  V30 5262 C 494.343 3.40032 2.59927 0
M  V30 5263 C 493.669 3.55829 3.99111 0
M  V30 5264 C 494.969 4.75476 2.16148 0
M  V30 5265 H 496.663 2.82887 0.980563 0
M  V30 5266 H 494.209 1.36105 0.470253 0
M  V30 5267 H 496.162 2.4967 3.39475 0
M  V30 5268 H 494.886 1.32318 2.98596 0
M  V30 5269 H 493.545 3.14687 1.88063 0
M  V30 5270 H 493.193 2.6125 4.29834 0
M  V30 5271 H 492.893 4.3366 3.96501 0
M  V30 5272 H 494.417 3.83528 4.7512 0
M  V30 5273 H 495.831 5.00158 2.80205 0
M  V30 5274 H 494.228 5.56472 2.24631 0
M  V30 5275 H 495.298 4.71946 1.11333 0
M  V30 5276 N 496.642 -0.504142 1.49319 0
M  V30 5277 C 497.87 -1.28256 1.62351 0
M  V30 5278 C 498.285 -1.86502 0.293682 0
M  V30 5279 O 497.642 -1.67678 -0.720449 0
M  V30 5280 C 497.693 -2.41507 2.68992 0
M  V30 5281 O 497.414 -1.85656 3.96817 0
M  V30 5282 C 498.915 -3.32929 2.927 0
M  V30 5283 H 496.135 -0.389115 0.546654 0
M  V30 5284 H 498.679 -0.605531 1.95329 0
M  V30 5285 H 496.834 -3.05046 2.38801 0
M  V30 5286 H 497.248 -2.59981 4.55533 0
M  V30 5287 H 498.722 -4.0868 3.71058 0
M  V30 5288 H 499.199 -3.89733 2.02496 0
M  V30 5289 H 499.805 -2.75158 3.24296 0
M  V30 5290 N 498.12 -1.38341 -0.754957 0
M  V30 5291 C 499.05 -1.38176 -1.88227 0
M  V30 5292 C 500.031 -0.247873 -1.68284 0
M  V30 5293 O 501.216 -0.45075 -1.88896 0
M  V30 5294 C 498.346 -1.20471 -3.25736 0
M  V30 5295 C 497.3 -2.3105 -3.60278 0
M  V30 5296 C 496.626 -1.98452 -4.96509 0
M  V30 5297 C 497.926 -3.73305 -3.65295 0
M  V30 5298 H 499.62 -2.32512 -1.88622 0
M  V30 5299 H 497.166 -1.1192 -0.906082 0
M  V30 5300 H 499.119 -1.18982 -4.04254 0
M  V30 5301 H 497.843 -0.225965 -3.25817 0
M  V30 5302 H 496.502 -2.31723 -2.84078 0
M  V30 5303 H 496.15 -0.990641 -4.93148 0
M  V30 5304 H 495.85 -2.7251 -5.20588 0
M  V30 5305 H 497.374 -1.98578 -5.77407 0
M  V30 5306 H 498.788 -3.7467 -4.3393 0
M  V30 5307 H 497.185 -4.46557 -4.00883 0
M  V30 5308 H 498.255 -4.05719 -2.65556 0
M  V30 5309 N 499.598 0.982988 -1.23187 0
M  V30 5310 C 500.508 2.10907 -1.02739 0
M  V30 5311 C 501.524 1.73979 0.0273188 0
M  V30 5312 O 502.7 2.00702 -0.16757 0
M  V30 5313 C 499.765 3.41142 -0.618304 0
M  V30 5314 C 498.826 3.92112 -1.74777 0
M  V30 5315 C 498.059 5.16131 -1.3581 0
M  V30 5316 O 498.282 5.6989 -0.241201 0
M  V30 5317 O 497.216 5.61103 -2.17824 0
M  V30 5318 H 501.042 2.31046 -1.97108 0
M  V30 5319 H 498.627 1.09284 -1.01869 0
M  V30 5320 H 500.509 4.19488 -0.400982 0
M  V30 5321 H 499.184 3.2234 0.296421 0
M  V30 5322 H 498.091 3.14895 -2.0197 0
M  V30 5323 H 499.424 4.15364 -2.64071 0
M  V30 5324 N 501.076 1.04316 1.18135 0
M  V30 5325 C 502.322 0.749128 1.88457 0
M  V30 5326 C 502.655 -0.72149 1.803 0
M  V30 5327 O 501.93 -1.52676 1.205 0
M  V30 5328 C 502.213 1.21905 3.38838 0
M  V30 5329 C 502.066 2.75195 3.55792 0
M  V30 5330 C 503.385 0.811085 4.32561 0
M  V30 5331 H 500.504 0.273611 0.684329 0
M  V30 5332 H 503.146 1.29561 1.38975 0
M  V30 5333 H 501.296 0.754137 3.8111 0
M  V30 5334 H 502.968 3.29743 3.22595 0
M  V30 5335 H 501.211 3.14899 2.98364 0
M  V30 5336 H 501.882 3.03135 4.61317 0
M  V30 5337 H 504.358 1.21118 3.98082 0
M  V30 5338 H 503.234 1.16761 5.36338 0
M  V30 5339 H 503.495 -0.285596 4.41177 0
M  V30 5340 N 502.554 -1.34406 0.822964 0
M  V30 5341 C 503.484 -2.32052 0.259608 0
M  V30 5342 C 504.465 -1.58243 -0.623961 0
M  V30 5343 O 505.65 -1.86224 -0.55083 0
M  V30 5344 C 502.78 -3.42434 -0.579314 0
M  V30 5345 C 501.734 -4.27499 0.20712 0
M  V30 5346 C 501.06 -5.29349 -0.754547 0
M  V30 5347 C 502.36 -5.02758 1.41533 0
M  V30 5348 H 504.054 -2.79418 1.07545 0
M  V30 5349 H 501.6 -1.34338 0.518593 0
M  V30 5350 H 503.553 -4.0976 -0.983612 0
M  V30 5351 H 502.277 -2.93717 -1.4282 0
M  V30 5352 H 500.936 -3.61776 0.592787 0
M  V30 5353 H 500.584 -4.76895 -1.59939 0
M  V30 5354 H 500.284 -5.8714 -0.232561 0
M  V30 5355 H 501.808 -5.99544 -1.1567 0
M  V30 5356 H 503.222 -5.62938 1.08504 0
M  V30 5357 H 501.619 -5.70123 1.87296 0
M  V30 5358 H 502.689 -4.32451 2.1935 0
M  V30 5359 N 504.032 -0.577932 -1.46621 0
M  V30 5360 C 504.979 0.158048 -2.30258 0
M  V30 5361 C 505.949 0.888669 -1.40328 0
M  V30 5362 O 507.134 0.880283 -1.6928 0
M  V30 5363 C 504.274 1.16884 -3.24703 0
M  V30 5364 C 503.387 0.442163 -4.29731 0
M  V30 5365 C 502.522 1.44007 -5.11308 0
M  V30 5366 C 501.561 0.69952 -6.0809 0
M  V30 5367 N 500.698 1.64525 -6.82551 0
M  V30 5368 H 505.538 -0.561242 -2.92667 0
M  V30 5369 H 503.075 -0.288591 -1.44241 0
M  V30 5370 H 505.033 1.7677 -3.779 0
M  V30 5371 H 503.663 1.85591 -2.64113 0
M  V30 5372 H 502.715 -0.271632 -3.79429 0
M  V30 5373 H 504.027 -0.136992 -4.98612 0
M  V30 5374 H 503.181 2.11186 -5.68758 0
M  V30 5375 H 501.92 2.05315 -4.42377 0
M  V30 5376 H 500.925 0.0139217 -5.49798 0
M  V30 5377 H 502.15 0.091894 -6.79038 0
M  V30 5378 H 500.096 2.24653 -6.16334 0
M  V30 5379 H 500.013 1.11878 -7.47676 0
M  V30 5380 H 501.281 2.30754 -7.44562 0
M  V30 5381 N 505.51 1.54411 -0.315457 0
M  V30 5382 C 506.758 2.00023 0.288971 0
M  V30 5383 C 507.079 1.20529 1.5329 0
M  V30 5384 O 506.349 0.304986 1.93511 0
M  V30 5385 H 504.929 0.738891 0.109766 0
M  V30 5386 H 507.591 1.90094 -0.430129 0
M  V30 5387 H 506.687 3.07198 0.550999 0
M  V30 5388 N 506.988 0.0434614 1.5754 0
M  V30 5389 C 508.216 -0.641835 1.96693 0
M  V30 5390 C 508.631 -1.64832 0.920652 0
M  V30 5391 O 507.988 -1.82247 -0.095993 0
M  V30 5392 C 508.039 -1.33557 3.35924 0
M  V30 5393 O 507.76 -0.369403 4.3654 0
M  V30 5394 C 509.261 -2.11135 3.89791 0
M  V30 5395 H 506.481 -0.176013 0.647503 0
M  V30 5396 H 509.025 0.107478 2.04217 0
M  V30 5397 H 507.18 -2.03617 3.29574 0
M  V30 5398 H 507.594 -0.863674 5.1734 0
M  V30 5399 H 509.068 -2.55107 4.89514 0
M  V30 5400 H 509.545 -2.95634 3.24803 0
M  V30 5401 H 510.151 -1.46002 3.99454 0
M  V30 5402 N 508.466 -1.55915 -0.229846 0
M  V30 5403 C 509.694 -1.82617 -0.972562 0
M  V30 5404 C 510.109 -0.621488 -1.78278 0
M  V30 5405 O 509.466 0.409956 -1.77836 0
M  V30 5406 C 509.517 -3.0774 -1.89679 0
M  V30 5407 O 509.238 -4.23559 -1.11934 0
M  V30 5408 C 510.739 -3.47368 -2.75409 0
M  V30 5409 H 507.959 -0.60727 -0.285419 0
M  V30 5410 H 510.503 -2.02996 -0.247579 0
M  V30 5411 H 508.658 -2.89361 -2.57583 0
M  V30 5412 H 509.072 -4.94586 -1.74599 0
M  V30 5413 H 510.546 -4.37977 -3.35977 0
M  V30 5414 H 511.023 -2.68737 -3.47386 0
M  V30 5415 H 511.629 -3.68158 -2.12931 0
M  V30 5416 N 509.944 0.496216 -1.49584 0
M  V30 5417 C 510.891 1.59722 -1.66606 0
M  V30 5418 C 511.861 1.58158 -0.507477 0
M  V30 5419 O 513.046 1.76072 -0.735076 0
M  V30 5420 C 510.186 2.97844 -1.74308 0
M  V30 5421 C 509.299 3.09388 -3.01502 0
M  V30 5422 C 508.434 4.38271 -3.00153 0
M  V30 5423 C 507.473 4.43466 -4.21906 0
M  V30 5424 N 506.61 5.63784 -4.1844 0
M  V30 5425 H 511.45 1.44515 -2.60613 0
M  V30 5426 H 508.987 0.703048 -1.29212 0
M  V30 5427 H 510.945 3.77907 -1.76754 0
M  V30 5428 H 509.575 3.11743 -0.837619 0
M  V30 5429 H 508.627 2.22357 -3.08645 0
M  V30 5430 H 509.939 3.09085 -3.91494 0
M  V30 5431 H 509.093 5.2666 -3.01188 0
M  V30 5432 H 507.832 4.41146 -2.07947 0
M  V30 5433 H 506.837 3.53478 -4.21109 0
M  V30 5434 H 508.062 4.42303 -5.1531 0
M  V30 5435 H 506.008 5.67491 -3.29074 0
M  V30 5436 H 505.925 5.65118 -5.02173 0
M  V30 5437 H 507.193 6.54367 -4.23585 0
M  V30 5438 N 511.423 1.38739 0.74761 0
M  V30 5439 C 512.386 1.36241 1.84312 0
M  V30 5440 C 513.386 0.261811 1.58654 0
M  V30 5441 O 514.576 0.519031 1.66288 0
M  V30 5442 C 511.708 1.12253 3.21888 0
M  V30 5443 H 512.901 2.33712 1.87933 0
M  V30 5444 H 510.454 1.2412 0.949946 0
M  V30 5445 H 511.189 0.154133 3.23934 0
M  V30 5446 H 510.974 1.91943 3.41907 0
M  V30 5447 H 512.464 1.13215 4.0196 0
M  V30 5448 N 512.901 -0.976442 1.23707 0
M  V30 5449 C 514.148 -1.71827 1.07153 0
M  V30 5450 C 514.476 -1.9053 -0.390982 0
M  V30 5451 O 513.731 -1.45779 -1.30564 0
M  V30 5452 C 514.03 -3.11814 1.74662 0
M  V30 5453 C 513.696 -3.12978 3.24585 0
M  V30 5454 C 512.358 -3.13003 3.6549 0
M  V30 5455 C 514.71 -3.07986 4.20469 0
M  V30 5456 C 512.038 -3.05757 5.00729 0
M  V30 5457 C 514.39 -3.02282 5.55705 0
M  V30 5458 C 513.054 -3.00631 5.95968 0
M  V30 5459 H 512.324 -0.628758 0.392102 0
M  V30 5460 H 514.971 -1.14239 1.53693 0
M  V30 5461 H 513.276 -3.72812 1.20492 0
M  V30 5462 H 514.973 -3.67989 1.59328 0
M  V30 5463 H 511.563 -3.13718 2.92026 0
M  V30 5464 H 515.747 -3.07103 3.89874 0
M  V30 5465 H 511.003 -3.02834 5.31132 0
M  V30 5466 H 515.177 -2.97376 6.29714 0
M  V30 5467 H 512.804 -2.94771 7.00724 0
M  V30 5468 N 514.379 -1.04941 -1.1758 0
M  V30 5469 C 515.656 -0.671918 -1.83697 0
M  V30 5470 C 516.036 0.847929 -1.93322 0
M  V30 5471 O 515.384 1.75287 -1.46583 0
M  V30 5472 C 515.594 -1.35797 -3.21497 0
M  V30 5473 C 516.942 -1.4944 -3.97433 0
M  V30 5474 O 517.966 -1.31678 -3.30967 0
M  V30 5475 O 516.825 -1.78463 -5.1654 0
M  V30 5476 H 513.919 -0.236212 -0.792548 0
M  V30 5477 H 516.465 -1.14884 -1.24899 0
M  V30 5478 H 515.237 -2.39498 -3.09446 0
M  V30 5479 H 514.86 -0.870236 -3.8796 0
M  V30 5480 N 515.857 1.33968 -0.830081 0
M  V30 5481 C 517.085 2.0228 -0.434773 0
M  V30 5482 C 517.5 1.62487 0.961419 0
M  V30 5483 O 516.857 0.833849 1.62337 0
M  V30 5484 C 516.908 3.5751 -0.535625 0
M  V30 5485 O 516.629 3.95864 -1.87679 0
M  V30 5486 C 518.13 4.43091 -0.136137 0
M  V30 5487 H 515.35 0.648151 -0.173613 0
M  V30 5488 H 517.894 1.71089 -1.12022 0
M  V30 5489 H 516.049 3.87266 0.101817 0
M  V30 5490 H 516.463 4.9056 -1.85609 0
M  V30 5491 H 517.937 5.51398 -0.257772 0
M  V30 5492 H 518.414 4.29433 0.921076 0
M  V30 5493 H 519.02 4.18677 -0.747662 0
M  V30 5494 N 517.335 0.585699 1.46312 0
M  V30 5495 C 518.612 0.00542031 1.95599 0
M  V30 5496 C 518.992 -1.45619 1.52834 0
M  V30 5497 O 518.34 -2.14759 0.780446 0
M  V30 5498 C 518.55 0.180601 3.48532 0
M  V30 5499 C 519.898 0.049979 4.24571 0
M  V30 5500 O 520.922 0.109589 3.56031 0
M  V30 5501 O 519.781 -0.0832226 5.46437 0
M  V30 5502 H 516.875 -0.0481281 0.825598 0
M  V30 5503 H 519.421 0.654227 1.56582 0
M  V30 5504 H 518.193 1.19657 3.72556 0
M  V30 5505 H 517.816 -0.504498 3.94386 0
M  V30 5506 N 518.813 -1.54241 0.323641 0
M  V30 5507 C 520.062 -1.9975 -0.279806 0
M  V30 5508 C 520.375 -1.2156 -1.5324 0
M  V30 5509 O 521.581 -1.57447 -2.21185 0
M  V30 5510 C 520.037 -3.55686 -0.549115 0
M  V30 5511 C 519.645 -4.4271 0.686432 0
M  V30 5512 C 521.389 -4.09663 -1.11251 0
M  V30 5513 C 519.296 -5.90119 0.389022 0
M  V30 5514 H 518.226 -0.746177 -0.10833 0
M  V30 5515 H 520.877 -1.78248 0.435877 0
M  V30 5516 H 519.259 -3.73176 -1.32499 0
M  V30 5517 H 520.433 -4.36996 1.46188 0
M  V30 5518 H 518.748 -3.99623 1.17005 0
M  V30 5519 H 521.345 -5.17386 -1.34965 0
M  V30 5520 H 521.688 -3.61651 -2.06191 0
M  V30 5521 H 522.221 -3.95806 -0.39782 0
M  V30 5522 H 518.96 -6.42326 1.30759 0
M  V30 5523 H 518.48 -5.98785 -0.348722 0
M  V30 5524 H 520.159 -6.47 -0.0011164 0
M  V30 5525 N 520.291 -0.0518155 -1.57515 0
M  V30 5526 C 521.241 0.932017 -2.0808 0
M  V30 5527 C 522.225 1.27141 -0.986098 0
M  V30 5528 O 523.417 1.25373 -1.24943 0
M  V30 5529 C 520.546 2.20665 -2.62986 0
M  V30 5530 C 519.632 1.89462 -3.79427 0
M  V30 5531 N 520.023 1.28621 -4.89173 0
M  V30 5532 C 518.321 2.19327 -3.88345 0
M  V30 5533 C 519.022 1.15062 -5.70207 0
M  V30 5534 N 517.998 1.65372 -5.17835 0
M  V30 5535 H 521.8 0.456964 -2.90326 0
M  V30 5536 H 519.314 0.152619 -1.61681 0
M  V30 5537 H 521.311 2.92044 -2.97516 0
M  V30 5538 H 519.971 2.68776 -1.8218 0
M  V30 5539 H 520.982 0.958341 -5.08956 0
M  V30 5540 H 517.659 2.69955 -3.18482 0
M  V30 5541 H 519.049 0.678243 -6.68468 0
M  V30 5542 N 521.769 1.56035 0.221574 0
M  V30 5543 C 522.732 1.91584 1.2581 0
M  V30 5544 C 523.732 0.794425 1.39805 0
M  V30 5545 O 524.922 1.06217 1.38071 0
M  V30 5546 C 522.054 2.16663 2.63192 0
M  V30 5547 H 523.247 2.8429 0.954935 0
M  V30 5548 H 520.8 1.49316 0.461988 0
M  V30 5549 H 521.535 1.26508 2.98607 0
M  V30 5550 H 521.32 2.98358 2.5441 0
M  V30 5551 H 522.81 2.45262 3.37988 0
M  V30 5552 N 523.247 -0.488276 1.49845 0
M  V30 5553 C 524.177 -1.59675 1.70371 0
M  V30 5554 C 525.158 -1.60878 0.552473 0
M  V30 5555 O 526.343 -1.77417 0.78973 0
M  V30 5556 C 523.473 -2.98098 1.782 0
M  V30 5557 C 522.427 -3.11761 2.93239 0
M  V30 5558 C 521.753 -4.51661 2.86193 0
M  V30 5559 C 523.053 -2.90589 4.33999 0
M  V30 5560 H 524.747 -1.42752 2.63177 0
M  V30 5561 H 522.293 -0.685317 1.26647 0
M  V30 5562 H 524.246 -3.75555 1.91144 0
M  V30 5563 H 522.97 -3.16138 0.820018 0
M  V30 5564 H 521.629 -2.36732 2.79917 0
M  V30 5565 H 521.277 -4.66595 1.87877 0
M  V30 5566 H 520.977 -4.61742 3.63412 0
M  V30 5567 H 522.501 -5.31162 3.01163 0
M  V30 5568 H 523.915 -3.57807 4.47936 0
M  V30 5569 H 522.312 -3.1213 5.12538 0
M  V30 5570 H 523.382 -1.86595 4.4756 0
M  V30 5571 N 524.725 -1.39134 -0.740242 0
M  V30 5572 C 526.141 -1.20623 -1.0451 0
M  V30 5573 C 526.341 -0.0641651 -2.01398 0
M  V30 5574 O 525.397 0.585843 -2.4561 0
M  V30 5575 C 526.71 -2.53815 -1.6124 0
M  V30 5576 C 528.258 -2.60615 -1.73346 0
M  V30 5577 C 528.733 -3.94015 -2.33486 0
M  V30 5578 N 530.224 -3.95627 -2.40902 0
M  V30 5579 C 530.959 -4.95616 -2.88361 0
M  V30 5580 N 530.455 -6.06003 -3.35756 0
M  V30 5581 N 532.248 -4.82998 -2.87523 0
M  V30 5582 H 524.399 -2.12176 -0.0975576 0
M  V30 5583 H 526.662 -0.942066 -0.105904 0
M  V30 5584 H 526.368 -3.37911 -0.975144 0
M  V30 5585 H 526.242 -2.73162 -2.6012 0
M  V30 5586 H 528.629 -1.76906 -2.36195 0
M  V30 5587 H 528.71 -2.45123 -0.731336 0
M  V30 5588 H 528.354 -4.78153 -1.71267 0
M  V30 5589 H 528.284 -4.06825 -3.34366 0
M  V30 5590 H 530.775 -3.15903 -2.07398 0
M  V30 5591 H 531.088 -6.78215 -3.70464 0
M  V30 5592 H 529.433 -6.09604 -3.33778 0
M  V30 5593 H 532.624 -3.95866 -2.49816 0
M  V30 5594 H 532.797 -5.61072 -3.24196 0
M  V30 5595 N 526.204 0.969867 -1.24223 0
M  V30 5596 C 527.615 1.52717 -1.07399 0
M  V30 5597 C 527.966 1.92956 0.355298 0
M  V30 5598 O 527.091 1.77112 1.2434 0
M  V30 5599 C 527.686 2.77521 -1.94339 0
M  V30 5600 C 526.245 3.29615 -1.81744 0
M  V30 5601 C 525.392 2.02537 -1.89405 0
M  V30 5602 H 528.343 0.788399 -1.37732 0
M  V30 5603 H 528.364 3.50773 -1.47439 0
M  V30 5604 H 527.876 2.48203 -2.98357 0
M  V30 5605 H 525.977 3.63789 -0.805505 0
M  V30 5606 H 526.09 3.98661 -2.65718 0
M  V30 5607 H 524.454 2.17151 -1.33108 0
M  V30 5608 H 525.237 1.75587 -2.94999 0
M  V30 5609 N 527.682 1.05563 1.17022 0
M  V30 5610 C 528.632 0.630007 2.19123 0
M  V30 5611 C 529.616 -0.335472 1.57364 0
M  V30 5612 O 530.808 -0.1521 1.76345 0
M  V30 5613 C 527.937 0.0101676 3.43298 0
M  V30 5614 C 527.023 0.999698 4.12149 0
M  V30 5615 N 527.414 2.17251 4.56766 0
M  V30 5616 C 525.712 0.829 4.38228 0
M  V30 5617 C 526.413 2.79883 5.09942 0
M  V30 5618 N 525.389 2.07656 5.02374 0
M  V30 5619 H 529.191 1.52353 2.51328 0
M  V30 5620 H 526.705 0.926288 1.33393 0
M  V30 5621 H 528.702 -0.312541 4.15727 0
M  V30 5622 H 527.362 -0.878707 3.12584 0
M  V30 5623 H 528.373 2.55067 4.50734 0
M  V30 5624 H 525.05 -0.00850974 4.17499 0
M  V30 5625 H 526.44 3.79362 5.54558 0
M  V30 5626 N 529.16 -1.33526 0.837174 0
M  V30 5627 C 530.576 -1.50727 0.524743 0
M  V30 5628 C 530.776 -1.77792 -0.948279 0
M  V30 5629 O 529.832 -1.83719 -1.73216 0
M  V30 5630 C 531.145 -2.66299 1.39661 0
M  V30 5631 C 532.693 -2.80183 1.39521 0
M  V30 5632 C 533.168 -3.98815 2.25189 0
M  V30 5633 N 534.659 -4.06047 2.2289 0
M  V30 5634 C 535.394 -4.97032 2.85915 0
M  V30 5635 N 534.89 -5.93143 3.57985 0
M  V30 5636 N 536.683 -4.90015 2.75394 0
M  V30 5637 H 528.834 -1.1422 1.79074 0
M  V30 5638 H 531.097 -0.561399 0.763894 0
M  V30 5639 H 530.803 -2.52974 2.4433 0
M  V30 5640 H 530.677 -3.61663 1.07145 0
M  V30 5641 H 533.064 -2.92942 0.356253 0
M  V30 5642 H 533.145 -1.85586 1.76044 0
M  V30 5643 H 532.789 -3.86817 3.29143 0
M  V30 5644 H 532.719 -4.92654 1.86009 0
M  V30 5645 H 535.21 -3.37262 1.70478 0
M  V30 5646 H 535.523 -6.59227 4.03286 0
M  V30 5647 H 533.868 -5.93223 3.62093 0
M  V30 5648 H 537.059 -4.13894 2.18654 0
M  V30 5649 H 537.232 -5.60724 3.24796 0
M  V30 5650 N 530.638 -0.59345 -1.46 0
M  V30 5651 C 531.886 -0.082988 -2.0193 0
M  V30 5652 C 532.207 1.28569 -1.46612 0
M  V30 5653 O 531.477 1.84629 -0.654909 0
M  V30 5654 H 530.057 -0.0276882 -0.746487 0
M  V30 5655 H 532.719 -0.771657 -1.78973 0
M  V30 5656 H 531.815 -0.022079 -3.12092 0
M  V30 5657 N 532.116 1.54067 -0.331816 0
M  V30 5658 C 533.048 2.22139 0.564538 0
M  V30 5659 C 534.061 1.22408 1.07332 0
M  V30 5660 O 535.25 1.4883 0.985481 0
M  V30 5661 C 532.35 2.87876 1.78831 0
M  V30 5662 C 531.523 4.13817 1.41682 0
M  V30 5663 C 530.582 4.63072 2.49901 0
M  V30 5664 O 529.608 5.27562 2.13699 0
M  V30 5665 N 530.81 4.38001 3.80967 0
M  V30 5666 H 533.575 2.99694 -0.0183736 0
M  V30 5667 H 531.136 1.61153 -0.155396 0
M  V30 5668 H 533.128 3.17747 2.50637 0
M  V30 5669 H 531.698 2.13977 2.27887 0
M  V30 5670 H 530.918 3.9062 0.530044 0
M  V30 5671 H 532.206 4.95762 1.14443 0
M  V30 5672 H 531.604 3.864 4.13173 0
M  V30 5673 H 530.161 4.72507 4.48977 0
M  V30 5674 N 533.594 0.0601682 1.57485 0
M  V30 5675 C 534.843 -0.611101 1.9222 0
M  V30 5676 C 535.156 -1.71469 0.941159 0
M  V30 5677 O 536.362 -2.44473 1.18089 0
M  V30 5678 C 534.818 -1.13832 3.41424 0
M  V30 5679 C 534.426 -0.0663596 4.47951 0
M  V30 5680 C 536.17 -1.78432 3.85178 0
M  V30 5681 C 534.077 -0.606965 5.88277 0
M  V30 5682 H 533.007 -0.232033 0.71741 0
M  V30 5683 H 535.658 0.130518 1.83035 0
M  V30 5684 H 534.04 -1.93254 3.45643 0
M  V30 5685 H 535.214 0.707682 4.55333 0
M  V30 5686 H 533.529 0.482715 4.13593 0
M  V30 5687 H 536.126 -2.1989 4.87394 0
M  V30 5688 H 536.469 -2.63966 3.21913 0
M  V30 5689 H 537.002 -1.05651 3.83514 0
M  V30 5690 H 533.741 0.21095 6.5516 0
M  V30 5691 H 533.261 -1.34879 5.84438 0
M  V30 5692 H 534.94 -1.08704 6.37803 0
M  V30 5693 N 535.072 -1.5615 -0.213296 0
M  V30 5694 C 535.982 -1.96265 -1.28519 0
M  V30 5695 C 536.998 -0.86765 -1.50824 0
M  V30 5696 O 538.174 -1.17191 -1.63793 0
M  V30 5697 C 535.239 -2.27836 -2.61327 0
M  V30 5698 C 534.3 -3.50949 -2.47252 0
M  V30 5699 C 533.533 -3.81004 -3.73727 0
M  V30 5700 O 533.756 -3.12612 -4.77106 0
M  V30 5701 O 532.69 -4.74477 -3.70344 0
M  V30 5702 H 536.516 -2.87631 -0.974795 0
M  V30 5703 H 534.101 -1.43467 -0.416832 0
M  V30 5704 H 535.983 -2.49299 -3.39747 0
M  V30 5705 H 534.658 -1.39643 -2.9203 0
M  V30 5706 H 533.565 -3.34754 -1.67004 0
M  V30 5707 H 534.898 -4.39551 -2.21486 0
M  V30 5708 N 536.55 0.480323 -1.50102 0
M  V30 5709 C 537.796 1.23489 -1.60867 0
M  V30 5710 C 538.129 1.91809 -0.303827 0
M  V30 5711 O 537.404 1.81694 0.694092 0
M  V30 5712 C 537.687 2.28578 -2.78252 0
M  V30 5713 C 537.54 1.64624 -4.18592 0
M  V30 5714 C 538.859 3.2997 -2.91218 0
M  V30 5715 H 535.978 0.447605 -0.585507 0
M  V30 5716 H 538.62 0.530005 -1.82458 0
M  V30 5717 H 536.77 2.88697 -2.59974 0
M  V30 5718 H 538.442 1.08173 -4.48438 0
M  V30 5719 H 536.685 0.949645 -4.23278 0
M  V30 5720 H 537.356 2.40946 -4.96638 0
M  V30 5721 H 539.832 2.79864 -3.07921 0
M  V30 5722 H 538.708 4.00839 -3.74993 0
M  V30 5723 H 538.969 3.93541 -2.0144 0
M  V30 5724 N 538.028 1.39524 0.732853 0
M  V30 5725 C 538.991 1.38189 1.82857 0
M  V30 5726 C 539.991 0.278624 1.58368 0
M  V30 5727 O 541.181 0.536639 1.65728 0
M  V30 5728 C 538.313 1.15661 3.2068 0
M  V30 5729 H 539.506 2.35692 1.85444 0
M  V30 5730 H 537.059 1.2512 0.936728 0
M  V30 5731 H 537.794 0.188482 3.23752 0
M  V30 5732 H 537.579 1.95559 3.39852 0
M  V30 5733 H 539.069 1.17472 4.00737 0
M  V30 5734 N 539.506 -0.963266 1.24736 0
M  V30 5735 C 540.753 -1.7068 1.0897 0
M  V30 5736 C 541.081 -1.90934 -0.370751 0
M  V30 5737 O 540.336 -1.47155 -1.29011 0
M  V30 5738 C 540.635 -3.09944 1.7796 0
M  V30 5739 C 540.301 -3.09518 3.27887 0
M  V30 5740 C 538.963 -3.09109 3.68789 0
M  V30 5741 C 541.315 -3.03509 4.23712 0
M  V30 5742 C 538.643 -3.00429 5.03944 0
M  V30 5743 C 540.995 -2.96371 5.5888 0
M  V30 5744 C 539.659 -2.94293 5.99123 0
M  V30 5745 H 538.929 -0.624564 0.398749 0
M  V30 5746 H 541.576 -1.12603 1.54896 0
M  V30 5747 H 539.881 -3.71513 1.2444 0
M  V30 5748 H 541.578 -3.66278 1.63222 0
M  V30 5749 H 538.168 -3.10603 2.95337 0
M  V30 5750 H 542.352 -3.0295 3.93109 0
M  V30 5751 H 537.608 -2.97183 5.34314 0
M  V30 5752 H 541.782 -2.90681 6.32833 0
M  V30 5753 H 539.409 -2.87322 7.03811 0
M  V30 5754 N 540.985 -1.06182 -1.16461 0
M  V30 5755 C 542.401 -0.785065 -1.38956 0
M  V30 5756 C 542.601 0.616103 -1.9185 0
M  V30 5757 O 541.657 1.37686 -2.11657 0
M  V30 5758 C 542.97 -1.84902 -2.37132 0
M  V30 5759 C 544.518 -1.8724 -2.50819 0
M  V30 5760 C 544.993 -2.92686 -3.52277 0
M  V30 5761 N 546.484 -2.91712 -3.59803 0
M  V30 5762 C 547.219 -3.69949 -4.38093 0
M  V30 5763 N 546.715 -4.58 -5.19815 0
M  V30 5764 N 548.508 -3.58346 -4.33064 0
M  V30 5765 H 540.659 -1.96569 -0.804634 0
M  V30 5766 H 542.922 -0.851747 -0.416211 0
M  V30 5767 H 542.628 -2.85518 -2.0536 0
M  V30 5768 H 542.502 -1.69908 -3.36766 0
M  V30 5769 H 544.889 -0.872827 -2.81897 0
M  V30 5770 H 544.97 -2.06311 -1.51226 0
M  V30 5771 H 544.614 -3.92835 -3.21937 0
M  V30 5772 H 544.544 -2.70864 -4.51598 0
M  V30 5773 H 547.035 -2.27876 -3.01464 0
M  V30 5774 H 547.348 -5.14357 -5.76764 0
M  V30 5775 H 545.693 -4.62056 -5.19162 0
M  V30 5776 H 548.884 -2.88943 -3.68279 0
M  V30 5777 H 549.057 -4.19563 -4.93833 0
M  V30 5778 N 542.463 1.3308 -0.844243 0
M  V30 5779 C 543.71 1.97605 -0.44255 0
M  V30 5780 C 544.038 1.66856 0.999458 0
M  V30 5781 O 543.293 0.943586 1.7145 0
M  V30 5782 C 543.592 3.52045 -0.616354 0
M  V30 5783 C 543.258 4.02757 -2.02726 0
M  V30 5784 C 541.92 4.16316 -2.41317 0
M  V30 5785 C 544.272 4.29776 -2.9486 0
M  V30 5786 C 541.6 4.54232 -3.71335 0
M  V30 5787 C 543.952 4.69146 -4.24364 0
M  V30 5788 C 542.616 4.80911 -4.62904 0
M  V30 5789 H 541.886 0.723088 -0.161941 0
M  V30 5790 H 544.533 1.58663 -1.0723 0
M  V30 5791 H 542.838 3.91681 0.0966812 0
M  V30 5792 H 544.535 3.99981 -0.285756 0
M  V30 5793 H 541.125 3.9268 -1.71756 0
M  V30 5794 H 545.309 4.18818 -2.6628 0
M  V30 5795 H 540.565 4.61535 -4.00993 0
M  V30 5796 H 544.739 4.89008 -4.95827 0
M  V30 5797 H 542.366 5.10048 -5.63698 0
M  V30 5798 N 543.941 0.601185 1.45683 0
M  V30 5799 C 545.357 0.264315 1.57396 0
M  V30 5800 C 545.557 -1.23324 1.59353 0
M  V30 5801 O 544.613 -2.01594 1.52039 0
M  V30 5802 C 545.926 0.929839 2.85962 0
M  V30 5803 C 547.474 0.905156 2.99626 0
M  V30 5804 C 547.949 1.55057 4.30954 0
M  V30 5805 N 549.44 1.51576 4.37697 0
M  V30 5806 C 550.175 1.98436 5.37969 0
M  V30 5807 N 549.671 2.53352 6.44813 0
M  V30 5808 N 551.464 1.89242 5.29286 0
M  V30 5809 H 543.615 1.57363 1.42656 0
M  V30 5810 H 545.878 0.658831 0.681649 0
M  V30 5811 H 545.584 1.98404 2.90394 0
M  V30 5812 H 545.458 0.449224 3.74515 0
M  V30 5813 H 547.845 -0.14048 2.94765 0
M  V30 5814 H 547.926 1.42397 2.12501 0
M  V30 5815 H 547.57 2.5955 4.36573 0
M  V30 5816 H 547.5 1.00682 5.16886 0
M  V30 5817 H 549.991 1.11452 3.61091 0
M  V30 5818 H 550.304 2.86918 7.17564 0
M  V30 5819 H 548.649 2.57388 6.45582 0
M  V30 5820 H 551.84 1.46083 4.44722 0
M  V30 5821 H 552.013 2.26075 6.07284 0
M  V30 5822 N 545.419 -1.53889 0.339982 0
M  V30 5823 C 546.644 -2.05741 -0.261798 0
M  V30 5824 C 547.069 -1.21354 -1.43718 0
M  V30 5825 O 546.427 -0.22645 -1.7988 0
M  V30 5826 C 546.475 -3.54542 -0.658228 0
M  V30 5827 O 545.579 -3.7302 -1.75869 0
M  V30 5828 H 544.92 -0.662529 -0.0441672 0
M  V30 5829 H 547.45 -1.98568 0.493161 0
M  V30 5830 H 547.46 -3.9711 -0.936368 0
M  V30 5831 H 546.135 -4.15412 0.201358 0
M  V30 5832 H 544.712 -3.42355 -1.47809 0
M  V30 5833 N 546.897 -0.0685191 -1.57451 0
M  V30 5834 C 547.827 0.89747 -2.15564 0
M  V30 5835 C 548.808 1.31266 -1.08181 0
M  V30 5836 O 549.993 1.38429 -1.36202 0
M  V30 5837 C 547.123 2.16623 -2.71463 0
M  V30 5838 C 546.077 1.89054 -3.83982 0
M  V30 5839 C 545.403 3.22532 -4.26471 0
M  V30 5840 C 546.703 1.1984 -5.08366 0
M  V30 5841 H 548.397 0.413373 -2.96533 0
M  V30 5842 H 545.943 0.197391 -1.42641 0
M  V30 5843 H 547.896 2.84614 -3.10761 0
M  V30 5844 H 546.62 2.67269 -1.8771 0
M  V30 5845 H 545.279 1.23469 -3.45183 0
M  V30 5846 H 544.927 3.71013 -3.39644 0
M  V30 5847 H 544.627 3.04879 -5.02317 0
M  V30 5848 H 546.151 3.91727 -4.68383 0
M  V30 5849 H 547.565 1.77896 -5.45001 0
M  V30 5850 H 545.962 1.12456 -5.89469 0
M  V30 5851 H 547.032 0.176996 -4.84577 0
M  V30 5852 N 548.375 1.56261 0.205012 0
M  V30 5853 C 549.305 1.96779 1.257 0
M  V30 5854 C 550.286 0.838309 1.48008 0
M  V30 5855 O 551.471 1.10189 1.59913 0
M  V30 5856 C 548.601 2.29876 2.60335 0
M  V30 5857 C 547.555 3.45469 2.52656 0
M  V30 5858 C 546.881 3.64215 3.91473 0
M  V30 5859 C 548.181 4.79954 2.06014 0
M  V30 5860 H 549.875 2.84904 0.920338 0
M  V30 5861 H 547.421 1.37072 0.441277 0
M  V30 5862 H 549.374 2.56814 3.34102 0
M  V30 5863 H 548.098 1.38622 2.95722 0
M  V30 5864 H 546.757 3.18605 1.81345 0
M  V30 5865 H 546.405 2.70309 4.24196 0
M  V30 5866 H 546.105 4.41973 3.87213 0
M  V30 5867 H 547.629 3.93519 4.66878 0
M  V30 5868 H 549.043 5.05989 2.69533 0
M  V30 5869 H 547.44 5.61111 2.12777 0
M  V30 5870 H 548.51 4.74201 1.01297 0
M  V30 5871 N 549.853 -0.472356 1.50355 0
M  V30 5872 C 551.13 -1.23356 1.51798 0
M  V30 5873 C 551.51 -2.09469 0.26193 0
M  V30 5874 O 550.858 -2.15677 -0.754691 0
M  V30 5875 C 551.068 -2.06568 2.81302 0
M  V30 5876 C 552.416 -2.648 3.31913 0
M  V30 5877 O 553.44 -2.16812 2.82614 0
M  V30 5878 O 552.299 -3.52231 4.17846 0
M  V30 5879 H 549.393 -0.559707 0.608816 0
M  V30 5880 H 551.939 -0.48428 1.62643 0
M  V30 5881 H 550.711 -1.43103 3.64194 0
M  V30 5882 H 550.334 -2.88633 2.73454 0
M  V30 5883 N 551.331 -1.39911 -0.725443 0
M  V30 5884 C 552.556 -1.41137 -1.5197 0
M  V30 5885 C 552.981 -0.010262 -1.88097 0
M  V30 5886 O 552.339 0.979184 -1.52583 0
M  V30 5887 C 552.387 -2.2994 -2.77777 0
M  V30 5888 O 551.491 -1.73586 -3.74088 0
M  V30 5889 H 550.832 -0.480219 -0.458569 0
M  V30 5890 H 553.362 -1.84023 -0.894249 0
M  V30 5891 H 553.372 -2.44785 -3.26411 0
M  V30 5892 H 552.047 -3.31759 -2.50816 0
M  V30 5893 H 550.624 -1.68035 -3.32894 0
M  V30 5894 N 552.809 0.956637 -1.25245 0
M  V30 5895 C 554.086 1.67716 -1.00651 0
M  V30 5896 C 554.466 2.0585 0.467866 0
M  V30 5897 O 553.814 1.77029 1.44475 0
M  V30 5898 C 554.024 2.90093 -1.94028 0
M  V30 5899 C 555.372 3.6209 -2.21756 0
M  V30 5900 O 556.396 3.00171 -1.9177 0
M  V30 5901 O 555.255 4.7358 -2.72735 0
M  V30 5902 H 552.349 0.733731 -0.381533 0
M  V30 5903 H 554.895 1.00974 -1.3639 0
M  V30 5904 H 553.667 2.58689 -2.93591 0
M  V30 5905 H 553.29 3.64566 -1.58674 0
M  V30 5906 N 554.287 1.06798 1.15896 0
M  V30 5907 C 555.237 0.653213 2.18443 0
M  V30 5908 C 556.221 -0.318763 1.57711 0
M  V30 5909 O 557.413 -0.133388 1.76497 0
M  V30 5910 C 554.542 0.0465785 3.43268 0
M  V30 5911 C 553.628 1.04336 4.11066 0
M  V30 5912 N 554.019 2.22084 4.54436 0
M  V30 5913 C 552.317 0.875433 4.37324 0
M  V30 5914 C 553.018 2.85276 5.06944 0
M  V30 5915 N 551.994 2.12973 5.00143 0
M  V30 5916 H 555.796 1.55011 2.49698 0
M  V30 5917 H 553.31 0.940384 1.32403 0
M  V30 5918 H 555.307 -0.26843 4.16035 0
M  V30 5919 H 553.967 -0.845504 3.13499 0
M  V30 5920 H 554.978 2.59833 4.48004 0
M  V30 5921 H 551.655 0.0357721 4.17485 0
M  V30 5922 H 553.045 3.85223 5.50503 0
M  V30 5923 N 555.766 -1.3263 0.851289 0
M  V30 5924 C 556.716 -2.26451 0.265302 0
M  V30 5925 C 557.7 -1.49814 -0.586899 0
M  V30 5926 O 558.892 -1.71525 -0.436834 0
M  V30 5927 C 556.021 -3.38895 -0.548212 0
M  V30 5928 C 555.107 -4.2292 0.316189 0
M  V30 5929 N 555.498 -4.86014 1.40084 0
M  V30 5930 C 553.796 -4.45876 0.105356 0
M  V30 5931 C 554.497 -5.48667 1.93235 0
M  V30 5932 N 553.473 -5.29455 1.232 0
M  V30 5933 H 557.275 -2.72757 1.09457 0
M  V30 5934 H 554.789 -1.4668 0.697047 0
M  V30 5935 H 556.786 -4.05111 -0.984402 0
M  V30 5936 H 555.446 -2.94135 -1.37531 0
M  V30 5937 H 556.457 -4.86212 1.78377 0
M  V30 5938 H 553.134 -4.11804 -0.687299 0
M  V30 5939 H 554.524 -6.08865 2.84135 0
M  V30 5940 N 557.244 -0.608902 -1.45362 0
M  V30 5941 C 558.655 -0.189511 -1.85736 0
M  V30 5942 C 559.006 1.2539 -1.50903 0
M  V30 5943 O 558.131 1.95094 -0.936347 0
M  V30 5944 C 558.726 -0.33716 -3.37118 0
M  V30 5945 C 557.285 0.0275487 -3.7639 0
M  V30 5946 C 556.432 -0.660983 -2.69307 0
M  V30 5947 H 559.383 -0.815499 -1.36144 0
M  V30 5948 H 559.404 0.430257 -3.7806 0
M  V30 5949 H 558.916 -1.38779 -3.62439 0
M  V30 5950 H 557.017 1.0773 -3.56686 0
M  V30 5951 H 557.13 -0.367018 -4.77692 0
M  V30 5952 H 555.494 -0.0984958 -2.54509 0
M  V30 5953 H 556.277 -1.71377 -2.97464 0
M  V30 5954 N 558.722 1.53707 -0.348139 0
M  V30 5955 C 559.947 2.05877 0.250883 0
M  V30 5956 C 560.372 1.22115 1.43072 0
M  V30 5957 O 559.73 0.235986 1.79758 0
M  V30 5958 C 559.778 3.54886 0.639416 0
M  V30 5959 O 558.882 3.73948 1.73888 0
M  V30 5960 H 558.223 0.662754 0.040653 0
M  V30 5961 H 560.753 1.98303 -0.503685 0
M  V30 5962 H 560.763 3.97601 0.915295 0
M  V30 5963 H 559.438 4.153 -0.223386 0
M  V30 5964 H 558.015 3.43134 1.45991 0
M  V30 5965 N 560.2 0.0768682 1.57412 0
M  V30 5966 C 561.11 -0.903207 2.16516 0
M  V30 5967 C 562.126 -1.32341 1.12968 0
M  V30 5968 O 563.302 -1.39507 1.45258 0
M  V30 5969 C 560.367 -2.1508 2.71922 0
M  V30 5970 C 559.428 -1.78653 3.90361 0
M  V30 5971 C 558.661 -2.97465 4.43114 0
M  V30 5972 O 558.884 -4.11638 3.94854 0
M  V30 5973 O 557.818 -2.76987 5.3438 0
M  V30 5974 H 561.644 -0.430427 3.00634 0
M  V30 5975 H 559.229 -0.146485 1.4868 0
M  V30 5976 H 561.111 -2.8823 3.07411 0
M  V30 5977 H 559.786 -2.61446 1.9086 0
M  V30 5978 H 558.693 -1.0274 3.59716 0
M  V30 5979 H 560.026 -1.37066 4.7273 0
M  V30 5980 N 561.678 -1.56367 -0.196722 0
M  V30 5981 C 562.927 -1.79724 -0.915539 0
M  V30 5982 C 563.24 -0.649804 -1.84491 0
M  V30 5983 O 564.446 -0.767631 -2.60422 0
M  V30 5984 C 562.902 -3.18369 -1.67836 0
M  V30 5985 C 562.51 -4.4091 -0.793897 0
M  V30 5986 C 564.254 -3.51037 -2.38691 0
M  V30 5987 C 562.161 -5.70577 -1.55549 0
M  V30 5988 H 561.091 -0.67013 -0.345604 0
M  V30 5989 H 563.742 -1.82721 -0.168856 0
M  V30 5990 H 562.124 -3.09617 -2.46887 0
M  V30 5991 H 563.298 -4.60781 -0.042163 0
M  V30 5992 H 561.613 -4.15937 -0.19626 0
M  V30 5993 H 564.21 -4.4515 -2.96219 0
M  V30 5994 H 564.553 -2.74704 -3.12799 0
M  V30 5995 H 565.086 -3.61229 -1.66608 0
M  V30 5996 H 561.825 -6.49871 -0.857226 0
M  V30 5997 H 561.345 -5.54726 -2.2812 0
M  V30 5998 H 563.024 -6.11637 -2.10971 0
M  V30 5999 N 563.156 0.464375 -1.50603 0
M  V30 6000 C 564.119 1.54393 -1.69397 0
M  V30 6001 C 565.119 1.50566 -0.564504 0
M  V30 6002 O 566.309 1.53066 -0.831645 0
M  V30 6003 C 563.441 2.9401 -1.72543 0
M  V30 6004 H 564.634 1.39044 -2.65719 0
M  V30 6005 H 562.187 0.69122 -1.40185 0
M  V30 6006 H 562.922 3.14795 -0.77938 0
M  V30 6007 H 562.707 2.98195 -2.54602 0
M  V30 6008 H 564.197 3.72375 -1.89015 0
M  V30 6009 N 564.634 1.40294 0.718013 0
M  V30 6010 C 565.544 1.42678 1.86226 0
M  V30 6011 C 566.56 0.319655 1.71039 0
M  V30 6012 O 567.736 0.563852 1.93346 0
M  V30 6013 C 564.801 1.2852 3.21999 0
M  V30 6014 C 563.862 2.49354 3.49458 0
M  V30 6015 C 563.095 2.35863 4.78753 0
M  V30 6016 O 563.318 1.37114 5.53675 0
M  V30 6017 O 562.252 3.25189 5.06494 0
M  V30 6018 H 566.078 2.39167 1.87171 0
M  V30 6019 H 563.663 1.2159 0.868112 0
M  V30 6020 H 565.545 1.22824 4.03103 0
M  V30 6021 H 564.22 0.351359 3.21787 0
M  V30 6022 H 563.127 2.60628 2.68373 0
M  V30 6023 H 564.46 3.41491 3.54464 0
M  V30 6024 N 566.112 -0.949982 1.2575 0
M  V30 6025 C 567.337 -1.73503 1.13628 0
M  V30 6026 C 567.762 -1.85601 -0.30559 0
M  V30 6027 O 567.12 -1.33984 -1.22139 0
M  V30 6028 C 567.168 -3.1243 1.80055 0
M  V30 6029 O 566.272 -3.97916 1.08336 0
M  V30 6030 H 565.613 -0.532665 0.396439 0
M  V30 6031 H 568.143 -1.19043 1.66403 0
M  V30 6032 H 568.153 -3.62866 1.86527 0
M  V30 6033 H 566.828 -3.02941 2.84956 0
M  V30 6034 H 565.405 -3.56375 1.09777 0
M  V30 6035 N 567.59 -1.07411 -1.15328 0
M  V30 6036 C 568.54 -0.664788 -2.18093 0
M  V30 6037 C 569.524 0.310395 -1.57878 0
M  V30 6038 O 570.716 0.124026 -1.76565 0
M  V30 6039 C 567.845 -0.0647822 -3.43239 0
M  V30 6040 C 566.931 -1.06514 -4.10506 0
M  V30 6041 N 567.322 -2.24491 -4.53252 0
M  V30 6042 C 565.62 -0.898613 -4.36853 0
M  V30 6043 C 566.321 -2.8796 -5.05424 0
M  V30 6044 N 565.297 -2.15622 -4.99007 0
M  V30 6045 H 569.099 -1.56333 -2.48872 0
M  V30 6046 H 566.613 -0.947393 -1.31902 0
M  V30 6047 H 568.61 0.246363 -4.16171 0
M  V30 6048 H 567.27 0.828866 -3.13943 0
M  V30 6049 H 568.281 -2.62205 -4.46619 0
M  V30 6050 H 564.958 -0.0579118 -4.1746 0
M  V30 6051 H 566.348 -3.88137 -5.48452 0
M  V30 6052 N 569.068 1.32177 -0.85831 0
M  V30 6053 C 570.484 1.49873 -0.548656 0
M  V30 6054 C 570.684 1.79278 0.919874 0
M  V30 6055 O 569.74 1.86451 1.70271 0
M  V30 6056 C 571.053 2.64043 -1.4388 0
M  V30 6057 C 572.601 2.77928 -1.43961 0
M  V30 6058 C 573.076 3.95182 -2.31506 0
M  V30 6059 N 574.567 4.0245 -2.29321 0
M  V30 6060 C 575.302 4.9242 -2.93786 0
M  V30 6061 N 574.798 5.87373 -3.67376 0
M  V30 6062 N 576.591 4.85572 -2.83155 0
M  V30 6063 H 568.742 1.11357 -1.80868 0
M  V30 6064 H 571.005 0.549175 -0.772729 0
M  V30 6065 H 570.711 2.49055 -2.48324 0
M  V30 6066 H 570.585 3.59912 -1.12885 0
M  V30 6067 H 572.972 2.92338 -0.402813 0
M  V30 6068 H 573.053 1.82762 -1.78974 0
M  V30 6069 H 572.697 3.81531 -3.35256 0
M  V30 6070 H 572.627 4.89633 -1.93823 0
M  V30 6071 H 575.118 3.34507 -1.75822 0
M  V30 6072 H 575.431 6.52728 -4.13722 0
M  V30 6073 H 573.776 5.87388 -3.71484 0
M  V30 6074 H 576.967 4.10363 -2.25211 0
M  V30 6075 H 577.14 5.55486 -3.33676 0
M  V30 6076 N 570.547 0.616602 1.45037 0
M  V30 6077 C 571.794 0.115331 2.02171 0
M  V30 6078 C 572.122 -1.25748 1.48383 0
M  V30 6079 O 571.377 -1.84511 0.652229 0
M  V30 6080 C 571.676 0.0356829 3.57382 0
M  V30 6081 C 571.342 1.34535 4.30362 0
M  V30 6082 C 570.004 1.70408 4.50016 0
M  V30 6083 C 572.356 2.21049 4.72003 0
M  V30 6084 C 569.684 2.92529 5.0857 0
M  V30 6085 C 572.036 3.42427 5.31908 0
M  V30 6086 C 570.7 3.78541 5.49784 0
M  V30 6087 H 569.97 0.0422024 0.739797 0
M  V30 6088 H 572.617 0.80002 1.73988 0
M  V30 6089 H 570.922 -0.732314 3.84895 0
M  V30 6090 H 572.619 -0.368463 3.99304 0
M  V30 6091 H 569.209 1.05615 4.15383 0
M  V30 6092 H 573.393 1.94632 4.56544 0
M  V30 6093 H 568.649 3.20605 5.20598 0
M  V30 6094 H 572.823 4.09709 5.63127 0
M  V30 6095 H 570.45 4.73255 5.94923 0
M  V30 6096 N 572.025 -1.5352 0.356285 0
M  V30 6097 C 573.265 -2.03027 -0.23649 0
M  V30 6098 C 573.629 -1.23813 -1.46746 0
M  V30 6099 O 574.83 -1.63281 -2.13525 0
M  V30 6100 C 573.101 -3.53442 -0.530415 0
M  V30 6101 S 574.66 -4.24836 -1.09819 0
M  V30 6102 H 571.478 -0.707591 -0.0695378 0
M  V30 6103 H 574.08 -1.89077 0.496999 0
M  V30 6104 H 572.784 -4.087 0.373114 0
M  V30 6105 H 572.315 -3.71536 -1.29323 0
M  V30 6106 H 574.33 -4.35228 -2.38309 0
M  V30 6107 N 573.503 -0.0852151 -1.57369 0
M  V30 6108 C 574.78 0.622534 -1.85429 0
M  V30 6109 C 575.16 1.86962 -0.980229 0
M  V30 6110 O 574.508 2.28445 -0.0500219 0
M  V30 6111 C 574.718 0.947374 -3.35896 0
M  V30 6112 C 576.066 1.31509 -4.03721 0
M  V30 6113 O 577.09 1.03869 -3.40719 0
M  V30 6114 O 575.949 1.83231 -5.14868 0
M  V30 6115 H 573.043 0.310513 -0.766492 0
M  V30 6116 H 575.589 -0.117164 -1.69295 0
M  V30 6117 H 574.361 0.0622264 -3.91251 0
M  V30 6118 H 573.984 1.74338 -3.5734 0
M  V30 6119 N 574.981 1.5647 0.188427 0
M  V30 6120 C 576.397 1.50204 0.539532 0
M  V30 6121 C 576.597 0.78644 1.85519 0
M  V30 6122 O 575.653 0.339714 2.50204 0
M  V30 6123 C 576.966 2.94893 0.588103 0
M  V30 6124 C 578.514 3.05602 0.67648 0
M  V30 6125 C 578.989 4.51716 0.756101 0
M  V30 6126 N 580.48 4.55894 0.819451 0
M  V30 6127 C 581.215 5.66272 0.90134 0
M  V30 6128 N 580.711 6.86323 0.945118 0
M  V30 6129 N 582.504 5.54201 0.939043 0
M  V30 6130 H 574.655 2.01406 -0.674493 0
M  V30 6131 H 576.918 0.916828 -0.241103 0
M  V30 6132 H 576.624 3.50334 -0.309633 0
M  V30 6133 H 576.498 3.4861 1.44051 0
M  V30 6134 H 578.885 2.50206 1.56465 0
M  V30 6135 H 578.966 2.54999 -0.202262 0
M  V30 6136 H 578.61 5.07739 -0.12774 0
M  V30 6137 H 578.54 5.00058 1.65074 0
M  V30 6138 H 581.031 3.69452 0.794594 0
M  V30 6139 H 581.344 7.66194 1.0083 0
M  V30 6140 H 579.689 6.88968 0.913683 0
M  V30 6141 H 582.88 4.59333 0.901725 0
M  V30 6142 H 583.053 6.40247 0.999402 0
M  V30 6143 N 576.459 -0.456382 1.50847 0
M  V30 6144 C 577.705 -1.20914 1.62811 0
M  V30 6145 C 578.038 -1.91301 0.334304 0
M  V30 6146 O 577.313 -1.82775 -0.665098 0
M  V30 6147 C 577.596 -2.24122 2.81853 0
M  V30 6148 C 577.449 -1.57944 4.21158 0
M  V30 6149 C 578.768 -3.25295 2.96431 0
M  V30 6150 H 575.887 -0.438233 0.592554 0
M  V30 6151 H 578.529 -0.50091 1.83278 0
M  V30 6152 H 576.679 -2.84524 2.64534 0
M  V30 6153 H 578.351 -1.01025 4.50102 0
M  V30 6154 H 576.594 -0.882185 4.24735 0
M  V30 6155 H 577.265 -2.33014 5.00408 0
M  V30 6156 H 579.741 -2.7493 3.12335 0
M  V30 6157 H 578.617 -3.94822 3.81322 0
M  V30 6158 H 578.878 -3.90286 2.07676 0
M  V30 6159 N 577.937 -1.40673 -0.710563 0
M  V30 6160 C 578.869 -1.37256 -1.83558 0
M  V30 6161 C 579.882 -0.277133 -1.60424 0
M  V30 6162 O 581.071 -0.537831 -1.70205 0
M  V30 6163 C 578.171 -1.1144 -3.20054 0
M  V30 6164 C 577.344 -2.32734 -3.70342 0
M  V30 6165 C 576.403 -2.03002 -4.85465 0
M  V30 6166 O 575.429 -2.75912 -4.97857 0
M  V30 6167 N 576.631 -1.01105 -5.71627 0
M  V30 6168 H 579.396 -2.34215 -1.86985 0
M  V30 6169 H 576.957 -1.35091 -0.892301 0
M  V30 6170 H 578.949 -0.895265 -3.94673 0
M  V30 6171 H 577.519 -0.231307 -3.11743 0
M  V30 6172 H 576.739 -2.70446 -2.86798 0
M  V30 6173 H 578.027 -3.13584 -4.00678 0
M  V30 6174 H 577.425 -0.407303 -5.64232 0
M  V30 6175 H 575.982 -0.85182 -6.4621 0
M  V30 6176 N 579.415 0.9433 -1.26252 0
M  V30 6177 C 580.692 1.66639 -1.02424 0
M  V30 6178 C 581.072 2.06335 0.446006 0
M  V30 6179 O 580.42 1.78551 1.42589 0
M  V30 6180 C 580.63 2.88019 -1.97094 0
M  V30 6181 C 581.978 3.59718 -2.25584 0
M  V30 6182 O 583.002 2.9812 -1.94943 0
M  V30 6183 O 581.861 4.7066 -2.77743 0
M  V30 6184 H 578.955 0.729643 -0.389294 0
M  V30 6185 H 581.501 0.995218 -1.37454 0
M  V30 6186 H 580.273 2.5556 -2.96319 0
M  V30 6187 H 579.896 3.62863 -1.62532 0
M  V30 6188 N 580.893 1.08022 1.14757 0
M  V30 6189 C 581.856 0.71048 2.1791 0
M  V30 6190 C 582.856 -0.252731 1.58801 0
M  V30 6191 O 584.046 -0.0327915 1.74169 0
M  V30 6192 C 581.178 0.0483203 3.40866 0
M  V30 6193 H 582.371 1.62384 2.52134 0
M  V30 6194 H 579.924 0.877595 1.29337 0
M  V30 6195 H 580.659 -0.876959 3.12218 0
M  V30 6196 H 580.444 0.741189 3.85031 0
M  V30 6197 H 581.934 -0.195471 4.17142 0
M  V30 6198 N 582.371 -1.3172 0.865308 0
M  V30 6199 C 583.601 -2.00765 0.487543 0
M  V30 6200 C 584.009 -1.65145 -0.92325 0
M  V30 6201 O 583.352 -0.874294 -1.61561 0
M  V30 6202 C 583.414 -3.55122 0.559369 0
M  V30 6203 C 583.078 -4.14202 1.93095 0
M  V30 6204 C 584.075 -4.3165 2.89784 0
M  V30 6205 C 581.76 -4.50036 2.23099 0
M  V30 6206 C 583.754 -4.84114 4.14623 0
M  V30 6207 C 581.441 -5.02203 3.48189 0
M  V30 6208 C 582.439 -5.19192 4.43767 0
M  V30 6209 O 582.127 -5.70241 5.6664 0
M  V30 6210 H 581.859 -0.649066 0.188915 0
M  V30 6211 H 584.413 -1.69032 1.16694 0
M  V30 6212 H 582.643 -3.86295 -0.176926 0
M  V30 6213 H 584.332 -4.05428 0.195694 0
M  V30 6214 H 585.098 -4.04288 2.6791 0
M  V30 6215 H 580.977 -4.36091 1.49485 0
M  V30 6216 H 584.521 -4.9729 4.89233 0
M  V30 6217 H 580.418 -5.28997 3.69908 0
M  V30 6218 H 581.186 -5.88617 5.68746 0
M  V30 6219 N 583.85 -0.624285 -1.44708 0
M  V30 6220 C 585.077 -0.132919 -2.06473 0
M  V30 6221 C 585.493 1.18967 -1.46602 0
M  V30 6222 O 584.85 1.72824 -0.586341 0
M  V30 6223 C 584.901 -0.00465418 -3.615 0
M  V30 6224 O 584.622 -1.27494 -4.19138 0
M  V30 6225 C 586.123 0.516213 -4.40284 0
M  V30 6226 H 583.343 -0.0765201 -0.666623 0
M  V30 6227 H 585.887 -0.856751 -1.85688 0
M  V30 6228 H 584.042 0.669583 -3.8157 0
M  V30 6229 H 584.456 -1.11536 -5.12504 0
M  V30 6230 H 585.93 0.554994 -5.49203 0
M  V30 6231 H 586.407 1.5419 -4.11245 0
M  V30 6232 H 587.013 -0.124542 -4.25118 0
M  V30 6233 N 585.328 1.53329 -0.364422 0
M  V30 6234 C 586.258 2.28627 0.474543 0
M  V30 6235 C 587.239 1.31009 1.08492 0
M  V30 6236 O 588.424 1.59878 1.10239 0
M  V30 6237 C 585.554 3.07465 1.61501 0
M  V30 6238 C 584.508 4.1276 1.13194 0
M  V30 6239 C 583.834 4.79674 2.36255 0
M  V30 6240 C 585.134 5.21847 0.217507 0
M  V30 6241 H 586.828 2.99005 -0.153656 0
M  V30 6242 H 584.374 1.43803 -0.0753406 0
M  V30 6243 H 586.327 3.58889 2.20855 0
M  V30 6244 H 585.051 2.34775 2.27042 0
M  V30 6245 H 583.71 3.62281 0.56109 0
M  V30 6246 H 583.358 4.03557 3.00251 0
M  V30 6247 H 583.058 5.50827 2.04606 0
M  V30 6248 H 584.582 5.33892 2.96297 0
M  V30 6249 H 585.996 5.6878 0.718493 0
M  V30 6250 H 584.393 6.00099 -0.00806408 0
M  V30 6251 H 585.463 4.7921 -0.740653 0
M  V30 6252 N 586.806 0.0935595 1.57322 0
M  V30 6253 C 588.222 -0.263091 1.57417 0
M  V30 6254 C 588.422 -1.68526 1.1046 0
M  V30 6255 O 587.478 -2.40139 0.780357 0
M  V30 6256 C 588.791 -0.0529201 3.00653 0
M  V30 6257 C 590.339 -0.120788 3.12767 0
M  V30 6258 C 590.814 0.0613707 4.57959 0
M  V30 6259 N 592.305 0.00648534 4.632 0
M  V30 6260 C 593.04 0.122699 5.73269 0
M  V30 6261 N 592.536 0.29366 6.92177 0
M  V30 6262 N 594.329 0.0640787 5.62063 0
M  V30 6263 H 586.48 1.02277 1.86154 0
M  V30 6264 H 588.743 0.4007 0.859153 0
M  V30 6265 H 588.449 0.929279 3.39201 0
M  V30 6266 H 588.323 -0.795899 3.68708 0
M  V30 6267 H 590.71 -1.09349 2.74093 0
M  V30 6268 H 590.791 0.653656 2.47307 0
M  V30 6269 H 590.435 1.03093 4.97327 0
M  V30 6270 H 590.365 -0.732748 5.21477 0
M  V30 6271 H 592.856 -0.123173 3.77699 0
M  V30 6272 H 593.169 0.37389 7.71895 0
M  V30 6273 H 591.514 0.329307 6.94219 0
M  V30 6274 H 594.705 -0.0683396 4.6805 0
M  V30 6275 H 594.878 0.158097 6.47807 0
M  V30 6276 N 588.284 -1.56567 -0.180126 0
M  V30 6277 C 589.524 -1.83285 -0.904761 0
M  V30 6278 C 589.888 -0.673226 -1.7981 0
M  V30 6279 O 591.089 -0.820645 -2.55967 0
M  V30 6280 C 589.36 -3.15086 -1.68688 0
M  V30 6281 S 590.919 -3.63258 -2.46149 0
M  V30 6282 H 587.737 -0.643114 -0.303193 0
M  V30 6283 H 590.339 -1.94785 -0.167034 0
M  V30 6284 H 589.043 -3.97484 -1.02148 0
M  V30 6285 H 588.574 -3.06504 -2.46615 0
M  V30 6286 H 590.589 -3.29884 -3.70663 0
M  V30 6287 N 589.762 0.448376 -1.51087 0
M  V30 6288 C 591.002 1.20832 -1.64861 0
M  V30 6289 C 591.366 1.88748 -0.351873 0
M  V30 6290 O 592.567 2.66307 -0.365265 0
M  V30 6291 C 590.838 2.20674 -2.81137 0
M  V30 6292 S 592.397 3.05303 -3.15176 0
M  V30 6293 H 589.215 0.40992 -0.580936 0
M  V30 6294 H 591.817 0.501624 -1.88955 0
M  V30 6295 H 590.521 1.69399 -3.73808 0
M  V30 6296 H 590.052 2.9594 -2.59198 0
M  V30 6297 H 592.067 4.22162 -2.60756 0
M  V30 6298 N 591.24 1.41047 0.703093 0
M  V30 6299 C 592.651 1.35657 1.28274 0
M  V30 6300 C 593.002 0.0360309 1.96167 0
M  V30 6301 O 592.127 -0.865833 1.98324 0
M  V30 6302 C 592.722 2.45707 2.33267 0
M  V30 6303 C 591.281 2.43738 2.86825 0
M  V30 6304 C 590.428 2.25941 1.60767 0
M  V30 6305 H 593.379 1.50672 0.49836 0
M  V30 6306 H 593.4 2.14333 3.14391 0
M  V30 6307 H 592.912 3.41805 1.83824 0
M  V30 6308 H 591.013 1.51375 3.40465 0
M  V30 6309 H 591.126 3.39779 3.37768 0
M  V30 6310 H 589.49 1.73681 1.86298 0
M  V30 6311 H 590.273 3.24054 1.1333 0
M  V30 6312 N 592.718 -0.936591 1.26751 0
M  V30 6313 C 593.65 -2.03991 1.045 0
M  V30 6314 C 594.663 -1.628 0.00394261 0
M  V30 6315 O 595.852 -1.76817 0.244526 0
M  V30 6316 C 592.952 -3.34218 0.561403 0
M  V30 6317 C 592.125 -4.04151 1.67274 0
M  V30 6318 C 591.184 -5.12651 1.1864 0
M  V30 6319 O 590.21 -5.37104 1.88437 0
M  V30 6320 N 591.412 -5.80488 0.037278 0
M  V30 6321 H 594.177 -2.23644 1.99508 0
M  V30 6322 H 591.738 -1.10638 1.18198 0
M  V30 6323 H 593.73 -4.04101 0.220136 0
M  V30 6324 H 592.3 -3.11203 -0.295211 0
M  V30 6325 H 591.52 -3.28121 2.18472 0
M  V30 6326 H 592.808 -4.47626 2.41885 0
M  V30 6327 H 592.206 -5.63064 -0.545494 0
M  V30 6328 H 590.763 -6.5134 -0.244877 0
M  V30 6329 N 594.196 -1.08629 -1.14182 0
M  V30 6330 C 595.442 -0.818556 -1.85546 0
M  V30 6331 C 595.775 0.654076 -1.82854 0
M  V30 6332 O 595.05 1.48099 -1.26083 0
M  V30 6333 C 595.333 -1.34397 -3.3408 0
M  V30 6334 C 595.186 -2.8821 -3.45333 0
M  V30 6335 C 596.505 -0.971069 -4.29253 0
M  V30 6336 H 593.624 -0.298821 -0.673702 0
M  V30 6337 H 596.266 -1.34629 -1.34071 0
M  V30 6338 H 594.416 -0.895064 -3.78049 0
M  V30 6339 H 596.088 -3.41488 -3.10134 0
M  V30 6340 H 594.331 -3.25756 -2.86471 0
M  V30 6341 H 595.002 -3.20047 -4.49749 0
M  V30 6342 H 597.478 -1.35809 -3.93313 0
M  V30 6343 H 596.354 -1.36586 -5.31635 0
M  V30 6344 H 596.615 0.121659 -4.41933 0
M  V30 6345 N 595.674 1.31259 -0.872281 0
M  V30 6346 C 596.624 2.26 -0.301295 0
M  V30 6347 C 597.608 1.50729 0.562991 0
M  V30 6348 O 598.8 1.72198 0.40949 0
M  V30 6349 C 595.929 3.39724 0.494227 0
M  V30 6350 C 595.015 4.22363 -0.383432 0
M  V30 6351 N 595.406 4.83724 -1.47799 0
M  V30 6352 C 593.704 4.45652 -0.176278 0
M  V30 6353 C 594.405 5.45523 -2.01939 0
M  V30 6354 N 593.381 5.27428 -1.31608 0
M  V30 6355 H 597.183 2.70981 -1.13782 0
M  V30 6356 H 594.697 1.45552 -0.720294 0
M  V30 6357 H 596.694 4.06626 0.919828 0
M  V30 6358 H 595.354 2.96286 1.32834 0
M  V30 6359 H 596.365 4.83313 -1.8609 0
M  V30 6360 H 593.042 4.12845 0.621698 0
M  V30 6361 H 594.432 6.04268 -2.93786 0
M  V30 6362 N 597.152 0.631951 1.44375 0
M  V30 6363 C 598.4 0.136497 2.01639 0
M  V30 6364 C 598.721 -1.24637 1.49969 0
M  V30 6365 O 597.991 -1.82827 0.70363 0
M  V30 6366 H 596.571 0.0474703 0.74549 0
M  V30 6367 H 599.233 0.818837 1.76865 0
M  V30 6368 H 598.329 0.104817 3.11924 0
M  V30 6369 N 598.631 -1.53133 0.372548 0
M  V30 6370 C 599.877 -2.01654 -0.215277 0
M  V30 6371 C 600.21 -1.25914 -1.47849 0
M  V30 6372 O 599.485 -0.3548 -1.91237 0
M  V30 6373 C 599.768 -3.56609 -0.500187 0
M  V30 6374 C 599.621 -4.43036 0.777145 0
M  V30 6375 C 600.94 -4.20528 -1.29786 0
M  V30 6376 H 598.059 -0.732991 -0.0767686 0
M  V30 6377 H 600.701 -1.83335 0.498814 0
M  V30 6378 H 598.851 -3.7235 -1.10852 0
M  V30 6379 H 600.523 -4.39079 1.41447 0
M  V30 6380 H 598.766 -4.10723 1.39604 0
M  V30 6381 H 599.437 -5.49424 0.532662 0
M  V30 6382 H 601.913 -4.08663 -0.783198 0
M  V30 6383 H 600.789 -5.28962 -1.46596 0
M  V30 6384 H 601.05 -3.77051 -2.30836 0
M  V30 6385 N 600.109 -0.101901 -1.5727 0
M  V30 6386 C 601.355 0.561027 -1.94885 0
M  V30 6387 C 601.688 1.6741 -0.984258 0
M  V30 6388 O 600.963 1.94491 -0.0184767 0
M  V30 6389 C 601.246 1.10982 -3.42571 0
M  V30 6390 C 601.099 0.00133418 -4.498 0
M  V30 6391 C 602.418 2.00608 -3.9172 0
M  V30 6392 H 599.537 0.202467 -0.708644 0
M  V30 6393 H 602.179 -0.173992 -1.89202 0
M  V30 6394 H 600.329 1.73621 -3.47546 0
M  V30 6395 H 602.001 -0.63322 -4.56933 0
M  V30 6396 H 600.244 -0.664143 -4.28686 0
M  V30 6397 H 600.915 0.426253 -5.50352 0
M  V30 6398 H 603.391 1.47864 -3.88941 0
M  V30 6399 H 602.267 2.3593 -4.95609 0
M  V30 6400 H 602.528 2.92608 -3.3141 0
M  V30 6401 N 601.587 1.56661 0.17182 0
M  V30 6402 C 602.535 1.97289 1.23207 0
M  V30 6403 C 603.529 0.861566 1.45854 0
M  V30 6404 O 604.735 1.04668 1.4644 0
M  V30 6405 H 601.11 0.627681 0.41415 0
M  V30 6406 H 603.081 2.85662 0.862542 0
M  V30 6407 C 601.83 2.34849 2.564 0
M  V30 6408 H 601.153 3.19903 2.39797 0
M  V30 6409 H 602.593 2.67121 3.29276 0
M  V30 6410 C 601.052 1.19172 3.15119 0
M  V30 6411 O 601.582 0.479113 3.98833 0
M  V30 6412 N 599.788 0.962415 2.74201 0
M  V30 6413 H 599.335 1.54365 2.06226 0
M  V30 6414 H 599.293 0.190272 3.13824 0
M  V30 6415 N 603.065 -0.440357 1.51323 0
M  V30 6416 C 604.342 -1.20109 1.5438 0
M  V30 6417 C 604.722 -2.08866 0.306303 0
M  V30 6418 O 604.07 -2.1723 -0.708773 0
M  V30 6419 C 604.28 -2.00555 2.8562 0
M  V30 6420 C 605.628 -2.577 3.37455 0
M  V30 6421 O 606.652 -2.10769 2.8715 0
M  V30 6422 O 605.511 -3.43289 4.25224 0
M  V30 6423 H 602.605 -0.546668 0.620551 0
M  V30 6424 H 605.151 -0.449672 1.63634 0
M  V30 6425 H 603.923 -1.35346 3.67147 0
M  V30 6426 H 603.546 -2.82768 2.79514 0
M  V30 6427 N 604.543 -1.41418 -0.695603 0
M  V30 6428 C 605.771 -1.4413 -1.48439 0
M  V30 6429 C 606.186 -0.0465698 -1.88743 0
M  V30 6430 O 605.543 0.934117 -1.56782 0
M  V30 6431 C 605.594 -2.34998 -2.74696 0
M  V30 6432 O 605.315 -3.69043 -2.36091 0
M  V30 6433 C 606.816 -2.46513 -3.68438 0
M  V30 6434 H 604.036 -0.490905 -0.457442 0
M  V30 6435 H 606.58 -1.85702 -0.856454 0
M  V30 6436 H 604.735 -1.96735 -3.33728 0
M  V30 6437 H 605.149 -4.17505 -3.17474 0
M  V30 6438 H 606.623 -3.1426 -4.53811 0
M  V30 6439 H 607.1 -1.49638 -4.12922 0
M  V30 6440 H 607.706 -2.85412 -3.1531 0
M  V30 6441 N 606.021 0.929856 -1.27246 0
M  V30 6442 C 607.27 1.67182 -1.12842 0
M  V30 6443 C 607.583 1.9287 0.325666 0
M  V30 6444 O 608.789 2.64999 0.590572 0
M  V30 6445 C 607.245 3.01097 -1.97151 0
M  V30 6446 C 606.853 2.83115 -3.47203 0
M  V30 6447 C 608.597 3.78907 -1.91389 0
M  V30 6448 C 606.504 4.12573 -4.23719 0
M  V30 6449 H 605.434 0.627064 -0.418697 0
M  V30 6450 H 608.085 1.0332 -1.51649 0
M  V30 6451 H 606.467 3.66004 -1.51186 0
M  V30 6452 H 607.641 2.26989 -4.01015 0
M  V30 6453 H 605.956 2.18736 -3.54321 0
M  V30 6454 H 608.553 4.74837 -2.45834 0
M  V30 6455 H 608.896 4.0674 -0.887047 0
M  V30 6456 H 609.429 3.20794 -2.35237 0
M  V30 6457 H 606.168 3.8992 -5.26918 0
M  V30 6458 H 605.688 4.68371 -3.74685 0
M  V30 6459 H 607.367 4.8095 -4.32777 0
M  V30 6460 N 607.499 1.09233 1.13605 0
M  V30 6461 C 608.462 0.733553 2.17144 0
M  V30 6462 C 609.462 -0.235873 1.59061 0
M  V30 6463 O 610.652 -0.0143167 1.74194 0
M  V30 6464 C 607.784 0.084471 3.40795 0
M  V30 6465 H 608.977 1.65049 2.50397 0
M  V30 6466 H 606.53 0.891264 1.28399 0
M  V30 6467 H 607.265 -0.843795 3.1313 0
M  V30 6468 H 607.05 0.781985 3.84223 0
M  V30 6469 H 608.54 -0.151216 4.17326 0
M  V30 6470 N 608.977 -1.30795 0.87923 0
M  V30 6471 C 610.224 -1.96362 0.494786 0
M  V30 6472 C 610.552 -1.69448 -0.954868 0
M  V30 6473 O 609.807 -0.988711 -1.68888 0
M  V30 6474 C 610.106 -3.50287 0.709476 0
M  V30 6475 C 609.772 -3.9724 2.13333 0
M  V30 6476 C 608.434 -4.09772 2.52271 0
M  V30 6477 C 610.786 -4.21807 3.06151 0
M  V30 6478 C 608.114 -4.44227 3.83248 0
M  V30 6479 C 610.466 -4.5773 4.36654 0
M  V30 6480 C 609.13 -4.68469 4.75492 0
M  V30 6481 H 608.4 -0.71854 0.181055 0
M  V30 6482 H 611.047 -1.55764 1.11399 0
M  V30 6483 H 609.352 -3.91799 0.0072 0
M  V30 6484 H 611.049 -3.99082 0.391703 0
M  V30 6485 H 607.639 -3.87988 1.82107 0
M  V30 6486 H 611.823 -4.11611 2.77291 0
M  V30 6487 H 607.079 -4.50741 4.13089 0
M  V30 6488 H 611.253 -4.7569 5.08617 0
M  V30 6489 H 608.88 -4.94923 5.77022 0
M  V30 6490 N 610.455 -0.639598 -1.44038 0
M  V30 6491 C 611.701 -0.147698 -2.02261 0
M  V30 6492 C 612.034 1.23031 -1.50256 0
M  V30 6493 O 611.309 1.81847 -0.690068 0
M  V30 6494 C 611.592 -0.14362 -3.59813 0
M  V30 6495 C 611.445 -1.55458 -4.22082 0
M  V30 6496 C 612.764 0.527317 -4.36929 0
M  V30 6497 H 609.883 -0.0551453 -0.734934 0
M  V30 6498 H 612.525 -0.817688 -1.71505 0
M  V30 6499 H 610.675 0.426898 -3.86147 0
M  V30 6500 H 612.347 -2.17464 -4.06826 0
M  V30 6501 H 610.59 -2.10594 -3.79253 0
M  V30 6502 H 611.261 -1.50369 -5.31124 0
M  V30 6503 H 613.737 0.0420504 -4.16079 0
M  V30 6504 H 612.613 0.499389 -5.46624 0
M  V30 6505 H 612.874 1.59914 -4.12165 0
M  V30 6506 N 611.933 1.52934 -0.380664 0
M  V30 6507 C 612.88 2.26197 0.458641 0
M  V30 6508 C 613.85 1.27462 1.06502 0
M  V30 6509 O 615.035 1.56274 1.09467 0
M  V30 6510 C 612.175 3.06571 1.58456 0
M  V30 6511 C 611.288 4.20222 1.00189 0
M  V30 6512 C 610.423 4.88007 2.09815 0
M  V30 6513 C 609.462 5.93665 1.49092 0
M  V30 6514 N 608.599 6.55081 2.52613 0
M  V30 6515 H 613.439 2.975 -0.172595 0
M  V30 6516 H 610.976 1.4678 -0.0969426 0
M  V30 6517 H 612.934 3.51455 2.24801 0
M  V30 6518 H 611.564 2.37494 2.18624 0
M  V30 6519 H 610.616 3.79714 0.228292 0
M  V30 6520 H 611.928 4.96102 0.518064 0
M  V30 6521 H 611.082 5.36151 2.83948 0
M  V30 6522 H 609.821 4.11632 2.61555 0
M  V30 6523 H 608.826 5.44868 0.7348 0
M  V30 6524 H 610.051 6.71969 0.981582 0
M  V30 6525 H 607.997 5.8155 3.03538 0
M  V30 6526 H 607.914 7.26548 2.08961 0
M  V30 6527 H 609.182 7.07871 3.26402 0
M  V30 6528 N 613.412 0.11024 1.57214 0
M  V30 6529 C 614.36 -0.860586 2.16094 0
M  V30 6530 C 615.354 -1.28156 1.1078 0
M  V30 6531 O 616.56 -1.25433 1.29099 0
M  V30 6532 H 612.935 -0.295606 0.691463 0
M  V30 6533 H 614.906 -0.33942 2.96463 0
M  V30 6534 C 613.655 -2.10421 2.768 0
M  V30 6535 H 612.978 -1.7892 3.5753 0
M  V30 6536 H 614.418 -2.76375 3.21547 0
M  V30 6537 C 612.877 -2.88823 1.73444 0
M  V30 6538 O 613.407 -3.839 1.18251 0
M  V30 6539 N 611.613 -2.52649 1.43586 0
M  V30 6540 H 611.16 -1.754 1.8866 0
M  V30 6541 H 611.118 -3.05403 0.746735 0
M  V30 6542 N 614.89 -1.56749 -0.16351 0
M  V30 6543 C 616.139 -1.81626 -0.877211 0
M  V30 6544 C 616.452 -0.688791 -1.83071 0
M  V30 6545 O 617.658 -0.822697 -2.58735 0
M  V30 6546 C 616.114 -3.21858 -1.61045 0
M  V30 6547 C 615.722 -4.42494 -0.700195 0
M  V30 6548 C 617.466 -3.56021 -2.31192 0
M  V30 6549 C 615.373 -5.73748 -1.43412 0
M  V30 6550 H 614.303 -0.67731 -0.331312 0
M  V30 6551 H 616.954 -1.83039 -0.13006 0
M  V30 6552 H 615.336 -3.14784 -2.40264 0
M  V30 6553 H 616.51 -4.60766 0.0555849 0
M  V30 6554 H 614.825 -4.1626 -0.10799 0
M  V30 6555 H 617.422 -4.51333 -2.8671 0
M  V30 6556 H 617.765 -2.81277 -3.06902 0
M  V30 6557 H 618.298 -3.64682 -1.58909 0
M  V30 6558 H 615.037 -6.51543 -0.719186 0
M  V30 6559 H 614.557 -5.5944 -2.16302 0
M  V30 6560 H 616.236 -6.15975 -1.9795 0
M  V30 6561 N 616.368 0.432326 -1.51554 0
M  V30 6562 C 617.617 1.17831 -1.63703 0
M  V30 6563 C 617.93 1.92229 -0.36156 0
M  V30 6564 O 619.136 2.69069 -0.362495 0
M  V30 6565 C 617.592 2.14318 -2.89129 0
M  V30 6566 C 617.2 1.45544 -4.23699 0
M  V30 6567 C 618.944 2.89319 -3.10636 0
M  V30 6568 C 616.851 2.40545 -5.4027 0
M  V30 6569 H 615.781 0.443533 -0.60975 0
M  V30 6570 H 618.432 0.444878 -1.78026 0
M  V30 6571 H 616.814 2.91117 -2.68452 0
M  V30 6572 H 617.988 0.742693 -4.54775 0
M  V30 6573 H 616.303 0.826772 -4.0811 0
M  V30 6574 H 618.9 3.60495 -3.94902 0
M  V30 6575 H 619.243 3.50951 -2.23918 0
M  V30 6576 H 619.776 2.19625 -3.31677 0
M  V30 6577 H 616.515 1.83594 -6.29264 0
M  V30 6578 H 616.035 3.09859 -5.13563 0
M  V30 6579 H 617.714 3.01569 -5.72421 0
M  V30 6580 N 617.846 1.41785 0.688094 0
M  V30 6581 C 619.074 1.44915 1.47673 0
M  V30 6582 C 619.489 0.0565786 1.88715 0
M  V30 6583 O 618.846 -0.92579 1.57275 0
M  V30 6584 C 618.897 2.36452 2.73446 0
M  V30 6585 O 618.618 3.7029 2.34131 0
M  V30 6586 C 620.119 2.48463 3.67125 0
M  V30 6587 H 617.339 0.493324 0.454832 0
M  V30 6588 H 619.883 1.86153 0.846594 0
M  V30 6589 H 618.038 1.98502 3.3268 0
M  V30 6590 H 618.452 4.19183 3.15255 0
M  V30 6591 H 619.926 3.16662 4.52138 0
M  V30 6592 H 620.403 1.51826 4.12123 0
M  V30 6593 H 621.009 2.8708 3.13792 0
M  V30 6594 N 619.324 -0.923095 1.27737 0
M  V30 6595 C 620.552 -1.70525 1.17171 0
M  V30 6596 C 620.967 -1.86847 -0.270881 0
M  V30 6597 O 620.324 -1.38879 -1.18401 0
M  V30 6598 C 620.375 -3.10242 1.85559 0
M  V30 6599 O 620.096 -2.94683 3.24182 0
M  V30 6600 C 621.597 -4.04586 1.81176 0
M  V30 6601 H 618.817 -0.533347 0.407163 0
M  V30 6602 H 621.361 -1.15599 1.68692 0
M  V30 6603 H 619.516 -3.62014 1.3793 0
M  V30 6604 H 619.93 -3.83045 3.58297 0
M  V30 6605 H 621.404 -5.00119 2.33633 0
M  V30 6606 H 621.881 -4.3218 0.782099 0
M  V30 6607 H 622.487 -3.58741 2.2844 0
M  V30 6608 N 620.802 -1.09834 -1.13024 0
M  V30 6609 C 621.712 -0.753731 -2.22162 0
M  V30 6610 C 622.728 0.246105 -1.72251 0
M  V30 6611 O 623.904 0.0864051 -2.01215 0
M  V30 6612 C 620.969 -0.183958 -3.46212 0
M  V30 6613 C 620.03 -1.24028 -4.10993 0
M  V30 6614 C 619.263 -0.697597 -5.29121 0
M  V30 6615 O 619.486 0.478092 -5.68393 0
M  V30 6616 O 618.42 -1.4546 -5.84059 0
M  V30 6617 H 622.246 -1.66456 -2.5402 0
M  V30 6618 H 619.831 -0.873026 -1.21238 0
M  V30 6619 H 621.713 0.130257 -4.21199 0
M  V30 6620 H 620.388 0.699823 -3.16045 0
M  V30 6621 H 619.295 -1.60725 -3.37814 0
M  V30 6622 H 620.628 -2.09685 -4.45301 0
M  V30 6623 N 622.28 1.30327 -0.886154 0
M  V30 6624 C 623.21 2.30549 -0.370028 0
M  V30 6625 C 624.191 1.61039 0.547751 0
M  V30 6626 O 625.376 1.8864 0.461353 0
M  V30 6627 C 622.506 3.44808 0.415275 0
M  V30 6628 C 621.46 4.26024 -0.41085 0
M  V30 6629 C 620.786 5.32347 0.501128 0
M  V30 6630 C 622.086 4.95433 -1.65359 0
M  V30 6631 H 623.78 2.73969 -1.20754 0
M  V30 6632 H 621.326 1.3171 -0.582097 0
M  V30 6633 H 623.279 4.13986 0.78699 0
M  V30 6634 H 622.003 3.00197 1.28644 0
M  V30 6635 H 620.662 3.58535 -0.764719 0
M  V30 6636 H 620.31 4.83982 1.37004 0
M  V30 6637 H 620.01 5.87581 -0.0478356 0
M  V30 6638 H 621.534 6.0438 0.869333 0
M  V30 6639 H 622.948 5.5712 -1.35239 0
M  V30 6640 H 621.345 5.60537 -2.14284 0
M  V30 6641 H 622.415 4.21493 -2.39733 0
M  V30 6642 N 623.758 0.647228 1.43697 0
M  V30 6643 C 624.706 -0.0600105 2.32523 0
M  V30 6644 C 625.7 -0.819277 1.48271 0
M  V30 6645 O 626.906 -0.730356 1.64517 0
M  V30 6646 H 623.281 -0.0381872 0.75103 0
M  V30 6647 H 625.252 0.706978 2.89904 0
M  V30 6648 C 624.001 -1.0169 3.32497 0
M  V30 6649 H 623.324 -0.442083 3.97348 0
M  V30 6650 H 624.764 -1.48095 3.97296 0
M  V30 6651 C 623.223 -2.11002 2.6264 0
M  V30 6652 O 623.753 -3.19302 2.4374 0
M  V30 6653 N 621.959 -1.87388 2.22113 0
M  V30 6654 H 621.506 -0.993174 2.37684 0
M  V30 6655 H 621.464 -2.60723 1.75701 0
M  V30 6656 N 625.236 -1.5273 0.388769 0
M  V30 6657 C 626.461 -2.0647 -0.19621 0
M  V30 6658 C 626.886 -1.25865 -1.39784 0
M  V30 6659 O 626.244 -0.283562 -1.79069 0
M  V30 6660 C 626.292 -3.56456 -0.5451 0
M  V30 6661 O 625.396 -3.78426 -1.63912 0
M  V30 6662 H 624.737 -0.663599 -0.023067 0
M  V30 6663 H 627.267 -1.96898 0.556084 0
M  V30 6664 H 627.277 -3.99888 -0.809557 0
M  V30 6665 H 625.952 -4.14561 0.333417 0
M  V30 6666 H 624.529 -3.46884 -1.36842 0
M  V30 6667 N 626.714 -0.118576 -1.57153 0
M  V30 6668 C 627.677 0.817464 -2.14127 0
M  V30 6669 C 628.677 1.1949 -1.07604 0
M  V30 6670 O 629.867 1.12048 -1.33382 0
M  V30 6671 C 626.999 2.10541 -2.68115 0
M  V30 6672 H 628.192 0.322339 -2.98163 0
M  V30 6673 H 625.745 0.130655 -1.55753 0
M  V30 6674 H 626.48 2.64485 -1.87665 0
M  V30 6675 H 626.265 1.84425 -3.4602 0
M  V30 6676 H 627.755 2.77453 -3.12105 0
M  V30 6677 N 628.193 1.56834 0.155195 0
M  V30 6678 C 629.421 1.87049 0.884326 0
M  V30 6679 C 629.836 0.705839 1.7511 0
M  V30 6680 O 629.193 -0.324641 1.79589 0
M  V30 6681 C 629.244 3.1644 1.74781 0
M  V30 6682 O 628.965 4.28417 0.915978 0
M  V30 6683 C 630.466 3.60113 2.58522 0
M  V30 6684 H 627.686 0.620196 0.25612 0
M  V30 6685 H 630.23 2.03946 0.150445 0
M  V30 6686 H 628.385 3.01321 2.43484 0
M  V30 6687 H 628.799 5.02353 1.50803 0
M  V30 6688 H 630.273 4.53508 3.14698 0
M  V30 6689 H 630.75 2.85005 3.34169 0
M  V30 6690 H 631.356 3.77898 1.95124 0
M  V30 6691 N 629.671 -0.424282 1.51781 0
M  V30 6692 C 630.948 -1.18464 1.55646 0
M  V30 6693 C 631.328 -2.08529 0.328438 0
M  V30 6694 O 630.676 -2.17969 -0.685693 0
M  V30 6695 C 630.886 -1.97514 2.87731 0
M  V30 6696 C 632.234 -2.54106 3.40169 0
M  V30 6697 O 633.258 -2.07711 2.89369 0
M  V30 6698 O 632.117 -3.38759 4.28841 0
M  V30 6699 H 629.211 -0.540055 0.626314 0
M  V30 6700 H 631.757 -0.432291 1.64102 0
M  V30 6701 H 630.529 -1.31444 3.68562 0
M  V30 6702 H 630.152 -2.79787 2.82498 0
M  V30 6703 N 631.149 -1.42148 -0.680565 0
M  V30 6704 C 632.097 -1.45401 -1.81552 0
M  V30 6705 C 633.091 -0.33036 -1.66147 0
M  V30 6706 O 634.297 -0.503103 -1.72826 0
M  V30 6707 H 630.672 -0.455265 -0.59853 0
M  V30 6708 H 632.643 -2.41024 -1.75926 0
M  V30 6709 C 631.392 -1.36769 -3.19671 0
M  V30 6710 H 630.715 -2.22525 -3.32149 0
M  V30 6711 H 632.155 -1.43106 -3.9912 0
M  V30 6712 C 630.614 -0.0817752 -3.36801 0
M  V30 6713 O 631.144 0.867707 -3.92216 0
M  V30 6714 N 629.35 -0.000799811 -2.906 0
M  V30 6715 H 628.897 -0.774231 -2.4569 0
M  V30 6716 H 628.855 0.858961 -3.02439 0
M  V30 6717 N 632.627 0.916307 -1.28225 0
M  V30 6718 C 634.038 1.48024 -1.13779 0
M  V30 6719 C 634.389 1.94289 0.273139 0
M  V30 6720 O 633.514 1.82226 1.16716 0
M  V30 6721 C 634.109 2.69029 -2.05935 0
M  V30 6722 C 632.668 3.2161 -1.95561 0
M  V30 6723 C 631.815 1.94321 -1.97825 0
M  V30 6724 H 634.766 0.729272 -1.40951 0
M  V30 6725 H 634.787 3.44204 -1.62184 0
M  V30 6726 H 634.299 2.35325 -3.08616 0
M  V30 6727 H 632.4 3.60045 -0.959076 0
M  V30 6728 H 632.513 3.87032 -2.82388 0
M  V30 6729 H 630.877 2.1131 -1.42198 0
M  V30 6730 H 631.66 1.62917 -3.0218 0
M  V30 6731 N 634.105 1.10431 1.1244 0
M  V30 6732 C 635.038 0.696987 2.17296 0
M  V30 6733 C 636.016 -0.301673 1.59777 0
M  V30 6734 O 637.2 -0.200583 1.8743 0
M  V30 6735 C 634.327 0.0284094 3.38688 0
M  V30 6736 C 633.373 0.990536 4.14838 0
M  V30 6737 S 634.206 2.50785 4.73146 0
M  V30 6738 C 635.362 1.85198 5.97873 0
M  V30 6739 H 635.595 1.58523 2.51511 0
M  V30 6740 H 633.128 0.921312 1.239 0
M  V30 6741 H 635.086 -0.351009 4.08997 0
M  V30 6742 H 633.747 -0.836629 3.02753 0
M  V30 6743 H 632.94 0.469991 5.01804 0
M  V30 6744 H 632.542 1.31186 3.50237 0
M  V30 6745 H 634.834 1.18217 6.67106 0
M  V30 6746 H 635.777 2.7012 6.54554 0
M  V30 6747 H 636.185 1.31653 5.48933 0
M  V30 6748 N 635.583 -1.29855 0.893053 0
M  V30 6749 C 636.829 -1.96116 0.516349 0
M  V30 6750 C 637.162 -1.70281 -0.933695 0
M  V30 6751 O 636.437 -1.01205 -1.66096 0
M  V30 6752 C 636.72 -3.51068 0.801455 0
M  V30 6753 C 636.573 -3.86387 2.30272 0
M  V30 6754 C 637.892 -4.39186 0.283423 0
M  V30 6755 H 635.011 -0.712335 0.189072 0
M  V30 6756 H 637.653 -1.53587 1.11852 0
M  V30 6757 H 635.803 -3.87424 0.288949 0
M  V30 6758 H 637.475 -3.60012 2.88425 0
M  V30 6759 H 635.718 -3.34167 2.76613 0
M  V30 6760 H 636.389 -4.94512 2.45279 0
M  V30 6761 H 638.865 -4.09785 0.722187 0
M  V30 6762 H 637.741 -5.46505 0.512169 0
M  V30 6763 H 638.002 -4.34511 -0.815643 0
M  V30 6764 N 637.061 -0.65484 -1.43351 0
M  V30 6765 C 638.308 -0.168892 -2.01794 0
M  V30 6766 C 638.636 1.2177 -1.51665 0
M  V30 6767 O 637.891 1.82717 -0.70092 0
M  V30 6768 C 638.19 -0.130424 -3.57162 0
M  V30 6769 C 637.856 -1.45898 -4.26643 0
M  V30 6770 C 636.518 -1.82279 -4.4534 0
M  V30 6771 C 638.87 -2.33485 -4.65976 0
M  V30 6772 C 636.198 -3.0591 -5.00635 0
M  V30 6773 C 638.55 -3.5641 -5.22642 0
M  V30 6774 C 637.214 -3.92985 -5.39555 0
M  V30 6775 H 636.484 -0.061802 -0.738418 0
M  V30 6776 H 639.131 -0.845869 -1.71806 0
M  V30 6777 H 637.436 0.630008 -3.86702 0
M  V30 6778 H 639.133 0.262465 -4.0014 0
M  V30 6779 H 635.723 -1.16591 -4.12437 0
M  V30 6780 H 639.907 -2.06668 -4.51223 0
M  V30 6781 H 635.163 -3.34295 -5.11915 0
M  V30 6782 H 639.337 -4.24495 -5.52066 0
M  V30 6783 H 636.964 -4.88862 -5.82167 0
M  V30 6784 N 638.539 1.52521 -0.396863 0
M  V30 6785 C 639.502 2.2527 0.422604 0
M  V30 6786 C 640.502 1.27184 0.983913 0
M  V30 6787 O 641.692 1.51222 0.864723 0
M  V30 6788 C 638.824 3.01356 1.59365 0
M  V30 6789 H 640.017 2.99133 -0.214416 0
M  V30 6790 H 637.57 1.55587 -0.149128 0
M  V30 6791 H 638.305 2.31813 2.26789 0
M  V30 6792 H 638.09 3.73357 1.19779 0
M  V30 6793 H 639.58 3.56571 2.17363 0
M  V30 6794 N 640.017 0.126909 1.57088 0
M  V30 6795 C 640.965 -0.837618 2.16995 0
M  V30 6796 C 641.959 -1.26974 1.12133 0
M  V30 6797 O 643.165 -1.24056 1.30423 0
M  V30 6798 H 639.54 -0.288256 0.694559 0
M  V30 6799 H 641.511 -0.307957 2.96807 0
M  V30 6800 C 640.26 -2.07474 2.79016 0
M  V30 6801 H 639.583 -1.75117 3.59408 0
M  V30 6802 H 641.023 -2.72949 3.24461 0
M  V30 6803 C 639.482 -2.86967 1.76498 0
M  V30 6804 O 640.012 -3.82625 1.22316 0
M  V30 6805 N 638.218 -2.51111 1.46258 0
M  V30 6806 H 637.765 -1.73389 1.90509 0
M  V30 6807 H 637.723 -3.04594 0.779085 0
M  V30 6808 N 641.495 -1.56914 -0.146875 0
M  V30 6809 C 642.911 -1.51582 -0.499518 0
M  V30 6810 C 643.111 -0.83535 -1.83369 0
M  V30 6811 O 642.167 -0.405932 -2.49216 0
M  V30 6812 C 643.48 -2.96349 -0.509711 0
M  V30 6813 C 645.028 -3.07288 -0.595217 0
M  V30 6814 C 645.503 -4.53562 -0.636071 0
M  V30 6815 N 646.994 -4.57906 -0.69829 0
M  V30 6816 C 647.729 -5.68462 -0.750886 0
M  V30 6817 N 647.225 -6.88588 -0.76282 0
M  V30 6818 N 649.018 -5.56496 -0.791777 0
M  V30 6819 H 641.169 -1.99547 0.727656 0
M  V30 6820 H 643.432 -0.910113 0.265327 0
M  V30 6821 H 643.138 -3.4939 0.402409 0
M  V30 6822 H 643.012 -3.52307 -1.34758 0
M  V30 6823 H 645.399 -2.54266 -1.49776 0
M  V30 6824 H 645.48 -2.54373 0.2698 0
M  V30 6825 H 645.124 -5.07222 0.262313 0
M  V30 6826 H 645.054 -5.04259 -1.51758 0
M  V30 6827 H 647.545 -3.71429 -0.696362 0
M  V30 6828 H 647.858 -7.68598 -0.804804 0
M  V30 6829 H 646.203 -6.91148 -0.730694 0
M  V30 6830 H 649.394 -4.61562 -0.779624 0
M  V30 6831 H 649.567 -6.42671 -0.829301 0
M  V30 6832 N 642.974 0.416227 -1.52004 0
M  V30 6833 C 644.222 1.16153 -1.65387 0
M  V30 6834 C 644.543 1.91208 -0.382669 0
M  V30 6835 O 643.813 1.86413 0.602231 0
M  V30 6836 H 642.393 0.431765 -0.60958 0
M  V30 6837 H 645.055 0.475151 -1.89019 0
M  V30 6838 H 644.151 1.87952 -2.4916 0
M  V30 6839 N 644.452 1.42507 0.673017 0
M  V30 6840 C 645.362 1.4853 1.81593 0
M  V30 6841 C 646.378 0.373907 1.69935 0
M  V30 6842 O 647.554 0.625078 1.91454 0
M  V30 6843 C 644.619 1.387 3.17747 0
M  V30 6844 C 643.68 2.60346 3.41348 0
M  V30 6845 C 642.913 2.50975 4.71007 0
M  V30 6846 O 643.136 1.54659 5.49033 0
M  V30 6847 O 642.07 3.41138 4.95892 0
M  V30 6848 H 645.896 2.45001 1.79467 0
M  V30 6849 H 643.481 1.2429 0.82899 0
M  V30 6850 H 645.363 1.35586 3.98992 0
M  V30 6851 H 644.038 0.453555 3.20507 0
M  V30 6852 H 642.945 2.69034 2.59945 0
M  V30 6853 H 644.278 3.52595 3.43421 0
M  V30 6854 N 645.93 -0.909495 1.28709 0
M  V30 6855 C 647.158 -1.69272 1.18973 0
M  V30 6856 C 647.573 -1.87123 -0.251048 0
M  V30 6857 O 646.93 -1.40127 -1.16922 0
M  V30 6858 C 646.981 -3.08257 1.88839 0
M  V30 6859 O 646.702 -2.91228 3.27289 0
M  V30 6860 C 648.203 -4.02642 1.85457 0
M  V30 6861 H 645.423 -0.528999 0.412797 0
M  V30 6862 H 647.967 -1.13803 1.69909 0
M  V30 6863 H 646.122 -3.6053 1.41762 0
M  V30 6864 H 646.536 -3.79223 3.6234 0
M  V30 6865 H 648.01 -4.97613 2.38925 0
M  V30 6866 H 648.487 -4.31327 0.827893 0
M  V30 6867 H 649.093 -3.56298 2.32233 0
M  V30 6868 N 647.408 -1.11026 -1.11852 0
M  V30 6869 C 648.654 -0.857729 -1.83768 0
M  V30 6870 C 648.987 0.615143 -1.842 0
M  V30 6871 O 648.262 1.45391 -1.29196 0
M  V30 6872 C 648.545 -1.41453 -3.31154 0
M  V30 6873 C 648.398 -2.95471 -3.39142 0
M  V30 6874 C 649.717 -1.0619 -4.27097 0
M  V30 6875 H 646.836 -0.313044 -0.667212 0
M  V30 6876 H 649.478 -1.37443 -1.31185 0
M  V30 6877 H 647.628 -0.975052 -3.76065 0
M  V30 6878 H 649.3 -3.4799 -3.02821 0
M  V30 6879 H 647.543 -3.31759 -2.79497 0
M  V30 6880 H 648.214 -3.29515 -4.42859 0
M  V30 6881 H 650.69 -1.44122 -3.90344 0
M  V30 6882 H 649.566 -1.47832 -5.28618 0
M  V30 6883 H 649.827 0.0278912 -4.42091 0
M  V30 6884 N 648.886 1.2938 -0.899927 0
M  V30 6885 C 650.111 2.00228 -0.540692 0
M  V30 6886 C 650.536 1.66909 0.867359 0
M  V30 6887 O 649.894 0.893824 1.57735 0
M  V30 6888 C 649.942 3.52921 -0.740232 0
M  V30 6889 O 649.046 4.11879 0.207154 0
M  V30 6890 H 648.387 0.629505 -0.211233 0
M  V30 6891 H 650.917 1.6487 -1.21158 0
M  V30 6892 H 650.927 4.0287 -0.644973 0
M  V30 6893 H 649.602 3.76508 -1.76677 0
M  V30 6894 H 648.179 3.72845 0.0643315 0
M  V30 6895 N 650.364 0.662433 1.43002 0
M  V30 6896 C 651.612 0.179237 2.01304 0
M  V30 6897 C 651.933 -1.21428 1.52579 0
M  V30 6898 O 651.203 -1.81294 0.742252 0
M  V30 6899 H 649.783 0.0632725 0.744316 0
M  V30 6900 H 652.445 0.856169 1.75088 0
M  V30 6901 H 651.541 0.170957 3.11631 0
M  V30 6902 N 651.842 -1.52309 0.404946 0
M  V30 6903 C 653.09 -2.01368 -0.17186 0
M  V30 6904 C 653.411 -1.29261 -1.46002 0
M  V30 6905 O 652.681 -0.41729 -1.91404 0
M  V30 6906 H 651.261 -0.744034 -0.0664993 0
M  V30 6907 H 653.923 -1.87263 0.540228 0
M  V30 6908 H 653.019 -3.09888 -0.370957 0
M  V30 6909 N 653.32 -0.135238 -1.57019 0
M  V30 6910 C 654.268 0.826099 -2.17436 0
M  V30 6911 C 655.262 1.26378 -1.12805 0
M  V30 6912 O 656.468 1.23363 -1.31079 0
M  V30 6913 H 652.843 0.284568 -0.696078 0
M  V30 6914 H 654.814 0.292212 -2.96966 0
M  V30 6915 C 653.563 2.05991 -2.80112 0
M  V30 6916 H 652.886 1.73209 -3.60331 0
M  V30 6917 H 654.326 2.71225 -3.25903 0
M  V30 6918 C 652.785 2.86027 -1.78017 0
M  V30 6919 O 653.315 3.81971 -1.24344 0
M  V30 6920 N 651.521 2.50332 -1.47588 0
M  V30 6921 H 651.068 1.72377 -1.91426 0
M  V30 6922 H 651.026 3.04177 -0.795228 0
M  V30 6923 N 654.798 1.5699 0.138552 0
M  V30 6924 C 656.045 1.83809 0.849732 0
M  V30 6925 C 656.373 0.717409 1.80786 0
M  V30 6926 O 655.628 -0.292897 1.93496 0
M  V30 6927 C 655.927 3.17007 1.65049 0
M  V30 6928 C 655.593 4.43037 0.838398 0
M  V30 6929 C 654.255 4.77262 0.614385 0
M  V30 6930 C 656.607 5.20495 0.271044 0
M  V30 6931 C 653.935 5.864 -0.187552 0
M  V30 6932 C 656.287 6.30476 -0.517979 0
M  V30 6933 C 654.951 6.63245 -0.75249 0
M  V30 6934 H 654.221 0.672605 0.310939 0
M  V30 6935 H 656.868 1.91166 0.112971 0
M  V30 6936 H 655.173 3.05138 2.4576 0
M  V30 6937 H 656.87 3.34975 2.20437 0
M  V30 6938 H 653.46 4.16211 1.02307 0
M  V30 6939 H 657.644 4.94422 0.431371 0
M  V30 6940 H 652.9 6.10226 -0.378659 0
M  V30 6941 H 657.074 6.89686 -0.964694 0
M  V30 6942 H 654.701 7.47648 -1.37573 0
M  V30 6943 N 656.276 -0.40816 1.52223 0
M  V30 6944 C 657.226 -1.49648 1.72016 0
M  V30 6945 C 658.21 -1.50311 0.574069 0
M  V30 6946 O 659.402 -1.56271 0.831173 0
M  V30 6947 C 656.531 -2.87566 1.87512 0
M  V30 6948 C 655.617 -2.91547 3.07995 0
M  V30 6949 N 656.008 -2.65225 4.30685 0
M  V30 6950 C 654.306 -3.22715 3.07849 0
M  V30 6951 C 655.007 -2.75799 5.12162 0
M  V30 6952 N 653.983 -3.08719 4.4743 0
M  V30 6953 H 657.785 -1.28093 2.64517 0
M  V30 6954 H 655.299 -0.61588 1.50269 0
M  V30 6955 H 657.296 -3.65899 1.99809 0
M  V30 6956 H 655.956 -3.10118 0.962114 0
M  V30 6957 H 656.967 -2.39601 4.59142 0
M  V30 6958 H 653.644 -3.50856 2.26289 0
M  V30 6959 H 655.034 -2.59155 6.1991 0
M  V30 6960 N 657.755 -1.42862 -0.66545 0
M  V30 6961 C 659.003 -1.43546 -1.42264 0
M  V30 6962 C 659.324 -0.0563116 -1.94919 0
M  V30 6963 O 658.594 0.906568 -1.73661 0
M  V30 6964 H 657.174 -0.528464 -0.527953 0
M  V30 6965 H 659.836 -1.78363 -0.785665 0
M  V30 6966 H 658.932 -2.14079 -2.27105 0
M  V30 6967 N 659.233 0.902656 -1.29189 0
M  V30 6968 C 660.143 2.03946 -1.15944 0
M  V30 6969 C 661.159 1.738 -0.0833803 0
M  V30 6970 O 662.335 1.9923 -0.29487 0
M  V30 6971 C 659.4 3.36519 -0.834006 0
M  V30 6972 C 658.461 3.80203 -1.9936 0
M  V30 6973 C 657.694 5.06449 -1.68359 0
M  V30 6974 O 657.917 5.67202 -0.603141 0
M  V30 6975 O 656.851 5.46114 -2.53067 0
M  V30 6976 H 660.677 2.18043 -2.11403 0
M  V30 6977 H 658.262 1.02584 -1.08613 0
M  V30 6978 H 660.144 4.16089 -0.666949 0
M  V30 6979 H 658.819 3.23573 0.0908245 0
M  V30 6980 H 657.726 3.01413 -2.21588 0
M  V30 6981 H 659.059 3.97729 -2.89952 0
M  V30 6982 N 660.711 1.11618 1.11262 0
M  V30 6983 C 661.941 0.88745 1.86569 0
M  V30 6984 C 662.349 -0.56636 1.80524 0
M  V30 6985 O 661.692 -1.40289 1.18594 0
M  V30 6986 C 661.754 1.27313 3.36202 0
M  V30 6987 C 661.418 2.73649 3.66013 0
M  V30 6988 C 662.415 3.71863 3.63337 0
M  V30 6989 C 660.1 3.10342 3.9496 0
M  V30 6990 C 662.094 5.04788 3.89188 0
M  V30 6991 C 659.781 4.43451 4.20469 0
M  V30 6992 C 660.779 5.40484 4.17572 0
M  V30 6993 O 660.467 6.71195 4.42439 0
M  V30 6994 H 660.199 0.317543 0.596777 0
M  V30 6995 H 662.753 1.48768 1.41624 0
M  V30 6996 H 660.983 0.616062 3.81761 0
M  V30 6997 H 662.672 1.01991 3.92877 0
M  V30 6998 H 663.438 3.44861 3.41022 0
M  V30 6999 H 659.317 2.35431 3.9635 0
M  V30 7000 H 662.861 5.80516 3.86842 0
M  V30 7001 H 658.758 4.70187 4.42261 0
M  V30 7002 H 659.526 6.77012 4.59997 0
M  V30 7003 N 662.189 -1.289 0.906776 0
M  V30 7004 C 663.6 -1.77336 0.58384 0
M  V30 7005 C 663.951 -1.74304 -0.900697 0
M  V30 7006 O 663.076 -1.33335 -1.70443 0
M  V30 7007 C 663.671 -3.22019 1.05304 0
M  V30 7008 C 662.23 -3.68205 0.781148 0
M  V30 7009 C 661.377 -2.48837 1.22373 0
M  V30 7010 H 664.328 -1.15462 1.08877 0
M  V30 7011 H 664.349 -3.78481 0.391414 0
M  V30 7012 H 663.861 -3.24194 2.13353 0
M  V30 7013 H 661.962 -3.71497 -0.28643 0
M  V30 7014 H 662.075 -4.58675 1.384 0
M  V30 7015 H 660.439 -2.46461 0.642594 0
M  V30 7016 H 661.222 -2.53736 2.31242 0
M  V30 7017 N 663.667 -0.670007 -1.42649 0
M  V30 7018 C 664.63 0.00204659 -2.292 0
M  V30 7019 C 665.63 0.733817 -1.4308 0
M  V30 7020 O 666.82 0.57254 -1.64522 0
M  V30 7021 C 663.952 1.01359 -3.25483 0
M  V30 7022 H 665.145 -0.759696 -2.90118 0
M  V30 7023 H 662.698 -0.432105 -1.50208 0
M  V30 7024 H 663.433 1.80399 -2.69493 0
M  V30 7025 H 663.218 0.492323 -3.88997 0
M  V30 7026 H 664.708 1.4824 -3.90403 0
M  V30 7027 N 665.145 1.52092 -0.413018 0
M  V30 7028 C 666.092 2.27119 0.410558 0
M  V30 7029 C 667.062 1.29692 1.03774 0
M  V30 7030 O 668.247 1.58561 1.06128 0
M  V30 7031 C 665.387 3.09863 1.51918 0
M  V30 7032 C 664.5 4.22252 0.912528 0
M  V30 7033 C 663.635 4.92348 1.99417 0
M  V30 7034 C 662.674 5.96694 1.36466 0
M  V30 7035 N 661.811 6.60292 2.38661 0
M  V30 7036 H 666.651 2.97067 -0.235661 0
M  V30 7037 H 664.188 1.46542 -0.128055 0
M  V30 7038 H 666.146 3.56144 2.17295 0
M  V30 7039 H 664.776 2.42078 2.13537 0
M  V30 7040 H 663.828 3.80113 0.147697 0
M  V30 7041 H 665.14 4.9709 0.412717 0
M  V30 7042 H 664.294 5.42054 2.72512 0
M  V30 7043 H 663.033 4.17087 2.52764 0
M  V30 7044 H 662.038 5.46304 0.61906 0
M  V30 7045 H 663.263 6.73899 0.838827 0
M  V30 7046 H 661.209 5.87858 2.91134 0
M  V30 7047 H 661.126 7.30816 1.93503 0
M  V30 7048 H 662.394 7.14635 3.11314 0
M  V30 7049 N 666.623 0.143563 1.56945 0
M  V30 7050 C 667.586 -0.783295 2.154 0
M  V30 7051 C 668.586 -1.17763 1.09492 0
M  V30 7052 O 669.776 -1.09912 1.35148 0
M  V30 7053 C 666.908 -2.06248 2.7143 0
M  V30 7054 H 668.101 -0.274863 2.98638 0
M  V30 7055 H 665.654 -0.105859 1.55941 0
M  V30 7056 H 666.389 -2.61466 1.91849 0
M  V30 7057 H 666.174 -1.78897 3.4891 0
M  V30 7058 H 667.664 -2.72453 3.16479 0
M  V30 7059 N 668.101 -1.57061 -0.130224 0
M  V30 7060 C 669.031 -2.02552 -1.16168 0
M  V30 7061 C 670.012 -0.907971 -1.4384 0
M  V30 7062 O 671.197 -1.17693 -1.54473 0
M  V30 7063 C 668.327 -2.42035 -2.49071 0
M  V30 7064 C 667.281 -3.5713 -2.35886 0
M  V30 7065 C 666.607 -3.82478 -3.7365 0
M  V30 7066 C 667.907 -4.89236 -1.8288 0
M  V30 7067 H 669.601 -2.8897 -0.783359 0
M  V30 7068 H 667.147 -1.39021 -0.375376 0
M  V30 7069 H 669.1 -2.72462 -3.21469 0
M  V30 7070 H 667.824 -1.52573 -2.88771 0
M  V30 7071 H 666.483 -3.26895 -1.65938 0
M  V30 7072 H 666.131 -2.9024 -4.10816 0
M  V30 7073 H 665.831 -4.59944 -3.65685 0
M  V30 7074 H 667.355 -4.15347 -4.47571 0
M  V30 7075 H 668.769 -5.18272 -2.45085 0
M  V30 7076 H 667.166 -5.70624 -1.85763 0
M  V30 7077 H 668.236 -4.78494 -0.785571 0
M  V30 7078 N 669.579 0.400081 -1.52437 0
M  V30 7079 C 670.856 1.15973 -1.57511 0
M  V30 7080 C 671.236 2.0798 -0.361572 0
M  V30 7081 O 670.584 2.19032 0.650929 0
M  V30 7082 C 670.794 1.92912 -2.90837 0
M  V30 7083 C 672.142 2.48662 -3.44169 0
M  V30 7084 O 673.166 2.03081 -2.92637 0
M  V30 7085 O 672.025 3.31894 -4.34176 0
M  V30 7086 H 669.119 0.530023 -0.634827 0
M  V30 7087 H 671.665 0.40613 -1.64769 0
M  V30 7088 H 670.437 1.25564 -3.70607 0
M  V30 7089 H 670.06 2.75257 -2.86913 0
M  V30 7090 N 671.057 1.43213 0.657864 0
M  V30 7091 C 672.287 1.478 1.44356 0
M  V30 7092 C 672.695 0.0930206 1.88971 0
M  V30 7093 O 672.038 -0.906089 1.59799 0
M  V30 7094 C 672.1 2.35745 2.71412 0
M  V30 7095 C 671.764 3.83359 2.48767 0
M  V30 7096 C 672.761 4.74585 2.12285 0
M  V30 7097 C 670.446 4.27799 2.63235 0
M  V30 7098 C 672.44 6.08247 1.90562 0
M  V30 7099 C 670.127 5.61516 2.41128 0
M  V30 7100 C 671.125 6.51557 2.04847 0
M  V30 7101 O 670.813 7.82802 1.82967 0
M  V30 7102 H 670.545 0.504363 0.450104 0
M  V30 7103 H 673.099 1.88572 0.814241 0
M  V30 7104 H 671.329 1.89852 3.36887 0
M  V30 7105 H 673.018 2.31589 3.33348 0
M  V30 7106 H 673.784 4.41531 2.00687 0
M  V30 7107 H 669.663 3.57993 2.90451 0
M  V30 7108 H 673.207 6.78489 1.62168 0
M  V30 7109 H 669.104 5.94139 2.52327 0
M  V30 7110 H 669.872 7.94332 1.97429 0
M  V30 7111 N 672.536 -0.895792 1.29666 0
M  V30 7112 C 673.466 -2.01673 1.17688 0
M  V30 7113 C 674.447 -1.69955 0.0701317 0
M  V30 7114 O 675.632 -1.9258 0.250289 0
M  V30 7115 C 672.762 -3.36568 0.856681 0
M  V30 7116 C 671.716 -3.82509 1.92017 0
M  V30 7117 C 671.042 -5.14574 1.4532 0
M  V30 7118 C 672.342 -4.02409 3.32963 0
M  V30 7119 H 674.036 -2.11953 2.11463 0
M  V30 7120 H 671.582 -1.01839 1.01807 0
M  V30 7121 H 673.535 -4.14498 0.759577 0
M  V30 7122 H 672.259 -3.26391 -0.116763 0
M  V30 7123 H 670.918 -3.068 2.00673 0
M  V30 7124 H 670.566 -5.00815 0.468325 0
M  V30 7125 H 670.266 -5.46283 2.16447 0
M  V30 7126 H 671.79 -5.9504 1.36968 0
M  V30 7127 H 673.204 -4.70808 3.27127 0
M  V30 7128 H 671.601 -4.45478 4.02082 0
M  V30 7129 H 672.671 -3.06616 3.75652 0
M  V30 7130 N 674.014 -1.12206 -1.10668 0
M  V30 7131 C 674.977 -0.790867 -2.15123 0
M  V30 7132 C 675.977 0.193618 -1.5963 0
M  V30 7133 O 677.167 -0.0318728 -1.74171 0
M  V30 7134 C 674.299 -0.174797 -3.40452 0
M  V30 7135 H 675.492 -1.7163 -2.45933 0
M  V30 7136 H 673.045 -0.924993 -1.2599 0
M  V30 7137 H 673.78 0.760478 -3.15257 0
M  V30 7138 H 673.565 -0.88358 -3.82015 0
M  V30 7139 H 675.055 0.0405162 -4.1758 0
M  V30 7140 N 675.492 1.28418 -0.913599 0
M  V30 7141 C 676.741 1.94265 -0.542572 0
M  V30 7142 C 677.054 1.72709 0.918207 0
M  V30 7143 O 678.26 2.32778 1.39738 0
M  V30 7144 C 676.716 3.47956 -0.919507 0
M  V30 7145 C 676.324 3.78291 -2.4 0
M  V30 7146 C 678.068 4.19962 -0.619057 0
M  V30 7147 C 675.975 5.2529 -2.71707 0
M  V30 7148 H 674.905 0.727213 -0.199192 0
M  V30 7149 H 677.556 1.45931 -1.11249 0
M  V30 7150 H 675.938 3.9502 -0.278372 0
M  V30 7151 H 677.112 3.42035 -3.08786 0
M  V30 7152 H 675.427 3.19456 -2.67089 0
M  V30 7153 H 678.024 5.28178 -0.832623 0
M  V30 7154 H 678.367 4.13935 0.443126 0
M  V30 7155 H 678.9 3.78674 -1.21865 0
M  V30 7156 H 675.639 5.36394 -3.76778 0
M  V30 7157 H 675.159 5.62743 -2.07559 0
M  V30 7158 H 676.838 5.93027 -2.58703 0
M  V30 7159 N 676.97 0.677563 1.42291 0
M  V30 7160 C 678.218 0.200578 2.01102 0
M  V30 7161 C 678.539 -1.19803 1.53858 0
M  V30 7162 O 677.809 -1.80496 0.761439 0
M  V30 7163 H 676.389 0.0711634 0.743603 0
M  V30 7164 H 679.051 0.874691 1.7417 0
M  V30 7165 H 678.147 0.204 3.11433 0
M  V30 7166 N 678.448 -1.51871 0.421078 0
M  V30 7167 C 679.697 -2.01125 -0.152206 0
M  V30 7168 C 680.01 -1.3106 -1.45199 0
M  V30 7169 O 681.216 -1.71195 -2.10724 0
M  V30 7170 C 679.672 -3.58458 -0.3218 0
M  V30 7171 C 679.28 -4.37448 0.96659 0
M  V30 7172 C 681.024 -4.15908 -0.84973 0
M  V30 7173 C 678.931 -5.86451 0.763529 0
M  V30 7174 H 677.861 -0.751556 -0.0606565 0
M  V30 7175 H 680.512 -1.75115 0.548354 0
M  V30 7176 H 678.894 -3.80847 -1.08498 0
M  V30 7177 H 680.068 -4.26814 1.73684 0
M  V30 7178 H 678.383 -3.91373 1.42183 0
M  V30 7179 H 680.98 -5.24922 -1.01788 0
M  V30 7180 H 681.323 -3.74031 -1.82774 0
M  V30 7181 H 681.856 -3.97535 -0.145297 0
M  V30 7182 H 678.595 -6.3271 1.71344 0
M  V30 7183 H 678.115 -5.99791 0.0327889 0
M  V30 7184 H 679.794 -6.45697 0.410354 0
M  V30 7185 N 679.926 -0.151884 -1.56866 0
M  V30 7186 C 680.876 0.797799 -2.13586 0
M  V30 7187 C 681.86 1.20613 -1.06496 0
M  V30 7188 O 683.052 1.17173 -1.32663 0
M  V30 7189 C 680.181 2.03493 -2.76488 0
M  V30 7190 C 679.267 1.64948 -3.90708 0
M  V30 7191 N 679.658 0.972513 -4.96363 0
M  V30 7192 C 677.956 1.94186 -4.01507 0
M  V30 7193 C 678.657 0.785661 -5.7637 0
M  V30 7194 N 677.633 1.32105 -5.27304 0
M  V30 7195 H 681.435 0.271403 -2.92644 0
M  V30 7196 H 678.949 0.049487 -1.62325 0
M  V30 7197 H 680.946 2.72532 -3.15487 0
M  V30 7198 H 679.606 2.56646 -1.98904 0
M  V30 7199 H 680.617 0.632724 -5.1402 0
M  V30 7200 H 677.294 2.49154 -3.35005 0
M  V30 7201 H 678.684 0.251749 -6.71428 0
M  V30 7202 N 681.404 1.57128 0.121893 0
M  V30 7203 C 682.314 2.03425 1.16857 0
M  V30 7204 C 683.33 0.954108 1.45509 0
M  V30 7205 O 684.506 1.26541 1.56682 0
M  V30 7206 C 681.571 2.42685 2.47599 0
M  V30 7207 C 680.632 3.64767 2.2637 0
M  V30 7208 C 679.865 4.02145 3.50878 0
M  V30 7209 O 680.088 3.39897 4.58068 0
M  V30 7210 O 679.022 4.95262 3.42051 0
M  V30 7211 H 682.848 2.92825 0.80544 0
M  V30 7212 H 680.433 1.45654 0.332477 0
M  V30 7213 H 682.315 2.68684 3.24634 0
M  V30 7214 H 680.99 1.56432 2.83392 0
M  V30 7215 H 679.897 3.43922 1.47203 0
M  V30 7216 H 681.23 4.51716 1.95482 0
M  V30 7217 N 682.882 -0.391992 1.52647 0
M  V30 7218 C 683.812 -1.48517 1.8018 0
M  V30 7219 C 684.793 -1.57039 0.653667 0
M  V30 7220 O 685.978 -1.72036 0.900962 0
M  V30 7221 C 683.108 -2.86161 1.96797 0
M  V30 7222 C 682.062 -2.92481 3.12472 0
M  V30 7223 C 681.388 -4.32546 3.14338 0
M  V30 7224 C 682.688 -2.624 4.51601 0
M  V30 7225 H 684.382 -1.25726 2.71723 0
M  V30 7226 H 681.928 -0.603387 1.30749 0
M  V30 7227 H 683.881 -3.62639 2.14641 0
M  V30 7228 H 682.605 -3.10283 1.01941 0
M  V30 7229 H 681.264 -2.18451 2.94406 0
M  V30 7230 H 680.912 -4.53703 2.1717 0
M  V30 7231 H 680.612 -4.37695 3.92042 0
M  V30 7232 H 682.136 -5.10934 3.34333 0
M  V30 7233 H 683.55 -3.28596 4.69785 0
M  V30 7234 H 681.947 -2.78903 5.3135 0
M  V30 7235 H 683.017 -1.57754 4.58521 0
M  V30 7236 N 684.36 -1.4356 -0.65026 0
M  V30 7237 C 685.323 -1.48615 -1.74489 0
M  V30 7238 C 686.323 -0.370483 -1.56474 0
M  V30 7239 O 687.513 -0.632351 -1.62317 0
M  V30 7240 C 684.645 -1.34161 -3.13391 0
M  V30 7241 H 685.838 -2.46103 -1.71387 0
M  V30 7242 H 683.391 -1.30369 -0.862186 0
M  V30 7243 H 684.126 -0.376918 -3.22102 0
M  V30 7244 H 683.911 -2.1504 -3.27872 0
M  V30 7245 H 685.401 -1.40637 -3.93206 0
M  V30 7246 N 685.838 0.888903 -1.30139 0
M  V30 7247 C 686.801 1.97576 -1.16174 0
M  V30 7248 C 687.801 1.60525 -0.094086 0
M  V30 7249 O 688.991 1.70812 -0.341889 0
M  V30 7250 C 686.123 3.3188 -0.778983 0
M  V30 7251 H 687.316 2.11393 -2.12728 0
M  V30 7252 H 684.869 1.0748 -1.1348 0
M  V30 7253 H 685.604 3.23765 0.186225 0
M  V30 7254 H 685.389 3.60141 -1.55051 0
M  V30 7255 H 686.879 4.11612 -0.704631 0
M  V30 7256 N 687.317 1.12792 1.10072 0
M  V30 7257 C 688.566 0.880232 1.81479 0
M  V30 7258 C 688.879 -0.595575 1.86312 0
M  V30 7259 O 690.085 -0.959979 2.53962 0
M  V30 7260 C 688.541 1.52514 3.25987 0
M  V30 7261 C 688.149 3.036 3.29441 0
M  V30 7262 C 689.893 1.35788 4.02196 0
M  V30 7263 C 687.8 3.61007 4.68431 0
M  V30 7264 H 686.73 0.325654 0.680048 0
M  V30 7265 H 689.381 1.35485 1.23758 0
M  V30 7266 H 687.763 0.978188 3.83728 0
M  V30 7267 H 688.937 3.64819 2.81502 0
M  V30 7268 H 687.252 3.19765 2.66719 0
M  V30 7269 H 689.849 1.76096 5.0487 0
M  V30 7270 H 690.192 0.301972 4.15203 0
M  V30 7271 H 690.725 1.87426 3.50879 0
M  V30 7272 H 687.464 4.66375 4.60625 0
M  V30 7273 H 686.984 3.04564 5.16721 0
M  V30 7274 H 688.663 3.60289 5.37402 0
M  V30 7275 N 688.795 -1.27931 0.920396 0
M  V30 7276 C 690.02 -1.99343 0.572478 0
M  V30 7277 C 690.445 -1.68267 -0.840696 0
M  V30 7278 O 689.803 -0.918805 -1.56294 0
M  V30 7279 C 689.851 -3.51698 0.796284 0
M  V30 7280 O 688.955 -4.12157 -0.141602 0
M  V30 7281 H 688.296 -0.626065 0.221221 0
M  V30 7282 H 690.826 -1.62921 1.23765 0
M  V30 7283 H 690.836 -4.01793 0.708984 0
M  V30 7284 H 689.511 -3.73649 1.82644 0
M  V30 7285 H 688.088 -3.729 -0.005007 0
M  V30 7286 N 690.273 -0.685099 -1.4193 0
M  V30 7287 C 691.183 -0.013404 -2.34596 0
M  V30 7288 C 692.199 0.777589 -1.55658 0
M  V30 7289 O 693.375 0.717553 -1.88184 0
M  V30 7290 C 690.44 0.919031 -3.34297 0
M  V30 7291 C 689.501 0.121417 -4.29128 0
M  V30 7292 C 688.734 1.00944 -5.24067 0
M  V30 7293 O 688.957 2.24898 -5.24192 0
M  V30 7294 O 687.891 0.464724 -6.00103 0
M  V30 7295 H 691.717 -0.776978 -2.93593 0
M  V30 7296 H 689.302 -0.445379 -1.42607 0
M  V30 7297 H 691.184 1.45402 -3.9552 0
M  V30 7298 H 689.859 1.66228 -2.77759 0
M  V30 7299 H 688.766 -0.45792 -3.71287 0
M  V30 7300 H 690.099 -0.582937 -4.88736 0
M  V30 7301 N 691.751 1.51645 -0.429126 0
M  V30 7302 C 693.167 1.59394 -0.080994 0
M  V30 7303 C 693.367 1.44064 1.40882 0
M  V30 7304 O 692.423 1.27771 2.17786 0
M  V30 7305 C 693.736 2.94779 -0.593773 0
M  V30 7306 C 695.284 3.08067 -0.553494 0
M  V30 7307 C 695.759 4.45963 -1.04311 0
M  V30 7308 N 697.25 4.5226 -1.00076 0
M  V30 7309 C 697.985 5.57268 -1.35056 0
M  V30 7310 N 697.481 6.69734 -1.77282 0
M  V30 7311 N 699.274 5.47582 -1.26925 0
M  V30 7312 H 691.425 1.59856 -1.39857 0
M  V30 7313 H 693.688 0.753095 -0.575805 0
M  V30 7314 H 693.394 3.11342 -1.63583 0
M  V30 7315 H 693.268 3.77197 -0.0142202 0
M  V30 7316 H 695.655 2.91177 0.479556 0
M  V30 7317 H 695.736 2.27508 -1.16935 0
M  V30 7318 H 695.38 4.63598 -2.07459 0
M  V30 7319 H 695.31 5.25049 -0.403873 0
M  V30 7320 H 697.801 3.71537 -0.690564 0
M  V30 7321 H 698.114 7.4587 -2.02232 0
M  V30 7322 H 696.459 6.70963 -1.81202 0
M  V30 7323 H 699.65 4.58604 -0.93809 0
M  V30 7324 H 699.823 6.29308 -1.54516 0
M  V30 7325 N 693.229 0.160201 1.56784 0
M  V30 7326 C 694.645 -0.196089 1.58391 0
M  V30 7327 C 694.845 -1.63689 1.17508 0
M  V30 7328 O 693.901 -2.36613 0.881506 0
M  V30 7329 C 695.214 0.0746449 3.00607 0
M  V30 7330 C 696.762 0.0119762 3.12998 0
M  V30 7331 C 697.237 0.255551 4.57286 0
M  V30 7332 N 698.728 0.202938 4.62755 0
M  V30 7333 C 699.463 0.365731 5.72232 0
M  V30 7334 N 698.959 0.586972 6.90309 0
M  V30 7335 N 700.752 0.302411 5.61286 0
M  V30 7336 H 692.903 1.1008 1.81648 0
M  V30 7337 H 695.166 0.436779 0.841384 0
M  V30 7338 H 694.872 1.07231 3.34954 0
M  V30 7339 H 694.746 -0.638802 3.71751 0
M  V30 7340 H 697.133 -0.976254 2.78484 0
M  V30 7341 H 697.214 0.75796 2.44313 0
M  V30 7342 H 696.858 1.24094 4.92507 0
M  V30 7343 H 696.788 -0.510912 5.24116 0
M  V30 7344 H 699.279 0.0371328 3.77882 0
M  V30 7345 H 699.592 0.700941 7.69615 0
M  V30 7346 H 697.937 0.623453 6.92198 0
M  V30 7347 H 701.128 0.130238 4.67919 0
M  V30 7348 H 701.301 0.432712 6.46554 0
M  V30 7349 N 694.707 -1.5719 -0.113559 0
M  V30 7350 C 695.956 -1.84325 -0.818984 0
M  V30 7351 C 696.269 -0.746685 -1.80787 0
M  V30 7352 O 697.475 -0.904596 -2.55987 0
M  V30 7353 C 695.931 -3.26818 -1.50724 0
M  V30 7354 C 695.539 -4.44498 -0.559065 0
M  V30 7355 C 697.283 -3.63196 -2.19748 0
M  V30 7356 C 695.19 -5.7802 -1.25086 0
M  V30 7357 H 694.12 -0.687507 -0.309596 0
M  V30 7358 H 696.771 -1.8336 -0.0717621 0
M  V30 7359 H 695.153 -3.22269 -2.30128 0
M  V30 7360 H 696.327 -4.60356 0.202146 0
M  V30 7361 H 694.642 -4.16393 0.024495 0
M  V30 7362 H 697.239 -4.60226 -2.72206 0
M  V30 7363 H 697.582 -2.90899 -2.97798 0
M  V30 7364 H 698.115 -3.69553 -1.47226 0
M  V30 7365 H 694.854 -6.53501 -0.511539 0
M  V30 7366 H 694.374 -5.66038 -1.98395 0
M  V30 7367 H 696.053 -6.2196 -1.78253 0
M  V30 7368 N 696.185 0.383891 -1.52853 0
M  V30 7369 C 697.095 1.49343 -1.80925 0
M  V30 7370 C 698.111 1.59458 -0.696348 0
M  V30 7371 O 699.287 1.75698 -0.984481 0
M  V30 7372 C 696.352 2.84819 -1.97684 0
M  V30 7373 C 695.413 2.84382 -3.21598 0
M  V30 7374 C 694.646 4.13397 -3.37548 0
M  V30 7375 O 694.869 5.08619 -2.58192 0
M  V30 7376 O 693.803 4.20325 -4.30826 0
M  V30 7377 H 697.629 1.2855 -2.75152 0
M  V30 7378 H 695.214 0.572229 -1.38007 0
M  V30 7379 H 697.096 3.65125 -2.10385 0
M  V30 7380 H 695.771 3.05627 -1.06647 0
M  V30 7381 H 694.678 2.0284 -3.14336 0
M  V30 7382 H 696.011 2.68526 -4.12498 0
M  V30 7383 N 697.663 1.43903 0.642637 0
M  V30 7384 C 699.079 1.27536 0.959519 0
M  V30 7385 C 699.279 0.202751 2.00477 0
M  V30 7386 O 698.335 -0.415256 2.49062 0
M  V30 7387 C 699.648 2.6432 1.43372 0
M  V30 7388 C 701.196 2.71937 1.54981 0
M  V30 7389 C 701.671 4.09164 2.05789 0
M  V30 7390 N 703.162 4.11282 2.13076 0
M  V30 7391 C 703.897 5.14303 2.53534 0
M  V30 7392 N 703.393 6.27693 2.93212 0
M  V30 7393 N 705.186 5.01657 2.53567 0
M  V30 7394 H 697.337 2.12344 -0.0488376 0
M  V30 7395 H 699.6 0.947124 0.0407559 0
M  V30 7396 H 699.306 3.43826 0.740048 0
M  V30 7397 H 699.18 2.90432 2.40685 0
M  V30 7398 H 701.567 1.92757 2.23448 0
M  V30 7399 H 701.648 2.49578 0.560739 0
M  V30 7400 H 701.292 4.88815 1.37921 0
M  V30 7401 H 701.222 4.28893 3.05546 0
M  V30 7402 H 703.713 3.2944 1.85143 0
M  V30 7403 H 704.026 7.02125 3.22863 0
M  V30 7404 H 702.371 6.31149 2.90991 0
M  V30 7405 H 705.562 4.12134 2.21952 0
M  V30 7406 H 705.735 5.82072 2.84774 0
M  V30 7407 N 699.141 -0.881989 1.30609 0
M  V30 7408 C 700.071 -2.00413 1.1982 0
M  V30 7409 C 701.052 -1.69871 0.0881538 0
M  V30 7410 O 702.237 -1.92304 0.2707 0
M  V30 7411 C 699.367 -3.35641 0.89233 0
M  V30 7412 C 698.321 -3.80451 1.96064 0
M  V30 7413 C 697.647 -5.13003 1.5077 0
M  V30 7414 C 698.947 -3.98855 3.37213 0
M  V30 7415 H 700.641 -2.09698 2.13699 0
M  V30 7416 H 698.187 -1.00754 1.02882 0
M  V30 7417 H 700.14 -4.13669 0.803497 0
M  V30 7418 H 698.864 -3.26497 -0.0821381 0
M  V30 7419 H 697.523 -3.04654 2.03916 0
M  V30 7420 H 697.171 -5.0029 0.521417 0
M  V30 7421 H 696.871 -5.43956 2.22229 0
M  V30 7422 H 698.395 -5.93554 1.43271 0
M  V30 7423 H 699.809 -4.67312 3.32103 0
M  V30 7424 H 698.206 -4.41188 4.06784 0
M  V30 7425 H 699.276 -3.02614 3.78883 0
M  V30 7426 N 700.619 -1.13374 -1.09472 0
M  V30 7427 C 701.859 -0.905422 -1.83252 0
M  V30 7428 C 702.223 0.558396 -1.83701 0
M  V30 7429 O 703.424 0.904254 -2.53134 0
M  V30 7430 C 701.695 -1.47658 -3.25472 0
M  V30 7431 S 703.254 -1.38825 -4.16261 0
M  V30 7432 H 700.072 -0.326371 -0.631667 0
M  V30 7433 H 702.674 -1.44517 -1.31663 0
M  V30 7434 H 701.378 -2.53533 -3.22722 0
M  V30 7435 H 700.909 -0.934756 -3.82133 0
M  V30 7436 H 702.924 -0.366379 -4.94846 0
M  V30 7437 N 702.098 1.27442 -0.927168 0
M  V30 7438 C 703.046 2.28844 -0.416333 0
M  V30 7439 C 704.04 1.61882 0.499057 0
M  V30 7440 O 705.246 1.75969 0.378817 0
M  V30 7441 H 701.621 0.742989 -0.116065 0
M  V30 7442 H 703.592 2.69344 -1.28438 0
M  V30 7443 C 702.341 3.4626 0.316107 0
M  V30 7444 H 701.664 3.97999 -0.379082 0
M  V30 7445 H 703.104 4.19173 0.637975 0
M  V30 7446 C 701.563 3.00211 1.5289 0
M  V30 7447 O 702.093 3.03837 2.62766 0
M  V30 7448 N 700.299 2.55713 1.38054 0
M  V30 7449 H 699.846 2.52962 0.4866 0
M  V30 7450 H 699.804 2.25264 2.19325 0
M  V30 7451 N 703.576 0.692616 1.41565 0
M  V30 7452 C 704.987 0.297478 1.84315 0
M  V30 7453 C 705.338 -1.16379 1.57957 0
M  V30 7454 O 704.463 -1.89303 1.0485 0
M  V30 7455 C 705.058 0.533136 3.34579 0
M  V30 7456 C 703.617 0.191944 3.7591 0
M  V30 7457 C 702.764 0.816873 2.64995 0
M  V30 7458 H 705.715 0.893488 1.31158 0
M  V30 7459 H 705.736 -0.209105 3.79925 0
M  V30 7460 H 705.248 1.59674 3.53731 0
M  V30 7461 H 703.349 -0.867512 3.6236 0
M  V30 7462 H 703.462 0.644902 4.7474 0
M  V30 7463 H 701.826 0.246715 2.53502 0
M  V30 7464 H 702.609 1.88429 2.86966 0
M  V30 7465 N 705.054 -1.51416 0.437162 0
M  V30 7466 C 706.279 -2.0699 -0.130424 0
M  V30 7467 C 706.704 -1.30249 -1.35709 0
M  V30 7468 O 706.062 -0.340388 -1.78076 0
M  V30 7469 C 706.11 -3.5801 -0.43142 0
M  V30 7470 O 705.214 -3.8345 -1.5179 0
M  V30 7471 H 704.555 -0.663997 -0.00194339 0
M  V30 7472 H 707.085 -1.95029 0.618445 0
M  V30 7473 H 707.095 -4.02261 -0.681926 0
M  V30 7474 H 705.77 -4.13291 0.465137 0
M  V30 7475 H 704.347 -3.51062 -1.25737 0
M  V30 7476 N 706.532 -0.168513 -1.56696 0
M  V30 7477 C 707.462 0.758563 -2.20835 0
M  V30 7478 C 708.443 1.24121 -1.1631 0
M  V30 7479 O 709.628 1.29487 -1.4473 0
M  V30 7480 C 706.758 1.9892 -2.8469 0
M  V30 7481 C 705.712 1.64252 -3.95228 0
M  V30 7482 C 705.038 2.94757 -4.46119 0
M  V30 7483 C 706.338 0.872675 -5.14958 0
M  V30 7484 H 708.032 0.223953 -2.98561 0
M  V30 7485 H 705.578 0.106277 -1.43607 0
M  V30 7486 H 707.531 2.64275 -3.28233 0
M  V30 7487 H 706.255 2.5479 -2.04327 0
M  V30 7488 H 704.914 1.01266 -3.52336 0
M  V30 7489 H 704.562 3.48662 -3.62552 0
M  V30 7490 H 704.262 2.72316 -5.2069 0
M  V30 7491 H 705.786 3.61147 -4.92347 0
M  V30 7492 H 707.2 1.42875 -5.55211 0
M  V30 7493 H 705.597 0.747402 -5.95428 0
M  V30 7494 H 706.667 -0.131535 -4.84722 0
M  V30 7495 N 708.01 1.57248 0.105221 0
M  V30 7496 C 709.235 1.90143 0.828264 0
M  V30 7497 C 709.66 0.761811 1.71983 0
M  V30 7498 O 709.018 -0.287086 1.79013 0
M  V30 7499 C 709.066 3.21856 1.62608 0
M  V30 7500 O 708.17 3.08732 2.7342 0
M  V30 7501 H 707.511 0.623558 0.228192 0
M  V30 7502 H 710.041 2.0443 0.0834826 0
M  V30 7503 H 710.051 3.54916 2.01243 0
M  V30 7504 H 708.726 4.0439 0.971687 0
M  V30 7505 H 707.303 2.87167 2.37886 0
M  V30 7506 N 709.488 -0.375779 1.53054 0
M  V30 7507 C 710.398 -1.48381 1.81715 0
M  V30 7508 C 711.414 -1.59087 0.704795 0
M  V30 7509 O 712.59 -1.75174 0.993785 0
M  V30 7510 C 709.655 -2.83767 1.99192 0
M  V30 7511 C 708.716 -2.82673 3.23102 0
M  V30 7512 C 707.949 -4.11601 3.39736 0
M  V30 7513 O 708.172 -5.07243 2.60885 0
M  V30 7514 O 707.106 -4.18034 4.33049 0
M  V30 7515 H 710.932 -1.27089 2.7583 0
M  V30 7516 H 708.517 -0.564902 1.38308 0
M  V30 7517 H 710.399 -3.64004 2.12318 0
M  V30 7518 H 709.074 -3.05057 1.08267 0
M  V30 7519 H 707.981 -2.0117 3.15407 0
M  V30 7520 H 709.314 -2.66335 4.13916 0
M  V30 7521 N 710.966 -1.44241 -0.634997 0
M  V30 7522 C 711.896 -1.53632 -1.7584 0
M  V30 7523 C 712.877 -0.389603 -1.65578 0
M  V30 7524 O 714.062 -0.609219 -1.84397 0
M  V30 7525 C 711.192 -1.47644 -3.14354 0
M  V30 7526 C 710.146 -2.60752 -3.394 0
M  V30 7527 C 709.472 -2.39817 -4.77904 0
M  V30 7528 C 710.772 -4.02921 -3.32343 0
M  V30 7529 H 712.466 -2.47662 -1.68238 0
M  V30 7530 H 710.012 -1.19197 -0.807969 0
M  V30 7531 H 711.965 -1.52815 -3.92716 0
M  V30 7532 H 710.689 -0.501284 -3.2273 0
M  V30 7533 H 709.348 -2.54965 -2.63417 0
M  V30 7534 H 708.996 -1.40502 -4.82978 0
M  V30 7535 H 708.696 -3.15649 -4.9562 0
M  V30 7536 H 710.22 -2.46799 -5.585 0
M  V30 7537 H 711.634 -4.10098 -4.00615 0
M  V30 7538 H 710.031 -4.78925 -3.61595 0
M  V30 7539 H 711.101 -4.26766 -2.30215 0
M  V30 7540 N 712.444 0.87505 -1.31075 0
M  V30 7541 C 713.855 1.4433 -1.18431 0
M  V30 7542 C 714.206 1.9506 0.211189 0
M  V30 7543 O 713.331 1.85847 1.10859 0
M  V30 7544 C 713.926 2.62341 -2.14389 0
M  V30 7545 C 712.485 3.15225 -2.05694 0
M  V30 7546 C 711.632 1.87929 -2.03907 0
M  V30 7547 H 714.583 0.684061 -1.432 0
M  V30 7548 H 714.604 3.3887 -1.73053 0
M  V30 7549 H 714.116 2.25388 -3.15946 0
M  V30 7550 H 712.217 3.56812 -1.07314 0
M  V30 7551 H 712.33 3.77853 -2.94558 0
M  V30 7552 H 710.694 2.06679 -1.48849 0
M  V30 7553 H 711.477 1.53221 -3.07211 0
M  V30 7554 N 713.922 1.13953 1.08869 0
M  V30 7555 C 714.885 0.824991 2.13838 0
M  V30 7556 C 715.885 -0.168198 1.59918 0
M  V30 7557 O 717.075 0.0595778 1.74098 0
M  V30 7558 C 714.207 0.228938 3.4013 0
M  V30 7559 H 715.4 1.75521 2.43171 0
M  V30 7560 H 712.953 0.94492 1.24503 0
M  V30 7561 H 713.688 -0.710227 3.16427 0
M  V30 7562 H 713.473 0.944243 3.80561 0
M  V30 7563 H 714.963 0.0259223 4.17592 0
M  V30 7564 N 715.4 -1.26948 0.933913 0
M  V30 7565 C 716.647 -1.94087 0.577625 0
M  V30 7566 C 716.975 -1.73345 -0.88214 0
M  V30 7567 O 716.23 -1.05945 -1.64542 0
M  V30 7568 C 716.529 -3.46963 0.857406 0
M  V30 7569 C 716.195 -3.87834 2.2999 0
M  V30 7570 C 714.857 -3.98704 2.69423 0
M  V30 7571 C 717.209 -4.08442 3.23766 0
M  V30 7572 C 714.537 -4.27573 4.01744 0
M  V30 7573 C 716.889 -4.38798 4.55675 0
M  V30 7574 C 715.553 -4.47881 4.94934 0
M  V30 7575 H 714.823 -0.710215 0.211368 0
M  V30 7576 H 717.47 -1.50899 1.17905 0
M  V30 7577 H 715.775 -3.91416 0.173369 0
M  V30 7578 H 717.472 -3.97062 0.560615 0
M  V30 7579 H 714.062 -3.79916 1.98399 0
M  V30 7580 H 718.246 -3.99479 2.94499 0
M  V30 7581 H 713.502 -4.32815 4.31834 0
M  V30 7582 H 717.676 -4.5369 5.28335 0
M  V30 7583 H 715.303 -4.70005 5.97495 0
M  V30 7584 N 716.879 -0.700114 -1.41195 0
M  V30 7585 C 717.809 -0.0521132 -2.33442 0
M  V30 7586 C 718.79 0.76228 -1.52063 0
M  V30 7587 O 719.975 0.714336 -1.80585 0
M  V30 7588 C 717.105 0.881693 -3.35922 0
M  V30 7589 C 716.059 0.174062 -4.27646 0
M  V30 7590 C 715.385 1.22254 -5.20536 0
M  V30 7591 C 716.685 -0.962396 -5.13357 0
M  V30 7592 H 718.379 -0.822574 -2.87879 0
M  V30 7593 H 715.925 -0.397011 -1.38419 0
M  V30 7594 H 717.878 1.34429 -3.99383 0
M  V30 7595 H 716.602 1.68387 -2.79845 0
M  V30 7596 H 715.261 -0.268551 -3.65615 0
M  V30 7597 H 714.909 2.01736 -4.60773 0
M  V30 7598 H 714.609 0.754038 -5.82742 0
M  V30 7599 H 716.133 1.68555 -5.86874 0
M  V30 7600 H 717.547 -0.579875 -5.7036 0
M  V30 7601 H 715.944 -1.35828 -5.84526 0
M  V30 7602 H 717.014 -1.80003 -4.50252 0
M  V30 7603 N 718.357 1.51182 -0.445186 0
M  V30 7604 C 719.603 2.02452 0.11882 0
M  V30 7605 C 719.936 1.32824 1.41673 0
M  V30 7606 O 719.211 0.445637 1.89326 0
M  V30 7607 C 719.494 3.5859 0.329475 0
M  V30 7608 C 719.347 4.38823 -0.987638 0
M  V30 7609 C 720.666 4.26241 1.09575 0
M  V30 7610 H 717.785 0.735819 0.0417092 0
M  V30 7611 H 720.427 1.80747 -0.585718 0
M  V30 7612 H 718.577 3.77214 0.9296 0
M  V30 7613 H 720.249 4.3183 -1.62235 0
M  V30 7614 H 718.492 4.03594 -1.59041 0
M  V30 7615 H 719.163 5.46257 -0.794192 0
M  V30 7616 H 721.639 4.11934 0.587328 0
M  V30 7617 H 720.515 5.35354 1.21191 0
M  V30 7618 H 720.776 3.87635 2.12584 0
M  V30 7619 N 719.835 0.176821 1.56605 0
M  V30 7620 C 720.798 -0.737429 2.17013 0
M  V30 7621 C 721.798 -1.15414 1.11965 0
M  V30 7622 O 722.988 -1.0702 1.37449 0
M  V30 7623 C 720.12 -2.00445 2.75744 0
M  V30 7624 H 721.313 -0.211455 2.99154 0
M  V30 7625 H 718.866 -0.0727582 1.56131 0
M  V30 7626 H 719.601 -2.57338 1.97352 0
M  V30 7627 H 719.386 -1.71456 3.52626 0
M  V30 7628 H 720.876 -2.65679 3.22187 0
M  V30 7629 N 721.313 -1.57302 -0.09688 0
M  V30 7630 C 722.223 -2.05258 -1.13606 0
M  V30 7631 C 723.239 -0.977137 -1.43972 0
M  V30 7632 O 724.415 -1.29018 -1.54649 0
M  V30 7633 C 721.48 -2.46593 -2.43706 0
M  V30 7634 C 720.541 -3.68322 -2.20538 0
M  V30 7635 C 719.774 -4.07676 -3.44435 0
M  V30 7636 O 719.997 -3.47141 -4.52603 0
M  V30 7637 O 718.931 -5.00641 -3.34129 0
M  V30 7638 H 722.757 -2.94069 -0.758752 0
M  V30 7639 H 720.342 -1.46164 -0.309263 0
M  V30 7640 H 722.224 -2.73814 -3.20318 0
M  V30 7641 H 720.899 -1.6092 -2.80867 0
M  V30 7642 H 719.806 -3.4622 -1.41713 0
M  V30 7643 H 721.139 -4.54769 -1.88271 0
M  V30 7644 N 722.791 0.367657 -1.53252 0
M  V30 7645 C 724.039 1.10832 -1.68999 0
M  V30 7646 C 724.36 1.89894 -0.443306 0
M  V30 7647 O 723.63 1.88235 0.54262 0
M  V30 7648 H 722.21 0.412153 -0.623008 0
M  V30 7649 H 724.872 0.414775 -1.90435 0
M  V30 7650 H 723.968 1.7993 -2.55013 0
M  V30 7651 N 724.269 1.44576 0.627338 0
M  V30 7652 C 725.517 1.47267 1.38408 0
M  V30 7653 C 725.838 0.107971 1.94701 0
M  V30 7654 O 725.108 -0.860206 1.76004 0
M  V30 7655 H 723.688 0.542276 0.513756 0
M  V30 7656 H 726.35 1.80383 0.738099 0
M  V30 7657 H 725.446 2.20025 2.21349 0
M  V30 7658 N 725.747 -0.868086 1.31537 0
M  V30 7659 C 726.677 -1.99131 1.21939 0
M  V30 7660 C 727.658 -1.69768 0.106166 0
M  V30 7661 O 728.843 -1.92006 0.291081 0
M  V30 7662 C 725.973 -3.34676 0.927879 0
M  V30 7663 C 724.927 -3.7835 2.00088 0
M  V30 7664 C 724.253 -5.11375 1.56203 0
M  V30 7665 C 725.553 -3.95256 3.41424 0
M  V30 7666 H 727.247 -2.07419 2.15911 0
M  V30 7667 H 724.793 -0.996569 1.03945 0
M  V30 7668 H 726.746 -4.12793 0.847327 0
M  V30 7669 H 725.47 -3.26565 -0.0475042 0
M  V30 7670 H 724.129 -3.02474 2.07135 0
M  V30 7671 H 723.777 -4.99709 0.57445 0
M  V30 7672 H 723.477 -5.41568 2.27985 0
M  V30 7673 H 725.001 -5.92001 1.49558 0
M  V30 7674 H 726.415 -4.63764 3.3704 0
M  V30 7675 H 724.812 -4.36849 4.1144 0
M  V30 7676 H 725.882 -2.98579 3.82072 0
M  V30 7677 N 727.225 -1.14528 -1.08264 0
M  V30 7678 C 728.173 -0.829201 -2.17318 0
M  V30 7679 C 729.167 0.193521 -1.68291 0
M  V30 7680 O 730.373 0.0494744 -1.79932 0
M  V30 7681 H 726.748 -0.250435 -0.709074 0
M  V30 7682 H 728.719 -1.75683 -2.41201 0
M  V30 7683 C 727.468 -0.324663 -3.46181 0
M  V30 7684 H 726.791 -1.10299 -3.84284 0
M  V30 7685 H 728.231 -0.142059 -4.23762 0
M  V30 7686 C 726.69 0.952033 -3.23169 0
M  V30 7687 O 727.22 2.02549 -3.46896 0
M  V30 7688 N 725.426 0.887854 -2.76705 0
M  V30 7689 H 724.973 0.0141402 -2.57596 0
M  V30 7690 H 724.931 1.74263 -2.61686 0
M  V30 7691 N 728.703 1.26451 -0.940633 0
M  V30 7692 C 729.928 1.98407 -0.60412 0
M  V30 7693 C 730.353 1.69584 0.81382 0
M  V30 7694 O 729.711 0.943553 1.54812 0
M  V30 7695 C 729.759 3.50387 -0.852136 0
M  V30 7696 O 728.863 4.1233 0.076013 0
M  V30 7697 H 728.204 0.622466 -0.231153 0
M  V30 7698 H 730.734 1.60932 -1.26342 0
M  V30 7699 H 730.744 4.00614 -0.772816 0
M  V30 7700 H 729.419 3.70696 -1.88566 0
M  V30 7701 H 727.996 3.7286 -0.0543187 0
M  V30 7702 N 730.181 0.707592 1.40822 0
M  V30 7703 C 731.429 0.243189 2.00632 0
M  V30 7704 C 731.75 -1.16512 1.56365 0
M  V30 7705 O 731.02 -1.78841 0.799553 0
M  V30 7706 H 729.6 0.0869203 0.741926 0
M  V30 7707 H 732.262 0.911438 1.72275 0
M  V30 7708 H 731.358 0.270014 3.1093 0
M  V30 7709 N 731.66 -1.50943 0.453197 0
M  V30 7710 C 732.907 -2.02212 -0.107922 0
M  V30 7711 C 733.235 -1.33639 -1.41318 0
M  V30 7712 O 732.49 -0.445154 -1.9057 0
M  V30 7713 C 732.789 -3.55603 -0.357944 0
M  V30 7714 C 732.455 -4.42556 0.863427 0
M  V30 7715 C 731.117 -4.6604 1.19834 0
M  V30 7716 C 733.469 -4.93468 1.67747 0
M  V30 7717 C 730.797 -5.37681 2.34768 0
M  V30 7718 C 733.149 -5.6637 2.81793 0
M  V30 7719 C 731.813 -5.88113 3.1572 0
M  V30 7720 H 731.083 -0.739947 -0.0394916 0
M  V30 7721 H 733.73 -1.81738 0.60363 0
M  V30 7722 H 732.035 -3.74495 -1.15156 0
M  V30 7723 H 733.732 -3.92821 -0.805781 0
M  V30 7724 H 730.322 -4.24485 0.592478 0
M  V30 7725 H 734.506 -4.75194 1.43192 0
M  V30 7726 H 729.762 -5.52727 2.61348 0
M  V30 7727 H 733.936 -6.04806 3.45229 0
M  V30 7728 H 731.563 -6.43404 4.04889 0
M  V30 7729 N 733.138 -0.185124 -1.56509 0
M  V30 7730 C 734.071 0.77877 -2.145 0
M  V30 7731 C 735.049 1.21649 -1.07891 0
M  V30 7732 O 736.233 1.30579 -1.35946 0
M  V30 7733 C 733.36 2.05048 -2.69579 0
M  V30 7734 C 732.406 1.75569 -3.88687 0
M  V30 7735 S 733.239 0.912642 -5.27666 0
M  V30 7736 C 734.395 2.19471 -5.8616 0
M  V30 7737 H 734.628 0.285751 -2.95924 0
M  V30 7738 H 732.161 0.0297417 -1.54371 0
M  V30 7739 H 734.119 2.78085 -3.01958 0
M  V30 7740 H 732.78 2.51462 -1.88216 0
M  V30 7741 H 731.973 2.69962 -4.25601 0
M  V30 7742 H 731.575 1.10619 -3.57267 0
M  V30 7743 H 733.867 3.14815 -5.99915 0
M  V30 7744 H 734.81 1.87005 -6.8296 0
M  V30 7745 H 735.218 2.31862 -5.14685 0
M  V30 7746 N 734.616 1.57351 0.0885366 0
M  V30 7747 C 735.865 1.85604 0.789556 0
M  V30 7748 C 736.178 0.775352 1.79576 0
M  V30 7749 O 737.384 0.945206 2.54515 0
M  V30 7750 C 735.84 3.29175 1.45506 0
M  V30 7751 C 735.448 4.45331 0.488278 0
M  V30 7752 C 737.192 3.66646 2.13942 0
M  V30 7753 C 735.099 5.79937 1.15874 0
M  V30 7754 H 734.029 0.692346 0.298619 0
M  V30 7755 H 736.68 1.83451 0.0425821 0
M  V30 7756 H 735.062 3.25889 2.24972 0
M  V30 7757 H 736.236 4.59977 -0.275359 0
M  V30 7758 H 734.551 4.16301 -0.0907363 0
M  V30 7759 H 737.148 4.64498 2.6485 0
M  V30 7760 H 737.491 2.956 2.93132 0
M  V30 7761 H 738.024 3.71848 1.41328 0
M  V30 7762 H 734.763 6.54232 0.407508 0
M  V30 7763 H 734.283 5.69123 1.89364 0
M  V30 7764 H 735.962 6.24718 1.68336 0
M  V30 7765 N 736.094 -0.359525 1.53444 0
M  V30 7766 C 737.057 -1.42357 1.7963 0
M  V30 7767 C 738.057 -1.46319 0.666884 0
M  V30 7768 O 739.247 -1.46974 0.935113 0
M  V30 7769 C 736.379 -2.81425 1.92387 0
M  V30 7770 H 737.572 -1.20409 2.74666 0
M  V30 7771 H 735.125 -0.593007 1.44614 0
M  V30 7772 H 735.86 -3.08679 0.994384 0
M  V30 7773 H 735.645 -2.79947 2.74539 0
M  V30 7774 H 737.135 -3.5847 2.14218 0
M  V30 7775 N 737.572 -1.44907 -0.619662 0
M  V30 7776 C 738.522 -1.49085 -1.72504 0
M  V30 7777 C 739.506 -0.355372 -1.56926 0
M  V30 7778 O 740.698 -0.601441 -1.66468 0
M  V30 7779 C 737.827 -1.44889 -3.11227 0
M  V30 7780 C 736.913 -2.63593 -3.32234 0
M  V30 7781 N 737.304 -3.88775 -3.23555 0
M  V30 7782 C 735.602 -2.59033 -3.63067 0
M  V30 7783 C 736.303 -4.67932 -3.45564 0
M  V30 7784 N 735.279 -3.9919 -3.68983 0
M  V30 7785 H 739.081 -2.43706 -1.6427 0
M  V30 7786 H 736.595 -1.4003 -0.82252 0
M  V30 7787 H 738.592 -1.45966 -3.90512 0
M  V30 7788 H 737.252 -0.513143 -3.2062 0
M  V30 7789 H 738.263 -4.20574 -3.02221 0
M  V30 7790 H 734.94 -1.7431 -3.79371 0
M  V30 7791 H 736.33 -5.76952 -3.44349 0
M  V30 7792 N 739.05 0.861098 -1.31996 0
M  V30 7793 C 740.29 1.62873 -1.23498 0
M  V30 7794 C 740.654 1.90938 0.201692 0
M  V30 7795 O 741.855 2.6565 0.410305 0
M  V30 7796 C 740.126 2.91759 -2.06426 0
M  V30 7797 S 741.685 3.82583 -2.14885 0
M  V30 7798 H 738.503 0.558726 -0.439712 0
M  V30 7799 H 741.105 1.02025 -1.66767 0
M  V30 7800 H 739.809 2.69077 -3.0988 0
M  V30 7801 H 739.34 3.57627 -1.6391 0
M  V30 7802 H 741.355 4.7904 -1.29364 0
M  V30 7803 N 740.528 1.15101 1.07655 0
M  V30 7804 C 741.756 0.947731 1.83918 0
M  V30 7805 C 742.171 -0.503927 1.81951 0
M  V30 7806 O 741.528 -1.34941 1.2287 0
M  V30 7807 C 741.579 1.4503 3.31132 0
M  V30 7808 O 741.3 2.84508 3.33146 0
M  V30 7809 C 742.801 1.28806 4.24174 0
M  V30 7810 H 740.021 0.336786 0.580358 0
M  V30 7811 H 742.565 1.52799 1.35914 0
M  V30 7812 H 740.72 0.912632 3.76497 0
M  V30 7813 H 741.134 3.0723 4.251 0
M  V30 7814 H 742.608 1.6882 5.25551 0
M  V30 7815 H 743.085 0.231851 4.38588 0
M  V30 7816 H 743.691 1.81465 3.84643 0
M  V30 7817 N 742.006 -1.2595 0.947325 0
M  V30 7818 C 742.969 -2.24407 0.466285 0
M  V30 7819 C 743.969 -1.55054 -0.426005 0
M  V30 7820 O 745.159 -1.7275 -0.224319 0
M  V30 7821 C 742.291 -3.39326 -0.327201 0
M  V30 7822 H 743.484 -2.68477 1.33642 0
M  V30 7823 H 741.037 -1.38211 0.729887 0
M  V30 7824 H 741.772 -3.00667 -1.21532 0
M  V30 7825 H 741.557 -3.9085 0.312839 0
M  V30 7826 H 743.047 -4.12455 -0.653477 0
M  V30 7827 N 743.484 -0.715051 -1.40445 0
M  V30 7828 C 744.447 -0.0708726 -2.2909 0
M  V30 7829 C 745.447 0.687926 -1.45342 0
M  V30 7830 O 746.637 0.519908 -1.66261 0
M  V30 7831 C 743.769 0.909528 -3.28543 0
M  V30 7832 H 744.962 -0.851611 -2.87555 0
M  V30 7833 H 742.515 -0.479674 -1.48758 0
M  V30 7834 H 743.25 1.71734 -2.75096 0
M  V30 7835 H 743.035 0.368318 -3.90366 0
M  V30 7836 H 744.525 1.35744 -3.94922 0
M  V30 7837 N 744.962 1.50701 -0.461195 0
M  V30 7838 C 745.925 2.2686 0.326679 0
M  V30 7839 C 746.925 1.31243 0.929085 0
M  V30 7840 O 748.115 1.54754 0.799807 0
M  V30 7841 C 745.247 3.07844 1.46441 0
M  V30 7842 H 746.44 2.97954 -0.341095 0
M  V30 7843 H 743.993 1.54814 -0.214984 0
M  V30 7844 H 744.728 2.41223 2.16753 0
M  V30 7845 H 744.513 3.78101 1.03836 0
M  V30 7846 H 746.003 3.65469 2.02044 0
M  V30 7847 N 746.441 0.193421 1.56409 0
M  V30 7848 C 747.371 -0.723334 2.22014 0
M  V30 7849 C 748.352 -1.22254 1.1827 0
M  V30 7850 O 749.537 -1.27168 1.46771 0
M  V30 7851 C 746.667 -1.94366 2.87818 0
M  V30 7852 C 745.621 -1.57943 3.97791 0
M  V30 7853 C 744.947 -2.87623 4.50752 0
M  V30 7854 C 746.247 -0.790639 5.16281 0
M  V30 7855 H 747.941 -0.176426 2.9888 0
M  V30 7856 H 745.487 -0.0834166 1.43758 0
M  V30 7857 H 747.44 -2.5902 3.32396 0
M  V30 7858 H 746.164 -2.51507 2.08355 0
M  V30 7859 H 744.823 -0.956482 3.53903 0
M  V30 7860 H 744.471 -3.4285 3.68053 0
M  V30 7861 H 744.171 -2.63998 5.24956 0
M  V30 7862 H 745.695 -3.53268 4.9803 0
M  V30 7863 H 747.109 -1.34024 5.57414 0
M  V30 7864 H 745.506 -0.65258 5.96541 0
M  V30 7865 H 746.576 0.208633 4.84451 0
M  V30 7866 N 747.919 -1.57396 -0.0801906 0
M  V30 7867 C 749.165 -1.87113 -0.782083 0
M  V30 7868 C 749.498 -0.78458 -1.77646 0
M  V30 7869 O 748.773 0.205993 -1.93406 0
M  V30 7870 C 749.056 -3.27483 -1.49756 0
M  V30 7871 C 748.909 -4.46782 -0.520171 0
M  V30 7872 C 750.228 -3.65965 -2.44454 0
M  V30 7873 H 747.347 -0.680559 -0.282858 0
M  V30 7874 H 749.989 -1.89946 -0.0454139 0
M  V30 7875 H 748.139 -3.25199 -2.12551 0
M  V30 7876 H 749.811 -4.61187 0.101919 0
M  V30 7877 H 748.054 -4.33485 0.165219 0
M  V30 7878 H 748.725 -5.41761 -1.05824 0
M  V30 7879 H 751.201 -3.69289 -1.91742 0
M  V30 7880 H 750.077 -4.65086 -2.91524 0
M  V30 7881 H 750.338 -2.95446 -3.28883 0
M  V30 7882 N 749.397 0.351382 -1.53633 0
M  V30 7883 C 750.622 1.11718 -1.74739 0
M  V30 7884 C 751.047 1.81829 -0.481657 0
M  V30 7885 O 750.405 1.72264 0.565233 0
M  V30 7886 C 750.453 2.11234 -2.92254 0
M  V30 7887 O 749.557 3.186 -2.61855 0
M  V30 7888 H 748.898 0.323482 -0.579875 0
M  V30 7889 H 751.428 0.404167 -2.00568 0
M  V30 7890 H 751.438 2.54591 -3.18822 0
M  V30 7891 H 750.113 1.59599 -3.84058 0
M  V30 7892 H 748.69 2.80115 -2.4615 0
M  V30 7893 N 750.875 1.45233 0.611969 0
M  V30 7894 C 751.785 1.56098 1.7513 0
M  V30 7895 C 752.801 0.445646 1.68196 0
M  V30 7896 O 753.977 0.705718 1.88631 0
M  V30 7897 C 751.042 1.52052 3.11579 0
M  V30 7898 C 750.103 2.74589 3.29999 0
M  V30 7899 C 749.336 2.70726 4.59938 0
M  V30 7900 O 749.559 1.77806 5.41979 0
M  V30 7901 O 748.493 3.61864 4.80976 0
M  V30 7902 H 752.319 2.52392 1.68914 0
M  V30 7903 H 749.904 1.27695 0.775528 0
M  V30 7904 H 751.786 1.52387 3.92882 0
M  V30 7905 H 750.461 0.589085 3.18295 0
M  V30 7906 H 749.368 2.79817 2.48301 0
M  V30 7907 H 750.701 3.66843 3.28157 0
M  V30 7908 N 752.353 -0.854086 1.3245 0
M  V30 7909 C 753.301 -1.98411 1.21391 0
M  V30 7910 C 754.295 -1.68984 0.118586 0
M  V30 7911 O 755.501 -1.77784 0.281549 0
M  V30 7912 H 751.876 -0.651077 0.376301 0
M  V30 7913 H 753.847 -2.04867 2.16961 0
M  V30 7914 C 752.596 -3.34345 0.954407 0
M  V30 7915 H 751.919 -3.57518 1.78944 0
M  V30 7916 H 753.359 -4.13959 0.917269 0
M  V30 7917 C 751.818 -3.35151 -0.342838 0
M  V30 7918 O 752.348 -3.78174 -1.35452 0
M  V30 7919 N 750.554 -2.88298 -0.365012 0
M  V30 7920 H 750.101 -2.53481 0.4588 0
M  V30 7921 H 750.059 -2.8922 -1.23284 0
M  V30 7922 N 753.831 -1.1567 -1.07043 0
M  V30 7923 C 754.778 -0.856336 -2.14326 0
M  V30 7924 C 755.748 0.192051 -1.64986 0
M  V30 7925 O 756.933 0.0589148 -1.90709 0
M  V30 7926 C 754.073 -0.355227 -3.43267 0
M  V30 7927 C 753.186 -1.46555 -4.06381 0
M  V30 7928 C 752.321 -0.920245 -5.23168 0
M  V30 7929 C 751.36 -2.00729 -5.78251 0
M  V30 7930 N 750.497 -1.47813 -6.86364 0
M  V30 7931 H 755.337 -1.77514 -2.39359 0
M  V30 7932 H 752.874 -0.885676 -1.17449 0
M  V30 7933 H 754.832 -0.0463804 -4.17174 0
M  V30 7934 H 753.462 0.526649 -3.18475 0
M  V30 7935 H 752.514 -1.89052 -3.30096 0
M  V30 7936 H 753.826 -2.28616 -4.43324 0
M  V30 7937 H 752.98 -0.564127 -6.04072 0
M  V30 7938 H 751.719 -0.0688477 -4.87651 0
M  V30 7939 H 750.724 -2.3722 -4.95991 0
M  V30 7940 H 751.949 -2.86252 -6.15822 0
M  V30 7941 H 749.895 -0.649145 -6.5278 0
M  V30 7942 H 749.812 -2.23498 -7.22208 0
M  V30 7943 H 751.08 -1.15036 -7.70965 0
M  V30 7944 N 755.309 1.25446 -0.953992 0
M  V30 7945 C 756.272 2.24156 -0.478179 0
M  V30 7946 C 757.272 1.55278 0.417776 0
M  V30 7947 O 758.462 1.72866 0.215155 0
M  V30 7948 C 755.594 3.39495 0.309202 0
M  V30 7949 H 756.787 2.67764 -1.35064 0
M  V30 7950 H 754.34 1.37822 -0.737206 0
M  V30 7951 H 755.075 3.01307 1.19936 0
M  V30 7952 H 754.86 3.90679 -0.333562 0
M  V30 7953 H 756.35 4.12796 0.631594 0
M  V30 7954 N 756.787 0.722489 1.40064 0
M  V30 7955 C 757.717 0.0892452 2.33329 0
M  V30 7956 C 758.698 -0.737992 1.53257 0
M  V30 7957 O 759.883 -0.685516 1.81698 0
M  V30 7958 C 757.013 -0.828139 3.37282 0
M  V30 7959 C 755.967 -0.106005 4.27869 0
M  V30 7960 C 755.293 -1.13957 5.22415 0
M  V30 7961 C 756.593 1.04395 5.11761 0
M  V30 7962 H 758.287 0.868269 2.86534 0
M  V30 7963 H 755.833 0.418982 1.3777 0
M  V30 7964 H 757.786 -1.28058 4.01471 0
M  V30 7965 H 756.51 -1.63914 2.82489 0
M  V30 7966 H 755.169 0.326683 3.65142 0
M  V30 7967 H 754.817 -1.9438 4.63924 0
M  V30 7968 H 754.517 -0.661233 5.83868 0
M  V30 7969 H 756.041 -1.59197 5.89482 0
M  V30 7970 H 757.455 0.670541 5.69365 0
M  V30 7971 H 755.852 1.4511 5.82291 0
M  V30 7972 H 756.922 1.87144 4.47331 0
M  V30 7973 N 758.265 -1.50454 0.469181 0
M  V30 7974 C 759.505 -2.04222 -0.0852381 0
M  V30 7975 C 759.869 -1.34357 -1.37158 0
M  V30 7976 O 761.07 -1.78669 -2.00825 0
M  V30 7977 C 759.341 -3.56403 -0.266778 0
M  V30 7978 S 760.9 -4.31811 -0.780028 0
M  V30 7979 H 757.718 -0.7108 -0.0168589 0
M  V30 7980 H 760.32 -1.8487 0.635883 0
M  V30 7981 H 759.024 -4.04807 0.67525 0
M  V30 7982 H 758.555 -3.80106 -1.01407 0
M  V30 7983 H 760.57 -4.51706 -2.05368 0
M  V30 7984 N 759.743 -0.201713 -1.56304 0
M  V30 7985 C 760.693 0.729444 -2.16016 0
M  V30 7986 C 761.677 1.17164 -1.10279 0
M  V30 7987 O 762.869 1.12893 -1.36324 0
M  V30 7988 C 759.998 1.94594 -2.82822 0
M  V30 7989 C 759.084 1.52434 -3.95758 0
M  V30 7990 N 759.475 0.814106 -4.99205 0
M  V30 7991 C 757.773 1.81314 -4.07481 0
M  V30 7992 C 758.474 0.601896 -5.78578 0
M  V30 7993 N 757.45 1.15263 -5.3124 0
M  V30 7994 H 761.252 0.178163 -2.93359 0
M  V30 7995 H 758.766 -0.00218038 -1.624 0
M  V30 7996 H 760.763 2.62357 -3.23998 0
M  V30 7997 H 759.423 2.50188 -2.06969 0
M  V30 7998 H 760.434 0.468872 -5.15773 0
M  V30 7999 H 757.111 2.3837 -3.42762 0
M  V30 8000 H 758.501 0.0380119 -6.71889 0
M  V30 8001 N 761.222 1.57436 0.0718424 0
M  V30 8002 C 762.633 1.75975 0.623678 0
M  V30 8003 C 762.984 0.827155 1.77912 0
M  V30 8004 O 762.109 0.0112425 2.16397 0
M  V30 8005 C 762.704 3.1911 1.13816 0
M  V30 8006 C 761.263 3.38994 1.63586 0
M  V30 8007 C 760.41 2.71684 0.555261 0
M  V30 8008 H 763.361 1.57948 -0.154328 0
M  V30 8009 H 763.382 3.23267 2.00696 0
M  V30 8010 H 762.894 3.86962 0.296998 0
M  V30 8011 H 760.995 2.76256 2.50027 0
M  V30 8012 H 761.108 4.47436 1.71283 0
M  V30 8013 H 759.472 2.34236 1.00029 0
M  V30 8014 H 760.255 3.42191 -0.275712 0
M  V30 8015 N 762.7 -0.34323 1.53817 0
M  V30 8016 C 763.925 -1.1079 1.75329 0
M  V30 8017 C 764.35 -1.81571 0.491293 0
M  V30 8018 O 763.708 -1.72561 -0.556089 0
M  V30 8019 C 763.756 -2.09681 2.9337 0
M  V30 8020 O 762.86 -3.17207 2.63541 0
M  V30 8021 H 762.201 -0.320402 0.581583 0
M  V30 8022 H 764.731 -0.393525 2.0078 0
M  V30 8023 H 764.741 -2.52897 3.20168 0
M  V30 8024 H 763.416 -1.5756 3.84899 0
M  V30 8025 H 761.993 -2.78806 2.47632 0
M  V30 8026 N 764.178 -1.45556 -0.604258 0
M  V30 8027 C 765.403 -1.53509 -1.39462 0
M  V30 8028 C 765.828 -0.169638 -1.87333 0
M  V30 8029 O 765.186 0.846346 -1.60333 0
M  V30 8030 C 765.234 -2.52654 -2.5729 0
M  V30 8031 O 764.338 -2.04666 -3.5803 0
M  V30 8032 H 763.679 -0.517355 -0.416221 0
M  V30 8033 H 766.209 -1.90939 -0.735072 0
M  V30 8034 H 766.219 -2.71568 -3.04491 0
M  V30 8035 H 764.894 -3.51823 -2.21797 0
M  V30 8036 H 763.471 -1.95643 -3.17456 0
M  V30 8037 N 765.656 0.84705 -1.32902 0
M  V30 8038 C 766.902 1.60414 -1.24078 0
M  V30 8039 C 767.235 1.93217 0.195105 0
M  V30 8040 O 766.51 1.58001 1.13428 0
M  V30 8041 C 766.793 2.91951 -2.108 0
M  V30 8042 C 766.646 2.6588 -3.62805 0
M  V30 8043 C 767.965 3.93299 -1.97494 0
M  V30 8044 H 765.084 0.58206 -0.452079 0
M  V30 8045 H 767.726 0.977562 -1.62922 0
M  V30 8046 H 765.876 3.45425 -1.77802 0
M  V30 8047 H 767.548 2.18902 -4.06054 0
M  V30 8048 H 765.791 1.99716 -3.85092 0
M  V30 8049 H 766.462 3.59574 -4.1882 0
M  V30 8050 H 768.938 3.49105 -2.26417 0
M  V30 8051 H 767.814 4.8318 -2.60438 0
M  V30 8052 H 768.075 4.31887 -0.944782 0
M  V30 8053 N 767.134 1.16236 1.06428 0
M  V30 8054 C 768.411 0.853294 1.76006 0
M  V30 8055 C 768.791 -0.649162 2.00871 0
M  V30 8056 O 768.139 -1.59653 1.63472 0
M  V30 8057 C 768.349 1.67448 3.06206 0
M  V30 8058 C 769.697 1.8866 3.80385 0
M  V30 8059 O 770.721 1.64303 3.16043 0
M  V30 8060 O 769.58 2.29518 4.95968 0
M  V30 8061 H 766.674 0.314737 0.764767 0
M  V30 8062 H 769.22 1.26865 1.12709 0
M  V30 8063 H 767.992 2.69411 2.83784 0
M  V30 8064 H 767.615 1.25608 3.77238 0
M  V30 8065 N 768.612 -1.24939 0.960631 0
M  V30 8066 C 769.837 -1.9742 0.635608 0
M  V30 8067 C 770.262 -1.70857 -0.786737 0
M  V30 8068 O 769.62 -0.968063 -1.53291 0
M  V30 8069 C 769.668 -3.48987 0.907771 0
M  V30 8070 O 768.772 -4.12399 -0.0104053 0
M  V30 8071 H 768.113 -0.61871 0.241027 0
M  V30 8072 H 770.643 -1.58901 1.28886 0
M  V30 8073 H 770.653 -3.99334 0.836453 0
M  V30 8074 H 769.328 -3.6765 1.94439 0
M  V30 8075 H 767.905 -3.72727 0.113631 0
M  V30 8076 N 770.09 -0.729906 -1.39679 0
M  V30 8077 C 771.02 -0.101618 -2.33279 0
M  V30 8078 C 772.001 0.729854 -1.53646 0
M  V30 8079 O 773.186 0.67587 -1.82059 0
M  V30 8080 C 770.316 0.81024 -3.37716 0
M  V30 8081 C 769.27 0.0833126 -4.27919 0
M  V30 8082 C 768.596 1.11185 -5.23012 0
M  V30 8083 C 769.896 -1.07107 -5.112 0
M  V30 8084 H 771.59 -0.883452 -2.86069 0
M  V30 8085 H 769.136 -0.426283 -1.37546 0
M  V30 8086 H 771.089 1.25927 -4.02145 0
M  V30 8087 H 769.813 1.62413 -2.83354 0
M  V30 8088 H 768.472 -0.346043 -3.64963 0
M  V30 8089 H 768.12 1.91917 -4.64948 0
M  V30 8090 H 767.82 0.63026 -5.8421 0
M  V30 8091 H 769.344 1.56068 -5.90318 0
M  V30 8092 H 770.758 -0.700726 -5.69002 0
M  V30 8093 H 769.155 -1.48196 -5.81514 0
M  V30 8094 H 770.225 -1.89513 -4.46332 0
M  V30 8095 N 771.568 1.50203 -0.477153 0
M  V30 8096 C 772.793 2.07263 0.0754986 0
M  V30 8097 C 773.218 1.33801 1.32208 0
M  V30 8098 O 772.576 0.387482 1.77111 0
M  V30 8099 C 772.624 3.59028 0.336348 0
M  V30 8100 O 771.728 3.87339 1.4157 0
M  V30 8101 H 771.069 0.663815 -0.015662 0
M  V30 8102 H 773.599 1.93321 -0.669936 0
M  V30 8103 H 773.609 4.03927 0.575034 0
M  V30 8104 H 772.284 4.11912 -0.574551 0
M  V30 8105 H 770.861 3.54272 1.16385 0
M  V30 8106 N 773.046 0.209999 1.56195 0
M  V30 8107 C 774.274 -0.429996 2.02382 0
M  V30 8108 C 774.689 -1.54159 1.08998 0
M  V30 8109 O 774.046 -1.82239 0.0974856 0
M  V30 8110 C 774.097 -0.972433 3.48175 0
M  V30 8111 O 773.818 0.0948231 4.37997 0
M  V30 8112 C 775.319 -1.68683 4.09952 0
M  V30 8113 H 772.539 -0.106475 0.662498 0
M  V30 8114 H 775.083 0.323072 2.01932 0
M  V30 8115 H 773.238 -1.67582 3.49278 0
M  V30 8116 H 773.652 -0.31113 5.23576 0
M  V30 8117 H 775.126 -2.01851 5.13771 0
M  V30 8118 H 775.603 -2.59587 3.54276 0
M  V30 8119 H 776.209 -1.02893 4.12666 0
M  V30 8120 N 774.524 -1.57472 -0.0634922 0
M  V30 8121 C 775.749 -1.92273 -0.77756 0
M  V30 8122 C 776.174 -0.807141 -1.69902 0
M  V30 8123 O 775.532 0.239523 -1.79711 0
M  V30 8124 C 775.58 -3.26054 -1.54017 0
M  V30 8125 O 774.684 -3.15873 -2.65138 0
M  V30 8126 H 774.025 -0.629389 -0.211579 0
M  V30 8127 H 776.555 -2.04579 -0.0292523 0
M  V30 8128 H 776.565 -3.60127 -1.91763 0
M  V30 8129 H 775.24 -4.06824 -0.864128 0
M  V30 8130 H 773.817 -2.93373 -2.30189 0
M  V30 8131 N 776.003 0.335068 -1.53997 0
M  V30 8132 C 776.966 1.39481 -1.81872 0
M  V30 8133 C 777.966 1.4524 -0.690078 0
M  V30 8134 O 779.156 1.45467 -0.958377 0
M  V30 8135 C 776.288 2.78329 -1.9684 0
M  V30 8136 H 777.481 1.16024 -2.76547 0
M  V30 8137 H 775.034 0.569926 -1.45539 0
M  V30 8138 H 775.769 3.07058 -1.04337 0
M  V30 8139 H 775.554 2.75544 -2.78958 0
M  V30 8140 H 777.044 3.55016 -2.19894 0
M  V30 8141 N 777.481 1.45874 0.596531 0
M  V30 8142 C 778.444 1.54988 1.68853 0
M  V30 8143 C 779.444 0.428302 1.54991 0
M  V30 8144 O 780.634 0.692158 1.59859 0
M  V30 8145 C 777.766 1.457 3.08195 0
M  V30 8146 H 778.959 2.52294 1.62135 0
M  V30 8147 H 776.512 1.33479 0.813206 0
M  V30 8148 H 777.247 0.496204 3.20481 0
M  V30 8149 H 777.032 2.27061 3.19665 0
M  V30 8150 H 778.522 1.55133 3.87716 0
M  V30 8151 N 778.959 -0.83999 1.33349 0
M  V30 8152 C 780.187 -1.62728 1.27778 0
M  V30 8153 C 780.602 -1.88191 -0.151505 0
M  V30 8154 O 779.959 -1.46128 -1.09329 0
M  V30 8155 C 780.01 -2.97813 2.04913 0
M  V30 8156 O 779.731 -2.73469 3.42266 0
M  V30 8157 C 781.232 -3.92245 2.0654 0
M  V30 8158 H 778.452 -0.506374 0.440257 0
M  V30 8159 H 780.996 -1.04637 1.75703 0
M  V30 8160 H 779.151 -3.52509 1.60674 0
M  V30 8161 H 779.565 -3.59483 3.81932 0
M  V30 8162 H 781.039 -4.84249 2.64966 0
M  V30 8163 H 781.516 -4.26332 1.05537 0
M  V30 8164 H 782.122 -3.43487 2.50793 0
M  V30 8165 N 780.437 -1.16799 -1.0581 0
M  V30 8166 C 781.347 -0.893492 -2.16919 0
M  V30 8167 C 782.363 0.136061 -1.73467 0
M  V30 8168 O 783.539 -0.0417348 -2.01357 0
M  V30 8169 C 780.604 -0.403763 -3.44341 0
M  V30 8170 C 779.665 -1.49914 -4.02274 0
M  V30 8171 C 778.898 -1.03269 -5.23614 0
M  V30 8172 O 779.121 0.115647 -5.70283 0
M  V30 8173 O 778.055 -1.8231 -5.73626 0
M  V30 8174 H 781.881 -1.82274 -2.42919 0
M  V30 8175 H 779.466 -0.948361 -1.1544 0
M  V30 8176 H 781.348 -0.137874 -4.21174 0
M  V30 8177 H 780.023 0.497413 -3.19855 0
M  V30 8178 H 778.93 -1.81883 -3.26909 0
M  V30 8179 H 780.263 -2.3758 -4.31064 0
M  V30 8180 N 781.915 1.24427 -0.967243 0
M  V30 8181 C 783.192 1.87831 -0.545776 0
M  V30 8182 C 783.572 1.87126 0.977099 0
M  V30 8183 O 782.92 1.34357 1.84826 0
M  V30 8184 C 783.13 3.29967 -1.13679 0
M  V30 8185 C 784.478 4.06654 -1.22139 0
M  V30 8186 O 785.502 3.39136 -1.08926 0
M  V30 8187 O 784.361 5.27455 -1.43017 0
M  V30 8188 H 781.455 0.806745 -0.181912 0
M  V30 8189 H 784.001 1.32403 -1.06148 0
M  V30 8190 H 782.773 3.24977 -2.17958 0
M  V30 8191 H 782.396 3.92969 -0.605093 0
M  V30 8192 N 783.393 0.737304 1.3929 0
M  V30 8193 C 784.343 0.0748537 2.27877 0
M  V30 8194 C 785.327 -0.71022 1.44377 0
M  V30 8195 O 786.519 -0.578851 1.67267 0
M  V30 8196 C 783.648 -0.82991 3.33118 0
M  V30 8197 C 782.734 -0.0388619 4.24082 0
M  V30 8198 N 783.125 0.989182 4.96033 0
M  V30 8199 C 781.423 -0.268167 4.45193 0
M  V30 8200 C 782.124 1.46639 5.62914 0
M  V30 8201 N 781.1 0.784581 5.37908 0
M  V30 8202 H 784.902 0.862457 2.80961 0
M  V30 8203 H 782.416 0.571845 1.51999 0
M  V30 8204 H 784.413 -1.31999 3.95452 0
M  V30 8205 H 783.073 -1.61665 2.81593 0
M  V30 8206 H 784.084 1.3706 4.99435 0
M  V30 8207 H 780.761 -1.02953 4.04607 0
M  V30 8208 H 782.151 2.32182 6.30508 0
M  V30 8209 N 784.871 -1.49948 0.485112 0
M  V30 8210 C 786.117 -2.02695 -0.0651022 0
M  V30 8211 C 786.45 -1.36534 -1.38102 0
M  V30 8212 O 785.725 -0.495677 -1.88078 0
M  V30 8213 C 786.008 -3.59337 -0.234285 0
M  V30 8214 C 785.861 -4.3605 1.10364 0
M  V30 8215 C 787.18 -4.28996 -0.982351 0
M  V30 8216 H 784.299 -0.736666 -0.0221856 0
M  V30 8217 H 786.941 -1.7913 0.633433 0
M  V30 8218 H 785.091 -3.79546 -0.829262 0
M  V30 8219 H 786.763 -4.27377 1.73627 0
M  V30 8220 H 785.006 -3.99236 1.69686 0
M  V30 8221 H 785.677 -5.43959 0.938743 0
M  V30 8222 H 788.153 -4.13346 -0.477904 0
M  V30 8223 H 787.029 -5.38379 -1.06955 0
M  V30 8224 H 787.29 -3.93135 -2.02231 0
M  V30 8225 N 786.349 -0.21828 -1.56081 0
M  V30 8226 C 787.574 0.422302 -2.03055 0
M  V30 8227 C 787.999 1.5279 -1.09713 0
M  V30 8228 O 787.357 1.81102 -0.0847187 0
M  V30 8229 C 787.405 0.934177 -3.48289 0
M  V30 8230 O 786.509 2.04574 -3.58083 0
M  V30 8231 H 785.85 0.0959764 -0.657027 0
M  V30 8232 H 788.38 -0.335958 -2.01823 0
M  V30 8233 H 788.39 1.24484 -3.88546 0
M  V30 8234 H 787.065 0.124963 -4.15712 0
M  V30 8235 H 785.642 1.74196 -3.29712 0
M  V30 8236 N 787.827 1.57504 0.0551401 0
M  V30 8237 C 788.76 2.00155 1.09604 0
M  V30 8238 C 789.738 0.881274 1.36647 0
M  V30 8239 O 790.922 1.14498 1.49742 0
M  V30 8240 C 788.049 2.35246 2.43674 0
M  V30 8241 C 787.095 3.57452 2.32659 0
M  V30 8242 S 787.928 5.07639 1.7048 0
M  V30 8243 C 789.084 5.45947 3.06093 0
M  V30 8244 H 789.317 2.88131 0.732635 0
M  V30 8245 H 786.85 1.52122 0.264252 0
M  V30 8246 H 788.808 2.56136 3.20787 0
M  V30 8247 H 787.469 1.47769 2.7717 0
M  V30 8248 H 786.662 3.79576 3.31569 0
M  V30 8249 H 786.264 3.36279 1.63685 0
M  V30 8250 H 788.556 5.45036 4.0242 0
M  V30 8251 H 789.499 6.4656 2.88732 0
M  V30 8252 H 789.907 4.73419 3.07466 0
M  V30 8253 N 789.305 -0.326896 1.54172 0
M  V30 8254 C 790.553 -1.06313 1.71878 0
M  V30 8255 C 790.874 -1.88652 0.493498 0
M  V30 8256 O 790.144 -1.89608 -0.492522 0
M  V30 8257 H 788.724 -0.39549 0.633716 0
M  V30 8258 H 791.386 -0.364139 1.91468 0
M  V30 8259 H 790.482 -1.73105 2.59694 0
M  V30 8260 N 790.784 -1.46188 -0.588786 0
M  V30 8261 C 792.032 -1.50885 -1.34455 0
M  V30 8262 C 792.353 -0.159555 -1.94346 0
M  V30 8263 O 791.623 0.813239 -1.78222 0
M  V30 8264 H 790.203 -0.555707 -0.499198 0
M  V30 8265 H 792.865 -1.82277 -0.690014 0
M  V30 8266 H 791.961 -2.25816 -2.15438 0
M  V30 8267 N 792.262 0.832906 -1.33792 0
M  V30 8268 C 793.508 1.59053 -1.26782 0
M  V30 8269 C 793.863 1.91705 0.163399 0
M  V30 8270 O 793.156 1.5638 1.10706 0
M  V30 8271 C 793.35 2.9047 -2.08235 0
M  V30 8272 C 793.179 2.70656 -3.59132 0
M  V30 8273 C 791.949 2.67905 -4.28433 0
M  V30 8274 C 794.147 2.42871 -4.53341 0
M  V30 8275 N 792.129 2.39531 -5.65242 0
M  V30 8276 C 793.5 2.24101 -5.78082 0
M  V30 8277 C 795.555 2.28517 -4.42362 0
M  V30 8278 C 794.258 1.92432 -6.93082 0
M  V30 8279 C 796.284 1.98242 -5.57184 0
M  V30 8280 C 795.646 1.80288 -6.80937 0
M  V30 8281 H 791.745 0.584823 -0.51914 0
M  V30 8282 H 794.329 0.977252 -1.68398 0
M  V30 8283 H 792.5 3.49739 -1.6893 0
M  V30 8284 H 794.232 3.55744 -1.92947 0
M  V30 8285 H 790.987 2.81624 -3.80768 0
M  V30 8286 H 791.411 2.28211 -6.37377 0
M  V30 8287 H 796.053 2.41107 -3.47314 0
M  V30 8288 H 793.771 1.78579 -7.88121 0
M  V30 8289 H 797.357 1.87882 -5.50628 0
M  V30 8290 H 796.237 1.57199 -7.68283 0
M  V30 8291 N 793.74 1.17359 1.05189 0
M  V30 8292 C 794.703 0.892604 2.11105 0
M  V30 8293 C 795.703 -0.117236 1.60372 0
M  V30 8294 O 796.893 0.114936 1.7382 0
M  V30 8295 C 794.025 0.337032 3.3923 0
M  V30 8296 H 795.218 1.83169 2.37464 0
M  V30 8297 H 792.771 0.984051 1.21434 0
M  V30 8298 H 793.506 -0.609198 3.18527 0
M  V30 8299 H 793.291 1.06484 3.77364 0
M  V30 8300 H 794.781 0.158763 4.17298 0
M  V30 8301 N 795.218 -1.23913 0.973828 0
M  V30 8302 C 796.181 -2.23367 0.51378 0
M  V30 8303 C 797.181 -1.55923 -0.39302 0
M  V30 8304 O 798.371 -1.73187 -0.187626 0
M  V30 8305 C 795.503 -3.39944 -0.255152 0
M  V30 8306 H 796.696 -2.65581 1.39307 0
M  V30 8307 H 794.249 -1.36632 0.759039 0
M  V30 8308 H 794.984 -3.03177 -1.15127 0
M  V30 8309 H 794.769 -3.90098 0.395673 0
M  V30 8310 H 796.259 -4.13749 -0.565842 0
M  V30 8311 N 796.696 -0.74468 -1.38897 0
M  V30 8312 C 798.112 -0.421302 -1.53939 0
M  V30 8313 C 798.312 1.06668 -1.70951 0
M  V30 8314 O 797.368 1.85278 -1.71547 0
M  V30 8315 C 798.681 -1.21278 -2.75159 0
M  V30 8316 C 800.229 -1.20196 -2.89001 0
M  V30 8317 C 800.704 -1.97621 -4.13171 0
M  V30 8318 N 802.195 -1.94836 -4.2023 0
M  V30 8319 C 802.93 -2.51545 -5.15279 0
M  V30 8320 N 802.426 -3.1693 -6.16058 0
M  V30 8321 N 804.219 -2.41524 -5.07565 0
M  V30 8322 H 796.37 -1.70914 -1.26103 0
M  V30 8323 H 798.633 -0.724058 -0.611919 0
M  V30 8324 H 798.339 -2.26609 -2.68963 0
M  V30 8325 H 798.213 -0.823677 -3.68097 0
M  V30 8326 H 800.6 -0.156742 -2.94683 0
M  V30 8327 H 800.681 -1.63051 -1.97099 0
M  V30 8328 H 800.325 -3.02149 -4.0825 0
M  V30 8329 H 800.255 -1.52166 -5.04136 0
M  V30 8330 H 802.746 -1.4721 -3.48048 0
M  V30 8331 H 803.059 -3.57644 -6.85062 0
M  V30 8332 H 801.404 -3.21023 -6.16417 0
M  V30 8333 H 804.595 -1.90077 -4.27771 0
M  V30 8334 H 804.768 -2.86016 -5.81462 0
M  V30 8335 N 798.174 1.49689 -0.493057 0
M  V30 8336 C 799.121 2.28976 0.28959 0
M  V30 8337 C 800.091 1.35011 0.967536 0
M  V30 8338 O 801.276 1.63964 0.975736 0
M  V30 8339 C 798.416 3.1748 1.35279 0
M  V30 8340 C 797.529 4.26496 0.687418 0
M  V30 8341 C 796.664 5.02226 1.73038 0
M  V30 8342 C 795.703 6.03089 1.04645 0
M  V30 8343 N 794.84 6.72014 2.03325 0
M  V30 8344 H 799.68 2.954 -0.392798 0
M  V30 8345 H 797.217 1.45657 -0.205554 0
M  V30 8346 H 799.175 3.67162 1.98111 0
M  V30 8347 H 797.805 2.53057 2.00405 0
M  V30 8348 H 796.857 3.80362 -0.0540001 0
M  V30 8349 H 798.169 4.98578 0.14864 0
M  V30 8350 H 797.323 5.55737 2.43395 0
M  V30 8351 H 796.062 4.29899 2.303 0
M  V30 8352 H 795.067 5.48817 0.328606 0
M  V30 8353 H 796.292 6.77398 0.480428 0
M  V30 8354 H 794.238 6.02464 2.59564 0
M  V30 8355 H 794.155 7.40046 1.54492 0
M  V30 8356 H 795.423 7.30133 2.72995 0
M  V30 8357 N 799.652 0.226554 1.55963 0
M  V30 8358 C 800.615 -0.668015 2.19249 0
M  V30 8359 C 801.615 -1.11794 1.1558 0
M  V30 8360 O 802.805 -1.02593 1.40784 0
M  V30 8361 C 799.937 -1.91571 2.81981 0
M  V30 8362 H 801.13 -0.116175 2.99675 0
M  V30 8363 H 798.683 -0.0230497 1.56283 0
M  V30 8364 H 799.418 -2.50929 2.05439 0
M  V30 8365 H 799.203 -1.6015 3.57903 0
M  V30 8366 H 800.693 -2.55294 3.30477 0
M  V30 8367 N 801.13 -1.57531 -0.0467866 0
M  V30 8368 C 802.06 -2.08425 -1.05268 0
M  V30 8369 C 803.041 -0.982941 -1.38825 0
M  V30 8370 O 804.226 -1.25716 -1.48018 0
M  V30 8371 C 801.356 -2.54897 -2.35891 0
M  V30 8372 C 800.31 -3.69132 -2.16623 0
M  V30 8373 C 799.636 -4.01747 -3.52851 0
M  V30 8374 C 800.936 -4.98243 -1.56689 0
M  V30 8375 H 802.63 -2.92716 -0.62908 0
M  V30 8376 H 800.176 -1.40816 -0.301156 0
M  V30 8377 H 802.129 -2.8912 -3.06574 0
M  V30 8378 H 800.853 -1.67666 -2.80278 0
M  V30 8379 H 799.512 -3.35231 -1.48377 0
M  V30 8380 H 799.16 -3.11608 -3.94853 0
M  V30 8381 H 798.86 -4.78681 -3.4079 0
M  V30 8382 H 800.384 -4.38487 -4.24925 0
M  V30 8383 H 801.798 -5.30535 -2.17268 0
M  V30 8384 H 800.195 -5.79669 -1.55255 0
M  V30 8385 H 801.265 -4.81986 -0.530827 0
M  V30 8386 N 802.608 0.318715 -1.54344 0
M  V30 8387 C 804.024 0.663345 -1.45162 0
M  V30 8388 C 804.224 1.9145 -0.62842 0
M  V30 8389 O 803.28 2.5217 -0.129126 0
M  V30 8390 C 804.593 0.832836 -2.88937 0
M  V30 8391 C 806.141 0.929866 -2.98869 0
M  V30 8392 C 806.616 1.13149 -4.43803 0
M  V30 8393 N 808.107 1.19811 -4.47437 0
M  V30 8394 C 808.842 1.37209 -5.56742 0
M  V30 8395 N 808.338 1.51619 -6.76006 0
M  V30 8396 N 810.131 1.39956 -5.44398 0
M  V30 8397 H 802.282 -0.50357 -2.06344 0
M  V30 8398 H 804.545 -0.163528 -0.933789 0
M  V30 8399 H 804.251 -0.0153519 -3.51697 0
M  V30 8400 H 804.125 1.72721 -3.35332 0
M  V30 8401 H 806.512 1.76855 -2.36233 0
M  V30 8402 H 806.593 0.0118561 -2.55797 0
M  V30 8403 H 806.237 0.297636 -5.07027 0
M  V30 8404 H 806.167 2.06345 -4.84489 0
M  V30 8405 H 808.658 1.101 -3.61506 0
M  V30 8406 H 808.971 1.64599 -7.55067 0
M  V30 8407 H 807.316 1.48708 -6.78904 0
M  V30 8408 H 810.507 1.28298 -4.50175 0
M  V30 8409 H 810.68 1.53172 -6.29637 0
M  V30 8410 N 804.086 1.46499 0.581025 0
M  V30 8411 C 805.332 1.52121 1.34116 0
M  V30 8412 C 805.665 0.173031 1.93428 0
M  V30 8413 O 804.94 -0.815729 1.76568 0
M  V30 8414 C 805.223 2.62108 2.46924 0
M  V30 8415 C 805.076 4.06462 1.92636 0
M  V30 8416 C 806.395 2.68167 3.48962 0
M  V30 8417 H 803.514 0.5538 0.486287 0
M  V30 8418 H 806.156 1.78443 0.652538 0
M  V30 8419 H 804.306 2.39794 3.05665 0
M  V30 8420 H 805.978 4.40068 1.3834 0
M  V30 8421 H 804.221 4.15862 1.23455 0
M  V30 8422 H 804.892 4.79152 2.74076 0
M  V30 8423 H 807.368 2.8823 3.00104 0
M  V30 8424 H 806.244 3.46942 4.2535 0
M  V30 8425 H 806.505 1.74284 4.06297 0
M  V30 8426 N 805.565 -0.825799 1.34232 0
M  V30 8427 C 806.814 -1.57686 1.2577 0
M  V30 8428 C 807.127 -1.94848 -0.171372 0
M  V30 8429 O 808.333 -2.68854 -0.378123 0
M  V30 8430 C 806.789 -2.84478 2.20454 0
M  V30 8431 C 806.397 -2.54629 3.68603 0
M  V30 8432 C 808.141 -3.625 2.20893 0
M  V30 8433 C 806.048 -3.77597 4.55164 0
M  V30 8434 H 804.978 -0.591809 0.467203 0
M  V30 8435 H 807.629 -0.909421 1.59379 0
M  V30 8436 H 806.011 -3.52832 1.79793 0
M  V30 8437 H 807.185 -1.94404 4.17784 0
M  V30 8438 H 805.5 -1.89888 3.70582 0
M  V30 8439 H 808.097 -4.538 2.82789 0
M  V30 8440 H 808.44 -3.98404 1.20746 0
M  V30 8441 H 808.973 -3.01086 2.59985 0
M  V30 8442 H 805.712 -3.46815 5.56237 0
M  V30 8443 H 805.232 -4.37116 4.10719 0
M  V30 8444 H 806.911 -4.45039 4.69627 0
M  V30 8445 N 807.043 -1.17915 -1.04565 0
M  V30 8446 C 807.953 -0.916449 -2.15959 0
M  V30 8447 C 808.969 0.117655 -1.73602 0
M  V30 8448 O 810.145 -0.063089 -2.01301 0
M  V30 8449 C 807.21 -0.440262 -3.43893 0
M  V30 8450 C 806.271 -1.54172 -4.00661 0
M  V30 8451 C 805.504 -1.08816 -5.22489 0
M  V30 8452 O 805.727 0.0551547 -5.70373 0
M  V30 8453 O 804.661 -1.88383 -5.7166 0
M  V30 8454 H 808.487 -1.8484 -2.40972 0
M  V30 8455 H 806.072 -0.960552 -1.14428 0
M  V30 8456 H 807.954 -0.182537 -4.21004 0
M  V30 8457 H 806.629 0.46346 -3.20365 0
M  V30 8458 H 805.536 -1.85341 -3.24961 0
M  V30 8459 H 806.869 -2.42139 -4.2852 0
M  V30 8460 N 808.521 1.23394 -0.980386 0
M  V30 8461 C 809.471 2.22634 -0.491747 0
M  V30 8462 C 810.455 1.54958 0.433222 0
M  V30 8463 O 811.647 1.75049 0.262078 0
M  V30 8464 C 808.776 3.4269 0.204531 0
M  V30 8465 C 807.862 4.17594 -0.740007 0
M  V30 8466 N 808.253 4.69458 -1.88263 0
M  V30 8467 C 806.551 4.42554 -0.553335 0
M  V30 8468 C 807.252 5.26446 -2.47446 0
M  V30 8469 N 806.228 5.14377 -1.75834 0
M  V30 8470 H 810.03 2.60363 -1.36339 0
M  V30 8471 H 807.544 1.38924 -0.841059 0
M  V30 8472 H 809.541 4.12959 0.571901 0
M  V30 8473 H 808.201 3.06477 1.07246 0
M  V30 8474 H 809.212 4.65803 -2.26381 0
M  V30 8475 H 805.889 4.16629 0.269573 0
M  V30 8476 H 807.279 5.77195 -3.43941 0
M  V30 8477 N 809.999 0.752036 1.385 0
M  V30 8478 C 811.245 0.307958 2.00448 0
M  V30 8479 C 811.578 -1.10702 1.59558 0
M  V30 8480 O 810.853 -1.75788 0.832391 0
M  V30 8481 C 811.136 0.429092 3.57534 0
M  V30 8482 C 810.989 1.88507 4.08393 0
M  V30 8483 C 812.308 -0.178442 4.39738 0
M  V30 8484 H 809.427 0.113373 0.728228 0
M  V30 8485 H 812.069 0.951389 1.64465 0
M  V30 8486 H 810.219 -0.118695 3.88319 0
M  V30 8487 H 811.891 2.49104 3.88259 0
M  V30 8488 H 810.134 2.40066 3.61318 0
M  V30 8489 H 810.805 1.92099 5.17496 0
M  V30 8490 H 813.281 0.28872 4.15097 0
M  V30 8491 H 812.157 -0.0634349 5.48863 0
M  V30 8492 H 812.418 -1.26655 4.23569 0
M  V30 8493 N 811.477 -1.49425 0.500989 0
M  V30 8494 C 812.387 -2.32899 -0.282011 0
M  V30 8495 C 813.403 -1.44632 -0.967346 0
M  V30 8496 O 814.579 -1.77654 -0.94873 0
M  V30 8497 C 811.644 -3.20069 -1.33253 0
M  V30 8498 C 810.705 -4.24186 -0.660636 0
M  V30 8499 C 809.938 -5.07191 -1.6611 0
M  V30 8500 O 810.161 -4.91712 -2.89094 0
M  V30 8501 O 809.095 -5.8948 -1.21643 0
M  V30 8502 H 812.921 -3.01038 0.401224 0
M  V30 8503 H 810.506 -1.47079 0.262323 0
M  V30 8504 H 812.388 -3.74071 -1.94033 0
M  V30 8505 H 811.063 -2.54625 -1.9987 0
M  V30 8506 H 809.97 -3.74098 -0.0130959 0
M  V30 8507 H 811.303 -4.92186 -0.0369179 0
M  V30 8508 N 812.955 -0.234822 -1.55841 0
M  V30 8509 C 813.887 0.702346 -2.18174 0
M  V30 8510 C 814.9 1.14776 -1.15457 0
M  V30 8511 O 816.089 1.07662 -1.42377 0
M  V30 8512 C 813.189 1.96483 -2.76129 0
M  V30 8513 C 812.362 1.67283 -4.04148 0
M  V30 8514 C 811.421 2.7837 -4.46539 0
M  V30 8515 O 810.447 2.46272 -5.13166 0
M  V30 8516 N 811.649 4.07611 -4.1332 0
M  V30 8517 H 814.414 0.169074 -2.99223 0
M  V30 8518 H 811.975 -0.0543164 -1.61809 0
M  V30 8519 H 813.967 2.70016 -3.01452 0
M  V30 8520 H 812.537 2.40822 -1.99307 0
M  V30 8521 H 811.757 0.773278 -3.86541 0
M  V30 8522 H 813.045 1.45222 -4.87635 0
M  V30 8523 H 812.443 4.36527 -3.59806 0
M  V30 8524 H 811 4.77646 -4.43506 0
M  V30 8525 N 814.433 1.57553 0.0384317 0
M  V30 8526 C 815.679 1.89121 0.732199 0
M  V30 8527 C 816.012 0.831404 1.75503 0
M  V30 8528 O 815.287 -0.154642 1.93884 0
M  V30 8529 C 815.57 3.31338 1.41021 0
M  V30 8530 C 815.423 4.48004 0.401532 0
M  V30 8531 C 816.742 3.72318 2.34665 0
M  V30 8532 H 813.861 0.687819 0.264715 0
M  V30 8533 H 816.503 1.89999 -0.00496279 0
M  V30 8534 H 814.653 3.3072 2.03854 0
M  V30 8535 H 816.325 4.60755 -0.224159 0
M  V30 8536 H 814.568 4.32895 -0.280092 0
M  V30 8537 H 815.239 5.44377 0.91423 0
M  V30 8538 H 817.715 3.74243 1.81883 0
M  V30 8539 H 816.591 4.72652 2.7909 0
M  V30 8540 H 816.852 3.04062 3.20934 0
M  V30 8541 N 815.911 -0.310526 1.54511 0
M  V30 8542 C 816.841 -1.38757 1.878 0
M  V30 8543 C 817.822 -1.53353 0.735991 0
M  V30 8544 O 819.007 -1.67018 0.990887 0
M  V30 8545 C 816.137 -2.75327 2.11689 0
M  V30 8546 C 815.091 -2.75506 3.27537 0
M  V30 8547 C 814.417 -4.15275 3.36824 0
M  V30 8548 C 815.717 -2.38093 4.64875 0
M  V30 8549 H 817.411 -1.11146 2.78005 0
M  V30 8550 H 814.957 -0.533232 1.33763 0
M  V30 8551 H 816.91 -3.50752 2.33562 0
M  V30 8552 H 815.634 -3.04443 1.18245 0
M  V30 8553 H 814.293 -2.02538 3.05572 0
M  V30 8554 H 813.941 -4.41553 2.40915 0
M  V30 8555 H 813.641 -4.16299 4.14692 0
M  V30 8556 H 815.165 -4.92493 3.60947 0
M  V30 8557 H 816.579 -3.03232 4.86542 0
M  V30 8558 H 814.976 -2.50345 5.45387 0
M  V30 8559 H 816.046 -1.33227 4.66239 0
M  V30 8560 N 817.389 -1.46805 -0.573248 0
M  V30 8561 C 818.352 -1.57655 -1.66366 0
M  V30 8562 C 819.352 -0.452905 -1.5429 0
M  V30 8563 O 820.542 -0.717502 -1.58737 0
M  V30 8564 C 817.674 -1.50584 -3.05839 0
M  V30 8565 H 818.867 -2.54842 -1.581 0
M  V30 8566 H 816.42 -1.34756 -0.791868 0
M  V30 8567 H 817.155 -0.547127 -3.19651 0
M  V30 8568 H 816.94 -2.32118 -3.16012 0
M  V30 8569 H 818.43 -1.61282 -3.85199 0
M  V30 8570 N 818.867 0.818669 -1.34668 0
M  V30 8571 C 820.116 1.57017 -1.26604 0
M  V30 8572 C 820.429 1.94936 0.161036 0
M  V30 8573 O 821.635 2.69051 0.36386 0
M  V30 8574 C 820.091 2.83305 -2.2196 0
M  V30 8575 C 819.699 2.52671 -3.69948 0
M  V30 8576 C 821.443 3.61324 -2.22813 0
M  V30 8577 C 819.35 3.75178 -4.5716 0
M  V30 8578 H 818.28 0.589323 -0.470335 0
M  V30 8579 H 820.931 0.900956 -1.59859 0
M  V30 8580 H 819.313 3.51874 -1.81661 0
M  V30 8581 H 820.487 1.92186 -4.18809 0
M  V30 8582 H 818.802 1.8792 -3.71584 0
M  V30 8583 H 821.399 4.52294 -2.85192 0
M  V30 8584 H 821.742 3.97759 -1.22857 0
M  V30 8585 H 822.275 2.99703 -2.61578 0
M  V30 8586 H 819.014 3.43861 -5.58068 0
M  V30 8587 H 818.534 4.34931 -4.13031 0
M  V30 8588 H 820.213 4.42542 -4.71981 0
M  V30 8589 N 820.346 1.18468 1.03938 0
M  V30 8590 C 821.256 0.927889 2.1547 0
M  V30 8591 C 822.272 -0.108447 1.73662 0
M  V30 8592 O 823.448 0.0737636 2.01265 0
M  V30 8593 C 820.513 0.458494 3.43655 0
M  V30 8594 C 819.574 1.56295 3.99838 0
M  V30 8595 C 818.807 1.11586 5.21904 0
M  V30 8596 O 819.03 -0.0249057 5.70395 0
M  V30 8597 O 817.964 1.91412 5.70653 0
M  V30 8598 H 821.79 1.86116 2.39989 0
M  V30 8599 H 819.375 0.966607 1.13917 0
M  V30 8600 H 821.257 0.204861 4.20902 0
M  V30 8601 H 819.932 -0.446464 3.20606 0
M  V30 8602 H 818.839 1.87061 3.23974 0
M  V30 8603 H 820.172 2.44408 4.2723 0
M  V30 8604 N 821.824 -1.22873 0.986916 0
M  V30 8605 C 822.754 -2.2688 0.552064 0
M  V30 8606 C 823.735 -1.64883 -0.418048 0
M  V30 8607 O 824.92 -1.9171 -0.30999 0
M  V30 8608 C 822.05 -3.47018 -0.139959 0
M  V30 8609 C 821.004 -4.21411 0.748091 0
M  V30 8610 C 820.33 -5.34645 -0.0765132 0
M  V30 8611 C 821.63 -4.80726 2.04206 0
M  V30 8612 H 823.324 -2.63507 1.42143 0
M  V30 8613 H 820.87 -1.26668 0.68492 0
M  V30 8614 H 822.823 -4.18931 -0.455527 0
M  V30 8615 H 821.547 -3.0947 -1.04382 0
M  V30 8616 H 820.206 -3.51325 1.04721 0
M  V30 8617 H 819.854 -4.93339 -0.981109 0
M  V30 8618 H 819.554 -5.85342 0.514606 0
M  V30 8619 H 821.078 -6.09377 -0.386313 0
M  V30 8620 H 822.492 -5.44612 1.79083 0
M  V30 8621 H 820.889 -5.41737 2.5815 0
M  V30 8622 H 821.959 -4.01109 2.72469 0
M  V30 8623 N 823.302 -0.75937 -1.38099 0
M  V30 8624 C 824.232 -0.151077 -2.33011 0
M  V30 8625 C 825.213 0.697099 -1.5516 0
M  V30 8626 O 826.398 0.637101 -1.83452 0
M  V30 8627 C 823.528 0.738423 -3.39359 0
M  V30 8628 C 822.482 -0.0074741 -4.27999 0
M  V30 8629 C 821.808 1.00066 -5.25253 0
M  V30 8630 C 823.108 -1.17926 -5.08813 0
M  V30 8631 H 824.802 -0.943933 -2.84131 0
M  V30 8632 H 822.348 -0.455362 -1.36611 0
M  V30 8633 H 824.301 1.17369 -4.04725 0
M  V30 8634 H 823.025 1.56366 -2.86735 0
M  V30 8635 H 821.684 -0.423379 -3.64147 0
M  V30 8636 H 821.332 1.82012 -4.68914 0
M  V30 8637 H 821.032 0.506199 -5.85416 0
M  V30 8638 H 822.556 1.43512 -5.93495 0
M  V30 8639 H 823.97 -0.821262 -5.67387 0
M  V30 8640 H 822.367 -1.60497 -5.78239 0
M  V30 8641 H 823.437 -1.98938 -4.42212 0
M  V30 8642 N 824.78 1.49157 -0.508906 0
M  V30 8643 C 825.743 2.27784 0.25434 0
M  V30 8644 C 826.743 1.34132 0.88686 0
M  V30 8645 O 827.933 1.5722 0.750168 0
M  V30 8646 C 825.065 3.12347 1.36573 0
M  V30 8647 H 826.258 2.96718 -0.435714 0
M  V30 8648 H 823.811 1.54052 -0.264128 0
M  V30 8649 H 824.546 2.47997 2.08969 0
M  V30 8650 H 824.331 3.81213 0.917543 0
M  V30 8651 H 825.821 3.71712 1.90315 0
M  V30 8652 N 826.258 0.243083 1.55714 0
M  V30 8653 C 827.221 -0.644723 2.19945 0
M  V30 8654 C 828.221 -1.10562 1.16759 0
M  V30 8655 O 829.411 -1.01095 1.41865 0
M  V30 8656 C 826.543 -1.88569 2.83997 0
M  V30 8657 H 827.736 -0.0843839 2.99781 0
M  V30 8658 H 825.289 -0.00647246 1.56299 0
M  V30 8659 H 826.024 -2.48736 2.08089 0
M  V30 8660 H 825.809 -1.56345 3.59581 0
M  V30 8661 H 827.299 -2.51774 3.33166 0
M  V30 8662 N 827.736 -1.57571 -0.0300757 0
M  V30 8663 C 828.976 -1.91074 -0.725946 0
M  V30 8664 C 829.34 -0.841545 -1.72575 0
M  V30 8665 O 830.541 -1.06088 -2.46979 0
M  V30 8666 C 828.812 -3.2973 -1.37888 0
M  V30 8667 S 830.371 -3.85065 -2.10405 0
M  V30 8668 H 827.189 -0.669084 -0.240515 0
M  V30 8669 H 829.791 -1.9549 0.019384 0
M  V30 8670 H 828.495 -4.05411 -0.637974 0
M  V30 8671 H 828.026 -3.28614 -2.16278 0
M  V30 8672 H 830.041 -3.63711 -3.37533 0
M  V30 8673 N 829.214 0.302327 -1.54673 0
M  V30 8674 C 830.146 1.39443 -1.81902 0
M  V30 8675 C 831.159 1.46891 -0.701914 0
M  V30 8676 O 832.348 1.49233 -0.979369 0
M  V30 8677 C 829.448 2.77824 -1.9408 0
M  V30 8678 C 828.621 2.93324 -3.24468 0
M  V30 8679 C 827.68 4.12196 -3.27079 0
M  V30 8680 O 826.706 4.04344 -4.00617 0
M  V30 8681 N 827.908 5.22768 -2.52376 0
M  V30 8682 H 830.673 1.1644 -2.76155 0
M  V30 8683 H 828.234 0.492392 -1.54231 0
M  V30 8684 H 830.226 3.5559 -1.9323 0
M  V30 8685 H 828.796 2.9378 -1.06828 0
M  V30 8686 H 828.016 2.02682 -3.38103 0
M  V30 8687 H 829.304 3.0059 -4.10516 0
M  V30 8688 H 828.702 5.32027 -1.92259 0
M  V30 8689 H 827.259 5.98874 -2.57281 0
M  V30 8690 N 830.692 1.47107 0.565454 0
M  V30 8691 C 831.94 1.53005 1.32038 0
M  V30 8692 C 832.261 0.190453 1.94068 0
M  V30 8693 O 831.531 -0.784783 1.79494 0
M  V30 8694 H 830.111 0.563578 0.490294 0
M  V30 8695 H 832.773 1.83351 0.660928 0
M  V30 8696 H 831.869 2.29215 2.11818 0
M  V30 8697 N 832.17 -0.811516 1.35101 0
M  V30 8698 C 833.419 -1.56343 1.27435 0
M  V30 8699 C 833.732 -1.95019 -0.150696 0
M  V30 8700 O 834.938 -2.6924 -0.349586 0
M  V30 8701 C 833.394 -2.82124 2.23459 0
M  V30 8702 C 833.002 -2.50706 3.71283 0
M  V30 8703 C 834.746 -3.60137 2.24726 0
M  V30 8704 C 832.653 -3.72748 4.59143 0
M  V30 8705 H 831.583 -0.58682 0.473453 0
M  V30 8706 H 834.234 -0.892465 1.60335 0
M  V30 8707 H 832.616 -3.50905 1.83525 0
M  V30 8708 H 833.79 -1.89962 4.19823 0
M  V30 8709 H 832.105 -1.85947 3.72576 0
M  V30 8710 H 834.702 -4.50775 2.87587 0
M  V30 8711 H 835.045 -3.97101 1.24965 0
M  V30 8712 H 835.578 -2.98311 2.63164 0
M  V30 8713 H 832.317 -3.40896 5.59884 0
M  V30 8714 H 831.837 -4.32735 4.15332 0
M  V30 8715 H 833.516 -4.40033 4.74321 0
M  V30 8716 N 833.648 -1.19017 -1.03309 0
M  V30 8717 C 834.558 -0.939303 -2.14975 0
M  V30 8718 C 835.574 0.0992359 -1.73717 0
M  V30 8719 O 836.75 -0.0844362 -2.01223 0
M  V30 8720 C 833.815 -0.476712 -3.43407 0
M  V30 8721 C 832.876 -1.58413 -3.99003 0
M  V30 8722 C 832.109 -1.14352 -5.21305 0
M  V30 8723 O 832.332 -0.00534408 -5.704 0
M  V30 8724 O 831.266 -1.94436 -5.6963 0
M  V30 8725 H 835.092 -1.87386 -2.38998 0
M  V30 8726 H 832.677 -0.972635 -1.13403 0
M  V30 8727 H 834.559 -0.22718 -4.20787 0
M  V30 8728 H 833.234 0.429455 -3.20839 0
M  V30 8729 H 832.141 -1.88777 -3.22977 0
M  V30 8730 H 833.474 -2.4667 -4.25928 0
M  V30 8731 N 835.127 1.22348 -0.993418 0
M  V30 8732 C 836.374 1.9111 -0.669568 0
M  V30 8733 C 836.702 1.77357 0.79843 0
M  V30 8734 O 835.957 1.13675 1.593 0
M  V30 8735 C 836.256 3.42477 -1.02197 0
M  V30 8736 C 835.922 3.7642 -2.48232 0
M  V30 8737 C 834.584 3.85395 -2.88139 0
M  V30 8738 C 836.936 3.9253 -3.42884 0
M  V30 8739 C 834.264 4.07918 -4.21687 0
M  V30 8740 C 836.616 4.16557 -4.76091 0
M  V30 8741 C 835.28 4.23757 -5.15739 0
M  V30 8742 H 834.55 0.699321 -0.245012 0
M  V30 8743 H 837.197 1.45102 -1.2497 0
M  V30 8744 H 835.502 3.90143 -0.359921 0
M  V30 8745 H 837.199 3.93935 -0.74942 0
M  V30 8746 H 833.789 3.70017 -2.16299 0
M  V30 8747 H 837.973 3.84974 -3.13224 0
M  V30 8748 H 833.229 4.11719 -4.51993 0
M  V30 8749 H 837.403 4.27966 -5.4938 0
M  V30 8750 H 835.03 4.40962 -6.19239 0
M  V30 8751 N 836.605 0.766683 1.37694 0
M  V30 8752 C 837.535 0.163432 2.32927 0
M  V30 8753 C 838.516 -0.688861 1.55527 0
M  V30 8754 O 839.701 -0.627363 1.83787 0
M  V30 8755 C 836.831 -0.720416 3.39746 0
M  V30 8756 C 835.785 0.0301718 4.27989 0
M  V30 8757 C 835.111 -0.972788 5.25776 0
M  V30 8758 C 836.411 1.20623 5.0818 0
M  V30 8759 H 838.105 0.958988 2.83626 0
M  V30 8760 H 835.651 0.462601 1.36367 0
M  V30 8761 H 837.604 -1.15221 4.05342 0
M  V30 8762 H 836.328 -1.54844 2.8756 0
M  V30 8763 H 834.987 0.442685 3.63917 0
M  V30 8764 H 834.635 -1.79522 4.69873 0
M  V30 8765 H 834.335 -0.475145 5.85676 0
M  V30 8766 H 835.859 -1.40362 5.94248 0
M  V30 8767 H 837.273 0.851341 5.66944 0
M  V30 8768 H 835.67 1.63561 5.7738 0
M  V30 8769 H 836.74 2.01281 4.41151 0
M  V30 8770 N 838.083 -1.48885 0.516809 0
M  V30 8771 C 839.499 -1.58651 0.173788 0
M  V30 8772 C 839.699 -1.52033 -1.32243 0
M  V30 8773 O 838.755 -1.40251 -2.09967 0
M  V30 8774 C 840.068 -2.90816 0.764628 0
M  V30 8775 C 841.616 -3.04316 0.732164 0
M  V30 8776 C 842.091 -4.39123 1.30135 0
M  V30 8777 N 843.582 -4.45656 1.26273 0
M  V30 8778 C 844.317 -5.48446 1.67317 0
M  V30 8779 N 843.813 -6.58258 2.16028 0
M  V30 8780 N 845.606 -5.39251 1.58635 0
M  V30 8781 H 837.757 -1.5143 1.48939 0
M  V30 8782 H 840.02 -0.718243 0.618733 0
M  V30 8783 H 839.726 -3.01275 1.81456 0
M  V30 8784 H 839.6 -3.76473 0.234113 0
M  V30 8785 H 841.987 -2.93478 -0.308975 0
M  V30 8786 H 842.068 -2.20303 1.3 0
M  V30 8787 H 841.712 -4.50714 2.34135 0
M  V30 8788 H 841.642 -5.21801 0.709305 0
M  V30 8789 H 844.133 -3.66879 0.906006 0
M  V30 8790 H 844.446 -7.32811 2.45374 0
M  V30 8791 H 842.791 -6.59257 2.20013 0
M  V30 8792 H 845.982 -4.52354 1.20387 0
M  V30 8793 H 846.155 -6.19229 1.90944 0
M  V30 8794 N 839.561 -0.251338 -1.55583 0
M  V30 8795 C 840.972 0.25098 -1.85005 0
M  V30 8796 C 841.323 1.57259 -1.17321 0
M  V30 8797 O 840.448 2.11603 -0.453136 0
M  V30 8798 C 841.043 0.462161 -3.35633 0
M  V30 8799 C 839.602 0.908737 -3.65266 0
M  V30 8800 C 838.749 -0.0115418 -2.77298 0
M  V30 8801 H 841.7 -0.473782 -1.51463 0
M  V30 8802 H 841.721 1.30415 -3.57452 0
M  V30 8803 H 841.233 -0.499886 -3.84867 0
M  V30 8804 H 839.334 1.8831 -3.21512 0
M  V30 8805 H 839.447 0.762526 -4.72993 0
M  V30 8806 H 837.811 0.500612 -2.49732 0
M  V30 8807 H 838.594 -0.969042 -3.29339 0
M  V30 8808 N 841.039 1.57585 0.0217189 0
M  V30 8809 C 841.969 2.10073 1.01939 0
M  V30 8810 C 842.95 1.0049 1.37243 0
M  V30 8811 O 844.135 1.28055 1.45999 0
M  V30 8812 C 841.265 2.58618 2.31806 0
M  V30 8813 C 840.219 3.72531 2.10724 0
M  V30 8814 C 839.545 4.07309 3.46415 0
M  V30 8815 C 840.845 5.00672 1.48743 0
M  V30 8816 H 842.539 2.9368 0.582432 0
M  V30 8817 H 840.085 1.41277 0.278715 0
M  V30 8818 H 842.038 2.9396 3.01936 0
M  V30 8819 H 840.762 1.72104 2.77575 0
M  V30 8820 H 839.421 3.37549 1.43025 0
M  V30 8821 H 839.069 3.17851 3.89846 0
M  V30 8822 H 838.769 4.84042 3.33132 0
M  V30 8823 H 840.293 4.45192 4.17895 0
M  V30 8824 H 841.707 5.33925 2.088 0
M  V30 8825 H 840.104 5.82065 1.46013 0
M  V30 8826 H 841.174 4.82769 0.45408 0
M  V30 8827 N 842.517 -0.29412 1.54831 0
M  V30 8828 C 843.464 -1.36296 1.86258 0
M  V30 8829 C 844.434 -1.50061 0.712097 0
M  V30 8830 O 845.619 -1.64809 0.961381 0
M  V30 8831 C 842.759 -2.72187 2.12151 0
M  V30 8832 C 841.872 -2.66816 3.39755 0
M  V30 8833 C 841.007 -3.94747 3.55455 0
M  V30 8834 C 840.046 -3.838 4.76827 0
M  V30 8835 N 839.183 -5.03521 4.89296 0
M  V30 8836 H 844.023 -1.08796 2.7743 0
M  V30 8837 H 841.56 -0.526069 1.37371 0
M  V30 8838 H 843.518 -3.51225 2.25159 0
M  V30 8839 H 842.148 -2.97934 1.24237 0
M  V30 8840 H 841.2 -1.79605 3.3533 0
M  V30 8841 H 842.512 -2.5462 4.28917 0
M  V30 8842 H 841.666 -4.82223 3.68166 0
M  V30 8843 H 840.405 -4.09785 2.64438 0
M  V30 8844 H 839.41 -2.94708 4.64141 0
M  V30 8845 H 840.635 -3.70301 5.69258 0
M  V30 8846 H 838.581 -5.1901 4.01204 0
M  V30 8847 H 838.498 -4.93775 5.72471 0
M  V30 8848 H 839.766 -5.92629 5.06371 0
M  V30 8849 N 843.995 -1.47404 -0.557645 0
M  V30 8850 C 845.223 -1.57622 -1.34026 0
M  V30 8851 C 845.638 -0.226256 -1.87439 0
M  V30 8852 O 844.995 0.78043 -1.64971 0
M  V30 8853 C 845.046 -2.60111 -2.51047 0
M  V30 8854 O 844.767 -3.89866 -1.99841 0
M  V30 8855 C 846.268 -2.80508 -3.43264 0
M  V30 8856 H 843.488 -0.532271 -0.40857 0
M  V30 8857 H 846.032 -1.93019 -0.675555 0
M  V30 8858 H 844.187 -2.27648 -3.13457 0
M  V30 8859 H 844.601 -4.45864 -2.76234 0
M  V30 8860 H 846.075 -3.56084 -4.21792 0
M  V30 8861 H 846.552 -1.88314 -3.9678 0
M  V30 8862 H 847.158 -3.14166 -2.86671 0
M  V30 8863 N 845.473 0.80434 -1.35529 0
M  V30 8864 C 846.701 1.59283 -1.32048 0
M  V30 8865 C 847.116 1.88527 0.101556 0
M  V30 8866 O 846.473 1.48975 1.05417 0
M  V30 8867 C 846.524 2.92276 -2.12737 0
M  V30 8868 O 846.245 2.64299 -3.49396 0
M  V30 8869 C 847.746 3.86631 -2.16867 0
M  V30 8870 H 844.966 0.494523 -0.453528 0
M  V30 8871 H 847.51 0.999415 -1.78415 0
M  V30 8872 H 845.665 3.48125 -1.69964 0
M  V30 8873 H 846.079 3.4923 -3.91329 0
M  V30 8874 H 847.553 4.77053 -2.77712 0
M  V30 8875 H 848.03 4.23384 -1.16803 0
M  V30 8876 H 848.636 3.36717 -2.59811 0
M  V30 8877 N 846.951 1.19563 1.02676 0
M  V30 8878 C 848.179 1.02488 1.79732 0
M  V30 8879 C 848.594 -0.426302 1.83924 0
M  V30 8880 O 847.951 -1.29609 1.28483 0
M  V30 8881 C 848.002 1.58944 3.24683 0
M  V30 8882 O 847.723 2.98382 3.2078 0
M  V30 8883 C 849.224 1.46681 4.1833 0
M  V30 8884 H 846.444 0.361098 0.565552 0
M  V30 8885 H 848.988 1.58426 1.29311 0
M  V30 8886 H 847.143 1.0715 3.72287 0
M  V30 8887 H 847.557 3.24983 4.11687 0
M  V30 8888 H 849.031 1.90959 5.17918 0
M  V30 8889 H 849.508 0.417663 4.3721 0
M  V30 8890 H 850.114 1.97616 3.76601 0
M  V30 8891 N 848.429 -1.21819 0.999893 0
M  V30 8892 C 849.84 -1.72517 0.713775 0
M  V30 8893 C 850.191 -1.80505 -0.768922 0
M  V30 8894 O 849.316 -1.45611 -1.60083 0
M  V30 8895 C 849.911 -3.13321 1.28901 0
M  V30 8896 C 848.47 -3.61396 1.05212 0
M  V30 8897 C 847.617 -2.39074 1.40494 0
M  V30 8898 H 850.568 -1.07068 1.17141 0
M  V30 8899 H 850.589 -3.74535 0.671084 0
M  V30 8900 H 850.101 -3.07475 2.36814 0
M  V30 8901 H 848.202 -3.72599 -0.0100732 0
M  V30 8902 H 848.315 -4.47145 1.72042 0
M  V30 8903 H 846.679 -2.41015 0.823642 0
M  V30 8904 H 847.462 -2.35884 2.49427 0
M  V30 8905 N 849.908 -0.773975 -1.37286 0
M  V30 8906 C 850.838 -0.175782 -2.32837 0
M  V30 8907 C 851.819 0.680603 -1.5589 0
M  V30 8908 O 853.004 0.617607 -1.84117 0
M  V30 8909 C 850.134 0.702388 -3.40123 0
M  V30 8910 C 849.088 -0.0528687 -4.27967 0
M  V30 8911 C 848.414 0.944891 -5.26285 0
M  V30 8912 C 849.714 -1.23316 -5.07534 0
M  V30 8913 H 851.408 -0.974016 -2.83114 0
M  V30 8914 H 848.954 -0.469826 -1.3612 0
M  V30 8915 H 850.907 1.13069 -4.05947 0
M  V30 8916 H 849.631 1.53316 -2.88378 0
M  V30 8917 H 848.29 -0.461978 -3.63678 0
M  V30 8918 H 847.938 1.77028 -4.70819 0
M  V30 8919 H 847.638 0.444079 -5.8592 0
M  V30 8920 H 849.162 1.37209 -5.94984 0
M  V30 8921 H 850.576 -0.881395 -5.66484 0
M  V30 8922 H 848.973 -1.66621 -5.76504 0
M  V30 8923 H 850.043 -2.03617 -4.40077 0
M  V30 8924 N 851.386 1.48609 -0.524698 0
M  V30 8925 C 852.296 2.33318 0.244923 0
M  V30 8926 C 853.312 1.46153 0.944214 0
M  V30 8927 O 854.488 1.79141 0.920347 0
M  V30 8928 C 851.553 3.22149 1.28144 0
M  V30 8929 C 850.614 4.25184 0.593068 0
M  V30 8930 C 849.847 5.0977 1.5802 0
M  V30 8931 O 850.07 4.96249 2.81235 0
M  V30 8932 O 849.004 5.9134 1.1225 0
M  V30 8933 H 852.83 3.00362 -0.449066 0
M  V30 8934 H 850.415 1.46643 -0.285689 0
M  V30 8935 H 852.297 3.77111 1.88057 0
M  V30 8936 H 850.972 2.57772 1.95793 0
M  V30 8937 H 849.879 3.74071 -0.0464214 0
M  V30 8938 H 851.212 4.92183 -0.0413893 0
M  V30 8939 N 852.864 0.259585 1.55447 0
M  V30 8940 C 853.811 -0.634578 2.21905 0
M  V30 8941 C 854.781 -1.16168 1.18719 0
M  V30 8942 O 855.966 -1.21383 1.4721 0
M  V30 8943 C 853.106 -1.82005 2.93203 0
M  V30 8944 C 852.219 -1.32828 4.11073 0
M  V30 8945 C 851.354 -2.47431 4.70055 0
M  V30 8946 C 850.393 -1.95179 5.80148 0
M  V30 8947 N 849.53 -3.03197 6.33258 0
M  V30 8948 H 854.37 -0.0611886 2.97937 0
M  V30 8949 H 851.907 -0.0184378 1.47088 0
M  V30 8950 H 853.865 -2.51664 3.32748 0
M  V30 8951 H 852.495 -2.36571 2.19622 0
M  V30 8952 H 851.547 -0.525301 3.76756 0
M  V30 8953 H 852.859 -0.905435 4.90513 0
M  V30 8954 H 852.013 -3.25111 5.12238 0
M  V30 8955 H 850.752 -2.93023 3.89857 0
M  V30 8956 H 849.757 -1.15974 5.37429 0
M  V30 8957 H 850.982 -1.50541 6.62204 0
M  V30 8958 H 848.928 -3.48199 5.55961 0
M  V30 8959 H 848.845 -2.65282 7.07928 0
M  V30 8960 H 850.113 -3.80898 6.80101 0
M  V30 8961 N 854.342 -1.57594 -0.0133615 0
M  V30 8962 C 855.588 -1.90262 -0.702019 0
M  V30 8963 C 855.921 -0.859219 -1.74158 0
M  V30 8964 O 855.196 0.123778 -1.94106 0
M  V30 8965 C 855.479 -3.3354 -1.35732 0
M  V30 8966 C 855.332 -4.48586 -0.330208 0
M  V30 8967 C 856.651 -3.76004 -2.28712 0
M  V30 8968 H 853.77 -0.691943 -0.253739 0
M  V30 8969 H 856.412 -1.89967 0.0351894 0
M  V30 8970 H 854.562 -3.33921 -1.98567 0
M  V30 8971 H 856.234 -4.6034 0.297433 0
M  V30 8972 H 854.477 -4.32394 0.348926 0
M  V30 8973 H 855.148 -5.45762 -0.827508 0
M  V30 8974 H 857.624 -3.77089 -1.75906 0
M  V30 8975 H 856.5 -4.77032 -2.71535 0
M  V30 8976 H 856.761 -3.09129 -3.16056 0
M  V30 8977 N 855.82 0.285905 -1.54985 0
M  V30 8978 C 857.05 1.03626 -1.78732 0
M  V30 8979 C 857.458 1.80896 -0.554377 0
M  V30 8980 O 856.801 1.77161 0.48578 0
M  V30 8981 C 856.863 2.05185 -2.95193 0
M  V30 8982 C 856.527 1.46973 -4.32722 0
M  V30 8983 C 857.524 0.891986 -5.12191 0
M  V30 8984 C 855.209 1.50081 -4.79355 0
M  V30 8985 C 857.203 0.353078 -6.36421 0
M  V30 8986 C 854.89 0.958037 -6.03544 0
M  V30 8987 C 855.888 0.385157 -6.81913 0
M  V30 8988 O 855.576 -0.149341 -8.03761 0
M  V30 8989 H 855.308 0.312416 -0.599477 0
M  V30 8990 H 857.862 0.326067 -2.02795 0
M  V30 8991 H 856.092 2.79928 -2.66791 0
M  V30 8992 H 857.781 2.66244 -3.0638 0
M  V30 8993 H 858.547 0.860762 -4.77301 0
M  V30 8994 H 854.426 1.9361 -4.18373 0
M  V30 8995 H 857.97 -0.0947181 -6.97536 0
M  V30 8996 H 853.867 0.986458 -6.37918 0
M  V30 8997 H 854.635 -0.0374719 -8.18491 0
M  V30 8998 N 857.298 1.47698 0.54982 0
M  V30 8999 C 858.575 1.45185 1.31075 0
M  V30 9000 C 858.955 0.152768 2.10547 0
M  V30 9001 O 858.303 -0.865706 2.11466 0
M  V30 9002 C 858.513 2.70192 2.20902 0
M  V30 9003 C 859.861 3.1771 2.81683 0
M  V30 9004 O 860.885 2.70971 2.312 0
M  V30 9005 O 859.744 3.98986 3.7346 0
M  V30 9006 H 856.838 0.57892 0.590577 0
M  V30 9007 H 859.384 1.59908 0.568112 0
M  V30 9008 H 858.156 3.56269 1.61828 0
M  V30 9009 H 857.779 2.58091 3.02448 0
M  V30 9010 N 858.776 -0.797141 1.35954 0
M  V30 9011 C 859.706 -1.92387 1.32323 0
M  V30 9012 C 860.687 -1.68967 0.196007 0
M  V30 9013 O 861.872 -1.90193 0.39245 0
M  V30 9014 C 859.002 -3.29286 1.10398 0
M  V30 9015 C 857.956 -3.67212 2.19862 0
M  V30 9016 C 857.282 -5.02377 1.8309 0
M  V30 9017 C 858.582 -3.76602 3.61896 0
M  V30 9018 H 860.276 -1.95683 2.26602 0
M  V30 9019 H 857.822 -0.94007 1.09081 0
M  V30 9020 H 859.775 -4.07721 1.06495 0
M  V30 9021 H 858.499 -3.26358 0.125668 0
M  V30 9022 H 857.158 -2.91069 2.22878 0
M  V30 9023 H 856.806 -4.95961 0.838527 0
M  V30 9024 H 856.506 -5.28722 2.56372 0
M  V30 9025 H 858.03 -5.8324 1.80729 0
M  V30 9026 H 859.444 -4.45246 3.6115 0
M  V30 9027 H 857.841 -4.14425 4.34018 0
M  V30 9028 H 858.911 -2.77906 3.97361 0
M  V30 9029 N 860.254 -1.20106 -1.0204 0
M  V30 9030 C 861.5 -1.01039 -1.75838 0
M  V30 9031 C 861.833 0.456819 -1.88751 0
M  V30 9032 O 861.108 1.33919 -1.41053 0
M  V30 9033 C 861.391 -1.69009 -3.17975 0
M  V30 9034 C 861.244 -3.2315 -3.1288 0
M  V30 9035 C 862.563 -1.42005 -4.16561 0
M  V30 9036 H 859.682 -0.368465 -0.638281 0
M  V30 9037 H 862.324 -1.48066 -1.19064 0
M  V30 9038 H 860.474 -1.29026 -3.66449 0
M  V30 9039 H 862.146 -3.72402 -2.72239 0
M  V30 9040 H 860.389 -3.54253 -2.50374 0
M  V30 9041 H 861.06 -3.65862 -4.13339 0
M  V30 9042 H 863.536 -1.76685 -3.76725 0
M  V30 9043 H 862.412 -1.92101 -5.14187 0
M  V30 9044 H 862.673 -0.346884 -4.40737 0
M  V30 9045 N 861.732 1.21287 -1.00634 0
M  V30 9046 C 863.148 1.42467 -0.719389 0
M  V30 9047 C 863.348 1.88767 0.704927 0
M  V30 9048 O 862.404 2.05004 1.47409 0
M  V30 9049 C 863.717 2.455 -1.73639 0
M  V30 9050 C 865.265 2.59281 -1.75335 0
M  V30 9051 C 865.74 3.65547 -2.75934 0
M  V30 9052 N 867.231 3.73019 -2.74611 0
M  V30 9053 C 867.966 4.54873 -3.4911 0
M  V30 9054 N 867.462 5.40614 -4.33253 0
M  V30 9055 N 869.255 4.49309 -3.37754 0
M  V30 9056 H 861.406 0.895454 -1.92602 0
M  V30 9057 H 863.669 0.455491 -0.831404 0
M  V30 9058 H 863.375 2.18455 -2.75627 0
M  V30 9059 H 863.249 3.44325 -1.54014 0
M  V30 9060 H 865.636 2.85661 -0.740377 0
M  V30 9061 H 865.717 1.60685 -1.99032 0
M  V30 9062 H 865.361 3.39911 -3.77389 0
M  V30 9063 H 865.291 4.63741 -2.49503 0
M  V30 9064 H 867.782 3.11766 -2.13565 0
M  V30 9065 H 868.095 6.0013 -4.86892 0
M  V30 9066 H 866.44 5.40151 -4.37335 0
M  V30 9067 H 869.631 3.81357 -2.71449 0
M  V30 9068 H 869.804 5.12867 -3.9607 0
M  V30 9069 N 863.21 0.781244 1.36873 0
M  V30 9070 C 864.435 0.360398 2.04245 0
M  V30 9071 C 864.86 -1.01242 1.58529 0
M  V30 9072 O 864.218 -1.65063 0.749936 0
M  V30 9073 C 864.266 0.42329 3.58107 0
M  V30 9074 O 863.37 -0.572796 4.08403 0
M  V30 9075 H 862.711 0.154386 0.645803 0
M  V30 9076 H 865.241 1.06008 1.74996 0
M  V30 9077 H 865.251 0.283967 4.07011 0
M  V30 9078 H 863.926 1.42477 3.90734 0
M  V30 9079 H 862.503 -0.395809 3.70793 0
M  V30 9080 N 864.689 -1.48329 0.532571 0
M  V30 9081 C 865.935 -2.028 -0.000583219 0
M  V30 9082 C 866.268 -1.40858 -1.33688 0
M  V30 9083 O 865.543 -0.555261 -1.86406 0
M  V30 9084 C 865.826 -3.59901 -0.119846 0
M  V30 9085 C 865.679 -4.32318 1.2418 0
M  V30 9086 C 866.998 -4.31904 -0.845372 0
M  V30 9087 H 864.117 -0.736999 0.00126205 0
M  V30 9088 H 866.759 -1.77024 0.690102 0
M  V30 9089 H 864.909 -3.81993 -0.708092 0
M  V30 9090 H 866.581 -4.21637 1.87136 0
M  V30 9091 H 864.824 -3.93635 1.82301 0
M  V30 9092 H 865.495 -5.40697 1.11132 0
M  V30 9093 H 867.971 -4.14658 -0.346159 0
M  V30 9094 H 866.847 -5.41509 -0.897723 0
M  V30 9095 H 867.108 -3.99369 -1.89622 0
M  V30 9096 N 866.167 -0.267825 -1.55308 0
M  V30 9097 C 867.413 0.351556 -1.9973 0
M  V30 9098 C 867.746 1.56049 -1.15596 0
M  V30 9099 O 867.021 1.93203 -0.224274 0
M  V30 9100 C 867.304 0.74091 -3.52395 0
M  V30 9101 C 867.157 -0.474861 -4.47286 0
M  V30 9102 C 868.476 1.5801 -4.10756 0
M  V30 9103 H 865.595 0.126308 -0.726096 0
M  V30 9104 H 868.237 -0.373316 -1.86296 0
M  V30 9105 H 866.387 1.35851 -3.63973 0
M  V30 9106 H 868.059 -1.1134 -4.47662 0
M  V30 9107 H 866.302 -1.11425 -4.19246 0
M  V30 9108 H 866.973 -0.158782 -5.51772 0
M  V30 9109 H 869.449 1.05857 -4.0241 0
M  V30 9110 H 868.325 1.82135 -5.17801 0
M  V30 9111 H 868.586 2.55878 -3.60526 0
M  V30 9112 N 867.645 1.57599 0.00500368 0
M  V30 9113 C 869.061 1.55463 0.361015 0
M  V30 9114 C 869.261 0.997051 1.75103 0
M  V30 9115 O 868.317 0.628661 2.44549 0
M  V30 9116 C 869.63 2.99734 0.240828 0
M  V30 9117 C 871.178 3.11399 0.316138 0
M  V30 9118 C 871.653 4.57446 0.22513 0
M  V30 9119 N 873.144 4.62334 0.283186 0
M  V30 9120 C 873.879 5.72914 0.23603 0
M  V30 9121 N 873.375 6.92659 0.139762 0
M  V30 9122 N 875.168 5.61364 0.287529 0
M  V30 9123 H 867.319 1.92185 -0.904359 0
M  V30 9124 H 869.582 0.882529 -0.34619 0
M  V30 9125 H 869.288 3.44348 -0.715343 0
M  V30 9126 H 869.162 3.63009 1.02491 0
M  V30 9127 H 871.549 2.66718 1.26275 0
M  V30 9128 H 871.63 2.50911 -0.497725 0
M  V30 9129 H 871.274 5.02801 -0.717917 0
M  V30 9130 H 871.204 5.15874 1.05742 0
M  V30 9131 H 873.695 3.7619 0.359123 0
M  V30 9132 H 874.008 7.72722 0.10954 0
M  V30 9133 H 872.353 6.9492 0.105462 0
M  V30 9134 H 875.544 4.66707 0.360897 0
M  V30 9135 H 875.717 6.47528 0.247313 0
M  V30 9136 N 869.123 -0.277682 1.55134 0
M  V30 9137 C 870.534 -0.849063 1.66276 0
M  V30 9138 C 870.885 -1.87223 0.5867 0
M  V30 9139 O 870.01 -2.14676 -0.272635 0
M  V30 9140 C 870.605 -1.54681 3.01429 0
M  V30 9141 C 869.164 -2.06628 3.14614 0
M  V30 9142 C 868.311 -0.906748 2.62056 0
M  V30 9143 H 871.262 -0.0541357 1.58608 0
M  V30 9144 H 871.283 -2.41356 2.94156 0
M  V30 9145 H 870.795 -0.80189 3.79725 0
M  V30 9146 H 868.896 -2.84095 2.41082 0
M  V30 9147 H 869.009 -2.2848 4.2111 0
M  V30 9148 H 867.373 -1.29882 2.19095 0
M  V30 9149 H 868.156 -0.175414 3.42852 0
M  V30 9150 N 870.601 -1.47988 -0.541979 0
M  V30 9151 C 871.847 -1.56604 -1.29795 0
M  V30 9152 C 872.202 -0.231728 -1.90999 0
M  V30 9153 O 871.495 0.764203 -1.757 0
M  V30 9154 C 871.689 -2.63189 -2.41798 0
M  V30 9155 C 871.518 -4.06855 -1.9157 0
M  V30 9156 C 870.288 -4.74132 -1.74719 0
M  V30 9157 C 872.486 -4.934 -1.45123 0
M  V30 9158 N 870.468 -6.02258 -1.18991 0
M  V30 9159 C 871.839 -6.11675 -1.01263 0
M  V30 9160 C 873.894 -4.7972 -1.33315 0
M  V30 9161 C 872.597 -7.17778 -0.467663 0
M  V30 9162 C 874.623 -5.85934 -0.802192 0
M  V30 9163 C 873.985 -7.03409 -0.373595 0
M  V30 9164 H 870.084 -0.627677 -0.466418 0
M  V30 9165 H 872.668 -1.84812 -0.612576 0
M  V30 9166 H 870.839 -2.36823 -3.07846 0
M  V30 9167 H 872.571 -2.6156 -3.08818 0
M  V30 9168 H 869.326 -4.30276 -1.97887 0
M  V30 9169 H 869.75 -6.70558 -0.931715 0
M  V30 9170 H 874.392 -3.89249 -1.6506 0
M  V30 9171 H 872.11 -8.07982 -0.137874 0
M  V30 9172 H 875.696 -5.774 -0.714171 0
M  V30 9173 H 874.576 -7.84194 0.0308796 0
M  V30 9174 N 872.079 0.78992 -1.36375 0
M  V30 9175 C 873.328 1.54296 -1.29906 0
M  V30 9176 C 873.641 1.95234 0.119651 0
M  V30 9177 O 874.847 2.69762 0.306708 0
M  V30 9178 C 873.303 2.78533 -2.27919 0
M  V30 9179 C 872.911 2.44767 -3.75224 0
M  V30 9180 C 874.655 3.56516 -2.30427 0
M  V30 9181 C 872.562 3.65397 -4.65015 0
M  V30 9182 H 871.492 0.579214 -0.482729 0
M  V30 9183 H 874.143 0.866845 -1.61735 0
M  V30 9184 H 872.525 3.47941 -1.89084 0
M  V30 9185 H 873.699 1.83259 -4.22792 0
M  V30 9186 H 872.014 1.79996 -3.75487 0
M  V30 9187 H 874.611 4.46143 -2.94722 0
M  V30 9188 H 874.954 3.95063 -1.31266 0
M  V30 9189 H 875.487 2.94087 -2.67876 0
M  V30 9190 H 872.226 3.31946 -5.65236 0
M  V30 9191 H 871.746 4.26072 -4.22164 0
M  V30 9192 H 873.425 4.32431 -4.81261 0
M  V30 9193 N 873.557 1.20646 1.01402 0
M  V30 9194 C 874.504 0.957618 2.09996 0
M  V30 9195 C 875.474 -0.113115 1.65714 0
M  V30 9196 O 876.659 0.032142 1.90773 0
M  V30 9197 C 873.799 0.5186 3.41181 0
M  V30 9198 C 872.912 1.65777 3.98926 0
M  V30 9199 C 872.047 1.16881 5.18182 0
M  V30 9200 C 871.086 2.2809 5.68015 0
M  V30 9201 N 870.223 1.80392 6.7853 0
M  V30 9202 H 875.063 1.88732 2.30617 0
M  V30 9203 H 872.6 0.940703 1.13089 0
M  V30 9204 H 874.558 0.245367 4.16478 0
M  V30 9205 H 873.188 -0.3741 3.20625 0
M  V30 9206 H 872.24 2.04586 3.207 0
M  V30 9207 H 873.552 2.49507 4.31912 0
M  V30 9208 H 872.706 0.851694 6.00692 0
M  V30 9209 H 871.445 0.301434 4.86768 0
M  V30 9210 H 870.45 2.60614 4.84108 0
M  V30 9211 H 871.675 3.15308 6.01463 0
M  V30 9212 H 869.621 0.959856 6.4894 0
M  V30 9213 H 869.538 2.57701 7.10722 0
M  V30 9214 H 870.806 1.51688 7.64598 0
M  V30 9215 N 875.035 -1.20752 1.01276 0
M  V30 9216 C 876.312 -1.85676 0.615112 0
M  V30 9217 C 876.692 -1.90623 -0.906976 0
M  V30 9218 O 876.04 -1.41124 -1.79712 0
M  V30 9219 C 876.25 -3.2552 1.25847 0
M  V30 9220 C 877.598 -4.0184 1.37148 0
M  V30 9221 O 878.622 -3.3486 1.21438 0
M  V30 9222 O 877.481 -5.21783 1.62495 0
M  V30 9223 H 874.575 -0.799437 0.211729 0
M  V30 9224 H 877.121 -1.28372 1.10989 0
M  V30 9225 H 875.893 -3.16664 2.29869 0
M  V30 9226 H 875.516 -3.90452 0.750524 0
M  V30 9227 N 876.513 -0.788492 -1.36457 0
M  V30 9228 C 877.929 -0.470063 -1.52521 0
M  V30 9229 C 878.129 1.01176 -1.74258 0
M  V30 9230 O 877.185 1.79726 -1.77355 0
M  V30 9231 C 878.498 -1.2997 -2.71161 0
M  V30 9232 C 880.046 -1.2933 -2.85031 0
M  V30 9233 C 880.521 -2.10665 -4.06674 0
M  V30 9234 N 882.012 -2.08107 -4.13819 0
M  V30 9235 C 882.747 -2.6781 -5.07016 0
M  V30 9236 N 882.243 -3.36369 -6.05663 0
M  V30 9237 N 884.036 -2.57549 -4.99625 0
M  V30 9238 H 876.187 -1.7484 -1.20602 0
M  V30 9239 H 878.45 -0.743159 -0.588574 0
M  V30 9240 H 878.156 -2.35051 -2.61618 0
M  V30 9241 H 878.03 -0.940367 -3.6529 0
M  V30 9242 H 880.417 -0.250414 -2.94036 0
M  V30 9243 H 880.498 -1.69239 -1.91812 0
M  V30 9244 H 880.142 -3.14984 -3.98431 0
M  V30 9245 H 880.072 -1.68128 -4.9904 0
M  V30 9246 H 882.563 -1.58208 -3.43189 0
M  V30 9247 H 882.876 -3.79258 -6.73338 0
M  V30 9248 H 881.221 -3.40471 -6.05891 0
M  V30 9249 H 884.412 -2.0359 -4.21508 0
M  V30 9250 H 884.585 -3.0437 -5.72069 0
M  V30 9251 N 877.991 1.48044 -0.54043 0
M  V30 9252 C 879.238 2.02497 -0.0101567 0
M  V30 9253 C 879.566 1.41651 1.33286 0
M  V30 9254 O 878.821 0.555504 1.8765 0
M  V30 9255 C 879.12 3.57085 0.150008 0
M  V30 9256 C 878.786 4.36769 -1.11998 0
M  V30 9257 C 877.448 4.58261 -1.46801 0
M  V30 9258 C 879.8 4.82848 -1.96232 0
M  V30 9259 C 877.128 5.23079 -2.65717 0
M  V30 9260 C 879.48 5.48977 -3.14335 0
M  V30 9261 C 878.144 5.68705 -3.49472 0
M  V30 9262 H 877.414 0.740991 -0.00371661 0
M  V30 9263 H 880.061 1.77909 -0.708562 0
M  V30 9264 H 878.366 3.80572 0.931259 0
M  V30 9265 H 880.063 3.96851 0.575384 0
M  V30 9266 H 876.653 4.20309 -0.838957 0
M  V30 9267 H 880.837 4.66038 -1.70654 0
M  V30 9268 H 876.093 5.36549 -2.93129 0
M  V30 9269 H 880.267 5.83649 -3.79904 0
M  V30 9270 H 877.894 6.18703 -4.41713 0
M  V30 9271 N 879.47 0.276058 1.55163 0
M  V30 9272 C 880.403 -0.652386 2.18676 0
M  V30 9273 C 881.381 -1.15151 1.148 0
M  V30 9274 O 882.565 -1.22431 1.43328 0
M  V30 9275 C 879.692 -1.88982 2.81076 0
M  V30 9276 C 878.738 -1.52609 3.98262 0
M  V30 9277 S 879.571 -0.603445 5.32089 0
M  V30 9278 C 880.727 -1.84923 5.97958 0
M  V30 9279 H 880.96 -0.112733 2.97086 0
M  V30 9280 H 878.493 0.0603118 1.54282 0
M  V30 9281 H 880.451 -2.60007 3.17658 0
M  V30 9282 H 879.112 -2.40061 2.02557 0
M  V30 9283 H 878.305 -2.44689 4.40617 0
M  V30 9284 H 877.907 -0.89601 3.63108 0
M  V30 9285 H 880.199 -2.79303 6.17249 0
M  V30 9286 H 881.142 -1.46868 6.92702 0
M  V30 9287 H 881.55 -2.0146 5.27327 0
M  V30 9288 N 880.948 -1.576 0.00335426 0
M  V30 9289 C 881.911 -2.07576 -0.971838 0
M  V30 9290 C 882.911 -0.985796 -1.27038 0
M  V30 9291 O 884.101 -1.24833 -1.21501 0
M  V30 9292 C 881.233 -2.52003 -2.29581 0
M  V30 9293 H 882.426 -2.95008 -0.539481 0
M  V30 9294 H 879.979 -1.54381 -0.244186 0
M  V30 9295 H 880.714 -1.67825 -2.77498 0
M  V30 9296 H 880.499 -3.31609 -2.09231 0
M  V30 9297 H 881.989 -2.90983 -2.99531 0
M  V30 9298 N 882.426 0.269451 -1.5528 0
M  V30 9299 C 883.837 0.840233 -1.66724 0
M  V30 9300 C 884.188 1.86909 -0.596621 0
M  V30 9301 O 883.313 2.14817 0.261246 0
M  V30 9302 C 883.908 1.5308 -3.02245 0
M  V30 9303 C 882.467 2.04957 -3.15705 0
M  V30 9304 C 881.614 0.892838 -2.62533 0
M  V30 9305 H 884.565 0.0457236 -1.58634 0
M  V30 9306 H 884.586 2.39792 -2.95432 0
M  V30 9307 H 884.098 0.781741 -3.80145 0
M  V30 9308 H 882.199 2.82813 -2.42585 0
M  V30 9309 H 882.312 2.26244 -4.22316 0
M  V30 9310 H 880.676 1.28719 -2.19781 0
M  V30 9311 H 881.459 0.157229 -3.4294 0
M  V30 9312 N 883.904 1.48273 0.534124 0
M  V30 9313 C 885.181 1.46567 1.29528 0
M  V30 9314 C 885.561 0.17509 2.10373 0
M  V30 9315 O 884.909 -0.843228 2.12372 0
M  V30 9316 C 885.119 2.72519 2.18023 0
M  V30 9317 C 886.467 3.2068 2.78298 0
M  V30 9318 O 887.491 2.73408 2.28313 0
M  V30 9319 O 886.35 4.02924 3.69208 0
M  V30 9320 H 883.444 0.585151 0.584403 0
M  V30 9321 H 885.99 1.60502 0.551119 0
M  V30 9322 H 884.762 3.57965 1.5804 0
M  V30 9323 H 884.385 2.61285 2.99693 0
M  V30 9324 N 885.382 -0.782676 1.36792 0
M  V30 9325 C 886.631 -1.53605 1.30723 0
M  V30 9326 C 886.944 -1.95294 -0.109296 0
M  V30 9327 O 888.15 -2.69921 -0.292398 0
M  V30 9328 C 886.606 -2.77321 2.29393 0
M  V30 9329 C 886.214 -2.42774 3.76517 0
M  V30 9330 C 887.958 -3.55289 2.32314 0
M  V30 9331 C 885.865 -3.62926 4.66947 0
M  V30 9332 H 884.795 -0.576646 0.485794 0
M  V30 9333 H 887.446 -0.858255 1.62192 0
M  V30 9334 H 885.828 -3.46934 1.90927 0
M  V30 9335 H 887.002 -1.81014 4.23758 0
M  V30 9336 H 885.317 -1.78002 3.76436 0
M  V30 9337 H 887.914 -4.44573 2.97083 0
M  V30 9338 H 888.257 -3.94361 1.3336 0
M  V30 9339 H 888.79 -2.92662 2.69432 0
M  V30 9340 H 885.529 -3.28944 5.66989 0
M  V30 9341 H 885.049 -4.23828 4.24418 0
M  V30 9342 H 886.728 -4.29873 4.83548 0
M  V30 9343 N 886.86 -1.21182 -1.00761 0
M  V30 9344 C 887.77 -0.984691 -2.12934 0
M  V30 9345 C 888.786 0.0623657 -1.73888 0
M  V30 9346 O 889.962 -0.1271 -2.00999 0
M  V30 9347 C 887.027 -0.549447 -3.42319 0
M  V30 9348 C 886.088 -1.66841 -3.95553 0
M  V30 9349 C 885.321 -1.25384 -5.18763 0
M  V30 9350 O 885.544 -0.126333 -5.7026 0
M  V30 9351 O 884.478 -2.06475 -5.65377 0
M  V30 9352 H 888.304 -1.92413 -2.3497 0
M  V30 9353 H 885.889 -0.99647 -1.11314 0
M  V30 9354 H 887.771 -0.316384 -4.20211 0
M  V30 9355 H 886.446 0.361304 -3.21677 0
M  V30 9356 H 885.353 -1.95585 -3.189 0
M  V30 9357 H 886.686 -2.55649 -4.206 0
M  V30 9358 N 888.338 1.20213 -1.01915 0
M  V30 9359 C 889.301 2.21307 -0.596327 0
M  V30 9360 C 890.301 1.57274 0.334879 0
M  V30 9361 O 891.491 1.73764 0.12322 0
M  V30 9362 C 888.623 3.40657 0.128808 0
M  V30 9363 H 889.816 2.60228 -1.49068 0
M  V30 9364 H 887.369 1.33721 -0.809226 0
M  V30 9365 H 888.104 3.07241 1.03796 0
M  V30 9366 H 887.889 3.88361 -0.540183 0
M  V30 9367 H 889.379 4.15564 0.411892 0
M  V30 9368 N 889.816 0.795718 1.36037 0
M  V30 9369 C 890.779 0.204318 2.28287 0
M  V30 9370 C 891.779 -0.602017 1.49105 0
M  V30 9371 O 892.969 -0.422089 1.69009 0
M  V30 9372 C 890.101 -0.716431 3.33287 0
M  V30 9373 H 891.294 1.01781 2.821 0
M  V30 9374 H 888.847 0.565588 1.45708 0
M  V30 9375 H 889.582 -1.55403 2.84641 0
M  V30 9376 H 889.367 -0.140096 3.9185 0
M  V30 9377 H 890.857 -1.12488 4.02164 0
M  V30 9378 N 891.294 -1.47756 0.548274 0
M  V30 9379 C 892.244 -2.26891 -0.224628 0
M  V30 9380 C 893.228 -1.33816 -0.893421 0
M  V30 9381 O 894.42 -1.58232 -0.793204 0
M  V30 9382 C 891.549 -3.19358 -1.25959 0
M  V30 9383 C 890.635 -4.1991 -0.594662 0
M  V30 9384 N 891.026 -5.04721 0.330148 0
M  V30 9385 C 889.324 -4.37832 -0.849672 0
M  V30 9386 C 890.025 -5.77282 0.71553 0
M  V30 9387 N 889.001 -5.43552 0.0723997 0
M  V30 9388 H 892.803 -2.89844 0.486561 0
M  V30 9389 H 890.317 -1.58185 0.367577 0
M  V30 9390 H 892.314 -3.74726 -1.82718 0
M  V30 9391 H 890.974 -2.57961 -1.97196 0
M  V30 9392 H 891.985 -5.13095 0.703811 0
M  V30 9393 H 888.662 -3.87612 -1.55123 0
M  V30 9394 H 890.052 -6.55512 1.47493 0
M  V30 9395 N 892.772 -0.284283 -1.55015 0
M  V30 9396 C 894.188 0.069603 -1.59448 0
M  V30 9397 C 894.388 1.53833 -1.30144 0
M  V30 9398 O 893.444 2.2886 -1.06674 0
M  V30 9399 C 894.757 -0.313287 -2.99064 0
M  V30 9400 C 896.305 -0.260662 -3.11913 0
M  V30 9401 C 896.78 -0.618127 -4.5381 0
M  V30 9402 N 898.271 -0.570026 -4.59679 0
M  V30 9403 C 899.006 -0.8193 -5.67517 0
M  V30 9404 N 898.502 -1.13367 -6.83462 0
M  V30 9405 N 900.295 -0.747482 -5.57108 0
M  V30 9406 H 892.446 -1.24167 -1.72326 0
M  V30 9407 H 894.709 -0.502259 -0.804015 0
M  V30 9408 H 894.415 -1.33509 -3.25374 0
M  V30 9409 H 894.289 0.341369 -3.75652 0
M  V30 9410 H 896.676 0.751869 -2.85361 0
M  V30 9411 H 896.757 -0.949706 -2.37517 0
M  V30 9412 H 896.401 -1.62839 -4.81088 0
M  V30 9413 H 896.331 0.092807 -5.26518 0
M  V30 9414 H 898.822 -0.3373 -3.76392 0
M  V30 9415 H 899.135 -1.3103 -7.61611 0
M  V30 9416 H 897.48 -1.17154 -6.85055 0
M  V30 9417 H 900.671 -0.501658 -4.65404 0
M  V30 9418 H 900.844 -0.945128 -6.4107 0
M  V30 9419 N 894.251 1.57596 -0.0117121 0
M  V30 9420 C 895.181 2.12188 0.9746 0
M  V30 9421 C 896.162 1.03379 1.35081 0
M  V30 9422 O 897.347 1.31123 1.4325 0
M  V30 9423 C 894.477 2.63477 2.26268 0
M  V30 9424 C 893.431 3.76917 2.02774 0
M  V30 9425 C 892.757 4.14566 3.37697 0
M  V30 9426 C 894.057 5.03715 1.38089 0
M  V30 9427 H 895.751 2.9485 0.520007 0
M  V30 9428 H 893.297 1.41836 0.248685 0
M  V30 9429 H 895.25 3.00299 2.95633 0
M  V30 9430 H 893.974 1.77953 2.73862 0
M  V30 9431 H 892.633 3.40507 1.35832 0
M  V30 9432 H 892.281 3.26048 3.83016 0
M  V30 9433 H 891.981 4.91 3.22789 0
M  V30 9434 H 893.505 4.53956 4.08358 0
M  V30 9435 H 894.919 5.38233 1.97428 0
M  V30 9436 H 893.316 5.85032 1.33634 0
M  V30 9437 H 894.386 4.83624 0.351575 0
M  V30 9438 N 895.729 -0.261212 1.5542 0
M  V30 9439 C 896.659 -1.32712 1.92119 0
M  V30 9440 C 897.64 -1.50934 0.784406 0
M  V30 9441 O 898.825 -1.63781 1.04352 0
M  V30 9442 C 895.955 -2.68453 2.20341 0
M  V30 9443 C 894.909 -2.64947 3.36136 0
M  V30 9444 C 894.235 -4.04349 3.49865 0
M  V30 9445 C 895.535 -2.23182 4.72215 0
M  V30 9446 H 897.229 -1.02245 2.81401 0
M  V30 9447 H 894.775 -0.490406 1.35392 0
M  V30 9448 H 896.728 -3.43144 2.44603 0
M  V30 9449 H 895.452 -3.00527 1.27871 0
M  V30 9450 H 894.111 -1.92714 3.11861 0
M  V30 9451 H 893.759 -4.33665 2.5484 0
M  V30 9452 H 893.459 -4.02895 4.27726 0
M  V30 9453 H 894.983 -4.80761 3.76432 0
M  V30 9454 H 896.397 -2.87599 4.95943 0
M  V30 9455 H 894.794 -2.32867 5.53076 0
M  V30 9456 H 895.864 -1.18327 4.70241 0
M  V30 9457 N 897.207 -1.48554 -0.526253 0
M  V30 9458 C 898.137 -1.66252 -1.63959 0
M  V30 9459 C 899.118 -0.511351 -1.62232 0
M  V30 9460 O 900.303 -0.744322 -1.7937 0
M  V30 9461 C 897.433 -1.70556 -3.02536 0
M  V30 9462 C 896.387 -2.8521 -3.19123 0
M  V30 9463 C 895.713 -2.74606 -4.58798 0
M  V30 9464 C 897.013 -4.26463 -3.0154 0
M  V30 9465 H 898.707 -2.59459 -1.49404 0
M  V30 9466 H 896.253 -1.24862 -0.717326 0
M  V30 9467 H 898.206 -1.81524 -3.80298 0
M  V30 9468 H 896.93 -0.739297 -3.18123 0
M  V30 9469 H 895.589 -2.73802 -2.43779 0
M  V30 9470 H 895.237 -1.75941 -4.71226 0
M  V30 9471 H 894.937 -3.51544 -4.70841 0
M  V30 9472 H 896.461 -2.87548 -5.38655 0
M  V30 9473 H 897.875 -4.38685 -3.69091 0
M  V30 9474 H 896.272 -5.04428 -3.25073 0
M  V30 9475 H 897.342 -4.42667 -1.97925 0
M  V30 9476 N 898.685 0.775411 -1.37205 0
M  V30 9477 C 899.595 1.91967 -1.34855 0
M  V30 9478 C 900.611 1.72214 -0.248656 0
M  V30 9479 O 901.787 1.95512 -0.483421 0
M  V30 9480 C 898.852 3.27038 -1.15096 0
M  V30 9481 C 897.913 3.5947 -2.34691 0
M  V30 9482 C 897.146 4.88097 -2.15865 0
M  V30 9483 O 897.369 5.58871 -1.14102 0
M  V30 9484 O 896.303 5.19507 -3.03967 0
M  V30 9485 H 900.129 1.969 -2.31223 0
M  V30 9486 H 897.714 0.917647 -1.17897 0
M  V30 9487 H 899.596 4.07837 -1.0605 0
M  V30 9488 H 898.271 3.22965 -0.217999 0
M  V30 9489 H 897.178 2.7892 -2.49308 0
M  V30 9490 H 898.511 3.68282 -3.26541 0
M  V30 9491 N 900.163 1.21714 1.00117 0
M  V30 9492 C 901.095 0.937627 2.09144 0
M  V30 9493 C 902.108 -0.0806291 1.626 0
M  V30 9494 O 903.297 0.152348 1.77849 0
M  V30 9495 C 900.397 0.387036 3.36683 0
M  V30 9496 C 899.57 1.46054 4.12295 0
M  V30 9497 C 898.629 0.918505 5.18122 0
M  V30 9498 O 897.655 1.60282 5.46167 0
M  V30 9499 N 898.857 -0.264308 5.79898 0
M  V30 9500 H 901.622 1.87622 2.33705 0
M  V30 9501 H 899.183 1.12291 1.16629 0
M  V30 9502 H 901.175 0.00992825 4.04699 0
M  V30 9503 H 899.745 -0.456467 3.09249 0
M  V30 9504 H 898.965 2.01133 3.39027 0
M  V30 9505 H 900.253 2.18306 4.59587 0
M  V30 9506 H 899.651 -0.837242 5.5947 0
M  V30 9507 H 898.208 -0.582886 6.49188 0
M  V30 9508 N 901.641 -1.19671 1.02551 0
M  V30 9509 C 902.588 -2.22773 0.603394 0
M  V30 9510 C 903.558 -1.61669 -0.381081 0
M  V30 9511 O 904.743 -1.88756 -0.278505 0
M  V30 9512 C 901.883 -3.45073 -0.0431034 0
M  V30 9513 C 900.996 -4.20574 0.987006 0
M  V30 9514 C 900.131 -5.30291 0.310626 0
M  V30 9515 C 899.17 -5.97545 1.32688 0
M  V30 9516 N 898.307 -6.98833 0.676542 0
M  V30 9517 H 903.147 -2.58238 1.48719 0
M  V30 9518 H 900.684 -1.26881 0.744286 0
M  V30 9519 H 902.642 -4.14925 -0.435141 0
M  V30 9520 H 901.272 -3.10274 -0.890495 0
M  V30 9521 H 900.324 -3.497 1.49713 0
M  V30 9522 H 901.636 -4.66736 1.75952 0
M  V30 9523 H 900.79 -6.06547 -0.136438 0
M  V30 9524 H 899.529 -4.8519 -0.49412 0
M  V30 9525 H 898.534 -5.20043 1.78424 0
M  V30 9526 H 899.759 -6.4473 2.13306 0
M  V30 9527 H 897.705 -6.55911 -0.108172 0
M  V30 9528 H 897.622 -7.43168 1.38699 0
M  V30 9529 H 898.89 -7.79088 0.253367 0
M  V30 9530 N 903.119 -0.802921 -1.35613 0
M  V30 9531 C 904.365 -0.382141 -1.99167 0
M  V30 9532 C 904.698 1.04704 -1.63556 0
M  V30 9533 O 903.973 1.72578 -0.89706 0
M  V30 9534 C 904.256 -0.561493 -3.55695 0
M  V30 9535 C 904.109 -2.03534 -4.01116 0
M  V30 9536 C 905.428 0.0151135 -4.40097 0
M  V30 9537 H 902.547 -0.140322 -0.723518 0
M  V30 9538 H 905.189 -1.01177 -1.6082 0
M  V30 9539 H 903.339 -0.0255083 -3.88492 0
M  V30 9540 H 905.011 -2.63343 -3.78746 0
M  V30 9541 H 903.254 -2.5331 -3.52159 0
M  V30 9542 H 903.925 -2.11173 -5.1001 0
M  V30 9543 H 906.401 -0.442582 -4.1374 0
M  V30 9544 H 905.277 -0.140316 -5.48721 0
M  V30 9545 H 905.538 1.10848 -4.27978 0
M  V30 9546 N 904.597 1.47463 -0.556102 0
M  V30 9547 C 905.843 2.03361 -0.039909 0
M  V30 9548 C 906.198 1.42292 1.29502 0
M  V30 9549 O 905.491 0.568813 1.82962 0
M  V30 9550 C 905.685 3.57224 0.112126 0
M  V30 9551 C 905.514 4.33213 -1.20652 0
M  V30 9552 C 904.284 4.73153 -1.77352 0
M  V30 9553 C 906.482 4.68415 -2.12348 0
M  V30 9554 N 904.464 5.33781 -3.03233 0
M  V30 9555 C 905.835 5.29334 -3.22808 0
M  V30 9556 C 907.89 4.50344 -2.12356 0
M  V30 9557 C 906.593 5.7409 -4.33374 0
M  V30 9558 C 908.619 4.96098 -3.21933 0
M  V30 9559 C 907.981 5.57065 -4.31112 0
M  V30 9560 H 904.08 0.779939 -0.0567407 0
M  V30 9561 H 906.664 1.79959 -0.743147 0
M  V30 9562 H 904.835 3.80395 0.784485 0
M  V30 9563 H 906.567 3.99762 0.630285 0
M  V30 9564 H 903.322 4.55074 -1.31165 0
M  V30 9565 H 903.746 5.6864 -3.67393 0
M  V30 9566 H 908.388 4.02566 -1.29229 0
M  V30 9567 H 906.106 6.2086 -5.17261 0
M  V30 9568 H 909.692 4.83887 -3.23024 0
M  V30 9569 H 908.572 5.91824 -5.14504 0
M  V30 9570 N 906.075 0.2925 1.54862 0
M  V30 9571 C 906.985 -0.597036 2.26876 0
M  V30 9572 C 908.001 -1.15558 1.30086 0
M  V30 9573 O 909.177 -1.18217 1.63054 0
M  V30 9574 C 906.242 -1.75664 2.98903 0
M  V30 9575 C 905.303 -1.23303 4.11212 0
M  V30 9576 C 904.536 -2.33736 4.79795 0
M  V30 9577 O 904.759 -3.53459 4.47686 0
M  V30 9578 O 903.693 -2.00908 5.67379 0
M  V30 9579 H 907.519 -0.0131242 3.03697 0
M  V30 9580 H 905.104 0.0592642 1.49282 0
M  V30 9581 H 906.986 -2.43241 3.4411 0
M  V30 9582 H 905.661 -2.32731 2.24984 0
M  V30 9583 H 904.568 -0.523222 3.70423 0
M  V30 9584 H 905.901 -0.707887 4.87083 0
M  V30 9585 N 907.553 -1.57587 0.0200696 0
M  V30 9586 C 908.799 -1.91708 -0.661503 0
M  V30 9587 C 909.132 -0.895968 -1.72296 0
M  V30 9588 O 908.407 0.082577 -1.94325 0
M  V30 9589 C 908.69 -3.36344 -1.28627 0
M  V30 9590 C 908.543 -4.49186 -0.234982 0
M  V30 9591 C 909.862 -3.80771 -2.20685 0
M  V30 9592 H 906.981 -0.69717 -0.239005 0
M  V30 9593 H 909.623 -1.8985 0.0754764 0
M  V30 9594 H 907.773 -3.38058 -1.91439 0
M  V30 9595 H 909.445 -4.59606 0.395011 0
M  V30 9596 H 907.688 -4.31557 0.440565 0
M  V30 9597 H 908.359 -5.47395 -0.711558 0
M  V30 9598 H 910.835 -3.80735 -1.67868 0
M  V30 9599 H 909.711 -4.82685 -2.61356 0
M  V30 9600 H 909.972 -3.15764 -3.09428 0
M  V30 9601 N 909.032 0.252966 -1.55557 0
M  V30 9602 C 909.995 1.29645 -1.8901 0
M  V30 9603 C 910.995 1.41378 -0.766096 0
M  V30 9604 O 912.185 1.40183 -1.03414 0
M  V30 9605 C 909.317 2.67504 -2.11316 0
M  V30 9606 H 910.51 1.01202 -2.82309 0
M  V30 9607 H 908.063 0.491977 -1.48355 0
M  V30 9608 H 908.798 3.01095 -1.20466 0
M  V30 9609 H 908.583 2.6037 -2.93172 0
M  V30 9610 H 910.073 3.42861 -2.38403 0
M  V30 9611 N 910.51 1.48831 0.518367 0
M  V30 9612 C 911.473 1.63721 1.604 0
M  V30 9613 C 912.473 0.509857 1.52503 0
M  V30 9614 O 913.663 0.775922 1.55965 0
M  V30 9615 C 910.795 1.61831 3.00039 0
M  V30 9616 H 911.988 2.60534 1.48533 0
M  V30 9617 H 909.541 1.37602 0.741309 0
M  V30 9618 H 910.276 0.665387 3.17401 0
M  V30 9619 H 910.061 2.43686 3.0718 0
M  V30 9620 H 911.551 1.75467 3.78947 0
M  V30 9621 N 911.988 -0.768124 1.37614 0
M  V30 9622 C 913.399 -1.34462 1.29525 0
M  V30 9623 C 913.75 -1.96121 -0.0555168 0
M  V30 9624 O 912.875 -1.94069 -0.957406 0
M  V30 9625 C 913.47 -2.44475 2.34558 0
M  V30 9626 C 912.029 -2.97883 2.30093 0
M  V30 9627 C 911.176 -1.71131 2.18196 0
M  V30 9628 H 914.127 -0.568103 1.48183 0
M  V30 9629 H 914.148 -3.24047 1.99434 0
M  V30 9630 H 913.66 -1.99568 3.32858 0
M  V30 9631 H 911.761 -3.47156 1.35328 0
M  V30 9632 H 911.874 -3.53251 3.23652 0
M  V30 9633 H 910.238 -1.94197 1.64802 0
M  V30 9634 H 911.021 -1.28323 3.18415 0
M  V30 9635 N 913.466 -1.22244 -0.994698 0
M  V30 9636 C 914.696 -1.07062 -1.76695 0
M  V30 9637 C 915.104 0.381895 -1.85306 0
M  V30 9638 O 914.447 1.27648 -1.32105 0
M  V30 9639 C 914.509 -1.60487 -3.2169 0
M  V30 9640 C 914.173 -3.09079 -3.36629 0
M  V30 9641 C 915.17 -4.06526 -3.24088 0
M  V30 9642 C 912.855 -3.48497 -3.61739 0
M  V30 9643 C 914.849 -5.41377 -3.36437 0
M  V30 9644 C 912.536 -4.83498 -3.73729 0
M  V30 9645 C 913.534 -5.79747 -3.61086 0
M  V30 9646 O 913.222 -7.12297 -3.72678 0
M  V30 9647 H 912.954 -0.375963 -0.561807 0
M  V30 9648 H 915.508 -1.62259 -1.25941 0
M  V30 9649 H 913.738 -0.996957 -3.73628 0
M  V30 9650 H 915.427 -1.40994 -3.80625 0
M  V30 9651 H 916.193 -3.77415 -3.04602 0
M  V30 9652 H 912.072 -2.74106 -3.70657 0
M  V30 9653 H 915.616 -6.16485 -3.26485 0
M  V30 9654 H 911.513 -5.1229 -3.92721 0
M  V30 9655 H 912.281 -7.1985 -3.89562 0
M  V30 9656 N 914.944 1.19125 -1.03184 0
M  V30 9657 C 916.193 1.8821 -0.725264 0
M  V30 9658 C 916.506 1.80674 0.749411 0
M  V30 9659 O 917.712 2.45037 1.16915 0
M  V30 9660 C 916.168 3.37607 -1.24697 0
M  V30 9661 C 915.776 3.53693 -2.74964 0
M  V30 9662 C 917.52 4.12149 -1.01652 0
M  V30 9663 C 915.427 4.97001 -3.20538 0
M  V30 9664 H 914.357 0.704916 -0.267599 0
M  V30 9665 H 917.008 1.34663 -1.24652 0
M  V30 9666 H 915.39 3.90569 -0.653614 0
M  V30 9667 H 916.564 3.11046 -3.39981 0
M  V30 9668 H 914.879 2.92544 -2.96322 0
M  V30 9669 H 917.476 5.17837 -1.33226 0
M  V30 9670 H 917.819 4.16274 0.0465712 0
M  V30 9671 H 918.352 3.65334 -1.57403 0
M  V30 9672 H 915.091 4.9804 -4.26189 0
M  V30 9673 H 914.611 5.40398 -2.60251 0
M  V30 9674 H 916.29 5.65669 -3.14049 0
M  V30 9675 N 916.422 0.810101 1.35185 0
M  V30 9676 C 917.332 0.224565 2.33523 0
M  V30 9677 C 918.348 -0.634287 1.62027 0
M  V30 9678 O 919.524 -0.545211 1.9388 0
M  V30 9679 C 916.589 -0.614319 3.41214 0
M  V30 9680 C 915.65 0.265435 4.28479 0
M  V30 9681 C 914.883 -0.533506 5.31027 0
M  V30 9682 O 915.106 -1.7679 5.42311 0
M  V30 9683 O 914.04 0.0774573 6.0185 0
M  V30 9684 H 917.866 1.03815 2.85405 0
M  V30 9685 H 915.451 0.571964 1.38018 0
M  V30 9686 H 917.333 -1.09201 4.07005 0
M  V30 9687 H 916.008 -1.40545 2.91597 0
M  V30 9688 H 914.915 0.790343 3.65656 0
M  V30 9689 H 916.248 1.0206 4.81503 0
M  V30 9690 N 917.9 -1.47166 0.563914 0
M  V30 9691 C 918.847 -2.30097 -0.180013 0
M  V30 9692 C 919.817 -1.39473 -0.902019 0
M  V30 9693 O 921.002 -1.68432 -0.896396 0
M  V30 9694 C 918.142 -3.23573 -1.19978 0
M  V30 9695 C 917.255 -4.2929 -0.483149 0
M  V30 9696 C 916.39 -5.0991 -1.48879 0
M  V30 9697 C 915.429 -6.07395 -0.757513 0
M  V30 9698 N 914.566 -6.8095 -1.71031 0
M  V30 9699 H 919.406 -2.93189 0.53329 0
M  V30 9700 H 916.943 -1.4451 0.274814 0
M  V30 9701 H 918.901 -3.76196 -1.80368 0
M  V30 9702 H 917.531 -2.6233 -1.88103 0
M  V30 9703 H 916.583 -3.79671 0.235414 0
M  V30 9704 H 917.895 -4.9872 0.0894075 0
M  V30 9705 H 917.049 -5.66717 -2.16603 0
M  V30 9706 H 915.788 -4.40397 -2.09527 0
M  V30 9707 H 914.793 -5.4976 -0.0663841 0
M  V30 9708 H 916.018 -6.78919 -0.156685 0
M  V30 9709 H 913.964 -6.14162 -2.30524 0
M  V30 9710 H 913.881 -7.46574 -1.19007 0
M  V30 9711 H 915.149 -7.42326 -2.37849 0
M  V30 9712 N 919.378 -0.300708 -1.54705 0
M  V30 9713 C 920.608 0.310819 -2.04249 0
M  V30 9714 C 921.016 1.4809 -1.17754 0
M  V30 9715 O 920.359 1.82654 -0.195779 0
M  V30 9716 C 920.421 0.83014 -3.49784 0
M  V30 9717 C 920.085 -0.214628 -4.56496 0
M  V30 9718 C 921.082 -1.04298 -5.09331 0
M  V30 9719 C 918.767 -0.356242 -5.01035 0
M  V30 9720 C 920.761 -1.99889 -6.05246 0
M  V30 9721 C 918.448 -1.3156 -5.96771 0
M  V30 9722 C 919.446 -2.1354 -6.4876 0
M  V30 9723 O 919.134 -3.07849 -7.4262 0
M  V30 9724 H 918.866 0.0715341 -0.672204 0
M  V30 9725 H 921.42 -0.438179 -2.00672 0
M  V30 9726 H 919.65 1.62966 -3.50684 0
M  V30 9727 H 921.339 1.35752 -3.82526 0
M  V30 9728 H 922.105 -0.944439 -4.75716 0
M  V30 9729 H 917.984 0.271916 -4.60197 0
M  V30 9730 H 921.528 -2.63917 -6.45751 0
M  V30 9731 H 917.425 -1.41486 -6.29803 0
M  V30 9732 H 918.193 -3.02824 -7.60421 0
M  V30 9733 N 920.856 1.57574 -0.0284266 0
M  V30 9734 C 922.272 1.56194 0.327958 0
M  V30 9735 C 922.472 1.03397 1.72949 0
M  V30 9736 O 921.528 0.680392 2.4316 0
M  V30 9737 C 922.841 3.00177 0.177196 0
M  V30 9738 C 924.389 3.12 0.250014 0
M  V30 9739 C 924.864 4.57821 0.128049 0
M  V30 9740 N 926.355 4.6283 0.185054 0
M  V30 9741 C 927.09 5.73286 0.114454 0
M  V30 9742 N 926.586 6.928 -0.00719225 0
M  V30 9743 N 928.379 5.61848 0.16839 0
M  V30 9744 H 920.53 1.90224 -0.944921 0
M  V30 9745 H 922.793 0.874987 -0.364832 0
M  V30 9746 H 922.499 3.42753 -0.788224 0
M  V30 9747 H 922.373 3.65101 0.94768 0
M  V30 9748 H 924.76 2.69337 1.20589 0
M  V30 9749 H 924.841 2.49799 -0.550835 0
M  V30 9750 H 924.485 5.01165 -0.824407 0
M  V30 9751 H 924.415 5.18001 0.947753 0
M  V30 9752 H 926.906 3.76867 0.279247 0
M  V30 9753 H 927.219 7.72781 -0.0543903 0
M  V30 9754 H 925.564 6.94987 -0.0419648 0
M  V30 9755 H 928.755 4.67367 0.261821 0
M  V30 9756 H 928.928 6.47907 0.109908 0
M  V30 9757 N 922.334 -0.244713 1.55689 0
M  V30 9758 C 923.267 -1.32946 1.85474 0
M  V30 9759 C 924.245 -1.46279 0.710021 0
M  V30 9760 O 925.429 -1.62459 0.956004 0
M  V30 9761 C 922.556 -2.7027 2.04137 0
M  V30 9762 C 921.602 -2.74075 3.2678 0
M  V30 9763 S 922.435 -2.30465 4.8337 0
M  V30 9764 C 923.591 -3.69709 5.05041 0
M  V30 9765 H 923.824 -1.07482 2.77191 0
M  V30 9766 H 921.357 -0.445807 1.47824 0
M  V30 9767 H 923.315 -3.4934 2.15574 0
M  V30 9768 H 921.976 -2.9297 1.13259 0
M  V30 9769 H 921.169 -3.74932 3.36812 0
M  V30 9770 H 920.771 -2.03051 3.1408 0
M  V30 9771 H 923.063 -4.65222 4.92518 0
M  V30 9772 H 924.006 -3.6461 6.07014 0
M  V30 9773 H 924.414 -3.62323 4.32877 0
M  V30 9774 N 923.813 -1.49104 -0.510467 0
M  V30 9775 C 924.723 -1.67792 -1.6396 0
M  V30 9776 C 925.739 -0.560454 -1.64727 0
M  V30 9777 O 926.915 -0.833985 -1.83321 0
M  V30 9778 C 923.98 -1.73154 -3.00364 0
M  V30 9779 C 923.041 -2.9667 -3.10299 0
M  V30 9780 C 922.274 -3.01767 -4.40196 0
M  V30 9781 O 922.497 -2.1472 -5.28443 0
M  V30 9782 O 921.431 -3.94137 -4.54906 0
M  V30 9783 H 925.257 -2.63428 -1.51126 0
M  V30 9784 H 922.842 -1.32734 -0.685719 0
M  V30 9785 H 924.724 -1.79089 -3.81451 0
M  V30 9786 H 923.399 -0.806952 -3.1348 0
M  V30 9787 H 922.306 -2.96257 -2.28435 0
M  V30 9788 H 923.639 -3.88578 -3.02106 0
M  V30 9789 N 925.291 0.760815 -1.38019 0
M  V30 9790 C 926.241 1.86487 -1.31174 0
M  V30 9791 C 927.225 1.59684 -0.197414 0
M  V30 9792 O 928.417 1.71628 -0.432764 0
M  V30 9793 C 925.546 3.24103 -1.13192 0
M  V30 9794 C 924.632 3.5682 -2.29216 0
M  V30 9795 N 925.023 3.60644 -3.5464 0
M  V30 9796 C 923.321 3.87047 -2.2161 0
M  V30 9797 C 924.022 3.90423 -4.31214 0
M  V30 9798 N 922.998 4.06883 -3.60482 0
M  V30 9799 H 926.8 1.87711 -2.26146 0
M  V30 9800 H 924.314 0.957811 -1.31148 0
M  V30 9801 H 926.311 4.03101 -1.06372 0
M  V30 9802 H 924.971 3.24135 -0.191473 0
M  V30 9803 H 925.982 3.42581 -3.88405 0
M  V30 9804 H 922.659 3.94837 -1.35684 0
M  V30 9805 H 924.049 4.00065 -5.39812 0
M  V30 9806 N 926.769 1.22769 0.988202 0
M  V30 9807 C 928.018 1.0492 1.72263 0
M  V30 9808 C 928.331 -0.415282 1.91141 0
M  V30 9809 O 929.537 -0.713547 2.61956 0
M  V30 9810 C 927.993 1.82891 3.09966 0
M  V30 9811 C 927.601 3.33618 2.99003 0
M  V30 9812 C 929.345 1.73505 3.87423 0
M  V30 9813 C 927.252 4.04012 4.3189 0
M  V30 9814 H 926.182 0.38899 0.645912 0
M  V30 9815 H 928.833 1.46664 1.10281 0
M  V30 9816 H 927.215 1.33948 3.72658 0
M  V30 9817 H 928.389 3.8999 2.45448 0
M  V30 9818 H 926.704 3.43732 2.35027 0
M  V30 9819 H 929.301 2.23416 4.85787 0
M  V30 9820 H 929.644 0.696344 4.10435 0
M  V30 9821 H 930.177 2.20016 3.31418 0
M  V30 9822 H 926.916 5.08155 4.14075 0
M  V30 9823 H 926.436 3.52428 4.8534 0
M  V30 9824 H 928.115 4.0987 5.00615 0
M  V30 9825 N 928.247 -1.18576 1.03814 0
M  V30 9826 C 929.658 -1.70159 0.768299 0
M  V30 9827 C 930.009 -1.8286 -0.711106 0
M  V30 9828 O 929.134 -1.5063 -1.55369 0
M  V30 9829 C 929.729 -3.09062 1.38804 0
M  V30 9830 C 928.288 -3.57866 1.16656 0
M  V30 9831 C 927.435 -2.34484 1.48029 0
M  V30 9832 H 930.386 -1.03287 1.20488 0
M  V30 9833 H 930.407 -3.72211 0.7899 0
M  V30 9834 H 929.919 -2.99785 2.46476 0
M  V30 9835 H 928.02 -3.72442 0.108471 0
M  V30 9836 H 928.133 -4.41445 1.8618 0
M  V30 9837 H 926.497 -2.38273 0.899902 0
M  V30 9838 H 927.28 -2.27829 2.56805 0
M  V30 9839 N 929.725 -0.817259 -1.34754 0
M  V30 9840 C 930.635 -0.236946 -2.334 0
M  V30 9841 C 931.651 0.625685 -1.62361 0
M  V30 9842 O 932.827 0.534921 -1.94166 0
M  V30 9843 C 929.892 0.596215 -3.41535 0
M  V30 9844 C 928.953 -0.288154 -4.28332 0
M  V30 9845 C 928.186 0.505337 -5.31302 0
M  V30 9846 O 928.409 1.73912 -5.43241 0
M  V30 9847 O 927.343 -0.109374 -6.01801 0
M  V30 9848 H 931.169 -1.05327 -2.84851 0
M  V30 9849 H 928.754 -0.579275 -1.37713 0
M  V30 9850 H 930.636 1.07041 -4.07578 0
M  V30 9851 H 929.311 1.38997 -2.92338 0
M  V30 9852 H 928.218 -0.809724 -3.65232 0
M  V30 9853 H 929.551 -1.04612 -4.80955 0
M  V30 9854 N 931.203 1.46865 -0.571711 0
M  V30 9855 C 932.428 2.07323 -0.0564655 0
M  V30 9856 C 932.853 1.41938 1.23431 0
M  V30 9857 O 932.211 0.499334 1.74288 0
M  V30 9858 C 932.259 3.6044 0.107339 0
M  V30 9859 O 931.363 3.95558 1.1665 0
M  V30 9860 H 930.704 0.661475 -0.0578465 0
M  V30 9861 H 933.234 1.88669 -0.791524 0
M  V30 9862 H 933.244 4.06767 0.316987 0
M  V30 9863 H 931.919 4.07425 -0.835348 0
M  V30 9864 H 930.496 3.60957 0.936189 0
M  V30 9865 N 932.681 0.308908 1.54543 0
M  V30 9866 C 934.097 -0.0442273 1.59539 0
M  V30 9867 C 934.297 -1.51743 1.32575 0
M  V30 9868 O 933.353 -2.27134 1.10302 0
M  V30 9869 C 934.666 0.360826 2.98527 0
M  V30 9870 C 936.214 0.310252 3.11459 0
M  V30 9871 C 936.689 0.690246 4.52769 0
M  V30 9872 N 938.18 0.643084 4.58714 0
M  V30 9873 C 938.915 0.909483 5.66141 0
M  V30 9874 N 938.411 1.24226 6.81572 0
M  V30 9875 N 940.204 0.836018 5.55848 0
M  V30 9876 H 932.355 1.26893 1.70329 0
M  V30 9877 H 934.618 0.514986 0.795923 0
M  V30 9878 H 934.324 1.38669 3.23209 0
M  V30 9879 H 934.198 -0.281563 3.76148 0
M  V30 9880 H 936.585 -0.706375 2.86521 0
M  V30 9881 H 936.666 0.987373 2.35976 0
M  V30 9882 H 936.31 1.70472 4.78437 0
M  V30 9883 H 936.24 -0.00903075 5.26599 0
M  V30 9884 H 938.731 0.397138 3.75807 0
M  V30 9885 H 939.044 1.4313 7.5943 0
M  V30 9886 H 937.389 1.28038 6.83104 0
M  V30 9887 H 940.58 0.575637 4.64547 0
M  V30 9888 H 940.753 1.047 6.39486 0
M  V30 9889 N 934.159 -1.57557 0.0367827 0
M  V30 9890 C 935.57 -1.79853 -0.500971 0
M  V30 9891 C 935.921 -0.947749 -1.71791 0
M  V30 9892 O 935.046 -0.160287 -2.15806 0
M  V30 9893 C 935.641 -3.26193 -0.915626 0
M  V30 9894 C 934.2 -3.49457 -1.39845 0
M  V30 9895 C 933.347 -2.74864 -0.366784 0
M  V30 9896 H 936.298 -1.56509 0.262768 0
M  V30 9897 H 936.319 -3.36324 -1.7795 0
M  V30 9898 H 935.831 -3.88089 -0.0297227 0
M  V30 9899 H 933.932 -2.92823 -2.30402 0
M  V30 9900 H 934.045 -4.58172 -1.40054 0
M  V30 9901 H 932.409 -2.4057 -0.836554 0
M  V30 9902 H 933.192 -3.39479 0.510785 0
M  V30 9903 N 935.637 0.236453 -1.55816 0
M  V30 9904 C 936.567 1.29639 -1.94206 0
M  V30 9905 C 937.548 1.49667 -0.808319 0
M  V30 9906 O 938.733 1.621 -1.06945 0
M  V30 9907 C 935.863 2.64914 -2.24584 0
M  V30 9908 C 934.817 2.59565 -3.40308 0
M  V30 9909 C 934.143 3.98732 -3.56254 0
M  V30 9910 C 935.443 2.15642 -4.75706 0
M  V30 9911 H 937.137 0.977552 -2.82992 0
M  V30 9912 H 934.683 0.468804 -1.36155 0
M  V30 9913 H 936.636 3.39209 -2.50031 0
M  V30 9914 H 935.36 2.98455 -1.32636 0
M  V30 9915 H 934.019 1.87728 -3.14887 0
M  V30 9916 H 933.667 4.29556 -2.61707 0
M  V30 9917 H 933.367 3.96039 -4.34082 0
M  V30 9918 H 934.891 4.74711 -3.84033 0
M  V30 9919 H 936.305 2.79673 -5.00456 0
M  V30 9920 H 934.702 2.24039 -5.56711 0
M  V30 9921 H 935.772 1.10831 -4.72064 0
M  V30 9922 N 937.115 1.49373 0.502552 0
M  V30 9923 C 938.34 1.62752 1.28556 0
M  V30 9924 C 938.765 0.298285 1.8572 0
M  V30 9925 O 938.123 -0.733885 1.65782 0
M  V30 9926 C 938.171 2.69778 2.39274 0
M  V30 9927 O 937.275 2.28843 3.43081 0
M  V30 9928 H 936.616 0.544799 0.379592 0
M  V30 9929 H 939.146 1.9555 0.601792 0
M  V30 9930 H 939.156 2.91899 2.8506 0
M  V30 9931 H 937.831 3.66266 1.97033 0
M  V30 9932 H 936.408 2.17047 3.03224 0
M  V30 9933 N 938.594 -0.753485 1.38421 0
M  V30 9934 C 940.005 -1.33081 1.30944 0
M  V30 9935 C 940.356 -1.96169 -0.0347124 0
M  V30 9936 O 939.481 -1.95073 -0.936768 0
M  V30 9937 C 940.076 -2.41973 2.37138 0
M  V30 9938 C 938.635 -2.95426 2.33239 0
M  V30 9939 C 937.782 -1.68808 2.19998 0
M  V30 9940 H 940.733 -0.552354 1.48777 0
M  V30 9941 H 940.754 -3.21913 2.02859 0
M  V30 9942 H 940.266 -1.96027 3.34956 0
M  V30 9943 H 938.367 -3.45701 1.39003 0
M  V30 9944 H 938.48 -3.49798 3.27381 0
M  V30 9945 H 936.844 -1.92438 1.66852 0
M  V30 9946 H 937.627 -1.24939 3.19758 0
M  V30 9947 N 940.072 -1.23292 -0.981677 0
M  V30 9948 C 941.3 -1.09088 -1.75805 0
M  V30 9949 C 941.715 0.357746 -1.8538 0
M  V30 9950 O 941.072 1.24751 -1.33205 0
M  V30 9951 C 941.123 -1.70885 -3.1856 0
M  V30 9952 O 940.844 -3.10082 -3.09484 0
M  V30 9953 C 942.345 -1.62106 -4.12597 0
M  V30 9954 H 939.565 -0.38184 -0.55176 0
M  V30 9955 H 942.109 -1.63116 -1.23342 0
M  V30 9956 H 940.264 -1.20893 -3.68054 0
M  V30 9957 H 940.678 -3.40039 -3.99342 0
M  V30 9958 H 942.152 -2.10049 -5.10474 0
M  V30 9959 H 942.629 -0.579642 -4.35358 0
M  V30 9960 H 943.235 -2.11457 -3.69007 0
M  V30 9961 N 941.55 1.18024 -1.04442 0
M  V30 9962 C 942.513 2.19992 -0.643136 0
M  V30 9963 C 943.513 1.57949 0.301444 0
M  V30 9964 O 944.703 1.73986 0.0863341 0
M  V30 9965 C 941.835 3.40853 0.0565208 0
M  V30 9966 H 943.028 2.57008 -1.54554 0
M  V30 9967 H 940.581 1.31974 -0.837408 0
M  V30 9968 H 941.316 3.09373 0.972553 0
M  V30 9969 H 941.101 3.87128 -0.622439 0
M  V30 9970 H 942.591 4.16344 0.323652 0
M  V30 9971 N 943.028 0.824394 1.34319 0
M  V30 9972 C 944.275 0.413167 1.9824 0
M  V30 9973 C 944.603 -1.02412 1.65354 0
M  V30 9974 O 943.858 -1.72831 0.91803 0
M  V30 9975 C 944.157 0.564024 3.52921 0
M  V30 9976 C 943.823 1.96725 4.05722 0
M  V30 9977 C 942.485 2.35111 4.19853 0
M  V30 9978 C 944.837 2.88447 4.34106 0
M  V30 9979 C 942.165 3.64551 4.59695 0
M  V30 9980 C 944.517 4.17353 4.75394 0
M  V30 9981 C 943.181 4.55714 4.8773 0
M  V30 9982 H 942.451 0.151188 0.725412 0
M  V30 9983 H 945.098 1.04863 1.60238 0
M  V30 9984 H 943.403 -0.154816 3.91494 0
M  V30 9985 H 945.1 0.226347 4.00361 0
M  V30 9986 H 941.69 1.65908 3.95187 0
M  V30 9987 H 945.874 2.60034 4.22725 0
M  V30 9988 H 941.13 3.94097 4.67437 0
M  V30 9989 H 945.304 4.88512 4.96315 0
M  V30 9990 H 942.931 5.56064 5.1836 0
M  V30 9991 N 944.506 -1.46559 0.579492 0
M  V30 9992 C 945.731 -2.0729 0.0674595 0
M  V30 9993 C 946.156 -1.4259 -1.22677 0
M  V30 9994 O 945.514 -0.50857 -1.74021 0
M  V30 9995 C 945.562 -3.60492 -0.0882227 0
M  V30 9996 O 944.666 -3.96172 -1.14551 0
M  V30 9997 H 944.007 -0.661159 0.0613536 0
M  V30 9998 H 946.537 -1.88247 0.801519 0
M  V30 9999 H 946.547 -4.06929 -0.295411 0
M  V30 10000 H 945.222 -4.06976 0.856943 0
M  V30 10001 H 943.799 -3.61448 -0.917033 0
M  V30 10002 N 945.984 -0.3171 -1.54377 0
M  V30 10003 C 946.914 0.544623 -2.2706 0
M  V30 10004 C 947.895 1.12469 -1.27611 0
M  V30 10005 O 949.08 1.15103 -1.56413 0
M  V30 10006 C 946.21 1.70879 -3.02353 0
M  V30 10007 C 945.164 1.25833 -4.09084 0
M  V30 10008 C 944.49 2.50894 -4.72182 0
M  V30 10009 C 945.79 0.377876 -5.20931 0
M  V30 10010 H 947.484 -0.0616372 -2.99337 0
M  V30 10011 H 945.03 -0.0310848 -1.43966 0
M  V30 10012 H 946.983 2.31787 -3.51927 0
M  V30 10013 H 945.707 2.34155 -2.27682 0
M  V30 10014 H 944.366 0.672228 -3.60384 0
M  V30 10015 H 944.014 3.12518 -3.94134 0
M  V30 10016 H 943.714 2.21447 -5.44275 0
M  V30 10017 H 945.238 3.12575 -5.24528 0
M  V30 10018 H 946.652 0.893056 -5.66302 0
M  V30 10019 H 945.049 0.176474 -5.9984 0
M  V30 10020 H 946.119 -0.592943 -4.81261 0
M  V30 10021 N 947.462 1.57535 -0.0451378 0
M  V30 10022 C 948.394 2.08109 0.960372 0
M  V30 10023 C 949.407 1.0077 1.27864 0
M  V30 10024 O 950.596 1.28351 1.24049 0
M  V30 10025 C 947.696 2.50414 2.28355 0
M  V30 10026 C 946.869 3.8102 2.14808 0
M  V30 10027 C 945.928 4.09702 3.30198 0
M  V30 10028 O 944.954 4.79715 3.0637 0
M  V30 10029 N 946.156 3.61138 4.54489 0
M  V30 10030 H 948.921 2.94999 0.528752 0
M  V30 10031 H 946.482 1.61283 0.141248 0
M  V30 10032 H 948.474 2.66683 3.04405 0
M  V30 10033 H 947.044 1.68805 2.63104 0
M  V30 10034 H 946.264 3.74392 1.23387 0
M  V30 10035 H 947.552 4.66559 2.02978 0
M  V30 10036 H 946.95 3.04527 4.76739 0
M  V30 10037 H 945.507 3.82656 5.27653 0
M  V30 10038 N 948.94 -0.228186 1.55939 0
M  V30 10039 C 950.187 -0.953552 1.78644 0
M  V30 10040 C 950.515 -1.84596 0.61275 0
M  V30 10041 O 949.77 -1.91502 -0.403175 0
M  V30 10042 C 950.069 -1.82924 3.0704 0
M  V30 10043 C 949.735 -1.09062 4.37511 0
M  V30 10044 C 948.397 -0.886565 4.72962 0
M  V30 10045 C 950.749 -0.568533 5.1809 0
M  V30 10046 C 948.077 -0.148413 5.86512 0
M  V30 10047 C 950.429 0.156243 6.32407 0
M  V30 10048 C 949.093 0.371612 6.66465 0
M  V30 10049 H 948.363 -0.348929 0.653704 0
M  V30 10050 H 951.01 -0.222211 1.90206 0
M  V30 10051 H 949.315 -2.62823 2.90571 0
M  V30 10052 H 951.012 -2.3925 3.21808 0
M  V30 10053 H 947.602 -1.25963 4.09672 0
M  V30 10054 H 951.786 -0.713673 4.91142 0
M  V30 10055 H 947.042 0.0287418 6.11393 0
M  V30 10056 H 951.216 0.568333 6.94077 0
M  V30 10057 H 948.843 0.945522 7.54297 0
M  V30 10058 N 950.418 -1.49637 -0.494624 0
M  V30 10059 C 951.348 -1.69692 -1.60396 0
M  V30 10060 C 952.329 -0.545648 -1.61111 0
M  V30 10061 O 953.514 -0.782202 -1.77751 0
M  V30 10062 C 950.644 -1.76934 -2.9885 0
M  V30 10063 C 949.598 -2.91915 -3.13001 0
M  V30 10064 C 948.924 -2.84276 -4.5287 0
M  V30 10065 C 950.224 -4.32764 -2.92426 0
M  V30 10066 H 951.918 -2.6257 -1.43866 0
M  V30 10067 H 949.464 -1.26355 -0.690679 0
M  V30 10068 H 951.417 -1.8955 -3.76362 0
M  V30 10069 H 950.141 -0.806609 -3.16483 0
M  V30 10070 H 948.8 -2.78911 -2.37916 0
M  V30 10071 H 948.448 -1.85897 -4.67388 0
M  V30 10072 H 948.148 -3.61452 -4.63278 0
M  V30 10073 H 949.672 -2.98909 -5.32434 0
M  V30 10074 H 951.086 -4.46415 -3.59703 0
M  V30 10075 H 949.483 -5.1121 -3.143 0
M  V30 10076 H 950.553 -4.46765 -1.88491 0
M  V30 10077 N 951.896 0.746133 -1.38819 0
M  V30 10078 C 952.846 1.85085 -1.33145 0
M  V30 10079 C 953.83 1.59466 -0.214339 0
M  V30 10080 O 955.022 1.71159 -0.450943 0
M  V30 10081 C 952.151 3.22884 -1.16623 0
M  V30 10082 C 951.237 3.54369 -2.32988 0
M  V30 10083 N 951.628 3.56863 -3.58445 0
M  V30 10084 C 949.926 3.84674 -2.25703 0
M  V30 10085 C 950.627 3.85827 -4.3533 0
M  V30 10086 N 949.603 4.03037 -3.64777 0
M  V30 10087 H 953.405 1.85301 -2.28124 0
M  V30 10088 H 950.919 0.943847 -1.32156 0
M  V30 10089 H 952.916 4.0195 -1.10642 0
M  V30 10090 H 951.576 3.23914 -0.225841 0
M  V30 10091 H 952.587 3.38443 -3.92017 0
M  V30 10092 H 949.264 3.93375 -1.39864 0
M  V30 10093 H 950.654 3.94317 -5.44025 0
M  V30 10094 N 953.375 1.23811 0.975125 0
M  V30 10095 C 954.322 1.02394 2.06843 0
M  V30 10096 C 955.292 -0.060337 1.6599 0
M  V30 10097 O 956.477 0.0928187 1.90574 0
M  V30 10098 C 953.617 0.626882 3.39359 0
M  V30 10099 C 952.73 1.78385 3.9345 0
M  V30 10100 C 951.865 1.33307 5.14201 0
M  V30 10101 C 950.904 2.46045 5.60471 0
M  V30 10102 N 950.041 2.01888 6.72448 0
M  V30 10103 H 954.881 1.95973 2.24496 0
M  V30 10104 H 952.418 0.976206 1.10039 0
M  V30 10105 H 954.376 0.377742 4.15486 0
M  V30 10106 H 953.006 -0.271907 3.21653 0
M  V30 10107 H 952.058 2.14685 3.14029 0
M  V30 10108 H 953.37 2.63122 4.23755 0
M  V30 10109 H 952.524 1.04237 5.97678 0
M  V30 10110 H 951.263 0.456143 4.85562 0
M  V30 10111 H 950.268 2.75884 4.75571 0
M  V30 10112 H 951.493 3.34283 5.91127 0
M  V30 10113 H 949.439 1.16583 6.45558 0
M  V30 10114 H 949.356 2.80182 7.02164 0
M  V30 10115 H 950.624 1.75937 7.59386 0
M  V30 10116 N 954.853 -1.17469 1.05066 0
M  V30 10117 C 955.8 -2.21443 0.650512 0
M  V30 10118 C 956.77 -1.62441 -0.346702 0
M  V30 10119 O 957.955 -1.89305 -0.238404 0
M  V30 10120 C 955.095 -3.45087 0.0301014 0
M  V30 10121 C 954.208 -4.18385 1.07599 0
M  V30 10122 C 953.343 -5.29513 0.423038 0
M  V30 10123 C 952.382 -5.94596 1.45333 0
M  V30 10124 N 951.519 -6.97241 0.824623 0
M  V30 10125 H 956.359 -2.55025 1.54163 0
M  V30 10126 H 953.896 -1.25274 0.771032 0
M  V30 10127 H 955.854 -4.15754 -0.347032 0
M  V30 10128 H 954.484 -3.12093 -0.824481 0
M  V30 10129 H 953.536 -3.46446 1.57097 0
M  V30 10130 H 954.848 -4.62899 1.85813 0
M  V30 10131 H 954.002 -6.067 -0.00774975 0
M  V30 10132 H 952.741 -4.86129 -0.391092 0
M  V30 10133 H 951.746 -5.16142 1.89415 0
M  V30 10134 H 952.971 -6.40061 2.26934 0
M  V30 10135 H 950.917 -6.55993 0.0309804 0
M  V30 10136 H 950.834 -7.40059 1.54432 0
M  V30 10137 H 952.102 -7.78375 0.418567 0
M  V30 10138 N 956.331 -0.831506 -1.3388 0
M  V30 10139 C 957.556 -0.435954 -2.02766 0
M  V30 10140 C 957.981 0.952889 -1.62178 0
M  V30 10141 O 957.339 1.62166 -0.810681 0
M  V30 10142 C 957.387 -0.555907 -3.56289 0
M  V30 10143 O 956.491 0.420826 -4.10247 0
M  V30 10144 H 955.832 -0.178248 -0.639628 0
M  V30 10145 H 958.362 -1.1243 -1.70941 0
M  V30 10146 H 958.372 -0.434831 -4.05676 0
M  V30 10147 H 957.047 -1.56881 -3.85177 0
M  V30 10148 H 955.624 0.257919 -3.72007 0
M  V30 10149 N 957.809 1.4625 -0.587256 0
M  V30 10150 C 959.037 2.06744 -0.08033 0
M  V30 10151 C 959.452 1.43527 1.2266 0
M  V30 10152 O 958.809 0.542168 1.74261 0
M  V30 10153 C 958.86 3.61394 0.0873469 0
M  V30 10154 O 958.581 4.22247 -1.16785 0
M  V30 10155 C 960.082 4.38828 0.628095 0
M  V30 10156 H 957.302 0.668354 -0.0595301 0
M  V30 10157 H 959.846 1.87808 -0.809217 0
M  V30 10158 H 958.001 3.79742 0.766473 0
M  V30 10159 H 958.415 5.15176 -0.984565 0
M  V30 10160 H 959.889 5.47613 0.694583 0
M  V30 10161 H 960.366 4.07188 1.64606 0
M  V30 10162 H 960.972 4.25297 -0.0163115 0
M  V30 10163 N 959.287 0.325282 1.54207 0
M  V30 10164 C 960.234 -0.539889 2.24397 0
M  V30 10165 C 961.204 -1.11028 1.2354 0
M  V30 10166 O 962.389 -1.1503 1.52226 0
M  V30 10167 C 959.529 -1.69405 3.00659 0
M  V30 10168 C 958.642 -1.15273 4.16337 0
M  V30 10169 C 957.777 -2.27272 4.80126 0
M  V30 10170 C 956.816 -1.70397 5.87904 0
M  V30 10171 N 955.953 -2.76065 6.45548 0
M  V30 10172 H 960.793 0.0652318 2.97929 0
M  V30 10173 H 958.33 0.043964 1.47034 0
M  V30 10174 H 960.288 -2.37325 3.43122 0
M  V30 10175 H 958.918 -2.27043 2.29458 0
M  V30 10176 H 957.97 -0.365034 3.78645 0
M  V30 10177 H 959.282 -0.696576 4.93912 0
M  V30 10178 H 958.436 -3.03092 5.25566 0
M  V30 10179 H 957.175 -2.76224 4.01935 0
M  V30 10180 H 956.18 -0.930752 5.41864 0
M  V30 10181 H 957.405 -1.22319 6.67993 0
M  V30 10182 H 955.351 -3.24306 5.7023 0
M  V30 10183 H 955.268 -2.35018 7.18542 0
M  V30 10184 H 956.536 -3.5171 6.95644 0
M  V30 10185 N 960.765 -1.57509 0.0534917 0
M  V30 10186 C 962.014 -1.91959 -0.619244 0
M  V30 10187 C 962.327 -0.933882 -1.71866 0
M  V30 10188 O 963.533 -1.17052 -2.44972 0
M  V30 10189 C 961.989 -3.40938 -1.15278 0
M  V30 10190 C 961.597 -4.47919 -0.085348 0
M  V30 10191 C 963.341 -3.84419 -1.80063 0
M  V30 10192 C 961.248 -5.88014 -0.631897 0
M  V30 10193 H 960.178 -0.71642 -0.235072 0
M  V30 10194 H 962.829 -1.83089 0.122758 0
M  V30 10195 H 961.211 -3.44821 -1.94717 0
M  V30 10196 H 962.385 -4.55629 0.688374 0
M  V30 10197 H 960.7 -4.13793 0.465178 0
M  V30 10198 H 963.297 -4.86457 -2.21954 0
M  V30 10199 H 963.64 -3.20791 -2.65328 0
M  V30 10200 H 964.173 -3.83062 -1.07275 0
M  V30 10201 H 960.912 -6.55244 0.183175 0
M  V30 10202 H 960.432 -5.83861 -1.37355 0
M  V30 10203 H 962.111 -6.37336 -1.11407 0
M  V30 10204 N 962.243 0.219913 -1.56058 0
M  V30 10205 C 963.654 0.786766 -1.69313 0
M  V30 10206 C 964.005 1.84916 -0.655782 0
M  V30 10207 O 963.13 2.1554 0.192772 0
M  V30 10208 C 963.725 1.43387 -3.06962 0
M  V30 10209 C 962.284 1.94809 -3.22066 0
M  V30 10210 C 961.431 0.808863 -2.65241 0
M  V30 10211 H 964.382 -0.00476777 -1.58699 0
M  V30 10212 H 964.403 2.30272 -3.02911 0
M  V30 10213 H 963.915 0.660405 -3.8244 0
M  V30 10214 H 962.016 2.74952 -2.5146 0
M  V30 10215 H 962.129 2.12694 -4.293 0
M  V30 10216 H 960.493 1.21661 -2.23765 0
M  V30 10217 H 961.276 0.0480458 -3.43266 0
M  V30 10218 N 963.721 1.49897 0.486681 0
M  V30 10219 C 964.631 1.70379 1.6127 0
M  V30 10220 C 965.647 0.58659 1.63814 0
M  V30 10221 O 966.823 0.863044 1.81971 0
M  V30 10222 C 963.888 1.77911 2.97571 0
M  V30 10223 C 962.949 3.01569 3.0554 0
M  V30 10224 C 962.182 3.08732 4.35339 0
M  V30 10225 O 962.405 2.23099 5.2496 0
M  V30 10226 O 961.339 4.01325 4.48578 0
M  V30 10227 H 965.165 2.65799 1.46916 0
M  V30 10228 H 962.75 1.33808 0.664516 0
M  V30 10229 H 964.632 1.85135 3.78554 0
M  V30 10230 H 963.307 0.856722 3.12157 0
M  V30 10231 H 962.214 2.99854 2.23693 0
M  V30 10232 H 963.547 3.93335 2.95886 0
M  V30 10233 N 965.199 -0.738761 1.39212 0
M  V30 10234 C 966.424 -1.5331 1.39681 0
M  V30 10235 C 966.849 -1.88098 -0.00768715 0
M  V30 10236 O 966.207 -1.51642 -0.993699 0
M  V30 10237 C 966.255 -2.79958 2.27279 0
M  V30 10238 O 965.359 -3.75727 1.70008 0
M  V30 10239 H 964.7 -0.463131 0.475821 0
M  V30 10240 H 967.23 -0.911768 1.83161 0
M  V30 10241 H 967.24 -3.28732 2.41659 0
M  V30 10242 H 965.915 -2.5397 3.29351 0
M  V30 10243 H 964.492 -3.34483 1.64851 0
M  V30 10244 N 966.677 -1.24326 -0.968545 0
M  V30 10245 C 967.587 -1.05194 -2.09694 0
M  V30 10246 C 968.603 0.00701291 -1.73999 0
M  V30 10247 O 969.779 -0.190981 -2.00492 0
M  V30 10248 C 966.844 -0.658075 -3.40397 0
M  V30 10249 C 965.905 -1.79341 -3.90045 0
M  V30 10250 C 965.138 -1.41824 -5.14511 0
M  V30 10251 O 965.361 -0.307693 -5.69569 0
M  V30 10252 O 964.295 -2.24358 -5.58522 0
M  V30 10253 H 968.121 -1.99791 -2.2873 0
M  V30 10254 H 965.706 -1.03138 -1.08088 0
M  V30 10255 H 967.588 -0.449911 -4.18991 0
M  V30 10256 H 966.263 0.258782 -3.22664 0
M  V30 10257 H 965.17 -2.05632 -3.12516 0
M  V30 10258 H 966.503 -2.68901 -4.12254 0
M  V30 10259 N 968.156 1.1691 -1.05688 0
M  V30 10260 C 969.433 1.83266 -0.683601 0
M  V30 10261 C 969.813 1.93858 0.835602 0
M  V30 10262 O 969.161 1.47696 1.7435 0
M  V30 10263 C 969.371 3.20625 -1.37842 0
M  V30 10264 C 970.719 3.96473 -1.51967 0
M  V30 10265 O 971.743 3.30122 -1.33783 0
M  V30 10266 O 970.602 5.15393 -1.81749 0
M  V30 10267 H 967.696 0.791028 -0.241254 0
M  V30 10268 H 970.242 1.24165 -1.15677 0
M  V30 10269 H 969.014 3.07914 -2.41463 0
M  V30 10270 H 968.637 3.87398 -0.894921 0
M  V30 10271 N 969.634 0.838594 1.33437 0
M  V30 10272 C 970.564 0.286672 2.31734 0
M  V30 10273 C 971.545 -0.605451 1.5896 0
M  V30 10274 O 972.73 -0.529059 1.86854 0
M  V30 10275 C 969.86 -0.539311 3.43087 0
M  V30 10276 C 968.814 0.256997 4.27228 0
M  V30 10277 C 968.14 -0.692718 5.30194 0
M  V30 10278 C 969.44 1.47391 5.01072 0
M  V30 10279 H 971.134 1.10798 2.78144 0
M  V30 10280 H 968.68 0.534235 1.33723 0
M  V30 10281 H 970.633 -0.935724 4.1088 0
M  V30 10282 H 969.357 -1.39383 2.95364 0
M  V30 10283 H 968.016 0.634967 3.61059 0
M  V30 10284 H 967.664 -1.54363 4.78729 0
M  V30 10285 H 967.364 -0.164023 5.87371 0
M  V30 10286 H 968.888 -1.08665 6.00853 0
M  V30 10287 H 970.302 1.15067 5.61634 0
M  V30 10288 H 968.699 1.93937 5.67898 0
M  V30 10289 H 969.769 2.24382 4.29861 0
M  V30 10290 O 971.151 -1.43777 0.735553 0
M  V30 10291 H 971.842 -1.91557 0.287314 0
M  V30 END ATOM
M  V30 BEGIN BOND
M  V30 END BOND
M  V30 END CTAB
M  END
$$$$
