drugbank_target|P42593 2,4-dienoyl-CoA reductase [NADPH] (DB03147; DB03247; DB03461; DB03698)
 OpenBabel12092120023D

  0  0  0     0  0            999 V3000
M  V30 BEGIN CTAB
M  V30 COUNTS 10225 10320 0 0 0
M  V30 BEGIN ATOM
M  V30 1 H -0.908 1.98254 -0.117106 0
M  V30 2 N 0 1.576 0 0
M  V30 3 C 0.933 2.03868 1.02534 0
M  V30 4 C 1.911 0.928543 1.3348 0
M  V30 5 O 3.095 1.19667 1.45644 0
M  V30 6 C 0.222 2.43627 2.35294 0
M  V30 7 C -0.732 3.65373 2.2001 0
M  V30 8 S 0.101 5.13292 1.52614 0
M  V30 9 C 1.257 5.56322 2.86805 0
M  V30 10 H 1.49 2.90518 0.631377 0
M  V30 11 H -0.977 1.52953 0.210867 0
M  V30 12 H 0.981 2.67203 3.11629 0
M  V30 13 H -0.358 1.57376 2.7183 0
M  V30 14 H -1.165 3.90944 3.18086 0
M  V30 15 H -1.563 3.418 1.51819 0
M  V30 16 H 0.729 5.58782 3.83104 0
M  V30 17 H 1.672 6.56266 2.65933 0
M  V30 18 H 2.08 4.83886 2.90714 0
M  V30 19 N 1.4781 -0.272755 1.55222 0
M  V30 20 C 2.7031 -1.02683 1.80197 0
M  V30 21 C 3.1281 -1.79142 0.573551 0
M  V30 22 O 2.4861 -1.74917 -0.476849 0
M  V30 23 C 2.5341 -1.9609 3.02624 0
M  V30 24 O 1.6381 -3.04863 2.77727 0
M  V30 25 H 0.9791 -0.293557 0.595584 0
M  V30 26 H 3.5091 -0.30159 2.02365 0
M  V30 27 H 3.5191 -2.38039 3.31363 0
M  V30 28 H 2.1941 -1.39851 3.91682 0
M  V30 29 H 0.7711 -2.67228 2.60084 0
M  V30 30 N 2.9562 -1.48159 -0.537278 0
M  V30 31 C 4.1862 -1.59223 -1.3165 0
M  V30 32 C 4.5942 -0.248849 -1.87556 0
M  V30 33 O 3.9372 0.770949 -1.6674 0
M  V30 34 C 3.9992 -2.57365 -2.51005 0
M  V30 35 C 3.6632 -4.02603 -2.16239 0
M  V30 36 C 4.6602 -4.90503 -1.72344 0
M  V30 37 C 2.3452 -4.48088 -2.26986 0
M  V30 38 C 4.3392 -6.21913 -1.39651 0
M  V30 39 C 2.0262 -5.7952 -1.93906 0
M  V30 40 C 3.0242 -6.66255 -1.50309 0
M  V30 41 O 2.7122 -7.95243 -1.17659 0
M  V30 42 H 2.4442 -0.539831 -0.406889 0
M  V30 43 H 4.9982 -1.94655 -0.655641 0
M  V30 44 H 3.2282 -2.1704 -3.20048 0
M  V30 45 H 4.9172 -2.58342 -3.13072 0
M  V30 46 H 5.6832 -4.56604 -1.63517 0
M  V30 47 H 1.5622 -3.80769 -2.59877 0
M  V30 48 H 5.1062 -6.89569 -1.0555 0
M  V30 49 H 1.0032 -6.12957 -2.02371 0
M  V30 50 H 1.7712 -8.0793 -1.31119 0
M  V30 51 N 4.4343 0.785586 -1.36625 0
M  V30 52 C 5.8453 1.36101 -1.27803 0
M  V30 53 C 6.1963 1.96035 0.0804875 0
M  V30 54 O 5.3213 1.92834 0.982042 0
M  V30 55 C 5.9163 2.47442 -2.31426 0
M  V30 56 C 4.4753 3.00789 -2.26281 0
M  V30 57 C 3.6223 1.73896 -2.15999 0
M  V30 58 H 6.5733 0.586928 -1.47448 0
M  V30 59 H 6.5943 3.2656 -1.95291 0
M  V30 60 H 6.1063 2.03791 -3.30289 0
M  V30 61 H 4.2073 3.48851 -1.30896 0
M  V30 62 H 4.3203 3.57343 -3.19128 0
M  V30 63 H 2.6843 1.9628 -1.62316 0
M  V30 64 H 3.4673 1.32368 -3.16755 0
M  V30 65 N 5.9124 1.20967 1.01018 0
M  V30 66 C 7.1374 1.0503 1.78839 0
M  V30 67 C 7.5624 -0.395752 1.8389 0
M  V30 68 O 6.9204 -1.28529 1.27867 0
M  V30 69 C 6.9684 1.64602 3.2084 0
M  V30 70 O 6.0724 0.887988 4.02726 0
M  V30 71 H 5.4134 0.369987 0.551367 0
M  V30 72 H 7.9434 1.60399 1.27018 0
M  V30 73 H 7.9534 1.68607 3.71532 0
M  V30 74 H 6.6284 2.69841 3.16479 0
M  V30 75 H 5.2054 0.922648 3.61305 0
M  V30 76 N 7.3905 -1.2043 1.01659 0
M  V30 77 C 8.3205 -2.25466 0.607226 0
M  V30 78 C 9.3015 -1.65853 -0.377716 0
M  V30 79 O 10.4865 -1.92409 -0.263149 0
M  V30 80 C 7.6165 -3.47256 -0.0552949 0
M  V30 81 C 6.5705 -4.19462 0.850632 0
M  V30 82 C 5.8965 -5.34673 0.0538859 0
M  V30 83 C 7.1965 -4.75603 2.15868 0
M  V30 84 H 8.8905 -2.59962 1.48526 0
M  V30 85 H 6.4365 -1.2496 0.715605 0
M  V30 86 H 8.3895 -4.19917 -0.353233 0
M  V30 87 H 7.1135 -3.11924 -0.968045 0
M  V30 88 H 5.7725 -3.48667 1.13257 0
M  V30 89 H 5.4205 -4.95585 -0.860514 0
M  V30 90 H 5.1205 -5.83913 0.657192 0
M  V30 91 H 6.6445 -6.10138 -0.237598 0
M  V30 92 H 8.0585 -5.40083 1.92311 0
M  V30 93 H 6.4555 -5.3528 2.71284 0
M  V30 94 H 7.5255 -3.94346 2.82169 0
M  V30 95 N 8.8686 -0.792821 -1.36206 0
M  V30 96 C 10.1156 -0.366786 -1.99151 0
M  V30 97 C 10.4436 1.06243 -1.62919 0
M  V30 98 O 9.6986 1.74927 -0.877442 0
M  V30 99 C 9.9976 -0.481501 -3.54142 0
M  V30 100 C 9.6636 -1.87202 -4.10203 0
M  V30 101 C 8.3256 -2.25248 -4.25226 0
M  V30 102 C 10.6776 -2.78237 -4.40719 0
M  V30 103 C 8.0056 -3.53723 -4.68078 0
M  V30 104 C 10.3576 -4.06144 -4.85005 0
M  V30 105 C 9.0216 -4.44207 -4.98234 0
M  V30 106 H 8.2916 -0.134217 -0.728743 0
M  V30 107 H 10.9386 -1.01094 -1.62641 0
M  V30 108 H 9.2436 0.246146 -3.91026 0
M  V30 109 H 10.9406 -0.132844 -4.0078 0
M  V30 110 H 7.5306 -1.56639 -3.98951 0
M  V30 111 H 11.7146 -2.50097 -4.28679 0
M  V30 112 H 6.9706 -3.8308 -4.76508 0
M  V30 113 H 11.1446 -4.76796 -5.07581 0
M  V30 114 H 8.7716 -5.43814 -5.31197 0
M  V30 115 N 10.3467 1.47872 -0.545128 0
M  V30 116 C 11.3097 2.28337 0.198717 0
M  V30 117 C 12.3097 1.36255 0.853888 0
M  V30 118 O 13.4997 1.59003 0.711606 0
M  V30 119 C 10.6317 3.15585 1.28915 0
M  V30 120 H 11.8247 2.95567 -0.507941 0
M  V30 121 H 9.3777 1.53362 -0.301616 0
M  V30 122 H 10.1127 2.53019 2.02859 0
M  V30 123 H 9.8977 3.83337 0.824309 0
M  V30 124 H 11.3877 3.76243 1.81194 0
M  V30 125 N 11.8248 0.280983 1.55075 0
M  V30 126 C 13.2358 -0.215629 1.85451 0
M  V30 127 C 13.5868 -1.54991 1.203 0
M  V30 128 O 12.7118 -2.10699 0.493435 0
M  V30 129 C 13.3068 -0.398026 3.36454 0
M  V30 130 C 11.8658 -0.838866 3.66933 0
M  V30 131 C 11.0128 0.064458 2.77225 0
M  V30 132 H 13.9638 0.502601 1.50531 0
M  V30 133 H 13.9848 -1.23569 3.59876 0
M  V30 134 H 13.4968 0.573241 3.83843 0
M  V30 135 H 11.5978 -1.8214 3.25048 0
M  V30 136 H 11.7108 -0.672123 4.74362 0
M  V30 137 H 10.0748 -0.452863 2.50642 0
M  V30 138 H 10.8578 1.03172 3.2743 0
M  V30 139 N 13.3029 -1.57598 0.00835791 0
M  V30 140 C 14.2329 -2.1198 -0.979113 0
M  V30 141 C 15.2139 -1.03091 -1.35301 0
M  V30 142 O 16.3989 -1.30818 -1.43528 0
M  V30 143 C 13.5289 -2.62995 -2.26828 0
M  V30 144 C 12.4829 -3.76485 -2.03576 0
M  V30 145 C 11.8089 -4.13846 -3.38579 0
M  V30 146 C 13.1089 -5.0342 -1.39161 0
M  V30 147 H 14.8029 -2.94738 -0.526281 0
M  V30 148 H 12.3489 -1.41783 -0.251704 0
M  V30 149 H 14.3019 -2.99669 -2.96271 0
M  V30 150 H 13.0259 -1.7737 -2.7424 0
M  V30 151 H 11.6849 -3.40217 -1.36557 0
M  V30 152 H 11.3329 -3.25232 -3.83709 0
M  V30 153 H 11.0329 -4.90312 -3.23834 0
M  V30 154 H 12.5569 -4.53086 -4.09323 0
M  V30 155 H 13.9709 -5.37812 -1.98573 0
M  V30 156 H 12.3679 -5.84746 -1.34878 0
M  V30 157 H 13.4379 -4.83548 -0.361868 0
M  V30 158 N 14.781 0.264519 -1.55364 0
M  V30 159 C 16.058 1.01677 -1.67096 0
M  V30 160 C 16.438 2.03996 -0.543015 0
M  V30 161 O 15.786 2.23907 0.45585 0
M  V30 162 C 15.996 1.66596 -3.0667 0
M  V30 163 C 17.344 2.17442 -3.64697 0
M  V30 164 O 18.368 1.76568 -3.09358 0
M  V30 165 O 17.227 2.92439 -4.61673 0
M  V30 166 H 14.321 0.472161 -0.678965 0
M  V30 167 H 16.867 0.259703 -1.67701 0
M  V30 168 H 15.639 0.924962 -3.80211 0
M  V30 169 H 15.262 2.48968 -3.10001 0
M  V30 170 N 16.2591 1.48442 0.529413 0
M  V30 171 C 17.1891 1.65902 1.64313 0
M  V30 172 C 18.1701 0.507897 1.6234 0
M  V30 173 O 19.3551 0.740503 1.79528 0
M  V30 174 C 16.4851 1.69911 3.02898 0
M  V30 175 C 15.4391 2.8453 3.19729 0
M  V30 176 C 14.7651 2.73629 4.59381 0
M  V30 177 C 16.0651 4.25821 3.02447 0
M  V30 178 H 17.7591 2.5914 1.49955 0
M  V30 179 H 15.3051 1.24709 0.719982 0
M  V30 180 H 17.2581 1.80715 3.80684 0
M  V30 181 H 15.9821 0.732524 3.18279 0
M  V30 182 H 14.6411 2.73283 2.44361 0
M  V30 183 H 14.2891 1.74938 4.71599 0
M  V30 184 H 13.9891 3.50541 4.71588 0
M  V30 185 H 15.5131 2.86401 5.39265 0
M  V30 186 H 16.9271 4.37898 3.70024 0
M  V30 187 H 15.3241 5.03735 3.26146 0
M  V30 188 H 16.3941 4.42244 1.98867 0
M  V30 189 N 17.7372 -0.778329 1.37039 0
M  V30 190 C 18.9852 -1.53361 1.31623 0
M  V30 191 C 19.3062 -1.94739 -0.100831 0
M  V30 192 O 18.5762 -1.65797 -1.04347 0
M  V30 193 H 17.1562 -0.568794 0.484234 0
M  V30 194 H 19.8182 -0.926742 1.71457 0
M  V30 195 H 18.9142 -2.43606 1.95096 0
M  V30 196 N 19.2153 -1.21501 -1.00376 0
M  V30 197 C 20.4623 -1.03299 -1.74171 0
M  V30 198 C 20.7903 0.433326 -1.89612 0
M  V30 199 O 20.0453 1.33779 -1.42834 0
M  V30 200 C 20.3443 -1.67673 -3.15627 0
M  V30 201 C 20.0103 -3.17533 -3.2013 0
M  V30 202 C 18.6723 -3.58427 -3.21067 0
M  V30 203 C 21.0243 -4.13504 -3.17275 0
M  V30 204 C 18.3523 -4.93794 -3.16835 0
M  V30 205 C 20.7043 -5.48834 -3.14585 0
M  V30 206 C 19.3683 -5.89123 -3.13831 0
M  V30 207 H 18.6383 -0.377999 -0.637336 0
M  V30 208 H 21.2853 -1.51111 -1.17634 0
M  V30 209 H 19.5903 -1.12158 -3.75404 0
M  V30 210 H 21.2873 -1.51091 -3.71446 0
M  V30 211 H 17.8773 -2.84965 -3.20145 0
M  V30 212 H 22.0613 -3.82936 -3.15711 0
M  V30 213 H 17.3173 -5.24255 -3.1459 0
M  V30 214 H 21.4913 -6.22934 -3.1133 0
M  V30 215 H 19.1183 -6.93984 -3.10307 0
M  V30 216 N 20.6934 1.19889 -1.02296 0
M  V30 217 C 21.9214 1.9339 -0.735399 0
M  V30 218 C 22.3364 1.75148 0.704887 0
M  V30 219 O 21.6934 1.06954 1.47875 0
M  V30 220 C 21.7444 3.45313 -1.06962 0
M  V30 221 O 21.4654 3.62964 -2.45334 0
M  V30 222 C 22.9664 4.35948 -0.804021 0
M  V30 223 H 20.1864 0.61448 -0.269546 0
M  V30 224 H 22.7304 1.522 -1.36585 0
M  V30 225 H 20.8854 3.84359 -0.484455 0
M  V30 226 H 21.2994 4.56886 -2.57595 0
M  V30 227 H 22.7734 5.41174 -1.0879 0
M  V30 228 H 23.2504 4.3842 0.261691 0
M  V30 229 H 23.8564 4.02574 -1.37164 0
M  V30 230 N 22.1715 0.800033 1.35784 0
M  V30 231 C 23.3995 0.389606 2.03199 0
M  V30 232 C 23.8145 -0.997375 1.60306 0
M  V30 233 O 23.1715 -1.64154 0.797481 0
M  V30 234 C 23.2225 0.455855 3.58614 0
M  V30 235 O 22.9435 1.78815 3.99946 0
M  V30 236 C 24.4445 0.0374032 4.43284 0
M  V30 237 H 21.6645 0.159132 0.651857 0
M  V30 238 H 24.2085 1.08183 1.73541 0
M  V30 239 H 22.3635 -0.188057 3.86943 0
M  V30 240 H 22.7775 1.74636 4.94573 0
M  V30 241 H 24.2515 0.134882 5.51835 0
M  V30 242 H 24.7285 -1.01651 4.27275 0
M  V30 243 H 25.3345 0.654215 4.20238 0
M  V30 244 N 23.6496 -1.47581 0.552962 0
M  V30 245 C 24.5796 -2.32762 -0.185451 0
M  V30 246 C 25.5606 -1.43527 -0.912905 0
M  V30 247 O 26.7456 -1.72388 -0.894201 0
M  V30 248 C 23.8756 -3.25219 -1.21859 0
M  V30 249 C 22.8296 -4.23661 -0.607864 0
M  V30 250 C 22.1556 -5.05413 -1.74533 0
M  V30 251 C 23.4556 -5.20481 0.435582 0
M  V30 252 H 25.1496 -2.94749 0.525684 0
M  V30 253 H 22.6956 -1.41738 0.254251 0
M  V30 254 H 24.6486 -3.8365 -1.7433 0
M  V30 255 H 23.3726 -2.61279 -1.95961 0
M  V30 256 H 22.0316 -3.66451 -0.104489 0
M  V30 257 H 21.6796 -4.3788 -2.47529 0
M  V30 258 H 21.3796 -5.72059 -1.34249 0
M  V30 259 H 22.9036 -5.66701 -2.27338 0
M  V30 260 H 24.3176 -5.733 -0.00290157 0
M  V30 261 H 22.7146 -5.95305 0.757067 0
M  V30 262 H 23.7846 -4.66217 1.33303 0
M  V30 263 N 25.1277 -0.289203 -1.54924 0
M  V30 264 C 26.0747 0.592115 -2.23075 0
M  V30 265 C 27.0447 1.13881 -1.20915 0
M  V30 266 O 28.2297 1.18551 -1.495 0
M  V30 267 C 25.3697 1.76376 -2.96623 0
M  V30 268 C 24.4827 1.24959 -4.13533 0
M  V30 269 C 23.6177 2.38416 -4.74691 0
M  V30 270 C 22.6567 1.84072 -5.83767 0
M  V30 271 N 21.7937 2.91057 -6.38929 0
M  V30 272 H 26.6337 0.00432038 -2.98 0
M  V30 273 H 24.1707 -0.00963529 -1.47097 0
M  V30 274 H 26.1287 2.45268 -3.3749 0
M  V30 275 H 24.7587 2.32337 -2.24097 0
M  V30 276 H 23.8107 0.453307 -3.77689 0
M  V30 277 H 25.1227 0.811662 -4.92152 0
M  V30 278 H 24.2767 3.15276 -5.18349 0
M  V30 279 H 23.0157 2.8553 -3.95378 0
M  V30 280 H 22.0207 1.05697 -5.39545 0
M  V30 281 H 23.2457 1.37877 -6.64956 0
M  V30 282 H 21.1917 3.37526 -5.62505 0
M  V30 283 H 21.1087 2.51724 -7.12861 0
M  V30 284 H 22.3767 3.6785 -6.87246 0
M  V30 285 N 26.6058 1.57591 -0.0167156 0
M  V30 286 C 27.5538 2.10604 0.987353 0
M  V30 287 C 28.5478 1.02977 1.34507 0
M  V30 288 O 29.7538 1.21425 1.32875 0
M  V30 289 H 26.1288 0.672695 0.336134 0
M  V30 290 H 28.0998 2.93925 0.514817 0
M  V30 291 C 26.8488 2.6382 2.26483 0
M  V30 292 H 26.1718 3.46278 1.99829 0
M  V30 293 H 27.6118 3.04573 2.94977 0
M  V30 294 C 26.0708 1.55992 2.9861 0
M  V30 295 O 26.6008 0.952521 3.90243 0
M  V30 296 N 24.8068 1.28335 2.60727 0
M  V30 297 H 24.3538 1.77914 1.86291 0
M  V30 298 H 24.3118 0.564115 3.09298 0
M  V30 299 N 28.0839 -0.256276 1.55502 0
M  V30 300 C 29.4999 -0.604325 1.47716 0
M  V30 301 C 29.6999 -1.88763 0.705039 0
M  V30 302 O 28.7559 -2.51445 0.230613 0
M  V30 303 C 30.0689 -0.715756 2.92057 0
M  V30 304 C 31.6169 -0.808706 3.02372 0
M  V30 305 C 32.0919 -0.951777 4.48001 0
M  V30 306 N 33.5829 -1.01688 4.519 0
M  V30 307 C 34.3179 -1.14668 5.61817 0
M  V30 308 N 33.8139 -1.24261 6.81565 0
M  V30 309 N 35.6069 -1.1791 5.49594 0
M  V30 310 H 27.7579 0.586291 2.04148 0
M  V30 311 H 30.0209 0.201015 0.926443 0
M  V30 312 H 29.7269 0.157027 3.51349 0
M  V30 313 H 29.6009 -1.59071 3.42018 0
M  V30 314 H 31.9879 -1.67195 2.43166 0
M  V30 315 H 32.0689 0.0912063 2.55637 0
M  V30 316 H 31.7129 -0.0931291 5.07815 0
M  V30 317 H 31.6429 -1.86659 4.92408 0
M  V30 318 H 34.1339 -0.954468 3.65648 0
M  V30 319 H 34.4469 -1.34046 7.61086 0
M  V30 320 H 32.7919 -1.21236 6.84344 0
M  V30 321 H 35.9829 -1.10057 4.54978 0
M  V30 322 H 36.1559 -1.27681 6.35296 0
M  V30 323 N 29.562 -1.4872 -0.521534 0
M  V30 324 C 30.808 -1.574 -1.27879 0
M  V30 325 C 31.141 -0.250817 -1.92573 0
M  V30 326 O 30.416 0.743934 -1.79711 0
M  V30 327 C 30.699 -2.71843 -2.36164 0
M  V30 328 C 30.552 -4.13893 -1.76105 0
M  V30 329 C 31.871 -2.82008 -3.37875 0
M  V30 330 H 28.99 -0.572941 -0.463581 0
M  V30 331 H 31.632 -1.80927 -0.580119 0
M  V30 332 H 29.782 -2.51914 -2.95756 0
M  V30 333 H 31.454 -4.45284 -1.20499 0
M  V30 334 H 29.697 -4.20498 -1.06601 0
M  V30 335 H 30.368 -4.89804 -2.5455 0
M  V30 336 H 32.844 -3.00086 -2.88249 0
M  V30 337 H 31.72 -3.63796 -4.11028 0
M  V30 338 H 31.981 -1.90511 -3.98946 0
M  V30 339 N 31.0401 0.771051 -1.3745 0
M  V30 340 C 31.9701 1.89827 -1.3597 0
M  V30 341 C 32.9511 1.68562 -0.228216 0
M  V30 342 O 34.1361 1.8941 -0.428675 0
M  V30 343 C 31.2661 3.2712 -1.16662 0
M  V30 344 C 30.2201 3.6295 -2.2683 0
M  V30 345 C 29.5461 4.98791 -1.92644 0
M  V30 346 C 30.8461 3.69627 -3.69017 0
M  V30 347 H 32.5401 1.91323 -2.30295 0
M  V30 348 H 30.0861 0.919082 -1.10855 0
M  V30 349 H 32.0391 4.05615 -1.14256 0
M  V30 350 H 30.7631 3.26059 -0.187926 0
M  V30 351 H 29.4221 2.86763 -2.28392 0
M  V30 352 H 29.0701 4.94271 -0.933021 0
M  V30 353 H 28.7701 5.23733 -2.66416 0
M  V30 354 H 30.2941 5.79685 -1.91826 0
M  V30 355 H 31.7081 4.38273 -3.69581 0
M  V30 356 H 30.1051 4.06067 -4.41848 0
M  V30 357 H 31.1751 2.70273 -4.02592 0
M  V30 358 N 32.5182 1.22032 0.997298 0
M  V30 359 C 33.4512 0.929735 2.08401 0
M  V30 360 C 34.4292 -0.125681 1.62114 0
M  V30 361 O 35.6132 0.00495409 1.88499 0
M  V30 362 C 32.7402 0.397488 3.3636 0
M  V30 363 C 31.7862 1.4369 4.01566 0
M  V30 364 S 32.6192 3.00874 4.42984 0
M  V30 365 C 33.7752 2.49276 5.74119 0
M  V30 366 H 34.0082 1.84998 2.32729 0
M  V30 367 H 31.5412 1.0509 1.13117 0
M  V30 368 H 33.4992 0.0969846 4.10385 0
M  V30 369 H 32.1602 -0.501571 3.10069 0
M  V30 370 H 31.3532 1.01427 4.93689 0
M  V30 371 H 30.9552 1.68588 3.33847 0
M  V30 372 H 33.2472 1.90242 6.50242 0
M  V30 373 H 34.1902 3.39872 6.21203 0
M  V30 374 H 34.5982 1.90714 5.31308 0
M  V30 375 N 33.9963 -1.19345 1.0293 0
M  V30 376 C 35.2443 -1.88665 0.724574 0
M  V30 377 C 35.5653 -1.80036 -0.749144 0
M  V30 378 O 34.8353 -1.2111 -1.53978 0
M  V30 379 H 33.4153 -0.698406 0.265025 0
M  V30 380 H 36.0773 -1.44885 1.30362 0
M  V30 381 H 35.1733 -2.94987 1.01926 0
M  V30 382 N 35.4744 -0.807222 -1.35358 0
M  V30 383 C 36.6994 -0.399309 -2.0352 0
M  V30 384 C 37.1244 0.981986 -1.60433 0
M  V30 385 O 36.4824 1.63601 -0.781299 0
M  V30 386 C 36.5304 -0.491552 -3.57234 0
M  V30 387 O 35.6344 0.494754 -4.09421 0
M  V30 388 H 34.9754 -0.166682 -0.642739 0
M  V30 389 H 37.5054 -1.09328 -1.72941 0
M  V30 390 H 37.5154 -0.361588 -4.06395 0
M  V30 391 H 36.1904 -1.49907 -3.87944 0
M  V30 392 H 34.7674 0.324977 -3.71481 0
M  V30 393 N 36.9525 1.47285 -0.560781 0
M  V30 394 C 37.8855 2.27009 0.232821 0
M  V30 395 C 38.8635 1.34273 0.917039 0
M  V30 396 O 40.0475 1.63659 0.935315 0
M  V30 397 C 37.1745 3.11406 1.33206 0
M  V30 398 C 36.2205 4.19746 0.756019 0
M  V30 399 S 37.0535 5.34003 -0.400165 0
M  V30 400 C 38.2095 6.21964 0.700805 0
M  V30 401 H 38.4425 2.93971 -0.443683 0
M  V30 402 H 35.9755 1.50446 -0.347181 0
M  V30 403 H 37.9335 3.60601 1.96156 0
M  V30 404 H 36.5945 2.438 1.98041 0
M  V30 405 H 35.7875 4.78541 1.5816 0
M  V30 406 H 35.3895 3.73451 0.202619 0
M  V30 407 H 37.6815 6.58529 1.59202 0
M  V30 408 H 38.6245 7.07941 0.150126 0
M  V30 409 H 39.0325 5.5566 0.995083 0
M  V30 410 N 38.4306 0.297415 1.54768 0
M  V30 411 C 39.3806 -0.595275 2.20092 0
M  V30 412 C 40.3646 -1.10163 1.17273 0
M  V30 413 O 41.5566 -1.043 1.43006 0
M  V30 414 C 38.6856 -1.7684 2.94249 0
M  V30 415 C 37.7716 -1.27818 4.0438 0
M  V30 416 N 38.1626 -0.505695 5.03266 0
M  V30 417 C 36.4606 -1.55923 4.17857 0
M  V30 418 C 37.1616 -0.245094 5.81183 0
M  V30 419 N 36.1376 -0.823881 5.3732 0
M  V30 420 H 39.9396 0.00250837 2.939 0
M  V30 421 H 37.4536 0.102007 1.62079 0
M  V30 422 H 39.4506 -2.41944 3.39513 0
M  V30 423 H 38.1106 -2.36992 2.21957 0
M  V30 424 H 39.1216 -0.150928 5.1768 0
M  V30 425 H 35.7986 -2.16849 3.56767 0
M  V30 426 H 37.1886 0.375084 6.70852 0
M  V30 427 N 39.9087 -1.5758 0.0250728 0
M  V30 428 C 41.1367 -1.9593 -0.664747 0
M  V30 429 C 41.5517 -0.901352 -1.65895 0
M  V30 430 O 40.9087 0.117255 -1.82123 0
M  V30 431 C 40.9597 -3.34342 -1.37468 0
M  V30 432 O 40.6807 -4.36079 -0.420324 0
M  V30 433 C 42.1817 -3.873 -2.1567 0
M  V30 434 H 39.4017 -0.645405 -0.183557 0
M  V30 435 H 41.9457 -2.04329 0.0836372 0
M  V30 436 H 40.1007 -3.27175 -2.0745 0
M  V30 437 H 40.5147 -5.16297 -0.923991 0
M  V30 438 H 41.9887 -4.86504 -2.60803 0
M  V30 439 H 42.4657 -3.21331 -2.99405 0
M  V30 440 H 43.0717 -3.97723 -1.50654 0
M  V30 441 N 41.3868 0.248026 -1.55636 0
M  V30 442 C 42.6348 0.974295 -1.77065 0
M  V30 443 C 42.9558 1.85897 -0.588849 0
M  V30 444 O 42.2258 1.91868 0.395407 0
M  V30 445 H 40.8058 0.362733 -0.653019 0
M  V30 446 H 43.4678 0.266244 -1.93073 0
M  V30 447 H 42.5638 1.59667 -2.68166 0
M  V30 448 N 42.8649 1.48995 0.513639 0
M  V30 449 C 43.7949 1.67636 1.62544 0
M  V30 450 C 44.7759 0.525087 1.61793 0
M  V30 451 O 45.9609 0.759502 1.78732 0
M  V30 452 C 43.0909 1.73114 3.01079 0
M  V30 453 C 42.0449 2.87905 3.16693 0
M  V30 454 C 41.3709 2.78486 4.56453 0
M  V30 455 C 42.6709 4.29005 2.97913 0
M  V30 456 H 44.3649 2.60716 1.47198 0
M  V30 457 H 41.9109 1.25465 0.706714 0
M  V30 458 H 43.8639 1.84742 3.78746 0
M  V30 459 H 42.5879 0.766241 3.17484 0
M  V30 460 H 41.2469 2.75859 2.41448 0
M  V30 461 H 40.8949 1.7993 4.69717 0
M  V30 462 H 40.5949 3.55523 4.67843 0
M  V30 463 H 42.1189 2.92104 5.36197 0
M  V30 464 H 43.5329 4.41798 3.65359 0
M  V30 465 H 41.9299 5.07166 3.20785 0
M  V30 466 H 42.9999 4.44329 1.94165 0
M  V30 467 N 44.343 -0.763751 1.37857 0
M  V30 468 C 45.253 -1.90817 1.36478 0
M  V30 469 C 46.269 -1.71997 0.263248 0
M  V30 470 O 47.445 -1.95095 0.499979 0
M  V30 471 C 44.51 -3.2605 1.17864 0
M  V30 472 C 43.571 -3.57467 2.3773 0
M  V30 473 C 42.804 -4.86249 2.19995 0
M  V30 474 O 43.027 -5.57884 1.18836 0
M  V30 475 O 41.961 -5.16911 3.08361 0
M  V30 476 H 45.787 -1.94933 2.32884 0
M  V30 477 H 43.372 -0.907619 1.1867 0
M  V30 478 H 45.254 -4.06924 1.09504 0
M  V30 479 H 43.929 -3.22769 0.245372 0
M  V30 480 H 42.836 -2.76796 2.51664 0
M  V30 481 H 44.169 -3.655 3.29652 0
M  V30 482 N 45.8211 -1.22559 -0.990812 0
M  V30 483 C 46.7311 -1.01394 -2.11557 0
M  V30 484 C 47.7471 0.0383962 -1.73958 0
M  V30 485 O 48.9231 -0.154787 -2.00804 0
M  V30 486 C 45.9881 -0.596569 -3.41529 0
M  V30 487 C 45.0491 -1.72276 -3.93217 0
M  V30 488 C 44.2821 -1.32521 -5.16985 0
M  V30 489 O 44.5051 -0.204909 -5.70032 0
M  V30 490 O 43.4391 -2.14247 -5.62478 0
M  V30 491 H 47.2651 -1.95633 -2.32296 0
M  V30 492 H 44.8501 -1.01172 -1.0993 0
M  V30 493 H 46.7321 -0.374263 -4.19735 0
M  V30 494 H 45.4071 0.316939 -3.22145 0
M  V30 495 H 44.3141 -1.99961 -3.16174 0
M  V30 496 H 45.6471 -2.61421 -4.17037 0
M  V30 497 N 47.2992 1.18797 -1.03562 0
M  V30 498 C 48.5292 1.92319 -0.754773 0
M  V30 499 C 48.9372 1.7612 0.691248 0
M  V30 500 O 48.2802 1.08491 1.48241 0
M  V30 501 C 48.3422 3.44284 -1.03484 0
M  V30 502 C 48.0062 3.84258 -2.47376 0
M  V30 503 C 49.0032 3.88459 -3.45537 0
M  V30 504 C 46.6882 4.15701 -2.81954 0
M  V30 505 C 48.6822 4.23545 -4.76328 0
M  V30 506 C 46.3692 4.50458 -4.12954 0
M  V30 507 C 47.3672 4.54356 -5.09951 0
M  V30 508 O 47.0552 4.88305 -6.38603 0
M  V30 509 H 46.7872 0.617527 -0.275021 0
M  V30 510 H 49.3412 1.51683 -1.38497 0
M  V30 511 H 47.5712 3.85135 -0.347513 0
M  V30 512 H 49.2602 3.99049 -0.7426 0
M  V30 513 H 50.0262 3.6431 -3.20162 0
M  V30 514 H 45.9052 4.11847 -2.0713 0
M  V30 515 H 49.4492 4.26502 -5.52035 0
M  V30 516 H 45.3462 4.74067 -4.38099 0
M  V30 517 H 46.1142 5.06227 -6.43177 0
M  V30 518 N 48.7773 0.814389 1.34928 0
M  V30 519 C 50.1883 0.458364 1.80986 0
M  V30 520 C 50.5393 -1.02042 1.67577 0
M  V30 521 O 49.6643 -1.79352 1.21086 0
M  V30 522 C 50.2593 0.825212 3.28597 0
M  V30 523 C 48.8183 0.521677 3.72767 0
M  V30 524 C 47.9653 1.04668 2.56788 0
M  V30 525 H 50.9163 1.00533 1.22795 0
M  V30 526 H 50.9373 0.12571 3.80292 0
M  V30 527 H 50.4493 1.90154 3.38324 0
M  V30 528 H 48.5503 -0.545589 3.68584 0
M  V30 529 H 48.6633 1.05977 4.67232 0
M  V30 530 H 47.0273 0.468622 2.50352 0
M  V30 531 H 47.8103 2.12927 2.6929 0
M  V30 532 N 50.2554 -1.46986 0.568584 0
M  V30 533 C 51.5324 -1.95592 -0.0174074 0
M  V30 534 C 51.9124 -1.51124 -1.47393 0
M  V30 535 O 51.2604 -0.755329 -2.15655 0
M  V30 536 C 51.4704 -3.48719 0.139913 0
M  V30 537 C 52.8184 -4.246 0.000426376 0
M  V30 538 O 53.8424 -3.56135 0.0680316 0
M  V30 539 O 52.7014 -5.46302 -0.146988 0
M  V30 540 H 49.7954 -0.82498 -0.0577599 0
M  V30 541 H 52.3414 -1.57335 0.635909 0
M  V30 542 H 51.1134 -3.73927 1.15301 0
M  V30 543 H 50.7364 -3.93771 -0.550491 0
M  V30 544 N 51.7335 -0.305618 -1.54608 0
M  V30 545 C 52.9815 0.301701 -1.99835 0
M  V30 546 C 53.3025 1.54054 -1.19551 0
M  V30 547 O 52.5725 1.93702 -0.292658 0
M  V30 548 H 51.1525 0.114468 -0.738178 0
M  V30 549 H 53.8145 -0.418016 -1.90364 0
M  V30 550 H 52.9105 0.570548 -3.06841 0
M  V30 551 N 53.2116 1.57565 -0.0334293 0
M  V30 552 C 54.1746 2.09393 0.932048 0
M  V30 553 C 55.1746 1.00986 1.25134 0
M  V30 554 O 56.3646 1.27129 1.19096 0
M  V30 555 C 53.4966 2.56338 2.2473 0
M  V30 556 H 54.6896 2.95984 0.483085 0
M  V30 557 H 52.2426 1.54819 0.21468 0
M  V30 558 H 52.9776 1.7309 2.74245 0
M  V30 559 H 52.7626 3.35542 2.02865 0
M  V30 560 H 54.2526 2.96646 2.93923 0
M  V30 561 N 54.6897 -0.239769 1.55765 0
M  V30 562 C 55.5997 -1.31831 1.94056 0
M  V30 563 C 56.6157 -1.52275 0.841925 0
M  V30 564 O 57.7917 -1.65759 1.14394 0
M  V30 565 C 54.8567 -2.65156 2.23368 0
M  V30 566 C 53.9177 -2.53173 3.46701 0
M  V30 567 C 53.1507 -3.8014 3.74606 0
M  V30 568 O 53.3737 -4.82343 3.04469 0
M  V30 569 O 52.3077 -3.78344 4.68123 0
M  V30 570 H 56.1337 -1.02347 2.85935 0
M  V30 571 H 53.7187 -0.441123 1.42739 0
M  V30 572 H 55.6007 -3.43929 2.43497 0
M  V30 573 H 54.2757 -2.94358 1.34666 0
M  V30 574 H 53.1827 -1.72662 3.31871 0
M  V30 575 H 54.5157 -2.28915 4.35728 0
M  V30 576 N 56.1678 -1.49265 -0.50573 0
M  V30 577 C 57.5838 -1.35923 -0.836486 0
M  V30 578 C 57.7838 -0.388704 -1.97715 0
M  V30 579 O 56.8398 0.181336 -2.51848 0
M  V30 580 C 58.1528 -2.76531 -1.18115 0
M  V30 581 C 59.7008 -2.85197 -1.28964 0
M  V30 582 C 60.1758 -4.26561 -1.66761 0
M  V30 583 N 61.6668 -4.2935 -1.73819 0
M  V30 584 C 62.4018 -5.35693 -2.045 0
M  V30 585 N 61.8978 -6.52287 -2.33438 0
M  V30 586 N 63.6908 -5.23105 -2.05711 0
M  V30 587 H 55.8418 -2.10965 0.246519 0
M  V30 588 H 58.1048 -0.9468 0.0476887 0
M  V30 589 H 57.8108 -3.49226 -0.416398 0
M  V30 590 H 57.6848 -3.11599 -2.1257 0
M  V30 591 H 60.0718 -2.12742 -2.04511 0
M  V30 592 H 60.1528 -2.53718 -0.325704 0
M  V30 593 H 59.7968 -4.99541 -0.917656 0
M  V30 594 H 59.7268 -4.55502 -2.64246 0
M  V30 595 H 62.2178 -3.4526 -1.53635 0
M  V30 596 H 62.5308 -7.29158 -2.56024 0
M  V30 597 H 60.8758 -6.55521 -2.30905 0
M  V30 598 H 64.0668 -4.31026 -1.82577 0
M  V30 599 H 64.2398 -6.06078 -2.29289 0
M  V30 600 N 57.6459 0.756429 -1.3826 0
M  V30 601 C 58.5759 1.88374 -1.37976 0
M  V30 602 C 59.5569 1.68311 -0.246082 0
M  V30 603 O 60.7419 1.88944 -0.44874 0
M  V30 604 C 57.8719 3.25864 -1.20125 0
M  V30 605 C 56.8259 3.60523 -2.30666 0
M  V30 606 C 56.1519 4.9672 -1.97923 0
M  V30 607 C 57.4519 3.65692 -3.72916 0
M  V30 608 H 59.1459 1.88869 -2.32312 0
M  V30 609 H 56.6919 0.907272 -1.11824 0
M  V30 610 H 58.6449 4.0438 -1.18552 0
M  V30 611 H 57.3689 3.25841 -0.222498 0
M  V30 612 H 56.0279 2.84324 -2.3142 0
M  V30 613 H 55.6759 4.93253 -0.985393 0
M  V30 614 H 55.3759 5.20878 -2.71955 0
M  V30 615 H 56.8999 5.77618 -1.97964 0
M  V30 616 H 58.3139 4.34328 -3.74208 0
M  V30 617 H 56.7109 4.01358 -4.4613 0
M  V30 618 H 57.7809 2.65987 -4.05436 0
M  V30 619 N 59.124 1.23083 0.984299 0
M  V30 620 C 60.087 1.00979 2.05757 0
M  V30 621 C 61.087 -0.0269573 1.60777 0
M  V30 622 O 62.277 0.212403 1.729 0
M  V30 623 C 59.409 0.527072 3.36801 0
M  V30 624 H 60.602 1.9622 2.26799 0
M  V30 625 H 58.155 1.05072 1.15714 0
M  V30 626 H 58.89 -0.429294 3.21446 0
M  V30 627 H 58.675 1.27515 3.70786 0
M  V30 628 H 60.165 0.392942 4.15747 0
M  V30 629 N 60.6021 -1.18246 1.0419 0
M  V30 630 C 61.5651 -2.20128 0.638452 0
M  V30 631 C 62.5651 -1.57885 -0.304805 0
M  V30 632 O 63.7551 -1.73967 -0.0900369 0
M  V30 633 C 60.8871 -3.4084 -0.0637751 0
M  V30 634 H 62.0801 -2.57336 1.54007 0
M  V30 635 H 59.6331 -1.32152 0.834598 0
M  V30 636 H 60.3681 -3.09166 -0.979136 0
M  V30 637 H 60.1531 -3.8726 0.614198 0
M  V30 638 H 61.6431 -4.16274 -0.332512 0
M  V30 639 N 62.0802 -0.821533 -1.34494 0
M  V30 640 C 63.3272 -0.408946 -1.98328 0
M  V30 641 C 63.6552 1.02764 -1.65136 0
M  V30 642 O 62.9102 1.73026 -0.914349 0
M  V30 643 C 63.2092 -0.556512 -3.53041 0
M  V30 644 C 62.8752 -1.95861 -4.0614 0
M  V30 645 C 61.5372 -2.34217 -4.20352 0
M  V30 646 C 63.8892 -2.87523 -4.34718 0
M  V30 647 C 61.2172 -3.63572 -4.6047 0
M  V30 648 C 63.5692 -4.1634 -4.76281 0
M  V30 649 C 62.2332 -4.54675 -4.88699 0
M  V30 650 H 61.5032 -0.149644 -0.725732 0
M  V30 651 H 64.1502 -1.04521 -1.6046 0
M  V30 652 H 62.4552 0.163148 -3.9146 0
M  V30 653 H 64.1522 -0.217826 -4.00408 0
M  V30 654 H 60.7422 -1.65066 -3.95539 0
M  V30 655 H 64.9262 -2.59133 -4.23277 0
M  V30 656 H 60.1822 -3.93101 -4.68275 0
M  V30 657 H 64.3562 -4.87455 -4.97354 0
M  V30 658 H 61.9832 -5.54959 -5.19542 0
M  V30 659 N 63.5583 1.46682 -0.576371 0
M  V30 660 C 64.7883 2.06498 -0.0648694 0
M  V30 661 C 65.1963 1.42665 1.24271 0
M  V30 662 O 64.5393 0.523886 1.76071 0
M  V30 663 C 64.6013 3.5904 0.181816 0
M  V30 664 C 64.2653 4.45028 -1.0392 0
M  V30 665 C 65.2623 4.81959 -1.94966 0
M  V30 666 C 62.9473 4.86259 -1.25927 0
M  V30 667 C 64.9413 5.58942 -3.06371 0
M  V30 668 C 62.6283 5.63002 -2.37638 0
M  V30 669 C 63.6263 5.99257 -3.2769 0
M  V30 670 O 63.3143 6.7445 -4.37461 0
M  V30 671 H 63.0463 0.674028 -0.0515987 0
M  V30 672 H 65.6003 1.89393 -0.794951 0
M  V30 673 H 63.8303 3.74429 0.966436 0
M  V30 674 H 65.5193 4.00806 0.641047 0
M  V30 675 H 66.2853 4.50689 -1.79177 0
M  V30 676 H 62.1643 4.57494 -0.567448 0
M  V30 677 H 65.7083 5.87158 -3.76684 0
M  V30 678 H 61.6053 5.93686 -2.53392 0
M  V30 679 H 62.3733 6.92867 -4.35749 0
M  V30 680 N 65.0364 0.313813 1.54444 0
M  V30 681 C 65.9994 -0.54379 2.22656 0
M  V30 682 C 66.9994 -1.05124 1.21678 0
M  V30 683 O 68.1894 -0.945225 1.46325 0
M  V30 684 C 65.3214 -1.75427 2.92298 0
M  V30 685 H 66.5144 0.0523599 2.99854 0
M  V30 686 H 64.0674 0.0647834 1.56166 0
M  V30 687 H 64.8024 -2.38991 2.19211 0
M  V30 688 H 64.5874 -1.39791 3.66334 0
M  V30 689 H 66.0774 -2.36325 3.44297 0
M  V30 690 N 66.5145 -1.57545 0.0417849 0
M  V30 691 C 67.4245 -2.14451 -0.951213 0
M  V30 692 C 68.4405 -1.09992 -1.34825 0
M  V30 693 O 69.6165 -1.42114 -1.42708 0
M  V30 694 C 66.6815 -2.67063 -2.21084 0
M  V30 695 C 65.7425 -3.86284 -1.87304 0
M  V30 696 C 64.9755 -4.36378 -3.07261 0
M  V30 697 O 65.1985 -3.85587 -4.20332 0
M  V30 698 O 64.1325 -5.28077 -2.88822 0
M  V30 699 H 67.9585 -2.99601 -0.497287 0
M  V30 700 H 65.5435 -1.48317 -0.179567 0
M  V30 701 H 67.4255 -3.00914 -2.95006 0
M  V30 702 H 66.1005 -1.84989 -2.65633 0
M  V30 703 H 65.0075 -3.57338 -1.10727 0
M  V30 704 H 66.3405 -4.6956 -1.47562 0
M  V30 705 N 67.9926 0.231505 -1.5589 0
M  V30 706 C 69.4086 0.580748 -1.48659 0
M  V30 707 C 69.6086 1.87617 -0.73498 0
M  V30 708 O 68.6646 2.51046 -0.270586 0
M  V30 709 C 69.9776 0.669202 -2.93159 0
M  V30 710 C 71.5256 0.760499 -3.03621 0
M  V30 711 C 72.0006 0.880383 -4.49459 0
M  V30 712 N 73.4916 0.944861 -4.53461 0
M  V30 713 C 74.2266 1.05716 -5.63571 0
M  V30 714 N 73.7226 1.13403 -6.83456 0
M  V30 715 N 75.5156 1.09152 -5.514 0
M  V30 716 H 67.6666 -0.618695 -2.03189 0
M  V30 717 H 69.9296 -0.215728 -0.923128 0
M  V30 718 H 69.6356 -0.212904 -3.51055 0
M  V30 719 H 69.5096 1.5361 -3.44505 0
M  V30 720 H 71.8966 1.63305 -2.45796 0
M  V30 721 H 71.9776 -0.131864 -2.5546 0
M  V30 722 H 71.6216 0.0123284 -5.07899 0
M  V30 723 H 71.5516 1.78802 -4.95316 0
M  V30 724 H 74.0426 0.896176 -3.6712 0
M  V30 725 H 74.3556 1.21921 -7.63122 0
M  V30 726 H 72.7006 1.10333 -6.86186 0
M  V30 727 H 75.8916 1.02805 -4.56671 0
M  V30 728 H 76.0646 1.17558 -6.37247 0
M  V30 729 N 69.4707 1.49531 0.497807 0
M  V30 730 C 70.4337 1.65916 1.58128 0
M  V30 731 C 71.4337 0.530825 1.51786 0
M  V30 732 O 72.6237 0.797342 1.54881 0
M  V30 733 C 69.7557 1.65951 2.9778 0
M  V30 734 H 70.9487 2.62556 1.44929 0
M  V30 735 H 68.5017 1.38611 0.722275 0
M  V30 736 H 69.2367 0.709065 3.16453 0
M  V30 737 H 69.0217 2.47897 3.03792 0
M  V30 738 H 70.5117 1.80673 3.76493 0
M  V30 739 N 70.9488 -0.749086 1.3866 0
M  V30 740 C 72.3648 -1.05276 1.19955 0
M  V30 741 C 72.5648 -2.01435 0.05134 0
M  V30 742 O 71.6208 -2.45232 -0.60147 0
M  V30 743 C 72.9338 -1.62853 2.52783 0
M  V30 744 C 74.4818 -1.75002 2.59506 0
M  V30 745 C 74.9568 -2.35991 3.92521 0
M  V30 746 N 76.4478 -2.43416 3.94085 0
M  V30 747 C 77.1828 -2.91511 4.9377 0
M  V30 748 N 76.6788 -3.39608 6.03853 0
M  V30 749 N 78.4718 -2.90592 4.81157 0
M  V30 750 H 70.6228 -0.111066 2.12109 0
M  V30 751 H 72.8858 -0.111901 0.941373 0
M  V30 752 H 72.5918 -0.99664 3.37283 0
M  V30 753 H 72.4658 -2.61854 2.715 0
M  V30 754 H 74.8528 -2.37317 1.75398 0
M  V30 755 H 74.9338 -0.74693 2.44652 0
M  V30 756 H 74.5778 -1.74308 4.77053 0
M  V30 757 H 74.5078 -3.3695 4.04688 0
M  V30 758 H 76.9988 -2.09405 3.14576 0
M  V30 759 H 77.3118 -3.74775 6.75843 0
M  V30 760 H 75.6568 -3.37653 6.07466 0
M  V30 761 H 78.8478 -2.52332 3.94267 0
M  V30 762 H 79.0208 -3.27762 5.58996 0
M  V30 763 N 72.4269 -1.23603 -0.977757 0
M  V30 764 C 73.3769 -0.986664 -2.05545 0
M  V30 765 C 74.3609 0.0683009 -1.60755 0
M  V30 766 O 75.5529 -0.144162 -1.76412 0
M  V30 767 C 72.6819 -0.582623 -3.3832 0
M  V30 768 C 71.7679 -1.67313 -3.89701 0
M  V30 769 N 72.1589 -2.90394 -4.14132 0
M  V30 770 C 70.4569 -1.54832 -4.18262 0
M  V30 771 C 71.1579 -3.61017 -4.56116 0
M  V30 772 N 70.1339 -2.8854 -4.60701 0
M  V30 773 H 73.9359 -1.92139 -2.22396 0
M  V30 774 H 71.4499 -1.1358 -1.16074 0
M  V30 775 H 73.4469 -0.38524 -4.15116 0
M  V30 776 H 72.1069 0.34503 -3.22862 0
M  V30 777 H 73.1179 -3.26673 -4.01877 0
M  V30 778 H 69.7949 -0.687969 -4.11793 0
M  V30 779 H 71.1849 -4.66544 -4.83514 0
M  V30 780 N 73.905 1.17692 -1.04816 0
M  V30 781 C 75.153 1.87488 -0.754497 0
M  V30 782 C 75.474 1.81205 0.720407 0
M  V30 783 O 74.744 1.23544 1.52032 0
M  V30 784 H 73.324 0.694101 -0.276102 0
M  V30 785 H 75.986 1.42793 -1.32651 0
M  V30 786 H 75.082 2.93328 -1.06606 0
M  V30 787 N 75.3831 0.828654 1.34056 0
M  V30 788 C 76.6291 0.42008 1.98402 0
M  V30 789 C 76.9621 -1.01564 1.65525 0
M  V30 790 O 76.2371 -1.70834 0.929831 0
M  V30 791 C 76.5201 0.62927 3.54559 0
M  V30 792 C 76.3731 2.11152 3.97159 0
M  V30 793 C 77.6921 0.0688756 4.40046 0
M  V30 794 H 74.8111 0.154104 0.720709 0
M  V30 795 H 77.4531 1.04228 1.5886 0
M  V30 796 H 75.6031 0.0996418 3.88372 0
M  V30 797 H 77.2751 2.70522 3.73651 0
M  V30 798 H 75.5181 2.59985 3.47261 0
M  V30 799 H 76.1891 2.20868 5.05887 0
M  V30 800 H 78.6651 0.521458 4.1282 0
M  V30 801 H 77.5411 0.245006 5.48353 0
M  V30 802 H 77.8021 -1.0266 4.30015 0
M  V30 803 N 76.8612 -1.46375 0.584142 0
M  V30 804 C 77.8242 -2.28784 -0.138108 0
M  V30 805 C 78.8242 -1.38471 -0.817462 0
M  V30 806 O 80.0142 -1.60833 -0.669199 0
M  V30 807 C 77.1462 -3.18892 -1.20503 0
M  V30 808 H 78.3392 -2.94117 0.586127 0
M  V30 809 H 75.8922 -1.52509 0.342171 0
M  V30 810 H 76.6272 -2.58309 -1.96079 0
M  V30 811 H 76.4122 -3.85388 -0.722384 0
M  V30 812 H 77.9022 -3.80914 -1.71155 0
M  V30 813 N 78.3393 -0.321999 -1.54275 0
M  V30 814 C 79.2693 0.537411 -2.27231 0
M  V30 815 C 80.2503 1.12064 -1.27968 0
M  V30 816 O 81.4353 1.14606 -1.56777 0
M  V30 817 C 78.5653 1.69919 -3.02894 0
M  V30 818 C 77.5193 1.24534 -4.09482 0
M  V30 819 C 76.8453 2.49394 -4.72977 0
M  V30 820 C 78.1453 0.361335 -5.21049 0
M  V30 821 H 79.8393 -0.0711406 -2.99315 0
M  V30 822 H 77.3853 -0.0356555 -1.43956 0
M  V30 823 H 79.3383 2.30668 -3.52662 0
M  V30 824 H 78.0623 2.33431 -2.28424 0
M  V30 825 H 76.7213 0.660782 -3.60596 0
M  V30 826 H 76.3693 3.11265 -3.95124 0
M  V30 827 H 76.0693 2.19718 -5.44975 0
M  V30 828 H 77.5933 3.10908 -5.25517 0
M  V30 829 H 79.0073 0.875072 -5.66582 0
M  V30 830 H 77.4043 0.157428 -5.99893 0
M  V30 831 H 78.4743 -0.60822 -4.8107 0
M  V30 832 N 79.8174 1.5752 -0.0501392 0
M  V30 833 C 81.0664 1.91827 0.623328 0
M  V30 834 C 81.3794 0.930222 1.72065 0
M  V30 835 O 82.5854 1.1653 2.4522 0
M  V30 836 C 81.0414 3.40692 1.16003 0
M  V30 837 C 80.6494 4.479 0.0948811 0
M  V30 838 C 82.3934 3.84034 1.80881 0
M  V30 839 C 80.3004 5.87879 0.644411 0
M  V30 840 H 79.2304 0.715918 0.236596 0
M  V30 841 H 81.8814 1.83115 -0.118861 0
M  V30 842 H 80.2634 3.44405 1.9545 0
M  V30 843 H 81.4374 4.55775 -0.678675 0
M  V30 844 H 79.7524 4.13892 -0.45637 0
M  V30 845 H 82.3494 4.85984 2.22988 0
M  V30 846 H 82.6924 3.20225 2.6601 0
M  V30 847 H 83.2254 3.82833 1.0809 0
M  V30 848 H 79.9644 6.55282 -0.169229 0
M  V30 849 H 79.4844 5.83567 1.38598 0
M  V30 850 H 81.1634 6.37098 1.12763 0
M  V30 851 N 81.2955 -0.223234 1.56011 0
M  V30 852 C 82.5415 -0.949279 1.79211 0
M  V30 853 C 82.8745 -1.84054 0.619494 0
M  V30 854 O 82.1495 -1.90726 -0.381317 0
M  V30 855 C 82.4325 -1.78965 3.12479 0
M  V30 856 C 82.2855 -0.924997 4.40186 0
M  V30 857 C 83.6045 -2.76774 3.42175 0
M  V30 858 H 80.7235 -0.343676 0.651963 0
M  V30 859 H 83.3655 -0.218253 1.88742 0
M  V30 860 H 81.5155 -2.41291 3.04485 0
M  V30 861 H 83.1875 -0.318615 4.60198 0
M  V30 862 H 81.4305 -0.230344 4.33188 0
M  V30 863 H 82.1015 -1.54735 5.29869 0
M  V30 864 H 84.5775 -2.24584 3.50287 0
M  V30 865 H 83.4535 -3.32678 4.36597 0
M  V30 866 H 83.7145 -3.54429 2.64258 0
M  V30 867 N 82.7736 -1.49793 -0.48987 0
M  V30 868 C 83.9986 -1.63836 -1.27172 0
M  V30 869 C 84.4236 -0.31402 -1.8546 0
M  V30 870 O 83.7816 0.719803 -1.66399 0
M  V30 871 C 83.8296 -2.71797 -2.36978 0
M  V30 872 O 82.9336 -2.31744 -3.41128 0
M  V30 873 H 82.2746 -0.547997 -0.37496 0
M  V30 874 H 84.8046 -1.96053 -0.585191 0
M  V30 875 H 84.8146 -2.94305 -2.82575 0
M  V30 876 H 83.4896 -3.67923 -1.93921 0
M  V30 877 H 82.0666 -2.1961 -3.01373 0
M  V30 878 N 84.2517 0.741722 -1.39055 0
M  V30 879 C 85.4997 1.49818 -1.35643 0
M  V30 880 C 85.8207 1.94938 0.0491642 0
M  V30 881 O 85.0907 1.68505 0.999141 0
M  V30 882 H 83.6707 0.555755 -0.499144 0
M  V30 883 H 86.3327 0.880957 -1.73854 0
M  V30 884 H 85.4287 2.38348 -2.01486 0
M  V30 885 N 85.7298 1.2412 0.971189 0
M  V30 886 C 86.9778 1.07668 1.71032 0
M  V30 887 C 87.2988 -0.385797 1.91146 0
M  V30 888 O 86.5688 -1.27569 1.4867 0
M  V30 889 H 85.1488 0.395429 0.633755 0
M  V30 890 H 87.8108 1.55984 1.16855 0
M  V30 891 H 86.9068 1.57195 2.69622 0
M  V30 892 N 87.2079 -1.17134 1.05439 0
M  V30 893 C 88.4569 -1.86791 0.761049 0
M  V30 894 C 88.7699 -1.82072 -0.714795 0
M  V30 895 O 89.9759 -2.47223 -1.12218 0
M  V30 896 C 88.4319 -3.35166 1.31117 0
M  V30 897 C 88.0399 -3.48381 2.81664 0
M  V30 898 C 89.7839 -4.10134 1.09499 0
M  V30 899 C 87.6909 -4.90793 3.29964 0
M  V30 900 H 86.6209 -0.699681 0.281002 0
M  V30 901 H 89.2719 -1.3226 1.27199 0
M  V30 902 H 87.6539 -3.8925 0.72803 0
M  V30 903 H 88.8279 -3.04502 3.45855 0
M  V30 904 H 87.1429 -2.86836 3.01851 0
M  V30 905 H 89.7399 -5.152 1.43084 0
M  V30 906 H 90.0829 -4.16287 0.0328772 0
M  V30 907 H 90.6159 -3.62264 1.64346 0
M  V30 908 H 87.3549 -4.89816 4.35616 0
M  V30 909 H 86.8749 -5.35333 2.70516 0
M  V30 910 H 88.5539 -5.59573 3.24787 0
M  V30 911 N 88.686 -0.835752 -1.33615 0
M  V30 912 C 89.649 -0.272 -2.2758 0
M  V30 913 C 90.649 0.557487 -1.50827 0
M  V30 914 O 91.839 0.37173 -1.70188 0
M  V30 915 C 88.971 0.617173 -3.35267 0
M  V30 916 H 90.164 -1.10111 -2.78954 0
M  V30 917 H 87.717 -0.608594 -1.43965 0
M  V30 918 H 88.452 1.46884 -2.89129 0
M  V30 919 H 88.237 0.0237066 -3.92093 0
M  V30 920 H 89.727 1.005 -4.05326 0
M  V30 921 N 90.1641 1.46063 -0.591896 0
M  V30 922 C 91.5751 1.85944 -0.167822 0
M  V30 923 C 91.9261 1.49429 1.27143 0
M  V30 924 O 91.0511 0.913515 1.96173 0
M  V30 925 C 91.6461 3.37489 -0.297794 0
M  V30 926 C 90.2051 3.76332 0.0714732 0
M  V30 927 C 89.3521 2.7006 -0.629509 0
M  V30 928 H 92.3031 1.37087 -0.799555 0
M  V30 929 H 92.3241 3.77532 0.474349 0
M  V30 930 H 91.8361 3.64034 -1.3454 0
M  V30 931 H 89.9371 3.55405 1.11886 0
M  V30 932 H 90.0501 4.78088 -0.311245 0
M  V30 933 H 88.4141 2.54607 -0.0687867 0
M  V30 934 H 89.1971 2.99444 -1.67894 0
M  V30 935 N 91.6422 0.330177 1.54103 0
M  V30 936 C 92.9192 -0.325007 1.92881 0
M  V30 937 C 93.2992 -1.6934 1.26045 0
M  V30 938 O 92.6472 -2.24855 0.406526 0
M  V30 939 C 92.8572 -0.410634 3.46576 0
M  V30 940 C 94.2052 -0.667801 4.19316 0
M  V30 941 O 95.2292 -0.49329 3.52768 0
M  V30 942 O 94.0882 -1.00491 5.37181 0
M  V30 943 H 91.1822 -0.186873 0.80561 0
M  V30 944 H 93.7282 0.380376 1.65382 0
M  V30 945 H 92.5002 0.550164 3.87413 0
M  V30 946 H 92.1232 -1.16333 3.802 0
M  V30 947 N 93.1203 -1.57491 0.0584922 0
M  V30 948 C 94.0503 -2.14988 -0.911178 0
M  V30 949 C 95.0313 -1.07343 -1.31952 0
M  V30 950 O 96.2163 -1.35318 -1.39294 0
M  V30 951 C 93.3463 -2.70078 -2.18347 0
M  V30 952 C 92.3003 -3.82771 -1.91495 0
M  V30 953 C 91.6263 -4.24408 -3.25241 0
M  V30 954 C 92.9263 -5.07592 -1.23075 0
M  V30 955 H 94.6203 -2.96263 -0.432246 0
M  V30 956 H 92.1663 -1.42512 -0.206469 0
M  V30 957 H 94.1193 -3.08943 -2.86587 0
M  V30 958 H 92.8433 -1.86005 -2.68458 0
M  V30 959 H 91.5023 -3.44389 -1.25664 0
M  V30 960 H 91.1503 -3.37275 -3.73168 0
M  V30 961 H 90.8503 -5.00366 -3.08071 0
M  V30 962 H 92.3743 -4.65879 -3.94701 0
M  V30 963 H 93.7883 -5.43857 -1.81362 0
M  V30 964 H 92.1853 -5.88741 -1.16207 0
M  V30 965 H 93.2553 -4.84454 -0.207847 0
M  V30 966 N 94.5984 0.214957 -1.56127 0
M  V30 967 C 95.8264 0.955092 -1.83536 0
M  V30 968 C 96.2414 1.77677 -0.638472 0
M  V30 969 O 95.5984 1.78219 0.392968 0
M  V30 970 C 95.6494 1.86734 -3.09536 0
M  V30 971 O 95.3704 1.07887 -4.24608 0
M  V30 972 C 96.8714 2.72082 -3.4998 0
M  V30 973 H 94.0914 0.279611 -0.609966 0
M  V30 974 H 96.6354 0.228197 -2.03223 0
M  V30 975 H 94.7904 2.5481 -2.91806 0
M  V30 976 H 95.2044 1.69872 -4.9623 0
M  V30 977 H 96.6784 3.31782 -4.41163 0
M  V30 978 H 97.1554 3.44806 -2.7204 0
M  V30 979 H 97.7614 2.09409 -3.70173 0
M  V30 980 N 96.0765 1.50051 0.48192 0
M  V30 981 C 97.3245 1.60181 1.23234 0
M  V30 982 C 97.6455 0.299176 1.92691 0
M  V30 983 O 96.9155 -0.682708 1.83619 0
M  V30 984 H 95.4955 0.590232 0.457859 0
M  V30 985 H 98.1575 1.86775 0.556881 0
M  V30 986 H 97.2535 2.40753 1.98607 0
M  V30 987 N 97.5546 -0.734337 1.39446 0
M  V30 988 C 98.8006 -1.49613 1.36908 0
M  V30 989 C 99.1336 -1.94169 -0.0347829 0
M  V30 990 O 98.4086 -1.66833 -0.999847 0
M  V30 991 C 98.6916 -2.73534 2.34203 0
M  V30 992 C 98.5446 -2.34993 3.83534 0
M  V30 993 C 99.8636 -3.75635 2.29317 0
M  V30 994 H 96.9826 -0.542714 0.498629 0
M  V30 995 H 99.6246 -0.839597 1.70443 0
M  V30 996 H 97.7746 -3.29553 2.05736 0
M  V30 997 H 99.4466 -1.84601 4.22753 0
M  V30 998 H 97.6896 -1.67213 4.00278 0
M  V30 999 H 98.3606 -3.23738 4.47099 0
M  V30 1000 H 100.837 -3.29203 2.54489 0
M  V30 1001 H 99.7126 -4.60008 2.99472 0
M  V30 1002 H 99.9736 -4.22603 1.29842 0
M  V30 1003 N 99.0327 -1.24633 -0.964593 0
M  V30 1004 C 100.281 -1.08573 -1.70459 0
M  V30 1005 C 100.602 0.375655 -1.91347 0
M  V30 1006 O 99.8717 1.26779 -1.49345 0
M  V30 1007 H 98.4517 -0.398784 -0.631649 0
M  V30 1008 H 101.114 -1.56601 -1.16026 0
M  V30 1009 H 100.21 -1.58623 -2.68785 0
M  V30 1010 N 100.511 1.16574 -1.06058 0
M  V30 1011 C 101.444 2.19798 -0.61352 0
M  V30 1012 C 102.422 1.58509 0.362453 0
M  V30 1013 O 103.606 1.86527 0.271994 0
M  V30 1014 C 100.733 3.3855 0.100915 0
M  V30 1015 C 99.7788 4.18317 -0.831438 0
M  V30 1016 S 100.612 4.82375 -2.32539 0
M  V30 1017 C 101.768 6.04508 -1.62238 0
M  V30 1018 H 102.001 2.5738 -1.48805 0
M  V30 1019 H 99.5338 1.27327 -0.873338 0
M  V30 1020 H 101.492 4.07358 0.506898 0
M  V30 1021 H 100.153 2.99338 0.951604 0
M  V30 1022 H 99.3458 5.03232 -0.278071 0
M  V30 1023 H 98.9478 3.5499 -1.17719 0
M  V30 1024 H 101.24 6.71133 -0.926622 0
M  V30 1025 H 102.183 6.64389 -2.44934 0
M  V30 1026 H 102.591 5.53559 -1.106 0
M  V30 1027 N 101.989 0.842826 1.3317 0
M  V30 1028 C 102.899 0.281444 2.32906 0
M  V30 1029 C 103.915 -0.594587 1.63526 0
M  V30 1030 O 105.091 -0.49777 1.95152 0
M  V30 1031 C 102.156 -0.530929 3.42611 0
M  V30 1032 C 101.217 0.369843 4.27704 0
M  V30 1033 C 100.45 -0.403853 5.3217 0
M  V30 1034 O 100.673 -1.63513 5.46461 0
M  V30 1035 O 99.6069 0.224199 6.01482 0
M  V30 1036 H 103.433 1.10744 2.82789 0
M  V30 1037 H 101.018 0.60545 1.36582 0
M  V30 1038 H 102.9 -0.992437 4.09547 0
M  V30 1039 H 101.575 -1.33392 2.94938 0
M  V30 1040 H 100.482 0.879275 3.6362 0
M  V30 1041 H 101.815 1.13771 4.78871 0
M  V30 1042 N 103.467 -1.45747 0.599634 0
M  V30 1043 C 104.715 -2.01893 0.0915472 0
M  V30 1044 C 105.036 -1.47155 -1.27946 0
M  V30 1045 O 104.306 -0.66273 -1.84349 0
M  V30 1046 H 102.886 -0.746363 0.0308524 0
M  V30 1047 H 105.548 -1.78645 0.779237 0
M  V30 1048 H 104.644 -3.1208 0.0353086 0
M  V30 1049 N 104.945 -0.338344 -1.53925 0
M  V30 1050 C 106.193 0.259245 -2.0043 0
M  V30 1051 C 106.514 1.51484 -1.22791 0
M  V30 1052 O 105.784 1.93037 -0.33368 0
M  V30 1053 H 104.364 0.0987845 -0.740439 0
M  V30 1054 H 107.026 -0.458302 -1.89435 0
M  V30 1055 H 106.122 0.505334 -3.07982 0
M  V30 1056 N 106.423 1.57458 -0.0668435 0
M  V30 1057 C 107.386 2.11323 0.887422 0
M  V30 1058 C 108.386 1.03618 1.22964 0
M  V30 1059 O 109.576 1.29626 1.16373 0
M  V30 1060 C 106.708 2.61048 2.19242 0
M  V30 1061 H 107.901 2.96942 0.420194 0
M  V30 1062 H 105.454 1.55239 0.181793 0
M  V30 1063 H 106.189 1.78868 2.70512 0
M  V30 1064 H 105.974 3.39769 1.95702 0
M  V30 1065 H 107.464 3.02814 2.87565 0
M  V30 1066 N 107.901 -0.206675 1.56239 0
M  V30 1067 C 108.834 -1.28383 1.88661 0
M  V30 1068 C 109.812 -1.44504 0.745481 0
M  V30 1069 O 110.996 -1.60079 0.995336 0
M  V30 1070 C 108.123 -2.65211 2.10667 0
M  V30 1071 C 107.169 -2.66025 3.33366 0
M  V30 1072 S 108.002 -2.18609 4.88846 0
M  V30 1073 C 109.158 -3.57283 5.13906 0
M  V30 1074 H 109.391 -1.00691 2.7973 0
M  V30 1075 H 106.924 -0.409627 1.48867 0
M  V30 1076 H 108.882 -3.43979 2.24029 0
M  V30 1077 H 107.543 -2.90121 1.20369 0
M  V30 1078 H 106.736 -3.66607 3.45855 0
M  V30 1079 H 106.338 -1.95331 3.18938 0
M  V30 1080 H 108.63 -4.53074 5.03717 0
M  V30 1081 H 109.573 -3.49699 6.15724 0
M  V30 1082 H 109.981 -3.51659 4.41583 0
M  V30 1083 N 109.379 -1.50304 -0.473955 0
M  V30 1084 C 110.309 -1.71886 -1.58042 0
M  V30 1085 C 111.29 -0.567799 -1.60344 0
M  V30 1086 O 112.475 -0.806623 -1.76656 0
M  V30 1087 C 109.605 -1.81036 -2.96384 0
M  V30 1088 C 108.559 -2.962 -3.08949 0
M  V30 1089 C 107.885 -2.9049 -4.48909 0
M  V30 1090 C 109.185 -4.36752 -2.86434 0
M  V30 1091 H 110.879 -2.64527 -1.40234 0
M  V30 1092 H 108.425 -1.27295 -0.673201 0
M  V30 1093 H 110.378 -1.94719 -3.73714 0
M  V30 1094 H 109.102 -0.850147 -3.15341 0
M  V30 1095 H 107.761 -2.82164 -2.3405 0
M  V30 1096 H 107.409 -1.92321 -4.64781 0
M  V30 1097 H 107.109 -3.67802 -4.58253 0
M  V30 1098 H 108.633 -3.06218 -5.28264 0
M  V30 1099 H 110.047 -4.5133 -3.53517 0
M  V30 1100 H 108.444 -5.15493 -3.07225 0
M  V30 1101 H 109.514 -4.49321 -1.82316 0
M  V30 1102 N 110.857 0.726932 -1.39834 0
M  V30 1103 C 111.805 1.86235 -1.39353 0
M  V30 1104 C 112.799 1.67144 -0.275555 0
M  V30 1105 O 114.005 1.74387 -0.44601 0
M  V30 1106 H 110.38 0.613174 -0.43534 0
M  V30 1107 H 112.351 1.83756 -2.35109 0
M  V30 1108 C 111.1 3.23995 -1.26185 0
M  V30 1109 H 110.423 3.39285 -2.11484 0
M  V30 1110 H 111.863 4.03609 -1.29907 0
M  V30 1111 C 110.322 3.36888 0.0290018 0
M  V30 1112 O 110.852 3.89152 0.99619 0
M  V30 1113 N 109.058 2.90446 0.0947437 0
M  V30 1114 H 108.605 2.48102 -0.693035 0
M  V30 1115 H 108.563 2.99451 0.957932 0
M  V30 1116 N 112.336 1.25143 0.95797 0
M  V30 1117 C 113.613 1.00472 1.67823 0
M  V30 1118 C 113.993 -0.470056 2.058 0
M  V30 1119 O 113.341 -1.44663 1.76875 0
M  V30 1120 C 113.551 1.9372 2.90299 0
M  V30 1121 C 114.899 2.21371 3.62326 0
M  V30 1122 O 115.923 1.91451 3.00375 0
M  V30 1123 O 114.782 2.72231 4.7387 0
M  V30 1124 H 111.876 0.380752 0.734137 0
M  V30 1125 H 114.422 1.36283 1.01119 0
M  V30 1126 H 113.194 2.93316 2.59001 0
M  V30 1127 H 112.817 1.58286 3.64735 0
M  V30 1128 N 113.814 -1.1601 1.06675 0
M  V30 1129 C 114.777 -2.18724 0.685001 0
M  V30 1130 C 115.777 -1.58496 -0.271246 0
M  V30 1131 O 116.967 -1.74119 -0.0531156 0
M  V30 1132 C 114.099 -3.40899 0.00853648 0
M  V30 1133 H 115.292 -2.54011 1.59431 0
M  V30 1134 H 112.845 -1.30352 0.862441 0
M  V30 1135 H 113.58 -3.11173 -0.913337 0
M  V30 1136 H 113.365 -3.8587 0.696204 0
M  V30 1137 H 114.855 -4.16886 -0.24414 0
M  V30 1138 N 115.292 -0.849877 -1.32721 0
M  V30 1139 C 116.517 -0.463856 -2.02146 0
M  V30 1140 C 116.942 0.930449 -1.63476 0
M  V30 1141 O 116.3 1.61033 -0.832952 0
M  V30 1142 C 116.348 -0.604955 -3.55489 0
M  V30 1143 O 115.452 0.36425 -4.10788 0
M  V30 1144 H 114.793 -0.187046 -0.637111 0
M  V30 1145 H 117.323 -1.14775 -1.69375 0
M  V30 1146 H 117.333 -0.490696 -4.05038 0
M  V30 1147 H 116.008 -1.62174 -3.82978 0
M  V30 1148 H 114.585 0.206628 -3.72327 0
M  V30 1149 N 116.77 1.45427 -0.607355 0
M  V30 1150 C 117.702 2.2871 0.149752 0
M  V30 1151 C 118.715 1.39937 0.831958 0
M  V30 1152 O 119.904 1.64313 0.697385 0
M  V30 1153 C 117.004 3.15673 1.23304 0
M  V30 1154 C 116.177 4.32722 0.637996 0
M  V30 1155 C 115.236 5.00895 1.61215 0
M  V30 1156 O 114.262 5.57697 1.13854 0
M  V30 1157 N 115.464 5.00159 2.94655 0
M  V30 1158 H 118.229 2.94328 -0.564882 0
M  V30 1159 H 115.79 1.55612 -0.446823 0
M  V30 1160 H 117.782 3.58144 1.88454 0
M  V30 1161 H 116.352 2.51965 1.8502 0
M  V30 1162 H 115.572 3.93734 -0.191572 0
M  V30 1163 H 116.86 5.08321 0.220665 0
M  V30 1164 H 116.258 4.553 3.35735 0
M  V30 1165 H 114.815 5.46495 3.55228 0
M  V30 1166 N 118.248 0.346503 1.53744 0
M  V30 1167 C 119.497 -0.250122 2.00143 0
M  V30 1168 C 119.81 -1.51418 1.23822 0
M  V30 1169 O 121.016 -2.18823 1.60713 0
M  V30 1170 C 119.472 -0.496252 3.56462 0
M  V30 1171 C 119.08 0.752077 4.41642 0
M  V30 1172 C 120.824 -1.05157 4.11269 0
M  V30 1173 C 118.731 0.476583 5.89477 0
M  V30 1174 H 117.661 -0.0972409 0.747703 0
M  V30 1175 H 120.312 0.46229 1.77581 0
M  V30 1176 H 118.694 -1.26944 3.75102 0
M  V30 1177 H 119.868 1.5266 4.34778 0
M  V30 1178 H 118.183 1.22925 3.97842 0
M  V30 1179 H 120.78 -1.27269 5.19333 0
M  V30 1180 H 121.123 -2.00799 3.64672 0
M  V30 1181 H 121.656 -0.339019 3.96353 0
M  V30 1182 H 118.395 1.4028 6.40314 0
M  V30 1183 H 117.915 -0.259794 5.99237 0
M  V30 1184 H 119.594 0.0949315 6.4693 0
M  V30 1185 N 119.726 -1.57421 0.075193 0
M  V30 1186 C 121.137 -1.81021 -0.456964 0
M  V30 1187 C 121.488 -0.98936 -1.69429 0
M  V30 1188 O 120.613 -0.212865 -2.15351 0
M  V30 1189 C 121.208 -3.28329 -0.83581 0
M  V30 1190 C 119.767 -3.52764 -1.31281 0
M  V30 1191 C 118.914 -2.75676 -0.299648 0
M  V30 1192 H 121.865 -1.55822 0.300856 0
M  V30 1193 H 121.886 -3.40564 -1.69696 0
M  V30 1194 H 121.398 -3.88046 0.0649238 0
M  V30 1195 H 119.499 -2.98355 -2.23193 0
M  V30 1196 H 119.612 -4.61451 -1.28839 0
M  V30 1197 H 117.976 -2.42538 -0.777641 0
M  V30 1198 H 118.759 -3.38132 0.593417 0
M  V30 1199 N 121.204 0.198386 -1.56346 0
M  V30 1200 C 122.154 1.2499 -1.90687 0
M  V30 1201 C 123.138 1.41158 -0.772217 0
M  V30 1202 O 124.33 1.43584 -1.03502 0
M  V30 1203 C 121.459 2.59542 -2.24706 0
M  V30 1204 C 120.545 2.47181 -3.44619 0
M  V30 1205 N 120.936 2.04495 -4.62618 0
M  V30 1206 C 119.234 2.78082 -3.48692 0
M  V30 1207 C 119.935 2.03945 -5.44776 0
M  V30 1208 N 118.911 2.45323 -4.85095 0
M  V30 1209 H 122.713 0.911149 -2.7942 0
M  V30 1210 H 120.227 0.40684 -1.57221 0
M  V30 1211 H 122.224 3.3549 -2.47491 0
M  V30 1212 H 120.884 2.94244 -1.37298 0
M  V30 1213 H 121.895 1.75256 -4.87345 0
M  V30 1214 H 118.572 3.17002 -2.71691 0
M  V30 1215 H 119.962 1.72872 -6.4928 0
M  V30 1216 N 122.682 1.50554 0.465978 0
M  V30 1217 C 123.632 1.66177 1.56106 0
M  V30 1218 C 124.616 0.516265 1.52393 0
M  V30 1219 O 125.808 0.770906 1.5933 0
M  V30 1220 C 122.937 1.76396 2.94515 0
M  V30 1221 C 122.023 2.9664 3.03093 0
M  V30 1222 N 122.414 4.20245 2.81474 0
M  V30 1223 C 120.712 2.95304 3.34233 0
M  V30 1224 C 121.413 5.01259 2.95151 0
M  V30 1225 N 120.389 4.35318 3.25576 0
M  V30 1226 H 124.191 2.59434 1.38099 0
M  V30 1227 H 121.705 1.47808 0.6728 0
M  V30 1228 H 123.702 1.85694 3.73261 0
M  V30 1229 H 122.362 0.843017 3.13565 0
M  V30 1230 H 123.373 4.4966 2.56956 0
M  V30 1231 H 120.05 2.12729 3.59239 0
M  V30 1232 H 121.44 6.09564 2.82632 0
M  V30 1233 N 124.16 -0.719506 1.40217 0
M  V30 1234 C 125.576 -1.02707 1.22161 0
M  V30 1235 C 125.776 -2.0128 0.0940557 0
M  V30 1236 O 124.832 -2.46452 -0.549318 0
M  V30 1237 C 126.145 -1.57454 2.56181 0
M  V30 1238 C 127.693 -1.69458 2.63159 0
M  V30 1239 C 128.168 -2.27611 3.97438 0
M  V30 1240 N 129.659 -2.35002 3.99159 0
M  V30 1241 C 130.394 -2.80972 4.99842 0
M  V30 1242 N 129.89 -3.26723 6.10921 0
M  V30 1243 N 131.683 -2.80321 4.87213 0
M  V30 1244 H 123.834 -0.0660492 2.12297 0
M  V30 1245 H 126.097 -0.0919077 0.943534 0
M  V30 1246 H 125.803 -0.924873 3.39321 0
M  V30 1247 H 125.677 -2.56036 2.76993 0
M  V30 1248 H 128.064 -2.33543 1.80393 0
M  V30 1249 H 128.145 -0.694867 2.46181 0
M  V30 1250 H 127.789 -1.6415 4.80643 0
M  V30 1251 H 127.719 -3.2829 4.11744 0
M  V30 1252 H 130.21 -2.02685 3.18947 0
M  V30 1253 H 130.523 -3.60355 6.8364 0
M  V30 1254 H 128.868 -3.24692 6.14492 0
M  V30 1255 H 132.059 -2.43912 3.9953 0
M  V30 1256 H 132.232 -3.15831 5.65822 0
M  V30 1257 N 125.638 -1.25649 -0.95132 0
M  V30 1258 C 126.866 -1.13343 -1.73092 0
M  V30 1259 C 127.281 0.312434 -1.86197 0
M  V30 1260 O 126.638 1.21465 -1.36207 0
M  V30 1261 C 126.689 -1.78602 -3.14299 0
M  V30 1262 O 126.41 -3.17537 -3.01831 0
M  V30 1263 C 127.911 -1.72119 -4.08522 0
M  V30 1264 H 125.131 -0.395181 -0.542285 0
M  V30 1265 H 127.675 -1.66076 -1.19328 0
M  V30 1266 H 125.83 -1.29832 -3.64996 0
M  V30 1267 H 126.244 -3.49676 -3.90931 0
M  V30 1268 H 127.718 -2.22435 -5.052 0
M  V30 1269 H 128.195 -0.685635 -4.33815 0
M  V30 1270 H 128.801 -2.20393 -3.63741 0
M  V30 1271 N 127.117 1.15442 -1.07289 0
M  V30 1272 C 128.366 1.85557 -0.790669 0
M  V30 1273 C 128.679 1.83186 0.685739 0
M  V30 1274 O 129.885 2.48977 1.0827 0
M  V30 1275 C 128.341 3.33038 -1.36433 0
M  V30 1276 C 127.949 3.43856 -2.8717 0
M  V30 1277 C 129.693 4.0834 -1.1601 0
M  V30 1278 C 127.6 4.85482 -3.3773 0
M  V30 1279 H 126.53 0.695122 -0.292098 0
M  V30 1280 H 129.181 1.30219 -1.29287 0
M  V30 1281 H 127.563 3.88043 -0.789864 0
M  V30 1282 H 128.737 2.98961 -3.50655 0
M  V30 1283 H 127.052 2.81998 -3.06376 0
M  V30 1284 H 129.649 5.12859 -1.51262 0
M  V30 1285 H 129.992 4.16182 -0.0991007 0
M  V30 1286 H 130.525 3.59603 -1.70089 0
M  V30 1287 H 127.264 4.82823 -4.43353 0
M  V30 1288 H 126.784 5.30961 -2.78999 0
M  V30 1289 H 128.463 5.54335 -3.33648 0
M  V30 1290 N 128.595 0.856903 1.32268 0
M  V30 1291 C 129.823 0.475439 2.01363 0
M  V30 1292 C 130.238 -0.928486 1.64392 0
M  V30 1293 O 129.595 -1.60624 0.866387 0
M  V30 1294 C 129.646 0.607545 3.56358 0
M  V30 1295 O 129.367 1.95617 3.92002 0
M  V30 1296 C 130.868 0.225382 4.42727 0
M  V30 1297 H 128.088 0.186636 0.644521 0
M  V30 1298 H 130.632 1.15446 1.68797 0
M  V30 1299 H 128.787 -0.0237719 3.87393 0
M  V30 1300 H 129.201 1.95455 4.86721 0
M  V30 1301 H 130.675 0.368813 5.50767 0
M  V30 1302 H 131.152 -0.834369 4.31202 0
M  V30 1303 H 131.758 0.831864 4.17085 0
M  V30 1304 N 130.073 -1.45103 0.615059 0
M  V30 1305 C 130.983 -2.34382 -0.101034 0
M  V30 1306 C 131.999 -1.51681 -0.852585 0
M  V30 1307 O 133.175 -1.8446 -0.808484 0
M  V30 1308 C 130.24 -3.29417 -1.08099 0
M  V30 1309 C 129.301 -4.28025 -0.330577 0
M  V30 1310 C 128.534 -5.1852 -1.26385 0
M  V30 1311 O 128.757 -5.12598 -2.50198 0
M  V30 1312 O 127.691 -5.97122 -0.756866 0
M  V30 1313 H 131.517 -2.97033 0.632855 0
M  V30 1314 H 129.102 -1.4461 0.375293 0
M  V30 1315 H 130.984 -3.87958 -1.6452 0
M  V30 1316 H 129.659 -2.69321 -1.79577 0
M  V30 1317 H 128.566 -3.73078 0.276283 0
M  V30 1318 H 129.899 -4.90997 0.343866 0
M  V30 1319 N 131.551 -0.354651 -1.53558 0
M  V30 1320 C 132.514 0.484566 -2.24019 0
M  V30 1321 C 133.514 1.01861 -1.24422 0
M  V30 1322 O 134.704 0.906097 -1.4878 0
M  V30 1323 C 131.836 1.67615 -2.96847 0
M  V30 1324 H 133.029 -0.131843 -2.9961 0
M  V30 1325 H 130.582 -0.106165 -1.55939 0
M  V30 1326 H 131.317 2.33095 -2.25471 0
M  V30 1327 H 131.102 1.30029 -3.69912 0
M  V30 1328 H 132.592 2.27114 -3.50441 0
M  V30 1329 N 133.029 1.57378 -0.0835403 0
M  V30 1330 C 134.275 1.94217 0.583733 0
M  V30 1331 C 134.608 0.964653 1.68547 0
M  V30 1332 O 133.883 -0.00422258 1.945 0
M  V30 1333 C 134.166 3.41253 1.14972 0
M  V30 1334 C 134.019 4.49768 0.0538277 0
M  V30 1335 C 135.338 3.89352 2.05166 0
M  V30 1336 H 132.457 0.706233 0.210724 0
M  V30 1337 H 135.099 1.89392 -0.1519 0
M  V30 1338 H 133.249 3.45496 1.77665 0
M  V30 1339 H 134.921 4.57641 -0.579851 0
M  V30 1340 H 133.164 4.29432 -0.614068 0
M  V30 1341 H 133.835 5.49817 0.490452 0
M  V30 1342 H 136.311 3.87189 1.52393 0
M  V30 1343 H 135.187 4.92822 2.41698 0
M  V30 1344 H 135.448 3.27973 2.96456 0
M  V30 1345 N 134.507 -0.190092 1.56449 0
M  V30 1346 C 135.457 -1.23977 1.91347 0
M  V30 1347 C 136.441 -1.40747 0.779693 0
M  V30 1348 O 137.633 -1.43033 1.04262 0
M  V30 1349 C 134.762 -2.58347 2.26079 0
M  V30 1350 C 133.848 -2.4535 3.45925 0
M  V30 1351 N 134.239 -2.02039 4.63696 0
M  V30 1352 C 132.537 -2.76229 3.50162 0
M  V30 1353 C 133.238 -2.01053 5.4585 0
M  V30 1354 N 132.214 -2.42747 4.8639 0
M  V30 1355 H 136.016 -0.896318 2.79899 0
M  V30 1356 H 133.53 -0.398496 1.57435 0
M  V30 1357 H 135.527 -3.34173 2.49267 0
M  V30 1358 H 134.187 -2.93512 1.38856 0
M  V30 1359 H 135.198 -1.7267 4.88268 0
M  V30 1360 H 131.875 -3.15556 2.73369 0
M  V30 1361 H 133.265 -1.69426 6.50188 0
M  V30 1362 N 135.985 -1.50799 -0.457987 0
M  V30 1363 C 136.917 -1.66786 -1.57211 0
M  V30 1364 C 137.93 -0.548962 -1.53265 0
M  V30 1365 O 139.119 -0.8226 -1.58416 0
M  V30 1366 C 136.219 -1.64834 -2.96113 0
M  V30 1367 C 135.392 -2.92971 -3.24787 0
M  V30 1368 C 134.451 -2.83485 -4.43309 0
M  V30 1369 O 133.477 -3.5744 -4.42973 0
M  V30 1370 N 134.679 -1.97929 -5.45714 0
M  V30 1371 H 137.444 -2.62889 -1.43909 0
M  V30 1372 H 135.005 -1.48427 -0.646617 0
M  V30 1373 H 136.997 -1.56084 -3.7339 0
M  V30 1374 H 135.567 -0.764118 -3.03117 0
M  V30 1375 H 134.787 -3.15749 -2.36 0
M  V30 1376 H 136.075 -3.77834 -3.40762 0
M  V30 1377 H 135.473 -1.37182 -5.48815 0
M  V30 1378 H 134.03 -1.95073 -6.21924 0
M  V30 1379 N 137.463 0.71206 -1.40597 0
M  V30 1380 C 138.373 1.8562 -1.43466 0
M  V30 1381 C 139.389 1.70902 -0.326902 0
M  V30 1382 O 140.565 1.93105 -0.572043 0
M  V30 1383 C 137.63 3.21451 -1.29884 0
M  V30 1384 C 136.691 3.48398 -2.50833 0
M  V30 1385 C 135.924 4.77749 -2.3789 0
M  V30 1386 O 136.147 5.53089 -1.39459 0
M  V30 1387 O 135.081 5.05111 -3.27333 0
M  V30 1388 H 138.907 1.86155 -2.39958 0
M  V30 1389 H 136.492 0.86295 -1.21957 0
M  V30 1390 H 138.374 4.02579 -1.24531 0
M  V30 1391 H 137.049 3.21636 -0.364997 0
M  V30 1392 H 135.956 2.67265 -2.61763 0
M  V30 1393 H 137.289 3.53014 -3.4299 0
M  V30 1394 N 138.941 1.26152 0.944643 0
M  V30 1395 C 140.189 1.11271 1.6871 0
M  V30 1396 C 140.51 -0.345166 1.91921 0
M  V30 1397 O 139.78 -1.24387 1.51343 0
M  V30 1398 H 138.36 0.408783 0.625224 0
M  V30 1399 H 141.022 1.58427 1.1352 0
M  V30 1400 H 140.118 1.62879 2.66227 0
M  V30 1401 N 140.419 -1.14872 1.07899 0
M  V30 1402 C 141.667 -1.85422 0.803941 0
M  V30 1403 C 141.988 -1.83051 -0.67211 0
M  V30 1404 O 141.258 -1.27532 -1.48703 0
M  V30 1405 H 139.838 -0.686537 0.294408 0
M  V30 1406 H 142.5 -1.39226 1.3639 0
M  V30 1407 H 141.596 -2.90399 1.14346 0
M  V30 1408 N 141.898 -0.863906 -1.31812 0
M  V30 1409 C 142.845 -0.313303 -2.28664 0
M  V30 1410 C 143.815 0.584868 -1.55462 0
M  V30 1411 O 145 0.517805 -1.83639 0
M  V30 1412 C 142.14 0.48441 -3.41683 0
M  V30 1413 C 141.253 -0.440594 -4.29747 0
M  V30 1414 C 140.388 0.370652 -5.29905 0
M  V30 1415 C 139.427 -0.551164 -6.09613 0
M  V30 1416 N 138.564 0.223462 -7.01744 0
M  V30 1417 H 143.404 -1.14444 -2.75148 0
M  V30 1418 H 140.941 -0.575769 -1.35364 0
M  V30 1419 H 142.899 0.962627 -4.05943 0
M  V30 1420 H 141.529 1.28029 -2.96325 0
M  V30 1421 H 140.581 -1.03724 -3.65986 0
M  V30 1422 H 141.893 -1.14767 -4.85417 0
M  V30 1423 H 141.047 0.911638 -5.99812 0
M  V30 1424 H 139.786 1.11105 -4.74876 0
M  V30 1425 H 138.791 -1.10396 -5.38603 0
M  V30 1426 H 140.016 -1.29032 -6.66729 0
M  V30 1427 H 137.962 0.946787 -6.49132 0
M  V30 1428 H 137.879 -0.424399 -7.54808 0
M  V30 1429 H 139.147 0.745876 -7.75923 0
M  V30 1430 N 143.376 1.44774 -0.622745 0
M  V30 1431 C 144.625 2.01334 -0.121397 0
M  V30 1432 C 144.938 1.49505 1.26125 0
M  V30 1433 O 146.144 1.98139 1.85616 0
M  V30 1434 C 144.6 3.59516 -0.166298 0
M  V30 1435 C 144.208 4.20342 -1.54974 0
M  V30 1436 C 145.952 4.23582 0.279021 0
M  V30 1437 C 143.859 5.70721 -1.55021 0
M  V30 1438 H 142.789 0.752851 -0.0416172 0
M  V30 1439 H 145.44 1.66083 -0.780309 0
M  V30 1440 H 143.822 3.92027 0.559557 0
M  V30 1441 H 144.996 3.99381 -2.29851 0
M  V30 1442 H 143.311 3.68529 -1.93843 0
M  V30 1443 H 145.908 5.33868 0.298083 0
M  V30 1444 H 146.251 3.95327 1.30471 0
M  V30 1445 H 146.784 3.95843 -0.394063 0
M  V30 1446 H 143.523 6.03698 -2.55399 0
M  V30 1447 H 143.043 5.93829 -0.844245 0
M  V30 1448 H 144.722 6.34203 -1.28047 0
M  V30 1449 N 144.854 0.36279 1.53368 0
M  V30 1450 C 145.817 -0.472679 2.24273 0
M  V30 1451 C 146.817 -1.012 1.24961 0
M  V30 1452 O 148.007 -0.898194 1.49259 0
M  V30 1453 C 145.139 -1.66039 2.97731 0
M  V30 1454 H 146.332 0.14773 2.99536 0
M  V30 1455 H 143.885 0.114434 1.55881 0
M  V30 1456 H 144.62 -2.31896 2.26704 0
M  V30 1457 H 144.405 -1.28066 3.70596 0
M  V30 1458 H 145.895 -2.25252 3.51641 0
M  V30 1459 N 146.332 -1.57332 0.0918853 0
M  V30 1460 C 147.262 -2.16872 -0.865371 0
M  V30 1461 C 148.243 -1.10118 -1.29646 0
M  V30 1462 O 149.428 -1.38242 -1.36392 0
M  V30 1463 C 146.558 -2.74649 -2.12569 0
M  V30 1464 C 145.512 -3.86747 -1.83333 0
M  V30 1465 C 144.838 -4.31212 -3.16166 0
M  V30 1466 C 146.138 -5.10089 -1.1228 0
M  V30 1467 H 147.832 -2.97114 -0.369307 0
M  V30 1468 H 145.378 -1.42918 -0.176194 0
M  V30 1469 H 147.331 -3.14952 -2.7997 0
M  V30 1470 H 146.055 -1.91657 -2.64452 0
M  V30 1471 H 144.714 -3.46978 -1.18331 0
M  V30 1472 H 144.362 -3.45115 -3.6593 0
M  V30 1473 H 144.062 -5.06788 -2.97388 0
M  V30 1474 H 145.586 -4.74146 -3.84731 0
M  V30 1475 H 147 -5.47582 -1.69785 0
M  V30 1476 H 145.397 -5.91073 -1.03693 0
M  V30 1477 H 146.467 -4.84786 -0.105041 0
M  V30 1478 N 147.81 0.181792 -1.56548 0
M  V30 1479 C 148.742 1.24956 -1.92142 0
M  V30 1480 C 149.755 1.41022 -0.813422 0
M  V30 1481 O 150.944 1.41212 -1.09186 0
M  V30 1482 C 148.044 2.61981 -2.14987 0
M  V30 1483 C 147.217 2.6735 -3.46183 0
M  V30 1484 C 146.276 3.85664 -3.5798 0
M  V30 1485 O 145.302 3.72148 -4.30691 0
M  V30 1486 N 146.504 5.01683 -2.92053 0
M  V30 1487 H 149.269 0.947329 -2.84334 0
M  V30 1488 H 146.83 0.371629 -1.57577 0
M  V30 1489 H 148.822 3.3958 -2.20154 0
M  V30 1490 H 147.392 2.84637 -1.2923 0
M  V30 1491 H 146.612 1.75925 -3.52766 0
M  V30 1492 H 147.9 2.67939 -4.32534 0
M  V30 1493 H 147.298 5.15564 -2.32832 0
M  V30 1494 H 145.855 5.77181 -3.0283 0
M  V30 1495 N 149.288 1.51039 0.449983 0
M  V30 1496 C 150.537 1.62317 1.19733 0
M  V30 1497 C 150.85 0.339101 1.92638 0
M  V30 1498 O 152.056 0.331069 2.69474 0
M  V30 1499 C 150.512 2.86608 2.17678 0
M  V30 1500 C 150.12 4.21972 1.50479 0
M  V30 1501 C 151.864 3.07239 2.92924 0
M  V30 1502 C 149.771 5.37426 2.46834 0
M  V30 1503 H 148.701 0.604532 0.450619 0
M  V30 1504 H 151.352 1.77494 0.465625 0
M  V30 1505 H 149.734 2.65037 2.94231 0
M  V30 1506 H 150.908 4.53878 0.795716 0
M  V30 1507 H 149.223 4.07117 0.874344 0
M  V30 1508 H 151.82 3.90668 3.65079 0
M  V30 1509 H 152.163 2.19807 3.5354 0
M  V30 1510 H 152.696 3.29091 2.23481 0
M  V30 1511 H 149.435 6.27079 1.90926 0
M  V30 1512 H 148.955 5.09912 3.15832 0
M  V30 1513 H 150.634 5.68862 3.08228 0
M  V30 1514 N 150.766 -0.704594 1.40972 0
M  V30 1515 C 151.696 -1.83124 1.44872 0
M  V30 1516 C 152.677 -1.67281 0.30838 0
M  V30 1517 O 153.862 -1.87149 0.518556 0
M  V30 1518 C 150.992 -3.21181 1.32136 0
M  V30 1519 C 149.946 -3.51714 2.43888 0
M  V30 1520 C 149.272 -4.89032 2.16222 0
M  V30 1521 C 150.572 -3.516 3.86232 0
M  V30 1522 H 152.266 -1.80117 2.39161 0
M  V30 1523 H 149.812 -0.865145 1.15114 0
M  V30 1524 H 151.765 -3.99702 1.33479 0
M  V30 1525 H 150.489 -3.24791 0.343279 0
M  V30 1526 H 149.148 -2.75539 2.41813 0
M  V30 1527 H 148.796 -4.89256 1.16778 0
M  V30 1528 H 148.496 -5.10426 2.911 0
M  V30 1529 H 150.02 -5.69873 2.19265 0
M  V30 1530 H 151.434 -4.2014 3.9007 0
M  V30 1531 H 149.831 -3.84523 4.60719 0
M  V30 1532 H 150.901 -2.50757 4.15029 0
M  V30 1533 N 152.244 -1.26651 -0.937939 0
M  V30 1534 C 153.194 -1.05156 -2.02302 0
M  V30 1535 C 154.178 0.0171233 -1.60891 0
M  V30 1536 O 155.37 -0.200213 -1.75864 0
M  V30 1537 C 152.499 -0.689962 -3.36295 0
M  V30 1538 C 151.585 -1.79626 -3.84181 0
M  V30 1539 N 151.976 -3.03422 -4.04684 0
M  V30 1540 C 150.274 -1.6806 -4.13124 0
M  V30 1541 C 150.975 -3.75345 -4.444 0
M  V30 1542 N 149.951 -3.03051 -4.51288 0
M  V30 1543 H 153.753 -1.99117 -2.1617 0
M  V30 1544 H 151.267 -1.17216 -1.12402 0
M  V30 1545 H 153.264 -0.517112 -4.13681 0
M  V30 1546 H 151.924 0.242139 -3.23796 0
M  V30 1547 H 152.935 -3.39293 -3.91281 0
M  V30 1548 H 149.612 -0.818629 -4.09396 0
M  V30 1549 H 151.002 -4.81691 -4.68427 0
M  V30 1550 N 153.722 1.14298 -1.08507 0
M  V30 1551 C 154.95 1.89219 -0.836876 0
M  V30 1552 C 155.365 1.78638 0.611054 0
M  V30 1553 O 154.722 1.14643 1.41998 0
M  V30 1554 C 154.773 3.39158 -1.25116 0
M  V30 1555 O 154.494 3.49449 -2.64229 0
M  V30 1556 C 155.995 4.31073 -1.03398 0
M  V30 1557 H 153.215 0.599328 -0.301739 0
M  V30 1558 H 155.759 1.44746 -1.44461 0
M  V30 1559 H 153.914 3.81251 -0.687514 0
M  V30 1560 H 154.328 4.42589 -2.81452 0
M  V30 1561 H 155.802 5.34646 -1.37323 0
M  V30 1562 H 156.279 4.3919 0.0289259 0
M  V30 1563 H 156.885 3.94738 -1.58311 0
M  V30 1564 N 155.201 0.870884 1.31352 0
M  V30 1565 C 156.449 0.48132 1.96285 0
M  V30 1566 C 156.77 -0.969813 1.69173 0
M  V30 1567 O 156.04 -1.67998 1.00764 0
M  V30 1568 H 154.62 0.175002 0.726212 0
M  V30 1569 H 157.282 1.11087 1.60143 0
M  V30 1570 H 156.378 0.639825 3.05471 0
M  V30 1571 N 156.679 -1.44442 0.630414 0
M  V30 1572 C 158.095 -1.56832 0.295973 0
M  V30 1573 C 158.295 -1.61806 -1.20088 0
M  V30 1574 O 157.351 -1.5607 -1.9849 0
M  V30 1575 C 158.664 -2.84031 0.987264 0
M  V30 1576 C 160.212 -2.97742 0.96534 0
M  V30 1577 C 160.687 -4.27743 1.63708 0
M  V30 1578 N 162.178 -4.34555 1.60364 0
M  V30 1579 C 162.913 -5.33862 2.09234 0
M  V30 1580 N 162.409 -6.39578 2.66292 0
M  V30 1581 N 164.202 -5.25366 1.99867 0
M  V30 1582 H 156.353 -1.39457 1.60205 0
M  V30 1583 H 158.616 -0.668237 0.672431 0
M  V30 1584 H 158.322 -2.86338 2.04215 0
M  V30 1585 H 158.196 -3.73534 0.524588 0
M  V30 1586 H 160.583 -2.94989 -0.0810639 0
M  V30 1587 H 160.664 -2.09589 1.4665 0
M  V30 1588 H 160.308 -4.31255 2.68293 0
M  V30 1589 H 160.238 -5.14752 1.11076 0
M  V30 1590 H 162.729 -3.58772 1.18705 0
M  V30 1591 H 163.042 -7.11637 3.01317 0
M  V30 1592 H 161.387 -6.40265 2.70343 0
M  V30 1593 H 164.578 -4.41688 1.55013 0
M  V30 1594 H 164.751 -6.02606 2.38265 0
M  V30 1595 N 158.157 -0.370918 -1.53173 0
M  V30 1596 C 159.387 0.217389 -2.05453 0
M  V30 1597 C 159.795 1.42568 -1.24382 0
M  V30 1598 O 159.138 1.81571 -0.278839 0
M  V30 1599 C 159.2 0.669827 -3.53205 0
M  V30 1600 C 158.864 -0.4225 -4.55043 0
M  V30 1601 C 159.861 -1.27407 -5.04047 0
M  V30 1602 C 157.546 -0.58427 -4.9889 0
M  V30 1603 C 159.54 -2.27271 -5.95505 0
M  V30 1604 C 157.227 -1.58627 -5.90153 0
M  V30 1605 C 158.225 -2.42892 -6.38351 0
M  V30 1606 O 157.913 -3.41382 -7.27814 0
M  V30 1607 H 157.645 0.0408171 -0.674767 0
M  V30 1608 H 160.199 -0.5292 -1.98466 0
M  V30 1609 H 158.429 1.4681 -3.57748 0
M  V30 1610 H 160.118 1.18173 -3.88317 0
M  V30 1611 H 160.884 -1.16031 -4.70916 0
M  V30 1612 H 156.763 0.061851 -4.60959 0
M  V30 1613 H 160.307 -2.93079 -6.33049 0
M  V30 1614 H 156.204 -1.70048 -6.22699 0
M  V30 1615 H 156.972 -3.37173 -7.45826 0
M  V30 1616 N 159.635 1.57281 -0.100228 0
M  V30 1617 C 160.86 1.99302 0.573881 0
M  V30 1618 C 161.285 0.979059 1.60611 0
M  V30 1619 O 160.643 -0.0517803 1.81226 0
M  V30 1620 C 160.691 3.40274 1.19358 0
M  V30 1621 O 159.795 3.41676 2.30935 0
M  V30 1622 H 159.136 0.647944 0.145138 0
M  V30 1623 H 161.666 2.03779 -0.183156 0
M  V30 1624 H 161.676 3.78078 1.53365 0
M  V30 1625 H 160.351 4.13594 0.437385 0
M  V30 1626 H 158.928 3.15672 1.98509 0
M  V30 1627 N 161.113 -0.173488 1.56642 0
M  V30 1628 C 162.343 -0.904781 1.85734 0
M  V30 1629 C 162.751 -1.76431 0.68328 0
M  V30 1630 O 162.094 -1.802 -0.356865 0
M  V30 1631 C 162.156 -1.83382 3.09211 0
M  V30 1632 C 161.82 -1.15411 4.42187 0
M  V30 1633 C 162.817 -0.520609 5.17287 0
M  V30 1634 C 160.502 -1.15151 4.88923 0
M  V30 1635 C 162.496 0.106412 6.37311 0
M  V30 1636 C 160.183 -0.520664 6.08878 0
M  V30 1637 C 161.181 0.107196 6.82916 0
M  V30 1638 O 160.869 0.728102 8.00596 0
M  V30 1639 H 160.601 -0.268408 0.62043 0
M  V30 1640 H 163.155 -0.179096 2.04618 0
M  V30 1641 H 161.385 -2.59976 2.86268 0
M  V30 1642 H 163.074 -2.43476 3.24768 0
M  V30 1643 H 163.84 -0.514606 4.82262 0
M  V30 1644 H 159.719 -1.62961 4.31236 0
M  V30 1645 H 163.263 0.597081 6.9504 0
M  V30 1646 H 159.16 -0.524242 6.43368 0
M  V30 1647 H 159.928 0.627138 8.16094 0
M  V30 1648 N 162.591 -1.51276 -0.441967 0
M  V30 1649 C 163.523 -1.68444 -1.55433 0
M  V30 1650 C 164.536 -0.565187 -1.52674 0
M  V30 1651 O 165.725 -0.839356 -1.57534 0
M  V30 1652 C 162.825 -1.67966 -2.94348 0
M  V30 1653 C 161.998 -2.964 -3.21661 0
M  V30 1654 C 161.057 -2.88171 -4.40277 0
M  V30 1655 O 160.083 -3.62119 -4.39157 0
M  V30 1656 N 161.285 -2.03706 -5.43584 0
M  V30 1657 H 164.05 -2.644 -1.41112 0
M  V30 1658 H 161.611 -1.49104 -0.630838 0
M  V30 1659 H 163.603 -1.60035 -3.71713 0
M  V30 1660 H 162.173 -0.796225 -3.0229 0
M  V30 1661 H 161.393 -3.18234 -2.32638 0
M  V30 1662 H 162.681 -3.81427 -3.36736 0
M  V30 1663 H 162.079 -1.42995 -5.47329 0
M  V30 1664 H 160.636 -2.01658 -6.1982 0
M  V30 1665 N 164.069 0.697108 -1.41344 0
M  V30 1666 C 165.48 1.27697 -1.36199 0
M  V30 1667 C 165.831 1.9615 -0.0443463 0
M  V30 1668 O 164.956 1.98689 0.857419 0
M  V30 1669 C 165.551 2.32223 -2.46694 0
M  V30 1670 C 164.11 2.8579 -2.44952 0
M  V30 1671 C 163.257 1.59807 -2.26621 0
M  V30 1672 H 166.208 0.491968 -1.50882 0
M  V30 1673 H 166.229 3.1348 -2.15664 0
M  V30 1674 H 165.741 1.82373 -3.42581 0
M  V30 1675 H 163.842 3.3982 -1.52817 0
M  V30 1676 H 163.955 3.36325 -3.41207 0
M  V30 1677 H 162.319 1.8556 -1.7447 0
M  V30 1678 H 163.102 1.11956 -3.24532 0
M  V30 1679 N 165.547 1.27147 0.931209 0
M  V30 1680 C 166.497 1.06227 2.01742 0
M  V30 1681 C 167.481 -0.00859065 1.60898 0
M  V30 1682 O 168.673 0.209537 1.75755 0
M  V30 1683 C 165.802 0.707787 3.35924 0
M  V30 1684 C 164.888 1.81661 3.83223 0
M  V30 1685 N 165.279 3.05564 4.03069 0
M  V30 1686 C 163.577 1.70249 4.12227 0
M  V30 1687 C 164.278 3.77697 4.42403 0
M  V30 1688 N 163.254 3.0544 4.49675 0
M  V30 1689 H 167.056 2.00261 2.15111 0
M  V30 1690 H 164.57 1.1781 1.11779 0
M  V30 1691 H 166.567 0.539043 4.134 0
M  V30 1692 H 165.227 -0.224964 3.2392 0
M  V30 1693 H 166.238 3.41363 3.89476 0
M  V30 1694 H 162.915 0.840329 4.08956 0
M  V30 1695 H 164.305 4.84168 4.65866 0
M  V30 1696 N 167.025 -1.13721 1.09112 0
M  V30 1697 C 167.955 -2.21148 0.749385 0
M  V30 1698 C 168.936 -1.6792 -0.271475 0
M  V30 1699 O 170.121 -1.93693 -0.140251 0
M  V30 1700 C 167.251 -3.46905 0.165659 0
M  V30 1701 C 166.205 -4.13203 1.11567 0
M  V30 1702 C 165.531 -5.33248 0.393809 0
M  V30 1703 C 166.831 -4.60912 2.45678 0
M  V30 1704 H 168.525 -2.4999 1.64758 0
M  V30 1705 H 166.071 -1.20156 0.793626 0
M  V30 1706 H 168.024 -4.21313 -0.085466 0
M  V30 1707 H 166.748 -3.17449 -0.767714 0
M  V30 1708 H 165.407 -3.40758 1.35202 0
M  V30 1709 H 165.055 -5.00054 -0.543599 0
M  V30 1710 H 164.755 -5.78552 1.02721 0
M  V30 1711 H 166.279 -6.10413 0.150908 0
M  V30 1712 H 167.693 -5.26759 2.26269 0
M  V30 1713 H 166.09 -5.16944 3.04776 0
M  V30 1714 H 167.16 -3.75603 3.06677 0
M  V30 1715 N 168.503 -0.877838 -1.30888 0
M  V30 1716 C 169.749 -0.493426 -1.96706 0
M  V30 1717 C 170.082 0.953504 -1.6918 0
M  V30 1718 O 169.357 1.67266 -0.992594 0
M  V30 1719 C 169.64 -0.760429 -3.51979 0
M  V30 1720 C 169.493 -2.25747 -3.89048 0
M  V30 1721 C 170.812 -0.232148 -4.39487 0
M  V30 1722 H 167.931 -0.180746 -0.714493 0
M  V30 1723 H 170.573 -1.10052 -1.54882 0
M  V30 1724 H 168.723 -0.243715 -3.87735 0
M  V30 1725 H 170.395 -2.84204 -3.63354 0
M  V30 1726 H 168.638 -2.72694 -3.37373 0
M  V30 1727 H 169.309 -2.39491 -4.97341 0
M  V30 1728 H 171.785 -0.674314 -4.106 0
M  V30 1729 H 170.661 -0.448355 -5.47066 0
M  V30 1730 H 170.922 0.866297 -4.33529 0
M  V30 1731 N 169.982 1.44106 -0.638065 0
M  V30 1732 C 170.945 2.29138 0.0531013 0
M  V30 1733 C 171.945 1.41409 0.765506 0
M  V30 1734 O 173.135 1.63206 0.609046 0
M  V30 1735 C 170.267 3.23144 1.08584 0
M  V30 1736 H 171.46 2.91739 -0.694883 0
M  V30 1737 H 169.013 1.51134 -0.398538 0
M  V30 1738 H 169.748 2.65408 1.86357 0
M  V30 1739 H 169.533 3.87804 0.578852 0
M  V30 1740 H 171.023 3.87004 1.56899 0
M  V30 1741 N 171.46 0.379036 1.52974 0
M  V30 1742 C 172.871 -0.0972525 1.86447 0
M  V30 1743 C 173.222 -1.47027 1.29914 0
M  V30 1744 O 172.347 -2.07135 0.626433 0
M  V30 1745 C 172.942 -0.183248 3.38304 0
M  V30 1746 C 171.501 -0.603812 3.71525 0
M  V30 1747 C 170.648 0.240632 2.76254 0
M  V30 1748 H 173.599 0.597316 1.4703 0
M  V30 1749 H 173.62 -1.00432 3.67006 0
M  V30 1750 H 173.132 0.816191 3.79421 0
M  V30 1751 H 171.233 -1.61099 3.35973 0
M  V30 1752 H 171.346 -0.369086 4.77676 0
M  V30 1753 H 169.71 -0.292548 2.53014 0
M  V30 1754 H 170.493 1.23786 3.20206 0
M  V30 1755 N 172.938 -1.57226 0.108567 0
M  V30 1756 C 174.163 -1.99604 -0.563303 0
M  V30 1757 C 174.588 -0.987563 -1.6009 0
M  V30 1758 O 173.946 0.0421687 -1.81251 0
M  V30 1759 C 173.994 -3.40902 -1.17552 0
M  V30 1760 O 173.098 -3.42896 -2.2912 0
M  V30 1761 H 172.439 -0.648704 -0.1417 0
M  V30 1762 H 174.969 -2.03679 0.193961 0
M  V30 1763 H 174.979 -3.78886 -1.51357 0
M  V30 1764 H 173.654 -4.1382 -0.415445 0
M  V30 1765 H 172.231 -3.1672 -1.96832 0
M  V30 1766 N 174.416 0.165178 -1.56732 0
M  V30 1767 C 175.379 1.18822 -1.95995 0
M  V30 1768 C 176.379 1.3685 -0.84431 0
M  V30 1769 O 177.569 1.34152 -1.11126 0
M  V30 1770 C 174.701 2.5521 -2.26011 0
M  V30 1771 H 175.894 0.851825 -2.87548 0
M  V30 1772 H 173.447 0.407857 -1.50885 0
M  V30 1773 H 174.182 2.93852 -1.37191 0
M  V30 1774 H 173.967 2.43489 -3.07336 0
M  V30 1775 H 175.457 3.28927 -2.57288 0
M  V30 1776 N 175.894 1.51508 0.433938 0
M  V30 1777 C 176.824 1.76016 1.53429 0
M  V30 1778 C 177.805 0.610112 1.58782 0
M  V30 1779 O 178.99 0.853177 1.74455 0
M  V30 1780 C 176.12 1.88831 2.9148 0
M  V30 1781 C 175.074 3.04288 3.00987 0
M  V30 1782 C 174.4 3.0229 4.4105 0
M  V30 1783 C 175.7 4.44193 2.74754 0
M  V30 1784 H 177.394 2.68152 1.33171 0
M  V30 1785 H 174.94 1.29035 0.639214 0
M  V30 1786 H 176.893 2.04559 3.6842 0
M  V30 1787 H 175.617 0.933455 3.12976 0
M  V30 1788 H 174.276 2.8827 2.26486 0
M  V30 1789 H 173.924 2.04576 4.59519 0
M  V30 1790 H 173.624 3.79822 4.4834 0
M  V30 1791 H 175.148 3.20116 5.1996 0
M  V30 1792 H 176.562 4.60544 3.41426 0
M  V30 1793 H 174.959 5.23457 2.9345 0
M  V30 1794 H 176.029 4.53996 1.70339 0
M  V30 1795 N 177.372 -0.689602 1.41712 0
M  V30 1796 C 178.304 -1.815 1.39966 0
M  V30 1797 C 179.317 -1.59995 0.300917 0
M  V30 1798 O 180.506 -1.69387 0.563039 0
M  V30 1799 C 177.606 -3.18364 1.16179 0
M  V30 1800 C 176.779 -3.66847 2.38206 0
M  V30 1801 C 175.838 -4.82398 2.10186 0
M  V30 1802 O 174.864 -4.93706 2.83272 0
M  V30 1803 N 176.066 -5.70064 1.0958 0
M  V30 1804 H 178.831 -1.83488 2.36965 0
M  V30 1805 H 176.392 -0.872149 1.36401 0
M  V30 1806 H 178.384 -3.93301 0.953756 0
M  V30 1807 H 176.954 -3.11365 0.27756 0
M  V30 1808 H 176.174 -2.82751 2.74673 0
M  V30 1809 H 177.462 -3.95978 3.19498 0
M  V30 1810 H 176.86 -5.63565 0.491019 0
M  V30 1811 H 175.417 -6.44874 0.947656 0
M  V30 1812 N 178.85 -1.27639 -0.924453 0
M  V30 1813 C 179.813 -1.10681 -2.00705 0
M  V30 1814 C 180.813 -0.0497823 -1.60723 0
M  V30 1815 O 182.003 -0.294654 -1.7169 0
M  V30 1816 C 179.135 -0.687164 -3.33902 0
M  V30 1817 H 180.328 -2.06817 -2.17179 0
M  V30 1818 H 177.881 -1.10473 -1.10569 0
M  V30 1819 H 178.616 0.275439 -3.23128 0
M  V30 1820 H 178.401 -1.45061 -3.6428 0
M  V30 1821 H 179.891 -0.590853 -4.13399 0
M  V30 1822 N 180.328 1.1314 -1.09713 0
M  V30 1823 C 181.739 1.66029 -0.853885 0
M  V30 1824 C 182.09 1.86241 0.617142 0
M  V30 1825 O 181.215 1.5834 1.47503 0
M  V30 1826 C 181.81 3.01599 -1.5435 0
M  V30 1827 C 180.369 3.51467 -1.34714 0
M  V30 1828 C 179.516 2.26648 -1.59769 0
M  V30 1829 H 182.467 0.970226 -1.25588 0
M  V30 1830 H 182.488 3.67709 -0.978267 0
M  V30 1831 H 182 2.86856 -2.6141 0
M  V30 1832 H 180.101 3.71408 -0.297838 0
M  V30 1833 H 180.214 4.314 -2.08401 0
M  V30 1834 H 178.578 2.33385 -1.01998 0
M  V30 1835 H 179.361 2.14467 -2.68065 0
M  V30 1836 N 181.806 0.884767 1.30421 0
M  V30 1837 C 183.055 0.499164 1.95426 0
M  V30 1838 C 183.368 -0.95645 1.70621 0
M  V30 1839 O 184.574 -1.44889 2.29607 0
M  V30 1840 C 183.03 0.84177 3.49917 0
M  V30 1841 C 182.638 2.31514 3.83543 0
M  V30 1842 C 184.382 0.525355 4.21237 0
M  V30 1843 C 182.289 2.59939 5.31212 0
M  V30 1844 H 181.219 0.182944 0.73147 0
M  V30 1845 H 183.87 1.07971 1.48373 0
M  V30 1846 H 182.252 0.190311 3.95542 0
M  V30 1847 H 183.426 3.0109 3.48829 0
M  V30 1848 H 181.741 2.59907 3.25326 0
M  V30 1849 H 184.338 0.714762 5.29901 0
M  V30 1850 H 184.681 -0.535222 4.12845 0
M  V30 1851 H 185.214 1.134 3.81294 0
M  V30 1852 H 181.953 3.64736 5.44654 0
M  V30 1853 H 181.473 1.94972 5.67227 0
M  V30 1854 H 183.152 2.45429 5.98643 0
M  V30 1855 N 183.284 -1.43765 0.645699 0
M  V30 1856 C 184.232 -2.32516 -0.0624849 0
M  V30 1857 C 185.226 -1.48183 -0.820855 0
M  V30 1858 O 186.432 -1.64439 -0.732106 0
M  V30 1859 H 182.807 -0.750989 -0.0389864 0
M  V30 1860 H 184.778 -2.89979 0.703892 0
M  V30 1861 C 183.527 -3.32389 -1.02044 0
M  V30 1862 H 182.85 -3.97301 -0.446312 0
M  V30 1863 H 184.29 -3.97138 -1.48517 0
M  V30 1864 C 182.749 -2.62416 -2.11281 0
M  V30 1865 O 183.279 -2.434 -3.19561 0
M  V30 1866 N 181.485 -2.21913 -1.87624 0
M  V30 1867 H 181.032 -2.37578 -0.995703 0
M  V30 1868 H 180.99 -1.75424 -2.6091 0
M  V30 1869 N 184.763 -0.387143 -1.52771 0
M  V30 1870 C 186.179 -0.037007 -1.59557 0
M  V30 1871 C 186.379 1.44801 -1.40124 0
M  V30 1872 O 185.435 2.21227 -1.21716 0
M  V30 1873 C 186.748 -0.512256 -2.96305 0
M  V30 1874 C 188.296 -0.468328 -3.09476 0
M  V30 1875 C 188.771 -0.919731 -4.4867 0
M  V30 1876 N 190.262 -0.875656 -4.54848 0
M  V30 1877 C 190.997 -1.19637 -5.6078 0
M  V30 1878 N 190.493 -1.58745 -6.74368 0
M  V30 1879 N 192.286 -1.11776 -5.50874 0
M  V30 1880 H 184.437 -1.35395 -1.63652 0
M  V30 1881 H 186.7 -0.554818 -0.768688 0
M  V30 1882 H 186.406 -1.54935 -3.15734 0
M  V30 1883 H 186.28 0.089805 -3.77093 0
M  V30 1884 H 188.667 0.559671 -2.89744 0
M  V30 1885 H 188.748 -1.10616 -2.30646 0
M  V30 1886 H 188.392 -1.94595 -4.69143 0
M  V30 1887 H 188.322 -0.258927 -5.25963 0
M  V30 1888 H 190.813 -0.587843 -3.733 0
M  V30 1889 H 191.126 -1.81586 -7.51163 0
M  V30 1890 H 189.471 -1.6263 -6.75705 0
M  V30 1891 H 192.662 -0.811264 -4.61016 0
M  V30 1892 H 192.835 -1.37103 -6.3333 0
M  V30 1893 N 186.241 1.57166 -0.116904 0
M  V30 1894 C 187.488 1.95123 0.541603 0
M  V30 1895 C 187.816 1.00006 1.6682 0
M  V30 1896 O 187.071 0.0235658 1.95686 0
M  V30 1897 C 187.37 3.39508 1.11664 0
M  V30 1898 C 187.036 4.50762 0.111606 0
M  V30 1899 C 185.698 4.80918 -0.164758 0
M  V30 1900 C 188.05 5.18036 -0.573438 0
M  V30 1901 C 185.378 5.75666 -1.13249 0
M  V30 1902 C 187.73 6.13824 -1.52978 0
M  V30 1903 C 186.394 6.42374 -1.81415 0
M  V30 1904 H 185.664 0.714005 0.198187 0
M  V30 1905 H 188.311 1.9048 -0.197365 0
M  V30 1906 H 186.616 3.40835 1.93232 0
M  V30 1907 H 188.313 3.66189 1.63422 0
M  V30 1908 H 184.903 4.27272 0.337192 0
M  V30 1909 H 189.087 4.94896 -0.373092 0
M  V30 1910 H 184.343 5.96092 -1.35958 0
M  V30 1911 H 188.517 6.65039 -2.06629 0
M  V30 1912 H 186.144 7.15599 -2.56557 0
M  V30 1913 N 187.719 -0.156864 1.56817 0
M  V30 1914 C 188.965 -0.872416 1.83076 0
M  V30 1915 C 189.298 -1.81261 0.697001 0
M  V30 1916 O 188.573 -1.92171 -0.30008 0
M  V30 1917 C 188.856 -1.65551 3.19789 0
M  V30 1918 C 188.709 -0.737467 4.43713 0
M  V30 1919 C 190.028 -2.62012 3.53606 0
M  V30 1920 H 187.147 -0.315715 0.665953 0
M  V30 1921 H 189.789 -0.138004 1.89498 0
M  V30 1922 H 187.939 -2.28159 3.14445 0
M  V30 1923 H 189.611 -0.123143 4.61136 0
M  V30 1924 H 187.854 -0.0464067 4.33775 0
M  V30 1925 H 188.525 -1.32122 5.35955 0
M  V30 1926 H 191.001 -2.09525 3.59497 0
M  V30 1927 H 189.877 -3.13861 4.50314 0
M  V30 1928 H 190.138 -3.42902 2.79053 0
M  V30 1929 N 189.197 -1.51736 -0.425897 0
M  V30 1930 C 190.608 -1.5732 -1.00536 0
M  V30 1931 C 190.959 -0.403537 -1.92005 0
M  V30 1932 O 190.084 0.478256 -2.11049 0
M  V30 1933 C 190.679 -2.85119 -1.8301 0
M  V30 1934 C 189.238 -2.93236 -2.35987 0
M  V30 1935 C 188.385 -2.52098 -1.15508 0
M  V30 1936 H 191.336 -1.57348 -0.206739 0
M  V30 1937 H 191.357 -2.69526 -2.68581 0
M  V30 1938 H 190.869 -3.7023 -1.16411 0
M  V30 1939 H 188.97 -2.12581 -3.06007 0
M  V30 1940 H 189.083 -3.9713 -2.68001 0
M  V30 1941 H 187.447 -2.05558 -1.50393 0
M  V30 1942 H 188.23 -3.39565 -0.505014 0
M  V30 1943 N 190.675 0.682077 -1.42076 0
M  V30 1944 C 191.625 1.78823 -1.41444 0
M  V30 1945 C 192.609 1.58323 -0.28681 0
M  V30 1946 O 193.801 1.68926 -0.528498 0
M  V30 1947 C 190.93 3.17232 -1.3122 0
M  V30 1948 C 190.016 3.4338 -2.489 0
M  V30 1949 N 190.407 3.40152 -3.7434 0
M  V30 1950 C 188.705 3.73986 -2.43003 0
M  V30 1951 C 189.406 3.65581 -4.52466 0
M  V30 1952 N 188.382 3.85989 -3.8277 0
M  V30 1953 H 192.184 1.7471 -2.36334 0
M  V30 1954 H 189.698 0.882622 -1.36321 0
M  V30 1955 H 191.695 3.96489 -1.2885 0
M  V30 1956 H 190.355 3.22547 -0.373263 0
M  V30 1957 H 191.366 3.20221 -4.07037 0
M  V30 1958 H 188.043 3.86591 -1.57651 0
M  V30 1959 H 189.433 3.69108 -5.61435 0
M  V30 1960 N 192.153 1.28127 0.917671 0
M  V30 1961 C 193.063 1.13556 2.05286 0
M  V30 1962 C 194.079 0.0630914 1.73886 0
M  V30 1963 O 195.255 0.271598 1.9956 0
M  V30 1964 C 192.32 0.794676 3.3747 0
M  V30 1965 C 191.381 1.94909 3.82504 0
M  V30 1966 C 190.614 1.62437 5.0838 0
M  V30 1967 O 190.837 0.536905 5.67867 0
M  V30 1968 O 189.771 2.46677 5.4903 0
M  V30 1969 H 193.597 2.08844 2.20495 0
M  V30 1970 H 191.182 1.07409 1.03845 0
M  V30 1971 H 193.064 0.618344 4.16839 0
M  V30 1972 H 191.739 -0.128581 3.23445 0
M  V30 1973 H 190.646 2.18055 3.03978 0
M  V30 1974 H 191.979 2.85291 4.01086 0
M  V30 1975 N 193.631 -1.12557 1.10312 0
M  V30 1976 C 194.561 -2.20341 0.772798 0
M  V30 1977 C 195.542 -1.68198 -0.25365 0
M  V30 1978 O 196.727 -1.93831 -0.119699 0
M  V30 1979 C 193.857 -3.46709 0.202443 0
M  V30 1980 C 192.811 -4.11996 1.15943 0
M  V30 1981 C 192.137 -5.328 0.450345 0
M  V30 1982 C 193.437 -4.5828 2.50552 0
M  V30 1983 H 195.131 -2.48229 1.674 0
M  V30 1984 H 192.677 -1.19308 0.806326 0
M  V30 1985 H 194.63 -4.2138 -0.0407752 0
M  V30 1986 H 193.354 -3.18245 -0.734001 0
M  V30 1987 H 192.013 -3.39305 1.38808 0
M  V30 1988 H 191.661 -5.00602 -0.490531 0
M  V30 1989 H 191.361 -5.7743 1.08851 0
M  V30 1990 H 192.885 -6.10219 0.215642 0
M  V30 1991 H 194.299 -5.2433 2.31843 0
M  V30 1992 H 192.696 -5.13683 3.10242 0
M  V30 1993 H 193.766 -3.72329 3.10643 0
M  V30 1994 N 195.109 -0.891671 -1.2995 0
M  V30 1995 C 196.334 -0.527932 -2.00568 0
M  V30 1996 C 196.759 0.877969 -1.66353 0
M  V30 1997 O 196.117 1.58301 -0.883762 0
M  V30 1998 C 196.165 -0.717745 -3.53385 0
M  V30 1999 O 195.269 0.233376 -4.11739 0
M  V30 2000 H 194.61 -0.20722 -0.630837 0
M  V30 2001 H 197.14 -1.20105 -1.65638 0
M  V30 2002 H 197.15 -0.619307 -4.03272 0
M  V30 2003 H 195.825 -1.74276 -3.77625 0
M  V30 2004 H 194.402 0.0880706 -3.72796 0
M  V30 2005 N 196.587 1.43421 -0.653314 0
M  V30 2006 C 197.537 2.2792 0.060558 0
M  V30 2007 C 198.521 1.39906 0.794677 0
M  V30 2008 O 199.713 1.63536 0.677128 0
M  V30 2009 C 196.842 3.27603 1.0262 0
M  V30 2010 C 195.928 4.23104 0.290551 0
M  V30 2011 N 196.319 5.01031 -0.692967 0
M  V30 2012 C 194.617 4.42816 0.531984 0
M  V30 2013 C 195.318 5.70626 -1.12963 0
M  V30 2014 N 194.294 5.41617 -0.463867 0
M  V30 2015 H 198.096 2.85585 -0.694143 0
M  V30 2016 H 195.61 1.55126 -0.480602 0
M  V30 2017 H 197.607 3.86918 1.55242 0
M  V30 2018 H 196.267 2.71499 1.78096 0
M  V30 2019 H 197.278 5.0669 -1.07169 0
M  V30 2020 H 193.955 3.97782 1.26791 0
M  V30 2021 H 195.345 6.4318 -1.94343 0
M  V30 2022 N 198.065 0.39524 1.52563 0
M  V30 2023 C 198.975 -0.444232 2.30356 0
M  V30 2024 C 199.991 -1.06615 1.37511 0
M  V30 2025 O 201.167 -1.07067 1.70583 0
M  V30 2026 C 198.232 -1.55315 3.09964 0
M  V30 2027 C 197.293 -0.955734 4.18526 0
M  V30 2028 C 196.526 -2.01181 4.9433 0
M  V30 2029 O 196.749 -3.22781 4.70285 0
M  V30 2030 O 195.683 -1.62579 5.79527 0
M  V30 2031 H 199.509 0.189667 3.03107 0
M  V30 2032 H 197.094 0.1588 1.48554 0
M  V30 2033 H 198.976 -2.19724 3.59582 0
M  V30 2034 H 197.651 -2.17191 2.4002 0
M  V30 2035 H 196.558 -0.274743 3.7309 0
M  V30 2036 H 197.891 -0.381109 4.90722 0
M  V30 2037 N 199.544 -1.57102 0.125237 0
M  V30 2038 C 200.454 -2.19191 -0.8362 0
M  V30 2039 C 201.47 -1.16985 -1.28805 0
M  V30 2040 O 202.646 -1.49479 -1.34974 0
M  V30 2041 C 199.711 -2.78407 -2.06617 0
M  V30 2042 C 198.772 -3.9567 -1.66565 0
M  V30 2043 C 198.005 -4.52052 -2.83698 0
M  V30 2044 O 198.228 -4.07326 -3.99302 0
M  V30 2045 O 197.162 -5.42645 -2.60423 0
M  V30 2046 H 200.988 -3.01816 -0.337776 0
M  V30 2047 H 198.573 -1.4906 -0.100695 0
M  V30 2048 H 200.455 -3.16129 -2.7864 0
M  V30 2049 H 199.13 -1.9881 -2.55453 0
M  V30 2050 H 198.037 -3.62705 -0.916296 0
M  V30 2051 H 199.37 -4.76722 -1.22464 0
M  V30 2052 N 201.022 0.148545 -1.56898 0
M  V30 2053 C 202.271 0.85984 -1.82454 0
M  V30 2054 C 202.584 1.82406 -0.706229 0
M  V30 2055 O 203.79 2.57938 -0.847349 0
M  V30 2056 C 202.246 1.57967 -3.2338 0
M  V30 2057 C 201.854 0.65794 -4.43142 0
M  V30 2058 C 203.598 2.27784 -3.58211 0
M  V30 2059 C 201.505 1.3793 -5.75091 0
M  V30 2060 H 200.435 0.324834 -0.68044 0
M  V30 2061 H 203.086 0.112588 -1.83154 0
M  V30 2062 H 201.468 2.37249 -3.17063 0
M  V30 2063 H 202.642 -0.0995497 -4.60692 0
M  V30 2064 H 200.957 0.0682643 -4.16344 0
M  V30 2065 H 203.554 2.8239 -4.54048 0
M  V30 2066 H 203.897 3.04204 -2.84193 0
M  V30 2067 H 204.43 1.55421 -3.66182 0
M  V30 2068 H 201.169 0.656982 -6.52199 0
M  V30 2069 H 200.689 2.10954 -5.61479 0
M  V30 2070 H 202.368 1.92063 -6.17835 0
M  V30 2071 N 202.5 1.5196 0.417844 0
M  V30 2072 C 203.43 1.77634 1.51554 0
M  V30 2073 C 204.411 0.626918 1.58126 0
M  V30 2074 O 205.596 0.871632 1.7354 0
M  V30 2075 C 202.726 1.91911 2.8946 0
M  V30 2076 C 201.68 3.07463 2.97743 0
M  V30 2077 C 201.006 3.06951 4.37819 0
M  V30 2078 C 202.306 4.47082 2.70027 0
M  V30 2079 H 204 2.6955 1.3032 0
M  V30 2080 H 201.546 1.29706 0.625492 0
M  V30 2081 H 203.499 2.08455 3.6623 0
M  V30 2082 H 202.223 0.966598 3.11969 0
M  V30 2083 H 200.882 2.90656 2.23416 0
M  V30 2084 H 200.53 2.09438 4.57323 0
M  V30 2085 H 200.23 3.84556 4.44286 0
M  V30 2086 H 201.754 3.25613 5.16535 0
M  V30 2087 H 203.168 4.6414 3.36522 0
M  V30 2088 H 201.565 5.2654 2.87881 0
M  V30 2089 H 202.635 4.55777 1.65514 0
M  V30 2090 N 203.978 -0.674533 1.42435 0
M  V30 2091 C 204.91 -1.80005 1.41883 0
M  V30 2092 C 205.923 -1.59667 0.31787 0
M  V30 2093 O 207.112 -1.68781 0.580973 0
M  V30 2094 C 204.212 -3.17114 1.19549 0
M  V30 2095 C 203.385 -3.64299 2.42084 0
M  V30 2096 C 202.444 -4.80142 2.15291 0
M  V30 2097 O 201.47 -4.90673 2.88493 0
M  V30 2098 N 202.672 -5.68869 1.1562 0
M  V30 2099 H 205.437 -1.80964 2.38898 0
M  V30 2100 H 202.998 -0.857633 1.37318 0
M  V30 2101 H 204.99 -3.92267 0.995417 0
M  V30 2102 H 203.56 -3.11053 0.310569 0
M  V30 2103 H 202.78 -2.79822 2.77657 0
M  V30 2104 H 204.068 -3.92567 3.23679 0
M  V30 2105 H 203.466 -5.63012 0.550765 0
M  V30 2106 H 202.023 -6.43833 1.016 0
M  V30 2107 N 205.456 -1.28612 -0.910864 0
M  V30 2108 C 206.386 -1.15326 -2.03032 0
M  V30 2109 C 207.367 -0.0502924 -1.70026 0
M  V30 2110 O 208.552 -0.227797 -1.92859 0
M  V30 2111 C 205.682 -0.817343 -3.37545 0
M  V30 2112 C 204.636 -1.8754 -3.84724 0
M  V30 2113 C 203.962 -1.39305 -5.16235 0
M  V30 2114 C 205.262 -3.28244 -4.06267 0
M  V30 2115 H 206.956 -2.08975 -2.14406 0
M  V30 2116 H 204.502 -1.00612 -1.03021 0
M  V30 2117 H 206.455 -0.711151 -4.15356 0
M  V30 2118 H 205.179 0.154846 -3.26233 0
M  V30 2119 H 203.838 -1.97079 -3.09121 0
M  V30 2120 H 203.486 -0.409846 -5.01328 0
M  V30 2121 H 203.186 -2.10057 -5.48771 0
M  V30 2122 H 204.71 -1.30014 -5.96598 0
M  V30 2123 H 206.124 -3.21611 -4.74594 0
M  V30 2124 H 204.521 -3.96855 -4.5014 0
M  V30 2125 H 205.591 -3.72048 -3.10979 0
M  V30 2126 N 206.934 1.1197 -1.10907 0
M  V30 2127 C 208.183 1.82947 -0.849302 0
M  V30 2128 C 208.496 1.85275 0.627112 0
M  V30 2129 O 209.702 2.52296 1.00295 0
M  V30 2130 C 208.158 3.28529 -1.46959 0
M  V30 2131 C 207.766 3.34546 -2.97965 0
M  V30 2132 C 209.51 4.04443 -1.28942 0
M  V30 2133 C 207.417 4.74491 -3.53004 0
M  V30 2134 H 206.347 0.685477 -0.314065 0
M  V30 2135 H 208.998 1.2604 -1.33365 0
M  V30 2136 H 207.38 3.85333 -0.912917 0
M  V30 2137 H 208.554 2.87654 -3.59989 0
M  V30 2138 H 206.869 2.72108 -3.15192 0
M  V30 2139 H 209.466 5.07787 -1.67502 0
M  V30 2140 H 209.809 4.15656 -0.231456 0
M  V30 2141 H 210.342 3.5401 -1.81443 0
M  V30 2142 H 207.081 4.68474 -4.58489 0
M  V30 2143 H 206.601 5.21816 -2.9575 0
M  V30 2144 H 208.28 5.4344 -3.51115 0
M  V30 2145 N 208.412 0.89855 1.29475 0
M  V30 2146 C 209.689 0.443416 1.90508 0
M  V30 2147 C 210.069 -1.07685 1.81569 0
M  V30 2148 O 209.417 -1.9182 1.24166 0
M  V30 2149 C 209.627 0.956708 3.35631 0
M  V30 2150 C 210.975 0.999728 4.12663 0
M  V30 2151 O 211.999 0.904299 3.4453 0
M  V30 2152 O 210.858 1.14289 5.34416 0
M  V30 2153 H 207.952 0.138025 0.815401 0
M  V30 2154 H 210.498 0.98834 1.37949 0
M  V30 2155 H 209.27 2.00067 3.36287 0
M  V30 2156 H 208.893 0.391728 3.95666 0
M  V30 2157 N 209.89 -1.43072 0.660911 0
M  V30 2158 C 210.838 -2.32569 -0.0378199 0
M  V30 2159 C 211.832 -1.49046 -0.805092 0
M  V30 2160 O 213.038 -1.65206 -0.714624 0
M  V30 2161 H 209.413 -0.75136 -0.031019 0
M  V30 2162 H 211.384 -2.89216 0.734609 0
M  V30 2163 C 210.133 -3.33453 -0.985124 0
M  V30 2164 H 209.456 -3.97752 -0.404147 0
M  V30 2165 H 210.896 -3.98691 -1.44297 0
M  V30 2166 C 209.355 -2.64642 -2.08486 0
M  V30 2167 O 209.885 -2.46776 -3.16961 0
M  V30 2168 N 208.091 -2.23891 -1.8526 0
M  V30 2169 H 207.638 -2.38621 -0.970449 0
M  V30 2170 H 207.596 -1.78181 -2.59034 0
M  V30 2171 N 211.368 -0.403325 -1.52352 0
M  V30 2172 C 212.615 0.174347 -2.01748 0
M  V30 2173 C 212.943 1.45636 -1.2892 0
M  V30 2174 O 212.198 1.9193 -0.382258 0
M  V30 2175 C 212.497 0.474665 -3.54234 0
M  V30 2176 C 212.163 -0.717458 -4.45155 0
M  V30 2177 C 210.825 -1.04447 -4.69728 0
M  V30 2178 C 213.177 -1.51432 -4.98716 0
M  V30 2179 C 210.505 -2.16963 -5.45109 0
M  V30 2180 C 212.857 -2.6302 -5.75329 0
M  V30 2181 C 211.521 -2.96213 -5.98175 0
M  V30 2182 H 210.791 0.0637981 -0.738248 0
M  V30 2183 H 213.438 -0.543553 -1.83624 0
M  V30 2184 H 211.743 1.27406 -3.70506 0
M  V30 2185 H 213.44 0.934496 -3.89959 0
M  V30 2186 H 210.03 -0.452596 -4.26204 0
M  V30 2187 H 214.214 -1.27491 -4.79645 0
M  V30 2188 H 209.47 -2.43034 -5.61021 0
M  V30 2189 H 213.644 -3.25158 -6.15829 0
M  V30 2190 H 211.271 -3.83516 -6.56368 0
M  V30 2191 N 212.846 1.57033 -0.133567 0
M  V30 2192 C 213.809 2.14897 0.796995 0
M  V30 2193 C 214.809 1.0874 1.18458 0
M  V30 2194 O 215.999 1.34446 1.1077 0
M  V30 2195 C 213.131 2.70112 2.07973 0
M  V30 2196 H 214.324 2.98457 0.293873 0
M  V30 2197 H 211.877 1.55871 0.115787 0
M  V30 2198 H 212.612 1.9018 2.62682 0
M  V30 2199 H 212.397 3.47764 1.81115 0
M  V30 2200 H 213.887 3.14738 2.74462 0
M  V30 2201 N 214.325 -0.140222 1.56975 0
M  V30 2202 C 215.741 -0.493088 1.51792 0
M  V30 2203 C 215.941 -1.83013 0.843116 0
M  V30 2204 O 214.997 -2.49041 0.416493 0
M  V30 2205 C 216.31 -0.497144 2.96562 0
M  V30 2206 C 217.858 -0.582186 3.07538 0
M  V30 2207 C 218.333 -0.616838 4.53827 0
M  V30 2208 N 219.824 -0.678873 4.58198 0
M  V30 2209 C 220.559 -0.726782 5.68775 0
M  V30 2210 N 220.055 -0.733623 6.88905 0
M  V30 2211 N 221.848 -0.768179 5.56826 0
M  V30 2212 H 213.999 0.736108 1.99237 0
M  V30 2213 H 216.262 0.269182 0.90898 0
M  V30 2214 H 215.968 0.417217 3.49217 0
M  V30 2215 H 215.842 -1.33263 3.52875 0
M  V30 2216 H 218.229 -1.48697 2.54899 0
M  V30 2217 H 218.31 0.280581 2.54257 0
M  V30 2218 H 217.954 0.283812 5.07106 0
M  V30 2219 H 217.884 -1.49619 5.04898 0
M  V30 2220 H 220.375 -0.68061 3.7172 0
M  V30 2221 H 220.688 -0.772215 7.68932 0
M  V30 2222 H 219.033 -0.701389 6.91452 0
M  V30 2223 H 222.224 -0.760051 4.61888 0
M  V30 2224 H 222.397 -0.80205 6.43017 0
M  V30 2225 N 215.803 -1.52179 -0.40978 0
M  V30 2226 C 217.043 -1.67882 -1.16597 0
M  V30 2227 C 217.407 -0.399795 -1.87791 0
M  V30 2228 O 218.608 -0.43292 -2.65291 0
M  V30 2229 C 216.879 -2.86662 -2.13448 0
M  V30 2230 S 218.438 -3.22843 -2.97183 0
M  V30 2231 H 215.256 -0.59118 -0.395002 0
M  V30 2232 H 217.858 -1.9017 -0.453373 0
M  V30 2233 H 216.562 -3.77998 -1.59831 0
M  V30 2234 H 216.093 -2.66645 -2.89247 0
M  V30 2235 H 218.108 -2.71415 -4.15389 0
M  V30 2236 N 217.281 0.66697 -1.42791 0
M  V30 2237 C 218.244 1.76211 -1.46568 0
M  V30 2238 C 219.244 1.56896 -0.352196 0
M  V30 2239 O 220.434 1.63044 -0.613364 0
M  V30 2240 C 217.566 3.14935 -1.30494 0
M  V30 2241 H 218.759 1.74247 -2.44086 0
M  V30 2242 H 216.312 0.877342 -1.29354 0
M  V30 2243 H 217.047 3.2252 -0.339301 0
M  V30 2244 H 216.832 3.30359 -2.11199 0
M  V30 2245 H 218.322 3.94821 -1.36038 0
M  V30 2246 N 218.759 1.29093 0.90403 0
M  V30 2247 C 219.691 1.09658 2.01266 0
M  V30 2248 C 220.704 0.0453729 1.62737 0
M  V30 2249 O 221.893 0.289446 1.76138 0
M  V30 2250 C 218.993 0.646278 3.32681 0
M  V30 2251 C 218.166 1.77505 3.99763 0
M  V30 2252 C 217.225 1.31649 5.09465 0
M  V30 2253 O 216.251 2.02045 5.32134 0
M  V30 2254 N 217.453 0.184997 5.80205 0
M  V30 2255 H 220.218 2.05135 2.18494 0
M  V30 2256 H 217.779 1.20975 1.07594 0
M  V30 2257 H 219.771 0.322906 4.0341 0
M  V30 2258 H 218.341 -0.215916 3.11853 0
M  V30 2259 H 217.561 2.26752 3.22455 0
M  V30 2260 H 218.849 2.53198 4.41325 0
M  V30 2261 H 218.247 -0.402021 5.6427 0
M  V30 2262 H 216.804 -0.0790358 6.51752 0
M  V30 2263 N 220.237 -1.11381 1.11499 0
M  V30 2264 C 221.167 -2.19509 0.796125 0
M  V30 2265 C 222.148 -1.68458 -0.235796 0
M  V30 2266 O 223.333 -1.93947 -0.0991344 0
M  V30 2267 C 220.463 -3.46475 0.239205 0
M  V30 2268 C 219.417 -4.10744 1.20307 0
M  V30 2269 C 218.743 -5.32293 0.50683 0
M  V30 2270 C 220.043 -4.55597 2.55399 0
M  V30 2271 H 221.737 -2.46439 1.70024 0
M  V30 2272 H 219.283 -1.18446 0.818935 0
M  V30 2273 H 221.236 -4.214 0.00392006 0
M  V30 2274 H 219.96 -3.19006 -0.700206 0
M  V30 2275 H 218.619 -3.37813 1.42399 0
M  V30 2276 H 218.267 -5.01095 -0.437408 0
M  V30 2277 H 217.967 -5.76243 1.1497 0
M  V30 2278 H 219.491 -6.09956 0.280351 0
M  V30 2279 H 220.905 -5.21841 2.37391 0
M  V30 2280 H 219.302 -5.10363 3.15673 0
M  V30 2281 H 220.372 -3.69013 3.14575 0
M  V30 2282 N 221.715 -0.905404 -1.28997 0
M  V30 2283 C 222.678 -0.392253 -2.25819 0
M  V30 2284 C 223.678 0.476753 -1.5357 0
M  V30 2285 O 224.868 0.280994 -1.71919 0
M  V30 2286 C 222 0.438588 -3.38067 0
M  V30 2287 H 223.193 -1.24743 -2.72725 0
M  V30 2288 H 220.746 -0.684051 -1.40536 0
M  V30 2289 H 221.481 1.31352 -2.96508 0
M  V30 2290 H 221.266 -0.184167 -3.91667 0
M  V30 2291 H 222.756 0.78873 -4.10084 0
M  V30 2292 N 223.193 1.4272 -0.668489 0
M  V30 2293 C 224.609 1.55992 -0.33745 0
M  V30 2294 C 224.809 1.64933 1.15756 0
M  V30 2295 O 223.865 1.61278 1.94282 0
M  V30 2296 C 225.178 2.81314 -1.06222 0
M  V30 2297 C 226.726 2.95078 -1.04394 0
M  V30 2298 C 227.201 4.23252 -1.74991 0
M  V30 2299 N 228.692 4.3015 -1.71829 0
M  V30 2300 C 229.427 5.28127 -2.23315 0
M  V30 2301 N 228.923 6.32293 -2.83156 0
M  V30 2302 N 230.716 5.19882 -2.13726 0
M  V30 2303 H 222.867 1.3516 -1.63846 0
M  V30 2304 H 225.13 0.650174 -0.689912 0
M  V30 2305 H 224.836 2.80823 -2.11734 0
M  V30 2306 H 224.71 3.72012 -0.62344 0
M  V30 2307 H 227.097 2.951 0.0028244 0
M  V30 2308 H 227.178 2.05627 -1.52155 0
M  V30 2309 H 226.822 4.2399 -2.79633 0
M  V30 2310 H 226.752 5.11626 -1.24685 0
M  V30 2311 H 229.243 3.55499 -1.28175 0
M  V30 2312 H 229.556 7.03398 -3.20079 0
M  V30 2313 H 227.901 6.32873 -2.87223 0
M  V30 2314 H 231.092 4.37423 -1.66669 0
M  V30 2315 H 231.265 5.96077 -2.54158 0
M  V30 2316 N 224.671 0.411399 1.52136 0
M  V30 2317 C 225.581 -0.419774 2.30814 0
M  V30 2318 C 226.597 -1.0515 1.38634 0
M  V30 2319 O 227.773 -1.05252 1.71709 0
M  V30 2320 C 224.838 -1.52019 3.11594 0
M  V30 2321 C 223.899 -0.91129 4.19516 0
M  V30 2322 C 223.132 -1.95927 4.96436 0
M  V30 2323 O 223.355 -3.17775 4.73683 0
M  V30 2324 O 222.289 -1.56423 5.81219 0
M  V30 2325 H 226.115 0.221805 3.02889 0
M  V30 2326 H 223.7 0.174547 1.48377 0
M  V30 2327 H 225.582 -2.15898 3.61892 0
M  V30 2328 H 224.257 -2.14633 2.42311 0
M  V30 2329 H 223.164 -0.235157 3.7336 0
M  V30 2330 H 224.497 -0.32904 4.91099 0
M  V30 2331 N 226.149 -1.5696 0.141893 0
M  V30 2332 C 227.112 -2.15316 -0.785587 0
M  V30 2333 C 228.112 -1.09366 -1.1788 0
M  V30 2334 O 229.302 -1.35031 -1.10056 0
M  V30 2335 C 226.434 -2.71211 -2.06537 0
M  V30 2336 H 227.627 -2.98608 -0.278041 0
M  V30 2337 H 225.18 -1.5593 -0.107519 0
M  V30 2338 H 225.915 -1.91571 -2.6167 0
M  V30 2339 H 225.7 -3.4872 -1.79268 0
M  V30 2340 H 227.19 -3.16189 -2.72789 0
M  V30 2341 N 227.627 0.131896 -1.57047 0
M  V30 2342 C 228.875 0.840269 -1.83804 0
M  V30 2343 C 229.196 1.81017 -0.72512 0
M  V30 2344 O 228.466 1.94272 0.251995 0
M  V30 2345 H 227.046 0.313294 -0.678127 0
M  V30 2346 H 229.708 0.122294 -1.94516 0
M  V30 2347 H 228.804 1.39335 -2.79271 0
M  V30 2348 N 229.106 1.52395 0.401703 0
M  V30 2349 C 230.336 1.70429 1.1678 0
M  V30 2350 C 230.744 0.416702 1.84554 0
M  V30 2351 O 230.087 -0.617697 1.73003 0
M  V30 2352 C 230.149 2.78919 2.26814 0
M  V30 2353 C 229.813 4.20437 1.79113 0
M  V30 2354 C 230.81 5.04028 1.27482 0
M  V30 2355 C 228.495 4.66704 1.85722 0
M  V30 2356 C 230.489 6.31961 0.830913 0
M  V30 2357 C 228.176 5.94625 1.40942 0
M  V30 2358 C 229.174 6.77082 0.897128 0
M  V30 2359 O 228.862 8.02607 0.455822 0
M  V30 2360 H 228.594 0.574272 0.356634 0
M  V30 2361 H 231.148 1.99767 0.477724 0
M  V30 2362 H 229.378 2.44973 2.99207 0
M  V30 2363 H 231.067 2.8548 2.88541 0
M  V30 2364 H 231.833 4.69471 1.21744 0
M  V30 2365 H 227.712 4.0262 2.24539 0
M  V30 2366 H 231.256 6.96271 0.430368 0
M  V30 2367 H 227.153 6.28688 1.46362 0
M  V30 2368 H 227.921 8.16453 0.578457 0
M  V30 2369 N 230.584 -0.659388 1.43143 0
M  V30 2370 C 231.861 -1.41627 1.34912 0
M  V30 2371 C 232.241 -2.11099 -0.00607785 0
M  V30 2372 O 231.589 -2.04353 -1.02236 0
M  V30 2373 C 231.799 -2.40604 2.52805 0
M  V30 2374 C 233.147 -3.04789 2.95616 0
M  V30 2375 O 234.171 -2.50932 2.52807 0
M  V30 2376 O 233.03 -4.02421 3.69756 0
M  V30 2377 H 230.124 -0.63246 0.532844 0
M  V30 2378 H 232.67 -0.686814 1.5518 0
M  V30 2379 H 231.442 -1.88174 3.43083 0
M  V30 2380 H 231.065 -3.21009 2.34604 0
M  V30 2381 N 232.062 -1.29571 -0.897171 0
M  V30 2382 C 233.31 -1.17456 -1.64464 0
M  V30 2383 C 233.631 0.273698 -1.9307 0
M  V30 2384 O 232.901 1.18684 -1.55855 0
M  V30 2385 H 231.481 -0.431706 -0.609622 0
M  V30 2386 H 234.143 -1.62531 -1.07562 0
M  V30 2387 H 233.239 -1.72648 -2.59998 0
M  V30 2388 N 233.54 1.10788 -1.12088 0
M  V30 2389 C 234.786 1.82942 -0.875226 0
M  V30 2390 C 235.119 1.84779 0.597538 0
M  V30 2391 O 234.394 1.30578 1.44152 0
M  V30 2392 C 234.677 3.29789 -1.44606 0
M  V30 2393 C 234.53 3.36307 -2.98693 0
M  V30 2394 C 235.849 4.26064 -1.10261 0
M  V30 2395 H 232.968 0.664195 -0.319397 0
M  V30 2396 H 235.61 1.29867 -1.38689 0
M  V30 2397 H 233.76 3.75118 -1.01089 0
M  V30 2398 H 235.432 2.99487 -3.50864 0
M  V30 2399 H 233.675 2.76318 -3.34411 0
M  V30 2400 H 234.346 4.39694 -3.33726 0
M  V30 2401 H 236.822 3.88951 -1.4784 0
M  V30 2402 H 235.698 5.27183 -1.52869 0
M  V30 2403 H 235.959 4.42098 -0.0142953 0
M  V30 2404 N 235.018 0.912232 1.28515 0
M  V30 2405 C 235.928 0.404506 2.31086 0
M  V30 2406 C 236.944 -0.50707 1.66448 0
M  V30 2407 O 238.12 -0.393624 1.97516 0
M  V30 2408 C 235.185 -0.348572 3.44943 0
M  V30 2409 C 234.246 0.59604 4.25142 0
M  V30 2410 C 233.479 -0.121194 5.33562 0
M  V30 2411 O 233.702 -1.34317 5.5436 0
M  V30 2412 O 232.636 0.542716 5.99448 0
M  V30 2413 H 236.462 1.25579 2.76521 0
M  V30 2414 H 234.047 0.676998 1.33181 0
M  V30 2415 H 235.929 -0.77395 4.14232 0
M  V30 2416 H 234.604 -1.17571 3.01594 0
M  V30 2417 H 233.511 1.07079 3.58448 0
M  V30 2418 H 234.844 1.38995 4.72167 0
M  V30 2419 N 236.496 -1.42363 0.676048 0
M  V30 2420 C 237.742 -2.0182 0.199125 0
M  V30 2421 C 238.075 -1.53339 -1.19168 0
M  V30 2422 O 237.35 -0.736124 -1.80032 0
M  V30 2423 C 237.633 -3.59331 0.235144 0
M  V30 2424 C 237.486 -4.17989 1.66149 0
M  V30 2425 C 238.805 -4.3813 -0.41595 0
M  V30 2426 H 235.924 -0.733293 0.0738311 0
M  V30 2427 H 238.566 -1.69368 0.86107 0
M  V30 2428 H 236.716 -3.87109 -0.328487 0
M  V30 2429 H 238.388 -4.0116 2.27747 0
M  V30 2430 H 236.631 -3.7377 2.20178 0
M  V30 2431 H 237.302 -5.27126 1.63837 0
M  V30 2432 H 239.778 -4.16051 0.0638529 0
M  V30 2433 H 238.654 -5.47717 -0.360115 0
M  V30 2434 H 238.915 -4.16101 -1.49373 0
M  V30 2435 N 237.974 -0.419461 -1.51915 0
M  V30 2436 C 238.907 0.445751 -2.23804 0
M  V30 2437 C 239.885 1.03951 -1.25031 0
M  V30 2438 O 241.069 1.08541 -1.54114 0
M  V30 2439 C 238.196 1.61964 -2.97465 0
M  V30 2440 C 237.242 1.14828 -4.10751 0
M  V30 2441 S 238.075 0.104938 -5.35397 0
M  V30 2442 C 239.231 1.28391 -6.1259 0
M  V30 2443 H 239.464 -0.164627 -2.96844 0
M  V30 2444 H 236.997 -0.203833 -1.53049 0
M  V30 2445 H 238.955 2.29271 -3.40507 0
M  V30 2446 H 237.616 2.20139 -2.24048 0
M  V30 2447 H 236.809 2.02561 -4.61503 0
M  V30 2448 H 236.411 0.553712 -3.69878 0
M  V30 2449 H 238.703 2.20563 -6.40592 0
M  V30 2450 H 239.646 0.816724 -7.03374 0
M  V30 2451 H 240.054 1.51439 -5.43807 0
M  V30 2452 N 239.452 1.56882 -0.150215 0
M  V30 2453 C 240.7 1.9584 0.499105 0
M  V30 2454 C 241.021 1.03623 1.65188 0
M  V30 2455 O 240.291 0.0984084 1.95653 0
M  V30 2456 H 238.871 0.723119 0.187373 0
M  V30 2457 H 241.533 1.9358 -0.226466 0
M  V30 2458 H 240.629 2.99638 0.873122 0
M  V30 2459 N 240.93 -0.123565 1.57115 0
M  V30 2460 C 242.155 -0.850398 1.89164 0
M  V30 2461 C 242.58 -1.7286 0.741688 0
M  V30 2462 O 241.938 -1.78665 -0.307958 0
M  V30 2463 C 241.986 -1.66353 3.19936 0
M  V30 2464 O 241.09 -2.77004 3.0552 0
M  V30 2465 H 240.431 -0.235454 0.620852 0
M  V30 2466 H 242.961 -0.107335 2.04318 0
M  V30 2467 H 242.971 -2.05372 3.52543 0
M  V30 2468 H 241.646 -1.01881 4.03228 0
M  V30 2469 H 240.223 -2.41221 2.84371 0
M  V30 2470 N 242.408 -1.52605 -0.393616 0
M  V30 2471 C 243.318 -1.79971 -1.50492 0
M  V30 2472 C 244.334 -0.686181 -1.59899 0
M  V30 2473 O 245.51 -0.973274 -1.76322 0
M  V30 2474 C 242.575 -1.95867 -2.86072 0
M  V30 2475 C 241.636 -3.19781 -2.86424 0
M  V30 2476 C 240.869 -3.34909 -4.15538 0
M  V30 2477 O 241.092 -2.54948 -5.10253 0
M  V30 2478 O 240.026 -4.28141 -4.23059 0
M  V30 2479 H 243.852 -2.74328 -1.30299 0
M  V30 2480 H 241.437 -1.3764 -0.581005 0
M  V30 2481 H 243.319 -2.08056 -3.66457 0
M  V30 2482 H 241.994 -1.04699 -3.063 0
M  V30 2483 H 240.901 -3.13038 -2.04837 0
M  V30 2484 H 242.234 -4.1078 -2.71147 0
M  V30 2485 N 243.887 0.651787 -1.4349 0
M  V30 2486 C 245.135 1.40888 -1.44897 0
M  V30 2487 C 245.456 1.94856 -0.0749086 0
M  V30 2488 O 244.726 1.74518 0.889956 0
M  V30 2489 H 243.306 0.522887 -0.533478 0
M  V30 2490 H 245.968 0.768609 -1.79104 0
M  V30 2491 H 245.064 2.25052 -2.16236 0
M  V30 2492 N 245.365 1.30045 0.890287 0
M  V30 2493 C 246.595 1.21296 1.67245 0
M  V30 2494 C 247.003 -0.227471 1.87828 0
M  V30 2495 O 246.346 -1.16296 1.422 0
M  V30 2496 C 246.408 1.86519 3.07329 0
M  V30 2497 C 246.072 3.35837 3.09939 0
M  V30 2498 C 247.069 4.31915 2.89389 0
M  V30 2499 C 244.754 3.77196 3.31706 0
M  V30 2500 C 246.748 5.67325 2.90552 0
M  V30 2501 C 244.435 5.12725 3.32499 0
M  V30 2502 C 245.433 6.076 3.11947 0
M  V30 2503 O 245.121 7.40655 3.12547 0
M  V30 2504 H 244.853 0.4211 0.528821 0
M  V30 2505 H 247.407 1.72111 1.12103 0
M  V30 2506 H 245.637 1.30228 3.64112 0
M  V30 2507 H 247.326 1.71963 3.67673 0
M  V30 2508 H 248.092 4.01294 2.72375 0
M  V30 2509 H 243.971 3.03796 3.4674 0
M  V30 2510 H 247.515 6.41354 2.74429 0
M  V30 2511 H 243.412 5.42988 3.49047 0
M  V30 2512 H 244.18 7.49577 3.28749 0
M  V30 2513 N 246.843 -1.10192 1.12674 0
M  V30 2514 C 247.773 -2.18652 0.819362 0
M  V30 2515 C 248.754 -1.68698 -0.217915 0
M  V30 2516 O 249.939 -1.94041 -0.0785581 0
M  V30 2517 C 247.069 -3.46202 0.27594 0
M  V30 2518 C 246.023 -4.09444 1.24656 0
M  V30 2519 C 245.349 -5.31725 0.563258 0
M  V30 2520 C 246.649 -4.52863 2.60217 0
M  V30 2521 H 248.343 -2.44622 1.72628 0
M  V30 2522 H 245.889 -1.17571 0.831451 0
M  V30 2523 H 247.842 -4.21372 0.0486149 0
M  V30 2524 H 246.566 -3.1973 -0.666331 0
M  V30 2525 H 245.225 -3.36284 1.45974 0
M  V30 2526 H 244.873 -5.0153 -0.384235 0
M  V30 2527 H 244.573 -5.74991 1.21075 0
M  V30 2528 H 246.097 -6.09624 0.34503 0
M  V30 2529 H 247.511 -5.19294 2.42913 0
M  V30 2530 H 245.908 -5.06986 3.21068 0
M  V30 2531 H 246.978 -3.65656 3.18471 0
M  V30 2532 N 248.321 -0.919034 -1.28029 0
M  V30 2533 C 249.57 -0.550802 -1.94034 0
M  V30 2534 C 249.883 0.910877 -1.73096 0
M  V30 2535 O 251.089 1.3875 -2.33368 0
M  V30 2536 C 249.545 -0.934249 -3.47563 0
M  V30 2537 C 249.153 -2.41602 -3.7727 0
M  V30 2538 C 250.897 -0.636854 -4.19696 0
M  V30 2539 C 248.804 -2.73932 -5.24133 0
M  V30 2540 H 247.734 -0.202273 -0.726362 0
M  V30 2541 H 250.385 -1.11867 -1.45458 0
M  V30 2542 H 248.767 -0.295115 -3.94899 0
M  V30 2543 H 249.941 -3.10233 -3.40723 0
M  V30 2544 H 248.256 -2.68441 -3.18321 0
M  V30 2545 H 250.853 -0.855005 -5.2782 0
M  V30 2546 H 251.196 0.425575 -4.14119 0
M  V30 2547 H 251.729 -1.23469 -3.78154 0
M  V30 2548 H 248.468 -3.79049 -5.34792 0
M  V30 2549 H 247.988 -2.09942 -5.61858 0
M  V30 2550 H 249.667 -2.61215 -5.91925 0
M  V30 2551 N 249.799 1.42003 -0.683588 0
M  V30 2552 C 250.747 2.326 0.000815408 0
M  V30 2553 C 251.741 1.50308 0.781278 0
M  V30 2554 O 252.947 1.66322 0.688251 0
M  V30 2555 H 249.322 0.751758 0.0190616 0
M  V30 2556 H 251.293 2.88011 -0.780528 0
M  V30 2557 C 250.042 3.34978 0.93195 0
M  V30 2558 H 249.365 3.98345 0.340817 0
M  V30 2559 H 250.805 4.00936 1.37936 0
M  V30 2560 C 249.264 2.67925 2.04249 0
M  V30 2561 O 249.794 2.51788 3.12995 0
M  V30 2562 N 248 2.2681 1.81675 0
M  V30 2563 H 247.547 2.40135 0.932363 0
M  V30 2564 H 247.505 1.8228 2.56167 0
M  V30 2565 N 251.277 0.427512 1.51691 0
M  V30 2566 C 252.187 -0.39527 2.31246 0
M  V30 2567 C 253.203 -1.03674 1.39742 0
M  V30 2568 O 254.379 -1.03425 1.72816 0
M  V30 2569 C 251.444 -1.48706 3.13189 0
M  V30 2570 C 250.505 -0.866743 4.20459 0
M  V30 2571 C 249.738 -1.90651 4.98486 0
M  V30 2572 O 249.961 -3.12733 4.77026 0
M  V30 2573 O 248.895 -1.5025 5.82845 0
M  V30 2574 H 252.721 0.253918 3.02637 0
M  V30 2575 H 250.306 0.190274 1.48183 0
M  V30 2576 H 252.188 -2.12047 3.64162 0
M  V30 2577 H 250.863 -2.12051 2.44573 0
M  V30 2578 H 249.77 -0.195544 3.73589 0
M  V30 2579 H 251.103 -0.276934 4.9142 0
M  V30 2580 N 252.755 -1.56801 0.158532 0
M  V30 2581 C 254.002 -1.9649 -0.489679 0
M  V30 2582 C 254.33 -1.04394 -1.6411 0
M  V30 2583 O 253.585 -0.0754401 -1.95555 0
M  V30 2584 C 253.884 -3.4235 -1.02623 0
M  V30 2585 C 253.55 -4.50899 0.00794526 0
M  V30 2586 C 252.212 -4.80312 0.292207 0
M  V30 2587 C 254.564 -5.16333 0.710584 0
M  V30 2588 C 251.892 -5.72461 1.28472 0
M  V30 2589 C 254.244 -6.09553 1.69199 0
M  V30 2590 C 252.908 -6.37339 1.98383 0
M  V30 2591 H 252.178 -0.719009 -0.179186 0
M  V30 2592 H 254.825 -1.8989 0.247798 0
M  V30 2593 H 253.13 -3.45838 -1.84128 0
M  V30 2594 H 254.827 -3.70393 -1.53656 0
M  V30 2595 H 251.417 -4.28015 -0.22379 0
M  V30 2596 H 255.601 -4.93732 0.504174 0
M  V30 2597 H 250.857 -5.92278 1.51714 0
M  V30 2598 H 255.031 -6.59327 2.24189 0
M  V30 2599 H 252.658 -7.08546 2.7544 0
M  V30 2600 N 254.233 0.115231 -1.57178 0
M  V30 2601 C 255.163 1.1423 -2.03651 0
M  V30 2602 C 256.144 1.42967 -0.921655 0
M  V30 2603 O 257.329 1.53343 -1.19162 0
M  V30 2604 C 254.459 2.4675 -2.44401 0
M  V30 2605 C 253.413 2.32467 -3.59365 0
M  V30 2606 C 252.739 3.69984 -3.86026 0
M  V30 2607 C 254.039 1.78203 -4.90959 0
M  V30 2608 H 255.733 0.755749 -2.89705 0
M  V30 2609 H 253.279 0.362093 -1.39373 0
M  V30 2610 H 255.232 3.18854 -2.75517 0
M  V30 2611 H 253.956 2.87302 -1.55322 0
M  V30 2612 H 252.615 1.62811 -3.28463 0
M  V30 2613 H 252.263 4.08028 -2.94147 0
M  V30 2614 H 251.963 3.61279 -4.63412 0
M  V30 2615 H 253.487 4.43587 -4.19599 0
M  V30 2616 H 254.901 2.40128 -5.20587 0
M  V30 2617 H 253.298 1.8031 -5.72371 0
M  V30 2618 H 254.368 0.739876 -4.79222 0
M  V30 2619 N 255.711 1.52812 0.385517 0
M  V30 2620 C 256.939 1.71907 1.15133 0
M  V30 2621 C 257.354 0.439004 1.83625 0
M  V30 2622 O 256.711 -0.586765 1.7281 0
M  V30 2623 C 256.762 2.87099 2.19673 0
M  V30 2624 O 256.483 4.10151 1.53973 0
M  V30 2625 C 257.984 3.17902 3.08955 0
M  V30 2626 H 255.204 0.575479 0.345057 0
M  V30 2627 H 257.748 1.99476 0.45052 0
M  V30 2628 H 255.903 2.61982 2.85384 0
M  V30 2629 H 256.317 4.74514 2.23465 0
M  V30 2630 H 257.791 4.01959 3.7833 0
M  V30 2631 H 258.268 2.3243 3.72657 0
M  V30 2632 H 258.874 3.44871 2.48885 0
M  V30 2633 N 257.189 -0.644168 1.43834 0
M  V30 2634 C 258.119 -1.76814 1.52509 0
M  V30 2635 C 259.1 -1.65823 0.379052 0
M  V30 2636 O 260.285 -1.84781 0.597466 0
M  V30 2637 C 257.415 -3.15288 1.4564 0
M  V30 2638 C 256.369 -3.41053 2.58586 0
M  V30 2639 C 255.695 -4.79421 2.36769 0
M  V30 2640 C 256.995 -3.34902 4.00797 0
M  V30 2641 H 258.689 -1.69812 2.46586 0
M  V30 2642 H 256.235 -0.815542 1.1868 0
M  V30 2643 H 258.188 -3.93681 1.50311 0
M  V30 2644 H 256.912 -3.23043 0.480725 0
M  V30 2645 H 255.571 -2.65035 2.53282 0
M  V30 2646 H 255.219 -4.83863 1.37424 0
M  V30 2647 H 254.919 -4.9762 3.12487 0
M  V30 2648 H 256.443 -5.6006 2.43238 0
M  V30 2649 H 257.857 -4.03218 4.07539 0
M  V30 2650 H 256.254 -3.64637 4.76613 0
M  V30 2651 H 257.324 -2.32928 4.25291 0
M  V30 2652 N 258.668 -1.30515 -0.883378 0
M  V30 2653 C 260.084 -1.08881 -1.16692 0
M  V30 2654 C 260.284 0.149409 -2.00945 0
M  V30 2655 O 259.34 0.84257 -2.38027 0
M  V30 2656 C 260.653 -2.35319 -1.87204 0
M  V30 2657 C 262.201 -2.40799 -1.99962 0
M  V30 2658 C 262.676 -3.67083 -2.73887 0
M  V30 2659 N 264.167 -3.679 -2.81432 0
M  V30 2660 C 264.902 -4.62303 -3.3921 0
M  V30 2661 N 264.398 -5.67052 -3.98025 0
M  V30 2662 N 266.191 -4.49845 -3.3704 0
M  V30 2663 H 258.342 -2.09951 -0.321633 0
M  V30 2664 H 260.605 -0.92556 -0.205043 0
M  V30 2665 H 260.311 -3.25689 -1.3274 0
M  V30 2666 H 260.185 -2.44089 -2.87577 0
M  V30 2667 H 262.572 -1.50907 -2.53597 0
M  V30 2668 H 262.653 -2.36003 -0.98673 0
M  V30 2669 H 262.297 -4.57334 -2.20925 0
M  V30 2670 H 262.227 -3.69141 -3.75556 0
M  V30 2671 H 264.718 -2.92171 -2.39676 0
M  V30 2672 H 265.031 -6.35184 -4.40183 0
M  V30 2673 H 263.376 -5.70842 -3.96439 0
M  V30 2674 H 266.567 -3.67194 -2.90321 0
M  V30 2675 H 266.74 -5.23597 -3.81772 0
M  V30 2676 N 260.146 1.09593 -1.13257 0
M  V30 2677 C 261.374 1.855 -0.916378 0
M  V30 2678 C 261.789 1.81069 0.534738 0
M  V30 2679 O 261.146 1.20562 1.37007 0
M  V30 2680 C 261.197 3.33546 -1.39388 0
M  V30 2681 O 260.918 3.37927 -2.78813 0
M  V30 2682 C 262.419 4.26299 -1.21588 0
M  V30 2683 H 259.639 0.585991 -0.326887 0
M  V30 2684 H 262.183 1.38488 -1.5047 0
M  V30 2685 H 260.338 3.77992 -0.848597 0
M  V30 2686 H 260.752 4.30254 -2.9997 0
M  V30 2687 H 262.226 5.28341 -1.59876 0
M  V30 2688 H 262.703 4.38918 -0.157376 0
M  V30 2689 H 263.309 3.87668 -1.7491 0
M  V30 2690 N 261.624 0.925811 1.2754 0
M  V30 2691 C 262.572 0.413897 2.28888 0
M  V30 2692 C 263.566 -0.500779 1.61829 0
M  V30 2693 O 264.772 -0.38069 1.75928 0
M  V30 2694 H 261.147 0.115274 0.743112 0
M  V30 2695 H 263.118 1.28151 2.69481 0
M  V30 2696 C 261.867 -0.319792 3.46226 0
M  V30 2697 H 261.19 0.374846 3.98039 0
M  V30 2698 H 262.63 -0.642435 4.19105 0
M  V30 2699 C 261.089 -1.53209 3.00048 0
M  V30 2700 O 261.619 -2.6309 3.03557 0
M  V30 2701 N 259.825 -1.38326 2.55566 0
M  V30 2702 H 259.372 -0.489292 2.5291 0
M  V30 2703 H 259.33 -2.19564 2.25031 0
M  V30 2704 N 263.102 -1.41638 0.69111 0
M  V30 2705 C 264.034 -2.29194 -0.0161523 0
M  V30 2706 C 265.047 -1.44549 -0.748955 0
M  V30 2707 O 266.236 -1.681 -0.6004 0
M  V30 2708 C 263.336 -3.22325 -1.0469 0
M  V30 2709 C 262.509 -4.35706 -0.384621 0
M  V30 2710 C 261.568 -5.09443 -1.31737 0
M  V30 2711 O 260.594 -5.63386 -0.811451 0
M  V30 2712 N 261.796 -5.16487 -2.64993 0
M  V30 2713 H 264.561 -2.90534 0.735523 0
M  V30 2714 H 262.122 -1.52742 0.53679 0
M  V30 2715 H 264.114 -3.68522 -1.67252 0
M  V30 2716 H 262.684 -2.62323 -1.70015 0
M  V30 2717 H 261.904 -3.91948 0.420804 0
M  V30 2718 H 263.192 -5.08743 0.0760765 0
M  V30 2719 H 262.59 -4.741 -3.08619 0
M  V30 2720 H 261.147 -5.66276 -3.22761 0
M  V30 2721 N 264.58 -0.43555 -1.51462 0
M  V30 2722 C 265.996 -0.0877501 -1.59359 0
M  V30 2723 C 266.196 1.4027 -1.4466 0
M  V30 2724 O 265.252 2.17243 -1.28693 0
M  V30 2725 C 266.565 -0.606264 -2.94525 0
M  V30 2726 C 268.113 -0.566548 -3.0783 0
M  V30 2727 C 268.588 -1.06201 -4.45517 0
M  V30 2728 N 270.079 -1.01992 -4.51832 0
M  V30 2729 C 270.814 -1.37417 -5.5669 0
M  V30 2730 N 270.31 -1.80119 -6.68976 0
M  V30 2731 N 272.103 -1.29245 -5.47039 0
M  V30 2732 H 264.254 -1.40533 -1.59261 0
M  V30 2733 H 266.517 -0.578992 -0.750648 0
M  V30 2734 H 266.223 -1.64901 -3.10645 0
M  V30 2735 H 266.097 -0.0302097 -3.77188 0
M  V30 2736 H 268.484 0.467208 -2.91378 0
M  V30 2737 H 268.565 -1.17898 -2.2701 0
M  V30 2738 H 268.209 -2.09422 -4.62715 0
M  V30 2739 H 268.139 -0.426127 -5.24873 0
M  V30 2740 H 270.63 -0.706308 -3.71241 0
M  V30 2741 H 270.943 -2.05392 -7.45006 0
M  V30 2742 H 269.288 -1.84044 -6.70189 0
M  V30 2743 H 272.479 -0.957522 -4.58202 0
M  V30 2744 H 272.652 -1.57182 -6.28648 0
M  V30 2745 N 266.058 1.56714 -0.166846 0
M  V30 2746 C 267.283 2.01557 0.488833 0
M  V30 2747 C 267.708 1.0463 1.56314 0
M  V30 2748 O 267.066 0.0251304 1.81283 0
M  V30 2749 C 267.114 3.4503 1.04818 0
M  V30 2750 O 266.218 3.51163 2.16236 0
M  V30 2751 H 265.559 0.653516 0.117526 0
M  V30 2752 H 268.089 2.02818 -0.269421 0
M  V30 2753 H 268.099 3.84243 1.37191 0
M  V30 2754 H 266.774 4.15077 0.261572 0
M  V30 2755 H 265.351 3.23807 1.84942 0
M  V30 2756 N 267.536 -0.106894 1.57237 0
M  V30 2757 C 268.813 -0.843526 1.76477 0
M  V30 2758 C 269.193 -1.97499 0.745464 0
M  V30 2759 O 268.541 -2.27357 -0.228306 0
M  V30 2760 C 268.751 -1.34903 3.21873 0
M  V30 2761 C 270.099 -1.79654 3.8472 0
M  V30 2762 O 271.123 -1.44554 3.2555 0
M  V30 2763 O 269.982 -2.44515 4.88748 0
M  V30 2764 H 267.076 -0.401468 0.723016 0
M  V30 2765 H 269.622 -0.0896927 1.69463 0
M  V30 2766 H 268.394 -0.53781 3.87586 0
M  V30 2767 H 268.017 -2.16522 3.33473 0
M  V30 2768 N 269.014 -1.53014 -0.377408 0
M  V30 2769 C 269.946 -1.74884 -1.48149 0
M  V30 2770 C 270.959 -0.629433 -1.5014 0
M  V30 2771 O 272.148 -0.905416 -1.53833 0
M  V30 2772 C 269.248 -1.80299 -2.86959 0
M  V30 2773 C 268.421 -3.09776 -3.08801 0
M  V30 2774 C 267.48 -3.06586 -4.27658 0
M  V30 2775 O 266.506 -3.80419 -4.23403 0
M  V30 2776 N 267.708 -2.26578 -5.34455 0
M  V30 2777 H 270.473 -2.70147 -1.29771 0
M  V30 2778 H 268.034 -1.51646 -0.56703 0
M  V30 2779 H 270.026 -1.75657 -3.64591 0
M  V30 2780 H 268.596 -0.92372 -2.98641 0
M  V30 2781 H 267.816 -3.27815 -2.18931 0
M  V30 2782 H 269.104 -3.95366 -3.20255 0
M  V30 2783 H 268.502 -1.66081 -5.40771 0
M  V30 2784 H 267.059 -2.27766 -6.10709 0
M  V30 2785 N 270.492 0.636531 -1.44174 0
M  V30 2786 C 271.738 1.39649 -1.47884 0
M  V30 2787 C 272.093 1.92098 -0.107747 0
M  V30 2788 O 271.386 1.70391 0.876208 0
M  V30 2789 C 271.58 2.58309 -2.47005 0
M  V30 2790 C 271.409 2.17476 -3.93617 0
M  V30 2791 C 270.179 2.0501 -4.61843 0
M  V30 2792 C 272.377 1.76722 -4.82984 0
M  V30 2793 N 270.359 1.57683 -5.93304 0
M  V30 2794 C 271.73 1.40601 -6.03847 0
M  V30 2795 C 273.785 1.64054 -4.70096 0
M  V30 2796 C 272.488 0.930787 -7.13252 0
M  V30 2797 C 274.514 1.17937 -5.79521 0
M  V30 2798 C 273.876 0.827625 -6.99521 0
M  V30 2799 H 269.975 0.506027 -0.596205 0
M  V30 2800 H 272.559 0.730791 -1.80465 0
M  V30 2801 H 270.73 3.22514 -2.16423 0
M  V30 2802 H 272.462 3.25083 -2.41045 0
M  V30 2803 H 269.217 2.25294 -4.16581 0
M  V30 2804 H 269.641 1.36334 -6.63131 0
M  V30 2805 H 274.283 1.89882 -3.77762 0
M  V30 2806 H 272.001 0.660012 -8.054 0
M  V30 2807 H 275.587 1.08601 -5.71574 0
M  V30 2808 H 274.467 0.476231 -7.82753 0
M  V30 2809 N 271.97 1.30982 0.876444 0
M  V30 2810 C 273.218 1.20058 1.62575 0
M  V30 2811 C 273.539 -0.242947 1.93481 0
M  V30 2812 O 272.809 -1.1619 1.57724 0
M  V30 2813 H 271.389 0.44135 0.602677 0
M  V30 2814 H 274.051 1.64222 1.04962 0
M  V30 2815 H 273.147 1.76762 2.57219 0
M  V30 2816 N 273.449 -1.08991 1.13837 0
M  V30 2817 C 274.697 -1.80899 0.901098 0
M  V30 2818 C 275.018 -1.86356 -0.574134 0
M  V30 2819 O 274.288 -1.35235 -1.41733 0
M  V30 2820 H 272.868 -0.669966 0.330386 0
M  V30 2821 H 275.53 -1.318 1.43578 0
M  V30 2822 H 274.626 -2.83929 1.29578 0
M  V30 2823 N 274.927 -0.932562 -1.27047 0
M  V30 2824 C 276.204 -0.49377 -1.89265 0
M  V30 2825 C 276.584 1.02833 -1.8436 0
M  V30 2826 O 275.932 1.88461 -1.29209 0
M  V30 2827 C 276.142 -1.04536 -3.32976 0
M  V30 2828 C 277.49 -1.10879 -4.09867 0
M  V30 2829 O 278.514 -0.995327 -3.42011 0
M  V30 2830 O 277.373 -1.28417 -5.31198 0
M  V30 2831 H 274.467 -0.159596 -0.811454 0
M  V30 2832 H 277.013 -1.02457 -1.3528 0
M  V30 2833 H 275.785 -2.08913 -3.30864 0
M  V30 2834 H 275.408 -0.496494 -3.94488 0
M  V30 2835 N 276.405 1.4127 -0.698611 0
M  V30 2836 C 277.635 2.05205 -0.239644 0
M  V30 2837 C 278.043 1.52684 1.11733 0
M  V30 2838 O 277.386 0.671222 1.70998 0
M  V30 2839 C 277.448 3.59289 -0.123126 0
M  V30 2840 C 277.112 4.34619 -1.41263 0
M  V30 2841 C 278.109 4.63701 -2.35111 0
M  V30 2842 C 275.794 4.73837 -1.66684 0
M  V30 2843 C 277.788 5.30966 -3.52639 0
M  V30 2844 C 275.475 5.40837 -2.84498 0
M  V30 2845 C 276.473 5.69329 -3.77298 0
M  V30 2846 O 276.161 6.34949 -4.93047 0
M  V30 2847 H 275.893 0.66723 -0.108537 0
M  V30 2848 H 278.447 1.81974 -0.952602 0
M  V30 2849 H 276.677 3.81272 0.645628 0
M  V30 2850 H 278.366 4.04797 0.299056 0
M  V30 2851 H 279.132 4.33882 -2.16729 0
M  V30 2852 H 275.011 4.51039 -0.953135 0
M  V30 2853 H 278.555 5.53121 -4.25091 0
M  V30 2854 H 274.452 5.70075 -3.02795 0
M  V30 2855 H 275.22 6.53445 -4.92902 0
M  V30 2856 N 277.883 0.443576 1.51229 0
M  V30 2857 C 279.299 0.0962001 1.5931 0
M  V30 2858 C 279.499 -1.39501 1.45402 0
M  V30 2859 O 278.555 -2.16557 1.29843 0
M  V30 2860 C 279.868 0.621875 2.94199 0
M  V30 2861 C 281.416 0.582865 3.07525 0
M  V30 2862 C 281.891 1.08562 4.44948 0
M  V30 2863 N 283.382 1.04387 4.51284 0
M  V30 2864 C 284.117 1.40368 5.55954 0
M  V30 2865 N 283.613 1.83664 6.68011 0
M  V30 2866 N 285.406 1.32145 5.46346 0
M  V30 2867 H 277.557 1.41376 1.58514 0
M  V30 2868 H 279.82 0.582965 0.747567 0
M  V30 2869 H 279.526 1.66546 3.09767 0
M  V30 2870 H 279.4 0.0502125 3.77167 0
M  V30 2871 H 281.787 -0.451749 2.91622 0
M  V30 2872 H 281.868 1.191 2.26382 0
M  V30 2873 H 281.512 2.11873 4.61598 0
M  V30 2874 H 281.442 0.453956 5.2464 0
M  V30 2875 H 283.933 0.725986 3.70861 0
M  V30 2876 H 284.246 2.0934 7.43906 0
M  V30 2877 H 282.591 1.87596 6.69203 0
M  V30 2878 H 285.782 0.981808 4.57688 0
M  V30 2879 H 285.955 1.60514 6.27805 0
M  V30 2880 N 279.361 -1.56624 0.175154 0
M  V30 2881 C 280.309 -2.19468 -0.770495 0
M  V30 2882 C 281.303 -1.15985 -1.23466 0
M  V30 2883 O 282.509 -1.34176 -1.19987 0
M  V30 2884 H 278.884 -0.703095 -0.266761 0
M  V30 2885 H 280.855 -2.97613 -0.216542 0
M  V30 2886 C 279.604 -2.85264 -1.98796 0
M  V30 2887 H 278.927 -3.64623 -1.63983 0
M  V30 2888 H 280.367 -3.327 -2.62843 0
M  V30 2889 C 278.826 -1.85239 -2.81404 0
M  V30 2890 O 279.356 -1.34024 -3.78682 0
M  V30 2891 N 277.562 -1.53911 -2.46495 0
M  V30 2892 H 277.109 -1.95751 -1.67449 0
M  V30 2893 H 277.067 -0.872382 -3.02054 0
M  V30 2894 N 280.839 0.0985539 -1.57292 0
M  V30 2895 C 282.255 0.45267 -1.53046 0
M  V30 2896 C 282.455 1.80713 -0.891342 0
M  V30 2897 O 281.511 2.4785 -0.482375 0
M  V30 2898 C 282.824 0.418341 -2.97776 0
M  V30 2899 C 284.372 0.500443 -3.08973 0
M  V30 2900 C 284.847 0.496297 -4.55303 0
M  V30 2901 N 286.338 0.557151 -4.59837 0
M  V30 2902 C 287.073 0.575726 -5.70502 0
M  V30 2903 N 286.569 0.550714 -6.90608 0
M  V30 2904 N 288.362 0.620277 -5.58667 0
M  V30 2905 H 280.513 -0.788673 -1.97215 0
M  V30 2906 H 282.776 -0.293188 -0.901524 0
M  V30 2907 H 282.482 -0.509659 -3.47988 0
M  V30 2908 H 282.356 1.2386 -3.56284 0
M  V30 2909 H 284.743 1.41886 -2.58751 0
M  V30 2910 H 284.824 -0.347894 -2.53423 0
M  V30 2911 H 284.468 -0.418162 -5.06176 0
M  V30 2912 H 284.398 1.3618 -5.08687 0
M  V30 2913 H 286.889 0.581816 -3.73394 0
M  V30 2914 H 287.202 0.568075 -7.70709 0
M  V30 2915 H 285.547 0.517816 -6.93068 0
M  V30 2916 H 288.738 0.637322 -4.63741 0
M  V30 2917 H 288.911 0.631283 -6.44918 0
M  V30 2918 N 282.317 1.53212 0.369288 0
M  V30 2919 C 283.25 1.74166 1.4745 0
M  V30 2920 C 284.228 0.589923 1.51521 0
M  V30 2921 O 285.412 0.822078 1.69629 0
M  V30 2922 C 282.539 1.81711 2.8583 0
M  V30 2923 C 281.585 3.03649 2.99499 0
M  V30 2924 S 282.418 4.63242 2.6864 0
M  V30 2925 C 283.574 4.7363 4.09177 0
M  V30 2926 H 283.807 2.67636 1.29454 0
M  V30 2927 H 281.34 1.43754 0.563396 0
M  V30 2928 H 283.298 1.86743 3.65564 0
M  V30 2929 H 281.959 0.89299 3.01139 0
M  V30 2930 H 281.152 3.05526 4.00836 0
M  V30 2931 H 280.754 2.9671 2.27683 0
M  V30 2932 H 283.046 4.53456 5.03372 0
M  V30 2933 H 283.989 5.75682 4.12306 0
M  V30 2934 H 284.397 4.02295 3.96004 0
M  V30 2935 N 283.795 -0.628877 1.44509 0
M  V30 2936 C 285.211 -0.947305 1.28446 0
M  V30 2937 C 285.411 -2.00275 0.221872 0
M  V30 2938 O 284.467 -2.49447 -0.391471 0
M  V30 2939 C 285.78 -1.40843 2.65676 0
M  V30 2940 C 287.328 -1.52379 2.73404 0
M  V30 2941 C 287.803 -2.01875 4.11109 0
M  V30 2942 N 289.294 -2.09142 4.13296 0
M  V30 2943 C 290.029 -2.48615 5.16699 0
M  V30 2944 N 289.525 -2.87209 6.30462 0
M  V30 2945 N 291.318 -2.48768 5.04054 0
M  V30 2946 H 283.469 0.0690977 2.12288 0
M  V30 2947 H 285.732 -0.0317164 0.947469 0
M  V30 2948 H 285.438 -0.707206 3.44516 0
M  V30 2949 H 285.312 -2.37902 2.92716 0
M  V30 2950 H 287.699 -2.21598 1.9488 0
M  V30 2951 H 287.78 -0.536898 2.50102 0
M  V30 2952 H 287.424 -1.3325 4.90109 0
M  V30 2953 H 287.354 -3.0144 4.31789 0
M  V30 2954 H 289.845 -1.81991 3.31191 0
M  V30 2955 H 290.158 -3.16149 7.05174 0
M  V30 2956 H 288.503 -2.84955 6.33897 0
M  V30 2957 H 291.694 -2.18009 4.14234 0
M  V30 2958 H 291.867 -2.79207 5.84763 0
M  V30 2959 N 285.273 -1.31445 -0.869486 0
M  V30 2960 C 286.52 -1.21158 -1.62256 0
M  V30 2961 C 286.848 0.230155 -1.93133 0
M  V30 2962 O 286.103 1.17906 -1.56194 0
M  V30 2963 C 286.402 -2.00145 -2.96102 0
M  V30 2964 C 286.068 -3.4964 -2.84715 0
M  V30 2965 C 284.73 -3.90403 -2.81317 0
M  V30 2966 C 287.082 -4.44769 -2.71716 0
M  V30 2967 C 284.41 -5.24561 -2.62778 0
M  V30 2968 C 286.762 -5.79054 -2.54714 0
M  V30 2969 C 285.426 -6.19037 -2.49699 0
M  V30 2970 H 284.696 -0.443348 -0.593737 0
M  V30 2971 H 287.343 -1.62715 -1.00976 0
M  V30 2972 H 285.648 -1.5127 -3.6142 0
M  V30 2973 H 287.345 -1.89566 -3.53363 0
M  V30 2974 H 283.935 -3.17256 -2.88178 0
M  V30 2975 H 288.119 -4.14208 -2.73397 0
M  V30 2976 H 283.375 -5.54613 -2.57321 0
M  V30 2977 H 287.549 -6.52393 -2.43632 0
M  V30 2978 H 285.176 -7.22935 -2.35093 0
M  V30 2979 N 286.751 1.08385 -1.14413 0
M  V30 2980 C 287.714 2.13486 -0.834048 0
M  V30 2981 C 288.714 1.59988 0.161418 0
M  V30 2982 O 289.904 1.74071 -0.0669575 0
M  V30 2983 C 287.036 3.4003 -0.243354 0
M  V30 2984 H 288.229 2.42425 -1.7655 0
M  V30 2985 H 285.782 1.24101 -0.950189 0
M  V30 2986 H 286.517 3.16726 0.696807 0
M  V30 2987 H 286.302 3.80157 -0.960367 0
M  V30 2988 H 287.792 4.17577 -0.0436242 0
M  V30 2989 N 288.23 0.939286 1.26551 0
M  V30 2990 C 289.476 0.586715 1.94128 0
M  V30 2991 C 289.809 -0.8717 1.73537 0
M  V30 2992 O 289.084 -1.62339 1.07127 0
M  V30 2993 C 289.367 0.927497 3.4795 0
M  V30 2994 C 289.22 2.44052 3.77834 0
M  V30 2995 C 290.539 0.441569 4.37879 0
M  V30 2996 H 287.658 0.21463 0.705055 0
M  V30 2997 H 290.3 1.17316 1.49455 0
M  V30 2998 H 288.45 0.428431 3.8613 0
M  V30 2999 H 290.122 3.01216 3.4938 0
M  V30 3000 H 288.365 2.8848 3.23978 0
M  V30 3001 H 289.036 2.62947 4.85348 0
M  V30 3002 H 291.512 0.869448 4.06915 0
M  V30 3003 H 290.388 0.708856 5.44304 0
M  V30 3004 H 290.649 -0.658467 4.37169 0
M  V30 3005 N 289.708 -1.40897 0.706093 0
M  V30 3006 C 290.618 -2.3455 0.0482286 0
M  V30 3007 C 291.634 -1.56796 -0.754396 0
M  V30 3008 O 292.81 -1.89228 -0.689538 0
M  V30 3009 C 289.875 -3.35625 -0.869303 0
M  V30 3010 C 288.936 -4.29261 -0.0576994 0
M  V30 3011 C 288.169 -5.25508 -0.931531 0
M  V30 3012 O 288.392 -5.27472 -2.17092 0
M  V30 3013 O 287.326 -6.00727 -0.375587 0
M  V30 3014 H 291.152 -2.92407 0.820476 0
M  V30 3015 H 288.737 -1.4193 0.4665 0
M  V30 3016 H 290.619 -3.97635 -1.39514 0
M  V30 3017 H 289.294 -2.80196 -1.62086 0
M  V30 3018 H 288.201 -3.70566 0.512988 0
M  V30 3019 H 289.534 -4.87817 0.655426 0
M  V30 3020 N 291.186 -0.45159 -1.50991 0
M  V30 3021 C 292.432 0.110237 -2.025 0
M  V30 3022 C 292.765 1.41109 -1.33424 0
M  V30 3023 O 292.04 1.89135 -0.453659 0
M  V30 3024 C 292.323 0.314271 -3.58726 0
M  V30 3025 C 292.176 -1.00623 -4.38401 0
M  V30 3026 C 293.495 1.07767 -4.26702 0
M  V30 3027 H 290.614 0.0385897 -0.735989 0
M  V30 3028 H 293.256 -0.593374 -1.80497 0
M  V30 3029 H 291.406 0.913601 -3.77605 0
M  V30 3030 H 293.078 -1.64064 -4.31139 0
M  V30 3031 H 291.321 -1.6075 -4.02917 0
M  V30 3032 H 291.992 -0.817341 -5.45915 0
M  V30 3033 H 294.468 0.56986 -4.12179 0
M  V30 3034 H 293.344 1.18921 -5.35863 0
M  V30 3035 H 293.605 2.10939 -3.88532 0
M  V30 3036 N 292.664 1.56529 -0.183458 0
M  V30 3037 C 293.91 1.97537 0.459036 0
M  V30 3038 C 294.243 1.06989 1.62071 0
M  V30 3039 O 293.518 0.11948 1.94133 0
M  V30 3040 C 293.801 3.47874 0.930368 0
M  V30 3041 C 293.654 4.492 -0.232317 0
M  V30 3042 C 294.973 4.01612 1.79989 0
M  V30 3043 H 292.092 0.718204 0.165383 0
M  V30 3044 H 294.734 1.88042 -0.272038 0
M  V30 3045 H 292.884 3.56095 1.55333 0
M  V30 3046 H 294.556 4.53027 -0.86972 0
M  V30 3047 H 292.799 4.24657 -0.885928 0
M  V30 3048 H 293.47 5.51823 0.139796 0
M  V30 3049 H 295.946 3.96097 1.27461 0
M  V30 3050 H 294.822 5.07195 2.09867 0
M  V30 3051 H 295.083 3.46163 2.74998 0
M  V30 3052 N 294.142 -0.090211 1.57342 0
M  V30 3053 C 295.558 -0.444547 1.53284 0
M  V30 3054 C 295.758 -1.80238 0.900914 0
M  V30 3055 O 294.814 -2.4759 0.495513 0
M  V30 3056 C 296.127 -0.402543 2.97993 0
M  V30 3057 C 297.675 -0.48405 3.09234 0
M  V30 3058 C 298.15 -0.472144 4.5556 0
M  V30 3059 N 299.641 -0.532757 4.60126 0
M  V30 3060 C 300.376 -0.545462 5.708 0
M  V30 3061 N 299.872 -0.514082 6.9089 0
M  V30 3062 N 301.665 -0.59064 5.58988 0
M  V30 3063 H 293.816 0.799121 1.96794 0
M  V30 3064 H 296.079 0.297965 0.899956 0
M  V30 3065 H 295.785 0.528106 3.47712 0
M  V30 3066 H 295.659 -1.21969 3.56936 0
M  V30 3067 H 298.046 -1.40512 2.595 0
M  V30 3068 H 298.127 0.361328 2.53235 0
M  V30 3069 H 297.771 0.445 5.05947 0
M  V30 3070 H 297.701 -1.3348 5.09402 0
M  V30 3071 H 300.192 -0.562006 3.73698 0
M  V30 3072 H 300.505 -0.527195 7.71 0
M  V30 3073 H 298.85 -0.481054 6.93333 0
M  V30 3074 H 302.041 -0.61272 4.64073 0
M  V30 3075 H 302.214 -0.597073 6.45243 0
M  V30 3076 N 295.62 -1.53406 -0.361157 0
M  V30 3077 C 296.583 -1.79479 -1.42548 0
M  V30 3078 C 297.583 -0.665327 -1.4639 0
M  V30 3079 O 298.773 -0.933549 -1.47073 0
M  V30 3080 C 295.905 -1.92087 -2.8163 0
M  V30 3081 H 297.098 -2.74538 -1.20701 0
M  V30 3082 H 294.651 -1.4455 -0.594546 0
M  V30 3083 H 295.386 -0.991099 -3.08784 0
M  V30 3084 H 295.171 -2.74241 -2.80239 0
M  V30 3085 H 296.661 -2.13836 -3.58697 0
M  V30 3086 N 297.098 0.621204 -1.44841 0
M  V30 3087 C 298.344 1.3826 -1.48365 0
M  V30 3088 C 298.677 1.93831 -0.119624 0
M  V30 3089 O 297.952 1.74251 0.864111 0
M  V30 3090 C 298.235 2.54058 -2.55199 0
M  V30 3091 C 298.088 2.03772 -4.00995 0
M  V30 3092 C 299.407 3.56225 -2.58442 0
M  V30 3093 H 296.526 0.501374 -0.540179 0
M  V30 3094 H 299.168 0.7015 -1.76576 0
M  V30 3095 H 297.318 3.12162 -2.31274 0
M  V30 3096 H 298.99 1.50423 -4.36086 0
M  V30 3097 H 297.233 1.34876 -4.12299 0
M  V30 3098 H 297.904 2.87185 -4.71411 0
M  V30 3099 H 300.38 3.07939 -2.79844 0
M  V30 3100 H 299.256 4.34756 -3.3508 0
M  V30 3101 H 299.517 4.10949 -1.63013 0
M  V30 3102 N 298.576 1.31904 0.862503 0
M  V30 3103 C 299.992 1.10724 1.14945 0
M  V30 3104 C 300.192 -0.117421 2.01158 0
M  V30 3105 O 299.248 -0.804595 2.39338 0
M  V30 3106 C 300.561 2.38267 1.83437 0
M  V30 3107 C 302.109 2.43949 1.96106 0
M  V30 3108 C 302.584 3.71394 2.68013 0
M  V30 3109 N 304.075 3.72331 2.75543 0
M  V30 3110 C 304.81 4.67641 3.31812 0
M  V30 3111 N 304.306 5.73313 3.88953 0
M  V30 3112 N 306.099 4.5515 3.29841 0
M  V30 3113 H 298.25 2.10436 0.288191 0
M  V30 3114 H 300.513 0.928705 0.190292 0
M  V30 3115 H 300.219 3.27759 1.27542 0
M  V30 3116 H 300.093 2.48633 2.83657 0
M  V30 3117 H 302.48 1.54922 2.51164 0
M  V30 3118 H 302.561 2.37543 0.949059 0
M  V30 3119 H 302.205 4.60791 2.13621 0
M  V30 3120 H 302.135 3.75069 3.69636 0
M  V30 3121 H 304.626 2.95947 2.34997 0
M  V30 3122 H 304.939 6.42107 4.30022 0
M  V30 3123 H 303.284 5.77077 3.87308 0
M  V30 3124 H 306.475 3.71766 2.84443 0
M  V30 3125 H 306.648 5.29604 3.73394 0
M  V30 3126 N 300.054 -1.07777 1.14986 0
M  V30 3127 C 300.964 -2.18404 0.856546 0
M  V30 3128 C 301.98 -1.73211 -0.165485 0
M  V30 3129 O 303.156 -2.01399 0.00755219 0
M  V30 3130 C 300.221 -3.44977 0.34526 0
M  V30 3131 C 299.282 -4.0476 1.43065 0
M  V30 3132 C 298.515 -5.25291 0.943663 0
M  V30 3133 O 298.738 -5.70004 -0.212426 0
M  V30 3134 O 297.672 -5.76638 1.72547 0
M  V30 3135 H 301.498 -2.45978 1.78125 0
M  V30 3136 H 299.083 -1.17033 0.928631 0
M  V30 3137 H 300.965 -4.21348 0.0663671 0
M  V30 3138 H 299.64 -3.18965 -0.551631 0
M  V30 3139 H 298.547 -3.29949 1.76309 0
M  V30 3140 H 299.88 -4.35035 2.30229 0
M  V30 3141 N 301.532 -0.945985 -1.26051 0
M  V30 3142 C 302.948 -0.649045 -1.45807 0
M  V30 3143 C 303.148 0.796158 -1.85104 0
M  V30 3144 O 302.204 1.57233 -1.97571 0
M  V30 3145 C 303.517 -1.61458 -2.53677 0
M  V30 3146 C 305.065 -1.62481 -2.67524 0
M  V30 3147 C 305.54 -2.57776 -3.7857 0
M  V30 3148 N 307.031 -2.5609 -3.85969 0
M  V30 3149 C 307.766 -3.26508 -4.7136 0
M  V30 3150 N 307.262 -4.0637 -5.61102 0
M  V30 3151 N 309.055 -3.15437 -4.65248 0
M  V30 3152 H 301.206 -1.88005 -0.988328 0
M  V30 3153 H 303.469 -0.808198 -0.4955 0
M  V30 3154 H 303.175 -2.64644 -2.31638 0
M  V30 3155 H 303.049 -1.37036 -3.51427 0
M  V30 3156 H 305.436 -0.600167 -2.88933 0
M  V30 3157 H 305.517 -1.90958 -1.70202 0
M  V30 3158 H 305.161 -3.60361 -3.57913 0
M  V30 3159 H 305.091 -2.26587 -4.75359 0
M  V30 3160 H 307.582 -1.98105 -3.21812 0
M  V30 3161 H 307.895 -4.57042 -6.23164 0
M  V30 3162 H 306.24 -4.10469 -5.60839 0
M  V30 3163 H 309.431 -2.52525 -3.94143 0
M  V30 3164 H 309.604 -3.70584 -5.31575 0
M  V30 3165 N 303.011 1.40521 -0.713556 0
M  V30 3166 C 304.257 2.01221 -0.252564 0
M  V30 3167 C 304.59 1.56444 1.1506 0
M  V30 3168 O 303.865 0.783597 1.78017 0
M  V30 3169 C 304.148 3.58582 -0.330332 0
M  V30 3170 C 304.001 4.13437 -1.77173 0
M  V30 3171 C 305.32 4.39079 0.299641 0
M  V30 3172 H 302.439 0.731077 -0.0932471 0
M  V30 3173 H 305.081 1.67026 -0.905673 0
M  V30 3174 H 303.231 3.87844 0.225737 0
M  V30 3175 H 304.903 3.9498 -2.38303 0
M  V30 3176 H 303.146 3.67801 -2.3001 0
M  V30 3177 H 303.817 5.22597 -1.77755 0
M  V30 3178 H 306.293 4.15735 -0.174139 0
M  V30 3179 H 305.169 5.4848 0.214771 0
M  V30 3180 H 305.43 4.19915 1.38288 0
M  V30 3181 N 304.489 0.459591 1.5075 0
M  V30 3182 C 305.737 -0.0991532 2.01857 0
M  V30 3183 C 306.058 -1.41247 1.34441 0
M  V30 3184 O 305.328 -1.89775 0.486022 0
M  V30 3185 H 303.908 -0.039633 0.745948 0
M  V30 3186 H 306.57 0.607387 1.85194 0
M  V30 3187 H 305.666 -0.258998 3.11023 0
M  V30 3188 N 305.967 -1.56429 0.191757 0
M  V30 3189 C 306.915 -2.20273 -0.747174 0
M  V30 3190 C 307.909 -1.17288 -1.22229 0
M  V30 3191 O 309.115 -1.35441 -1.18557 0
M  V30 3192 H 305.49 -0.705885 -0.259289 0
M  V30 3193 H 307.461 -2.97826 -0.184963 0
M  V30 3194 C 306.21 -2.87356 -1.95759 0
M  V30 3195 H 305.533 -3.66341 -1.60106 0
M  V30 3196 H 306.973 -3.3547 -2.59299 0
M  V30 3197 C 305.432 -1.88213 -2.79423 0
M  V30 3198 O 305.962 -1.38033 -3.7724 0
M  V30 3199 N 304.168 -1.56516 -2.44849 0
M  V30 3200 H 303.715 -1.97516 -1.65364 0
M  V30 3201 H 303.673 -0.904369 -3.01112 0
M  V30 3202 N 307.445 0.0818655 -1.57387 0
M  V30 3203 C 308.722 0.815343 -1.77796 0
M  V30 3204 C 309.102 1.96289 -0.77679 0
M  V30 3205 O 308.45 2.27691 0.192106 0
M  V30 3206 C 308.66 1.29765 -3.23978 0
M  V30 3207 C 310.008 1.7351 -3.8753 0
M  V30 3208 O 311.032 1.39356 -3.27808 0
M  V30 3209 O 309.891 2.36708 -4.92576 0
M  V30 3210 H 306.985 0.389914 -0.729312 0
M  V30 3211 H 309.531 0.0627213 -1.69584 0
M  V30 3212 H 308.303 0.47608 -3.88393 0
M  V30 3213 H 307.926 2.11189 -3.36875 0
M  V30 3214 N 308.923 1.53595 0.353017 0
M  V30 3215 C 310.17 1.70385 1.09431 0
M  V30 3216 C 310.498 0.462113 1.88931 0
M  V30 3217 O 309.753 -0.556074 1.87633 0
M  V30 3218 C 310.052 2.91313 2.07054 0
M  V30 3219 C 309.718 4.27308 1.43939 0
M  V30 3220 C 308.38 4.64287 1.26454 0
M  V30 3221 C 310.732 5.11829 0.983883 0
M  V30 3222 C 308.06 5.83412 0.620226 0
M  V30 3223 C 310.412 6.31611 0.353516 0
M  V30 3224 C 309.076 6.67293 0.166272 0
M  V30 3225 H 308.346 0.623484 0.400436 0
M  V30 3226 H 310.993 1.87799 0.374655 0
M  V30 3227 H 309.298 2.68463 2.85368 0
M  V30 3228 H 310.995 3.01497 2.64387 0
M  V30 3229 H 307.585 3.98198 1.58543 0
M  V30 3230 H 311.769 4.838 1.10685 0
M  V30 3231 H 307.025 6.09639 0.463681 0
M  V30 3232 H 311.199 6.964 -0.00757555 0
M  V30 3233 H 308.826 7.59461 -0.335047 0
M  V30 3234 N 310.401 -0.613514 1.45168 0
M  V30 3235 C 311.65 -1.36874 1.4815 0
M  V30 3236 C 311.963 -1.952 0.124982 0
M  V30 3237 O 313.169 -2.71481 0.0324176 0
M  V30 3238 C 311.625 -2.47905 2.60904 0
M  V30 3239 C 311.233 -1.96016 4.02842 0
M  V30 3240 C 312.977 -3.24965 2.73126 0
M  V30 3241 C 310.884 -3.04494 5.06988 0
M  V30 3242 H 309.814 -0.514428 0.551253 0
M  V30 3243 H 312.465 -0.658182 1.7129 0
M  V30 3244 H 310.847 -3.21618 2.31037 0
M  V30 3245 H 312.021 -1.29051 4.4236 0
M  V30 3246 H 310.336 -1.31719 3.95018 0
M  V30 3247 H 312.933 -4.05865 3.48106 0
M  V30 3248 H 313.276 -3.75588 1.79553 0
M  V30 3249 H 313.809 -2.5835 3.0249 0
M  V30 3250 H 310.548 -2.58795 6.0225 0
M  V30 3251 H 310.068 -3.70044 4.72046 0
M  V30 3252 H 311.747 -3.68976 5.31475 0
M  V30 3253 N 311.879 -1.3236 -0.855495 0
M  V30 3254 C 313.128 -1.22226 -1.60448 0
M  V30 3255 C 313.441 0.214733 -1.94418 0
M  V30 3256 O 314.647 0.437917 -2.67945 0
M  V30 3257 C 313.103 -2.14063 -2.89318 0
M  V30 3258 C 312.711 -3.62839 -2.62777 0
M  V30 3259 C 314.455 -2.12764 -3.67331 0
M  V30 3260 C 312.362 -4.4664 -3.87643 0
M  V30 3261 H 311.292 -0.453904 -0.602069 0
M  V30 3262 H 313.943 -1.57314 -0.944698 0
M  V30 3263 H 312.325 -1.71889 -3.5675 0
M  V30 3264 H 313.499 -4.1335 -2.03662 0
M  V30 3265 H 311.814 -3.66261 -1.98096 0
M  V30 3266 H 314.411 -2.72611 -4.59987 0
M  V30 3267 H 314.754 -1.11841 -4.00995 0
M  V30 3268 H 315.287 -2.53214 -3.06802 0
M  V30 3269 H 312.026 -5.48373 -3.5912 0
M  V30 3270 H 311.546 -4.0088 -4.46156 0
M  V30 3271 H 313.225 -4.59597 -4.55389 0
M  V30 3272 N 313.357 1.07166 -1.15556 0
M  V30 3273 C 314.606 1.79181 -0.926132 0
M  V30 3274 C 314.919 1.87768 0.547967 0
M  V30 3275 O 316.125 2.56323 0.895036 0
M  V30 3276 C 314.581 3.22 -1.60761 0
M  V30 3277 C 314.189 3.21607 -3.11886 0
M  V30 3278 C 315.933 3.9861 -1.4598 0
M  V30 3279 C 313.84 4.59092 -3.72812 0
M  V30 3280 H 312.77 0.67154 -0.342856 0
M  V30 3281 H 315.421 1.2027 -1.3859 0
M  V30 3282 H 313.803 3.81115 -1.07553 0
M  V30 3283 H 314.977 2.72127 -3.71865 0
M  V30 3284 H 313.292 2.58495 -3.2645 0
M  V30 3285 H 315.889 5.00225 -1.88888 0
M  V30 3286 H 316.232 4.143 -0.407541 0
M  V30 3287 H 316.765 3.45996 -1.96295 0
M  V30 3288 H 313.504 4.48606 -4.77946 0
M  V30 3289 H 313.024 5.08803 -3.17616 0
M  V30 3290 H 314.703 5.28059 -3.73848 0
M  V30 3291 N 314.835 0.952656 1.25548 0
M  V30 3292 C 316.065 0.622592 1.96996 0
M  V30 3293 C 316.473 -0.809112 1.71026 0
M  V30 3294 O 315.816 -1.55258 0.981861 0
M  V30 3295 C 315.878 0.798946 3.5051 0
M  V30 3296 C 315.542 2.20744 4.00151 0
M  V30 3297 C 316.539 3.18394 4.11001 0
M  V30 3298 C 314.224 2.5311 4.33867 0
M  V30 3299 C 316.218 4.46504 4.54877 0
M  V30 3300 C 313.905 3.8145 4.7743 0
M  V30 3301 C 314.903 4.77959 4.87897 0
M  V30 3302 O 314.591 6.04012 5.30494 0
M  V30 3303 H 314.323 0.232503 0.634758 0
M  V30 3304 H 316.877 1.2789 1.60728 0
M  V30 3305 H 315.107 0.0854903 3.86605 0
M  V30 3306 H 316.796 0.47023 4.03167 0
M  V30 3307 H 317.562 2.94715 3.85186 0
M  V30 3308 H 313.441 1.78719 4.24948 0
M  V30 3309 H 316.985 5.21835 4.62962 0
M  V30 3310 H 312.882 4.04936 5.0269 0
M  V30 3311 H 313.65 6.0736 5.48685 0
M  V30 3312 N 316.313 -1.40141 0.720998 0
M  V30 3313 C 317.729 -1.54632 0.395113 0
M  V30 3314 C 317.929 -1.69115 -1.09555 0
M  V30 3315 O 316.985 -1.68377 -1.88163 0
M  V30 3316 C 318.298 -2.77177 1.1659 0
M  V30 3317 C 319.846 -2.91 1.15274 0
M  V30 3318 C 320.321 -4.16465 1.90579 0
M  V30 3319 N 321.812 -4.23476 1.87675 0
M  V30 3320 C 322.547 -5.19475 2.42762 0
M  V30 3321 N 322.043 -6.21348 3.06428 0
M  V30 3322 N 323.836 -5.11592 2.32874 0
M  V30 3323 H 315.987 -1.28986 1.68749 0
M  V30 3324 H 318.25 -0.62412 0.713567 0
M  V30 3325 H 317.956 -2.72771 2.22011 0
M  V30 3326 H 317.83 -3.69442 0.76108 0
M  V30 3327 H 320.217 -2.94907 0.106702 0
M  V30 3328 H 320.298 -1.99838 1.59682 0
M  V30 3329 H 319.942 -4.1332 2.95176 0
M  V30 3330 H 319.872 -5.06646 1.43587 0
M  V30 3331 H 322.363 -3.50497 1.41281 0
M  V30 3332 H 322.676 -6.91034 3.45965 0
M  V30 3333 H 321.021 -6.21777 3.10514 0
M  V30 3334 H 324.212 -4.30936 1.82789 0
M  V30 3335 H 324.385 -5.86233 2.76106 0
M  V30 3336 N 317.792 -0.46758 -1.50504 0
M  V30 3337 C 318.722 0.318381 -2.31319 0
M  V30 3338 C 319.703 0.993564 -1.38066 0
M  V30 3339 O 320.888 0.991411 -1.66987 0
M  V30 3340 C 318.018 1.40275 -3.17711 0
M  V30 3341 C 316.972 0.849373 -4.19487 0
M  V30 3342 C 316.298 2.03177 -4.94594 0
M  V30 3343 C 317.598 -0.136942 -5.2212 0
M  V30 3344 H 319.292 -0.356106 -2.97275 0
M  V30 3345 H 316.838 -0.172703 -1.42961 0
M  V30 3346 H 318.791 1.96004 -3.73042 0
M  V30 3347 H 317.515 2.10596 -2.49634 0
M  V30 3348 H 316.174 0.314076 -3.65252 0
M  V30 3349 H 315.822 2.72187 -4.22993 0
M  V30 3350 H 315.522 1.66774 -5.63436 0
M  V30 3351 H 317.046 2.59403 -5.52759 0
M  V30 3352 H 318.46 0.331056 -5.72343 0
M  V30 3353 H 316.857 -0.41507 -5.98663 0
M  V30 3354 H 317.927 -1.06398 -4.73083 0
M  V30 3355 N 319.27 1.56325 -0.20005 0
M  V30 3356 C 320.495 2.02548 0.44597 0
M  V30 3357 C 320.92 1.07922 1.5406 0
M  V30 3358 O 320.278 0.0635775 1.81188 0
M  V30 3359 C 320.326 3.47175 0.974761 0
M  V30 3360 O 319.43 3.55671 2.08739 0
M  V30 3361 H 318.771 0.655862 0.103638 0
M  V30 3362 H 321.301 2.02201 -0.312381 0
M  V30 3363 H 321.311 3.87067 1.2901 0
M  V30 3364 H 319.986 4.15538 0.17347 0
M  V30 3365 H 318.563 3.27657 1.78032 0
M  V30 3366 N 320.748 -0.0735177 1.57428 0
M  V30 3367 C 321.681 -1.11932 1.98863 0
M  V30 3368 C 322.659 -1.37666 0.865266 0
M  V30 3369 O 323.843 -1.51068 1.12742 0
M  V30 3370 C 320.97 -2.46403 2.32386 0
M  V30 3371 C 320.016 -2.36815 3.54713 0
M  V30 3372 S 320.849 -1.76392 5.05614 0
M  V30 3373 C 322.005 -3.12444 5.42337 0
M  V30 3374 H 322.238 -0.766212 2.87257 0
M  V30 3375 H 319.771 -0.281987 1.51803 0
M  V30 3376 H 321.729 -3.23755 2.52375 0
M  V30 3377 H 320.39 -2.78876 1.44524 0
M  V30 3378 H 319.583 -3.35977 3.7568 0
M  V30 3379 H 319.185 -1.67598 3.34345 0
M  V30 3380 H 321.477 -4.08753 5.40303 0
M  V30 3381 H 322.42 -2.96258 6.43146 0
M  V30 3382 H 322.828 -3.1297 4.69798 0
M  V30 3383 N 322.226 -1.5378 -0.344866 0
M  V30 3384 C 323.156 -1.84662 -1.42906 0
M  V30 3385 C 324.137 -0.701648 -1.54955 0
M  V30 3386 O 325.322 -0.953438 -1.69184 0
M  V30 3387 C 322.452 -2.05503 -2.79974 0
M  V30 3388 C 321.406 -3.21318 -2.82734 0
M  V30 3389 C 320.732 -3.2749 -4.22675 0
M  V30 3390 C 322.032 -4.59456 -2.48389 0
M  V30 3391 H 323.726 -2.75461 -1.17311 0
M  V30 3392 H 321.272 -1.32542 -0.562896 0
M  V30 3393 H 323.225 -2.25691 -3.55867 0
M  V30 3394 H 321.949 -1.11434 -3.07002 0
M  V30 3395 H 320.608 -3.00984 -2.09294 0
M  V30 3396 H 320.256 -2.31019 -4.4681 0
M  V30 3397 H 319.956 -4.05316 -4.25433 0
M  V30 3398 H 321.48 -3.49887 -5.00412 0
M  V30 3399 H 322.894 -4.79667 -3.13995 0
M  V30 3400 H 321.291 -5.39675 -2.62432 0
M  V30 3401 H 322.361 -4.63155 -1.4358 0
M  V30 3402 N 323.704 0.605807 -1.45491 0
M  V30 3403 C 324.981 1.36522 -1.40075 0
M  V30 3404 C 325.361 2.10976 -0.0722744 0
M  V30 3405 O 324.709 2.08007 0.945808 0
M  V30 3406 C 324.919 2.31056 -2.61561 0
M  V30 3407 C 326.267 2.93608 -3.06724 0
M  V30 3408 O 327.291 2.41376 -2.61946 0
M  V30 3409 O 326.15 3.88421 -3.84437 0
M  V30 3410 H 323.244 0.612248 -0.555951 0
M  V30 3411 H 325.79 0.628747 -1.57623 0
M  V30 3412 H 324.562 1.75311 -3.49831 0
M  V30 3413 H 324.185 3.12081 -2.46356 0
M  V30 3414 N 325.182 1.32811 0.848464 0
M  V30 3415 C 326.112 1.24882 1.97299 0
M  V30 3416 C 327.093 0.131357 1.69592 0
M  V30 3417 O 328.278 0.319553 1.91553 0
M  V30 3418 C 325.408 0.97746 3.33261 0
M  V30 3419 C 324.362 2.05682 3.75338 0
M  V30 3420 C 323.688 1.63777 5.09 0
M  V30 3421 C 324.988 3.47254 3.90144 0
M  V30 3422 H 326.682 2.18966 2.04191 0
M  V30 3423 H 324.228 1.05413 0.981029 0
M  V30 3424 H 326.181 0.908513 4.1149 0
M  V30 3425 H 324.905 0.000980011 3.266 0
M  V30 3426 H 323.564 2.11603 2.99366 0
M  V30 3427 H 323.212 0.648569 4.98801 0
M  V30 3428 H 322.912 2.36 5.38124 0
M  V30 3429 H 324.436 1.5833 5.89715 0
M  V30 3430 H 325.85 3.43888 4.58709 0
M  V30 3431 H 324.247 4.1788 4.30693 0
M  V30 3432 H 325.317 3.86462 2.92874 0
M  V30 3433 N 326.66 -1.06551 1.16123 0
M  V30 3434 C 327.906 -1.79567 0.94252 0
M  V30 3435 C 328.239 -1.86869 -0.528547 0
M  V30 3436 O 327.514 -1.35838 -1.39206 0
M  V30 3437 C 327.797 -3.24195 1.56747 0
M  V30 3438 C 327.65 -3.24989 3.10969 0
M  V30 3439 C 328.969 -4.21678 1.25998 0
M  V30 3440 H 326.088 -0.651883 0.343828 0
M  V30 3441 H 328.73 -1.2463 1.43413 0
M  V30 3442 H 326.88 -3.71107 1.14942 0
M  V30 3443 H 328.552 -2.86258 3.61737 0
M  V30 3444 H 326.795 -2.63716 3.44436 0
M  V30 3445 H 327.466 -4.27005 3.49815 0
M  V30 3446 H 329.942 -3.83196 1.62174 0
M  V30 3447 H 328.818 -5.21146 1.7233 0
M  V30 3448 H 329.079 -4.4174 0.178367 0
M  V30 3449 N 328.138 -0.959301 -1.25041 0
M  V30 3450 C 329.048 -0.489994 -2.29426 0
M  V30 3451 C 330.064 0.444944 -1.68215 0
M  V30 3452 O 331.24 0.320046 -1.98841 0
M  V30 3453 C 328.305 0.220309 -3.45999 0
M  V30 3454 C 327.366 -0.753418 -4.22637 0
M  V30 3455 C 326.599 -0.076918 -5.33645 0
M  V30 3456 O 326.822 1.13649 -5.58963 0
M  V30 3457 O 325.756 -0.764824 -5.97021 0
M  V30 3458 H 329.582 -1.35755 -2.71669 0
M  V30 3459 H 327.167 -0.725961 -1.30576 0
M  V30 3460 H 329.049 0.619677 -4.16819 0
M  V30 3461 H 327.724 1.06296 -3.0575 0
M  V30 3462 H 326.631 -1.20308 -3.54227 0
M  V30 3463 H 327.964 -1.56423 -4.66683 0
M  V30 3464 N 329.616 1.39756 -0.72842 0
M  V30 3465 C 330.893 1.94574 -0.200079 0
M  V30 3466 C 331.273 1.66569 1.29684 0
M  V30 3467 O 330.621 0.990326 2.05924 0
M  V30 3468 C 330.831 3.45004 -0.526608 0
M  V30 3469 C 332.179 4.21965 -0.472318 0
M  V30 3470 O 333.203 3.53173 -0.463413 0
M  V30 3471 O 332.062 5.44552 -0.461075 0
M  V30 3472 H 329.156 0.826289 -0.0342851 0
M  V30 3473 H 331.702 1.49293 -0.806829 0
M  V30 3474 H 330.474 3.58796 -1.56144 0
M  V30 3475 H 330.097 3.97449 0.109449 0
M  V30 3476 N 331.094 0.475555 1.50254 0
M  V30 3477 C 332.342 -0.077738 2.0195 0
M  V30 3478 C 332.663 -1.39813 1.35931 0
M  V30 3479 O 331.933 -1.89249 0.506123 0
M  V30 3480 H 330.513 -0.031719 0.746326 0
M  V30 3481 H 333.175 0.626995 1.84539 0
M  V30 3482 H 332.271 -0.225995 3.11281 0
M  V30 3483 N 332.573 -1.56217 0.208337 0
M  V30 3484 C 333.821 -1.97558 -0.426076 0
M  V30 3485 C 334.142 -1.09683 -1.61229 0
M  V30 3486 O 333.412 -0.170956 -1.95153 0
M  V30 3487 H 331.992 -0.729575 -0.160405 0
M  V30 3488 H 334.654 -1.92606 0.298155 0
M  V30 3489 H 333.75 -3.02672 -0.761312 0
M  V30 3490 N 334.051 0.0651679 -1.57465 0
M  V30 3491 C 335.279 0.775808 -1.91804 0
M  V30 3492 C 335.694 1.70782 -0.804916 0
M  V30 3493 O 335.051 1.81153 0.221311 0
M  V30 3494 C 335.102 1.56381 -3.25925 0
M  V30 3495 O 334.823 0.669248 -4.32958 0
M  V30 3496 C 336.324 2.37485 -3.7432 0
M  V30 3497 H 333.544 0.2202 -0.63384 0
M  V30 3498 H 336.088 0.0334587 -2.04473 0
M  V30 3499 H 334.243 2.25837 -3.14764 0
M  V30 3500 H 334.657 1.21801 -5.10162 0
M  V30 3501 H 336.131 2.88223 -4.70778 0
M  V30 3502 H 336.608 3.17307 -3.03666 0
M  V30 3503 H 337.214 1.73173 -3.88447 0
M  V30 3504 N 335.529 1.53961 0.336706 0
M  V30 3505 C 336.776 1.71536 1.07618 0
M  V30 3506 C 337.104 0.482125 1.8843 0
M  V30 3507 O 336.359 -0.536142 1.88213 0
M  V30 3508 C 336.658 2.93493 2.03953 0
M  V30 3509 C 336.324 4.28811 1.39399 0
M  V30 3510 C 334.986 4.65602 1.21523 0
M  V30 3511 C 337.338 5.12844 0.929541 0
M  V30 3512 C 334.666 5.84037 0.558312 0
M  V30 3513 C 337.018 6.31951 0.286505 0
M  V30 3514 C 335.682 6.67432 0.0954869 0
M  V30 3515 H 334.952 0.627696 0.393801 0
M  V30 3516 H 337.599 1.88186 0.354715 0
M  V30 3517 H 335.904 2.71475 2.82504 0
M  V30 3518 H 337.601 3.04285 2.61174 0
M  V30 3519 H 334.191 3.99858 1.54311 0
M  V30 3520 H 338.375 4.84947 1.05548 0
M  V30 3521 H 333.631 6.10097 0.398995 0
M  V30 3522 H 337.805 6.96352 -0.0814376 0
M  V30 3523 H 335.432 7.59063 -0.415579 0
M  V30 3524 N 337.007 -0.598083 1.45811 0
M  V30 3525 C 337.97 -1.69018 1.54808 0
M  V30 3526 C 338.97 -1.55037 0.426652 0
M  V30 3527 O 340.16 -1.59932 0.690456 0
M  V30 3528 C 337.292 -3.0835 1.45371 0
M  V30 3529 H 338.485 -1.62403 2.52121 0
M  V30 3530 H 336.038 -0.814626 1.33392 0
M  V30 3531 H 336.773 -3.20534 0.492793 0
M  V30 3532 H 336.558 -3.19907 2.26721 0
M  V30 3533 H 338.048 -3.8788 1.54721 0
M  V30 3534 N 338.485 -1.33259 -0.841409 0
M  V30 3535 C 339.395 -1.25332 -1.98316 0
M  V30 3536 C 340.411 -0.164364 -1.73222 0
M  V30 3537 O 341.587 -0.387486 -1.97637 0
M  V30 3538 C 338.652 -0.990078 -3.32262 0
M  V30 3539 C 337.713 -2.16879 -3.70489 0
M  V30 3540 C 336.946 -1.91801 -4.98044 0
M  V30 3541 O 337.169 -0.867075 -5.63771 0
M  V30 3542 O 336.103 -2.78267 -5.33714 0
M  V30 3543 H 339.929 -2.21344 -2.07944 0
M  V30 3544 H 337.514 -1.1328 -0.974058 0
M  V30 3545 H 339.396 -0.860321 -4.12524 0
M  V30 3546 H 338.071 -0.0602155 -3.23644 0
M  V30 3547 H 336.978 -2.35407 -2.90748 0
M  V30 3548 H 338.311 -3.0819 -3.8377 0
M  V30 3549 N 339.963 1.05934 -1.16686 0
M  V30 3550 C 341.191 1.8249 -0.974929 0
M  V30 3551 C 341.606 1.82679 0.476861 0
M  V30 3552 O 340.963 1.2486 1.33103 0
M  V30 3553 C 341.014 3.28943 -1.49929 0
M  V30 3554 O 340.735 3.28886 -2.89423 0
M  V30 3555 C 342.236 4.22215 -1.35089 0
M  V30 3556 H 339.456 0.575295 -0.345365 0
M  V30 3557 H 342 1.33631 -1.548 0
M  V30 3558 H 340.155 3.751 -0.968423 0
M  V30 3559 H 340.569 4.20493 -3.13506 0
M  V30 3560 H 342.043 5.22987 -1.76603 0
M  V30 3561 H 342.52 4.38195 -0.296935 0
M  V30 3562 H 343.126 3.81907 -1.87155 0
M  V30 3563 N 341.441 0.965919 1.2453 0
M  V30 3564 C 342.687 0.62776 1.92839 0
M  V30 3565 C 343.02 -0.834694 1.75347 0
M  V30 3566 O 342.295 -1.60031 1.10546 0
M  V30 3567 C 342.578 1.00109 3.45905 0
M  V30 3568 C 342.431 2.52011 3.72573 0
M  V30 3569 C 343.75 0.53435 4.36844 0
M  V30 3570 H 340.869 0.229537 0.700344 0
M  V30 3571 H 343.511 1.2046 1.46933 0
M  V30 3572 H 341.661 0.510238 3.85135 0
M  V30 3573 H 343.333 3.08559 3.42912 0
M  V30 3574 H 341.576 2.95287 3.17786 0
M  V30 3575 H 342.247 2.73183 4.79661 0
M  V30 3576 H 344.723 0.955565 4.04979 0
M  V30 3577 H 343.599 0.824152 5.42678 0
M  V30 3578 H 343.86 -0.565589 4.38467 0
M  V30 3579 N 342.919 -1.39368 0.735821 0
M  V30 3580 C 343.829 -2.34395 0.0979693 0
M  V30 3581 C 344.845 -1.58361 -0.720968 0
M  V30 3582 O 346.021 -1.90648 -0.649245 0
M  V30 3583 C 343.086 -3.37393 -0.797916 0
M  V30 3584 C 342.147 -4.29287 0.0333662 0
M  V30 3585 C 341.38 -5.27365 -0.819854 0
M  V30 3586 O 341.603 -5.31959 -2.05855 0
M  V30 3587 O 340.537 -6.01389 -0.248079 0
M  V30 3588 H 344.363 -2.90601 0.882315 0
M  V30 3589 H 341.948 -1.40909 0.4965 0
M  V30 3590 H 343.83 -4.00505 -1.31048 0
M  V30 3591 H 342.505 -2.83571 -1.56106 0
M  V30 3592 H 341.412 -3.69395 0.591475 0
M  V30 3593 H 342.745 -4.86317 0.758752 0
M  V30 3594 N 344.397 -0.483516 -1.5 0
M  V30 3595 C 345.327 0.293829 -2.31644 0
M  V30 3596 C 346.308 0.978864 -1.39112 0
M  V30 3597 O 347.493 0.973644 -1.68029 0
M  V30 3598 C 344.623 1.36897 -3.19181 0
M  V30 3599 C 343.577 0.804833 -4.20365 0
M  V30 3600 C 342.903 1.9792 -4.96721 0
M  V30 3601 C 344.203 -0.192313 -5.21946 0
M  V30 3602 H 345.897 -0.387616 -2.9688 0
M  V30 3603 H 343.443 -0.187856 -1.42769 0
M  V30 3604 H 345.396 1.92037 -3.751 0
M  V30 3605 H 344.12 2.07936 -2.51853 0
M  V30 3606 H 342.779 0.275319 -3.65565 0
M  V30 3607 H 342.427 2.67686 -4.25856 0
M  V30 3608 H 342.127 1.60789 -5.65173 0
M  V30 3609 H 343.651 2.53526 -5.55479 0
M  V30 3610 H 345.065 0.270333 -5.72662 0
M  V30 3611 H 343.462 -0.478543 -5.98189 0
M  V30 3612 H 344.532 -1.11409 -4.71928 0
M  V30 3613 N 345.875 1.56104 -0.216619 0
M  V30 3614 C 346.838 2.18819 0.681962 0
M  V30 3615 C 347.838 1.14866 1.12528 0
M  V30 3616 O 349.028 1.40128 1.03488 0
M  V30 3617 C 346.16 2.80756 1.93362 0
M  V30 3618 H 347.353 2.99595 0.135254 0
M  V30 3619 H 344.906 1.56265 0.0330003 0
M  V30 3620 H 345.641 2.03837 2.52232 0
M  V30 3621 H 345.426 3.56876 1.62426 0
M  V30 3622 H 346.916 3.28844 2.57393 0
M  V30 3623 N 347.353 -0.0568162 1.57498 0
M  V30 3624 C 348.285 -1.09292 2.01464 0
M  V30 3625 C 349.298 -1.34112 0.922913 0
M  V30 3626 O 350.487 -1.32089 1.20062 0
M  V30 3627 C 347.587 -2.44068 2.35125 0
M  V30 3628 C 346.76 -2.38995 3.66333 0
M  V30 3629 C 345.819 -3.55997 3.87495 0
M  V30 3630 O 344.845 -3.36746 4.58901 0
M  V30 3631 N 346.047 -4.76888 3.30996 0
M  V30 3632 H 348.812 -0.718386 2.90963 0
M  V30 3633 H 346.373 -0.245235 1.60032 0
M  V30 3634 H 348.365 -3.21011 2.46443 0
M  V30 3635 H 346.935 -2.73468 1.5144 0
M  V30 3636 H 346.155 -1.47336 3.65631 0
M  V30 3637 H 347.443 -2.3272 4.52458 0
M  V30 3638 H 346.841 -4.95431 2.73065 0
M  V30 3639 H 345.398 -5.51291 3.47738 0
M  V30 3640 N 348.832 -1.54138 -0.328536 0
M  V30 3641 C 349.795 -1.82462 -1.38709 0
M  V30 3642 C 350.795 -0.696229 -1.44946 0
M  V30 3643 O 351.985 -0.964535 -1.4506 0
M  V30 3644 C 349.117 -1.98018 -2.77492 0
M  V30 3645 H 350.31 -2.77037 -1.14851 0
M  V30 3646 H 347.863 -1.45779 -0.563751 0
M  V30 3647 H 348.598 -1.05637 -3.06613 0
M  V30 3648 H 348.383 -2.80124 -2.74359 0
M  V30 3649 H 349.873 -2.21396 -3.54081 0
M  V30 3650 N 350.31 0.590341 -1.46126 0
M  V30 3651 C 351.559 1.34499 -1.50309 0
M  V30 3652 C 351.872 1.94977 -0.156021 0
M  V30 3653 O 353.078 2.71395 -0.0756037 0
M  V30 3654 C 351.534 2.43723 -2.64815 0
M  V30 3655 C 351.142 1.89582 -4.0591 0
M  V30 3656 C 352.886 3.20579 -2.78262 0
M  V30 3657 C 350.793 2.9639 -5.11769 0
M  V30 3658 H 349.723 0.505593 -0.559368 0
M  V30 3659 H 352.374 0.630848 -1.72315 0
M  V30 3660 H 350.756 3.17902 -2.36124 0
M  V30 3661 H 351.93 1.21997 -4.44357 0
M  V30 3662 H 350.245 1.25418 -3.97063 0
M  V30 3663 H 352.842 4.00276 -3.54519 0
M  V30 3664 H 353.185 3.72684 -1.85505 0
M  V30 3665 H 353.718 2.53505 -3.06562 0
M  V30 3666 H 350.457 2.49181 -6.06291 0
M  V30 3667 H 349.977 3.62487 -4.77873 0
M  V30 3668 H 351.656 3.60474 -5.37278 0
M  V30 3669 N 351.788 1.33704 0.83433 0
M  V30 3670 C 352.698 1.26382 1.97648 0
M  V30 3671 C 353.714 0.173548 1.73132 0
M  V30 3672 O 354.89 0.397962 1.97429 0
M  V30 3673 C 351.955 1.00769 3.31733 0
M  V30 3674 C 351.016 2.1884 3.69334 0
M  V30 3675 C 350.249 1.9444 4.9702 0
M  V30 3676 O 350.472 0.896961 5.63303 0
M  V30 3677 O 349.406 2.81093 5.32231 0
M  V30 3678 H 353.232 2.22444 2.06767 0
M  V30 3679 H 350.817 1.13795 0.968037 0
M  V30 3680 H 352.699 0.882186 4.12062 0
M  V30 3681 H 351.374 0.0773783 3.23608 0
M  V30 3682 H 350.281 2.36946 2.89495 0
M  V30 3683 H 351.614 3.10221 3.82131 0
M  V30 3684 N 353.266 -1.05314 1.17247 0
M  V30 3685 C 354.229 -2.112 0.890357 0
M  V30 3686 C 355.229 -1.60359 -0.118943 0
M  V30 3687 O 356.419 -1.73833 0.113086 0
M  V30 3688 C 353.551 -3.39266 0.333422 0
M  V30 3689 H 354.744 -2.37659 1.82916 0
M  V30 3690 H 352.297 -1.21538 0.982758 0
M  V30 3691 H 353.032 -3.18462 -0.612587 0
M  V30 3692 H 352.817 -3.77477 1.06082 0
M  V30 3693 H 354.307 -4.17315 0.154322 0
M  V30 3694 N 354.744 -0.972509 -1.24016 0
M  V30 3695 C 355.707 -0.511403 -2.23422 0
M  V30 3696 C 356.707 0.394679 -1.55881 0
M  V30 3697 O 357.897 0.189469 -1.73167 0
M  V30 3698 C 355.029 0.258769 -3.39916 0
M  V30 3699 H 356.222 -1.39024 -2.6573 0
M  V30 3700 H 353.775 -0.757585 -1.36713 0
M  V30 3701 H 354.51 1.1545 -3.03054 0
M  V30 3702 H 354.295 -0.391522 -3.9014 0
M  V30 3703 H 355.785 0.570244 -4.13688 0
M  V30 3704 N 356.222 1.38976 -0.743202 0
M  V30 3705 C 357.47 1.99948 -0.29417 0
M  V30 3706 C 357.791 1.59279 1.12495 0
M  V30 3707 O 357.061 0.844808 1.76748 0
M  V30 3708 H 355.641 0.739473 -0.105774 0
M  V30 3709 H 358.303 1.699 -0.954986 0
M  V30 3710 H 357.399 3.10142 -0.349056 0
M  V30 3711 N 357.7 0.491464 1.49741 0
M  V30 3712 C 358.663 -0.280906 2.27472 0
M  V30 3713 C 359.663 -0.902454 1.33088 0
M  V30 3714 O 360.853 -0.768465 1.56334 0
M  V30 3715 C 357.985 -1.40209 3.10732 0
M  V30 3716 H 359.178 0.401056 2.97206 0
M  V30 3717 H 356.731 0.246131 1.5435 0
M  V30 3718 H 357.466 -2.11849 2.45541 0
M  V30 3719 H 357.251 -0.961969 3.80117 0
M  V30 3720 H 358.741 -1.9464 3.69466 0
M  V30 3721 N 359.178 -1.55987 0.224894 0
M  V30 3722 C 360.406 -2.02784 -0.410665 0
M  V30 3723 C 360.821 -1.10464 -1.53112 0
M  V30 3724 O 360.178 -0.114871 -1.82138 0
M  V30 3725 C 360.229 -3.49087 -0.939165 0
M  V30 3726 O 359.95 -4.37887 0.136614 0
M  V30 3727 C 361.451 -4.11543 -1.64763 0
M  V30 3728 H 358.671 -0.663484 -0.100148 0
M  V30 3729 H 361.215 -2.01614 0.342326 0
M  V30 3730 H 359.37 -3.50861 -1.64242 0
M  V30 3731 H 359.784 -5.23849 -0.261155 0
M  V30 3732 H 361.258 -5.15673 -1.96939 0
M  V30 3733 H 361.735 -3.56736 -2.56195 0
M  V30 3734 H 362.341 -4.13629 -0.989503 0
M  V30 3735 N 360.656 0.0484629 -1.57525 0
M  V30 3736 C 361.905 0.742065 -1.87553 0
M  V30 3737 C 362.218 1.77545 -0.820802 0
M  V30 3738 O 363.424 2.52027 -1.00967 0
M  V30 3739 C 361.88 1.37081 -3.32771 0
M  V30 3740 C 361.488 0.374786 -4.4643 0
M  V30 3741 C 363.232 2.04542 -3.71972 0
M  V30 3742 C 361.139 1.01077 -5.82698 0
M  V30 3743 H 360.069 0.280903 -0.699721 0
M  V30 3744 H 362.72 -0.00411877 -1.835 0
M  V30 3745 H 361.102 2.16605 -3.31509 0
M  V30 3746 H 362.276 -0.392331 -4.59127 0
M  V30 3747 H 360.591 -0.196653 -4.15935 0
M  V30 3748 H 363.188 2.52943 -4.71088 0
M  V30 3749 H 363.531 2.85515 -3.02964 0
M  V30 3750 H 364.064 1.31819 -3.75325 0
M  V30 3751 H 360.803 0.240878 -6.55057 0
M  V30 3752 H 360.323 1.74819 -5.73758 0
M  V30 3753 H 362.002 1.52383 -6.28799 0
M  V30 3754 N 362.134 1.5431 0.320358 0
M  V30 3755 C 363.383 1.7188 1.05546 0
M  V30 3756 C 363.696 0.501143 1.89071 0
M  V30 3757 O 364.902 0.558258 2.65699 0
M  V30 3758 C 363.358 3.04025 1.92605 0
M  V30 3759 C 362.966 4.33207 1.14176 0
M  V30 3760 C 364.71 3.30959 2.65832 0
M  V30 3761 C 362.617 5.56412 2.00399 0
M  V30 3762 H 361.547 0.640547 0.397763 0
M  V30 3763 H 364.198 1.80802 0.313522 0
M  V30 3764 H 362.58 2.89019 2.7071 0
M  V30 3765 H 363.754 4.58989 0.40819 0
M  V30 3766 H 362.069 4.13062 0.526165 0
M  V30 3767 H 364.666 4.20203 3.30656 0
M  V30 3768 H 365.009 2.48979 3.33639 0
M  V30 3769 H 365.542 3.46847 1.94787 0
M  V30 3770 H 362.281 6.41004 1.37094 0
M  V30 3771 H 361.801 5.34844 2.7148 0
M  V30 3772 H 363.48 5.92938 2.58908 0
M  V30 3773 N 363.613 -0.582584 1.46437 0
M  V30 3774 C 364.561 -1.71272 1.5738 0
M  V30 3775 C 365.555 -1.63524 0.44229 0
M  V30 3776 O 366.761 -1.69016 0.619166 0
M  V30 3777 H 363.136 -0.566273 0.494813 0
M  V30 3778 H 365.107 -1.59174 2.52401 0
M  V30 3779 C 363.856 -3.09658 1.58136 0
M  V30 3780 H 363.179 -3.16291 2.44541 0
M  V30 3781 H 364.619 -3.88494 1.69847 0
M  V30 3782 C 363.078 -3.3547 0.310026 0
M  V30 3783 O 363.608 -3.97199 -0.599683 0
M  V30 3784 N 361.814 -2.89925 0.197901 0
M  V30 3785 H 361.361 -2.39873 0.93909 0
M  V30 3786 H 361.319 -3.07568 -0.65185 0
M  V30 3787 N 365.091 -1.34144 -0.827227 0
M  V30 3788 C 366.319 -1.29325 -1.61501 0
M  V30 3789 C 366.734 0.13354 -1.88327 0
M  V30 3790 O 366.091 1.0793 -1.47164 0
M  V30 3791 C 366.142 -2.07746 -2.95844 0
M  V30 3792 O 365.863 -3.4486 -2.70191 0
M  V30 3793 C 367.364 -2.10273 -3.90256 0
M  V30 3794 H 364.584 -0.445069 -0.50215 0
M  V30 3795 H 367.128 -1.76693 -1.02955 0
M  V30 3796 H 365.283 -1.6403 -3.5096 0
M  V30 3797 H 365.697 -3.85345 -3.55822 0
M  V30 3798 H 367.171 -2.69575 -4.81698 0
M  V30 3799 H 367.648 -1.096 -4.25305 0
M  V30 3800 H 368.254 -2.54059 -3.41078 0
M  V30 3801 N 366.569 1.04691 -1.17803 0
M  V30 3802 C 367.817 1.7743 -0.967617 0
M  V30 3803 C 368.138 1.88359 0.504574 0
M  V30 3804 O 367.408 1.40402 1.36617 0
M  V30 3805 H 365.988 0.657242 -0.355024 0
M  V30 3806 H 368.65 1.2638 -1.48371 0
M  V30 3807 H 367.746 2.78924 -1.40027 0
M  V30 3808 N 368.047 0.979072 1.23499 0
M  V30 3809 C 369.296 0.642751 1.91185 0
M  V30 3810 C 369.609 -0.827253 1.77245 0
M  V30 3811 O 370.815 -1.27458 2.39722 0
M  V30 3812 C 369.271 1.09901 3.42709 0
M  V30 3813 C 368.879 2.59327 3.65313 0
M  V30 3814 C 370.623 0.836371 4.16179 0
M  V30 3815 C 368.53 2.98627 5.10467 0
M  V30 3816 H 367.46 0.236698 0.715884 0
M  V30 3817 H 370.111 1.1868 1.39955 0
M  V30 3818 H 368.493 0.48319 3.93041 0
M  V30 3819 H 369.667 3.26136 3.25533 0
M  V30 3820 H 367.982 2.83323 3.05151 0
M  V30 3821 H 370.579 1.10586 5.23139 0
M  V30 3822 H 370.922 -0.227509 4.15678 0
M  V30 3823 H 371.455 1.41371 3.71832 0
M  V30 3824 H 368.194 4.04133 5.16098 0
M  V30 3825 H 367.714 2.3651 5.51201 0
M  V30 3826 H 369.393 2.89159 5.78788 0
M  V30 3827 N 369.525 -1.3858 0.750561 0
M  V30 3828 C 370.773 -1.99789 0.30477 0
M  V30 3829 C 371.094 -1.59874 -1.11649 0
M  V30 3830 O 370.364 -0.85417 -1.76297 0
M  V30 3831 H 368.944 -0.738902 0.109694 0
M  V30 3832 H 371.606 -1.69391 0.963983 0
M  V30 3833 H 370.702 -3.09952 0.365499 0
M  V30 3834 N 371.003 -0.499398 -1.49478 0
M  V30 3835 C 372.249 0.0377587 -2.03365 0
M  V30 3836 C 372.604 1.3484 -1.37244 0
M  V30 3837 O 371.897 1.85 -0.498547 0
M  V30 3838 C 372.091 0.248424 -3.56536 0
M  V30 3839 C 371.92 -1.04025 -4.37503 0
M  V30 3840 C 370.69 -1.59159 -4.79579 0
M  V30 3841 C 372.888 -1.9431 -4.76181 0
M  V30 3842 N 370.87 -2.82634 -5.44969 0
M  V30 3843 C 372.241 -3.02364 -5.41272 0
M  V30 3844 C 374.296 -1.95008 -4.58123 0
M  V30 3845 C 372.999 -4.1114 -5.90217 0
M  V30 3846 C 375.025 -3.02758 -5.08027 0
M  V30 3847 C 374.387 -4.09531 -5.73118 0
M  V30 3848 H 370.486 -0.026923 -0.781536 0
M  V30 3849 H 373.07 -0.673901 -1.82665 0
M  V30 3850 H 371.241 0.929139 -3.77123 0
M  V30 3851 H 372.973 0.782445 -3.97064 0
M  V30 3852 H 369.728 -1.13696 -4.5975 0
M  V30 3853 H 370.152 -3.45416 -5.82252 0
M  V30 3854 H 374.794 -1.13766 -4.07207 0
M  V30 3855 H 372.512 -4.93181 -6.40155 0
M  V30 3856 H 376.098 -3.04315 -4.95866 0
M  V30 3857 H 374.978 -4.91534 -6.11035 0
M  V30 3858 N 372.481 1.55866 -0.233164 0
M  V30 3859 C 373.431 2.17442 0.685774 0
M  V30 3860 C 374.415 1.12617 1.14918 0
M  V30 3861 O 375.607 1.3857 1.10124 0
M  V30 3862 C 372.736 2.86685 1.88856 0
M  V30 3863 C 371.822 3.98749 1.4443 0
M  V30 3864 N 372.213 5.00744 0.713364 0
M  V30 3865 C 370.511 4.11052 1.73068 0
M  V30 3866 C 371.212 5.79673 0.485205 0
M  V30 3867 N 370.188 5.33454 1.04536 0
M  V30 3868 H 373.99 2.93659 0.119022 0
M  V30 3869 H 371.504 1.62362 -0.0348995 0
M  V30 3870 H 373.501 3.29218 2.55776 0
M  V30 3871 H 372.161 2.11967 2.45967 0
M  V30 3872 H 373.172 5.16613 0.364861 0
M  V30 3873 H 369.849 3.47495 2.31416 0
M  V30 3874 H 371.239 6.71829 -0.097365 0
M  V30 3875 N 373.959 -0.0401083 1.57549 0
M  V30 3876 C 374.869 -1.06133 2.0922 0
M  V30 3877 C 375.885 -1.40356 1.0284 0
M  V30 3878 O 377.061 -1.49897 1.34509 0
M  V30 3879 C 374.126 -2.34658 2.55218 0
M  V30 3880 C 373.187 -2.07117 3.76033 0
M  V30 3881 C 372.42 -3.29514 4.19829 0
M  V30 3882 O 372.643 -4.39794 3.63232 0
M  V30 3883 O 371.577 -3.15863 5.12362 0
M  V30 3884 H 375.403 -0.652244 2.96613 0
M  V30 3885 H 372.988 -0.256368 1.47184 0
M  V30 3886 H 374.87 -3.10239 2.85184 0
M  V30 3887 H 373.545 -2.74883 1.70941 0
M  V30 3888 H 372.452 -1.29139 3.51104 0
M  V30 3889 H 373.785 -1.71754 4.61261 0
M  V30 3890 N 375.437 -1.54477 -0.31217 0
M  V30 3891 C 376.4 -1.83923 -1.36766 0
M  V30 3892 C 377.4 -0.711563 -1.44199 0
M  V30 3893 O 378.59 -0.979866 -1.44029 0
M  V30 3894 C 375.722 -2.0095 -2.75376 0
M  V30 3895 H 376.915 -2.78239 -1.11906 0
M  V30 3896 H 374.468 -1.46369 -0.548257 0
M  V30 3897 H 375.203 -1.08883 -3.05475 0
M  V30 3898 H 374.988 -2.83018 -2.71373 0
M  V30 3899 H 376.478 -2.2514 -3.51713 0
M  V30 3900 N 376.915 0.57481 -1.46744 0
M  V30 3901 C 378.331 0.898981 -1.31873 0
M  V30 3902 C 378.531 1.99313 -0.29605 0
M  V30 3903 O 377.587 2.50728 0.298621 0
M  V30 3904 C 378.9 1.30886 -2.7072 0
M  V30 3905 C 380.448 1.42127 -2.78871 0
M  V30 3906 C 380.923 1.86478 -4.18318 0
M  V30 3907 N 382.414 1.93658 -4.20774 0
M  V30 3908 C 383.149 2.29267 -5.2557 0
M  V30 3909 N 382.645 2.63612 -6.40688 0
M  V30 3910 N 384.438 2.29889 -5.1294 0
M  V30 3911 H 376.589 -0.147839 -2.11885 0
M  V30 3912 H 378.852 -0.00347013 -0.947994 0
M  V30 3913 H 378.558 0.578853 -3.46904 0
M  V30 3914 H 378.432 2.26874 -3.01343 0
M  V30 3915 H 380.819 2.14213 -2.0297 0
M  V30 3916 H 380.9 0.443705 -2.51922 0
M  V30 3917 H 380.544 1.14968 -4.94717 0
M  V30 3918 H 380.474 2.85207 -4.42679 0
M  V30 3919 H 382.965 1.69574 -3.37718 0
M  V30 3920 H 383.278 2.89759 -7.16421 0
M  V30 3921 H 381.623 2.61232 -6.44036 0
M  V30 3922 H 384.814 2.02485 -4.22039 0
M  V30 3923 H 384.987 2.57312 -5.94722 0
M  V30 3924 N 378.394 1.34581 0.820102 0
M  V30 3925 C 379.643 1.26437 1.57151 0
M  V30 3926 C 379.956 -0.163111 1.94919 0
M  V30 3927 O 381.162 -0.366722 2.69012 0
M  V30 3928 C 379.618 2.21658 2.83541 0
M  V30 3929 C 379.226 3.69679 2.53065 0
M  V30 3930 C 380.97 2.22428 3.61561 0
M  V30 3931 C 378.877 4.56761 3.75664 0
M  V30 3932 H 377.807 0.469707 0.589823 0
M  V30 3933 H 380.458 1.59763 0.902656 0
M  V30 3934 H 378.84 1.81287 3.52067 0
M  V30 3935 H 380.014 4.18605 1.92631 0
M  V30 3936 H 378.329 3.71384 1.88316 0
M  V30 3937 H 380.926 2.8471 4.52597 0
M  V30 3938 H 381.269 1.22434 3.97889 0
M  V30 3939 H 381.802 2.61259 2.99981 0
M  V30 3940 H 378.541 5.57702 3.44454 0
M  V30 3941 H 378.061 4.12568 4.35371 0
M  V30 3942 H 379.74 4.71509 4.43044 0
M  V30 3943 N 379.872 -1.04064 1.18357 0
M  V30 3944 C 381.283 -1.58719 0.98312 0
M  V30 3945 C 381.634 -1.90556 -0.467193 0
M  V30 3946 O 380.759 -1.69561 -1.34454 0
M  V30 3947 C 381.354 -2.88379 1.77828 0
M  V30 3948 C 379.913 -3.3965 1.62218 0
M  V30 3949 C 379.06 -2.13235 1.77274 0
M  V30 3950 H 382.011 -0.867359 1.32901 0
M  V30 3951 H 382.032 -3.58773 1.26737 0
M  V30 3952 H 381.544 -2.65176 2.83379 0
M  V30 3953 H 379.645 -3.67866 0.592036 0
M  V30 3954 H 379.758 -4.13475 2.42023 0
M  V30 3955 H 378.122 -2.24542 1.20221 0
M  V30 3956 H 378.905 -1.92487 2.8426 0
M  V30 3957 N 381.35 -0.985608 -1.22978 0
M  V30 3958 C 382.578 -0.675582 -1.95559 0
M  V30 3959 C 382.993 0.758413 -1.72897 0
M  V30 3960 O 382.35 1.51094 -1.02357 0
M  V30 3961 C 382.401 -0.96293 -3.48439 0
M  V30 3962 O 382.122 -2.34057 -3.70336 0
M  V30 3963 C 383.623 -0.669585 -4.38214 0
M  V30 3964 H 380.843 -0.250523 -0.622478 0
M  V30 3965 H 383.387 -1.3184 -1.56328 0
M  V30 3966 H 381.542 -0.366033 -3.85667 0
M  V30 3967 H 381.956 -2.43424 -4.64591 0
M  V30 3968 H 383.43 -0.920967 -5.44263 0
M  V30 3969 H 383.907 0.396383 -4.37408 0
M  V30 3970 H 384.513 -1.2472 -4.06602 0
M  V30 3971 N 382.828 1.3818 -0.7579 0
M  V30 3972 C 384.077 1.99261 -0.312744 0
M  V30 3973 C 384.39 1.60846 1.11301 0
M  V30 3974 O 385.596 2.14929 1.65885 0
M  V30 3975 C 384.052 3.56294 -0.50821 0
M  V30 3976 C 383.66 4.03657 -1.94333 0
M  V30 3977 C 385.404 4.24313 -0.125982 0
M  V30 3978 C 383.311 5.53347 -2.08712 0
M  V30 3979 H 382.241 0.745456 -0.113185 0
M  V30 3980 H 384.892 1.57889 -0.935056 0
M  V30 3981 H 383.274 3.95575 0.183353 0
M  V30 3982 H 384.448 3.75655 -2.66871 0
M  V30 3983 H 382.763 3.48376 -2.28086 0
M  V30 3984 H 385.36 5.34279 -0.212125 0
M  V30 3985 H 385.703 4.05962 0.921964 0
M  V30 3986 H 386.236 3.90285 -0.769563 0
M  V30 3987 H 382.975 5.76607 -3.11777 0
M  V30 3988 H 382.495 5.83078 -1.4064 0
M  V30 3989 H 384.174 6.19111 -1.87912 0
M  V30 3990 N 384.306 0.507319 1.49211 0
M  V30 3991 C 385.269 -0.256763 2.27757 0
M  V30 3992 C 386.269 -0.888287 1.34038 0
M  V30 3993 O 387.459 -0.751841 1.5714 0
M  V30 3994 C 384.591 -1.36905 3.12202 0
M  V30 3995 H 385.784 0.432557 2.96764 0
M  V30 3996 H 383.337 0.262488 1.5408 0
M  V30 3997 H 384.072 -2.09233 2.47775 0
M  V30 3998 H 383.857 -0.921599 3.81115 0
M  V30 3999 H 385.347 -1.9071 3.7151 0
M  V30 4000 N 385.784 -1.5574 0.241426 0
M  V30 4001 C 387.012 -2.03208 -0.389134 0
M  V30 4002 C 387.427 -1.12082 -1.51931 0
M  V30 4003 O 386.784 -0.134183 -1.82006 0
M  V30 4004 C 386.835 -3.50064 -0.902087 0
M  V30 4005 O 386.556 -4.37717 0.18305 0
M  V30 4006 C 388.057 -4.13268 -1.60389 0
M  V30 4007 H 385.277 -0.664509 -0.0931053 0
M  V30 4008 H 387.821 -2.0124 0.36369 0
M  V30 4009 H 385.976 -3.52583 -1.60511 0
M  V30 4010 H 386.39 -5.24097 -0.205579 0
M  V30 4011 H 387.864 -5.17733 -1.91458 0
M  V30 4012 H 388.341 -3.59434 -2.52397 0
M  V30 4013 H 388.947 -4.14655 -0.945576 0
M  V30 4014 N 387.262 0.0317525 -1.57568 0
M  V30 4015 C 388.673 0.578692 -1.77505 0
M  V30 4016 C 389.024 1.75749 -0.872164 0
M  V30 4017 O 388.149 2.16298 -0.0663106 0
M  V30 4018 C 388.744 1.05658 -3.21904 0
M  V30 4019 C 387.303 1.54906 -3.43047 0
M  V30 4020 C 386.45 0.485939 -2.73009 0
M  V30 4021 H 389.401 -0.194475 -1.57504 0
M  V30 4022 H 389.422 1.92404 -3.28269 0
M  V30 4023 H 388.934 0.198422 -3.87592 0
M  V30 4024 H 387.035 2.42915 -2.82529 0
M  V30 4025 H 387.148 1.59841 -4.5165 0
M  V30 4026 H 385.512 0.940354 -2.36705 0
M  V30 4027 H 386.295 -0.362709 -3.41379 0
M  V30 4028 N 388.74 1.54641 0.303973 0
M  V30 4029 C 389.986 1.74038 1.04109 0
M  V30 4030 C 390.319 0.523051 1.87024 0
M  V30 4031 O 389.594 -0.479874 1.88487 0
M  V30 4032 C 389.877 3.02761 1.94955 0
M  V30 4033 C 389.73 4.34787 1.1524 0
M  V30 4034 C 391.049 3.27336 2.94175 0
M  V30 4035 H 388.168 0.63323 0.377079 0
M  V30 4036 H 390.81 1.87354 0.316001 0
M  V30 4037 H 388.96 2.9154 2.56782 0
M  V30 4038 H 390.632 4.57922 0.557236 0
M  V30 4039 H 388.875 4.31407 0.455053 0
M  V30 4040 H 389.546 5.21116 1.8205 0
M  V30 4041 H 392.022 3.38148 2.42477 0
M  V30 4042 H 390.898 4.18726 3.54908 0
M  V30 4043 H 391.159 2.45491 3.67677 0
M  V30 4044 N 390.218 -0.567019 1.47046 0
M  V30 4045 C 391.629 -1.14916 1.47143 0
M  V30 4046 C 391.98 -1.94954 0.220767 0
M  V30 4047 O 391.105 -2.05602 -0.67505 0
M  V30 4048 C 391.7 -2.09069 2.666 0
M  V30 4049 C 390.259 -2.62575 2.69687 0
M  V30 4050 C 389.406 -1.38755 2.40088 0
M  V30 4051 H 392.357 -0.354126 1.54699 0
M  V30 4052 H 392.378 -2.92789 2.43011 0
M  V30 4053 H 391.89 -1.50789 3.57609 0
M  V30 4054 H 389.991 -3.24681 1.82792 0
M  V30 4055 H 390.104 -3.04239 3.70102 0
M  V30 4056 H 388.468 -1.69098 1.90468 0
M  V30 4057 H 389.251 -0.822822 3.33293 0
M  V30 4058 N 391.696 -1.35014 -0.812953 0
M  V30 4059 C 393.112 -1.14914 -1.10757 0
M  V30 4060 C 393.312 0.0426818 -2.01455 0
M  V30 4061 O 392.368 0.715212 -2.42159 0
M  V30 4062 C 393.681 -2.44911 -1.74468 0
M  V30 4063 C 395.229 -2.5106 -1.86917 0
M  V30 4064 C 395.704 -3.81085 -2.54044 0
M  V30 4065 N 397.195 -3.82301 -2.61535 0
M  V30 4066 C 397.93 -4.79634 -3.14227 0
M  V30 4067 N 397.426 -5.87353 -3.67407 0
M  V30 4068 N 399.219 -4.67078 -3.12721 0
M  V30 4069 H 391.37 -2.1136 -0.20989 0
M  V30 4070 H 393.633 -0.935128 -0.155692 0
M  V30 4071 H 393.339 -3.32267 -1.15289 0
M  V30 4072 H 393.213 -2.58989 -2.74234 0
M  V30 4073 H 395.6 -1.64137 -2.45241 0
M  V30 4074 H 395.681 -2.40901 -0.860242 0
M  V30 4075 H 395.325 -4.68402 -1.96372 0
M  V30 4076 H 395.255 -3.88529 -3.55461 0
M  V30 4077 H 397.746 -3.04465 -2.23851 0
M  V30 4078 H 398.059 -6.57624 -4.05894 0
M  V30 4079 H 396.404 -5.91054 -3.65623 0
M  V30 4080 H 399.595 -3.82067 -2.70449 0
M  V30 4081 H 399.768 -5.43098 -3.53481 0
M  V30 4082 N 393.175 1.03435 -1.18907 0
M  V30 4083 C 394.423 1.76394 -0.986382 0
M  V30 4084 C 394.744 1.88883 0.484567 0
M  V30 4085 O 394.014 1.41843 1.3512 0
M  V30 4086 H 392.594 0.65344 -0.361975 0
M  V30 4087 H 395.256 1.248 -1.49703 0
M  V30 4088 H 394.352 2.77424 -1.42978 0
M  V30 4089 N 394.653 0.992116 1.22453 0
M  V30 4090 C 395.616 0.546883 2.2258 0
M  V30 4091 C 396.616 -0.369829 1.56489 0
M  V30 4092 O 397.806 -0.161896 1.73446 0
M  V30 4093 C 394.938 -0.204659 3.40285 0
M  V30 4094 H 396.131 1.43234 2.63484 0
M  V30 4095 H 393.684 0.779239 1.3549 0
M  V30 4096 H 394.419 -1.10614 3.04853 0
M  V30 4097 H 394.204 0.45354 3.89468 0
M  V30 4098 H 395.694 -0.504358 4.14543 0
M  V30 4099 N 396.131 -1.37776 0.765217 0
M  V30 4100 C 397.378 -1.99849 0.326588 0
M  V30 4101 C 397.706 -1.60746 -1.09504 0
M  V30 4102 O 396.961 -0.84202 -1.76659 0
M  V30 4103 C 397.26 -3.5504 0.410053 0
M  V30 4104 C 396.926 -4.13891 1.78899 0
M  V30 4105 C 395.588 -4.29678 2.16635 0
M  V30 4106 C 397.94 -4.46236 2.69301 0
M  V30 4107 C 395.268 -4.7511 3.44221 0
M  V30 4108 C 397.62 -4.93089 3.9629 0
M  V30 4109 C 396.284 -5.07082 4.34078 0
M  V30 4110 H 395.554 -0.7313 0.119507 0
M  V30 4111 H 398.201 -1.64645 0.977968 0
M  V30 4112 H 396.506 -3.90451 -0.324878 0
M  V30 4113 H 398.203 -4.00966 0.0520699 0
M  V30 4114 H 394.793 -4.02026 1.48569 0
M  V30 4115 H 398.977 -4.3363 2.41409 0
M  V30 4116 H 394.233 -4.84129 3.73402 0
M  V30 4117 H 398.407 -5.17084 4.66472 0
M  V30 4118 H 396.034 -5.42046 5.33001 0
M  V30 4119 N 397.609 -0.515225 -1.4894 0
M  V30 4120 C 398.834 0.022727 -2.07388 0
M  V30 4121 C 399.259 1.2876 -1.37122 0
M  V30 4122 O 398.617 1.76067 -0.432431 0
M  V30 4123 C 398.665 0.244869 -3.59768 0
M  V30 4124 O 397.769 1.31667 -3.90817 0
M  V30 4125 H 397.11 -0.0325506 -0.663202 0
M  V30 4126 H 399.64 -0.718918 -1.91553 0
M  V30 4127 H 399.65 0.47205 -4.0526 0
M  V30 4128 H 398.325 -0.679194 -4.10317 0
M  V30 4129 H 396.902 1.07331 -3.5712 0
M  V30 4130 N 399.087 1.5561 -0.249682 0
M  V30 4131 C 400.333 2.00044 0.367952 0
M  V30 4132 C 400.688 1.1349 1.55363 0
M  V30 4133 O 399.981 0.191079 1.90645 0
M  V30 4134 C 400.175 3.4775 0.824887 0
M  V30 4135 C 400.004 4.48596 -0.314973 0
M  V30 4136 C 398.774 4.99077 -0.790555 0
M  V30 4137 C 400.972 5.0144 -1.14291 0
M  V30 4138 N 398.954 5.83675 -1.90254 0
M  V30 4139 C 400.325 5.83236 -2.10322 0
M  V30 4140 C 402.38 4.83736 -1.17916 0
M  V30 4141 C 401.083 6.49217 -3.09692 0
M  V30 4142 C 403.109 5.50497 -2.16117 0
M  V30 4143 C 402.471 6.32084 -3.10884 0
M  V30 4144 H 398.57 0.775512 0.100522 0
M  V30 4145 H 401.154 1.91193 -0.367896 0
M  V30 4146 H 399.325 3.56994 1.53002 0
M  V30 4147 H 401.057 3.79056 1.4177 0
M  V30 4148 H 397.812 4.72119 -0.374218 0
M  V30 4149 H 398.236 6.30671 -2.46137 0
M  V30 4150 H 402.878 4.20286 -0.460352 0
M  V30 4151 H 400.596 7.11832 -3.8252 0
M  V30 4152 H 404.182 5.38752 -2.19631 0
M  V30 4153 H 403.062 6.82832 -3.8563 0
M  V30 4154 N 400.565 -0.0233959 1.57583 0
M  V30 4155 C 401.811 -0.714119 1.89811 0
M  V30 4156 C 402.144 -1.74702 0.848113 0
M  V30 4157 O 401.419 -1.94023 -0.136135 0
M  V30 4158 C 401.702 -1.37853 3.32669 0
M  V30 4159 C 401.555 -0.358764 4.48367 0
M  V30 4160 C 402.874 -2.31101 3.7454 0
M  V30 4161 H 399.993 -0.25814 0.690314 0
M  V30 4162 H 402.635 0.0230927 1.89986 0
M  V30 4163 H 400.785 -2.00689 3.3265 0
M  V30 4164 H 402.457 0.268115 4.6052 0
M  V30 4165 H 400.7 0.321387 4.32608 0
M  V30 4166 H 401.371 -0.862242 5.45224 0
M  V30 4167 H 403.847 -1.78304 3.75961 0
M  V30 4168 H 402.723 -2.74567 4.75294 0
M  V30 4169 H 402.984 -3.18018 3.0711 0
M  V30 4170 N 402.043 -1.548 -0.295768 0
M  V30 4171 C 403.271 -1.78327 -1.04914 0
M  V30 4172 C 403.686 -0.545316 -1.80753 0
M  V30 4173 O 403.043 0.485013 -1.75937 0
M  V30 4174 C 403.094 -2.99418 -2.02561 0
M  V30 4175 O 402.815 -4.18431 -1.29798 0
M  V30 4176 C 404.316 -3.35375 -2.89895 0
M  V30 4177 H 401.536 -0.594618 -0.310918 0
M  V30 4178 H 404.08 -2.01763 -0.333454 0
M  V30 4179 H 402.235 -2.78175 -2.69624 0
M  V30 4180 H 402.649 -4.86736 -1.95419 0
M  V30 4181 H 404.123 -4.23332 -3.54251 0
M  V30 4182 H 404.6 -2.53761 -3.58472 0
M  V30 4183 H 405.206 -3.58796 -2.28355 0
M  V30 4184 N 403.521 0.559213 -1.47345 0
M  V30 4185 C 404.937 0.884943 -1.32819 0
M  V30 4186 C 405.137 1.98988 -0.317173 0
M  V30 4187 O 404.193 2.51031 0.272011 0
M  V30 4188 C 405.506 1.28007 -2.72093 0
M  V30 4189 C 407.054 1.39161 -2.80363 0
M  V30 4190 C 407.529 1.82031 -4.20272 0
M  V30 4191 N 409.02 1.89185 -4.22804 0
M  V30 4192 C 409.755 2.2368 -5.27973 0
M  V30 4193 N 409.251 2.56802 -6.43447 0
M  V30 4194 N 411.044 2.24436 -5.15349 0
M  V30 4195 H 403.195 -0.170304 -2.11716 0
M  V30 4196 H 405.458 -0.0135247 -0.947904 0
M  V30 4197 H 405.164 0.542027 -3.47498 0
M  V30 4198 H 405.038 2.23665 -3.03733 0
M  V30 4199 H 407.425 2.12048 -2.05231 0
M  V30 4200 H 407.506 0.41696 -2.52379 0
M  V30 4201 H 407.15 1.09715 -4.95908 0
M  V30 4202 H 407.08 2.80495 -4.45679 0
M  V30 4203 H 409.571 1.65982 -3.39497 0
M  V30 4204 H 409.884 2.82144 -7.19454 0
M  V30 4205 H 408.229 2.54387 -6.46771 0
M  V30 4206 H 411.42 1.97998 -4.24163 0
M  V30 4207 H 411.593 2.50989 -5.97418 0
M  V30 4208 N 404.999 1.35443 0.805782 0
M  V30 4209 C 405.946 1.28431 1.91766 0
M  V30 4210 C 406.916 0.156102 1.65365 0
M  V30 4211 O 408.101 0.339936 1.87747 0
M  V30 4212 C 405.241 1.06301 3.2832 0
M  V30 4213 C 404.354 2.2805 3.66902 0
M  V30 4214 C 403.489 1.99064 4.92491 0
M  V30 4215 C 402.528 3.16863 5.23703 0
M  V30 4216 N 401.665 2.87647 6.40471 0
M  V30 4217 H 406.505 2.23511 1.97096 0
M  V30 4218 H 404.042 1.11105 0.964054 0
M  V30 4219 H 406 0.915012 4.07042 0
M  V30 4220 H 404.63 0.148822 3.22457 0
M  V30 4221 H 403.682 2.53711 2.83434 0
M  V30 4222 H 404.994 3.1601 3.85927 0
M  V30 4223 H 404.148 1.81099 5.7904 0
M  V30 4224 H 402.887 1.0839 4.75503 0
M  V30 4225 H 401.892 3.35404 4.35642 0
M  V30 4226 H 403.117 4.08339 5.4262 0
M  V30 4227 H 401.063 1.99568 6.24907 0
M  V30 4228 H 400.98 3.69141 6.59751 0
M  V30 4229 H 402.248 2.73226 7.30047 0
M  V30 4230 N 406.477 -1.02803 1.19454 0
M  V30 4231 C 407.407 -2.12999 0.956758 0
M  V30 4232 C 408.388 -1.69743 -0.110188 0
M  V30 4233 O 409.573 -1.94148 0.0450038 0
M  V30 4234 C 406.703 -3.43746 0.495553 0
M  V30 4235 C 405.657 -4.00688 1.50443 0
M  V30 4236 C 404.983 -5.27067 0.900275 0
M  V30 4237 C 406.283 -4.35397 2.8849 0
M  V30 4238 H 407.977 -2.33148 1.87836 0
M  V30 4239 H 405.523 -1.12045 0.904539 0
M  V30 4240 H 407.476 -4.2021 0.316493 0
M  V30 4241 H 406.2 -3.23321 -0.461646 0
M  V30 4242 H 404.859 -3.2632 1.67065 0
M  V30 4243 H 404.507 -5.02959 -0.064503 0
M  V30 4244 H 404.207 -5.66127 1.57397 0
M  V30 4245 H 405.731 -6.06196 0.73203 0
M  V30 4246 H 407.145 -5.02795 2.75446 0
M  V30 4247 H 405.542 -4.85541 3.52661 0
M  V30 4248 H 406.612 -3.44662 3.41081 0
M  V30 4249 N 407.956 -0.998596 -1.21925 0
M  V30 4250 C 408.903 -0.553621 -2.24062 0
M  V30 4251 C 409.873 0.416999 -1.6078 0
M  V30 4252 O 411.058 0.320482 -1.88089 0
M  V30 4253 C 408.198 0.119959 -3.44891 0
M  V30 4254 C 407.311 -0.893077 -4.22668 0
M  V30 4255 C 406.446 -0.192424 -5.30851 0
M  V30 4256 C 405.485 -1.19344 -6.00353 0
M  V30 4257 N 404.622 -0.520707 -7.00166 0
M  V30 4258 H 409.462 -1.4293 -2.61486 0
M  V30 4259 H 406.999 -0.715838 -1.28507 0
M  V30 4260 H 408.957 0.527459 -4.13852 0
M  V30 4261 H 407.587 0.959389 -3.08214 0
M  V30 4262 H 406.639 -1.41886 -3.52948 0
M  V30 4263 H 407.951 -1.65512 -4.70539 0
M  V30 4264 H 407.105 0.271515 -6.06092 0
M  V30 4265 H 405.844 0.602075 -4.83969 0
M  V30 4266 H 404.849 -1.66795 -5.23889 0
M  V30 4267 H 406.074 -1.98891 -6.49322 0
M  V30 4268 H 404.02 0.254252 -6.55507 0
M  V30 4269 H 403.937 -1.2211 -7.46073 0
M  V30 4270 H 405.205 -0.0797596 -7.79459 0
M  V30 4271 N 409.434 1.37368 -0.772513 0
M  V30 4272 C 410.682 1.99279 -0.336516 0
M  V30 4273 C 411.003 1.6163 1.09091 0
M  V30 4274 O 410.273 0.882109 1.74916 0
M  V30 4275 H 408.853 0.737063 -0.121435 0
M  V30 4276 H 411.515 1.67836 -0.990809 0
M  V30 4277 H 410.611 3.09332 -0.414763 0
M  V30 4278 N 410.912 0.523116 1.48665 0
M  V30 4279 C 411.862 -0.263106 2.26477 0
M  V30 4280 C 412.846 -0.916005 1.32281 0
M  V30 4281 O 414.038 -0.819946 1.56863 0
M  V30 4282 C 411.167 -1.31361 3.17174 0
M  V30 4283 C 410.253 -0.665849 4.1884 0
M  V30 4284 N 410.644 0.244434 5.05209 0
M  V30 4285 C 408.942 -0.923863 4.36326 0
M  V30 4286 C 409.643 0.617443 5.78414 0
M  V30 4287 N 408.619 -0.0198686 5.43596 0
M  V30 4288 H 412.421 0.437295 2.90629 0
M  V30 4289 H 409.935 0.340675 1.58787 0
M  V30 4290 H 411.932 -1.89052 3.71571 0
M  V30 4291 H 410.592 -2.01546 2.54576 0
M  V30 4292 H 411.603 0.616621 5.14216 0
M  V30 4293 H 408.28 -1.6168 3.84923 0
M  V30 4294 H 409.67 1.36346 6.57921 0
M  V30 4295 N 412.39 -1.55475 0.257931 0
M  V30 4296 C 413.636 -1.99502 -0.364266 0
M  V30 4297 C 413.969 -1.146 -1.56782 0
M  V30 4298 O 413.244 -0.211968 -1.93342 0
M  V30 4299 C 413.527 -3.51917 -0.763333 0
M  V30 4300 C 413.38 -4.4758 0.446371 0
M  V30 4301 C 414.699 -4.09742 -1.60623 0
M  V30 4302 H 411.818 -0.725277 -0.130929 0
M  V30 4303 H 414.46 -1.8653 0.361446 0
M  V30 4304 H 412.61 -3.63101 -1.38166 0
M  V30 4305 H 414.282 -4.48362 1.08487 0
M  V30 4306 H 412.525 -4.19947 1.08753 0
M  V30 4307 H 413.196 -5.51862 0.123645 0
M  V30 4308 H 415.672 -4.01727 -1.08418 0
M  V30 4309 H 414.548 -5.16631 -1.85429 0
M  V30 4310 H 414.809 -3.58889 -2.58169 0
M  V30 4311 N 413.868 0.0150385 -1.57593 0
M  V30 4312 C 415.093 0.718067 -1.94573 0
M  V30 4313 C 415.518 1.6734 -0.859005 0
M  V30 4314 O 414.876 1.80362 0.184147 0
M  V30 4315 C 414.924 1.43918 -3.30636 0
M  V30 4316 O 414.028 2.55299 -3.23876 0
M  V30 4317 H 413.369 0.192125 -0.635597 0
M  V30 4318 H 415.899 -0.0336708 -2.04572 0
M  V30 4319 H 415.909 1.80598 -3.65853 0
M  V30 4320 H 414.584 0.738619 -4.09289 0
M  V30 4321 H 413.161 2.21058 -3.00312 0
M  V30 4322 N 415.346 1.54954 0.287554 0
M  V30 4323 C 416.276 1.89839 1.35954 0
M  V30 4324 C 417.257 0.758675 1.52244 0
M  V30 4325 O 418.442 1.01557 1.65529 0
M  V30 4326 C 415.572 2.15753 2.72154 0
M  V30 4327 C 414.526 3.3159 2.70614 0
M  V30 4328 C 413.852 3.42952 4.10229 0
M  V30 4329 C 415.152 4.68359 2.31165 0
M  V30 4330 H 416.846 2.79625 1.07007 0
M  V30 4331 H 414.392 1.3454 0.513316 0
M  V30 4332 H 416.345 2.38743 3.47246 0
M  V30 4333 H 415.069 1.22752 3.02654 0
M  V30 4334 H 413.728 3.08545 1.97979 0
M  V30 4335 H 413.376 2.47443 4.37928 0
M  V30 4336 H 413.076 4.20826 4.10097 0
M  V30 4337 H 414.6 3.68218 4.87081 0
M  V30 4338 H 416.014 4.9099 2.95976 0
M  V30 4339 H 414.411 5.49044 2.42221 0
M  V30 4340 H 415.481 4.68165 1.26291 0
M  V30 4341 N 416.824 -0.551391 1.4764 0
M  V30 4342 C 418.235 -1.13349 1.48354 0
M  V30 4343 C 418.586 -1.94709 0.241432 0
M  V30 4344 O 417.711 -2.06306 -0.653205 0
M  V30 4345 C 418.306 -2.0623 2.68802 0
M  V30 4346 C 416.865 -2.597 2.72457 0
M  V30 4347 C 416.012 -1.36201 2.41546 0
M  V30 4348 H 418.963 -0.337698 1.55065 0
M  V30 4349 H 418.984 -2.90196 2.46103 0
M  V30 4350 H 418.496 -1.46987 3.59188 0
M  V30 4351 H 416.597 -3.22724 1.86225 0
M  V30 4352 H 416.71 -3.00296 3.73308 0
M  V30 4353 H 415.074 -1.67068 1.9225 0
M  V30 4354 H 415.857 -0.787425 3.34147 0
M  V30 4355 N 418.302 -1.35869 -0.798587 0
M  V30 4356 C 419.232 -1.32118 -1.92528 0
M  V30 4357 C 420.213 -0.194209 -1.68988 0
M  V30 4358 O 421.398 -0.390426 -1.90235 0
M  V30 4359 C 418.528 -1.10047 -3.29404 0
M  V30 4360 C 417.482 -2.19471 -3.67446 0
M  V30 4361 C 416.808 -1.82555 -5.02571 0
M  V30 4362 C 418.108 -3.61495 -3.76987 0
M  V30 4363 H 419.802 -2.26394 -1.95924 0
M  V30 4364 H 417.348 -1.08981 -0.94123 0
M  V30 4365 H 419.301 -1.06061 -4.07835 0
M  V30 4366 H 418.025 -0.122195 -3.26371 0
M  V30 4367 H 416.684 -2.22568 -2.91306 0
M  V30 4368 H 416.332 -0.833249 -4.9605 0
M  V30 4369 H 416.032 -2.5581 -5.28995 0
M  V30 4370 H 417.556 -1.80108 -5.83432 0
M  V30 4371 H 418.97 -3.60676 -4.4563 0
M  V30 4372 H 417.367 -4.33577 -4.14887 0
M  V30 4373 H 418.437 -3.97065 -2.78329 0
M  V30 4374 N 419.78 1.02168 -1.19998 0
M  V30 4375 C 421.026 1.75945 -1.00852 0
M  V30 4376 C 421.359 1.88702 0.458828 0
M  V30 4377 O 420.634 1.40911 1.34069 0
M  V30 4378 C 420.917 3.18154 -1.68671 0
M  V30 4379 C 420.77 3.13224 -3.22817 0
M  V30 4380 C 422.089 4.16711 -1.41561 0
M  V30 4381 H 419.208 0.638673 -0.367785 0
M  V30 4382 H 421.85 1.19222 -1.4794 0
M  V30 4383 H 420 3.66586 -1.28636 0
M  V30 4384 H 421.672 2.72635 -3.72112 0
M  V30 4385 H 419.915 2.50751 -3.53986 0
M  V30 4386 H 420.586 4.13728 -3.65422 0
M  V30 4387 H 423.062 3.76913 -1.76284 0
M  V30 4388 H 421.938 5.14391 -1.91553 0
M  V30 4389 H 422.199 4.40774 -0.342193 0
M  V30 4390 N 421.258 1.00505 1.21394 0
M  V30 4391 C 422.486 0.706609 1.9446 0
M  V30 4392 C 422.901 -0.73081 1.74082 0
M  V30 4393 O 422.258 -1.49446 1.04747 0
M  V30 4394 C 422.309 1.01824 3.46863 0
M  V30 4395 O 422.03 2.39919 3.66566 0
M  V30 4396 C 423.531 0.739216 4.37093 0
M  V30 4397 H 420.751 0.260394 0.618414 0
M  V30 4398 H 423.295 1.34311 1.54211 0
M  V30 4399 H 421.45 0.427343 3.85036 0
M  V30 4400 H 421.864 2.50784 4.6066 0
M  V30 4401 H 423.338 1.00744 5.42729 0
M  V30 4402 H 423.815 -0.326746 4.37983 0
M  V30 4403 H 424.421 1.31173 4.04566 0
M  V30 4404 N 422.737 -1.36956 0.779787 0
M  V30 4405 C 423.965 -2.03755 0.359398 0
M  V30 4406 C 424.38 -1.58807 -1.02106 0
M  V30 4407 O 423.737 -0.773024 -1.6532 0
M  V30 4408 C 423.788 -3.59251 0.402568 0
M  V30 4409 O 423.509 -4.02557 1.72858 0
M  V30 4410 C 425.01 -4.43291 -0.0284068 0
M  V30 4411 H 422.23 -0.654148 0.149437 0
M  V30 4412 H 424.774 -1.75128 1.05595 0
M  V30 4413 H 422.929 -3.86621 -0.245478 0
M  V30 4414 H 423.343 -4.97111 1.67275 0
M  V30 4415 H 424.817 -5.51975 0.0529466 0
M  V30 4416 H 425.294 -4.25719 -1.07982 0
M  V30 4417 H 425.9 -4.21163 0.591758 0
M  V30 4418 N 424.215 -0.530993 -1.48385 0
M  V30 4419 C 425.163 0.244595 -2.3131 0
M  V30 4420 C 426.157 0.93451 -1.41291 0
M  V30 4421 O 427.363 0.85878 -1.58193 0
M  V30 4422 H 423.738 0.0977472 -0.74562 0
M  V30 4423 H 425.709 -0.474369 -2.94605 0
M  V30 4424 C 424.458 1.2779 -3.23365 0
M  V30 4425 H 423.781 0.756439 -3.92579 0
M  V30 4426 H 425.221 1.79198 -3.84271 0
M  V30 4427 C 423.68 2.31205 -2.45042 0
M  V30 4428 O 424.21 3.37661 -2.17596 0
M  V30 4429 N 422.416 2.04446 -2.0652 0
M  V30 4430 H 421.963 1.17891 -2.2904 0
M  V30 4431 H 421.921 2.73861 -1.54427 0
M  V30 4432 N 425.693 1.55336 -0.266172 0
M  V30 4433 C 427.109 1.59356 0.0882065 0
M  V30 4434 C 427.309 1.2834 1.55342 0
M  V30 4435 O 426.365 1.03996 2.30089 0
M  V30 4436 C 427.678 2.99409 -0.278364 0
M  V30 4437 C 429.226 3.12196 -0.224243 0
M  V30 4438 C 429.701 4.545 -0.565123 0
M  V30 4439 N 431.192 4.60313 -0.51634 0
M  V30 4440 C 431.927 5.68434 -0.753013 0
M  V30 4441 N 431.423 6.84738 -1.05383 0
M  V30 4442 N 433.216 5.57942 -0.682414 0
M  V30 4443 H 425.367 1.73764 -1.22147 0
M  V30 4444 H 427.63 0.809822 -0.492841 0
M  V30 4445 H 427.336 3.2691 -1.29703 0
M  V30 4446 H 427.21 3.75228 0.385186 0
M  V30 4447 H 429.597 2.84464 0.78512 0
M  V30 4448 H 429.678 2.38609 -0.921922 0
M  V30 4449 H 429.322 4.82956 -1.57213 0
M  V30 4450 H 429.252 5.26374 0.154248 0
M  V30 4451 H 431.743 3.7676 -0.29335 0
M  V30 4452 H 432.056 7.63088 -1.22133 0
M  V30 4453 H 430.401 6.86375 -1.09151 0
M  V30 4454 H 433.592 4.65958 -0.44731 0
M  V30 4455 H 433.765 6.4213 -0.870248 0
M  V30 4456 N 427.171 -0.0066808 1.57599 0
M  V30 4457 C 428.42 -0.692078 1.89455 0
M  V30 4458 C 428.733 -1.75306 0.867586 0
M  V30 4459 O 429.939 -2.49262 1.07614 0
M  V30 4460 C 428.395 -1.2821 3.36289 0
M  V30 4461 C 428.003 -0.256291 4.47266 0
M  V30 4462 C 429.747 -1.94608 3.77264 0
M  V30 4463 C 427.654 -0.855927 5.85173 0
M  V30 4464 H 426.584 -0.262252 0.706923 0
M  V30 4465 H 429.235 0.052769 1.83424 0
M  V30 4466 H 427.617 -2.0774 3.37135 0
M  V30 4467 H 428.791 0.513923 4.57925 0
M  V30 4468 H 427.106 0.306862 4.15268 0
M  V30 4469 H 429.703 -2.40364 4.77629 0
M  V30 4470 H 430.046 -2.77382 3.10427 0
M  V30 4471 H 430.579 -1.21822 3.78688 0
M  V30 4472 H 427.318 -0.0671161 6.55466 0
M  V30 4473 H 426.838 -1.59546 5.78191 0
M  V30 4474 H 428.517 -1.35658 6.32618 0
M  V30 4475 N 428.649 -1.55105 -0.279332 0
M  V30 4476 C 429.597 -1.88333 -1.36505 0
M  V30 4477 C 430.591 -0.759043 -1.51443 0
M  V30 4478 O 431.797 -0.943312 -1.53302 0
M  V30 4479 H 428.172 -0.59766 -0.456406 0
M  V30 4480 H 430.143 -2.79041 -1.05728 0
M  V30 4481 C 428.892 -2.16628 -2.7197 0
M  V30 4482 H 428.215 -3.02624 -2.61264 0
M  V30 4483 H 429.655 -2.43803 -3.46895 0
M  V30 4484 C 428.114 -0.971807 -3.22579 0
M  V30 4485 O 428.644 -0.203228 -4.01186 0
M  V30 4486 N 426.85 -0.771238 -2.80179 0
M  V30 4487 H 426.397 -1.39792 -2.1637 0
M  V30 4488 H 426.355 0.0263667 -3.14389 0
M  V30 4489 N 430.127 0.543554 -1.4793 0
M  V30 4490 C 431.404 1.30458 -1.4574 0
M  V30 4491 C 431.784 2.1048 -0.161692 0
M  V30 4492 O 431.132 2.11831 0.856734 0
M  V30 4493 C 431.342 2.19754 -2.71126 0
M  V30 4494 C 432.69 2.80334 -3.18901 0
M  V30 4495 O 433.714 2.30049 -2.71948 0
M  V30 4496 O 432.573 3.71766 -4.00565 0
M  V30 4497 H 429.667 0.588117 -0.581418 0
M  V30 4498 H 432.213 0.561328 -1.60147 0
M  V30 4499 H 430.985 1.60316 -3.56952 0
M  V30 4500 H 430.608 3.01351 -2.59371 0
M  V30 4501 N 431.605 1.3629 0.791371 0
M  V30 4502 C 433.016 1.27225 1.36641 0
M  V30 4503 C 433.367 -0.0887968 1.95999 0
M  V30 4504 O 432.492 -0.990207 1.92416 0
M  V30 4505 C 433.087 2.30375 2.48421 0
M  V30 4506 C 431.646 2.25004 3.01746 0
M  V30 4507 C 430.793 2.15259 1.7481 0
M  V30 4508 H 433.744 1.47198 0.593173 0
M  V30 4509 H 433.765 1.93905 3.27385 0
M  V30 4510 H 433.277 3.29422 2.05189 0
M  V30 4511 H 431.378 1.29417 3.49403 0
M  V30 4512 H 431.491 3.1761 3.58693 0
M  V30 4513 H 429.855 1.61482 1.96966 0
M  V30 4514 H 430.638 3.16191 1.33709 0
M  V30 4515 N 433.083 -1.0153 1.20538 0
M  V30 4516 C 434.015 -2.10224 0.913155 0
M  V30 4517 C 435.028 -1.62495 -0.0995998 0
M  V30 4518 O 436.217 -1.78014 0.131582 0
M  V30 4519 C 433.317 -3.37111 0.347717 0
M  V30 4520 C 432.49 -4.13971 1.41233 0
M  V30 4521 C 431.549 -5.19158 0.857976 0
M  V30 4522 O 430.575 -5.48 1.53897 0
M  V30 4523 N 431.777 -5.7955 -0.331966 0
M  V30 4524 H 434.542 -2.35879 1.84881 0
M  V30 4525 H 432.103 -1.17931 1.10923 0
M  V30 4526 H 434.095 -4.04683 -0.0373026 0
M  V30 4527 H 432.665 -3.08696 -0.492527 0
M  V30 4528 H 431.885 -3.41351 1.97163 0
M  V30 4529 H 433.173 -4.62103 2.12928 0
M  V30 4530 H 432.571 -5.58455 -0.902478 0
M  V30 4531 H 431.128 -6.48464 -0.65861 0
M  V30 4532 N 434.561 -1.01147 -1.20859 0
M  V30 4533 C 435.807 -0.698899 -1.90377 0
M  V30 4534 C 436.14 0.76904 -1.78324 0
M  V30 4535 O 435.415 1.55817 -1.16409 0
M  V30 4536 C 435.698 -1.12878 -3.41951 0
M  V30 4537 C 435.551 -2.65665 -3.62963 0
M  V30 4538 C 436.87 -0.696114 -4.3456 0
M  V30 4539 H 433.989 -0.255372 -0.691342 0
M  V30 4540 H 436.631 -1.25831 -1.42361 0
M  V30 4541 H 434.781 -0.652827 -3.82976 0
M  V30 4542 H 436.453 -3.21074 -3.31224 0
M  V30 4543 H 434.696 -3.06878 -3.06608 0
M  V30 4544 H 435.367 -2.90797 -4.69192 0
M  V30 4545 H 437.843 -1.10521 -4.01154 0
M  V30 4546 H 436.719 -1.025 -5.39245 0
M  V30 4547 H 436.98 0.402465 -4.40264 0
M  V30 4548 N 436.039 1.36541 -0.78704 0
M  V30 4549 C 437.002 2.28413 -0.189778 0
M  V30 4550 C 438.002 1.48719 0.611499 0
M  V30 4551 O 439.192 1.68737 0.432842 0
M  V30 4552 C 436.324 3.32824 0.737638 0
M  V30 4553 H 437.517 2.82743 -0.999831 0
M  V30 4554 H 435.07 1.46065 -0.556298 0
M  V30 4555 H 435.805 2.83646 1.57212 0
M  V30 4556 H 435.59 3.91752 0.165044 0
M  V30 4557 H 437.08 4.0144 1.15047 0
M  V30 4558 N 437.518 0.538854 1.48102 0
M  V30 4559 C 438.795 -0.0568108 1.95517 0
M  V30 4560 C 439.175 -1.50408 1.48124 0
M  V30 4561 O 438.523 -2.17133 0.711727 0
M  V30 4562 C 438.733 0.0696262 3.48931 0
M  V30 4563 C 440.081 -0.0851202 4.24515 0
M  V30 4564 O 441.105 -0.0037347 3.562 0
M  V30 4565 O 439.964 -0.257025 5.45895 0
M  V30 4566 H 437.058 -0.0743695 0.823649 0
M  V30 4567 H 439.604 0.604081 1.58584 0
M  V30 4568 H 438.376 1.07744 3.76174 0
M  V30 4569 H 437.999 -0.629714 3.92582 0
M  V30 4570 N 438.996 -1.55193 0.274407 0
M  V30 4571 C 440.273 -1.91584 -0.394331 0
M  V30 4572 C 440.653 -1.19858 -1.73774 0
M  V30 4573 O 440.001 -0.3252 -2.26174 0
M  V30 4574 C 440.211 -3.4487 -0.535311 0
M  V30 4575 C 441.559 -4.16636 -0.818534 0
M  V30 4576 O 442.583 -3.5076 -0.620146 0
M  V30 4577 O 441.442 -5.33209 -1.19792 0
M  V30 4578 H 438.536 -0.798349 -0.215794 0
M  V30 4579 H 441.082 -1.66646 0.320507 0
M  V30 4580 H 439.854 -3.89145 0.410141 0
M  V30 4581 H 439.477 -3.75759 -1.29964 0
M  V30 4582 N 440.474 -0.00167713 -1.576 0
M  V30 4583 C 441.723 0.682021 -1.89819 0
M  V30 4584 C 442.036 1.74844 -0.876871 0
M  V30 4585 O 443.242 2.48688 -1.08934 0
M  V30 4586 C 441.698 1.26425 -3.36964 0
M  V30 4587 C 441.306 0.232568 -4.47396 0
M  V30 4588 C 443.05 1.92604 -3.78291 0
M  V30 4589 C 440.957 0.824882 -5.85619 0
M  V30 4590 H 439.887 0.258499 -0.708304 0
M  V30 4591 H 442.538 -0.0624957 -1.83394 0
M  V30 4592 H 440.92 2.05949 -3.38232 0
M  V30 4593 H 442.094 -0.5382 -4.57646 0
M  V30 4594 H 440.409 -0.32888 -4.15099 0
M  V30 4595 H 443.006 2.37827 -4.78897 0
M  V30 4596 H 443.349 2.75732 -3.11894 0
M  V30 4597 H 443.882 1.19812 -3.79328 0
M  V30 4598 H 440.621 0.0323542 -6.55492 0
M  V30 4599 H 440.141 1.56477 -5.79029 0
M  V30 4600 H 441.82 1.32301 -6.33329 0
M  V30 4601 N 441.952 1.55251 0.271103 0
M  V30 4602 C 442.882 1.9127 1.33933 0
M  V30 4603 C 443.863 0.77478 1.5143 0
M  V30 4604 O 445.048 1.03307 1.64442 0
M  V30 4605 C 442.178 2.18627 2.69851 0
M  V30 4606 C 441.132 3.34442 2.67081 0
M  V30 4607 C 440.458 3.47284 4.06569 0
M  V30 4608 C 441.758 4.70784 2.26185 0
M  V30 4609 H 443.452 2.80744 1.04035 0
M  V30 4610 H 440.998 1.35077 0.499017 0
M  V30 4611 H 442.951 2.42413 3.44694 0
M  V30 4612 H 441.675 1.25955 3.01335 0
M  V30 4613 H 440.334 3.10627 1.94695 0
M  V30 4614 H 439.982 2.52074 4.35279 0
M  V30 4615 H 439.682 4.25152 4.0561 0
M  V30 4616 H 441.206 3.73363 4.83148 0
M  V30 4617 H 442.62 4.94102 2.90751 0
M  V30 4618 H 441.017 5.51582 2.36384 0
M  V30 4619 H 442.087 4.69478 1.21319 0
M  V30 4620 N 443.43 -0.535701 1.48216 0
M  V30 4621 C 444.655 -1.32149 1.59848 0
M  V30 4622 C 445.08 -1.86338 0.256842 0
M  V30 4623 O 444.438 -1.64107 -0.770632 0
M  V30 4624 C 444.486 -2.45224 2.64381 0
M  V30 4625 O 443.59 -3.48093 2.21144 0
M  V30 4626 H 442.931 -0.391634 0.536208 0
M  V30 4627 H 445.461 -0.645202 1.94161 0
M  V30 4628 H 445.471 -2.91491 2.85476 0
M  V30 4629 H 444.146 -2.05143 3.61786 0
M  V30 4630 H 442.723 -3.07984 2.10239 0
M  V30 4631 N 444.908 -1.36708 -0.784132 0
M  V30 4632 C 446.324 -1.17237 -1.08294 0
M  V30 4633 C 446.524 -5.93947e-05 -2.015 0
M  V30 4634 O 445.58 0.663686 -2.43622 0
M  V30 4635 C 446.893 -2.48557 -1.69233 0
M  V30 4636 C 448.441 -2.54968 -1.8155 0
M  V30 4637 C 448.916 -3.86388 -2.45904 0
M  V30 4638 N 450.407 -3.87762 -2.53367 0
M  V30 4639 C 451.142 -4.86191 -3.03983 0
M  V30 4640 N 450.638 -5.95015 -3.54866 0
M  V30 4641 N 452.431 -4.73606 -3.02743 0
M  V30 4642 H 444.582 -2.11758 -0.16501 0
M  V30 4643 H 446.845 -0.93822 -0.135822 0
M  V30 4644 H 446.551 -3.34638 -1.08215 0
M  V30 4645 H 446.425 -2.64748 -2.68679 0
M  V30 4646 H 448.812 -1.69302 -2.41704 0
M  V30 4647 H 448.893 -2.42672 -0.80895 0
M  V30 4648 H 448.537 -4.72462 -1.86392 0
M  V30 4649 H 448.467 -3.95982 -3.4714 0
M  V30 4650 H 450.958 -3.09145 -2.17343 0
M  V30 4651 H 451.271 -6.66086 -3.91854 0
M  V30 4652 H 449.616 -5.98676 -3.53003 0
M  V30 4653 H 452.807 -3.87717 -2.62284 0
M  V30 4654 H 452.98 -5.50473 -3.41881 0
M  V30 4655 N 446.386 1.0089 -1.21074 0
M  V30 4656 C 447.634 1.74262 -1.02358 0
M  V30 4657 C 447.955 1.89869 0.444393 0
M  V30 4658 O 447.225 1.44677 1.32081 0
M  V30 4659 H 445.805 0.645615 -0.375754 0
M  V30 4660 H 448.467 1.21596 -1.52317 0
M  V30 4661 H 447.563 2.74328 -1.4883 0
M  V30 4662 N 447.864 1.01787 1.20321 0
M  V30 4663 C 449.141 0.622978 1.85414 0
M  V30 4664 C 449.521 -0.898887 1.91006 0
M  V30 4665 O 448.869 -1.79112 1.41884 0
M  V30 4666 C 449.079 1.27226 3.24984 0
M  V30 4667 C 450.427 1.3885 4.01255 0
M  V30 4668 O 451.451 1.22857 3.34342 0
M  V30 4669 O 450.31 1.64705 5.2109 0
M  V30 4670 H 447.404 0.215116 0.798533 0
M  V30 4671 H 449.95 1.11533 1.27901 0
M  V30 4672 H 448.722 2.31209 3.15687 0
M  V30 4673 H 448.345 0.767069 3.90131 0
M  V30 4674 N 449.342 -1.36122 0.79427 0
M  V30 4675 C 450.305 -2.28309 0.201889 0
M  V30 4676 C 451.305 -1.49041 -0.603603 0
M  V30 4677 O 452.495 -1.68964 -0.423888 0
M  V30 4678 C 449.627 -3.3321 -0.719978 0
M  V30 4679 H 450.82 -2.82208 1.01481 0
M  V30 4680 H 448.373 -1.45768 0.564037 0
M  V30 4681 H 449.108 -2.84475 -1.55706 0
M  V30 4682 H 448.893 -3.91835 -0.144266 0
M  V30 4683 H 450.383 -4.02044 -1.12916 0
M  V30 4684 N 450.82 -0.546701 -1.47814 0
M  V30 4685 C 452.097 0.0464413 -1.95545 0
M  V30 4686 C 452.477 1.4962 -1.48919 0
M  V30 4687 O 451.825 2.16752 -0.723232 0
M  V30 4688 C 452.035 -0.0881298 -3.48889 0
M  V30 4689 C 453.383 0.0626059 -4.24554 0
M  V30 4690 O 454.407 -0.0151555 -3.56197 0
M  V30 4691 O 453.266 0.228071 -5.46024 0
M  V30 4692 H 450.36 0.0700004 -0.824032 0
M  V30 4693 H 452.906 -0.612482 -1.58262 0
M  V30 4694 H 451.678 -1.09737 -3.75597 0
M  V30 4695 H 451.301 0.608886 -3.9291 0
M  V30 4696 N 452.299 1.55045 -0.282633 0
M  V30 4697 C 453.232 2.18951 0.64311 0
M  V30 4698 C 454.21 1.15287 1.14664 0
M  V30 4699 O 455.394 1.43846 1.21822 0
M  V30 4700 C 452.521 2.81874 1.87789 0
M  V30 4701 C 451.567 3.98906 1.50919 0
M  V30 4702 S 452.4 5.3234 0.580884 0
M  V30 4703 C 453.556 5.98737 1.82387 0
M  V30 4704 H 453.789 2.97131 0.100138 0
M  V30 4705 H 451.322 1.54255 -0.0668514 0
M  V30 4706 H 453.28 3.18757 2.58658 0
M  V30 4707 H 451.941 2.03573 2.392 0
M  V30 4708 H 451.134 4.4165 2.42819 0
M  V30 4709 H 450.736 3.63485 0.88061 0
M  V30 4710 H 453.028 6.18427 2.76684 0
M  V30 4711 H 453.971 6.93318 1.4393 0
M  V30 4712 H 454.379 5.28177 1.99223 0
M  V30 4713 N 453.777 0.010035 1.57597 0
M  V30 4714 C 455.023 -0.673697 1.91283 0
M  V30 4715 C 455.356 -1.72863 0.884979 0
M  V30 4716 O 454.631 -1.94268 -0.0949487 0
M  V30 4717 C 454.914 -1.30766 3.35518 0
M  V30 4718 C 454.767 -0.263578 4.49027 0
M  V30 4719 C 456.086 -2.23105 3.79358 0
M  V30 4720 H 453.205 -0.243439 0.695634 0
M  V30 4721 H 455.847 0.0633864 1.89894 0
M  V30 4722 H 453.997 -1.93588 3.36832 0
M  V30 4723 H 455.669 0.365738 4.59848 0
M  V30 4724 H 453.912 0.413077 4.31829 0
M  V30 4725 H 454.583 -0.746398 5.4693 0
M  V30 4726 H 457.059 -1.70289 3.79659 0
M  V30 4727 H 455.935 -2.64424 4.81011 0
M  V30 4728 H 456.196 -3.11433 3.13787 0
M  V30 4729 N 455.255 -1.55392 -0.262866 0
M  V30 4730 C 456.48 -1.80847 -1.01533 0
M  V30 4731 C 456.905 -0.584946 -1.78774 0
M  V30 4732 O 456.263 0.465701 -1.75217 0
M  V30 4733 C 456.311 -3.03866 -1.94159 0
M  V30 4734 O 455.415 -2.79662 -3.03089 0
M  V30 4735 H 454.756 -0.597441 -0.289759 0
M  V30 4736 H 457.286 -2.02553 -0.288698 0
M  V30 4737 H 457.296 -3.32872 -2.35924 0
M  V30 4738 H 455.971 -3.92564 -1.37354 0
M  V30 4739 H 454.548 -2.61781 -2.65566 0
M  V30 4740 N 456.733 0.527833 -1.48498 0
M  V30 4741 C 457.666 1.64892 -1.57753 0
M  V30 4742 C 458.644 1.5687 -0.427867 0
M  V30 4743 O 459.828 1.77311 -0.639764 0
M  V30 4744 C 456.955 3.03301 -1.50752 0
M  V30 4745 C 456.001 3.29675 -2.70586 0
M  V30 4746 S 456.834 3.15712 -4.32535 0
M  V30 4747 C 457.99 4.56564 -4.28136 0
M  V30 4748 H 458.223 1.56792 -2.52594 0
M  V30 4749 H 455.756 0.710959 -1.37057 0
M  V30 4750 H 457.714 3.83123 -1.474 0
M  V30 4751 H 456.375 3.08839 -0.572454 0
M  V30 4752 H 455.568 4.3065 -2.61833 0
M  V30 4753 H 455.17 2.57526 -2.71212 0
M  V30 4754 H 457.462 5.48126 -3.98201 0
M  V30 4755 H 458.405 4.70371 -5.29298 0
M  V30 4756 H 458.813 4.35987 -3.58574 0
M  V30 4757 N 458.211 1.37122 0.776871 0
M  V30 4758 C 459.174 1.32301 1.8716 0
M  V30 4759 C 460.174 0.228099 1.59174 0
M  V30 4760 O 461.364 0.483642 1.67352 0
M  V30 4761 C 458.496 1.054 3.24197 0
M  V30 4762 H 459.689 2.29673 1.92848 0
M  V30 4763 H 457.242 1.22077 0.97606 0
M  V30 4764 H 457.977 0.0853872 3.24188 0
M  V30 4765 H 457.762 1.84648 3.45901 0
M  V30 4766 H 459.252 1.04664 4.04271 0
M  V30 4767 N 459.689 -1.00246 1.21608 0
M  V30 4768 C 461.105 -1.26435 0.973975 0
M  V30 4769 C 461.305 -1.98642 -0.338143 0
M  V30 4770 O 460.361 -2.29026 -1.06317 0
M  V30 4771 C 461.674 -2.08551 2.16626 0
M  V30 4772 C 463.222 -2.21769 2.20879 0
M  V30 4773 C 463.697 -3.07267 3.39633 0
M  V30 4774 N 465.188 -3.14855 3.39736 0
M  V30 4775 C 465.923 -3.81274 4.28273 0
M  V30 4776 N 465.419 -4.497 5.27012 0
M  V30 4777 N 467.212 -3.7794 4.16074 0
M  V30 4778 H 459.363 -0.518089 2.05984 0
M  V30 4779 H 461.626 -0.291368 0.902113 0
M  V30 4780 H 461.332 -1.62847 3.11727 0
M  V30 4781 H 461.206 -3.09303 2.15897 0
M  V30 4782 H 463.593 -2.66691 1.26332 0
M  V30 4783 H 463.674 -1.20478 2.25652 0
M  V30 4784 H 463.318 -2.63047 4.34475 0
M  V30 4785 H 463.248 -4.08678 3.321 0
M  V30 4786 H 465.739 -2.66147 2.6828 0
M  V30 4787 H 466.052 -4.98092 5.90867 0
M  V30 4788 H 464.397 -4.48479 5.30935 0
M  V30 4789 H 467.588 -3.23638 3.38195 0
M  V30 4790 H 467.761 -4.29424 4.85282 0
M  V30 4791 N 461.167 -1.02423 -1.1978 0
M  V30 4792 C 462.578 -0.748389 -1.71044 0
M  V30 4793 C 462.929 0.732398 -1.82017 0
M  V30 4794 O 462.054 1.57116 -1.48807 0
M  V30 4795 C 462.649 -1.35187 -3.1066 0
M  V30 4796 C 461.208 -1.12472 -3.59203 0
M  V30 4797 C 460.355 -1.45283 -2.36195 0
M  V30 4798 H 463.306 -1.19275 -1.04686 0
M  V30 4799 H 463.327 -0.746408 -3.73107 0
M  V30 4800 H 462.839 -2.4296 -3.02642 0
M  V30 4801 H 460.94 -0.0649983 -3.72543 0
M  V30 4802 H 461.053 -1.81016 -4.43588 0
M  V30 4803 H 459.417 -0.872034 -2.39307 0
M  V30 4804 H 460.2 -2.54129 -2.30811 0
M  V30 4805 N 462.645 1.35699 -0.801477 0
M  V30 4806 C 463.892 1.98913 -0.379459 0
M  V30 4807 C 464.22 1.63592 1.05204 0
M  V30 4808 O 463.475 0.888563 1.74365 0
M  V30 4809 C 463.774 3.53828 -0.504041 0
M  V30 4810 C 463.44 4.09002 -1.8981 0
M  V30 4811 C 462.102 4.23783 -2.27951 0
M  V30 4812 C 464.454 4.38939 -2.81038 0
M  V30 4813 C 461.782 4.65816 -3.56696 0
M  V30 4814 C 464.134 4.82409 -4.09224 0
M  V30 4815 C 462.798 4.95395 -4.4737 0
M  V30 4816 H 462.068 0.727874 -0.138854 0
M  V30 4817 H 464.715 1.61994 -1.02128 0
M  V30 4818 H 463.02 3.91175 0.221242 0
M  V30 4819 H 464.717 4.00687 -0.158361 0
M  V30 4820 H 461.307 3.97946 -1.59176 0
M  V30 4821 H 465.491 4.27077 -2.52821 0
M  V30 4822 H 460.747 4.74059 -3.86106 0
M  V30 4823 H 464.921 5.04535 -4.80018 0
M  V30 4824 H 462.548 5.27724 -5.47185 0
M  V30 4825 N 464.123 0.554532 1.47522 0
M  V30 4826 C 465.053 -0.182974 2.32782 0
M  V30 4827 C 466.034 -0.911377 1.43624 0
M  V30 4828 O 467.219 -0.892366 1.72483 0
M  V30 4829 C 464.349 -1.21513 3.25349 0
M  V30 4830 C 463.303 -0.603355 4.23726 0
M  V30 4831 C 462.629 -1.73995 5.05598 0
M  V30 4832 C 463.929 0.441121 5.20434 0
M  V30 4833 H 465.623 0.52882 2.94693 0
M  V30 4834 H 463.169 0.255759 1.41711 0
M  V30 4835 H 465.122 -1.73922 3.83835 0
M  V30 4836 H 463.846 -1.95683 2.61487 0
M  V30 4837 H 462.505 -0.10059 3.66462 0
M  V30 4838 H 462.153 -2.47063 4.38143 0
M  V30 4839 H 461.853 -1.3364 5.72201 0
M  V30 4840 H 463.377 -2.26735 5.66942 0
M  V30 4841 H 464.791 0.00319931 5.733 0
M  V30 4842 H 463.188 0.763402 5.95224 0
M  V30 4843 H 464.258 1.33799 4.66075 0
M  V30 4844 N 465.601 -1.54893 0.290851 0
M  V30 4845 C 466.564 -2.21824 -0.576784 0
M  V30 4846 C 467.564 -1.20104 -1.06919 0
M  V30 4847 O 468.754 -1.44906 -0.966843 0
M  V30 4848 C 465.886 -2.89662 -1.79747 0
M  V30 4849 H 467.079 -2.99899 0.00784051 0
M  V30 4850 H 464.632 -1.56245 0.0415934 0
M  V30 4851 H 465.367 -2.15639 -2.42219 0
M  V30 4852 H 465.152 -3.64219 -1.45214 0
M  V30 4853 H 466.642 -3.4075 -2.4141 0
M  V30 4854 N 467.08 -0.0183926 -1.57589 0
M  V30 4855 C 468.357 0.700621 -1.82622 0
M  V30 4856 C 468.737 1.90951 -0.90005 0
M  V30 4857 O 468.085 2.28452 0.0469145 0
M  V30 4858 C 468.295 1.08899 -3.31575 0
M  V30 4859 C 469.643 1.48514 -3.9778 0
M  V30 4860 O 470.667 1.18227 -3.36007 0
M  V30 4861 O 469.526 2.04903 -5.06633 0
M  V30 4862 H 466.62 0.342743 -0.752633 0
M  V30 4863 H 469.166 -0.0452548 -1.6964 0
M  V30 4864 H 467.938 0.228113 -3.90635 0
M  V30 4865 H 467.561 1.89338 -3.49624 0
M  V30 4866 N 468.558 1.5553 0.254621 0
M  V30 4867 C 469.521 1.88872 1.29846 0
M  V30 4868 C 470.521 0.764591 1.41459 0
M  V30 4869 O 471.711 1.03265 1.40293 0
M  V30 4870 C 468.843 2.11032 2.67728 0
M  V30 4871 H 470.036 2.82201 1.01502 0
M  V30 4872 H 467.589 1.48303 0.493556 0
M  V30 4873 H 468.324 1.20146 3.01223 0
M  V30 4874 H 468.109 2.92895 2.60682 0
M  V30 4875 H 469.599 2.38038 3.43115 0
M  V30 4876 N 470.036 -0.519951 1.48776 0
M  V30 4877 C 470.946 -1.65025 1.66745 0
M  V30 4878 C 471.962 -1.6508 0.549954 0
M  V30 4879 O 473.138 -1.83848 0.822295 0
M  V30 4880 C 470.203 -3.0146 1.71238 0
M  V30 4881 C 469.264 -3.12182 2.94688 0
M  V30 4882 C 468.497 -4.42109 2.98958 0
M  V30 4883 O 468.72 -5.29799 2.1135 0
M  V30 4884 O 467.654 -4.57406 3.91233 0
M  V30 4885 H 471.48 -1.52801 2.62461 0
M  V30 4886 H 469.065 -0.694157 1.32294 0
M  V30 4887 H 470.947 -3.82584 1.76657 0
M  V30 4888 H 469.622 -3.13988 0.786975 0
M  V30 4889 H 468.529 -2.30316 2.94797 0
M  V30 4890 H 469.862 -3.04574 3.86646 0
M  V30 4891 N 471.514 -1.37532 -0.769588 0
M  V30 4892 C 472.444 -1.36172 -1.89682 0
M  V30 4893 C 473.425 -0.23001 -1.68538 0
M  V30 4894 O 474.61 -0.43069 -1.89364 0
M  V30 4895 C 471.74 -1.1701 -3.26995 0
M  V30 4896 C 470.694 -2.27216 -3.62708 0
M  V30 4897 C 470.02 -1.93174 -4.98586 0
M  V30 4898 C 471.32 -3.6941 -3.69234 0
M  V30 4899 H 473.014 -2.30499 -1.91078 0
M  V30 4900 H 470.56 -1.10953 -0.917902 0
M  V30 4901 H 472.513 -1.14688 -4.05493 0
M  V30 4902 H 471.237 -0.191395 -3.26039 0
M  V30 4903 H 469.896 -2.28697 -2.86519 0
M  V30 4904 H 469.544 -0.938281 -4.94171 0
M  V30 4905 H 469.244 -2.66973 -5.23449 0
M  V30 4906 H 470.768 -1.92443 -5.79481 0
M  V30 4907 H 472.182 -3.70047 -4.37879 0
M  V30 4908 H 470.579 -4.4228 -4.05597 0
M  V30 4909 H 471.649 -4.0288 -2.69844 0
M  V30 4910 N 472.992 0.995999 -1.22138 0
M  V30 4911 C 473.922 2.10387 -1.01289 0
M  V30 4912 C 474.903 1.69975 0.0651454 0
M  V30 4913 O 476.088 1.9396 -0.0964628 0
M  V30 4914 C 473.218 3.42312 -0.586517 0
M  V30 4915 C 472.172 3.96558 -1.61014 0
M  V30 4916 C 471.498 5.24494 -1.0397 0
M  V30 4917 C 472.798 4.27595 -2.99933 0
M  V30 4918 H 474.492 2.28086 -1.93951 0
M  V30 4919 H 472.038 1.09607 -0.933928 0
M  V30 4920 H 473.991 4.19223 -0.427793 0
M  V30 4921 H 472.715 3.24431 0.375761 0
M  V30 4922 H 471.374 3.21776 -1.75658 0
M  V30 4923 H 471.022 5.02953 -0.0688703 0
M  V30 4924 H 470.722 5.61755 -1.72352 0
M  V30 4925 H 472.246 6.04042 -0.892494 0
M  V30 4926 H 473.66 4.95315 -2.8868 0
M  V30 4927 H 472.057 4.76021 -3.6541 0
M  V30 4928 H 473.127 3.35498 -3.50099 0
M  V30 4929 N 474.47 1.03057 1.19235 0
M  V30 4930 C 475.695 0.74757 1.93458 0
M  V30 4931 C 476.12 -0.687648 1.7508 0
M  V30 4932 O 475.478 -1.47499 1.05422 0
M  V30 4933 C 475.526 1.10604 3.43219 0
M  V30 4934 O 474.63 0.225671 4.11782 0
M  V30 4935 H 473.971 0.276047 0.603899 0
M  V30 4936 H 476.501 1.3777 1.51263 0
M  V30 4937 H 476.511 1.06366 3.93891 0
M  V30 4938 H 475.186 2.15165 3.55917 0
M  V30 4939 H 473.763 0.326795 3.71465 0
M  V30 4940 N 475.948 -1.35272 0.808662 0
M  V30 4941 C 476.895 -2.29764 0.218482 0
M  V30 4942 C 477.865 -1.52911 -0.648652 0
M  V30 4943 O 479.05 -1.81341 -0.593297 0
M  V30 4944 C 476.19 -3.39388 -0.625282 0
M  V30 4945 C 475.303 -4.31202 0.262516 0
M  V30 4946 C 474.438 -5.27919 -0.589451 0
M  V30 4947 C 473.477 -6.11371 0.298617 0
M  V30 4948 N 472.614 -7.0022 -0.513443 0
M  V30 4949 H 477.454 -2.79645 1.02968 0
M  V30 4950 H 474.991 -1.37629 0.519303 0
M  V30 4951 H 476.949 -4.01615 -1.12966 0
M  V30 4952 H 475.579 -2.90777 -1.40173 0
M  V30 4953 H 474.631 -3.69962 0.885013 0
M  V30 4954 H 475.943 -4.89748 0.945971 0
M  V30 4955 H 475.097 -5.95529 -1.15888 0
M  V30 4956 H 473.836 -4.69875 -1.30647 0
M  V30 4957 H 472.841 -5.42707 0.880301 0
M  V30 4958 H 474.066 -6.71494 1.01352 0
M  V30 4959 H 472.012 -6.44662 -1.21439 0
M  V30 4960 H 471.929 -7.55917 0.111922 0
M  V30 4961 H 473.197 -7.72175 -1.06608 0
M  V30 4962 N 477.426 -0.562348 -1.47226 0
M  V30 4963 C 478.389 0.172056 -2.28553 0
M  V30 4964 C 479.389 0.837928 -1.37242 0
M  V30 4965 O 480.579 0.693001 -1.59822 0
M  V30 4966 C 477.711 1.25223 -3.17068 0
M  V30 4967 H 478.904 -0.542401 -2.94954 0
M  V30 4968 H 476.457 -0.319493 -1.53 0
M  V30 4969 H 477.192 1.99892 -2.55369 0
M  V30 4970 H 476.977 0.779515 -3.84273 0
M  V30 4971 H 478.467 1.76791 -3.78332 0
M  V30 4972 N 478.904 1.54736 -0.299062 0
M  V30 4973 C 479.836 2.20891 0.61153 0
M  V30 4974 C 480.849 1.20104 1.09904 0
M  V30 4975 O 482.038 1.46707 1.01683 0
M  V30 4976 C 479.138 2.84018 1.84897 0
M  V30 4977 C 478.311 4.10719 1.50428 0
M  V30 4978 C 477.37 4.57667 2.59667 0
M  V30 4979 O 476.396 5.2291 2.24842 0
M  V30 4980 N 477.598 4.29821 3.90172 0
M  V30 4981 H 480.363 2.99666 0.0452001 0
M  V30 4982 H 477.924 1.61446 -0.121178 0
M  V30 4983 H 479.916 3.1236 2.5732 0
M  V30 4984 H 478.486 2.09095 2.32375 0
M  V30 4985 H 477.706 3.89408 0.612781 0
M  V30 4986 H 478.994 4.93223 1.24934 0
M  V30 4987 H 478.392 3.77549 4.21276 0
M  V30 4988 H 476.949 4.62877 4.58899 0
M  V30 4989 N 480.382 0.0267497 1.57577 0
M  V30 4990 C 481.607 -0.666227 1.96408 0
M  V30 4991 C 482.032 -1.65004 0.903071 0
M  V30 4992 O 481.39 -1.80787 -0.136263 0
M  V30 4993 C 481.438 -1.35101 3.34335 0
M  V30 4994 O 480.542 -2.46623 3.30531 0
M  V30 4995 H 479.883 -0.175206 0.640468 0
M  V30 4996 H 482.413 0.0878977 2.04411 0
M  V30 4997 H 482.423 -1.70834 3.70513 0
M  V30 4998 H 481.098 -0.629844 4.11103 0
M  V30 4999 H 479.675 -2.13019 3.06068 0
M  V30 5000 N 481.861 -1.55662 -0.24637 0
M  V30 5001 C 483.109 -1.77168 -0.972411 0
M  V30 5002 C 483.43 -0.590827 -1.85834 0
M  V30 5003 O 482.7 0.393365 -1.9191 0
M  V30 5004 H 481.28 -0.653405 -0.362038 0
M  V30 5005 H 483.942 -1.93101 -0.264189 0
M  V30 5006 H 483.038 -2.68335 -1.59382 0
M  V30 5007 N 483.339 0.512053 -1.4905 0
M  V30 5008 C 484.755 0.84224 -1.35567 0
M  V30 5009 C 484.955 1.97878 -0.380319 0
M  V30 5010 O 484.011 2.51769 0.19201 0
M  V30 5011 C 485.324 1.19286 -2.76028 0
M  V30 5012 C 486.872 1.30171 -2.84648 0
M  V30 5013 C 487.347 1.68568 -4.25851 0
M  V30 5014 N 488.838 1.75638 -4.28609 0
M  V30 5015 C 489.573 2.06769 -5.34821 0
M  V30 5016 N 489.069 2.36201 -6.51292 0
M  V30 5017 N 490.862 2.07927 -5.22229 0
M  V30 5018 H 483.013 -0.237574 -2.11067 0
M  V30 5019 H 485.276 -0.0436747 -0.946993 0
M  V30 5020 H 484.982 0.431199 -3.49047 0
M  V30 5021 H 484.856 2.13889 -3.10695 0
M  V30 5022 H 487.243 2.05411 -2.11873 0
M  V30 5023 H 487.324 0.336457 -2.53578 0
M  V30 5024 H 486.968 0.938824 -4.99148 0
M  V30 5025 H 486.898 2.66174 -4.54377 0
M  V30 5026 H 489.389 1.55097 -3.44606 0
M  V30 5027 H 489.702 2.59112 -7.28066 0
M  V30 5028 H 488.047 2.33681 -6.54536 0
M  V30 5029 H 491.238 1.84403 -4.30248 0
M  V30 5030 H 491.411 2.31856 -6.05101 0
M  V30 5031 N 484.817 1.37938 0.762283 0
M  V30 5032 C 485.78 1.34279 1.85747 0
M  V30 5033 C 486.78 0.244969 1.58923 0
M  V30 5034 O 487.97 0.501365 1.66829 0
M  V30 5035 C 485.102 1.08833 3.23061 0
M  V30 5036 H 486.295 2.31705 1.90401 0
M  V30 5037 H 483.848 1.23105 0.963057 0
M  V30 5038 H 484.583 0.119767 3.24079 0
M  V30 5039 H 484.368 1.88306 3.43923 0
M  V30 5040 H 485.858 1.08946 4.03138 0
M  V30 5041 N 486.295 -0.989507 1.22664 0
M  V30 5042 C 487.572 -1.70326 0.961688 0
M  V30 5043 C 487.952 -2.04537 -0.522279 0
M  V30 5044 O 487.3 -1.73136 -1.49118 0
M  V30 5045 C 487.51 -2.95135 1.86269 0
M  V30 5046 C 488.858 -3.67842 2.12078 0
M  V30 5047 O 489.882 -3.0515 1.83745 0
M  V30 5048 O 488.741 -4.80644 2.60083 0
M  V30 5049 H 485.835 -0.743589 0.361946 0
M  V30 5050 H 488.381 -1.04555 1.33665 0
M  V30 5051 H 487.153 -2.66382 2.8663 0
M  V30 5052 H 486.776 -3.68645 1.48952 0
M  V30 5053 N 487.773 -1.03688 -1.18687 0
M  V30 5054 C 488.683 -0.634908 -2.25845 0
M  V30 5055 C 489.699 0.337065 -1.70704 0
M  V30 5056 O 490.875 0.192943 -2.00474 0
M  V30 5057 C 487.94 -0.000180054 -3.467 0
M  V30 5058 C 487.001 -1.02067 -4.1699 0
M  V30 5059 C 486.234 -0.41614 -5.32075 0
M  V30 5060 O 486.457 0.778712 -5.65059 0
M  V30 5061 O 485.391 -1.14296 -5.90948 0
M  V30 5062 H 489.217 -1.52757 -2.62486 0
M  V30 5063 H 486.802 -0.807533 -1.25695 0
M  V30 5064 H 488.684 0.353342 -4.19916 0
M  V30 5065 H 487.359 0.866367 -3.11891 0
M  V30 5066 H 486.266 -1.42592 -3.45859 0
M  V30 5067 H 487.599 -1.85786 -4.5579 0
M  V30 5068 N 489.251 1.34841 -0.815825 0
M  V30 5069 C 490.5 1.97755 -0.396976 0
M  V30 5070 C 490.813 1.65422 1.04379 0
M  V30 5071 O 492.019 2.21771 1.5662 0
M  V30 5072 C 490.475 3.53818 -0.658869 0
M  V30 5073 C 490.083 3.95051 -2.11278 0
M  V30 5074 C 491.827 4.23397 -0.305834 0
M  V30 5075 C 489.734 5.43997 -2.31994 0
M  V30 5076 H 488.664 0.739985 -0.1447 0
M  V30 5077 H 491.315 1.53781 -1.00118 0
M  V30 5078 H 489.697 3.95997 0.0154112 0
M  V30 5079 H 490.871 3.63998 -2.82564 0
M  V30 5080 H 489.186 3.38388 -2.42657 0
M  V30 5081 H 491.783 5.32899 -0.43854 0
M  V30 5082 H 492.126 4.09508 0.748952 0
M  V30 5083 H 492.659 3.8667 -0.934403 0
M  V30 5084 H 489.398 5.62865 -3.35952 0
M  V30 5085 H 488.918 5.76589 -1.65244 0
M  V30 5086 H 490.597 6.10584 -2.14001 0
M  V30 5087 N 490.729 0.570148 1.46925 0
M  V30 5088 C 491.677 -0.183181 2.31878 0
M  V30 5089 C 492.671 -0.896721 1.43719 0
M  V30 5090 O 493.877 -0.816536 1.60414 0
M  V30 5091 H 490.252 -0.077944 0.74795 0
M  V30 5092 H 492.223 0.552312 2.93244 0
M  V30 5093 C 490.972 -1.19172 3.2664 0
M  V30 5094 H 490.295 -0.652088 3.94446 0
M  V30 5095 H 491.735 -1.68946 3.88887 0
M  V30 5096 C 490.194 -2.24627 2.51086 0
M  V30 5097 O 490.724 -3.31773 2.26472 0
M  V30 5098 N 488.93 -1.98898 2.11867 0
M  V30 5099 H 488.477 -1.11777 2.32086 0
M  V30 5100 H 488.435 -2.6967 1.61634 0
M  V30 5101 N 492.207 -1.54576 0.307264 0
M  V30 5102 C 493.435 -2.04675 -0.302597 0
M  V30 5103 C 493.85 -1.18425 -1.47041 0
M  V30 5104 O 493.207 -0.211257 -1.81273 0
M  V30 5105 C 493.258 -3.53575 -0.752801 0
M  V30 5106 O 492.979 -4.36547 0.368536 0
M  V30 5107 C 494.48 -4.19699 -1.42717 0
M  V30 5108 H 491.7 -0.66786 -0.0648374 0
M  V30 5109 H 494.244 -1.99516 0.448716 0
M  V30 5110 H 492.399 -3.59074 -1.45412 0
M  V30 5111 H 492.813 -5.24497 0.0168937 0
M  V30 5112 H 494.287 -5.25388 -1.69327 0
M  V30 5113 H 494.764 -3.69815 -2.36925 0
M  V30 5114 H 495.37 -4.18293 -0.768856 0
M  V30 5115 N 493.685 -0.035106 -1.57561 0
M  V30 5116 C 494.925 0.646316 -1.93913 0
M  V30 5117 C 495.289 1.68947 -0.912185 0
M  V30 5118 O 496.49 2.42381 -1.1621 0
M  V30 5119 C 494.761 1.24136 -3.35149 0
M  V30 5120 S 496.32 1.94302 -3.93436 0
M  V30 5121 H 493.138 0.212642 -0.678457 0
M  V30 5122 H 495.74 -0.100203 -1.95243 0
M  V30 5123 H 494.444 0.46979 -4.07702 0
M  V30 5124 H 493.975 2.02505 -3.37276 0
M  V30 5125 H 495.99 3.22205 -3.77357 0
M  V30 5126 N 495.163 1.55791 0.238111 0
M  V30 5127 C 496.412 1.77234 0.962868 0
M  V30 5128 C 496.725 0.600661 1.86149 0
M  V30 5129 O 497.931 0.698315 2.62366 0
M  V30 5130 C 496.387 3.13808 1.76218 0
M  V30 5131 C 495.995 4.3865 0.910518 0
M  V30 5132 C 497.739 3.44585 2.47914 0
M  V30 5133 C 495.646 5.66252 1.70623 0
M  V30 5134 H 494.576 0.660731 0.36325 0
M  V30 5135 H 497.227 1.8221 0.217242 0
M  V30 5136 H 495.609 3.02963 2.55009 0
M  V30 5137 H 496.783 4.60507 0.164316 0
M  V30 5138 H 495.098 4.15271 0.30647 0
M  V30 5139 H 497.695 4.3714 3.07917 0
M  V30 5140 H 498.038 2.66314 3.19973 0
M  V30 5141 H 498.571 3.56685 1.76127 0
M  V30 5142 H 495.31 6.47369 1.02923 0
M  V30 5143 H 494.83 5.48483 2.42748 0
M  V30 5144 H 496.509 6.05829 2.27114 0
M  V30 5145 N 496.642 -0.504142 1.49319 0
M  V30 5146 C 497.89 -1.25598 1.58334 0
M  V30 5147 C 498.211 -1.93114 0.270538 0
M  V30 5148 O 497.481 -1.82585 -0.709891 0
M  V30 5149 H 496.061 -0.466571 0.58337 0
M  V30 5150 H 498.723 -0.584547 1.85928 0
M  V30 5151 H 497.819 -2.02159 2.37778 0
M  V30 5152 N 498.12 -1.38341 -0.754957 0
M  V30 5153 C 499.36 -1.35888 -1.52689 0
M  V30 5154 C 499.724 0.0513682 -1.91931 0
M  V30 5155 O 500.925 0.200761 -2.68049 0
M  V30 5156 C 499.196 -2.28666 -2.74676 0
M  V30 5157 S 500.755 -2.4422 -3.64558 0
M  V30 5158 H 497.573 -0.482165 -0.522531 0
M  V30 5159 H 500.175 -1.74253 -0.886358 0
M  V30 5160 H 498.879 -3.30023 -2.43953 0
M  V30 5161 H 498.41 -1.91445 -3.43675 0
M  V30 5162 H 500.425 -1.66525 -4.67423 0
M  V30 5163 N 499.598 0.982988 -1.23187 0
M  V30 5164 C 500.546 2.09616 -1.00817 0
M  V30 5165 C 501.54 1.6932 0.0519995 0
M  V30 5166 O 502.746 1.79715 -0.101284 0
M  V30 5167 H 499.121 0.685628 -0.308899 0
M  V30 5168 H 501.092 2.25652 -1.95253 0
M  V30 5169 C 499.841 3.42249 -0.613243 0
M  V30 5170 H 499.164 3.73705 -1.42073 0
M  V30 5171 H 500.604 4.21086 -0.496208 0
M  V30 5172 C 499.063 3.30002 0.678233 0
M  V30 5173 O 499.593 3.6263 1.72807 0
M  V30 5174 N 497.799 2.83164 0.653165 0
M  V30 5175 H 497.346 2.56811 -0.201492 0
M  V30 5176 H 497.304 2.75352 1.51752 0
M  V30 5177 N 501.076 1.04316 1.18135 0
M  V30 5178 C 502.008 0.594444 2.21357 0
M  V30 5179 C 503.021 -0.337215 1.59269 0
M  V30 5180 O 504.21 -0.131337 1.78016 0
M  V30 5181 C 501.31 -0.151251 3.38562 0
M  V30 5182 C 500.483 0.788907 4.30227 0
M  V30 5183 C 499.542 0.0860572 5.2613 0
M  V30 5184 O 498.568 0.717302 5.64662 0
M  V30 5185 N 499.77 -1.17969 5.68387 0
M  V30 5186 H 502.535 1.48227 2.60478 0
M  V30 5187 H 500.096 0.92396 1.32946 0
M  V30 5188 H 502.088 -0.631352 3.99745 0
M  V30 5189 H 500.658 -0.940639 2.98112 0
M  V30 5190 H 499.878 1.44882 3.6661 0
M  V30 5191 H 501.166 1.42738 4.88368 0
M  V30 5192 H 500.564 -1.71302 5.3914 0
M  V30 5193 H 499.121 -1.60402 6.31755 0
M  V30 5194 N 502.554 -1.34406 0.822964 0
M  V30 5195 C 503.517 -2.2783 0.250271 0
M  V30 5196 C 504.517 -1.50288 -0.571854 0
M  V30 5197 O 505.707 -1.69825 -0.387952 0
M  V30 5198 C 502.839 -3.34663 -0.649137 0
M  V30 5199 H 504.032 -2.79992 1.07444 0
M  V30 5200 H 501.585 -1.44539 0.594829 0
M  V30 5201 H 502.32 -2.87714 -1.49637 0
M  V30 5202 H 502.105 -3.92052 -0.0611199 0
M  V30 5203 H 503.595 -4.04349 -1.04363 0
M  V30 5204 N 504.032 -0.577932 -1.46621 0
M  V30 5205 C 505.272 -0.0643097 -2.04299 0
M  V30 5206 C 505.636 1.26967 -1.44026 0
M  V30 5207 O 506.837 1.87224 -1.92875 0
M  V30 5208 C 505.108 0.00547588 -3.574 0
M  V30 5209 S 506.667 0.462216 -4.36359 0
M  V30 5210 H 503.485 -0.0351573 -0.71013 0
M  V30 5211 H 506.087 -0.76935 -1.79725 0
M  V30 5212 H 504.791 -0.969423 -3.98786 0
M  V30 5213 H 504.322 0.733435 -3.86503 0
M  V30 5214 H 506.337 1.71791 -4.65513 0
M  V30 5215 N 505.51 1.54411 -0.315457 0
M  V30 5216 C 506.44 2.27002 0.547039 0
M  V30 5217 C 507.421 1.27492 1.12605 0
M  V30 5218 O 508.606 1.5629 1.15269 0
M  V30 5219 C 505.736 3.02171 1.71201 0
M  V30 5220 C 504.69 4.0895 1.26268 0
M  V30 5221 C 504.016 4.71915 2.51396 0
M  V30 5222 C 505.316 5.20891 0.383419 0
M  V30 5223 H 507.01 2.99343 -0.0584517 0
M  V30 5224 H 504.556 1.4397 -0.0295527 0
M  V30 5225 H 506.509 3.51681 2.32161 0
M  V30 5226 H 505.233 2.27433 2.34397 0
M  V30 5227 H 503.892 3.60312 0.676062 0
M  V30 5228 H 503.54 3.93801 3.12937 0
M  V30 5229 H 503.24 5.44039 2.22026 0
M  V30 5230 H 504.764 5.24195 3.13133 0
M  V30 5231 H 506.178 5.66206 0.899082 0
M  V30 5232 H 504.575 5.99821 0.182857 0
M  V30 5233 H 505.645 4.81324 -0.587821 0
M  V30 5234 N 506.988 0.0434614 1.5754 0
M  V30 5235 C 508.265 -0.671479 1.83713 0
M  V30 5236 C 508.645 -1.89495 0.930315 0
M  V30 5237 O 507.993 -2.28498 -0.0105639 0
M  V30 5238 C 508.203 -1.0361 3.33266 0
M  V30 5239 C 509.551 -1.42167 4.00092 0
M  V30 5240 O 510.575 -1.12866 3.37846 0
M  V30 5241 O 509.434 -1.96817 5.09829 0
M  V30 5242 H 506.528 -0.330726 0.75799 0
M  V30 5243 H 509.074 0.0722373 1.69546 0
M  V30 5244 H 507.846 -0.165938 3.90948 0
M  V30 5245 H 507.469 -1.83751 3.52592 0
M  V30 5246 N 508.466 -1.55915 -0.229846 0
M  V30 5247 C 509.398 -1.88209 -1.30805 0
M  V30 5248 C 510.411 -0.769672 -1.43457 0
M  V30 5249 O 511.6 -1.04792 -1.44502 0
M  V30 5250 C 508.7 -2.06829 -2.68468 0
M  V30 5251 C 507.873 -3.37798 -2.77869 0
M  V30 5252 C 506.932 -3.45952 -3.96489 0
M  V30 5253 O 505.958 -4.19043 -3.85216 0
M  V30 5254 N 507.16 -2.76488 -5.10426 0
M  V30 5255 H 509.925 -2.81286 -1.03431 0
M  V30 5256 H 507.486 -1.5636 -0.41991 0
M  V30 5257 H 509.478 -2.09608 -3.46189 0
M  V30 5258 H 508.048 -1.20416 -2.88477 0
M  V30 5259 H 507.268 -3.4719 -1.86689 0
M  V30 5260 H 508.556 -4.24091 -2.81113 0
M  V30 5261 H 507.954 -2.16868 -5.2248 0
M  V30 5262 H 506.511 -2.84938 -5.8622 0
M  V30 5263 N 509.944 0.496216 -1.49584 0
M  V30 5264 C 511.193 1.24668 -1.58558 0
M  V30 5265 C 511.506 1.9359 -0.279703 0
M  V30 5266 O 512.712 2.70365 -0.248048 0
M  V30 5267 C 511.168 2.26388 -2.79779 0
M  V30 5268 C 510.776 1.63384 -4.17145 0
M  V30 5269 C 512.52 3.02233 -2.98086 0
M  V30 5270 C 510.427 2.63243 -5.29582 0
M  V30 5271 H 509.357 0.468995 -0.590389 0
M  V30 5272 H 512.008 0.519985 -1.75978 0
M  V30 5273 H 510.39 3.02241 -2.55863 0
M  V30 5274 H 511.564 0.93491 -4.51216 0
M  V30 5275 H 509.879 0.999121 -4.04236 0
M  V30 5276 H 512.476 3.76919 -3.79257 0
M  V30 5277 H 512.819 3.60132 -2.08831 0
M  V30 5278 H 513.352 2.33495 -3.22063 0
M  V30 5279 H 510.091 2.10119 -6.20911 0
M  V30 5280 H 509.611 3.31363 -4.99959 0
M  V30 5281 H 511.29 3.25575 -5.59115 0
M  V30 5282 N 511.423 1.38739 0.74761 0
M  V30 5283 C 512.67 1.35274 1.50689 0
M  V30 5284 C 512.998 -0.0553359 1.94421 0
M  V30 5285 O 512.253 -1.03365 1.66175 0
M  V30 5286 C 512.552 2.25992 2.7688 0
M  V30 5287 C 512.218 3.73854 2.5208 0
M  V30 5288 C 510.88 4.14145 2.45025 0
M  V30 5289 C 513.232 4.67427 2.30568 0
M  V30 5290 C 510.56 5.4609 2.14483 0
M  V30 5291 C 512.912 5.99635 2.01545 0
M  V30 5292 C 511.576 6.39004 1.92951 0
M  V30 5293 H 510.846 0.495003 0.55141 0
M  V30 5294 H 513.493 1.71145 0.859158 0
M  V30 5295 H 511.798 1.83196 3.46333 0
M  V30 5296 H 513.495 2.20611 3.34861 0
M  V30 5297 H 510.085 3.41913 2.58444 0
M  V30 5298 H 514.269 4.3714 2.34994 0
M  V30 5299 H 509.525 5.75528 2.06342 0
M  V30 5300 H 513.699 6.71678 1.83906 0
M  V30 5301 H 511.326 7.41165 1.6905 0
M  V30 5302 N 512.901 -0.976442 1.23707 0
M  V30 5303 C 514.147 -1.72081 1.07312 0
M  V30 5304 C 514.48 -1.90275 -0.388476 0
M  V30 5305 O 513.755 -1.4579 -1.28746 0
M  V30 5306 C 514.038 -3.11675 1.80363 0
M  V30 5307 C 513.891 -3.01027 3.3422 0
M  V30 5308 C 515.21 -4.1117 1.5693 0
M  V30 5309 H 512.329 -0.624583 0.391236 0
M  V30 5310 H 514.971 -1.13649 1.52263 0
M  V30 5311 H 513.121 -3.61559 1.42153 0
M  V30 5312 H 514.793 -2.58637 3.81975 0
M  V30 5313 H 513.036 -2.3744 3.63049 0
M  V30 5314 H 513.707 -3.9988 3.80525 0
M  V30 5315 H 516.183 -3.7011 1.90151 0
M  V30 5316 H 515.059 -5.06928 2.10513 0
M  V30 5317 H 515.32 -4.392 0.505548 0
M  V30 5318 N 514.379 -1.04941 -1.1758 0
M  V30 5319 C 515.627 -0.756492 -1.87408 0
M  V30 5320 C 515.948 0.718478 -1.81281 0
M  V30 5321 O 515.218 1.519 -1.23706 0
M  V30 5322 H 513.798 -0.276841 -0.693807 0
M  V30 5323 H 516.46 -1.32803 -1.42652 0
M  V30 5324 H 515.556 -1.06918 -2.93215 0
M  V30 5325 N 515.857 1.33968 -0.830081 0
M  V30 5326 C 516.804 2.29387 -0.255008 0
M  V30 5327 C 517.774 1.53923 0.624243 0
M  V30 5328 O 518.959 1.82262 0.564372 0
M  V30 5329 C 516.099 3.4034 0.571209 0
M  V30 5330 C 515.212 4.30729 -0.331083 0
M  V30 5331 C 514.347 5.2879 0.505389 0
M  V30 5332 C 513.386 6.10819 -0.395843 0
M  V30 5333 N 512.523 7.00948 0.401979 0
M  V30 5334 H 517.363 2.77972 -1.07404 0
M  V30 5335 H 514.9 1.36785 -0.541133 0
M  V30 5336 H 516.858 4.03361 1.06562 0
M  V30 5337 H 515.488 2.9297 1.35529 0
M  V30 5338 H 514.54 3.68507 -0.943759 0
M  V30 5339 H 515.852 4.88181 -1.02377 0
M  V30 5340 H 515.006 5.97297 1.06399 0
M  V30 5341 H 513.745 4.71894 1.23155 0
M  V30 5342 H 512.75 5.41238 -0.966529 0
M  V30 5343 H 513.975 6.69797 -1.12023 0
M  V30 5344 H 511.921 6.46512 1.11168 0
M  V30 5345 H 511.838 7.55643 -0.232167 0
M  V30 5346 H 513.106 7.73774 0.943102 0
M  V30 5347 N 517.335 0.585699 1.46312 0
M  V30 5348 C 518.581 0.0725284 2.0267 0
M  V30 5349 C 518.914 -1.28523 1.45586 0
M  V30 5350 O 518.189 -1.84283 0.622101 0
M  V30 5351 C 518.472 0.0099788 3.60099 0
M  V30 5352 C 518.325 1.39685 4.27561 0
M  V30 5353 C 519.644 -0.689117 4.34671 0
M  V30 5354 H 516.763 0.0278307 0.736474 0
M  V30 5355 H 519.405 0.753472 1.74421 0
M  V30 5356 H 517.555 -0.56992 3.84297 0
M  V30 5357 H 519.227 2.02215 4.14617 0
M  V30 5358 H 517.47 1.96374 3.86807 0
M  V30 5359 H 518.141 1.30553 5.36339 0
M  V30 5360 H 520.617 -0.196446 4.15636 0
M  V30 5361 H 519.493 -0.701921 5.44393 0
M  V30 5362 H 519.754 -1.75101 4.05946 0
M  V30 5363 N 518.813 -1.54241 0.323641 0
M  V30 5364 C 520.041 -2.04985 -0.280871 0
M  V30 5365 C 520.456 -1.19978 -1.45777 0
M  V30 5366 O 519.813 -0.230471 -1.81039 0
M  V30 5367 C 519.864 -3.54353 -0.715258 0
M  V30 5368 O 519.585 -4.36132 0.414817 0
M  V30 5369 C 521.086 -4.21189 -1.38257 0
M  V30 5370 H 518.306 -0.66851 -0.0577502 0
M  V30 5371 H 520.85 -1.99029 0.469852 0
M  V30 5372 H 519.005 -3.60596 -1.41596 0
M  V30 5373 H 519.419 -5.2445 0.0725227 0
M  V30 5374 H 520.893 -5.27154 -1.63745 0
M  V30 5375 H 521.37 -3.72307 -2.32989 0
M  V30 5376 H 521.976 -4.19085 -0.724447 0
M  V30 5377 N 520.291 -0.0518155 -1.57515 0
M  V30 5378 C 521.516 0.634896 -1.97443 0
M  V30 5379 C 521.941 1.63546 -0.929207 0
M  V30 5380 O 521.299 1.80981 0.107484 0
M  V30 5381 C 521.347 1.29765 -3.36442 0
M  V30 5382 O 520.451 2.41333 -3.34413 0
M  V30 5383 H 519.792 0.164994 -0.643174 0
M  V30 5384 H 522.322 -0.120407 -2.04245 0
M  V30 5385 H 522.332 1.64918 -3.73184 0
M  V30 5386 H 521.007 0.564361 -4.12053 0
M  V30 5387 H 519.584 2.08122 -3.09418 0
M  V30 5388 N 521.769 1.56035 0.221574 0
M  V30 5389 C 523.009 1.80822 0.953038 0
M  V30 5390 C 523.373 0.625316 1.81532 0
M  V30 5391 O 524.574 0.752491 2.58052 0
M  V30 5392 C 522.845 3.10503 1.76983 0
M  V30 5393 S 524.404 3.56604 2.55693 0
M  V30 5394 H 521.222 0.634849 0.320137 0
M  V30 5395 H 523.824 1.94274 0.218619 0
M  V30 5396 H 522.528 3.94636 1.12651 0
M  V30 5397 H 522.059 2.99858 2.54655 0
M  V30 5398 H 524.074 3.1994 3.79279 0
M  V30 5399 N 523.247 -0.488276 1.49845 0
M  V30 5400 C 524.177 -1.59675 1.70371 0
M  V30 5401 C 525.158 -1.60878 0.552473 0
M  V30 5402 O 526.343 -1.77417 0.78973 0
M  V30 5403 C 523.473 -2.98098 1.782 0
M  V30 5404 C 522.427 -3.11761 2.93239 0
M  V30 5405 C 521.753 -4.51661 2.86193 0
M  V30 5406 C 523.053 -2.90589 4.33999 0
M  V30 5407 H 524.747 -1.42752 2.63177 0
M  V30 5408 H 522.293 -0.685317 1.26647 0
M  V30 5409 H 524.246 -3.75555 1.91144 0
M  V30 5410 H 522.97 -3.16138 0.820018 0
M  V30 5411 H 521.629 -2.36732 2.79917 0
M  V30 5412 H 521.277 -4.66595 1.87877 0
M  V30 5413 H 520.977 -4.61742 3.63412 0
M  V30 5414 H 522.501 -5.31162 3.01163 0
M  V30 5415 H 523.915 -3.57807 4.47936 0
M  V30 5416 H 522.312 -3.1213 5.12538 0
M  V30 5417 H 523.382 -1.86595 4.4756 0
M  V30 5418 N 524.725 -1.39134 -0.740242 0
M  V30 5419 C 525.971 -1.36273 -1.50192 0
M  V30 5420 C 526.304 0.0430136 -1.94152 0
M  V30 5421 O 525.579 1.00691 -1.66408 0
M  V30 5422 C 525.862 -2.33041 -2.74525 0
M  V30 5423 C 525.715 -3.82535 -2.36617 0
M  V30 5424 C 527.034 -2.27723 -3.76604 0
M  V30 5425 H 524.153 -0.496323 -0.544823 0
M  V30 5426 H 526.795 -1.70085 -0.846815 0
M  V30 5427 H 524.945 -2.04337 -3.30422 0
M  V30 5428 H 526.617 -4.21967 -1.86391 0
M  V30 5429 H 524.86 -3.99565 -1.68909 0
M  V30 5430 H 525.531 -4.45723 -3.2563 0
M  V30 5431 H 528.007 -2.53091 -3.30279 0
M  V30 5432 H 526.883 -2.97519 -4.61274 0
M  V30 5433 H 527.144 -1.28049 -4.2315 0
M  V30 5434 N 526.204 0.969867 -1.24223 0
M  V30 5435 C 527.152 2.08535 -1.03034 0
M  V30 5436 C 528.146 1.69366 0.0340379 0
M  V30 5437 O 529.352 1.79597 -0.12034 0
M  V30 5438 H 525.727 0.682313 -0.316154 0
M  V30 5439 H 527.698 2.23569 -1.97635 0
M  V30 5440 C 526.447 3.4158 -0.649509 0
M  V30 5441 H 525.77 3.72177 -1.46028 0
M  V30 5442 H 527.21 4.20536 -0.540841 0
M  V30 5443 C 525.669 3.30703 0.643194 0
M  V30 5444 O 526.199 3.64443 1.68951 0
M  V30 5445 N 524.405 2.83841 0.623095 0
M  V30 5446 H 523.952 2.56583 -0.228719 0
M  V30 5447 H 523.91 2.76946 1.48823 0
M  V30 5448 N 527.682 1.05563 1.17022 0
M  V30 5449 C 529.093 0.793475 1.69 0
M  V30 5450 C 529.444 -0.683882 1.83895 0
M  V30 5451 O 528.569 -1.53116 1.5292 0
M  V30 5452 C 529.164 1.43376 3.06967 0
M  V30 5453 C 527.723 1.21956 3.56095 0
M  V30 5454 C 526.87 1.51494 2.3226 0
M  V30 5455 H 529.821 1.22008 1.01487 0
M  V30 5456 H 529.842 0.845068 3.70997 0
M  V30 5457 H 529.354 2.50899 2.96093 0
M  V30 5458 H 527.455 0.163749 3.7224 0
M  V30 5459 H 527.568 1.92713 4.38633 0
M  V30 5460 H 525.932 0.935175 2.3691 0
M  V30 5461 H 526.715 2.60159 2.23992 0
M  V30 5462 N 529.16 -1.33526 0.837174 0
M  V30 5463 C 530.576 -1.50727 0.524743 0
M  V30 5464 C 530.776 -1.77792 -0.948279 0
M  V30 5465 O 529.832 -1.83719 -1.73216 0
M  V30 5466 C 531.145 -2.66299 1.39661 0
M  V30 5467 C 532.693 -2.80183 1.39521 0
M  V30 5468 C 533.168 -3.98815 2.25189 0
M  V30 5469 N 534.659 -4.06047 2.2289 0
M  V30 5470 C 535.394 -4.97032 2.85915 0
M  V30 5471 N 534.89 -5.93143 3.57985 0
M  V30 5472 N 536.683 -4.90015 2.75394 0
M  V30 5473 H 528.834 -1.1422 1.79074 0
M  V30 5474 H 531.097 -0.561399 0.763894 0
M  V30 5475 H 530.803 -2.52974 2.4433 0
M  V30 5476 H 530.677 -3.61663 1.07145 0
M  V30 5477 H 533.064 -2.92942 0.356253 0
M  V30 5478 H 533.145 -1.85586 1.76044 0
M  V30 5479 H 532.789 -3.86817 3.29143 0
M  V30 5480 H 532.719 -4.92654 1.86009 0
M  V30 5481 H 535.21 -3.37262 1.70478 0
M  V30 5482 H 535.523 -6.59227 4.03286 0
M  V30 5483 H 533.868 -5.93223 3.62093 0
M  V30 5484 H 537.059 -4.13894 2.18654 0
M  V30 5485 H 537.232 -5.60724 3.24796 0
M  V30 5486 N 530.638 -0.59345 -1.46 0
M  V30 5487 C 531.601 0.123538 -2.28867 0
M  V30 5488 C 532.601 0.808628 -1.38989 0
M  V30 5489 O 533.791 0.658945 -1.61256 0
M  V30 5490 C 530.923 1.1847 -3.19653 0
M  V30 5491 H 532.116 -0.604843 -2.93737 0
M  V30 5492 H 529.669 -0.351875 -1.52288 0
M  V30 5493 H 530.404 1.94431 -2.59552 0
M  V30 5494 H 530.189 0.69783 -3.8584 0
M  V30 5495 H 531.679 1.68726 -3.81997 0
M  V30 5496 N 532.116 1.54067 -0.331816 0
M  V30 5497 C 533.356 2.02625 0.26876 0
M  V30 5498 C 533.72 1.21462 1.48697 0
M  V30 5499 O 534.921 1.59863 2.16096 0
M  V30 5500 C 533.192 3.52554 0.586577 0
M  V30 5501 S 534.751 4.23035 1.16563 0
M  V30 5502 H 531.569 0.706395 0.0807862 0
M  V30 5503 H 534.171 1.89844 -0.466856 0
M  V30 5504 H 532.875 4.09242 -0.308046 0
M  V30 5505 H 532.406 3.69432 1.35217 0
M  V30 5506 H 534.421 4.31382 2.45203 0
M  V30 5507 N 533.594 0.0601682 1.57485 0
M  V30 5508 C 534.544 -0.920969 2.08572 0
M  V30 5509 C 535.528 -1.26617 0.992827 0
M  V30 5510 O 536.72 -1.24708 1.25606 0
M  V30 5511 C 533.849 -2.19267 2.64153 0
M  V30 5512 C 532.935 -1.87447 3.80427 0
M  V30 5513 N 533.326 -1.26025 4.89848 0
M  V30 5514 C 531.624 -2.17265 3.89502 0
M  V30 5515 C 532.325 -1.12036 5.70809 0
M  V30 5516 N 531.301 -1.62624 5.18705 0
M  V30 5517 H 535.103 -0.441561 2.90564 0
M  V30 5518 H 532.617 -0.144043 1.6176 0
M  V30 5519 H 534.614 -2.90462 2.99061 0
M  V30 5520 H 533.274 -2.67806 1.83603 0
M  V30 5521 H 534.285 -0.931336 5.09457 0
M  V30 5522 H 530.962 -2.68262 3.19909 0
M  V30 5523 H 532.352 -0.642783 6.68818 0
M  V30 5524 N 535.072 -1.5615 -0.213296 0
M  V30 5525 C 535.982 -1.96265 -1.28519 0
M  V30 5526 C 536.998 -0.86765 -1.50824 0
M  V30 5527 O 538.174 -1.17191 -1.63793 0
M  V30 5528 C 535.239 -2.27836 -2.61327 0
M  V30 5529 C 534.3 -3.50949 -2.47252 0
M  V30 5530 C 533.533 -3.81004 -3.73727 0
M  V30 5531 O 533.756 -3.12612 -4.77106 0
M  V30 5532 O 532.69 -4.74477 -3.70344 0
M  V30 5533 H 536.516 -2.87631 -0.974795 0
M  V30 5534 H 534.101 -1.43467 -0.416832 0
M  V30 5535 H 535.983 -2.49299 -3.39747 0
M  V30 5536 H 534.658 -1.39643 -2.9203 0
M  V30 5537 H 533.565 -3.34754 -1.67004 0
M  V30 5538 H 534.898 -4.39551 -2.21486 0
M  V30 5539 N 536.55 0.480323 -1.50102 0
M  V30 5540 C 537.778 1.25657 -1.64371 0
M  V30 5541 C 538.193 1.86011 -0.323316 0
M  V30 5542 O 537.55 1.68803 0.693682 0
M  V30 5543 C 537.601 2.37197 -2.728 0
M  V30 5544 O 537.322 1.7932 -3.9972 0
M  V30 5545 C 538.823 3.2823 -2.9796 0
M  V30 5546 H 536.043 0.380369 -0.552775 0
M  V30 5547 H 538.587 0.574379 -1.96268 0
M  V30 5548 H 536.742 3.01208 -2.43623 0
M  V30 5549 H 537.156 2.52701 -4.59611 0
M  V30 5550 H 538.63 4.02725 -3.77513 0
M  V30 5551 H 539.107 3.86462 -2.08671 0
M  V30 5552 H 539.713 2.69964 -3.28633 0
M  V30 5553 N 538.028 1.39524 0.732853 0
M  V30 5554 C 538.975 1.38416 1.84688 0
M  V30 5555 C 539.945 0.243539 1.64305 0
M  V30 5556 O 541.13 0.438979 1.85681 0
M  V30 5557 C 538.27 1.23555 3.22224 0
M  V30 5558 C 537.383 2.47179 3.54298 0
M  V30 5559 C 536.518 2.2489 4.81246 0
M  V30 5560 C 535.557 3.44178 5.0617 0
M  V30 5561 N 534.694 3.21192 6.24323 0
M  V30 5562 H 539.534 2.33645 1.84971 0
M  V30 5563 H 537.071 1.16059 0.903804 0
M  V30 5564 H 539.029 1.12949 4.0162 0
M  V30 5565 H 537.659 0.31954 3.21215 0
M  V30 5566 H 536.711 2.68379 2.69587 0
M  V30 5567 H 538.023 3.36022 3.68633 0
M  V30 5568 H 537.177 2.11538 5.68627 0
M  V30 5569 H 535.916 1.33443 4.69089 0
M  V30 5570 H 534.921 3.58025 4.17251 0
M  V30 5571 H 536.146 4.36528 5.20212 0
M  V30 5572 H 534.092 2.32413 6.1345 0
M  V30 5573 H 534.009 4.03594 6.39256 0
M  V30 5574 H 535.277 3.1154 7.14537 0
M  V30 5575 N 539.506 -0.963266 1.24736 0
M  V30 5576 C 540.439 -2.05758 0.986852 0
M  V30 5577 C 541.417 -1.62398 -0.0809272 0
M  V30 5578 O 542.601 -1.88414 0.0569347 0
M  V30 5579 C 539.728 -3.35135 0.490095 0
M  V30 5580 C 538.774 -3.97451 1.54709 0
M  V30 5581 S 539.607 -4.34519 3.12976 0
M  V30 5582 C 540.763 -5.67026 2.65014 0
M  V30 5583 H 540.996 -2.27539 1.91346 0
M  V30 5584 H 538.529 -1.10176 1.08169 0
M  V30 5585 H 540.487 -4.09962 0.21012 0
M  V30 5586 H 539.148 -3.11335 -0.415873 0
M  V30 5587 H 538.341 -4.90704 1.15003 0
M  V30 5588 H 537.943 -3.29071 1.77731 0
M  V30 5589 H 540.235 -6.44748 2.08102 0
M  V30 5590 H 541.178 -6.11594 3.56873 0
M  V30 5591 H 541.586 -5.25847 2.05294 0
M  V30 5592 N 540.985 -1.06182 -1.16461 0
M  V30 5593 C 542.396 -0.802426 -1.68576 0
M  V30 5594 C 542.747 0.67412 -1.84255 0
M  V30 5595 O 541.872 1.52303 -1.5373 0
M  V30 5596 C 542.467 -1.45002 -3.06202 0
M  V30 5597 C 541.026 -1.23843 -3.55443 0
M  V30 5598 C 540.173 -1.52724 -2.31454 0
M  V30 5599 H 543.124 -1.22545 -1.00839 0
M  V30 5600 H 543.145 -0.864731 -3.70544 0
M  V30 5601 H 542.657 -2.52466 -2.94759 0
M  V30 5602 H 540.758 -0.183487 -3.72148 0
M  V30 5603 H 540.871 -1.95036 -4.37604 0
M  V30 5604 H 539.235 -0.947726 -2.36411 0
M  V30 5605 H 540.018 -2.61343 -2.22609 0
M  V30 5606 N 542.463 1.3308 -0.844243 0
M  V30 5607 C 543.712 1.96868 -0.438833 0
M  V30 5608 C 544.025 1.67599 1.00846 0
M  V30 5609 O 545.231 2.25043 1.51881 0
M  V30 5610 C 543.687 3.5234 -0.73377 0
M  V30 5611 C 543.295 3.90481 -2.1961 0
M  V30 5612 C 545.039 4.22653 -0.395574 0
M  V30 5613 C 542.946 5.38954 -2.43481 0
M  V30 5614 H 541.876 0.736749 -0.160364 0
M  V30 5615 H 544.527 1.51623 -1.03358 0
M  V30 5616 H 542.909 3.95941 -0.068589 0
M  V30 5617 H 544.083 3.57922 -2.90221 0
M  V30 5618 H 542.398 3.33165 -2.4978 0
M  V30 5619 H 544.995 5.31848 -0.551477 0
M  V30 5620 H 545.338 4.11004 0.661921 0
M  V30 5621 H 545.871 3.84601 -1.01621 0
M  V30 5622 H 542.61 5.55612 -3.47816 0
M  V30 5623 H 542.13 5.72954 -1.77437 0
M  V30 5624 H 543.809 6.05907 -2.26905 0
M  V30 5625 N 543.941 0.601185 1.45683 0
M  V30 5626 C 544.871 -0.108824 2.33246 0
M  V30 5627 C 545.852 -0.865223 1.46451 0
M  V30 5628 O 547.037 -0.83704 1.75235 0
M  V30 5629 C 544.167 -1.11101 3.2905 0
M  V30 5630 C 543.121 -0.468244 4.25431 0
M  V30 5631 C 542.447 -1.57822 5.10878 0
M  V30 5632 C 543.747 0.606469 5.18767 0
M  V30 5633 H 545.441 0.622306 2.92861 0
M  V30 5634 H 542.987 0.300714 1.40825 0
M  V30 5635 H 544.94 -1.61622 3.89174 0
M  V30 5636 H 543.664 -1.87265 2.67581 0
M  V30 5637 H 542.323 0.0160484 3.66596 0
M  V30 5638 H 541.971 -2.32998 4.45781 0
M  V30 5639 H 541.671 -1.15369 5.76163 0
M  V30 5640 H 543.195 -2.08583 5.73869 0
M  V30 5641 H 544.609 0.185589 5.73 0
M  V30 5642 H 543.006 0.952381 5.92494 0
M  V30 5643 H 544.076 1.48559 4.61582 0
M  V30 5644 N 545.419 -1.53889 0.339982 0
M  V30 5645 C 546.83 -1.86139 -0.144671 0
M  V30 5646 C 547.181 -1.2613 -1.50285 0
M  V30 5647 O 546.306 -0.573515 -2.08662 0
M  V30 5648 C 546.901 -3.37728 -0.269285 0
M  V30 5649 C 545.46 -3.69868 -0.698168 0
M  V30 5650 C 544.607 -2.76777 0.170249 0
M  V30 5651 H 547.558 -1.48503 0.559704 0
M  V30 5652 H 547.579 -3.64331 -1.0974 0
M  V30 5653 H 547.091 -3.81375 0.719366 0
M  V30 5654 H 545.192 -3.31764 -1.69597 0
M  V30 5655 H 545.305 -4.76582 -0.490533 0
M  V30 5656 H 543.669 -2.52188 -0.356844 0
M  V30 5657 H 544.452 -3.23253 1.15597 0
M  V30 5658 N 546.897 -0.0685191 -1.57451 0
M  V30 5659 C 547.86 0.885173 -2.11417 0
M  V30 5660 C 548.86 1.22853 -1.03748 0
M  V30 5661 O 550.05 1.16235 -1.2975 0
M  V30 5662 C 547.182 2.18964 -2.61281 0
M  V30 5663 H 548.375 0.417034 -2.96986 0
M  V30 5664 H 545.928 0.18014 -1.55258 0
M  V30 5665 H 546.663 2.70321 -1.79156 0
M  V30 5666 H 546.448 1.9534 -3.39977 0
M  V30 5667 H 547.938 2.87242 -3.0312 0
M  V30 5668 N 548.375 1.56261 0.205012 0
M  V30 5669 C 549.621 1.80306 0.9283 0
M  V30 5670 C 549.954 0.640932 1.83319 0
M  V30 5671 O 549.229 -0.359032 1.91158 0
M  V30 5672 C 549.512 3.14547 1.75306 0
M  V30 5673 C 549.365 4.41236 0.873562 0
M  V30 5674 C 550.684 3.45382 2.72762 0
M  V30 5675 H 547.803 0.655929 0.336044 0
M  V30 5676 H 550.445 1.88984 0.196211 0
M  V30 5677 H 548.595 3.0728 2.37721 0
M  V30 5678 H 550.267 4.60539 0.264887 0
M  V30 5679 H 548.51 4.33427 0.179773 0
M  V30 5680 H 549.181 5.31639 1.48541 0
M  V30 5681 H 551.657 3.52884 2.20481 0
M  V30 5682 H 550.533 4.40449 3.2756 0
M  V30 5683 H 550.794 2.68377 3.51321 0
M  V30 5684 N 549.853 -0.472356 1.50355 0
M  V30 5685 C 550.785 -1.58795 1.65278 0
M  V30 5686 C 551.798 -1.53782 0.534313 0
M  V30 5687 O 552.987 -1.59193 0.807446 0
M  V30 5688 C 550.087 -2.97672 1.62001 0
M  V30 5689 C 549.26 -3.27568 2.89859 0
M  V30 5690 C 548.319 -4.45993 2.79242 0
M  V30 5691 O 547.345 -4.46364 3.53197 0
M  V30 5692 N 548.547 -5.47578 1.92713 0
M  V30 5693 H 551.312 -1.46411 2.61503 0
M  V30 5694 H 548.873 -0.660751 1.47803 0
M  V30 5695 H 550.865 -3.74862 1.52513 0
M  V30 5696 H 549.435 -3.03832 0.735159 0
M  V30 5697 H 548.655 -2.39003 3.13483 0
M  V30 5698 H 549.943 -3.44352 3.74565 0
M  V30 5699 H 549.341 -5.50099 1.31939 0
M  V30 5700 H 547.898 -6.23757 1.8913 0
M  V30 5701 N 551.331 -1.39911 -0.725443 0
M  V30 5702 C 552.278 -1.39393 -1.83952 0
M  V30 5703 C 553.248 -0.252249 -1.64173 0
M  V30 5704 O 554.433 -0.44882 -1.85446 0
M  V30 5705 C 551.573 -1.25262 -3.21564 0
M  V30 5706 C 550.686 -2.49054 -3.52982 0
M  V30 5707 C 549.821 -2.27439 -4.80047 0
M  V30 5708 C 548.86 -3.46857 -5.04338 0
M  V30 5709 N 547.997 -3.24499 -6.22611 0
M  V30 5710 H 552.837 -2.34622 -1.83729 0
M  V30 5711 H 550.374 -1.16537 -0.897636 0
M  V30 5712 H 552.332 -1.15077 -4.01015 0
M  V30 5713 H 550.962 -0.33657 -3.21041 0
M  V30 5714 H 550.014 -2.69805 -2.6816 0
M  V30 5715 H 551.326 -3.37973 -3.66846 0
M  V30 5716 H 550.48 -2.14551 -5.67497 0
M  V30 5717 H 549.219 -1.35929 -4.68374 0
M  V30 5718 H 548.224 -3.60232 -4.15346 0
M  V30 5719 H 549.449 -4.3928 -5.17889 0
M  V30 5720 H 547.395 -2.35663 -6.12208 0
M  V30 5721 H 547.312 -4.06978 -6.37106 0
M  V30 5722 H 548.58 -3.15325 -7.12875 0
M  V30 5723 N 552.809 0.956637 -1.25245 0
M  V30 5724 C 553.756 2.053 -1.05454 0
M  V30 5725 C 554.726 1.66062 0.0356889 0
M  V30 5726 O 555.911 1.90415 -0.121099 0
M  V30 5727 C 553.051 3.38391 -0.677191 0
M  V30 5728 C 552.164 3.90758 -1.84206 0
M  V30 5729 C 551.299 5.12165 -1.40926 0
M  V30 5730 C 550.338 5.56757 -2.54338 0
M  V30 5731 N 549.475 6.69376 -2.11848 0
M  V30 5732 H 554.315 2.21562 -1.99284 0
M  V30 5733 H 551.852 1.08578 -0.992434 0
M  V30 5734 H 553.81 4.1488 -0.43938 0
M  V30 5735 H 552.44 3.22021 0.224127 0
M  V30 5736 H 551.492 3.10808 -2.19323 0
M  V30 5737 H 552.804 4.19802 -2.69383 0
M  V30 5738 H 551.958 5.96065 -1.13098 0
M  V30 5739 H 550.697 4.84832 -0.528175 0
M  V30 5740 H 549.702 4.71423 -2.82913 0
M  V30 5741 H 550.927 5.861 -3.43022 0
M  V30 5742 H 548.873 6.43756 -1.26153 0
M  V30 5743 H 548.79 6.97927 -2.90574 0
M  V30 5744 H 550.058 7.5669 -1.87191 0
M  V30 5745 N 554.287 1.06798 1.15896 0
M  V30 5746 C 555.235 0.677525 2.22514 0
M  V30 5747 C 556.229 -0.308994 1.66558 0
M  V30 5748 O 557.435 -0.173308 1.79164 0
M  V30 5749 H 553.81 0.200994 0.724642 0
M  V30 5750 H 555.781 1.5865 2.52731 0
M  V30 5751 C 554.53 0.0854153 3.47595 0
M  V30 5752 H 553.853 0.835645 3.90969 0
M  V30 5753 H 555.293 -0.150199 4.23734 0
M  V30 5754 C 553.752 -1.1724 3.15843 0
M  V30 5755 O 554.282 -2.25965 3.32119 0
M  V30 5756 N 552.488 -1.07636 2.69931 0
M  V30 5757 H 552.035 -0.191559 2.56887 0
M  V30 5758 H 551.993 -1.91876 2.4906 0
M  V30 5759 N 555.766 -1.3263 0.851289 0
M  V30 5760 C 556.696 -2.31449 0.308771 0
M  V30 5761 C 557.677 -1.59531 -0.590255 0
M  V30 5762 O 558.862 -1.87351 -0.511205 0
M  V30 5763 C 555.992 -3.43586 -0.506548 0
M  V30 5764 C 554.946 -4.26963 0.297753 0
M  V30 5765 C 554.272 -5.30831 -0.642094 0
M  V30 5766 C 555.572 -4.99643 1.52166 0
M  V30 5767 H 557.266 -2.77074 1.13447 0
M  V30 5768 H 554.812 -1.33207 0.546971 0
M  V30 5769 H 556.765 -4.11754 -0.896474 0
M  V30 5770 H 555.489 -2.96681 -1.36558 0
M  V30 5771 H 554.148 -3.60437 0.669391 0
M  V30 5772 H 553.796 -4.8018 -1.49788 0
M  V30 5773 H 553.496 -5.87501 -0.107968 0
M  V30 5774 H 555.02 -6.01862 -1.02927 0
M  V30 5775 H 556.434 -5.6051 1.20421 0
M  V30 5776 H 554.831 -5.66022 1.99347 0
M  V30 5777 H 555.901 -4.27701 2.28474 0
M  V30 5778 N 557.244 -0.608902 -1.45362 0
M  V30 5779 C 558.207 0.0992563 -2.28985 0
M  V30 5780 C 559.207 0.793841 -1.39838 0
M  V30 5781 O 560.397 0.641804 -1.61946 0
M  V30 5782 C 557.529 1.15073 -3.20891 0
M  V30 5783 H 558.722 -0.635964 -2.93079 0
M  V30 5784 H 556.275 -0.368007 -1.51906 0
M  V30 5785 H 557.01 1.91667 -2.616 0
M  V30 5786 H 556.795 0.656867 -3.86559 0
M  V30 5787 H 558.285 1.64665 -3.83765 0
M  V30 5788 N 558.722 1.53707 -0.348139 0
M  V30 5789 C 559.968 2.01286 0.247332 0
M  V30 5790 C 560.301 1.23546 1.49834 0
M  V30 5791 O 559.576 0.324331 1.91777 0
M  V30 5792 C 559.859 3.55768 0.556858 0
M  V30 5793 C 559.712 4.44216 -0.706564 0
M  V30 5794 C 561.031 4.1841 1.3646 0
M  V30 5795 H 558.15 0.731677 0.0884201 0
M  V30 5796 H 560.792 1.84106 -0.469584 0
M  V30 5797 H 558.942 3.70539 1.16761 0
M  V30 5798 H 560.614 4.41274 -1.34444 0
M  V30 5799 H 558.857 4.12892 -1.33052 0
M  V30 5800 H 559.528 5.50202 -0.445186 0
M  V30 5801 H 562.004 4.07365 0.848113 0
M  V30 5802 H 560.88 5.26563 1.54992 0
M  V30 5803 H 561.141 3.7333 2.36805 0
M  V30 5804 N 560.2 0.0768682 1.57412 0
M  V30 5805 C 561.446 -0.591961 1.93968 0
M  V30 5806 C 561.779 -1.68954 0.9575 0
M  V30 5807 O 561.054 -1.94496 -0.0124675 0
M  V30 5808 C 561.337 -1.16418 3.40762 0
M  V30 5809 C 561.19 -0.0728933 4.49741 0
M  V30 5810 C 562.509 -2.06814 3.88479 0
M  V30 5811 H 559.628 -0.213716 0.705333 0
M  V30 5812 H 562.27 0.14387 1.89455 0
M  V30 5813 H 560.42 -1.79128 3.4474 0
M  V30 5814 H 562.092 0.560446 4.57883 0
M  V30 5815 H 560.335 0.595859 4.29688 0
M  V30 5816 H 561.006 -0.513755 5.49604 0
M  V30 5817 H 563.482 -1.54033 3.8654 0
M  V30 5818 H 562.358 -2.43785 4.91793 0
M  V30 5819 H 562.619 -2.97844 3.26713 0
M  V30 5820 N 561.678 -1.56367 -0.196722 0
M  V30 5821 C 562.926 -1.80172 -0.915554 0
M  V30 5822 C 563.247 -0.649649 -1.8386 0
M  V30 5823 O 562.517 0.332111 -1.93064 0
M  V30 5824 H 561.097 -0.664592 -0.341067 0
M  V30 5825 H 563.759 -1.93844 -0.202622 0
M  V30 5826 H 562.855 -2.7327 -1.50764 0
M  V30 5827 N 563.156 0.464375 -1.50603 0
M  V30 5828 C 564.119 1.54393 -1.69397 0
M  V30 5829 C 565.119 1.50566 -0.564504 0
M  V30 5830 O 566.309 1.53066 -0.831645 0
M  V30 5831 C 563.441 2.9401 -1.72543 0
M  V30 5832 H 564.634 1.39044 -2.65719 0
M  V30 5833 H 562.187 0.69122 -1.40185 0
M  V30 5834 H 562.922 3.14795 -0.77938 0
M  V30 5835 H 562.707 2.98195 -2.54602 0
M  V30 5836 H 564.197 3.72375 -1.89015 0
M  V30 5837 N 564.634 1.40294 0.718013 0
M  V30 5838 C 565.882 1.38167 1.47494 0
M  V30 5839 C 566.203 -0.01607 1.94993 0
M  V30 5840 O 565.473 -0.970396 1.70177 0
M  V30 5841 H 564.053 0.508505 0.547203 0
M  V30 5842 H 566.715 1.75324 0.851322 0
M  V30 5843 H 565.811 2.05503 2.34894 0
M  V30 5844 N 566.112 -0.949982 1.2575 0
M  V30 5845 C 567.523 -1.50989 1.09815 0
M  V30 5846 C 567.874 -1.93497 -0.324556 0
M  V30 5847 O 566.999 -1.79068 -1.21506 0
M  V30 5848 C 567.594 -2.74394 1.98729 0
M  V30 5849 C 566.153 -3.26682 1.86965 0
M  V30 5850 C 565.3 -1.99498 1.92603 0
M  V30 5851 H 568.251 -0.766387 1.38968 0
M  V30 5852 H 568.272 -3.48383 1.53001 0
M  V30 5853 H 567.784 -2.43425 3.02268 0
M  V30 5854 H 565.885 -3.62461 0.863279 0
M  V30 5855 H 565.998 -3.94383 2.72027 0
M  V30 5856 H 564.362 -2.15005 1.36546 0
M  V30 5857 H 565.145 -1.70871 2.97755 0
M  V30 5858 N 567.59 -1.07411 -1.15328 0
M  V30 5859 C 568.553 -0.698914 -2.18284 0
M  V30 5860 C 569.553 0.261149 -1.58665 0
M  V30 5861 O 570.743 0.0420277 -1.74149 0
M  V30 5862 C 567.875 -0.0302427 -3.40887 0
M  V30 5863 H 569.068 -1.61045 -2.52991 0
M  V30 5864 H 566.621 -0.870724 -1.298 0
M  V30 5865 H 567.356 0.893505 -3.11748 0
M  V30 5866 H 567.141 -0.720759 -3.85419 0
M  V30 5867 H 568.631 0.21759 -4.17033 0
M  V30 5868 N 569.068 1.32177 -0.85831 0
M  V30 5869 C 570.316 1.96735 -0.462568 0
M  V30 5870 C 570.637 1.6824 0.985911 0
M  V30 5871 O 569.907 0.991564 1.68952 0
M  V30 5872 H 568.487 0.727849 -0.168064 0
M  V30 5873 H 571.149 1.61195 -1.09554 0
M  V30 5874 H 570.245 3.06068 -0.610647 0
M  V30 5875 N 570.547 0.616602 1.45037 0
M  V30 5876 C 571.477 -0.0840787 2.33349 0
M  V30 5877 C 572.458 -0.849641 1.4736 0
M  V30 5878 O 573.643 -0.818407 1.76113 0
M  V30 5879 C 570.773 -1.07604 3.3021 0
M  V30 5880 C 569.727 -0.423096 4.25904 0
M  V30 5881 C 569.053 -1.52394 5.12523 0
M  V30 5882 C 570.353 0.661457 5.18095 0
M  V30 5883 H 572.047 0.653333 2.92185 0
M  V30 5884 H 569.593 0.315634 1.40498 0
M  V30 5885 H 571.546 -1.57485 3.90866 0
M  V30 5886 H 570.27 -1.84416 2.69552 0
M  V30 5887 H 568.929 0.05493 3.66559 0
M  V30 5888 H 568.577 -2.28257 4.48227 0
M  V30 5889 H 568.277 -1.09251 5.77354 0
M  V30 5890 H 569.801 -2.02485 5.76049 0
M  V30 5891 H 571.215 0.246353 5.7277 0
M  V30 5892 H 569.612 1.01517 5.91451 0
M  V30 5893 H 570.682 1.53446 4.59981 0
M  V30 5894 N 572.025 -1.5352 0.356285 0
M  V30 5895 C 572.988 -2.24071 -0.482182 0
M  V30 5896 C 573.988 -1.24531 -1.01729 0
M  V30 5897 O 575.178 -1.48876 -0.904513 0
M  V30 5898 C 572.31 -2.97025 -1.67299 0
M  V30 5899 H 573.503 -2.99596 0.135031 0
M  V30 5900 H 571.056 -1.55928 0.107825 0
M  V30 5901 H 571.791 -2.25719 -2.32855 0
M  V30 5902 H 571.576 -3.7005 -1.29636 0
M  V30 5903 H 573.066 -3.50683 -2.26741 0
M  V30 5904 N 573.503 -0.0852151 -1.57369 0
M  V30 5905 C 574.75 0.580806 -1.93992 0
M  V30 5906 C 575.078 1.68801 -0.966252 0
M  V30 5907 O 574.333 1.95694 0.0158649 0
M  V30 5908 C 574.632 1.18482 -3.3719 0
M  V30 5909 C 574.298 0.2024 -4.50446 0
M  V30 5910 C 572.96 -0.0678318 -4.81152 0
M  V30 5911 C 575.312 -0.46895 -5.19086 0
M  V30 5912 C 572.64 -1.01627 -5.77831 0
M  V30 5913 C 574.992 -1.4058 -6.16782 0
M  V30 5914 C 573.656 -1.68436 -6.45899 0
M  V30 5915 H 572.926 0.212532 -0.709867 0
M  V30 5916 H 575.573 -0.158947 -1.90839 0
M  V30 5917 H 573.878 2.0006 -3.36873 0
M  V30 5918 H 575.575 1.70767 -3.62822 0
M  V30 5919 H 572.165 0.423208 -4.26505 0
M  V30 5920 H 576.349 -0.273307 -4.95547 0
M  V30 5921 H 571.605 -1.2392 -5.9871 0
M  V30 5922 H 575.779 -1.93188 -6.69068 0
M  V30 5923 H 573.406 -2.42088 -7.20623 0
M  V30 5924 N 574.981 1.5647 0.188427 0
M  V30 5925 C 575.944 1.9421 1.21718 0
M  V30 5926 C 576.944 0.823901 1.38089 0
M  V30 5927 O 578.134 1.09122 1.35787 0
M  V30 5928 C 575.266 2.22197 2.58537 0
M  V30 5929 H 576.459 2.86252 0.894418 0
M  V30 5930 H 574.012 1.50263 0.430211 0
M  V30 5931 H 574.747 1.32814 2.95856 0
M  V30 5932 H 574.532 3.03688 2.48025 0
M  V30 5933 H 576.022 2.52376 3.3271 0
M  V30 5934 N 576.459 -0.456382 1.50847 0
M  V30 5935 C 577.708 -1.2042 1.61808 0
M  V30 5936 C 578.021 -1.9278 0.330932 0
M  V30 5937 O 579.227 -2.69612 0.319643 0
M  V30 5938 C 577.683 -2.18891 2.85683 0
M  V30 5939 C 577.291 -1.52267 4.2133 0
M  V30 5940 C 579.035 -2.94224 3.05994 0
M  V30 5941 C 576.942 -2.4911 5.36375 0
M  V30 5942 H 575.872 -0.453177 0.602616 0
M  V30 5943 H 578.523 -0.473144 1.77295 0
M  V30 5944 H 576.905 -2.95351 2.63787 0
M  V30 5945 H 578.079 -0.814949 4.53536 0
M  V30 5946 H 576.394 -0.891594 4.06743 0
M  V30 5947 H 578.991 -3.66732 3.89117 0
M  V30 5948 H 579.334 -3.54469 2.18306 0
M  V30 5949 H 579.867 -2.24874 3.28141 0
M  V30 5950 H 576.606 -1.93582 6.26264 0
M  V30 5951 H 576.126 -3.17991 5.08569 0
M  V30 5952 H 577.805 -3.10637 5.67551 0
M  V30 5953 N 577.937 -1.40673 -0.710563 0
M  V30 5954 C 578.885 -1.41517 -1.84596 0
M  V30 5955 C 579.879 -0.295043 -1.66811 0
M  V30 5956 O 581.085 -0.466331 -1.73854 0
M  V30 5957 H 577.46 -0.442467 -0.608052 0
M  V30 5958 H 579.431 -2.37238 -1.80999 0
M  V30 5959 C 578.18 -1.29957 -3.225 0
M  V30 5960 H 577.503 -2.15429 -3.36794 0
M  V30 5961 H 578.943 -1.34608 -4.02066 0
M  V30 5962 C 577.402 -0.0103164 -3.36898 0
M  V30 5963 O 577.932 0.950707 -3.90288 0
M  V30 5964 N 576.138 0.0608409 -2.90536 0
M  V30 5965 H 575.685 -0.721943 -2.47277 0
M  V30 5966 H 575.643 0.92292 -3.00549 0
M  V30 5967 N 579.415 0.9433 -1.26252 0
M  V30 5968 C 580.378 2.02326 -1.07689 0
M  V30 5969 C 581.378 1.60779 -0.0259174 0
M  V30 5970 O 582.568 1.72108 -0.269134 0
M  V30 5971 C 579.7 3.34886 -0.63752 0
M  V30 5972 H 580.893 2.20225 -2.0357 0
M  V30 5973 H 578.446 1.12197 -1.08819 0
M  V30 5974 H 579.181 3.22684 0.323377 0
M  V30 5975 H 578.966 3.66393 -1.39637 0
M  V30 5976 H 580.456 4.14231 -0.529418 0
M  V30 5977 N 580.893 1.08022 1.14757 0
M  V30 5978 C 581.856 0.71048 2.1791 0
M  V30 5979 C 582.856 -0.252731 1.58801 0
M  V30 5980 O 584.046 -0.0327915 1.74169 0
M  V30 5981 C 581.178 0.0483203 3.40866 0
M  V30 5982 H 582.371 1.62384 2.52134 0
M  V30 5983 H 579.924 0.877595 1.29337 0
M  V30 5984 H 580.659 -0.876959 3.12218 0
M  V30 5985 H 580.444 0.741189 3.85031 0
M  V30 5986 H 581.934 -0.195471 4.17142 0
M  V30 5987 N 582.371 -1.3172 0.865308 0
M  V30 5988 C 583.334 -2.26918 0.322627 0
M  V30 5989 C 584.334 -1.52031 -0.523751 0
M  V30 5990 O 585.524 -1.70973 -0.333727 0
M  V30 5991 C 582.656 -3.36558 -0.542338 0
M  V30 5992 H 583.849 -2.76432 1.16298 0
M  V30 5993 H 581.402 -1.42573 0.640512 0
M  V30 5994 H 582.137 -2.92329 -1.40407 0
M  V30 5995 H 581.922 -3.92048 0.0636395 0
M  V30 5996 H 583.412 -4.07465 -0.91446 0
M  V30 5997 N 583.85 -0.624285 -1.44708 0
M  V30 5998 C 585.266 -0.289322 -1.56956 0
M  V30 5999 C 585.466 1.20773 -1.61295 0
M  V30 6000 O 584.522 1.9915 -1.55227 0
M  V30 6001 C 585.835 -0.975215 -2.84447 0
M  V30 6002 C 587.383 -0.952709 -2.98148 0
M  V30 6003 C 587.858 -1.61893 -4.28433 0
M  V30 6004 N 589.349 -1.5852 -4.35231 0
M  V30 6005 C 590.084 -2.06969 -5.34744 0
M  V30 6006 N 589.58 -2.63579 -6.40701 0
M  V30 6007 N 591.373 -1.97638 -5.26209 0
M  V30 6008 H 583.524 -1.59612 -1.40135 0
M  V30 6009 H 585.787 -0.669592 -0.671081 0
M  V30 6010 H 585.493 -2.02999 -2.87201 0
M  V30 6011 H 585.367 -0.508749 -3.73753 0
M  V30 6012 H 587.754 0.093568 -2.94952 0
M  V30 6013 H 587.835 -1.4576 -2.10209 0
M  V30 6014 H 587.479 -2.66463 -4.32389 0
M  V30 6015 H 587.409 -1.08893 -5.15218 0
M  V30 6016 H 589.899 -1.17183 -3.59272 0
M  V30 6017 H 590.213 -2.98298 -7.12908 0
M  V30 6018 H 588.558 -2.67626 -6.41406 0
M  V30 6019 H 591.749 -1.5314 -4.42341 0
M  V30 6020 H 591.922 -2.35708 -6.03611 0
M  V30 6021 N 585.328 1.53329 -0.364422 0
M  V30 6022 C 586.576 2.00842 0.225189 0
M  V30 6023 C 586.897 1.25345 1.49378 0
M  V30 6024 O 586.167 0.366396 1.92443 0
M  V30 6025 H 584.747 0.742009 0.0862027 0
M  V30 6026 H 587.409 1.8863 -0.490389 0
M  V30 6027 H 586.505 3.08795 0.452987 0
M  V30 6028 N 586.806 0.0935595 1.57322 0
M  V30 6029 C 587.756 -0.876521 2.10478 0
M  V30 6030 C 588.74 -1.24482 1.01946 0
M  V30 6031 O 589.932 -1.22016 1.28223 0
M  V30 6032 C 587.061 -2.13615 2.68745 0
M  V30 6033 C 586.147 -1.79335 3.84317 0
M  V30 6034 N 586.538 -1.15606 4.92411 0
M  V30 6035 C 584.836 -2.08954 3.94023 0
M  V30 6036 C 585.537 -0.999036 5.73057 0
M  V30 6037 N 584.513 -1.51585 5.22037 0
M  V30 6038 H 588.315 -0.379829 2.91435 0
M  V30 6039 H 585.829 -0.109699 1.62029 0
M  V30 6040 H 587.826 -2.84053 3.05155 0
M  V30 6041 H 586.486 -2.63851 1.89242 0
M  V30 6042 H 587.497 -0.823063 5.11318 0
M  V30 6043 H 584.174 -2.61416 3.25527 0
M  V30 6044 H 585.564 -0.500772 6.70031 0
M  V30 6045 N 588.284 -1.56567 -0.180126 0
M  V30 6046 C 589.216 -1.92275 -1.24751 0
M  V30 6047 C 590.229 -0.814922 -1.40936 0
M  V30 6048 O 591.418 -1.09336 -1.41095 0
M  V30 6049 C 588.518 -2.15265 -2.61752 0
M  V30 6050 C 587.691 -3.46467 -2.66981 0
M  V30 6051 C 586.75 -3.58391 -3.85283 0
M  V30 6052 O 585.776 -4.31086 -3.7169 0
M  V30 6053 N 586.978 -2.92587 -5.01371 0
M  V30 6054 H 589.743 -2.84435 -0.944302 0
M  V30 6055 H 587.304 -1.57617 -0.369952 0
M  V30 6056 H 589.296 -2.20515 -3.39345 0
M  V30 6057 H 587.866 -1.29533 -2.845 0
M  V30 6058 H 587.086 -3.52953 -1.75549 0
M  V30 6059 H 588.374 -4.32819 -2.67479 0
M  V30 6060 H 587.772 -2.3338 -5.15316 0
M  V30 6061 H 586.329 -3.03444 -5.76858 0
M  V30 6062 N 589.762 0.448376 -1.51087 0
M  V30 6063 C 591.008 1.20049 -1.6345 0
M  V30 6064 C 591.341 1.91121 -0.344444 0
M  V30 6065 O 590.616 1.83125 0.655396 0
M  V30 6066 C 590.899 2.22624 -2.83038 0
M  V30 6067 C 590.752 1.55708 -4.21989 0
M  V30 6068 C 592.071 3.23718 -2.98152 0
M  V30 6069 H 589.19 0.435085 -0.59487 0
M  V30 6070 H 591.832 0.491183 -1.83541 0
M  V30 6071 H 589.982 2.83117 -2.66039 0
M  V30 6072 H 591.654 0.986367 -4.50631 0
M  V30 6073 H 589.897 0.859647 -4.25197 0
M  V30 6074 H 590.568 2.30357 -5.01637 0
M  V30 6075 H 593.044 2.73269 -3.13788 0
M  V30 6076 H 591.92 3.92795 -3.83411 0
M  V30 6077 H 592.181 3.89179 -2.09743 0
M  V30 6078 N 591.24 1.41047 0.703093 0
M  V30 6079 C 592.468 1.4334 1.49202 0
M  V30 6080 C 592.883 0.0365596 1.88765 0
M  V30 6081 O 592.24 -0.942419 1.56284 0
M  V30 6082 C 592.291 2.33538 2.75939 0
M  V30 6083 O 592.012 3.67786 2.38045 0
M  V30 6084 C 593.513 2.44555 3.6974 0
M  V30 6085 H 590.733 0.488472 0.460039 0
M  V30 6086 H 593.277 1.85245 0.86629 0
M  V30 6087 H 591.432 1.94962 3.34766 0
M  V30 6088 H 591.846 4.15816 3.19683 0
M  V30 6089 H 593.32 3.11849 4.55471 0
M  V30 6090 H 593.797 1.47447 4.1371 0
M  V30 6091 H 594.403 2.83735 3.16819 0
M  V30 6092 N 592.718 -0.936591 1.26751 0
M  V30 6093 C 593.648 -2.05315 1.11212 0
M  V30 6094 C 594.629 -1.70092 0.0160262 0
M  V30 6095 O 595.814 -1.93279 0.188894 0
M  V30 6096 C 592.944 -3.39123 0.749171 0
M  V30 6097 C 591.898 -3.88425 1.79751 0
M  V30 6098 C 591.224 -5.18936 1.28876 0
M  V30 6099 C 592.524 -4.12798 3.19992 0
M  V30 6100 H 594.218 -2.18573 2.04613 0
M  V30 6101 H 591.764 -1.05027 0.985159 0
M  V30 6102 H 593.717 -4.16704 0.627323 0
M  V30 6103 H 592.441 -3.25855 -0.220543 0
M  V30 6104 H 591.1 -3.13028 1.90811 0
M  V30 6105 H 590.748 -5.02051 0.308757 0
M  V30 6106 H 590.448 -5.52892 1.98958 0
M  V30 6107 H 591.972 -5.99096 1.17967 0
M  V30 6108 H 593.386 -4.80977 3.11983 0
M  V30 6109 H 591.783 -4.58044 3.87705 0
M  V30 6110 H 592.853 -3.18412 3.65707 0
M  V30 6111 N 594.196 -1.08629 -1.14182 0
M  V30 6112 C 595.443 -0.817345 -1.85272 0
M  V30 6113 C 595.771 0.656917 -1.83071 0
M  V30 6114 O 595.026 1.49897 -1.25815 0
M  V30 6115 C 595.325 -1.28734 -3.3341 0
M  V30 6116 C 594.991 -2.76981 -3.55798 0
M  V30 6117 C 593.653 -3.17469 -3.61617 0
M  V30 6118 C 596.005 -3.72605 -3.64438 0
M  V30 6119 C 593.333 -4.52371 -3.736 0
M  V30 6120 C 595.685 -5.07286 -3.77947 0
M  V30 6121 C 594.349 -5.47376 -3.82016 0
M  V30 6122 H 593.619 -0.299088 -0.677958 0
M  V30 6123 H 596.266 -1.35962 -1.34857 0
M  V30 6124 H 594.571 -0.664702 -3.8612 0
M  V30 6125 H 596.268 -1.05598 -3.86846 0
M  V30 6126 H 592.858 -2.44644 -3.51919 0
M  V30 6127 H 597.042 -3.42443 -3.5923 0
M  V30 6128 H 592.298 -4.82882 -3.75013 0
M  V30 6129 H 596.472 -5.81243 -3.83575 0
M  V30 6130 H 594.099 -6.51906 -3.91054 0
M  V30 6131 N 595.674 1.31259 -0.872281 0
M  V30 6132 C 596.951 1.91362 -0.404943 0
M  V30 6133 C 597.331 1.79362 1.11321 0
M  V30 6134 O 596.679 1.20277 1.94283 0
M  V30 6135 C 596.889 3.3749 -0.888893 0
M  V30 6136 C 598.237 4.14593 -0.916384 0
M  V30 6137 O 599.261 3.46282 -0.834701 0
M  V30 6138 O 598.12 5.3661 -1.03498 0
M  V30 6139 H 595.214 0.818016 -0.121569 0
M  V30 6140 H 597.76 1.39912 -0.960346 0
M  V30 6141 H 596.532 3.40249 -1.93251 0
M  V30 6142 H 596.155 3.96375 -0.311932 0
M  V30 6143 N 597.152 0.631951 1.44375 0
M  V30 6144 C 598.115 -0.0628142 2.29114 0
M  V30 6145 C 599.115 -0.771494 1.41084 0
M  V30 6146 O 600.305 -0.615959 1.62947 0
M  V30 6147 C 597.437 -1.09953 3.22681 0
M  V30 6148 H 598.63 0.682509 2.92031 0
M  V30 6149 H 596.183 0.392128 1.51301 0
M  V30 6150 H 596.918 -1.87481 2.64616 0
M  V30 6151 H 596.703 -0.595286 3.87555 0
M  V30 6152 H 598.193 -1.58538 3.86336 0
M  V30 6153 N 598.631 -1.53133 0.372548 0
M  V30 6154 C 599.581 -2.22733 -0.487218 0
M  V30 6155 C 600.565 -1.22506 -1.04312 0
M  V30 6156 O 601.757 -1.47923 -0.972005 0
M  V30 6157 C 598.886 -3.02524 -1.62278 0
M  V30 6158 C 597.972 -4.10133 -1.07943 0
M  V30 6159 N 598.363 -5.05133 -0.259629 0
M  V30 6160 C 596.661 -4.24964 -1.35356 0
M  V30 6161 C 597.362 -5.81687 0.0386656 0
M  V30 6162 N 596.338 -5.40699 -0.560827 0
M  V30 6163 H 600.14 -2.93538 0.145853 0
M  V30 6164 H 597.654 -1.61389 0.180938 0
M  V30 6165 H 599.651 -3.50909 -2.25096 0
M  V30 6166 H 598.311 -2.33252 -2.25884 0
M  V30 6167 H 599.322 -5.178 0.101746 0
M  V30 6168 H 595.999 -3.66919 -1.9919 0
M  V30 6169 H 597.389 -6.68224 0.701841 0
M  V30 6170 N 600.109 -0.101901 -1.5727 0
M  V30 6171 C 601.334 0.571759 -1.99363 0
M  V30 6172 C 601.759 1.60507 -0.980768 0
M  V30 6173 O 601.117 1.81231 0.0498517 0
M  V30 6174 C 601.165 1.18996 -3.404 0
M  V30 6175 O 600.269 2.30572 -3.41922 0
M  V30 6176 H 599.61 0.144449 -0.648098 0
M  V30 6177 H 602.14 -0.185325 -2.03759 0
M  V30 6178 H 602.15 1.52962 -3.78241 0
M  V30 6179 H 600.825 0.432984 -4.1364 0
M  V30 6180 H 599.402 1.98173 -3.15883 0
M  V30 6181 N 601.587 1.56661 0.17182 0
M  V30 6182 C 602.497 1.99604 1.2327 0
M  V30 6183 C 603.513 0.907333 1.4847 0
M  V30 6184 O 604.689 1.21492 1.60629 0
M  V30 6185 C 601.754 2.34685 2.55194 0
M  V30 6186 C 600.815 3.57381 2.3786 0
M  V30 6187 C 600.048 3.90779 3.63494 0
M  V30 6188 O 600.271 3.25152 4.6865 0
M  V30 6189 O 599.205 4.84129 3.57634 0
M  V30 6190 H 603.031 2.90114 0.898192 0
M  V30 6191 H 600.616 1.44522 0.378647 0
M  V30 6192 H 602.498 2.5822 3.33017 0
M  V30 6193 H 601.173 1.47336 2.88225 0
M  V30 6194 H 600.08 3.39064 1.5807 0
M  V30 6195 H 601.413 4.45268 2.09754 0
M  V30 6196 N 603.065 -0.440357 1.51323 0
M  V30 6197 C 604.314 -1.18697 1.63076 0
M  V30 6198 C 604.627 -1.92418 0.35136 0
M  V30 6199 O 605.833 -2.69258 0.348221 0
M  V30 6200 C 604.289 -2.15849 2.87988 0
M  V30 6201 C 603.897 -1.47789 4.22921 0
M  V30 6202 C 605.641 -2.90962 3.09098 0
M  V30 6203 C 603.548 -2.43407 5.38987 0
M  V30 6204 H 602.478 -0.44676 0.607389 0
M  V30 6205 H 605.129 -0.454313 1.77787 0
M  V30 6206 H 603.511 -2.92537 2.66905 0
M  V30 6207 H 604.685 -0.7668 4.54375 0
M  V30 6208 H 603 -0.848404 4.07665 0
M  V30 6209 H 605.597 -3.62584 3.92985 0
M  V30 6210 H 605.94 -3.52133 2.22053 0
M  V30 6211 H 606.473 -2.21381 3.30507 0
M  V30 6212 H 603.212 -1.86929 6.28282 0
M  V30 6213 H 602.732 -3.12579 5.11913 0
M  V30 6214 H 604.411 -3.046 5.70813 0
M  V30 6215 N 604.543 -1.41418 -0.695603 0
M  V30 6216 C 605.791 -1.40496 -1.45277 0
M  V30 6217 C 606.112 -0.0149538 -1.94994 0
M  V30 6218 O 605.382 0.9432 -1.71699 0
M  V30 6219 H 603.962 -0.517147 -0.539044 0
M  V30 6220 H 606.624 -1.76656 -0.823321 0
M  V30 6221 H 605.72 -2.09214 -2.31595 0
M  V30 6222 N 606.021 0.929856 -1.27246 0
M  V30 6223 C 607.269 1.674 -1.13233 0
M  V30 6224 C 607.59 1.92311 0.322744 0
M  V30 6225 O 606.86 1.52784 1.22612 0
M  V30 6226 H 605.44 0.620411 -0.416052 0
M  V30 6227 H 608.102 1.11663 -1.59741 0
M  V30 6228 H 607.198 2.64308 -1.65975 0
M  V30 6229 N 607.499 1.09233 1.13605 0
M  V30 6230 C 608.431 0.687794 2.18637 0
M  V30 6231 C 609.444 -0.26936 1.60556 0
M  V30 6232 O 610.633 -0.0557162 1.78413 0
M  V30 6233 C 607.733 -0.00751901 3.38899 0
M  V30 6234 C 606.906 0.97067 4.26494 0
M  V30 6235 C 605.965 0.309129 5.25291 0
M  V30 6236 O 604.991 0.956149 5.61112 0
M  V30 6237 N 606.193 -0.937555 5.72879 0
M  V30 6238 H 608.958 1.59141 2.53957 0
M  V30 6239 H 606.519 0.979515 1.28907 0
M  V30 6240 H 608.511 -0.461238 4.02063 0
M  V30 6241 H 607.081 -0.813353 3.01833 0
M  V30 6242 H 606.301 1.603 3.60135 0
M  V30 6243 H 607.589 1.63323 4.81875 0
M  V30 6244 H 606.987 -1.48281 5.4592 0
M  V30 6245 H 605.544 -1.33463 6.3799 0
M  V30 6246 N 608.977 -1.30795 0.87923 0
M  V30 6247 C 610.224 -1.96362 0.494786 0
M  V30 6248 C 610.552 -1.69448 -0.954868 0
M  V30 6249 O 609.807 -0.988711 -1.68888 0
M  V30 6250 C 610.106 -3.50287 0.709476 0
M  V30 6251 C 609.772 -3.9724 2.13333 0
M  V30 6252 C 608.434 -4.09772 2.52271 0
M  V30 6253 C 610.786 -4.21807 3.06151 0
M  V30 6254 C 608.114 -4.44227 3.83248 0
M  V30 6255 C 610.466 -4.5773 4.36654 0
M  V30 6256 C 609.13 -4.68469 4.75492 0
M  V30 6257 H 608.4 -0.71854 0.181055 0
M  V30 6258 H 611.047 -1.55764 1.11399 0
M  V30 6259 H 609.352 -3.91799 0.0072 0
M  V30 6260 H 611.049 -3.99082 0.391703 0
M  V30 6261 H 607.639 -3.87988 1.82107 0
M  V30 6262 H 611.823 -4.11611 2.77291 0
M  V30 6263 H 607.079 -4.50741 4.13089 0
M  V30 6264 H 611.253 -4.7569 5.08617 0
M  V30 6265 H 608.88 -4.94923 5.77022 0
M  V30 6266 N 610.455 -0.639598 -1.44038 0
M  V30 6267 C 611.403 0.0723409 -2.32487 0
M  V30 6268 C 612.397 0.827129 -1.47834 0
M  V30 6269 O 613.603 0.73907 -1.64127 0
M  V30 6270 H 609.978 0.0421696 -0.750817 0
M  V30 6271 H 611.949 -0.691593 -2.90275 0
M  V30 6272 C 610.698 1.03452 -3.31953 0
M  V30 6273 H 610.021 0.46315 -3.97108 0
M  V30 6274 H 611.461 1.502 -3.96505 0
M  V30 6275 C 609.92 2.12392 -2.61518 0
M  V30 6276 O 610.45 3.2059 -2.42044 0
M  V30 6277 N 608.656 1.88563 -2.21116 0
M  V30 6278 H 608.203 1.00577 -2.37154 0
M  V30 6279 H 608.161 2.61651 -1.74316 0
M  V30 6280 N 611.933 1.52934 -0.380664 0
M  V30 6281 C 613.182 2.00651 0.205477 0
M  V30 6282 C 613.495 1.27164 1.48623 0
M  V30 6283 O 614.701 1.65547 2.15189 0
M  V30 6284 C 613.157 3.57479 0.416726 0
M  V30 6285 C 612.765 4.39857 -0.850268 0
M  V30 6286 C 614.509 4.13509 0.959702 0
M  V30 6287 C 612.416 5.88269 -0.607773 0
M  V30 6288 H 611.346 0.749684 0.0805614 0
M  V30 6289 H 613.997 1.76508 -0.501732 0
M  V30 6290 H 612.379 3.77836 1.18557 0
M  V30 6291 H 613.553 4.31269 -1.62307 0
M  V30 6292 H 611.868 3.95005 -1.31756 0
M  V30 6293 H 614.465 5.22039 1.15669 0
M  V30 6294 H 614.808 3.69054 1.92626 0
M  V30 6295 H 615.341 3.9701 0.250645 0
M  V30 6296 H 612.08 6.3703 -1.54509 0
M  V30 6297 H 611.6 5.99667 0.126247 0
M  V30 6298 H 613.279 6.46558 -0.239014 0
M  V30 6299 N 613.412 0.11024 1.57214 0
M  V30 6300 C 614.375 -0.828808 2.1369 0
M  V30 6301 C 615.375 -1.20059 1.06969 0
M  V30 6302 O 616.565 -1.12754 1.32786 0
M  V30 6303 C 613.697 -2.11959 2.66994 0
M  V30 6304 H 614.89 -0.338146 2.97988 0
M  V30 6305 H 612.443 -0.138913 1.55681 0
M  V30 6306 H 613.178 -2.65476 1.8626 0
M  V30 6307 H 612.963 -1.86258 3.45037 0
M  V30 6308 H 614.453 -2.79105 3.10629 0
M  V30 6309 N 614.89 -1.56749 -0.16351 0
M  V30 6310 C 615.837 -1.97011 -1.2023 0
M  V30 6311 C 616.807 -0.835186 -1.43575 0
M  V30 6312 O 617.992 -1.09594 -1.56185 0
M  V30 6313 C 615.132 -2.34186 -2.53478 0
M  V30 6314 C 614.245 -3.60893 -2.37446 0
M  V30 6315 C 613.38 -3.87245 -3.63614 0
M  V30 6316 C 612.419 -5.07274 -3.42548 0
M  V30 6317 N 611.556 -5.29719 -4.60806 0
M  V30 6318 H 616.396 -2.85562 -0.851958 0
M  V30 6319 H 613.933 -1.41292 -0.409257 0
M  V30 6320 H 615.891 -2.53764 -3.31149 0
M  V30 6321 H 614.521 -1.48736 -2.86492 0
M  V30 6322 H 613.573 -3.49185 -1.50911 0
M  V30 6323 H 614.885 -4.48722 -2.1783 0
M  V30 6324 H 614.039 -4.07232 -4.49719 0
M  V30 6325 H 612.778 -2.97806 -3.86216 0
M  V30 6326 H 611.783 -4.87177 -2.5483 0
M  V30 6327 H 613.008 -5.98251 -3.2136 0
M  V30 6328 H 610.954 -4.43233 -4.83612 0
M  V30 6329 H 610.871 -6.11786 -4.44132 0
M  V30 6330 H 612.139 -5.54192 -5.48171 0
M  V30 6331 N 616.368 0.432326 -1.51554 0
M  V30 6332 C 617.3 1.54357 -1.6943 0
M  V30 6333 C 618.313 1.52311 -0.574897 0
M  V30 6334 O 619.502 1.56997 -0.849369 0
M  V30 6335 C 616.602 2.93273 -1.69836 0
M  V30 6336 C 615.775 3.19768 -2.98442 0
M  V30 6337 C 614.834 4.38433 -2.90969 0
M  V30 6338 O 613.86 4.36842 -3.64908 0
M  V30 6339 N 615.062 5.42276 -2.07163 0
M  V30 6340 H 617.827 1.39426 -2.65293 0
M  V30 6341 H 615.388 0.621331 -1.49503 0
M  V30 6342 H 617.38 3.70687 -1.62399 0
M  V30 6343 H 615.95 3.01777 -0.815456 0
M  V30 6344 H 615.17 2.30607 -3.19709 0
M  V30 6345 H 616.458 3.343 -3.83563 0
M  V30 6346 H 615.856 5.46407 -1.46477 0
M  V30 6347 H 614.413 6.18524 -2.05601 0
M  V30 6348 N 617.846 1.41785 0.688094 0
M  V30 6349 C 619.095 1.4084 1.44385 0
M  V30 6350 C 619.408 0.0234166 1.95586 0
M  V30 6351 O 620.614 -0.108647 2.71283 0
M  V30 6352 C 619.07 2.47675 2.61123 0
M  V30 6353 C 618.678 3.92116 2.16677 0
M  V30 6354 C 620.422 2.55877 3.38714 0
M  V30 6355 C 618.329 4.90487 3.30419 0
M  V30 6356 H 617.259 0.523787 0.542368 0
M  V30 6357 H 619.91 1.6764 0.74627 0
M  V30 6358 H 618.292 2.14018 3.33185 0
M  V30 6359 H 619.466 4.35059 1.51856 0
M  V30 6360 H 617.781 3.87642 1.5206 0
M  V30 6361 H 620.378 3.26553 4.234 0
M  V30 6362 H 620.721 1.59801 3.84408 0
M  V30 6363 H 621.254 2.88662 2.73714 0
M  V30 6364 H 617.993 5.87994 2.89729 0
M  V30 6365 H 617.513 4.52187 3.94065 0
M  V30 6366 H 619.192 5.11591 3.96085 0
M  V30 6367 N 619.324 -0.923095 1.27737 0
M  V30 6368 C 620.735 -1.48626 1.12993 0
M  V30 6369 C 621.086 -1.94142 -0.283439 0
M  V30 6370 O 620.211 -1.81605 -1.17681 0
M  V30 6371 C 620.806 -2.70117 2.04505 0
M  V30 6372 C 619.365 -3.22642 1.93853 0
M  V30 6373 C 618.512 -1.95368 1.96791 0
M  V30 6374 H 621.463 -0.736737 1.40563 0
M  V30 6375 H 621.484 -3.4506 1.60356 0
M  V30 6376 H 620.996 -2.36959 3.07363 0
M  V30 6377 H 619.097 -3.60549 0.939968 0
M  V30 6378 H 619.21 -3.88525 2.80331 0
M  V30 6379 H 617.574 -2.12061 1.41076 0
M  V30 6380 H 618.357 -1.64517 3.01312 0
M  V30 6381 N 620.802 -1.09834 -1.13024 0
M  V30 6382 C 622.05 -0.835297 -1.8403 0
M  V30 6383 C 622.371 0.640944 -1.84165 0
M  V30 6384 O 621.641 1.46517 -1.30037 0
M  V30 6385 H 620.221 -0.306018 -0.681441 0
M  V30 6386 H 622.883 -1.38734 -1.36891 0
M  V30 6387 H 621.979 -1.19258 -2.88416 0
M  V30 6388 N 622.28 1.30327 -0.886154 0
M  V30 6389 C 623.227 2.28099 -0.352069 0
M  V30 6390 C 624.197 1.56433 0.558397 0
M  V30 6391 O 625.382 1.84492 0.486561 0
M  V30 6392 C 622.522 3.42456 0.426346 0
M  V30 6393 C 621.635 4.28938 -0.513472 0
M  V30 6394 C 620.77 5.30458 0.280657 0
M  V30 6395 C 619.809 6.0859 -0.654556 0
M  V30 6396 N 618.946 7.02022 0.104322 0
M  V30 6397 H 623.786 2.73166 -1.19097 0
M  V30 6398 H 621.323 1.34367 -0.598662 0
M  V30 6399 H 623.281 4.07518 0.893587 0
M  V30 6400 H 621.911 2.98455 1.22981 0
M  V30 6401 H 620.963 3.64173 -1.09921 0
M  V30 6402 H 622.275 4.83399 -1.2299 0
M  V30 6403 H 621.429 6.01273 0.8097 0
M  V30 6404 H 620.168 4.76693 1.03029 0
M  V30 6405 H 619.173 5.36651 -1.19522 0
M  V30 6406 H 620.398 6.64443 -1.4033 0
M  V30 6407 H 618.344 6.50645 0.836472 0
M  V30 6408 H 618.261 7.53979 -0.552453 0
M  V30 6409 H 619.529 7.77077 0.614069 0
M  V30 6410 N 623.758 0.647228 1.43697 0
M  V30 6411 C 624.668 -0.0487997 2.34549 0
M  V30 6412 C 625.684 -0.818586 1.53542 0
M  V30 6413 O 626.86 -0.767195 1.86215 0
M  V30 6414 C 623.925 -1.00734 3.31743 0
M  V30 6415 C 622.986 -0.23515 4.28655 0
M  V30 6416 C 622.219 -1.14803 5.21206 0
M  V30 6417 O 622.442 -2.38717 5.18045 0
M  V30 6418 O 621.376 -0.623667 5.9866 0
M  V30 6419 H 625.202 0.698863 2.9555 0
M  V30 6420 H 622.787 0.407412 1.43738 0
M  V30 6421 H 624.669 -1.55837 3.91526 0
M  V30 6422 H 623.344 -1.73534 2.73254 0
M  V30 6423 H 622.251 0.359319 3.7237 0
M  V30 6424 H 623.584 0.453152 4.9011 0
M  V30 6425 N 625.236 -1.5273 0.388769 0
M  V30 6426 C 626.146 -2.30165 -0.453993 0
M  V30 6427 C 627.162 -1.37058 -1.07197 0
M  V30 6428 O 628.338 -1.70127 -1.0779 0
M  V30 6429 C 625.403 -3.09303 -1.56628 0
M  V30 6430 C 624.464 -4.18117 -0.973467 0
M  V30 6431 C 623.697 -4.93472 -2.03275 0
M  V30 6432 O 623.92 -4.68913 -3.24772 0
M  V30 6433 O 622.854 -5.78833 -1.65034 0
M  V30 6434 H 626.68 -3.03185 0.176816 0
M  V30 6435 H 624.265 -1.4862 0.152501 0
M  V30 6436 H 626.147 -3.58648 -2.21246 0
M  V30 6437 H 624.822 -2.39098 -2.18206 0
M  V30 6438 H 623.729 -3.7297 -0.290556 0
M  V30 6439 H 625.062 -4.90556 -0.401908 0
M  V30 6440 N 626.714 -0.118576 -1.57153 0
M  V30 6441 C 627.961 0.539526 -1.9518 0
M  V30 6442 C 628.289 1.66714 -1.00184 0
M  V30 6443 O 627.544 1.95683 -0.0256482 0
M  V30 6444 C 627.843 1.11303 -3.39627 0
M  V30 6445 C 627.509 0.106809 -4.50773 0
M  V30 6446 C 626.171 -0.169876 -4.809 0
M  V30 6447 C 628.523 -0.57895 -5.17975 0
M  V30 6448 C 625.851 -1.13861 -5.75545 0
M  V30 6449 C 628.203 -1.53631 -6.13661 0
M  V30 6450 C 626.867 -1.82099 -6.42181 0
M  V30 6451 H 626.137 0.197427 -0.714215 0
M  V30 6452 H 628.784 -0.199391 -1.90459 0
M  V30 6453 H 627.089 1.92869 -3.4104 0
M  V30 6454 H 628.786 1.63032 -3.66363 0
M  V30 6455 H 625.376 0.332645 -4.27307 0
M  V30 6456 H 629.56 -0.378359 -4.94856 0
M  V30 6457 H 624.816 -1.36592 -5.95947 0
M  V30 6458 H 628.99 -2.07337 -6.64819 0
M  V30 6459 H 626.617 -2.57319 -7.15326 0
M  V30 6460 N 628.193 1.56834 0.155195 0
M  V30 6461 C 629.423 1.86778 0.883044 0
M  V30 6462 C 629.831 0.703824 1.75622 0
M  V30 6463 O 629.174 -0.33581 1.80605 0
M  V30 6464 C 629.236 3.1133 1.79761 0
M  V30 6465 C 628.9 4.43504 1.10242 0
M  V30 6466 C 629.897 5.17859 0.460204 0
M  V30 6467 C 627.582 4.90233 1.09437 0
M  V30 6468 C 629.576 6.37144 -0.180782 0
M  V30 6469 C 627.263 6.09444 0.449569 0
M  V30 6470 C 628.261 6.82744 -0.186888 0
M  V30 6471 O 627.949 7.99692 -0.821486 0
M  V30 6472 H 627.681 0.62352 0.261149 0
M  V30 6473 H 630.235 2.04813 0.155204 0
M  V30 6474 H 628.465 2.89282 2.56618 0
M  V30 6475 H 630.154 3.27587 2.39669 0
M  V30 6476 H 630.92 4.8283 0.458289 0
M  V30 6477 H 626.799 4.33109 1.57917 0
M  V30 6478 H 630.343 6.94296 -0.678154 0
M  V30 6479 H 626.24 6.43936 0.449123 0
M  V30 6480 H 627.008 8.15306 -0.722337 0
M  V30 6481 N 629.671 -0.424282 1.51781 0
M  V30 6482 C 630.581 -1.54087 1.76902 0
M  V30 6483 C 631.597 -1.61249 0.653826 0
M  V30 6484 O 632.773 -1.78247 0.937552 0
M  V30 6485 C 629.838 -2.8996 1.90063 0
M  V30 6486 C 628.899 -2.92809 3.13945 0
M  V30 6487 C 628.132 -4.22201 3.26469 0
M  V30 6488 O 628.355 -5.15286 2.44616 0
M  V30 6489 O 627.289 -4.31599 4.1953 0
M  V30 6490 H 631.115 -1.358 2.71647 0
M  V30 6491 H 628.7 -0.608618 1.36441 0
M  V30 6492 H 630.582 -3.70575 2.0063 0
M  V30 6493 H 629.257 -3.08347 0.985067 0
M  V30 6494 H 628.164 -2.11102 3.08847 0
M  V30 6495 H 629.497 -2.79369 4.05233 0
M  V30 6496 N 631.149 -1.42148 -0.680565 0
M  V30 6497 C 632.377 -1.45696 -1.46902 0
M  V30 6498 C 632.792 -0.0665858 -1.88683 0
M  V30 6499 O 632.149 0.917436 -1.57764 0
M  V30 6500 C 632.2 -2.37898 -2.72188 0
M  V30 6501 O 631.921 -3.71526 -2.32163 0
M  V30 6502 C 633.422 -2.50407 -3.65802 0
M  V30 6503 H 630.642 -0.495729 -0.45221 0
M  V30 6504 H 633.186 -1.866 -0.836709 0
M  V30 6505 H 631.341 -2.00263 -3.31622 0
M  V30 6506 H 631.755 -4.20849 -3.13027 0
M  V30 6507 H 633.229 -3.19056 -4.50452 0
M  V30 6508 H 633.706 -1.5401 -4.11312 0
M  V30 6509 H 634.312 -2.8874 -3.12265 0
M  V30 6510 N 632.627 0.916307 -1.28225 0
M  V30 6511 C 633.557 2.0352 -1.14464 0
M  V30 6512 C 634.538 1.70045 -0.0430844 0
M  V30 6513 O 635.723 1.92954 -0.219619 0
M  V30 6514 C 632.853 3.37889 -0.803027 0
M  V30 6515 C 631.807 3.85516 -1.85908 0
M  V30 6516 C 631.133 5.1682 -1.37116 0
M  V30 6517 C 632.433 4.07655 -3.26519 0
M  V30 6518 H 634.127 2.1529 -2.08064 0
M  V30 6519 H 631.673 1.03446 -1.00174 0
M  V30 6520 H 633.626 4.15654 -0.693537 0
M  V30 6521 H 632.35 3.26164 0.168674 0
M  V30 6522 H 631.009 3.09953 -1.95767 0
M  V30 6523 H 630.657 5.01497 -0.38859 0
M  V30 6524 H 630.357 5.49657 -2.07728 0
M  V30 6525 H 631.881 5.97143 -1.27484 0
M  V30 6526 H 633.295 4.75953 -3.19596 0
M  V30 6527 H 631.692 4.51818 -3.94943 0
M  V30 6528 H 632.762 3.12553 -3.70727 0
M  V30 6529 N 634.105 1.10431 1.1244 0
M  V30 6530 C 635.521 0.836096 1.35947 0
M  V30 6531 C 635.721 -0.544475 1.94004 0
M  V30 6532 O 634.777 -1.29735 2.16622 0
M  V30 6533 C 636.09 1.93575 2.30107 0
M  V30 6534 C 637.638 1.9642 2.43697 0
M  V30 6535 C 638.113 3.05559 3.41171 0
M  V30 6536 N 639.604 3.04865 3.48728 0
M  V30 6537 C 640.339 3.85954 4.24061 0
M  V30 6538 N 639.835 4.76977 5.02458 0
M  V30 6539 N 641.628 3.74172 4.19466 0
M  V30 6540 H 633.779 1.9942 0.731124 0
M  V30 6541 H 636.042 0.866607 0.384312 0
M  V30 6542 H 635.748 2.92943 1.94621 0
M  V30 6543 H 635.622 1.8229 3.30227 0
M  V30 6544 H 638.009 0.97685 2.78463 0
M  V30 6545 H 638.09 2.11782 1.43465 0
M  V30 6546 H 637.734 4.04513 3.07135 0
M  V30 6547 H 637.664 2.87438 4.41234 0
M  V30 6548 H 640.155 2.38908 2.92799 0
M  V30 6549 H 640.468 5.35409 5.57277 0
M  V30 6550 H 638.813 4.81006 5.01655 0
M  V30 6551 H 642.004 3.02412 3.57302 0
M  V30 6552 H 642.177 4.37602 4.77921 0
M  V30 6553 N 635.583 -1.29855 0.893053 0
M  V30 6554 C 636.813 -1.99686 0.530019 0
M  V30 6555 C 637.221 -1.67066 -0.888012 0
M  V30 6556 O 636.564 -0.908366 -1.5967 0
M  V30 6557 C 636.626 -3.53855 0.63457 0
M  V30 6558 C 636.29 -4.10013 2.01837 0
M  V30 6559 C 637.287 -4.25406 2.98874 0
M  V30 6560 C 634.972 -4.45202 2.32595 0
M  V30 6561 C 636.966 -4.7521 4.24799 0
M  V30 6562 C 634.653 -4.94704 3.58763 0
M  V30 6563 C 635.651 -5.09662 4.5468 0
M  V30 6564 O 635.339 -5.58093 5.78608 0
M  V30 6565 H 635.071 -0.644913 0.20264 0
M  V30 6566 H 637.625 -1.66518 1.20253 0
M  V30 6567 H 635.855 -3.86583 -0.0949477 0
M  V30 6568 H 637.544 -4.04922 0.281648 0
M  V30 6569 H 638.31 -3.98515 2.76425 0
M  V30 6570 H 634.189 -4.32822 1.58701 0
M  V30 6571 H 637.733 -4.86801 4.99671 0
M  V30 6572 H 633.63 -5.21032 3.81046 0
M  V30 6573 H 634.398 -5.7642 5.81104 0
M  V30 6574 N 637.061 -0.65484 -1.43351 0
M  V30 6575 C 638.291 -0.176429 -2.05845 0
M  V30 6576 C 638.699 1.16375 -1.49176 0
M  V30 6577 O 638.042 1.72981 -0.618322 0
M  V30 6578 C 638.104 -0.0125844 -3.59498 0
M  V30 6579 C 637.768 -1.27831 -4.38758 0
M  V30 6580 C 638.765 -2.2074 -4.70712 0
M  V30 6581 C 636.45 -1.52035 -4.78739 0
M  V30 6582 C 638.444 -3.36145 -5.41558 0
M  V30 6583 C 636.131 -2.67732 -5.49329 0
M  V30 6584 C 637.129 -3.59612 -5.80662 0
M  V30 6585 O 636.817 -4.73289 -6.4981 0
M  V30 6586 H 636.549 -0.0879682 -0.670252 0
M  V30 6587 H 639.103 -0.896193 -1.84818 0
M  V30 6588 H 637.333 0.762567 -3.79107 0
M  V30 6589 H 639.022 0.423392 -4.03686 0
M  V30 6590 H 639.788 -2.03284 -4.40341 0
M  V30 6591 H 635.667 -0.813987 -4.53757 0
M  V30 6592 H 639.211 -4.07881 -5.65932 0
M  V30 6593 H 635.108 -2.85122 -5.79116 0
M  V30 6594 H 635.876 -4.72575 -6.68293 0
M  V30 6595 N 638.539 1.52521 -0.396863 0
M  V30 6596 C 639.955 1.5953 -0.0471659 0
M  V30 6597 C 640.155 1.41044 1.43906 0
M  V30 6598 O 639.211 1.23122 2.20448 0
M  V30 6599 C 640.524 2.95972 -0.531113 0
M  V30 6600 C 642.072 3.09172 -0.488024 0
M  V30 6601 C 642.547 4.48075 -0.948281 0
M  V30 6602 N 644.038 4.54281 -0.9046 0
M  V30 6603 C 644.773 5.60007 -1.23205 0
M  V30 6604 N 644.269 6.73343 -1.63036 0
M  V30 6605 N 646.062 5.50151 -1.15282 0
M  V30 6606 H 638.213 1.62786 -1.36435 0
M  V30 6607 H 640.476 0.76514 -0.559701 0
M  V30 6608 H 640.182 3.14741 -1.56942 0
M  V30 6609 H 640.056 3.77143 0.0657922 0
M  V30 6610 H 642.443 2.90095 0.541211 0
M  V30 6611 H 642.524 2.29937 -1.12083 0
M  V30 6612 H 642.168 4.67894 -1.97578 0
M  V30 6613 H 642.098 5.25788 -0.292412 0
M  V30 6614 H 644.589 3.72918 -0.6116 0
M  V30 6615 H 644.902 7.49992 -1.86365 0
M  V30 6616 H 643.247 6.74655 -1.66929 0
M  V30 6617 H 646.438 4.6049 -0.840602 0
M  V30 6618 H 646.611 6.32444 -1.41133 0
M  V30 6619 N 640.017 0.126909 1.57088 0
M  V30 6620 C 641.433 -0.229641 1.57939 0
M  V30 6621 C 641.633 -1.66145 1.1401 0
M  V30 6622 O 640.689 -2.3843 0.831119 0
M  V30 6623 C 642.002 0.0108648 3.00698 0
M  V30 6624 C 643.55 -0.054418 3.12953 0
M  V30 6625 C 644.025 0.158497 4.57726 0
M  V30 6626 N 645.516 0.104735 4.63082 0
M  V30 6627 C 646.251 0.24427 5.72879 0
M  V30 6628 N 645.747 0.440415 6.91399 0
M  V30 6629 N 647.54 0.183286 5.61801 0
M  V30 6630 H 639.691 1.06203 1.83942 0
M  V30 6631 H 641.954 0.418834 0.85046 0
M  V30 6632 H 641.66 1.00102 3.37154 0
M  V30 6633 H 641.534 -0.717512 3.70313 0
M  V30 6634 H 643.921 -1.0351 2.7635 0
M  V30 6635 H 644.002 0.705967 2.45865 0
M  V30 6636 H 643.646 1.13619 4.95028 0
M  V30 6637 H 643.576 -0.62197 5.22914 0
M  V30 6638 H 646.067 -0.0430298 3.77876 0
M  V30 6639 H 646.38 0.537536 7.70928 0
M  V30 6640 H 644.725 0.476488 6.93365 0
M  V30 6641 H 647.916 0.0309561 4.6809 0
M  V30 6642 H 648.089 0.295471 6.47326 0
M  V30 6643 N 641.495 -1.56914 -0.146875 0
M  V30 6644 C 642.428 -1.93425 -1.21087 0
M  V30 6645 C 643.406 -0.800106 -1.41552 0
M  V30 6646 O 644.59 -1.05572 -1.56162 0
M  V30 6647 C 641.717 -2.20639 -2.56975 0
M  V30 6648 C 640.763 -3.43279 -2.53104 0
M  V30 6649 S 641.596 -4.96836 -1.99786 0
M  V30 6650 C 642.752 -5.27172 -3.37403 0
M  V30 6651 H 642.985 -2.8337 -0.899378 0
M  V30 6652 H 640.518 -1.50322 -0.352494 0
M  V30 6653 H 642.476 -2.36998 -3.35175 0
M  V30 6654 H 641.137 -1.31357 -2.85314 0
M  V30 6655 H 640.33 -3.59599 -3.53136 0
M  V30 6656 H 639.932 -3.26163 -1.83012 0
M  V30 6657 H 642.224 -5.20647 -4.33513 0
M  V30 6658 H 643.167 -6.28626 -3.25937 0
M  V30 6659 H 643.575 -4.54687 -3.34544 0
M  V30 6660 N 642.974 0.416227 -1.52004 0
M  V30 6661 C 644.223 1.16088 -1.64944 0
M  V30 6662 C 644.536 1.91835 -0.381928 0
M  V30 6663 O 645.742 2.6867 -0.391013 0
M  V30 6664 C 644.198 2.1124 -2.91386 0
M  V30 6665 C 643.806 1.41042 -4.25219 0
M  V30 6666 C 645.55 2.86008 -3.13688 0
M  V30 6667 C 643.457 2.34801 -5.42791 0
M  V30 6668 H 642.387 0.437041 -0.61442 0
M  V30 6669 H 645.038 0.425971 -1.78487 0
M  V30 6670 H 643.42 2.88254 -2.71525 0
M  V30 6671 H 644.594 0.694416 -4.55538 0
M  V30 6672 H 642.909 0.78344 -4.08964 0
M  V30 6673 H 645.506 3.56286 -3.98703 0
M  V30 6674 H 645.849 3.48556 -2.27628 0
M  V30 6675 H 646.382 2.16095 -3.33988 0
M  V30 6676 H 643.121 1.7691 -6.31176 0
M  V30 6677 H 642.641 3.04395 -5.16821 0
M  V30 6678 H 644.32 2.9548 -5.75587 0
M  V30 6679 N 644.452 1.42507 0.673017 0
M  V30 6680 C 645.362 1.4853 1.81593 0
M  V30 6681 C 646.378 0.373907 1.69935 0
M  V30 6682 O 647.554 0.625078 1.91454 0
M  V30 6683 C 644.619 1.387 3.17747 0
M  V30 6684 C 643.68 2.60346 3.41348 0
M  V30 6685 C 642.913 2.50975 4.71007 0
M  V30 6686 O 643.136 1.54659 5.49033 0
M  V30 6687 O 642.07 3.41138 4.95892 0
M  V30 6688 H 645.896 2.45001 1.79467 0
M  V30 6689 H 643.481 1.2429 0.82899 0
M  V30 6690 H 645.363 1.35586 3.98992 0
M  V30 6691 H 644.038 0.453555 3.20507 0
M  V30 6692 H 642.945 2.69034 2.59945 0
M  V30 6693 H 644.278 3.52595 3.43421 0
M  V30 6694 N 645.93 -0.909495 1.28709 0
M  V30 6695 C 647.176 -1.66151 1.16283 0
M  V30 6696 C 647.509 -1.92067 -0.287069 0
M  V30 6697 O 646.784 -1.52409 -1.20837 0
M  V30 6698 C 647.067 -3.01676 1.9663 0
M  V30 6699 C 646.92 -2.82888 3.49707 0
M  V30 6700 C 648.239 -4.02274 1.78504 0
M  V30 6701 H 645.358 -0.602966 0.423793 0
M  V30 6702 H 648 -1.05418 1.58073 0
M  V30 6703 H 646.15 -3.53515 1.61119 0
M  V30 6704 H 647.822 -2.38026 3.95147 0
M  V30 6705 H 646.065 -2.17862 3.75125 0
M  V30 6706 H 646.736 -3.79147 4.01187 0
M  V30 6707 H 649.212 -3.59511 2.09503 0
M  V30 6708 H 648.088 -4.95056 2.37088 0
M  V30 6709 H 648.349 -4.35903 0.737647 0
M  V30 6710 N 647.408 -1.11026 -1.11852 0
M  V30 6711 C 648.636 -0.878818 -1.87308 0
M  V30 6712 C 649.051 0.57111 -1.79955 0
M  V30 6713 O 648.408 1.39409 -1.17777 0
M  V30 6714 C 648.459 -1.3264 -3.36287 0
M  V30 6715 O 648.18 -2.71948 -3.43476 0
M  V30 6716 C 649.681 -1.12974 -4.28663 0
M  V30 6717 H 646.901 -0.315015 -0.592458 0
M  V30 6718 H 649.445 -1.47649 -1.41492 0
M  V30 6719 H 647.6 -0.772269 -3.79625 0
M  V30 6720 H 648.014 -2.91241 -4.3621 0
M  V30 6721 H 649.488 -1.49198 -5.31454 0
M  V30 6722 H 649.965 -0.0689127 -4.39146 0
M  V30 6723 H 650.571 -1.67064 -3.91113 0
M  V30 6724 N 648.886 1.2938 -0.899927 0
M  V30 6725 C 650.134 1.95164 -0.524924 0
M  V30 6726 C 650.455 1.71292 0.931888 0
M  V30 6727 O 649.725 1.04481 1.65712 0
M  V30 6728 H 648.305 0.722133 -0.191135 0
M  V30 6729 H 650.967 1.57628 -1.14627 0
M  V30 6730 H 650.063 3.0397 -0.707711 0
M  V30 6731 N 650.364 0.662433 1.43002 0
M  V30 6732 C 651.61 0.179857 2.02001 0
M  V30 6733 C 651.943 -1.20625 1.52195 0
M  V30 6734 O 651.218 -1.80726 0.718911 0
M  V30 6735 C 651.501 0.200845 3.59539 0
M  V30 6736 C 651.354 1.62153 4.19555 0
M  V30 6737 C 652.673 -0.457738 4.37713 0
M  V30 6738 H 649.792 0.0668305 0.733964 0
M  V30 6739 H 652.434 0.84487 1.70182 0
M  V30 6740 H 650.584 -0.365411 3.86778 0
M  V30 6741 H 652.256 2.23908 4.03315 0
M  V30 6742 H 650.499 2.16601 3.75854 0
M  V30 6743 H 651.17 1.58799 5.28665 0
M  V30 6744 H 653.646 0.0241495 4.16093 0
M  V30 6745 H 652.522 -0.412363 5.47349 0
M  V30 6746 H 652.783 -1.53336 4.14657 0
M  V30 6747 N 651.842 -1.52309 0.404946 0
M  V30 6748 C 653.07 -2.06185 -0.171818 0
M  V30 6749 C 653.485 -1.27536 -1.39212 0
M  V30 6750 O 652.842 -0.326112 -1.79563 0
M  V30 6751 C 652.893 -3.57647 -0.526417 0
M  V30 6752 O 652.614 -4.3332 0.645417 0
M  V30 6753 C 654.115 -4.27925 -1.15736 0
M  V30 6754 H 651.335 -0.670632 -0.0222328 0
M  V30 6755 H 653.879 -1.96259 0.574692 0
M  V30 6756 H 652.034 -3.67595 -1.22282 0
M  V30 6757 H 652.448 -5.23328 0.35042 0
M  V30 6758 H 653.922 -5.35093 -1.35572 0
M  V30 6759 H 654.399 -3.84134 -2.12926 0
M  V30 6760 H 655.005 -4.22335 -0.501281 0
M  V30 6761 N 653.32 -0.135238 -1.57019 0
M  V30 6762 C 654.25 0.805235 -2.19176 0
M  V30 6763 C 655.231 1.2656 -1.13651 0
M  V30 6764 O 656.416 1.32528 -1.4195 0
M  V30 6765 C 653.546 2.04914 -2.80406 0
M  V30 6766 C 652.5 1.72598 -3.91655 0
M  V30 6767 C 651.826 3.04154 -4.39766 0
M  V30 6768 C 653.126 0.981709 -5.12991 0
M  V30 6769 H 654.82 0.287232 -2.98019 0
M  V30 6770 H 652.366 0.136714 -1.4335 0
M  V30 6771 H 654.319 2.71178 -3.22553 0
M  V30 6772 H 653.043 2.59067 -1.98877 0
M  V30 6773 H 651.702 1.08717 -3.50109 0
M  V30 6774 H 651.35 3.56274 -3.55075 0
M  V30 6775 H 651.05 2.83299 -5.14796 0
M  V30 6776 H 652.574 3.71509 -4.84576 0
M  V30 6777 H 653.988 1.5462 -5.52056 0
M  V30 6778 H 652.385 0.873533 -5.93708 0
M  V30 6779 H 653.455 -0.0286887 -4.84892 0
M  V30 6780 N 654.798 1.5699 0.138552 0
M  V30 6781 C 655.745 1.98899 1.17081 0
M  V30 6782 C 656.715 0.857922 1.42228 0
M  V30 6783 O 657.9 1.12065 1.54422 0
M  V30 6784 C 655.04 2.38189 2.4972 0
M  V30 6785 C 654.153 3.64624 2.31674 0
M  V30 6786 C 653.288 3.9298 3.57407 0
M  V30 6787 C 652.327 5.1266 3.34435 0
M  V30 6788 N 651.464 5.36983 4.5232 0
M  V30 6789 H 656.304 2.86881 0.80642 0
M  V30 6790 H 653.841 1.41925 0.386727 0
M  V30 6791 H 655.799 2.59 3.2707 0
M  V30 6792 H 654.429 1.53275 2.84089 0
M  V30 6793 H 653.481 3.51542 1.45337 0
M  V30 6794 H 654.793 4.52131 2.10664 0
M  V30 6795 H 653.947 4.14335 4.43183 0
M  V30 6796 H 652.686 3.03912 3.8143 0
M  V30 6797 H 651.691 4.9117 2.47048 0
M  V30 6798 H 652.916 6.03288 3.11802 0
M  V30 6799 H 650.862 4.50871 4.76499 0
M  V30 6800 H 650.779 6.18775 4.34343 0
M  V30 6801 H 652.047 5.62842 5.39285 0
M  V30 6802 N 656.276 -0.40816 1.52223 0
M  V30 6803 C 657.206 -1.5042 1.78595 0
M  V30 6804 C 658.187 -1.57723 0.636974 0
M  V30 6805 O 659.372 -1.72982 0.882664 0
M  V30 6806 C 656.502 -2.88232 1.93751 0
M  V30 6807 C 655.456 -2.95779 3.09352 0
M  V30 6808 C 654.782 -4.35855 3.09732 0
M  V30 6809 C 656.082 -2.67175 4.48793 0
M  V30 6810 H 657.776 -1.28601 2.70374 0
M  V30 6811 H 655.322 -0.617221 1.30101 0
M  V30 6812 H 657.275 -3.64895 2.10783 0
M  V30 6813 H 655.999 -3.11347 0.986443 0
M  V30 6814 H 654.658 -2.21561 2.92072 0
M  V30 6815 H 654.306 -4.55981 2.12346 0
M  V30 6816 H 654.006 -4.41829 3.87377 0
M  V30 6817 H 655.53 -5.14451 3.28895 0
M  V30 6818 H 656.944 -3.3356 4.66273 0
M  V30 6819 H 655.341 -2.84523 5.28362 0
M  V30 6820 H 656.411 -1.62609 4.56822 0
M  V30 6821 N 657.755 -1.42862 -0.66545 0
M  V30 6822 C 658.703 -1.47319 -1.8 0
M  V30 6823 C 659.697 -0.347963 -1.65788 0
M  V30 6824 O 660.903 -0.521406 -1.72283 0
M  V30 6825 H 657.278 -0.461588 -0.593667 0
M  V30 6826 H 659.249 -2.42876 -1.7336 0
M  V30 6827 C 657.998 -1.40152 -3.18203 0
M  V30 6828 H 657.321 -2.26035 -3.2977 0
M  V30 6829 H 658.761 -1.47331 -3.9758 0
M  V30 6830 C 657.22 -0.117493 -3.36695 0
M  V30 6831 O 657.75 0.826058 -3.93115 0
M  V30 6832 N 655.956 -0.0316218 -2.90583 0
M  V30 6833 H 655.503 -0.800247 -2.44855 0
M  V30 6834 H 655.461 0.826835 -3.03333 0
M  V30 6835 N 659.233 0.902656 -1.29189 0
M  V30 6836 C 660.183 1.99326 -1.10695 0
M  V30 6837 C 661.167 1.60877 -0.0272521 0
M  V30 6838 O 662.359 1.75245 -0.248635 0
M  V30 6839 C 659.488 3.34265 -0.78244 0
M  V30 6840 C 658.574 3.79081 -1.90153 0
M  V30 6841 N 658.965 3.96162 -3.14466 0
M  V30 6842 C 657.263 4.08333 -1.79389 0
M  V30 6843 C 657.964 4.3388 -3.87458 0
M  V30 6844 N 656.94 4.42759 -3.15381 0
M  V30 6845 H 660.742 2.10597 -2.05003 0
M  V30 6846 H 658.256 1.09127 -1.20271 0
M  V30 6847 H 660.253 4.12097 -0.630996 0
M  V30 6848 H 658.913 3.2434 0.152754 0
M  V30 6849 H 659.924 3.81775 -3.49954 0
M  V30 6850 H 656.601 4.06982 -0.931217 0
M  V30 6851 H 657.991 4.54965 -4.94425 0
M  V30 6852 N 660.711 1.11618 1.11262 0
M  V30 6853 C 661.939 0.888739 1.8684 0
M  V30 6854 C 662.354 -0.561558 1.80255 0
M  V30 6855 O 661.711 -1.38782 1.18515 0
M  V30 6856 C 661.762 1.34422 3.35579 0
M  V30 6857 O 661.483 2.73766 3.42029 0
M  V30 6858 C 662.984 1.15246 4.28058 0
M  V30 6859 H 660.204 0.318152 0.590779 0
M  V30 6860 H 662.748 1.48398 1.40707 0
M  V30 6861 H 660.903 0.79239 3.7921 0
M  V30 6862 H 661.317 2.9355 4.34659 0
M  V30 6863 H 662.791 1.52015 5.30656 0
M  V30 6864 H 663.268 0.0922007 4.39103 0
M  V30 6865 H 663.874 1.69136 3.90222 0
M  V30 6866 N 662.189 -1.289 0.906776 0
M  V30 6867 C 663.435 -1.95558 0.53712 0
M  V30 6868 C 663.768 -1.71262 -0.915582 0
M  V30 6869 O 663.043 -1.02961 -1.65013 0
M  V30 6870 C 663.326 -3.50198 0.838645 0
M  V30 6871 C 663.179 -3.83923 2.34357 0
M  V30 6872 C 664.498 -4.38861 0.329988 0
M  V30 6873 H 661.617 -0.710289 0.196617 0
M  V30 6874 H 664.259 -1.52392 1.13475 0
M  V30 6875 H 662.409 -3.87096 0.330024 0
M  V30 6876 H 664.081 -3.56933 2.92227 0
M  V30 6877 H 662.324 -3.31215 2.80141 0
M  V30 6878 H 662.995 -4.91883 2.5051 0
M  V30 6879 H 665.471 -4.08996 0.765609 0
M  V30 6880 H 664.347 -5.45931 0.570105 0
M  V30 6881 H 664.608 -4.35352 -0.769511 0
M  V30 6882 N 663.667 -0.670007 -1.42649 0
M  V30 6883 C 664.895 -0.19854 -2.05945 0
M  V30 6884 C 665.31 1.14243 -1.50313 0
M  V30 6885 O 664.667 1.70872 -0.641027 0
M  V30 6886 C 664.718 -0.11966 -3.61302 0
M  V30 6887 O 664.439 -1.40764 -4.1487 0
M  V30 6888 C 665.94 0.375878 -4.41704 0
M  V30 6889 H 663.16 -0.0976894 -0.663851 0
M  V30 6890 H 665.704 -0.915392 -1.82868 0
M  V30 6891 H 663.859 0.547851 -3.83507 0
M  V30 6892 H 664.273 -1.27784 -5.08696 0
M  V30 6893 H 665.747 0.379988 -5.50691 0
M  V30 6894 H 666.224 1.41028 -4.15942 0
M  V30 6895 H 666.83 -0.259727 -4.24506 0
M  V30 6896 N 665.145 1.52092 -0.413018 0
M  V30 6897 C 666.108 2.25706 0.398687 0
M  V30 6898 C 667.108 1.28221 0.970368 0
M  V30 6899 O 668.298 1.52131 0.848635 0
M  V30 6900 C 665.43 3.03029 1.5616 0
M  V30 6901 H 666.623 2.98888 -0.246131 0
M  V30 6902 H 664.176 1.5542 -0.165622 0
M  V30 6903 H 664.911 2.34205 2.24317 0
M  V30 6904 H 664.696 3.74606 1.15812 0
M  V30 6905 H 666.186 3.58857 2.13569 0
M  V30 6906 N 666.623 0.143563 1.56945 0
M  V30 6907 C 667.9 -0.553285 1.87612 0
M  V30 6908 C 668.28 -1.83195 1.04894 0
M  V30 6909 O 667.628 -2.28102 0.134773 0
M  V30 6910 C 667.838 -0.822055 3.3918 0
M  V30 6911 C 669.186 -1.16435 4.08324 0
M  V30 6912 O 670.21 -0.911522 3.4434 0
M  V30 6913 O 669.069 -1.63996 5.21313 0
M  V30 6914 H 666.163 -0.281851 0.777489 0
M  V30 6915 H 668.709 0.179916 1.68744 0
M  V30 6916 H 667.481 0.0830265 3.91212 0
M  V30 6917 H 667.104 -1.60956 3.63564 0
M  V30 6918 N 668.101 -1.57061 -0.130224 0
M  V30 6919 C 669.033 -1.96147 -1.18571 0
M  V30 6920 C 670.046 -0.859347 -1.38272 0
M  V30 6921 O 671.235 -1.13769 -1.37545 0
M  V30 6922 C 668.335 -2.23484 -2.54771 0
M  V30 6923 C 667.508 -3.54786 -2.55824 0
M  V30 6924 C 666.567 -3.70467 -3.73686 0
M  V30 6925 O 665.593 -4.42693 -3.57787 0
M  V30 6926 N 666.795 -3.08389 -4.91809 0
M  V30 6927 H 669.56 -2.87295 -0.853333 0
M  V30 6928 H 667.121 -1.58714 -0.319621 0
M  V30 6929 H 669.113 -2.312 -3.32158 0
M  V30 6930 H 667.683 -1.38518 -2.80235 0
M  V30 6931 H 666.903 -3.5836 -1.64232 0
M  V30 6932 H 668.191 -4.4111 -2.53573 0
M  V30 6933 H 667.589 -2.49656 -5.0763 0
M  V30 6934 H 666.146 -3.21642 -5.66912 0
M  V30 6935 N 669.579 0.400081 -1.52437 0
M  V30 6936 C 670.509 1.4947 -1.7939 0
M  V30 6937 C 671.49 1.57383 -0.645329 0
M  V30 6938 O 672.675 1.72511 -0.891826 0
M  V30 6939 C 669.805 2.87201 -1.95276 0
M  V30 6940 C 668.759 2.94134 -3.10917 0
M  V30 6941 C 668.085 4.34207 -3.1204 0
M  V30 6942 C 669.385 2.64791 -4.50203 0
M  V30 6943 H 671.079 1.27165 -2.71052 0
M  V30 6944 H 668.625 0.610312 -1.30427 0
M  V30 6945 H 670.578 3.63772 -2.12715 0
M  V30 6946 H 669.302 3.10819 -1.00294 0
M  V30 6947 H 667.961 2.20009 -2.93243 0
M  V30 6948 H 667.609 4.54848 -2.14761 0
M  V30 6949 H 667.309 4.39768 -3.89715 0
M  V30 6950 H 668.833 5.127 -3.31619 0
M  V30 6951 H 670.247 3.31083 -4.68035 0
M  V30 6952 H 668.644 2.81717 -5.29864 0
M  V30 6953 H 669.714 1.60184 -4.57678 0
M  V30 6954 N 671.057 1.43213 0.657864 0
M  V30 6955 C 671.989 1.43974 1.78337 0
M  V30 6956 C 673.002 0.336482 1.59285 0
M  V30 6957 O 674.191 0.600631 1.68091 0
M  V30 6958 C 671.291 1.23242 3.15697 0
M  V30 6959 C 670.464 2.46319 3.61449 0
M  V30 6960 C 669.523 2.2088 4.77597 0
M  V30 6961 O 668.549 2.942 4.87273 0
M  V30 6962 N 669.751 1.22251 5.67481 0
M  V30 6963 H 672.516 2.40993 1.78164 0
M  V30 6964 H 670.077 1.3831 0.841549 0
M  V30 6965 H 672.069 1.04113 3.91079 0
M  V30 6966 H 670.639 0.346849 3.1067 0
M  V30 6967 H 669.859 2.80904 2.76563 0
M  V30 6968 H 671.147 3.28239 3.88763 0
M  V30 6969 H 670.545 0.616433 5.62331 0
M  V30 6970 H 669.102 1.09107 6.42603 0
M  V30 6971 N 672.536 -0.895792 1.29666 0
M  V30 6972 C 673.499 -1.98189 1.15124 0
M  V30 6973 C 674.499 -1.60572 0.0855717 0
M  V30 6974 O 675.689 -1.70991 0.332826 0
M  V30 6975 C 672.821 -3.32289 0.761372 0
M  V30 6976 H 674.014 -2.12518 2.11603 0
M  V30 6977 H 671.567 -1.0808 1.12908 0
M  V30 6978 H 672.302 -3.23662 -0.203393 0
M  V30 6979 H 672.087 -3.60958 1.53139 0
M  V30 6980 H 673.577 -4.1198 0.682792 0
M  V30 6981 N 674.014 -1.12206 -1.10668 0
M  V30 6982 C 675.261 -0.875875 -1.82578 0
M  V30 6983 C 675.589 0.598342 -1.85068 0
M  V30 6984 O 674.844 1.45818 -1.3052 0
M  V30 6985 C 675.143 -1.39276 -3.29146 0
M  V30 6986 C 674.809 -2.8816 -3.46806 0
M  V30 6987 C 673.471 -3.28813 -3.51334 0
M  V30 6988 C 675.823 -3.8401 -3.52399 0
M  V30 6989 C 673.151 -4.64028 -3.59019 0
M  V30 6990 C 675.503 -5.19053 -3.61617 0
M  V30 6991 C 674.167 -5.59252 -3.64408 0
M  V30 6992 H 673.437 -0.320505 -0.6681 0
M  V30 6993 H 676.084 -1.40184 -1.30464 0
M  V30 6994 H 674.389 -0.787207 -3.8381 0
M  V30 6995 H 676.086 -1.17851 -3.83291 0
M  V30 6996 H 672.676 -2.55716 -3.43958 0
M  V30 6997 H 676.86 -3.53698 -3.48154 0
M  V30 6998 H 672.116 -4.94568 -3.59461 0
M  V30 6999 H 676.29 -5.93152 -3.64889 0
M  V30 7000 H 673.917 -6.64017 -3.70116 0
M  V30 7001 N 675.492 1.28418 -0.913599 0
M  V30 7002 C 676.769 1.89977 -0.465619 0
M  V30 7003 C 677.149 1.82813 1.05559 0
M  V30 7004 O 676.497 1.26397 1.90358 0
M  V30 7005 C 676.707 3.34492 -0.995813 0
M  V30 7006 C 678.055 4.11468 -1.04782 0
M  V30 7007 O 679.079 3.43451 -0.944445 0
M  V30 7008 O 677.938 5.33046 -1.20518 0
M  V30 7009 H 675.032 0.813734 -0.147532 0
M  V30 7010 H 677.578 1.36786 -1.00437 0
M  V30 7011 H 676.35 3.33929 -2.03978 0
M  V30 7012 H 675.973 3.95181 -0.437878 0
M  V30 7013 N 676.97 0.677563 1.42291 0
M  V30 7014 C 677.88 0.000962654 2.346 0
M  V30 7015 C 678.896 -0.785833 1.55244 0
M  V30 7016 O 680.072 -0.727523 1.87801 0
M  V30 7017 C 677.137 -0.936746 3.33805 0
M  V30 7018 C 676.198 -0.144173 4.29058 0
M  V30 7019 C 675.431 -1.03722 5.23524 0
M  V30 7020 O 675.654 -2.27675 5.22992 0
M  V30 7021 O 674.588 -0.496542 5.99848 0
M  V30 7022 H 678.414 0.761397 2.94001 0
M  V30 7023 H 675.999 0.43781 1.42841 0
M  V30 7024 H 677.881 -1.47497 3.94744 0
M  V30 7025 H 676.556 -1.67698 2.76874 0
M  V30 7026 H 675.463 0.438224 3.71524 0
M  V30 7027 H 676.796 0.55701 4.89038 0
M  V30 7028 N 678.448 -1.51871 0.421078 0
M  V30 7029 C 679.676 -2.06356 -0.14994 0
M  V30 7030 C 680.091 -1.29006 -1.37851 0
M  V30 7031 O 679.448 -0.345139 -1.79207 0
M  V30 7032 C 679.499 -3.58185 -0.488454 0
M  V30 7033 O 679.22 -4.32611 0.691341 0
M  V30 7034 C 680.721 -4.29129 -1.11191 0
M  V30 7035 H 677.941 -0.67083 -0.0151186 0
M  V30 7036 H 680.485 -1.95638 0.595476 0
M  V30 7037 H 678.64 -3.68871 -1.18376 0
M  V30 7038 H 679.054 -5.22927 0.405906 0
M  V30 7039 H 680.528 -5.36501 -1.29889 0
M  V30 7040 H 681.005 -3.86371 -2.0884 0
M  V30 7041 H 681.611 -4.22843 -0.456458 0
M  V30 7042 N 679.926 -0.151884 -1.56866 0
M  V30 7043 C 681.175 0.497992 -1.95456 0
M  V30 7044 C 681.488 1.6569 -1.03953 0
M  V30 7045 O 682.694 2.37173 -1.32142 0
M  V30 7046 C 681.15 0.93732 -3.4748 0
M  V30 7047 C 680.758 -0.194921 -4.47576 0
M  V30 7048 C 682.502 1.55671 -3.94926 0
M  V30 7049 C 680.409 0.26295 -5.90815 0
M  V30 7050 H 679.339 0.189811 -0.729717 0
M  V30 7051 H 681.99 -0.237011 -1.81963 0
M  V30 7052 H 680.372 1.72773 -3.56322 0
M  V30 7053 H 681.546 -0.971951 -4.50433 0
M  V30 7054 H 679.861 -0.72303 -4.10075 0
M  V30 7055 H 682.458 1.91099 -4.99385 0
M  V30 7056 H 682.801 2.44748 -3.36755 0
M  V30 7057 H 683.334 0.831109 -3.89021 0
M  V30 7058 H 680.073 -0.592568 -6.52816 0
M  V30 7059 H 679.593 1.00575 -5.91308 0
M  V30 7060 H 681.272 0.713333 -6.43056 0
M  V30 7061 N 681.404 1.57128 0.121893 0
M  V30 7062 C 682.334 2.03165 1.15092 0
M  V30 7063 C 683.315 0.915587 1.43356 0
M  V30 7064 O 684.5 1.1851 1.53847 0
M  V30 7065 C 681.63 2.43352 2.47784 0
M  V30 7066 C 680.584 3.58376 2.33989 0
M  V30 7067 C 679.91 3.84454 3.71617 0
M  V30 7068 C 681.21 4.90199 1.80283 0
M  V30 7069 H 682.904 2.89382 0.768023 0
M  V30 7070 H 680.45 1.39218 0.367998 0
M  V30 7071 H 682.403 2.74163 3.20019 0
M  V30 7072 H 681.127 1.54103 2.87958 0
M  V30 7073 H 679.786 3.2777 1.64202 0
M  V30 7074 H 679.434 2.92414 4.09271 0
M  V30 7075 H 679.134 4.61877 3.6324 0
M  V30 7076 H 680.658 4.17714 4.45362 0
M  V30 7077 H 682.072 5.19565 2.42333 0
M  V30 7078 H 680.469 5.71601 1.82735 0
M  V30 7079 H 681.539 4.78904 0.760184 0
M  V30 7080 N 682.882 -0.391992 1.52647 0
M  V30 7081 C 683.845 -1.46135 1.7657 0
M  V30 7082 C 684.845 -1.47701 0.635698 0
M  V30 7083 O 686.035 -1.48924 0.903728 0
M  V30 7084 C 683.167 -2.85443 1.86374 0
M  V30 7085 H 684.36 -1.26208 2.72051 0
M  V30 7086 H 681.913 -0.623549 1.43323 0
M  V30 7087 H 682.648 -3.10718 0.928685 0
M  V30 7088 H 682.433 -2.85708 2.68539 0
M  V30 7089 H 683.923 -3.62933 2.06566 0
M  V30 7090 N 684.36 -1.4356 -0.65026 0
M  V30 7091 C 685.585 -1.48995 -1.44275 0
M  V30 7092 C 686.01 -0.109954 -1.87778 0
M  V30 7093 O 685.368 0.896926 -1.57559 0
M  V30 7094 C 685.416 -2.44341 -2.65198 0
M  V30 7095 O 684.52 -1.93172 -3.6436 0
M  V30 7096 H 683.861 -0.503852 -0.432469 0
M  V30 7097 H 686.391 -1.88504 -0.795446 0
M  V30 7098 H 686.401 -2.61743 -3.12977 0
M  V30 7099 H 685.076 -3.44588 -2.32877 0
M  V30 7100 H 683.653 -1.85445 -3.23519 0
M  V30 7101 N 685.838 0.888903 -1.30139 0
M  V30 7102 C 687.086 1.63713 -1.18501 0
M  V30 7103 C 687.407 1.9324 0.261399 0
M  V30 7104 O 686.677 1.56608 1.17689 0
M  V30 7105 H 685.257 0.606861 -0.435579 0
M  V30 7106 H 687.919 1.06525 -1.63213 0
M  V30 7107 H 687.015 2.58894 -1.743 0
M  V30 7108 N 687.317 1.12792 1.10072 0
M  V30 7109 C 688.566 0.880232 1.81479 0
M  V30 7110 C 688.879 -0.595575 1.86312 0
M  V30 7111 O 690.085 -0.959979 2.53962 0
M  V30 7112 C 688.541 1.52514 3.25987 0
M  V30 7113 C 688.149 3.036 3.29441 0
M  V30 7114 C 689.893 1.35788 4.02196 0
M  V30 7115 C 687.8 3.61007 4.68431 0
M  V30 7116 H 686.73 0.325654 0.680048 0
M  V30 7117 H 689.381 1.35485 1.23758 0
M  V30 7118 H 687.763 0.978188 3.83728 0
M  V30 7119 H 688.937 3.64819 2.81502 0
M  V30 7120 H 687.252 3.19765 2.66719 0
M  V30 7121 H 689.849 1.76096 5.0487 0
M  V30 7122 H 690.192 0.301972 4.15203 0
M  V30 7123 H 690.725 1.87426 3.50879 0
M  V30 7124 H 687.464 4.66375 4.60625 0
M  V30 7125 H 686.984 3.04564 5.16721 0
M  V30 7126 H 688.663 3.60289 5.37402 0
M  V30 7127 N 688.795 -1.27931 0.920396 0
M  V30 7128 C 690.041 -1.94977 0.557832 0
M  V30 7129 C 690.374 -1.72224 -0.897365 0
M  V30 7130 O 689.649 -1.04705 -1.63912 0
M  V30 7131 C 689.932 -3.49289 0.875741 0
M  V30 7132 C 689.785 -3.81416 2.38416 0
M  V30 7133 C 691.104 -4.38486 0.376517 0
M  V30 7134 H 688.223 -0.708164 0.20414 0
M  V30 7135 H 690.865 -1.5118 1.15085 0
M  V30 7136 H 689.015 -3.86724 0.371062 0
M  V30 7137 H 690.687 -3.53813 2.95997 0
M  V30 7138 H 688.93 -3.28225 2.83639 0
M  V30 7139 H 689.601 -4.89198 2.55713 0
M  V30 7140 H 692.077 -4.08161 0.808945 0
M  V30 7141 H 690.953 -5.45296 0.627976 0
M  V30 7142 H 691.214 -4.36143 -0.723293 0
M  V30 7143 N 690.273 -0.685099 -1.4193 0
M  V30 7144 C 691.684 -0.287699 -1.8447 0
M  V30 7145 C 692.035 1.17215 -1.57338 0
M  V30 7146 O 691.16 1.89856 -1.03845 0
M  V30 7147 C 691.755 -0.515385 -3.34857 0
M  V30 7148 C 690.314 -0.172006 -3.76007 0
M  V30 7149 C 689.461 -0.802808 -2.65425 0
M  V30 7150 H 692.412 -0.88652 -1.3163 0
M  V30 7151 H 692.433 0.229251 -3.79809 0
M  V30 7152 H 691.945 -1.57796 -3.54573 0
M  V30 7153 H 690.046 0.886716 -3.61895 0
M  V30 7154 H 690.159 -0.619717 -4.75075 0
M  V30 7155 H 688.523 -0.233267 -2.5363 0
M  V30 7156 H 689.306 -1.86904 -2.87961 0
M  V30 7157 N 691.751 1.51645 -0.429126 0
M  V30 7158 C 693.167 1.59394 -0.080994 0
M  V30 7159 C 693.367 1.44064 1.40882 0
M  V30 7160 O 692.423 1.27771 2.17786 0
M  V30 7161 C 693.736 2.94779 -0.593773 0
M  V30 7162 C 695.284 3.08067 -0.553494 0
M  V30 7163 C 695.759 4.45963 -1.04311 0
M  V30 7164 N 697.25 4.5226 -1.00076 0
M  V30 7165 C 697.985 5.57268 -1.35056 0
M  V30 7166 N 697.481 6.69734 -1.77282 0
M  V30 7167 N 699.274 5.47582 -1.26925 0
M  V30 7168 H 691.425 1.59856 -1.39857 0
M  V30 7169 H 693.688 0.753095 -0.575805 0
M  V30 7170 H 693.394 3.11342 -1.63583 0
M  V30 7171 H 693.268 3.77197 -0.0142202 0
M  V30 7172 H 695.655 2.91177 0.479556 0
M  V30 7173 H 695.736 2.27508 -1.16935 0
M  V30 7174 H 695.38 4.63598 -2.07459 0
M  V30 7175 H 695.31 5.25049 -0.403873 0
M  V30 7176 H 697.801 3.71537 -0.690564 0
M  V30 7177 H 698.114 7.4587 -2.02232 0
M  V30 7178 H 696.459 6.70963 -1.81202 0
M  V30 7179 H 699.65 4.58604 -0.93809 0
M  V30 7180 H 699.823 6.29308 -1.54516 0
M  V30 7181 N 693.229 0.160201 1.56784 0
M  V30 7182 C 694.457 -0.494165 2.00912 0
M  V30 7183 C 694.872 -1.57548 1.04038 0
M  V30 7184 O 694.229 -1.82457 0.0394581 0
M  V30 7185 C 694.28 -1.08271 3.44905 0
M  V30 7186 O 694.001 -0.0445704 4.38077 0
M  V30 7187 C 695.502 -1.8164 4.04378 0
M  V30 7188 H 692.722 -0.127498 0.658776 0
M  V30 7189 H 695.266 0.258665 2.02858 0
M  V30 7190 H 693.421 -1.78609 3.4377 0
M  V30 7191 H 693.835 -0.477544 5.22322 0
M  V30 7192 H 695.309 -2.18094 5.07089 0
M  V30 7193 H 695.786 -2.70727 3.45838 0
M  V30 7194 H 696.392 -1.15969 4.09184 0
M  V30 7195 N 694.707 -1.5719 -0.113559 0
M  V30 7196 C 696.118 -1.74259 -0.670116 0
M  V30 7197 C 696.469 -0.779694 -1.80042 0
M  V30 7198 O 695.594 0.0461353 -2.16351 0
M  V30 7199 C 696.189 -3.15981 -1.22236 0
M  V30 7200 C 694.748 -3.34537 -1.72516 0
M  V30 7201 C 693.895 -2.70116 -0.627098 0
M  V30 7202 H 696.846 -1.58301 0.112396 0
M  V30 7203 H 696.867 -3.17832 -2.09197 0
M  V30 7204 H 696.379 -3.86038 -0.39949 0
M  V30 7205 H 694.48 -2.6953 -2.57263 0
M  V30 7206 H 694.593 -4.42737 -1.83086 0
M  V30 7207 H 692.957 -2.31501 -1.06204 0
M  V30 7208 H 693.74 -3.42802 0.184889 0
M  V30 7209 N 696.185 0.383891 -1.52853 0
M  V30 7210 C 697.596 0.961591 -1.60032 0
M  V30 7211 C 697.947 1.90819 -0.456333 0
M  V30 7212 O 697.072 2.12288 0.419873 0
M  V30 7213 C 697.667 1.75078 -2.90057 0
M  V30 7214 C 696.226 2.2781 -2.99632 0
M  V30 7215 C 695.373 1.08512 -2.55187 0
M  V30 7216 H 698.324 0.163269 -1.57858 0
M  V30 7217 H 698.345 2.61046 -2.7683 0
M  V30 7218 H 697.857 1.06157 -3.73299 0
M  V30 7219 H 695.958 3.00028 -2.20939 0
M  V30 7220 H 696.071 2.56947 -4.0437 0
M  V30 7221 H 694.435 1.44667 -2.09627 0
M  V30 7222 H 695.218 0.41118 -3.40829 0
M  V30 7223 N 697.663 1.43903 0.642637 0
M  V30 7224 C 698.912 1.45362 1.39831 0
M  V30 7225 C 699.225 0.0856289 1.95412 0
M  V30 7226 O 700.431 -0.0222856 2.71491 0
M  V30 7227 C 698.887 2.55857 2.53111 0
M  V30 7228 C 698.495 3.98811 2.04092 0
M  V30 7229 C 700.239 2.66524 3.30402 0
M  V30 7230 C 698.146 5.00751 3.14647 0
M  V30 7231 H 697.076 0.540777 0.52543 0
M  V30 7232 H 699.727 1.69929 0.692559 0
M  V30 7233 H 698.109 2.2451 3.26207 0
M  V30 7234 H 699.283 4.3967 1.37938 0
M  V30 7235 H 697.598 3.92284 1.39651 0
M  V30 7236 H 700.195 3.39858 4.12796 0
M  V30 7237 H 700.538 1.71949 3.79129 0
M  V30 7238 H 701.071 2.97224 2.64392 0
M  V30 7239 H 697.81 5.96914 2.70876 0
M  V30 7240 H 697.33 4.64495 3.79479 0
M  V30 7241 H 699.009 5.23933 3.79609 0
M  V30 7242 N 699.141 -0.881989 1.30609 0
M  V30 7243 C 700.418 -1.61563 1.10258 0
M  V30 7244 C 700.798 -2.08228 -0.347053 0
M  V30 7245 O 700.146 -1.85151 -1.33908 0
M  V30 7246 C 700.356 -2.78287 2.10612 0
M  V30 7247 C 701.704 -3.48545 2.4249 0
M  V30 7248 O 702.728 -2.88479 2.08945 0
M  V30 7249 O 701.587 -4.56873 2.99883 0
M  V30 7250 H 698.681 -0.710238 0.423663 0
M  V30 7251 H 701.227 -0.928503 1.42045 0
M  V30 7252 H 699.999 -2.41131 3.08174 0
M  V30 7253 H 699.622 -3.54695 1.79659 0
M  V30 7254 N 700.619 -1.13374 -1.09472 0
M  V30 7255 C 701.867 -0.893422 -1.8128 0
M  V30 7256 C 702.188 0.582029 -1.86111 0
M  V30 7257 O 701.458 1.42305 -1.34633 0
M  V30 7258 H 700.038 -0.327543 -0.67136 0
M  V30 7259 H 702.7 -1.43018 -1.32408 0
M  V30 7260 H 701.796 -1.28374 -2.84476 0
M  V30 7261 N 702.098 1.27442 -0.927168 0
M  V30 7262 C 703.347 1.93679 -0.563146 0
M  V30 7263 C 703.66 1.73673 0.899837 0
M  V30 7264 O 704.866 2.34247 1.37262 0
M  V30 7265 C 703.322 3.46961 -0.95636 0
M  V30 7266 C 702.93 3.75724 -2.43999 0
M  V30 7267 C 704.674 4.19282 -0.663565 0
M  V30 7268 C 702.581 5.22378 -2.77263 0
M  V30 7269 H 701.511 0.725059 -0.206894 0
M  V30 7270 H 704.162 1.44743 -1.12791 0
M  V30 7271 H 702.544 3.94703 -0.320254 0
M  V30 7272 H 703.718 3.38741 -3.12396 0
M  V30 7273 H 702.033 3.16605 -2.70463 0
M  V30 7274 H 704.63 5.27265 -0.888596 0
M  V30 7275 H 704.973 4.14382 0.399198 0
M  V30 7276 H 705.506 3.7736 -1.25875 0
M  V30 7277 H 702.245 5.32367 -3.82446 0
M  V30 7278 H 701.765 5.6051 -2.13516 0
M  V30 7279 H 703.444 5.9025 -2.64979 0
M  V30 7280 N 703.576 0.692616 1.41565 0
M  V30 7281 C 704.853 0.150496 1.9502 0
M  V30 7282 C 705.233 -1.33881 1.63215 0
M  V30 7283 O 704.581 -2.08378 0.937598 0
M  V30 7284 C 704.791 0.438636 3.46233 0
M  V30 7285 C 706.139 0.364777 4.2303 0
M  V30 7286 O 707.163 0.373383 3.54238 0
M  V30 7287 O 706.022 0.32234 5.45549 0
M  V30 7288 H 703.116 0.0132454 0.826894 0
M  V30 7289 H 705.662 0.768574 1.51298 0
M  V30 7290 H 704.434 1.46962 3.62654 0
M  V30 7291 H 704.057 -0.210562 3.97042 0
M  V30 7292 N 705.054 -1.51416 0.437162 0
M  V30 7293 C 706.004 -2.24599 -0.392311 0
M  V30 7294 C 706.988 -1.2682 -0.990221 0
M  V30 7295 O 708.18 -1.51912 -0.908391 0
M  V30 7296 C 705.309 -3.09134 -1.49301 0
M  V30 7297 C 704.395 -4.14342 -0.904503 0
M  V30 7298 N 704.786 -5.0578 -0.0451511 0
M  V30 7299 C 703.084 -4.30323 -1.1721 0
M  V30 7300 C 703.785 -5.81 0.285344 0
M  V30 7301 N 702.761 -5.42591 -0.330993 0
M  V30 7302 H 706.563 -2.92655 0.270221 0
M  V30 7303 H 704.077 -1.60476 0.249226 0
M  V30 7304 H 706.074 -3.6014 -2.10011 0
M  V30 7305 H 704.734 -2.42622 -2.15788 0
M  V30 7306 H 705.745 -5.16903 0.321271 0
M  V30 7307 H 702.422 -3.75037 -1.83448 0
M  V30 7308 H 703.812 -6.64646 0.984626 0
M  V30 7309 N 706.532 -0.168513 -1.56696 0
M  V30 7310 C 707.943 0.348694 -1.83415 0
M  V30 7311 C 708.294 1.63257 -1.0882 0
M  V30 7312 O 707.419 2.13707 -0.340333 0
M  V30 7313 C 708.014 0.639423 -3.32711 0
M  V30 7314 C 706.573 1.10108 -3.59935 0
M  V30 7315 C 705.72 0.135464 -2.76969 0
M  V30 7316 H 708.671 -0.392829 -1.53761 0
M  V30 7317 H 708.692 1.49179 -3.50037 0
M  V30 7318 H 708.204 -0.295173 -3.86976 0
M  V30 7319 H 706.305 2.05088 -3.11079 0
M  V30 7320 H 706.418 1.01218 -4.68286 0
M  V30 7321 H 704.782 0.632286 -2.46727 0
M  V30 7322 H 705.565 -0.793104 -3.34013 0
M  V30 7323 N 708.01 1.57248 0.105221 0
M  V30 7324 C 708.957 2.01338 1.12835 0
M  V30 7325 C 709.927 0.887897 1.40377 0
M  V30 7326 O 711.112 1.15315 1.5201 0
M  V30 7327 C 708.252 2.43432 2.44611 0
M  V30 7328 C 707.365 3.69457 2.23888 0
M  V30 7329 C 706.5 4.00473 3.48991 0
M  V30 7330 C 705.539 5.19638 3.23485 0
M  V30 7331 N 704.676 5.46457 4.40828 0
M  V30 7332 H 709.516 2.88527 0.745386 0
M  V30 7333 H 707.053 1.42714 0.356535 0
M  V30 7334 H 709.011 2.65879 3.21503 0
M  V30 7335 H 707.641 1.59266 2.80774 0
M  V30 7336 H 706.693 3.54545 1.37847 0
M  V30 7337 H 708.005 4.56497 2.01026 0
M  V30 7338 H 707.159 4.23642 4.34295 0
M  V30 7339 H 705.898 3.11935 3.74897 0
M  V30 7340 H 704.903 4.96299 2.36574 0
M  V30 7341 H 706.128 6.09766 2.98935 0
M  V30 7342 H 704.074 4.60876 4.66829 0
M  V30 7343 H 703.991 6.27849 4.2112 0
M  V30 7344 H 705.259 5.74155 5.27225 0
M  V30 7345 N 709.488 -0.375779 1.53054 0
M  V30 7346 C 710.734 -1.12114 1.68992 0
M  V30 7347 C 711.067 -1.8926 0.435238 0
M  V30 7348 O 710.342 -1.86044 -0.567278 0
M  V30 7349 C 710.625 -2.08867 2.93337 0
M  V30 7350 C 710.478 -1.35397 4.28938 0
M  V30 7351 C 711.797 -3.09124 3.13257 0
M  V30 7352 H 708.916 -0.406207 0.614951 0
M  V30 7353 H 711.558 -0.403054 1.85676 0
M  V30 7354 H 709.708 -2.70102 2.79244 0
M  V30 7355 H 711.38 -0.770242 4.54824 0
M  V30 7356 H 709.623 -0.655801 4.28814 0
M  V30 7357 H 710.294 -2.06161 5.12056 0
M  V30 7358 H 712.77 -2.57987 3.26469 0
M  V30 7359 H 711.646 -3.74054 4.01715 0
M  V30 7360 H 711.907 -3.78729 2.28072 0
M  V30 7361 N 710.966 -1.44241 -0.634997 0
M  V30 7362 C 711.896 -1.53632 -1.7584 0
M  V30 7363 C 712.877 -0.389603 -1.65578 0
M  V30 7364 O 714.062 -0.609219 -1.84397 0
M  V30 7365 C 711.192 -1.47644 -3.14354 0
M  V30 7366 C 710.146 -2.60752 -3.394 0
M  V30 7367 C 709.472 -2.39817 -4.77904 0
M  V30 7368 C 710.772 -4.02921 -3.32343 0
M  V30 7369 H 712.466 -2.47662 -1.68238 0
M  V30 7370 H 710.012 -1.19197 -0.807969 0
M  V30 7371 H 711.965 -1.52815 -3.92716 0
M  V30 7372 H 710.689 -0.501284 -3.2273 0
M  V30 7373 H 709.348 -2.54965 -2.63417 0
M  V30 7374 H 708.996 -1.40502 -4.82978 0
M  V30 7375 H 708.696 -3.15649 -4.9562 0
M  V30 7376 H 710.22 -2.46799 -5.585 0
M  V30 7377 H 711.634 -4.10098 -4.00615 0
M  V30 7378 H 710.031 -4.78925 -3.61595 0
M  V30 7379 H 711.101 -4.26766 -2.30215 0
M  V30 7380 N 712.444 0.87505 -1.31075 0
M  V30 7381 C 713.669 1.66583 -1.23551 0
M  V30 7382 C 714.094 1.87067 0.19686 0
M  V30 7383 O 713.452 1.40877 1.1412 0
M  V30 7384 C 713.5 3.01401 -1.97965 0
M  V30 7385 O 712.604 3.90923 -1.31351 0
M  V30 7386 H 711.945 0.508645 -0.426821 0
M  V30 7387 H 714.475 1.09139 -1.7306 0
M  V30 7388 H 714.485 3.51374 -2.07366 0
M  V30 7389 H 713.16 2.85812 -3.02133 0
M  V30 7390 H 711.737 3.49369 -1.30368 0
M  V30 7391 N 713.922 1.13953 1.08869 0
M  V30 7392 C 715.152 0.926825 1.84644 0
M  V30 7393 C 715.56 -0.527941 1.81685 0
M  V30 7394 O 714.903 -1.37742 1.21543 0
M  V30 7395 C 714.965 1.34416 3.33426 0
M  V30 7396 C 714.629 2.81351 3.60126 0
M  V30 7397 C 715.626 3.79486 3.55368 0
M  V30 7398 C 713.311 3.1865 3.88288 0
M  V30 7399 C 715.305 5.1293 3.78393 0
M  V30 7400 C 712.992 4.5227 4.10968 0
M  V30 7401 C 713.99 5.4922 4.06013 0
M  V30 7402 O 713.678 6.80429 4.28102 0
M  V30 7403 H 713.41 0.33013 0.589907 0
M  V30 7404 H 715.964 1.51738 1.38436 0
M  V30 7405 H 714.194 0.696901 3.80368 0
M  V30 7406 H 715.883 1.10302 3.90626 0
M  V30 7407 H 716.649 3.52017 3.3363 0
M  V30 7408 H 712.528 2.43785 3.91267 0
M  V30 7409 H 716.072 5.88591 3.74442 0
M  V30 7410 H 711.969 4.79462 4.32188 0
M  V30 7411 H 712.737 6.86617 4.45533 0
M  V30 7412 N 715.4 -1.26948 0.933913 0
M  V30 7413 C 716.33 -2.29017 0.45534 0
M  V30 7414 C 717.311 -1.62961 -0.487605 0
M  V30 7415 O 718.496 -1.90223 -0.391022 0
M  V30 7416 C 715.626 -3.46112 -0.287015 0
M  V30 7417 C 714.58 -4.24205 0.568682 0
M  V30 7418 C 713.906 -5.3384 -0.303206 0
M  V30 7419 C 715.206 -4.88954 1.83633 0
M  V30 7420 H 716.9 -2.69298 1.30839 0
M  V30 7421 H 714.446 -1.29459 0.630579 0
M  V30 7422 H 716.399 -4.16622 -0.6328 0
M  V30 7423 H 715.123 -3.04765 -1.17414 0
M  V30 7424 H 713.782 -3.5545 0.897261 0
M  V30 7425 H 713.43 -4.88734 -1.18947 0
M  V30 7426 H 713.13 -5.86998 0.265879 0
M  V30 7427 H 714.654 -6.0719 -0.644423 0
M  V30 7428 H 716.068 -5.51717 1.55823 0
M  V30 7429 H 714.465 -5.52198 2.34941 0
M  V30 7430 H 715.535 -4.12305 2.55211 0
M  V30 7431 N 716.879 -0.700114 -1.41195 0
M  V30 7432 C 718.156 -0.160836 -1.94938 0
M  V30 7433 C 718.536 1.33014 -1.63922 0
M  V30 7434 O 717.884 2.07878 -0.948636 0
M  V30 7435 C 718.094 -0.456991 -3.45995 0
M  V30 7436 C 719.442 -0.387207 -4.22831 0
M  V30 7437 O 720.466 -0.392164 -3.54035 0
M  V30 7438 O 719.325 -0.351267 -5.4537 0
M  V30 7439 H 716.419 -0.0176304 -0.826812 0
M  V30 7440 H 718.965 -0.776586 -1.50888 0
M  V30 7441 H 717.737 -1.48884 -3.61869 0
M  V30 7442 H 717.36 0.189503 -3.97148 0
M  V30 7443 N 718.357 1.51182 -0.445186 0
M  V30 7444 C 719.603 2.02452 0.11882 0
M  V30 7445 C 719.936 1.32824 1.41673 0
M  V30 7446 O 719.211 0.445637 1.89326 0
M  V30 7447 C 719.494 3.5859 0.329475 0
M  V30 7448 C 719.347 4.38823 -0.987638 0
M  V30 7449 C 720.666 4.26241 1.09575 0
M  V30 7450 H 717.785 0.735819 0.0417092 0
M  V30 7451 H 720.427 1.80747 -0.585718 0
M  V30 7452 H 718.577 3.77214 0.9296 0
M  V30 7453 H 720.249 4.3183 -1.62235 0
M  V30 7454 H 718.492 4.03594 -1.59041 0
M  V30 7455 H 719.163 5.46257 -0.794192 0
M  V30 7456 H 721.639 4.11934 0.587328 0
M  V30 7457 H 720.515 5.35354 1.21191 0
M  V30 7458 H 720.776 3.87635 2.12584 0
M  V30 7459 N 719.835 0.176821 1.56605 0
M  V30 7460 C 720.765 -0.746841 2.21234 0
M  V30 7461 C 721.746 -1.23502 1.16967 0
M  V30 7462 O 722.931 -1.28718 1.45414 0
M  V30 7463 C 720.061 -1.97407 2.8574 0
M  V30 7464 C 719.015 -1.62153 3.96094 0
M  V30 7465 C 718.341 -2.92387 4.47676 0
M  V30 7466 C 719.641 -0.845353 5.15413 0
M  V30 7467 H 721.335 -0.208116 2.98676 0
M  V30 7468 H 718.881 -0.0986594 1.43662 0
M  V30 7469 H 720.834 -2.62531 3.2963 0
M  V30 7470 H 719.558 -2.53703 2.05676 0
M  V30 7471 H 718.217 -0.993964 3.52868 0
M  V30 7472 H 717.865 -3.46734 3.64396 0
M  V30 7473 H 717.565 -2.69551 5.22127 0
M  V30 7474 H 719.089 -3.5853 4.94255 0
M  V30 7475 H 720.503 -1.39929 5.55961 0
M  V30 7476 H 718.9 -0.715814 5.95815 0
M  V30 7477 H 719.97 0.157239 4.84645 0
M  V30 7478 N 721.313 -1.57302 -0.09688 0
M  V30 7479 C 722.729 -1.53094 -0.451041 0
M  V30 7480 C 722.929 -0.893265 -1.80618 0
M  V30 7481 O 721.985 -0.485013 -2.47798 0
M  V30 7482 C 723.298 -2.9782 -0.415172 0
M  V30 7483 C 724.846 -3.09026 -0.497155 0
M  V30 7484 C 725.321 -4.55356 -0.491452 0
M  V30 7485 N 726.812 -4.59896 -0.552258 0
M  V30 7486 C 727.547 -5.70563 -0.569654 0
M  V30 7487 N 727.043 -6.90666 -0.543365 0
M  V30 7488 N 728.836 -5.58733 -0.614331 0
M  V30 7489 H 720.987 -1.97131 0.790771 0
M  V30 7490 H 723.25 -0.901211 0.294147 0
M  V30 7491 H 722.956 -3.47933 0.513362 0
M  V30 7492 H 722.83 -3.56416 -1.23481 0
M  V30 7493 H 725.217 -2.58902 -1.41611 0
M  V30 7494 H 725.298 -2.53386 0.35059 0
M  V30 7495 H 724.942 -5.06131 0.423549 0
M  V30 7496 H 724.872 -5.08832 -1.35639 0
M  V30 7497 H 727.363 -3.73456 -0.577842 0
M  V30 7498 H 727.676 -7.70769 -0.559873 0
M  V30 7499 H 726.021 -6.93123 -0.510441 0
M  V30 7500 H 729.212 -4.63809 -0.632387 0
M  V30 7501 H 729.385 -6.44984 -0.62442 0
M  V30 7502 N 722.791 0.367657 -1.53252 0
M  V30 7503 C 724.068 1.12606 -1.59935 0
M  V30 7504 C 724.448 2.07167 -0.405606 0
M  V30 7505 O 723.796 2.20364 0.604323 0
M  V30 7506 C 724.006 1.86699 -2.94863 0
M  V30 7507 C 725.354 2.41306 -3.49366 0
M  V30 7508 O 726.378 1.96828 -2.96879 0
M  V30 7509 O 725.237 3.2261 -4.41118 0
M  V30 7510 H 722.331 0.516438 -0.645926 0
M  V30 7511 H 724.877 0.371088 -1.65593 0
M  V30 7512 H 723.649 1.17674 -3.73187 0
M  V30 7513 H 723.272 2.6911 -2.92687 0
M  V30 7514 N 724.269 1.44576 0.627338 0
M  V30 7515 C 725.216 1.51734 1.73912 0
M  V30 7516 C 726.186 0.364745 1.62046 0
M  V30 7517 O 727.371 0.575503 1.81914 0
M  V30 7518 C 724.511 1.47116 3.12171 0
M  V30 7519 C 723.624 2.72778 3.34986 0
M  V30 7520 C 722.759 2.59968 4.63239 0
M  V30 7521 C 721.798 3.80776 4.79245 0
M  V30 7522 N 720.935 3.66618 5.98778 0
M  V30 7523 H 725.775 2.46722 1.6713 0
M  V30 7524 H 723.312 1.22444 0.815224 0
M  V30 7525 H 725.27 1.42429 3.92135 0
M  V30 7526 H 723.9 0.556928 3.17959 0
M  V30 7527 H 722.952 2.87637 2.48936 0
M  V30 7528 H 724.264 3.62441 3.42692 0
M  V30 7529 H 723.418 2.53135 5.51369 0
M  V30 7530 H 722.157 1.67872 4.57898 0
M  V30 7531 H 721.162 3.87989 3.89544 0
M  V30 7532 H 722.387 4.73913 4.86398 0
M  V30 7533 H 720.333 2.77277 5.9452 0
M  V30 7534 H 720.25 4.499 6.07557 0
M  V30 7535 H 721.518 3.63684 6.89459 0
M  V30 7536 N 725.747 -0.868086 1.31537 0
M  V30 7537 C 726.71 -1.95703 1.19302 0
M  V30 7538 C 727.71 -1.60355 0.119612 0
M  V30 7539 O 728.9 -1.70247 0.36902 0
M  V30 7540 C 726.032 -3.30599 0.831684 0
M  V30 7541 H 727.225 -2.07982 2.16064 0
M  V30 7542 H 724.778 -1.05661 1.15176 0
M  V30 7543 H 725.513 -3.2402 -0.134694 0
M  V30 7544 H 725.298 -3.57629 1.60761 0
M  V30 7545 H 726.788 -4.10439 0.770026 0
M  V30 7546 N 727.225 -1.14528 -1.08264 0
M  V30 7547 C 728.636 -0.925261 -1.6216 0
M  V30 7548 C 728.987 0.535587 -1.88748 0
M  V30 7549 O 728.112 1.4048 -1.64604 0
M  V30 7550 C 728.707 -1.67316 -2.94603 0
M  V30 7551 C 727.266 -1.49868 -3.45278 0
M  V30 7552 C 726.413 -1.69471 -2.19487 0
M  V30 7553 H 729.364 -1.29687 -0.914707 0
M  V30 7554 H 729.385 -1.13721 -3.63109 0
M  V30 7555 H 728.897 -2.73635 -2.75219 0
M  V30 7556 H 726.998 -0.459032 -3.69762 0
M  V30 7557 H 727.111 -2.2696 -4.21931 0
M  V30 7558 H 725.475 -1.12048 -2.2873 0
M  V30 7559 H 726.258 -2.77136 -2.0261 0
M  V30 7560 N 728.703 1.26451 -0.940633 0
M  V30 7561 C 729.949 1.94065 -0.58878 0
M  V30 7562 C 730.282 1.7363 0.869853 0
M  V30 7563 O 729.557 1.073 1.62225 0
M  V30 7564 C 729.84 3.47852 -0.931199 0
M  V30 7565 C 729.693 3.77575 -2.44453 0
M  V30 7566 C 731.012 4.37832 -0.446229 0
M  V30 7567 H 728.131 0.704827 -0.21538 0
M  V30 7568 H 730.773 1.4933 -1.17475 0
M  V30 7569 H 728.923 3.86085 -0.432539 0
M  V30 7570 H 730.595 3.49059 -3.01588 0
M  V30 7571 H 728.838 3.23671 -2.88825 0
M  V30 7572 H 729.509 4.85068 -2.63464 0
M  V30 7573 H 731.985 4.06822 -0.873778 0
M  V30 7574 H 730.861 5.44228 -0.714648 0
M  V30 7575 H 731.122 4.37239 0.653815 0
M  V30 7576 N 730.181 0.707592 1.40822 0
M  V30 7577 C 731.429 0.243189 2.00632 0
M  V30 7578 C 731.75 -1.16512 1.56365 0
M  V30 7579 O 731.02 -1.78841 0.799553 0
M  V30 7580 H 729.6 0.0869203 0.741926 0
M  V30 7581 H 732.262 0.911438 1.72275 0
M  V30 7582 H 731.358 0.270014 3.1093 0
M  V30 7583 N 731.66 -1.50943 0.453197 0
M  V30 7584 C 732.608 -2.29728 -0.364419 0
M  V30 7585 C 733.602 -1.36246 -1.00664 0
M  V30 7586 O 734.808 -1.53518 -0.939794 0
M  V30 7587 H 731.183 -0.739536 -0.136347 0
M  V30 7588 H 733.154 -2.96672 0.320696 0
M  V30 7589 C 731.903 -3.1629 -1.44415 0
M  V30 7590 H 731.226 -3.88119 -0.959343 0
M  V30 7591 H 732.666 -3.74444 -1.98917 0
M  V30 7592 C 731.125 -2.32702 -2.43622 0
M  V30 7593 O 731.655 -1.99763 -3.48508 0
M  V30 7594 N 729.861 -1.95621 -2.14897 0
M  V30 7595 H 729.408 -2.22607 -1.29629 0
M  V30 7596 H 729.366 -1.39993 -2.81513 0
M  V30 7597 N 733.138 -0.185124 -1.56509 0
M  V30 7598 C 734.085 0.739729 -2.18624 0
M  V30 7599 C 735.055 1.217 -1.13042 0
M  V30 7600 O 736.24 1.28268 -1.41251 0
M  V30 7601 C 733.38 1.95787 -2.84186 0
M  V30 7602 C 732.493 1.52289 -4.04267 0
M  V30 7603 C 731.628 2.69576 -4.57714 0
M  V30 7604 C 730.667 2.22636 -5.70175 0
M  V30 7605 N 729.804 3.33065 -6.18071 0
M  V30 7606 H 734.644 0.203269 -2.97306 0
M  V30 7607 H 732.181 0.0885946 -1.46833 0
M  V30 7608 H 734.139 2.67253 -3.20361 0
M  V30 7609 H 732.769 2.4678 -2.08085 0
M  V30 7610 H 731.821 0.704458 -3.7382 0
M  V30 7611 H 733.133 1.13843 -4.85635 0
M  V30 7612 H 732.287 3.4918 -4.96143 0
M  V30 7613 H 731.026 3.1129 -3.75433 0
M  V30 7614 H 730.031 1.41483 -5.31284 0
M  V30 7615 H 731.256 1.81964 -6.54267 0
M  V30 7616 H 729.202 3.74328 -5.38715 0
M  V30 7617 H 729.119 2.98756 -6.94464 0
M  V30 7618 H 730.387 4.12912 -6.61153 0
M  V30 7619 N 734.616 1.57351 0.0885366 0
M  V30 7620 C 735.862 1.86696 0.791996 0
M  V30 7621 C 736.195 0.775148 1.78059 0
M  V30 7622 O 735.47 -0.216247 1.93294 0
M  V30 7623 C 735.753 3.26684 1.51491 0
M  V30 7624 C 735.606 4.465 0.543858 0
M  V30 7625 C 736.925 3.64664 2.46391 0
M  V30 7626 H 734.044 0.679049 0.286463 0
M  V30 7627 H 736.686 1.89919 0.0554866 0
M  V30 7628 H 734.836 3.24067 2.14273 0
M  V30 7629 H 736.508 4.61235 -0.0774597 0
M  V30 7630 H 734.751 4.33567 -0.142228 0
M  V30 7631 H 735.422 5.41192 1.08696 0
M  V30 7632 H 737.898 3.68267 1.93698 0
M  V30 7633 H 736.774 4.63534 2.93986 0
M  V30 7634 H 737.035 2.93698 3.30445 0
M  V30 7635 N 736.094 -0.359525 1.53444 0
M  V30 7636 C 737.057 -1.42357 1.7963 0
M  V30 7637 C 738.057 -1.46319 0.666884 0
M  V30 7638 O 739.247 -1.46974 0.935113 0
M  V30 7639 C 736.379 -2.81425 1.92387 0
M  V30 7640 H 737.572 -1.20409 2.74666 0
M  V30 7641 H 735.125 -0.593007 1.44614 0
M  V30 7642 H 735.86 -3.08679 0.994384 0
M  V30 7643 H 735.645 -2.79947 2.74539 0
M  V30 7644 H 737.135 -3.5847 2.14218 0
M  V30 7645 N 737.572 -1.44907 -0.619662 0
M  V30 7646 C 738.821 -1.47569 -1.37501 0
M  V30 7647 C 739.134 -0.116707 -1.95252 0
M  V30 7648 O 740.34 -0.020909 -2.71492 0
M  V30 7649 C 738.796 -2.59851 -2.49009 0
M  V30 7650 C 738.404 -4.02008 -1.97722 0
M  V30 7651 C 740.148 -2.71746 -3.2612 0
M  V30 7652 C 738.055 -5.05693 -3.0664 0
M  V30 7653 H 736.985 -0.549068 -0.51676 0
M  V30 7654 H 739.636 -1.71009 -0.665437 0
M  V30 7655 H 738.018 -2.29671 -3.22594 0
M  V30 7656 H 739.192 -4.41809 -1.30925 0
M  V30 7657 H 737.507 -3.94456 -1.33392 0
M  V30 7658 H 740.104 -3.46382 -4.07337 0
M  V30 7659 H 740.447 -1.77959 -3.76346 0
M  V30 7660 H 740.98 -3.01392 -2.5963 0
M  V30 7661 H 737.719 -6.01148 -2.61345 0
M  V30 7662 H 737.239 -4.70473 -3.72042 0
M  V30 7663 H 738.918 -5.29906 -3.71226 0
M  V30 7664 N 739.05 0.861098 -1.31996 0
M  V30 7665 C 740.299 1.60965 -1.21545 0
M  V30 7666 C 740.612 1.94325 0.222972 0
M  V30 7667 O 741.818 2.67757 0.449272 0
M  V30 7668 C 740.274 2.90223 -2.12834 0
M  V30 7669 C 739.882 2.64313 -3.61722 0
M  V30 7670 C 741.626 3.68229 -2.11205 0
M  V30 7671 C 739.533 3.89532 -4.44993 0
M  V30 7672 H 738.463 0.603988 -0.451348 0
M  V30 7673 H 741.114 0.951358 -1.56912 0
M  V30 7674 H 739.496 3.57475 -1.70375 0
M  V30 7675 H 740.67 2.05413 -4.12483 0
M  V30 7676 H 738.985 1.99647 -3.65418 0
M  V30 7677 H 741.582 4.61138 -2.70658 0
M  V30 7678 H 741.925 4.01466 -1.1014 0
M  V30 7679 H 742.458 3.07873 -2.51911 0
M  V30 7680 H 739.197 3.61441 -5.46846 0
M  V30 7681 H 738.717 4.47851 -3.98985 0
M  V30 7682 H 740.396 4.57334 -4.57663 0
M  V30 7683 N 740.528 1.15101 1.07655 0
M  V30 7684 C 741.776 0.922149 1.79836 0
M  V30 7685 C 742.097 -0.552346 1.87014 0
M  V30 7686 O 741.367 -1.40145 1.3688 0
M  V30 7687 H 739.947 0.338182 0.666064 0
M  V30 7688 H 742.609 1.45107 1.30115 0
M  V30 7689 H 741.705 1.32883 2.82398 0
M  V30 7690 N 742.006 -1.2595 0.947325 0
M  V30 7691 C 743.246 -1.95218 0.605743 0
M  V30 7692 C 743.61 -1.72624 -0.84054 0
M  V30 7693 O 744.811 -2.35748 -1.29136 0
M  V30 7694 C 743.082 -3.44654 0.94596 0
M  V30 7695 S 744.641 -4.32922 0.715849 0
M  V30 7696 H 741.459 -0.675159 0.222894 0
M  V30 7697 H 744.061 -1.52766 1.21995 0
M  V30 7698 H 742.765 -3.586 1.99585 0
M  V30 7699 H 742.296 -3.92082 0.321718 0
M  V30 7700 H 744.311 -4.94445 -0.416959 0
M  V30 7701 N 743.484 -0.715051 -1.40445 0
M  V30 7702 C 744.732 -0.253826 -2.005 0
M  V30 7703 C 745.053 1.15681 -1.5698 0
M  V30 7704 O 744.323 1.78414 -0.809027 0
M  V30 7705 H 742.903 -0.0908537 -0.741454 0
M  V30 7706 H 745.565 -0.920561 -1.7179 0
M  V30 7707 H 744.661 -0.286499 -3.10782 0
M  V30 7708 N 744.962 1.50701 -0.461195 0
M  V30 7709 C 746.21 2.01867 0.0970051 0
M  V30 7710 C 746.531 1.34591 1.41104 0
M  V30 7711 O 745.801 0.488041 1.89723 0
M  V30 7712 H 744.381 0.74599 0.0388392 0
M  V30 7713 H 747.043 1.85129 -0.609357 0
M  V30 7714 H 746.139 3.11051 0.255688 0
M  V30 7715 N 746.441 0.193421 1.56409 0
M  V30 7716 C 747.69 -0.445995 1.96707 0
M  V30 7717 C 748.003 -1.62876 1.08309 0
M  V30 7718 O 749.209 -2.33586 1.38383 0
M  V30 7719 C 747.665 -0.844863 3.49843 0
M  V30 7720 C 747.273 0.31352 4.46902 0
M  V30 7721 C 749.017 -1.45146 3.98915 0
M  V30 7722 C 746.924 -0.106214 5.91305 0
M  V30 7723 H 745.854 -0.170398 0.734493 0
M  V30 7724 H 748.505 0.285172 1.81271 0
M  V30 7725 H 746.887 -1.63265 3.60778 0
M  V30 7726 H 748.061 1.09103 4.47698 0
M  V30 7727 H 746.376 0.8315 4.08014 0
M  V30 7728 H 748.973 -1.77792 5.04276 0
M  V30 7729 H 749.316 -2.35734 3.43126 0
M  V30 7730 H 749.849 -0.727675 3.91088 0
M  V30 7731 H 746.588 0.765442 6.51016 0
M  V30 7732 H 746.108 -0.848623 5.93766 0
M  V30 7733 H 747.787 -0.542588 6.44721 0
M  V30 7734 N 747.919 -1.57396 -0.0801906 0
M  V30 7735 C 749.167 -1.86467 -0.779384 0
M  V30 7736 C 749.488 -0.784243 -1.78535 0
M  V30 7737 O 748.758 0.187986 -1.94996 0
M  V30 7738 H 747.338 -0.68806 -0.29083 0
M  V30 7739 H 750 -1.94813 -0.0582749 0
M  V30 7740 H 749.096 -2.83701 -1.30078 0
M  V30 7741 N 749.397 0.351382 -1.53633 0
M  V30 7742 C 750.644 1.0925 -1.70502 0
M  V30 7743 C 750.972 1.88881 -0.464123 0
M  V30 7744 O 750.227 1.87693 0.554077 0
M  V30 7745 C 750.526 2.06744 -2.91533 0
M  V30 7746 C 750.192 1.43484 -4.27461 0
M  V30 7747 C 748.854 1.2596 -4.64422 0
M  V30 7748 C 751.206 0.978436 -5.11934 0
M  V30 7749 C 748.534 0.614017 -5.83478 0
M  V30 7750 C 750.886 0.346795 -6.31649 0
M  V30 7751 C 749.55 0.15917 -6.6731 0
M  V30 7752 H 748.82 0.399773 -0.623909 0
M  V30 7753 H 751.467 0.372656 -1.87839 0
M  V30 7754 H 749.772 2.85082 -2.68767 0
M  V30 7755 H 751.469 2.64066 -3.01778 0
M  V30 7756 H 748.059 1.5812 -3.98367 0
M  V30 7757 H 752.243 1.1017 -4.83918 0
M  V30 7758 H 747.499 0.457194 -6.09688 0
M  V30 7759 H 751.673 -0.0149864 -6.96398 0
M  V30 7760 H 749.3 -0.343129 -7.59425 0
M  V30 7761 N 750.875 1.45233 0.611969 0
M  V30 7762 C 752.152 1.39495 1.37115 0
M  V30 7763 C 752.532 0.0633303 2.11005 0
M  V30 7764 O 751.88 -0.954617 2.07604 0
M  V30 7765 C 752.09 2.60579 2.32163 0
M  V30 7766 C 753.438 3.05477 2.94905 0
M  V30 7767 O 754.462 2.60921 2.42485 0
M  V30 7768 O 753.321 3.82787 3.90047 0
M  V30 7769 H 750.415 0.55335 0.614599 0
M  V30 7770 H 752.961 1.57355 0.635423 0
M  V30 7771 H 751.733 3.49085 1.76793 0
M  V30 7772 H 751.356 2.45031 3.13122 0
M  V30 7773 N 752.353 -0.854086 1.3245 0
M  V30 7774 C 753.581 -1.64074 1.26045 0
M  V30 7775 C 753.996 -1.8802 -0.171456 0
M  V30 7776 O 753.353 -1.4496 -1.10873 0
M  V30 7777 C 753.404 -2.9997 2.01743 0
M  V30 7778 O 753.125 -2.77084 3.39346 0
M  V30 7779 C 754.626 -3.94414 2.02368 0
M  V30 7780 H 751.846 -0.511015 0.434862 0
M  V30 7781 H 754.39 -1.06494 1.74583 0
M  V30 7782 H 752.545 -3.54193 1.56926 0
M  V30 7783 H 752.959 -3.63514 3.78098 0
M  V30 7784 H 754.433 -4.87032 2.59815 0
M  V30 7785 H 754.91 -4.27427 1.01009 0
M  V30 7786 H 755.516 -3.46127 2.47135 0
M  V30 7787 N 753.831 -1.1567 -1.07043 0
M  V30 7788 C 754.794 -0.858906 -2.12498 0
M  V30 7789 C 755.794 0.142735 -1.60165 0
M  V30 7790 O 756.984 -0.0872678 -1.73981 0
M  V30 7791 C 754.116 -0.283021 -3.39723 0
M  V30 7792 H 755.309 -1.79368 -2.40348 0
M  V30 7793 H 752.862 -0.964608 -1.22984 0
M  V30 7794 H 753.597 0.659796 -3.17517 0
M  V30 7795 H 753.382 -1.00467 -3.7901 0
M  V30 7796 H 754.872 -0.0923543 -4.17498 0
M  V30 7797 N 755.309 1.25446 -0.953992 0
M  V30 7798 C 756.242 2.24341 -0.417912 0
M  V30 7799 C 757.22 1.54709 0.5004 0
M  V30 7800 O 758.404 1.83414 0.434923 0
M  V30 7801 C 755.531 3.36352 0.398155 0
M  V30 7802 C 754.577 4.24007 -0.460461 0
M  V30 7803 S 755.41 5.00951 -1.89231 0
M  V30 7804 C 756.566 6.1643 -1.08465 0
M  V30 7805 H 756.799 2.69465 -1.25602 0
M  V30 7806 H 754.332 1.34512 -0.758018 0
M  V30 7807 H 756.29 4.01325 0.863059 0
M  V30 7808 H 754.951 2.89813 1.21108 0
M  V30 7809 H 754.144 5.03728 0.165415 0
M  V30 7810 H 753.746 3.63965 -0.860549 0
M  V30 7811 H 756.038 6.76681 -0.333017 0
M  V30 7812 H 756.981 6.8335 -1.85577 0
M  V30 7813 H 757.389 5.61139 -0.615062 0
M  V30 7814 N 756.787 0.722489 1.40064 0
M  V30 7815 C 758.017 0.274439 2.04769 0
M  V30 7816 C 758.425 -1.09125 1.54559 0
M  V30 7817 O 757.768 -1.69834 0.700149 0
M  V30 7818 C 757.83 0.184091 3.59028 0
M  V30 7819 C 757.494 1.48619 4.32159 0
M  V30 7820 C 758.491 2.42947 4.59644 0
M  V30 7821 C 756.176 1.74703 4.7094 0
M  V30 7822 C 758.17 3.616 5.24904 0
M  V30 7823 C 755.857 2.93636 5.3593 0
M  V30 7824 C 756.855 3.86907 5.62843 0
M  V30 7825 O 756.543 5.03753 6.26489 0
M  V30 7826 H 756.275 0.119847 0.665292 0
M  V30 7827 H 758.829 0.983352 1.80331 0
M  V30 7828 H 757.059 -0.580821 3.82313 0
M  V30 7829 H 758.748 -0.230306 4.05246 0
M  V30 7830 H 759.514 2.24062 4.30141 0
M  V30 7831 H 755.393 1.02955 4.49356 0
M  V30 7832 H 758.937 4.34418 5.45827 0
M  V30 7833 H 754.834 3.12428 5.64853 0
M  V30 7834 H 755.602 5.03922 6.44984 0
M  V30 7835 N 758.265 -1.50454 0.469181 0
M  V30 7836 C 759.195 -2.31353 -0.31592 0
M  V30 7837 C 760.176 -1.38172 -0.992094 0
M  V30 7838 O 761.361 -1.67093 -0.989633 0
M  V30 7839 C 758.491 -3.1786 -1.39937 0
M  V30 7840 C 757.445 -4.19578 -0.844909 0
M  V30 7841 C 756.771 -4.9481 -2.0265 0
M  V30 7842 C 758.071 -5.22106 0.142499 0
M  V30 7843 H 759.765 -2.97237 0.359269 0
M  V30 7844 H 757.311 -1.42942 0.174224 0
M  V30 7845 H 759.264 -3.7325 -1.95607 0
M  V30 7846 H 757.988 -2.49858 -2.1033 0
M  V30 7847 H 756.647 -3.65285 -0.310189 0
M  V30 7848 H 756.295 -4.23282 -2.71737 0
M  V30 7849 H 755.995 -5.63613 -1.66174 0
M  V30 7850 H 757.519 -5.53035 -2.58815 0
M  V30 7851 H 758.933 -5.72378 -0.324966 0
M  V30 7852 H 757.33 -5.98618 0.421441 0
M  V30 7853 H 758.4 -4.7297 1.06901 0
M  V30 7854 N 759.743 -0.201713 -1.56304 0
M  V30 7855 C 760.968 0.443815 -2.02596 0
M  V30 7856 C 761.393 1.53945 -1.08086 0
M  V30 7857 O 760.751 1.81182 -0.0655056 0
M  V30 7858 C 760.799 0.971066 -3.47279 0
M  V30 7859 O 759.903 2.0836 -3.55893 0
M  V30 7860 H 759.244 0.10294 -0.655972 0
M  V30 7861 H 761.774 -0.314533 -2.02168 0
M  V30 7862 H 761.784 1.28598 -3.87204 0
M  V30 7863 H 760.459 0.169048 -4.15556 0
M  V30 7864 H 759.036 1.77683 -3.27846 0
M  V30 7865 N 761.222 1.57436 0.0718424 0
M  V30 7866 C 762.154 2.00412 1.1121 0
M  V30 7867 C 763.167 0.910074 1.34987 0
M  V30 7868 O 764.356 1.18796 1.33228 0
M  V30 7869 C 761.456 2.32786 2.46301 0
M  V30 7870 C 760.629 3.64036 2.4248 0
M  V30 7871 C 759.688 3.8408 3.59679 0
M  V30 7872 O 758.714 4.55667 3.4111 0
M  V30 7873 N 759.916 3.2643 4.80025 0
M  V30 7874 H 762.681 2.90264 0.746118 0
M  V30 7875 H 760.242 1.59791 0.260495 0
M  V30 7876 H 762.234 2.43368 3.23348 0
M  V30 7877 H 760.804 1.48824 2.74901 0
M  V30 7878 H 760.024 3.64208 1.50818 0
M  V30 7879 H 761.312 4.50217 2.37027 0
M  V30 7880 H 760.71 2.68325 4.98014 0
M  V30 7881 H 759.267 3.42461 5.54584 0
M  V30 7882 N 762.7 -0.34323 1.53817 0
M  V30 7883 C 764.111 -0.918823 1.62525 0
M  V30 7884 C 764.462 -1.89542 0.506765 0
M  V30 7885 O 763.587 -2.13326 -0.363441 0
M  V30 7886 C 764.182 -1.67326 2.94597 0
M  V30 7887 C 762.741 -2.19786 3.05567 0
M  V30 7888 C 761.888 -1.01708 2.57974 0
M  V30 7889 H 764.839 -0.121358 1.58235 0
M  V30 7890 H 764.86 -2.53615 2.83654 0
M  V30 7891 H 764.372 -0.962223 3.75983 0
M  V30 7892 H 762.473 -2.94065 2.28816 0
M  V30 7893 H 762.586 -2.46135 4.1104 0
M  V30 7894 H 760.95 -1.39058 2.13389 0
M  V30 7895 H 761.733 -0.320671 3.41799 0
M  V30 7896 N 764.178 -1.45556 -0.604258 0
M  V30 7897 C 765.426 -1.4945 -1.36048 0
M  V30 7898 C 765.747 -0.138933 -1.94504 0
M  V30 7899 O 765.017 0.832097 -1.7735 0
M  V30 7900 H 763.597 -0.550381 -0.505064 0
M  V30 7901 H 766.259 -1.81535 -0.709308 0
M  V30 7902 H 765.355 -2.23519 -2.17821 0
M  V30 7903 N 765.656 0.84705 -1.32902 0
M  V30 7904 C 766.566 1.98845 -1.2449 0
M  V30 7905 C 767.582 1.7329 -0.15702 0
M  V30 7906 O 768.758 1.978 -0.379104 0
M  V30 7907 C 765.823 3.32679 -0.975985 0
M  V30 7908 C 764.884 3.71405 -2.15306 0
M  V30 7909 C 764.117 4.98853 -1.89688 0
M  V30 7910 O 764.34 5.64134 -0.843168 0
M  V30 7911 O 763.274 5.34889 -2.76002 0
M  V30 7912 H 767.1 2.0888 -2.2046 0
M  V30 7913 H 764.685 0.978852 -1.12867 0
M  V30 7914 H 766.567 4.12885 -0.842826 0
M  V30 7915 H 765.242 3.23667 -0.0464954 0
M  V30 7916 H 764.149 2.91743 -2.34172 0
M  V30 7917 H 765.482 3.85073 -3.06561 0
M  V30 7918 N 767.134 1.16236 1.06428 0
M  V30 7919 C 768.359 0.967688 1.83441 0
M  V30 7920 C 768.784 -0.479167 1.81894 0
M  V30 7921 O 768.142 -1.34224 1.21875 0
M  V30 7922 C 768.19 1.49806 3.2801 0
M  V30 7923 O 767.294 0.703481 4.06356 0
M  V30 7924 H 766.635 0.344468 0.56766 0
M  V30 7925 H 769.165 1.54442 1.34197 0
M  V30 7926 H 769.175 1.51495 3.78831 0
M  V30 7927 H 767.85 2.55133 3.2845 0
M  V30 7928 H 766.427 0.756986 3.65136 0
M  V30 7929 N 768.612 -1.24939 0.960631 0
M  V30 7930 C 769.84 -1.96881 0.636045 0
M  V30 7931 C 770.255 -1.71334 -0.793093 0
M  V30 7932 O 769.612 -0.992917 -1.53125 0
M  V30 7933 C 769.663 -3.50309 0.892533 0
M  V30 7934 O 769.384 -3.74977 2.26548 0
M  V30 7935 C 770.885 -4.39474 0.581159 0
M  V30 7936 H 768.105 -0.627399 0.237931 0
M  V30 7937 H 770.649 -1.58952 1.28664 0
M  V30 7938 H 768.804 -3.86326 0.288257 0
M  V30 7939 H 769.218 -4.69401 2.34014 0
M  V30 7940 H 770.692 -5.46008 0.811125 0
M  V30 7941 H 771.169 -4.3652 -0.48443 0
M  V30 7942 H 771.775 -4.09032 1.16502 0
M  V30 7943 N 770.09 -0.729906 -1.39679 0
M  V30 7944 C 771.315 -0.284345 -2.05442 0
M  V30 7945 C 771.74 1.07056 -1.54663 0
M  V30 7946 O 771.098 1.67732 -0.688157 0
M  V30 7947 C 771.146 -0.290089 -3.59431 0
M  V30 7948 O 770.25 0.723978 -4.05995 0
M  V30 7949 H 769.591 -0.130311 -0.651088 0
M  V30 7950 H 772.121 -0.994403 -1.78809 0
M  V30 7951 H 772.131 -0.132712 -4.07784 0
M  V30 7952 H 770.806 -1.27877 -3.95753 0
M  V30 7953 H 769.383 0.533154 -3.69069 0
M  V30 7954 N 771.568 1.50203 -0.477153 0
M  V30 7955 C 772.5 2.26508 0.350239 0
M  V30 7956 C 773.513 1.32081 0.95176 0
M  V30 7957 O 774.702 1.57546 0.839139 0
M  V30 7958 C 771.802 3.0361 1.50579 0
M  V30 7959 C 770.975 4.25438 1.01595 0
M  V30 7960 C 770.034 4.84783 2.04626 0
M  V30 7961 O 769.06 5.45528 1.62442 0
M  V30 7962 N 770.262 4.72318 3.37485 0
M  V30 7963 H 773.027 2.98155 -0.30394 0
M  V30 7964 H 770.588 1.58938 -0.308289 0
M  V30 7965 H 772.58 3.4019 2.1921 0
M  V30 7966 H 771.15 2.34724 2.06455 0
M  V30 7967 H 770.37 3.93894 0.155316 0
M  V30 7968 H 771.658 5.04413 0.666694 0
M  V30 7969 H 771.056 4.24022 3.74462 0
M  V30 7970 H 769.613 5.13149 4.01897 0
M  V30 7971 N 773.046 0.209999 1.56195 0
M  V30 7972 C 773.994 -0.721416 2.2113 0
M  V30 7973 C 774.988 -1.20852 1.18706 0
M  V30 7974 O 776.194 -1.16968 1.36815 0
M  V30 7975 H 772.569 -0.251033 0.708863 0
M  V30 7976 H 774.54 -0.150193 2.98022 0
M  V30 7977 C 773.289 -1.92392 2.89621 0
M  V30 7978 H 772.612 -1.5582 3.68185 0
M  V30 7979 H 774.052 -2.55367 3.38473 0
M  V30 7980 C 772.511 -2.77208 1.91461 0
M  V30 7981 O 773.041 -3.75603 1.42426 0
M  V30 7982 N 771.247 -2.43006 1.59363 0
M  V30 7983 H 770.794 -1.63047 1.99433 0
M  V30 7984 H 770.752 -3.00036 0.939449 0
M  V30 7985 N 774.524 -1.57472 -0.0634922 0
M  V30 7986 C 775.773 -1.86837 -0.759928 0
M  V30 7987 C 776.086 -0.803823 -1.7832 0
M  V30 7988 O 777.292 -0.985578 -2.52979 0
M  V30 7989 C 775.748 -3.31448 -1.4025 0
M  V30 7990 C 775.356 -4.46052 -0.417368 0
M  V30 7991 C 777.1 -3.70003 -2.08082 0
M  V30 7992 C 775.007 -5.81707 -1.06633 0
M  V30 7993 H 773.937 -0.697009 -0.287567 0
M  V30 7994 H 776.588 -1.83495 -0.0133914 0
M  V30 7995 H 774.97 -3.29427 -2.19759 0
M  V30 7996 H 776.144 -4.5948 0.348503 0
M  V30 7997 H 774.459 -4.16104 0.156955 0
M  V30 7998 H 777.056 -4.68653 -2.57426 0
M  V30 7999 H 777.399 -3.00226 -2.88393 0
M  V30 8000 H 777.932 -3.7405 -1.35394 0
M  V30 8001 H 774.671 -6.54798 -0.303374 0
M  V30 8002 H 774.191 -5.72064 -1.80286 0
M  V30 8003 H 775.87 -6.27317 -1.58376 0
M  V30 8004 N 776.003 0.335068 -1.53997 0
M  V30 8005 C 776.966 1.39481 -1.81872 0
M  V30 8006 C 777.966 1.4524 -0.690078 0
M  V30 8007 O 779.156 1.45467 -0.958377 0
M  V30 8008 C 776.288 2.78329 -1.9684 0
M  V30 8009 H 777.481 1.16024 -2.76547 0
M  V30 8010 H 775.034 0.569926 -1.45539 0
M  V30 8011 H 775.769 3.07058 -1.04337 0
M  V30 8012 H 775.554 2.75544 -2.78958 0
M  V30 8013 H 777.044 3.55016 -2.19894 0
M  V30 8014 N 777.481 1.45874 0.596531 0
M  V30 8015 C 778.729 1.5017 1.35253 0
M  V30 8016 C 779.05 0.149246 1.94428 0
M  V30 8017 O 778.32 -0.82268 1.77789 0
M  V30 8018 H 776.9 0.553052 0.502138 0
M  V30 8019 H 779.562 1.81908 0.699671 0
M  V30 8020 H 778.658 2.24671 2.16632 0
M  V30 8021 N 778.959 -0.83999 1.33349 0
M  V30 8022 C 780.206 -1.59517 1.24742 0
M  V30 8023 C 780.534 -1.93598 -0.187077 0
M  V30 8024 O 779.789 -1.58782 -1.14398 0
M  V30 8025 C 780.088 -2.91571 2.06691 0
M  V30 8026 C 779.754 -2.76856 3.55895 0
M  V30 8027 C 778.416 -2.72551 3.96572 0
M  V30 8028 C 780.768 -2.61741 4.50712 0
M  V30 8029 C 778.096 -2.51028 5.30285 0
M  V30 8030 C 780.448 -2.41752 5.84584 0
M  V30 8031 C 779.112 -2.35848 6.24445 0
M  V30 8032 H 778.382 -0.583714 0.456463 0
M  V30 8033 H 781.029 -0.973261 1.64924 0
M  V30 8034 H 779.334 -3.57961 1.59284 0
M  V30 8035 H 781.031 -3.49053 1.9739 0
M  V30 8036 H 777.621 -2.81039 3.23597 0
M  V30 8037 H 781.805 -2.64102 4.20195 0
M  V30 8038 H 777.061 -2.44903 5.60208 0
M  V30 8039 H 781.235 -2.2904 6.57658 0
M  V30 8040 H 778.862 -2.18931 7.27993 0
M  V30 8041 N 780.437 -1.16799 -1.0581 0
M  V30 8042 C 781.677 -0.963264 -1.80279 0
M  V30 8043 C 782.041 0.499671 -1.85384 0
M  V30 8044 O 783.242 0.823264 -2.55882 0
M  V30 8045 C 781.513 -1.57938 -3.20609 0
M  V30 8046 S 783.072 -1.51997 -4.11634 0
M  V30 8047 H 779.89 -0.346302 -0.620964 0
M  V30 8048 H 782.492 -1.48632 -1.26999 0
M  V30 8049 H 781.196 -2.63672 -3.14492 0
M  V30 8050 H 780.727 -1.05586 -3.78966 0
M  V30 8051 H 782.742 -0.523625 -4.93429 0
M  V30 8052 N 781.915 1.24427 -0.967243 0
M  V30 8053 C 782.863 2.27403 -0.488927 0
M  V30 8054 C 783.857 1.63388 0.447302 0
M  V30 8055 O 785.063 1.77085 0.322643 0
M  V30 8056 H 781.438 0.738921 -0.139643 0
M  V30 8057 H 783.409 2.65122 -1.36942 0
M  V30 8058 C 782.158 3.4709 0.205787 0
M  V30 8059 H 781.481 3.96591 -0.50551 0
M  V30 8060 H 782.921 4.2099 0.504296 0
M  V30 8061 C 781.38 3.04923 1.43261 0
M  V30 8062 O 781.91 3.12043 2.52967 0
M  V30 8063 N 780.116 2.59976 1.29849 0
M  V30 8064 H 779.663 2.54382 0.405876 0
M  V30 8065 H 779.621 2.32128 2.12047 0
M  V30 8066 N 783.393 0.737304 1.3929 0
M  V30 8067 C 784.303 0.100464 2.34385 0
M  V30 8068 C 785.319 -0.719282 1.58437 0
M  V30 8069 O 786.495 -0.647216 1.90717 0
M  V30 8070 C 783.56 -0.794325 3.37478 0
M  V30 8071 C 782.621 0.0379345 4.29283 0
M  V30 8072 C 781.854 -0.814241 5.27452 0
M  V30 8073 O 782.077 -2.05288 5.32177 0
M  V30 8074 O 781.011 -0.241679 6.01415 0
M  V30 8075 H 784.837 0.885407 2.90507 0
M  V30 8076 H 782.422 0.497999 1.40856 0
M  V30 8077 H 784.304 -1.30622 4.00644 0
M  V30 8078 H 782.979 -1.55804 2.83737 0
M  V30 8079 H 781.886 0.595405 3.69331 0
M  V30 8080 H 783.219 0.763926 4.86236 0
M  V30 8081 N 784.871 -1.49948 0.485112 0
M  V30 8082 C 786.117 -2.0332 -0.0571625 0
M  V30 8083 C 786.472 -1.35951 -1.36144 0
M  V30 8084 O 785.765 -0.480871 -1.85467 0
M  V30 8085 C 785.959 -3.56282 -0.282434 0
M  V30 8086 C 785.788 -4.38476 0.998455 0
M  V30 8087 C 784.558 -4.81076 1.54576 0
M  V30 8088 C 786.756 -4.78013 1.89758 0
M  V30 8089 N 784.738 -5.47641 2.77421 0
M  V30 8090 C 786.109 -5.44133 2.97186 0
M  V30 8091 C 788.164 -4.59963 1.90627 0
M  V30 8092 C 786.867 -5.94113 4.0549 0
M  V30 8093 C 788.893 -5.10893 2.97897 0
M  V30 8094 C 788.255 -5.77 4.04043 0
M  V30 8095 H 784.354 -0.781758 0.0194642 0
M  V30 8096 H 786.938 -1.833 0.65644 0
M  V30 8097 H 785.109 -3.76219 -0.965083 0
M  V30 8098 H 786.841 -3.96299 -0.820298 0
M  V30 8099 H 783.596 -4.60814 1.09304 0
M  V30 8100 H 784.02 -5.85521 3.39844 0
M  V30 8101 H 788.662 -4.08274 1.09875 0
M  V30 8102 H 786.38 -6.44832 4.8705 0
M  V30 8103 H 789.966 -4.98748 2.9957 0
M  V30 8104 H 788.846 -6.15698 4.85681 0
M  V30 8105 N 786.349 -0.21828 -1.56081 0
M  V30 8106 C 787.597 0.413488 -1.97825 0
M  V30 8107 C 787.918 1.60527 -1.10707 0
M  V30 8108 O 787.188 1.9504 -0.183378 0
M  V30 8109 H 785.768 0.155757 -0.730581 0
M  V30 8110 H 788.43 -0.310413 -1.92412 0
M  V30 8111 H 787.526 0.742024 -3.03151 0
M  V30 8112 N 787.827 1.57504 0.0551401 0
M  V30 8113 C 789.076 1.87237 0.750009 0
M  V30 8114 C 789.389 0.813268 1.77891 0
M  V30 8115 O 790.595 0.99898 2.52453 0
M  V30 8116 C 789.051 3.32187 1.38491 0
M  V30 8117 C 788.659 4.46267 0.393707 0
M  V30 8118 C 790.403 3.71101 2.06117 0
M  V30 8119 C 788.31 5.82265 1.03547 0
M  V30 8120 H 787.24 0.698524 0.283866 0
M  V30 8121 H 789.891 1.835 0.00365997 0
M  V30 8122 H 788.273 3.30588 2.18008 0
M  V30 8123 H 789.447 4.59289 -0.372865 0
M  V30 8124 H 787.762 4.16015 -0.17902 0
M  V30 8125 H 790.359 4.70012 2.54937 0
M  V30 8126 H 790.702 3.01751 2.86796 0
M  V30 8127 H 791.235 3.74762 1.33409 0
M  V30 8128 H 787.974 6.54949 0.268644 0
M  V30 8129 H 787.494 5.73012 1.7725 0
M  V30 8130 H 789.173 6.28148 1.55047 0
M  V30 8131 N 789.305 -0.326896 1.54172 0
M  V30 8132 C 790.582 -1.08326 1.62864 0
M  V30 8133 C 790.962 -2.06018 0.46039 0
M  V30 8134 O 790.31 -2.21889 -0.545685 0
M  V30 8135 C 790.52 -1.78816 2.9971 0
M  V30 8136 C 791.868 -2.31958 3.55641 0
M  V30 8137 O 792.892 -1.88888 3.01993 0
M  V30 8138 O 791.751 -3.10801 4.49517 0
M  V30 8139 H 788.845 -0.499131 0.659392 0
M  V30 8140 H 791.391 -0.327054 1.66519 0
M  V30 8141 H 790.163 -1.07739 3.76176 0
M  V30 8142 H 789.786 -2.61255 2.99719 0
M  V30 8143 N 790.784 -1.46188 -0.588786 0
M  V30 8144 C 792.009 -1.5498 -1.37826 0
M  V30 8145 C 792.434 -0.189498 -1.87143 0
M  V30 8146 O 791.792 0.829293 -1.61222 0
M  V30 8147 C 791.84 -2.55369 -2.54596 0
M  V30 8148 O 790.944 -2.08452 -3.55839 0
M  V30 8149 H 790.285 -0.521741 -0.41071 0
M  V30 8150 H 792.815 -1.91708 -0.714779 0
M  V30 8151 H 792.825 -2.74782 -3.01594 0
M  V30 8152 H 791.5 -3.54155 -2.18052 0
M  V30 8153 H 790.077 -1.98999 -3.15363 0
M  V30 8154 N 792.262 0.832906 -1.33792 0
M  V30 8155 C 793.487 1.62568 -1.28788 0
M  V30 8156 C 793.912 1.87599 0.137246 0
M  V30 8157 O 793.27 1.44436 1.0958 0
M  V30 8158 C 793.318 2.9495 -2.07453 0
M  V30 8159 O 792.422 3.86546 -1.43722 0
M  V30 8160 H 791.763 0.494809 -0.442787 0
M  V30 8161 H 794.293 1.03578 -1.76445 0
M  V30 8162 H 794.303 3.44599 -2.1844 0
M  V30 8163 H 792.978 2.76055 -3.11073 0
M  V30 8164 H 791.555 3.45044 -1.41417 0
M  V30 8165 N 793.74 1.17359 1.05189 0
M  V30 8166 C 794.67 0.91365 2.14883 0
M  V30 8167 C 795.651 -0.144365 1.69486 0
M  V30 8168 O 796.836 0.00587861 1.94199 0
M  V30 8169 C 793.966 0.426196 3.44675 0
M  V30 8170 C 792.92 1.4234 4.03638 0
M  V30 8171 C 792.246 0.793902 5.28773 0
M  V30 8172 C 793.546 2.7966 4.41121 0
M  V30 8173 H 795.24 1.831 2.36885 0
M  V30 8174 H 792.786 0.881781 1.13845 0
M  V30 8175 H 794.739 0.231767 4.20762 0
M  V30 8176 H 793.463 -0.526693 3.22325 0
M  V30 8177 H 792.122 1.60457 3.2962 0
M  V30 8178 H 791.77 -0.165824 5.02727 0
M  V30 8179 H 791.47 1.45959 5.69183 0
M  V30 8180 H 792.994 0.609747 6.07548 0
M  V30 8181 H 794.408 2.6526 5.08242 0
M  V30 8182 H 792.805 3.42807 4.92548 0
M  V30 8183 H 793.875 3.34068 3.51464 0
M  V30 8184 N 795.218 -1.23913 0.973828 0
M  V30 8185 C 796.15 -2.24397 0.466763 0
M  V30 8186 C 797.163 -1.57078 -0.427828 0
M  V30 8187 O 798.352 -1.76973 -0.233019 0
M  V30 8188 C 795.452 -3.37141 -0.344798 0
M  V30 8189 C 794.625 -4.34037 0.541349 0
M  V30 8190 C 793.684 -5.2576 -0.215243 0
M  V30 8191 O 792.71 -5.67842 0.39291 0
M  V30 8192 N 793.912 -5.60702 -1.5031 0
M  V30 8193 H 796.677 -2.68536 1.33074 0
M  V30 8194 H 794.238 -1.38017 0.846346 0
M  V30 8195 H 796.23 -3.95476 -0.859133 0
M  V30 8196 H 794.8 -2.92239 -1.10974 0
M  V30 8197 H 794.02 -3.74302 1.23659 0
M  V30 8198 H 795.308 -4.95738 1.1455 0
M  V30 8199 H 794.706 -5.28451 -2.01882 0
M  V30 8200 H 793.263 -6.21538 -1.96301 0
M  V30 8201 N 796.696 -0.74468 -1.38897 0
M  V30 8202 C 797.628 -0.0713608 -2.29089 0
M  V30 8203 C 798.641 0.693224 -1.47303 0
M  V30 8204 O 799.83 0.535785 -1.70269 0
M  V30 8205 C 796.93 0.923078 -3.26087 0
M  V30 8206 C 796.103 0.217998 -4.36856 0
M  V30 8207 C 795.162 1.12192 -5.14101 0
M  V30 8208 O 794.188 0.595771 -5.66073 0
M  V30 8209 N 795.39 2.45082 -5.26227 0
M  V30 8210 H 798.155 -0.845906 -2.87514 0
M  V30 8211 H 795.716 -0.594712 -1.50581 0
M  V30 8212 H 797.708 1.53061 -3.74639 0
M  V30 8213 H 796.278 1.59876 -2.68623 0
M  V30 8214 H 795.498 -0.570134 -3.90055 0
M  V30 8215 H 796.786 -0.270248 -5.08082 0
M  V30 8216 H 796.184 2.90294 -4.85537 0
M  V30 8217 H 794.741 3.00907 -5.78185 0
M  V30 8218 N 798.174 1.49689 -0.493057 0
M  V30 8219 C 799.137 2.27502 0.278485 0
M  V30 8220 C 800.137 1.33184 0.901037 0
M  V30 8221 O 801.327 1.56415 0.766801 0
M  V30 8222 C 798.459 3.10881 1.39878 0
M  V30 8223 H 799.652 2.97163 -0.404219 0
M  V30 8224 H 797.205 1.54324 -0.247774 0
M  V30 8225 H 797.94 2.45767 2.11587 0
M  V30 8226 H 797.725 3.80219 0.957924 0
M  V30 8227 H 799.215 3.69673 1.94247 0
M  V30 8228 N 799.652 0.226554 1.55963 0
M  V30 8229 C 800.9 -0.402991 1.98041 0
M  V30 8230 C 801.221 -1.59938 1.11557 0
M  V30 8231 O 800.491 -1.9494 0.193719 0
M  V30 8232 H 799.071 -0.15188 0.731397 0
M  V30 8233 H 801.733 0.320613 1.92245 0
M  V30 8234 H 800.829 -0.725937 3.0354 0
M  V30 8235 N 801.13 -1.57531 -0.0467866 0
M  V30 8236 C 802.378 -1.88078 -0.739656 0
M  V30 8237 C 802.699 -0.821936 -1.76831 0
M  V30 8238 O 801.969 0.146582 -1.95351 0
M  V30 8239 H 800.549 -0.694075 -0.276169 0
M  V30 8240 H 803.211 -1.94893 -0.0169391 0
M  V30 8241 H 802.307 -2.86396 -1.24031 0
M  V30 8242 N 802.608 0.318715 -1.54344 0
M  V30 8243 C 803.538 1.39751 -1.87061 0
M  V30 8244 C 804.519 1.53741 -0.727848 0
M  V30 8245 O 805.704 1.67541 -0.982016 0
M  V30 8246 C 802.834 2.76446 -2.10226 0
M  V30 8247 C 801.788 2.77239 -3.26071 0
M  V30 8248 C 801.114 4.17056 -3.34617 0
M  V30 8249 C 802.414 2.40555 -4.63606 0
M  V30 8250 H 804.108 1.12619 -2.77412 0
M  V30 8251 H 801.654 0.540318 -1.33479 0
M  V30 8252 H 803.607 3.51985 -2.31699 0
M  V30 8253 H 802.331 3.05066 -1.16629 0
M  V30 8254 H 800.99 2.04155 -3.04493 0
M  V30 8255 H 800.638 4.42824 -2.3857 0
M  V30 8256 H 800.338 4.18492 -4.12478 0
M  V30 8257 H 801.862 4.94401 -3.5833 0
M  V30 8258 H 803.276 3.05808 -4.84927 0
M  V30 8259 H 801.673 2.53234 -5.44052 0
M  V30 8260 H 802.743 1.35698 -4.65526 0
M  V30 8261 N 804.086 1.46499 0.581025 0
M  V30 8262 C 805.311 1.55708 1.37002 0
M  V30 8263 C 805.736 0.19942 1.8704 0
M  V30 8264 O 805.094 -0.820731 1.61659 0
M  V30 8265 C 805.142 2.56716 2.53238 0
M  V30 8266 O 804.246 2.10336 3.54729 0
M  V30 8267 H 803.587 0.523912 0.407937 0
M  V30 8268 H 806.117 1.92085 0.704602 0
M  V30 8269 H 806.127 2.76378 3.00132 0
M  V30 8270 H 804.802 3.55307 2.16171 0
M  V30 8271 H 803.379 2.00669 3.14303 0
M  V30 8272 N 805.565 -0.825799 1.34232 0
M  V30 8273 C 806.976 -1.39835 1.23706 0
M  V30 8274 C 807.327 -1.95709 -0.138649 0
M  V30 8275 O 806.452 -1.89833 -1.03886 0
M  V30 8276 C 807.047 -2.54203 2.23978 0
M  V30 8277 C 805.606 -3.07374 2.17251 0
M  V30 8278 C 804.753 -1.80232 2.10741 0
M  V30 8279 H 807.704 -0.630442 1.4564 0
M  V30 8280 H 807.725 -3.32214 1.8551 0
M  V30 8281 H 807.237 -2.13506 3.24094 0
M  V30 8282 H 805.338 -3.52583 1.20483 0
M  V30 8283 H 805.451 -3.6666 3.08379 0
M  V30 8284 H 803.815 -2.01012 1.56417 0
M  V30 8285 H 804.598 -1.41713 3.12686 0
M  V30 8286 N 807.043 -1.17915 -1.04565 0
M  V30 8287 C 807.975 -0.859359 -2.1248 0
M  V30 8288 C 808.988 0.140922 -1.62189 0
M  V30 8289 O 810.177 -0.0862361 -1.78292 0
M  V30 8290 C 807.277 -0.261811 -3.37887 0
M  V30 8291 C 806.45 -1.30651 -4.17431 0
M  V30 8292 C 805.509 -0.725575 -5.21174 0
M  V30 8293 O 804.535 -1.39901 -5.51739 0
M  V30 8294 N 805.737 0.479351 -5.78517 0
M  V30 8295 H 808.502 -1.78818 -2.40508 0
M  V30 8296 H 806.063 -1.07885 -1.20716 0
M  V30 8297 H 808.055 0.14028 -4.04457 0
M  V30 8298 H 806.625 0.570929 -3.07342 0
M  V30 8299 H 805.845 -1.88412 -3.46258 0
M  V30 8300 H 807.133 -2.01099 -4.67372 0
M  V30 8301 H 806.531 1.04431 -5.55977 0
M  V30 8302 H 805.088 0.823427 -6.46578 0
M  V30 8303 N 808.521 1.23394 -0.980386 0
M  V30 8304 C 809.769 1.91431 -0.647978 0
M  V30 8305 C 810.09 1.76871 0.821066 0
M  V30 8306 O 809.36 1.14808 1.58732 0
M  V30 8307 H 807.94 0.708516 -0.236673 0
M  V30 8308 H 810.602 1.50019 -1.2442 0
M  V30 8309 H 809.698 2.98854 -0.899592 0
M  V30 8310 N 809.999 0.752036 1.385 0
M  V30 8311 C 810.932 0.0717411 2.28087 0
M  V30 8312 C 811.91 -0.729945 1.45295 0
M  V30 8313 O 813.094 -0.708902 1.74662 0
M  V30 8314 C 810.221 -0.905237 3.26379 0
M  V30 8315 C 809.267 -0.189973 4.26077 0
M  V30 8316 S 810.1 1.10815 5.23909 0
M  V30 8317 C 811.256 0.134202 6.25756 0
M  V30 8318 H 811.489 0.831438 2.85437 0
M  V30 8319 H 809.022 0.544552 1.44478 0
M  V30 8320 H 810.98 -1.46358 3.83523 0
M  V30 8321 H 809.641 -1.63789 2.68015 0
M  V30 8322 H 808.834 -0.92985 4.95348 0
M  V30 8323 H 808.436 0.296804 3.7282 0
M  V30 8324 H 810.728 -0.700345 6.7387 0
M  V30 8325 H 811.671 0.794532 7.03628 0
M  V30 8326 H 812.079 -0.245801 5.63965 0
M  V30 8327 N 811.477 -1.49425 0.500989 0
M  V30 8328 C 812.409 -2.27037 -0.314159 0
M  V30 8329 C 813.422 -1.33578 -0.930626 0
M  V30 8330 O 814.611 -1.58861 -0.813968 0
M  V30 8331 C 811.711 -3.05968 -1.45729 0
M  V30 8332 C 810.884 -4.27 -0.948135 0
M  V30 8333 C 809.943 -4.87977 -1.96888 0
M  V30 8334 O 808.969 -5.48044 -1.53743 0
M  V30 8335 N 810.171 -4.77627 -3.29928 0
M  V30 8336 H 812.936 -2.97634 0.351336 0
M  V30 8337 H 810.497 -1.58427 0.333536 0
M  V30 8338 H 812.489 -3.43634 -2.1377 0
M  V30 8339 H 811.059 -2.37978 -2.02695 0
M  V30 8340 H 810.279 -3.94091 -0.0926311 0
M  V30 8341 H 811.567 -5.0541 -0.586362 0
M  V30 8342 H 810.965 -4.29926 -3.67669 0
M  V30 8343 H 809.522 -5.19478 -3.93682 0
M  V30 8344 N 812.955 -0.234822 -1.55841 0
M  V30 8345 C 814.204 0.393685 -1.97821 0
M  V30 8346 C 814.517 1.59947 -1.1259 0
M  V30 8347 O 815.723 2.29835 -1.44528 0
M  V30 8348 C 814.179 0.751811 -3.5196 0
M  V30 8349 C 813.787 -0.431898 -4.45913 0
M  V30 8350 C 815.531 1.34518 -4.02623 0
M  V30 8351 C 813.438 -0.0505976 -5.91378 0
M  V30 8352 H 812.368 0.150864 -0.738753 0
M  V30 8353 H 815.019 -0.333132 -1.80451 0
M  V30 8354 H 813.401 1.53642 -3.6498 0
M  V30 8355 H 814.575 -1.20935 -4.44647 0
M  V30 8356 H 812.89 -0.939385 -4.05666 0
M  V30 8357 H 815.487 1.64359 -5.08813 0
M  V30 8358 H 815.83 2.26554 -3.49255 0
M  V30 8359 H 816.363 0.623729 -3.9288 0
M  V30 8360 H 813.102 -0.937779 -6.48757 0
M  V30 8361 H 812.622 0.690898 -5.95808 0
M  V30 8362 H 814.301 0.37146 -6.45933 0
M  V30 8363 N 814.433 1.57553 0.0384317 0
M  V30 8364 C 815.844 1.77258 0.586211 0
M  V30 8365 C 816.195 0.864706 1.76117 0
M  V30 8366 O 815.32 0.057141 2.16325 0
M  V30 8367 C 815.915 3.21453 1.07021 0
M  V30 8368 C 814.474 3.42387 1.56358 0
M  V30 8369 C 813.621 2.72801 0.497508 0
M  V30 8370 H 816.572 1.57585 -0.187796 0
M  V30 8371 H 816.593 3.27451 1.93794 0
M  V30 8372 H 816.105 3.87505 0.214851 0
M  V30 8373 H 814.206 2.81497 2.44111 0
M  V30 8374 H 814.319 4.50968 1.61754 0
M  V30 8375 H 812.683 2.36305 0.95038 0
M  V30 8376 H 813.466 3.41529 -0.348234 0
M  V30 8377 N 815.911 -0.310526 1.54511 0
M  V30 8378 C 817.327 -0.655637 1.45511 0
M  V30 8379 C 817.527 -1.91114 0.638564 0
M  V30 8380 O 816.583 -2.52098 0.142497 0
M  V30 8381 C 817.896 -0.817501 2.89374 0
M  V30 8382 C 819.444 -0.914003 2.99358 0
M  V30 8383 C 819.919 -1.10794 4.44397 0
M  V30 8384 N 821.41 -1.17437 4.48066 0
M  V30 8385 C 822.145 -1.34255 5.57461 0
M  V30 8386 N 821.641 -1.48032 6.768 0
M  V30 8387 N 823.434 -1.37067 5.45132 0
M  V30 8388 H 815.585 0.514506 2.06074 0
M  V30 8389 H 817.848 0.168478 0.932909 0
M  V30 8390 H 817.554 0.034003 3.51684 0
M  V30 8391 H 817.428 -1.7094 3.36243 0
M  V30 8392 H 819.815 -1.756 2.37168 0
M  V30 8393 H 819.896 0.00170958 2.558 0
M  V30 8394 H 819.54 -0.270743 5.07178 0
M  V30 8395 H 819.47 -2.03773 4.85576 0
M  V30 8396 H 821.961 -1.08181 3.62084 0
M  V30 8397 H 822.274 -1.60593 7.5593 0
M  V30 8398 H 820.619 -1.45105 6.79683 0
M  V30 8399 H 823.81 -1.25909 4.50849 0
M  V30 8400 H 823.983 -1.49831 6.3044 0
M  V30 8401 N 817.389 -1.46805 -0.573248 0
M  V30 8402 C 818.614 -1.56433 -1.36175 0
M  V30 8403 C 819.039 -0.209336 -1.86932 0
M  V30 8404 O 818.397 0.812146 -1.62092 0
M  V30 8405 C 818.445 -2.58055 -2.51873 0
M  V30 8406 O 817.549 -2.12214 -3.53609 0
M  V30 8407 H 816.89 -0.526068 -0.405153 0
M  V30 8408 H 819.42 -1.92456 -0.694405 0
M  V30 8409 H 819.43 -2.77966 -2.98662 0
M  V30 8410 H 818.105 -3.56448 -2.14284 0
M  V30 8411 H 816.682 -2.02333 -3.13234 0
M  V30 8412 N 818.867 0.818669 -1.34668 0
M  V30 8413 C 820.278 1.39177 -1.24446 0
M  V30 8414 C 820.629 1.9578 0.128268 0
M  V30 8415 O 819.754 1.90382 1.02877 0
M  V30 8416 C 820.349 2.53012 -2.25323 0
M  V30 8417 C 818.908 3.06218 -2.18878 0
M  V30 8418 C 818.055 1.79112 -2.11694 0
M  V30 8419 H 821.006 0.622709 -1.45973 0
M  V30 8420 H 821.027 3.31226 -1.8727 0
M  V30 8421 H 820.539 2.11784 -3.25221 0
M  V30 8422 H 818.64 3.51939 -1.22351 0
M  V30 8423 H 818.753 3.65019 -3.10319 0
M  V30 8424 H 817.117 2.0018 -1.57481 0
M  V30 8425 H 817.9 1.40053 -3.13433 0
M  V30 8426 N 820.346 1.18468 1.03938 0
M  V30 8427 C 821.762 0.934635 1.29371 0
M  V30 8428 C 821.962 -0.399067 1.97509 0
M  V30 8429 O 821.018 -1.13309 2.25648 0
M  V30 8430 C 822.331 2.10111 2.15114 0
M  V30 8431 C 823.879 2.13955 2.28456 0
M  V30 8432 C 824.354 3.30024 3.17566 0
M  V30 8433 N 825.845 3.29893 3.25153 0
M  V30 8434 C 826.58 4.16346 3.94263 0
M  V30 8435 N 826.076 5.12934 4.65693 0
M  V30 8436 N 827.869 4.04256 3.90556 0
M  V30 8437 H 820.02 2.04294 0.581185 0
M  V30 8438 H 822.283 0.892727 0.318971 0
M  V30 8439 H 821.989 3.06572 1.72355 0
M  V30 8440 H 821.863 2.06283 3.15796 0
M  V30 8441 H 824.25 1.18072 2.7045 0
M  V30 8442 H 824.331 2.2184 1.2736 0
M  V30 8443 H 823.975 4.26181 2.76283 0
M  V30 8444 H 823.905 3.19376 4.18697 0
M  V30 8445 H 826.396 2.59969 2.74271 0
M  V30 8446 H 826.709 5.75271 5.16026 0
M  V30 8447 H 825.054 5.16893 4.64593 0
M  V30 8448 H 828.245 3.28083 3.33885 0
M  V30 8449 H 828.418 4.71848 4.44144 0
M  V30 8450 N 821.824 -1.22873 0.986916 0
M  V30 8451 C 822.756 -2.23889 0.490537 0
M  V30 8452 C 823.769 -1.57523 -0.411144 0
M  V30 8453 O 824.958 -1.7721 -0.214236 0
M  V30 8454 C 822.058 -3.37488 -0.30902 0
M  V30 8455 C 821.231 -4.33438 0.587354 0
M  V30 8456 C 820.29 -5.25958 -0.159467 0
M  V30 8457 O 819.316 -5.67394 0.453115 0
M  V30 8458 N 820.518 -5.62265 -1.44355 0
M  V30 8459 H 823.283 -2.67109 1.35914 0
M  V30 8460 H 820.844 -1.37111 0.860937 0
M  V30 8461 H 822.836 -3.96365 -0.817139 0
M  V30 8462 H 821.406 -2.934 -1.07868 0
M  V30 8463 H 820.626 -3.72969 1.27622 0
M  V30 8464 H 821.914 -4.94495 1.19801 0
M  V30 8465 H 821.312 -5.30562 -1.96266 0
M  V30 8466 H 819.869 -6.23585 -1.89698 0
M  V30 8467 N 823.302 -0.75937 -1.38099 0
M  V30 8468 C 824.551 -0.314864 -1.99227 0
M  V30 8469 C 824.864 1.1113 -1.60964 0
M  V30 8470 O 826.07 1.65657 -2.15105 0
M  V30 8471 C 824.526 -0.512001 -3.56239 0
M  V30 8472 C 824.134 -1.94762 -4.0345 0
M  V30 8473 C 825.878 -0.130497 -4.24299 0
M  V30 8474 C 823.785 -2.09301 -5.53125 0
M  V30 8475 H 822.715 -0.113978 -0.745335 0
M  V30 8476 H 825.366 -0.936736 -1.57789 0
M  V30 8477 H 823.748 0.179144 -3.95595 0
M  V30 8478 H 824.922 -2.67271 -3.75371 0
M  V30 8479 H 823.237 -2.28457 -3.48133 0
M  V30 8480 H 825.834 -0.21781 -5.34256 0
M  V30 8481 H 826.177 0.917644 -4.0606 0
M  V30 8482 H 826.71 -0.773716 -3.90203 0
M  V30 8483 H 823.449 -3.1239 -5.76275 0
M  V30 8484 H 822.969 -1.41261 -5.82928 0
M  V30 8485 H 824.648 -1.88571 -6.1891 0
M  V30 8486 N 824.78 1.49157 -0.508906 0
M  V30 8487 C 826.026 2.02773 0.0328469 0
M  V30 8488 C 826.359 1.38714 1.35912 0
M  V30 8489 O 825.634 0.525536 1.87266 0
M  V30 8490 C 825.917 3.59664 0.177088 0
M  V30 8491 C 825.77 4.34239 -1.17287 0
M  V30 8492 C 827.089 4.30505 0.913977 0
M  V30 8493 H 824.208 0.736926 0.0104631 0
M  V30 8494 H 826.85 1.781 -0.661851 0
M  V30 8495 H 825 3.80818 0.768774 0
M  V30 8496 H 826.672 4.24561 -1.80404 0
M  V30 8497 H 824.915 3.96486 -1.76016 0
M  V30 8498 H 825.586 5.42397 -1.02516 0
M  V30 8499 H 828.062 4.14054 0.412084 0
M  V30 8500 H 826.938 5.40012 0.983759 0
M  V30 8501 H 827.199 3.96302 1.95951 0
M  V30 8502 N 826.258 0.243083 1.55714 0
M  V30 8503 C 827.191 -0.698623 2.17243 0
M  V30 8504 C 828.169 -1.1756 1.12331 0
M  V30 8505 O 829.353 -1.25444 1.40699 0
M  V30 8506 C 826.48 -1.94901 2.77004 0
M  V30 8507 C 825.526 -1.61022 3.94936 0
M  V30 8508 S 826.359 -0.716173 5.30689 0
M  V30 8509 C 827.515 -1.97565 5.93901 0
M  V30 8510 H 827.748 -0.175724 2.9678 0
M  V30 8511 H 825.281 0.0275727 1.54375 0
M  V30 8512 H 827.239 -2.66687 3.12071 0
M  V30 8513 H 825.9 -2.44304 1.9742 0
M  V30 8514 H 825.093 -2.5398 4.35328 0
M  V30 8515 H 824.695 -0.972829 3.61126 0
M  V30 8516 H 826.987 -2.92333 6.11186 0
M  V30 8517 H 827.93 -1.61528 6.8943 0
M  V30 8518 H 828.338 -2.126 5.22935 0
M  V30 8519 N 827.736 -1.57571 -0.0300757 0
M  V30 8520 C 828.666 -2.0953 -1.03051 0
M  V30 8521 C 829.647 -0.99761 -1.37774 0
M  V30 8522 O 830.832 -1.27279 -1.46676 0
M  V30 8523 C 827.962 -2.57385 -2.33174 0
M  V30 8524 C 826.916 -3.71409 -2.12696 0
M  V30 8525 C 826.242 -4.05467 -3.4857 0
M  V30 8526 C 827.542 -4.99877 -1.51396 0
M  V30 8527 H 829.236 -2.93367 -0.597999 0
M  V30 8528 H 826.782 -1.41127 -0.286203 0
M  V30 8529 H 828.735 -2.92355 -3.03491 0
M  V30 8530 H 827.459 -1.70629 -2.78484 0
M  V30 8531 H 826.118 -3.36786 -1.44813 0
M  V30 8532 H 825.766 -3.15779 -3.91526 0
M  V30 8533 H 825.466 -4.82269 -3.35694 0
M  V30 8534 H 826.99 -4.4297 -4.2025 0
M  V30 8535 H 828.404 -5.3281 -2.11629 0
M  V30 8536 H 826.801 -5.81283 -1.49098 0
M  V30 8537 H 827.871 -4.82522 -0.479676 0
M  V30 8538 N 829.214 0.302327 -1.54673 0
M  V30 8539 C 830.146 1.39443 -1.81902 0
M  V30 8540 C 831.159 1.46891 -0.701914 0
M  V30 8541 O 832.348 1.49233 -0.979369 0
M  V30 8542 C 829.448 2.77824 -1.9408 0
M  V30 8543 C 828.621 2.93324 -3.24468 0
M  V30 8544 C 827.68 4.12196 -3.27079 0
M  V30 8545 O 826.706 4.04344 -4.00617 0
M  V30 8546 N 827.908 5.22768 -2.52376 0
M  V30 8547 H 830.673 1.1644 -2.76155 0
M  V30 8548 H 828.234 0.492392 -1.54231 0
M  V30 8549 H 830.226 3.5559 -1.9323 0
M  V30 8550 H 828.796 2.9378 -1.06828 0
M  V30 8551 H 828.016 2.02682 -3.38103 0
M  V30 8552 H 829.304 3.0059 -4.10516 0
M  V30 8553 H 828.702 5.32027 -1.92259 0
M  V30 8554 H 827.259 5.98874 -2.57281 0
M  V30 8555 N 830.692 1.47107 0.565454 0
M  V30 8556 C 832.108 1.32443 0.890566 0
M  V30 8557 C 832.308 0.308735 1.99121 0
M  V30 8558 O 831.364 -0.28265 2.50913 0
M  V30 8559 C 832.677 2.71548 1.2916 0
M  V30 8560 C 834.225 2.7977 1.40349 0
M  V30 8561 C 834.7 4.19497 1.83811 0
M  V30 8562 N 836.191 4.21998 1.90975 0
M  V30 8563 C 836.926 5.2702 2.25916 0
M  V30 8564 N 836.422 6.42353 2.59527 0
M  V30 8565 N 838.215 5.14393 2.26619 0
M  V30 8566 H 830.366 2.11786 -0.161328 0
M  V30 8567 H 832.629 0.947952 -0.00950631 0
M  V30 8568 H 832.335 3.47265 0.556753 0
M  V30 8569 H 832.209 3.02782 2.24951 0
M  V30 8570 H 834.596 2.0433 2.12916 0
M  V30 8571 H 834.677 2.522 0.427655 0
M  V30 8572 H 834.321 4.95439 1.11816 0
M  V30 8573 H 834.251 4.44486 2.82382 0
M  V30 8574 H 836.742 3.38791 1.6742 0
M  V30 8575 H 837.055 7.18252 2.85191 0
M  V30 8576 H 835.4 6.45687 2.57126 0
M  V30 8577 H 838.591 4.2332 1.99794 0
M  V30 8578 H 838.764 5.96349 2.5352 0
M  V30 8579 N 832.17 -0.811516 1.35101 0
M  V30 8580 C 833.117 -1.92308 1.27617 0
M  V30 8581 C 834.087 -1.6543 0.149091 0
M  V30 8582 O 835.272 -1.8789 0.331974 0
M  V30 8583 C 832.412 -3.28768 1.04908 0
M  V30 8584 C 831.525 -3.67865 2.26493 0
M  V30 8585 C 830.66 -4.9333 1.96974 0
M  V30 8586 C 829.699 -5.25041 3.1464 0
M  V30 8587 N 828.836 -6.41685 2.84929 0
M  V30 8588 H 833.676 -1.98041 2.22674 0
M  V30 8589 H 831.213 -0.968755 1.10696 0
M  V30 8590 H 833.171 -4.07426 0.897749 0
M  V30 8591 H 831.801 -3.22517 0.135151 0
M  V30 8592 H 830.853 -2.84507 2.52507 0
M  V30 8593 H 832.165 -3.87263 3.14371 0
M  V30 8594 H 831.319 -5.79803 1.78643 0
M  V30 8595 H 830.058 -4.75958 1.06374 0
M  V30 8596 H 829.063 -4.3706 3.33554 0
M  V30 8597 H 830.288 -5.44346 4.06035 0
M  V30 8598 H 828.234 -6.25747 1.96918 0
M  V30 8599 H 828.151 -6.6131 3.66341 0
M  V30 8600 H 829.419 -7.31198 2.70128 0
M  V30 8601 N 833.648 -1.19017 -1.03309 0
M  V30 8602 C 834.611 -0.926076 -2.09658 0
M  V30 8603 C 835.611 0.0917077 -1.60538 0
M  V30 8604 O 836.801 -0.142574 -1.73616 0
M  V30 8605 C 833.933 -0.390958 -3.38651 0
M  V30 8606 H 835.126 -1.86923 -2.3452 0
M  V30 8607 H 832.679 -1.00325 -1.19853 0
M  V30 8608 H 833.414 0.558446 -3.19456 0
M  V30 8609 H 833.199 -1.12474 -3.75622 0
M  V30 8610 H 834.689 -0.225131 -4.16993 0
M  V30 8611 N 835.127 1.22348 -0.993418 0
M  V30 8612 C 836.352 1.95666 -0.687727 0
M  V30 8613 C 836.777 1.72883 0.741161 0
M  V30 8614 O 836.135 1.00837 1.50671 0
M  V30 8615 C 836.183 3.46457 -0.99998 0
M  V30 8616 O 835.287 4.12281 -0.0989386 0
M  V30 8617 H 834.628 0.612102 -0.257346 0
M  V30 8618 H 837.158 1.55428 -1.33054 0
M  V30 8619 H 837.168 3.96976 -0.942035 0
M  V30 8620 H 835.843 3.62365 -2.04118 0
M  V30 8621 H 834.42 3.72295 -0.212413 0
M  V30 8622 N 836.605 0.766683 1.37694 0
M  V30 8623 C 837.552 0.147725 2.30327 0
M  V30 8624 C 838.522 -0.695366 1.50844 0
M  V30 8625 O 839.707 -0.64878 1.79431 0
M  V30 8626 C 836.847 -0.72935 3.37305 0
M  V30 8627 C 835.96 0.129795 4.31805 0
M  V30 8628 C 835.095 -0.751511 5.25857 0
M  V30 8629 C 834.134 0.110475 6.12 0
M  V30 8630 N 833.271 -0.728522 6.9831 0
M  V30 8631 H 838.111 0.943204 2.82679 0
M  V30 8632 H 835.648 0.476736 1.3916 0
M  V30 8633 H 837.606 -1.25263 3.97951 0
M  V30 8634 H 836.236 -1.49048 2.86329 0
M  V30 8635 H 835.288 0.770829 3.72508 0
M  V30 8636 H 836.6 0.794923 4.92425 0
M  V30 8637 H 835.754 -1.34146 5.91684 0
M  V30 8638 H 834.493 -1.45034 4.65636 0
M  V30 8639 H 833.498 0.712999 5.45157 0
M  V30 8640 H 834.723 0.806557 6.74293 0
M  V30 8641 H 832.669 -1.41206 6.40622 0
M  V30 8642 H 832.586 -0.12058 7.55904 0
M  V30 8643 H 833.854 -1.30303 7.68532 0
M  V30 8644 N 838.083 -1.48885 0.516809 0
M  V30 8645 C 839.494 -1.86557 0.0729921 0
M  V30 8646 C 839.845 -1.42767 -1.34581 0
M  V30 8647 O 838.97 -0.812514 -2.00567 0
M  V30 8648 C 839.565 -3.38567 0.125686 0
M  V30 8649 C 838.124 -3.75481 -0.262867 0
M  V30 8650 C 837.271 -2.72913 0.491281 0
M  V30 8651 H 840.222 -1.40978 0.728767 0
M  V30 8652 H 840.243 -3.74629 -0.665831 0
M  V30 8653 H 839.755 -3.70408 1.15842 0
M  V30 8654 H 837.856 -3.49251 -1.29824 0
M  V30 8655 H 837.969 -4.79052 0.067579 0
M  V30 8656 H 836.333 -2.54627 -0.0608525 0
M  V30 8657 H 837.116 -3.07599 1.5244 0
M  V30 8658 N 839.561 -0.251338 -1.55583 0
M  V30 8659 C 840.809 0.371434 -1.98657 0
M  V30 8660 C 841.13 1.58143 -1.14087 0
M  V30 8661 O 840.4 1.94607 -0.224708 0
M  V30 8662 H 838.98 0.140225 -0.733721 0
M  V30 8663 H 841.642 -0.351157 -1.9171 0
M  V30 8664 H 840.738 0.677554 -3.04657 0
M  V30 8665 N 841.039 1.57585 0.0217189 0
M  V30 8666 C 841.971 2.03849 1.04777 0
M  V30 8667 C 842.984 0.952558 1.32023 0
M  V30 8668 O 844.173 1.22974 1.29381 0
M  V30 8669 C 841.273 2.40504 2.3877 0
M  V30 8670 C 840.446 3.71566 2.30775 0
M  V30 8671 C 839.505 3.95329 3.47277 0
M  V30 8672 O 838.531 4.66289 3.26441 0
M  V30 8673 N 839.733 3.41536 4.69397 0
M  V30 8674 H 842.498 2.92491 0.653395 0
M  V30 8675 H 840.059 1.60538 0.209527 0
M  V30 8676 H 842.051 2.53532 3.15442 0
M  V30 8677 H 840.621 1.57494 2.70027 0
M  V30 8678 H 839.841 3.68822 1.39155 0
M  V30 8679 H 841.129 4.5753 2.22584 0
M  V30 8680 H 840.527 2.84033 4.89226 0
M  V30 8681 H 839.084 3.59932 5.43408 0
M  V30 8682 N 842.517 -0.29412 1.54831 0
M  V30 8683 C 843.765 -1.02643 1.74094 0
M  V30 8684 C 844.086 -1.87563 0.533402 0
M  V30 8685 O 843.356 -1.9061 -0.452192 0
M  V30 8686 H 841.936 -0.381959 0.641963 0
M  V30 8687 H 844.598 -0.323444 1.92197 0
M  V30 8688 H 843.694 -1.67558 2.63307 0
M  V30 8689 N 843.995 -1.47404 -0.557645 0
M  V30 8690 C 844.925 -1.62736 -1.67449 0
M  V30 8691 C 845.906 -0.476824 -1.6328 0
M  V30 8692 O 847.091 -0.706108 -1.80908 0
M  V30 8693 C 844.221 -1.641 -3.06086 0
M  V30 8694 C 843.175 -2.78377 -3.25101 0
M  V30 8695 C 842.501 -2.64812 -4.6452 0
M  V30 8696 C 843.801 -4.19971 -3.10518 0
M  V30 8697 H 845.495 -2.56232 -1.54873 0
M  V30 8698 H 843.041 -1.23312 -0.743649 0
M  V30 8699 H 844.994 -1.73417 -3.84063 0
M  V30 8700 H 843.718 -0.671652 -3.19619 0
M  V30 8701 H 842.377 -2.6857 -2.49531 0
M  V30 8702 H 842.025 -1.65906 -4.74852 0
M  V30 8703 H 841.725 -3.41477 -4.78191 0
M  V30 8704 H 843.249 -2.76057 -5.44633 0
M  V30 8705 H 844.663 -4.30757 -3.78313 0
M  V30 8706 H 843.06 -4.97419 -3.35699 0
M  V30 8707 H 844.13 -4.38369 -2.0727 0
M  V30 8708 N 845.473 0.80434 -1.35529 0
M  V30 8709 C 846.721 1.55845 -1.28673 0
M  V30 8710 C 847.042 1.94511 0.137976 0
M  V30 8711 O 846.312 1.63775 1.07492 0
M  V30 8712 H 844.892 0.577931 -0.473291 0
M  V30 8713 H 847.554 0.959293 -1.69657 0
M  V30 8714 H 846.65 2.47285 -1.90411 0
M  V30 8715 N 846.951 1.19563 1.02676 0
M  V30 8716 C 847.898 0.935291 2.11 0
M  V30 8717 C 848.868 -0.130685 1.65585 0
M  V30 8718 O 850.053 0.0119062 1.90796 0
M  V30 8719 C 847.193 0.482384 3.41712 0
M  V30 8720 C 846.306 1.61537 4.00662 0
M  V30 8721 C 845.441 1.11378 5.19392 0
M  V30 8722 C 844.48 2.22052 5.70403 0
M  V30 8723 N 843.617 1.73185 6.80405 0
M  V30 8724 H 848.457 1.86275 2.32606 0
M  V30 8725 H 845.994 0.928656 1.14081 0
M  V30 8726 H 847.952 0.20118 4.16715 0
M  V30 8727 H 846.582 -0.408086 3.2021 0
M  V30 8728 H 845.634 2.01173 3.22852 0
M  V30 8729 H 846.946 2.44912 4.34534 0
M  V30 8730 H 846.1 0.787935 6.01562 0
M  V30 8731 H 844.839 0.249789 4.8706 0
M  V30 8732 H 843.844 2.55465 4.86845 0
M  V30 8733 H 845.069 3.08911 6.04774 0
M  V30 8734 H 843.015 0.890973 6.49921 0
M  V30 8735 H 842.932 2.50148 7.13416 0
M  V30 8736 H 844.2 1.4357 7.66164 0
M  V30 8737 N 848.429 -1.21819 0.999893 0
M  V30 8738 C 849.657 -1.94758 0.698359 0
M  V30 8739 C 850.072 -1.73771 -0.738183 0
M  V30 8740 O 849.429 -1.04113 -1.49889 0
M  V30 8741 C 849.48 -3.47292 1.00353 0
M  V30 8742 O 849.201 -3.67579 2.38363 0
M  V30 8743 C 850.702 -4.37403 0.72068 0
M  V30 8744 H 847.922 -0.619512 0.257771 0
M  V30 8745 H 850.466 -1.54778 1.33656 0
M  V30 8746 H 848.621 -3.85213 0.411018 0
M  V30 8747 H 849.035 -4.61719 2.48829 0
M  V30 8748 H 850.509 -5.43151 0.984422 0
M  V30 8749 H 850.986 -4.3784 -0.345309 0
M  V30 8750 H 851.592 -4.05119 1.29456 0
M  V30 8751 N 849.908 -0.773975 -1.37286 0
M  V30 8752 C 851.136 -0.350758 -2.03905 0
M  V30 8753 C 851.551 1.02779 -1.58373 0
M  V30 8754 O 850.908 1.65646 -0.766009 0
M  V30 8755 C 850.959 -0.387335 -3.59419 0
M  V30 8756 O 850.68 -1.7115 -4.03286 0
M  V30 8757 C 852.181 0.047198 -4.43275 0
M  V30 8758 H 849.401 -0.146663 -0.654775 0
M  V30 8759 H 851.945 -1.04852 -1.75574 0
M  V30 8760 H 850.1 0.261865 -3.86514 0
M  V30 8761 H 850.514 -1.65166 -4.97816 0
M  V30 8762 H 851.988 -0.0295474 -5.51992 0
M  V30 8763 H 852.465 1.09786 -4.25257 0
M  V30 8764 H 853.071 -0.573899 -4.2141 0
M  V30 8765 N 851.386 1.48609 -0.524698 0
M  V30 8766 C 852.634 2.02097 0.0112991 0
M  V30 8767 C 852.955 1.40455 1.35268 0
M  V30 8768 O 852.225 0.56807 1.87483 0
M  V30 8769 H 850.805 0.746966 0.00716426 0
M  V30 8770 H 853.467 1.82378 -0.687329 0
M  V30 8771 H 852.563 3.11855 0.123531 0
M  V30 8772 N 852.864 0.259585 1.55447 0
M  V30 8773 C 854.11 -0.355207 2.00274 0
M  V30 8774 C 854.465 -1.54637 1.14477 0
M  V30 8775 O 853.758 -1.90519 0.203215 0
M  V30 8776 C 853.952 -0.802727 3.48269 0
M  V30 8777 C 853.781 0.34353 4.48386 0
M  V30 8778 C 852.551 0.822317 4.98564 0
M  V30 8779 C 854.749 1.17482 5.00702 0
M  V30 8780 N 852.731 1.93966 5.82452 0
M  V30 8781 C 854.102 2.14032 5.81885 0
M  V30 8782 C 856.157 1.20994 4.82975 0
M  V30 8783 C 854.86 3.1382 6.47232 0
M  V30 8784 C 856.886 2.19618 5.4911 0
M  V30 8785 C 856.248 3.14903 6.30092 0
M  V30 8786 H 852.347 -0.0955824 0.776137 0
M  V30 8787 H 854.931 0.380062 1.90954 0
M  V30 8788 H 853.102 -1.50726 3.57961 0
M  V30 8789 H 854.834 -1.39354 3.79951 0
M  V30 8790 H 851.589 0.404272 4.71871 0
M  V30 8791 H 852.013 2.50148 6.29091 0
M  V30 8792 H 856.655 0.487104 4.19985 0
M  V30 8793 H 854.373 3.87045 7.09381 0
M  V30 8794 H 857.959 2.23057 5.37342 0
M  V30 8795 H 856.839 3.8997 6.80362 0
M  V30 8796 N 854.342 -1.57594 -0.0133615 0
M  V30 8797 C 855.591 -1.8916 -0.700103 0
M  V30 8798 C 855.904 -0.860147 -1.75673 0
M  V30 8799 O 857.11 -1.06556 -2.49716 0
M  V30 8800 C 855.566 -3.35742 -1.29635 0
M  V30 8801 C 855.174 -4.47154 -0.275249 0
M  V30 8802 C 856.918 -3.76436 -1.96205 0
M  V30 8803 C 854.825 -5.84805 -0.880726 0
M  V30 8804 H 853.755 -0.705805 -0.265247 0
M  V30 8805 H 856.406 -1.83445 0.044993 0
M  V30 8806 H 854.788 -3.36252 -2.09167 0
M  V30 8807 H 855.962 -4.58139 0.494506 0
M  V30 8808 H 854.277 -4.15394 0.289256 0
M  V30 8809 H 856.874 -4.76606 -2.42386 0
M  V30 8810 H 857.217 -3.09249 -2.78695 0
M  V30 8811 H 857.75 -3.78168 -1.23426 0
M  V30 8812 H 854.489 -6.55431 -0.0949013 0
M  V30 8813 H 854.009 -5.7751 -1.61995 0
M  V30 8814 H 855.688 -6.32038 -1.38338 0
M  V30 8815 N 855.82 0.285905 -1.54985 0
M  V30 8816 C 856.77 1.35505 -1.83364 0
M  V30 8817 C 857.754 1.45273 -0.691698 0
M  V30 8818 O 858.946 1.49172 -0.952725 0
M  V30 8819 C 856.075 2.71756 -2.0977 0
M  V30 8820 C 855.161 2.6615 -3.30189 0
M  V30 8821 N 855.552 2.30161 -4.50399 0
M  V30 8822 C 853.85 2.97232 -3.3252 0
M  V30 8823 C 854.551 2.34228 -5.32459 0
M  V30 8824 N 853.527 2.72187 -4.70548 0
M  V30 8825 H 857.329 1.06668 -2.7386 0
M  V30 8826 H 854.843 0.494521 -1.54688 0
M  V30 8827 H 856.84 3.48864 -2.28253 0
M  V30 8828 H 855.5 3.01492 -1.20551 0
M  V30 8829 H 856.511 2.02358 -4.7673 0
M  V30 8830 H 853.188 3.31764 -2.53454 0
M  V30 8831 H 854.578 2.09074 -6.38543 0
M  V30 8832 N 857.298 1.47698 0.54982 0
M  V30 8833 C 858.714 1.3338 0.876468 0
M  V30 8834 C 858.914 0.329837 1.98782 0
M  V30 8835 O 857.97 -0.256022 2.51199 0
M  V30 8836 C 859.283 2.72903 1.26272 0
M  V30 8837 C 860.831 2.81243 1.37373 0
M  V30 8838 C 861.306 4.21423 1.79351 0
M  V30 8839 N 862.797 4.24 1.86489 0
M  V30 8840 C 863.532 5.29386 2.20313 0
M  V30 8841 N 863.028 6.4507 2.527 0
M  V30 8842 N 864.821 5.16768 2.2115 0
M  V30 8843 H 856.972 2.11603 -0.183781 0
M  V30 8844 H 859.235 0.947798 -0.0195601 0
M  V30 8845 H 858.941 3.47836 0.519889 0
M  V30 8846 H 858.815 3.05151 2.21727 0
M  V30 8847 H 861.202 2.06577 2.10737 0
M  V30 8848 H 861.283 2.52639 0.400882 0
M  V30 8849 H 860.927 4.96597 1.06555 0
M  V30 8850 H 860.857 4.47456 2.77652 0
M  V30 8851 H 863.348 3.40547 1.63817 0
M  V30 8852 H 863.661 7.21236 2.77557 0
M  V30 8853 H 862.006 6.48377 2.50263 0
M  V30 8854 H 865.197 4.25416 1.95293 0
M  V30 8855 H 865.37 5.99004 2.4718 0
M  V30 8856 N 858.776 -0.797141 1.35954 0
M  V30 8857 C 860.004 -1.5858 1.32891 0
M  V30 8858 C 860.419 -1.88578 -0.0915564 0
M  V30 8859 O 859.776 -1.49532 -1.04625 0
M  V30 8860 C 859.827 -2.91143 2.14284 0
M  V30 8861 O 859.548 -2.62442 3.50793 0
M  V30 8862 C 861.049 -3.85476 2.18914 0
M  V30 8863 H 858.269 -0.492111 0.456144 0
M  V30 8864 H 860.813 -0.98994 1.78943 0
M  V30 8865 H 858.968 -3.47219 1.71807 0
M  V30 8866 H 859.382 -3.4715 3.93175 0
M  V30 8867 H 860.856 -4.75574 2.80238 0
M  V30 8868 H 861.333 -4.22758 1.19047 0
M  V30 8869 H 861.939 -3.35334 2.61593 0
M  V30 8870 N 860.254 -1.20106 -1.0204 0
M  V30 8871 C 861.482 -1.0344 -1.79186 0
M  V30 8872 C 861.897 0.416542 -1.84148 0
M  V30 8873 O 861.254 1.28925 -1.29168 0
M  V30 8874 C 861.305 -1.60663 -3.23836 0
M  V30 8875 O 861.026 -3.00079 -3.19193 0
M  V30 8876 C 862.527 -1.48897 -4.17546 0
M  V30 8877 H 859.747 -0.364093 -0.563629 0
M  V30 8878 H 862.291 -1.5911 -1.28469 0
M  V30 8879 H 860.446 -1.09122 -3.71714 0
M  V30 8880 H 860.86 -3.27162 -4.09958 0
M  V30 8881 H 862.334 -1.93703 -5.16898 0
M  V30 8882 H 862.811 -0.440843 -4.36982 0
M  V30 8883 H 863.417 -1.9961 -3.75547 0
M  V30 8884 N 861.732 1.21287 -1.00634 0
M  V30 8885 C 862.662 2.25973 -0.588089 0
M  V30 8886 C 863.643 1.65527 0.391764 0
M  V30 8887 O 864.828 1.92179 0.279452 0
M  V30 8888 C 861.958 3.47197 0.0847336 0
M  V30 8889 C 860.912 4.20168 -0.815039 0
M  V30 8890 C 860.238 5.34699 -0.00855393 0
M  V30 8891 C 861.538 4.77416 -2.11828 0
M  V30 8892 H 863.232 2.61212 -1.46317 0
M  V30 8893 H 860.778 1.25563 -0.704985 0
M  V30 8894 H 862.731 4.19602 0.388821 0
M  V30 8895 H 861.455 3.11092 0.994456 0
M  V30 8896 H 860.114 3.49614 -1.10297 0
M  V30 8897 H 859.762 4.94837 0.902499 0
M  V30 8898 H 859.462 5.84449 -0.607664 0
M  V30 8899 H 860.986 6.09914 0.289317 0
M  V30 8900 H 862.4 5.41694 -1.87725 0
M  V30 8901 H 860.797 5.37561 -2.66736 0
M  V30 8902 H 861.867 3.96724 -2.78816 0
M  V30 8903 N 863.21 0.781244 1.36873 0
M  V30 8904 C 864.14 0.188128 2.32741 0
M  V30 8905 C 865.121 -0.672326 1.56249 0
M  V30 8906 O 866.306 -0.607835 1.84442 0
M  V30 8907 C 863.436 -0.684341 3.40491 0
M  V30 8908 C 862.39 0.0755641 4.27933 0
M  V30 8909 C 861.716 -0.916968 5.26779 0
M  V30 8910 C 863.016 1.26006 5.06873 0
M  V30 8911 H 864.71 0.989016 2.82593 0
M  V30 8912 H 862.256 0.477038 1.35869 0
M  V30 8913 H 864.209 -1.10915 4.06541 0
M  V30 8914 H 862.933 -1.51785 2.89187 0
M  V30 8915 H 861.592 0.481258 3.63427 0
M  V30 8916 H 861.24 -1.74528 4.71751 0
M  V30 8917 H 860.94 -0.413 5.86147 0
M  V30 8918 H 862.464 -1.34052 5.95703 0
M  V30 8919 H 863.878 0.911425 5.66009 0
M  V30 8920 H 862.275 1.69676 5.75613 0
M  V30 8921 H 863.345 2.05948 4.38991 0
M  V30 8922 N 864.689 -1.48329 0.532571 0
M  V30 8923 C 865.914 -2.074 0.00147755 0
M  V30 8924 C 866.339 -1.38615 -1.27151 0
M  V30 8925 O 865.697 -0.452949 -1.75551 0
M  V30 8926 C 865.745 -3.60029 -0.202866 0
M  V30 8927 O 864.849 -3.92327 -1.27097 0
M  V30 8928 H 864.19 -0.662777 0.0402883 0
M  V30 8929 H 866.72 -1.90701 0.741224 0
M  V30 8930 H 866.73 -4.05783 -0.424722 0
M  V30 8931 H 865.405 -4.09496 0.727033 0
M  V30 8932 H 863.982 -3.58348 -1.03156 0
M  V30 8933 N 866.167 -0.267825 -1.55308 0
M  V30 8934 C 867.583 0.0865107 -1.59365 0
M  V30 8935 C 867.783 1.55205 -1.28505 0
M  V30 8936 O 866.839 2.29978 -1.04241 0
M  V30 8937 C 868.152 -0.28155 -2.99379 0
M  V30 8938 C 869.7 -0.227565 -3.12172 0
M  V30 8939 C 870.175 -0.569959 -4.5444 0
M  V30 8940 N 871.666 -0.521238 -4.60258 0
M  V30 8941 C 872.401 -0.759061 -5.68354 0
M  V30 8942 N 871.897 -1.06112 -6.84626 0
M  V30 8943 N 873.69 -0.688351 -5.57869 0
M  V30 8944 H 865.841 -1.22332 -1.73633 0
M  V30 8945 H 868.104 -0.493703 -0.809297 0
M  V30 8946 H 867.81 -1.3005 -3.26772 0
M  V30 8947 H 867.684 0.381192 -3.75269 0
M  V30 8948 H 870.071 0.782093 -2.84548 0
M  V30 8949 H 870.152 -0.924461 -2.38511 0
M  V30 8950 H 869.796 -1.57727 -4.82788 0
M  V30 8951 H 869.726 0.148646 -5.2639 0
M  V30 8952 H 872.217 -0.297359 -3.76728 0
M  V30 8953 H 872.53 -1.22945 -7.62958 0
M  V30 8954 H 870.875 -1.09881 -6.86259 0
M  V30 8955 H 874.066 -0.452268 -4.6591 0
M  V30 8956 H 874.239 -0.877081 -6.42037 0
M  V30 8957 N 867.645 1.57599 0.00500368 0
M  V30 8958 C 868.893 1.89973 0.68953 0
M  V30 8959 C 869.214 0.868531 1.7459 0
M  V30 8960 O 868.484 -0.0947367 1.95671 0
M  V30 8961 H 867.064 0.701153 0.25767 0
M  V30 8962 H 869.726 1.94869 -0.0347392 0
M  V30 8963 H 868.822 2.89584 1.16394 0
M  V30 8964 N 869.123 -0.277682 1.55134 0
M  V30 8965 C 870.369 -1.0114 1.7578 0
M  V30 8966 C 870.702 -1.86109 0.554719 0
M  V30 8967 O 869.977 -1.89275 -0.447813 0
M  V30 8968 C 870.26 -1.89789 3.06027 0
M  V30 8969 C 870.113 -1.07844 4.3668 0
M  V30 8970 C 871.432 -2.88577 3.32282 0
M  V30 8971 H 868.551 -0.366277 0.639539 0
M  V30 8972 H 871.193 -0.284155 1.87863 0
M  V30 8973 H 869.343 -2.51796 2.95856 0
M  V30 8974 H 871.015 -0.479432 4.58802 0
M  V30 8975 H 869.258 -0.381764 4.32117 0
M  V30 8976 H 869.929 -1.73179 5.24131 0
M  V30 8977 H 872.405 -2.36702 3.42215 0
M  V30 8978 H 871.281 -3.47749 4.2469 0
M  V30 8979 H 871.542 -3.63458 2.51696 0
M  V30 8980 N 870.601 -1.47988 -0.541979 0
M  V30 8981 C 871.548 -1.61615 -1.6477 0
M  V30 8982 C 872.518 -0.458602 -1.59644 0
M  V30 8983 O 873.703 -0.680585 -1.78249 0
M  V30 8984 C 870.843 -1.65066 -3.03063 0
M  V30 8985 C 869.956 -2.91845 -3.18513 0
M  V30 8986 C 869.091 -2.86534 -4.47294 0
M  V30 8987 C 868.13 -4.0807 -4.5623 0
M  V30 8988 N 867.267 -4.00905 -5.76385 0
M  V30 8989 H 872.107 -2.56046 -1.52461 0
M  V30 8990 H 869.644 -1.26989 -0.742449 0
M  V30 8991 H 871.602 -1.65049 -3.83164 0
M  V30 8992 H 870.232 -0.74136 -3.14171 0
M  V30 8993 H 869.284 -3.01661 -2.31743 0
M  V30 8994 H 870.596 -3.81804 -3.20978 0
M  V30 8995 H 869.75 -2.84851 -5.35672 0
M  V30 8996 H 868.489 -1.94283 -4.47332 0
M  V30 8997 H 867.494 -4.10041 -3.66261 0
M  V30 8998 H 868.719 -5.01465 -4.5794 0
M  V30 8999 H 866.665 -3.11467 -5.77342 0
M  V30 9000 H 866.582 -4.84557 -5.80293 0
M  V30 9001 H 867.85 -4.03263 -6.67083 0
M  V30 9002 N 872.079 0.78992 -1.36375 0
M  V30 9003 C 873.012 1.90907 -1.25019 0
M  V30 9004 C 873.99 1.62043 -0.134463 0
M  V30 9005 O 875.174 1.86008 -0.305506 0
M  V30 9006 C 872.301 3.25716 -0.928822 0
M  V30 9007 C 871.347 3.73511 -2.05892 0
M  V30 9008 S 872.18 3.89332 -3.6767 0
M  V30 9009 C 873.336 5.27017 -3.37645 0
M  V30 9010 H 873.569 2.00247 -2.19746 0
M  V30 9011 H 871.102 0.949097 -1.21785 0
M  V30 9012 H 873.06 4.03586 -0.750219 0
M  V30 9013 H 871.721 3.141 0.000658424 0
M  V30 9014 H 870.914 4.71195 -1.78862 0
M  V30 9015 H 870.516 3.02688 -2.19672 0
M  V30 9016 H 872.808 6.1158 -2.91507 0
M  V30 9017 H 873.751 5.5905 -4.3459 0
M  V30 9018 H 874.159 4.94093 -2.73006 0
M  V30 9019 N 873.557 1.20646 1.01402 0
M  V30 9020 C 874.806 1.01242 1.7445 0
M  V30 9021 C 875.119 -0.455732 1.90217 0
M  V30 9022 O 876.325 -0.768951 2.60383 0
M  V30 9023 C 874.781 1.76275 3.13776 0
M  V30 9024 C 874.389 3.27201 3.06013 0
M  V30 9025 C 876.133 1.65248 3.91016 0
M  V30 9026 C 874.04 3.9476 4.40362 0
M  V30 9027 H 872.97 0.375202 0.654018 0
M  V30 9028 H 875.621 1.44292 1.13367 0
M  V30 9029 H 874.003 1.26013 3.75415 0
M  V30 9030 H 875.177 3.84695 2.53665 0
M  V30 9031 H 873.492 3.38669 2.42265 0
M  V30 9032 H 876.089 2.13061 4.90417 0
M  V30 9033 H 876.432 0.609128 4.1182 0
M  V30 9034 H 876.965 2.12937 3.3601 0
M  V30 9035 H 873.704 4.99258 4.24761 0
M  V30 9036 H 873.224 3.42054 4.92706 0
M  V30 9037 H 874.903 3.99159 5.09196 0
M  V30 9038 N 875.035 -1.20752 1.01276 0
M  V30 9039 C 876.446 -1.7175 0.732033 0
M  V30 9040 C 876.797 -1.8131 -0.749733 0
M  V30 9041 O 875.922 -1.47301 -1.58529 0
M  V30 9042 C 876.517 -3.11936 1.32217 0
M  V30 9043 C 875.076 -3.6026 1.09039 0
M  V30 9044 C 874.223 -2.37571 1.43022 0
M  V30 9045 H 877.174 -1.0582 1.1827 0
M  V30 9046 H 877.195 -3.73802 0.710771 0
M  V30 9047 H 876.707 -3.04946 2.40061 0
M  V30 9048 H 874.808 -3.72588 0.0294464 0
M  V30 9049 H 874.921 -4.45295 1.76775 0
M  V30 9050 H 873.285 -2.40128 0.849159 0
M  V30 9051 H 874.068 -2.33225 2.51915 0
M  V30 9052 N 876.513 -0.788492 -1.36457 0
M  V30 9053 C 877.761 -0.359749 -1.98872 0
M  V30 9054 C 878.082 1.07197 -1.62892 0
M  V30 9055 O 877.352 1.73875 -0.902463 0
M  V30 9056 H 875.932 -0.130029 -0.735596 0
M  V30 9057 H 878.594 -1.01033 -1.66668 0
M  V30 9058 H 877.69 -0.450835 -3.08827 0
M  V30 9059 N 877.991 1.48044 -0.54043 0
M  V30 9060 C 879.237 2.02797 -0.0101718 0
M  V30 9061 C 879.57 1.41565 1.32939 0
M  V30 9062 O 878.845 0.565139 1.86109 0
M  V30 9063 C 879.128 3.59959 0.100758 0
M  V30 9064 C 878.981 4.31654 -1.26471 0
M  V30 9065 C 880.3 4.32347 0.822455 0
M  V30 9066 H 877.419 0.736982 -0.00517052 0
M  V30 9067 H 880.061 1.76656 -0.69948 0
M  V30 9068 H 878.211 3.82363 0.687824 0
M  V30 9069 H 879.883 4.20639 -1.89369 0
M  V30 9070 H 878.126 3.92663 -1.84386 0
M  V30 9071 H 878.797 5.401 -1.13998 0
M  V30 9072 H 881.273 4.14835 0.324164 0
M  V30 9073 H 880.149 5.41978 0.868993 0
M  V30 9074 H 880.41 4.00369 1.87501 0
M  V30 9075 N 879.47 0.276058 1.55163 0
M  V30 9076 C 880.695 -0.346648 2.04483 0
M  V30 9077 C 881.12 -1.48613 1.15308 0
M  V30 9078 O 880.478 -1.80663 0.151875 0
M  V30 9079 C 880.526 -0.804268 3.51517 0
M  V30 9080 O 879.63 -1.91143 3.65429 0
M  V30 9081 H 878.971 -0.0715251 0.660136 0
M  V30 9082 H 881.501 0.410631 2.00437 0
M  V30 9083 H 881.511 -1.09977 3.92898 0
M  V30 9084 H 880.186 0.0294123 4.1589 0
M  V30 9085 H 878.763 -1.61839 3.3595 0
M  V30 9086 N 880.948 -1.576 0.00335426 0
M  V30 9087 C 882.178 -1.94713 -0.690682 0
M  V30 9088 C 882.586 -0.876915 -1.67651 0
M  V30 9089 O 881.929 0.152434 -1.83066 0
M  V30 9090 C 881.991 -3.27833 -1.47532 0
M  V30 9091 C 881.655 -4.52344 -0.650704 0
M  V30 9092 C 882.652 -5.19862 0.0630537 0
M  V30 9093 C 880.337 -4.98755 -0.595687 0
M  V30 9094 C 882.331 -6.32093 0.820779 0
M  V30 9095 C 880.018 -6.10875 0.165761 0
M  V30 9096 C 881.016 -6.77401 0.872724 0
M  V30 9097 O 880.704 -7.87372 1.62174 0
M  V30 9098 H 880.436 -0.646627 -0.197104 0
M  V30 9099 H 882.99 -2.05335 0.0516082 0
M  V30 9100 H 881.22 -3.13628 -2.26217 0
M  V30 9101 H 882.909 -3.50034 -2.05501 0
M  V30 9102 H 883.675 -4.84991 0.0297223 0
M  V30 9103 H 879.554 -4.46797 -1.13549 0
M  V30 9104 H 883.098 -6.83953 1.37312 0
M  V30 9105 H 878.995 -6.45187 0.200901 0
M  V30 9106 H 879.763 -8.03905 1.5388 0
M  V30 9107 N 882.426 0.269451 -1.5528 0
M  V30 9108 C 883.358 1.35553 -1.84819 0
M  V30 9109 C 884.371 1.45369 -0.732914 0
M  V30 9110 O 885.56 1.47122 -1.0108 0
M  V30 9111 C 882.66 2.73645 -1.9993 0
M  V30 9112 C 881.833 2.86376 -3.30617 0
M  V30 9113 C 880.892 4.05165 -3.35749 0
M  V30 9114 O 879.918 3.95756 -4.09104 0
M  V30 9115 N 881.12 5.17297 -2.63408 0
M  V30 9116 H 883.885 1.10557 -2.78563 0
M  V30 9117 H 881.446 0.459566 -1.5524 0
M  V30 9118 H 883.438 3.51411 -2.00729 0
M  V30 9119 H 882.008 2.91448 -1.13035 0
M  V30 9120 H 881.228 1.95465 -3.42326 0
M  V30 9121 H 882.516 2.91815 -4.16799 0
M  V30 9122 H 881.914 5.2783 -2.03501 0
M  V30 9123 H 880.471 5.93281 -2.69927 0
M  V30 9124 N 883.904 1.48273 0.534124 0
M  V30 9125 C 884.851 1.62487 1.6391 0
M  V30 9126 C 885.821 0.467062 1.59398 0
M  V30 9127 O 887.006 0.690029 1.77885 0
M  V30 9128 C 884.146 1.66671 3.02183 0
M  V30 9129 C 883.259 2.9353 3.16961 0
M  V30 9130 C 882.394 2.88902 4.45768 0
M  V30 9131 C 881.433 4.10483 4.54059 0
M  V30 9132 N 880.57 4.03956 5.74251 0
M  V30 9133 H 885.41 2.56851 1.51101 0
M  V30 9134 H 882.947 1.27381 0.735704 0
M  V30 9135 H 884.905 1.67079 3.82283 0
M  V30 9136 H 883.535 0.758011 3.13774 0
M  V30 9137 H 882.587 3.02886 2.3014 0
M  V30 9138 H 883.899 3.83501 3.18949 0
M  V30 9139 H 883.053 2.87688 5.34154 0
M  V30 9140 H 881.792 1.96652 4.46295 0
M  V30 9141 H 880.797 4.11977 3.64081 0
M  V30 9142 H 882.022 5.03887 4.55274 0
M  V30 9143 H 879.968 3.14525 5.75682 0
M  V30 9144 H 879.885 4.87628 5.77715 0
M  V30 9145 H 881.153 4.06795 6.64935 0
M  V30 9146 N 885.382 -0.782676 1.36792 0
M  V30 9147 C 886.631 -1.53605 1.30723 0
M  V30 9148 C 886.944 -1.95294 -0.109296 0
M  V30 9149 O 888.15 -2.69921 -0.292398 0
M  V30 9150 C 886.606 -2.77321 2.29393 0
M  V30 9151 C 886.214 -2.42774 3.76517 0
M  V30 9152 C 887.958 -3.55289 2.32314 0
M  V30 9153 C 885.865 -3.62926 4.66947 0
M  V30 9154 H 884.795 -0.576646 0.485794 0
M  V30 9155 H 887.446 -0.858255 1.62192 0
M  V30 9156 H 885.828 -3.46934 1.90927 0
M  V30 9157 H 887.002 -1.81014 4.23758 0
M  V30 9158 H 885.317 -1.78002 3.76436 0
M  V30 9159 H 887.914 -4.44573 2.97083 0
M  V30 9160 H 888.257 -3.94361 1.3336 0
M  V30 9161 H 888.79 -2.92662 2.69432 0
M  V30 9162 H 885.529 -3.28944 5.66989 0
M  V30 9163 H 885.049 -4.23828 4.24418 0
M  V30 9164 H 886.728 -4.29873 4.83548 0
M  V30 9165 N 886.86 -1.21182 -1.00761 0
M  V30 9166 C 888.137 -0.936297 -1.71735 0
M  V30 9167 C 888.517 0.552585 -2.03739 0
M  V30 9168 O 887.865 1.51672 -1.70903 0
M  V30 9169 C 888.075 -1.81867 -2.97868 0
M  V30 9170 C 889.423 -2.06594 -3.7095 0
M  V30 9171 O 890.447 -1.79194 -3.07844 0
M  V30 9172 O 889.306 -2.5292 -4.84452 0
M  V30 9173 H 886.4 -0.350867 -0.74888 0
M  V30 9174 H 888.946 -1.32098 -1.06527 0
M  V30 9175 H 887.718 -2.82643 -2.70607 0
M  V30 9176 H 887.341 -1.43463 -3.70815 0
M  V30 9177 N 888.338 1.20213 -1.01915 0
M  V30 9178 C 889.615 1.85348 -0.62495 0
M  V30 9179 C 889.995 1.91101 0.896854 0
M  V30 9180 O 889.343 1.42075 1.78961 0
M  V30 9181 C 889.553 3.24849 -1.27571 0
M  V30 9182 C 890.901 4.01107 -1.39277 0
M  V30 9183 O 891.925 3.34211 -1.23212 0
M  V30 9184 O 890.784 5.20914 -1.6526 0
M  V30 9185 H 887.878 0.798303 -0.215965 0
M  V30 9186 H 890.424 1.27782 -1.11669 0
M  V30 9187 H 889.196 3.1544 -2.31545 0
M  V30 9188 H 888.819 3.90049 -0.77122 0
M  V30 9189 N 889.816 0.795718 1.36037 0
M  V30 9190 C 891.093 0.294743 1.93367 0
M  V30 9191 C 891.473 -1.21406 1.72696 0
M  V30 9192 O 890.821 -2.00849 1.08959 0
M  V30 9193 C 891.031 0.694254 3.42025 0
M  V30 9194 C 892.379 0.677566 4.19159 0
M  V30 9195 O 893.403 0.635119 3.50492 0
M  V30 9196 O 892.262 0.726127 5.41655 0
M  V30 9197 H 889.356 0.0745459 0.823633 0
M  V30 9198 H 891.902 0.878685 1.4518 0
M  V30 9199 H 890.674 1.73458 3.50753 0
M  V30 9200 H 890.297 0.0845338 3.9751 0
M  V30 9201 N 891.294 -1.47756 0.548274 0
M  V30 9202 C 892.542 -2.02089 0.0208542 0
M  V30 9203 C 892.863 -1.42589 -1.33017 0
M  V30 9204 O 892.133 -0.597825 -1.86555 0
M  V30 9205 H 890.713 -0.746985 0.00472023 0
M  V30 9206 H 893.375 -1.81262 0.716257 0
M  V30 9207 H 892.471 -3.12012 -0.0739016 0
M  V30 9208 N 892.772 -0.284283 -1.55015 0
M  V30 9209 C 893.702 0.592663 -2.25853 0
M  V30 9210 C 894.683 1.15151 -1.25197 0
M  V30 9211 O 895.868 1.18395 -1.53936 0
M  V30 9212 C 892.998 1.77254 -2.98661 0
M  V30 9213 C 891.952 1.34482 -4.06323 0
M  V30 9214 C 891.278 2.60853 -4.66754 0
M  V30 9215 C 892.578 0.488288 -5.20013 0
M  V30 9216 H 894.272 0.00187041 -2.994 0
M  V30 9217 H 891.818 -0.000540402 -1.44 0
M  V30 9218 H 893.771 2.39199 -3.46932 0
M  V30 9219 H 892.495 2.38931 -2.22664 0
M  V30 9220 H 891.154 0.748519 -3.58877 0
M  V30 9221 H 890.802 3.20808 -3.87416 0
M  V30 9222 H 890.502 2.32942 -5.39455 0
M  V30 9223 H 892.026 3.23631 -5.1778 0
M  V30 9224 H 893.44 1.01298 -5.6428 0
M  V30 9225 H 891.837 0.303669 -5.99331 0
M  V30 9226 H 892.907 -0.490727 -4.8241 0
M  V30 9227 N 894.251 1.57596 -0.0117121 0
M  V30 9228 C 895.201 2.05641 0.98467 0
M  V30 9229 C 896.185 0.953422 1.2961 0
M  V30 9230 O 897.377 1.21712 1.28512 0
M  V30 9231 C 894.506 2.57285 2.27286 0
M  V30 9232 C 893.592 3.74483 1.99057 0
M  V30 9233 N 893.983 4.85741 1.41029 0
M  V30 9234 C 892.281 3.82637 2.2914 0
M  V30 9235 C 892.982 5.67094 1.29536 0
M  V30 9236 N 891.958 5.13459 1.78497 0
M  V30 9237 H 895.76 2.89069 0.530702 0
M  V30 9238 H 893.274 1.6124 0.193717 0
M  V30 9239 H 895.271 2.89988 2.99521 0
M  V30 9240 H 893.931 1.75281 2.73325 0
M  V30 9241 H 894.942 5.06352 1.08756 0
M  V30 9242 H 891.619 3.11509 2.77972 0
M  V30 9243 H 893.009 6.66525 0.848144 0
M  V30 9244 N 895.729 -0.261212 1.5542 0
M  V30 9245 C 896.975 -0.992699 1.76843 0
M  V30 9246 C 897.308 -1.8551 0.574428 0
M  V30 9247 O 896.583 -1.89739 -0.427713 0
M  V30 9248 C 896.866 -1.86532 3.08022 0
M  V30 9249 C 896.719 -1.03206 4.378 0
M  V30 9250 C 898.038 -2.85036 3.35324 0
M  V30 9251 H 895.157 -0.359473 0.643388 0
M  V30 9252 H 897.799 -0.264214 1.88154 0
M  V30 9253 H 895.949 -2.48644 2.9851 0
M  V30 9254 H 897.621 -0.430743 4.59285 0
M  V30 9255 H 895.864 -0.335911 4.32497 0
M  V30 9256 H 896.535 -1.6761 5.25938 0
M  V30 9257 H 899.011 -2.3306 3.44706 0
M  V30 9258 H 897.887 -3.43226 4.28354 0
M  V30 9259 H 898.148 -3.60768 2.55537 0
M  V30 9260 N 897.207 -1.48554 -0.526253 0
M  V30 9261 C 898.453 -1.56994 -1.28378 0
M  V30 9262 C 898.786 -0.244701 -1.92652 0
M  V30 9263 O 898.061 0.749636 -1.79473 0
M  V30 9264 C 898.344 -2.71092 -2.37026 0
M  V30 9265 C 898.197 -4.13331 -1.77418 0
M  V30 9266 C 899.516 -2.80934 -3.38769 0
M  V30 9267 H 896.635 -0.571466 -0.465398 0
M  V30 9268 H 899.277 -1.80742 -0.585861 0
M  V30 9269 H 897.427 -2.50973 -2.96555 0
M  V30 9270 H 899.099 -4.44899 -1.21912 0
M  V30 9271 H 897.342 -4.20158 -1.07936 0
M  V30 9272 H 898.013 -4.88994 -2.56104 0
M  V30 9273 H 900.489 -2.9917 -2.892 0
M  V30 9274 H 899.365 -3.62489 -4.12181 0
M  V30 9275 H 899.626 -1.89244 -3.99549 0
M  V30 9276 N 898.685 0.775411 -1.37205 0
M  V30 9277 C 899.934 1.52909 -1.31536 0
M  V30 9278 C 900.247 1.9535 0.0989374 0
M  V30 9279 O 901.453 2.70072 0.278079 0
M  V30 9280 C 899.909 2.761 -2.30861 0
M  V30 9281 C 899.517 2.40773 -3.77799 0
M  V30 9282 C 901.261 3.54052 -2.34195 0
M  V30 9283 C 899.168 3.60444 -4.68865 0
M  V30 9284 H 898.098 0.574061 -0.488845 0
M  V30 9285 H 900.749 0.849642 -1.62645 0
M  V30 9286 H 899.131 3.45916 -1.92764 0
M  V30 9287 H 900.305 1.78764 -4.24712 0
M  V30 9288 H 898.62 1.76004 -3.77375 0
M  V30 9289 H 901.217 4.42992 -2.99437 0
M  V30 9290 H 901.56 3.93649 -1.35449 0
M  V30 9291 H 902.093 2.91229 -2.7098 0
M  V30 9292 H 898.832 3.25932 -5.68725 0
M  V30 9293 H 898.352 4.21571 -4.26659 0
M  V30 9294 H 900.031 4.27302 -4.85821 0
M  V30 9295 N 900.163 1.21714 1.00117 0
M  V30 9296 C 901.111 0.976937 2.11089 0
M  V30 9297 C 902.105 -0.0771295 1.69224 0
M  V30 9298 O 903.311 0.0745945 1.79845 0
M  V30 9299 H 899.686 0.298687 0.690138 0
M  V30 9300 H 901.657 1.91881 2.28526 0
M  V30 9301 C 900.406 0.562369 3.43122 0
M  V30 9302 H 899.729 1.36509 3.75773 0
M  V30 9303 H 901.169 0.433642 4.21777 0
M  V30 9304 C 899.628 -0.727148 3.28959 0
M  V30 9305 O 900.158 -1.78171 3.60025 0
M  V30 9306 N 898.364 -0.695129 2.82164 0
M  V30 9307 H 897.911 0.163346 2.57082 0
M  V30 9308 H 897.869 -1.55822 2.73069 0
M  V30 9309 N 901.641 -1.19671 1.02551 0
M  V30 9310 C 902.889 -1.88894 0.71858 0
M  V30 9311 C 903.21 -1.79797 -0.754856 0
M  V30 9312 O 902.48 -1.20621 -1.54362 0
M  V30 9313 H 901.06 -0.699244 0.262806 0
M  V30 9314 H 903.722 -1.45298 1.29902 0
M  V30 9315 H 902.818 -2.95309 1.00989 0
M  V30 9316 N 903.119 -0.802921 -1.35613 0
M  V30 9317 C 904.029 -0.212177 -2.33639 0
M  V30 9318 C 905.045 0.642871 -1.61689 0
M  V30 9319 O 906.221 0.555485 -1.93588 0
M  V30 9320 C 903.286 0.632406 -3.40883 0
M  V30 9321 C 902.347 -0.242708 -4.28613 0
M  V30 9322 C 901.58 0.56166 -5.30736 0
M  V30 9323 O 901.803 1.79664 -5.41366 0
M  V30 9324 O 900.737 -0.0455387 -6.01883 0
M  V30 9325 H 904.563 -1.023 -2.85952 0
M  V30 9326 H 902.148 -0.564636 -1.38319 0
M  V30 9327 H 904.03 1.11358 -4.0642 0
M  V30 9328 H 902.705 1.42089 -2.90848 0
M  V30 9329 H 901.612 -0.77094 -3.6607 0
M  V30 9330 H 902.945 -0.995046 -4.82037 0
M  V30 9331 N 904.597 1.47463 -0.556102 0
M  V30 9332 C 905.825 2.06868 -0.0364585 0
M  V30 9333 C 906.24 1.40893 1.25677 0
M  V30 9334 O 905.597 0.505083 1.75371 0
M  V30 9335 C 905.648 3.61128 0.163984 0
M  V30 9336 O 905.369 4.24629 -1.07803 0
M  V30 9337 C 906.87 4.37397 0.721036 0
M  V30 9338 H 904.09 0.669466 -0.0453399 0
M  V30 9339 H 906.634 1.89482 -0.769198 0
M  V30 9340 H 904.789 3.78031 0.84685 0
M  V30 9341 H 905.203 5.17149 -0.875067 0
M  V30 9342 H 906.677 5.46016 0.810584 0
M  V30 9343 H 907.154 4.03604 1.73206 0
M  V30 9344 H 907.76 4.25236 0.073904 0
M  V30 9345 N 906.075 0.2925 1.54862 0
M  V30 9346 C 907.007 -0.620889 2.2063 0
M  V30 9347 C 908.02 -1.10412 1.19637 0
M  V30 9348 O 909.209 -1.02304 1.46274 0
M  V30 9349 C 906.309 -1.861 2.83232 0
M  V30 9350 C 905.482 -1.52168 4.10078 0
M  V30 9351 C 904.541 -2.61605 4.56562 0
M  V30 9352 O 903.567 -2.27056 5.21952 0
M  V30 9353 N 904.769 -3.9199 4.28163 0
M  V30 9354 H 907.534 -0.0579028 2.99644 0
M  V30 9355 H 905.095 0.114333 1.61496 0
M  V30 9356 H 907.087 -2.58642 3.11266 0
M  V30 9357 H 905.657 -2.33259 2.08108 0
M  V30 9358 H 904.877 -0.629283 3.89145 0
M  V30 9359 H 906.165 -1.27023 4.92689 0
M  V30 9360 H 905.563 -4.22872 3.7576 0
M  V30 9361 H 904.12 -4.60857 4.60928 0
M  V30 9362 N 907.553 -1.57587 0.0200696 0
M  V30 9363 C 908.799 -1.91708 -0.661503 0
M  V30 9364 C 909.132 -0.895968 -1.72296 0
M  V30 9365 O 908.407 0.082577 -1.94325 0
M  V30 9366 C 908.69 -3.36344 -1.28627 0
M  V30 9367 C 908.543 -4.49186 -0.234982 0
M  V30 9368 C 909.862 -3.80771 -2.20685 0
M  V30 9369 H 906.981 -0.69717 -0.239005 0
M  V30 9370 H 909.623 -1.8985 0.0754764 0
M  V30 9371 H 907.773 -3.38058 -1.91439 0
M  V30 9372 H 909.445 -4.59606 0.395011 0
M  V30 9373 H 907.688 -4.31557 0.440565 0
M  V30 9374 H 908.359 -5.47395 -0.711558 0
M  V30 9375 H 910.835 -3.80735 -1.67868 0
M  V30 9376 H 909.711 -4.82685 -2.61356 0
M  V30 9377 H 909.972 -3.15764 -3.09428 0
M  V30 9378 N 909.032 0.252966 -1.55557 0
M  V30 9379 C 909.962 1.31691 -1.9282 0
M  V30 9380 C 910.943 1.50516 -0.7924 0
M  V30 9381 O 912.128 1.63225 -1.05219 0
M  V30 9382 C 909.258 2.67281 -2.21762 0
M  V30 9383 C 908.212 2.6316 -3.37536 0
M  V30 9384 C 907.538 4.02488 -3.52005 0
M  V30 9385 C 908.838 2.20675 -4.73392 0
M  V30 9386 H 910.532 1.00751 -2.81939 0
M  V30 9387 H 908.078 0.483219 -1.3565 0
M  V30 9388 H 910.031 3.41842 -2.46419 0
M  V30 9389 H 908.755 2.99845 -1.29463 0
M  V30 9390 H 907.414 1.91057 -3.12878 0
M  V30 9391 H 907.062 4.32307 -2.57137 0
M  V30 9392 H 906.762 4.00621 -4.29857 0
M  V30 9393 H 908.286 4.78758 -3.78977 0
M  V30 9394 H 909.7 2.84965 -4.97461 0
M  V30 9395 H 908.097 2.29931 -5.54303 0
M  V30 9396 H 909.167 1.15831 -4.70862 0
M  V30 9397 N 910.51 1.48831 0.518367 0
M  V30 9398 C 911.473 1.63721 1.604 0
M  V30 9399 C 912.473 0.509857 1.52503 0
M  V30 9400 O 913.663 0.775922 1.55965 0
M  V30 9401 C 910.795 1.61831 3.00039 0
M  V30 9402 H 911.988 2.60534 1.48533 0
M  V30 9403 H 909.541 1.37602 0.741309 0
M  V30 9404 H 910.276 0.665387 3.17401 0
M  V30 9405 H 910.061 2.43686 3.0718 0
M  V30 9406 H 911.551 1.75467 3.78947 0
M  V30 9407 N 911.988 -0.768124 1.37614 0
M  V30 9408 C 913.234 -1.52907 1.33219 0
M  V30 9409 C 913.567 -1.94026 -0.0821218 0
M  V30 9410 O 912.842 -1.64345 -1.04023 0
M  V30 9411 C 913.125 -2.79164 2.27463 0
M  V30 9412 C 912.978 -2.44276 3.7769 0
M  V30 9413 C 914.297 -3.81115 2.20089 0
M  V30 9414 H 911.416 -0.554712 0.485246 0
M  V30 9415 H 914.058 -0.880911 1.68345 0
M  V30 9416 H 912.208 -3.34472 1.97639 0
M  V30 9417 H 913.88 -1.94855 4.18126 0
M  V30 9418 H 912.123 -1.76925 3.96081 0
M  V30 9419 H 912.794 -3.34544 4.39072 0
M  V30 9420 H 915.27 -3.35311 2.46386 0
M  V30 9421 H 914.146 -4.67174 2.88166 0
M  V30 9422 H 914.407 -4.25644 1.19498 0
M  V30 9423 N 913.466 -1.22244 -0.994698 0
M  V30 9424 C 914.743 -0.954459 -1.70732 0
M  V30 9425 C 915.123 0.530945 -2.04314 0
M  V30 9426 O 914.471 1.49851 -1.72502 0
M  V30 9427 C 914.681 -1.85016 -2.95922 0
M  V30 9428 C 916.029 -2.10517 -3.68738 0
M  V30 9429 O 917.053 -1.82449 -3.05926 0
M  V30 9430 O 915.912 -2.58044 -4.81742 0
M  V30 9431 H 913.006 -0.35879 -0.745116 0
M  V30 9432 H 915.552 -1.33221 -1.0512 0
M  V30 9433 H 914.324 -2.85498 -2.67594 0
M  V30 9434 H 913.947 -1.47388 -3.69273 0
M  V30 9435 N 914.944 1.19125 -1.03184 0
M  V30 9436 C 915.892 2.24492 -0.608781 0
M  V30 9437 C 916.886 1.65529 0.360065 0
M  V30 9438 O 918.092 1.78546 0.22832 0
M  V30 9439 H 914.467 0.73048 -0.178616 0
M  V30 9440 H 916.438 2.5749 -1.50803 0
M  V30 9441 C 915.187 3.47693 0.0215126 0
M  V30 9442 H 914.51 3.93354 -0.715024 0
M  V30 9443 H 915.95 4.23072 0.280429 0
M  V30 9444 C 914.409 3.12088 1.26896 0
M  V30 9445 O 914.939 3.25013 2.36071 0
M  V30 9446 N 913.145 2.66494 1.15886 0
M  V30 9447 H 912.692 2.56176 0.270463 0
M  V30 9448 H 912.65 2.43042 1.99444 0
M  V30 9449 N 916.422 0.810101 1.35185 0
M  V30 9450 C 917.668 0.392698 1.98962 0
M  V30 9451 C 918.001 -1.03835 1.64109 0
M  V30 9452 O 917.276 -1.721 0.9062 0
M  V30 9453 C 917.559 0.580349 3.55393 0
M  V30 9454 C 917.412 2.05658 4.00031 0
M  V30 9455 C 918.731 0.00822618 4.40099 0
M  V30 9456 H 915.85 0.144157 0.722764 0
M  V30 9457 H 918.492 1.02029 1.60281 0
M  V30 9458 H 916.642 0.0461106 3.88473 0
M  V30 9459 H 918.314 2.65348 3.77344 0
M  V30 9460 H 916.557 2.55174 3.50811 0
M  V30 9461 H 917.228 2.13875 5.08883 0
M  V30 9462 H 919.704 0.464517 4.13499 0
M  V30 9463 H 918.58 0.169414 5.48638 0
M  V30 9464 H 918.841 -1.08576 4.2856 0
M  V30 9465 N 917.9 -1.47166 0.563914 0
M  V30 9466 C 919.146 -2.02756 0.0424338 0
M  V30 9467 C 919.479 -1.43662 -1.3067 0
M  V30 9468 O 918.754 -0.594676 -1.85186 0
M  V30 9469 C 919.037 -3.60074 -0.0434793 0
M  V30 9470 C 918.89 -4.29587 1.33323 0
M  V30 9471 C 920.209 -4.336 -0.753568 0
M  V30 9472 H 917.328 -0.736806 0.0168946 0
M  V30 9473 H 919.97 -1.75521 0.727496 0
M  V30 9474 H 918.12 -3.83409 -0.626906 0
M  V30 9475 H 919.792 -4.17573 1.96037 0
M  V30 9476 H 918.035 -3.8968 1.9061 0
M  V30 9477 H 918.706 -5.38218 1.22576 0
M  V30 9478 H 921.182 -4.15299 -0.258126 0
M  V30 9479 H 920.058 -5.43291 -0.782659 0
M  V30 9480 H 920.319 -4.03302 -1.81108 0
M  V30 9481 N 919.378 -0.300708 -1.54705 0
M  V30 9482 C 920.627 0.309428 -1.99312 0
M  V30 9483 C 920.94 1.55027 -1.19272 0
M  V30 9484 O 922.146 2.23498 -1.54146 0
M  V30 9485 C 920.602 0.601856 -3.54832 0
M  V30 9486 C 920.21 -0.620636 -4.4368 0
M  V30 9487 C 921.954 1.1732 -4.07966 0
M  V30 9488 C 919.861 -0.301376 -5.90632 0
M  V30 9489 H 918.791 0.119395 -0.744487 0
M  V30 9490 H 921.442 -0.409368 -1.78875 0
M  V30 9491 H 919.824 1.38024 -3.71168 0
M  V30 9492 H 920.998 -1.39685 -4.39118 0
M  V30 9493 H 919.313 -1.1106 -4.01316 0
M  V30 9494 H 921.91 1.42631 -5.15326 0
M  V30 9495 H 922.253 2.11537 -3.5855 0
M  V30 9496 H 922.786 0.456534 -3.95172 0
M  V30 9497 H 919.525 -1.21209 -6.44196 0
M  V30 9498 H 919.045 0.437574 -5.98202 0
M  V30 9499 H 920.724 0.097164 -6.46927 0
M  V30 9500 N 920.856 1.57574 -0.0284266 0
M  V30 9501 C 922.096 1.93637 0.65453 0
M  V30 9502 C 922.46 0.905015 1.69332 0
M  V30 9503 O 923.661 1.15181 2.42872 0
M  V30 9504 C 921.932 3.3462 1.25555 0
M  V30 9505 S 923.491 3.92609 1.95968 0
M  V30 9506 H 920.309 0.67755 0.215516 0
M  V30 9507 H 922.911 1.95284 -0.0919257 0
M  V30 9508 H 921.615 4.07499 0.487069 0
M  V30 9509 H 921.146 3.36415 2.03933 0
M  V30 9510 H 923.161 3.75988 3.23802 0
M  V30 9511 N 922.334 -0.244713 1.55689 0
M  V30 9512 C 923.297 -1.2864 1.89695 0
M  V30 9513 C 924.297 -1.40969 0.773583 0
M  V30 9514 O 925.487 -1.39632 1.04156 0
M  V30 9515 C 922.619 -2.66379 2.12732 0
M  V30 9516 H 923.812 -0.997033 2.82841 0
M  V30 9517 H 921.365 -0.484103 1.48614 0
M  V30 9518 H 922.1 -3.00452 1.22062 0
M  V30 9519 H 921.885 -2.58812 2.94549 0
M  V30 9520 H 923.375 -3.41592 2.40218 0
M  V30 9521 N 923.813 -1.49104 -0.510467 0
M  V30 9522 C 925.061 -1.578 -1.26268 0
M  V30 9523 C 925.382 -0.262349 -1.93227 0
M  V30 9524 O 924.652 0.717624 -1.82283 0
M  V30 9525 H 923.232 -0.581387 -0.46904 0
M  V30 9526 H 925.894 -1.85678 -0.592423 0
M  V30 9527 H 924.99 -2.36919 -2.03165 0
M  V30 9528 N 925.291 0.760815 -1.38019 0
M  V30 9529 C 926.223 1.88387 -1.30549 0
M  V30 9530 C 927.236 1.61319 -0.219119 0
M  V30 9531 O 928.425 1.72033 -0.476122 0
M  V30 9532 C 925.525 3.23863 -0.998291 0
M  V30 9533 C 924.698 3.78492 -2.19232 0
M  V30 9534 C 923.757 4.92468 -1.85368 0
M  V30 9535 O 922.783 5.0748 -2.57785 0
M  V30 9536 N 923.985 5.74901 -0.804319 0
M  V30 9537 H 926.75 1.95308 -2.27322 0
M  V30 9538 H 924.311 0.940423 -1.31786 0
M  V30 9539 H 926.303 3.97644 -0.7524 0
M  V30 9540 H 924.873 3.12374 -0.11877 0
M  V30 9541 H 924.093 2.96361 -2.5993 0
M  V30 9542 H 925.381 4.11722 -2.98935 0
M  V30 9543 H 924.779 5.65333 -0.203628 0
M  V30 9544 H 923.336 6.48861 -0.618301 0
M  V30 9545 N 926.769 1.22769 0.988202 0
M  V30 9546 C 927.679 1.01844 2.11341 0
M  V30 9547 C 928.695 -0.0346937 1.73965 0
M  V30 9548 O 929.871 0.159061 2.00771 0
M  V30 9549 C 926.936 0.603837 3.41401 0
M  V30 9550 C 925.997 1.73113 3.92849 0
M  V30 9551 C 925.23 1.33621 5.16702 0
M  V30 9552 O 925.453 0.217041 5.69987 0
M  V30 9553 O 924.387 2.15444 5.62021 0
M  V30 9554 H 928.213 1.96127 2.31879 0
M  V30 9555 H 925.798 1.01405 1.09715 0
M  V30 9556 H 927.68 0.383196 4.19654 0
M  V30 9557 H 926.355 -0.310082 3.22211 0
M  V30 9558 H 925.262 2.00634 3.15748 0
M  V30 9559 H 926.595 2.62308 4.1648 0
M  V30 9560 N 928.247 -1.18576 1.03814 0
M  V30 9561 C 929.658 -1.70159 0.768299 0
M  V30 9562 C 930.009 -1.8286 -0.711106 0
M  V30 9563 O 929.134 -1.5063 -1.55369 0
M  V30 9564 C 929.729 -3.09062 1.38804 0
M  V30 9565 C 928.288 -3.57866 1.16656 0
M  V30 9566 C 927.435 -2.34484 1.48029 0
M  V30 9567 H 930.386 -1.03287 1.20488 0
M  V30 9568 H 930.407 -3.72211 0.7899 0
M  V30 9569 H 929.919 -2.99785 2.46476 0
M  V30 9570 H 928.02 -3.72442 0.108471 0
M  V30 9571 H 928.133 -4.41445 1.8618 0
M  V30 9572 H 926.497 -2.38273 0.899902 0
M  V30 9573 H 927.28 -2.27829 2.56805 0
M  V30 9574 N 929.725 -0.817259 -1.34754 0
M  V30 9575 C 930.673 -0.223352 -2.31525 0
M  V30 9576 C 931.667 0.632785 -1.57137 0
M  V30 9577 O 932.873 0.524757 -1.72181 0
M  V30 9578 H 929.248 -0.0534765 -0.750096 0
M  V30 9579 H 931.219 -1.05446 -2.79148 0
M  V30 9580 C 929.968 0.604784 -3.424 0
M  V30 9581 H 929.291 -0.0446664 -3.99775 0
M  V30 9582 H 930.731 0.986543 -4.12363 0
M  V30 9583 C 929.19 1.77478 -2.86362 0
M  V30 9584 O 929.72 2.87273 -2.8078 0
M  V30 9585 N 927.926 1.58971 -2.43263 0
M  V30 9586 H 927.473 0.696598 -2.48003 0
M  V30 9587 H 927.431 2.37408 -2.06119 0
M  V30 9588 N 931.203 1.46865 -0.571711 0
M  V30 9589 C 932.619 1.57897 -0.23255 0
M  V30 9590 C 932.819 1.56836 1.26509 0
M  V30 9591 O 931.875 1.47947 2.04617 0
M  V30 9592 C 933.188 2.87778 -0.872036 0
M  V30 9593 C 934.736 3.01389 -0.844605 0
M  V30 9594 C 935.211 4.33991 -1.46343 0
M  V30 9595 N 936.702 4.40662 -1.42727 0
M  V30 9596 C 937.437 5.41858 -1.87557 0
M  V30 9597 N 936.933 6.49787 -2.4031 0
M  V30 9598 N 938.726 5.32992 -1.7854 0
M  V30 9599 H 930.877 1.45798 -1.54457 0
M  V30 9600 H 933.14 0.694785 -0.644964 0
M  V30 9601 H 932.846 2.94332 -1.92513 0
M  V30 9602 H 932.72 3.75345 -0.373677 0
M  V30 9603 H 935.107 2.94423 0.19984 0
M  V30 9604 H 935.188 2.15327 -1.38087 0
M  V30 9605 H 934.832 4.41714 -2.50701 0
M  V30 9606 H 934.762 5.18809 -0.902479 0
M  V30 9607 H 937.253 3.63263 -1.04155 0
M  V30 9608 H 937.566 7.23199 -2.72403 0
M  V30 9609 H 935.911 6.50637 -2.44329 0
M  V30 9610 H 939.102 4.47575 -1.37093 0
M  V30 9611 H 939.275 6.11716 -2.13794 0
M  V30 9612 N 932.681 0.308908 1.54543 0
M  V30 9613 C 933.644 -0.550857 2.22482 0
M  V30 9614 C 934.644 -1.0551 1.21344 0
M  V30 9615 O 935.834 -0.949866 1.46025 0
M  V30 9616 C 932.966 -1.76354 2.9174 0
M  V30 9617 H 934.159 0.0428395 2.99869 0
M  V30 9618 H 931.712 0.059825 1.56185 0
M  V30 9619 H 932.447 -2.39686 2.18451 0
M  V30 9620 H 932.232 -1.40954 3.65889 0
M  V30 9621 H 933.722 -2.37417 3.43545 0
M  V30 9622 N 934.159 -1.57557 0.0367827 0
M  V30 9623 C 935.089 -2.13712 -0.940719 0
M  V30 9624 C 936.07 -1.05515 -1.33419 0
M  V30 9625 O 937.255 -1.33385 -1.41146 0
M  V30 9626 C 934.385 -2.67043 -2.22048 0
M  V30 9627 C 933.339 -3.80096 -1.96752 0
M  V30 9628 C 932.665 -4.19886 -3.31059 0
M  V30 9629 C 933.965 -5.05848 -1.30058 0
M  V30 9630 H 935.659 -2.9564 -0.473033 0
M  V30 9631 H 933.205 -1.42214 -0.226089 0
M  V30 9632 H 935.158 -3.04964 -2.90818 0
M  V30 9633 H 933.882 -1.82287 -2.70996 0
M  V30 9634 H 932.541 -3.42625 -1.30398 0
M  V30 9635 H 932.189 -3.32101 -3.77781 0
M  V30 9636 H 931.889 -4.96073 -3.14937 0
M  V30 9637 H 933.413 -4.60395 -4.01084 0
M  V30 9638 H 934.827 -5.41306 -1.8884 0
M  V30 9639 H 933.224 -5.87084 -1.24309 0
M  V30 9640 H 934.294 -4.84122 -0.274591 0
M  V30 9641 N 935.637 0.236453 -1.55816 0
M  V30 9642 C 936.6 1.27633 -1.90375 0
M  V30 9643 C 937.6 1.40557 -0.781048 0
M  V30 9644 O 938.79 1.39078 -1.04895 0
M  V30 9645 C 935.922 2.65247 -2.14142 0
M  V30 9646 H 937.115 0.982019 -2.83366 0
M  V30 9647 H 934.668 0.476215 -1.48869 0
M  V30 9648 H 935.403 2.99801 -1.23653 0
M  V30 9649 H 935.188 2.57246 -2.95917 0
M  V30 9650 H 936.678 3.40313 -2.42026 0
M  V30 9651 N 937.115 1.49373 0.502552 0
M  V30 9652 C 938.047 1.62045 1.62093 0
M  V30 9653 C 939.06 0.503221 1.54827 0
M  V30 9654 O 940.249 0.775208 1.60788 0
M  V30 9655 C 937.349 1.55971 3.00876 0
M  V30 9656 C 936.522 2.832 3.33341 0
M  V30 9657 C 935.581 2.702 4.51529 0
M  V30 9658 O 934.607 3.44132 4.53389 0
M  V30 9659 N 935.809 1.81642 5.5135 0
M  V30 9660 H 938.574 2.58501 1.51649 0
M  V30 9661 H 936.135 1.46442 0.690396 0
M  V30 9662 H 938.127 1.4493 3.77859 0
M  V30 9663 H 936.697 0.673795 3.05252 0
M  V30 9664 H 935.917 3.08604 2.4527 0
M  V30 9665 H 937.205 3.67551 3.51829 0
M  V30 9666 H 936.603 1.20829 5.52645 0
M  V30 9667 H 935.16 1.76524 6.27441 0
M  V30 9668 N 938.594 -0.753485 1.38421 0
M  V30 9669 C 940.005 -1.33081 1.30944 0
M  V30 9670 C 940.356 -1.96169 -0.0347124 0
M  V30 9671 O 939.481 -1.95073 -0.936768 0
M  V30 9672 C 940.076 -2.41973 2.37138 0
M  V30 9673 C 938.635 -2.95426 2.33239 0
M  V30 9674 C 937.782 -1.68808 2.19998 0
M  V30 9675 H 940.733 -0.552354 1.48777 0
M  V30 9676 H 940.754 -3.21913 2.02859 0
M  V30 9677 H 940.266 -1.96027 3.34956 0
M  V30 9678 H 938.367 -3.45701 1.39003 0
M  V30 9679 H 938.48 -3.49798 3.27381 0
M  V30 9680 H 936.844 -1.92438 1.66852 0
M  V30 9681 H 937.627 -1.24939 3.19758 0
M  V30 9682 N 940.072 -1.23292 -0.981677 0
M  V30 9683 C 941.002 -1.03738 -2.09191 0
M  V30 9684 C 941.983 0.0453041 -1.7004 0
M  V30 9685 O 943.168 -0.119092 -1.93834 0
M  V30 9686 C 940.298 -0.626426 -3.41604 0
M  V30 9687 C 939.252 -1.65631 -3.94652 0
M  V30 9688 C 938.578 -1.10084 -5.23245 0
M  V30 9689 C 939.878 -3.04903 -4.24066 0
M  V30 9690 H 941.572 -1.966 -2.25807 0
M  V30 9691 H 939.118 -0.946656 -1.0851 0
M  V30 9692 H 941.071 -0.476689 -4.18695 0
M  V30 9693 H 939.795 0.337873 -3.24848 0
M  V30 9694 H 938.454 -1.79402 -3.19704 0
M  V30 9695 H 938.102 -0.127562 -5.02838 0
M  V30 9696 H 937.802 -1.78896 -5.59705 0
M  V30 9697 H 939.326 -0.962928 -6.02959 0
M  V30 9698 H 940.74 -2.94441 -4.91912 0
M  V30 9699 H 939.137 -3.70941 -4.71724 0
M  V30 9700 H 940.207 -3.53991 -3.31389 0
M  V30 9701 N 941.55 1.18024 -1.04442 0
M  V30 9702 C 942.799 1.8743 -0.745185 0
M  V30 9703 C 943.112 1.81459 0.730206 0
M  V30 9704 O 944.318 2.46263 1.1431 0
M  V30 9705 C 942.774 3.36266 -1.28271 0
M  V30 9706 C 942.382 3.50757 -2.787 0
M  V30 9707 C 944.126 4.11048 -1.06018 0
M  V30 9708 C 942.033 4.93573 -3.25791 0
M  V30 9709 H 940.963 0.702038 -0.27506 0
M  V30 9710 H 943.614 1.33333 -1.26073 0
M  V30 9711 H 941.996 3.89853 -0.695002 0
M  V30 9712 H 943.17 3.07423 -3.43261 0
M  V30 9713 H 941.485 2.89385 -2.99408 0
M  V30 9714 H 944.082 5.16395 -1.38711 0
M  V30 9715 H 944.425 4.163 0.00241716 0
M  V30 9716 H 944.958 3.63644 -1.61269 0
M  V30 9717 H 941.697 4.93491 -4.31447 0
M  V30 9718 H 941.217 5.37607 -2.65968 0
M  V30 9719 H 942.896 5.62307 -3.20031 0
M  V30 9720 N 943.028 0.824394 1.34319 0
M  V30 9721 C 944.305 0.335692 1.92698 0
M  V30 9722 C 944.685 -1.17715 1.75232 0
M  V30 9723 O 944.033 -1.98493 1.13194 0
M  V30 9724 C 944.243 0.766647 3.40475 0
M  V30 9725 C 945.591 0.766323 4.17627 0
M  V30 9726 O 946.615 0.709321 3.49066 0
M  V30 9727 O 945.474 0.840856 5.39992 0
M  V30 9728 H 942.568 0.0919996 0.821867 0
M  V30 9729 H 945.114 0.909282 1.43283 0
M  V30 9730 H 943.886 1.80859 3.46995 0
M  V30 9731 H 943.509 0.168833 3.97241 0
M  V30 9732 N 944.506 -1.46559 0.579492 0
M  V30 9733 C 945.731 -2.0729 0.0674595 0
M  V30 9734 C 946.156 -1.4259 -1.22677 0
M  V30 9735 O 945.514 -0.50857 -1.74021 0
M  V30 9736 C 945.562 -3.60492 -0.0882227 0
M  V30 9737 O 944.666 -3.96172 -1.14551 0
M  V30 9738 H 944.007 -0.661159 0.0613536 0
M  V30 9739 H 946.537 -1.88247 0.801519 0
M  V30 9740 H 946.547 -4.06929 -0.295411 0
M  V30 9741 H 945.222 -4.06976 0.856943 0
M  V30 9742 H 943.799 -3.61448 -0.917033 0
M  V30 9743 N 945.984 -0.3171 -1.54377 0
M  V30 9744 C 947.232 0.286842 -2.00054 0
M  V30 9745 C 947.553 1.53161 -1.20692 0
M  V30 9746 O 946.823 1.93479 -0.307045 0
M  V30 9747 H 945.403 0.108979 -0.739008 0
M  V30 9748 H 948.065 -0.432152 -1.90049 0
M  V30 9749 H 947.161 0.547729 -3.07256 0
M  V30 9750 N 947.462 1.57535 -0.0451378 0
M  V30 9751 C 948.409 2.11176 0.931313 0
M  V30 9752 C 949.379 1.01765 1.31275 0
M  V30 9753 O 950.564 1.29279 1.40327 0
M  V30 9754 C 947.704 2.65639 2.20295 0
M  V30 9755 C 946.817 3.89114 1.87654 0
M  V30 9756 C 945.952 4.31914 3.09232 0
M  V30 9757 C 944.991 5.48105 2.72484 0
M  V30 9758 N 944.128 5.85986 3.86736 0
M  V30 9759 H 948.968 2.94318 0.466986 0
M  V30 9760 H 946.505 1.45462 0.218886 0
M  V30 9761 H 948.463 2.95312 2.94697 0
M  V30 9762 H 947.093 1.85303 2.64316 0
M  V30 9763 H 946.145 3.6607 1.03427 0
M  V30 9764 H 947.457 4.7358 1.56601 0
M  V30 9765 H 946.611 4.63108 3.91939 0
M  V30 9766 H 945.35 3.46247 3.43459 0
M  V30 9767 H 944.355 5.16589 1.88192 0
M  V30 9768 H 945.58 6.35482 2.39455 0
M  V30 9769 H 943.526 5.03273 4.20775 0
M  V30 9770 H 943.443 6.65129 3.5936 0
M  V30 9771 H 944.711 6.21793 4.701 0
M  V30 9772 N 948.94 -0.228186 1.55939 0
M  V30 9773 C 950.168 -0.970618 1.8272 0
M  V30 9774 C 950.583 -1.78212 0.623385 0
M  V30 9775 O 949.94 -1.77879 -0.408063 0
M  V30 9776 C 949.991 -1.89352 3.07942 0
M  V30 9777 O 949.712 -1.11483 4.23678 0
M  V30 9778 C 951.213 -2.75039 3.47661 0
M  V30 9779 H 948.433 -0.284772 0.607574 0
M  V30 9780 H 950.977 -0.245419 2.03022 0
M  V30 9781 H 949.132 -2.57275 2.89635 0
M  V30 9782 H 949.546 -1.74073 4.94772 0
M  V30 9783 H 951.02 -3.35511 4.38334 0
M  V30 9784 H 951.497 -3.471 2.69106 0
M  V30 9785 H 952.103 -2.1254 3.68384 0
M  V30 9786 N 950.418 -1.49637 -0.494624 0
M  V30 9787 C 951.664 -1.59681 -1.25019 0
M  V30 9788 C 951.997 -0.285511 -1.9209 0
M  V30 9789 O 951.272 0.711398 -1.81023 0
M  V30 9790 C 951.555 -2.76058 -2.31222 0
M  V30 9791 C 951.408 -4.17002 -1.68611 0
M  V30 9792 C 952.727 -2.88056 -3.32734 0
M  V30 9793 H 949.846 -0.581209 -0.453172 0
M  V30 9794 H 952.488 -1.81944 -0.547391 0
M  V30 9795 H 950.638 -2.57207 -2.91164 0
M  V30 9796 H 952.31 -4.47385 -1.12447 0
M  V30 9797 H 950.553 -4.22352 -0.989991 0
M  V30 9798 H 951.224 -4.94316 -2.45674 0
M  V30 9799 H 953.7 -3.05237 -2.82789 0
M  V30 9800 H 952.576 -3.71151 -4.04399 0
M  V30 9801 H 952.837 -1.97676 -3.95445 0
M  V30 9802 N 951.896 0.746133 -1.38819 0
M  V30 9803 C 952.846 1.85085 -1.33145 0
M  V30 9804 C 953.83 1.59466 -0.214339 0
M  V30 9805 O 955.022 1.71159 -0.450943 0
M  V30 9806 C 952.151 3.22884 -1.16623 0
M  V30 9807 C 951.237 3.54369 -2.32988 0
M  V30 9808 N 951.628 3.56863 -3.58445 0
M  V30 9809 C 949.926 3.84674 -2.25703 0
M  V30 9810 C 950.627 3.85827 -4.3533 0
M  V30 9811 N 949.603 4.03037 -3.64777 0
M  V30 9812 H 953.405 1.85301 -2.28124 0
M  V30 9813 H 950.919 0.943847 -1.32156 0
M  V30 9814 H 952.916 4.0195 -1.10642 0
M  V30 9815 H 951.576 3.23914 -0.225841 0
M  V30 9816 H 952.587 3.38443 -3.92017 0
M  V30 9817 H 949.264 3.93375 -1.39864 0
M  V30 9818 H 950.654 3.94317 -5.44025 0
M  V30 9819 N 953.375 1.23811 0.975125 0
M  V30 9820 C 954.305 1.04846 2.08638 0
M  V30 9821 C 955.286 -0.0362859 1.70061 0
M  V30 9822 O 956.471 0.12937 1.93769 0
M  V30 9823 C 953.601 0.644534 3.41267 0
M  V30 9824 C 952.555 1.67722 3.93768 0
M  V30 9825 C 951.881 1.12857 5.22654 0
M  V30 9826 C 953.181 3.07147 4.22443 0
M  V30 9827 H 954.875 1.97795 2.24761 0
M  V30 9828 H 952.421 0.952397 1.08006 0
M  V30 9829 H 954.374 0.498887 4.18436 0
M  V30 9830 H 953.098 -0.320641 3.25022 0
M  V30 9831 H 951.757 1.81095 3.18748 0
M  V30 9832 H 951.405 0.154227 5.02764 0
M  V30 9833 H 951.105 1.81862 5.58749 0
M  V30 9834 H 952.629 0.994891 6.0244 0
M  V30 9835 H 954.043 2.97045 4.90344 0
M  V30 9836 H 952.44 3.73437 4.6975 0
M  V30 9837 H 953.51 3.55743 3.29507 0
M  V30 9838 N 954.853 -1.17469 1.05066 0
M  V30 9839 C 956.102 -1.87032 0.755114 0
M  V30 9840 C 956.415 -1.81844 -0.720572 0
M  V30 9841 O 957.621 -2.46866 -1.13002 0
M  V30 9842 C 956.077 -3.35581 1.30052 0
M  V30 9843 C 955.685 -3.49274 2.80556 0
M  V30 9844 C 957.429 -4.1048 1.08196 0
M  V30 9845 C 955.336 -4.91838 3.28404 0
M  V30 9846 H 954.266 -0.70057 0.278779 0
M  V30 9847 H 956.917 -1.32663 1.26779 0
M  V30 9848 H 955.299 -3.89479 0.715667 0
M  V30 9849 H 956.473 -3.05598 3.44886 0
M  V30 9850 H 954.788 -2.87793 3.00939 0
M  V30 9851 H 957.385 -5.15652 1.41447 0
M  V30 9852 H 957.728 -4.16295 0.0196603 0
M  V30 9853 H 958.261 -3.62784 1.63195 0
M  V30 9854 H 955 -4.91196 4.34058 0
M  V30 9855 H 954.52 -5.36189 2.68815 0
M  V30 9856 H 956.199 -5.60602 3.23009 0
M  V30 9857 N 956.331 -0.831506 -1.3388 0
M  V30 9858 C 957.579 -0.422837 -1.97627 0
M  V30 9859 C 957.9 1.01961 -1.6622 0
M  V30 9860 O 957.17 1.70916 -0.957323 0
M  V30 9861 H 955.75 -0.153365 -0.731087 0
M  V30 9862 H 958.412 -1.06284 -1.6337 0
M  V30 9863 H 957.508 -0.548858 -3.07236 0
M  V30 9864 N 957.809 1.4625 -0.587256 0
M  V30 9865 C 959.057 2.01963 -0.0744273 0
M  V30 9866 C 959.378 1.46065 1.29189 0
M  V30 9867 O 958.648 0.647077 1.84905 0
M  V30 9868 H 957.228 0.746597 -0.0245236 0
M  V30 9869 H 959.89 1.79299 -0.764063 0
M  V30 9870 H 958.986 3.12099 -0.00884894 0
M  V30 9871 N 959.287 0.325282 1.54207 0
M  V30 9872 C 960.527 -0.277347 2.0251 0
M  V30 9873 C 960.891 -1.49211 1.20831 0
M  V30 9874 O 962.092 -2.16771 1.58945 0
M  V30 9875 C 960.363 -0.601517 3.52302 0
M  V30 9876 S 961.922 -1.18356 4.22537 0
M  V30 9877 H 958.74 -0.08378 0.706047 0
M  V30 9878 H 961.342 0.458804 1.9004 0
M  V30 9879 H 960.046 0.290696 4.09369 0
M  V30 9880 H 959.577 -1.36782 3.68855 0
M  V30 9881 H 961.592 -2.47029 4.30338 0
M  V30 9882 N 960.765 -1.57509 0.0534917 0
M  V30 9883 C 962.042 -1.84137 -0.659767 0
M  V30 9884 C 962.422 -0.942362 -1.88899 0
M  V30 9885 O 961.77 -0.00398566 -2.285 0
M  V30 9886 C 961.98 -3.33919 -1.01486 0
M  V30 9887 C 963.328 -4.00989 -1.39616 0
M  V30 9888 O 964.352 -3.38557 -1.10713 0
M  V30 9889 O 963.211 -5.11071 -1.93567 0
M  V30 9890 H 960.305 -0.760081 -0.325893 0
M  V30 9891 H 962.851 -1.69497 0.0830315 0
M  V30 9892 H 961.623 -3.91046 -0.141041 0
M  V30 9893 H 961.246 -3.53755 -1.81503 0
M  V30 9894 N 962.243 0.219913 -1.56058 0
M  V30 9895 C 963.489 0.945463 -1.79412 0
M  V30 9896 C 963.822 1.83922 -0.62341 0
M  V30 9897 O 963.097 1.90806 0.377256 0
M  V30 9898 C 963.38 1.783 -3.1286 0
M  V30 9899 C 963.233 0.915626 -4.40382 0
M  V30 9900 C 964.552 2.76045 -3.42764 0
M  V30 9901 H 961.671 0.342288 -0.652693 0
M  V30 9902 H 964.313 0.214235 -1.88788 0
M  V30 9903 H 962.463 2.40642 -3.04998 0
M  V30 9904 H 964.135 0.30882 -4.60265 0
M  V30 9905 H 962.378 0.221124 -4.33236 0
M  V30 9906 H 963.049 1.53607 -5.30197 0
M  V30 9907 H 965.525 2.23838 -3.50764 0
M  V30 9908 H 964.401 3.31748 -4.37304 0
M  V30 9909 H 964.662 3.53866 -2.65012 0
M  V30 9910 N 963.721 1.49897 0.486681 0
M  V30 9911 C 964.684 1.67086 1.56891 0
M  V30 9912 C 965.684 0.54209 1.51387 0
M  V30 9913 O 966.874 0.80883 1.54284 0
M  V30 9914 C 964.006 1.68159 2.96539 0
M  V30 9915 H 965.199 2.63626 1.42974 0
M  V30 9916 H 962.752 1.39143 0.711954 0
M  V30 9917 H 963.487 0.732562 3.15918 0
M  V30 9918 H 963.272 2.50147 3.01942 0
M  V30 9919 H 964.762 1.83466 3.7514 0
M  V30 9920 N 965.199 -0.738761 1.39212 0
M  V30 9921 C 966.132 -1.86135 1.32018 0
M  V30 9922 C 967.11 -1.61432 0.194512 0
M  V30 9923 O 968.294 -1.84746 0.374331 0
M  V30 9924 C 965.421 -3.22044 1.04907 0
M  V30 9925 C 964.467 -3.65612 2.19613 0
M  V30 9926 S 965.3 -3.75418 3.81866 0
M  V30 9927 C 966.456 -5.14122 3.56972 0
M  V30 9928 H 966.689 -1.91954 2.27027 0
M  V30 9929 H 964.222 -0.903244 1.25223 0
M  V30 9930 H 966.18 -4.00524 0.899491 0
M  V30 9931 H 964.841 -3.13886 0.115918 0
M  V30 9932 H 964.034 -4.64232 1.96227 0
M  V30 9933 H 963.636 -2.94327 2.30755 0
M  V30 9934 H 965.928 -6.00339 3.14005 0
M  V30 9935 H 966.871 -5.42535 4.55039 0
M  V30 9936 H 967.279 -4.8362 2.91156 0
M  V30 9937 N 966.677 -1.24326 -0.968545 0
M  V30 9938 C 967.587 -1.05194 -2.09694 0
M  V30 9939 C 968.603 0.00701291 -1.73999 0
M  V30 9940 O 969.779 -0.190981 -2.00492 0
M  V30 9941 C 966.844 -0.658075 -3.40397 0
M  V30 9942 C 965.905 -1.79341 -3.90045 0
M  V30 9943 C 965.138 -1.41824 -5.14511 0
M  V30 9944 O 965.361 -0.307693 -5.69569 0
M  V30 9945 O 964.295 -2.24358 -5.58522 0
M  V30 9946 H 968.121 -1.99791 -2.2873 0
M  V30 9947 H 965.706 -1.03138 -1.08088 0
M  V30 9948 H 967.588 -0.449911 -4.18991 0
M  V30 9949 H 966.263 0.258782 -3.22664 0
M  V30 9950 H 965.17 -2.05632 -3.12516 0
M  V30 9951 H 966.503 -2.68901 -4.12254 0
M  V30 9952 N 968.156 1.1691 -1.05688 0
M  V30 9953 C 969.086 2.23275 -0.683402 0
M  V30 9954 C 970.067 1.6704 0.321206 0
M  V30 9955 O 971.252 1.93191 0.197691 0
M  V30 9956 C 968.382 3.47244 -0.0626006 0
M  V30 9957 C 967.336 4.16333 -0.992513 0
M  V30 9958 C 966.662 5.34182 -0.23533 0
M  V30 9959 C 967.962 4.68002 -2.31886 0
M  V30 9960 H 969.656 2.54771 -1.57264 0
M  V30 9961 H 967.202 1.2246 -0.757606 0
M  V30 9962 H 969.155 4.20874 0.210503 0
M  V30 9963 H 967.879 3.1503 0.861616 0
M  V30 9964 H 966.538 3.44622 -1.25026 0
M  V30 9965 H 966.186 4.9822 0.69181 0
M  V30 9966 H 965.886 5.81346 -0.855002 0
M  V30 9967 H 967.41 6.10592 0.0303717 0
M  V30 9968 H 968.824 5.33244 -2.10531 0
M  V30 9969 H 967.221 5.25764 -2.89296 0
M  V30 9970 H 968.291 3.84541 -2.95391 0
M  V30 9971 N 969.634 0.838594 1.33437 0
M  V30 9972 C 970.911 0.356112 1.92331 0
M  V30 9973 C 971.291 -1.1585 1.76471 0
M  V30 9974 O 970.639 -1.97281 1.15293 0
M  V30 9975 C 970.849 0.802715 3.39643 0
M  V30 9976 C 972.197 0.810575 4.16791 0
M  V30 9977 O 973.221 0.746304 3.48294 0
M  V30 9978 O 972.08 0.898082 5.3907 0
M  V30 9979 H 969.174 0.100711 0.820845 0
M  V30 9980 H 971.72 0.924428 1.42311 0
M  V30 9981 H 970.492 1.84529 3.45057 0
M  V30 9982 H 970.115 0.210956 3.9704 0
M  V30 9983 N 971.112 -1.45937 0.595003 0
M  V30 9984 C 972.075 -2.2888 -0.121102 0
M  V30 9985 C 973.075 -1.39075 -0.807149 0
M  V30 9986 O 974.265 -1.61326 -0.657228 0
M  V30 9987 C 971.397 -3.19778 -1.1813 0
M  V30 9988 H 972.59 -2.93673 0.607968 0
M  V30 9989 H 970.143 -1.5225 0.353495 0
M  V30 9990 H 970.878 -2.59759 -1.94154 0
M  V30 9991 H 970.663 -3.85914 -0.693724 0
M  V30 9992 H 972.153 -3.82176 -1.68319 0
M  V30 9993 N 972.59 -0.333456 -1.54032 0
M  V30 9994 C 974.006 0.0188405 -1.59589 0
M  V30 9995 C 974.206 1.49615 -1.34972 0
M  V30 9996 O 973.262 2.2535 -1.13901 0
M  V30 9997 C 974.575 -0.408273 -2.97915 0
M  V30 9998 C 976.123 -0.359763 -3.10926 0
M  V30 9999 C 976.598 -0.76219 -4.51613 0
M  V30 10000 N 978.089 -0.715981 -4.57633 0
M  V30 10001 C 978.824 -0.999436 -5.64623 0
M  V30 10002 N 978.32 -1.35053 -6.79509 0
M  V30 10003 N 980.113 -0.924343 -5.54448 0
M  V30 10004 H 972.264 -1.29587 -1.68289 0
M  V30 10005 H 974.527 -0.527584 -0.787629 0
M  V30 10006 H 974.233 -1.43793 -3.20962 0
M  V30 10007 H 974.107 0.221685 -3.76548 0
M  V30 10008 H 976.494 0.660703 -2.87609 0
M  V30 10009 H 976.575 -1.02479 -2.34375 0
M  V30 10010 H 976.219 -1.78062 -4.75664 0
M  V30 10011 H 976.149 -0.0747478 -5.26547 0
M  V30 10012 H 978.64 -0.456875 -3.75128 0
M  V30 10013 H 978.953 -1.55194 -7.57057 0
M  V30 10014 H 977.298 -1.38889 -6.80981 0
M  V30 10015 H 980.489 -0.649469 -4.63573 0
M  V30 10016 H 980.662 -1.1486 -6.37739 0
M  V30 10017 N 974.068 1.57479 -0.061844 0
M  V30 10018 C 975.484 1.56855 0.294753 0
M  V30 10019 C 975.684 1.07042 1.70717 0
M  V30 10020 O 974.74 0.731817 2.41662 0
M  V30 10021 C 976.053 3.00486 0.113484 0
M  V30 10022 C 977.601 3.1246 0.183778 0
M  V30 10023 C 978.076 4.5799 0.0309092 0
M  V30 10024 N 979.567 4.63119 0.0868393 0
M  V30 10025 C 980.302 5.734 -0.00717446 0
M  V30 10026 N 979.798 6.92628 -0.154144 0
M  V30 10027 N 981.591 5.62078 0.0491763 0
M  V30 10028 H 973.742 1.88176 -0.985058 0
M  V30 10029 H 976.005 0.867051 -0.383309 0
M  V30 10030 H 975.711 3.41004 -0.86075 0
M  V30 10031 H 975.585 3.67029 0.870023 0
M  V30 10032 H 977.972 2.71834 1.14849 0
M  V30 10033 H 978.053 2.48574 -0.603697 0
M  V30 10034 H 977.697 4.99303 -0.930526 0
M  V30 10035 H 977.627 5.19895 0.837664 0
M  V30 10036 H 980.118 3.77374 0.199245 0
M  V30 10037 H 980.431 7.72492 -0.218296 0
M  V30 10038 H 978.776 6.94742 -0.189372 0
M  V30 10039 H 981.967 4.67817 0.162626 0
M  V30 10040 H 982.14 6.47994 -0.0275478 0
M  V30 10041 N 975.546 -0.211634 1.56173 0
M  V30 10042 C 976.509 -1.24588 1.92381 0
M  V30 10043 C 977.509 -1.39297 0.803311 0
M  V30 10044 O 978.699 -1.37392 1.07094 0
M  V30 10045 C 975.831 -2.61807 2.18335 0
M  V30 10046 H 977.024 -0.936814 2.84893 0
M  V30 10047 H 974.577 -0.452471 1.49607 0
M  V30 10048 H 975.312 -2.97795 1.28407 0
M  V30 10049 H 975.097 -2.52506 2.99972 0
M  V30 10050 H 976.587 -3.3642 2.4741 0
M  V30 10051 N 977.024 -1.50153 -0.478725 0
M  V30 10052 C 978.273 -1.60002 -1.22809 0
M  V30 10053 C 978.586 -0.302277 -1.9325 0
M  V30 10054 O 979.792 -0.279583 -2.70057 0
M  V30 10055 C 978.248 -2.82402 -2.23108 0
M  V30 10056 C 977.856 -4.19023 -1.58505 0
M  V30 10057 C 979.6 -3.01593 -2.98734 0
M  V30 10058 C 977.507 -5.32618 -2.57045 0
M  V30 10059 H 976.437 -0.595822 -0.462073 0
M  V30 10060 H 979.088 -1.76573 -0.499412 0
M  V30 10061 H 977.47 -2.59373 -2.99235 0
M  V30 10062 H 978.644 -4.52277 -0.882187 0
M  V30 10063 H 976.959 -4.05374 -0.951877 0
M  V30 10064 H 979.556 -3.8363 -3.72468 0
M  V30 10065 H 979.899 -2.1302 -3.57671 0
M  V30 10066 H 980.432 -3.24766 -2.29721 0
M  V30 10067 H 977.171 -6.23321 -2.02858 0
M  V30 10068 H 976.691 -5.03792 -3.25505 0
M  V30 10069 H 978.37 -5.62877 -3.19028 0
M  V30 10070 N 978.502 0.731368 -1.39602 0
M  V30 10071 C 979.465 1.8271 -1.38383 0
M  V30 10072 C 980.465 1.58338 -0.280309 0
M  V30 10073 O 981.655 1.65671 -0.538402 0
M  V30 10074 C 978.787 3.20556 -1.16002 0
M  V30 10075 H 979.98 1.85193 -2.35889 0
M  V30 10076 H 977.533 0.935396 -1.2522 0
M  V30 10077 H 978.268 3.23732 -0.191927 0
M  V30 10078 H 978.053 3.39643 -1.9592 0
M  V30 10079 H 979.543 4.00612 -1.17899 0
M  V30 10080 N 979.98 1.24838 0.961938 0
M  V30 10081 C 980.912 1.00369 2.06055 0
M  V30 10082 C 981.925 -0.0288583 1.62774 0
M  V30 10083 O 983.114 0.208853 1.77274 0
M  V30 10084 C 980.214 0.493953 3.35281 0
M  V30 10085 C 979.387 1.59097 4.07439 0
M  V30 10086 C 978.446 1.08288 5.14937 0
M  V30 10087 O 977.472 1.77577 5.40791 0
M  V30 10088 N 978.674 -0.0796836 5.80445 0
M  V30 10089 H 981.439 1.94962 2.27618 0
M  V30 10090 H 979 1.15945 1.12997 0
M  V30 10091 H 980.992 0.138675 4.04462 0
M  V30 10092 H 979.562 -0.357851 3.10545 0
M  V30 10093 H 978.782 2.11817 3.32456 0
M  V30 10094 H 980.07 2.32817 4.52409 0
M  V30 10095 H 979.468 -0.658827 5.6185 0
M  V30 10096 H 978.025 -0.376057 6.50714 0
M  V30 10097 N 981.458 -1.16348 1.06306 0
M  V30 10098 C 982.706 -1.86512 0.778311 0
M  V30 10099 C 983.027 -1.82107 -0.697273 0
M  V30 10100 O 982.297 -1.2547 -1.50446 0
M  V30 10101 H 980.877 -0.690529 0.284919 0
M  V30 10102 H 983.539 -1.41092 1.34458 0
M  V30 10103 H 982.635 -2.91947 1.10333 0
M  V30 10104 N 982.937 -0.845659 -1.3299 0
M  V30 10105 C 984.165 -0.45835 -2.01759 0
M  V30 10106 C 984.58 0.94239 -1.63598 0
M  V30 10107 O 983.937 1.61353 -0.852738 0
M  V30 10108 C 983.988 -0.577311 -3.5686 0
M  V30 10109 O 983.709 -1.92287 -3.93646 0
M  V30 10110 C 985.21 -0.187839 -4.42902 0
M  V30 10111 H 982.43 -0.181165 -0.646081 0
M  V30 10112 H 984.974 -1.14011 -1.6977 0
M  V30 10113 H 983.129 0.0566146 -3.87359 0
M  V30 10114 H 983.543 -1.91322 -4.88361 0
M  V30 10115 H 985.017 -0.322105 -5.51059 0
M  V30 10116 H 985.494 0.870896 -4.30479 0
M  V30 10117 H 986.1 -0.796473 -4.17776 0
M  V30 10118 N 984.415 1.45619 -0.602734 0
M  V30 10119 C 985.831 1.57368 -0.26599 0
M  V30 10120 C 986.031 1.59485 1.23154 0
M  V30 10121 O 985.087 1.52254 2.01432 0
M  V30 10122 C 986.4 2.85863 -0.932881 0
M  V30 10123 C 987.948 2.9953 -0.908344 0
M  V30 10124 C 988.423 4.30789 -1.55515 0
M  V30 10125 N 989.914 4.37536 -1.52042 0
M  V30 10126 C 990.649 5.37758 -1.99008 0
M  V30 10127 N 990.145 6.44544 -2.54038 0
M  V30 10128 N 991.938 5.29085 -1.89805 0
M  V30 10129 H 984.089 1.42489 -1.57514 0
M  V30 10130 H 986.352 0.680948 -0.659556 0
M  V30 10131 H 986.058 2.90183 -1.98713 0
M  V30 10132 H 985.932 3.74467 -0.453209 0
M  V30 10133 H 988.319 2.9478 0.137344 0
M  V30 10134 H 988.4 2.12349 -1.42623 0
M  V30 10135 H 988.044 4.36297 -2.60014 0
M  V30 10136 H 987.974 5.16778 -1.01232 0
M  V30 10137 H 990.465 3.60972 -1.11837 0
M  V30 10138 H 990.778 7.17258 -2.87682 0
M  V30 10139 H 989.123 6.45308 -2.58075 0
M  V30 10140 H 992.314 4.44566 -1.46556 0
M  V30 10141 H 992.487 6.07043 -2.26722 0
M  V30 10142 N 985.893 0.34162 1.53853 0
M  V30 10143 C 986.823 -0.508431 2.27897 0
M  V30 10144 C 987.804 -1.10425 1.29384 0
M  V30 10145 O 988.989 -1.126 1.58224 0
M  V30 10146 C 986.119 -1.66048 3.05034 0
M  V30 10147 C 985.073 -1.19309 4.11035 0
M  V30 10148 C 984.399 -2.4335 4.76114 0
M  V30 10149 C 985.699 -0.294952 5.21467 0
M  V30 10150 H 987.393 0.109251 2.99201 0
M  V30 10151 H 984.939 0.0539847 1.43899 0
M  V30 10152 H 986.892 -2.26158 3.5557 0
M  V30 10153 H 985.616 -2.30503 2.31379 0
M  V30 10154 H 984.275 -0.614809 3.61408 0
M  V30 10155 H 983.923 -3.06208 3.99056 0
M  V30 10156 H 983.623 -2.1276 5.47729 0
M  V30 10157 H 985.147 -3.0419 5.29434 0
M  V30 10158 H 986.561 -0.80285 5.67651 0
M  V30 10159 H 984.958 -0.0810221 6.00045 0
M  V30 10160 H 986.028 0.669433 4.80257 0
M  V30 10161 N 987.371 -1.57444 0.0701946 0
M  V30 10162 C 988.334 -2.11511 -0.882923 0
M  V30 10163 C 989.334 -1.03879 -1.22743 0
M  V30 10164 O 990.524 -1.29874 -1.16097 0
M  V30 10165 C 987.656 -2.61514 -2.18686 0
M  V30 10166 H 988.849 -2.9703 -0.413873 0
M  V30 10167 H 986.402 -1.55278 -0.178488 0
M  V30 10168 H 987.137 -1.79443 -2.70131 0
M  V30 10169 H 986.922 -3.40185 -1.94978 0
M  V30 10170 H 988.412 -3.03425 -2.86919 0
M  V30 10171 N 988.849 0.203349 -1.56283 0
M  V30 10172 C 989.779 1.2549 -1.96912 0
M  V30 10173 C 990.76 1.47919 -0.839884 0
M  V30 10174 O 991.945 1.59795 -1.10359 0
M  V30 10175 C 989.075 2.6009 -2.30153 0
M  V30 10176 C 988.029 2.52289 -3.45738 0
M  V30 10177 C 987.355 3.91086 -3.64632 0
M  V30 10178 C 988.655 2.05503 -4.80173 0
M  V30 10179 H 990.349 0.917306 -2.85002 0
M  V30 10180 H 987.895 0.439818 -1.37119 0
M  V30 10181 H 989.848 3.33829 -2.5717 0
M  V30 10182 H 988.572 2.95574 -1.38937 0
M  V30 10183 H 987.231 1.81006 -3.18798 0
M  V30 10184 H 986.879 4.23908 -2.7076 0
M  V30 10185 H 986.579 3.86742 -4.42385 0
M  V30 10186 H 988.103 4.66459 -3.94016 0
M  V30 10187 H 989.517 2.68995 -5.06275 0
M  V30 10188 H 987.914 2.1218 -5.61337 0
M  V30 10189 H 988.984 1.00793 -4.74309 0
M  V30 10190 N 990.327 1.50405 0.470755 0
M  V30 10191 C 991.237 1.7208 1.59454 0
M  V30 10192 C 992.253 0.603932 1.63183 0
M  V30 10193 O 993.429 0.882296 1.81046 0
M  V30 10194 C 990.494 1.81057 2.95667 0
M  V30 10195 C 989.555 3.04792 3.02324 0
M  V30 10196 C 988.788 3.13332 4.3204 0
M  V30 10197 O 989.011 2.28655 5.22564 0
M  V30 10198 O 987.945 4.0606 4.44296 0
M  V30 10199 H 991.771 2.67343 1.44089 0
M  V30 10200 H 989.356 1.34505 0.650286 0
M  V30 10201 H 991.238 1.8914 3.76569 0
M  V30 10202 H 989.913 0.889782 3.11231 0
M  V30 10203 H 988.82 3.0221 2.205 0
M  V30 10204 H 990.153 3.96451 2.91698 0
M  V30 10205 N 991.805 -0.723954 1.39988 0
M  V30 10206 C 993.054 -1.47922 1.3712 0
M  V30 10207 C 993.367 -1.95582 -0.0263665 0
M  V30 10208 O 994.573 -2.70918 -0.177652 0
M  V30 10209 C 993.029 -2.67342 2.40949 0
M  V30 10210 C 992.637 -2.26586 3.86475 0
M  V30 10211 C 994.381 -3.45116 2.47174 0
M  V30 10212 C 992.288 -3.42794 4.81919 0
M  V30 10213 H 991.218 -0.555522 0.509815 0
M  V30 10214 H 993.869 -0.788692 1.65686 0
M  V30 10215 H 992.251 -3.38524 2.0547 0
M  V30 10216 H 993.425 -1.62878 4.31054 0
M  V30 10217 H 991.74 -1.61876 3.83647 0
M  V30 10218 H 994.337 -4.31573 3.15672 0
M  V30 10219 H 994.68 -3.8835 1.49966 0
M  V30 10220 H 995.213 -2.80971 2.81602 0
M  V30 10221 H 991.952 -3.046 5.8043 0
M  V30 10222 H 991.472 -4.05445 4.42012 0
M  V30 10223 H 993.151 -4.08977 5.01345 0
M  V30 10224 O 993.322 -1.3636 -0.865351 0
M  V30 10225 H 994.013 -1.21995 -1.50455 0
M  V30 END ATOM
M  V30 BEGIN BOND
M  V30 END BOND
M  V30 END CTAB
M  END
$$$$
