drugbank_target|P42684 Abelson tyrosine-protein kinase 2 (DB00171; DB01254; DB05184; DB07664; DB12010)
 OpenBabel12092119313D

  0  0  0     0  0            999 V3000
M  V30 BEGIN CTAB
M  V30 COUNTS 17951 18162 0 0 0
M  V30 BEGIN ATOM
M  V30 1 H -0.908 1.98254 -0.117106 0
M  V30 2 N 0 1.576 0 0
M  V30 3 C 0.933 2.03868 1.02534 0
M  V30 4 C 1.911 0.928543 1.3348 0
M  V30 5 O 3.095 1.19667 1.45644 0
M  V30 6 C 0.222 2.43627 2.35294 0
M  V30 7 C -0.732 3.65373 2.2001 0
M  V30 8 S 0.101 5.13292 1.52614 0
M  V30 9 C 1.257 5.56322 2.86805 0
M  V30 10 H 1.49 2.90518 0.631377 0
M  V30 11 H -0.977 1.52953 0.210867 0
M  V30 12 H 0.981 2.67203 3.11629 0
M  V30 13 H -0.358 1.57376 2.7183 0
M  V30 14 H -1.165 3.90944 3.18086 0
M  V30 15 H -1.563 3.418 1.51819 0
M  V30 16 H 0.729 5.58782 3.83104 0
M  V30 17 H 1.672 6.56266 2.65933 0
M  V30 18 H 2.08 4.83886 2.90714 0
M  V30 19 N 1.4781 -0.272755 1.55222 0
M  V30 20 C 2.7261 -1.00234 1.75492 0
M  V30 21 C 3.0471 -1.8681 0.5592 0
M  V30 22 O 2.3171 -1.91215 -0.425882 0
M  V30 23 H 0.8971 -0.373076 0.647166 0
M  V30 24 H 3.5591 -0.296926 1.92625 0
M  V30 25 H 2.6551 -1.63913 2.65592 0
M  V30 26 N 2.9562 -1.48159 -0.537278 0
M  V30 27 C 3.8882 -1.58218 -1.65831 0
M  V30 28 C 4.9012 -0.466948 -1.5596 0
M  V30 29 O 6.0902 -0.73747 -1.62553 0
M  V30 30 C 3.1902 -1.48906 -3.04434 0
M  V30 31 C 2.3632 -2.75343 -3.3986 0
M  V30 32 C 1.4222 -2.59588 -4.57712 0
M  V30 33 O 0.4482 -3.33457 -4.61297 0
M  V30 34 N 1.6502 -1.68724 -5.55439 0
M  V30 35 H 4.4152 -2.54891 -1.57641 0
M  V30 36 H 1.9762 -1.4479 -0.724386 0
M  V30 37 H 3.9682 -1.36072 -3.81139 0
M  V30 38 H 2.5382 -0.602368 -3.06741 0
M  V30 39 H 1.7582 -3.02795 -2.52406 0
M  V30 40 H 3.0462 -3.5924 -3.60311 0
M  V30 41 H 2.4442 -1.07898 -5.55315 0
M  V30 42 H 1.0012 -1.61832 -6.3139 0
M  V30 43 N 4.4343 0.785586 -1.36625 0
M  V30 44 C 5.3663 1.90711 -1.2713 0
M  V30 45 C 6.3793 1.61688 -0.189986 0
M  V30 46 O 7.5683 1.72864 -0.445014 0
M  V30 47 C 4.6683 3.25611 -0.939713 0
M  V30 48 C 3.8413 3.82385 -2.12369 0
M  V30 49 C 2.9003 4.95732 -1.76456 0
M  V30 50 O 1.9263 5.12047 -2.48589 0
M  V30 51 N 3.1283 5.76258 -0.700492 0
M  V30 52 H 5.8933 1.99376 -2.23762 0
M  V30 53 H 3.4543 0.964041 -1.30069 0
M  V30 54 H 5.4463 3.98937 -0.680554 0
M  V30 55 H 4.0163 3.12538 -0.0624074 0
M  V30 56 H 3.2363 3.01001 -2.54543 0
M  V30 57 H 4.5243 4.17047 -2.9146 0
M  V30 58 H 3.9223 5.65609 -0.101624 0
M  V30 59 H 2.4793 6.4987 -0.501165 0
M  V30 60 N 5.9124 1.20967 1.01018 0
M  V30 61 C 7.1584 1.02526 1.74975 0
M  V30 62 C 7.4914 -0.4408 1.89131 0
M  V30 63 O 6.7664 -1.32718 1.42184 0
M  V30 64 C 7.0494 1.71699 3.1653 0
M  V30 65 C 6.9024 3.25791 3.10129 0
M  V30 66 C 8.2214 1.45531 4.15342 0
M  V30 67 H 5.3404 0.373863 0.635134 0
M  V30 68 H 7.9824 1.49071 1.17805 0
M  V30 69 H 6.1324 1.32128 3.65341 0
M  V30 70 H 7.8044 3.74697 2.69072 0
M  V30 71 H 6.0474 3.56363 2.47362 0
M  V30 72 H 6.7184 3.69353 4.10222 0
M  V30 73 H 9.1944 1.79872 3.75213 0
M  V30 74 H 8.0704 1.96453 5.1254 0
M  V30 75 H 8.3314 0.384237 4.40427 0
M  V30 76 N 7.3905 -1.2043 1.01659 0
M  V30 77 C 8.6385 -1.89423 0.704522 0
M  V30 78 C 8.9595 -1.79231 -0.768197 0
M  V30 79 O 8.2295 -1.1947 -1.55254 0
M  V30 80 H 6.8095 -0.701178 0.257602 0
M  V30 81 H 9.4715 -1.4626 1.28818 0
M  V30 82 H 8.5675 -2.96052 0.987916 0
M  V30 83 N 8.8686 -0.792821 -1.36206 0
M  V30 84 C 10.2846 -0.474903 -1.52371 0
M  V30 85 C 10.4846 1.00622 -1.74578 0
M  V30 86 O 9.5406 1.79162 -1.77924 0
M  V30 87 C 10.8536 -1.3083 -2.70747 0
M  V30 88 C 12.4016 -1.30234 -2.84619 0
M  V30 89 C 12.8766 -2.11956 -4.06004 0
M  V30 90 N 14.3676 -2.09419 -4.13156 0
M  V30 91 C 15.1026 -2.69419 -5.06163 0
M  V30 92 N 14.5986 -3.3829 -6.04592 0
M  V30 93 N 16.3916 -2.59134 -4.98804 0
M  V30 94 H 8.5426 -1.75222 -1.20046 0
M  V30 95 H 10.8056 -0.745024 -0.586211 0
M  V30 96 H 10.5116 -2.35881 -2.6087 0
M  V30 97 H 10.3856 -0.95196 -3.6499 0
M  V30 98 H 12.7726 -0.259748 -2.93955 0
M  V30 99 H 12.8536 -1.69847 -1.91274 0
M  V30 100 H 12.4976 -3.16248 -3.97429 0
M  V30 101 H 12.4276 -1.69711 -4.98503 0
M  V30 102 H 14.9186 -1.59297 -3.42685 0
M  V30 103 H 15.2316 -3.81394 -6.7213 0
M  V30 104 H 13.5766 -3.42393 -6.04807 0
M  V30 105 H 16.7676 -2.04927 -4.20859 0
M  V30 106 H 16.9406 -3.06185 -5.711 0
M  V30 107 N 10.3467 1.47872 -0.545128 0
M  V30 108 C 11.5927 2.02793 -0.0166104 0
M  V30 109 C 11.9257 1.41987 1.32489 0
M  V30 110 O 11.2007 0.571045 1.85928 0
M  V30 111 C 11.4837 3.59989 0.0893294 0
M  V30 112 C 11.3367 4.3125 -1.27841 0
M  V30 113 C 12.6557 4.32606 0.808724 0
M  V30 114 H 9.7747 0.736962 -0.00751035 0
M  V30 115 H 12.4167 1.76433 -0.705085 0
M  V30 116 H 10.5667 3.82579 0.675681 0
M  V30 117 H 12.2387 4.20035 -1.90704 0
M  V30 118 H 10.4817 3.92076 -1.85632 0
M  V30 119 H 11.1527 5.39736 -1.15713 0
M  V30 120 H 13.6287 4.14936 0.310992 0
M  V30 121 H 12.5047 5.42251 0.851782 0
M  V30 122 H 12.7657 4.00963 1.86229 0
M  V30 123 N 11.8248 0.280983 1.55075 0
M  V30 124 C 13.0728 -0.333455 1.9933 0
M  V30 125 C 13.3938 -1.55937 1.17085 0
M  V30 126 O 12.6638 -1.94143 0.261805 0
M  V30 127 H 11.2438 -0.126197 0.736263 0
M  V30 128 H 13.9058 0.387678 1.91005 0
M  V30 129 H 13.0018 -0.619292 3.05894 0
M  V30 130 N 13.3029 -1.57598 0.00835791 0
M  V30 131 C 14.2129 -2.12385 -0.996487 0
M  V30 132 C 15.2289 -1.07108 -1.37127 0
M  V30 133 O 16.4049 -1.39055 -1.4569 0
M  V30 134 C 13.4699 -2.62314 -2.26699 0
M  V30 135 C 12.5309 -3.82225 -1.95456 0
M  V30 136 C 11.7639 -4.29763 -3.16449 0
M  V30 137 O 11.9869 -3.76584 -4.28416 0
M  V30 138 O 10.9209 -5.21832 -2.99958 0
M  V30 139 H 14.7469 -2.98479 -0.560725 0
M  V30 140 H 12.3319 -1.47903 -0.210987 0
M  V30 141 H 14.2139 -2.94589 -3.01322 0
M  V30 142 H 12.8889 -1.79313 -2.69497 0
M  V30 143 H 11.7959 -3.54909 -1.18282 0
M  V30 144 H 13.1289 -4.66324 -1.57489 0
M  V30 145 N 14.781 0.264519 -1.55364 0
M  V30 146 C 15.744 1.31046 -1.88042 0
M  V30 147 C 16.744 1.41943 -0.755569 0
M  V30 148 O 17.934 1.40947 -1.02369 0
M  V30 149 C 15.066 2.69067 -2.09323 0
M  V30 150 H 16.259 1.03297 -2.81549 0
M  V30 151 H 13.812 0.502989 -1.47986 0
M  V30 152 H 14.547 3.01982 -1.18226 0
M  V30 153 H 14.332 2.62542 -2.91229 0
M  V30 154 H 15.822 3.44623 -2.35848 0
M  V30 155 N 16.2591 1.48442 0.529413 0
M  V30 156 C 17.6701 1.5002 1.11134 0
M  V30 157 C 18.0211 0.27031 1.94329 0
M  V30 158 O 17.1461 -0.622507 2.07253 0
M  V30 159 C 17.7411 2.71834 2.02217 0
M  V30 160 C 16.3001 2.76283 2.55627 0
M  V30 161 C 15.4471 2.43542 1.326 0
M  V30 162 H 18.3981 1.5555 0.314641 0
M  V30 163 H 18.4191 2.50384 2.8651 0
M  V30 164 H 17.9311 3.61331 1.41639 0
M  V30 165 H 16.0321 1.90995 3.19924 0
M  V30 166 H 16.1451 3.77725 2.94721 0
M  V30 167 H 14.5091 1.94709 1.64196 0
M  V30 168 H 15.2921 3.3528 0.737734 0
M  V30 169 N 17.7372 -0.778329 1.37039 0
M  V30 170 C 18.9852 -1.53361 1.31623 0
M  V30 171 C 19.3062 -1.94739 -0.100831 0
M  V30 172 O 18.5762 -1.65797 -1.04347 0
M  V30 173 H 17.1562 -0.568794 0.484234 0
M  V30 174 H 19.8182 -0.926742 1.71457 0
M  V30 175 H 18.9142 -2.43606 1.95096 0
M  V30 176 N 19.2153 -1.21501 -1.00376 0
M  V30 177 C 20.1453 -0.999478 -2.11028 0
M  V30 178 C 21.1263 0.0759671 -1.6993 0
M  V30 179 O 22.3113 -0.0841106 -1.94018 0
M  V30 180 C 19.4413 -0.564709 -3.42678 0
M  V30 181 C 18.3953 -1.58486 -3.97576 0
M  V30 182 C 17.7213 -1.00628 -5.25146 0
M  V30 183 C 19.0213 -2.97204 -4.29496 0
M  V30 184 H 20.7153 -1.92495 -2.29317 0
M  V30 185 H 18.2613 -0.92693 -1.102 0
M  V30 186 H 20.2143 -0.401091 -4.19487 0
M  V30 187 H 18.9383 0.396411 -3.24185 0
M  V30 188 H 17.5973 -1.73606 -3.22888 0
M  V30 189 H 17.2453 -0.0368439 -5.02987 0
M  V30 190 H 16.9453 -1.68771 -5.62841 0
M  V30 191 H 18.4693 -0.854015 -6.04598 0
M  V30 192 H 19.8833 -2.8552 -4.97143 0
M  V30 193 H 18.2803 -3.62372 -4.78338 0
M  V30 194 H 19.3503 -3.47956 -3.3772 0
M  V30 195 N 20.6934 1.19889 -1.02296 0
M  V30 196 C 21.6254 2.22334 -0.556787 0
M  V30 197 C 22.6384 1.58674 0.364199 0
M  V30 198 O 23.8274 1.77768 0.161533 0
M  V30 199 C 20.9274 3.38257 0.208694 0
M  V30 200 C 20.1004 4.31504 -0.71577 0
M  V30 201 C 19.1594 5.262 0.00325597 0
M  V30 202 O 18.1854 5.65798 -0.621357 0
M  V30 203 N 19.3874 5.66303 1.27599 0
M  V30 204 H 22.1524 2.62957 -1.43784 0
M  V30 205 H 19.7134 1.34495 -0.901261 0
M  V30 206 H 21.7054 3.98616 0.699111 0
M  V30 207 H 20.2754 2.96472 0.991102 0
M  V30 208 H 19.4954 3.69016 -1.38638 0
M  V30 209 H 20.7834 4.9072 -1.34428 0
M  V30 210 H 20.1814 5.36155 1.80429 0
M  V30 211 H 18.7384 6.28942 1.71102 0
M  V30 212 N 22.1715 0.800033 1.35784 0
M  V30 213 C 23.1035 0.163596 2.28615 0
M  V30 214 C 24.1165 -0.633317 1.49976 0
M  V30 215 O 25.3055 -0.466754 1.72289 0
M  V30 216 C 22.4055 -0.790958 3.29541 0
M  V30 217 C 21.5785 -0.0418255 4.3738 0
M  V30 218 C 20.6375 -0.91389 5.18203 0
M  V30 219 O 19.6635 -0.367234 5.68014 0
M  V30 220 N 20.8655 -2.23682 5.35674 0
M  V30 221 H 23.6305 0.96105 2.83873 0
M  V30 222 H 21.1915 0.654894 1.48063 0
M  V30 223 H 23.1835 -1.37844 3.80501 0
M  V30 224 H 21.7535 -1.48925 2.74846 0
M  V30 225 H 20.9735 0.726813 3.87442 0
M  V30 226 H 22.2615 0.474719 5.06581 0
M  V30 227 H 21.6595 -2.70497 4.96838 0
M  V30 228 H 20.2165 -2.77369 5.89839 0
M  V30 229 N 23.6496 -1.47581 0.552962 0
M  V30 230 C 25.0606 -1.86324 0.118463 0
M  V30 231 C 25.4116 -1.46006 -1.3106 0
M  V30 232 O 24.5366 -0.861182 -1.98526 0
M  V30 233 C 25.1316 -3.3816 0.20821 0
M  V30 234 C 23.6906 -3.7601 -0.171226 0
M  V30 235 C 22.8376 -2.71634 0.557686 0
M  V30 236 H 25.7886 -1.39159 0.762928 0
M  V30 237 H 25.8096 -3.76141 -0.574278 0
M  V30 238 H 25.3216 -3.67473 1.24841 0
M  V30 239 H 23.4226 -3.52313 -1.21269 0
M  V30 240 H 23.5356 -4.78745 0.184379 0
M  V30 241 H 21.8996 -2.547 0.00125792 0
M  V30 242 H 22.6826 -3.0379 1.59896 0
M  V30 243 N 25.1277 -0.289203 -1.54924 0
M  V30 244 C 26.0597 0.625583 -2.20497 0
M  V30 245 C 27.0727 1.10667 -1.19402 0
M  V30 246 O 28.2617 1.02615 -1.46056 0
M  V30 247 C 25.3617 1.86702 -2.82835 0
M  V30 248 C 24.5347 1.5304 -4.09753 0
M  V30 249 C 23.5937 2.62576 -4.56005 0
M  V30 250 O 22.6197 2.28167 -5.21468 0
M  V30 251 N 23.8217 3.92901 -4.27328 0
M  V30 252 H 26.5867 0.0642801 -2.99631 0
M  V30 253 H 24.1477 -0.110896 -1.6152 0
M  V30 254 H 26.1397 2.59304 -3.10715 0
M  V30 255 H 24.7097 2.33702 -2.07611 0
M  V30 256 H 23.9297 0.637564 -3.8901 0
M  V30 257 H 25.2177 1.28072 -4.92418 0
M  V30 258 H 24.6157 4.23671 -3.74859 0
M  V30 259 H 23.1727 4.61837 -4.59946 0
M  V30 260 N 26.6058 1.57591 -0.0167156 0
M  V30 261 C 28.0168 1.79201 0.523834 0
M  V30 262 C 28.3678 0.925796 1.72984 0
M  V30 263 O 27.4928 0.132792 2.15992 0
M  V30 264 C 28.0878 3.25 0.957091 0
M  V30 265 C 26.6468 3.47648 1.44283 0
M  V30 266 C 25.7938 2.74374 0.401757 0
M  V30 267 H 28.7448 1.56831 -0.242816 0
M  V30 268 H 28.7658 3.34031 1.82219 0
M  V30 269 H 28.2778 3.88019 0.0791415 0
M  V30 270 H 26.3788 2.89866 2.34113 0
M  V30 271 H 26.4918 4.56352 1.45877 0
M  V30 272 H 24.8558 2.39485 0.867121 0
M  V30 273 H 25.6388 3.40102 -0.467513 0
M  V30 274 N 28.0839 -0.256276 1.55502 0
M  V30 275 C 29.4999 -0.604325 1.47716 0
M  V30 276 C 29.6999 -1.88763 0.705039 0
M  V30 277 O 28.7559 -2.51445 0.230613 0
M  V30 278 C 30.0689 -0.715756 2.92057 0
M  V30 279 C 31.6169 -0.808706 3.02372 0
M  V30 280 C 32.0919 -0.951777 4.48001 0
M  V30 281 N 33.5829 -1.01688 4.519 0
M  V30 282 C 34.3179 -1.14668 5.61817 0
M  V30 283 N 33.8139 -1.24261 6.81565 0
M  V30 284 N 35.6069 -1.1791 5.49594 0
M  V30 285 H 27.7579 0.586291 2.04148 0
M  V30 286 H 30.0209 0.201015 0.926443 0
M  V30 287 H 29.7269 0.157027 3.51349 0
M  V30 288 H 29.6009 -1.59071 3.42018 0
M  V30 289 H 31.9879 -1.67195 2.43166 0
M  V30 290 H 32.0689 0.0912063 2.55637 0
M  V30 291 H 31.7129 -0.0931291 5.07815 0
M  V30 292 H 31.6429 -1.86659 4.92408 0
M  V30 293 H 34.1339 -0.954468 3.65648 0
M  V30 294 H 34.4469 -1.34046 7.61086 0
M  V30 295 H 32.7919 -1.21236 6.84344 0
M  V30 296 H 35.9829 -1.10057 4.54978 0
M  V30 297 H 36.1559 -1.27681 6.35296 0
M  V30 298 N 29.562 -1.4872 -0.521534 0
M  V30 299 C 30.81 -1.56857 -1.27437 0
M  V30 300 C 31.131 -0.247982 -1.93417 0
M  V30 301 O 30.401 0.731151 -1.81744 0
M  V30 302 H 28.981 -0.577885 -0.473347 0
M  V30 303 H 31.643 -1.85233 -0.606205 0
M  V30 304 H 30.739 -2.35402 -2.0492 0
M  V30 305 N 31.0401 0.771051 -1.3745 0
M  V30 306 C 32.2891 1.52491 -1.3202 0
M  V30 307 C 32.6021 1.9538 0.0927347 0
M  V30 308 O 33.8081 2.70159 0.269503 0
M  V30 309 C 32.2641 2.75366 -2.31736 0
M  V30 310 C 31.8721 2.39573 -3.78562 0
M  V30 311 C 33.6161 3.53307 -2.35318 0
M  V30 312 C 31.5231 3.58954 -4.70007 0
M  V30 313 H 30.4531 0.572506 -0.490666 0
M  V30 314 H 33.1041 0.844474 -1.62914 0
M  V30 315 H 31.4861 3.45303 -1.93861 0
M  V30 316 H 32.6601 1.77415 -4.25277 0
M  V30 317 H 30.9751 1.74805 -3.77932 0
M  V30 318 H 33.5721 4.42039 -3.00842 0
M  V30 319 H 33.9151 3.93217 -1.36698 0
M  V30 320 H 34.4481 2.90367 -2.71904 0
M  V30 321 H 31.1871 3.24125 -5.69757 0
M  V30 322 H 30.7071 4.20214 -4.27996 0
M  V30 323 H 32.3861 4.25758 -4.87175 0
M  V30 324 N 32.5182 1.22032 0.997298 0
M  V30 325 C 33.9342 0.979326 1.26021 0
M  V30 326 C 34.1342 -0.32972 1.98784 0
M  V30 327 O 33.1902 -1.05345 2.29475 0
M  V30 328 C 34.5032 2.17509 2.07631 0
M  V30 329 C 36.0512 2.21817 2.2083 0
M  V30 330 C 36.5262 3.40933 3.05825 0
M  V30 331 N 38.0172 3.41067 3.13412 0
M  V30 332 C 38.7522 4.29885 3.79455 0
M  V30 333 N 38.2482 5.28914 4.47462 0
M  V30 334 N 40.0412 4.17673 3.76173 0
M  V30 335 H 32.1922 2.06202 0.509352 0
M  V30 336 H 34.4552 0.90334 0.287541 0
M  V30 337 H 34.1612 3.12415 1.61524 0
M  V30 338 H 34.0352 2.17206 3.08385 0
M  V30 339 H 36.4222 1.27462 2.66153 0
M  V30 340 H 36.5032 2.2616 1.1952 0
M  V30 341 H 36.1472 4.35586 2.61203 0
M  V30 342 H 36.0772 3.33829 4.07266 0
M  V30 343 H 38.5682 2.69406 2.65007 0
M  V30 344 H 38.8812 5.92973 4.95583 0
M  V30 345 H 37.2262 5.32831 4.46224 0
M  V30 346 H 40.4172 3.39564 3.22202 0
M  V30 347 H 40.5902 4.87098 4.27363 0
M  V30 348 N 33.9963 -1.19345 1.0293 0
M  V30 349 C 35.2443 -1.88665 0.724574 0
M  V30 350 C 35.5653 -1.80036 -0.749144 0
M  V30 351 O 34.8353 -1.2111 -1.53978 0
M  V30 352 H 33.4153 -0.698406 0.265025 0
M  V30 353 H 36.0773 -1.44885 1.30362 0
M  V30 354 H 35.1733 -2.94987 1.01926 0
M  V30 355 N 35.4744 -0.807222 -1.35358 0
M  V30 356 C 36.6994 -0.399309 -2.0352 0
M  V30 357 C 37.1244 0.981986 -1.60433 0
M  V30 358 O 36.4824 1.63601 -0.781299 0
M  V30 359 C 36.5304 -0.491552 -3.57234 0
M  V30 360 O 35.6344 0.494754 -4.09421 0
M  V30 361 H 34.9754 -0.166682 -0.642739 0
M  V30 362 H 37.5054 -1.09328 -1.72941 0
M  V30 363 H 37.5154 -0.361588 -4.06395 0
M  V30 364 H 36.1904 -1.49907 -3.87944 0
M  V30 365 H 34.7674 0.324977 -3.71481 0
M  V30 366 N 36.9525 1.47285 -0.560781 0
M  V30 367 C 38.1775 2.07359 -0.0410566 0
M  V30 368 C 38.6025 1.41017 1.24483 0
M  V30 369 O 37.9605 0.486368 1.74654 0
M  V30 370 C 38.0085 3.6035 0.134123 0
M  V30 371 O 37.1125 3.94681 1.19587 0
M  V30 372 H 36.4535 0.661887 -0.0529291 0
M  V30 373 H 38.9835 1.89252 -0.777482 0
M  V30 374 H 38.9935 4.0652 0.347207 0
M  V30 375 H 37.6685 4.08034 -0.805047 0
M  V30 376 H 36.2455 3.60251 0.962987 0
M  V30 377 N 38.4306 0.297415 1.54768 0
M  V30 378 C 39.3936 -0.567375 2.22066 0
M  V30 379 C 40.3936 -1.06409 1.20556 0
M  V30 380 O 41.5836 -0.960691 1.45315 0
M  V30 381 C 38.7156 -1.78517 2.90421 0
M  V30 382 H 39.9086 0.0205534 2.99893 0
M  V30 383 H 37.4616 0.0482163 1.56226 0
M  V30 384 H 38.1966 -2.41303 2.16664 0
M  V30 385 H 37.9816 -1.43669 3.64831 0
M  V30 386 H 39.4716 -2.39964 3.41771 0
M  V30 387 N 39.9087 -1.5758 0.0250728 0
M  V30 388 C 40.8717 -2.08896 -0.943139 0
M  V30 389 C 41.8717 -1.00321 -1.25668 0
M  V30 390 O 43.0617 -1.26495 -1.19769 0
M  V30 391 C 40.1937 -2.55143 -2.26086 0
M  V30 392 H 41.3867 -2.95723 -0.498775 0
M  V30 393 H 38.9397 -1.54703 -0.222888 0
M  V30 394 H 39.6747 -1.71633 -2.75159 0
M  V30 395 H 39.4597 -3.34461 -2.04641 0
M  V30 396 H 40.9497 -2.95083 -2.95492 0
M  V30 397 N 41.3868 0.248026 -1.55636 0
M  V30 398 C 42.8028 0.596483 -1.48035 0
M  V30 399 C 43.0028 1.88386 -0.715039 0
M  V30 400 O 42.0588 2.51319 -0.243944 0
M  V30 401 C 43.3718 0.700258 -2.92433 0
M  V30 402 C 44.9198 0.792659 -3.02797 0
M  V30 403 C 45.3948 0.928005 -4.485 0
M  V30 404 N 46.8858 0.992903 -4.52433 0
M  V30 405 C 47.6208 1.11687 -5.62418 0
M  V30 406 N 47.1168 1.20645 -6.82214 0
M  V30 407 N 48.9098 1.14994 -5.50212 0
M  V30 408 H 41.0608 -0.597109 -2.03834 0
M  V30 409 H 43.3238 -0.205925 -0.925364 0
M  V30 410 H 43.0298 -0.175658 -3.51261 0
M  V30 411 H 42.9038 1.57255 -3.42857 0
M  V30 412 H 45.2908 1.65903 -2.4405 0
M  V30 413 H 45.3718 -0.104762 -2.55585 0
M  V30 414 H 45.0158 0.0661971 -5.07857 0
M  V30 415 H 44.9458 1.84045 -4.93391 0
M  V30 416 H 47.4368 0.935064 -3.66149 0
M  V30 417 H 47.7498 1.30008 -7.61786 0
M  V30 418 H 46.0948 1.17605 -6.84977 0
M  V30 419 H 49.2858 1.07643 -4.55555 0
M  V30 420 H 49.4588 1.24311 -6.35965 0
M  V30 421 N 42.8649 1.48995 0.513639 0
M  V30 422 C 44.2759 1.5119 1.09537 0
M  V30 423 C 44.6269 0.290906 1.94031 0
M  V30 424 O 43.7519 -0.60049 2.07902 0
M  V30 425 C 44.3469 2.73964 1.99322 0
M  V30 426 C 42.9059 2.78978 2.52682 0
M  V30 427 C 42.0529 2.44934 1.30009 0
M  V30 428 H 45.0039 1.55875 0.298125 0
M  V30 429 H 45.0249 2.53409 2.83838 0
M  V30 430 H 44.5369 3.62813 1.37799 0
M  V30 431 H 42.6379 1.94378 3.1788 0
M  V30 432 H 42.7509 3.8083 2.90698 0
M  V30 433 H 41.1149 1.9644 1.62122 0
M  V30 434 H 41.8979 3.36043 0.702131 0
M  V30 435 N 44.343 -0.763751 1.37857 0
M  V30 436 C 45.568 -1.55805 1.36893 0
M  V30 437 C 45.993 -1.88054 -0.0416135 0
M  V30 438 O 45.351 -1.49825 -1.02089 0
M  V30 439 C 45.399 -2.84012 2.22192 0
M  V30 440 O 44.503 -3.78732 1.63204 0
M  V30 441 H 43.844 -0.471638 0.46739 0
M  V30 442 H 46.374 -0.944657 1.81487 0
M  V30 443 H 46.384 -3.33037 2.35691 0
M  V30 444 H 45.059 -2.59869 3.24716 0
M  V30 445 H 43.636 -3.37402 1.58791 0
M  V30 446 N 45.8211 -1.22559 -0.990812 0
M  V30 447 C 47.0691 -1.04933 -1.72724 0
M  V30 448 C 47.3901 0.416158 -1.90508 0
M  V30 449 O 46.6601 1.29918 -1.46622 0
M  V30 450 H 45.2401 -0.385296 -0.639965 0
M  V30 451 H 47.9021 -1.54105 -1.19322 0
M  V30 452 H 46.9981 -1.52886 -2.72089 0
M  V30 453 N 47.2992 1.18797 -1.03562 0
M  V30 454 C 48.7152 1.40671 -0.753917 0
M  V30 455 C 48.9152 1.9043 0.658686 0
M  V30 456 O 47.9712 2.08538 1.42366 0
M  V30 457 C 49.2842 2.41192 -1.79574 0
M  V30 458 C 50.8322 2.54928 -1.81606 0
M  V30 459 C 51.3072 3.58709 -2.84766 0
M  V30 460 N 52.7982 3.66212 -2.83625 0
M  V30 461 C 53.5332 4.46225 -3.60098 0
M  V30 462 N 53.0292 5.29888 -4.46308 0
M  V30 463 N 54.8222 4.40939 -3.4861 0
M  V30 464 H 46.9732 0.848221 -1.94728 0
M  V30 465 H 49.2362 0.435081 -0.842264 0
M  V30 466 H 48.9422 2.11669 -2.80872 0
M  V30 467 H 48.8162 3.40467 -1.62365 0
M  V30 468 H 51.2032 2.83771 -0.809817 0
M  V30 469 H 51.2842 1.55784 -2.02891 0
M  V30 470 H 50.9282 3.30607 -3.85566 0
M  V30 471 H 50.8582 4.57519 -2.60737 0
M  V30 472 H 53.3492 3.06466 -2.21105 0
M  V30 473 H 53.6622 5.88078 -5.01382 0
M  V30 474 H 52.0072 5.29326 -4.50377 0
M  V30 475 H 55.1982 3.74624 -2.80668 0
M  V30 476 H 55.3712 5.03056 -4.08459 0
M  V30 477 N 48.7773 0.814389 1.34928 0
M  V30 478 C 50.1933 0.499084 1.51596 0
M  V30 479 C 50.3933 -0.978319 1.76157 0
M  V30 480 O 49.4493 -1.76309 1.80752 0
M  V30 481 C 50.7623 1.35121 2.68631 0
M  V30 482 C 52.3103 1.34746 2.82511 0
M  V30 483 C 52.7853 2.18388 4.0258 0
M  V30 484 N 54.2763 2.15966 4.09772 0
M  V30 485 C 55.0113 2.77437 5.01813 0
M  V30 486 N 54.5073 3.47866 5.99134 0
M  V30 487 N 56.3003 2.67037 4.94619 0
M  V30 488 H 48.4513 1.7711 1.17243 0
M  V30 489 H 50.7143 0.754256 0.574284 0
M  V30 490 H 50.4203 2.40001 2.57085 0
M  V30 491 H 50.2943 1.00991 3.63429 0
M  V30 492 H 52.6813 0.30648 2.93504 0
M  V30 493 H 52.7623 1.72869 1.88547 0
M  V30 494 H 52.4063 3.2253 3.92347 0
M  V30 495 H 52.3363 1.77621 4.9574 0
M  V30 496 H 54.8273 1.64729 3.40107 0
M  V30 497 H 55.1403 3.92038 6.65977 0
M  V30 498 H 53.4853 3.51972 5.99284 0
M  V30 499 H 56.6763 2.11597 4.17546 0
M  V30 500 H 56.8493 3.15232 5.66156 0
M  V30 501 N 50.2554 -1.46986 0.568584 0
M  V30 502 C 51.6714 -1.57946 0.229189 0
M  V30 503 C 51.8714 -1.56567 -1.26843 0
M  V30 504 O 50.9274 -1.47511 -2.04931 0
M  V30 505 C 52.2404 -2.87963 0.865909 0
M  V30 506 C 53.7884 -3.01568 0.838188 0
M  V30 507 C 54.2634 -4.34301 1.45419 0
M  V30 508 N 55.7544 -4.40965 1.41788 0
M  V30 509 C 56.4894 -5.42256 1.86403 0
M  V30 510 N 55.9854 -6.50297 2.38926 0
M  V30 511 N 57.7784 -5.3337 1.77405 0
M  V30 512 H 49.9294 -1.46126 1.54146 0
M  V30 513 H 52.1924 -0.696156 0.643484 0
M  V30 514 H 51.8984 -2.94742 1.91886 0
M  V30 515 H 51.7724 -3.75423 0.365687 0
M  V30 516 H 54.1594 -2.94379 -0.206106 0
M  V30 517 H 54.2404 -2.1562 1.37629 0
M  V30 518 H 53.8844 -4.42247 2.49761 0
M  V30 519 H 53.8144 -5.19 0.891435 0
M  V30 520 H 56.3054 -3.63484 1.03381 0
M  V30 521 H 56.6184 -7.23777 2.70863 0
M  V30 522 H 54.9634 -6.51155 2.42944 0
M  V30 523 H 58.1544 -4.47865 1.3614 0
M  V30 524 H 58.3274 -6.12169 2.12492 0
M  V30 525 N 51.7335 -0.305618 -1.54608 0
M  V30 526 C 53.0105 0.355652 -1.92339 0
M  V30 527 C 53.3905 1.71324 -1.23335 0
M  V30 528 O 52.7385 2.25473 -0.370702 0
M  V30 529 C 52.9485 0.46572 -3.45879 0
M  V30 530 C 54.2965 0.734426 -4.182 0
M  V30 531 O 55.3205 0.54935 -3.51938 0
M  V30 532 O 54.1795 1.09024 -5.35515 0
M  V30 533 H 51.2735 0.199666 -0.802535 0
M  V30 534 H 53.8195 -0.354017 -1.65966 0
M  V30 535 H 52.5915 -0.488461 -3.88239 0
M  V30 536 H 52.2145 1.22367 -3.78301 0
M  V30 537 N 53.2116 1.57565 -0.0334293 0
M  V30 538 C 54.6226 1.79746 0.504798 0
M  V30 539 C 54.9736 0.944091 1.71992 0
M  V30 540 O 54.0986 0.155694 2.15839 0
M  V30 541 C 54.6936 3.25997 0.922567 0
M  V30 542 C 53.2526 3.49159 1.40588 0
M  V30 543 C 52.3996 2.74785 0.372633 0
M  V30 544 H 55.3506 1.56565 -0.259436 0
M  V30 545 H 55.3716 3.35945 1.78666 0
M  V30 546 H 54.8836 3.88081 0.0379825 0
M  V30 547 H 52.9846 2.92332 2.31025 0
M  V30 548 H 53.0976 4.57873 1.41028 0
M  V30 549 H 51.4616 2.40391 0.841672 0
M  V30 550 H 52.2446 3.39587 -0.503559 0
M  V30 551 N 54.6897 -0.239769 1.55765 0
M  V30 552 C 55.6527 -1.28038 1.90103 0
M  V30 553 C 56.6527 -1.40723 0.778055 0
M  V30 554 O 57.8427 -1.39301 1.04599 0
M  V30 555 C 54.9747 -2.65702 2.13577 0
M  V30 556 H 56.1677 -0.988048 2.83157 0
M  V30 557 H 53.7207 -0.479382 1.48767 0
M  V30 558 H 54.4557 -3.00063 1.23015 0
M  V30 559 H 54.2407 -2.57875 2.95369 0
M  V30 560 H 55.7307 -3.40828 2.41301 0
M  V30 561 N 56.1678 -1.49265 -0.50573 0
M  V30 562 C 57.4158 -1.582 -1.25766 0
M  V30 563 C 57.7368 -0.268482 -1.93143 0
M  V30 564 O 57.0068 0.711833 -1.8251 0
M  V30 565 H 55.5868 -0.582873 -0.467191 0
M  V30 566 H 58.2488 -1.85865 -0.586525 0
M  V30 567 H 57.3448 -2.37563 -2.02412 0
M  V30 568 N 57.6459 0.756429 -1.3826 0
M  V30 569 C 59.0619 1.0591 -1.19395 0
M  V30 570 C 59.2619 2.01459 -0.0406567 0
M  V30 571 O 58.3179 2.44909 0.614467 0
M  V30 572 C 59.6309 1.64191 -2.51916 0
M  V30 573 C 61.1789 1.76376 -2.58574 0
M  V30 574 C 61.6539 2.38069 -3.91264 0
M  V30 575 N 63.1449 2.45503 -3.92788 0
M  V30 576 C 63.8799 2.94126 -4.92217 0
M  V30 577 N 63.3759 3.42805 -6.02043 0
M  V30 578 N 65.1689 2.9314 -4.7961 0
M  V30 579 H 57.3199 0.122313 -2.12048 0
M  V30 580 H 59.5829 0.116892 -0.940766 0
M  V30 581 H 59.2889 1.01451 -3.3675 0
M  V30 582 H 59.1629 2.6329 -2.70108 0
M  V30 583 H 61.5499 2.38244 -1.74137 0
M  V30 584 H 61.6309 0.759894 -2.44252 0
M  V30 585 H 61.2749 1.76835 -4.76121 0
M  V30 586 H 61.2049 3.39091 -4.02895 0
M  V30 587 H 63.6959 2.1107 -3.13461 0
M  V30 588 H 64.0089 3.78354 -6.73846 0
M  V30 589 H 62.3539 3.4087 -6.05667 0
M  V30 590 H 65.5449 2.54419 -3.92923 0
M  V30 591 H 65.7179 3.30721 -5.5725 0
M  V30 592 N 59.124 1.23083 0.984299 0
M  V30 593 C 60.352 1.08714 1.76037 0
M  V30 594 C 60.767 -0.361691 1.85303 0
M  V30 595 O 60.124 -1.25034 1.32939 0
M  V30 596 C 60.175 1.70206 3.18923 0
M  V30 597 O 59.896 3.09423 3.10144 0
M  V30 598 C 61.397 1.61227 4.12941 0
M  V30 599 H 58.617 0.380664 0.552572 0
M  V30 600 H 61.161 1.62853 1.23689 0
M  V30 601 H 59.316 1.20109 3.6831 0
M  V30 602 H 59.73 3.39188 4.00065 0
M  V30 603 H 61.204 2.08962 5.10919 0
M  V30 604 H 61.681 0.570375 4.35481 0
M  V30 605 H 62.287 2.10671 3.69456 0
M  V30 606 N 60.6021 -1.18246 1.0419 0
M  V30 607 C 61.8301 -1.92195 0.766072 0
M  V30 608 C 62.2451 -1.76247 -0.676933 0
M  V30 609 O 61.6021 -1.09293 -1.46155 0
M  V30 610 C 61.6531 -3.43568 1.12442 0
M  V30 611 O 61.3741 -3.59015 2.51078 0
M  V30 612 C 62.8751 -4.34613 0.873275 0
M  V30 613 H 60.0951 -0.610114 0.279288 0
M  V30 614 H 62.6391 -1.50007 1.38989 0
M  V30 615 H 60.7941 -3.8354 0.545542 0
M  V30 616 H 61.2081 -4.5273 2.64831 0
M  V30 617 H 62.6821 -5.39374 1.17385 0
M  V30 618 H 63.1591 -4.38781 -0.191909 0
M  V30 619 H 63.7651 -4.00341 1.43551 0
M  V30 620 N 62.0802 -0.821533 -1.34494 0
M  V30 621 C 62.9902 -0.244355 -2.33324 0
M  V30 622 C 64.0062 0.620527 -1.62559 0
M  V30 623 O 65.1822 0.528754 -1.94335 0
M  V30 624 C 62.2472 0.585368 -3.41723 0
M  V30 625 C 61.3082 -0.301752 -4.28238 0
M  V30 626 C 60.5412 0.488466 -5.3146 0
M  V30 627 O 60.7642 1.72186 -5.4379 0
M  V30 628 O 59.6982 -0.12848 -6.01763 0
M  V30 629 H 63.5242 -1.06231 -2.84515 0
M  V30 630 H 61.1092 -0.583645 -1.37528 0
M  V30 631 H 62.9912 1.05747 -4.07916 0
M  V30 632 H 61.6662 1.38068 -2.92778 0
M  V30 633 H 60.5732 -0.821315 -3.64973 0
M  V30 634 H 61.9062 -1.06138 -4.8062 0
M  V30 635 N 63.5583 1.46682 -0.576371 0
M  V30 636 C 64.7863 2.06798 -0.0649635 0
M  V30 637 C 65.2013 1.42612 1.23723 0
M  V30 638 O 64.5583 0.529203 1.74659 0
M  V30 639 C 64.6093 3.6132 0.114202 0
M  V30 640 O 64.3303 4.23104 -1.13644 0
M  V30 641 C 65.8313 4.38349 0.66069 0
M  V30 642 H 63.0513 0.668778 -0.0545616 0
M  V30 643 H 65.5953 1.88404 -0.795237 0
M  V30 644 H 63.7503 3.79162 0.794673 0
M  V30 645 H 64.1643 5.15894 -0.946253 0
M  V30 646 H 65.6383 5.47081 0.73526 0
M  V30 647 H 66.1153 4.05953 1.67627 0
M  V30 648 H 66.7213 4.25297 0.0152951 0
M  V30 649 N 65.0364 0.313813 1.54444 0
M  V30 650 C 66.2844 -0.291099 1.99993 0
M  V30 651 C 66.6054 -1.53418 1.20366 0
M  V30 652 O 65.8754 -1.93544 0.302927 0
M  V30 653 H 64.4554 -0.110552 0.738774 0
M  V30 654 H 67.1174 0.428106 1.9014 0
M  V30 655 H 66.2134 -0.554268 3.07139 0
M  V30 656 N 66.5145 -1.57545 0.0417849 0
M  V30 657 C 67.7615 -1.92317 -0.634082 0
M  V30 658 C 68.0895 -0.919334 -1.71402 0
M  V30 659 O 67.3445 0.0698253 -1.95575 0
M  V30 660 C 67.6435 -3.33794 -1.27735 0
M  V30 661 C 67.3095 -4.49716 -0.326543 0
M  V30 662 C 65.9715 -4.81156 -0.0648814 0
M  V30 663 C 68.3235 -5.20182 0.325623 0
M  V30 664 C 65.6515 -5.80414 0.856539 0
M  V30 665 C 68.0035 -6.20424 1.23518 0
M  V30 666 C 66.6675 -6.50298 1.5056 0
M  V30 667 H 65.9375 -0.703736 -0.232027 0
M  V30 668 H 68.5845 -1.91205 0.106259 0
M  V30 669 H 66.8895 -3.31228 -2.09274 0
M  V30 670 H 68.5865 -3.57975 -1.80707 0
M  V30 671 H 65.1765 -4.25176 -0.540665 0
M  V30 672 H 69.3605 -4.96112 0.136546 0
M  V30 673 H 64.6165 -6.019 1.07363 0
M  V30 674 H 68.7905 -6.74141 1.74664 0
M  V30 675 H 66.4175 -7.27025 2.22123 0
M  V30 676 N 67.9926 0.231505 -1.5589 0
M  V30 677 C 68.9406 1.30649 -1.92441 0
M  V30 678 C 69.9346 1.49037 -0.805254 0
M  V30 679 O 71.1406 1.50329 -0.990007 0
M  V30 680 H 67.5156 0.437812 -0.611412 0
M  V30 681 H 69.4866 0.970973 -2.82161 0
M  V30 682 C 68.2356 2.65179 -2.24889 0
M  V30 683 H 67.5586 2.51835 -3.10514 0
M  V30 684 H 68.9986 3.39234 -2.54355 0
M  V30 685 C 67.4576 3.19439 -1.07054 0
M  V30 686 O 67.9876 4.00371 -0.326499 0
M  V30 687 N 66.1936 2.77675 -0.85703 0
M  V30 688 H 65.7406 2.11969 -1.46379 0
M  V30 689 H 65.6986 3.14321 -0.0703223 0
M  V30 690 N 69.4707 1.49531 0.497807 0
M  V30 691 C 70.7197 1.58426 1.24837 0
M  V30 692 C 71.0327 0.277643 1.93619 0
M  V30 693 O 72.2387 0.24517 2.70391 0
M  V30 694 C 70.6947 2.79538 2.26686 0
M  V30 695 C 70.3027 4.16971 1.63828 0
M  V30 696 C 72.0467 2.97764 3.0255 0
M  V30 697 C 69.9537 5.29301 2.63807 0
M  V30 698 H 68.8837 0.58989 0.469623 0
M  V30 699 H 71.5347 1.75923 0.521857 0
M  V30 700 H 69.9167 2.55542 3.02514 0
M  V30 701 H 71.0907 4.51116 0.939711 0
M  V30 702 H 69.4057 4.04129 1.00342 0
M  V30 703 H 72.0027 3.78856 3.77323 0
M  V30 704 H 72.3457 2.08448 3.60354 0
M  V30 705 H 72.8787 3.21815 2.33838 0
M  V30 706 H 69.6177 6.20687 2.10779 0
M  V30 707 H 69.1377 4.99606 3.31894 0
M  V30 708 H 70.8167 5.58768 3.2617 0
M  V30 709 N 70.9488 -0.749086 1.3866 0
M  V30 710 C 72.1958 -1.50833 1.35114 0
M  V30 711 C 72.5238 -1.94415 -0.0574049 0
M  V30 712 O 71.7788 -1.66065 -1.03541 0
M  V30 713 C 72.0778 -2.7712 2.25697 0
M  V30 714 C 71.7438 -2.52477 3.73585 0
M  V30 715 C 70.4058 -2.45466 4.13884 0
M  V30 716 C 72.7578 -2.31066 4.67181 0
M  V30 717 C 70.0858 -2.15064 5.45861 0
M  V30 718 C 72.4378 -2.02183 5.9942 0
M  V30 719 C 71.1018 -1.93631 6.38798 0
M  V30 720 H 70.3718 -0.551936 0.494416 0
M  V30 721 H 73.0188 -0.860979 1.71054 0
M  V30 722 H 71.3238 -3.46528 1.82827 0
M  V30 723 H 73.0208 -3.35096 2.20254 0
M  V30 724 H 69.6108 -2.58807 3.41638 0
M  V30 725 H 73.7948 -2.35459 4.3689 0
M  V30 726 H 69.0508 -2.06954 5.75308 0
M  V30 727 H 73.2248 -1.8462 6.71482 0
M  V30 728 H 70.8518 -1.69839 7.40985 0
M  V30 729 N 72.4269 -1.23603 -0.977757 0
M  V30 730 C 73.6549 -1.09646 -1.75458 0
M  V30 731 C 74.0699 0.351859 -1.85492 0
M  V30 732 O 73.4269 1.24327 -1.336 0
M  V30 733 C 73.4779 -1.71895 -3.18016 0
M  V30 734 O 73.1989 -3.11063 -3.08498 0
M  V30 735 C 74.6999 -1.63415 -4.12081 0
M  V30 736 H 71.9199 -0.38359 -0.550545 0
M  V30 737 H 74.4639 -1.63507 -1.22824 0
M  V30 738 H 72.6189 -1.22061 -3.67668 0
M  V30 739 H 73.0329 -3.41305 -3.9826 0
M  V30 740 H 74.5069 -2.11669 -5.09804 0
M  V30 741 H 74.9839 -0.593462 -4.35172 0
M  V30 742 H 75.5899 -2.12628 -3.68334 0
M  V30 743 N 73.905 1.17692 -1.04816 0
M  V30 744 C 74.837 2.21103 -0.603822 0
M  V30 745 C 75.85 1.59411 0.33046 0
M  V30 746 O 77.039 1.7807 0.12379 0
M  V30 747 C 74.139 3.38623 0.136898 0
M  V30 748 C 73.312 4.29888 -0.807137 0
M  V30 749 C 72.371 5.26088 -0.10836 0
M  V30 750 O 71.397 5.64353 -0.741232 0
M  V30 751 N 72.599 5.68882 1.15558 0
M  V30 752 H 75.364 2.59848 -1.49329 0
M  V30 753 H 72.925 1.32553 -0.929587 0
M  V30 754 H 74.917 4.00009 0.614401 0
M  V30 755 H 73.487 2.98508 0.927993 0
M  V30 756 H 72.707 3.65993 -1.46434 0
M  V30 757 H 73.995 4.87759 -1.44807 0
M  V30 758 H 73.393 5.39861 1.69015 0
M  V30 759 H 71.95 6.32429 1.57722 0
M  V30 760 N 75.3831 0.828654 1.34056 0
M  V30 761 C 76.3331 0.226828 2.26869 0
M  V30 762 C 77.3171 -0.612243 1.48796 0
M  V30 763 O 78.5091 -0.465884 1.70759 0
M  V30 764 C 75.6381 -0.605654 3.37915 0
M  V30 765 C 74.7241 0.244361 4.23395 0
M  V30 766 N 75.1151 1.31815 4.88322 0
M  V30 767 C 73.4131 0.0296616 4.4599 0
M  V30 768 C 74.1141 1.83895 5.51867 0
M  V30 769 N 73.0901 1.14196 5.3147 0
M  V30 770 H 76.8921 1.04811 2.74576 0
M  V30 771 H 74.4061 0.67205 1.47842 0
M  V30 772 H 76.4031 -1.05302 4.03382 0
M  V30 773 H 75.0631 -1.42504 2.91758 0
M  V30 774 H 76.0741 1.70099 4.8917 0
M  V30 775 H 72.7511 -0.757097 4.10578 0
M  V30 776 H 74.1411 2.7376 6.136 0
M  V30 777 N 76.8612 -1.46375 0.584142 0
M  V30 778 C 78.1382 -1.956 0.0033388 0
M  V30 779 C 78.5182 -1.52679 -1.45782 0
M  V30 780 O 77.8662 -0.77816 -2.14842 0
M  V30 781 C 78.0762 -3.48551 0.176891 0
M  V30 782 C 79.4242 -4.24576 0.0454609 0
M  V30 783 O 80.4482 -3.56043 0.105801 0
M  V30 784 O 79.3072 -5.46427 -0.0890376 0
M  V30 785 H 76.4012 -0.825547 -0.0490066 0
M  V30 786 H 78.9472 -1.56652 0.65256 0
M  V30 787 H 77.7192 -3.72683 1.1926 0
M  V30 788 H 77.3422 -3.94332 -0.508695 0
M  V30 789 N 78.3393 -0.321999 -1.54275 0
M  V30 790 C 79.2893 0.560185 -2.21011 0
M  V30 791 C 80.2733 1.08283 -1.19011 0
M  V30 792 O 81.4653 1.02011 -1.44647 0
M  V30 793 C 78.5943 1.72137 -2.97025 0
M  V30 794 C 77.6803 1.21369 -4.06363 0
M  V30 795 N 78.0713 0.425566 -5.04007 0
M  V30 796 C 76.3693 1.49255 -4.20284 0
M  V30 797 C 77.0703 0.152601 -5.815 0
M  V30 798 N 76.0463 0.738294 -5.38563 0
M  V30 799 H 79.8483 -0.049265 -2.93859 0
M  V30 800 H 77.3623 -0.127779 -1.61897 0
M  V30 801 H 79.3593 2.36512 -3.43319 0
M  V30 802 H 78.0193 2.33431 -2.25699 0
M  V30 803 H 79.0303 0.068551 -5.17855 0
M  V30 804 H 75.7073 2.11145 -3.60172 0
M  V30 805 H 77.0973 -0.481764 -6.70171 0
M  V30 806 N 79.8174 1.5752 -0.0501392 0
M  V30 807 C 81.0644 1.9265 0.623874 0
M  V30 808 C 81.3924 0.928411 1.70912 0
M  V30 809 O 80.6474 -0.0594525 1.9561 0
M  V30 810 C 80.9464 3.34467 1.25963 0
M  V30 811 C 80.6124 4.49883 0.302689 0
M  V30 812 C 79.2744 4.81184 0.0393636 0
M  V30 813 C 81.6264 5.20002 -0.353205 0
M  V30 814 C 78.9544 5.79951 -0.887308 0
M  V30 815 C 81.3064 6.1976 -1.26806 0
M  V30 816 C 79.9704 6.49491 -1.54007 0
M  V30 817 H 79.2404 0.704957 0.228292 0
M  V30 818 H 81.8874 1.91146 -0.116398 0
M  V30 819 H 80.1924 3.32333 2.07514 0
M  V30 820 H 81.8894 3.58928 1.78806 0
M  V30 821 H 78.4794 4.25457 0.518109 0
M  V30 822 H 82.6634 4.96033 -0.162854 0
M  V30 823 H 77.9194 6.01322 -1.10553 0
M  V30 824 H 82.0934 6.73205 -1.78236 0
M  V30 825 H 79.7204 7.25837 -2.25976 0
M  V30 826 N 81.2955 -0.223234 1.56011 0
M  V30 827 C 82.2585 -1.26014 1.9145 0
M  V30 828 C 83.2585 -1.3989 0.792937 0
M  V30 829 O 84.4485 -1.38184 1.0607 0
M  V30 830 C 81.5805 -2.63422 2.16383 0
M  V30 831 H 82.7735 -0.95796 2.84189 0
M  V30 832 H 80.3265 -0.463576 1.49267 0
M  V30 833 H 81.0615 -2.98741 1.2619 0
M  V30 834 H 80.8465 -2.54728 2.98088 0
M  V30 835 H 82.3365 -3.38249 2.44903 0
M  V30 836 N 82.7736 -1.49793 -0.48987 0
M  V30 837 C 83.9986 -1.63836 -1.27172 0
M  V30 838 C 84.4236 -0.31402 -1.8546 0
M  V30 839 O 83.7816 0.719803 -1.66399 0
M  V30 840 C 83.8296 -2.71797 -2.36978 0
M  V30 841 O 82.9336 -2.31744 -3.41128 0
M  V30 842 H 82.2746 -0.547997 -0.37496 0
M  V30 843 H 84.8046 -1.96053 -0.585191 0
M  V30 844 H 84.8146 -2.94305 -2.82575 0
M  V30 845 H 83.4896 -3.67923 -1.93921 0
M  V30 846 H 82.0666 -2.1961 -3.01373 0
M  V30 847 N 84.2517 0.741722 -1.39055 0
M  V30 848 C 85.4917 1.51385 -1.37338 0
M  V30 849 C 85.8557 1.91972 0.0330513 0
M  V30 850 O 87.0567 2.68229 0.175174 0
M  V30 851 C 85.3277 2.72481 -2.31276 0
M  V30 852 S 86.8867 3.62211 -2.47687 0
M  V30 853 H 83.7047 0.517906 -0.487129 0
M  V30 854 H 86.3067 0.86969 -1.7509 0
M  V30 855 H 85.0107 2.40793 -3.32336 0
M  V30 856 H 84.5417 3.41832 -1.94716 0
M  V30 857 H 86.5567 4.65812 -1.70978 0
M  V30 858 N 85.7298 1.2412 0.971189 0
M  V30 859 C 86.9758 1.08041 1.71625 0
M  V30 860 C 87.3088 -0.380407 1.90438 0
M  V30 861 O 86.5838 -1.28127 1.46334 0
M  V30 862 C 86.8668 1.81682 3.10908 0
M  V30 863 C 86.7198 3.35493 2.99608 0
M  V30 864 C 88.0388 1.58671 4.10501 0
M  V30 865 H 85.1578 0.39388 0.622919 0
M  V30 866 H 87.7998 1.52743 1.13003 0
M  V30 867 H 85.9498 1.43684 3.60953 0
M  V30 868 H 87.6218 3.83068 2.57015 0
M  V30 869 H 85.8648 3.64052 2.35899 0
M  V30 870 H 86.5358 3.82217 3.98264 0
M  V30 871 H 89.0118 1.91719 3.69301 0
M  V30 872 H 87.8878 2.1266 5.06031 0
M  V30 873 H 88.1488 0.524161 4.38982 0
M  V30 874 N 87.2079 -1.17134 1.05439 0
M  V30 875 C 88.1179 -2.24878 0.668365 0
M  V30 876 C 89.1339 -1.71186 -0.311687 0
M  V30 877 O 90.3099 -2.00738 -0.163161 0
M  V30 878 C 87.3749 -3.46662 0.051648 0
M  V30 879 C 86.4359 -4.15429 1.08246 0
M  V30 880 C 85.6689 -5.31399 0.495082 0
M  V30 881 O 85.8919 -5.66153 -0.694743 0
M  V30 882 O 84.8259 -5.89187 1.23056 0
M  V30 883 H 88.6519 -2.60189 1.56637 0
M  V30 884 H 86.2369 -1.24482 0.826104 0
M  V30 885 H 88.1189 -4.20394 -0.290966 0
M  V30 886 H 86.7939 -3.13142 -0.819971 0
M  V30 887 H 85.7009 -3.43704 1.47711 0
M  V30 888 H 87.0339 -4.52982 1.92532 0
M  V30 889 N 88.686 -0.835752 -1.33615 0
M  V30 890 C 89.963 -0.352017 -1.92406 0
M  V30 891 C 90.343 1.16225 -1.76224 0
M  V30 892 O 89.691 1.97526 -1.14873 0
M  V30 893 C 89.901 -0.795485 -3.39813 0
M  V30 894 C 91.249 -0.801703 -4.16963 0
M  V30 895 O 92.273 -0.738889 -3.48452 0
M  V30 896 O 91.132 -0.886607 -5.3926 0
M  V30 897 H 88.226 -0.0989641 -0.821057 0
M  V30 898 H 90.772 -0.921397 -1.42507 0
M  V30 899 H 89.544 -1.83795 -3.45449 0
M  V30 900 H 89.167 -0.202505 -3.97084 0
M  V30 901 N 90.1641 1.46063 -0.591896 0
M  V30 902 C 91.4121 2.01938 -0.0808391 0
M  V30 903 C 91.7331 1.46475 1.28725 0
M  V30 904 O 91.0031 0.652944 1.84698 0
M  V30 905 H 89.5831 0.746516 -0.0268938 0
M  V30 906 H 92.2451 1.79055 -0.769752 0
M  V30 907 H 91.3411 3.12094 -0.0187578 0
M  V30 908 N 91.6422 0.330177 1.54103 0
M  V30 909 C 92.8892 -0.270405 2.00686 0
M  V30 910 C 93.2172 -1.51621 1.21825 0
M  V30 911 O 92.4722 -1.93536 0.29025 0
M  V30 912 C 92.7712 -0.643134 3.51566 0
M  V30 913 C 92.4372 0.504251 4.48072 0
M  V30 914 C 91.0992 0.819163 4.74176 0
M  V30 915 C 93.4512 1.27465 5.05373 0
M  V30 916 C 90.7792 1.90708 5.5484 0
M  V30 917 C 93.1312 2.35271 5.87223 0
M  V30 918 C 91.7952 2.67336 6.11627 0
M  V30 919 H 91.0652 -0.0989482 0.734364 0
M  V30 920 H 93.7122 0.455324 1.86008 0
M  V30 921 H 92.0172 -1.44938 3.64006 0
M  V30 922 H 93.7142 -1.11949 3.85056 0
M  V30 923 H 90.3042 0.248733 4.27878 0
M  V30 924 H 94.4882 1.04462 4.85182 0
M  V30 925 H 89.7442 2.15991 5.71977 0
M  V30 926 H 93.9182 2.95405 6.30641 0
M  V30 927 H 91.5452 3.51763 6.73919 0
M  V30 928 N 93.1203 -1.57491 0.0584922 0
M  V30 929 C 94.0303 -2.15448 -0.928414 0
M  V30 930 C 95.0463 -1.11416 -1.3365 0
M  V30 931 O 96.2223 -1.4362 -1.41193 0
M  V30 932 C 93.2873 -2.69393 -2.18239 0
M  V30 933 C 92.3483 -3.88249 -1.83196 0
M  V30 934 C 91.5813 -4.39613 -3.02616 0
M  V30 935 O 91.8043 -3.90023 -4.16219 0
M  V30 936 O 90.7383 -5.31111 -2.83204 0
M  V30 937 H 94.5643 -3.00112 -0.465483 0
M  V30 938 H 92.1493 -1.48499 -0.163826 0
M  V30 939 H 94.0313 -3.04026 -2.91798 0
M  V30 940 H 92.7063 -1.87796 -2.63656 0
M  V30 941 H 91.6133 -3.58492 -1.06931 0
M  V30 942 H 92.9463 -4.71098 -1.42573 0
M  V30 943 N 94.5984 0.214957 -1.56127 0
M  V30 944 C 95.8464 0.936518 -1.79091 0
M  V30 945 C 96.1674 1.84606 -0.628148 0
M  V30 946 O 95.4374 1.92664 0.35462 0
M  V30 947 H 94.0174 0.3488 -0.660566 0
M  V30 948 H 96.6794 0.22523 -1.93594 0
M  V30 949 H 95.7754 1.53943 -2.71492 0
M  V30 950 N 96.0765 1.50051 0.48192 0
M  V30 951 C 97.3535 1.51009 1.2432 0
M  V30 952 C 97.7335 0.248587 2.09631 0
M  V30 953 O 97.0815 -0.768409 2.15192 0
M  V30 954 C 97.2915 2.79981 2.08355 0
M  V30 955 C 98.6395 3.3022 2.66908 0
M  V30 956 O 99.6635 2.81228 2.18607 0
M  V30 957 O 98.5225 4.15595 3.54884 0
M  V30 958 H 95.6165 0.605239 0.563573 0
M  V30 959 H 98.1625 1.62332 0.494627 0
M  V30 960 H 96.9345 3.63275 1.45419 0
M  V30 961 H 96.5575 2.7161 2.90368 0
M  V30 962 N 97.5546 -0.734337 1.39446 0
M  V30 963 C 98.5016 -1.84835 1.38219 0
M  V30 964 C 99.4716 -1.64331 0.24179 0
M  V30 965 O 100.657 -1.85728 0.437002 0
M  V30 966 C 97.7966 -3.22355 1.23212 0
M  V30 967 C 96.9096 -3.5456 2.46801 0
M  V30 968 C 96.0446 -4.81485 2.24377 0
M  V30 969 C 95.0836 -5.06536 3.43639 0
M  V30 970 N 94.2206 -6.24665 3.20528 0
M  V30 971 H 99.0606 -1.85219 2.33448 0
M  V30 972 H 96.5976 -0.905039 1.15963 0
M  V30 973 H 98.5556 -4.0174 1.12522 0
M  V30 974 H 97.1856 -3.21248 0.316121 0
M  V30 975 H 96.2376 -2.69872 2.68092 0
M  V30 976 H 97.5496 -3.6899 3.3563 0
M  V30 977 H 96.7036 -5.68852 2.10933 0
M  V30 978 H 95.4426 -4.6923 1.32944 0
M  V30 979 H 94.4476 -4.17632 3.5758 0
M  V30 980 H 95.6726 -5.20676 4.35974 0
M  V30 981 H 93.6186 -6.13696 2.3176 0
M  V30 982 H 93.5356 -6.39685 4.02913 0
M  V30 983 H 94.8036 -7.14868 3.10779 0
M  V30 984 N 99.0327 -1.24633 -0.964593 0
M  V30 985 C 100.261 -1.11501 -1.74285 0
M  V30 986 C 100.676 0.332165 -1.85855 0
M  V30 987 O 100.033 1.22903 -1.34911 0
M  V30 988 C 100.084 -1.75258 -3.16175 0
M  V30 989 O 99.8047 -3.14318 -3.05182 0
M  V30 990 C 101.306 -1.67776 -4.10324 0
M  V30 991 H 98.5257 -0.389407 -0.546446 0
M  V30 992 H 101.07 -1.64801 -1.21083 0
M  V30 993 H 99.2247 -1.25954 -3.66353 0
M  V30 994 H 99.6387 -3.4551 -3.94618 0
M  V30 995 H 101.113 -2.17064 -5.0753 0
M  V30 996 H 101.59 -0.639584 -4.34518 0
M  V30 997 H 102.196 -2.16522 -3.66058 0
M  V30 998 N 100.511 1.16574 -1.06058 0
M  V30 999 C 101.759 1.86677 -0.77434 0
M  V30 1000 C 102.08 1.81959 0.701147 0
M  V30 1001 O 101.35 1.2515 1.50713 0
M  V30 1002 H 99.9298 0.691134 -0.283449 0
M  V30 1003 H 102.592 1.41378 -1.34158 0
M  V30 1004 H 101.688 2.92181 -1.09711 0
M  V30 1005 N 101.989 0.842826 1.3317 0
M  V30 1006 C 103.237 0.439577 1.97262 0
M  V30 1007 C 103.558 -1.00548 1.67078 0
M  V30 1008 O 102.828 -1.70098 0.971779 0
M  V30 1009 H 101.408 0.159558 0.72976 0
M  V30 1010 H 104.07 1.07665 1.62463 0
M  V30 1011 H 103.166 0.574886 3.0676 0
M  V30 1012 N 103.467 -1.45747 0.599634 0
M  V30 1013 C 104.692 -2.07178 0.0960198 0
M  V30 1014 C 105.117 -1.44268 -1.207 0
M  V30 1015 O 104.475 -0.532503 -1.73303 0
M  V30 1016 C 104.523 -3.60579 -0.0385348 0
M  V30 1017 O 103.627 -3.97713 -1.0908 0
M  V30 1018 H 102.968 -0.660251 0.0704593 0
M  V30 1019 H 105.498 -1.87124 0.827385 0
M  V30 1020 H 105.508 -4.07298 -0.239304 0
M  V30 1021 H 104.183 -4.05756 0.912947 0
M  V30 1022 H 102.76 -3.62678 -0.867135 0
M  V30 1023 N 104.945 -0.338344 -1.53925 0
M  V30 1024 C 106.17 0.263987 -2.05713 0
M  V30 1025 C 106.595 1.43847 -1.21201 0
M  V30 1026 O 105.953 1.79904 -0.224535 0
M  V30 1027 C 106.001 0.662 -3.54471 0
M  V30 1028 O 105.105 1.76265 -3.72833 0
M  V30 1029 H 104.446 0.0448722 -0.662482 0
M  V30 1030 H 106.976 -0.491048 -1.9862 0
M  V30 1031 H 106.986 0.940594 -3.9701 0
M  V30 1032 H 105.661 -0.196937 -4.15433 0
M  V30 1033 H 104.238 1.48173 -3.42198 0
M  V30 1034 N 106.423 1.57458 -0.0668435 0
M  V30 1035 C 107.834 1.80776 0.466558 0
M  V30 1036 C 108.185 0.980361 1.69951 0
M  V30 1037 O 107.31 0.201441 2.1546 0
M  V30 1038 C 107.905 3.27881 0.85321 0
M  V30 1039 C 106.464 3.52062 1.3315 0
M  V30 1040 C 105.611 2.75513 0.314264 0
M  V30 1041 H 108.562 1.5598 -0.292588 0
M  V30 1042 H 108.583 3.39659 1.715 0
M  V30 1043 H 108.095 3.88075 -0.0443439 0
M  V30 1044 H 106.196 2.97167 2.24772 0
M  V30 1045 H 106.309 4.60762 1.31285 0
M  V30 1046 H 104.673 2.42123 0.790492 0
M  V30 1047 H 105.456 3.38442 -0.575477 0
M  V30 1048 N 107.901 -0.206675 1.56239 0
M  V30 1049 C 108.811 -1.27686 1.96808 0
M  V30 1050 C 109.827 -1.50455 0.874035 0
M  V30 1051 O 111.003 -1.63295 1.17884 0
M  V30 1052 C 108.068 -2.60358 2.28942 0
M  V30 1053 C 107.129 -2.45762 3.51994 0
M  V30 1054 C 106.362 -3.72108 3.82585 0
M  V30 1055 O 106.585 -4.75776 3.14631 0
M  V30 1056 O 105.519 -3.6833 4.76043 0
M  V30 1057 H 109.345 -0.962593 2.88041 0
M  V30 1058 H 106.93 -0.410746 1.43643 0
M  V30 1059 H 108.812 -3.38687 2.50737 0
M  V30 1060 H 107.487 -2.91435 1.4088 0
M  V30 1061 H 106.394 -1.65584 3.35459 0
M  V30 1062 H 107.727 -2.19621 4.40486 0
M  V30 1063 N 109.379 -1.50304 -0.473955 0
M  V30 1064 C 110.342 -1.6841 -1.55469 0
M  V30 1065 C 111.342 -0.554905 -1.50922 0
M  V30 1066 O 112.532 -0.821882 -1.53593 0
M  V30 1067 C 109.664 -1.70667 -2.95102 0
M  V30 1068 H 110.857 -2.64828 -1.40733 0
M  V30 1069 H 108.41 -1.39742 -0.700132 0
M  V30 1070 H 109.145 -0.75932 -3.15285 0
M  V30 1071 H 108.93 -2.52698 -2.9981 0
M  V30 1072 H 110.42 -1.8664 -3.73571 0
M  V30 1073 N 110.857 0.726932 -1.39834 0
M  V30 1074 C 111.787 1.85405 -1.41941 0
M  V30 1075 C 112.768 1.67751 -0.281728 0
M  V30 1076 O 113.953 1.8795 -0.488717 0
M  V30 1077 C 111.083 3.23243 -1.2701 0
M  V30 1078 C 110.037 3.55549 -2.38262 0
M  V30 1079 C 109.363 4.9241 -2.08415 0
M  V30 1080 C 110.663 3.577 -3.80589 0
M  V30 1081 H 112.357 1.83899 -2.36266 0
M  V30 1082 H 109.903 0.883349 -1.13723 0
M  V30 1083 H 111.856 4.01775 -1.27103 0
M  V30 1084 H 110.58 3.25296 -0.291564 0
M  V30 1085 H 109.239 2.79351 -2.37399 0
M  V30 1086 H 108.887 4.91052 -1.0898 0
M  V30 1087 H 108.587 5.14992 -2.82943 0
M  V30 1088 H 110.111 5.73289 -2.10171 0
M  V30 1089 H 111.525 4.26293 -3.83337 0
M  V30 1090 H 109.922 3.91804 -4.54543 0
M  V30 1091 H 110.992 2.57328 -4.10987 0
M  V30 1092 N 112.336 1.25143 0.95797 0
M  V30 1093 C 113.286 1.01924 2.0395 0
M  V30 1094 C 114.27 -0.0427175 1.60843 0
M  V30 1095 O 115.462 0.17221 1.7616 0
M  V30 1096 C 112.591 0.636373 3.3735 0
M  V30 1097 C 111.677 1.73492 3.8699 0
M  V30 1098 N 112.068 2.96945 4.0946 0
M  V30 1099 C 110.366 1.61467 4.15746 0
M  V30 1100 C 111.067 3.68228 4.50315 0
M  V30 1101 N 110.043 2.95833 4.56053 0
M  V30 1102 H 113.845 1.95653 2.19311 0
M  V30 1103 H 111.359 1.15413 1.14253 0
M  V30 1104 H 113.356 0.451233 4.14451 0
M  V30 1105 H 112.016 -0.293621 3.2337 0
M  V30 1106 H 113.027 3.33025 3.96629 0
M  V30 1107 H 109.704 0.753394 4.10646 0
M  V30 1108 H 111.094 4.74178 4.76031 0
M  V30 1109 N 113.814 -1.1601 1.06675 0
M  V30 1110 C 115.23 -1.38622 0.790948 0
M  V30 1111 C 115.43 -1.92109 -0.607965 0
M  V30 1112 O 114.486 -2.12239 -1.36787 0
M  V30 1113 C 115.799 -2.36347 1.85905 0
M  V30 1114 C 117.347 -2.50023 1.88301 0
M  V30 1115 C 117.822 -3.51033 2.94176 0
M  V30 1116 N 119.313 -3.58563 2.93235 0
M  V30 1117 C 120.048 -4.36521 3.71803 0
M  V30 1118 N 119.544 -5.17869 4.602 0
M  V30 1119 N 121.337 -4.31541 3.60178 0
M  V30 1120 H 113.488 -0.796294 1.96908 0
M  V30 1121 H 115.751 -0.412597 0.853503 0
M  V30 1122 H 115.457 -2.04147 2.86386 0
M  V30 1123 H 115.331 -3.36042 1.71334 0
M  V30 1124 H 117.718 -2.81524 0.884769 0
M  V30 1125 H 117.799 -1.5035 2.06951 0
M  V30 1126 H 117.443 -3.20268 3.94196 0
M  V30 1127 H 117.373 -4.50445 2.72776 0
M  V30 1128 H 119.864 -3.00496 2.29152 0
M  V30 1129 H 120.177 -5.74578 5.16797 0
M  V30 1130 H 118.522 -5.17199 4.64253 0
M  V30 1131 H 121.713 -3.67051 2.90502 0
M  V30 1132 H 121.886 -4.9205 4.21653 0
M  V30 1133 N 115.292 -0.849877 -1.32721 0
M  V30 1134 C 116.703 -0.506188 -1.79707 0
M  V30 1135 C 117.054 0.975627 -1.70223 0
M  V30 1136 O 116.179 1.76078 -1.25799 0
M  V30 1137 C 116.774 -0.912044 -3.26293 0
M  V30 1138 C 115.333 -0.620326 -3.71253 0
M  V30 1139 C 114.48 -1.11439 -2.53922 0
M  V30 1140 H 117.431 -1.03754 -1.20087 0
M  V30 1141 H 117.452 -0.226493 -3.79825 0
M  V30 1142 H 116.964 -1.99057 -3.33164 0
M  V30 1143 H 115.065 0.447674 -3.69901 0
M  V30 1144 H 115.178 -1.18327 -4.64258 0
M  V30 1145 H 113.542 -0.534834 -2.49021 0
M  V30 1146 H 114.325 -2.19992 -2.6355 0
M  V30 1147 N 116.77 1.45427 -0.607355 0
M  V30 1148 C 118 2.06314 -0.108656 0
M  V30 1149 C 118.408 1.45269 1.21217 0
M  V30 1150 O 117.751 0.561115 1.74921 0
M  V30 1151 C 117.813 3.59345 0.105618 0
M  V30 1152 C 117.477 4.42723 -1.13337 0
M  V30 1153 C 118.474 4.77715 -2.05145 0
M  V30 1154 C 116.159 4.83478 -1.36213 0
M  V30 1155 C 118.153 5.52317 -3.18158 0
M  V30 1156 C 115.84 5.57835 -2.49527 0
M  V30 1157 C 116.838 5.92171 -3.40327 0
M  V30 1158 O 116.526 6.65019 -4.51669 0
M  V30 1159 H 116.258 0.672782 -0.0658842 0
M  V30 1160 H 118.812 1.87664 -0.834945 0
M  V30 1161 H 117.042 3.76394 0.886796 0
M  V30 1162 H 118.731 4.02076 0.555886 0
M  V30 1163 H 119.497 4.46787 -1.88697 0
M  V30 1164 H 115.376 4.56188 -0.664362 0
M  V30 1165 H 118.92 5.79036 -3.89054 0
M  V30 1166 H 114.817 5.88177 -2.65928 0
M  V30 1167 H 115.585 6.83469 -4.50348 0
M  V30 1168 N 118.248 0.346503 1.53744 0
M  V30 1169 C 119.496 -0.248612 2.00565 0
M  V30 1170 C 119.817 -1.5083 1.23593 0
M  V30 1171 O 119.087 -1.92858 0.343912 0
M  V30 1172 H 117.667 -0.0948564 0.740953 0
M  V30 1173 H 120.329 0.468341 1.89189 0
M  V30 1174 H 119.425 -0.488994 3.08245 0
M  V30 1175 N 119.726 -1.57421 0.075193 0
M  V30 1176 C 120.966 -1.95495 -0.596757 0
M  V30 1177 C 121.33 -0.954886 -1.66571 0
M  V30 1178 O 122.531 -1.22341 -2.39345 0
M  V30 1179 C 120.802 -3.382 -1.15566 0
M  V30 1180 S 122.361 -3.98254 -1.84226 0
M  V30 1181 H 119.179 -0.683649 -0.195307 0
M  V30 1182 H 121.781 -1.94925 0.149859 0
M  V30 1183 H 120.485 -4.08766 -0.36588 0
M  V30 1184 H 120.016 -3.42321 -1.93856 0
M  V30 1185 H 122.031 -3.85435 -3.12497 0
M  V30 1186 N 121.204 0.198386 -1.56346 0
M  V30 1187 C 122.481 0.944982 -1.71258 0
M  V30 1188 C 122.861 2.0151 -0.629048 0
M  V30 1189 O 122.209 2.25639 0.360473 0
M  V30 1190 C 122.419 1.5344 -3.1346 0
M  V30 1191 C 123.767 2.01778 -3.73591 0
M  V30 1192 O 124.791 1.63288 -3.16568 0
M  V30 1193 O 123.65 2.72594 -4.73661 0
M  V30 1194 H 120.744 0.442939 -0.69838 0
M  V30 1195 H 123.29 0.188342 -1.68652 0
M  V30 1196 H 122.062 0.762869 -3.83792 0
M  V30 1197 H 121.685 2.35596 -3.20282 0
M  V30 1198 N 122.682 1.50554 0.465978 0
M  V30 1199 C 123.928 1.62038 1.21949 0
M  V30 1200 C 124.261 0.322116 1.9151 0
M  V30 1201 O 123.536 -0.676723 1.82348 0
M  V30 1202 C 123.819 2.80421 2.25912 0
M  V30 1203 C 123.672 4.20144 1.60622 0
M  V30 1204 C 124.991 2.94354 3.27176 0
M  V30 1205 H 122.11 0.589752 0.441998 0
M  V30 1206 H 124.752 1.82956 0.51257 0
M  V30 1207 H 122.902 2.62717 2.86203 0
M  V30 1208 H 124.574 4.49449 1.03889 0
M  V30 1209 H 122.817 4.24165 0.909211 0
M  V30 1210 H 123.488 4.98914 2.36196 0
M  V30 1211 H 125.964 3.10578 2.76913 0
M  V30 1212 H 124.84 3.788 3.97242 0
M  V30 1213 H 125.101 2.05186 3.916 0
M  V30 1214 N 124.16 -0.719506 1.40217 0
M  V30 1215 C 125.07 -1.86378 1.42479 0
M  V30 1216 C 126.086 -1.71073 0.317834 0
M  V30 1217 O 127.262 -1.93406 0.561794 0
M  V30 1218 C 124.327 -3.22136 1.28178 0
M  V30 1219 C 123.388 -3.49723 2.48982 0
M  V30 1220 C 122.621 -4.79004 2.35353 0
M  V30 1221 O 122.844 -5.53821 1.36524 0
M  V30 1222 O 121.778 -5.06839 3.2465 0
M  V30 1223 H 125.604 -1.87425 2.38968 0
M  V30 1224 H 123.189 -0.869405 1.21498 0
M  V30 1225 H 125.071 -4.03234 1.22395 0
M  V30 1226 H 123.746 -3.21825 0.347934 0
M  V30 1227 H 122.653 -2.6865 2.60342 0
M  V30 1228 H 123.986 -3.54828 3.41113 0
M  V30 1229 N 125.638 -1.25649 -0.95132 0
M  V30 1230 C 127.049 -1.09654 -1.51106 0
M  V30 1231 C 127.4 0.326615 -1.93462 0
M  V30 1232 O 126.525 1.21697 -1.78938 0
M  V30 1233 C 127.12 -1.98437 -2.74605 0
M  V30 1234 C 125.679 -1.86618 -3.2688 0
M  V30 1235 C 124.826 -1.9239 -1.99703 0
M  V30 1236 H 127.777 -1.38887 -0.767865 0
M  V30 1237 H 127.798 -1.5263 -3.48546 0
M  V30 1238 H 127.31 -3.02009 -2.43746 0
M  V30 1239 H 125.411 -0.859421 -3.62553 0
M  V30 1240 H 125.524 -2.71607 -3.94673 0
M  V30 1241 H 123.888 -1.36317 -2.15151 0
M  V30 1242 H 124.671 -2.97573 -1.71188 0
M  V30 1243 N 127.117 1.15442 -1.07289 0
M  V30 1244 C 128.049 2.19773 -0.650585 0
M  V30 1245 C 129.062 1.60076 0.296572 0
M  V30 1246 O 130.251 1.78293 0.0859905 0
M  V30 1247 C 127.351 3.38838 0.0650398 0
M  V30 1248 C 126.524 4.2808 -0.898141 0
M  V30 1249 C 125.583 5.2574 -0.219926 0
M  V30 1250 O 124.609 5.62654 -0.860773 0
M  V30 1251 N 125.811 5.71205 1.03466 0
M  V30 1252 H 128.576 2.56622 -1.54808 0
M  V30 1253 H 126.137 1.30551 -0.957494 0
M  V30 1254 H 128.129 4.01222 0.529415 0
M  V30 1255 H 126.699 3.00409 0.864466 0
M  V30 1256 H 125.919 3.62804 -1.54165 0
M  V30 1257 H 127.207 4.84577 -1.5512 0
M  V30 1258 H 126.605 5.43325 1.57526 0
M  V30 1259 H 125.162 6.35633 1.44272 0
M  V30 1260 N 128.595 0.856903 1.32268 0
M  V30 1261 C 129.558 0.308171 2.27119 0
M  V30 1262 C 130.558 -0.533421 1.51695 0
M  V30 1263 O 131.748 -0.344607 1.70757 0
M  V30 1264 C 128.88 -0.563757 3.36206 0
M  V30 1265 H 130.073 1.14535 2.77167 0
M  V30 1266 H 127.626 0.631421 1.42978 0
M  V30 1267 H 128.361 -1.42266 2.91429 0
M  V30 1268 H 128.146 0.0386749 3.92081 0
M  V30 1269 H 129.636 -0.940386 4.06874 0
M  V30 1270 N 130.073 -1.45103 0.615059 0
M  V30 1271 C 131.003 -2.33339 -0.0865619 0
M  V30 1272 C 131.984 -1.4727 -0.851209 0
M  V30 1273 O 133.169 -1.76026 -0.820281 0
M  V30 1274 C 130.299 -3.30095 -1.07956 0
M  V30 1275 C 129.253 -4.25858 -0.427628 0
M  V30 1276 C 128.579 -5.12361 -1.5294 0
M  V30 1277 C 129.879 -5.18165 0.655944 0
M  V30 1278 H 131.573 -2.92254 0.650224 0
M  V30 1279 H 129.119 -1.40532 0.314138 0
M  V30 1280 H 131.072 -3.90698 -1.57901 0
M  V30 1281 H 129.796 -2.69355 -1.84703 0
M  V30 1282 H 128.455 -3.66564 0.0510292 0
M  V30 1283 H 128.103 -4.47984 -2.28734 0
M  V30 1284 H 127.803 -5.77238 -1.09865 0
M  V30 1285 H 129.327 -5.75833 -2.03098 0
M  V30 1286 H 130.741 -5.72796 0.240257 0
M  V30 1287 H 129.138 -5.91559 1.00888 0
M  V30 1288 H 130.208 -4.60144 1.52957 0
M  V30 1289 N 131.551 -0.354651 -1.53558 0
M  V30 1290 C 132.499 0.512195 -2.26891 0
M  V30 1291 C 133.493 1.09263 -1.29452 0
M  V30 1292 O 134.699 1.03709 -1.47121 0
M  V30 1293 H 131.074 0.183878 -0.729173 0
M  V30 1294 H 133.045 -0.128202 -2.98124 0
M  V30 1295 C 131.794 1.64563 -3.06291 0
M  V30 1296 H 131.117 1.20829 -3.81104 0
M  V30 1297 H 132.557 2.22711 -3.60799 0
M  V30 1298 C 131.016 2.58158 -2.16462 0
M  V30 1299 O 131.546 3.60695 -1.76811 0
M  V30 1300 N 129.752 2.27096 -1.81317 0
M  V30 1301 H 129.299 1.43751 -2.1376 0
M  V30 1302 H 129.257 2.89975 -1.21498 0
M  V30 1303 N 133.029 1.57378 -0.0835403 0
M  V30 1304 C 133.939 2.16897 0.894021 0
M  V30 1305 C 134.955 1.13528 1.31861 0
M  V30 1306 O 136.131 1.45848 1.3889 0
M  V30 1307 C 133.196 2.72831 2.13925 0
M  V30 1308 C 132.257 3.91115 1.76997 0
M  V30 1309 C 131.49 4.44371 2.95584 0
M  V30 1310 O 131.713 3.96596 4.09961 0
M  V30 1311 O 130.647 5.35549 2.74719 0
M  V30 1312 H 134.473 3.00814 0.417679 0
M  V30 1313 H 132.058 1.48741 0.140181 0
M  V30 1314 H 133.94 3.0863 2.86924 0
M  V30 1315 H 132.615 1.91967 2.60635 0
M  V30 1316 H 131.522 3.60148 1.01214 0
M  V30 1317 H 132.855 4.73307 1.3506 0
M  V30 1318 N 134.507 -0.190092 1.56449 0
M  V30 1319 C 135.47 -1.21925 1.9408 0
M  V30 1320 C 136.47 -1.38176 0.822431 0
M  V30 1321 O 137.66 -1.35903 1.08977 0
M  V30 1322 C 134.792 -2.58773 2.21922 0
M  V30 1323 H 135.985 -0.897464 2.86157 0
M  V30 1324 H 133.538 -0.43181 1.50217 0
M  V30 1325 H 134.273 -2.95998 1.32499 0
M  V30 1326 H 134.058 -2.48348 3.03424 0
M  V30 1327 H 135.548 -3.32978 2.52022 0
M  V30 1328 N 135.985 -1.50799 -0.457987 0
M  V30 1329 C 137.234 -1.6168 -1.20593 0
M  V30 1330 C 137.547 -0.32888 -1.92815 0
M  V30 1331 O 138.753 -0.316773 -2.69646 0
M  V30 1332 C 137.209 -2.8545 -2.19195 0
M  V30 1333 C 136.817 -4.21168 -1.52715 0
M  V30 1334 C 138.561 -3.05681 -2.94549 0
M  V30 1335 C 136.468 -5.3611 -2.4968 0
M  V30 1336 H 135.398 -0.602134 -0.453818 0
M  V30 1337 H 138.049 -1.77245 -0.475031 0
M  V30 1338 H 136.431 -2.63472 -2.95632 0
M  V30 1339 H 137.605 -4.53449 -0.819775 0
M  V30 1340 H 135.92 -4.06648 -0.895922 0
M  V30 1341 H 138.517 -3.88727 -3.67145 0
M  V30 1342 H 138.86 -2.17929 -3.54701 0
M  V30 1343 H 139.393 -3.27901 -2.25223 0
M  V30 1344 H 136.132 -6.26057 -1.94249 0
M  V30 1345 H 135.652 -5.0823 -3.18532 0
M  V30 1346 H 137.331 -5.6722 -3.11241 0
M  V30 1347 N 137.463 0.71206 -1.40597 0
M  V30 1348 C 138.879 1.02058 -1.22704 0
M  V30 1349 C 139.079 2.01228 -0.104729 0
M  V30 1350 O 138.135 2.4674 0.53624 0
M  V30 1351 C 139.448 1.56094 -2.57012 0
M  V30 1352 C 140.996 1.6806 -2.64054 0
M  V30 1353 C 141.471 2.25501 -3.9864 0
M  V30 1354 N 142.962 2.32882 -4.004 0
M  V30 1355 C 143.697 2.78317 -5.01325 0
M  V30 1356 N 143.193 3.23478 -6.12645 0
M  V30 1357 N 144.986 2.77733 -4.88693 0
M  V30 1358 H 137.137 0.0547896 -2.12329 0
M  V30 1359 H 139.4 0.0869027 -0.944008 0
M  V30 1360 H 139.106 0.906865 -3.39807 0
M  V30 1361 H 138.98 2.54564 -2.78347 0
M  V30 1362 H 141.367 2.32583 -1.81629 0
M  V30 1363 H 141.448 0.681802 -2.46546 0
M  V30 1364 H 141.092 1.61598 -4.81506 0
M  V30 1365 H 141.022 3.26102 -4.13479 0
M  V30 1366 H 143.513 2.00991 -3.20017 0
M  V30 1367 H 143.826 3.56725 -6.85542 0
M  V30 1368 H 142.171 3.21429 -6.16205 0
M  V30 1369 H 145.362 2.4179 -4.00818 0
M  V30 1370 H 145.535 3.12826 -5.67489 0
M  V30 1371 N 138.941 1.26152 0.944643 0
M  V30 1372 C 140.187 1.12665 1.69346 0
M  V30 1373 C 140.542 -0.3273 1.89596 0
M  V30 1374 O 139.835 -1.23717 1.46303 0
M  V30 1375 C 140.029 1.82541 3.07268 0
M  V30 1376 C 139.858 3.34582 3.00475 0
M  V30 1377 C 138.628 4.03863 3.03681 0
M  V30 1378 C 140.826 4.30828 2.80877 0
M  V30 1379 N 138.808 5.42603 2.87151 0
M  V30 1380 C 140.179 5.5672 2.7288 0
M  V30 1381 C 142.234 4.21122 2.65633 0
M  V30 1382 C 140.937 6.74013 2.51196 0
M  V30 1383 C 142.963 5.38118 2.45323 0
M  V30 1384 C 142.325 6.62955 2.38055 0
M  V30 1385 H 138.424 0.467041 0.627214 0
M  V30 1386 H 141.008 1.59391 1.11815 0
M  V30 1387 H 139.179 1.38296 3.62945 0
M  V30 1388 H 140.911 1.61708 3.70989 0
M  V30 1389 H 137.666 3.55198 3.1326 0
M  V30 1390 H 138.09 6.15443 2.82063 0
M  V30 1391 H 142.732 3.25344 2.70021 0
M  V30 1392 H 140.45 7.6989 2.4555 0
M  V30 1393 H 144.036 5.32475 2.34439 0
M  V30 1394 H 142.916 7.51959 2.22546 0
M  V30 1395 N 140.419 -1.14872 1.07899 0
M  V30 1396 C 141.644 -1.90202 0.826926 0
M  V30 1397 C 142.069 -1.77774 -0.614664 0
M  V30 1398 O 141.427 -1.11431 -1.43013 0
M  V30 1399 C 141.475 -3.38352 1.24702 0
M  V30 1400 O 140.579 -4.10497 0.39575 0
M  V30 1401 H 139.92 -0.591968 0.300782 0
M  V30 1402 H 142.45 -1.45437 1.43907 0
M  V30 1403 H 142.46 -3.89156 1.22563 0
M  V30 1404 H 141.135 -3.46715 2.29698 0
M  V30 1405 H 139.712 -3.69796 0.480117 0
M  V30 1406 N 141.898 -0.863906 -1.31812 0
M  V30 1407 C 143.123 -0.48527 -2.01643 0
M  V30 1408 C 143.548 0.913058 -1.64453 0
M  V30 1409 O 142.906 1.6014 -0.849985 0
M  V30 1410 C 142.954 -0.642625 -3.54828 0
M  V30 1411 O 142.058 0.320659 -4.11151 0
M  V30 1412 H 141.399 -0.193793 -0.635091 0
M  V30 1413 H 143.929 -1.16565 -1.68148 0
M  V30 1414 H 143.939 -0.533628 -4.04495 0
M  V30 1415 H 142.614 -1.66227 -3.81237 0
M  V30 1416 H 141.191 0.167126 -3.72525 0
M  V30 1417 N 143.376 1.44774 -0.622745 0
M  V30 1418 C 144.323 2.30635 0.0871679 0
M  V30 1419 C 145.293 1.42994 0.845097 0
M  V30 1420 O 146.478 1.71907 0.827812 0
M  V30 1421 C 143.618 3.28144 1.06844 0
M  V30 1422 C 142.731 4.30888 0.309809 0
M  V30 1423 C 141.866 5.15494 1.28215 0
M  V30 1424 C 140.905 6.09953 0.512198 0
M  V30 1425 N 140.042 6.87287 1.43458 0
M  V30 1426 H 144.882 2.90803 -0.650974 0
M  V30 1427 H 142.419 1.43286 -0.33281 0
M  V30 1428 H 144.377 3.83157 1.65066 0
M  V30 1429 H 143.007 2.69695 1.77382 0
M  V30 1430 H 142.059 3.78414 -0.388181 0
M  V30 1431 H 143.371 4.97955 -0.290254 0
M  V30 1432 H 142.525 5.74983 1.93596 0
M  V30 1433 H 141.264 4.48481 1.91614 0
M  V30 1434 H 140.269 5.49581 -0.155151 0
M  V30 1435 H 141.494 6.78999 -0.116958 0
M  V30 1436 H 139.44 6.2295 2.05594 0
M  V30 1437 H 139.357 7.50763 0.888335 0
M  V30 1438 H 140.625 7.51306 2.07749 0
M  V30 1439 N 144.854 0.36279 1.53368 0
M  V30 1440 C 145.764 -0.492994 2.29362 0
M  V30 1441 C 146.78 -1.09507 1.35219 0
M  V30 1442 O 147.956 -1.10662 1.68273 0
M  V30 1443 C 145.021 -1.61855 3.066 0
M  V30 1444 C 144.082 -1.04429 4.16405 0
M  V30 1445 C 143.315 -2.11621 4.89951 0
M  V30 1446 O 143.538 -3.32684 4.63333 0
M  V30 1447 O 142.472 -1.74835 5.75948 0
M  V30 1448 H 146.298 0.125331 3.03441 0
M  V30 1449 H 143.883 0.127253 1.48857 0
M  V30 1450 H 145.765 -2.27302 3.54841 0
M  V30 1451 H 144.44 -2.22233 2.3536 0
M  V30 1452 H 143.347 -0.353819 3.72423 0
M  V30 1453 H 144.68 -0.485113 4.89804 0
M  V30 1454 N 146.332 -1.57332 0.0918853 0
M  V30 1455 C 147.28 -2.15075 -0.885747 0
M  V30 1456 C 148.274 -1.09277 -1.29441 0
M  V30 1457 O 149.48 -1.27627 -1.26931 0
M  V30 1458 H 145.855 -0.687966 -0.303656 0
M  V30 1459 H 147.826 -2.96047 -0.373995 0
M  V30 1460 C 146.575 -2.74325 -2.13638 0
M  V30 1461 H 145.898 -3.55418 -1.8308 0
M  V30 1462 H 147.338 -3.183 -2.80109 0
M  V30 1463 C 145.797 -1.70062 -2.90827 0
M  V30 1464 O 146.327 -1.13763 -3.85254 0
M  V30 1465 N 144.533 -1.40628 -2.54307 0
M  V30 1466 H 144.08 -1.866 -1.7759 0
M  V30 1467 H 144.038 -0.711043 -3.06254 0
M  V30 1468 N 147.81 0.181792 -1.56548 0
M  V30 1469 C 148.74 1.22765 -1.98623 0
M  V30 1470 C 149.721 1.46747 -0.860189 0
M  V30 1471 O 150.906 1.58259 -1.12551 0
M  V30 1472 C 148.036 2.56894 -2.33715 0
M  V30 1473 C 146.99 2.475 -3.49182 0
M  V30 1474 C 146.316 3.86023 -3.69986 0
M  V30 1475 C 147.616 1.98866 -4.82959 0
M  V30 1476 H 149.31 0.877942 -2.86239 0
M  V30 1477 H 146.856 0.42088 -1.37712 0
M  V30 1478 H 148.809 3.30253 -2.61746 0
M  V30 1479 H 147.533 2.93632 -1.42997 0
M  V30 1480 H 146.192 1.76596 -3.21262 0
M  V30 1481 H 145.84 4.20136 -2.76576 0
M  V30 1482 H 145.54 3.80609 -4.47672 0
M  V30 1483 H 147.064 4.60984 -4.00407 0
M  V30 1484 H 148.478 2.61992 -5.09934 0
M  V30 1485 H 146.875 2.04424 -5.64208 0
M  V30 1486 H 147.945 0.942465 -4.75653 0
M  V30 1487 N 149.288 1.51039 0.449983 0
M  V30 1488 C 150.218 1.74379 1.55288 0
M  V30 1489 C 151.199 0.593236 1.5942 0
M  V30 1490 O 152.384 0.834625 1.7535 0
M  V30 1491 C 149.514 1.85728 2.93466 0
M  V30 1492 C 148.468 3.01078 3.04197 0
M  V30 1493 C 147.794 2.97595 4.44231 0
M  V30 1494 C 149.094 4.41254 2.7945 0
M  V30 1495 H 150.788 2.66725 1.36008 0
M  V30 1496 H 148.334 1.2835 0.652864 0
M  V30 1497 H 150.287 2.0064 3.70569 0
M  V30 1498 H 149.011 0.900207 3.13949 0
M  V30 1499 H 147.67 2.85851 2.29531 0
M  V30 1500 H 147.318 1.99691 4.61663 0
M  V30 1501 H 147.018 3.75046 4.52343 0
M  V30 1502 H 148.542 3.14583 5.23326 0
M  V30 1503 H 149.956 4.56897 3.46292 0
M  V30 1504 H 148.353 5.20315 2.98985 0
M  V30 1505 H 149.423 4.52164 1.75144 0
M  V30 1506 N 150.766 -0.704594 1.40972 0
M  V30 1507 C 152.014 -1.46169 1.39568 0
M  V30 1508 C 152.335 -1.95 0.00253745 0
M  V30 1509 O 151.605 -1.71095 -0.954114 0
M  V30 1510 H 150.185 -0.542326 0.513704 0
M  V30 1511 H 152.847 -0.834553 1.76128 0
M  V30 1512 H 151.943 -2.32922 2.07735 0
M  V30 1513 N 152.244 -1.26651 -0.937939 0
M  V30 1514 C 153.207 -1.08546 -2.01867 0
M  V30 1515 C 154.207 -0.0327327 -1.60767 0
M  V30 1516 O 155.397 -0.276427 -1.71993 0
M  V30 1517 C 152.529 -0.651711 -3.34613 0
M  V30 1518 H 153.722 -2.04502 -2.1936 0
M  V30 1519 H 151.275 -1.09294 -1.11734 0
M  V30 1520 H 152.01 0.309696 -3.22818 0
M  V30 1521 H 151.795 -1.41189 -3.65798 0
M  V30 1522 H 153.285 -0.546973 -4.14002 0
M  V30 1523 N 153.722 1.14298 -1.08507 0
M  V30 1524 C 154.95 1.89219 -0.836876 0
M  V30 1525 C 155.365 1.78638 0.611054 0
M  V30 1526 O 154.722 1.14643 1.41998 0
M  V30 1527 C 154.773 3.39158 -1.25116 0
M  V30 1528 O 154.494 3.49449 -2.64229 0
M  V30 1529 C 155.995 4.31073 -1.03398 0
M  V30 1530 H 153.215 0.599328 -0.301739 0
M  V30 1531 H 155.759 1.44746 -1.44461 0
M  V30 1532 H 153.914 3.81251 -0.687514 0
M  V30 1533 H 154.328 4.42589 -2.81452 0
M  V30 1534 H 155.802 5.34646 -1.37323 0
M  V30 1535 H 156.279 4.3919 0.0289259 0
M  V30 1536 H 156.885 3.94738 -1.58311 0
M  V30 1537 N 155.201 0.870884 1.31352 0
M  V30 1538 C 156.111 0.330783 2.32256 0
M  V30 1539 C 157.127 -0.559767 1.6475 0
M  V30 1540 O 158.303 -0.456263 1.96164 0
M  V30 1541 C 155.368 -0.458137 3.4366 0
M  V30 1542 C 154.429 0.460482 4.26823 0
M  V30 1543 C 153.662 -0.290881 5.32907 0
M  V30 1544 O 153.885 -1.51885 5.49806 0
M  V30 1545 O 152.819 0.351732 6.00871 0
M  V30 1546 H 156.645 1.16718 2.80376 0
M  V30 1547 H 154.23 0.634285 1.35267 0
M  V30 1548 H 156.112 -0.905343 4.1156 0
M  V30 1549 H 154.787 -1.27106 2.97701 0
M  V30 1550 H 153.694 0.956207 3.61673 0
M  V30 1551 H 155.027 1.23903 4.7635 0
M  V30 1552 N 156.679 -1.44442 0.630414 0
M  V30 1553 C 157.904 -2.06927 0.139944 0
M  V30 1554 C 158.329 -1.46795 -1.17613 0
M  V30 1555 O 157.687 -0.569144 -1.72135 0
M  V30 1556 C 157.735 -3.6058 0.0379581 0
M  V30 1557 O 156.839 -3.99937 -1.0062 0
M  V30 1558 H 156.18 -0.658608 0.0844483 0
M  V30 1559 H 158.71 -1.85327 0.866891 0
M  V30 1560 H 158.72 -4.07714 -0.152856 0
M  V30 1561 H 157.395 -4.03728 0.998809 0
M  V30 1562 H 155.972 -3.64436 -0.79001 0
M  V30 1563 N 158.157 -0.370918 -1.53173 0
M  V30 1564 C 159.434 0.273754 -1.93675 0
M  V30 1565 C 159.814 1.65938 -1.3049 0
M  V30 1566 O 159.162 2.23698 -0.465999 0
M  V30 1567 C 159.372 0.318602 -3.47543 0
M  V30 1568 C 160.72 0.556392 -4.20939 0
M  V30 1569 O 161.744 0.399587 -3.53952 0
M  V30 1570 O 160.603 0.862133 -5.39657 0
M  V30 1571 H 157.697 0.165448 -0.810281 0
M  V30 1572 H 160.243 -0.42409 -1.64315 0
M  V30 1573 H 159.015 -0.652687 -3.85818 0
M  V30 1574 H 158.638 1.06212 -3.83151 0
M  V30 1575 N 159.635 1.57281 -0.100228 0
M  V30 1576 C 161.046 1.81725 0.428107 0
M  V30 1577 C 161.397 1.01619 1.67833 0
M  V30 1578 O 160.522 0.247098 2.14985 0
M  V30 1579 C 161.117 3.29617 0.78347 0
M  V30 1580 C 159.676 3.54808 1.25653 0
M  V30 1581 C 158.823 2.76118 0.255752 0
M  V30 1582 H 161.774 1.55324 -0.325608 0
M  V30 1583 H 161.795 3.4322 1.64256 0
M  V30 1584 H 161.307 3.87893 -0.12665 0
M  V30 1585 H 159.408 3.01868 2.18418 0
M  V30 1586 H 159.521 4.63443 1.21482 0
M  V30 1587 H 157.885 2.43745 0.738956 0
M  V30 1588 H 158.668 3.37145 -0.647136 0
M  V30 1589 N 161.113 -0.173488 1.56642 0
M  V30 1590 C 162.061 -1.23417 1.97157 0
M  V30 1591 C 163.055 -1.45946 0.860013 0
M  V30 1592 O 164.261 -1.46551 1.04512 0
M  V30 1593 H 160.636 -0.414818 0.62724 0
M  V30 1594 H 162.607 -0.865582 2.8557 0
M  V30 1595 C 161.356 -2.5665 2.34576 0
M  V30 1596 H 160.679 -2.40137 3.19647 0
M  V30 1597 H 162.119 -3.2956 2.6677 0
M  V30 1598 C 160.578 -3.15245 1.18836 0
M  V30 1599 O 161.108 -3.98883 0.474869 0
M  V30 1600 N 159.314 -2.74303 0.959497 0
M  V30 1601 H 158.861 -2.0639 1.54146 0
M  V30 1602 H 158.819 -3.13844 0.186932 0
M  V30 1603 N 162.591 -1.51276 -0.441967 0
M  V30 1604 C 163.521 -1.752 -1.54361 0
M  V30 1605 C 164.502 -0.601682 -1.59103 0
M  V30 1606 O 165.687 -0.843913 -1.74905 0
M  V30 1607 C 162.817 -1.87282 -2.92477 0
M  V30 1608 C 161.771 -3.02687 -3.02596 0
M  V30 1609 C 161.097 -2.99947 -4.42647 0
M  V30 1610 C 162.397 -4.4273 -2.77106 0
M  V30 1611 H 164.091 -2.67442 -1.34592 0
M  V30 1612 H 161.637 -1.28694 -0.646048 0
M  V30 1613 H 163.59 -2.02602 -3.695 0
M  V30 1614 H 162.314 -0.916844 -3.13467 0
M  V30 1615 H 160.973 -2.87065 -2.28012 0
M  V30 1616 H 160.621 -2.02136 -4.60597 0
M  V30 1617 H 160.321 -3.77439 -4.50348 0
M  V30 1618 H 161.845 -3.17354 -5.2165 0
M  V30 1619 H 163.259 -4.58727 -3.43864 0
M  V30 1620 H 161.656 -5.21893 -2.96222 0
M  V30 1621 H 162.726 -4.53087 -1.72744 0
M  V30 1622 N 164.069 0.697108 -1.41344 0
M  V30 1623 C 165.316 1.45714 -1.40619 0
M  V30 1624 C 165.644 1.94494 -0.0147907 0
M  V30 1625 O 164.899 1.69794 0.973066 0
M  V30 1626 C 165.198 2.68553 -2.35826 0
M  V30 1627 C 164.864 2.38438 -3.82698 0
M  V30 1628 C 163.526 2.29936 -4.22709 0
M  V30 1629 C 165.878 2.13567 -4.75435 0
M  V30 1630 C 163.206 1.94656 -5.53467 0
M  V30 1631 C 165.558 1.79797 -6.06511 0
M  V30 1632 C 164.222 1.69789 -6.45545 0
M  V30 1633 H 163.492 0.533206 -0.51456 0
M  V30 1634 H 166.139 0.796901 -1.74131 0
M  V30 1635 H 164.444 3.39503 -1.95563 0
M  V30 1636 H 166.141 3.2669 -2.32539 0
M  V30 1637 H 162.731 2.4595 -3.51008 0
M  V30 1638 H 166.915 2.19082 -4.45328 0
M  V30 1639 H 162.171 1.8546 -5.82593 0
M  V30 1640 H 166.345 1.59572 -6.77872 0
M  V30 1641 H 163.972 1.4222 -7.46778 0
M  V30 1642 N 165.547 1.27147 0.931209 0
M  V30 1643 C 166.793 1.13446 1.68101 0
M  V30 1644 C 167.126 -0.319628 1.91552 0
M  V30 1645 O 166.401 -1.23407 1.50336 0
M  V30 1646 C 166.684 1.91482 3.0497 0
M  V30 1647 C 166.537 3.44855 2.88782 0
M  V30 1648 C 167.856 1.71651 4.05246 0
M  V30 1649 H 164.975 0.413498 0.610072 0
M  V30 1650 H 167.617 1.56261 1.08086 0
M  V30 1651 H 165.767 1.55095 3.56199 0
M  V30 1652 H 167.439 3.9105 2.44698 0
M  V30 1653 H 165.682 3.71373 2.24198 0
M  V30 1654 H 166.353 3.94694 3.85902 0
M  V30 1655 H 168.829 2.0337 3.63015 0
M  V30 1656 H 167.705 2.28651 4.99009 0
M  V30 1657 H 167.966 0.663555 4.37092 0
M  V30 1658 N 167.025 -1.13721 1.09112 0
M  V30 1659 C 167.988 -2.17222 0.731241 0
M  V30 1660 C 168.988 -1.59035 -0.237566 0
M  V30 1661 O 170.178 -1.74192 -0.0161704 0
M  V30 1662 C 167.31 -3.40804 0.0808443 0
M  V30 1663 H 168.503 -2.50573 1.64783 0
M  V30 1664 H 166.056 -1.28493 0.889897 0
M  V30 1665 H 166.791 -3.1304 -0.847127 0
M  V30 1666 H 166.576 -3.84306 0.777896 0
M  V30 1667 H 168.066 -4.1731 -0.155657 0
M  V30 1668 N 168.503 -0.877838 -1.30888 0
M  V30 1669 C 169.433 -0.35534 -2.3078 0
M  V30 1670 C 170.414 0.557994 -1.60687 0
M  V30 1671 O 171.599 0.473355 -1.88343 0
M  V30 1672 C 168.729 0.437221 -3.44537 0
M  V30 1673 C 167.683 -0.383715 -4.26276 0
M  V30 1674 C 167.009 0.535014 -5.32017 0
M  V30 1675 C 168.309 -1.62201 -4.96476 0
M  V30 1676 H 170.003 -1.19007 -2.74732 0
M  V30 1677 H 167.549 -0.573698 -1.32078 0
M  V30 1678 H 169.502 0.813334 -4.13477 0
M  V30 1679 H 168.226 1.30553 -2.99372 0
M  V30 1680 H 166.885 -0.741874 -3.59015 0
M  V30 1681 H 166.533 1.40083 -4.831 0
M  V30 1682 H 166.233 -0.0104211 -5.87599 0
M  V30 1683 H 167.757 0.907799 -6.03814 0
M  V30 1684 H 169.171 -1.31689 -5.5797 0
M  V30 1685 H 167.568 -2.10711 -5.61891 0
M  V30 1686 H 168.638 -2.37044 -4.23011 0
M  V30 1687 N 169.982 1.44106 -0.638065 0
M  V30 1688 C 171.212 2.06037 -0.152394 0
M  V30 1689 C 171.62 1.47808 1.18108 0
M  V30 1690 O 170.963 0.598092 1.73691 0
M  V30 1691 C 171.025 3.59488 0.0293714 0
M  V30 1692 C 170.689 4.4022 -1.22702 0
M  V30 1693 C 171.686 4.73256 -2.15232 0
M  V30 1694 C 169.371 4.8048 -1.46437 0
M  V30 1695 C 171.365 5.45444 -3.29802 0
M  V30 1696 C 169.052 5.52417 -2.61303 0
M  V30 1697 C 170.05 5.84819 -3.52811 0
M  V30 1698 O 169.738 6.55289 -4.65673 0
M  V30 1699 H 169.47 0.671233 -0.0801401 0
M  V30 1700 H 172.024 1.85851 -0.874563 0
M  V30 1701 H 170.254 3.78191 0.806758 0
M  V30 1702 H 171.943 4.03164 0.470475 0
M  V30 1703 H 172.709 4.42684 -1.98131 0
M  V30 1704 H 168.588 4.54676 -0.760977 0
M  V30 1705 H 172.132 5.70653 -4.01249 0
M  V30 1706 H 168.029 5.82404 -2.78344 0
M  V30 1707 H 168.797 6.73762 -4.64744 0
M  V30 1708 N 171.46 0.379036 1.52974 0
M  V30 1709 C 172.737 -0.263479 1.93817 0
M  V30 1710 C 173.117 -1.65244 1.31368 0
M  V30 1711 O 172.465 -2.23448 0.477856 0
M  V30 1712 C 172.675 -0.300166 3.47707 0
M  V30 1713 C 174.023 -0.534061 4.21228 0
M  V30 1714 O 175.047 -0.38081 3.54159 0
M  V30 1715 O 173.906 -0.833501 5.40106 0
M  V30 1716 H 171 -0.161149 0.811147 0
M  V30 1717 H 173.546 0.432798 1.64088 0
M  V30 1718 H 172.318 0.673138 3.85467 0
M  V30 1719 H 171.941 -1.04179 3.83709 0
M  V30 1720 N 172.938 -1.57226 0.108567 0
M  V30 1721 C 174.185 -1.94833 -0.551943 0
M  V30 1722 C 174.513 -0.991204 -1.67348 0
M  V30 1723 O 173.768 -0.0131878 -1.95696 0
M  V30 1724 C 174.067 -3.38911 -1.13463 0
M  V30 1725 C 173.733 -4.50696 -0.135509 0
M  V30 1726 C 172.395 -4.80998 0.139252 0
M  V30 1727 C 174.747 -5.18333 0.545957 0
M  V30 1728 C 172.075 -5.76259 1.10194 0
M  V30 1729 C 174.427 -6.14627 1.49721 0
M  V30 1730 C 173.091 -6.43327 1.78006 0
M  V30 1731 H 172.361 -0.712944 -0.20197 0
M  V30 1732 H 175.008 -1.90582 0.18726 0
M  V30 1733 H 173.313 -3.39805 -1.95037 0
M  V30 1734 H 175.01 -3.65317 -1.65362 0
M  V30 1735 H 171.6 -4.27087 -0.359846 0
M  V30 1736 H 175.784 -4.95087 0.346842 0
M  V30 1737 H 171.04 -5.96804 1.32795 0
M  V30 1738 H 175.214 -6.66126 2.03099 0
M  V30 1739 H 172.841 -7.1695 2.52759 0
M  V30 1740 N 174.416 0.165178 -1.56732 0
M  V30 1741 C 175.662 0.882112 -1.82611 0
M  V30 1742 C 175.995 1.81628 -0.687378 0
M  V30 1743 O 175.27 1.92009 0.310267 0
M  V30 1744 C 175.553 1.67245 -3.18906 0
M  V30 1745 C 175.406 0.760987 -4.43316 0
M  V30 1746 C 176.725 2.63884 -3.52212 0
M  V30 1747 H 173.844 0.319242 -0.664269 0
M  V30 1748 H 176.486 0.148052 -1.89422 0
M  V30 1749 H 174.636 2.29824 -3.1323 0
M  V30 1750 H 176.308 0.147596 -4.61064 0
M  V30 1751 H 174.551 0.0694102 -4.33744 0
M  V30 1752 H 175.222 1.34962 -5.35247 0
M  V30 1753 H 177.698 2.11429 -3.58381 0
M  V30 1754 H 176.574 3.16245 -4.48643 0
M  V30 1755 H 176.835 3.44377 -2.77231 0
M  V30 1756 N 175.894 1.51508 0.433938 0
M  V30 1757 C 176.857 1.72473 1.50949 0
M  V30 1758 C 177.857 0.594725 1.49398 0
M  V30 1759 O 179.047 0.862315 1.5136 0
M  V30 1760 C 176.179 1.78431 2.90474 0
M  V30 1761 H 177.372 2.68467 1.33662 0
M  V30 1762 H 174.925 1.41549 0.662836 0
M  V30 1763 H 175.66 0.842645 3.13161 0
M  V30 1764 H 175.445 2.60558 2.93005 0
M  V30 1765 H 176.935 1.96479 3.68491 0
M  V30 1766 N 177.372 -0.689602 1.41712 0
M  V30 1767 C 178.597 -1.48329 1.44959 0
M  V30 1768 C 179.022 -1.8801 0.0581283 0
M  V30 1769 O 178.38 -1.55026 -0.940035 0
M  V30 1770 C 178.428 -2.71835 2.36935 0
M  V30 1771 O 177.532 -3.69549 1.8305 0
M  V30 1772 H 176.873 -0.446199 0.491734 0
M  V30 1773 H 179.403 -0.847127 1.86239 0
M  V30 1774 H 179.413 -3.20076 2.53013 0
M  V30 1775 H 178.088 -2.42291 3.38035 0
M  V30 1776 H 176.665 -3.2851 1.76452 0
M  V30 1777 N 178.85 -1.27639 -0.924453 0
M  V30 1778 C 180.098 -1.13941 -1.66918 0
M  V30 1779 C 180.419 0.314589 -1.92446 0
M  V30 1780 O 179.689 1.21964 -1.53303 0
M  V30 1781 H 178.269 -0.418678 -0.618642 0
M  V30 1782 H 180.931 -1.60213 -1.10985 0
M  V30 1783 H 180.027 -1.67094 -2.63602 0
M  V30 1784 N 180.328 1.1314 -1.09713 0
M  V30 1785 C 181.605 1.80762 -0.747302 0
M  V30 1786 C 181.985 1.96663 0.767265 0
M  V30 1787 O 181.333 1.53706 1.69076 0
M  V30 1788 C 181.543 3.15606 -1.48975 0
M  V30 1789 C 182.891 3.90914 -1.65746 0
M  V30 1790 O 183.915 3.25239 -1.45251 0
M  V30 1791 O 182.774 5.08718 -1.9967 0
M  V30 1792 H 179.868 0.782103 -0.268782 0
M  V30 1793 H 182.414 1.20041 -1.19951 0
M  V30 1794 H 181.186 2.99278 -2.52088 0
M  V30 1795 H 180.809 3.84029 -1.02991 0
M  V30 1796 N 181.806 0.884767 1.30421 0
M  V30 1797 C 182.754 0.340869 2.30089 0
M  V30 1798 C 183.748 -0.55201 1.60154 0
M  V30 1799 O 184.954 -0.436467 1.74628 0
M  V30 1800 H 181.329 0.0915739 0.746404 0
M  V30 1801 H 183.3 1.19513 2.73421 0
M  V30 1802 C 182.049 -0.429779 3.45034 0
M  V30 1803 H 181.372 0.248024 3.9903 0
M  V30 1804 H 182.812 -0.775445 4.16849 0
M  V30 1805 C 181.271 -1.62677 2.95022 0
M  V30 1806 O 181.801 -2.72614 2.95033 0
M  V30 1807 N 180.007 -1.46387 2.51036 0
M  V30 1808 H 179.554 -0.569506 2.51226 0
M  V30 1809 H 179.512 -2.26612 2.17932 0
M  V30 1810 N 183.284 -1.43765 0.645699 0
M  V30 1811 C 184.512 -2.06253 0.163556 0
M  V30 1812 C 184.927 -1.48352 -1.16778 0
M  V30 1813 O 184.284 -0.611932 -1.71935 0
M  V30 1814 C 184.335 -3.61453 0.0583186 0
M  V30 1815 O 184.056 -4.172 1.33702 0
M  V30 1816 C 185.557 -4.41002 -0.450795 0
M  V30 1817 H 182.777 -0.665413 0.0864077 0
M  V30 1818 H 185.321 -1.84396 0.884222 0
M  V30 1819 H 183.476 -3.82522 -0.612865 0
M  V30 1820 H 183.89 -5.10791 1.19131 0
M  V30 1821 H 185.364 -5.49966 -0.473403 0
M  V30 1822 H 185.841 -4.13488 -1.48068 0
M  V30 1823 H 186.447 -4.24886 0.187637 0
M  V30 1824 N 184.763 -0.387143 -1.52771 0
M  V30 1825 C 185.693 0.440551 -2.29306 0
M  V30 1826 C 186.674 1.06535 -1.32606 0
M  V30 1827 O 187.859 1.07853 -1.61497 0
M  V30 1828 C 184.989 1.56919 -3.09829 0
M  V30 1829 C 183.943 1.07054 -4.14395 0
M  V30 1830 C 183.269 2.29109 -4.83129 0
M  V30 1831 C 184.569 0.140015 -5.22112 0
M  V30 1832 H 186.263 -0.198026 -2.98744 0
M  V30 1833 H 183.809 -0.09668 -1.43675 0
M  V30 1834 H 185.762 2.15503 -3.62128 0
M  V30 1835 H 184.486 2.23532 -2.3812 0
M  V30 1836 H 183.145 0.507247 -3.63074 0
M  V30 1837 H 182.793 2.94227 -4.0797 0
M  V30 1838 H 182.493 1.96406 -5.53804 0
M  V30 1839 H 184.017 2.88339 -5.38231 0
M  V30 1840 H 185.431 0.633978 -5.69784 0
M  V30 1841 H 183.828 -0.0971485 -6.00021 0
M  V30 1842 H 184.898 -0.811711 -4.78058 0
M  V30 1843 N 186.241 1.57166 -0.116904 0
M  V30 1844 C 187.466 1.999 0.55271 0
M  V30 1845 C 187.891 0.996039 1.59564 0
M  V30 1846 O 187.249 -0.032556 1.81271 0
M  V30 1847 C 187.297 3.4152 1.15742 0
M  V30 1848 O 186.401 3.44106 2.27299 0
M  V30 1849 H 185.742 0.649447 0.138258 0
M  V30 1850 H 188.272 2.03573 -0.204759 0
M  V30 1851 H 188.282 3.79684 1.49346 0
M  V30 1852 H 186.957 4.14034 0.393493 0
M  V30 1853 H 185.534 3.17759 1.9515 0
M  V30 1854 N 187.719 -0.156864 1.56817 0
M  V30 1855 C 188.968 -0.869504 1.81996 0
M  V30 1856 C 189.281 -1.82777 0.696545 0
M  V30 1857 O 190.487 -2.58384 0.833658 0
M  V30 1858 C 188.943 -1.59679 3.22538 0
M  V30 1859 C 188.551 -0.681431 4.42787 0
M  V30 1860 C 190.295 -2.2968 3.56997 0
M  V30 1861 C 188.202 -1.40978 5.74351 0
M  V30 1862 H 187.132 -0.328438 0.678708 0
M  V30 1863 H 189.783 -0.1223 1.83092 0
M  V30 1864 H 188.165 -2.38927 3.158 0
M  V30 1865 H 189.339 0.0751166 4.60739 0
M  V30 1866 H 187.654 -0.0903431 4.16302 0
M  V30 1867 H 190.251 -2.84794 4.52544 0
M  V30 1868 H 190.594 -3.05707 2.82576 0
M  V30 1869 H 191.127 -1.57361 3.65352 0
M  V30 1870 H 187.866 -0.691561 6.51842 0
M  V30 1871 H 187.386 -2.13929 5.60352 0
M  V30 1872 H 189.065 -1.95337 6.16808 0
M  V30 1873 N 189.197 -1.51736 -0.425897 0
M  V30 1874 C 190.425 -1.68794 -1.1965 0
M  V30 1875 C 190.84 -0.390164 -1.84725 0
M  V30 1876 O 190.197 0.632376 -1.71194 0
M  V30 1877 C 190.248 -2.81174 -2.27208 0
M  V30 1878 O 189.969 -4.05925 -1.64793 0
M  V30 1879 C 191.47 -3.09599 -3.17275 0
M  V30 1880 H 188.69 -0.566128 -0.360194 0
M  V30 1881 H 191.234 -1.98211 -0.503249 0
M  V30 1882 H 189.389 -2.54324 -2.9223 0
M  V30 1883 H 189.803 -4.68423 -2.35967 0
M  V30 1884 H 191.277 -3.91786 -3.88854 0
M  V30 1885 H 191.754 -2.22468 -3.78688 0
M  V30 1886 H 192.36 -3.38151 -2.57941 0
M  V30 1887 N 190.675 0.682077 -1.42076 0
M  V30 1888 C 191.622 1.79578 -1.44984 0
M  V30 1889 C 192.592 1.6332 -0.302614 0
M  V30 1890 O 193.777 1.83978 -0.505633 0
M  V30 1891 C 190.917 3.1756 -1.35091 0
M  V30 1892 C 190.03 3.45156 -2.59791 0
M  V30 1893 C 189.165 4.72826 -2.42093 0
M  V30 1894 C 188.204 4.93433 -3.62202 0
M  V30 1895 N 187.341 6.12338 -3.43491 0
M  V30 1896 H 192.181 1.76427 -2.40161 0
M  V30 1897 H 189.718 0.861376 -1.19242 0
M  V30 1898 H 191.676 3.97287 -1.27354 0
M  V30 1899 H 190.306 3.19854 -0.435133 0
M  V30 1900 H 189.358 2.59736 -2.77923 0
M  V30 1901 H 190.67 3.5628 -3.49094 0
M  V30 1902 H 189.824 5.60631 -2.319 0
M  V30 1903 H 188.563 4.63973 -1.50268 0
M  V30 1904 H 187.568 4.04073 -3.72834 0
M  V30 1905 H 188.793 5.04136 -4.54998 0
M  V30 1906 H 186.739 6.04672 -2.54377 0
M  V30 1907 H 186.656 6.2429 -4.26377 0
M  V30 1908 H 187.924 7.02841 -3.37097 0
M  V30 1909 N 192.153 1.28127 0.917671 0
M  V30 1910 C 193.401 1.14825 1.66312 0
M  V30 1911 C 193.722 -0.304379 1.9261 0
M  V30 1912 O 192.992 -1.21149 1.53947 0
M  V30 1913 H 191.572 0.421953 0.616413 0
M  V30 1914 H 194.234 1.608 1.10134 0
M  V30 1915 H 193.33 1.68489 2.62712 0
M  V30 1916 N 193.631 -1.12557 1.10312 0
M  V30 1917 C 194.541 -2.21841 0.763142 0
M  V30 1918 C 195.557 -1.72354 -0.238801 0
M  V30 1919 O 196.733 -2.01249 -0.0778746 0
M  V30 1920 C 193.798 -3.46131 0.198632 0
M  V30 1921 C 192.859 -4.10464 1.25769 0
M  V30 1922 C 192.092 -5.28821 0.72002 0
M  V30 1923 O 192.315 -5.6859 -0.453993 0
M  V30 1924 O 191.249 -5.83437 1.47935 0
M  V30 1925 H 195.075 -2.53312 1.67532 0
M  V30 1926 H 192.66 -1.20867 0.878157 0
M  V30 1927 H 194.542 -4.2125 -0.112401 0
M  V30 1928 H 193.217 -3.16338 -0.686419 0
M  V30 1929 H 192.124 -3.3713 1.62156 0
M  V30 1930 H 193.457 -4.44408 2.11571 0
M  V30 1931 N 195.109 -0.891671 -1.2995 0
M  V30 1932 C 196.056 -0.361736 -2.27948 0
M  V30 1933 C 197.026 0.551761 -1.56668 0
M  V30 1934 O 198.211 0.478736 -1.84696 0
M  V30 1935 C 195.351 0.411825 -3.42634 0
M  V30 1936 C 194.464 -0.531651 -4.28716 0
M  V30 1937 C 193.599 0.258167 -5.30572 0
M  V30 1938 C 192.638 -0.680349 -6.08307 0
M  V30 1939 N 191.775 0.0745613 -7.0206 0
M  V30 1940 H 196.615 -1.20254 -2.72659 0
M  V30 1941 H 194.152 -0.604352 -1.34112 0
M  V30 1942 H 196.11 0.876304 -4.07893 0
M  V30 1943 H 194.74 1.21715 -2.98974 0
M  V30 1944 H 193.792 -1.11463 -3.63703 0
M  V30 1945 H 195.104 -1.25038 -4.82874 0
M  V30 1946 H 194.258 0.784204 -6.0161 0
M  V30 1947 H 192.997 1.01008 -4.77126 0
M  V30 1948 H 192.002 -1.21796 -5.3614 0
M  V30 1949 H 193.227 -1.43145 -6.63842 0
M  V30 1950 H 191.173 0.808883 -6.50994 0
M  V30 1951 H 191.09 -0.584409 -7.53738 0
M  V30 1952 H 192.358 0.581123 -7.77331 0
M  V30 1953 N 196.587 1.43421 -0.653314 0
M  V30 1954 C 197.517 2.33487 0.0246656 0
M  V30 1955 C 198.498 1.49475 0.811863 0
M  V30 1956 O 199.683 1.78139 0.773322 0
M  V30 1957 C 196.813 3.32841 0.99166 0
M  V30 1958 C 195.767 4.26842 0.314568 0
M  V30 1959 C 195.093 5.16236 1.39302 0
M  V30 1960 C 196.393 5.16243 -0.793095 0
M  V30 1961 H 198.087 2.90427 -0.727481 0
M  V30 1962 H 195.633 1.39649 -0.351287 0
M  V30 1963 H 197.586 3.94747 1.47487 0
M  V30 1964 H 196.31 2.74158 1.77497 0
M  V30 1965 H 194.969 3.663 -0.148199 0
M  V30 1966 H 194.617 4.53891 2.16776 0
M  V30 1967 H 194.317 5.79948 0.945223 0
M  V30 1968 H 195.841 5.81015 1.87759 0
M  V30 1969 H 197.255 5.71958 -0.392039 0
M  V30 1970 H 195.652 5.88676 -1.16536 0
M  V30 1971 H 196.722 4.55927 -1.65103 0
M  V30 1972 N 198.065 0.39524 1.52563 0
M  V30 1973 C 199.481 0.0454682 1.59535 0
M  V30 1974 C 199.681 -1.44056 1.4089 0
M  V30 1975 O 198.737 -2.20579 1.22888 0
M  V30 1976 C 200.05 0.527963 2.96029 0
M  V30 1977 C 201.598 0.484733 3.09224 0
M  V30 1978 C 202.073 0.943512 4.48176 0
M  V30 1979 N 203.564 0.899765 4.54377 0
M  V30 1980 C 204.299 1.22609 5.60138 0
M  V30 1981 N 203.795 1.62319 6.73516 0
M  V30 1982 N 205.588 1.14696 5.50274 0
M  V30 1983 H 197.739 1.36261 1.62931 0
M  V30 1984 H 200.002 0.558887 0.765735 0
M  V30 1985 H 199.708 1.56607 3.14908 0
M  V30 1986 H 199.582 -0.0698056 3.77135 0
M  V30 1987 H 201.969 -0.544298 2.90037 0
M  V30 1988 H 202.05 1.11838 2.30056 0
M  V30 1989 H 201.694 1.9708 4.68104 0
M  V30 1990 H 201.624 0.286817 5.25818 0
M  V30 1991 H 204.115 0.607632 3.72983 0
M  V30 1992 H 204.428 1.85567 7.5019 0
M  V30 1993 H 202.773 1.66211 6.74833 0
M  V30 1994 H 205.964 0.835701 4.6058 0
M  V30 1995 H 206.137 1.40459 6.32594 0
M  V30 1996 N 199.544 -1.57102 0.125237 0
M  V30 1997 C 200.79 -1.95697 -0.532035 0
M  V30 1998 C 201.123 -1.009 -1.6593 0
M  V30 1999 O 200.398 -0.047347 -1.94442 0
M  V30 2000 C 200.681 -3.44181 -1.05884 0
M  V30 2001 C 200.534 -4.49752 0.0654392 0
M  V30 2002 C 201.853 -3.94655 -1.9477 0
M  V30 2003 H 198.972 -0.711571 -0.191925 0
M  V30 2004 H 201.614 -1.88923 0.20206 0
M  V30 2005 H 199.764 -3.50085 -1.68442 0
M  V30 2006 H 201.436 -4.55943 0.700982 0
M  V30 2007 H 199.679 -4.27653 0.727709 0
M  V30 2008 H 200.35 -5.50924 -0.344505 0
M  V30 2009 H 202.826 -3.91094 -1.42074 0
M  V30 2010 H 201.702 -4.99057 -2.28546 0
M  V30 2011 H 201.963 -3.35718 -2.87656 0
M  V30 2012 N 201.022 0.148545 -1.56898 0
M  V30 2013 C 201.952 1.18524 -2.01182 0
M  V30 2014 C 202.933 1.4489 -0.891123 0
M  V30 2015 O 204.118 1.55836 -1.15882 0
M  V30 2016 C 201.248 2.51879 -2.39112 0
M  V30 2017 C 200.202 2.40038 -3.54353 0
M  V30 2018 C 199.528 3.78089 -3.78091 0
M  V30 2019 C 200.828 1.88577 -4.87069 0
M  V30 2020 H 202.522 0.817029 -2.88036 0
M  V30 2021 H 200.068 0.391575 -1.38574 0
M  V30 2022 H 202.021 3.24627 -2.68692 0
M  V30 2023 H 200.745 2.90532 -1.49193 0
M  V30 2024 H 199.404 1.69742 -3.24936 0
M  V30 2025 H 199.052 4.14175 -2.85426 0
M  V30 2026 H 198.752 3.71028 -4.55645 0
M  V30 2027 H 200.276 4.52387 -4.10095 0
M  V30 2028 H 201.69 2.51117 -5.15377 0
M  V30 2029 H 200.087 1.9241 -5.68417 0
M  V30 2030 H 201.157 0.84136 -4.77545 0
M  V30 2031 N 202.5 1.5196 0.417844 0
M  V30 2032 C 203.748 1.65263 1.16329 0
M  V30 2033 C 204.069 0.380634 1.91249 0
M  V30 2034 O 203.339 -0.604214 1.86349 0
M  V30 2035 H 201.919 0.60912 0.432414 0
M  V30 2036 H 204.581 1.88969 0.477162 0
M  V30 2037 H 203.677 2.4896 1.88217 0
M  V30 2038 N 203.978 -0.674533 1.42435 0
M  V30 2039 C 205.208 -1.46071 1.46105 0
M  V30 2040 C 205.616 -1.89067 0.0709605 0
M  V30 2041 O 204.959 -1.58731 -0.924677 0
M  V30 2042 C 205.021 -2.74145 2.32561 0
M  V30 2043 C 204.685 -2.53224 3.8043 0
M  V30 2044 C 205.682 -2.17809 4.72075 0
M  V30 2045 C 203.367 -2.6821 4.24698 0
M  V30 2046 C 205.361 -1.97648 6.05982 0
M  V30 2047 C 203.048 -2.47665 5.58664 0
M  V30 2048 C 204.046 -2.12437 6.49122 0
M  V30 2049 O 203.734 -1.9209 7.80613 0
M  V30 2050 H 203.466 -0.455959 0.499076 0
M  V30 2051 H 206.02 -0.836193 1.87609 0
M  V30 2052 H 204.25 -3.3908 1.85908 0
M  V30 2053 H 205.939 -3.36028 2.27683 0
M  V30 2054 H 206.705 -2.05826 4.39159 0
M  V30 2055 H 202.584 -2.94609 3.54579 0
M  V30 2056 H 206.128 -1.70075 6.7655 0
M  V30 2057 H 202.025 -2.59244 5.91154 0
M  V30 2058 H 202.793 -2.06686 7.91974 0
M  V30 2059 N 205.456 -1.28612 -0.910864 0
M  V30 2060 C 206.404 -1.1265 -2.03501 0
M  V30 2061 C 207.398 -0.0450054 -1.6934 0
M  V30 2062 O 208.604 -0.203988 -1.7884 0
M  V30 2063 H 204.979 -0.347639 -0.666822 0
M  V30 2064 H 206.95 -2.07849 -2.14106 0
M  V30 2065 C 205.699 -0.808143 -3.38178 0
M  V30 2066 H 205.022 -1.63231 -3.6496 0
M  V30 2067 H 206.462 -0.736426 -4.17556 0
M  V30 2068 C 204.921 0.488226 -3.33344 0
M  V30 2069 O 205.451 1.51766 -3.71927 0
M  V30 2070 N 203.657 0.490009 -2.86439 0
M  V30 2071 H 203.204 -0.348161 -2.55236 0
M  V30 2072 H 203.162 1.35741 -2.83587 0
M  V30 2073 N 206.934 1.1197 -1.10907 0
M  V30 2074 C 207.866 2.17592 -0.720175 0
M  V30 2075 C 208.879 1.60938 0.245495 0
M  V30 2076 O 210.068 1.78476 0.0292245 0
M  V30 2077 C 207.168 3.38873 -0.0427917 0
M  V30 2078 C 206.341 4.25006 -1.03388 0
M  V30 2079 C 205.4 5.24774 -0.387075 0
M  V30 2080 O 204.426 5.59631 -1.03934 0
M  V30 2081 N 205.628 5.74208 0.852407 0
M  V30 2082 H 208.393 2.51567 -1.62893 0
M  V30 2083 H 205.954 1.27439 -0.998543 0
M  V30 2084 H 207.946 4.02703 0.401501 0
M  V30 2085 H 206.516 3.03007 0.768456 0
M  V30 2086 H 205.736 3.57716 -1.65629 0
M  V30 2087 H 207.024 4.79397 -1.70458 0
M  V30 2088 H 206.422 5.48062 1.40161 0
M  V30 2089 H 204.979 6.39901 1.23977 0
M  V30 2090 N 208.412 0.89855 1.29475 0
M  V30 2091 C 209.36 0.365253 2.29714 0
M  V30 2092 C 210.354 -0.534993 1.6073 0
M  V30 2093 O 211.56 -0.417921 1.75081 0
M  V30 2094 H 207.935 0.0994853 0.74539 0
M  V30 2095 H 209.906 1.22406 2.72138 0
M  V30 2096 C 208.655 -0.393159 3.4547 0
M  V30 2097 H 207.978 0.290332 3.98744 0
M  V30 2098 H 209.418 -0.731189 4.17648 0
M  V30 2099 C 207.877 -1.59539 2.9673 0
M  V30 2100 O 208.407 -2.69469 2.97908 0
M  V30 2101 N 206.613 -1.43716 2.52575 0
M  V30 2102 H 206.16 -0.542828 2.51816 0
M  V30 2103 H 206.118 -2.24288 2.20323 0
M  V30 2104 N 209.89 -1.43072 0.660911 0
M  V30 2105 C 211.138 -2.01323 0.177094 0
M  V30 2106 C 211.459 -1.5245 -1.2159 0
M  V30 2107 O 210.729 -0.740322 -1.81373 0
M  V30 2108 H 209.309 -0.744382 0.0624804 0
M  V30 2109 H 211.971 -1.75179 0.854305 0
M  V30 2110 H 211.067 -3.11649 0.167641 0
M  V30 2111 N 211.368 -0.403325 -1.52352 0
M  V30 2112 C 212.278 0.432009 -2.30588 0
M  V30 2113 C 213.294 1.05884 -1.38075 0
M  V30 2114 O 214.47 1.06161 -1.71148 0
M  V30 2115 C 211.535 1.53669 -3.10784 0
M  V30 2116 C 210.596 0.933525 -4.19027 0
M  V30 2117 C 209.829 1.98557 -4.9539 0
M  V30 2118 O 210.052 3.20283 -4.71991 0
M  V30 2119 O 208.986 1.59504 -5.80381 0
M  V30 2120 H 212.812 -0.205739 -3.03002 0
M  V30 2121 H 210.397 -0.166675 -1.48467 0
M  V30 2122 H 212.279 2.17814 -3.60742 0
M  V30 2123 H 210.954 2.15915 -2.41169 0
M  V30 2124 H 209.861 0.254954 -3.7323 0
M  V30 2125 H 211.194 0.35508 -4.90918 0
M  V30 2126 N 212.846 1.57033 -0.133567 0
M  V30 2127 C 214.092 1.96764 0.515326 0
M  V30 2128 C 214.447 1.01653 1.63353 0
M  V30 2129 O 213.74 0.0491374 1.91537 0
M  V30 2130 C 213.934 3.40674 1.08057 0
M  V30 2131 C 213.763 4.49696 0.0186522 0
M  V30 2132 C 212.533 5.03567 -0.418174 0
M  V30 2133 C 214.731 5.08536 -0.767809 0
M  V30 2134 N 212.713 5.9618 -1.46434 0
M  V30 2135 C 214.084 5.97231 -1.6648 0
M  V30 2136 C 216.139 4.9115 -0.817087 0
M  V30 2137 C 214.842 6.70401 -2.60681 0
M  V30 2138 C 216.868 5.65012 -1.74687 0
M  V30 2139 C 216.23 6.53403 -2.63141 0
M  V30 2140 H 212.329 0.765919 0.157771 0
M  V30 2141 H 214.913 1.93395 -0.22506 0
M  V30 2142 H 213.084 3.44662 1.79061 0
M  V30 2143 H 214.816 3.67495 1.69497 0
M  V30 2144 H 211.571 4.73594 -0.0229803 0
M  V30 2145 H 211.995 6.47191 -1.98678 0
M  V30 2146 H 216.637 4.22543 -0.147326 0
M  V30 2147 H 214.355 7.38245 -3.28664 0
M  V30 2148 H 217.941 5.53559 -1.79063 0
M  V30 2149 H 216.821 7.09556 -3.33917 0
M  V30 2150 N 214.325 -0.140222 1.56975 0
M  V30 2151 C 215.55 -0.870414 1.88251 0
M  V30 2152 C 215.975 -1.73637 0.723312 0
M  V30 2153 O 215.333 -1.78329 -0.32689 0
M  V30 2154 C 215.381 -1.69737 3.18154 0
M  V30 2155 O 214.485 -2.80229 3.02565 0
M  V30 2156 H 213.826 -0.242025 0.61832 0
M  V30 2157 H 216.356 -0.128999 2.04193 0
M  V30 2158 H 216.366 -2.09099 3.50345 0
M  V30 2159 H 215.041 -1.06152 4.02125 0
M  V30 2160 H 213.618 -2.44224 2.81796 0
M  V30 2161 N 215.803 -1.52179 -0.40978 0
M  V30 2162 C 216.713 -1.78364 -1.52392 0
M  V30 2163 C 217.729 -0.669183 -1.60617 0
M  V30 2164 O 218.905 -0.954518 -1.77344 0
M  V30 2165 C 215.97 -1.92822 -2.88133 0
M  V30 2166 C 215.031 -3.16725 -2.898 0
M  V30 2167 C 214.264 -3.30483 -4.19067 0
M  V30 2168 O 214.487 -2.49522 -5.12928 0
M  V30 2169 O 213.421 -4.2363 -4.27576 0
M  V30 2170 H 217.247 -2.72931 -1.33201 0
M  V30 2171 H 214.832 -1.37016 -0.59557 0
M  V30 2172 H 216.714 -2.04157 -3.68643 0
M  V30 2173 H 215.389 -1.01444 -3.07393 0
M  V30 2174 H 214.296 -3.10848 -2.08146 0
M  V30 2175 H 215.629 -4.07881 -2.75489 0
M  V30 2176 N 217.281 0.66697 -1.42791 0
M  V30 2177 C 218.527 1.4291 -1.43891 0
M  V30 2178 C 218.86 1.94114 -0.0578972 0
M  V30 2179 O 218.135 1.71414 0.91911 0
M  V30 2180 C 218.418 2.62049 -2.46987 0
M  V30 2181 C 218.271 2.16426 -3.94309 0
M  V30 2182 C 219.59 3.64266 -2.46978 0
M  V30 2183 H 216.709 0.518306 -0.523954 0
M  V30 2184 H 219.351 0.757321 -1.74255 0
M  V30 2185 H 217.501 3.19361 -2.21225 0
M  V30 2186 H 219.173 1.64221 -4.31079 0
M  V30 2187 H 217.416 1.47925 -4.078 0
M  V30 2188 H 218.087 3.02038 -4.62036 0
M  V30 2189 H 220.563 3.16686 -2.69906 0
M  V30 2190 H 219.439 4.45196 -3.21079 0
M  V30 2191 H 219.7 4.15927 -1.49857 0
M  V30 2192 N 218.759 1.29093 0.90403 0
M  V30 2193 C 220.175 1.07011 1.1841 0
M  V30 2194 C 220.375 -0.181358 2.00682 0
M  V30 2195 O 219.431 -0.880331 2.36657 0
M  V30 2196 C 220.744 2.32311 1.90924 0
M  V30 2197 C 222.292 2.37587 2.03768 0
M  V30 2198 C 222.767 3.62679 2.79693 0
M  V30 2199 N 224.258 3.63376 2.87249 0
M  V30 2200 C 224.993 4.56848 3.46522 0
M  V30 2201 N 224.489 5.60648 4.06996 0
M  V30 2202 N 226.282 4.44426 3.44154 0
M  V30 2203 H 218.433 2.09412 0.354993 0
M  V30 2204 H 220.696 0.922181 0.219742 0
M  V30 2205 H 220.402 3.23536 1.37905 0
M  V30 2206 H 220.276 2.39483 2.91424 0
M  V30 2207 H 222.663 1.46853 2.55965 0
M  V30 2208 H 222.744 2.34403 1.02415 0
M  V30 2209 H 222.388 4.53762 2.28173 0
M  V30 2210 H 222.318 3.63119 3.81381 0
M  V30 2211 H 224.809 2.88321 2.44293 0
M  V30 2212 H 225.122 6.28101 4.50232 0
M  V30 2213 H 223.467 5.64463 4.05471 0
M  V30 2214 H 226.658 3.62529 2.96126 0
M  V30 2215 H 226.831 5.17457 3.90054 0
M  V30 2216 N 220.237 -1.11381 1.11499 0
M  V30 2217 C 221.462 -1.87475 0.887019 0
M  V30 2218 C 221.887 -1.79639 -0.557796 0
M  V30 2219 O 221.245 -1.15924 -1.39396 0
M  V30 2220 C 221.293 -3.34213 1.35403 0
M  V30 2221 O 220.397 -4.0903 0.526146 0
M  V30 2222 H 219.738 -0.582099 0.319463 0
M  V30 2223 H 222.268 -1.40785 1.48461 0
M  V30 2224 H 222.278 -3.8506 1.34881 0
M  V30 2225 H 220.953 -3.39232 2.40612 0
M  V30 2226 H 219.53 -3.68082 0.597522 0
M  V30 2227 N 221.715 -0.905404 -1.28997 0
M  V30 2228 C 222.662 -0.385892 -2.27551 0
M  V30 2229 C 223.632 0.535113 -1.57244 0
M  V30 2230 O 224.817 0.459119 -1.85194 0
M  V30 2231 C 221.957 0.375461 -3.43051 0
M  V30 2232 C 221.07 -0.577092 -4.28128 0
M  V30 2233 C 220.205 0.201879 -5.30816 0
M  V30 2234 C 219.244 -0.744829 -6.07551 0
M  V30 2235 N 218.381 9.42587e-05 -7.021 0
M  V30 2236 H 223.221 -1.23139 -2.71368 0
M  V30 2237 H 220.758 -0.618542 -1.33463 0
M  V30 2238 H 222.716 0.832992 -4.088 0
M  V30 2239 H 221.346 1.18537 -3.00248 0
M  V30 2240 H 220.398 -1.15315 -3.62501 0
M  V30 2241 H 221.71 -1.30152 -4.8152 0
M  V30 2242 H 220.864 0.720351 -6.02408 0
M  V30 2243 H 219.603 0.959413 -4.7817 0
M  V30 2244 H 218.608 -1.27475 -5.34818 0
M  V30 2245 H 219.833 -1.50178 -6.62286 0
M  V30 2246 H 217.779 0.739791 -6.51815 0
M  V30 2247 H 217.696 -0.664321 -7.53076 0
M  V30 2248 H 218.964 0.498644 -7.77903 0
M  V30 2249 N 223.193 1.4272 -0.668489 0
M  V30 2250 C 224.141 2.32586 0.0254857 0
M  V30 2251 C 225.135 1.49471 0.797176 0
M  V30 2252 O 226.341 1.65583 0.705853 0
M  V30 2253 H 222.716 0.751514 0.0270339 0
M  V30 2254 H 224.687 2.88823 -0.749936 0
M  V30 2255 C 223.436 3.3397 0.967427 0
M  V30 2256 H 222.759 3.97961 0.383048 0
M  V30 2257 H 224.199 3.9945 1.42181 0
M  V30 2258 C 222.658 2.65744 2.0708 0
M  V30 2259 O 223.188 2.48454 3.15648 0
M  V30 2260 N 221.394 2.2487 1.8407 0
M  V30 2261 H 220.941 2.39132 0.95778 0
M  V30 2262 H 220.899 1.79552 2.58086 0
M  V30 2263 N 224.671 0.411399 1.52136 0
M  V30 2264 C 225.919 -0.163322 2.01439 0
M  V30 2265 C 226.24 -1.45453 1.29879 0
M  V30 2266 O 225.51 -1.91225 0.4254 0
M  V30 2267 H 224.09 -0.0633447 0.744309 0
M  V30 2268 H 226.752 0.548161 1.87033 0
M  V30 2269 H 225.848 -0.357817 3.10042 0
M  V30 2270 N 226.149 -1.5696 0.141893 0
M  V30 2271 C 227.081 -2.13619 -0.830627 0
M  V30 2272 C 228.094 -1.08439 -1.21428 0
M  V30 2273 O 229.283 -1.35734 -1.15925 0
M  V30 2274 C 226.383 -2.63978 -2.12529 0
M  V30 2275 C 225.556 -3.93504 -1.9098 0
M  V30 2276 C 224.615 -4.29225 -3.04388 0
M  V30 2277 O 223.641 -4.97641 -2.76302 0
M  V30 2278 N 224.843 -3.88393 -4.31429 0
M  V30 2279 H 227.608 -2.97691 -0.34641 0
M  V30 2280 H 225.169 -1.61846 -0.0418375 0
M  V30 2281 H 227.161 -2.84891 -2.87436 0
M  V30 2282 H 225.731 -1.84659 -2.52229 0
M  V30 2283 H 224.951 -3.81269 -1.00139 0
M  V30 2284 H 226.239 -4.78154 -1.73914 0
M  V30 2285 H 225.637 -3.33257 -4.57117 0
M  V30 2286 H 224.194 -4.14368 -5.03133 0
M  V30 2287 N 227.627 0.131896 -1.57047 0
M  V30 2288 C 228.875 0.840269 -1.83804 0
M  V30 2289 C 229.196 1.81017 -0.72512 0
M  V30 2290 O 228.466 1.94272 0.251995 0
M  V30 2291 H 227.046 0.313294 -0.678127 0
M  V30 2292 H 229.708 0.122294 -1.94516 0
M  V30 2293 H 228.804 1.39335 -2.79271 0
M  V30 2294 N 229.106 1.52395 0.401703 0
M  V30 2295 C 230.352 1.68019 1.14635 0
M  V30 2296 C 230.707 0.408722 1.88009 0
M  V30 2297 O 230 -0.597133 1.82057 0
M  V30 2298 C 230.194 2.84578 2.16217 0
M  V30 2299 C 230.023 4.22938 1.5282 0
M  V30 2300 C 228.793 4.88352 1.29772 0
M  V30 2301 C 230.991 5.04778 0.985094 0
M  V30 2302 N 228.973 6.10726 0.623455 0
M  V30 2303 C 230.344 6.1845 0.438172 0
M  V30 2304 C 232.399 4.90057 0.880275 0
M  V30 2305 C 231.102 7.19013 -0.203306 0
M  V30 2306 C 233.128 5.9086 0.252639 0
M  V30 2307 C 232.49 7.03829 -0.283573 0
M  V30 2308 H 228.589 0.668413 0.405892 0
M  V30 2309 H 231.173 1.89717 0.437674 0
M  V30 2310 H 229.344 2.64483 2.84435 0
M  V30 2311 H 231.076 2.89202 2.83098 0
M  V30 2312 H 227.831 4.46846 1.56926 0
M  V30 2313 H 228.255 6.76323 0.302733 0
M  V30 2314 H 232.897 4.02938 1.28065 0
M  V30 2315 H 230.615 8.05751 -0.615726 0
M  V30 2316 H 234.201 5.81543 0.172954 0
M  V30 2317 H 233.081 7.80493 -0.761575 0
M  V30 2318 N 230.584 -0.659388 1.43143 0
M  V30 2319 C 231.83 -1.42145 1.44647 0
M  V30 2320 C 232.163 -1.9408 0.0681907 0
M  V30 2321 O 231.438 -1.71899 -0.910007 0
M  V30 2322 C 231.721 -2.60735 2.48373 0
M  V30 2323 C 231.574 -2.14332 3.95451 0
M  V30 2324 C 232.893 -3.62951 2.48906 0
M  V30 2325 H 230.012 -0.51552 0.526696 0
M  V30 2326 H 232.654 -0.748069 1.74654 0
M  V30 2327 H 230.804 -3.18184 2.22916 0
M  V30 2328 H 232.476 -1.61932 4.31944 0
M  V30 2329 H 230.719 -1.4576 4.08578 0
M  V30 2330 H 231.39 -2.99583 4.63631 0
M  V30 2331 H 233.866 -3.1525 2.71582 0
M  V30 2332 H 232.742 -4.43487 3.23435 0
M  V30 2333 H 233.003 -4.15126 1.52061 0
M  V30 2334 N 232.062 -1.29571 -0.897171 0
M  V30 2335 C 233.473 -1.15964 -1.46319 0
M  V30 2336 C 233.824 0.244267 -1.94674 0
M  V30 2337 O 232.949 1.13998 -1.83939 0
M  V30 2338 C 233.544 -2.09906 -2.65942 0
M  V30 2339 C 232.103 -2.00314 -3.18671 0
M  V30 2340 C 231.25 -2.00687 -1.91363 0
M  V30 2341 H 234.201 -1.42019 -0.708268 0
M  V30 2342 H 234.222 -1.67276 -3.41759 0
M  V30 2343 H 233.734 -3.12075 -2.30718 0
M  V30 2344 H 231.835 -1.01242 -3.58582 0
M  V30 2345 H 231.948 -2.88102 -3.82798 0
M  V30 2346 H 230.312 -1.45319 -2.09175 0
M  V30 2347 H 231.095 -3.04566 -1.58413 0
M  V30 2348 N 233.54 1.10788 -1.12088 0
M  V30 2349 C 234.765 1.87002 -0.896949 0
M  V30 2350 C 235.19 1.79933 0.548261 0
M  V30 2351 O 234.548 1.16662 1.38779 0
M  V30 2352 C 234.596 3.3349 -1.37174 0
M  V30 2353 O 233.7 4.08745 -0.547831 0
M  V30 2354 H 233.041 0.580397 -0.322545 0
M  V30 2355 H 235.571 1.39996 -1.49206 0
M  V30 2356 H 235.581 3.84339 -1.36922 0
M  V30 2357 H 234.256 3.37951 -2.42408 0
M  V30 2358 H 232.833 3.6776 -0.617034 0
M  V30 2359 N 235.018 0.912232 1.28515 0
M  V30 2360 C 235.966 0.389597 2.29314 0
M  V30 2361 C 236.96 -0.517915 1.61289 0
M  V30 2362 O 238.166 -0.399328 1.75515 0
M  V30 2363 H 234.541 0.107386 0.744293 0
M  V30 2364 H 236.512 1.25286 2.70825 0
M  V30 2365 C 235.261 -0.356496 3.45868 0
M  V30 2366 H 234.584 0.332608 3.98414 0
M  V30 2367 H 236.024 -0.686851 4.184 0
M  V30 2368 C 234.483 -1.56383 2.98406 0
M  V30 2369 O 235.013 -2.66294 3.00749 0
M  V30 2370 N 233.219 -1.41029 2.54085 0
M  V30 2371 H 232.766 -0.516089 2.52377 0
M  V30 2372 H 232.724 -2.21939 2.22689 0
M  V30 2373 N 236.496 -1.42363 0.676048 0
M  V30 2374 C 237.726 -2.05561 0.206967 0
M  V30 2375 C 238.134 -1.50887 -1.14148 0
M  V30 2376 O 237.477 -0.643933 -1.72044 0
M  V30 2377 C 237.539 -3.5944 0.0659508 0
M  V30 2378 C 237.203 -4.36812 1.34331 0
M  V30 2379 C 238.2 -4.67383 2.27704 0
M  V30 2380 C 235.885 -4.76429 1.59125 0
M  V30 2381 C 237.879 -5.36509 3.44147 0
M  V30 2382 C 235.566 -5.45294 2.75857 0
M  V30 2383 C 236.564 -5.75259 3.68193 0
M  V30 2384 O 236.252 -6.42712 4.82883 0
M  V30 2385 H 235.984 -0.668872 0.0979084 0
M  V30 2386 H 238.538 -1.83467 0.923531 0
M  V30 2387 H 236.768 -3.80197 -0.706204 0
M  V30 2388 H 238.457 -4.0427 -0.363418 0
M  V30 2389 H 239.223 -4.37275 2.09799 0
M  V30 2390 H 235.102 -4.52498 0.881258 0
M  V30 2391 H 238.646 -5.59814 4.16238 0
M  V30 2392 H 234.543 -5.7482 2.93688 0
M  V30 2393 H 235.311 -6.61204 4.82444 0
M  V30 2394 N 237.974 -0.419461 -1.51915 0
M  V30 2395 C 239.223 0.154346 -2.01109 0
M  V30 2396 C 239.536 1.45338 -1.30905 0
M  V30 2397 O 240.742 2.10906 -1.7097 0
M  V30 2398 C 239.198 0.325615 -3.58424 0
M  V30 2399 C 238.806 -0.961934 -4.37551 0
M  V30 2400 C 240.55 0.854155 -4.15818 0
M  V30 2401 C 238.457 -0.757287 -5.86531 0
M  V30 2402 H 237.387 0.0614563 -0.751491 0
M  V30 2403 H 240.038 -0.54649 -1.75173 0
M  V30 2404 H 238.42 1.08903 -3.80731 0
M  V30 2405 H 239.594 -1.7323 -4.26999 0
M  V30 2406 H 237.909 -1.41766 -3.91524 0
M  V30 2407 H 240.506 1.02346 -5.24814 0
M  V30 2408 H 240.849 1.83172 -3.73837 0
M  V30 2409 H 241.382 0.149528 -3.97519 0
M  V30 2410 H 238.121 -1.70671 -6.32892 0
M  V30 2411 H 237.641 -0.0264061 -5.99794 0
M  V30 2412 H 239.32 -0.403482 -6.45741 0
M  V30 2413 N 239.452 1.56882 -0.150215 0
M  V30 2414 C 240.68 2.00593 0.506948 0
M  V30 2415 C 241.095 1.03033 1.58208 0
M  V30 2416 O 240.452 0.0278396 1.82479 0
M  V30 2417 C 240.503 3.44209 1.10465 0
M  V30 2418 O 240.224 4.3804 0.0724636 0
M  V30 2419 C 241.725 4.03214 1.84211 0
M  V30 2420 H 238.945 0.65795 0.13169 0
M  V30 2421 H 241.489 2.03018 -0.245743 0
M  V30 2422 H 239.644 3.42625 1.80795 0
M  V30 2423 H 240.058 5.22007 0.510793 0
M  V30 2424 H 241.532 5.0569 2.21318 0
M  V30 2425 H 242.009 3.44107 2.72923 0
M  V30 2426 H 242.615 4.08437 1.18572 0
M  V30 2427 N 240.93 -0.123565 1.57115 0
M  V30 2428 C 242.341 -0.681198 1.73829 0
M  V30 2429 C 242.692 -1.80535 0.768214 0
M  V30 2430 O 241.817 -2.16317 -0.0599103 0
M  V30 2431 C 242.412 -1.24246 3.15196 0
M  V30 2432 C 240.971 -1.74643 3.33432 0
M  V30 2433 C 240.118 -0.644284 2.69711 0
M  V30 2434 H 243.069 0.102315 1.5837 0
M  V30 2435 H 243.09 -2.11216 3.16493 0
M  V30 2436 H 242.602 -0.424062 3.85776 0
M  V30 2437 H 240.703 -2.58974 2.67886 0
M  V30 2438 H 240.816 -1.85902 4.41562 0
M  V30 2439 H 239.18 -1.07676 2.3082 0
M  V30 2440 H 239.963 0.163058 3.42913 0
M  V30 2441 N 242.408 -1.52605 -0.393616 0
M  V30 2442 C 243.654 -1.67672 -1.14079 0
M  V30 2443 C 243.987 -0.413121 -1.89755 0
M  V30 2444 O 243.262 0.588952 -1.85369 0
M  V30 2445 C 243.545 -2.9088 -2.12276 0
M  V30 2446 C 243.398 -4.27329 -1.40394 0
M  V30 2447 C 244.717 -3.09628 -3.12759 0
M  V30 2448 H 241.836 -0.610168 -0.413356 0
M  V30 2449 H 244.478 -1.85193 -0.424696 0
M  V30 2450 H 242.628 -2.76073 -2.73342 0
M  V30 2451 H 244.3 -4.53894 -0.82327 0
M  V30 2452 H 242.543 -4.2802 -0.705801 0
M  V30 2453 H 243.214 -5.09615 -2.12123 0
M  V30 2454 H 245.69 -3.23436 -2.61779 0
M  V30 2455 H 244.566 -3.97322 -3.78717 0
M  V30 2456 H 244.827 -2.23637 -3.81365 0
M  V30 2457 N 243.887 0.651787 -1.4349 0
M  V30 2458 C 244.835 1.78586 -1.49029 0
M  V30 2459 C 245.829 1.65448 -0.363767 0
M  V30 2460 O 247.035 1.71777 -0.537821 0
M  V30 2461 H 243.41 0.589236 -0.467231 0
M  V30 2462 H 245.381 1.71035 -2.44519 0
M  V30 2463 C 244.13 3.16851 -1.43181 0
M  V30 2464 H 243.453 3.27598 -2.29171 0
M  V30 2465 H 244.893 3.96156 -1.51118 0
M  V30 2466 C 243.352 3.36568 -0.149616 0
M  V30 2467 O 243.882 3.93885 0.788509 0
M  V30 2468 N 242.088 2.90539 -0.0593484 0
M  V30 2469 H 241.635 2.4408 -0.823575 0
M  V30 2470 H 241.593 3.04108 0.797853 0
M  V30 2471 N 245.365 1.30045 0.890287 0
M  V30 2472 C 246.59 1.21598 1.68014 0
M  V30 2473 C 247.015 -0.218678 1.86825 0
M  V30 2474 O 246.373 -1.15756 1.39536 0
M  V30 2475 C 246.421 1.94434 3.03691 0
M  V30 2476 O 245.525 1.2678 3.92429 0
M  V30 2477 H 244.866 0.420856 0.513592 0
M  V30 2478 H 247.396 1.71775 1.11151 0
M  V30 2479 H 247.406 2.03251 3.5377 0
M  V30 2480 H 246.081 2.98777 2.89318 0
M  V30 2481 H 244.658 1.26282 3.50866 0
M  V30 2482 N 246.843 -1.10192 1.12674 0
M  V30 2483 C 247.773 -2.18652 0.819362 0
M  V30 2484 C 248.754 -1.68698 -0.217915 0
M  V30 2485 O 249.939 -1.94041 -0.0785581 0
M  V30 2486 C 247.069 -3.46202 0.27594 0
M  V30 2487 C 246.023 -4.09444 1.24656 0
M  V30 2488 C 245.349 -5.31725 0.563258 0
M  V30 2489 C 246.649 -4.52863 2.60217 0
M  V30 2490 H 248.343 -2.44622 1.72628 0
M  V30 2491 H 245.889 -1.17571 0.831451 0
M  V30 2492 H 247.842 -4.21372 0.0486149 0
M  V30 2493 H 246.566 -3.1973 -0.666331 0
M  V30 2494 H 245.225 -3.36284 1.45974 0
M  V30 2495 H 244.873 -5.0153 -0.384235 0
M  V30 2496 H 244.573 -5.74991 1.21075 0
M  V30 2497 H 246.097 -6.09624 0.34503 0
M  V30 2498 H 247.511 -5.19294 2.42913 0
M  V30 2499 H 245.908 -5.06986 3.21068 0
M  V30 2500 H 246.978 -3.65656 3.18471 0
M  V30 2501 N 248.321 -0.919034 -1.28029 0
M  V30 2502 C 249.231 -0.416756 -2.30869 0
M  V30 2503 C 250.247 0.498235 -1.66714 0
M  V30 2504 O 251.423 0.383144 -1.97722 0
M  V30 2505 C 248.488 0.330274 -3.45123 0
M  V30 2506 C 247.549 -0.618578 -4.2482 0
M  V30 2507 C 246.782 0.0928959 -5.33619 0
M  V30 2508 O 247.005 1.31375 -5.55065 0
M  V30 2509 O 245.939 -0.574499 -5.99152 0
M  V30 2510 H 249.765 -1.27043 -2.75851 0
M  V30 2511 H 247.35 -0.684052 -1.3282 0
M  V30 2512 H 249.232 0.751972 -4.14636 0
M  V30 2513 H 247.907 1.1597 -3.02213 0
M  V30 2514 H 246.814 -1.08978 -3.57875 0
M  V30 2515 H 248.147 -1.41497 -4.71423 0
M  V30 2516 N 249.799 1.42003 -0.683588 0
M  V30 2517 C 250.746 2.30798 -0.0107309 0
M  V30 2518 C 251.716 1.4645 0.783688 0
M  V30 2519 O 252.901 1.75263 0.754156 0
M  V30 2520 C 250.041 3.3238 0.928306 0
M  V30 2521 C 249.154 4.31814 0.126776 0
M  V30 2522 C 248.289 5.20468 1.06236 0
M  V30 2523 C 247.328 6.11577 0.253035 0
M  V30 2524 N 246.465 6.92754 1.14179 0
M  V30 2525 H 251.305 2.8778 -0.773727 0
M  V30 2526 H 248.842 1.41745 -0.393283 0
M  V30 2527 H 250.8 3.89813 1.48666 0
M  V30 2528 H 249.43 2.76976 1.65783 0
M  V30 2529 H 248.482 3.76427 -0.54833 0
M  V30 2530 H 249.794 4.96276 -0.501192 0
M  V30 2531 H 248.948 5.82677 1.69035 0
M  V30 2532 H 247.687 4.56204 1.7242 0
M  V30 2533 H 246.692 5.48428 -0.388108 0
M  V30 2534 H 247.917 6.77892 -0.404839 0
M  V30 2535 H 245.863 6.3111 1.78987 0
M  V30 2536 H 245.78 7.53855 0.569111 0
M  V30 2537 H 247.048 7.59441 1.75697 0
M  V30 2538 N 251.277 0.427512 1.51691 0
M  V30 2539 C 252.227 -0.406604 2.24345 0
M  V30 2540 C 253.211 -0.998276 1.26187 0
M  V30 2541 O 254.403 -0.918045 1.51331 0
M  V30 2542 C 251.532 -1.51266 3.08177 0
M  V30 2543 C 250.618 -0.930868 4.13758 0
M  V30 2544 N 251.009 -0.0773552 5.05741 0
M  V30 2545 C 249.307 -1.19948 4.29568 0
M  V30 2546 C 250.008 0.248344 5.8117 0
M  V30 2547 N 248.984 -0.365535 5.4237 0
M  V30 2548 H 252.786 0.251581 2.92821 0
M  V30 2549 H 250.3 0.239003 1.60632 0
M  V30 2550 H 252.297 -2.123 3.58796 0
M  V30 2551 H 250.957 -2.17328 2.41244 0
M  V30 2552 H 251.968 0.288351 5.17097 0
M  V30 2553 H 248.645 -1.85832 3.73862 0
M  V30 2554 H 250.035 0.942286 6.6526 0
M  V30 2555 N 252.755 -1.56801 0.158532 0
M  V30 2556 C 253.98 -2.01295 -0.499516 0
M  V30 2557 C 254.405 -1.03799 -1.56867 0
M  V30 2558 O 253.763 -0.0155162 -1.81293 0
M  V30 2559 C 253.811 -3.44469 -1.06647 0
M  V30 2560 O 252.915 -3.50012 -2.18095 0
M  V30 2561 H 252.256 -0.652884 -0.12099 0
M  V30 2562 H 254.786 -2.02958 0.258661 0
M  V30 2563 H 254.796 -3.8351 -1.39227 0
M  V30 2564 H 253.471 -4.14932 -0.283581 0
M  V30 2565 H 252.048 -3.22822 -1.86656 0
M  V30 2566 N 254.233 0.115231 -1.57178 0
M  V30 2567 C 255.479 0.818565 -1.86202 0
M  V30 2568 C 255.834 1.77316 -0.746785 0
M  V30 2569 O 255.127 1.89923 0.25291 0
M  V30 2570 C 255.321 1.60324 -3.19423 0
M  V30 2571 C 255.15 0.726138 -4.43799 0
M  V30 2572 C 253.92 0.379535 -5.03873 0
M  V30 2573 C 256.118 0.0420774 -5.14283 0
M  V30 2574 N 254.1 -0.507841 -6.11796 0
M  V30 2575 C 255.471 -0.704152 -6.15988 0
M  V30 2576 C 257.526 -0.0339486 -4.97888 0
M  V30 2577 C 256.229 -1.51927 -7.03072 0
M  V30 2578 C 258.255 -0.835906 -5.85463 0
M  V30 2579 C 257.617 -1.57031 -6.86673 0
M  V30 2580 H 253.716 0.276343 -0.731545 0
M  V30 2581 H 256.3 0.0821032 -1.94527 0
M  V30 2582 H 254.471 2.31072 -3.12186 0
M  V30 2583 H 256.203 2.2522 -3.36241 0
M  V30 2584 H 252.958 0.722634 -4.68054 0
M  V30 2585 H 253.382 -0.94349 -6.70393 0
M  V30 2586 H 258.024 0.519496 -4.19596 0
M  V30 2587 H 255.742 -2.08386 -7.80769 0
M  V30 2588 H 259.328 -0.89714 -5.74841 0
M  V30 2589 H 258.208 -2.18088 -7.53264 0
M  V30 2590 N 255.711 1.52812 0.385517 0
M  V30 2591 C 256.941 1.71658 1.14966 0
M  V30 2592 C 257.349 0.436253 1.84102 0
M  V30 2593 O 256.692 -0.599313 1.73649 0
M  V30 2594 C 256.754 2.81309 2.23843 0
M  V30 2595 C 256.418 4.22313 1.74644 0
M  V30 2596 C 257.415 5.05352 1.22129 0
M  V30 2597 C 255.1 4.68648 1.80761 0
M  V30 2598 C 257.094 6.32807 0.763838 0
M  V30 2599 C 254.781 5.96086 1.34627 0
M  V30 2600 C 255.779 6.77996 0.825264 0
M  V30 2601 O 255.467 8.03045 0.370669 0
M  V30 2602 H 255.199 0.578022 0.350523 0
M  V30 2603 H 257.753 2.00263 0.456509 0
M  V30 2604 H 255.983 2.48133 2.96592 0
M  V30 2605 H 257.672 2.88524 2.85497 0
M  V30 2606 H 258.438 4.70736 1.16758 0
M  V30 2607 H 254.317 4.04979 2.20256 0
M  V30 2608 H 257.861 6.96689 0.356494 0
M  V30 2609 H 253.758 6.30205 1.39686 0
M  V30 2610 H 254.526 8.17021 0.491829 0
M  V30 2611 N 257.189 -0.644168 1.43834 0
M  V30 2612 C 258.139 -1.7501 1.46135 0
M  V30 2613 C 259.123 -1.57507 0.328685 0
M  V30 2614 O 260.315 -1.67465 0.5731 0
M  V30 2615 C 257.444 -3.13641 1.39585 0
M  V30 2616 C 256.53 -3.3666 2.57916 0
M  V30 2617 N 256.921 -3.30107 3.83227 0
M  V30 2618 C 255.219 -3.67411 2.52834 0
M  V30 2619 C 255.92 -3.53456 4.61999 0
M  V30 2620 N 254.896 -3.75705 3.9287 0
M  V30 2621 H 258.698 -1.68382 2.40883 0
M  V30 2622 H 256.212 -0.846169 1.38614 0
M  V30 2623 H 258.209 -3.92933 1.39317 0
M  V30 2624 H 256.869 -3.21444 0.45865 0
M  V30 2625 H 257.88 -3.09316 4.15384 0
M  V30 2626 H 254.557 -3.82275 1.67845 0
M  V30 2627 H 255.947 -3.54093 5.71024 0
M  V30 2628 N 258.668 -1.30515 -0.883378 0
M  V30 2629 C 259.916 -1.19194 -1.63209 0
M  V30 2630 C 260.237 0.253205 -1.93349 0
M  V30 2631 O 259.507 1.17025 -1.57105 0
M  V30 2632 H 258.087 -0.438148 -0.605009 0
M  V30 2633 H 260.749 -1.63663 -1.05832 0
M  V30 2634 H 259.845 -1.75396 -2.58153 0
M  V30 2635 N 260.146 1.09593 -1.13257 0
M  V30 2636 C 261.557 1.63229 -0.906274 0
M  V30 2637 C 261.908 1.8811 0.557578 0
M  V30 2638 O 261.033 1.62953 1.42391 0
M  V30 2639 C 261.628 2.96535 -1.63867 0
M  V30 2640 C 260.187 3.47003 -1.45828 0
M  V30 2641 C 259.334 2.2145 -1.66898 0
M  V30 2642 H 262.285 0.92978 -1.28611 0
M  V30 2643 H 262.306 3.64411 -1.09476 0
M  V30 2644 H 261.818 2.78394 -2.70404 0
M  V30 2645 H 259.919 3.70272 -0.415848 0
M  V30 2646 H 260.032 4.24551 -2.2202 0
M  V30 2647 H 258.396 2.30022 -1.09371 0
M  V30 2648 H 259.179 2.0583 -2.74752 0
M  V30 2649 N 261.624 0.925811 1.2754 0
M  V30 2650 C 262.87 0.566092 1.94739 0
M  V30 2651 C 263.203 -0.890057 1.72603 0
M  V30 2652 O 262.478 -1.63467 1.05399 0
M  V30 2653 C 262.761 0.89054 3.48915 0
M  V30 2654 C 262.614 2.4003 3.80402 0
M  V30 2655 C 263.933 0.395101 4.38323 0
M  V30 2656 H 261.052 0.20714 0.707292 0
M  V30 2657 H 263.694 1.15725 1.50691 0
M  V30 2658 H 261.844 0.387452 3.86563 0
M  V30 2659 H 263.516 2.97494 3.52555 0
M  V30 2660 H 261.759 2.85028 3.2702 0
M  V30 2661 H 262.43 2.57785 4.8811 0
M  V30 2662 H 264.906 0.826241 4.07814 0
M  V30 2663 H 263.782 0.651086 5.45025 0
M  V30 2664 H 264.043 -0.704798 4.36446 0
M  V30 2665 N 263.102 -1.41638 0.69111 0
M  V30 2666 C 264.327 -2.06148 0.227583 0
M  V30 2667 C 264.752 -1.51652 -1.11281 0
M  V30 2668 O 264.11 -0.64164 -1.69566 0
M  V30 2669 C 264.158 -3.60095 0.190858 0
M  V30 2670 O 263.262 -4.03845 -0.835664 0
M  V30 2671 H 262.603 -0.654434 0.112306 0
M  V30 2672 H 265.133 -1.81484 0.944714 0
M  V30 2673 H 265.143 -4.07995 0.020207 0
M  V30 2674 H 263.818 -3.99129 1.16915 0
M  V30 2675 H 262.395 -3.67458 -0.63473 0
M  V30 2676 N 264.58 -0.43555 -1.51462 0
M  V30 2677 C 265.996 -0.0877501 -1.59359 0
M  V30 2678 C 266.196 1.4027 -1.4466 0
M  V30 2679 O 265.252 2.17243 -1.28693 0
M  V30 2680 C 266.565 -0.606264 -2.94525 0
M  V30 2681 C 268.113 -0.566548 -3.0783 0
M  V30 2682 C 268.588 -1.06201 -4.45517 0
M  V30 2683 N 270.079 -1.01992 -4.51832 0
M  V30 2684 C 270.814 -1.37417 -5.5669 0
M  V30 2685 N 270.31 -1.80119 -6.68976 0
M  V30 2686 N 272.103 -1.29245 -5.47039 0
M  V30 2687 H 264.254 -1.40533 -1.59261 0
M  V30 2688 H 266.517 -0.578992 -0.750648 0
M  V30 2689 H 266.223 -1.64901 -3.10645 0
M  V30 2690 H 266.097 -0.0302097 -3.77188 0
M  V30 2691 H 268.484 0.467208 -2.91378 0
M  V30 2692 H 268.565 -1.17898 -2.2701 0
M  V30 2693 H 268.209 -2.09422 -4.62715 0
M  V30 2694 H 268.139 -0.426127 -5.24873 0
M  V30 2695 H 270.63 -0.706308 -3.71241 0
M  V30 2696 H 270.943 -2.05392 -7.45006 0
M  V30 2697 H 269.288 -1.84044 -6.70189 0
M  V30 2698 H 272.479 -0.957522 -4.58202 0
M  V30 2699 H 272.652 -1.57182 -6.28648 0
M  V30 2700 N 266.058 1.56714 -0.166846 0
M  V30 2701 C 267.283 2.01557 0.488833 0
M  V30 2702 C 267.708 1.0463 1.56314 0
M  V30 2703 O 267.066 0.0251304 1.81283 0
M  V30 2704 C 267.114 3.4503 1.04818 0
M  V30 2705 O 266.218 3.51163 2.16236 0
M  V30 2706 H 265.559 0.653516 0.117526 0
M  V30 2707 H 268.089 2.02818 -0.269421 0
M  V30 2708 H 268.099 3.84243 1.37191 0
M  V30 2709 H 266.774 4.15077 0.261572 0
M  V30 2710 H 265.351 3.23807 1.84942 0
M  V30 2711 N 267.536 -0.106894 1.57237 0
M  V30 2712 C 268.499 -1.11466 2.0027 0
M  V30 2713 C 269.499 -1.33623 0.894519 0
M  V30 2714 O 270.689 -1.29935 1.16028 0
M  V30 2715 C 267.821 -2.46646 2.35327 0
M  V30 2716 H 269.014 -0.744516 2.90512 0
M  V30 2717 H 266.567 -0.351576 1.52295 0
M  V30 2718 H 267.302 -2.88558 1.48003 0
M  V30 2719 H 267.087 -2.31915 3.16161 0
M  V30 2720 H 268.577 -3.19151 2.69318 0
M  V30 2721 N 269.014 -1.53014 -0.377408 0
M  V30 2722 C 269.977 -1.77957 -1.44444 0
M  V30 2723 C 270.977 -0.649763 -1.47087 0
M  V30 2724 O 272.167 -0.917897 -1.48055 0
M  V30 2725 C 269.299 -1.89089 -2.83651 0
M  V30 2726 H 270.492 -2.73243 -1.23606 0
M  V30 2727 H 268.045 -1.43912 -0.609844 0
M  V30 2728 H 268.78 -0.958293 -3.09818 0
M  V30 2729 H 268.565 -2.71254 -2.83132 0
M  V30 2730 H 270.055 -2.1002 -3.60945 0
M  V30 2731 N 270.492 0.636531 -1.44174 0
M  V30 2732 C 271.402 1.77754 -1.53103 0
M  V30 2733 C 272.418 1.68928 -0.417034 0
M  V30 2734 O 273.594 1.89801 -0.6736 0
M  V30 2735 C 270.659 3.14115 -1.46741 0
M  V30 2736 C 269.72 3.34612 -2.68948 0
M  V30 2737 C 268.953 4.64467 -2.6288 0
M  V30 2738 O 269.176 5.44919 -1.68581 0
M  V30 2739 O 268.11 4.87049 -3.53648 0
M  V30 2740 H 271.936 1.73174 -2.49489 0
M  V30 2741 H 269.521 0.79709 -1.2636 0
M  V30 2742 H 271.403 3.95412 -1.45696 0
M  V30 2743 H 270.078 3.19249 -0.534975 0
M  V30 2744 H 268.985 2.53014 -2.75562 0
M  V30 2745 H 270.318 3.34336 -3.61221 0
M  V30 2746 N 271.97 1.30982 0.876444 0
M  V30 2747 C 273.2 1.23063 1.65949 0
M  V30 2748 C 273.608 -0.207537 1.88058 0
M  V30 2749 O 272.951 -1.14781 1.43426 0
M  V30 2750 C 273.013 1.89768 3.05333 0
M  V30 2751 C 272.677 3.39106 3.0636 0
M  V30 2752 C 273.674 4.3496 2.84791 0
M  V30 2753 C 271.359 3.80693 3.27686 0
M  V30 2754 C 273.353 5.70375 2.84519 0
M  V30 2755 C 271.04 5.16223 3.27043 0
M  V30 2756 C 272.038 6.10875 3.05485 0
M  V30 2757 O 271.726 7.43928 3.04674 0
M  V30 2758 H 271.458 0.426685 0.524324 0
M  V30 2759 H 274.012 1.7329 1.10271 0
M  V30 2760 H 272.242 1.34082 3.6271 0
M  V30 2761 H 273.931 1.75853 3.65829 0
M  V30 2762 H 274.697 4.0416 2.68103 0
M  V30 2763 H 270.576 3.07457 3.43499 0
M  V30 2764 H 274.12 6.44228 2.67611 0
M  V30 2765 H 270.017 5.4666 3.43269 0
M  V30 2766 H 270.785 7.53022 3.2078 0
M  V30 2767 N 273.449 -1.08991 1.13837 0
M  V30 2768 C 274.379 -2.17771 0.842507 0
M  V30 2769 C 275.36 -1.6892 -0.20001 0
M  V30 2770 O 276.545 -1.94113 -0.0579731 0
M  V30 2771 C 273.675 -3.4589 0.312644 0
M  V30 2772 C 272.629 -4.08099 1.28992 0
M  V30 2773 C 271.955 -5.31098 0.619623 0
M  V30 2774 C 273.255 -4.50077 2.65005 0
M  V30 2775 H 274.949 -2.42777 1.75213 0
M  V30 2776 H 272.495 -1.16682 0.843875 0
M  V30 2777 H 274.448 -4.21297 0.0933043 0
M  V30 2778 H 273.172 -3.20419 -0.632382 0
M  V30 2779 H 271.831 -3.34717 1.49533 0
M  V30 2780 H 271.479 -5.0191 -0.33102 0
M  V30 2781 H 271.179 -5.73674 1.27167 0
M  V30 2782 H 272.703 -6.09224 0.409669 0
M  V30 2783 H 274.117 -5.16688 2.48407 0
M  V30 2784 H 272.514 -5.03553 3.26427 0
M  V30 2785 H 273.584 -3.62257 3.22332 0
M  V30 2786 N 274.927 -0.932562 -1.27047 0
M  V30 2787 C 275.857 -0.452902 -2.29066 0
M  V30 2788 C 276.838 0.489338 -1.62909 0
M  V30 2789 O 278.023 0.393046 -1.90181 0
M  V30 2790 C 275.153 0.290698 -3.46081 0
M  V30 2791 C 274.107 -0.564168 -4.24265 0
M  V30 2792 C 273.433 0.308886 -5.33807 0
M  V30 2793 C 274.733 -1.83112 -4.89149 0
M  V30 2794 H 276.427 -1.30552 -2.69437 0
M  V30 2795 H 273.973 -0.629201 -1.29526 0
M  V30 2796 H 275.926 0.637233 -4.16554 0
M  V30 2797 H 274.65 1.17738 -3.0464 0
M  V30 2798 H 273.309 -0.893477 -3.55545 0
M  V30 2799 H 272.957 1.19467 -4.88607 0
M  V30 2800 H 272.657 -0.259633 -5.87026 0
M  V30 2801 H 274.181 0.650884 -6.07121 0
M  V30 2802 H 275.595 -1.55236 -5.51883 0
M  V30 2803 H 273.992 -2.34353 -5.52448 0
M  V30 2804 H 275.062 -2.54772 -4.12576 0
M  V30 2805 N 276.405 1.4127 -0.698611 0
M  V30 2806 C 277.63 2.06024 -0.238512 0
M  V30 2807 C 278.055 1.5224 1.10475 0
M  V30 2808 O 277.413 0.650623 1.69223 0
M  V30 2809 C 277.461 3.59988 -0.209952 0
M  V30 2810 O 276.565 4.04282 0.814235 0
M  V30 2811 H 275.906 0.653829 -0.115775 0
M  V30 2812 H 278.436 1.8098 -0.954326 0
M  V30 2813 H 278.446 4.07979 -0.0418436 0
M  V30 2814 H 277.121 3.98503 -1.1903 0
M  V30 2815 H 275.698 3.6779 0.615234 0
M  V30 2816 N 277.883 0.443576 1.51229 0
M  V30 2817 C 279.108 -0.121648 2.07043 0
M  V30 2818 C 279.533 -1.35156 1.30823 0
M  V30 2819 O 278.891 -1.7793 0.347934 0
M  V30 2820 C 278.939 -0.41624 3.5819 0
M  V30 2821 O 278.043 -1.50163 3.8409 0
M  V30 2822 H 277.384 0.000871367 0.663999 0
M  V30 2823 H 279.914 0.626706 1.94765 0
M  V30 2824 H 279.924 -0.664867 4.02546 0
M  V30 2825 H 278.599 0.482653 4.1309 0
M  V30 2826 H 277.176 -1.24248 3.51592 0
M  V30 2827 N 279.361 -1.56624 0.175154 0
M  V30 2828 C 280.291 -2.21155 -0.749195 0
M  V30 2829 C 281.272 -1.16836 -1.23626 0
M  V30 2830 O 282.457 -1.45277 -1.28873 0
M  V30 2831 C 279.587 -2.8553 -1.97711 0
M  V30 2832 C 278.541 -3.95921 -1.62575 0
M  V30 2833 C 277.867 -4.47365 -2.92864 0
M  V30 2834 C 279.167 -5.15323 -0.850838 0
M  V30 2835 H 280.861 -2.98653 -0.211295 0
M  V30 2836 H 278.407 -1.43651 -0.100188 0
M  V30 2837 H 280.36 -3.2935 -2.62881 0
M  V30 2838 H 279.084 -2.05406 -2.53921 0
M  V30 2839 H 277.743 -3.52762 -0.997719 0
M  V30 2840 H 277.391 -3.64027 -3.47122 0
M  V30 2841 H 277.091 -5.21839 -2.70106 0
M  V30 2842 H 278.615 -4.93873 -3.59056 0
M  V30 2843 H 280.029 -5.55812 -1.40521 0
M  V30 2844 H 278.426 -5.95739 -0.722154 0
M  V30 2845 H 279.496 -4.84661 0.152082 0
M  V30 2846 N 280.839 0.0985539 -1.57292 0
M  V30 2847 C 282.088 0.801358 -1.85098 0
M  V30 2848 C 282.401 1.80066 -0.763902 0
M  V30 2849 O 283.607 2.55112 -0.928981 0
M  V30 2850 C 282.063 1.47599 -3.28242 0
M  V30 2851 C 281.671 0.516624 -4.45011 0
M  V30 2852 C 283.415 2.16272 -3.65276 0
M  V30 2853 C 281.322 1.19564 -5.79188 0
M  V30 2854 H 280.252 0.303022 -0.69043 0
M  V30 2855 H 282.903 0.0542623 -1.8342 0
M  V30 2856 H 281.285 2.27042 -3.2445 0
M  V30 2857 H 282.459 -0.246065 -4.60143 0
M  V30 2858 H 280.774 -0.064227 -4.1635 0
M  V30 2859 H 283.371 2.67802 -4.62803 0
M  V30 2860 H 283.714 2.95009 -2.93727 0
M  V30 2861 H 284.247 1.43693 -3.70941 0
M  V30 2862 H 280.986 0.449157 -6.53959 0
M  V30 2863 H 280.506 1.92984 -5.67906 0
M  V30 2864 H 282.185 1.7231 -6.23633 0
M  V30 2865 N 282.317 1.53212 0.369288 0
M  V30 2866 C 283.265 1.80054 1.47253 0
M  V30 2867 C 284.259 0.669456 1.55611 0
M  V30 2868 O 285.465 0.852328 1.58541 0
M  V30 2869 H 281.84 0.570034 0.490475 0
M  V30 2870 H 283.811 2.72403 1.21817 0
M  V30 2871 C 282.56 2.00403 2.84137 0
M  V30 2872 H 281.883 2.86876 2.78464 0
M  V30 2873 H 283.323 2.23164 3.60519 0
M  V30 2874 C 281.782 0.782081 3.27697 0
M  V30 2875 O 282.312 -0.0310205 4.01688 0
M  V30 2876 N 280.518 0.606573 2.84199 0
M  V30 2877 H 280.065 1.26939 2.24152 0
M  V30 2878 H 280.023 -0.20962 3.137 0
M  V30 2879 N 283.795 -0.628877 1.44509 0
M  V30 2880 C 285.043 -1.38565 1.4712 0
M  V30 2881 C 285.364 -1.94712 0.105899 0
M  V30 2882 O 284.634 -1.75912 -0.862079 0
M  V30 2883 H 283.214 -0.514333 0.541729 0
M  V30 2884 H 285.876 -0.740018 1.80305 0
M  V30 2885 H 284.972 -2.21583 2.19789 0
M  V30 2886 N 285.273 -1.31445 -0.869486 0
M  V30 2887 C 286.498 -1.24256 -1.66058 0
M  V30 2888 C 286.923 0.188928 -1.87149 0
M  V30 2889 O 286.281 1.13522 -1.4136 0
M  V30 2890 C 286.329 -1.9924 -3.00559 0
M  V30 2891 O 285.433 -1.33007 -3.90362 0
M  V30 2892 H 284.774 -0.428973 -0.506831 0
M  V30 2893 H 287.304 -1.73521 -1.08404 0
M  V30 2894 H 287.314 -2.08854 -3.50491 0
M  V30 2895 H 285.989 -3.03342 -2.84528 0
M  V30 2896 H 284.566 -1.31848 -3.48813 0
M  V30 2897 N 286.751 1.08385 -1.14413 0
M  V30 2898 C 287.998 1.80776 -0.912482 0
M  V30 2899 C 288.326 1.86236 0.560934 0
M  V30 2900 O 287.581 1.33431 1.43159 0
M  V30 2901 C 287.88 3.26273 -1.45879 0
M  V30 2902 C 287.546 3.4093 -2.95089 0
M  V30 2903 C 286.208 3.44638 -3.35824 0
M  V30 2904 C 288.56 3.44591 -3.91033 0
M  V30 2905 C 285.888 3.49597 -4.71167 0
M  V30 2906 C 288.24 3.51086 -5.26233 0
M  V30 2907 C 286.904 3.53067 -5.6648 0
M  V30 2908 H 286.174 0.661507 -0.333901 0
M  V30 2909 H 288.821 1.27613 -1.42784 0
M  V30 2910 H 287.126 3.82146 -0.864376 0
M  V30 2911 H 288.823 3.80839 -1.2555 0
M  V30 2912 H 285.413 3.38736 -2.62594 0
M  V30 2913 H 289.597 3.40957 -3.60641 0
M  V30 2914 H 284.853 3.49424 -5.0171 0
M  V30 2915 H 289.027 3.52864 -6.00383 0
M  V30 2916 H 286.654 3.56662 -6.71339 0
M  V30 2917 N 288.23 0.939286 1.26551 0
M  V30 2918 C 289.16 0.465044 2.28822 0
M  V30 2919 C 290.141 -0.480692 1.63167 0
M  V30 2920 O 291.326 -0.382955 1.90387 0
M  V30 2921 C 288.456 -0.27234 3.46231 0
M  V30 2922 C 287.41 0.58666 4.2396 0
M  V30 2923 C 286.736 -0.280573 5.33963 0
M  V30 2924 C 288.036 1.85704 4.88171 0
M  V30 2925 H 289.73 1.31979 2.68741 0
M  V30 2926 H 287.276 0.636061 1.29191 0
M  V30 2927 H 289.229 -0.615133 4.16886 0
M  V30 2928 H 287.953 -1.16121 3.0526 0
M  V30 2929 H 286.612 0.91232 3.55067 0
M  V30 2930 H 286.26 -1.16874 4.89234 0
M  V30 2931 H 285.96 0.29076 5.8688 0
M  V30 2932 H 287.484 -0.618678 6.07458 0
M  V30 2933 H 288.898 1.58161 5.51052 0
M  V30 2934 H 287.295 2.37279 5.51197 0
M  V30 2935 H 288.365 2.56957 4.11219 0
M  V30 2936 N 289.708 -1.40897 0.706093 0
M  V30 2937 C 290.954 -2.01352 0.241889 0
M  V30 2938 C 291.287 -1.55832 -1.15888 0
M  V30 2939 O 290.562 -0.774145 -1.7843 0
M  V30 2940 C 290.845 -3.58752 0.311311 0
M  V30 2941 C 290.698 -4.1437 1.74978 0
M  V30 2942 C 292.017 -4.38914 -0.322922 0
M  V30 2943 H 289.136 -0.731562 0.0893687 0
M  V30 2944 H 291.778 -1.67504 0.896802 0
M  V30 2945 H 289.928 -3.87718 -0.246302 0
M  V30 2946 H 291.6 -3.96239 2.36205 0
M  V30 2947 H 289.843 -3.69016 2.28057 0
M  V30 2948 H 290.514 -5.23532 1.74981 0
M  V30 2949 H 292.99 -4.15822 0.152089 0
M  V30 2950 H 291.866 -5.48358 -0.243855 0
M  V30 2951 H 292.127 -4.19176 -1.40513 0
M  V30 2952 N 291.186 -0.45159 -1.50991 0
M  V30 2953 C 292.602 -0.104647 -1.59257 0
M  V30 2954 C 292.802 1.38728 -1.4614 0
M  V30 2955 O 291.858 2.15866 -1.30989 0
M  V30 2956 C 293.171 -0.637468 -2.93865 0
M  V30 2957 C 294.719 -0.599166 -3.07212 0
M  V30 2958 C 295.194 -1.1092 -4.44366 0
M  V30 2959 N 296.685 -1.06778 -4.50725 0
M  V30 2960 C 297.42 -1.43314 -5.55201 0
M  V30 2961 N 296.916 -1.87204 -6.67028 0
M  V30 2962 N 298.709 -1.3504 -5.45638 0
M  V30 2963 H 290.86 -1.42214 -1.57762 0
M  V30 2964 H 293.123 -0.586921 -0.744465 0
M  V30 2965 H 292.829 -1.68187 -3.08879 0
M  V30 2966 H 292.703 -0.0702139 -3.77135 0
M  V30 2967 H 295.09 0.436277 -2.91857 0
M  V30 2968 H 295.171 -1.20299 -2.25747 0
M  V30 2969 H 294.815 -2.14318 -4.60467 0
M  V30 2970 H 294.745 -0.481773 -5.24392 0
M  V30 2971 H 297.236 -0.745643 -3.70471 0
M  V30 2972 H 297.549 -2.13282 -7.42786 0
M  V30 2973 H 295.894 -1.91142 -6.68199 0
M  V30 2974 H 299.085 -1.00607 -4.57161 0
M  V30 2975 H 299.258 -1.63841 -6.26945 0
M  V30 2976 N 292.664 1.56529 -0.183458 0
M  V30 2977 C 293.574 2.22144 0.754272 0
M  V30 2978 C 294.59 1.21684 1.24374 0
M  V30 2979 O 295.766 1.54385 1.29333 0
M  V30 2980 C 292.831 2.85884 1.96141 0
M  V30 2981 C 291.892 4.01579 1.51765 0
M  V30 2982 C 291.125 4.6227 2.66725 0
M  V30 2983 O 291.348 4.21865 3.83909 0
M  V30 2984 O 290.282 5.51936 2.40104 0
M  V30 2985 H 294.108 3.02861 0.225527 0
M  V30 2986 H 291.693 1.49331 0.0453032 0
M  V30 2987 H 293.575 3.26253 2.66715 0
M  V30 2988 H 292.25 2.08154 2.47899 0
M  V30 2989 H 291.157 3.65856 0.781049 0
M  V30 2990 H 292.49 4.80938 1.04686 0
M  V30 2991 N 294.142 -0.090211 1.57342 0
M  V30 2992 C 295.367 -0.810082 1.90925 0
M  V30 2993 C 295.792 -1.71248 0.778187 0
M  V30 2994 O 295.15 -1.79278 -0.269991 0
M  V30 2995 C 295.198 -1.59529 3.23393 0
M  V30 2996 O 294.302 -2.70461 3.11327 0
M  V30 2997 H 293.643 -0.222231 0.625707 0
M  V30 2998 H 296.173 -0.0639716 2.045 0
M  V30 2999 H 296.183 -1.97847 3.5682 0
M  V30 3000 H 294.858 -0.933055 4.05299 0
M  V30 3001 H 293.435 -2.35135 2.89423 0
M  V30 3002 N 295.62 -1.53406 -0.361157 0
M  V30 3003 C 296.53 -1.83122 -1.4664 0
M  V30 3004 C 297.546 -0.719943 -1.58407 0
M  V30 3005 O 298.722 -1.01046 -1.74218 0
M  V30 3006 C 295.787 -2.01891 -2.81853 0
M  V30 3007 C 294.848 -3.25784 -2.79577 0
M  V30 3008 C 294.081 -3.43648 -4.0834 0
M  V30 3009 O 294.304 -2.65714 -5.0473 0
M  V30 3010 O 293.238 -4.37018 -4.13883 0
M  V30 3011 H 297.064 -2.7703 -1.24451 0
M  V30 3012 H 294.649 -1.38841 -0.551678 0
M  V30 3013 H 296.531 -2.15782 -3.61962 0
M  V30 3014 H 295.206 -1.11173 -3.0401 0
M  V30 3015 H 294.113 -3.17312 -1.98151 0
M  V30 3016 H 295.446 -4.16439 -2.62373 0
M  V30 3017 N 297.098 0.621204 -1.44841 0
M  V30 3018 C 298.323 1.41244 -1.51871 0
M  V30 3019 C 298.748 1.87519 -0.147764 0
M  V30 3020 O 298.106 1.59334 0.865 0
M  V30 3021 C 298.154 2.60221 -2.49634 0
M  V30 3022 O 297.258 3.60395 -2.00473 0
M  V30 3023 H 296.599 0.42223 -0.512463 0
M  V30 3024 H 299.129 0.757305 -1.90069 0
M  V30 3025 H 299.139 3.0764 -2.67996 0
M  V30 3026 H 297.814 2.25887 -3.4921 0
M  V30 3027 H 296.391 3.19717 -1.91925 0
M  V30 3028 N 298.576 1.31904 0.862503 0
M  V30 3029 C 299.801 1.25135 1.65397 0
M  V30 3030 C 300.226 -0.179 1.87246 0
M  V30 3031 O 299.584 -1.1277 1.4196 0
M  V30 3032 C 299.632 2.00832 2.99498 0
M  V30 3033 O 298.736 1.35075 3.89652 0
M  V30 3034 H 298.077 0.431655 0.504549 0
M  V30 3035 H 300.607 1.74094 1.07483 0
M  V30 3036 H 300.617 2.10709 3.49379 0
M  V30 3037 H 299.292 3.04847 2.82916 0
M  V30 3038 H 297.869 1.33696 3.48109 0
M  V30 3039 N 300.054 -1.07777 1.14986 0
M  V30 3040 C 301.465 -1.61766 0.932127 0
M  V30 3041 C 301.816 -1.88974 -0.527581 0
M  V30 3042 O 300.941 -1.65198 -1.39781 0
M  V30 3043 C 301.536 -2.93891 1.68563 0
M  V30 3044 C 300.095 -3.44639 1.5133 0
M  V30 3045 C 299.242 -2.18767 1.704 0
M  V30 3046 H 302.193 -0.909201 1.30074 0
M  V30 3047 H 302.214 -3.62623 1.15259 0
M  V30 3048 H 301.726 -2.74057 2.74799 0
M  V30 3049 H 299.827 -3.69564 0.474702 0
M  V30 3050 H 299.94 -4.20966 2.28746 0
M  V30 3051 H 298.304 -2.28253 1.13016 0
M  V30 3052 H 299.087 -2.01433 2.77992 0
M  V30 3053 N 301.532 -0.945985 -1.26051 0
M  V30 3054 C 302.78 -0.594941 -1.93145 0
M  V30 3055 C 303.101 0.86953 -1.7454 0
M  V30 3056 O 302.371 1.61838 -1.10387 0
M  V30 3057 H 300.951 -0.217044 -0.714773 0
M  V30 3058 H 303.613 -1.20235 -1.53393 0
M  V30 3059 H 302.709 -0.816835 -3.01221 0
M  V30 3060 N 303.011 1.40521 -0.713556 0
M  V30 3061 C 303.943 2.29191 -0.0203126 0
M  V30 3062 C 304.956 1.45723 0.725864 0
M  V30 3063 O 306.145 1.69033 0.573581 0
M  V30 3064 C 303.245 3.2395 0.995486 0
M  V30 3065 C 302.418 4.36262 0.315256 0
M  V30 3066 C 301.477 5.11474 1.23616 0
M  V30 3067 O 300.503 5.64606 0.721719 0
M  V30 3068 N 301.705 5.20638 2.56743 0
M  V30 3069 H 304.47 2.89327 -0.781652 0
M  V30 3070 H 302.031 1.51869 -0.561022 0
M  V30 3071 H 304.023 3.71137 1.61368 0
M  V30 3072 H 302.593 2.64995 1.6582 0
M  V30 3073 H 301.813 3.91228 -0.483106 0
M  V30 3074 H 303.101 5.08558 -0.157004 0
M  V30 3075 H 302.499 4.7895 3.01037 0
M  V30 3076 H 301.056 5.71339 3.13712 0
M  V30 3077 N 304.489 0.459591 1.5075 0
M  V30 3078 C 305.419 -0.330644 2.31147 0
M  V30 3079 C 306.4 -1.00087 1.37538 0
M  V30 3080 O 307.585 -1.00025 1.66459 0
M  V30 3081 C 304.715 -1.41958 3.16962 0
M  V30 3082 C 303.669 -0.871608 4.19031 0
M  V30 3083 C 302.995 -2.05797 4.9351 0
M  V30 3084 C 304.295 0.109251 5.22186 0
M  V30 3085 H 305.989 0.340336 2.97459 0
M  V30 3086 H 303.535 0.165119 1.4305 0
M  V30 3087 H 305.488 -1.9798 3.71997 0
M  V30 3088 H 304.212 -2.11917 2.48513 0
M  V30 3089 H 302.871 -0.333442 3.6508 0
M  V30 3090 H 302.519 -2.74427 4.21544 0
M  V30 3091 H 302.219 -1.6976 5.62544 0
M  V30 3092 H 303.743 -2.62331 5.51375 0
M  V30 3093 H 305.157 -0.361405 5.7216 0
M  V30 3094 H 303.554 0.383316 5.98875 0
M  V30 3095 H 304.624 1.03887 4.73641 0
M  V30 3096 N 305.967 -1.56429 0.191757 0
M  V30 3097 C 307.192 -2.02309 -0.456706 0
M  V30 3098 C 307.617 -1.07103 -1.5463 0
M  V30 3099 O 306.975 -0.0539677 -1.8122 0
M  V30 3100 C 307.023 -3.46654 -0.993159 0
M  V30 3101 O 306.127 -3.54559 -2.10622 0
M  V30 3102 H 305.468 -0.655303 -0.107114 0
M  V30 3103 H 307.998 -2.02364 0.301653 0
M  V30 3104 H 308.008 -3.86377 -1.31061 0
M  V30 3105 H 306.683 -4.1544 -0.195504 0
M  V30 3106 H 305.26 -3.26708 -1.79767 0
M  V30 3107 N 307.445 0.0818655 -1.57387 0
M  V30 3108 C 308.694 0.781681 -1.85937 0
M  V30 3109 C 309.007 1.79246 -0.782957 0
M  V30 3110 O 310.213 2.54112 -0.955987 0
M  V30 3111 C 308.669 1.44109 -3.29789 0
M  V30 3112 C 308.277 0.469396 -4.45534 0
M  V30 3113 C 310.021 2.12386 -3.67549 0
M  V30 3114 C 307.928 1.13415 -5.80423 0
M  V30 3115 H 306.858 0.295682 -0.693605 0
M  V30 3116 H 309.509 0.0348051 -1.83467 0
M  V30 3117 H 307.891 2.23588 -3.2684 0
M  V30 3118 H 309.065 -0.294856 -4.59856 0
M  V30 3119 H 307.38 -0.108383 -4.16259 0
M  V30 3120 H 309.977 2.62878 -4.65617 0
M  V30 3121 H 310.32 2.91877 -2.96839 0
M  V30 3122 H 310.853 1.39751 -3.72444 0
M  V30 3123 H 307.592 0.379771 -6.54399 0
M  V30 3124 H 307.112 1.8695 -5.69921 0
M  V30 3125 H 308.791 1.65686 -6.25426 0
M  V30 3126 N 308.923 1.53595 0.353017 0
M  V30 3127 C 310.148 1.7462 1.11904 0
M  V30 3128 C 310.573 0.479721 1.8188 0
M  V30 3129 O 309.931 -0.567066 1.72204 0
M  V30 3130 C 309.979 2.92029 2.11545 0
M  V30 3131 O 309.083 2.61516 3.18878 0
M  V30 3132 H 308.424 0.579531 0.324099 0
M  V30 3133 H 310.954 2.00525 0.406301 0
M  V30 3134 H 310.964 3.18551 2.5493 0
M  V30 3135 H 309.639 3.83888 1.60008 0
M  V30 3136 H 308.216 2.45852 2.80377 0
M  V30 3137 N 310.401 -0.613514 1.45168 0
M  V30 3138 C 311.331 -1.7354 1.56225 0
M  V30 3139 C 312.312 -1.64981 0.41414 0
M  V30 3140 O 313.497 -1.83472 0.636526 0
M  V30 3141 C 310.627 -3.12128 1.52295 0
M  V30 3142 C 309.581 -3.35491 2.65762 0
M  V30 3143 C 308.907 -4.74291 2.46885 0
M  V30 3144 C 310.207 -3.26325 4.0781 0
M  V30 3145 H 311.901 -1.64543 2.50132 0
M  V30 3146 H 309.447 -0.790185 1.20383 0
M  V30 3147 H 311.4 -3.90404 1.58628 0
M  V30 3148 H 310.124 -3.2195 0.549139 0
M  V30 3149 H 308.783 -2.59603 2.58847 0
M  V30 3150 H 308.431 -4.80839 1.47657 0
M  V30 3151 H 308.131 -4.9088 3.22972 0
M  V30 3152 H 309.655 -5.54775 2.55063 0
M  V30 3153 H 311.069 -3.94483 4.16 0
M  V30 3154 H 309.466 -3.54445 4.8424 0
M  V30 3155 H 310.536 -2.23855 4.30136 0
M  V30 3156 N 311.879 -1.3236 -0.855495 0
M  V30 3157 C 313.295 -1.11332 -1.14356 0
M  V30 3158 C 313.495 0.106751 -2.01217 0
M  V30 3159 O 312.551 0.791891 -2.39761 0
M  V30 3160 C 313.864 -2.39237 -1.82171 0
M  V30 3161 C 315.412 -2.44986 -1.9481 0
M  V30 3162 C 315.887 -3.7281 -2.66039 0
M  V30 3163 N 317.378 -3.73787 -2.73565 0
M  V30 3164 C 318.113 -4.69394 -3.29327 0
M  V30 3165 N 317.609 -5.75367 -3.85907 0
M  V30 3166 N 319.402 -4.56893 -3.27423 0
M  V30 3167 H 311.553 -2.10586 -0.277027 0
M  V30 3168 H 313.816 -0.929701 -0.185364 0
M  V30 3169 H 313.522 -3.28431 -1.25802 0
M  V30 3170 H 313.396 -2.50134 -2.82335 0
M  V30 3171 H 315.783 -1.56252 -2.50338 0
M  V30 3172 H 315.864 -2.38043 -0.936448 0
M  V30 3173 H 315.508 -4.61918 -2.11174 0
M  V30 3174 H 315.438 -3.77024 -3.67642 0
M  V30 3175 H 317.929 -2.97189 -2.33424 0
M  V30 3176 H 318.242 -6.44378 -4.26611 0
M  V30 3177 H 316.587 -5.79123 -3.84242 0
M  V30 3178 H 319.778 -3.73269 -2.82467 0
M  V30 3179 H 319.951 -5.31577 -3.7058 0
M  V30 3180 N 313.357 1.07166 -1.15556 0
M  V30 3181 C 314.587 1.83248 -0.954133 0
M  V30 3182 C 314.995 1.82449 0.500911 0
M  V30 3183 O 314.338 1.23575 1.35923 0
M  V30 3184 C 314.4 3.31393 -1.39351 0
M  V30 3185 C 314.064 3.5591 -2.86666 0
M  V30 3186 C 315.061 3.49695 -3.8472 0
M  V30 3187 C 312.746 3.83515 -3.24379 0
M  V30 3188 C 314.74 3.70737 -5.18491 0
M  V30 3189 C 312.427 4.04209 -4.58321 0
M  V30 3190 C 313.425 3.97815 -5.55186 0
M  V30 3191 O 313.113 4.17954 -6.86709 0
M  V30 3192 H 312.845 0.584941 -0.338851 0
M  V30 3193 H 315.399 1.36169 -1.53777 0
M  V30 3194 H 313.629 3.79292 -0.75329 0
M  V30 3195 H 315.318 3.88945 -1.16089 0
M  V30 3196 H 316.084 3.28368 -3.56931 0
M  V30 3197 H 311.963 3.87605 -2.49567 0
M  V30 3198 H 315.507 3.65663 -5.94085 0
M  V30 3199 H 311.404 4.25023 -4.85825 0
M  V30 3200 H 312.172 4.35291 -6.93155 0
M  V30 3201 N 314.835 0.952656 1.25548 0
M  V30 3202 C 315.745 0.47782 2.29682 0
M  V30 3203 C 316.761 -0.453859 1.67977 0
M  V30 3204 O 317.937 -0.330587 1.98668 0
M  V30 3205 C 315.002 -0.238655 3.45878 0
M  V30 3206 C 314.063 0.730994 4.23031 0
M  V30 3207 C 313.296 0.0486165 5.33678 0
M  V30 3208 O 313.519 -1.16612 5.58353 0
M  V30 3209 O 312.453 0.733152 5.97418 0
M  V30 3210 H 316.279 1.34312 2.72386 0
M  V30 3211 H 313.864 0.719026 1.30959 0
M  V30 3212 H 315.746 -0.641774 4.16484 0
M  V30 3213 H 314.421 -1.07916 3.05181 0
M  V30 3214 H 313.328 1.18428 3.5486 0
M  V30 3215 H 314.661 1.53946 4.67506 0
M  V30 3216 N 316.313 -1.40141 0.720998 0
M  V30 3217 C 317.561 -2.0039 0.262323 0
M  V30 3218 C 317.882 -1.57469 -1.15015 0
M  V30 3219 O 317.152 -0.816582 -1.78069 0
M  V30 3220 H 315.732 -0.741063 0.093996 0
M  V30 3221 H 318.394 -1.71398 0.927835 0
M  V30 3222 H 317.49 -3.10658 0.299671 0
M  V30 3223 N 317.792 -0.46758 -1.50504 0
M  V30 3224 C 319.208 -0.121533 -1.59137 0
M  V30 3225 C 319.408 1.3717 -1.47603 0
M  V30 3226 O 318.464 2.14464 -1.33272 0
M  V30 3227 C 319.777 -0.6686 -2.93173 0
M  V30 3228 C 321.325 -0.631716 -3.06559 0
M  V30 3229 C 321.8 -1.15627 -4.43164 0
M  V30 3230 N 323.291 -1.11553 -4.49567 0
M  V30 3231 C 324.026 -1.49195 -5.5365 0
M  V30 3232 N 323.522 -1.94269 -6.65005 0
M  V30 3233 N 325.315 -1.4082 -5.44175 0
M  V30 3234 H 317.466 -1.4388 -1.56245 0
M  V30 3235 H 319.729 -0.594784 -0.738198 0
M  V30 3236 H 319.435 -1.71453 -3.07078 0
M  V30 3237 H 319.309 -0.11021 -3.77039 0
M  V30 3238 H 321.696 0.405297 -2.92304 0
M  V30 3239 H 321.777 -1.22687 -2.24458 0
M  V30 3240 H 321.421 -2.1919 -4.58168 0
M  V30 3241 H 321.351 -0.537365 -5.23851 0
M  V30 3242 H 323.842 -0.784895 -3.69659 0
M  V30 3243 H 324.155 -2.21148 -7.40482 0
M  V30 3244 H 322.5 -1.98219 -6.66134 0
M  V30 3245 H 325.691 -1.0545 -4.56068 0
M  V30 3246 H 325.864 -1.70481 -6.25172 0
M  V30 3247 N 319.27 1.56325 -0.20005 0
M  V30 3248 C 320.516 1.98012 0.438059 0
M  V30 3249 C 320.849 1.08702 1.60927 0
M  V30 3250 O 320.124 0.140064 1.93995 0
M  V30 3251 C 320.407 3.48841 0.893419 0
M  V30 3252 C 320.26 4.48928 -0.279947 0
M  V30 3253 C 321.579 4.03498 1.75719 0
M  V30 3254 H 318.698 0.719918 0.157757 0
M  V30 3255 H 321.34 1.87743 -0.291968 0
M  V30 3256 H 319.49 3.57723 1.51547 0
M  V30 3257 H 321.162 4.52079 -0.91772 0
M  V30 3258 H 319.405 4.23694 -0.930919 0
M  V30 3259 H 320.076 5.5194 0.0812601 0
M  V30 3260 H 322.552 3.97427 1.23253 0
M  V30 3261 H 321.428 5.09393 2.04476 0
M  V30 3262 H 321.689 3.4906 2.71311 0
M  V30 3263 N 320.748 -0.0735177 1.57428 0
M  V30 3264 C 321.978 -0.78483 1.91112 0
M  V30 3265 C 322.386 -1.71729 0.7941 0
M  V30 3266 O 321.729 -1.82105 -0.241542 0
M  V30 3267 C 321.791 -1.63346 3.20247 0
M  V30 3268 C 321.455 -0.870557 4.48632 0
M  V30 3269 C 322.452 -0.19058 5.19551 0
M  V30 3270 C 320.137 -0.838242 4.95256 0
M  V30 3271 C 322.131 0.511503 6.35344 0
M  V30 3272 C 319.818 -0.132386 6.10957 0
M  V30 3273 C 320.816 0.541288 6.80852 0
M  V30 3274 O 320.504 1.23578 7.94345 0
M  V30 3275 H 320.236 -0.228408 0.636244 0
M  V30 3276 H 322.79 -0.0486039 2.05342 0
M  V30 3277 H 321.02 -2.41245 3.02222 0
M  V30 3278 H 322.709 -2.22329 3.39595 0
M  V30 3279 H 323.475 -0.206864 4.84559 0
M  V30 3280 H 319.354 -1.35206 4.40727 0
M  V30 3281 H 322.898 1.03789 6.89836 0
M  V30 3282 H 318.795 -0.114023 6.45399 0
M  V30 3283 H 319.563 1.14487 8.10454 0
M  V30 3284 N 322.226 -1.5378 -0.344866 0
M  V30 3285 C 323.176 -1.78057 -1.42407 0
M  V30 3286 C 324.16 -0.635732 -1.47808 0
M  V30 3287 O 325.352 -0.89508 -1.527 0
M  V30 3288 C 322.481 -1.99242 -2.79566 0
M  V30 3289 C 321.567 -3.19787 -2.78562 0
M  V30 3290 N 321.958 -4.41284 -2.47189 0
M  V30 3291 C 320.256 -3.2093 -3.0971 0
M  V30 3292 C 320.957 -5.23128 -2.54385 0
M  V30 3293 N 319.933 -4.59813 -2.89953 0
M  V30 3294 H 323.735 -2.69588 -1.17046 0
M  V30 3295 H 321.249 -1.52687 -0.553217 0
M  V30 3296 H 323.246 -2.14768 -3.57324 0
M  V30 3297 H 321.906 -1.08953 -3.05875 0
M  V30 3298 H 322.917 -4.68657 -2.20411 0
M  V30 3299 H 319.594 -2.40603 -3.41199 0
M  V30 3300 H 320.984 -6.30096 -2.333 0
M  V30 3301 N 323.704 0.605807 -1.45491 0
M  V30 3302 C 324.934 1.38934 -1.52908 0
M  V30 3303 C 325.342 1.88513 -0.161086 0
M  V30 3304 O 324.685 1.62962 0.847891 0
M  V30 3305 C 324.747 2.62737 -2.45376 0
M  V30 3306 C 324.411 2.34785 -3.92078 0
M  V30 3307 C 325.408 1.95038 -4.8193 0
M  V30 3308 C 323.093 2.47642 -4.37011 0
M  V30 3309 C 325.087 1.68511 -6.14722 0
M  V30 3310 C 322.774 2.20728 -5.69844 0
M  V30 3311 C 323.772 1.81225 -6.58519 0
M  V30 3312 O 323.46 1.54627 -7.88889 0
M  V30 3313 H 323.192 0.431629 -0.520262 0
M  V30 3314 H 325.746 0.74573 -1.91384 0
M  V30 3315 H 323.976 3.29824 -2.01874 0
M  V30 3316 H 325.665 3.24783 -2.43456 0
M  V30 3317 H 326.431 1.84639 -4.48479 0
M  V30 3318 H 322.31 2.77356 -3.68232 0
M  V30 3319 H 325.854 1.37602 -6.83894 0
M  V30 3320 H 321.751 2.30744 -6.02849 0
M  V30 3321 H 322.519 1.68665 -8.00933 0
M  V30 3322 N 325.182 1.32811 0.848464 0
M  V30 3323 C 326.598 1.11937 1.13764 0
M  V30 3324 C 326.798 -0.0960789 2.01271 0
M  V30 3325 O 325.854 -0.779165 2.40178 0
M  V30 3326 C 327.167 2.402 1.809 0
M  V30 3327 C 328.715 2.46016 1.93508 0
M  V30 3328 C 329.19 3.74215 2.64059 0
M  V30 3329 N 330.681 3.75232 2.71579 0
M  V30 3330 C 331.416 4.71134 3.26833 0
M  V30 3331 N 330.912 5.77406 3.8285 0
M  V30 3332 N 332.705 4.58623 3.24995 0
M  V30 3333 H 324.856 2.1073 0.265855 0
M  V30 3334 H 327.119 0.930671 0.180431 0
M  V30 3335 H 326.825 3.29093 1.24058 0
M  V30 3336 H 326.699 2.51628 2.81004 0
M  V30 3337 H 329.086 1.57577 2.49506 0
M  V30 3338 H 329.167 2.38536 0.923811 0
M  V30 3339 H 328.811 4.63031 2.08722 0
M  V30 3340 H 328.741 3.78968 3.65637 0
M  V30 3341 H 331.232 2.98423 2.31845 0
M  V30 3342 H 331.545 6.46632 4.23187 0
M  V30 3343 H 329.89 5.81152 3.81165 0
M  V30 3344 H 333.081 3.74762 2.80484 0
M  V30 3345 H 333.254 5.33535 3.67756 0
M  V30 3346 N 326.66 -1.06551 1.16123 0
M  V30 3347 C 327.909 -1.78687 0.935622 0
M  V30 3348 C 328.222 -1.88056 -0.538001 0
M  V30 3349 O 329.428 -2.56794 -0.88143 0
M  V30 3350 C 327.884 -3.21143 1.62466 0
M  V30 3351 C 327.492 -3.19949 3.13587 0
M  V30 3352 C 329.236 -3.9783 1.48092 0
M  V30 3353 C 327.143 -4.57108 3.75241 0
M  V30 3354 H 326.073 -0.669712 0.346412 0
M  V30 3355 H 328.724 -1.19534 1.39226 0
M  V30 3356 H 327.106 -3.80539 1.09572 0
M  V30 3357 H 328.28 -2.70151 3.73303 0
M  V30 3358 H 326.595 -2.5676 3.27816 0
M  V30 3359 H 329.192 -4.99217 1.91538 0
M  V30 3360 H 329.535 -4.14078 0.429507 0
M  V30 3361 H 330.068 -3.4495 1.98127 0
M  V30 3362 H 326.807 -4.46065 4.80319 0
M  V30 3363 H 326.327 -5.07111 3.20309 0
M  V30 3364 H 328.006 -5.26069 3.76644 0
M  V30 3365 N 328.138 -0.959301 -1.25041 0
M  V30 3366 C 329.086 -0.474437 -2.2771 0
M  V30 3367 C 330.08 0.457697 -1.631 0
M  V30 3368 O 331.286 0.333912 -1.76876 0
M  V30 3369 H 327.661 -0.134936 -0.739795 0
M  V30 3370 H 329.632 -1.35251 -2.65988 0
M  V30 3371 C 328.381 0.227884 -3.46952 0
M  V30 3372 H 327.704 -0.480248 -3.96905 0
M  V30 3373 H 329.144 0.531091 -4.20661 0
M  V30 3374 C 327.603 1.452 -3.04004 0
M  V30 3375 O 328.133 2.54949 -3.10426 0
M  V30 3376 N 326.339 1.31502 -2.59144 0
M  V30 3377 H 325.886 0.422065 -2.54119 0
M  V30 3378 H 325.844 2.13521 -2.30773 0
M  V30 3379 N 329.616 1.39756 -0.72842 0
M  V30 3380 C 330.844 2.04948 -0.283528 0
M  V30 3381 C 331.259 1.54908 1.0793 0
M  V30 3382 O 330.616 0.711135 1.68075 0
M  V30 3383 C 330.667 3.60498 -0.268957 0
M  V30 3384 O 330.388 4.08695 -1.57798 0
M  V30 3385 C 331.889 4.4288 0.192912 0
M  V30 3386 H 329.109 0.659243 -0.125056 0
M  V30 3387 H 331.653 1.78927 -0.990226 0
M  V30 3388 H 329.808 3.85444 0.388801 0
M  V30 3389 H 330.222 5.02977 -1.48709 0
M  V30 3390 H 331.696 5.51791 0.151952 0
M  V30 3391 H 332.173 4.21418 1.23708 0
M  V30 3392 H 332.779 4.23069 -0.435039 0
M  V30 3393 N 331.094 0.475555 1.50254 0
M  V30 3394 C 332.322 -0.0754493 2.06762 0
M  V30 3395 C 332.737 -1.33111 1.33891 0
M  V30 3396 O 332.094 -1.77846 0.40952 0
M  V30 3397 C 332.145 -0.359008 3.59713 0
M  V30 3398 O 331.866 0.846851 4.29837 0
M  V30 3399 C 333.367 -0.956484 4.32858 0
M  V30 3400 H 330.587 0.00907525 0.670939 0
M  V30 3401 H 333.131 0.665618 1.93364 0
M  V30 3402 H 331.286 -1.05001 3.72899 0
M  V30 3403 H 331.7 0.594162 5.21124 0
M  V30 3404 H 333.174 -1.10463 5.40834 0
M  V30 3405 H 333.651 -1.94775 3.93649 0
M  V30 3406 H 334.257 -0.303723 4.24214 0
M  V30 3407 N 332.573 -1.56217 0.208337 0
M  V30 3408 C 333.536 -2.18455 -0.693557 0
M  V30 3409 C 334.536 -1.14268 -1.13135 0
M  V30 3410 O 335.726 -1.39577 -1.0423 0
M  V30 3411 C 332.858 -2.79727 -1.94848 0
M  V30 3412 H 334.051 -2.99519 -0.15114 0
M  V30 3413 H 331.604 -1.56245 -0.041287 0
M  V30 3414 H 332.339 -2.02497 -2.53309 0
M  V30 3415 H 332.124 -3.56009 -1.64316 0
M  V30 3416 H 333.614 -3.27475 -2.59133 0
M  V30 3417 N 334.051 0.0651679 -1.57465 0
M  V30 3418 C 335.328 0.79644 -1.78651 0
M  V30 3419 C 335.708 1.95454 -0.797566 0
M  V30 3420 O 335.056 2.27882 0.167946 0
M  V30 3421 C 335.266 1.26322 -3.25337 0
M  V30 3422 C 336.614 1.6939 -3.89348 0
M  V30 3423 O 337.638 1.35872 -3.29268 0
M  V30 3424 O 336.497 2.31471 -4.95059 0
M  V30 3425 H 333.591 0.382157 -0.733407 0
M  V30 3426 H 336.137 0.0447311 -1.69641 0
M  V30 3427 H 334.909 0.434859 -3.88876 0
M  V30 3428 H 334.532 2.07604 -3.39096 0
M  V30 3429 N 335.529 1.53961 0.336706 0
M  V30 3430 C 336.777 1.71197 1.07405 0
M  V30 3431 C 337.098 0.481475 1.88962 0
M  V30 3432 O 336.368 -0.504585 1.8929 0
M  V30 3433 H 334.948 0.631185 0.399517 0
M  V30 3434 H 337.61 1.91232 0.376323 0
M  V30 3435 H 336.706 2.58587 1.74755 0
M  V30 3436 N 337.007 -0.598083 1.45811 0
M  V30 3437 C 337.954 -1.7082 1.55207 0
M  V30 3438 C 338.924 -1.61278 0.39732 0
M  V30 3439 O 340.109 -1.80717 0.612038 0
M  V30 3440 C 337.249 -3.09144 1.53376 0
M  V30 3441 C 336.362 -3.29423 2.79472 0
M  V30 3442 C 335.497 -4.57907 2.69248 0
M  V30 3443 C 334.536 -4.71476 3.90354 0
M  V30 3444 N 333.673 -5.9127 3.78608 0
M  V30 3445 H 338.513 -1.62125 2.50039 0
M  V30 3446 H 336.05 -0.790389 1.24062 0
M  V30 3447 H 338.008 -3.89186 1.50301 0
M  V30 3448 H 336.638 -3.16773 0.620876 0
M  V30 3449 H 335.69 -2.43091 2.92594 0
M  V30 3450 H 337.002 -3.3532 3.69272 0
M  V30 3451 H 336.156 -5.46157 2.64192 0
M  V30 3452 H 334.895 -4.54423 1.77063 0
M  V30 3453 H 333.9 -3.81648 3.95759 0
M  V30 3454 H 335.125 -4.76751 4.83617 0
M  V30 3455 H 333.071 -5.88813 2.89199 0
M  V30 3456 H 332.988 -5.98369 4.6205 0
M  V30 3457 H 334.256 -6.81992 3.77501 0
M  V30 3458 N 338.485 -1.33259 -0.841409 0
M  V30 3459 C 339.731 -1.24757 -1.59886 0
M  V30 3460 C 340.064 0.186913 -1.93298 0
M  V30 3461 O 339.339 1.12757 -1.5848 0
M  V30 3462 C 339.622 -2.12036 -2.91055 0
M  V30 3463 C 339.475 -3.63929 -2.6434 0
M  V30 3464 C 340.794 -1.9916 -3.92458 0
M  V30 3465 H 337.913 -0.454542 -0.580138 0
M  V30 3466 H 340.555 -1.63335 -0.970647 0
M  V30 3467 H 338.705 -1.79265 -3.44669 0
M  V30 3468 H 340.377 -4.06978 -2.17178 0
M  V30 3469 H 338.62 -3.85935 -1.98082 0
M  V30 3470 H 339.291 -4.20341 -3.57796 0
M  V30 3471 H 341.767 -2.27895 -3.48143 0
M  V30 3472 H 340.643 -2.62484 -4.82072 0
M  V30 3473 H 340.904 -0.963082 -4.31482 0
M  V30 3474 N 339.963 1.05934 -1.16686 0
M  V30 3475 C 341.193 1.82226 -0.973515 0
M  V30 3476 C 341.601 1.8297 0.481532 0
M  V30 3477 O 340.944 1.25009 1.34604 0
M  V30 3478 C 341.006 3.29897 -1.42858 0
M  V30 3479 C 340.67 3.52849 -2.90425 0
M  V30 3480 C 341.667 3.45595 -3.88407 0
M  V30 3481 C 339.352 3.80053 -3.28428 0
M  V30 3482 C 341.346 3.65217 -5.22394 0
M  V30 3483 C 339.033 3.99325 -4.62583 0
M  V30 3484 C 340.031 3.91905 -5.59374 0
M  V30 3485 O 339.719 4.10647 -6.91104 0
M  V30 3486 H 339.451 0.581314 -0.345036 0
M  V30 3487 H 342.005 1.3453 -1.55212 0
M  V30 3488 H 340.235 3.78472 -0.793477 0
M  V30 3489 H 341.924 3.87692 -1.20207 0
M  V30 3490 H 342.69 3.24564 -3.60393 0
M  V30 3491 H 338.569 3.84936 -2.53664 0
M  V30 3492 H 342.113 3.59341 -5.9793 0
M  V30 3493 H 338.01 4.19846 -4.90306 0
M  V30 3494 H 338.778 4.27915 -6.97733 0
M  V30 3495 N 341.441 0.965919 1.2453 0
M  V30 3496 C 342.687 0.62776 1.92839 0
M  V30 3497 C 343.02 -0.834694 1.75347 0
M  V30 3498 O 342.295 -1.60031 1.10546 0
M  V30 3499 C 342.578 1.00109 3.45905 0
M  V30 3500 C 342.431 2.52011 3.72573 0
M  V30 3501 C 343.75 0.53435 4.36844 0
M  V30 3502 H 340.869 0.229537 0.700344 0
M  V30 3503 H 343.511 1.2046 1.46933 0
M  V30 3504 H 341.661 0.510238 3.85135 0
M  V30 3505 H 343.333 3.08559 3.42912 0
M  V30 3506 H 341.576 2.95287 3.17786 0
M  V30 3507 H 342.247 2.73183 4.79661 0
M  V30 3508 H 344.723 0.955565 4.04979 0
M  V30 3509 H 343.599 0.824152 5.42678 0
M  V30 3510 H 343.86 -0.565589 4.38467 0
M  V30 3511 N 342.919 -1.39368 0.735821 0
M  V30 3512 C 344.147 -2.04795 0.294393 0
M  V30 3513 C 344.562 -1.55478 -1.07107 0
M  V30 3514 O 343.919 -0.720038 -1.67695 0
M  V30 3515 C 343.97 -3.6035 0.288071 0
M  V30 3516 O 343.691 -4.07852 1.59963 0
M  V30 3517 C 345.192 -4.42976 -0.169422 0
M  V30 3518 H 342.412 -0.658571 0.128551 0
M  V30 3519 H 344.956 -1.78399 0.999701 0
M  V30 3520 H 343.111 -3.85645 -0.368355 0
M  V30 3521 H 343.525 -5.02181 1.51375 0
M  V30 3522 H 344.999 -5.51864 -0.122687 0
M  V30 3523 H 345.476 -4.22068 -1.21472 0
M  V30 3524 H 346.082 -4.22832 0.457469 0
M  V30 3525 N 344.397 -0.483516 -1.5 0
M  V30 3526 C 345.36 0.292965 -2.2732 0
M  V30 3527 C 346.36 0.909499 -1.32608 0
M  V30 3528 O 347.55 0.776745 -1.55924 0
M  V30 3529 C 344.682 1.41854 -3.09984 0
M  V30 3530 H 345.875 -0.385289 -2.97415 0
M  V30 3531 H 343.428 -0.237942 -1.54478 0
M  V30 3532 H 344.163 2.13148 -2.44414 0
M  V30 3533 H 343.948 0.982114 -3.79601 0
M  V30 3534 H 345.438 1.96597 -3.68429 0
M  V30 3535 N 345.875 1.56104 -0.216619 0
M  V30 3536 C 346.785 2.23694 0.706982 0
M  V30 3537 C 347.801 1.24295 1.21765 0
M  V30 3538 O 348.977 1.57094 1.2603 0
M  V30 3539 C 346.042 2.8998 1.90033 0
M  V30 3540 C 345.103 4.04708 1.43213 0
M  V30 3541 C 344.336 4.67824 2.56859 0
M  V30 3542 O 344.559 4.29913 3.74874 0
M  V30 3543 O 343.493 5.56905 2.28343 0
M  V30 3544 H 347.319 3.03272 0.161235 0
M  V30 3545 H 344.904 1.49394 0.0136177 0
M  V30 3546 H 346.786 3.31837 2.59735 0
M  V30 3547 H 345.461 2.13365 2.43428 0
M  V30 3548 H 344.368 3.6743 0.70327 0
M  V30 3549 H 345.701 4.83051 0.944615 0
M  V30 3550 N 347.353 -0.0568162 1.57498 0
M  V30 3551 C 348.578 -0.769402 1.92601 0
M  V30 3552 C 349.003 -1.69559 0.814336 0
M  V30 3553 O 348.361 -1.79811 -0.231903 0
M  V30 3554 C 348.409 -1.52634 3.26704 0
M  V30 3555 O 347.513 -2.63797 3.16994 0
M  V30 3556 H 346.854 -0.208909 0.63028 0
M  V30 3557 H 349.384 -0.0205798 2.0459 0
M  V30 3558 H 349.394 -1.90234 3.60936 0
M  V30 3559 H 348.069 -0.846875 4.07186 0
M  V30 3560 H 346.646 -2.28943 2.94346 0
M  V30 3561 N 348.832 -1.54138 -0.328536 0
M  V30 3562 C 350.248 -1.44736 -0.672574 0
M  V30 3563 C 350.448 -0.616217 -1.91846 0
M  V30 3564 O 349.504 -0.113067 -2.52247 0
M  V30 3565 C 350.817 -2.884 -0.851217 0
M  V30 3566 C 352.365 -2.98271 -0.948877 0
M  V30 3567 C 352.84 -4.43074 -1.15973 0
M  V30 3568 N 354.331 -4.46665 -1.22658 0
M  V30 3569 C 355.066 -5.55857 -1.40751 0
M  V30 3570 N 354.562 -6.75026 -1.5592 0
M  V30 3571 N 356.355 -5.43495 -1.4342 0
M  V30 3572 H 348.506 -2.06661 0.490421 0
M  V30 3573 H 350.769 -0.934812 0.157579 0
M  V30 3574 H 350.475 -3.51699 -0.00704236 0
M  V30 3575 H 350.349 -3.34225 -1.74853 0
M  V30 3576 H 352.736 -2.35102 -1.78356 0
M  V30 3577 H 352.817 -2.55785 -0.0281435 0
M  V30 3578 H 352.461 -5.06827 -0.329915 0
M  V30 3579 H 352.391 -4.83165 -2.09426 0
M  V30 3580 H 354.882 -3.60797 -1.124 0
M  V30 3581 H 355.195 -7.54004 -1.69404 0
M  V30 3582 H 353.54 -6.77944 -1.53027 0
M  V30 3583 H 356.731 -4.49349 -1.31162 0
M  V30 3584 H 356.904 -6.28649 -1.57178 0
M  V30 3585 N 350.31 0.590341 -1.46126 0
M  V30 3586 C 351.557 1.34882 -1.5104 0
M  V30 3587 C 351.885 1.93849 -0.159021 0
M  V30 3588 O 351.14 1.76544 0.844436 0
M  V30 3589 C 351.439 2.5032 -2.55097 0
M  V30 3590 C 351.105 2.09394 -3.99331 0
M  V30 3591 C 349.767 1.97947 -4.38601 0
M  V30 3592 C 352.119 1.77712 -4.89967 0
M  V30 3593 C 349.447 1.53065 -5.66381 0
M  V30 3594 C 351.799 1.34312 -6.18177 0
M  V30 3595 C 350.463 1.21436 -6.56361 0
M  V30 3596 H 349.733 0.493568 -0.552695 0
M  V30 3597 H 352.38 0.665539 -1.79563 0
M  V30 3598 H 350.685 3.24062 -2.20207 0
M  V30 3599 H 352.382 3.08541 -2.56132 0
M  V30 3600 H 348.972 2.19235 -3.68285 0
M  V30 3601 H 353.156 1.85445 -4.60352 0
M  V30 3602 H 348.412 1.41733 -5.94745 0
M  V30 3603 H 352.586 1.08849 -6.87841 0
M  V30 3604 H 350.213 0.864345 -7.5527 0
M  V30 3605 N 351.788 1.33704 0.83433 0
M  V30 3606 C 353.013 1.28615 1.62705 0
M  V30 3607 C 353.438 -0.139242 1.87584 0
M  V30 3608 O 352.796 -1.09734 1.4432 0
M  V30 3609 C 352.844 2.07139 2.95171 0
M  V30 3610 O 351.948 1.4331 3.86699 0
M  V30 3611 H 351.289 0.44226 0.49528 0
M  V30 3612 H 353.819 1.76335 1.03766 0
M  V30 3613 H 353.829 2.18073 3.44831 0
M  V30 3614 H 352.504 3.10779 2.76386 0
M  V30 3615 H 351.081 1.4105 3.45195 0
M  V30 3616 N 353.266 -1.05314 1.17247 0
M  V30 3617 C 354.494 -1.81971 0.984593 0
M  V30 3618 C 354.909 -1.82929 -0.467166 0
M  V30 3619 O 354.266 -1.25564 -1.32438 0
M  V30 3620 C 354.317 -3.28143 1.51672 0
M  V30 3621 O 354.038 -3.27347 2.91163 0
M  V30 3622 C 355.539 -4.21493 1.37326 0
M  V30 3623 H 352.759 -0.573455 0.348411 0
M  V30 3624 H 355.303 -1.32808 1.55506 0
M  V30 3625 H 353.458 -3.74582 0.988302 0
M  V30 3626 H 353.872 -4.18824 3.15732 0
M  V30 3627 H 355.346 -5.22043 1.79375 0
M  V30 3628 H 355.823 -4.38031 0.320169 0
M  V30 3629 H 356.429 -3.80909 1.89178 0
M  V30 3630 N 354.744 -0.972509 -1.24016 0
M  V30 3631 C 355.674 -0.525548 -2.27509 0
M  V30 3632 C 356.655 0.437262 -1.64384 0
M  V30 3633 O 357.84 0.332343 -1.91335 0
M  V30 3634 C 354.97 0.180448 -3.46831 0
M  V30 3635 C 353.924 -0.698859 -4.22256 0
M  V30 3636 C 353.25 0.138903 -5.3452 0
M  V30 3637 C 354.55 -1.98582 -4.83076 0
M  V30 3638 H 356.244 -1.39058 -2.65148 0
M  V30 3639 H 353.79 -0.67009 -1.27459 0
M  V30 3640 H 355.743 0.504387 -4.18371 0
M  V30 3641 H 354.467 1.07987 -3.08231 0
M  V30 3642 H 353.126 -1.00614 -3.52523 0
M  V30 3643 H 352.774 1.03862 -4.9216 0
M  V30 3644 H 352.474 -0.446259 -5.85903 0
M  V30 3645 H 353.998 0.457404 -6.08884 0
M  V30 3646 H 355.412 -1.72715 -5.46665 0
M  V30 3647 H 353.809 -2.5181 -5.44713 0
M  V30 3648 H 354.879 -2.67769 -4.04262 0
M  V30 3649 N 356.222 1.38976 -0.743202 0
M  V30 3650 C 357.185 2.28901 -0.117014 0
M  V30 3651 C 358.185 1.46698 0.658503 0
M  V30 3652 O 359.375 1.67274 0.486305 0
M  V30 3653 C 356.507 3.30309 0.84315 0
M  V30 3654 H 357.7 2.8578 -0.909373 0
M  V30 3655 H 355.253 1.47761 -0.509547 0
M  V30 3656 H 355.988 2.785 1.66157 0
M  V30 3657 H 355.773 3.91029 0.289594 0
M  V30 3658 H 357.263 3.97577 1.2776 0
M  V30 3659 N 357.7 0.491464 1.49741 0
M  V30 3660 C 358.61 -0.296835 2.32715 0
M  V30 3661 C 359.626 -0.976536 1.44013 0
M  V30 3662 O 360.802 -0.960023 1.77047 0
M  V30 3663 C 357.867 -1.35288 3.19215 0
M  V30 3664 C 356.928 -0.687632 4.23757 0
M  V30 3665 C 356.161 -1.69336 5.06123 0
M  V30 3666 O 356.384 -2.92219 4.89861 0
M  V30 3667 O 355.318 -1.25394 5.88693 0
M  V30 3668 H 359.144 0.382048 3.01287 0
M  V30 3669 H 356.729 0.252953 1.47243 0
M  V30 3670 H 358.611 -1.96411 3.72828 0
M  V30 3671 H 357.286 -2.01487 2.53347 0
M  V30 3672 H 356.193 -0.0369159 3.74082 0
M  V30 3673 H 357.526 -0.0682566 4.92153 0
M  V30 3674 N 359.178 -1.55987 0.224894 0
M  V30 3675 C 360.108 -2.23426 -0.678457 0
M  V30 3676 C 361.089 -1.20709 -1.19847 0
M  V30 3677 O 362.274 -1.49304 -1.24186 0
M  V30 3678 C 359.404 -2.91676 -1.88527 0
M  V30 3679 C 358.358 -4.00893 -1.49896 0
M  V30 3680 C 357.684 -4.56455 -2.78483 0
M  V30 3681 C 358.984 -5.17769 -0.686461 0
M  V30 3682 H 360.678 -2.99175 -0.116173 0
M  V30 3683 H 358.224 -1.43897 -0.054436 0
M  V30 3684 H 360.177 -3.37547 -2.5227 0
M  V30 3685 H 358.901 -2.1338 -2.47258 0
M  V30 3686 H 357.56 -3.55758 -0.884985 0
M  V30 3687 H 357.208 -3.74886 -3.35365 0
M  V30 3688 H 356.908 -5.30169 -2.53368 0
M  V30 3689 H 358.432 -5.05047 -3.43162 0
M  V30 3690 H 359.846 -5.60001 -1.22767 0
M  V30 3691 H 358.243 -5.97735 -0.532259 0
M  V30 3692 H 359.313 -4.83932 0.306196 0
M  V30 3693 N 360.656 0.0484629 -1.57525 0
M  V30 3694 C 361.902 0.744226 -1.88651 0
M  V30 3695 C 362.235 1.76029 -0.820212 0
M  V30 3696 O 361.51 1.93782 0.166985 0
M  V30 3697 C 361.793 1.43128 -3.30434 0
M  V30 3698 C 361.646 0.43005 -4.47739 0
M  V30 3699 C 362.965 2.37031 -3.70816 0
M  V30 3700 H 360.084 0.269089 -0.68612 0
M  V30 3701 H 362.726 0.00713532 -1.89999 0
M  V30 3702 H 360.876 2.05956 -3.29415 0
M  V30 3703 H 362.548 -0.194816 -4.60888 0
M  V30 3704 H 360.791 -0.252522 -4.33064 0
M  V30 3705 H 361.462 0.948874 -5.43783 0
M  V30 3706 H 363.938 1.84263 -3.73077 0
M  V30 3707 H 362.814 2.82094 -4.70865 0
M  V30 3708 H 363.075 3.22864 -3.02012 0
M  V30 3709 N 362.134 1.5431 0.320358 0
M  V30 3710 C 363.084 1.803 1.39556 0
M  V30 3711 C 364.068 0.659166 1.46778 0
M  V30 3712 O 365.26 0.91926 1.51257 0
M  V30 3713 C 362.389 2.03665 2.76361 0
M  V30 3714 C 361.475 3.24178 2.73439 0
M  V30 3715 N 361.866 4.4516 2.40137 0
M  V30 3716 C 360.164 3.25816 3.04565 0
M  V30 3717 C 360.865 5.27109 2.4603 0
M  V30 3718 N 359.841 4.64368 2.82601 0
M  V30 3719 H 363.643 2.71416 1.12742 0
M  V30 3720 H 361.157 1.53548 0.528856 0
M  V30 3721 H 363.154 2.20425 3.53862 0
M  V30 3722 H 361.814 1.13805 3.04103 0
M  V30 3723 H 362.825 4.72104 2.12927 0
M  V30 3724 H 359.502 2.46001 3.37328 0
M  V30 3725 H 360.892 6.33728 2.23246 0
M  V30 3726 N 363.613 -0.582584 1.46437 0
M  V30 3727 C 364.563 -1.68654 1.53426 0
M  V30 3728 C 365.547 -1.55971 0.395194 0
M  V30 3729 O 366.739 -1.64884 0.643612 0
M  V30 3730 C 363.868 -3.07439 1.52762 0
M  V30 3731 C 362.954 -3.25418 2.71963 0
M  V30 3732 N 363.345 -3.13556 3.96883 0
M  V30 3733 C 361.643 -3.56357 2.68189 0
M  V30 3734 C 362.344 -3.33543 4.76575 0
M  V30 3735 N 361.32 -3.58704 4.08451 0
M  V30 3736 H 365.122 -1.58014 2.47808 0
M  V30 3737 H 362.636 -0.786617 1.42078 0
M  V30 3738 H 364.633 -3.86671 1.55857 0
M  V30 3739 H 363.293 -3.1921 0.594573 0
M  V30 3740 H 364.304 -2.9142 4.28129 0
M  V30 3741 H 360.981 -3.74812 1.83908 0
M  V30 3742 H 362.371 -3.29555 5.85528 0
M  V30 3743 N 365.091 -1.34144 -0.827227 0
M  V30 3744 C 366.041 -1.21923 -1.92663 0
M  V30 3745 C 367.025 -0.119294 -1.60457 0
M  V30 3746 O 368.217 -0.348539 -1.73534 0
M  V30 3747 C 365.346 -0.972492 -3.29238 0
M  V30 3748 C 364.432 -2.1154 -3.67576 0
M  V30 3749 N 364.823 -3.36627 -3.77512 0
M  V30 3750 C 363.121 -2.02468 -3.97395 0
M  V30 3751 C 363.822 -4.11658 -4.1099 0
M  V30 3752 N 362.798 -3.40207 -4.23981 0
M  V30 3753 H 366.6 -2.16721 -1.98517 0
M  V30 3754 H 364.114 -1.2632 -1.02064 0
M  V30 3755 H 366.111 -0.865847 -4.0781 0
M  V30 3756 H 364.771 -0.0331509 -3.24683 0
M  V30 3757 H 365.782 -3.71234 -3.61118 0
M  V30 3758 H 362.459 -1.16265 -4.00985 0
M  V30 3759 H 363.849 -5.19657 -4.25918 0
M  V30 3760 N 366.569 1.04691 -1.17803 0
M  V30 3761 C 367.794 1.81984 -0.994813 0
M  V30 3762 C 368.219 1.82586 0.452112 0
M  V30 3763 O 367.577 1.23854 1.324 0
M  V30 3764 C 367.625 3.2575 -1.54659 0
M  V30 3765 O 366.729 4.05267 -0.763728 0
M  V30 3766 H 366.07 0.562483 -0.352857 0
M  V30 3767 H 368.6 1.3189 -1.56417 0
M  V30 3768 H 368.61 3.76541 -1.57102 0
M  V30 3769 H 367.285 3.24627 -2.59981 0
M  V30 3770 H 365.862 3.63972 -0.811108 0
M  V30 3771 N 368.047 0.979072 1.23499 0
M  V30 3772 C 369.275 0.665202 1.95915 0
M  V30 3773 C 369.69 -0.767571 1.72493 0
M  V30 3774 O 369.047 -1.51635 1.01554 0
M  V30 3775 C 369.098 0.944438 3.48945 0
M  V30 3776 O 368.819 2.3209 3.71572 0
M  V30 3777 C 370.32 0.646336 4.38563 0
M  V30 3778 H 367.54 0.247218 0.623798 0
M  V30 3779 H 370.084 1.31009 1.57025 0
M  V30 3780 H 368.239 0.345575 3.85856 0
M  V30 3781 H 368.653 2.40957 4.65876 0
M  V30 3782 H 370.127 0.892091 5.44744 0
M  V30 3783 H 370.604 -0.419575 4.37191 0
M  V30 3784 H 371.21 1.22562 4.07258 0
M  V30 3785 N 369.525 -1.3858 0.750561 0
M  V30 3786 C 370.771 -2.00481 0.305825 0
M  V30 3787 C 371.104 -1.5944 -1.10872 0
M  V30 3788 O 370.379 -0.83052 -1.75877 0
M  V30 3789 C 370.662 -3.5758 0.425287 0
M  V30 3790 C 370.515 -4.08594 1.88072 0
M  V30 3791 C 371.834 -4.39719 -0.183122 0
M  V30 3792 H 368.953 -0.728348 0.112598 0
M  V30 3793 H 371.595 -1.64566 0.949638 0
M  V30 3794 H 369.745 -3.88306 -0.122828 0
M  V30 3795 H 371.417 -3.88523 2.48691 0
M  V30 3796 H 369.66 -3.61574 2.39681 0
M  V30 3797 H 370.331 -5.177 1.91548 0
M  V30 3798 H 372.807 -4.15128 0.284303 0
M  V30 3799 H 371.683 -5.48856 -0.0692757 0
M  V30 3800 H 371.944 -4.23434 -1.27106 0
M  V30 3801 N 371.003 -0.499398 -1.49478 0
M  V30 3802 C 371.966 0.268838 -2.27618 0
M  V30 3803 C 372.966 0.895383 -1.33565 0
M  V30 3804 O 374.156 0.760164 -1.56739 0
M  V30 3805 C 371.288 1.38559 -3.11471 0
M  V30 3806 H 372.481 -0.416812 -2.96989 0
M  V30 3807 H 370.034 -0.254313 -1.54217 0
M  V30 3808 H 370.769 2.10544 -2.46661 0
M  V30 3809 H 370.554 0.941797 -3.80621 0
M  V30 3810 H 372.044 1.92678 -3.70493 0
M  V30 3811 N 372.481 1.55866 -0.233164 0
M  V30 3812 C 373.758 1.90471 0.444988 0
M  V30 3813 C 374.138 1.15209 1.7689 0
M  V30 3814 O 373.486 0.265119 2.26957 0
M  V30 3815 C 373.696 3.4333 0.626559 0
M  V30 3816 C 375.044 4.14319 0.92871 0
M  V30 3817 O 376.068 3.48993 0.712926 0
M  V30 3818 O 374.927 5.29846 1.33887 0
M  V30 3819 H 372.021 0.792347 0.236885 0
M  V30 3820 H 374.567 1.67437 -0.276211 0
M  V30 3821 H 373.339 3.90095 -0.306822 0
M  V30 3822 H 372.962 3.72181 1.39881 0
M  V30 3823 N 373.959 -0.0401083 1.57549 0
M  V30 3824 C 375.207 -0.731677 1.8839 0
M  V30 3825 C 375.528 -1.76481 0.829425 0
M  V30 3826 O 374.798 -1.95411 -0.1383 0
M  V30 3827 H 373.378 -0.273225 0.695239 0
M  V30 3828 H 376.04 -0.00867725 1.94898 0
M  V30 3829 H 375.136 -1.22816 2.86919 0
M  V30 3830 N 375.437 -1.54477 -0.31217 0
M  V30 3831 C 376.367 -1.87652 -1.38957 0
M  V30 3832 C 377.348 -0.734358 -1.53431 0
M  V30 3833 O 378.533 -0.98911 -1.67123 0
M  V30 3834 C 375.663 -2.11396 -2.75552 0
M  V30 3835 C 374.617 -3.27243 -2.75855 0
M  V30 3836 C 373.943 -3.36382 -4.15633 0
M  V30 3837 C 375.243 -4.64622 -2.38587 0
M  V30 3838 H 376.937 -2.77887 -1.11442 0
M  V30 3839 H 374.483 -1.33707 -0.534655 0
M  V30 3840 H 376.436 -2.33189 -3.51 0
M  V30 3841 H 375.16 -1.17921 -3.04569 0
M  V30 3842 H 373.819 -3.05356 -2.02863 0
M  V30 3843 H 373.467 -2.40445 -4.41809 0
M  V30 3844 H 373.167 -4.14249 -4.1674 0
M  V30 3845 H 374.691 -3.60422 -4.92877 0
M  V30 3846 H 376.105 -4.86219 -3.03749 0
M  V30 3847 H 374.502 -5.45121 -2.50925 0
M  V30 3848 H 375.572 -4.66097 -1.33723 0
M  V30 3849 N 376.915 0.57481 -1.46744 0
M  V30 3850 C 378.161 1.3347 -1.52688 0
M  V30 3851 C 378.494 1.93353 -0.181229 0
M  V30 3852 O 377.769 1.76912 0.808237 0
M  V30 3853 C 378.052 2.45811 -2.63152 0
M  V30 3854 C 377.905 1.90912 -4.07275 0
M  V30 3855 C 379.224 3.47822 -2.69644 0
M  V30 3856 H 376.343 0.483935 -0.555856 0
M  V30 3857 H 378.985 0.644968 -1.78718 0
M  V30 3858 H 377.135 3.04646 -2.41088 0
M  V30 3859 H 378.807 1.36473 -4.4065 0
M  V30 3860 H 377.05 1.21691 -4.16382 0
M  V30 3861 H 377.721 2.72042 -4.80309 0
M  V30 3862 H 380.197 2.9888 -2.895 0
M  V30 3863 H 379.073 4.23876 -3.48742 0
M  V30 3864 H 379.334 4.05555 -1.76005 0
M  V30 3865 N 378.394 1.34581 0.820102 0
M  V30 3866 C 379.622 1.3018 1.60813 0
M  V30 3867 C 380.037 -0.123551 1.88395 0
M  V30 3868 O 379.394 -1.07148 1.47735 0
M  V30 3869 C 379.445 2.09312 2.94739 0
M  V30 3870 O 379.166 3.46288 2.68358 0
M  V30 3871 C 380.667 2.1234 3.89136 0
M  V30 3872 H 377.887 0.447726 0.499782 0
M  V30 3873 H 380.431 1.77237 1.02017 0
M  V30 3874 H 378.586 1.65889 3.50085 0
M  V30 3875 H 379 3.87227 3.53774 0
M  V30 3876 H 380.474 2.72126 4.80262 0
M  V30 3877 H 380.951 1.11854 4.24718 0
M  V30 3878 H 381.557 2.55864 3.39726 0
M  V30 3879 N 379.872 -1.04064 1.18357 0
M  V30 3880 C 381.1 -1.80916 1.00384 0
M  V30 3881 C 381.515 -1.83414 -0.447738 0
M  V30 3882 O 380.872 -1.26962 -1.31099 0
M  V30 3883 C 380.923 -3.26516 1.55144 0
M  V30 3884 O 380.644 -3.2424 2.94618 0
M  V30 3885 C 382.145 -4.20013 1.41789 0
M  V30 3886 H 379.365 -0.569728 0.354474 0
M  V30 3887 H 381.909 -1.31151 1.56906 0
M  V30 3888 H 380.064 -3.73512 1.02798 0
M  V30 3889 H 380.478 -4.15452 3.20156 0
M  V30 3890 H 381.952 -5.20111 1.84901 0
M  V30 3891 H 382.429 -4.37667 0.36661 0
M  V30 3892 H 383.035 -3.78881 1.93207 0
M  V30 3893 N 381.35 -0.985608 -1.22978 0
M  V30 3894 C 382.28 -0.549649 -2.26939 0
M  V30 3895 C 383.261 0.419803 -1.64838 0
M  V30 3896 O 384.446 0.31203 -1.91677 0
M  V30 3897 C 381.576 0.143652 -3.47003 0
M  V30 3898 C 380.53 -0.743606 -4.21491 0
M  V30 3899 C 379.856 0.0822027 -5.34637 0
M  V30 3900 C 381.156 -2.03694 -4.80943 0
M  V30 3901 H 382.85 -1.41862 -2.63658 0
M  V30 3902 H 380.396 -0.683571 -1.26741 0
M  V30 3903 H 382.349 0.459985 -4.18882 0
M  V30 3904 H 381.073 1.04711 -3.09359 0
M  V30 3905 H 379.732 -1.04347 -3.51436 0
M  V30 3906 H 379.38 0.986359 -4.93234 0
M  V30 3907 H 379.08 -0.508377 -5.85397 0
M  V30 3908 H 380.604 0.392797 -6.09335 0
M  V30 3909 H 382.018 -1.78504 -5.44802 0
M  V30 3910 H 380.415 -2.57573 -5.42011 0
M  V30 3911 H 381.485 -2.72042 -4.01399 0
M  V30 3912 N 382.828 1.3818 -0.7579 0
M  V30 3913 C 383.778 2.27741 -0.108674 0
M  V30 3914 C 384.762 1.45415 0.688709 0
M  V30 3915 O 385.954 1.68108 0.553956 0
M  V30 3916 C 383.083 3.34313 0.780367 0
M  V30 3917 C 382.169 4.24093 -0.0240977 0
M  V30 3918 N 382.56 4.9451 -1.06271 0
M  V30 3919 C 380.858 4.45542 0.202049 0
M  V30 3920 C 381.559 5.60675 -1.54979 0
M  V30 3921 N 380.535 5.36684 -0.864348 0
M  V30 3922 H 384.337 2.79649 -0.904071 0
M  V30 3923 H 381.851 1.51133 -0.594346 0
M  V30 3924 H 383.848 3.97368 1.26114 0
M  V30 3925 H 382.508 2.83962 1.57467 0
M  V30 3926 H 383.519 4.97345 -1.44459 0
M  V30 3927 H 380.196 4.06091 0.96935 0
M  V30 3928 H 381.586 6.26992 -2.41517 0
M  V30 3929 N 384.306 0.507319 1.49211 0
M  V30 3930 C 385.536 -0.0315292 2.06576 0
M  V30 3931 C 385.944 -1.30791 1.36713 0
M  V30 3932 O 385.287 -1.78324 0.441181 0
M  V30 3933 C 385.349 -0.349104 3.57801 0
M  V30 3934 C 385.013 0.830475 4.49391 0
M  V30 3935 C 386.01 1.72271 4.90529 0
M  V30 3936 C 383.695 1.03107 4.91604 0
M  V30 3937 C 385.689 2.79964 5.72625 0
M  V30 3938 C 383.376 2.11116 5.73475 0
M  V30 3939 C 384.374 2.99379 6.1389 0
M  V30 3940 O 384.062 4.05523 6.94123 0
M  V30 3941 H 383.794 0.0201002 0.675701 0
M  V30 3942 H 386.348 0.705737 1.92895 0
M  V30 3943 H 384.578 -1.14005 3.69513 0
M  V30 3944 H 386.267 -0.827319 3.97379 0
M  V30 3945 H 387.033 1.57958 4.58557 0
M  V30 3946 H 382.912 0.353417 4.59643 0
M  V30 3947 H 386.456 3.48884 6.04091 0
M  V30 3948 H 382.353 2.25421 6.0486 0
M  V30 3949 H 383.121 4.02953 7.1244 0
M  V30 3950 N 385.784 -1.5574 0.241426 0
M  V30 3951 C 387.195 -1.84842 -0.262755 0
M  V30 3952 C 387.546 -1.16317 -1.58003 0
M  V30 3953 O 386.671 -0.439653 -2.11887 0
M  V30 3954 C 387.266 -3.35332 -0.483523 0
M  V30 3955 C 385.825 -3.6468 -0.931977 0
M  V30 3956 C 384.972 -2.77299 -0.0061151 0
M  V30 3957 H 387.923 -1.51761 0.464129 0
M  V30 3958 H 387.944 -3.56615 -1.32688 0
M  V30 3959 H 387.456 -3.85178 0.47537 0
M  V30 3960 H 385.557 -3.20307 -1.90353 0
M  V30 3961 H 385.67 -4.72498 -0.792628 0
M  V30 3962 H 384.034 -2.49408 -0.516503 0
M  V30 3963 H 384.817 -3.2995 0.948052 0
M  V30 3964 N 387.262 0.0317525 -1.57568 0
M  V30 3965 C 388.225 1.01783 -2.0536 0
M  V30 3966 C 389.225 1.29203 -0.957253 0
M  V30 3967 O 390.415 1.24251 -1.22095 0
M  V30 3968 C 387.547 2.35137 -2.46827 0
M  V30 3969 H 388.74 0.605062 -2.93733 0
M  V30 3970 H 386.293 0.278514 -1.53799 0
M  V30 3971 H 387.028 2.81168 -1.61602 0
M  V30 3972 H 386.813 2.16566 -3.26866 0
M  V30 3973 H 388.303 3.05938 -2.84239 0
M  V30 3974 N 388.74 1.54641 0.303973 0
M  V30 3975 C 390.151 1.64811 0.877163 0
M  V30 3976 C 390.502 0.554838 1.88191 0
M  V30 3977 O 389.627 -0.309033 2.14182 0
M  V30 3978 C 390.222 2.9876 1.59775 0
M  V30 3979 C 388.781 3.11061 2.11938 0
M  V30 3980 C 387.928 2.60479 0.951097 0
M  V30 3981 H 390.879 1.58493 0.0810486 0
M  V30 3982 H 390.9 2.90017 2.46314 0
M  V30 3983 H 390.412 3.7831 0.866226 0
M  V30 3984 H 388.513 2.36225 2.88146 0
M  V30 3985 H 388.626 4.17171 2.35595 0
M  V30 3986 H 386.99 2.16859 1.33583 0
M  V30 3987 H 387.773 3.42504 0.233581 0
M  V30 3988 N 390.218 -0.567019 1.47046 0
M  V30 3989 C 391.165 -1.67489 1.58796 0
M  V30 3990 C 392.135 -1.60399 0.43144 0
M  V30 3991 O 393.32 -1.79378 0.650233 0
M  V30 3992 C 390.46 -3.05821 1.59899 0
M  V30 3993 C 389.573 -3.2342 2.86397 0
M  V30 3994 C 388.708 -4.52093 2.789 0
M  V30 3995 C 387.747 -4.6309 4.00267 0
M  V30 3996 N 386.884 -5.83106 3.91064 0
M  V30 3997 H 391.724 -1.56785 2.53422 0
M  V30 3998 H 389.261 -0.763896 1.2571 0
M  V30 3999 H 391.219 -3.8591 1.58522 0
M  V30 4000 H 389.849 -3.15384 0.687929 0
M  V30 4001 H 388.901 -2.3683 2.97684 0
M  V30 4002 H 390.213 -3.27412 3.76301 0
M  V30 4003 H 389.367 -5.4043 2.75718 0
M  V30 4004 H 388.106 -4.50565 1.86662 0
M  V30 4005 H 387.111 -3.73168 4.03765 0
M  V30 4006 H 388.336 -4.66386 4.93621 0
M  V30 4007 H 386.282 -5.82546 3.01623 0
M  V30 4008 H 386.199 -5.88434 4.74638 0
M  V30 4009 H 387.467 -6.73831 3.91882 0
M  V30 4010 N 391.696 -1.35014 -0.812953 0
M  V30 4011 C 392.936 -1.29289 -1.58315 0
M  V30 4012 C 393.3 0.132727 -1.91541 0
M  V30 4013 O 394.501 0.314269 -2.66957 0
M  V30 4014 C 392.772 -2.1681 -2.84127 0
M  V30 4015 S 394.331 -2.28538 -3.74588 0
M  V30 4016 H 391.149 -0.459569 -0.542511 0
M  V30 4017 H 393.751 -1.70336 -0.959467 0
M  V30 4018 H 392.455 -3.19379 -2.57731 0
M  V30 4019 H 391.986 -1.76697 -3.51485 0
M  V30 4020 H 394.001 -1.4655 -4.74065 0
M  V30 4021 N 393.175 1.03435 -1.18907 0
M  V30 4022 C 394.123 2.13703 -0.918353 0
M  V30 4023 C 395.117 1.68947 0.123767 0
M  V30 4024 O 396.323 1.79983 -0.0249701 0
M  V30 4025 H 392.698 0.698112 -0.279542 0
M  V30 4026 H 394.669 2.33731 -1.85506 0
M  V30 4027 C 393.418 3.44542 -0.467532 0
M  V30 4028 H 392.741 3.79394 -1.26095 0
M  V30 4029 H 394.181 4.22812 -0.317164 0
M  V30 4030 C 392.64 3.26829 0.817588 0
M  V30 4031 O 393.17 3.54975 1.88031 0
M  V30 4032 N 391.376 2.80139 0.772677 0
M  V30 4033 H 390.923 2.57434 -0.0923883 0
M  V30 4034 H 390.881 2.68668 1.63294 0
M  V30 4035 N 394.653 0.992116 1.22453 0
M  V30 4036 C 395.6 0.541731 2.24352 0
M  V30 4037 C 396.57 -0.425519 1.60557 0
M  V30 4038 O 397.755 -0.330453 1.87917 0
M  V30 4039 C 394.895 -0.138248 3.44823 0
M  V30 4040 C 394.008 0.870649 4.23136 0
M  V30 4041 C 393.143 0.164269 5.30946 0
M  V30 4042 C 392.182 1.16159 6.00977 0
M  V30 4043 N 391.319 0.483568 7.00433 0
M  V30 4044 H 396.159 1.41541 2.62241 0
M  V30 4045 H 393.696 0.709013 1.28885 0
M  V30 4046 H 395.654 -0.5494 4.13567 0
M  V30 4047 H 394.284 -0.975721 3.077 0
M  V30 4048 H 393.336 1.40013 3.53696 0
M  V30 4049 H 394.648 1.63014 4.7141 0
M  V30 4050 H 393.802 -0.303653 6.0594 0
M  V30 4051 H 392.541 -0.627733 4.83643 0
M  V30 4052 H 391.546 1.64015 5.24766 0
M  V30 4053 H 392.771 1.95445 6.50368 0
M  V30 4054 H 390.717 -0.289012 6.55363 0
M  V30 4055 H 390.634 1.18152 7.4671 0
M  V30 4056 H 391.902 0.0384219 7.79491 0
M  V30 4057 N 396.131 -1.37776 0.765217 0
M  V30 4058 C 397.542 -1.82521 0.392819 0
M  V30 4059 C 397.893 -1.63789 -1.08017 0
M  V30 4060 O 397.018 -1.14542 -1.83601 0
M  V30 4061 C 397.613 -3.31358 0.706214 0
M  V30 4062 C 396.172 -3.74406 0.386952 0
M  V30 4063 C 395.319 -2.60394 0.953422 0
M  V30 4064 H 398.27 -1.2634 0.960412 0
M  V30 4065 H 398.291 -3.80498 -0.0114706 0
M  V30 4066 H 397.803 -3.44959 1.77833 0
M  V30 4067 H 395.904 -3.66377 -0.678112 0
M  V30 4068 H 396.017 -4.70749 0.890636 0
M  V30 4069 H 394.381 -2.51878 0.378064 0
M  V30 4070 H 395.164 -2.76791 2.03081 0
M  V30 4071 N 397.609 -0.515225 -1.4894 0
M  V30 4072 C 398.837 0.0206034 -2.0689 0
M  V30 4073 C 399.252 1.29514 -1.37374 0
M  V30 4074 O 398.609 1.76698 -0.456529 0
M  V30 4075 C 398.66 0.26351 -3.60538 0
M  V30 4076 O 398.381 -0.960517 -4.27441 0
M  V30 4077 C 399.882 0.841383 -4.35242 0
M  V30 4078 H 397.102 -0.0268608 -0.670462 0
M  V30 4079 H 399.646 -0.716651 -1.91532 0
M  V30 4080 H 397.801 0.950777 -3.75552 0
M  V30 4081 H 398.215 -0.73212 -5.19365 0
M  V30 4082 H 399.689 0.96085 -5.43573 0
M  V30 4083 H 400.166 1.8427 -3.98674 0
M  V30 4084 H 400.772 0.191143 -4.2487 0
M  V30 4085 N 399.087 1.5561 -0.249682 0
M  V30 4086 C 400.333 1.99306 0.374841 0
M  V30 4087 C 400.666 1.13767 1.57387 0
M  V30 4088 O 399.941 0.201711 1.93451 0
M  V30 4089 C 400.224 3.51507 0.781986 0
M  V30 4090 C 400.077 4.4781 -0.422629 0
M  V30 4091 C 401.396 4.08884 1.62793 0
M  V30 4092 H 398.515 0.724572 0.134773 0
M  V30 4093 H 401.157 1.86719 -0.351549 0
M  V30 4094 H 399.307 3.62363 1.4009 0
M  V30 4095 H 400.979 4.48931 -1.06108 0
M  V30 4096 H 399.222 4.20518 -1.06524 0
M  V30 4097 H 399.893 5.51919 -0.0943766 0
M  V30 4098 H 402.369 4.01147 1.10547 0
M  V30 4099 H 401.245 5.1564 1.88166 0
M  V30 4100 H 401.506 3.57515 2.60068 0
M  V30 4101 N 400.565 -0.0233959 1.57583 0
M  V30 4102 C 401.795 -0.723631 1.93513 0
M  V30 4103 C 402.203 -1.69115 0.848333 0
M  V30 4104 O 401.546 -1.82781 -0.183484 0
M  V30 4105 C 401.608 -1.53075 3.25282 0
M  V30 4106 C 401.272 -0.727388 4.51174 0
M  V30 4107 C 402.269 -0.0251924 5.19894 0
M  V30 4108 C 399.954 -0.680256 4.97672 0
M  V30 4109 C 401.948 0.713374 6.33395 0
M  V30 4110 C 399.635 0.0620523 6.11068 0
M  V30 4111 C 400.633 0.757622 6.78785 0
M  V30 4112 O 400.321 1.48787 7.90011 0
M  V30 4113 H 400.053 -0.208051 0.643188 0
M  V30 4114 H 402.607 0.0167489 2.05393 0
M  V30 4115 H 400.837 -2.31508 3.09744 0
M  V30 4116 H 402.526 -2.11413 3.46496 0
M  V30 4117 H 403.292 -0.0526003 4.84971 0
M  V30 4118 H 399.171 -1.21116 4.44805 0
M  V30 4119 H 402.715 1.25683 6.86185 0
M  V30 4120 H 398.612 0.0913634 6.45435 0
M  V30 4121 H 399.38 1.40213 8.06401 0
M  V30 4122 N 402.043 -1.548 -0.295768 0
M  V30 4123 C 403.291 -1.73985 -1.02828 0
M  V30 4124 C 403.612 -0.531406 -1.87619 0
M  V30 4125 O 402.882 0.454221 -1.90561 0
M  V30 4126 H 401.462 -0.641556 -0.382642 0
M  V30 4127 H 404.124 -1.92163 -0.325489 0
M  V30 4128 H 403.22 -2.63129 -1.67838 0
M  V30 4129 N 403.521 0.559213 -1.47345 0
M  V30 4130 C 404.767 1.31843 -1.54095 0
M  V30 4131 C 405.1 1.93149 -0.201726 0
M  V30 4132 O 404.375 1.77759 0.789428 0
M  V30 4133 C 404.658 2.43006 -2.65744 0
M  V30 4134 C 404.511 1.86581 -4.09277 0
M  V30 4135 C 405.83 3.44943 -2.73318 0
M  V30 4136 H 402.949 0.478012 -0.560957 0
M  V30 4137 H 405.591 0.625977 -1.79392 0
M  V30 4138 H 403.741 3.02072 -2.44305 0
M  V30 4139 H 405.413 1.31792 -4.42073 0
M  V30 4140 H 403.656 1.17268 -4.17649 0
M  V30 4141 H 404.327 2.66933 -4.83168 0
M  V30 4142 H 406.803 2.95793 -2.92653 0
M  V30 4143 H 405.679 4.20153 -3.53218 0
M  V30 4144 H 405.94 4.03665 -1.80296 0
M  V30 4145 N 404.999 1.35443 0.805782 0
M  V30 4146 C 406.224 1.32037 1.59941 0
M  V30 4147 C 406.649 -0.0994215 1.87837 0
M  V30 4148 O 406.007 -1.06648 1.46615 0
M  V30 4149 C 406.055 2.13354 2.90711 0
M  V30 4150 O 405.159 1.5148 3.83572 0
M  V30 4151 H 404.5 0.452666 0.485787 0
M  V30 4152 H 407.03 1.78496 1.00002 0
M  V30 4153 H 407.04 2.25338 3.40128 0
M  V30 4154 H 405.715 3.16572 2.69732 0
M  V30 4155 H 404.292 1.4834 3.42125 0
M  V30 4156 N 406.477 -1.02803 1.19454 0
M  V30 4157 C 407.888 -1.57667 0.999899 0
M  V30 4158 C 408.239 -1.91041 -0.446956 0
M  V30 4159 O 407.364 -1.70978 -1.32648 0
M  V30 4160 C 407.959 -2.86477 1.80877 0
M  V30 4161 C 406.518 -3.37911 1.65811 0
M  V30 4162 C 405.665 -2.11343 1.79526 0
M  V30 4163 H 408.616 -0.853214 1.33813 0
M  V30 4164 H 408.637 -3.57408 1.30536 0
M  V30 4165 H 408.149 -2.62155 2.86175 0
M  V30 4166 H 406.25 -3.67218 0.63102 0
M  V30 4167 H 406.363 -4.10885 2.46395 0
M  V30 4168 H 404.727 -2.23254 1.22596 0
M  V30 4169 H 405.51 -1.89461 2.86285 0
M  V30 4170 N 407.956 -0.998596 -1.21925 0
M  V30 4171 C 409.205 -0.673085 -1.90138 0
M  V30 4172 C 409.518 0.79895 -1.78539 0
M  V30 4173 O 410.724 1.23628 -2.4172 0
M  V30 4174 C 409.18 -1.15339 -3.40918 0
M  V30 4175 C 408.788 -2.65106 -3.61141 0
M  V30 4176 C 410.532 -0.902476 -4.14796 0
M  V30 4177 C 408.439 -3.0671 -5.05651 0
M  V30 4178 H 407.369 -0.248057 -0.712028 0
M  V30 4179 H 410.02 -1.20891 -1.38049 0
M  V30 4180 H 408.402 -0.545658 -3.92223 0
M  V30 4181 H 409.576 -3.31274 -3.20304 0
M  V30 4182 H 407.891 -2.88142 -3.00605 0
M  V30 4183 H 410.488 -1.18895 -5.21314 0
M  V30 4184 H 410.831 0.161349 -4.15987 0
M  V30 4185 H 411.364 -1.47269 -3.69536 0
M  V30 4186 H 408.103 -4.12292 -5.09603 0
M  V30 4187 H 407.623 -2.45249 -5.47369 0
M  V30 4188 H 409.302 -2.9833 -5.74115 0
M  V30 4189 N 409.434 1.37368 -0.772513 0
M  V30 4190 C 410.384 2.27613 -0.132823 0
M  V30 4191 C 411.368 1.46138 0.673247 0
M  V30 4192 O 412.56 1.68686 0.536095 0
M  V30 4193 C 409.689 3.35122 0.744864 0
M  V30 4194 C 408.775 4.24044 -0.0690771 0
M  V30 4195 N 409.166 4.93355 -1.1151 0
M  V30 4196 C 407.464 4.45731 0.154782 0
M  V30 4197 C 408.165 5.59 -1.60917 0
M  V30 4198 N 407.141 5.35737 -0.921222 0
M  V30 4199 H 410.943 2.78675 -0.933681 0
M  V30 4200 H 408.457 1.50494 -0.610342 0
M  V30 4201 H 410.454 3.98683 1.21892 0
M  V30 4202 H 409.114 2.85616 1.54446 0
M  V30 4203 H 410.125 4.95785 -1.49726 0
M  V30 4204 H 406.802 4.07096 0.926224 0
M  V30 4205 H 408.192 6.24395 -2.48153 0
M  V30 4206 N 410.912 0.523116 1.48665 0
M  V30 4207 C 412.189 -0.0775449 1.95446 0
M  V30 4208 C 412.569 -1.5197 1.4652 0
M  V30 4209 O 411.917 -2.17876 0.688657 0
M  V30 4210 C 412.127 0.0326135 3.48985 0
M  V30 4211 C 413.475 -0.130141 4.24401 0
M  V30 4212 O 414.499 -0.0415142 3.56176 0
M  V30 4213 O 413.358 -0.31491 5.45592 0
M  V30 4214 H 410.452 -0.0831012 0.822814 0
M  V30 4215 H 412.998 0.587227 1.59216 0
M  V30 4216 H 411.77 1.03748 3.77296 0
M  V30 4217 H 411.393 -0.671317 3.91892 0
M  V30 4218 N 412.39 -1.55475 0.257931 0
M  V30 4219 C 413.337 -2.21837 -0.636939 0
M  V30 4220 C 414.307 -1.18596 -1.16294 0
M  V30 4221 O 415.492 -1.47081 -1.21539 0
M  V30 4222 C 412.632 -2.9301 -1.82317 0
M  V30 4223 C 411.745 -4.10931 -1.33265 0
M  V30 4224 C 410.88 -4.69791 -2.47931 0
M  V30 4225 C 409.919 -5.7994 -1.95796 0
M  V30 4226 N 409.056 -6.32935 -3.0387 0
M  V30 4227 H 413.896 -2.9793 -0.0643591 0
M  V30 4228 H 411.433 -1.47086 -0.0200031 0
M  V30 4229 H 413.391 -3.3248 -2.52018 0
M  V30 4230 H 412.021 -2.1937 -2.36805 0
M  V30 4231 H 411.073 -3.76699 -0.52931 0
M  V30 4232 H 412.385 -4.90417 -0.910654 0
M  V30 4233 H 411.539 -5.11892 -3.25656 0
M  V30 4234 H 410.278 -3.89545 -2.93438 0
M  V30 4235 H 409.283 -5.37305 -1.16546 0
M  V30 4236 H 410.508 -6.62043 -1.51246 0
M  V30 4237 H 408.454 -5.55591 -3.48791 0
M  V30 4238 H 408.371 -7.07645 -2.66035 0
M  V30 4239 H 409.639 -6.79695 -3.81621 0
M  V30 4240 N 413.868 0.0150385 -1.57593 0
M  V30 4241 C 415.114 0.69849 -1.91031 0
M  V30 4242 C 415.469 1.72208 -0.85804 0
M  V30 4243 O 414.762 1.91147 0.131614 0
M  V30 4244 C 414.956 1.39686 -3.28972 0
M  V30 4245 C 414.785 0.442428 -4.47518 0
M  V30 4246 C 413.555 0.0583223 -5.05266 0
M  V30 4247 C 415.753 -0.285072 -5.13509 0
M  V30 4248 N 413.735 -0.895893 -6.07328 0
M  V30 4249 C 415.106 -1.09447 -6.10263 0
M  V30 4250 C 417.161 -0.350518 -4.96665 0
M  V30 4251 C 415.864 -1.96333 -6.91987 0
M  V30 4252 C 417.89 -1.20655 -5.78962 0
M  V30 4253 C 417.252 -2.00383 -6.75297 0
M  V30 4254 H 413.351 0.22926 -0.747639 0
M  V30 4255 H 415.935 -0.0417748 -1.94655 0
M  V30 4256 H 414.106 2.1075 -3.2625 0
M  V30 4257 H 415.838 2.03381 -3.49883 0
M  V30 4258 H 412.593 0.423506 -4.71703 0
M  V30 4259 H 413.017 -1.36792 -6.63036 0
M  V30 4260 H 417.659 0.251596 -4.22051 0
M  V30 4261 H 415.377 -2.57618 -7.65936 0
M  V30 4262 H 418.963 -1.2609 -5.67972 0
M  V30 4263 H 417.843 -2.65552 -7.3787 0
M  V30 4264 N 415.346 1.54954 0.287554 0
M  V30 4265 C 416.256 1.8991 1.37736 0
M  V30 4266 C 417.272 0.794701 1.54792 0
M  V30 4267 O 418.448 1.09243 1.69198 0
M  V30 4268 C 415.513 2.15108 2.71899 0
M  V30 4269 C 414.574 3.38752 2.63715 0
M  V30 4270 C 413.807 3.62739 3.91479 0
M  V30 4271 O 414.03 2.89492 4.91478 0
M  V30 4272 O 412.964 4.56267 3.92561 0
M  V30 4273 H 416.79 2.82652 1.11092 0
M  V30 4274 H 414.375 1.41315 0.484807 0
M  V30 4275 H 416.257 2.32806 3.51254 0
M  V30 4276 H 414.932 1.25551 2.9836 0
M  V30 4277 H 413.839 3.26405 1.82786 0
M  V30 4278 H 415.172 4.28483 2.42205 0
M  V30 4279 N 416.824 -0.551391 1.4764 0
M  V30 4280 C 417.757 -1.6738 1.5511 0
M  V30 4281 C 418.735 -1.5753 0.402856 0
M  V30 4282 O 419.919 -1.78307 0.611475 0
M  V30 4283 C 417.046 -3.05661 1.45908 0
M  V30 4284 C 416.092 -3.33938 2.65307 0
M  V30 4285 S 416.925 -3.22553 4.27457 0
M  V30 4286 C 418.081 -4.63317 4.20818 0
M  V30 4287 H 418.314 -1.6079 2.50068 0
M  V30 4288 H 415.847 -0.732674 1.35909 0
M  V30 4289 H 417.805 -3.8542 1.41286 0
M  V30 4290 H 416.466 -3.09711 0.523248 0
M  V30 4291 H 415.659 -4.34761 2.54948 0
M  V30 4292 H 415.261 -2.61809 2.67081 0
M  V30 4293 H 417.553 -5.54391 3.89431 0
M  V30 4294 H 418.496 -4.78732 5.21748 0
M  V30 4295 H 418.904 -4.41636 3.51593 0
M  V30 4296 N 418.302 -1.35869 -0.798587 0
M  V30 4297 C 419.212 -1.31578 -1.94228 0
M  V30 4298 C 420.228 -0.21939 -1.72611 0
M  V30 4299 O 421.404 -0.450167 -1.96305 0
M  V30 4300 C 418.469 -1.09528 -3.28944 0
M  V30 4301 C 417.53 -2.28556 -3.63402 0
M  V30 4302 C 416.763 -2.07549 -4.9169 0
M  V30 4303 O 416.986 -1.046 -5.60727 0
M  V30 4304 O 415.92 -2.95106 -5.24591 0
M  V30 4305 H 419.746 -2.27847 -2.00796 0
M  V30 4306 H 417.331 -1.16322 -0.937526 0
M  V30 4307 H 419.213 -0.991127 -4.09579 0
M  V30 4308 H 417.888 -0.16315 -3.23289 0
M  V30 4309 H 416.795 -2.44538 -2.83112 0
M  V30 4310 H 418.128 -3.20244 -3.73771 0
M  V30 4311 N 419.78 1.02168 -1.19998 0
M  V30 4312 C 421.196 1.27969 -0.953737 0
M  V30 4313 C 421.396 1.98079 0.369703 0
M  V30 4314 O 420.452 2.27306 1.09947 0
M  V30 4315 C 421.765 2.11971 -2.13281 0
M  V30 4316 C 423.313 2.25255 -2.17323 0
M  V30 4317 C 423.788 3.12632 -3.34702 0
M  V30 4318 N 425.279 3.2022 -3.34684 0
M  V30 4319 C 426.014 3.88039 -4.22153 0
M  V30 4320 N 425.51 4.58027 -5.19791 0
M  V30 4321 N 427.303 3.84511 -4.10009 0
M  V30 4322 H 419.454 0.550794 -2.05134 0
M  V30 4323 H 421.717 0.305683 -0.897364 0
M  V30 4324 H 421.423 1.67785 -3.09097 0
M  V30 4325 H 421.297 3.12699 -2.10949 0
M  V30 4326 H 423.684 2.68667 -1.22073 0
M  V30 4327 H 423.765 1.24053 -2.23706 0
M  V30 4328 H 423.409 2.69926 -4.30235 0
M  V30 4329 H 423.339 4.13909 -3.25556 0
M  V30 4330 H 425.83 2.70382 -2.64012 0
M  V30 4331 H 426.143 5.07429 -5.82868 0
M  V30 4332 H 424.488 4.56869 -5.23733 0
M  V30 4333 H 427.679 3.28978 -3.33003 0
M  V30 4334 H 427.852 4.3709 -4.78389 0
M  V30 4335 N 421.258 1.00505 1.21394 0
M  V30 4336 C 422.486 0.706609 1.9446 0
M  V30 4337 C 422.901 -0.73081 1.74082 0
M  V30 4338 O 422.258 -1.49446 1.04747 0
M  V30 4339 C 422.309 1.01824 3.46863 0
M  V30 4340 O 422.03 2.39919 3.66566 0
M  V30 4341 C 423.531 0.739216 4.37093 0
M  V30 4342 H 420.751 0.260394 0.618414 0
M  V30 4343 H 423.295 1.34311 1.54211 0
M  V30 4344 H 421.45 0.427343 3.85036 0
M  V30 4345 H 421.864 2.50784 4.6066 0
M  V30 4346 H 423.338 1.00744 5.42729 0
M  V30 4347 H 423.815 -0.326746 4.37983 0
M  V30 4348 H 424.421 1.31173 4.04566 0
M  V30 4349 N 422.737 -1.36956 0.779787 0
M  V30 4350 C 424.014 -1.93697 0.272156 0
M  V30 4351 C 424.394 -1.71267 -1.23413 0
M  V30 4352 O 423.742 -1.06607 -2.02107 0
M  V30 4353 C 423.952 -3.42812 0.654291 0
M  V30 4354 C 425.3 -4.19921 0.628602 0
M  V30 4355 O 426.324 -3.51209 0.594172 0
M  V30 4356 O 425.183 -5.42465 0.662864 0
M  V30 4357 H 422.277 -0.824447 0.0649286 0
M  V30 4358 H 424.823 -1.46196 0.861682 0
M  V30 4359 H 423.595 -3.52754 1.69353 0
M  V30 4360 H 423.218 -3.97582 0.0381369 0
M  V30 4361 N 424.215 -0.530993 -1.48385 0
M  V30 4362 C 425.464 0.00474348 -2.01699 0
M  V30 4363 C 425.777 1.35227 -1.41325 0
M  V30 4364 O 426.983 1.97643 -1.86144 0
M  V30 4365 C 425.439 0.0588473 -3.59852 0
M  V30 4366 C 425.047 -1.28385 -4.2921 0
M  V30 4367 C 426.791 0.543358 -4.21008 0
M  V30 4368 C 424.698 -1.19028 -5.79298 0
M  V30 4369 H 423.628 0.00554317 -0.75398 0
M  V30 4370 H 426.279 -0.674924 -1.70637 0
M  V30 4371 H 424.661 0.803612 -3.8776 0
M  V30 4372 H 425.835 -2.04426 -4.12973 0
M  V30 4373 H 424.15 -1.70418 -3.7993 0
M  V30 4374 H 426.747 0.631351 -5.3096 0
M  V30 4375 H 427.09 1.54937 -3.86394 0
M  V30 4376 H 427.623 -0.145754 -3.97533 0
M  V30 4377 H 424.362 -2.17147 -6.18488 0
M  V30 4378 H 423.882 -0.471246 -5.97946 0
M  V30 4379 H 425.561 -0.881365 -6.40969 0
M  V30 4380 N 425.693 1.55336 -0.266172 0
M  V30 4381 C 426.921 2.03801 0.356756 0
M  V30 4382 C 427.336 1.14485 1.50129 0
M  V30 4383 O 426.693 0.163121 1.8177 0
M  V30 4384 C 426.744 3.51455 0.846281 0
M  V30 4385 O 426.465 4.37371 -0.252663 0
M  V30 4386 C 427.966 4.15767 1.53794 0
M  V30 4387 H 425.186 0.665906 0.0825218 0
M  V30 4388 H 427.73 2.00636 -0.39566 0
M  V30 4389 H 425.885 3.55092 1.54881 0
M  V30 4390 H 426.299 5.24358 0.122173 0
M  V30 4391 H 427.773 5.20714 1.83198 0
M  V30 4392 H 428.25 3.63404 2.46646 0
M  V30 4393 H 428.856 4.16107 0.879488 0
M  V30 4394 N 427.171 -0.0066808 1.57599 0
M  V30 4395 C 428.104 -1.03397 2.03431 0
M  V30 4396 C 429.082 -1.33872 0.922877 0
M  V30 4397 O 430.266 -1.4615 1.19048 0
M  V30 4398 C 427.393 -2.36325 2.42628 0
M  V30 4399 C 426.439 -2.21557 3.64438 0
M  V30 4400 S 427.272 -1.54789 5.12641 0
M  V30 4401 C 428.428 -2.8916 5.55101 0
M  V30 4402 H 428.661 -0.643687 2.90248 0
M  V30 4403 H 426.194 -0.217349 1.52863 0
M  V30 4404 H 428.152 -3.12759 2.65879 0
M  V30 4405 H 426.813 -2.72495 1.56222 0
M  V30 4406 H 426.006 -3.1974 3.89592 0
M  V30 4407 H 425.608 -1.53267 3.41153 0
M  V30 4408 H 427.9 -3.8547 5.57153 0
M  V30 4409 H 428.843 -2.68713 6.55133 0
M  V30 4410 H 429.251 -2.92762 4.82649 0
M  V30 4411 N 428.649 -1.55105 -0.279332 0
M  V30 4412 C 429.596 -1.8755 -1.34513 0
M  V30 4413 C 430.566 -0.726384 -1.49375 0
M  V30 4414 O 431.751 -0.977063 -1.63884 0
M  V30 4415 C 428.891 -2.14738 -2.70151 0
M  V30 4416 C 428.004 -3.42285 -2.63562 0
M  V30 4417 C 427.139 -3.59206 -3.91337 0
M  V30 4418 C 426.178 -4.80467 -3.79233 0
M  V30 4419 N 425.315 -4.94079 -4.98829 0
M  V30 4420 H 430.155 -2.78456 -1.06143 0
M  V30 4421 H 427.692 -1.37867 -0.512936 0
M  V30 4422 H 429.65 -2.28501 -3.49061 0
M  V30 4423 H 428.28 -1.27075 -2.96735 0
M  V30 4424 H 427.332 -3.37029 -1.76397 0
M  V30 4425 H 428.644 -4.31328 -2.50515 0
M  V30 4426 H 427.798 -3.72751 -4.78687 0
M  V30 4427 H 426.537 -2.68337 -4.07243 0
M  V30 4428 H 425.542 -4.66932 -2.90266 0
M  V30 4429 H 426.767 -5.72765 -3.64852 0
M  V30 4430 H 424.713 -4.06139 -5.15158 0
M  V30 4431 H 424.63 -5.77156 -4.8829 0
M  V30 4432 H 425.898 -5.12003 -5.8777 0
M  V30 4433 N 430.127 0.543554 -1.4793 0
M  V30 4434 C 431.077 1.64527 -1.57844 0
M  V30 4435 C 432.061 1.54869 -0.436408 0
M  V30 4436 O 433.253 1.63119 -0.687101 0
M  V30 4437 C 430.382 3.03281 -1.6086 0
M  V30 4438 C 429.468 3.18093 -2.80495 0
M  V30 4439 N 429.859 3.02923 -4.05057 0
M  V30 4440 C 428.157 3.49121 -2.77543 0
M  V30 4441 C 428.858 3.20791 -4.85251 0
M  V30 4442 N 427.834 3.47749 -4.17818 0
M  V30 4443 H 431.636 1.51388 -2.5191 0
M  V30 4444 H 429.15 0.748671 -1.44113 0
M  V30 4445 H 431.147 3.82403 -1.66054 0
M  V30 4446 H 429.807 3.17521 -0.678996 0
M  V30 4447 H 430.818 2.79966 -4.35705 0
M  V30 4448 H 427.495 3.69804 -1.93781 0
M  V30 4449 H 428.885 3.13915 -5.9406 0
M  V30 4450 N 431.605 1.3629 0.791371 0
M  V30 4451 C 432.552 1.30458 1.90393 0
M  V30 4452 C 433.522 0.173632 1.6519 0
M  V30 4453 O 434.707 0.35983 1.87376 0
M  V30 4454 C 431.847 1.09777 3.27174 0
M  V30 4455 C 430.96 2.31929 3.64462 0
M  V30 4456 C 430.095 2.04276 4.90352 0
M  V30 4457 C 429.134 3.224 5.20312 0
M  V30 4458 N 428.271 2.94424 6.37385 0
M  V30 4459 H 433.111 2.25589 1.94714 0
M  V30 4460 H 430.648 1.12122 0.952216 0
M  V30 4461 H 432.606 0.958133 4.06049 0
M  V30 4462 H 431.236 0.183014 3.22281 0
M  V30 4463 H 430.288 2.56703 2.80727 0
M  V30 4464 H 431.6 3.20085 3.82553 0
M  V30 4465 H 430.754 1.87231 5.77087 0
M  V30 4466 H 429.493 1.13428 4.74326 0
M  V30 4467 H 428.498 3.40005 4.32061 0
M  V30 4468 H 429.723 4.14071 5.38258 0
M  V30 4469 H 427.669 2.06185 6.22755 0
M  V30 4470 H 427.586 3.76118 6.55798 0
M  V30 4471 H 428.854 2.80953 7.27108 0
M  V30 4472 N 433.083 -1.0153 1.20538 0
M  V30 4473 C 434.013 -2.11972 0.979295 0
M  V30 4474 C 434.994 -1.6985 -0.0921787 0
M  V30 4475 O 436.179 -1.94089 0.0655932 0
M  V30 4476 C 433.309 -3.43201 0.531984 0
M  V30 4477 C 432.263 -3.9907 1.54685 0
M  V30 4478 C 431.589 -5.26082 0.956127 0
M  V30 4479 C 432.889 -4.32313 2.93092 0
M  V30 4480 H 434.583 -2.31143 1.90298 0
M  V30 4481 H 432.129 -1.11079 0.916372 0
M  V30 4482 H 434.082 -4.1985 0.361044 0
M  V30 4483 H 432.806 -3.23792 -0.427327 0
M  V30 4484 H 431.465 -3.2453 1.70517 0
M  V30 4485 H 431.113 -5.02999 -0.0111538 0
M  V30 4486 H 430.813 -5.64426 1.63393 0
M  V30 4487 H 432.337 -6.05386 0.796284 0
M  V30 4488 H 433.751 -4.99845 2.80763 0
M  V30 4489 H 432.148 -4.81774 3.57791 0
M  V30 4490 H 433.218 -3.41025 3.44717 0
M  V30 4491 N 434.561 -1.01147 -1.20859 0
M  V30 4492 C 435.809 -0.696486 -1.89719 0
M  V30 4493 C 436.13 0.775788 -1.78904 0
M  V30 4494 O 435.4 1.55759 -1.18811 0
M  V30 4495 H 433.98 -0.254628 -0.702263 0
M  V30 4496 H 436.642 -1.28197 -1.46804 0
M  V30 4497 H 435.738 -0.975357 -2.96468 0
M  V30 4498 N 436.039 1.36541 -0.78704 0
M  V30 4499 C 437.287 1.98911 -0.357633 0
M  V30 4500 C 437.608 1.62778 1.07371 0
M  V30 4501 O 436.878 0.900612 1.73971 0
M  V30 4502 H 435.458 0.735734 -0.129246 0
M  V30 4503 H 438.12 1.66776 -1.00855 0
M  V30 4504 H 437.216 3.08874 -0.447549 0
M  V30 4505 N 437.518 0.538854 1.48102 0
M  V30 4506 C 438.766 0.00798599 2.02098 0
M  V30 4507 C 439.087 -1.33922 1.41739 0
M  V30 4508 O 438.357 -1.86932 0.585934 0
M  V30 4509 H 436.937 -3.62179e-05 0.747 0
M  V30 4510 H 439.599 0.7047 1.81714 0
M  V30 4511 H 438.695 -0.0937672 3.11959 0
M  V30 4512 N 438.996 -1.55193 0.274407 0
M  V30 4513 C 439.928 -2.1989 -0.646595 0
M  V30 4514 C 440.941 -1.1834 -1.11801 0
M  V30 4515 O 442.13 -1.4507 -1.04004 0
M  V30 4516 C 439.23 -2.8104 -1.89393 0
M  V30 4517 C 438.403 -4.08274 -1.56943 0
M  V30 4518 C 437.462 -4.53478 -2.66916 0
M  V30 4519 O 436.488 -5.19267 -2.33132 0
M  V30 4520 N 437.69 -4.2356 -3.9696 0
M  V30 4521 H 440.455 -2.99556 -0.0928686 0
M  V30 4522 H 438.016 -1.61618 0.0954783 0
M  V30 4523 H 440.008 -3.08226 -2.62257 0
M  V30 4524 H 438.578 -2.05372 -2.35672 0
M  V30 4525 H 437.798 -3.88384 -0.674655 0
M  V30 4526 H 439.086 -4.91173 -1.32764 0
M  V30 4527 H 438.484 -3.70799 -4.27229 0
M  V30 4528 H 437.041 -4.55518 -4.66205 0
M  V30 4529 N 440.474 -0.00167713 -1.576 0
M  V30 4530 C 441.704 0.692754 -1.94639 0
M  V30 4531 C 442.112 1.67744 -0.87513 0
M  V30 4532 O 441.455 1.8305 0.154382 0
M  V30 4533 C 441.517 1.47881 -3.27676 0
M  V30 4534 C 441.181 0.655518 -4.52274 0
M  V30 4535 C 442.178 -0.0575214 -5.19868 0
M  V30 4536 C 439.863 0.600994 -4.98692 0
M  V30 4537 C 441.857 -0.814052 -6.3218 0
M  V30 4538 C 439.544 -0.15926 -6.10892 0
M  V30 4539 C 440.542 -0.865515 -6.77494 0
M  V30 4540 O 440.23 -1.61336 -7.87544 0
M  V30 4541 H 439.962 0.197792 -0.646417 0
M  V30 4542 H 442.516 -0.049423 -2.05341 0
M  V30 4543 H 440.746 2.2655 -3.13388 0
M  V30 4544 H 442.435 2.05874 -3.49816 0
M  V30 4545 H 443.201 -0.0245611 -4.84994 0
M  V30 4546 H 439.08 1.14025 -4.46676 0
M  V30 4547 H 442.624 -1.36584 -6.84098 0
M  V30 4548 H 438.521 -0.194035 -6.45208 0
M  V30 4549 H 439.289 -1.53025 -8.04068 0
M  V30 4550 N 441.952 1.55251 0.271103 0
M  V30 4551 C 443.2 1.75599 1.00047 0
M  V30 4552 C 443.521 0.561188 1.8675 0
M  V30 4553 O 442.791 -0.423846 1.9126 0
M  V30 4554 H 441.371 0.647562 0.372387 0
M  V30 4555 H 444.033 1.92656 0.294876 0
M  V30 4556 H 443.129 2.65766 1.6363 0
M  V30 4557 N 443.43 -0.535701 1.48216 0
M  V30 4558 C 444.34 -1.66785 1.64985 0
M  V30 4559 C 445.356 -1.65654 0.532414 0
M  V30 4560 O 446.532 -1.8471 0.80275 0
M  V30 4561 C 443.597 -3.0326 1.68031 0
M  V30 4562 C 442.658 -3.1529 2.9136 0
M  V30 4563 C 441.891 -4.45255 2.94252 0
M  V30 4564 O 442.114 -5.32011 2.05719 0
M  V30 4565 O 441.048 -4.6153 3.86359 0
M  V30 4566 H 444.874 -1.55576 2.60825 0
M  V30 4567 H 442.459 -0.70815 1.31551 0
M  V30 4568 H 444.341 -3.84436 1.72589 0
M  V30 4569 H 443.016 -3.14805 0.753628 0
M  V30 4570 H 441.923 -2.3343 2.92337 0
M  V30 4571 H 443.256 -3.08658 3.83394 0
M  V30 4572 N 444.908 -1.36708 -0.784132 0
M  V30 4573 C 446.154 -1.31426 -1.54451 0
M  V30 4574 C 446.487 0.10476 -1.93917 0
M  V30 4575 O 445.762 1.05934 -1.6312 0
M  V30 4576 C 446.045 -2.24189 -2.818 0
M  V30 4577 C 445.898 -3.74813 -2.48667 0
M  V30 4578 C 447.217 -2.15626 -3.83658 0
M  V30 4579 H 444.336 -0.478739 -0.560337 0
M  V30 4580 H 446.978 -1.67305 -0.900498 0
M  V30 4581 H 445.128 -1.93722 -3.36755 0
M  V30 4582 H 446.8 -4.15823 -1.99722 0
M  V30 4583 H 445.043 -3.93989 -1.81535 0
M  V30 4584 H 445.714 -4.35138 -3.39646 0
M  V30 4585 H 448.19 -2.42456 -3.38163 0
M  V30 4586 H 447.066 -2.82694 -4.70506 0
M  V30 4587 H 447.327 -1.14522 -4.27009 0
M  V30 4588 N 446.386 1.0089 -1.21074 0
M  V30 4589 C 447.616 1.77933 -1.04993 0
M  V30 4590 C 448.024 1.84847 0.403495 0
M  V30 4591 O 447.367 1.30606 1.29181 0
M  V30 4592 C 447.429 3.23541 -1.56722 0
M  V30 4593 C 447.093 3.40214 -3.05129 0
M  V30 4594 C 448.09 3.2881 -4.02716 0
M  V30 4595 C 445.775 3.65781 -3.44252 0
M  V30 4596 C 447.769 3.42732 -5.37414 0
M  V30 4597 C 445.456 3.79346 -4.79103 0
M  V30 4598 C 446.454 3.67827 -5.75493 0
M  V30 4599 O 446.142 3.80965 -7.07899 0
M  V30 4600 H 445.874 0.566157 -0.369381 0
M  V30 4601 H 448.428 1.27826 -1.60779 0
M  V30 4602 H 446.658 3.74766 -0.953285 0
M  V30 4603 H 448.347 3.82245 -1.36543 0
M  V30 4604 H 449.113 3.08986 -3.73835 0
M  V30 4605 H 444.992 3.73831 -2.69762 0
M  V30 4606 H 448.536 3.33658 -6.12632 0
M  V30 4607 H 444.433 3.98672 -5.07672 0
M  V30 4608 H 445.201 3.97937 -7.15254 0
M  V30 4609 N 447.864 1.01787 1.20321 0
M  V30 4610 C 449.11 0.708985 1.90003 0
M  V30 4611 C 449.443 -0.759572 1.78729 0
M  V30 4612 O 448.718 -1.55198 1.17234 0
M  V30 4613 C 449.001 1.1469 3.41348 0
M  V30 4614 C 448.854 2.67586 3.61549 0
M  V30 4615 C 450.173 0.71915 4.34185 0
M  V30 4616 H 447.292 0.259034 0.689978 0
M  V30 4617 H 449.934 1.26584 1.41692 0
M  V30 4618 H 448.084 0.673128 3.82624 0
M  V30 4619 H 449.756 3.22826 3.29517 0
M  V30 4620 H 447.999 3.085 3.04976 0
M  V30 4621 H 448.67 2.93281 4.67643 0
M  V30 4622 H 451.146 1.12647 4.00562 0
M  V30 4623 H 450.022 1.05358 5.38694 0
M  V30 4624 H 450.283 -0.379111 4.40472 0
M  V30 4625 N 449.342 -1.36122 0.79427 0
M  V30 4626 C 450.59 -1.98718 0.368177 0
M  V30 4627 C 450.911 -1.63345 -1.06506 0
M  V30 4628 O 450.181 -0.909825 -1.73491 0
M  V30 4629 H 448.761 -0.735038 0.133146 0
M  V30 4630 H 451.423 -1.66239 1.01739 0
M  V30 4631 H 450.519 -3.08633 0.463923 0
M  V30 4632 N 450.82 -0.546701 -1.47814 0
M  V30 4633 C 452.066 -0.0187684 -2.02791 0
M  V30 4634 C 452.399 1.32338 -1.42128 0
M  V30 4635 O 451.674 1.85867 -0.573023 0
M  V30 4636 C 451.957 0.0854985 -3.59998 0
M  V30 4637 C 451.81 -1.283 -4.31114 0
M  V30 4638 C 453.129 0.80412 -4.32691 0
M  V30 4639 H 450.248 -0.0082946 -0.736953 0
M  V30 4640 H 452.89 -0.706962 -1.76358 0
M  V30 4641 H 451.04 0.671609 -3.82651 0
M  V30 4642 H 452.712 -1.91151 -4.19832 0
M  V30 4643 H 450.955 -1.86049 -3.91878 0
M  V30 4644 H 451.626 -1.16287 -5.39612 0
M  V30 4645 H 454.102 0.306576 -4.14969 0
M  V30 4646 H 452.978 0.846011 -5.42341 0
M  V30 4647 H 453.239 1.85802 -4.01161 0
M  V30 4648 N 452.299 1.55045 -0.282633 0
M  V30 4649 C 453.545 2.0078 0.325436 0
M  V30 4650 C 453.9 1.1676 1.52921 0
M  V30 4651 O 453.193 0.231475 1.90197 0
M  V30 4652 C 453.387 3.49422 0.750938 0
M  V30 4653 C 453.216 4.47827 -0.410056 0
M  V30 4654 C 451.986 4.97288 -0.896239 0
M  V30 4655 C 454.184 4.98903 -1.24902 0
M  V30 4656 N 452.166 5.79508 -2.02591 0
M  V30 4657 C 453.537 5.78644 -2.22646 0
M  V30 4658 C 455.592 4.81126 -1.2815 0
M  V30 4659 C 454.295 6.42502 -3.23393 0
M  V30 4660 C 456.321 5.45789 -2.27745 0
M  V30 4661 C 455.683 6.25348 -3.24222 0
M  V30 4662 H 451.782 0.77747 0.08405 0
M  V30 4663 H 454.366 1.90369 -0.408368 0
M  V30 4664 H 452.537 3.60159 1.45395 0
M  V30 4665 H 454.269 3.81978 1.33698 0
M  V30 4666 H 451.024 4.71219 -0.474277 0
M  V30 4667 H 451.448 6.25308 -2.59459 0
M  V30 4668 H 456.09 4.19215 -0.549397 0
M  V30 4669 H 453.808 7.03558 -3.97533 0
M  V30 4670 H 457.394 5.33972 -2.31009 0
M  V30 4671 H 456.274 6.74498 -4.00027 0
M  V30 4672 N 453.777 0.010035 1.57597 0
M  V30 4673 C 454.724 -0.978122 2.09049 0
M  V30 4674 C 455.694 -1.33509 0.988159 0
M  V30 4675 O 456.879 -1.43172 1.26121 0
M  V30 4676 C 454.019 -2.26158 2.60666 0
M  V30 4677 C 453.132 -1.96275 3.84838 0
M  V30 4678 C 452.267 -3.18776 4.24918 0
M  V30 4679 C 451.306 -2.84625 5.41899 0
M  V30 4680 N 450.443 -3.99693 5.77226 0
M  V30 4681 H 455.283 -0.532431 2.93205 0
M  V30 4682 H 452.82 -0.251234 1.44939 0
M  V30 4683 H 454.778 -3.01202 2.88675 0
M  V30 4684 H 453.408 -2.68378 1.79369 0
M  V30 4685 H 452.46 -1.11555 3.63675 0
M  V30 4686 H 453.772 -1.67111 4.69974 0
M  V30 4687 H 452.926 -4.02157 4.54262 0
M  V30 4688 H 451.665 -3.51087 3.38511 0
M  V30 4689 H 450.67 -1.99653 5.12268 0
M  V30 4690 H 451.895 -2.53551 6.29991 0
M  V30 4691 H 449.841 -4.31882 4.93776 0
M  V30 4692 H 449.758 -3.74087 6.56959 0
M  V30 4693 H 451.026 -4.83834 6.11167 0
M  V30 4694 N 455.255 -1.55392 -0.262866 0
M  V30 4695 C 456.202 -1.88966 -1.32516 0
M  V30 4696 C 457.172 -0.742187 -1.48596 0
M  V30 4697 O 458.357 -0.99439 -1.62839 0
M  V30 4698 C 455.497 -2.17592 -2.67858 0
M  V30 4699 C 454.61 -3.45061 -2.59917 0
M  V30 4700 C 453.745 -3.63336 -3.87505 0
M  V30 4701 C 452.784 -4.84462 -3.74116 0
M  V30 4702 N 451.921 -4.99342 -4.93561 0
M  V30 4703 H 456.761 -2.79566 -1.03184 0
M  V30 4704 H 454.298 -1.38404 -0.498285 0
M  V30 4705 H 456.256 -2.3219 -3.46617 0
M  V30 4706 H 454.886 -1.30215 -2.95371 0
M  V30 4707 H 453.938 -3.38881 -1.72812 0
M  V30 4708 H 455.25 -4.3396 -2.45926 0
M  V30 4709 H 454.404 -3.77807 -4.74707 0
M  V30 4710 H 453.143 -2.72641 -4.04374 0
M  V30 4711 H 452.148 -4.69985 -2.85297 0
M  V30 4712 H 453.373 -5.76603 -3.58757 0
M  V30 4713 H 451.319 -4.1158 -5.10821 0
M  V30 4714 H 451.236 -5.82303 -4.82141 0
M  V30 4715 H 452.504 -5.18208 -5.82306 0
M  V30 4716 N 456.733 0.527833 -1.48498 0
M  V30 4717 C 457.963 1.30633 -1.60058 0
M  V30 4718 C 458.371 1.87394 -0.260786 0
M  V30 4719 O 457.714 1.67227 0.760317 0
M  V30 4720 C 457.776 2.49361 -2.58958 0
M  V30 4721 C 457.44 2.13671 -4.03972 0
M  V30 4722 C 458.437 1.69217 -4.91591 0
M  V30 4723 C 456.122 2.24129 -4.49524 0
M  V30 4724 C 458.116 1.35689 -6.2279 0
M  V30 4725 C 455.803 1.90212 -5.80743 0
M  V30 4726 C 456.801 1.46063 -6.67199 0
M  V30 4727 O 456.489 1.12593 -7.95976 0
M  V30 4728 H 456.221 0.403444 -0.54241 0
M  V30 4729 H 458.775 0.643233 -1.95068 0
M  V30 4730 H 457.005 3.18659 -2.19073 0
M  V30 4731 H 458.694 3.11421 -2.6033 0
M  V30 4732 H 459.46 1.60607 -4.57636 0
M  V30 4733 H 455.339 2.57447 -3.82416 0
M  V30 4734 H 458.883 1.01157 -6.90227 0
M  V30 4735 H 454.78 1.98464 -6.14233 0
M  V30 4736 H 455.548 1.25972 -8.08748 0
M  V30 4737 N 458.211 1.37122 0.776871 0
M  V30 4738 C 459.436 1.354 1.57104 0
M  V30 4739 C 459.861 -0.0595562 1.88006 0
M  V30 4740 O 459.219 -1.03514 1.48844 0
M  V30 4741 C 459.267 2.19472 2.8612 0
M  V30 4742 O 458.371 1.59582 3.80273 0
M  V30 4743 H 457.712 0.462869 0.476076 0
M  V30 4744 H 460.242 1.80577 0.961932 0
M  V30 4745 H 460.252 2.32502 3.35271 0
M  V30 4746 H 458.927 3.22222 2.62956 0
M  V30 4747 H 457.504 1.55564 3.38902 0
M  V30 4748 N 459.689 -1.00246 1.21608 0
M  V30 4749 C 460.619 -2.10921 1.00172 0
M  V30 4750 C 461.6 -1.69938 -0.0741587 0
M  V30 4751 O 462.785 -1.94009 0.0861753 0
M  V30 4752 C 459.915 -3.42618 0.568355 0
M  V30 4753 C 458.869 -3.97407 1.58909 0
M  V30 4754 C 458.195 -5.25038 1.01187 0
M  V30 4755 C 459.495 -4.2918 2.97661 0
M  V30 4756 H 461.189 -2.29112 1.92739 0
M  V30 4757 H 458.735 -1.10101 0.928102 0
M  V30 4758 H 460.688 -4.19444 0.405555 0
M  V30 4759 H 459.412 -3.24227 -0.392961 0
M  V30 4760 H 458.071 -3.22703 1.73949 0
M  V30 4761 H 457.719 -5.02982 0.0421965 0
M  V30 4762 H 457.419 -5.62661 1.6937 0
M  V30 4763 H 458.943 -6.04507 0.860448 0
M  V30 4764 H 460.357 -4.96839 2.86049 0
M  V30 4765 H 458.754 -4.77952 3.6288 0
M  V30 4766 H 459.824 -3.3735 3.48315 0
M  V30 4767 N 461.167 -1.02423 -1.1978 0
M  V30 4768 C 462.395 -0.737456 -1.93311 0
M  V30 4769 C 462.81 0.703023 -1.75223 0
M  V30 4770 O 462.167 1.47761 -1.07112 0
M  V30 4771 C 462.218 -1.0733 -3.45199 0
M  V30 4772 O 461.939 -2.4572 -3.62702 0
M  V30 4773 C 463.44 -0.80866 -4.35862 0
M  V30 4774 H 460.66 -0.2702 -0.614193 0
M  V30 4775 H 463.204 -1.36747 -1.52054 0
M  V30 4776 H 461.359 -0.488545 -3.84307 0
M  V30 4777 H 461.773 -2.58081 -4.56612 0
M  V30 4778 H 463.247 -1.09365 -5.41057 0
M  V30 4779 H 463.724 0.257025 -4.38447 0
M  V30 4780 H 464.33 -1.37592 -4.02428 0
M  V30 4781 N 462.645 1.35699 -0.801477 0
M  V30 4782 C 463.891 1.99208 -0.380022 0
M  V30 4783 C 464.224 1.63445 1.04878 0
M  V30 4784 O 463.499 0.895223 1.72673 0
M  V30 4785 C 463.782 3.55755 -0.557708 0
M  V30 4786 C 463.635 4.01332 -2.03107 0
M  V30 4787 C 464.954 4.40096 0.0197968 0
M  V30 4788 H 462.073 0.723667 -0.139552 0
M  V30 4789 H 464.715 1.60928 -1.01006 0
M  V30 4790 H 462.865 3.88494 -0.0213741 0
M  V30 4791 H 464.537 3.79026 -2.62939 0
M  V30 4792 H 462.78 3.52429 -2.52936 0
M  V30 4793 H 463.451 5.10234 -2.1063 0
M  V30 4794 H 465.927 4.13786 -0.438179 0
M  V30 4795 H 464.803 5.48735 -0.134477 0
M  V30 4796 H 465.064 4.2786 1.11303 0
M  V30 4797 N 464.123 0.554532 1.47522 0
M  V30 4798 C 465.086 -0.184174 2.28459 0
M  V30 4799 C 466.086 -0.845195 1.36796 0
M  V30 4800 O 467.276 -0.701467 1.59452 0
M  V30 4801 C 464.408 -1.26903 3.16399 0
M  V30 4802 H 465.601 0.526751 2.95238 0
M  V30 4803 H 463.154 0.311375 1.53167 0
M  V30 4804 H 463.889 -2.01244 2.54306 0
M  V30 4805 H 463.674 -0.799883 3.83854 0
M  V30 4806 H 465.164 -1.78794 3.77389 0
M  V30 4807 N 465.601 -1.54893 0.290851 0
M  V30 4808 C 466.847 -2.0023 -0.321867 0
M  V30 4809 C 467.18 -1.179 -1.54316 0
M  V30 4810 O 466.455 -0.25293 -1.92848 0
M  V30 4811 C 466.738 -3.53456 -0.688515 0
M  V30 4812 C 466.591 -4.46532 0.541209 0
M  V30 4813 C 467.91 -4.13057 -1.51895 0
M  V30 4814 H 465.029 -0.727891 -0.115515 0
M  V30 4815 H 467.671 -1.85722 0.400931 0
M  V30 4816 H 465.821 -3.6595 -1.30433 0
M  V30 4817 H 467.493 -4.4596 1.17973 0
M  V30 4818 H 465.736 -4.17545 1.17636 0
M  V30 4819 H 466.407 -5.51475 0.240675 0
M  V30 4820 H 468.883 -4.03937 -0.99872 0
M  V30 4821 H 467.759 -5.20448 -1.74429 0
M  V30 4822 H 468.02 -3.64284 -2.50498 0
M  V30 4823 N 467.08 -0.0183926 -1.57589 0
M  V30 4824 C 468.027 0.967022 -2.09565 0
M  V30 4825 C 468.997 1.32983 -0.995225 0
M  V30 4826 O 470.182 1.42501 -1.26878 0
M  V30 4827 C 467.322 2.24772 -2.61861 0
M  V30 4828 C 466.435 1.94232 -3.85873 0
M  V30 4829 C 465.57 3.16518 -4.26603 0
M  V30 4830 C 464.609 2.81748 -5.43401 0
M  V30 4831 N 463.746 3.96626 -5.79338 0
M  V30 4832 H 468.586 0.516874 -2.93483 0
M  V30 4833 H 466.123 0.243544 -1.4507 0
M  V30 4834 H 468.081 2.99667 -2.90268 0
M  V30 4835 H 466.711 2.67423 -1.8079 0
M  V30 4836 H 465.763 1.09625 -3.64262 0
M  V30 4837 H 467.075 1.64616 -4.70853 0
M  V30 4838 H 466.229 3.99743 -4.56389 0
M  V30 4839 H 464.968 3.49286 -3.40368 0
M  V30 4840 H 463.973 1.96933 -5.1332 0
M  V30 4841 H 465.198 2.50207 -6.31327 0
M  V30 4842 H 463.144 4.29257 -4.96059 0
M  V30 4843 H 463.061 3.70598 -6.58933 0
M  V30 4844 H 464.329 4.80586 -6.13724 0
M  V30 4845 N 468.558 1.5553 0.254621 0
M  V30 4846 C 469.786 1.81046 1.00149 0
M  V30 4847 C 470.201 0.593047 1.79244 0
M  V30 4848 O 469.558 -0.438196 1.77161 0
M  V30 4849 C 469.609 3.04684 1.94551 0
M  V30 4850 O 469.33 4.21725 1.18658 0
M  V30 4851 C 470.831 3.42943 2.80901 0
M  V30 4852 H 468.051 0.602653 0.295044 0
M  V30 4853 H 470.595 2.02576 0.279842 0
M  V30 4854 H 468.75 2.85226 2.62154 0
M  V30 4855 H 469.164 4.91746 1.82445 0
M  V30 4856 H 470.638 4.32576 3.42902 0
M  V30 4857 H 471.115 2.63176 3.51617 0
M  V30 4858 H 471.721 3.64724 2.18762 0
M  V30 4859 N 470.036 -0.519951 1.48776 0
M  V30 4860 C 470.966 -1.63253 1.66945 0
M  V30 4861 C 471.947 -1.62014 0.518224 0
M  V30 4862 O 473.132 -1.79053 0.751919 0
M  V30 4863 C 470.262 -3.0181 1.71836 0
M  V30 4864 C 469.216 -3.17911 2.8656 0
M  V30 4865 C 468.542 -4.5763 2.76548 0
M  V30 4866 C 469.842 -2.99729 4.27738 0
M  V30 4867 H 471.536 -1.48302 2.6009 0
M  V30 4868 H 469.082 -0.712026 1.25165 0
M  V30 4869 H 471.035 -3.79525 1.83135 0
M  V30 4870 H 469.759 -3.17806 0.752775 0
M  V30 4871 H 468.418 -2.42616 2.74833 0
M  V30 4872 H 468.066 -4.70476 1.77937 0
M  V30 4873 H 467.766 -4.69346 3.53536 0
M  V30 4874 H 469.29 -5.37431 2.89828 0
M  V30 4875 H 470.704 -3.67228 4.40246 0
M  V30 4876 H 469.101 -3.22932 5.05801 0
M  V30 4877 H 470.171 -1.96047 4.43502 0
M  V30 4878 N 471.514 -1.37532 -0.769588 0
M  V30 4879 C 472.461 -1.3347 -1.88293 0
M  V30 4880 C 473.431 -0.199891 -1.64893 0
M  V30 4881 O 474.616 -0.389594 -1.8678 0
M  V30 4882 C 471.756 -1.14968 -3.25387 0
M  V30 4883 C 470.869 -2.37698 -3.60727 0
M  V30 4884 C 470.004 -2.12051 -4.8704 0
M  V30 4885 C 469.043 -3.30636 -5.15117 0
M  V30 4886 N 468.18 -3.04527 -6.3262 0
M  V30 4887 H 473.02 -2.28658 -1.911 0
M  V30 4888 H 470.557 -1.13622 -0.934257 0
M  V30 4889 H 472.515 -1.02261 -4.04473 0
M  V30 4890 H 471.145 -0.234263 -3.21949 0
M  V30 4891 H 470.197 -2.61137 -2.76608 0
M  V30 4892 H 471.509 -3.26131 -3.77413 0
M  V30 4893 H 470.663 -1.96388 -5.74035 0
M  V30 4894 H 469.402 -1.20959 -4.72462 0
M  V30 4895 H 468.407 -3.46836 -4.26597 0
M  V30 4896 H 469.632 -4.22582 -5.31603 0
M  V30 4897 H 467.578 -2.16067 -6.19396 0
M  V30 4898 H 467.495 -3.86503 -6.49732 0
M  V30 4899 H 468.763 -2.92485 -7.22546 0
M  V30 4900 N 472.992 0.995999 -1.22138 0
M  V30 4901 C 473.902 2.11985 -1.00496 0
M  V30 4902 C 474.918 1.7394 0.0457701 0
M  V30 4903 O 476.094 2.00868 -0.146273 0
M  V30 4904 C 473.159 3.41779 -0.582086 0
M  V30 4905 C 472.22 3.93943 -1.70608 0
M  V30 4906 C 471.453 5.17542 -1.30328 0
M  V30 4907 O 471.676 5.70114 -0.180743 0
M  V30 4908 O 470.61 5.63382 -2.11861 0
M  V30 4909 H 474.436 2.33123 -1.94647 0
M  V30 4910 H 472.021 1.10358 -1.00705 0
M  V30 4911 H 473.903 4.1989 -0.356467 0
M  V30 4912 H 472.578 3.22007 0.330592 0
M  V30 4913 H 471.485 3.17019 -1.98619 0
M  V30 4914 H 472.818 4.18141 -2.59651 0
M  V30 4915 N 474.47 1.03057 1.19235 0
M  V30 4916 C 475.747 0.642608 1.84743 0
M  V30 4917 C 476.127 -0.878577 1.91948 0
M  V30 4918 O 475.475 -1.77597 1.43776 0
M  V30 4919 C 475.685 1.30665 3.23616 0
M  V30 4920 C 477.033 1.43098 3.9976 0
M  V30 4921 O 478.057 1.26396 3.3302 0
M  V30 4922 O 476.916 1.70223 5.19313 0
M  V30 4923 H 474.01 0.223573 0.796206 0
M  V30 4924 H 476.556 1.12883 1.26711 0
M  V30 4925 H 475.328 2.34544 3.13217 0
M  V30 4926 H 474.951 0.808405 3.89295 0
M  V30 4927 N 475.948 -1.35272 0.808662 0
M  V30 4928 C 477.176 -2.02946 0.402537 0
M  V30 4929 C 477.591 -1.60937 -0.987147 0
M  V30 4930 O 476.948 -0.807917 -1.63643 0
M  V30 4931 C 476.999 -3.58317 0.47868 0
M  V30 4932 O 476.72 -3.98799 1.81358 0
M  V30 4933 C 478.221 -4.43251 0.0656281 0
M  V30 4934 H 475.441 -0.650831 0.163279 0
M  V30 4935 H 477.985 -1.72849 1.09286 0
M  V30 4936 H 476.14 -3.87055 -0.163415 0
M  V30 4937 H 476.554 -4.93451 1.77781 0
M  V30 4938 H 478.028 -5.51738 0.170017 0
M  V30 4939 H 478.505 -4.27913 -0.989278 0
M  V30 4940 H 479.111 -4.19813 0.68096 0
M  V30 4941 N 477.426 -0.562348 -1.47226 0
M  V30 4942 C 478.359 0.230405 -2.27034 0
M  V30 4943 C 479.337 0.915609 -1.3437 0
M  V30 4944 O 480.521 0.933573 -1.63758 0
M  V30 4945 C 477.648 1.32874 -3.11548 0
M  V30 4946 C 476.694 0.751552 -4.19826 0
M  V30 4947 S 477.527 -0.405848 -5.3396 0
M  V30 4948 C 478.683 0.694186 -6.22038 0
M  V30 4949 H 478.916 -0.446811 -2.93923 0
M  V30 4950 H 476.449 -0.348781 -1.50409 0
M  V30 4951 H 478.407 1.95773 -3.60809 0
M  V30 4952 H 477.068 1.97782 -2.44011 0
M  V30 4953 H 476.261 1.57651 -4.78709 0
M  V30 4954 H 475.863 0.198645 -3.73472 0
M  V30 4955 H 478.155 1.58501 -6.58698 0
M  V30 4956 H 479.098 0.142592 -7.07956 0
M  V30 4957 H 479.506 0.989169 -5.55766 0
M  V30 4958 N 478.904 1.54736 -0.299062 0
M  V30 4959 C 479.814 2.27127 0.587413 0
M  V30 4960 C 480.83 1.30575 1.15005 0
M  V30 4961 O 482.006 1.63554 1.17525 0
M  V30 4962 C 479.071 2.99645 1.74395 0
M  V30 4963 C 478.132 4.11731 1.21559 0
M  V30 4964 C 477.365 4.80781 2.317 0
M  V30 4965 O 477.588 4.4918 3.51558 0
M  V30 4966 O 476.522 5.68226 1.98501 0
M  V30 4967 H 480.348 3.037 0.000250109 0
M  V30 4968 H 477.933 1.49256 -0.0655919 0
M  V30 4969 H 479.815 3.45138 2.4178 0
M  V30 4970 H 478.49 2.25969 2.31775 0
M  V30 4971 H 477.397 3.70641 0.507514 0
M  V30 4972 H 478.73 4.87379 0.687233 0
M  V30 4973 N 480.382 0.0267497 1.57577 0
M  V30 4974 C 481.628 -0.653371 1.91987 0
M  V30 4975 C 481.961 -1.71915 0.903263 0
M  V30 4976 O 481.236 -1.94358 -0.0743387 0
M  V30 4977 C 481.519 -1.272 3.36886 0
M  V30 4978 C 481.372 -0.215938 4.49281 0
M  V30 4979 C 482.691 -2.19069 3.81703 0
M  V30 4980 H 479.81 -0.236047 0.698177 0
M  V30 4981 H 482.452 0.0835236 1.89816 0
M  V30 4982 H 480.602 -1.90005 3.38866 0
M  V30 4983 H 482.274 0.41449 4.59434 0
M  V30 4984 H 480.517 0.458855 4.31366 0
M  V30 4985 H 481.188 -0.688347 5.47691 0
M  V30 4986 H 483.664 -1.66253 3.81444 0
M  V30 4987 H 482.54 -2.59307 4.83788 0
M  V30 4988 H 482.801 -3.08087 3.17072 0
M  V30 4989 N 481.861 -1.55662 -0.24637 0
M  V30 4990 C 482.771 -1.93495 -1.32653 0
M  V30 4991 C 483.787 -0.835462 -1.5263 0
M  V30 4992 O 484.963 -1.1369 -1.66242 0
M  V30 4993 C 482.028 -2.22242 -2.66101 0
M  V30 4994 C 481.089 -3.45625 -2.54641 0
M  V30 4995 C 480.322 -3.72991 -3.81724 0
M  V30 4996 O 480.545 -3.02421 -4.8363 0
M  V30 4997 O 479.479 -4.66515 -3.80325 0
M  V30 4998 H 483.305 -2.85498 -1.03559 0
M  V30 4999 H 480.89 -1.42551 -0.44717 0
M  V30 5000 H 482.772 -2.42037 -3.44958 0
M  V30 5001 H 481.447 -1.33417 -2.94926 0
M  V30 5002 H 480.354 -3.31136 -1.74067 0
M  V30 5003 H 481.687 -4.34754 -2.3076 0
M  V30 5004 N 483.339 0.512053 -1.4905 0
M  V30 5005 C 484.249 1.64139 -1.67617 0
M  V30 5006 C 485.265 1.64786 -0.558701 0
M  V30 5007 O 486.441 1.8341 -0.832034 0
M  V30 5008 C 483.506 3.00548 -1.72835 0
M  V30 5009 C 482.567 3.10615 -2.96339 0
M  V30 5010 C 481.8 4.40517 -3.01298 0
M  V30 5011 O 482.023 5.28671 -2.14157 0
M  V30 5012 O 480.957 4.55325 -3.93653 0
M  V30 5013 H 484.783 1.51407 -2.63267 0
M  V30 5014 H 482.368 0.687131 -1.32661 0
M  V30 5015 H 484.25 3.81641 -1.78683 0
M  V30 5016 H 482.925 3.13566 -0.803616 0
M  V30 5017 H 481.832 2.2875 -2.96014 0
M  V30 5018 H 483.165 3.0252 -3.88256 0
M  V30 5019 N 484.817 1.37938 0.762283 0
M  V30 5020 C 486.064 1.33668 1.52115 0
M  V30 5021 C 486.392 -0.0759538 1.94352 0
M  V30 5022 O 485.647 -1.05121 1.6507 0
M  V30 5023 C 485.946 2.23042 2.79261 0
M  V30 5024 C 485.612 3.71159 2.56031 0
M  V30 5025 C 484.274 4.11523 2.49404 0
M  V30 5026 C 486.626 4.64955 2.35513 0
M  V30 5027 C 483.954 5.43784 2.20263 0
M  V30 5028 C 486.306 5.97464 2.07894 0
M  V30 5029 C 484.97 6.36922 1.99718 0
M  V30 5030 H 484.24 0.489127 0.556629 0
M  V30 5031 H 486.887 1.70224 0.877262 0
M  V30 5032 H 485.192 1.79512 3.48256 0
M  V30 5033 H 486.889 2.17047 3.37182 0
M  V30 5034 H 483.479 3.39153 2.62056 0
M  V30 5035 H 487.663 4.34623 2.39617 0
M  V30 5036 H 482.919 5.73307 2.12435 0
M  V30 5037 H 487.093 6.6969 1.91019 0
M  V30 5038 H 484.72 7.39331 1.76902 0
M  V30 5039 N 486.295 -0.989507 1.22664 0
M  V30 5040 C 487.225 -2.09847 1.02404 0
M  V30 5041 C 488.206 -1.70007 -0.0561303 0
M  V30 5042 O 489.391 -1.93906 0.106748 0
M  V30 5043 C 486.521 -3.41996 0.604663 0
M  V30 5044 C 485.475 -3.95699 1.63115 0
M  V30 5045 C 484.801 -5.23936 1.0675 0
M  V30 5046 C 486.101 -4.25999 3.02196 0
M  V30 5047 H 487.795 -2.27054 1.95158 0
M  V30 5048 H 485.341 -1.09111 0.939727 0
M  V30 5049 H 487.294 -4.1899 0.45002 0
M  V30 5050 H 486.018 -3.24626 -0.35855 0
M  V30 5051 H 484.677 -3.2084 1.77362 0
M  V30 5052 H 484.325 -5.02909 0.0955422 0
M  V30 5053 H 484.025 -5.60833 1.75328 0
M  V30 5054 H 485.549 -6.0356 0.924516 0
M  V30 5055 H 486.963 -4.93777 2.91303 0
M  V30 5056 H 485.36 -4.74076 3.67929 0
M  V30 5057 H 486.43 -3.33636 3.51873 0
M  V30 5058 N 487.773 -1.03688 -1.18687 0
M  V30 5059 C 488.72 -0.624624 -2.22187 0
M  V30 5060 C 489.69 0.365636 -1.62026 0
M  V30 5061 O 490.875 0.260481 -1.89014 0
M  V30 5062 C 488.015 0.0101738 -3.45099 0
M  V30 5063 C 487.128 -1.02709 -4.19613 0
M  V30 5064 C 486.263 -0.361213 -5.2997 0
M  V30 5065 C 485.302 -1.38384 -5.96252 0
M  V30 5066 N 484.439 -0.743196 -6.98155 0
M  V30 5067 H 489.279 -1.51176 -2.56807 0
M  V30 5068 H 486.816 -0.75636 -1.26165 0
M  V30 5069 H 488.774 0.395528 -4.15321 0
M  V30 5070 H 487.404 0.860848 -3.1111 0
M  V30 5071 H 486.456 -1.53043 -3.48256 0
M  V30 5072 H 487.768 -1.80398 -4.65036 0
M  V30 5073 H 486.922 0.0785537 -6.06649 0
M  V30 5074 H 485.661 0.447799 -4.8564 0
M  V30 5075 H 484.666 -1.83378 -5.18317 0
M  V30 5076 H 485.891 -2.19448 -6.42666 0
M  V30 5077 H 483.837 0.0455789 -6.55984 0
M  V30 5078 H 483.754 -1.45784 -7.41811 0
M  V30 5079 H 485.022 -0.327698 -7.78811 0
M  V30 5080 N 489.251 1.34841 -0.815825 0
M  V30 5081 C 490.161 2.33425 -0.234462 0
M  V30 5082 C 491.177 1.62295 0.627413 0
M  V30 5083 O 492.353 1.94109 0.536987 0
M  V30 5084 C 489.418 3.41471 0.599849 0
M  V30 5085 C 488.479 4.28362 -0.283596 0
M  V30 5086 C 487.712 5.31248 0.51099 0
M  V30 5087 O 487.935 5.43056 1.7449 0
M  V30 5088 O 486.869 6.01812 -0.10297 0
M  V30 5089 H 490.695 2.84962 -1.05024 0
M  V30 5090 H 488.28 1.37774 -0.577809 0
M  V30 5091 H 490.162 4.07464 1.07475 0
M  V30 5092 H 488.837 2.9219 1.39308 0
M  V30 5093 H 487.744 3.65318 -0.805836 0
M  V30 5094 H 489.077 4.81066 -1.041 0
M  V30 5095 N 490.729 0.570148 1.46925 0
M  V30 5096 C 491.692 -0.159933 2.28641 0
M  V30 5097 C 492.692 -0.830638 1.37685 0
M  V30 5098 O 493.882 -0.684516 1.60187 0
M  V30 5099 C 491.014 -1.2354 3.17727 0
M  V30 5100 H 492.207 0.558035 2.94662 0
M  V30 5101 H 489.76 0.327603 1.52828 0
M  V30 5102 H 490.495 -1.98535 2.56426 0
M  V30 5103 H 490.28 -0.759125 3.84681 0
M  V30 5104 H 491.77 -1.74782 3.79264 0
M  V30 5105 N 492.207 -1.54576 0.307264 0
M  V30 5106 C 493.17 -2.22423 -0.553224 0
M  V30 5107 C 494.17 -1.21231 -1.05639 0
M  V30 5108 O 495.36 -1.45923 -0.951419 0
M  V30 5109 C 492.492 -2.91552 -1.76664 0
M  V30 5110 H 493.685 -2.99874 0.0396484 0
M  V30 5111 H 491.238 -1.56192 0.0581629 0
M  V30 5112 H 491.973 -2.18196 -2.39918 0
M  V30 5113 H 491.758 -3.65738 -1.41343 0
M  V30 5114 H 493.248 -3.43292 -2.37783 0
M  V30 5115 N 493.685 -0.035106 -1.57561 0
M  V30 5116 C 494.931 0.64318 -1.92331 0
M  V30 5117 C 495.264 1.71434 -0.912368 0
M  V30 5118 O 494.539 1.94395 0.0640303 0
M  V30 5119 C 494.822 1.25411 -3.37556 0
M  V30 5120 C 494.675 0.192109 -4.4939 0
M  V30 5121 C 495.994 2.17041 -3.82859 0
M  V30 5122 H 493.113 0.232341 -0.699419 0
M  V30 5123 H 495.755 -0.0935889 -1.89769 0
M  V30 5124 H 493.905 1.88205 -3.39869 0
M  V30 5125 H 495.577 -0.438849 -4.59208 0
M  V30 5126 H 493.82 -0.481725 -4.31117 0
M  V30 5127 H 494.491 0.659292 -5.48049 0
M  V30 5128 H 496.967 1.64228 -3.8232 0
M  V30 5129 H 495.843 2.56738 -4.85157 0
M  V30 5130 H 496.104 3.06401 -3.18702 0
M  V30 5131 N 495.163 1.55791 0.238111 0
M  V30 5132 C 496.096 1.86036 1.32158 0
M  V30 5133 C 497.074 0.716216 1.45976 0
M  V30 5134 O 498.258 0.962882 1.62052 0
M  V30 5135 C 495.385 2.05281 2.69402 0
M  V30 5136 C 494.431 3.27939 2.72687 0
M  V30 5137 S 495.264 4.84342 2.28413 0
M  V30 5138 C 496.42 5.06604 3.67565 0
M  V30 5139 H 496.653 2.77644 1.06306 0
M  V30 5140 H 494.186 1.48012 0.439537 0
M  V30 5141 H 496.144 2.17053 3.48423 0
M  V30 5142 H 494.805 1.14499 2.92487 0
M  V30 5143 H 493.998 3.38398 3.73501 0
M  V30 5144 H 493.6 3.14938 2.01717 0
M  V30 5145 H 495.892 4.94486 4.6313 0
M  V30 5146 H 496.835 6.08554 3.62033 0
M  V30 5147 H 497.243 4.34409 3.60485 0
M  V30 5148 N 496.642 -0.504142 1.49319 0
M  V30 5149 C 497.589 -1.60603 1.65756 0
M  V30 5150 C 498.559 -1.58425 0.499082 0
M  V30 5151 O 499.744 -1.76459 0.725728 0
M  V30 5152 C 496.884 -2.98764 1.72726 0
M  V30 5153 C 495.997 -3.10982 2.99857 0
M  V30 5154 C 495.132 -4.39857 2.97824 0
M  V30 5155 C 494.171 -4.45697 4.19548 0
M  V30 5156 N 493.308 -5.65995 4.15444 0
M  V30 5157 H 498.148 -1.45895 2.59843 0
M  V30 5158 H 495.685 -0.709891 1.28837 0
M  V30 5159 H 497.643 -3.78839 1.74747 0
M  V30 5160 H 496.273 -3.12183 0.821075 0
M  V30 5161 H 495.325 -2.23991 3.07461 0
M  V30 5162 H 496.637 -3.11157 3.89849 0
M  V30 5163 H 495.791 -5.2825 2.98391 0
M  V30 5164 H 494.53 -4.42242 2.05604 0
M  V30 5165 H 493.535 -3.55707 4.19229 0
M  V30 5166 H 494.76 -4.4503 5.12957 0
M  V30 5167 H 492.706 -5.69229 3.26059 0
M  V30 5168 H 492.623 -5.67773 4.99169 0
M  V30 5169 H 493.891 -6.56604 4.20109 0
M  V30 5170 N 498.12 -1.38341 -0.754957 0
M  V30 5171 C 499.03 -1.3769 -1.89944 0
M  V30 5172 C 500.046 -0.274194 -1.71826 0
M  V30 5173 O 501.222 -0.512391 -1.94773 0
M  V30 5174 C 498.287 -1.19938 -3.25293 0
M  V30 5175 C 497.348 -2.40001 -3.55946 0
M  V30 5176 C 496.581 -2.23087 -4.84838 0
M  V30 5177 O 496.804 -1.22386 -5.57116 0
M  V30 5178 O 495.738 -3.11646 -5.14937 0
M  V30 5179 H 499.564 -2.3412 -1.93446 0
M  V30 5180 H 497.149 -1.19246 -0.900044 0
M  V30 5181 H 499.031 -1.12093 -4.06218 0
M  V30 5182 H 497.706 -0.265919 -3.22606 0
M  V30 5183 H 496.613 -2.53421 -2.75188 0
M  V30 5184 H 497.946 -3.31973 -3.63394 0
M  V30 5185 N 499.598 0.982988 -1.23187 0
M  V30 5186 C 500.847 1.71817 -1.05649 0
M  V30 5187 C 501.16 1.91315 0.407176 0
M  V30 5188 O 502.366 2.62256 0.702436 0
M  V30 5189 C 500.822 3.09188 -1.84203 0
M  V30 5190 C 500.43 2.97586 -3.34882 0
M  V30 5191 C 502.174 3.86684 -1.75146 0
M  V30 5192 C 500.081 4.30173 -4.05839 0
M  V30 5193 H 499.011 0.644258 -0.391724 0
M  V30 5194 H 501.662 1.09659 -1.4713 0
M  V30 5195 H 500.044 3.72087 -1.35527 0
M  V30 5196 H 501.218 2.43793 -3.91026 0
M  V30 5197 H 499.533 2.33567 -3.44725 0
M  V30 5198 H 502.13 4.84836 -2.25473 0
M  V30 5199 H 502.473 4.10136 -0.713737 0
M  V30 5200 H 503.006 3.30482 -2.21419 0
M  V30 5201 H 499.745 4.11918 -5.09906 0
M  V30 5202 H 499.265 4.83841 -3.54482 0
M  V30 5203 H 500.944 4.98873 -4.11989 0
M  V30 5204 N 501.076 1.04316 1.18135 0
M  V30 5205 C 502.023 0.636398 2.21853 0
M  V30 5206 C 502.993 -0.357039 1.62217 0
M  V30 5207 O 504.178 -0.250453 1.89149 0
M  V30 5208 C 501.318 0.00812779 3.45099 0
M  V30 5209 C 500.431 1.04933 4.19062 0
M  V30 5210 C 499.566 0.389313 5.29771 0
M  V30 5211 C 498.605 1.41544 5.9551 0
M  V30 5212 N 497.742 0.78021 6.97751 0
M  V30 5213 H 502.582 1.52536 2.56002 0
M  V30 5214 H 500.119 0.76304 1.25762 0
M  V30 5215 H 502.077 -0.373497 4.15525 0
M  V30 5216 H 500.707 -0.844336 3.11562 0
M  V30 5217 H 499.759 1.54888 3.47439 0
M  V30 5218 H 501.071 1.82862 4.64072 0
M  V30 5219 H 500.225 -0.0463805 6.06682 0
M  V30 5220 H 498.964 -0.422038 4.8587 0
M  V30 5221 H 497.969 1.86124 5.17337 0
M  V30 5222 H 499.194 2.22854 6.41493 0
M  V30 5223 H 497.14 -0.0107899 6.55999 0
M  V30 5224 H 497.057 1.49716 7.41027 0
M  V30 5225 H 498.325 0.368996 7.78626 0
M  V30 5226 N 502.554 -1.34406 0.822964 0
M  V30 5227 C 503.504 -2.26963 0.217208 0
M  V30 5228 C 504.488 -1.48536 -0.618545 0
M  V30 5229 O 505.68 -1.7056 -0.473118 0
M  V30 5230 C 502.809 -3.37655 -0.619973 0
M  V30 5231 C 501.895 -4.23495 0.226411 0
M  V30 5232 N 502.286 -4.88876 1.29744 0
M  V30 5233 C 500.584 -4.45999 0.0107554 0
M  V30 5234 C 501.285 -5.52642 1.81553 0
M  V30 5235 N 500.261 -5.31949 1.11942 0
M  V30 5236 H 504.063 -2.75017 1.03647 0
M  V30 5237 H 501.577 -1.48126 0.665777 0
M  V30 5238 H 503.574 -4.02932 -1.07011 0
M  V30 5239 H 502.234 -2.91151 -1.43739 0
M  V30 5240 H 503.245 -4.89886 1.68024 0
M  V30 5241 H 499.922 -4.10253 -0.774495 0
M  V30 5242 H 501.312 -6.14755 2.71156 0
M  V30 5243 N 504.032 -0.577932 -1.46621 0
M  V30 5244 C 505.443 -0.150071 -1.86096 0
M  V30 5245 C 505.794 1.28563 -1.48209 0
M  V30 5246 O 504.919 1.97036 -0.894754 0
M  V30 5247 C 505.514 -0.265576 -3.37758 0
M  V30 5248 C 504.073 0.10738 -3.76247 0
M  V30 5249 C 503.22 -0.603711 -2.70649 0
M  V30 5250 H 506.171 -0.786438 -1.37844 0
M  V30 5251 H 506.192 0.510352 -3.77062 0
M  V30 5252 H 505.704 -1.3106 -3.65301 0
M  V30 5253 H 503.805 1.15272 -3.54321 0
M  V30 5254 H 503.918 -0.26561 -4.78363 0
M  V30 5255 H 502.282 -0.0444884 -2.54661 0
M  V30 5256 H 503.065 -1.65029 -3.01032 0
M  V30 5257 N 505.51 1.54411 -0.315457 0
M  V30 5258 C 506.458 2.25514 0.569771 0
M  V30 5259 C 507.452 1.2663 1.12522 0
M  V30 5260 O 508.658 1.44434 1.07419 0
M  V30 5261 H 505.033 0.724257 0.202376 0
M  V30 5262 H 507.004 2.98354 -0.0522895 0
M  V30 5263 C 505.753 3.02004 1.72305 0
M  V30 5264 H 505.076 3.77906 1.30488 0
M  V30 5265 H 506.516 3.55014 2.31821 0
M  V30 5266 C 504.975 2.09822 2.63583 0
M  V30 5267 O 505.505 1.67574 3.65078 0
M  V30 5268 N 503.711 1.75478 2.31637 0
M  V30 5269 H 503.258 2.10032 1.49145 0
M  V30 5270 H 503.216 1.14079 2.92973 0
M  V30 5271 N 506.988 0.0434614 1.5754 0
M  V30 5272 C 507.918 -0.931651 2.14109 0
M  V30 5273 C 508.899 -1.32971 1.06079 0
M  V30 5274 O 510.084 -1.40579 1.33982 0
M  V30 5275 C 507.214 -2.20914 2.67982 0
M  V30 5276 C 506.168 -1.95139 3.80926 0
M  V30 5277 C 505.494 -3.29276 4.21285 0
M  V30 5278 C 506.794 -1.27913 5.06395 0
M  V30 5279 H 508.488 -0.460497 2.95837 0
M  V30 5280 H 506.034 -0.220058 1.42309 0
M  V30 5281 H 507.987 -2.89522 3.06194 0
M  V30 5282 H 506.711 -2.70221 1.83434 0
M  V30 5283 H 505.37 -1.28945 3.43175 0
M  V30 5284 H 505.018 -3.76369 3.33699 0
M  V30 5285 H 504.718 -3.12831 4.97404 0
M  V30 5286 H 506.242 -3.99129 4.62091 0
M  V30 5287 H 507.656 -1.86544 5.42102 0
M  V30 5288 H 506.053 -1.2182 5.87605 0
M  V30 5289 H 507.123 -0.254066 4.84234 0
M  V30 5290 N 508.466 -1.55915 -0.229846 0
M  V30 5291 C 509.712 -1.78807 -0.956868 0
M  V30 5292 C 510.045 -0.611687 -1.84315 0
M  V30 5293 O 509.32 0.389398 -1.90562 0
M  V30 5294 C 509.603 -3.11718 -1.80288 0
M  V30 5295 C 509.456 -4.3979 -0.943649 0
M  V30 5296 C 510.775 -3.40999 -2.78222 0
M  V30 5297 H 507.894 -0.6505 -0.346437 0
M  V30 5298 H 510.536 -1.88648 -0.226252 0
M  V30 5299 H 508.686 -3.03459 -2.42579 0
M  V30 5300 H 510.358 -4.60059 -0.338121 0
M  V30 5301 H 508.601 -4.33086 -0.248705 0
M  V30 5302 H 509.272 -5.29208 -1.5698 0
M  V30 5303 H 511.748 -3.49332 -2.26067 0
M  V30 5304 H 510.624 -4.35183 -3.34526 0
M  V30 5305 H 510.885 -2.62754 -3.55546 0
M  V30 5306 N 509.944 0.496216 -1.49584 0
M  V30 5307 C 510.876 1.61404 -1.62731 0
M  V30 5308 C 511.889 1.54613 -0.50978 0
M  V30 5309 O 513.078 1.60458 -0.782017 0
M  V30 5310 C 510.178 3.00212 -1.57245 0
M  V30 5311 C 509.351 3.32138 -2.84611 0
M  V30 5312 C 508.41 4.5038 -2.72112 0
M  V30 5313 O 507.436 4.51926 -3.46051 0
M  V30 5314 N 508.638 5.50575 -1.83977 0
M  V30 5315 H 511.403 1.50552 -2.59141 0
M  V30 5316 H 508.964 0.684182 -1.46733 0
M  V30 5317 H 510.956 3.77241 -1.4653 0
M  V30 5318 H 509.526 3.04964 -0.686729 0
M  V30 5319 H 508.746 2.4396 -3.09641 0
M  V30 5320 H 510.034 3.50268 -3.69039 0
M  V30 5321 H 509.432 5.52128 -1.23171 0
M  V30 5322 H 507.989 6.26687 -1.79182 0
M  V30 5323 N 511.423 1.38739 0.74761 0
M  V30 5324 C 512.353 1.39173 1.87492 0
M  V30 5325 C 513.334 0.256794 1.6815 0
M  V30 5326 O 514.519 0.460762 1.88655 0
M  V30 5327 C 511.649 1.22197 3.25093 0
M  V30 5328 C 510.603 2.32957 3.59047 0
M  V30 5329 C 509.929 2.01082 4.95449 0
M  V30 5330 C 511.229 3.75237 3.6331 0
M  V30 5331 H 512.923 2.3351 1.87386 0
M  V30 5332 H 510.469 1.12399 0.900134 0
M  V30 5333 H 512.422 1.21124 4.03617 0
M  V30 5334 H 511.146 0.243241 3.25693 0
M  V30 5335 H 509.805 2.33226 2.82845 0
M  V30 5336 H 509.453 1.01678 4.92616 0
M  V30 5337 H 509.153 2.75267 5.19136 0
M  V30 5338 H 510.677 2.01638 5.76346 0
M  V30 5339 H 512.091 3.76966 4.31937 0
M  V30 5340 H 510.488 4.48677 3.98509 0
M  V30 5341 H 511.558 4.07122 2.634 0
M  V30 5342 N 512.901 -0.976442 1.23707 0
M  V30 5343 C 513.831 -2.08749 1.04624 0
M  V30 5344 C 514.812 -1.70057 -0.0380956 0
M  V30 5345 O 515.997 -1.93782 0.127308 0
M  V30 5346 C 513.127 -3.41335 0.640902 0
M  V30 5347 C 512.081 -3.93947 1.67302 0
M  V30 5348 C 511.407 -5.22774 1.12301 0
M  V30 5349 C 512.707 -4.22769 3.06697 0
M  V30 5350 H 514.401 -2.24972 1.97555 0
M  V30 5351 H 511.947 -1.08108 0.951247 0
M  V30 5352 H 513.9 -4.18489 0.494434 0
M  V30 5353 H 512.624 -3.24988 -0.324099 0
M  V30 5354 H 511.283 -3.18941 1.80755 0
M  V30 5355 H 510.931 -5.0278 0.148877 0
M  V30 5356 H 510.631 -5.58942 1.81267 0
M  V30 5357 H 512.155 -6.02546 0.988479 0
M  V30 5358 H 513.569 -4.90659 2.96524 0
M  V30 5359 H 511.966 -4.70147 3.72937 0
M  V30 5360 H 513.036 -3.29885 3.55392 0
M  V30 5361 N 514.379 -1.04941 -1.1758 0
M  V30 5362 C 515.627 -0.756492 -1.87408 0
M  V30 5363 C 515.948 0.718478 -1.81281 0
M  V30 5364 O 515.218 1.519 -1.23706 0
M  V30 5365 H 513.798 -0.276841 -0.693807 0
M  V30 5366 H 516.46 -1.32803 -1.42652 0
M  V30 5367 H 515.556 -1.06918 -2.93215 0
M  V30 5368 N 515.857 1.33968 -0.830081 0
M  V30 5369 C 517.103 1.98357 -0.422191 0
M  V30 5370 C 517.436 1.65633 1.01387 0
M  V30 5371 O 516.711 0.931648 1.70735 0
M  V30 5372 C 516.994 3.54492 -0.633043 0
M  V30 5373 C 516.847 3.96934 -2.11574 0
M  V30 5374 C 518.166 4.40039 -0.0735584 0
M  V30 5375 H 515.285 0.720544 -0.154871 0
M  V30 5376 H 517.927 1.58749 -1.04397 0
M  V30 5377 H 516.077 3.88361 -0.103775 0
M  V30 5378 H 517.749 3.73363 -2.7092 0
M  V30 5379 H 515.992 3.46984 -2.60354 0
M  V30 5380 H 516.663 5.05651 -2.21406 0
M  V30 5381 H 519.139 4.12764 -0.52585 0
M  V30 5382 H 518.015 5.48327 -0.250841 0
M  V30 5383 H 518.276 4.30124 1.02202 0
M  V30 5384 N 517.335 0.585699 1.46312 0
M  V30 5385 C 518.575 0.0751432 2.04262 0
M  V30 5386 C 518.939 -1.26201 1.44697 0
M  V30 5387 O 520.14 -1.86198 1.93865 0
M  V30 5388 C 518.411 0.013478 3.57397 0
M  V30 5389 S 519.97 -0.439068 4.36598 0
M  V30 5390 H 516.788 0.0389228 0.709934 0
M  V30 5391 H 519.39 0.778871 1.79315 0
M  V30 5392 H 518.094 0.990558 3.98266 0
M  V30 5393 H 517.625 -0.712927 3.86886 0
M  V30 5394 H 519.64 -1.6932 4.66417 0
M  V30 5395 N 518.813 -1.54241 0.323641 0
M  V30 5396 C 520.041 -2.04985 -0.280871 0
M  V30 5397 C 520.456 -1.19978 -1.45777 0
M  V30 5398 O 519.813 -0.230471 -1.81039 0
M  V30 5399 C 519.864 -3.54353 -0.715258 0
M  V30 5400 O 519.585 -4.36132 0.414817 0
M  V30 5401 C 521.086 -4.21189 -1.38257 0
M  V30 5402 H 518.306 -0.66851 -0.0577502 0
M  V30 5403 H 520.85 -1.99029 0.469852 0
M  V30 5404 H 519.005 -3.60596 -1.41596 0
M  V30 5405 H 519.419 -5.2445 0.0725227 0
M  V30 5406 H 520.893 -5.27154 -1.63745 0
M  V30 5407 H 521.37 -3.72307 -2.32989 0
M  V30 5408 H 521.976 -4.19085 -0.724447 0
M  V30 5409 N 520.291 -0.0518155 -1.57515 0
M  V30 5410 C 521.221 0.920283 -2.146 0
M  V30 5411 C 522.202 1.32406 -1.06783 0
M  V30 5412 O 523.387 1.39866 -1.34726 0
M  V30 5413 C 520.517 2.1949 -2.6915 0
M  V30 5414 C 519.471 1.93116 -3.81956 0
M  V30 5415 C 518.797 3.27037 -4.23026 0
M  V30 5416 C 520.097 1.25225 -5.07066 0
M  V30 5417 H 521.791 0.444801 -2.96077 0
M  V30 5418 H 519.337 0.212508 -1.42423 0
M  V30 5419 H 521.29 2.87894 -3.07725 0
M  V30 5420 H 520.014 2.69244 -1.84865 0
M  V30 5421 H 518.673 1.27123 -3.43854 0
M  V30 5422 H 518.321 3.74595 -3.3569 0
M  V30 5423 H 518.021 3.10189 -4.99056 0
M  V30 5424 H 519.545 3.96673 -4.64202 0
M  V30 5425 H 520.959 1.83666 -5.43083 0
M  V30 5426 H 519.356 1.18702 -5.88243 0
M  V30 5427 H 520.426 0.228382 -4.84362 0
M  V30 5428 N 521.769 1.56035 0.221574 0
M  V30 5429 C 522.679 1.95581 1.29558 0
M  V30 5430 C 523.695 0.859639 1.51282 0
M  V30 5431 O 524.871 1.16321 1.64413 0
M  V30 5432 C 521.936 2.26447 2.62531 0
M  V30 5433 C 520.997 3.49632 2.4911 0
M  V30 5434 C 520.23 3.79017 3.75742 0
M  V30 5435 O 520.453 3.10077 4.78757 0
M  V30 5436 O 519.387 4.72507 3.72855 0
M  V30 5437 H 523.213 2.8711 0.990035 0
M  V30 5438 H 520.798 1.43244 0.424434 0
M  V30 5439 H 522.68 2.47494 3.41064 0
M  V30 5440 H 521.355 1.38092 2.92766 0
M  V30 5441 H 520.262 3.33864 1.68777 0
M  V30 5442 H 521.595 4.3837 2.23814 0
M  V30 5443 N 523.247 -0.488276 1.49845 0
M  V30 5444 C 524.658 -1.06955 1.53028 0
M  V30 5445 C 525.009 -1.9351 0.323797 0
M  V30 5446 O 524.134 -2.08891 -0.565116 0
M  V30 5447 C 524.729 -1.94643 2.77307 0
M  V30 5448 C 523.288 -2.4791 2.83227 0
M  V30 5449 C 522.435 -1.25833 2.47106 0
M  V30 5450 H 525.386 -0.271626 1.56358 0
M  V30 5451 H 525.407 -2.79496 2.5819 0
M  V30 5452 H 524.919 -1.31621 3.65099 0
M  V30 5453 H 523.02 -3.14535 1.99745 0
M  V30 5454 H 523.133 -2.84193 3.85709 0
M  V30 5455 H 521.497 -1.58764 1.99163 0
M  V30 5456 H 522.28 -0.644993 3.37186 0
M  V30 5457 N 524.725 -1.39134 -0.740242 0
M  V30 5458 C 526.136 -1.32208 -1.31825 0
M  V30 5459 C 526.487 0.0159919 -1.96193 0
M  V30 5460 O 525.612 0.918111 -1.95958 0
M  V30 5461 C 526.207 -2.39436 -2.39699 0
M  V30 5462 C 524.766 -2.36048 -2.93187 0
M  V30 5463 C 523.913 -2.21599 -1.66701 0
M  V30 5464 H 526.864 -1.49298 -0.538133 0
M  V30 5465 H 526.885 -2.05922 -3.19963 0
M  V30 5466 H 526.397 -3.36811 -1.92821 0
M  V30 5467 H 524.498 -1.42295 -3.44359 0
M  V30 5468 H 524.611 -3.30704 -3.46658 0
M  V30 5469 H 522.975 -1.68681 -1.90837 0
M  V30 5470 H 523.758 -3.20936 -1.21882 0
M  V30 5471 N 526.204 0.969867 -1.24223 0
M  V30 5472 C 527.451 1.71256 -1.08063 0
M  V30 5473 C 527.779 1.90734 0.380872 0
M  V30 5474 O 527.034 1.46469 1.29789 0
M  V30 5475 C 527.333 3.10883 -1.76314 0
M  V30 5476 C 526.999 3.11252 -3.26241 0
M  V30 5477 C 525.661 3.1106 -3.67144 0
M  V30 5478 C 528.013 3.05751 -4.22097 0
M  V30 5479 C 525.341 3.03097 -5.02344 0
M  V30 5480 C 527.693 2.9933 -5.57301 0
M  V30 5481 C 526.357 2.97466 -5.97554 0
M  V30 5482 H 525.627 0.62667 -0.395431 0
M  V30 5483 H 528.274 1.13422 -1.54297 0
M  V30 5484 H 526.579 3.72168 -1.22468 0
M  V30 5485 H 528.276 3.67138 -1.61277 0
M  V30 5486 H 524.866 3.12165 -2.93685 0
M  V30 5487 H 529.05 3.05031 -3.91497 0
M  V30 5488 H 524.306 3.00013 -5.32731 0
M  V30 5489 H 528.48 2.94033 -6.31283 0
M  V30 5490 H 526.107 2.91051 -7.02277 0
M  V30 5491 N 527.682 1.05563 1.17022 0
M  V30 5492 C 528.912 0.787307 1.91011 0
M  V30 5493 C 529.32 -0.661256 1.77268 0
M  V30 5494 O 528.663 -1.46379 1.10991 0
M  V30 5495 C 528.725 1.09313 3.42478 0
M  V30 5496 C 528.389 2.53863 3.80004 0
M  V30 5497 C 529.386 3.52081 3.82538 0
M  V30 5498 C 527.071 2.88969 4.10855 0
M  V30 5499 C 529.065 4.83449 4.15399 0
M  V30 5500 C 526.752 4.2054 4.43384 0
M  V30 5501 C 527.75 5.17589 4.45635 0
M  V30 5502 O 527.438 6.46799 4.77395 0
M  V30 5503 H 527.17 0.285463 0.61277 0
M  V30 5504 H 529.724 1.41051 1.49311 0
M  V30 5505 H 527.954 0.412833 3.8449 0
M  V30 5506 H 529.643 0.810224 3.97731 0
M  V30 5507 H 530.409 3.26299 3.58823 0
M  V30 5508 H 526.288 2.1409 4.08272 0
M  V30 5509 H 529.832 5.59194 4.1707 0
M  V30 5510 H 525.729 4.46083 4.66563 0
M  V30 5511 H 526.497 6.51677 4.95237 0
M  V30 5512 N 529.16 -1.33526 0.837174 0
M  V30 5513 C 530.409 -1.97098 0.428387 0
M  V30 5514 C 530.722 -1.67062 -1.01734 0
M  V30 5515 O 531.928 -2.24235 -1.53072 0
M  V30 5516 C 530.384 -3.52725 0.715075 0
M  V30 5517 C 529.992 -3.9164 2.17537 0
M  V30 5518 C 531.736 -4.22857 0.373154 0
M  V30 5519 C 529.643 -5.40237 2.40619 0
M  V30 5520 H 528.573 -0.737589 0.156455 0
M  V30 5521 H 531.224 -1.52169 1.02552 0
M  V30 5522 H 529.606 -3.95971 0.0475904 0
M  V30 5523 H 530.78 -3.59456 2.88319 0
M  V30 5524 H 529.095 -3.34485 2.4801 0
M  V30 5525 H 531.692 -5.32133 0.523264 0
M  V30 5526 H 532.035 -4.10647 -0.683708 0
M  V30 5527 H 532.568 -3.85135 0.995801 0
M  V30 5528 H 529.307 -5.57449 3.44864 0
M  V30 5529 H 528.827 -5.73887 1.74396 0
M  V30 5530 H 530.506 -6.07102 2.23688 0
M  V30 5531 N 530.638 -0.59345 -1.46 0
M  V30 5532 C 531.884 -0.0832754 -2.02629 0
M  V30 5533 C 532.217 1.27749 -1.46266 0
M  V30 5534 O 531.492 1.8395 -0.631866 0
M  V30 5535 C 531.775 -0.0290756 -3.60088 0
M  V30 5536 C 531.628 -1.41951 -4.26814 0
M  V30 5537 C 532.947 0.666055 -4.35031 0
M  V30 5538 H 530.066 -0.031736 -0.736316 0
M  V30 5539 H 532.708 -0.762711 -1.74019 0
M  V30 5540 H 530.858 0.549532 -3.84594 0
M  V30 5541 H 532.53 -2.04411 -4.13538 0
M  V30 5542 H 530.773 -1.98422 -3.8576 0
M  V30 5543 H 531.444 -1.33395 -5.3564 0
M  V30 5544 H 533.92 0.174401 -4.15734 0
M  V30 5545 H 532.796 0.673041 -5.44758 0
M  V30 5546 H 533.057 1.72946 -4.06869 0
M  V30 5547 N 532.116 1.54067 -0.331816 0
M  V30 5548 C 533.344 2.05131 0.269996 0
M  V30 5549 C 533.759 1.20749 1.45138 0
M  V30 5550 O 533.116 0.240069 1.80914 0
M  V30 5551 C 533.167 3.54728 0.696456 0
M  V30 5552 O 532.888 4.35906 -0.43794 0
M  V30 5553 C 534.389 4.21916 1.36021 0
M  V30 5554 H 531.609 0.668807 0.0542042 0
M  V30 5555 H 534.153 1.98777 -0.4804 0
M  V30 5556 H 532.308 3.61342 1.39681 0
M  V30 5557 H 532.722 5.24404 -0.100334 0
M  V30 5558 H 534.196 5.28015 1.60947 0
M  V30 5559 H 534.673 3.73538 2.31011 0
M  V30 5560 H 535.279 4.19463 0.702212 0
M  V30 5561 N 533.594 0.0601682 1.57485 0
M  V30 5562 C 534.504 -0.926121 2.15546 0
M  V30 5563 C 535.52 -1.33532 1.11558 0
M  V30 5564 O 536.696 -1.4104 1.4377 0
M  V30 5565 C 533.761 -2.17952 2.69625 0
M  V30 5566 C 532.822 -1.82783 3.88444 0
M  V30 5567 C 532.055 -3.02148 4.39935 0
M  V30 5568 O 532.278 -4.15803 3.90466 0
M  V30 5569 O 531.212 -2.82639 5.31412 0
M  V30 5570 H 535.038 -0.462289 3.00161 0
M  V30 5571 H 532.623 -0.162246 1.48516 0
M  V30 5572 H 534.505 -2.91474 3.04337 0
M  V30 5573 H 533.18 -2.63456 1.88077 0
M  V30 5574 H 532.087 -1.06549 3.58606 0
M  V30 5575 H 533.42 -1.42072 4.7125 0
M  V30 5576 N 535.072 -1.5615 -0.213296 0
M  V30 5577 C 536.302 -1.83372 -0.951757 0
M  V30 5578 C 536.71 -0.638158 -1.78113 0
M  V30 5579 O 536.053 0.402609 -1.79234 0
M  V30 5580 C 536.115 -3.04444 -1.91192 0
M  V30 5581 C 535.779 -4.39107 -1.26627 0
M  V30 5582 C 536.776 -5.15794 -0.652087 0
M  V30 5583 C 534.461 -4.85834 -1.27556 0
M  V30 5584 C 536.455 -6.37376 -0.055814 0
M  V30 5585 C 534.142 -6.07356 -0.675451 0
M  V30 5586 C 535.14 -6.82967 -0.0666367 0
M  V30 5587 O 534.828 -8.0219 0.524119 0
M  V30 5588 H 534.56 -0.613398 -0.284111 0
M  V30 5589 H 537.114 -2.04096 -0.231112 0
M  V30 5590 H 535.344 -2.79559 -2.67178 0
M  V30 5591 H 537.033 -3.18466 -2.51662 0
M  V30 5592 H 537.799 -4.80796 -0.637172 0
M  V30 5593 H 533.678 -4.26949 -1.73883 0
M  V30 5594 H 537.222 -6.96334 0.420004 0
M  V30 5595 H 533.119 -6.41825 -0.687806 0
M  V30 5596 H 533.887 -8.17426 0.419243 0
M  V30 5597 N 536.55 0.480323 -1.50102 0
M  V30 5598 C 537.483 1.59789 -1.62919 0
M  V30 5599 C 538.461 1.55429 -0.477557 0
M  V30 5600 O 539.645 1.75186 -0.695851 0
M  V30 5601 C 536.772 2.98351 -1.60325 0
M  V30 5602 C 535.818 3.20899 -2.80938 0
M  V30 5603 S 536.651 3.01791 -4.4236 0
M  V30 5604 C 537.807 4.42712 -4.42444 0
M  V30 5605 H 538.04 1.48676 -2.57454 0
M  V30 5606 H 535.573 0.666996 -1.3925 0
M  V30 5607 H 537.531 3.7824 -1.59514 0
M  V30 5608 H 536.192 3.06862 -0.670419 0
M  V30 5609 H 535.385 4.22102 -2.75401 0
M  V30 5610 H 534.987 2.48768 -2.79268 0
M  V30 5611 H 537.279 5.3518 -4.15438 0
M  V30 5612 H 538.222 4.53294 -5.43995 0
M  V30 5613 H 538.63 4.24359 -3.72263 0
M  V30 5614 N 538.028 1.39524 0.732853 0
M  V30 5615 C 539.439 1.32905 1.31122 0
M  V30 5616 C 539.79 -0.00558708 1.96199 0
M  V30 5617 O 538.915 -0.907706 1.96443 0
M  V30 5618 C 539.51 2.40704 2.38426 0
M  V30 5619 C 538.069 2.37599 2.91931 0
M  V30 5620 C 537.216 2.2248 1.65523 0
M  V30 5621 H 540.167 1.49581 0.530207 0
M  V30 5622 H 540.188 2.07616 3.18867 0
M  V30 5623 H 539.7 3.37829 1.91033 0
M  V30 5624 H 537.801 1.44119 3.43599 0
M  V30 5625 H 537.914 3.32538 3.44899 0
M  V30 5626 H 536.278 1.69691 1.8994 0
M  V30 5627 H 537.061 3.21577 1.20178 0
M  V30 5628 N 539.506 -0.963266 1.24736 0
M  V30 5629 C 540.736 -1.73913 1.11524 0
M  V30 5630 C 541.144 -1.86218 -0.334612 0
M  V30 5631 O 540.487 -1.3531 -1.24245 0
M  V30 5632 C 540.549 -3.17501 1.68622 0
M  V30 5633 C 540.213 -3.28655 3.17546 0
M  V30 5634 C 541.21 -3.13637 4.14642 0
M  V30 5635 C 538.895 -3.52753 3.5759 0
M  V30 5636 C 540.889 -3.2255 5.49764 0
M  V30 5637 C 538.576 -3.61303 4.92852 0
M  V30 5638 C 539.574 -3.46214 5.88748 0
M  V30 5639 O 539.262 -3.5443 7.2155 0
M  V30 5640 H 538.994 -0.552057 0.390139 0
M  V30 5641 H 541.548 -1.2177 1.65412 0
M  V30 5642 H 539.778 -3.70969 1.09172 0
M  V30 5643 H 541.467 -3.76914 1.50635 0
M  V30 5644 H 542.233 -2.94899 3.85045 0
M  V30 5645 H 538.112 -3.63561 2.83451 0
M  V30 5646 H 541.656 -3.1069 6.24594 0
M  V30 5647 H 537.553 -3.79556 5.22118 0
M  V30 5648 H 538.321 -3.71116 7.29531 0
M  V30 5649 N 540.985 -1.06182 -1.16461 0
M  V30 5650 C 542.233 -0.776326 -1.86595 0
M  V30 5651 C 542.554 0.69921 -1.82033 0
M  V30 5652 O 541.824 1.50579 -1.2531 0
M  V30 5653 H 540.404 -0.284184 -0.690832 0
M  V30 5654 H 543.066 -1.34308 -1.41235 0
M  V30 5655 H 542.162 -1.10022 -2.92064 0
M  V30 5656 N 542.463 1.3308 -0.844243 0
M  V30 5657 C 543.411 2.31028 -0.269954 0
M  V30 5658 C 544.405 1.58381 0.600997 0
M  V30 5659 O 545.611 1.73203 0.48996 0
M  V30 5660 H 541.986 0.748866 -0.0685782 0
M  V30 5661 H 543.957 2.76967 -1.11049 0
M  V30 5662 C 542.706 3.43549 0.535676 0
M  V30 5663 H 542.029 3.99604 -0.125202 0
M  V30 5664 H 543.469 4.14267 0.903262 0
M  V30 5665 C 541.928 2.8988 1.71672 0
M  V30 5666 O 542.458 2.86511 2.81557 0
M  V30 5667 N 540.664 2.46416 1.54037 0
M  V30 5668 H 540.211 2.49356 0.64649 0
M  V30 5669 H 540.169 2.1086 2.33207 0
M  V30 5670 N 543.941 0.601185 1.45683 0
M  V30 5671 C 544.871 -0.108824 2.33246 0
M  V30 5672 C 545.852 -0.865223 1.46451 0
M  V30 5673 O 547.037 -0.83704 1.75235 0
M  V30 5674 C 544.167 -1.11101 3.2905 0
M  V30 5675 C 543.121 -0.468244 4.25431 0
M  V30 5676 C 542.447 -1.57822 5.10878 0
M  V30 5677 C 543.747 0.606469 5.18767 0
M  V30 5678 H 545.441 0.622306 2.92861 0
M  V30 5679 H 542.987 0.300714 1.40825 0
M  V30 5680 H 544.94 -1.61622 3.89174 0
M  V30 5681 H 543.664 -1.87265 2.67581 0
M  V30 5682 H 542.323 0.0160484 3.66596 0
M  V30 5683 H 541.971 -2.32998 4.45781 0
M  V30 5684 H 541.671 -1.15369 5.76163 0
M  V30 5685 H 543.195 -2.08583 5.73869 0
M  V30 5686 H 544.609 0.185589 5.73 0
M  V30 5687 H 543.006 0.952381 5.92494 0
M  V30 5688 H 544.076 1.48559 4.61582 0
M  V30 5689 N 545.419 -1.53889 0.339982 0
M  V30 5690 C 546.349 -2.27843 -0.510856 0
M  V30 5691 C 547.33 -1.29267 -1.10563 0
M  V30 5692 O 548.515 -1.58104 -1.12768 0
M  V30 5693 C 545.645 -3.04857 -1.66372 0
M  V30 5694 C 544.599 -4.10907 -1.19746 0
M  V30 5695 C 543.925 -4.75855 -2.43857 0
M  V30 5696 C 545.225 -5.21435 -0.300501 0
M  V30 5697 H 546.919 -2.99212 0.106067 0
M  V30 5698 H 544.465 -1.43904 0.0524533 0
M  V30 5699 H 546.418 -3.5533 -2.26537 0
M  V30 5700 H 545.142 -2.31133 -2.30749 0
M  V30 5701 H 543.801 -3.61342 -0.618654 0
M  V30 5702 H 543.449 -3.9873 -3.06633 0
M  V30 5703 H 543.149 -5.47502 -2.13343 0
M  V30 5704 H 544.673 -5.2911 -3.04754 0
M  V30 5705 H 546.087 -5.67565 -0.80889 0
M  V30 5706 H 544.484 -6.00036 -0.0874076 0
M  V30 5707 H 545.554 -4.80328 0.664321 0
M  V30 5708 N 546.897 -0.0685191 -1.57451 0
M  V30 5709 C 548.174 0.642167 -1.84758 0
M  V30 5710 C 548.554 1.87991 -0.960344 0
M  V30 5711 O 547.902 2.28485 -0.0257894 0
M  V30 5712 C 548.112 0.982946 -3.34872 0
M  V30 5713 C 549.46 1.35784 -4.02303 0
M  V30 5714 O 550.484 1.07477 -3.39598 0
M  V30 5715 O 549.343 1.88681 -5.12895 0
M  V30 5716 H 546.437 0.318625 -0.763156 0
M  V30 5717 H 548.983 -0.0992015 -1.6941 0
M  V30 5718 H 547.755 0.10372 -3.91163 0
M  V30 5719 H 547.378 1.78119 -3.55471 0
M  V30 5720 N 548.375 1.56261 0.205012 0
M  V30 5721 C 549.605 1.83874 0.942018 0
M  V30 5722 C 550.013 0.647595 1.77772 0
M  V30 5723 O 549.356 -0.393098 1.79445 0
M  V30 5724 C 549.418 3.05453 1.89575 0
M  V30 5725 C 549.082 4.39772 1.24296 0
M  V30 5726 C 550.079 5.16133 0.624724 0
M  V30 5727 C 547.764 4.86504 1.24978 0
M  V30 5728 C 549.758 6.37396 0.0220117 0
M  V30 5729 C 547.445 6.07705 0.643232 0
M  V30 5730 C 548.443 6.82993 0.0304164 0
M  V30 5731 O 548.131 8.019 -0.566654 0
M  V30 5732 H 547.863 0.614896 0.280854 0
M  V30 5733 H 550.417 2.04215 0.220285 0
M  V30 5734 H 548.647 2.80972 2.65691 0
M  V30 5735 H 550.336 3.19797 2.4997 0
M  V30 5736 H 551.102 4.81127 0.611666 0
M  V30 5737 H 546.981 4.27865 1.71616 0
M  V30 5738 H 550.525 6.96102 -0.456926 0
M  V30 5739 H 546.422 6.42181 0.653759 0
M  V30 5740 H 547.19 8.17192 -0.462588 0
M  V30 5741 N 549.853 -0.472356 1.50355 0
M  V30 5742 C 550.783 -1.57859 1.72055 0
M  V30 5743 C 551.764 -1.60283 0.569505 0
M  V30 5744 O 552.949 -1.7657 0.808503 0
M  V30 5745 C 550.079 -2.96191 1.81351 0
M  V30 5746 C 549.033 -3.08633 2.96529 0
M  V30 5747 C 548.359 -4.486 2.90968 0
M  V30 5748 C 549.659 -2.85969 4.37057 0
M  V30 5749 H 551.353 -1.39953 2.64676 0
M  V30 5750 H 548.899 -0.671846 1.27367 0
M  V30 5751 H 550.852 -3.73507 1.95117 0
M  V30 5752 H 549.576 -3.15251 0.853502 0
M  V30 5753 H 548.235 -2.33749 2.82413 0
M  V30 5754 H 547.883 -4.64577 1.92815 0
M  V30 5755 H 547.583 -4.57861 3.68289 0
M  V30 5756 H 549.107 -5.27938 3.0678 0
M  V30 5757 H 550.521 -3.53036 4.51706 0
M  V30 5758 H 548.918 -3.06677 5.15819 0
M  V30 5759 H 549.988 -1.81838 4.49514 0
M  V30 5760 N 551.331 -1.39911 -0.725443 0
M  V30 5761 C 552.747 -1.21725 -1.03224 0
M  V30 5762 C 552.947 -0.0855224 -2.01318 0
M  V30 5763 O 552.003 0.55976 -2.46217 0
M  V30 5764 C 553.316 -2.55511 -1.58539 0
M  V30 5765 C 554.864 -2.62439 -1.70572 0
M  V30 5766 C 555.339 -3.9647 -2.29294 0
M  V30 5767 N 556.83 -3.98159 -2.36692 0
M  V30 5768 C 557.565 -4.98647 -2.83088 0
M  V30 5769 N 557.061 -6.0953 -3.2931 0
M  V30 5770 N 558.854 -4.8602 -2.82384 0
M  V30 5771 H 551.005 -2.12267 -0.075048 0
M  V30 5772 H 553.268 -0.943136 -0.0959066 0
M  V30 5773 H 552.974 -3.38926 -0.939249 0
M  V30 5774 H 552.848 -2.75905 -2.57208 0
M  V30 5775 H 555.235 -1.79401 -2.34306 0
M  V30 5776 H 555.316 -2.45885 -0.705297 0
M  V30 5777 H 554.96 -4.79942 -1.66186 0
M  V30 5778 H 554.89 -4.10349 -3.30032 0
M  V30 5779 H 557.381 -3.18085 -2.04035 0
M  V30 5780 H 557.694 -6.82106 -3.6325 0
M  V30 5781 H 556.039 -6.1311 -3.27294 0
M  V30 5782 H 559.23 -3.98493 -2.45603 0
M  V30 5783 H 559.403 -5.64478 -3.18226 0
M  V30 5784 N 552.809 0.956637 -1.25245 0
M  V30 5785 C 553.719 2.0868 -1.0719 0
M  V30 5786 C 554.735 1.73997 -0.00959074 0
M  V30 5787 O 555.911 2.00301 -0.210104 0
M  V30 5788 C 552.976 3.39754 -0.690526 0
M  V30 5789 C 552.037 3.88316 -1.83055 0
M  V30 5790 C 551.27 5.13134 -1.46728 0
M  V30 5791 O 551.493 5.6925 -0.362029 0
M  V30 5792 O 550.427 5.56356 -2.29677 0
M  V30 5793 H 554.253 2.26813 -2.01965 0
M  V30 5794 H 551.838 1.07098 -1.04165 0
M  V30 5795 H 553.72 4.18543 -0.489871 0
M  V30 5796 H 552.395 3.22896 0.227981 0
M  V30 5797 H 551.302 3.1054 -2.08604 0
M  V30 5798 H 552.635 4.09669 -2.72822 0
M  V30 5799 N 554.287 1.06798 1.15896 0
M  V30 5800 C 555.527 0.797041 1.8822 0
M  V30 5801 C 555.891 -0.664549 1.80133 0
M  V30 5802 O 557.092 -1.0503 2.47431 0
M  V30 5803 C 555.363 1.28431 3.33527 0
M  V30 5804 S 556.922 1.14319 4.23647 0
M  V30 5805 H 553.74 0.288988 0.649621 0
M  V30 5806 H 556.342 1.36594 1.39865 0
M  V30 5807 H 555.046 2.34286 3.36954 0
M  V30 5808 H 554.577 0.710371 3.86933 0
M  V30 5809 H 556.592 0.0772467 4.9614 0
M  V30 5810 N 555.766 -1.3263 0.851289 0
M  V30 5811 C 556.714 -2.30882 0.282202 0
M  V30 5812 C 557.708 -1.58697 -0.592589 0
M  V30 5813 O 558.914 -1.73461 -0.480768 0
M  V30 5814 H 555.289 -0.748492 0.0725487 0
M  V30 5815 H 557.26 -2.76374 1.12516 0
M  V30 5816 C 556.009 -3.43828 -0.517449 0
M  V30 5817 H 555.332 -3.99532 0.146392 0
M  V30 5818 H 556.772 -4.1474 -0.88128 0
M  V30 5819 C 555.231 -2.90786 -1.70133 0
M  V30 5820 O 555.761 -2.88 -2.80034 0
M  V30 5821 N 553.967 -2.4723 -1.52728 0
M  V30 5822 H 553.514 -2.49695 -0.633257 0
M  V30 5823 H 553.472 -2.12094 -2.32085 0
M  V30 5824 N 557.244 -0.608902 -1.45362 0
M  V30 5825 C 558.66 -0.272659 -1.57254 0
M  V30 5826 C 558.86 1.22477 -1.60005 0
M  V30 5827 O 557.916 2.00785 -1.53106 0
M  V30 5828 C 559.229 -0.944991 -2.85465 0
M  V30 5829 C 560.777 -0.921033 -2.99142 0
M  V30 5830 C 561.252 -1.5734 -4.30126 0
M  V30 5831 N 562.743 -1.53895 -4.36887 0
M  V30 5832 C 563.478 -2.01286 -5.36909 0
M  V30 5833 N 562.974 -2.56768 -6.43461 0
M  V30 5834 N 564.767 -1.92046 -5.28275 0
M  V30 5835 H 556.918 -1.58117 -1.4182 0
M  V30 5836 H 559.181 -0.662437 -0.678146 0
M  V30 5837 H 558.887 -1.99941 -2.89338 0
M  V30 5838 H 558.761 -0.469079 -3.74272 0
M  V30 5839 H 561.148 0.124846 -2.94836 0
M  V30 5840 H 561.229 -1.43522 -2.11743 0
M  V30 5841 H 560.873 -2.61862 -4.35191 0
M  V30 5842 H 560.803 -1.03422 -5.16344 0
M  V30 5843 H 563.294 -1.13366 -3.60495 0
M  V30 5844 H 563.607 -2.9072 -7.16032 0
M  V30 5845 H 561.952 -2.60808 -6.44208 0
M  V30 5846 H 565.143 -1.48439 -4.43941 0
M  V30 5847 H 565.316 -2.29293 -6.06077 0
M  V30 5848 N 558.722 1.53707 -0.348139 0
M  V30 5849 C 559.632 2.28881 0.514857 0
M  V30 5850 C 560.648 1.34168 1.10793 0
M  V30 5851 O 561.824 1.6721 1.12262 0
M  V30 5852 C 558.889 3.05042 1.64774 0
M  V30 5853 C 557.95 4.15389 1.08398 0
M  V30 5854 C 557.183 4.87909 2.16287 0
M  V30 5855 O 557.406 4.60137 3.3709 0
M  V30 5856 O 556.34 5.74254 1.80323 0
M  V30 5857 H 560.166 3.03547 -0.0963699 0
M  V30 5858 H 557.751 1.48972 -0.113043 0
M  V30 5859 H 559.633 3.52656 2.30677 0
M  V30 5860 H 558.308 2.33228 2.24469 0
M  V30 5861 H 557.215 3.72068 0.389341 0
M  V30 5862 H 558.548 4.89318 0.531829 0
M  V30 5863 N 560.2 0.0768682 1.57412 0
M  V30 5864 C 561.11 -0.903207 2.16516 0
M  V30 5865 C 562.126 -1.32341 1.12968 0
M  V30 5866 O 563.302 -1.39507 1.45258 0
M  V30 5867 C 560.367 -2.1508 2.71922 0
M  V30 5868 C 559.428 -1.78653 3.90361 0
M  V30 5869 C 558.661 -2.97465 4.43114 0
M  V30 5870 O 558.884 -4.11638 3.94854 0
M  V30 5871 O 557.818 -2.76987 5.3438 0
M  V30 5872 H 561.644 -0.430427 3.00634 0
M  V30 5873 H 559.229 -0.146485 1.4868 0
M  V30 5874 H 561.111 -2.8823 3.07411 0
M  V30 5875 H 559.786 -2.61446 1.9086 0
M  V30 5876 H 558.693 -1.0274 3.59716 0
M  V30 5877 H 560.026 -1.37066 4.7273 0
M  V30 5878 N 561.678 -1.56367 -0.196722 0
M  V30 5879 C 562.924 -1.80796 -0.918725 0
M  V30 5880 C 563.257 -0.650645 -1.82976 0
M  V30 5881 O 562.532 0.348889 -1.91345 0
M  V30 5882 C 562.815 -3.15472 -1.73636 0
M  V30 5883 C 562.668 -4.41693 -0.85015 0
M  V30 5884 C 563.987 -3.46824 -2.70927 0
M  V30 5885 H 561.106 -0.657702 -0.332561 0
M  V30 5886 H 563.748 -1.89086 -0.186186 0
M  V30 5887 H 561.898 -3.08536 -2.36088 0
M  V30 5888 H 563.57 -4.60673 -0.240459 0
M  V30 5889 H 561.813 -4.33517 -0.156785 0
M  V30 5890 H 562.484 -5.32419 -1.45719 0
M  V30 5891 H 564.96 -3.54049 -2.18607 0
M  V30 5892 H 563.836 -4.4218 -3.25219 0
M  V30 5893 H 564.097 -2.70236 -3.49893 0
M  V30 5894 N 563.156 0.464375 -1.50603 0
M  V30 5895 C 564.384 1.23907 -1.65695 0
M  V30 5896 C 564.799 1.85658 -0.343027 0
M  V30 5897 O 564.156 1.69529 0.675739 0
M  V30 5898 C 564.207 2.3429 -2.75301 0
M  V30 5899 O 563.928 1.7507 -4.01599 0
M  V30 5900 C 565.429 3.25051 -3.01424 0
M  V30 5901 H 562.649 0.374485 -0.556778 0
M  V30 5902 H 565.193 0.55353 -1.96866 0
M  V30 5903 H 563.348 2.98607 -2.46804 0
M  V30 5904 H 563.762 2.47812 -4.62266 0
M  V30 5905 H 565.236 3.98699 -3.81763 0
M  V30 5906 H 565.713 3.84227 -2.12758 0
M  V30 5907 H 566.319 2.66463 -3.31477 0
M  V30 5908 N 564.634 1.40294 0.718013 0
M  V30 5909 C 565.597 1.4012 1.81381 0
M  V30 5910 C 566.597 0.295405 1.58063 0
M  V30 5911 O 567.787 0.554187 1.6515 0
M  V30 5912 C 564.919 1.19056 3.19435 0
M  V30 5913 H 566.112 2.37645 1.82933 0
M  V30 5914 H 563.665 1.26107 0.923405 0
M  V30 5915 H 564.4 0.222809 3.23534 0
M  V30 5916 H 564.185 1.99152 3.37758 0
M  V30 5917 H 565.675 1.21716 3.99468 0
M  V30 5918 N 566.112 -0.949982 1.2575 0
M  V30 5919 C 567.358 -1.69766 1.10938 0
M  V30 5920 C 567.691 -1.91056 -0.348028 0
M  V30 5921 O 566.966 -1.48488 -1.25625 0
M  V30 5922 C 567.249 -3.07779 1.86933 0
M  V30 5923 C 567.102 -2.9387 3.4053 0
M  V30 5924 C 568.421 -4.07749 1.65616 0
M  V30 5925 H 565.54 -0.616144 0.404396 0
M  V30 5926 H 568.182 -1.10394 1.54639 0
M  V30 5927 H 566.332 -3.58462 1.4979 0
M  V30 5928 H 568.004 -2.50476 3.87375 0
M  V30 5929 H 566.247 -2.29686 3.68004 0
M  V30 5930 H 566.918 -3.91719 3.88922 0
M  V30 5931 H 569.394 -3.65994 1.97959 0
M  V30 5932 H 568.27 -5.02348 2.21218 0
M  V30 5933 H 568.531 -4.38029 0.598595 0
M  V30 5934 N 567.59 -1.07411 -1.15328 0
M  V30 5935 C 568.836 -0.798831 -1.86404 0
M  V30 5936 C 569.169 0.673433 -1.8215 0
M  V30 5937 O 568.444 1.49428 -1.24505 0
M  V30 5938 C 568.727 -1.30846 -3.35487 0
M  V30 5939 C 568.58 -2.84532 -3.4837 0
M  V30 5940 C 569.899 -0.925486 -4.30259 0
M  V30 5941 H 567.018 -0.291659 -0.676834 0
M  V30 5942 H 569.66 -1.332 -1.35491 0
M  V30 5943 H 567.81 -0.854916 -3.78977 0
M  V30 5944 H 569.482 -3.3818 -3.13739 0
M  V30 5945 H 567.725 -3.22699 -2.8991 0
M  V30 5946 H 568.396 -3.15259 -4.53118 0
M  V30 5947 H 570.872 -1.3163 -3.94731 0
M  V30 5948 H 569.748 -1.3094 -5.33053 0
M  V30 5949 H 570.009 0.168525 -4.41779 0
M  V30 5950 N 569.068 1.32177 -0.85831 0
M  V30 5951 C 569.998 2.31282 -0.321041 0
M  V30 5952 C 570.979 1.59841 0.581786 0
M  V30 5953 O 572.164 1.87619 0.501262 0
M  V30 5954 C 569.294 3.4385 0.48832 0
M  V30 5955 C 568.248 4.26799 -0.320391 0
M  V30 5956 C 567.574 5.31164 0.613934 0
M  V30 5957 C 568.874 4.98829 -1.54813 0
M  V30 5958 H 570.568 2.76469 -1.14915 0
M  V30 5959 H 568.114 1.32916 -0.554028 0
M  V30 5960 H 570.067 4.12224 0.874626 0
M  V30 5961 H 568.791 2.97401 1.34983 0
M  V30 5962 H 567.45 3.60077 -0.688497 0
M  V30 5963 H 567.098 4.80967 1.47239 0
M  V30 5964 H 566.798 5.8755 0.0768097 0
M  V30 5965 H 568.322 6.024 0.997336 0
M  V30 5966 H 569.736 5.59864 -1.23392 0
M  V30 5967 H 568.133 5.64957 -2.02346 0
M  V30 5968 H 569.203 4.26483 -2.30739 0
M  V30 5969 N 570.547 0.616602 1.45037 0
M  V30 5970 C 571.477 -0.0840787 2.33349 0
M  V30 5971 C 572.458 -0.849641 1.4736 0
M  V30 5972 O 573.643 -0.818407 1.76113 0
M  V30 5973 C 570.773 -1.07604 3.3021 0
M  V30 5974 C 569.727 -0.423096 4.25904 0
M  V30 5975 C 569.053 -1.52394 5.12523 0
M  V30 5976 C 570.353 0.661457 5.18095 0
M  V30 5977 H 572.047 0.653333 2.92185 0
M  V30 5978 H 569.593 0.315634 1.40498 0
M  V30 5979 H 571.546 -1.57485 3.90866 0
M  V30 5980 H 570.27 -1.84416 2.69552 0
M  V30 5981 H 568.929 0.05493 3.66559 0
M  V30 5982 H 568.577 -2.28257 4.48227 0
M  V30 5983 H 568.277 -1.09251 5.77354 0
M  V30 5984 H 569.801 -2.02485 5.76049 0
M  V30 5985 H 571.215 0.246353 5.7277 0
M  V30 5986 H 569.612 1.01517 5.91451 0
M  V30 5987 H 570.682 1.53446 4.59981 0
M  V30 5988 N 572.025 -1.5352 0.356285 0
M  V30 5989 C 573.255 -2.05236 -0.236983 0
M  V30 5990 C 573.663 -1.23016 -1.43749 0
M  V30 5991 O 573.006 -0.2615 -1.81829 0
M  V30 5992 C 573.068 -3.52549 -0.7035 0
M  V30 5993 C 572.732 -4.55425 0.379059 0
M  V30 5994 C 573.729 -5.0524 1.22592 0
M  V30 5995 C 571.414 -4.99425 0.536638 0
M  V30 5996 C 573.408 -5.97647 2.21578 0
M  V30 5997 C 571.095 -5.9164 1.52988 0
M  V30 5998 C 572.093 -6.4064 2.3679 0
M  V30 5999 O 571.781 -7.31039 3.34421 0
M  V30 6000 H 571.513 -0.674346 -0.047254 0
M  V30 6001 H 574.067 -1.98962 0.510238 0
M  V30 6002 H 572.297 -3.56331 -1.50217 0
M  V30 6003 H 573.986 -3.87171 -1.21873 0
M  V30 6004 H 574.752 -4.72002 1.11532 0
M  V30 6005 H 570.631 -4.60879 -0.105834 0
M  V30 6006 H 574.175 -6.35816 2.87025 0
M  V30 6007 H 570.072 -6.24293 1.64099 0
M  V30 6008 H 570.84 -7.49009 3.30041 0
M  V30 6009 N 573.503 -0.0852151 -1.57369 0
M  V30 6010 C 574.436 0.913608 -2.09113 0
M  V30 6011 C 575.414 1.28264 -0.999358 0
M  V30 6012 O 576.598 1.3896 -1.27367 0
M  V30 6013 C 573.725 2.21777 -2.55993 0
M  V30 6014 C 572.771 1.99932 -3.76735 0
M  V30 6015 S 573.604 1.24637 -5.20794 0
M  V30 6016 C 574.76 2.56304 -5.71016 0
M  V30 6017 H 574.993 0.473369 -2.93507 0
M  V30 6018 H 572.526 0.127856 -1.5387 0
M  V30 6019 H 574.484 2.96726 -2.83662 0
M  V30 6020 H 573.145 2.62923 -1.71843 0
M  V30 6021 H 572.338 2.96482 -4.07571 0
M  V30 6022 H 571.94 1.33116 -3.49509 0
M  V30 6023 H 574.232 3.5233 -5.78679 0
M  V30 6024 H 575.175 2.3006 -6.69685 0
M  V30 6025 H 575.583 2.64125 -4.98897 0
M  V30 6026 N 574.981 1.5647 0.188427 0
M  V30 6027 C 575.944 1.9421 1.21718 0
M  V30 6028 C 576.944 0.823901 1.38089 0
M  V30 6029 O 578.134 1.09122 1.35787 0
M  V30 6030 C 575.266 2.22197 2.58537 0
M  V30 6031 H 576.459 2.86252 0.894418 0
M  V30 6032 H 574.012 1.50263 0.430211 0
M  V30 6033 H 574.747 1.32814 2.95856 0
M  V30 6034 H 574.532 3.03688 2.48025 0
M  V30 6035 H 576.022 2.52376 3.3271 0
M  V30 6036 N 576.459 -0.456382 1.50847 0
M  V30 6037 C 577.687 -1.23026 1.66349 0
M  V30 6038 C 578.102 -1.85473 0.352868 0
M  V30 6039 O 577.459 -1.69885 -0.666739 0
M  V30 6040 C 577.51 -2.32827 2.76539 0
M  V30 6041 O 577.231 -1.72938 4.02522 0
M  V30 6042 C 578.732 -3.23448 3.03144 0
M  V30 6043 H 575.952 -0.371527 0.558756 0
M  V30 6044 H 578.496 -0.543082 1.97157 0
M  V30 6045 H 576.651 -2.97294 2.48384 0
M  V30 6046 H 577.065 -2.45357 4.63573 0
M  V30 6047 H 578.539 -3.96669 3.83872 0
M  V30 6048 H 579.016 -3.83094 2.14793 0
M  V30 6049 H 579.622 -2.64702 3.32886 0
M  V30 6050 N 577.937 -1.40673 -0.710563 0
M  V30 6051 C 578.869 -1.37256 -1.83558 0
M  V30 6052 C 579.882 -0.277133 -1.60424 0
M  V30 6053 O 581.071 -0.537831 -1.70205 0
M  V30 6054 C 578.171 -1.1144 -3.20054 0
M  V30 6055 C 577.344 -2.32734 -3.70342 0
M  V30 6056 C 576.403 -2.03002 -4.85465 0
M  V30 6057 O 575.429 -2.75912 -4.97857 0
M  V30 6058 N 576.631 -1.01105 -5.71627 0
M  V30 6059 H 579.396 -2.34215 -1.86985 0
M  V30 6060 H 576.957 -1.35091 -0.892301 0
M  V30 6061 H 578.949 -0.895265 -3.94673 0
M  V30 6062 H 577.519 -0.231307 -3.11743 0
M  V30 6063 H 576.739 -2.70446 -2.86798 0
M  V30 6064 H 578.027 -3.13584 -4.00678 0
M  V30 6065 H 577.425 -0.407303 -5.64232 0
M  V30 6066 H 575.982 -0.85182 -6.4621 0
M  V30 6067 N 579.415 0.9433 -1.26252 0
M  V30 6068 C 580.664 1.68369 -1.11062 0
M  V30 6069 C 580.977 1.92514 0.346104 0
M  V30 6070 O 582.183 2.64358 0.618646 0
M  V30 6071 C 580.639 3.03171 -1.93946 0
M  V30 6072 C 580.247 2.86782 -3.4418 0
M  V30 6073 C 581.991 3.80916 -1.87359 0
M  V30 6074 C 579.898 4.17044 -4.19319 0
M  V30 6075 H 578.828 0.631469 -0.412023 0
M  V30 6076 H 581.479 1.04922 -1.50544 0
M  V30 6077 H 579.861 3.67587 -1.47296 0
M  V30 6078 H 581.035 2.31229 -3.98585 0
M  V30 6079 H 579.35 2.22482 -3.51981 0
M  V30 6080 H 581.947 4.77417 -2.40784 0
M  V30 6081 H 582.29 4.07658 -0.843857 0
M  V30 6082 H 582.823 3.2327 -2.31821 0
M  V30 6083 H 579.562 3.95487 -5.22753 0
M  V30 6084 H 579.082 4.72319 -3.69696 0
M  V30 6085 H 580.761 4.85513 -4.27651 0
M  V30 6086 N 580.893 1.08022 1.14757 0
M  V30 6087 C 582.118 0.82895 1.90114 0
M  V30 6088 C 582.543 -0.612772 1.77839 0
M  V30 6089 O 581.901 -1.42895 1.11583 0
M  V30 6090 C 581.949 1.25062 3.38219 0
M  V30 6091 O 581.053 0.400119 4.10454 0
M  V30 6092 H 580.394 0.301412 0.591648 0
M  V30 6093 H 582.924 1.44062 1.45284 0
M  V30 6094 H 582.934 1.22977 3.89025 0
M  V30 6095 H 581.609 2.30067 3.46471 0
M  V30 6096 H 580.186 0.484052 3.69745 0
M  V30 6097 N 582.371 -1.3172 0.865308 0
M  V30 6098 C 583.596 -2.01591 0.487415 0
M  V30 6099 C 584.021 -1.6455 -0.911307 0
M  V30 6100 O 583.379 -0.851689 -1.6005 0
M  V30 6101 C 583.427 -3.54759 0.646401 0
M  V30 6102 O 582.531 -4.11185 -0.316284 0
M  V30 6103 H 581.872 -0.634884 0.194468 0
M  V30 6104 H 584.402 -1.68024 1.16744 0
M  V30 6105 H 584.412 -4.04438 0.537932 0
M  V30 6106 H 583.087 -3.8106 1.66632 0
M  V30 6107 H 581.664 -3.72543 -0.163162 0
M  V30 6108 N 583.85 -0.624285 -1.44708 0
M  V30 6109 C 584.812 0.0749638 -2.29077 0
M  V30 6110 C 585.812 0.778965 -1.40673 0
M  V30 6111 O 587.003 0.624591 -1.62618 0
M  V30 6112 C 584.135 1.11663 -3.22094 0
M  V30 6113 H 585.327 -0.667013 -2.92388 0
M  V30 6114 H 582.88 -0.384098 -1.51507 0
M  V30 6115 H 583.615 1.88881 -2.63618 0
M  V30 6116 H 583.401 0.61583 -3.87234 0
M  V30 6117 H 584.891 1.60585 -3.8549 0
M  V30 6118 N 585.328 1.53329 -0.364422 0
M  V30 6119 C 586.261 2.22052 0.526145 0
M  V30 6120 C 587.239 1.21203 1.08391 0
M  V30 6121 O 588.423 1.50101 1.14026 0
M  V30 6122 C 585.55 2.91432 1.72583 0
M  V30 6123 C 584.596 4.06345 1.29562 0
M  V30 6124 S 585.429 5.34671 0.297885 0
M  V30 6125 C 586.585 6.07563 1.50392 0
M  V30 6126 H 586.818 2.97244 -0.0575055 0
M  V30 6127 H 584.351 1.53684 -0.148525 0
M  V30 6128 H 586.309 3.3202 2.41398 0
M  V30 6129 H 584.97 2.15966 2.28073 0
M  V30 6130 H 584.163 4.53901 2.19067 0
M  V30 6131 H 583.765 3.67642 0.686696 0
M  V30 6132 H 586.057 6.32224 2.43513 0
M  V30 6133 H 587 6.99973 1.06977 0
M  V30 6134 H 587.408 5.37994 1.70945 0
M  V30 6135 N 586.806 0.0935595 1.57322 0
M  V30 6136 C 587.716 -0.880192 2.17462 0
M  V30 6137 C 588.732 -1.31135 1.14366 0
M  V30 6138 O 589.908 -1.37958 1.46729 0
M  V30 6139 C 586.973 -2.12184 2.74188 0
M  V30 6140 C 586.034 -1.74503 3.92234 0
M  V30 6141 C 585.267 -2.92748 4.46245 0
M  V30 6142 O 585.49 -4.07427 3.99198 0
M  V30 6143 O 584.424 -2.71303 5.37288 0
M  V30 6144 H 588.25 -0.398516 3.01074 0
M  V30 6145 H 585.835 -0.130707 1.48827 0
M  V30 6146 H 587.717 -2.84953 3.10451 0
M  V30 6147 H 586.392 -2.59407 1.93623 0
M  V30 6148 H 585.299 -0.989186 3.60785 0
M  V30 6149 H 586.632 -1.32044 4.74157 0
M  V30 6150 N 588.284 -1.56567 -0.180126 0
M  V30 6151 C 589.514 -1.85349 -0.912647 0
M  V30 6152 C 589.922 -0.675795 -1.76719 0
M  V30 6153 O 589.265 0.3645 -1.80047 0
M  V30 6154 C 589.327 -3.08431 -1.84691 0
M  V30 6155 C 588.991 -4.41694 -1.17284 0
M  V30 6156 C 589.988 -5.17062 -0.542532 0
M  V30 6157 C 587.673 -4.8843 -1.17223 0
M  V30 6158 C 589.667 -6.37351 0.0793953 0
M  V30 6159 C 587.354 -6.08652 -0.54647 0
M  V30 6160 C 588.352 -6.82955 0.0782458 0
M  V30 6161 O 588.04 -8.00897 0.694158 0
M  V30 6162 H 587.772 -0.619286 -0.271036 0
M  V30 6163 H 590.326 -2.0454 -0.187768 0
M  V30 6164 H 588.556 -2.85163 -2.61188 0
M  V30 6165 H 590.245 -3.23733 -2.44851 0
M  V30 6166 H 591.011 -4.8204 -0.535045 0
M  V30 6167 H 586.89 -4.30542 -1.64788 0
M  V30 6168 H 590.434 -6.95287 0.567612 0
M  V30 6169 H 586.331 -6.4314 -0.55151 0
M  V30 6170 H 587.099 -8.16352 0.592537 0
M  V30 6171 N 589.762 0.448376 -1.51087 0
M  V30 6172 C 590.692 1.55102 -1.74544 0
M  V30 6173 C 591.673 1.59357 -0.594932 0
M  V30 6174 O 592.858 1.75261 -0.836491 0
M  V30 6175 C 589.988 2.93268 -1.86041 0
M  V30 6176 C 588.942 3.03877 -3.01402 0
M  V30 6177 C 588.268 4.43914 -2.98068 0
M  V30 6178 C 589.568 2.7898 -4.41551 0
M  V30 6179 H 591.262 1.35724 -2.66869 0
M  V30 6180 H 588.808 0.651498 -1.28419 0
M  V30 6181 H 590.761 3.70356 -2.01034 0
M  V30 6182 H 589.485 3.13853 -0.903548 0
M  V30 6183 H 588.144 2.29227 -2.86096 0
M  V30 6184 H 587.792 4.6145 -2.00182 0
M  V30 6185 H 587.492 4.51944 -3.75527 0
M  V30 6186 H 589.016 5.22991 -3.1514 0
M  V30 6187 H 590.43 3.45805 -4.57265 0
M  V30 6188 H 588.827 2.98431 -5.20633 0
M  V30 6189 H 589.897 1.74663 -4.5235 0
M  V30 6190 N 591.24 1.41047 0.703093 0
M  V30 6191 C 592.15 1.44645 1.84703 0
M  V30 6192 C 593.166 0.337778 1.7069 0
M  V30 6193 O 594.342 0.584327 1.92737 0
M  V30 6194 C 591.407 1.31928 3.20618 0
M  V30 6195 C 590.468 2.53047 3.46794 0
M  V30 6196 C 589.701 2.40927 4.76224 0
M  V30 6197 O 589.924 1.42978 5.5219 0
M  V30 6198 O 588.858 3.30543 5.03016 0
M  V30 6199 H 592.684 2.41139 1.84624 0
M  V30 6200 H 590.269 1.22504 0.855167 0
M  V30 6201 H 592.151 1.27092 4.01778 0
M  V30 6202 H 590.826 0.385469 3.21397 0
M  V30 6203 H 589.733 2.6346 2.65593 0
M  V30 6204 H 591.066 3.45231 3.50822 0
M  V30 6205 N 592.718 -0.936591 1.26751 0
M  V30 6206 C 593.665 -2.03597 1.08706 0
M  V30 6207 C 594.635 -1.66097 -0.00926542 0
M  V30 6208 O 595.82 -1.90199 0.151377 0
M  V30 6209 C 592.96 -3.3727 0.73094 0
M  V30 6210 C 592.073 -3.87778 1.90399 0
M  V30 6211 C 591.208 -5.09859 1.49056 0
M  V30 6212 C 590.247 -5.5264 2.63164 0
M  V30 6213 N 589.384 -6.65921 2.22471 0
M  V30 6214 H 594.224 -2.18364 2.02784 0
M  V30 6215 H 591.761 -1.06985 1.00958 0
M  V30 6216 H 593.719 -4.14128 0.505328 0
M  V30 6217 H 592.349 -3.22337 -0.172868 0
M  V30 6218 H 591.401 -3.07279 2.2424 0
M  V30 6219 H 592.713 -4.15464 2.76028 0
M  V30 6220 H 591.867 -5.9419 1.22567 0
M  V30 6221 H 590.606 -4.8393 0.60524 0
M  V30 6222 H 589.611 -4.66863 2.90377 0
M  V30 6223 H 590.836 -5.80568 3.52303 0
M  V30 6224 H 588.782 -6.41667 1.36379 0
M  V30 6225 H 588.699 -6.93216 3.01641 0
M  V30 6226 H 589.967 -7.53616 1.99205 0
M  V30 6227 N 594.196 -1.08629 -1.14182 0
M  V30 6228 C 595.143 -0.718299 -2.19338 0
M  V30 6229 C 596.113 0.296587 -1.63431 0
M  V30 6230 O 597.298 0.180079 -1.89948 0
M  V30 6231 C 594.438 -0.136203 -3.44831 0
M  V30 6232 C 593.551 -1.20414 -4.14879 0
M  V30 6233 C 592.686 -0.585666 -5.27962 0
M  V30 6234 C 591.725 -1.63548 -5.89846 0
M  V30 6235 N 590.862 -1.03864 -6.94375 0
M  V30 6236 H 595.702 -1.61932 -2.50164 0
M  V30 6237 H 593.239 -0.80919 -1.22844 0
M  V30 6238 H 595.197 0.219021 -4.16625 0
M  V30 6239 H 593.827 0.728121 -3.14481 0
M  V30 6240 H 592.879 -1.67676 -3.41451 0
M  V30 6241 H 594.191 -1.99959 -4.56966 0
M  V30 6242 H 593.345 -0.178818 -6.06436 0
M  V30 6243 H 592.084 0.24142 -4.87102 0
M  V30 6244 H 591.089 -2.05197 -5.10073 0
M  V30 6245 H 592.314 -2.46509 -6.3278 0
M  V30 6246 H 590.26 -0.232687 -6.55587 0
M  V30 6247 H 590.177 -1.77116 -7.3496 0
M  V30 6248 H 591.445 -0.657724 -7.7672 0
M  V30 6249 N 595.674 1.31259 -0.872281 0
M  V30 6250 C 596.622 2.30404 -0.318897 0
M  V30 6251 C 597.616 1.5962 0.567267 0
M  V30 6252 O 598.822 1.74204 0.453111 0
M  V30 6253 H 595.197 0.747243 -0.0844474 0
M  V30 6254 H 597.168 2.74549 -1.16899 0
M  V30 6255 C 595.917 3.44608 0.462683 0
M  V30 6256 H 595.24 3.99248 -0.209936 0
M  V30 6257 H 596.68 4.1609 0.815187 0
M  V30 6258 C 595.139 2.93456 1.65485 0
M  V30 6259 O 595.669 2.92418 2.75417 0
M  V30 6260 N 593.875 2.49628 1.48776 0
M  V30 6261 H 593.422 2.50671 0.593452 0
M  V30 6262 H 593.38 2.15759 2.28682 0
M  V30 6263 N 597.152 0.631951 1.44375 0
M  V30 6264 C 598.399 0.136767 2.02038 0
M  V30 6265 C 598.727 -1.24168 1.49709 0
M  V30 6266 O 597.982 -1.83809 0.671763 0
M  V30 6267 C 598.281 0.0735861 3.57324 0
M  V30 6268 C 597.947 1.39092 4.28911 0
M  V30 6269 C 596.609 1.75171 4.48184 0
M  V30 6270 C 598.961 2.26042 4.69632 0
M  V30 6271 C 596.289 2.97907 5.05439 0
M  V30 6272 C 598.641 3.4805 5.28246 0
M  V30 6273 C 597.305 3.84351 5.45738 0
M  V30 6274 H 596.575 0.0500466 0.739308 0
M  V30 6275 H 599.222 0.818429 1.7313 0
M  V30 6276 H 597.527 -0.691449 3.8565 0
M  V30 6277 H 599.224 -0.326091 3.99672 0
M  V30 6278 H 595.814 1.10015 4.1424 0
M  V30 6279 H 599.998 1.99463 4.54454 0
M  V30 6280 H 595.254 3.26108 5.17169 0
M  V30 6281 H 599.428 4.15658 5.5875 0
M  V30 6282 H 597.055 4.79538 5.8987 0
M  V30 6283 N 598.631 -1.53133 0.372548 0
M  V30 6284 C 599.88 -2.00539 -0.216115 0
M  V30 6285 C 600.193 -1.26374 -1.49295 0
M  V30 6286 O 601.399 -1.64404 -2.16064 0
M  V30 6287 C 599.855 -3.57253 -0.435678 0
M  V30 6288 C 599.463 -4.40302 0.82693 0
M  V30 6289 C 601.207 -4.12995 -0.981618 0
M  V30 6290 C 599.114 -5.88583 0.576567 0
M  V30 6291 H 598.044 -0.749246 -0.084536 0
M  V30 6292 H 600.695 -1.76771 0.492364 0
M  V30 6293 H 599.077 -3.77202 -1.20559 0
M  V30 6294 H 600.251 -4.32124 1.60017 0
M  V30 6295 H 598.566 -3.95699 1.29659 0
M  V30 6296 H 601.163 -5.21418 -1.18436 0
M  V30 6297 H 601.506 -3.68027 -1.94581 0
M  V30 6298 H 602.039 -3.96871 -0.271696 0
M  V30 6299 H 598.778 -6.37841 1.51128 0
M  V30 6300 H 598.298 -5.99592 -0.158047 0
M  V30 6301 H 599.977 -6.46676 0.204722 0
M  V30 6302 N 600.109 -0.101901 -1.5727 0
M  V30 6303 C 601.059 0.865346 -2.1094 0
M  V30 6304 C 602.043 1.2394 -1.02605 0
M  V30 6305 O 603.235 1.21334 -1.28868 0
M  V30 6306 C 600.364 2.12187 -2.69874 0
M  V30 6307 C 599.45 1.77295 -3.85263 0
M  V30 6308 N 599.841 1.12993 -4.93017 0
M  V30 6309 C 598.139 2.06862 -3.95126 0
M  V30 6310 C 598.84 0.968631 -5.73579 0
M  V30 6311 N 597.816 1.48814 -5.22834 0
M  V30 6312 H 601.618 0.364368 -2.91633 0
M  V30 6313 H 599.132 0.101104 -1.62085 0
M  V30 6314 H 601.129 2.82431 -3.06657 0
M  V30 6315 H 599.789 2.62844 -1.90639 0
M  V30 6316 H 600.8 0.795935 -5.11747 0
M  V30 6317 H 597.477 2.59686 -3.26909 0
M  V30 6318 H 598.867 0.465231 -6.70287 0
M  V30 6319 N 601.587 1.56661 0.17182 0
M  V30 6320 C 603.003 1.50768 0.52357 0
M  V30 6321 C 603.203 0.806072 1.84675 0
M  V30 6322 O 602.259 0.366233 2.4983 0
M  V30 6323 C 603.572 2.955 0.556793 0
M  V30 6324 C 605.12 3.06303 0.644029 0
M  V30 6325 C 605.595 4.52492 0.708148 0
M  V30 6326 N 607.086 4.56737 0.771051 0
M  V30 6327 C 607.821 5.67196 0.841229 0
M  V30 6328 N 607.317 6.87287 0.872272 0
M  V30 6329 N 609.11 5.55165 0.88021 0
M  V30 6330 H 601.261 2.00679 -0.695817 0
M  V30 6331 H 603.524 0.914219 -0.250814 0
M  V30 6332 H 603.23 3.49986 -0.346774 0
M  V30 6333 H 603.104 3.50119 1.40346 0
M  V30 6334 H 605.491 2.51851 1.53802 0
M  V30 6335 H 605.572 2.5477 -0.229297 0
M  V30 6336 H 605.216 5.07575 -0.181585 0
M  V30 6337 H 605.146 5.01781 1.59761 0
M  V30 6338 H 607.637 3.70274 0.755364 0
M  V30 6339 H 607.95 7.6722 0.92698 0
M  V30 6340 H 606.295 6.89898 0.840557 0
M  V30 6341 H 609.486 4.60263 0.852956 0
M  V30 6342 H 609.659 6.41271 0.931439 0
M  V30 6343 N 603.065 -0.440357 1.51323 0
M  V30 6344 C 604.342 -1.20109 1.5438 0
M  V30 6345 C 604.722 -2.08866 0.306303 0
M  V30 6346 O 604.07 -2.1723 -0.708773 0
M  V30 6347 C 604.28 -2.00555 2.8562 0
M  V30 6348 C 605.628 -2.577 3.37455 0
M  V30 6349 O 606.652 -2.10769 2.8715 0
M  V30 6350 O 605.511 -3.43289 4.25224 0
M  V30 6351 H 602.605 -0.546668 0.620551 0
M  V30 6352 H 605.151 -0.449672 1.63634 0
M  V30 6353 H 603.923 -1.35346 3.67147 0
M  V30 6354 H 603.546 -2.82768 2.79514 0
M  V30 6355 N 604.543 -1.41418 -0.695603 0
M  V30 6356 C 605.473 -1.46035 -1.82197 0
M  V30 6357 C 606.454 -0.319025 -1.67082 0
M  V30 6358 O 607.639 -0.530462 -1.86815 0
M  V30 6359 C 604.769 -1.34179 -3.20333 0
M  V30 6360 C 603.723 -2.46123 -3.50154 0
M  V30 6361 C 603.049 -2.19332 -4.87645 0
M  V30 6362 C 604.349 -3.88463 -3.49133 0
M  V30 6363 H 606.043 -2.40303 -1.78591 0
M  V30 6364 H 603.589 -1.15663 -0.857797 0
M  V30 6365 H 605.542 -1.36021 -3.98844 0
M  V30 6366 H 604.266 -0.363952 -3.24566 0
M  V30 6367 H 602.925 -2.43563 -2.73994 0
M  V30 6368 H 602.573 -1.19891 -4.88503 0
M  V30 6369 H 602.273 -2.94344 -5.08562 0
M  V30 6370 H 603.797 -2.22889 -5.68465 0
M  V30 6371 H 605.211 -3.92738 -4.17648 0
M  V30 6372 H 603.608 -4.63158 -3.81582 0
M  V30 6373 H 604.678 -4.16617 -2.48109 0
M  V30 6374 N 606.021 0.929856 -1.27246 0
M  V30 6375 C 606.984 2.01172 -1.09829 0
M  V30 6376 C 607.984 1.60743 -0.0429687 0
M  V30 6377 O 609.174 1.71813 -0.287373 0
M  V30 6378 C 606.306 3.34191 -0.673003 0
M  V30 6379 H 607.499 2.18054 -2.05895 0
M  V30 6380 H 605.052 1.11036 -1.10003 0
M  V30 6381 H 605.787 3.23009 0.289134 0
M  V30 6382 H 605.572 3.64892 -1.43515 0
M  V30 6383 H 607.062 4.13646 -0.573323 0
M  V30 6384 N 607.499 1.09233 1.13605 0
M  V30 6385 C 608.462 0.733553 2.17144 0
M  V30 6386 C 609.462 -0.235873 1.59061 0
M  V30 6387 O 610.652 -0.0143167 1.74194 0
M  V30 6388 C 607.784 0.084471 3.40795 0
M  V30 6389 H 608.977 1.65049 2.50397 0
M  V30 6390 H 606.53 0.891264 1.28399 0
M  V30 6391 H 607.265 -0.843795 3.1313 0
M  V30 6392 H 607.05 0.781985 3.84223 0
M  V30 6393 H 608.54 -0.151216 4.17326 0
M  V30 6394 N 608.977 -1.30795 0.87923 0
M  V30 6395 C 610.393 -1.48981 0.57243 0
M  V30 6396 C 610.593 -1.80719 -0.891236 0
M  V30 6397 O 609.649 -1.89136 -1.67283 0
M  V30 6398 C 610.962 -2.61721 1.48063 0
M  V30 6399 C 612.51 -2.75603 1.48365 0
M  V30 6400 C 612.985 -3.91449 2.37763 0
M  V30 6401 N 614.476 -3.98751 2.35695 0
M  V30 6402 C 615.211 -4.87684 3.01583 0
M  V30 6403 N 614.707 -5.81454 3.76674 0
M  V30 6404 N 616.5 -4.81005 2.90844 0
M  V30 6405 H 608.651 -1.08465 1.82617 0
M  V30 6406 H 610.914 -0.536813 0.781368 0
M  V30 6407 H 610.62 -2.45073 2.52254 0
M  V30 6408 H 610.494 -3.58071 1.18596 0
M  V30 6409 H 612.881 -2.9166 0.44927 0
M  V30 6410 H 612.962 -1.79891 1.81859 0
M  V30 6411 H 612.606 -3.76149 3.41283 0
M  V30 6412 H 612.536 -4.86487 2.01589 0
M  V30 6413 H 615.027 -3.31668 1.81121 0
M  V30 6414 H 615.34 -6.46063 4.24054 0
M  V30 6415 H 613.685 -5.81403 3.80782 0
M  V30 6416 H 616.876 -4.06728 2.31711 0
M  V30 6417 H 617.049 -5.50107 3.42471 0
M  V30 6418 N 610.455 -0.639598 -1.44038 0
M  V30 6419 C 611.403 0.0723409 -2.32487 0
M  V30 6420 C 612.397 0.827129 -1.47834 0
M  V30 6421 O 613.603 0.73907 -1.64127 0
M  V30 6422 H 609.978 0.0421696 -0.750817 0
M  V30 6423 H 611.949 -0.691593 -2.90275 0
M  V30 6424 C 610.698 1.03452 -3.31953 0
M  V30 6425 H 610.021 0.46315 -3.97108 0
M  V30 6426 H 611.461 1.502 -3.96505 0
M  V30 6427 C 609.92 2.12392 -2.61518 0
M  V30 6428 O 610.45 3.2059 -2.42044 0
M  V30 6429 N 608.656 1.88563 -2.21116 0
M  V30 6430 H 608.203 1.00577 -2.37154 0
M  V30 6431 H 608.161 2.61651 -1.74316 0
M  V30 6432 N 611.933 1.52934 -0.380664 0
M  V30 6433 C 613.173 2.03378 0.204161 0
M  V30 6434 C 613.537 1.26132 1.44758 0
M  V30 6435 O 614.738 1.66657 2.109 0
M  V30 6436 C 613.009 3.54241 0.474118 0
M  V30 6437 S 614.568 4.26529 1.03046 0
M  V30 6438 H 611.386 0.708608 0.0582719 0
M  V30 6439 H 613.988 1.88263 -0.527017 0
M  V30 6440 H 612.692 4.08055 -0.438088 0
M  V30 6441 H 612.223 3.73547 1.23396 0
M  V30 6442 H 614.238 4.38964 2.31354 0
M  V30 6443 N 613.412 0.11024 1.57214 0
M  V30 6444 C 614.342 -0.840002 2.17867 0
M  V30 6445 C 615.323 -1.28352 1.11624 0
M  V30 6446 O 616.508 -1.3477 1.39824 0
M  V30 6447 C 613.638 -2.09349 2.77111 0
M  V30 6448 C 612.592 -1.78807 3.8886 0
M  V30 6449 C 611.918 -3.11112 4.34872 0
M  V30 6450 C 613.218 -1.0632 5.11364 0
M  V30 6451 H 614.912 -0.334608 2.97524 0
M  V30 6452 H 612.458 -0.159502 1.43114 0
M  V30 6453 H 614.411 -2.76275 3.18198 0
M  V30 6454 H 613.135 -2.62198 1.9473 0
M  V30 6455 H 611.794 -1.14273 3.48335 0
M  V30 6456 H 611.442 -3.61877 3.49362 0
M  V30 6457 H 611.142 -2.91453 5.10224 0
M  V30 6458 H 612.666 -3.79171 4.78604 0
M  V30 6459 H 614.08 -1.63383 5.49526 0
M  V30 6460 H 612.477 -0.967876 5.92243 0
M  V30 6461 H 613.547 -0.0484569 4.84876 0
M  V30 6462 N 614.89 -1.56749 -0.16351 0
M  V30 6463 C 616.136 -1.82704 -0.880168 0
M  V30 6464 C 616.469 -0.689311 -1.81555 0
M  V30 6465 O 615.744 0.308224 -1.92042 0
M  V30 6466 C 616.027 -3.19084 -1.66905 0
M  V30 6467 C 615.88 -4.43397 -0.756269 0
M  V30 6468 C 617.199 -3.52493 -2.63509 0
M  V30 6469 H 614.318 -0.664608 -0.318535 0
M  V30 6470 H 616.96 -1.89438 -0.146036 0
M  V30 6471 H 615.11 -3.13475 -2.2949 0
M  V30 6472 H 616.782 -4.61079 -0.14269 0
M  V30 6473 H 615.025 -4.33752 -0.0647944 0
M  V30 6474 H 615.696 -5.3539 -1.34393 0
M  V30 6475 H 618.172 -3.58606 -2.11047 0
M  V30 6476 H 617.048 -4.48979 -3.15767 0
M  V30 6477 H 617.309 -2.77597 -3.44082 0
M  V30 6478 N 616.368 0.432326 -1.51554 0
M  V30 6479 C 617.616 1.17901 -1.64146 0
M  V30 6480 C 617.937 1.91604 -0.362367 0
M  V30 6481 O 617.207 1.85764 0.621968 0
M  V30 6482 H 615.787 0.438206 -0.604966 0
M  V30 6483 H 618.449 0.495172 -1.88505 0
M  V30 6484 H 617.545 1.90584 -2.47152 0
M  V30 6485 N 617.846 1.41785 0.688094 0
M  V30 6486 C 618.756 1.46596 1.83158 0
M  V30 6487 C 619.772 0.355862 1.70322 0
M  V30 6488 O 620.948 0.604737 1.92106 0
M  V30 6489 C 618.013 1.35322 3.192 0
M  V30 6490 C 617.074 2.56711 3.4409 0
M  V30 6491 C 616.307 2.45965 4.73642 0
M  V30 6492 O 616.53 1.48827 5.50642 0
M  V30 6493 O 615.464 3.35859 4.99482 0
M  V30 6494 H 619.29 2.43083 1.82056 0
M  V30 6495 H 616.875 1.23404 0.842126 0
M  V30 6496 H 618.757 1.31347 4.00407 0
M  V30 6497 H 617.432 0.419536 3.2097 0
M  V30 6498 H 616.339 2.66262 2.62784 0
M  V30 6499 H 617.672 3.48933 3.47141 0
M  V30 6500 N 619.324 -0.923095 1.27737 0
M  V30 6501 C 620.272 -2.04567 1.10703 0
M  V30 6502 C 621.266 -1.69375 0.0288445 0
M  V30 6503 O 622.472 -1.79027 0.186913 0
M  V30 6504 H 618.847 -0.670109 0.34126 0
M  V30 6505 H 620.818 -2.1608 2.05796 0
M  V30 6506 C 619.567 -3.38934 0.775837 0
M  V30 6507 H 618.89 -3.66501 1.59741 0
M  V30 6508 H 620.33 -4.18239 0.696548 0
M  V30 6509 C 618.789 -3.32863 -0.520012 0
M  V30 6510 O 619.319 -3.70462 -1.55308 0
M  V30 6511 N 617.525 -2.85958 -0.51732 0
M  V30 6512 H 617.072 -2.55557 0.32379 0
M  V30 6513 H 617.03 -2.82279 -1.38441 0
M  V30 6514 N 620.802 -1.09834 -1.13024 0
M  V30 6515 C 621.752 -0.710899 -2.16634 0
M  V30 6516 C 622.736 0.276836 -1.58501 0
M  V30 6517 O 623.928 0.0865457 -1.76788 0
M  V30 6518 C 621.057 -0.137574 -3.43024 0
M  V30 6519 C 620.143 -1.15198 -4.08155 0
M  V30 6520 N 620.534 -2.34054 -4.48388 0
M  V30 6521 C 618.832 -0.991074 -4.34849 0
M  V30 6522 C 619.533 -2.98616 -4.99203 0
M  V30 6523 N 618.509 -2.26159 -4.94321 0
M  V30 6524 H 622.311 -1.61576 -2.455 0
M  V30 6525 H 619.825 -0.975158 -1.29863 0
M  V30 6526 H 621.822 0.158031 -4.166 0
M  V30 6527 H 620.482 0.762088 -3.1563 0
M  V30 6528 H 621.493 -2.7162 -4.40957 0
M  V30 6529 H 618.17 -0.146448 -4.17243 0
M  V30 6530 H 619.56 -3.99683 -5.40096 0
M  V30 6531 N 622.28 1.30327 -0.886154 0
M  V30 6532 C 623.526 1.96388 -0.505941 0
M  V30 6533 C 623.859 1.69784 0.942712 0
M  V30 6534 O 623.134 1.00322 1.6663 0
M  V30 6535 C 623.417 3.51488 -0.782826 0
M  V30 6536 C 623.27 3.87603 -2.28219 0
M  V30 6537 C 624.589 4.39331 -0.260128 0
M  V30 6538 H 621.708 0.713327 -0.185292 0
M  V30 6539 H 624.35 1.54178 -1.11036 0
M  V30 6540 H 622.5 3.87572 -0.268399 0
M  V30 6541 H 624.172 3.61537 -2.86512 0
M  V30 6542 H 622.415 3.3563 -2.74837 0
M  V30 6543 H 623.086 4.95806 -2.42653 0
M  V30 6544 H 625.562 4.10162 -0.700444 0
M  V30 6545 H 624.438 5.46769 -0.483179 0
M  V30 6546 H 624.699 4.34072 0.838674 0
M  V30 6547 N 623.758 0.647228 1.43697 0
M  V30 6548 C 625.004 0.158422 2.0218 0
M  V30 6549 C 625.337 -1.22233 1.50907 0
M  V30 6550 O 624.612 -1.81478 0.699702 0
M  V30 6551 C 624.895 0.1627 3.59732 0
M  V30 6552 C 624.748 1.57694 4.21251 0
M  V30 6553 C 626.067 -0.504138 4.37203 0
M  V30 6554 H 623.186 0.059042 0.734631 0
M  V30 6555 H 625.828 0.826772 1.71069 0
M  V30 6556 H 623.978 -0.406414 3.86368 0
M  V30 6557 H 625.65 2.19618 4.05667 0
M  V30 6558 H 623.893 2.12603 3.7813 0
M  V30 6559 H 624.564 1.53183 5.3032 0
M  V30 6560 H 627.04 -0.0199841 4.16095 0
M  V30 6561 H 625.916 -0.470394 5.46881 0
M  V30 6562 H 626.177 -1.57726 4.13007 0
M  V30 6563 N 625.236 -1.5273 0.388769 0
M  V30 6564 C 626.183 -2.26437 -0.446639 0
M  V30 6565 C 627.153 -1.28025 -1.05824 0
M  V30 6566 O 628.338 -1.56852 -1.08637 0
M  V30 6567 C 625.478 -3.07407 -1.56828 0
M  V30 6568 C 624.591 -4.20747 -0.979589 0
M  V30 6569 C 623.726 -4.89113 -2.07224 0
M  V30 6570 C 622.765 -5.94447 -1.45942 0
M  V30 6571 N 621.902 -6.56411 -2.49135 0
M  V30 6572 H 626.742 -2.97404 0.18837 0
M  V30 6573 H 624.279 -1.46727 0.104725 0
M  V30 6574 H 626.237 -3.52642 -2.22934 0
M  V30 6575 H 624.867 -2.3865 -2.17361 0
M  V30 6576 H 623.919 -3.7983 -0.208151 0
M  V30 6577 H 625.231 -4.9637 -0.491747 0
M  V30 6578 H 624.385 -5.3765 -2.81101 0
M  V30 6579 H 623.124 -4.13013 -2.59368 0
M  V30 6580 H 622.129 -5.4525 -0.705894 0
M  V30 6581 H 623.354 -6.7248 -0.945932 0
M  V30 6582 H 621.3 -5.83152 -3.00449 0
M  V30 6583 H 621.217 -7.27645 -2.05105 0
M  V30 6584 H 622.485 -7.09592 -3.22644 0
M  V30 6585 N 626.714 -0.118576 -1.57153 0
M  V30 6586 C 627.96 0.540326 -1.95469 0
M  V30 6587 C 628.293 1.66356 -1.00196 0
M  V30 6588 O 627.568 1.94461 -0.039104 0
M  V30 6589 C 627.851 1.07342 -3.43729 0
M  V30 6590 C 627.704 -0.0463732 -4.49776 0
M  V30 6591 C 629.023 1.96442 -3.93826 0
M  V30 6592 H 626.142 0.19494 -0.710751 0
M  V30 6593 H 628.784 -0.19405 -1.89006 0
M  V30 6594 H 626.934 1.69925 -3.49368 0
M  V30 6595 H 628.606 -0.681648 -4.56236 0
M  V30 6596 H 626.849 -0.709574 -4.27957 0
M  V30 6597 H 627.52 0.367856 -5.50773 0
M  V30 6598 H 629.996 1.43731 -3.90488 0
M  V30 6599 H 628.872 2.3066 -4.98084 0
M  V30 6600 H 629.133 2.89077 -3.34495 0
M  V30 6601 N 628.193 1.56834 0.155195 0
M  V30 6602 C 629.156 1.96748 1.17571 0
M  V30 6603 C 630.156 0.853006 1.3631 0
M  V30 6604 O 631.346 1.11978 1.33441 0
M  V30 6605 C 628.478 2.27631 2.53765 0
M  V30 6606 H 629.671 2.88085 0.833498 0
M  V30 6607 H 627.224 1.51141 0.398242 0
M  V30 6608 H 627.959 1.39059 2.92973 0
M  V30 6609 H 627.744 3.0888 2.41527 0
M  V30 6610 H 629.234 2.59377 3.27282 0
M  V30 6611 N 629.671 -0.424282 1.51781 0
M  V30 6612 C 630.948 -1.18464 1.55646 0
M  V30 6613 C 631.328 -2.08529 0.328438 0
M  V30 6614 O 630.676 -2.17969 -0.685693 0
M  V30 6615 C 630.886 -1.97514 2.87731 0
M  V30 6616 C 632.234 -2.54106 3.40169 0
M  V30 6617 O 633.258 -2.07711 2.89369 0
M  V30 6618 O 632.117 -3.38759 4.28841 0
M  V30 6619 H 629.211 -0.540055 0.626314 0
M  V30 6620 H 631.757 -0.432291 1.64102 0
M  V30 6621 H 630.529 -1.31444 3.68562 0
M  V30 6622 H 630.152 -2.79787 2.82498 0
M  V30 6623 N 631.149 -1.42148 -0.680565 0
M  V30 6624 C 632.396 -1.4231 -1.44063 0
M  V30 6625 C 632.724 -0.037488 -1.94464 0
M  V30 6626 O 631.979 0.953184 -1.70918 0
M  V30 6627 C 632.278 -2.38945 -2.65782 0
M  V30 6628 C 631.944 -3.85455 -2.33956 0
M  V30 6629 C 630.606 -4.25364 -2.24987 0
M  V30 6630 C 632.958 -4.77895 -2.08004 0
M  V30 6631 C 630.286 -5.55701 -1.88184 0
M  V30 6632 C 632.638 -6.08568 -1.72706 0
M  V30 6633 C 631.302 -6.47482 -1.62244 0
M  V30 6634 H 630.572 -0.520748 -0.527164 0
M  V30 6635 H 633.219 -1.7505 -0.776524 0
M  V30 6636 H 631.524 -1.99511 -3.37198 0
M  V30 6637 H 633.221 -2.36336 -3.23954 0
M  V30 6638 H 629.811 -3.53855 -2.41836 0
M  V30 6639 H 633.995 -4.47854 -2.1387 0
M  V30 6640 H 629.251 -5.84718 -1.78648 0
M  V30 6641 H 633.425 -6.79688 -1.5165 0
M  V30 6642 H 631.052 -7.48387 -1.33496 0
M  V30 6643 N 632.627 0.916307 -1.28225 0
M  V30 6644 C 633.875 1.6619 -1.15002 0
M  V30 6645 C 634.196 1.92642 0.302329 0
M  V30 6646 O 633.466 1.54076 1.20985 0
M  V30 6647 H 632.046 0.615964 -0.422608 0
M  V30 6648 H 634.708 1.09963 -1.60917 0
M  V30 6649 H 633.804 2.62533 -1.68769 0
M  V30 6650 N 634.105 1.10431 1.1244 0
M  V30 6651 C 635.035 0.775143 2.20258 0
M  V30 6652 C 636.016 -0.25186 1.68225 0
M  V30 6653 O 637.201 -0.117637 1.93843 0
M  V30 6654 C 634.331 0.206133 3.46688 0
M  V30 6655 C 633.285 1.16382 4.11873 0
M  V30 6656 C 632.611 0.456014 5.32752 0
M  V30 6657 C 633.911 2.5104 4.58013 0
M  V30 6658 H 635.605 1.67665 2.4805 0
M  V30 6659 H 633.151 0.807595 1.19222 0
M  V30 6660 H 635.104 -0.036291 4.21384 0
M  V30 6661 H 633.828 -0.730614 3.18323 0
M  V30 6662 H 632.487 1.39169 3.39157 0
M  V30 6663 H 632.135 -0.485203 5.00654 0
M  V30 6664 H 631.835 1.09466 5.77314 0
M  V30 6665 H 633.359 0.222135 6.10196 0
M  V30 6666 H 634.773 2.32401 5.24083 0
M  V30 6667 H 633.17 3.10789 5.13352 0
M  V30 6668 H 634.24 3.11039 3.71998 0
M  V30 6669 N 635.583 -1.29855 0.893053 0
M  V30 6670 C 636.808 -2.00512 0.530066 0
M  V30 6671 C 637.233 -1.66446 -0.876199 0
M  V30 6672 O 636.591 -0.885446 -1.58207 0
M  V30 6673 C 636.639 -3.53308 0.721505 0
M  V30 6674 O 635.743 -4.11764 -0.228994 0
M  V30 6675 H 635.084 -0.630617 0.207891 0
M  V30 6676 H 637.614 -1.6551 1.20282 0
M  V30 6677 H 637.624 -4.03206 0.623599 0
M  V30 6678 H 636.299 -3.77439 1.74678 0
M  V30 6679 H 634.876 -3.72805 -0.0841034 0
M  V30 6680 N 637.061 -0.65484 -1.43351 0
M  V30 6681 C 638.477 -0.32255 -1.56307 0
M  V30 6682 C 638.677 1.17324 -1.63821 0
M  V30 6683 O 637.733 1.95813 -1.59417 0
M  V30 6684 C 639.046 -1.03533 -2.82314 0
M  V30 6685 C 640.594 -1.01574 -2.9606 0
M  V30 6686 C 641.069 -1.70945 -4.24902 0
M  V30 6687 N 642.56 -1.67716 -4.3177 0
M  V30 6688 C 643.295 -2.18265 -5.30234 0
M  V30 6689 N 642.791 -2.7711 -6.34966 0
M  V30 6690 N 644.584 -2.08756 -5.21898 0
M  V30 6691 H 636.735 -1.62549 -1.36717 0
M  V30 6692 H 638.998 -0.683676 -0.656727 0
M  V30 6693 H 638.704 -2.09045 -2.8283 0
M  V30 6694 H 638.578 -0.587913 -3.7259 0
M  V30 6695 H 640.965 0.0309834 -2.95084 0
M  V30 6696 H 641.046 -1.50186 -2.07069 0
M  V30 6697 H 640.69 -2.75574 -4.26639 0
M  V30 6698 H 640.62 -1.19797 -5.12793 0
M  V30 6699 H 643.111 -1.24777 -3.56706 0
M  V30 6700 H 643.424 -3.13353 -7.06421 0
M  V30 6701 H 641.769 -2.81171 -6.35585 0
M  V30 6702 H 644.96 -1.62488 -4.38994 0
M  V30 6703 H 645.133 -2.48459 -5.98475 0
M  V30 6704 N 638.539 1.52521 -0.396863 0
M  V30 6705 C 639.469 2.29582 0.425941 0
M  V30 6706 C 640.45 1.33281 1.05689 0
M  V30 6707 O 641.635 1.62181 1.06823 0
M  V30 6708 C 638.765 3.10821 1.54943 0
M  V30 6709 C 637.719 4.15069 1.04413 0
M  V30 6710 C 637.045 4.84578 2.26028 0
M  V30 6711 C 638.345 5.22191 0.106767 0
M  V30 6712 H 640.039 2.98612 -0.217045 0
M  V30 6713 H 637.585 1.43611 -0.105826 0
M  V30 6714 H 639.538 3.63492 2.13193 0
M  V30 6715 H 638.262 2.39538 2.22011 0
M  V30 6716 H 636.921 3.63389 0.484118 0
M  V30 6717 H 636.569 4.09835 2.91623 0
M  V30 6718 H 636.269 5.55043 1.92876 0
M  V30 6719 H 637.793 5.40056 2.84906 0
M  V30 6720 H 639.207 5.70176 0.597685 0
M  V30 6721 H 637.604 5.99947 -0.135352 0
M  V30 6722 H 638.674 4.77531 -0.842134 0
M  V30 6723 N 640.017 0.126909 1.57088 0
M  V30 6724 C 640.95 -0.857844 2.11462 0
M  V30 6725 C 641.928 -1.25569 1.03301 0
M  V30 6726 O 643.112 -1.35535 1.31006 0
M  V30 6727 C 640.239 -2.14912 2.61784 0
M  V30 6728 C 639.285 -1.89874 3.81903 0
M  V30 6729 S 640.118 -1.10785 5.23915 0
M  V30 6730 C 641.274 -2.41075 5.7761 0
M  V30 6731 H 641.507 -0.395384 2.94659 0
M  V30 6732 H 639.04 -0.0870151 1.54155 0
M  V30 6733 H 640.998 -2.89101 2.91429 0
M  V30 6734 H 639.659 -2.58275 1.78754 0
M  V30 6735 H 638.852 -2.85572 4.15289 0
M  V30 6736 H 638.454 -1.23802 3.52915 0
M  V30 6737 H 640.746 -3.36864 5.87817 0
M  V30 6738 H 641.689 -2.12223 6.75549 0
M  V30 6739 H 642.097 -2.50804 5.05725 0
M  V30 6740 N 641.495 -1.56914 -0.146875 0
M  V30 6741 C 642.723 -1.87515 -0.874394 0
M  V30 6742 C 643.138 -0.715116 -1.74733 0
M  V30 6743 O 642.495 0.315113 -1.79759 0
M  V30 6744 C 642.546 -3.17362 -1.731 0
M  V30 6745 O 642.267 -4.28897 -0.893245 0
M  V30 6746 C 643.768 -3.61479 -2.56609 0
M  V30 6747 H 640.988 -0.621546 -0.252827 0
M  V30 6748 H 643.532 -2.04023 -0.139627 0
M  V30 6749 H 641.687 -3.02608 -2.41883 0
M  V30 6750 H 642.101 -5.03146 -1.48137 0
M  V30 6751 H 643.575 -4.5517 -3.12289 0
M  V30 6752 H 644.052 -2.86773 -3.32653 0
M  V30 6753 H 644.658 -3.78927 -1.93117 0
M  V30 6754 N 642.974 0.416227 -1.52004 0
M  V30 6755 C 644.222 1.16153 -1.65387 0
M  V30 6756 C 644.543 1.91208 -0.382669 0
M  V30 6757 O 643.813 1.86413 0.602231 0
M  V30 6758 H 642.393 0.431765 -0.60958 0
M  V30 6759 H 645.055 0.475151 -1.89019 0
M  V30 6760 H 644.151 1.87952 -2.4916 0
M  V30 6761 N 644.452 1.42507 0.673017 0
M  V30 6762 C 645.729 1.33554 1.42908 0
M  V30 6763 C 646.109 -0.0262211 2.11084 0
M  V30 6764 O 645.457 -1.04181 2.03368 0
M  V30 6765 C 645.667 2.50498 2.43006 0
M  V30 6766 C 647.015 2.92694 3.07596 0
M  V30 6767 O 648.039 2.50401 2.53333 0
M  V30 6768 O 646.898 3.65899 4.05931 0
M  V30 6769 H 643.992 0.526785 0.637516 0
M  V30 6770 H 646.538 1.54518 0.701591 0
M  V30 6771 H 645.31 3.41272 1.9144 0
M  V30 6772 H 644.933 2.3153 3.23233 0
M  V30 6773 N 645.93 -0.909495 1.28709 0
M  V30 6774 C 647.158 -1.69272 1.18973 0
M  V30 6775 C 647.573 -1.87123 -0.251048 0
M  V30 6776 O 646.93 -1.40127 -1.16922 0
M  V30 6777 C 646.981 -3.08257 1.88839 0
M  V30 6778 O 646.702 -2.91228 3.27289 0
M  V30 6779 C 648.203 -4.02642 1.85457 0
M  V30 6780 H 645.423 -0.528999 0.412797 0
M  V30 6781 H 647.967 -1.13803 1.69909 0
M  V30 6782 H 646.122 -3.6053 1.41762 0
M  V30 6783 H 646.536 -3.79223 3.6234 0
M  V30 6784 H 648.01 -4.97613 2.38925 0
M  V30 6785 H 648.487 -4.31327 0.827893 0
M  V30 6786 H 649.093 -3.56298 2.32233 0
M  V30 6787 N 647.408 -1.11026 -1.11852 0
M  V30 6788 C 648.638 -0.877544 -1.87037 0
M  V30 6789 C 649.046 0.575925 -1.80221 0
M  V30 6790 O 648.389 1.40916 -1.17849 0
M  V30 6791 C 648.451 -1.25529 -3.36872 0
M  V30 6792 C 648.115 -2.71704 -3.67459 0
M  V30 6793 C 649.112 -3.69931 -3.65304 0
M  V30 6794 C 646.797 -3.08243 -3.966 0
M  V30 6795 C 648.791 -5.02717 -3.9186 0
M  V30 6796 C 646.478 -4.41215 -4.22815 0
M  V30 6797 C 647.476 -5.38262 -4.20432 0
M  V30 6798 O 647.164 -6.68839 -4.45992 0
M  V30 6799 H 646.896 -0.314374 -0.598452 0
M  V30 6800 H 649.45 -1.48015 -1.42411 0
M  V30 6801 H 647.68 -0.595808 -3.82082 0
M  V30 6802 H 649.369 -0.999064 -3.93413 0
M  V30 6803 H 650.135 -3.43047 -3.42846 0
M  V30 6804 H 646.014 -2.33326 -3.97593 0
M  V30 6805 H 649.558 -5.78456 -3.89916 0
M  V30 6806 H 645.455 -4.67835 -4.44748 0
M  V30 6807 H 646.223 -6.74563 -4.63581 0
M  V30 6808 N 648.886 1.2938 -0.899927 0
M  V30 6809 C 650.114 1.99691 -0.541386 0
M  V30 6810 C 650.529 1.67355 0.873936 0
M  V30 6811 O 649.886 0.918728 1.57688 0
M  V30 6812 C 649.937 3.54168 -0.72438 0
M  V30 6813 O 649.658 3.85359 -2.08399 0
M  V30 6814 C 651.159 4.41746 -0.370819 0
M  V30 6815 H 648.379 0.638037 -0.207726 0
M  V30 6816 H 650.923 1.6491 -1.20934 0
M  V30 6817 H 649.078 3.87261 -0.103607 0
M  V30 6818 H 649.492 4.80032 -2.11352 0
M  V30 6819 H 650.966 5.49256 -0.549693 0
M  V30 6820 H 651.443 4.33712 0.692148 0
M  V30 6821 H 652.049 4.14125 -0.968543 0
M  V30 6822 N 650.364 0.662433 1.43002 0
M  V30 6823 C 651.327 -0.0142016 2.29196 0
M  V30 6824 C 652.327 -0.741394 1.42688 0
M  V30 6825 O 653.517 -0.581257 1.64216 0
M  V30 6826 C 650.649 -1.03084 3.24941 0
M  V30 6827 H 651.842 0.7443 2.90517 0
M  V30 6828 H 649.395 0.424133 1.50435 0
M  V30 6829 H 650.13 -1.81826 2.68533 0
M  V30 6830 H 649.915 -0.512946 3.8873 0
M  V30 6831 H 651.405 -1.50308 3.89612 0
M  V30 6832 N 651.842 -1.52309 0.404946 0
M  V30 6833 C 652.792 -2.23717 -0.439864 0
M  V30 6834 C 653.776 -1.24692 -1.0169 0
M  V30 6835 O 654.968 -1.49951 -0.940409 0
M  V30 6836 C 652.097 -3.05898 -1.55825 0
M  V30 6837 C 651.183 -4.12331 -0.992188 0
M  V30 6838 N 651.574 -5.0557 -0.152424 0
M  V30 6839 C 649.872 -4.2774 -1.26312 0
M  V30 6840 C 650.573 -5.81474 0.162041 0
M  V30 6841 N 649.549 -5.41767 -0.44601 0
M  V30 6842 H 653.351 -2.93162 0.208084 0
M  V30 6843 H 650.865 -1.60969 0.215131 0
M  V30 6844 H 652.862 -3.55605 -2.17603 0
M  V30 6845 H 651.522 -2.37991 -2.20886 0
M  V30 6846 H 652.533 -5.17468 0.211556 0
M  V30 6847 H 649.21 -3.71062 -1.91362 0
M  V30 6848 H 650.6 -6.66585 0.843423 0
M  V30 6849 N 653.32 -0.135238 -1.57019 0
M  V30 6850 C 654.283 0.794707 -2.14981 0
M  V30 6851 C 655.283 1.18342 -1.08866 0
M  V30 6852 O 656.473 1.10627 -1.34563 0
M  V30 6853 C 653.605 2.07685 -2.70333 0
M  V30 6854 H 654.798 0.290696 -2.98488 0
M  V30 6855 H 652.351 0.114128 -1.55883 0
M  V30 6856 H 653.086 2.6248 -1.9046 0
M  V30 6857 H 652.871 1.80745 -3.47957 0
M  V30 6858 H 654.361 2.74127 -3.1503 0
M  V30 6859 N 654.798 1.5699 0.138552 0
M  V30 6860 C 656.046 1.83446 0.848053 0
M  V30 6861 C 656.367 0.71744 1.81322 0
M  V30 6862 O 655.637 -0.260228 1.94164 0
M  V30 6863 H 654.217 0.676792 0.316166 0
M  V30 6864 H 656.879 1.94462 0.130538 0
M  V30 6865 H 655.975 2.78677 1.40518 0
M  V30 6866 N 656.276 -0.40816 1.52223 0
M  V30 6867 C 657.239 -1.48 1.7501 0
M  V30 6868 C 658.239 -1.48367 0.619996 0
M  V30 6869 O 659.429 -1.49874 0.887881 0
M  V30 6870 C 656.561 -2.87403 1.83336 0
M  V30 6871 H 657.754 -1.29086 2.70697 0
M  V30 6872 H 655.307 -0.638715 1.42654 0
M  V30 6873 H 656.042 -3.11686 0.895677 0
M  V30 6874 H 655.827 -2.8854 2.65494 0
M  V30 6875 H 657.317 -3.65103 2.02705 0
M  V30 6876 N 657.755 -1.42862 -0.66545 0
M  V30 6877 C 658.702 -1.4707 -1.77874 0
M  V30 6878 C 659.672 -0.321654 -1.62956 0
M  V30 6879 O 660.857 -0.52707 -1.83376 0
M  V30 6880 C 657.997 -1.38788 -3.15962 0
M  V30 6881 C 657.11 -2.63801 -3.42101 0
M  V30 6882 C 656.245 -2.47594 -4.69969 0
M  V30 6883 C 655.284 -3.67936 -4.89172 0
M  V30 6884 N 654.421 -3.50614 -6.08288 0
M  V30 6885 H 659.261 -2.42204 -1.73613 0
M  V30 6886 H 656.798 -1.20239 -0.847401 0
M  V30 6887 H 658.756 -1.31982 -3.95773 0
M  V30 6888 H 657.386 -0.472431 -3.19324 0
M  V30 6889 H 656.438 -2.80935 -2.56475 0
M  V30 6890 H 657.75 -3.53228 -3.52181 0
M  V30 6891 H 656.904 -2.38427 -5.57886 0
M  V30 6892 H 655.643 -1.55672 -4.62188 0
M  V30 6893 H 654.648 -3.77525 -3.99694 0
M  V30 6894 H 655.873 -4.60851 -4.98792 0
M  V30 6895 H 653.819 -2.61417 -6.01662 0
M  V30 6896 H 653.736 -4.33634 -6.19272 0
M  V30 6897 H 655.004 -3.45276 -6.98859 0
M  V30 6898 N 659.233 0.902656 -1.29189 0
M  V30 6899 C 660.48 1.65287 -1.16989 0
M  V30 6900 C 660.808 1.92485 0.279232 0
M  V30 6901 O 660.063 1.53143 1.21843 0
M  V30 6902 C 660.362 3.011 -1.92545 0
M  V30 6903 C 660.028 2.93521 -3.42281 0
M  V30 6904 C 658.69 2.91161 -3.83117 0
M  V30 6905 C 661.042 2.82947 -4.3771 0
M  V30 6906 C 658.37 2.76043 -5.17704 0
M  V30 6907 C 660.722 2.69368 -5.72384 0
M  V30 6908 C 659.386 2.65373 -6.12482 0
M  V30 6909 H 658.656 0.604828 -0.428094 0
M  V30 6910 H 661.303 1.05084 -1.60092 0
M  V30 6911 H 659.608 3.65153 -1.42024 0
M  V30 6912 H 661.305 3.58073 -1.80512 0
M  V30 6913 H 657.895 2.96158 -3.09819 0
M  V30 6914 H 662.079 2.83849 -4.07116 0
M  V30 6915 H 657.335 2.71352 -5.47885 0
M  V30 6916 H 661.509 2.60156 -6.45981 0
M  V30 6917 H 659.136 2.53415 -7.16718 0
M  V30 6918 N 660.711 1.11618 1.11262 0
M  V30 6919 C 662.122 0.881942 1.64556 0
M  V30 6920 C 662.473 -0.585442 1.87262 0
M  V30 6921 O 661.598 -1.44795 1.60821 0
M  V30 6922 C 662.193 1.59446 2.98935 0
M  V30 6923 C 660.752 1.40661 3.4913 0
M  V30 6924 C 659.899 1.63593 2.23903 0
M  V30 6925 H 662.85 1.27217 0.94877 0
M  V30 6926 H 662.871 1.04054 3.65996 0
M  V30 6927 H 662.383 2.66241 2.82378 0
M  V30 6928 H 660.484 0.360835 3.70849 0
M  V30 6929 H 660.597 2.15693 4.27801 0
M  V30 6930 H 658.961 1.05944 2.3162 0
M  V30 6931 H 659.744 2.71666 2.09886 0
M  V30 6932 N 662.189 -1.289 0.906776 0
M  V30 6933 C 663.438 -1.9455 0.532262 0
M  V30 6934 C 663.751 -1.72219 -0.927353 0
M  V30 6935 O 664.957 -2.32033 -1.40971 0
M  V30 6936 C 663.413 -3.48438 0.901041 0
M  V30 6937 C 663.021 -3.79558 2.37991 0
M  V30 6938 C 664.765 -4.20284 0.596777 0
M  V30 6939 C 662.672 -5.26723 2.68918 0
M  V30 6940 H 661.602 -0.728259 0.195333 0
M  V30 6941 H 664.253 -1.46519 1.10474 0
M  V30 6942 H 662.635 -3.95162 0.257419 0
M  V30 6943 H 663.809 -3.43668 3.06967 0
M  V30 6944 H 662.124 -3.20868 2.65391 0
M  V30 6945 H 664.721 -5.28612 0.8046 0
M  V30 6946 H 665.064 -4.13694 -0.465072 0
M  V30 6947 H 665.597 -3.79315 1.19855 0
M  V30 6948 H 662.336 -5.38384 3.73928 0
M  V30 6949 H 661.856 -5.63836 2.04571 0
M  V30 6950 H 663.535 -5.94391 2.55555 0
M  V30 6951 N 663.667 -0.670007 -1.42649 0
M  V30 6952 C 664.614 0.0112928 -2.30797 0
M  V30 6953 C 665.584 0.797627 -1.45695 0
M  V30 6954 O 666.769 0.770845 -1.74535 0
M  V30 6955 C 663.909 0.95998 -3.31479 0
M  V30 6956 C 663.022 0.167975 -4.31673 0
M  V30 6957 C 662.157 1.11198 -5.19431 0
M  V30 6958 C 661.196 0.311381 -6.11307 0
M  V30 6959 N 660.333 1.20784 -6.91633 0
M  V30 6960 H 665.173 -0.746231 -2.88505 0
M  V30 6961 H 662.71 -0.379739 -1.42114 0
M  V30 6962 H 664.668 1.52379 -3.88377 0
M  V30 6963 H 663.298 1.68419 -2.75382 0
M  V30 6964 H 662.35 -0.512385 -3.76933 0
M  V30 6965 H 663.662 -0.453814 -4.96731 0
M  V30 6966 H 662.816 1.74587 -5.81037 0
M  V30 6967 H 661.555 1.76766 -4.54538 0
M  V30 6968 H 660.56 -0.335758 -5.48774 0
M  V30 6969 H 661.785 -0.340135 -6.78248 0
M  V30 6970 H 659.731 1.85001 -6.29373 0
M  V30 6971 H 659.648 0.64102 -7.53277 0
M  V30 6972 H 660.916 1.82936 -7.5773 0
M  V30 6973 N 665.145 1.52092 -0.413018 0
M  V30 6974 C 666.391 2.02815 0.154104 0
M  V30 6975 C 666.746 1.293 1.42475 0
M  V30 6976 O 666.039 0.391835 1.87551 0
M  V30 6977 C 666.233 3.54529 0.4521 0
M  V30 6978 C 666.062 4.4274 -0.788116 0
M  V30 6979 C 664.832 4.87903 -1.31447 0
M  V30 6980 C 667.03 4.86522 -1.66735 0
M  V30 6981 N 665.012 5.60254 -2.50976 0
M  V30 6982 C 666.383 5.57692 -2.70886 0
M  V30 6983 C 668.438 4.68534 -1.68465 0
M  V30 6984 C 667.141 6.12783 -3.76682 0
M  V30 6985 C 669.167 5.24524 -2.73182 0
M  V30 6986 C 668.529 5.9562 -3.76054 0
M  V30 6987 H 664.628 0.781796 0.0178567 0
M  V30 6988 H 667.212 1.86223 -0.568237 0
M  V30 6989 H 665.383 3.71186 1.14348 0
M  V30 6990 H 667.115 3.91934 1.00844 0
M  V30 6991 H 663.87 4.65504 -0.871931 0
M  V30 6992 H 664.294 6.01069 -3.11521 0
M  V30 6993 H 668.936 4.13051 -0.902708 0
M  V30 6994 H 666.654 6.67335 -4.55729 0
M  V30 6995 H 670.24 5.12473 -2.75433 0
M  V30 6996 H 669.12 6.38169 -4.55752 0
M  V30 6997 N 666.623 0.143563 1.56945 0
M  V30 6998 C 667.851 -0.515447 2.00377 0
M  V30 6999 C 668.266 -1.58643 1.02361 0
M  V30 7000 O 667.623 -1.82489 0.0201039 0
M  V30 7001 C 667.674 -1.11923 3.43737 0
M  V30 7002 O 667.395 -0.0910318 4.38005 0
M  V30 7003 C 668.896 -1.85918 4.02429 0
M  V30 7004 H 666.116 -0.134478 0.657386 0
M  V30 7005 H 668.66 0.237135 2.0312 0
M  V30 7006 H 666.815 -1.82245 3.41856 0
M  V30 7007 H 667.229 -0.532916 5.21786 0
M  V30 7008 H 668.703 -2.2346 5.04747 0
M  V30 7009 H 669.18 -2.7438 3.42947 0
M  V30 7010 H 669.786 -1.20303 4.07931 0
M  V30 7011 N 668.101 -1.57061 -0.130224 0
M  V30 7012 C 669.064 -1.98593 -1.14426 0
M  V30 7013 C 670.064 -0.874584 -1.34936 0
M  V30 7014 O 671.254 -1.14086 -1.31643 0
M  V30 7015 C 668.386 -2.31639 -2.50112 0
M  V30 7016 H 669.579 -2.89374 -0.787561 0
M  V30 7017 H 667.132 -1.51756 -0.374146 0
M  V30 7018 H 667.867 -1.43703 -2.90723 0
M  V30 7019 H 667.652 -3.12684 -2.36583 0
M  V30 7020 H 669.142 -2.64551 -3.23114 0
M  V30 7021 N 669.579 0.400081 -1.52437 0
M  V30 7022 C 670.99 0.97851 -1.59003 0
M  V30 7023 C 671.341 1.91293 -0.436068 0
M  V30 7024 O 670.466 2.1183 0.442365 0
M  V30 7025 C 671.061 1.78145 -2.88184 0
M  V30 7026 C 669.62 2.30976 -2.97199 0
M  V30 7027 C 668.767 1.11212 -2.54022 0
M  V30 7028 H 671.718 0.180002 -1.57676 0
M  V30 7029 H 671.739 2.63968 -2.74046 0
M  V30 7030 H 671.251 1.1011 -3.72152 0
M  V30 7031 H 669.352 3.02355 -2.17744 0
M  V30 7032 H 669.465 2.61221 -4.01622 0
M  V30 7033 H 667.829 1.46882 -2.08081 0
M  V30 7034 H 668.612 0.447307 -3.40373 0
M  V30 7035 N 671.057 1.43213 0.657864 0
M  V30 7036 C 671.967 1.50448 1.80007 0
M  V30 7037 C 672.983 0.39191 1.69529 0
M  V30 7038 O 674.159 0.645349 1.90781 0
M  V30 7039 C 671.224 1.42062 3.16258 0
M  V30 7040 C 670.285 2.63951 3.38568 0
M  V30 7041 C 669.518 2.55956 4.68318 0
M  V30 7042 O 669.741 1.60473 5.47361 0
M  V30 7043 O 668.675 3.46378 4.92245 0
M  V30 7044 H 672.501 2.4689 1.76858 0
M  V30 7045 H 670.086 1.25163 0.81576 0
M  V30 7046 H 671.968 1.3981 3.97531 0
M  V30 7047 H 670.643 0.487524 3.20008 0
M  V30 7048 H 669.55 2.71776 2.57077 0
M  V30 7049 H 670.883 3.56217 3.39662 0
M  V30 7050 N 672.536 -0.895792 1.29666 0
M  V30 7051 C 673.761 -1.68528 1.20885 0
M  V30 7052 C 674.186 -1.8673 -0.226595 0
M  V30 7053 O 673.544 -1.39044 -1.16347 0
M  V30 7054 C 673.592 -3.04512 1.93144 0
M  V30 7055 O 672.696 -3.92963 1.25115 0
M  V30 7056 H 672.037 -0.515371 0.418675 0
M  V30 7057 H 674.567 -1.11878 1.71302 0
M  V30 7058 H 674.577 -3.54628 2.0175 0
M  V30 7059 H 673.252 -2.90582 2.97548 0
M  V30 7060 H 671.829 -3.51399 1.24794 0
M  V30 7061 N 674.014 -1.12206 -1.10668 0
M  V30 7062 C 674.944 -0.810086 -2.18997 0
M  V30 7063 C 675.925 0.225065 -1.68604 0
M  V30 7064 O 677.11 0.086783 -1.94006 0
M  V30 7065 C 674.24 -0.261262 -3.46316 0
M  V30 7066 C 673.194 -1.2292 -4.09969 0
M  V30 7067 C 672.52 -0.540713 -5.31959 0
M  V30 7068 C 673.82 -2.58295 -4.53962 0
M  V30 7069 H 675.514 -1.7159 -2.45352 0
M  V30 7070 H 673.06 -0.82646 -1.17922 0
M  V30 7071 H 675.013 -0.0307522 -4.21389 0
M  V30 7072 H 673.737 0.679879 -3.19445 0
M  V30 7073 H 672.396 -1.44548 -3.369 0
M  V30 7074 H 672.044 0.405492 -5.01363 0
M  V30 7075 H 671.744 -1.18637 -5.75499 0
M  V30 7076 H 673.268 -0.319184 -6.09765 0
M  V30 7077 H 674.682 -2.40709 -5.20319 0
M  V30 7078 H 673.079 -3.18916 -5.08343 0
M  V30 7079 H 674.149 -3.16918 -3.67002 0
M  V30 7080 N 675.492 1.28418 -0.913599 0
M  V30 7081 C 676.455 2.25564 -0.406624 0
M  V30 7082 C 677.455 1.5387 0.466965 0
M  V30 7083 O 678.645 1.72094 0.270042 0
M  V30 7084 C 675.777 3.38339 0.417053 0
M  V30 7085 H 676.97 2.71926 -1.26477 0
M  V30 7086 H 674.523 1.40098 -0.692986 0
M  V30 7087 H 675.258 2.97339 1.29461 0
M  V30 7088 H 675.043 3.91542 -0.209102 0
M  V30 7089 H 676.533 4.10578 0.762602 0
M  V30 7090 N 676.97 0.677563 1.42291 0
M  V30 7091 C 678.2 0.209155 2.05539 0
M  V30 7092 C 678.608 -1.13987 1.51009 0
M  V30 7093 O 677.951 -1.71976 0.645764 0
M  V30 7094 C 678.013 0.0697758 3.59432 0
M  V30 7095 C 677.677 1.34795 4.36668 0
M  V30 7096 C 678.674 2.28201 4.67141 0
M  V30 7097 C 676.359 1.59632 4.76259 0
M  V30 7098 C 678.353 3.44718 5.36142 0
M  V30 7099 C 676.04 2.76437 5.45 0
M  V30 7100 C 677.038 3.68805 5.74867 0
M  V30 7101 O 676.726 4.83567 6.42198 0
M  V30 7102 H 676.458 0.0986202 0.668768 0
M  V30 7103 H 679.012 0.925483 1.83368 0
M  V30 7104 H 677.242 -0.702157 3.80272 0
M  V30 7105 H 678.931 -0.359115 4.04308 0
M  V30 7106 H 679.697 2.10264 4.37052 0
M  V30 7107 H 675.576 0.886073 4.52404 0
M  V30 7108 H 679.12 4.16833 5.59371 0
M  V30 7109 H 675.017 2.94299 5.74507 0
M  V30 7110 H 675.785 4.83147 6.6069 0
M  V30 7111 N 678.448 -1.51871 0.421078 0
M  V30 7112 C 679.396 -2.28903 -0.413066 0
M  V30 7113 C 680.39 -1.3408 -1.03532 0
M  V30 7114 O 681.596 -1.5149 -0.972146 0
M  V30 7115 H 677.971 -0.736478 -0.152003 0
M  V30 7116 H 679.942 -2.97285 0.257695 0
M  V30 7117 C 678.691 -3.13156 -1.51091 0
M  V30 7118 H 678.014 -3.85997 -1.04145 0
M  V30 7119 H 679.454 -3.7014 -2.06814 0
M  V30 7120 C 677.913 -2.27482 -2.48503 0
M  V30 7121 O 678.443 -1.92325 -3.52667 0
M  V30 7122 N 676.649 -1.91019 -2.18998 0
M  V30 7123 H 676.196 -2.19808 -1.34322 0
M  V30 7124 H 676.154 -1.3399 -2.84419 0
M  V30 7125 N 679.926 -0.151884 -1.56866 0
M  V30 7126 C 681.154 0.504813 -2.00647 0
M  V30 7127 C 681.569 1.58098 -1.03201 0
M  V30 7128 O 680.926 1.82476 -0.0297814 0
M  V30 7129 C 680.977 1.10099 -3.44326 0
M  V30 7130 O 680.698 0.0678021 -4.38048 0
M  V30 7131 C 682.199 1.83782 -4.03409 0
M  V30 7132 H 679.419 0.130989 -0.65809 0
M  V30 7133 H 681.963 -0.247903 -2.02992 0
M  V30 7134 H 680.118 1.8043 -3.42817 0
M  V30 7135 H 680.532 0.505237 -5.22061 0
M  V30 7136 H 682.006 2.2078 -5.05925 0
M  V30 7137 H 682.483 2.72557 -3.44397 0
M  V30 7138 H 683.089 1.18138 -4.08563 0
M  V30 7139 N 681.404 1.57128 0.121893 0
M  V30 7140 C 682.651 1.847 0.830188 0
M  V30 7141 C 682.979 0.736543 1.80015 0
M  V30 7142 O 682.234 -0.272358 1.93796 0
M  V30 7143 C 682.533 3.1874 1.61677 0
M  V30 7144 C 682.199 4.43901 0.791361 0
M  V30 7145 C 680.861 4.77887 0.563731 0
M  V30 7146 C 683.213 5.20753 0.215823 0
M  V30 7147 C 680.541 5.86168 -0.249737 0
M  V30 7148 C 682.893 6.29891 -0.584821 0
M  V30 7149 C 681.557 6.6241 -0.822794 0
M  V30 7150 H 680.827 0.675866 0.303787 0
M  V30 7151 H 683.474 1.91276 0.0926894 0
M  V30 7152 H 681.779 3.07728 2.42509 0
M  V30 7153 H 683.476 3.37295 2.16872 0
M  V30 7154 H 680.066 4.17272 0.978867 0
M  V30 7155 H 684.25 4.94851 0.378907 0
M  V30 7156 H 679.506 6.0979 -0.44336 0
M  V30 7157 H 683.68 6.88624 -1.03779 0
M  V30 7158 H 681.307 7.46147 -1.45496 0
M  V30 7159 N 682.882 -0.391992 1.52647 0
M  V30 7160 C 684.107 -1.16312 1.71716 0
M  V30 7161 C 684.532 -1.83042 0.433279 0
M  V30 7162 O 683.89 -1.70705 -0.610707 0
M  V30 7163 C 683.938 -2.18908 2.86551 0
M  V30 7164 O 683.042 -3.2543 2.53316 0
M  V30 7165 H 682.383 -0.338743 0.571095 0
M  V30 7166 H 684.913 -0.457202 1.99426 0
M  V30 7167 H 684.923 -2.62954 3.1196 0
M  V30 7168 H 683.598 -1.69726 3.79692 0
M  V30 7169 H 682.175 -2.86543 2.38637 0
M  V30 7170 N 684.36 -1.4356 -0.65026 0
M  V30 7171 C 685.609 -1.44619 -1.406 0
M  V30 7172 C 685.922 -0.0752645 -1.95455 0
M  V30 7173 O 687.128 0.0366832 -2.71475 0
M  V30 7174 C 685.584 -2.54511 -2.54465 0
M  V30 7175 C 685.192 -3.97723 -2.06204 0
M  V30 7176 C 686.936 -2.64768 -3.31811 0
M  V30 7177 C 684.843 -4.99075 -3.17298 0
M  V30 7178 H 683.773 -0.537983 -0.52829 0
M  V30 7179 H 686.424 -1.69559 -0.701561 0
M  V30 7180 H 684.806 -2.22777 -3.27393 0
M  V30 7181 H 685.98 -4.38932 -1.40267 0
M  V30 7182 H 684.295 -3.91538 -1.41729 0
M  V30 7183 H 686.892 -3.37664 -4.14593 0
M  V30 7184 H 687.235 -1.69936 -3.80036 0
M  V30 7185 H 687.768 -2.95817 -2.65964 0
M  V30 7186 H 684.507 -5.95469 -2.74038 0
M  V30 7187 H 684.027 -4.62476 -3.81937 0
M  V30 7188 H 685.706 -5.21913 -3.82382 0
M  V30 7189 N 685.838 0.888903 -1.30139 0
M  V30 7190 C 686.785 1.99422 -1.16188 0
M  V30 7191 C 687.755 1.66017 -0.0523869 0
M  V30 7192 O 688.94 1.89506 -0.221864 0
M  V30 7193 C 686.08 3.34325 -0.855612 0
M  V30 7194 C 685.193 3.80445 -2.0466 0
M  V30 7195 C 684.328 5.03975 -1.67876 0
M  V30 7196 C 683.367 5.42492 -2.83493 0
M  V30 7197 N 682.504 6.57206 -2.47032 0
M  V30 7198 H 687.344 2.10687 -2.10749 0
M  V30 7199 H 684.881 1.03165 -1.04859 0
M  V30 7200 H 686.839 4.11968 -0.658681 0
M  V30 7201 H 685.469 3.22756 0.0531155 0
M  V30 7202 H 684.521 2.98745 -2.3549 0
M  V30 7203 H 685.833 4.04933 -2.91257 0
M  V30 7204 H 684.987 5.89232 -1.44535 0
M  V30 7205 H 683.726 4.8135 -0.784431 0
M  V30 7206 H 682.731 4.55764 -3.07505 0
M  V30 7207 H 683.956 5.67093 -3.73607 0
M  V30 7208 H 681.902 6.36164 -1.601 0
M  V30 7209 H 681.819 6.81543 -3.27161 0
M  V30 7210 H 683.087 7.45704 -2.27038 0
M  V30 7211 N 687.317 1.12792 1.10072 0
M  V30 7212 C 688.542 0.908838 1.86427 0
M  V30 7213 C 688.967 -0.536793 1.80278 0
M  V30 7214 O 688.325 -1.38033 1.17543 0
M  V30 7215 C 688.373 1.39295 3.3261 0
M  V30 7216 O 687.477 0.573846 4.08388 0
M  V30 7217 H 686.818 0.326234 0.578331 0
M  V30 7218 H 689.348 1.50094 1.39043 0
M  V30 7219 H 689.358 1.39366 3.83459 0
M  V30 7220 H 688.033 2.44555 3.36401 0
M  V30 7221 H 686.61 0.640438 3.67359 0
M  V30 7222 N 688.795 -1.27931 0.920396 0
M  V30 7223 C 690.072 -1.89728 0.475687 0
M  V30 7224 C 690.452 -1.8337 -1.04588 0
M  V30 7225 O 689.8 -1.27404 -1.89685 0
M  V30 7226 C 690.01 -3.33959 1.01354 0
M  V30 7227 C 691.358 -4.10907 1.06963 0
M  V30 7228 O 692.382 -3.42945 0.962646 0
M  V30 7229 O 691.241 -5.32399 1.23343 0
M  V30 7230 H 688.335 -0.81294 0.151845 0
M  V30 7231 H 690.881 -1.36252 1.01161 0
M  V30 7232 H 689.653 -3.32843 2.05746 0
M  V30 7233 H 689.276 -3.94944 0.458829 0
M  V30 7234 N 690.273 -0.685099 -1.4193 0
M  V30 7235 C 691.519 -0.211971 -2.01689 0
M  V30 7236 C 691.852 1.18189 -1.54094 0
M  V30 7237 O 691.127 1.79559 -0.747572 0
M  V30 7238 C 691.41 -0.258019 -3.59174 0
M  V30 7239 C 691.263 -1.68807 -4.16922 0
M  V30 7240 C 692.582 0.388044 -4.38386 0
M  V30 7241 H 689.701 -0.0784987 -0.732808 0
M  V30 7242 H 692.343 -0.871837 -1.68816 0
M  V30 7243 H 690.493 0.303832 -3.8731 0
M  V30 7244 H 692.165 -2.30296 -3.99702 0
M  V30 7245 H 690.408 -2.22553 -3.72361 0
M  V30 7246 H 691.079 -1.6719 -5.26072 0
M  V30 7247 H 693.555 -0.0903432 -4.16002 0
M  V30 7248 H 692.431 0.325232 -5.47936 0
M  V30 7249 H 692.692 1.4672 -4.17044 0
M  V30 7250 N 691.751 1.51645 -0.429126 0
M  V30 7251 C 692.997 2.02967 0.132584 0
M  V30 7252 C 693.352 1.30804 1.41096 0
M  V30 7253 O 692.645 0.411705 1.87124 0
M  V30 7254 C 692.839 3.54989 0.414472 0
M  V30 7255 C 692.668 4.41879 -0.83503 0
M  V30 7256 C 691.438 4.86482 -1.36614 0
M  V30 7257 C 693.636 4.84727 -1.71886 0
M  V30 7258 N 691.618 5.5756 -2.56904 0
M  V30 7259 C 692.989 5.54788 -2.76786 0
M  V30 7260 C 695.044 4.66721 -1.73425 0
M  V30 7261 C 693.747 6.08753 -3.8316 0
M  V30 7262 C 695.773 5.21597 -2.7873 0
M  V30 7263 C 695.135 5.91598 -3.8235 0
M  V30 7264 H 691.234 0.781942 0.00956367 0
M  V30 7265 H 693.818 1.8561 -0.587957 0
M  V30 7266 H 691.989 3.72378 1.10405 0
M  V30 7267 H 693.721 3.92982 0.966817 0
M  V30 7268 H 690.476 4.64553 -0.921255 0
M  V30 7269 H 690.9 5.97731 -3.17879 0
M  V30 7270 H 695.542 4.1207 -0.946467 0
M  V30 7271 H 693.26 6.62464 -4.62782 0
M  V30 7272 H 696.846 5.09522 -2.80853 0
M  V30 7273 H 695.726 6.33299 -4.62495 0
M  V30 7274 N 693.229 0.160201 1.56784 0
M  V30 7275 C 694.192 -0.760405 2.16219 0
M  V30 7276 C 695.192 -1.16595 1.10735 0
M  V30 7277 O 696.382 -1.08472 1.36306 0
M  V30 7278 C 693.514 -2.03358 2.73603 0
M  V30 7279 H 694.707 -0.243173 2.98912 0
M  V30 7280 H 692.26 -0.0893139 1.56045 0
M  V30 7281 H 692.995 -2.59416 1.94612 0
M  V30 7282 H 692.78 -1.75186 3.50788 0
M  V30 7283 H 694.27 -2.69081 3.19351 0
M  V30 7284 N 694.707 -1.5719 -0.113559 0
M  V30 7285 C 695.954 -1.85138 -0.820382 0
M  V30 7286 C 696.282 -0.74608 -1.79622 0
M  V30 7287 O 695.537 0.262077 -1.93937 0
M  V30 7288 C 695.836 -3.19593 -1.59984 0
M  V30 7289 C 695.502 -4.44315 -0.767809 0
M  V30 7290 C 694.164 -4.78179 -0.538379 0
M  V30 7291 C 696.516 -5.2086 -0.188203 0
M  V30 7292 C 693.844 -5.86028 0.28082 0
M  V30 7293 C 696.196 -6.29572 0.618217 0
M  V30 7294 C 694.86 -6.61964 0.857912 0
M  V30 7295 H 694.13 -0.677467 -0.300199 0
M  V30 7296 H 696.777 -1.91322 -0.0825443 0
M  V30 7297 H 695.082 -3.0901 -2.40874 0
M  V30 7298 H 696.779 -3.3844 -2.1508 0
M  V30 7299 H 693.369 -4.17786 -0.956724 0
M  V30 7300 H 697.553 -4.95045 -0.352658 0
M  V30 7301 H 692.809 -6.09547 0.475693 0
M  V30 7302 H 696.983 -6.88064 1.0743 0
M  V30 7303 H 694.61 -7.45365 1.49451 0
M  V30 7304 N 696.185 0.383891 -1.52853 0
M  V30 7305 C 697.433 1.12619 -1.67814 0
M  V30 7306 C 697.754 1.90354 -0.423141 0
M  V30 7307 O 697.024 1.87649 0.562554 0
M  V30 7308 H 695.604 0.418738 -0.618601 0
M  V30 7309 H 698.266 0.43495 -1.89985 0
M  V30 7310 H 697.362 1.82624 -2.5309 0
M  V30 7311 N 697.663 1.43903 0.642637 0
M  V30 7312 C 698.909 1.46296 1.40447 0
M  V30 7313 C 699.242 0.0908361 1.93987 0
M  V30 7314 O 698.517 -0.889884 1.72949 0
M  V30 7315 C 698.8 2.51399 2.57819 0
M  V30 7316 C 698.653 3.97926 2.09702 0
M  V30 7317 C 699.972 2.53125 3.60022 0
M  V30 7318 H 697.091 0.532676 0.509338 0
M  V30 7319 H 699.733 1.75515 0.727635 0
M  V30 7320 H 697.883 2.26614 3.1556 0
M  V30 7321 H 699.555 4.33804 1.5688 0
M  V30 7322 H 697.798 4.10252 1.40982 0
M  V30 7323 H 698.469 4.67096 2.94152 0
M  V30 7324 H 700.945 2.75242 3.12059 0
M  V30 7325 H 699.821 3.28589 4.39682 0
M  V30 7326 H 700.082 1.56895 4.13324 0
M  V30 7327 N 699.141 -0.881989 1.30609 0
M  V30 7328 C 700.071 -2.00413 1.1982 0
M  V30 7329 C 701.052 -1.69871 0.0881538 0
M  V30 7330 O 702.237 -1.92304 0.2707 0
M  V30 7331 C 699.367 -3.35641 0.89233 0
M  V30 7332 C 698.321 -3.80451 1.96064 0
M  V30 7333 C 697.647 -5.13003 1.5077 0
M  V30 7334 C 698.947 -3.98855 3.37213 0
M  V30 7335 H 700.641 -2.09698 2.13699 0
M  V30 7336 H 698.187 -1.00754 1.02882 0
M  V30 7337 H 700.14 -4.13669 0.803497 0
M  V30 7338 H 698.864 -3.26497 -0.0821381 0
M  V30 7339 H 697.523 -3.04654 2.03916 0
M  V30 7340 H 697.171 -5.0029 0.521417 0
M  V30 7341 H 696.871 -5.43956 2.22229 0
M  V30 7342 H 698.395 -5.93554 1.43271 0
M  V30 7343 H 699.809 -4.67312 3.32103 0
M  V30 7344 H 698.206 -4.41188 4.06784 0
M  V30 7345 H 699.276 -3.02614 3.78883 0
M  V30 7346 N 700.619 -1.13374 -1.09472 0
M  V30 7347 C 701.549 -0.833268 -2.18126 0
M  V30 7348 C 702.53 0.207169 -1.68834 0
M  V30 7349 O 703.715 0.0662012 -1.94087 0
M  V30 7350 C 700.845 -0.297979 -3.46019 0
M  V30 7351 C 699.799 -1.27261 -4.08642 0
M  V30 7352 C 699.125 -0.597104 -5.31356 0
M  V30 7353 C 700.425 -2.63095 -4.51197 0
M  V30 7354 H 702.119 -1.74182 -2.43518 0
M  V30 7355 H 699.665 -0.838921 -1.17039 0
M  V30 7356 H 701.618 -0.0754444 -4.21332 0
M  V30 7357 H 700.342 0.645959 -3.20148 0
M  V30 7358 H 699.001 -1.48113 -3.35348 0
M  V30 7359 H 698.649 0.352293 -5.01765 0
M  V30 7360 H 698.349 -1.24734 -5.74208 0
M  V30 7361 H 699.873 -0.38384 -6.09392 0
M  V30 7362 H 701.287 -2.46214 -5.17737 0
M  V30 7363 H 699.684 -3.2429 -5.04932 0
M  V30 7364 H 700.754 -3.20793 -3.6362 0
M  V30 7365 N 702.098 1.27442 -0.927168 0
M  V30 7366 C 703.344 1.95025 -0.577651 0
M  V30 7367 C 703.699 1.71534 0.871421 0
M  V30 7368 O 702.992 1.03354 1.61333 0
M  V30 7369 C 703.186 3.47413 -0.838994 0
M  V30 7370 C 703.015 3.85721 -2.31192 0
M  V30 7371 C 701.785 4.09199 -2.96452 0
M  V30 7372 C 703.983 3.95352 -3.28939 0
M  V30 7373 N 701.965 4.34283 -4.33903 0
M  V30 7374 C 703.336 4.24805 -4.51598 0
M  V30 7375 C 705.391 3.77926 -3.24155 0
M  V30 7376 C 704.094 4.38645 -5.70073 0
M  V30 7377 C 706.12 3.9299 -4.41942 0
M  V30 7378 C 705.482 4.22829 -5.63379 0
M  V30 7379 H 701.581 0.736983 -0.261495 0
M  V30 7380 H 704.165 1.53816 -1.19368 0
M  V30 7381 H 702.336 3.87581 -0.252129 0
M  V30 7382 H 704.068 4.02166 -0.452158 0
M  V30 7383 H 700.823 4.04013 -2.47125 0
M  V30 7384 H 701.247 4.50883 -5.05008 0
M  V30 7385 H 705.889 3.53897 -2.31337 0
M  V30 7386 H 703.607 4.615 -6.63358 0
M  V30 7387 H 707.193 3.80926 -4.39757 0
M  V30 7388 H 706.073 4.34234 -6.53001 0
M  V30 7389 N 703.576 0.692616 1.41565 0
M  V30 7390 C 704.486 0.0258451 2.34586 0
M  V30 7391 C 705.502 -0.769324 1.56069 0
M  V30 7392 O 706.678 -0.707563 1.88562 0
M  V30 7393 C 703.743 -0.901289 3.3478 0
M  V30 7394 C 702.804 -0.0986579 4.29187 0
M  V30 7395 C 702.037 -0.981634 5.24595 0
M  V30 7396 O 702.26 -2.22115 5.25377 0
M  V30 7397 O 701.194 -0.432892 6.00341 0
M  V30 7398 H 705.02 0.792537 2.93177 0
M  V30 7399 H 702.605 0.452935 1.42369 0
M  V30 7400 H 704.487 -1.43302 3.96286 0
M  V30 7401 H 703.162 -1.64752 2.78637 0
M  V30 7402 H 702.069 0.477604 3.71039 0
M  V30 7403 H 703.402 0.608848 4.8842 0
M  V30 7404 N 705.054 -1.51416 0.437162 0
M  V30 7405 C 706.303 -2.01275 -0.130865 0
M  V30 7406 C 706.616 -1.32593 -1.438 0
M  V30 7407 O 707.822 -1.7342 -2.08897 0
M  V30 7408 C 706.278 -3.5878 -0.283763 0
M  V30 7409 C 705.886 -4.36399 1.01293 0
M  V30 7410 C 707.63 -4.16786 -0.805569 0
M  V30 7411 C 705.537 -5.85608 0.825687 0
M  V30 7412 H 704.467 -0.752157 -0.0526818 0
M  V30 7413 H 707.118 -1.74524 0.566896 0
M  V30 7414 H 705.5 -3.81976 -1.04452 0
M  V30 7415 H 706.674 -4.24948 1.78201 0
M  V30 7416 H 704.989 -3.89843 1.46326 0
M  V30 7417 H 707.586 -5.25972 -0.962146 0
M  V30 7418 H 707.929 -3.75949 -1.78796 0
M  V30 7419 H 708.462 -3.97666 -0.103125 0
M  V30 7420 H 705.201 -6.30857 1.78045 0
M  V30 7421 H 704.721 -5.99723 0.0964029 0
M  V30 7422 H 706.4 -6.45226 0.478815 0
M  V30 7423 N 706.532 -0.168513 -1.56696 0
M  V30 7424 C 707.495 0.748928 -2.16619 0
M  V30 7425 C 708.495 1.16007 -1.11351 0
M  V30 7426 O 709.685 1.07748 -1.3688 0
M  V30 7427 C 706.817 2.01904 -2.74677 0
M  V30 7428 H 708.01 0.227317 -2.99037 0
M  V30 7429 H 705.563 0.0810372 -1.5609 0
M  V30 7430 H 706.298 2.58381 -1.95985 0
M  V30 7431 H 706.083 1.73323 -3.51712 0
M  V30 7432 H 707.573 2.67383 -3.20774 0
M  V30 7433 N 708.01 1.57248 0.105221 0
M  V30 7434 C 709.238 1.89768 0.82437 0
M  V30 7435 C 709.653 0.761192 1.72775 0
M  V30 7436 O 709.01 -0.267342 1.80531 0
M  V30 7437 C 709.061 3.2184 1.64625 0
M  V30 7438 O 708.782 4.31115 0.779217 0
M  V30 7439 C 710.283 3.68155 2.46935 0
M  V30 7440 H 707.503 0.628031 0.236259 0
M  V30 7441 H 710.047 2.04321 0.085485 0
M  V30 7442 H 708.202 3.08915 2.33775 0
M  V30 7443 H 708.616 5.06897 1.34745 0
M  V30 7444 H 710.09 4.6329 3.00111 0
M  V30 7445 H 710.567 2.95492 3.24932 0
M  V30 7446 H 711.173 3.83914 1.83002 0
M  V30 7447 N 709.488 -0.375779 1.53054 0
M  V30 7448 C 710.718 -1.1387 1.72386 0
M  V30 7449 C 711.126 -1.8382 0.447966 0
M  V30 7450 O 710.469 -1.74027 -0.588244 0
M  V30 7451 C 710.531 -2.22047 2.82728 0
M  V30 7452 C 710.195 -1.71951 4.23417 0
M  V30 7453 C 711.192 -1.18909 5.06119 0
M  V30 7454 C 708.877 -1.77773 4.69789 0
M  V30 7455 C 710.871 -0.723529 6.3328 0
M  V30 7456 C 708.558 -1.30829 5.96931 0
M  V30 7457 C 709.556 -0.782077 6.78508 0
M  V30 7458 O 709.244 -0.319529 8.03265 0
M  V30 7459 H 708.976 -0.346835 0.580242 0
M  V30 7460 H 711.53 -0.443748 2.00549 0
M  V30 7461 H 709.76 -2.95006 2.50017 0
M  V30 7462 H 711.449 -2.83654 2.90336 0
M  V30 7463 H 712.215 -1.13758 4.7147 0
M  V30 7464 H 708.094 -2.17673 4.06373 0
M  V30 7465 H 711.638 -0.312126 6.96901 0
M  V30 7466 H 707.535 -1.3567 6.31081 0
M  V30 7467 H 708.303 -0.439796 8.17318 0
M  V30 7468 N 710.966 -1.44241 -0.634997 0
M  V30 7469 C 712.214 -1.46531 -1.39187 0
M  V30 7470 C 712.535 -0.0976441 -1.94755 0
M  V30 7471 O 711.805 0.869528 -1.75545 0
M  V30 7472 H 710.385 -0.539544 -0.516625 0
M  V30 7473 H 713.047 -1.79989 -0.747655 0
M  V30 7474 H 712.143 -2.18848 -2.22513 0
M  V30 7475 N 712.444 0.87505 -1.31075 0
M  V30 7476 C 713.377 1.98471 -1.12625 0
M  V30 7477 C 714.355 1.6257 -0.0311379 0
M  V30 7478 O 715.539 1.87574 -0.186594 0
M  V30 7479 C 712.666 3.30963 -0.719799 0
M  V30 7480 C 711.712 3.85849 -1.81722 0
M  V30 7481 S 712.545 4.11926 -3.42165 0
M  V30 7482 C 713.701 5.47423 -3.03445 0
M  V30 7483 H 713.934 2.13817 -2.06566 0
M  V30 7484 H 711.467 1.02463 -1.15502 0
M  V30 7485 H 713.425 4.07541 -0.492035 0
M  V30 7486 H 712.086 3.1346 0.200413 0
M  V30 7487 H 711.279 4.81616 -1.48533 0
M  V30 7488 H 710.881 3.16046 -1.99977 0
M  V30 7489 H 713.173 6.28881 -2.52023 0
M  V30 7490 H 714.116 5.85557 -3.98157 0
M  V30 7491 H 714.524 5.10455 -2.41031 0
M  V30 7492 N 713.922 1.13953 1.08869 0
M  V30 7493 C 715.147 0.928559 1.85452 0
M  V30 7494 C 715.572 -0.517642 1.80837 0
M  V30 7495 O 714.93 -1.36779 1.19001 0
M  V30 7496 C 714.978 1.42814 3.31114 0
M  V30 7497 O 714.082 0.617129 4.07756 0
M  V30 7498 H 713.423 0.33235 0.574839 0
M  V30 7499 H 715.953 1.5156 1.37443 0
M  V30 7500 H 715.963 1.43425 3.8196 0
M  V30 7501 H 714.638 2.48109 3.33788 0
M  V30 7502 H 713.215 0.679365 3.66659 0
M  V30 7503 N 715.4 -1.26948 0.933913 0
M  V30 7504 C 716.811 -1.76058 0.621324 0
M  V30 7505 C 717.162 -1.76175 -0.863522 0
M  V30 7506 O 716.287 -1.36921 -1.67576 0
M  V30 7507 C 716.882 -3.19713 1.12111 0
M  V30 7508 C 715.441 -3.66465 0.859074 0
M  V30 7509 C 714.588 -2.46186 1.27624 0
M  V30 7510 H 717.539 -1.13127 1.11301 0
M  V30 7511 H 717.56 -3.77566 0.471608 0
M  V30 7512 H 717.072 -3.19596 2.20182 0
M  V30 7513 H 715.173 -3.72021 -0.207566 0
M  V30 7514 H 715.286 -4.55636 1.48098 0
M  V30 7515 H 713.65 -2.45042 0.694727 0
M  V30 7516 H 714.433 -2.48774 2.36572 0
M  V30 7517 N 716.879 -0.700114 -1.41195 0
M  V30 7518 C 718.109 -0.241828 -2.0518 0
M  V30 7519 C 718.517 1.1157 -1.52803 0
M  V30 7520 O 717.86 1.70926 -0.673042 0
M  V30 7521 C 717.922 -0.12695 -3.59276 0
M  V30 7522 C 717.586 -1.41725 -4.34469 0
M  V30 7523 C 718.583 -2.35604 -4.63451 0
M  V30 7524 C 716.268 -1.67189 -4.73659 0
M  V30 7525 C 718.262 -3.53204 -5.3059 0
M  V30 7526 C 715.949 -2.85073 -5.40534 0
M  V30 7527 C 716.947 -3.77904 -5.68927 0
M  V30 7528 O 716.635 -4.93723 -6.34424 0
M  V30 7529 H 716.367 -0.109247 -0.667114 0
M  V30 7530 H 718.921 -0.954538 -1.81873 0
M  V30 7531 H 717.151 0.641571 -3.81341 0
M  V30 7532 H 718.84 0.294748 -4.04828 0
M  V30 7533 H 719.606 -2.1719 -4.33651 0
M  V30 7534 H 715.485 -0.957935 -4.50937 0
M  V30 7535 H 719.029 -4.25679 -5.52669 0
M  V30 7536 H 714.926 -3.03402 -5.69752 0
M  V30 7537 H 715.694 -4.93597 -6.5292 0
M  V30 7538 N 718.357 1.51182 -0.445186 0
M  V30 7539 C 719.768 1.86693 0.0160999 0
M  V30 7540 C 720.119 1.36183 1.4124 0
M  V30 7541 O 719.244 0.715895 2.04215 0
M  V30 7542 C 719.839 3.38781 0.0359918 0
M  V30 7543 C 718.398 3.73799 0.441715 0
M  V30 7544 C 717.545 2.74947 -0.360511 0
M  V30 7545 H 720.496 1.44294 -0.660674 0
M  V30 7546 H 720.517 3.71026 0.843813 0
M  V30 7547 H 720.029 3.75513 -0.980378 0
M  V30 7548 H 718.13 3.42659 1.4634 0
M  V30 7549 H 718.243 4.78829 0.16106 0
M  V30 7550 H 716.607 2.54047 0.182269 0
M  V30 7551 H 717.39 3.14521 -1.3759 0
M  V30 7552 N 719.835 0.176821 1.56605 0
M  V30 7553 C 721.083 -0.465793 1.96659 0
M  V30 7554 C 721.404 -1.63406 1.06412 0
M  V30 7555 O 720.674 -1.95457 0.131603 0
M  V30 7556 H 719.254 -0.175072 0.726195 0
M  V30 7557 H 721.916 0.25929 1.93168 0
M  V30 7558 H 721.012 -0.822138 3.01077 0
M  V30 7559 N 721.313 -1.57302 -0.09688 0
M  V30 7560 C 722.562 -1.85183 -0.799388 0
M  V30 7561 C 722.875 -0.765818 -1.79985 0
M  V30 7562 O 724.081 -0.931696 -2.55013 0
M  V30 7563 C 722.537 -3.28399 -1.47249 0
M  V30 7564 C 722.145 -4.45066 -0.511888 0
M  V30 7565 C 723.889 -3.65506 -2.15883 0
M  V30 7566 C 721.796 -5.79315 -1.18948 0
M  V30 7567 H 720.726 -0.690752 -0.302287 0
M  V30 7568 H 723.377 -1.83425 -0.0523104 0
M  V30 7569 H 721.759 -3.24692 -2.26697 0
M  V30 7570 H 722.933 -4.60116 0.250962 0
M  V30 7571 H 721.248 -4.16343 0.0686576 0
M  V30 7572 H 723.845 -4.63087 -2.67309 0
M  V30 7573 H 724.188 -2.94041 -2.94696 0
M  V30 7574 H 724.721 -3.71094 -1.43298 0
M  V30 7575 H 721.46 -6.54007 -0.442198 0
M  V30 7576 H 720.98 -5.68111 -1.9238 0
M  V30 7577 H 722.659 -6.23816 -1.71646 0
M  V30 7578 N 722.791 0.367657 -1.53252 0
M  V30 7579 C 724.068 1.12606 -1.59935 0
M  V30 7580 C 724.448 2.07167 -0.405606 0
M  V30 7581 O 723.796 2.20364 0.604323 0
M  V30 7582 C 724.006 1.86699 -2.94863 0
M  V30 7583 C 725.354 2.41306 -3.49366 0
M  V30 7584 O 726.378 1.96828 -2.96879 0
M  V30 7585 O 725.237 3.2261 -4.41118 0
M  V30 7586 H 722.331 0.516438 -0.645926 0
M  V30 7587 H 724.877 0.371088 -1.65593 0
M  V30 7588 H 723.649 1.17674 -3.73187 0
M  V30 7589 H 723.272 2.6911 -2.92687 0
M  V30 7590 N 724.269 1.44576 0.627338 0
M  V30 7591 C 725.199 1.54562 1.75022 0
M  V30 7592 C 726.18 0.398378 1.65369 0
M  V30 7593 O 727.365 0.61899 1.84071 0
M  V30 7594 C 724.495 1.49309 3.13567 0
M  V30 7595 C 723.449 2.62549 3.38012 0
M  V30 7596 C 722.775 2.42348 4.76625 0
M  V30 7597 C 724.075 4.04678 3.30202 0
M  V30 7598 H 725.769 2.4855 1.66922 0
M  V30 7599 H 723.315 1.19624 0.801636 0
M  V30 7600 H 725.268 1.54895 3.919 0
M  V30 7601 H 723.992 0.518392 3.2246 0
M  V30 7602 H 722.651 2.56358 2.62061 0
M  V30 7603 H 722.299 1.43062 4.82226 0
M  V30 7604 H 721.999 3.18273 4.93939 0
M  V30 7605 H 723.523 2.49758 5.57183 0
M  V30 7606 H 724.937 4.12217 3.98435 0
M  V30 7607 H 723.334 4.80836 3.5905 0
M  V30 7608 H 724.404 4.2798 2.27949 0
M  V30 7609 N 725.747 -0.868086 1.31537 0
M  V30 7610 C 726.972 -1.65926 1.24432 0
M  V30 7611 C 727.397 -1.87169 -0.186936 0
M  V30 7612 O 726.755 -1.4148 -1.13371 0
M  V30 7613 C 726.803 -3.00347 1.9956 0
M  V30 7614 O 725.907 -3.90221 1.33422 0
M  V30 7615 H 725.248 -0.506375 0.429512 0
M  V30 7616 H 727.778 -1.0822 1.73637 0
M  V30 7617 H 727.788 -3.50269 2.09226 0
M  V30 7618 H 726.463 -2.84205 3.03645 0
M  V30 7619 H 725.04 -3.48672 1.32219 0
M  V30 7620 N 727.225 -1.14528 -1.08264 0
M  V30 7621 C 728.157 -0.791325 -2.15106 0
M  V30 7622 C 729.17 0.192449 -1.61659 0
M  V30 7623 O 730.359 -0.0294704 -1.78476 0
M  V30 7624 C 727.459 -0.154183 -3.38549 0
M  V30 7625 C 726.632 -1.17305 -4.21377 0
M  V30 7626 C 725.691 -0.559401 -5.23218 0
M  V30 7627 O 724.717 -1.22277 -5.55911 0
M  V30 7628 N 725.919 0.663159 -5.767 0
M  V30 7629 H 728.684 -1.71076 -2.46075 0
M  V30 7630 H 726.245 -1.0399 -1.24087 0
M  V30 7631 H 728.237 0.268884 -4.03806 0
M  V30 7632 H 726.807 0.668418 -3.0537 0
M  V30 7633 H 726.027 -1.773 -3.52077 0
M  V30 7634 H 727.315 -1.86128 -4.73533 0
M  V30 7635 H 726.713 1.22066 -5.52373 0
M  V30 7636 H 725.27 1.02871 -6.43631 0
M  V30 7637 N 728.703 1.26451 -0.940633 0
M  V30 7638 C 729.949 1.94065 -0.58878 0
M  V30 7639 C 730.282 1.7363 0.869853 0
M  V30 7640 O 729.557 1.073 1.62225 0
M  V30 7641 C 729.84 3.47852 -0.931199 0
M  V30 7642 C 729.693 3.77575 -2.44453 0
M  V30 7643 C 731.012 4.37832 -0.446229 0
M  V30 7644 H 728.131 0.704827 -0.21538 0
M  V30 7645 H 730.773 1.4933 -1.17475 0
M  V30 7646 H 728.923 3.86085 -0.432539 0
M  V30 7647 H 730.595 3.49059 -3.01588 0
M  V30 7648 H 728.838 3.23671 -2.88825 0
M  V30 7649 H 729.509 4.85068 -2.63464 0
M  V30 7650 H 731.985 4.06822 -0.873778 0
M  V30 7651 H 730.861 5.44228 -0.714648 0
M  V30 7652 H 731.122 4.37239 0.653815 0
M  V30 7653 N 730.181 0.707592 1.40822 0
M  V30 7654 C 731.411 0.252706 2.05049 0
M  V30 7655 C 731.819 -1.10758 1.53393 0
M  V30 7656 O 731.162 -1.70567 0.682097 0
M  V30 7657 C 731.224 0.146001 3.59203 0
M  V30 7658 C 730.888 1.44027 4.33711 0
M  V30 7659 C 731.885 2.38058 4.62195 0
M  V30 7660 C 729.57 1.69698 4.72766 0
M  V30 7661 C 731.564 3.56013 5.28709 0
M  V30 7662 C 729.251 2.87936 5.39014 0
M  V30 7663 C 730.249 3.80915 5.66915 0
M  V30 7664 O 729.937 4.9708 6.31796 0
M  V30 7665 H 729.669 0.112784 0.666525 0
M  V30 7666 H 732.223 0.96417 1.81364 0
M  V30 7667 H 730.453 -0.621338 3.81676 0
M  V30 7668 H 732.142 -0.273275 4.04979 0
M  V30 7669 H 732.908 2.19487 4.32493 0
M  V30 7670 H 728.787 0.981835 4.50423 0
M  V30 7671 H 732.331 4.28604 5.50404 0
M  V30 7672 H 728.228 3.06419 5.68135 0
M  V30 7673 H 728.996 4.97053 6.50293 0
M  V30 7674 N 731.66 -1.50943 0.453197 0
M  V30 7675 C 732.937 -1.94872 -0.168633 0
M  V30 7676 C 733.317 -1.39272 -1.5864 0
M  V30 7677 O 732.665 -0.586272 -2.20851 0
M  V30 7678 C 732.875 -3.48757 -0.130217 0
M  V30 7679 C 734.223 -4.23331 -0.327975 0
M  V30 7680 O 735.247 -3.55594 -0.207619 0
M  V30 7681 O 734.106 -5.43529 -0.569077 0
M  V30 7682 H 731.2 -0.818042 -0.121394 0
M  V30 7683 H 733.746 -1.61782 0.512316 0
M  V30 7684 H 732.518 -3.81725 0.860346 0
M  V30 7685 H 732.141 -3.88333 -0.853397 0
M  V30 7686 N 733.138 -0.185124 -1.56509 0
M  V30 7687 C 734.068 0.735098 -2.21627 0
M  V30 7688 C 735.049 1.2288 -1.1762 0
M  V30 7689 O 736.234 1.27945 -1.46095 0
M  V30 7690 C 733.364 1.95889 -2.86783 0
M  V30 7691 C 732.318 1.6005 -3.96948 0
M  V30 7692 C 731.644 2.90009 -4.4922 0
M  V30 7693 C 732.944 0.818008 -5.15855 0
M  V30 7694 H 734.638 0.192274 -2.98782 0
M  V30 7695 H 732.184 0.0910393 -1.43712 0
M  V30 7696 H 734.137 2.60779 -3.31017 0
M  V30 7697 H 732.861 2.52608 -2.07018 0
M  V30 7698 H 731.52 0.975237 -3.5339 0
M  V30 7699 H 731.168 3.44797 -3.6623 0
M  V30 7700 H 730.868 2.66778 -5.23549 0
M  V30 7701 H 732.392 3.55904 -4.9615 0
M  V30 7702 H 733.806 1.36979 -5.56695 0
M  V30 7703 H 732.203 0.684207 -5.96187 0
M  V30 7704 H 733.273 -0.182939 -4.84555 0
M  V30 7705 N 734.616 1.57351 0.0885366 0
M  V30 7706 C 735.546 2.05561 1.10757 0
M  V30 7707 C 736.527 0.945789 1.41382 0
M  V30 7708 O 737.712 1.21747 1.51299 0
M  V30 7709 C 734.842 2.48554 2.42566 0
M  V30 7710 C 733.796 3.63259 2.26334 0
M  V30 7711 C 733.122 3.9225 3.63378 0
M  V30 7712 C 734.422 4.93913 1.69844 0
M  V30 7713 H 736.116 2.90946 0.706468 0
M  V30 7714 H 733.662 1.39968 0.338385 0
M  V30 7715 H 735.615 2.8089 3.14132 0
M  V30 7716 H 734.339 1.60176 2.84625 0
M  V30 7717 H 732.998 3.31179 1.57213 0
M  V30 7718 H 732.646 3.0103 4.02976 0
M  V30 7719 H 732.346 4.69478 3.53362 0
M  V30 7720 H 733.87 4.27067 4.36401 0
M  V30 7721 H 735.284 5.24588 2.31258 0
M  V30 7722 H 733.681 5.75349 1.70569 0
M  V30 7723 H 734.751 4.80409 0.65843 0
M  V30 7724 N 736.094 -0.359525 1.53444 0
M  V30 7725 C 737.004 -1.46445 1.83278 0
M  V30 7726 C 738.02 -1.5833 0.721629 0
M  V30 7727 O 739.196 -1.7411 1.01231 0
M  V30 7728 C 736.261 -2.81638 2.02191 0
M  V30 7729 C 735.322 -2.7923 3.26082 0
M  V30 7730 C 734.555 -4.07974 3.44082 0
M  V30 7731 O 734.778 -5.04447 2.66251 0
M  V30 7732 O 733.712 -4.13417 4.37458 0
M  V30 7733 H 737.538 -1.24156 2.77162 0
M  V30 7734 H 735.123 -0.550201 1.389 0
M  V30 7735 H 737.005 -3.61732 2.16167 0
M  V30 7736 H 735.68 -3.03892 1.11496 0
M  V30 7737 H 734.587 -1.97813 3.17523 0
M  V30 7738 H 735.92 -2.6193 4.16718 0
M  V30 7739 N 737.572 -1.44907 -0.619662 0
M  V30 7740 C 738.519 -1.52654 -1.73105 0
M  V30 7741 C 739.489 -0.373334 -1.6185 0
M  V30 7742 O 740.674 -0.585143 -1.81606 0
M  V30 7743 C 737.814 -1.48769 -3.11387 0
M  V30 7744 C 736.927 -2.74551 -3.33535 0
M  V30 7745 C 736.062 -2.62421 -4.61854 0
M  V30 7746 C 735.101 -3.83312 -4.77219 0
M  V30 7747 N 734.238 -3.69789 -5.96826 0
M  V30 7748 H 739.078 -2.47605 -1.65819 0
M  V30 7749 H 736.615 -1.22875 -0.808719 0
M  V30 7750 H 738.573 -1.44507 -3.91374 0
M  V30 7751 H 737.203 -0.573783 -3.1766 0
M  V30 7752 H 736.255 -2.88953 -2.47408 0
M  V30 7753 H 737.567 -3.64253 -3.40765 0
M  V30 7754 H 736.721 -2.56056 -5.50019 0
M  V30 7755 H 735.46 -1.70298 -4.57001 0
M  V30 7756 H 734.465 -3.90049 -3.87481 0
M  V30 7757 H 735.69 -4.76486 -4.83878 0
M  V30 7758 H 733.636 -2.80426 -5.93041 0
M  V30 7759 H 733.553 -4.53116 -6.05163 0
M  V30 7760 H 734.821 -3.67335 -6.87521 0
M  V30 7761 N 739.05 0.861098 -1.31996 0
M  V30 7762 C 740.298 1.61162 -1.21947 0
M  V30 7763 C 740.619 1.93751 0.220351 0
M  V30 7764 O 739.889 1.59069 1.14341 0
M  V30 7765 H 738.469 0.597485 -0.448353 0
M  V30 7766 H 741.131 1.03039 -1.65436 0
M  V30 7767 H 740.227 2.55138 -1.79752 0
M  V30 7768 N 740.528 1.15101 1.07655 0
M  V30 7769 C 741.758 0.946357 1.83651 0
M  V30 7770 C 742.166 -0.508641 1.82235 0
M  V30 7771 O 741.509 -1.36445 1.22997 0
M  V30 7772 C 741.571 1.37945 3.31981 0
M  V30 7773 C 741.235 2.85155 3.57122 0
M  V30 7774 C 742.232 3.83234 3.51323 0
M  V30 7775 C 739.917 3.2275 3.84887 0
M  V30 7776 C 741.911 5.16914 3.72932 0
M  V30 7777 C 739.598 4.56604 4.06148 0
M  V30 7778 C 740.596 5.53495 4.00165 0
M  V30 7779 O 740.284 6.84931 4.20861 0
M  V30 7780 H 740.016 0.336368 0.586372 0
M  V30 7781 H 742.57 1.53198 1.36819 0
M  V30 7782 H 740.8 0.737205 3.79608 0
M  V30 7783 H 742.489 1.14439 3.89434 0
M  V30 7784 H 743.255 3.55535 3.29878 0
M  V30 7785 H 739.134 2.47921 3.88659 0
M  V30 7786 H 742.678 5.92529 3.68178 0
M  V30 7787 H 738.575 4.84019 4.27078 0
M  V30 7788 H 739.343 6.91304 4.38226 0
M  V30 7789 N 742.006 -1.2595 0.947325 0
M  V30 7790 C 743.422 -1.45737 0.650597 0
M  V30 7791 C 743.622 -1.85189 -0.794188 0
M  V30 7792 O 742.678 -1.97738 -1.57022 0
M  V30 7793 C 743.991 -2.53505 1.61728 0
M  V30 7794 C 745.539 -2.67351 1.62765 0
M  V30 7795 C 746.014 -3.78296 2.58179 0
M  V30 7796 N 747.505 -3.85696 2.56501 0
M  V30 7797 C 748.24 -4.71012 3.2701 0
M  V30 7798 N 747.736 -5.60669 4.06966 0
M  V30 7799 N 749.529 -4.64912 3.15932 0
M  V30 7800 H 741.68 -0.986327 1.8811 0
M  V30 7801 H 743.943 -0.494639 0.808725 0
M  V30 7802 H 743.649 -2.31357 2.6489 0
M  V30 7803 H 743.523 -3.51281 1.3741 0
M  V30 7804 H 745.91 -2.88869 0.603241 0
M  V30 7805 H 745.991 -1.69998 1.91139 0
M  V30 7806 H 745.635 -3.5753 3.60742 0
M  V30 7807 H 745.565 -4.75117 2.27093 0
M  V30 7808 H 748.056 -3.21601 1.98447 0
M  V30 7809 H 748.369 -6.22677 4.57704 0
M  V30 7810 H 746.714 -5.60402 4.11066 0
M  V30 7811 H 749.905 -3.93874 2.52945 0
M  V30 7812 H 750.078 -5.3118 3.71149 0
M  V30 7813 N 743.484 -0.715051 -1.40445 0
M  V30 7814 C 744.417 -0.0112426 -2.28197 0
M  V30 7815 C 745.395 0.768211 -1.43308 0
M  V30 7816 O 746.579 0.754961 -1.72721 0
M  V30 7817 C 743.706 0.991453 -3.23864 0
M  V30 7818 C 742.752 0.302873 -4.25423 0
M  V30 7819 S 743.585 -0.968852 -5.26663 0
M  V30 7820 C 744.741 0.0317538 -6.25892 0
M  V30 7821 H 744.974 -0.755467 -2.87541 0
M  V30 7822 H 742.507 -0.506054 -1.45871 0
M  V30 7823 H 744.465 1.56475 -3.79507 0
M  V30 7824 H 743.126 1.70838 -2.63578 0
M  V30 7825 H 742.319 1.06086 -4.92709 0
M  V30 7826 H 741.921 -0.197853 -3.73476 0
M  V30 7827 H 744.213 0.878764 -6.71777 0
M  V30 7828 H 745.156 -0.607698 -7.05488 0
M  V30 7829 H 745.564 0.39524 -5.63115 0
M  V30 7830 N 744.962 1.50701 -0.461195 0
M  V30 7831 C 745.872 2.32069 0.343661 0
M  V30 7832 C 746.888 1.42016 1.00535 0
M  V30 7833 O 748.064 1.75077 0.995498 0
M  V30 7834 C 745.129 3.16424 1.41692 0
M  V30 7835 C 744.19 4.22286 0.772869 0
M  V30 7836 C 743.423 5.02609 1.79499 0
M  V30 7837 O 743.646 4.83874 3.0203 0
M  V30 7838 O 742.58 5.86047 1.3723 0
M  V30 7839 H 746.406 3.01996 -0.321268 0
M  V30 7840 H 743.991 1.47723 -0.223235 0
M  V30 7841 H 745.873 3.68795 2.03883 0
M  V30 7842 H 744.548 2.49236 2.0655 0
M  V30 7843 H 743.455 3.73931 0.112277 0
M  V30 7844 H 744.788 4.91915 0.167399 0
M  V30 7845 N 746.441 0.193421 1.56409 0
M  V30 7846 C 747.373 -0.759944 2.16235 0
M  V30 7847 C 748.386 -1.17797 1.12373 0
M  V30 7848 O 749.575 -1.11399 1.39472 0
M  V30 7849 C 746.675 -2.03735 2.70823 0
M  V30 7850 C 745.848 -1.77939 3.9957 0
M  V30 7851 C 744.907 -2.90111 4.39001 0
M  V30 7852 O 743.933 -2.59791 5.06456 0
M  V30 7853 N 745.135 -4.18426 4.02368 0
M  V30 7854 H 747.9 -0.248348 2.98669 0
M  V30 7855 H 745.461 0.0113966 1.61896 0
M  V30 7856 H 747.453 -2.77914 2.94187 0
M  V30 7857 H 746.023 -2.46022 1.92852 0
M  V30 7858 H 745.243 -0.875491 3.84355 0
M  V30 7859 H 746.531 -1.58099 4.83614 0
M  V30 7860 H 745.929 -4.45913 3.48106 0
M  V30 7861 H 744.486 -4.89237 4.30686 0
M  V30 7862 N 747.919 -1.57396 -0.0801906 0
M  V30 7863 C 749.33 -1.75642 -0.633002 0
M  V30 7864 C 749.681 -0.817708 -1.78348 0
M  V30 7865 O 748.806 0.000233743 -2.164 0
M  V30 7866 C 749.401 -3.18502 -1.15507 0
M  V30 7867 C 747.96 -3.38121 -1.65381 0
M  V30 7868 C 747.107 -2.71386 -0.569661 0
M  V30 7869 H 750.058 -1.58027 0.145949 0
M  V30 7870 H 750.079 -3.22198 -2.02408 0
M  V30 7871 H 749.591 -3.86799 -0.317515 0
M  V30 7872 H 747.692 -2.74926 -2.51488 0
M  V30 7873 H 747.805 -4.46521 -1.73654 0
M  V30 7874 H 746.169 -2.33702 -1.0127 0
M  V30 7875 H 746.952 -3.42332 0.257561 0
M  V30 7876 N 749.397 0.351382 -1.53633 0
M  V30 7877 C 750.307 1.45471 -1.84052 0
M  V30 7878 C 751.323 1.57945 -0.730015 0
M  V30 7879 O 752.499 1.73571 -1.02153 0
M  V30 7880 C 749.564 2.80562 -2.03681 0
M  V30 7881 C 748.625 2.77497 -3.27558 0
M  V30 7882 C 747.858 4.06144 -3.46241 0
M  V30 7883 O 748.081 5.03028 -2.68922 0
M  V30 7884 O 747.015 4.11092 -4.39645 0
M  V30 7885 H 750.841 1.22684 -2.77817 0
M  V30 7886 H 748.426 0.542827 -1.3919 0
M  V30 7887 H 750.308 3.6058 -2.18082 0
M  V30 7888 H 748.983 3.03296 -1.13106 0
M  V30 7889 H 747.89 1.96126 -3.18568 0
M  V30 7890 H 749.223 2.59716 -4.18101 0
M  V30 7891 N 750.875 1.45233 0.611969 0
M  V30 7892 C 752.123 1.48727 1.36838 0
M  V30 7893 C 752.444 0.128616 1.94575 0
M  V30 7894 O 751.714 -0.84149 1.76906 0
M  V30 7895 H 750.294 0.547695 0.507976 0
M  V30 7896 H 752.956 1.81156 0.718925 0
M  V30 7897 H 752.052 2.2236 2.19003 0
M  V30 7898 N 752.353 -0.854086 1.3245 0
M  V30 7899 C 753.593 -1.62216 1.2436 0
M  V30 7900 C 753.957 -1.91042 -0.191564 0
M  V30 7901 O 755.158 -2.65864 -0.396211 0
M  V30 7902 C 753.429 -2.9066 2.0797 0
M  V30 7903 S 754.988 -3.81438 2.16911 0
M  V30 7904 H 751.806 -0.556386 0.442669 0
M  V30 7905 H 754.408 -1.01139 1.67305 0
M  V30 7906 H 753.112 -2.6743 3.11302 0
M  V30 7907 H 752.643 -3.56753 1.65805 0
M  V30 7908 H 754.658 -4.78347 1.31903 0
M  V30 7909 N 753.831 -1.1567 -1.07043 0
M  V30 7910 C 755.242 -0.942408 -1.61169 0
M  V30 7911 C 755.593 0.515537 -1.89306 0
M  V30 7912 O 754.718 1.38726 -1.66084 0
M  V30 7913 C 755.313 -1.70431 -2.92812 0
M  V30 7914 C 753.872 -1.53521 -3.43669 0
M  V30 7915 C 753.019 -1.7179 -2.17678 0
M  V30 7916 H 755.97 -1.3065 -0.9009 0
M  V30 7917 H 755.991 -1.17566 -3.61882 0
M  V30 7918 H 755.503 -2.76538 -2.72302 0
M  V30 7919 H 753.604 -0.498224 -3.69254 0
M  V30 7920 H 753.717 -2.31422 -4.19501 0
M  V30 7921 H 752.081 -1.14468 -2.27529 0
M  V30 7922 H 752.864 -2.79269 -1.99659 0
M  V30 7923 N 755.309 1.25446 -0.953992 0
M  V30 7924 C 756.72 1.75047 -0.649255 0
M  V30 7925 C 757.071 1.77527 0.835385 0
M  V30 7926 O 756.196 1.39569 1.65377 0
M  V30 7927 C 756.791 3.17889 -1.17183 0
M  V30 7928 C 755.35 3.65052 -0.917267 0
M  V30 7929 C 754.497 2.44124 -1.31525 0
M  V30 7930 H 757.448 1.11342 -1.13087 0
M  V30 7931 H 757.469 3.76768 -0.531616 0
M  V30 7932 H 756.981 3.16052 -2.25239 0
M  V30 7933 H 755.082 3.72305 0.148354 0
M  V30 7934 H 755.195 4.53222 -1.55328 0
M  V30 7935 H 753.559 2.43906 -0.733624 0
M  V30 7936 H 754.342 2.44979 -2.405 0
M  V30 7937 N 756.787 0.722489 1.40064 0
M  V30 7938 C 757.734 0.0743738 2.3068 0
M  V30 7939 C 758.704 -0.743004 1.48555 0
M  V30 7940 O 759.889 -0.705536 1.77276 0
M  V30 7941 C 757.029 -0.836292 3.34814 0
M  V30 7942 C 756.142 -0.00764663 4.31999 0
M  V30 7943 C 755.277 -0.918428 5.232 0
M  V30 7944 C 754.316 -0.0842838 6.12042 0
M  V30 7945 N 753.453 -0.950316 6.95639 0
M  V30 7946 H 758.293 0.852794 2.85537 0
M  V30 7947 H 755.83 0.432222 1.40607 0
M  V30 7948 H 757.788 -1.3786 3.93765 0
M  V30 7949 H 756.418 -1.58082 2.81443 0
M  V30 7950 H 755.47 0.651928 3.74772 0
M  V30 7951 H 756.782 0.63786 4.94705 0
M  V30 7952 H 755.936 -1.52902 5.87116 0
M  V30 7953 H 754.675 -1.59774 4.60786 0
M  V30 7954 H 753.68 0.5392 5.4715 0
M  V30 7955 H 754.905 0.591628 6.76518 0
M  V30 7956 H 752.851 -1.61515 6.35806 0
M  V30 7957 H 752.768 -0.361004 7.55138 0
M  V30 7958 H 754.036 -1.54687 7.63997 0
M  V30 7959 N 758.265 -1.50454 0.469181 0
M  V30 7960 C 759.511 -2.02615 -0.0865971 0
M  V30 7961 C 759.844 -1.35062 -1.39542 0
M  V30 7962 O 759.119 -0.475701 -1.88593 0
M  V30 7963 C 759.402 -3.59068 -0.272385 0
M  V30 7964 C 759.255 -4.37196 1.05733 0
M  V30 7965 C 760.574 -4.2793 -1.0278 0
M  V30 7966 H 757.693 -0.736389 -0.0299977 0
M  V30 7967 H 760.335 -1.79792 0.614399 0
M  V30 7968 H 758.485 -3.78646 -0.869471 0
M  V30 7969 H 760.157 -4.29195 1.69084 0
M  V30 7970 H 758.4 -4.01013 1.65442 0
M  V30 7971 H 759.071 -5.44924 0.880997 0
M  V30 7972 H 761.547 -4.12816 -0.521718 0
M  V30 7973 H 760.423 -5.37214 -1.12659 0
M  V30 7974 H 760.684 -3.90968 -2.0639 0
M  V30 7975 N 759.743 -0.201713 -1.56304 0
M  V30 7976 C 760.973 0.440084 -2.01858 0
M  V30 7977 C 761.381 1.55279 -1.08098 0
M  V30 7978 O 760.724 1.83529 -0.0792216 0
M  V30 7979 C 760.786 1.05091 -3.43797 0
M  V30 7980 C 760.45 0.0761208 -4.56937 0
M  V30 7981 C 761.447 -0.716951 -5.14933 0
M  V30 7982 C 759.132 -0.0368815 -5.02286 0
M  V30 7983 C 761.126 -1.60993 -6.16733 0
M  V30 7984 C 758.813 -0.933409 -6.03929 0
M  V30 7985 C 759.811 -1.71849 -6.61027 0
M  V30 7986 O 759.499 -2.59998 -7.60695 0
M  V30 7987 H 759.231 0.114139 -0.666294 0
M  V30 7988 H 761.785 -0.309672 -2.03052 0
M  V30 7989 H 760.015 1.84938 -3.3961 0
M  V30 7990 H 761.704 1.59804 -3.73118 0
M  V30 7991 H 762.47 -0.63999 -4.80759 0
M  V30 7992 H 758.349 0.564034 -4.57537 0
M  V30 7993 H 761.893 -2.22315 -6.61227 0
M  V30 7994 H 757.79 -1.01146 -6.37526 0
M  V30 7995 H 758.558 -2.53851 -7.7814 0
M  V30 7996 N 761.222 1.57436 0.0718424 0
M  V30 7997 C 762.132 2.07039 1.10326 0
M  V30 7998 C 763.148 0.999918 1.424 0
M  V30 7999 O 764.324 1.31462 1.52577 0
M  V30 8000 C 761.389 2.50439 2.39752 0
M  V30 8001 C 760.45 3.71784 2.14651 0
M  V30 8002 C 759.683 4.13104 3.37906 0
M  V30 8003 O 759.906 3.54298 4.47023 0
M  V30 8004 O 758.84 5.05894 3.26121 0
M  V30 8005 H 762.666 2.95239 0.711872 0
M  V30 8006 H 760.251 1.46638 0.28597 0
M  V30 8007 H 762.133 2.78876 3.15921 0
M  V30 8008 H 760.808 1.65368 2.78271 0
M  V30 8009 H 759.715 3.48431 1.36187 0
M  V30 8010 H 761.048 4.57707 1.81012 0
M  V30 8011 N 762.7 -0.34323 1.53817 0
M  V30 8012 C 763.63 -1.42709 1.84814 0
M  V30 8013 C 764.611 -1.5488 0.703297 0
M  V30 8014 O 765.796 -1.69082 0.955237 0
M  V30 8015 C 762.926 -2.79756 2.05801 0
M  V30 8016 C 761.88 -2.82392 3.21619 0
M  V30 8017 C 761.206 -4.22326 3.2794 0
M  V30 8018 C 762.506 -2.479 4.59721 0
M  V30 8019 H 764.2 -1.17018 2.75585 0
M  V30 8020 H 761.746 -0.561485 1.32602 0
M  V30 8021 H 763.699 -3.55627 2.26069 0
M  V30 8022 H 762.423 -3.06883 1.11761 0
M  V30 8023 H 761.082 -2.08974 3.01207 0
M  V30 8024 H 760.73 -4.46564 2.31494 0
M  V30 8025 H 760.43 -4.25001 4.05768 0
M  V30 8026 H 761.954 -5.00039 3.50419 0
M  V30 8027 H 763.368 -3.13484 4.80001 0
M  V30 8028 H 761.765 -2.61857 5.39954 0
M  V30 8029 H 762.835 -1.43087 4.63308 0
M  V30 8030 N 764.178 -1.45556 -0.604258 0
M  V30 8031 C 765.111 -1.48975 -1.72863 0
M  V30 8032 C 766.089 -0.345803 -1.5888 0
M  V30 8033 O 767.273 -0.546796 -1.80395 0
M  V30 8034 C 764.4 -1.34794 -3.10722 0
M  V30 8035 C 763.446 -2.53096 -3.43285 0
M  V30 8036 S 764.279 -4.15551 -3.37754 0
M  V30 8037 C 765.435 -4.03842 -4.78187 0
M  V30 8038 H 765.668 -2.44108 -1.69701 0
M  V30 8039 H 763.201 -1.33179 -0.781194 0
M  V30 8040 H 765.159 -1.273 -3.90263 0
M  V30 8041 H 763.82 -0.411254 -3.11396 0
M  V30 8042 H 763.013 -2.39109 -4.4367 0
M  V30 8043 H 762.615 -2.57469 -2.71267 0
M  V30 8044 H 764.907 -3.69191 -5.6807 0
M  V30 8045 H 765.85 -5.0415 -4.97231 0
M  V30 8046 H 766.258 -3.35443 -4.54025 0
M  V30 8047 N 765.656 0.84705 -1.32902 0
M  V30 8048 C 767.072 1.13645 -1.12058 0
M  V30 8049 C 767.272 2.01281 0.093937 0
M  V30 8050 O 766.328 2.4026 0.776608 0
M  V30 8051 C 767.641 1.80644 -2.40392 0
M  V30 8052 C 769.189 1.93246 -2.46221 0
M  V30 8053 C 769.664 2.6366 -3.74496 0
M  V30 8054 N 771.155 2.71179 -3.75521 0
M  V30 8055 C 771.89 3.26332 -4.71482 0
M  V30 8056 N 771.386 3.82236 -5.77813 0
M  V30 8057 N 773.179 3.24507 -4.58968 0
M  V30 8058 H 765.33 0.263612 -2.10758 0
M  V30 8059 H 767.593 0.17944 -0.930863 0
M  V30 8060 H 767.299 1.23708 -3.29225 0
M  V30 8061 H 767.173 2.80736 -2.51926 0
M  V30 8062 H 769.56 2.49338 -1.57843 0
M  V30 8063 H 769.641 0.921272 -2.38634 0
M  V30 8064 H 769.285 2.08229 -4.63253 0
M  V30 8065 H 769.215 3.65234 -3.79357 0
M  V30 8066 H 771.706 2.31527 -2.9867 0
M  V30 8067 H 772.019 4.22499 -6.47082 0
M  V30 8068 H 770.364 3.80546 -5.81558 0
M  V30 8069 H 773.555 2.80085 -3.7506 0
M  V30 8070 H 773.728 3.67188 -5.33926 0
M  V30 8071 N 767.134 1.16236 1.06428 0
M  V30 8072 C 768.097 0.870163 2.1204 0
M  V30 8073 C 769.097 -0.134239 1.60239 0
M  V30 8074 O 770.287 0.0964932 1.73933 0
M  V30 8075 C 767.419 0.301033 3.39568 0
M  V30 8076 H 768.612 1.8064 2.39394 0
M  V30 8077 H 766.165 0.971116 1.2247 0
M  V30 8078 H 766.9 -0.642948 3.17863 0
M  V30 8079 H 766.685 1.02475 3.78472 0
M  V30 8080 H 768.175 0.114494 4.17443 0
M  V30 8081 N 768.612 -1.24939 0.960631 0
M  V30 8082 C 769.852 -1.94565 0.626414 0
M  V30 8083 C 770.216 -1.73505 -0.822184 0
M  V30 8084 O 771.417 -2.37105 -1.26628 0
M  V30 8085 C 769.688 -3.43631 0.982462 0
M  V30 8086 S 771.247 -4.32138 0.761726 0
M  V30 8087 H 768.065 -0.672757 0.230043 0
M  V30 8088 H 770.667 -1.51464 1.23608 0
M  V30 8089 H 769.371 -3.56463 2.03377 0
M  V30 8090 H 768.902 -3.91719 0.363286 0
M  V30 8091 H 770.917 -4.94859 -0.364493 0
M  V30 8092 N 770.09 -0.729906 -1.39679 0
M  V30 8093 C 771.336 -0.284905 -2.01395 0
M  V30 8094 C 771.691 1.11394 -1.56873 0
M  V30 8095 O 770.984 1.74765 -0.785342 0
M  V30 8096 C 771.178 -0.319564 -3.55968 0
M  V30 8097 C 771.007 -1.72024 -4.15497 0
M  V30 8098 C 769.777 -2.33128 -4.48307 0
M  V30 8099 C 771.975 -2.67296 -4.39383 0
M  V30 8100 N 769.957 -3.65403 -4.93309 0
M  V30 8101 C 771.328 -3.84298 -4.86534 0
M  V30 8102 C 773.383 -2.65124 -4.21442 0
M  V30 8103 C 772.086 -4.99455 -5.17627 0
M  V30 8104 C 774.112 -3.7942 -4.53646 0
M  V30 8105 C 773.474 -4.95156 -5.00999 0
M  V30 8106 H 769.573 -0.1504 -0.767401 0
M  V30 8107 H 772.157 -0.954783 -1.69682 0
M  V30 8108 H 770.328 0.319938 -3.8708 0
M  V30 8109 H 772.06 0.143504 -4.04445 0
M  V30 8110 H 768.815 -1.85097 -4.35931 0
M  V30 8111 H 769.239 -4.33298 -5.20175 0
M  V30 8112 H 773.881 -1.76842 -3.8404 0
M  V30 8113 H 771.599 -5.88371 -5.53937 0
M  V30 8114 H 775.185 -3.79031 -4.41392 0
M  V30 8115 H 774.065 -5.82131 -5.25446 0
M  V30 8116 N 771.568 1.50203 -0.477153 0
M  V30 8117 C 772.515 2.28656 0.31386 0
M  V30 8118 C 773.485 1.33977 0.981802 0
M  V30 8119 O 774.67 1.62919 0.993072 0
M  V30 8120 C 771.81 3.16027 1.38639 0
M  V30 8121 C 770.923 4.25743 0.732615 0
M  V30 8122 C 770.058 5.00363 1.78355 0
M  V30 8123 C 769.097 6.01945 1.11035 0
M  V30 8124 N 768.234 6.6982 2.10441 0
M  V30 8125 H 773.074 2.958 -0.361445 0
M  V30 8126 H 770.611 1.45867 -0.190093 0
M  V30 8127 H 772.569 3.6504 2.01994 0
M  V30 8128 H 771.199 2.50917 2.03077 0
M  V30 8129 H 770.251 3.80398 -0.0136546 0
M  V30 8130 H 771.563 4.98393 0.201513 0
M  V30 8131 H 770.717 5.53124 2.49276 0
M  V30 8132 H 769.456 4.27432 2.34847 0
M  V30 8133 H 768.461 5.48438 0.386797 0
M  V30 8134 H 769.686 6.76851 0.552248 0
M  V30 8135 H 767.632 5.99677 2.65939 0
M  V30 8136 H 767.549 7.38366 1.62332 0
M  V30 8137 H 768.817 7.27196 2.80724 0
M  V30 8138 N 773.046 0.209999 1.56195 0
M  V30 8139 C 774.292 -0.418742 1.99043 0
M  V30 8140 C 774.647 -1.58201 1.095 0
M  V30 8141 O 773.94 -1.91069 0.1425 0
M  V30 8142 C 774.134 -0.91312 3.45539 0
M  V30 8143 C 773.963 0.200706 4.49252 0
M  V30 8144 C 772.733 0.663287 5.00928 0
M  V30 8145 C 774.931 1.01493 5.04186 0
M  V30 8146 N 772.913 1.75338 5.88328 0
M  V30 8147 C 774.284 1.95411 5.884 0
M  V30 8148 C 776.339 1.05567 4.8658 0
M  V30 8149 C 775.042 2.93069 6.56889 0
M  V30 8150 C 777.068 2.02037 5.55819 0
M  V30 8151 C 776.43 2.94697 6.39791 0
M  V30 8152 H 772.529 -0.120226 0.772703 0
M  V30 8153 H 775.113 0.319119 1.92067 0
M  V30 8154 H 773.284 -1.62038 3.52985 0
M  V30 8155 H 775.016 -1.51371 3.75325 0
M  V30 8156 H 771.771 0.253945 4.72919 0
M  V30 8157 H 772.195 2.30007 6.3673 0
M  V30 8158 H 776.837 0.353242 4.21322 0
M  V30 8159 H 774.555 3.6428 7.21336 0
M  V30 8160 H 778.141 2.05849 5.44167 0
M  V30 8161 H 777.021 3.68128 6.92425 0
M  V30 8162 N 774.524 -1.57472 -0.0634922 0
M  V30 8163 C 775.749 -1.92273 -0.77756 0
M  V30 8164 C 776.174 -0.807141 -1.69902 0
M  V30 8165 O 775.532 0.239523 -1.79711 0
M  V30 8166 C 775.58 -3.26054 -1.54017 0
M  V30 8167 O 774.684 -3.15873 -2.65138 0
M  V30 8168 H 774.025 -0.629389 -0.211579 0
M  V30 8169 H 776.555 -2.04579 -0.0292523 0
M  V30 8170 H 776.565 -3.60127 -1.91763 0
M  V30 8171 H 775.24 -4.06824 -0.864128 0
M  V30 8172 H 773.817 -2.93373 -2.30189 0
M  V30 8173 N 776.003 0.335068 -1.53997 0
M  V30 8174 C 777.414 0.910191 -1.6301 0
M  V30 8175 C 777.765 1.89271 -0.516809 0
M  V30 8176 O 776.89 2.13516 0.352123 0
M  V30 8177 C 777.485 1.65761 -2.9548 0
M  V30 8178 C 776.044 2.18163 -3.06728 0
M  V30 8179 C 775.191 1.00338 -2.5851 0
M  V30 8180 H 778.142 0.112965 -1.58297 0
M  V30 8181 H 778.163 2.52107 -2.84995 0
M  V30 8182 H 777.675 0.94227 -3.76488 0
M  V30 8183 H 775.776 2.92847 -2.30372 0
M  V30 8184 H 775.889 2.43952 -4.1234 0
M  V30 8185 H 774.253 1.37925 -2.14124 0
M  V30 8186 H 775.036 0.30254 -3.41964 0
M  V30 8187 N 777.481 1.45874 0.596531 0
M  V30 8188 C 778.444 1.54988 1.68853 0
M  V30 8189 C 779.444 0.428302 1.54991 0
M  V30 8190 O 780.634 0.692158 1.59859 0
M  V30 8191 C 777.766 1.457 3.08195 0
M  V30 8192 H 778.959 2.52294 1.62135 0
M  V30 8193 H 776.512 1.33479 0.813206 0
M  V30 8194 H 777.247 0.496204 3.20481 0
M  V30 8195 H 777.032 2.27061 3.19665 0
M  V30 8196 H 778.522 1.55133 3.87716 0
M  V30 8197 N 778.959 -0.83999 1.33349 0
M  V30 8198 C 780.236 -1.57973 1.15342 0
M  V30 8199 C 780.616 -2.09226 -0.280632 0
M  V30 8200 O 779.964 -1.89317 -1.2795 0
M  V30 8201 C 780.174 -2.71446 2.19359 0
M  V30 8202 C 781.522 -3.40654 2.53456 0
M  V30 8203 O 782.546 -2.81686 2.18017 0
M  V30 8204 O 781.405 -4.47101 3.14266 0
M  V30 8205 H 778.499 -0.6964 0.446044 0
M  V30 8206 H 781.045 -0.882843 1.44927 0
M  V30 8207 H 779.817 -2.31205 3.1569 0
M  V30 8208 H 779.44 -3.488 1.90852 0
M  V30 8209 N 780.437 -1.16799 -1.0581 0
M  V30 8210 C 781.853 -0.913935 -1.30841 0
M  V30 8211 C 782.053 0.430439 -1.96849 0
M  V30 8212 O 781.109 1.16885 -2.23817 0
M  V30 8213 C 782.422 -2.06662 -2.18429 0
M  V30 8214 C 783.97 -2.10294 -2.31831 0
M  V30 8215 C 784.445 -3.2493 -3.22776 0
M  V30 8216 N 785.936 -3.24678 -3.30361 0
M  V30 8217 C 786.671 -4.10021 -4.00837 0
M  V30 8218 N 786.167 -5.05461 -4.73795 0
M  V30 8219 N 787.96 -3.97991 -3.96937 0
M  V30 8220 H 780.111 -2.03343 -0.613613 0
M  V30 8221 H 782.374 -0.88754 -0.333133 0
M  V30 8222 H 782.08 -3.03791 -1.77211 0
M  V30 8223 H 781.954 -2.01233 -3.19038 0
M  V30 8224 H 784.341 -1.13754 -2.72294 0
M  V30 8225 H 784.422 -2.19786 -1.30873 0
M  V30 8226 H 784.066 -4.21731 -2.83028 0
M  V30 8227 H 783.996 -3.12674 -4.23725 0
M  V30 8228 H 786.487 -2.55573 -2.78372 0
M  V30 8229 H 786.8 -5.66989 -5.25113 0
M  V30 8230 H 785.145 -5.09436 -4.72758 0
M  V30 8231 H 788.336 -3.2273 -3.39062 0
M  V30 8232 H 788.509 -4.64722 -4.51594 0
M  V30 8233 N 781.915 1.24427 -0.967243 0
M  V30 8234 C 783.326 1.74349 -0.667785 0
M  V30 8235 C 783.677 1.78403 0.816509 0
M  V30 8236 O 782.802 1.41315 1.63887 0
M  V30 8237 C 783.397 3.16628 -1.20548 0
M  V30 8238 C 781.956 3.64059 -0.955934 0
M  V30 8239 C 781.103 2.42715 -1.34106 0
M  V30 8240 H 784.054 1.10136 -1.14262 0
M  V30 8241 H 784.075 3.76183 -0.571547 0
M  V30 8242 H 783.587 3.13646 -2.28578 0
M  V30 8243 H 781.688 3.72441 0.108858 0
M  V30 8244 H 781.801 4.51549 -1.60126 0
M  V30 8245 H 780.165 2.43114 -0.759452 0
M  V30 8246 H 780.948 2.42414 -2.43085 0
M  V30 8247 N 783.393 0.737304 1.3929 0
M  V30 8248 C 784.618 0.295237 2.05288 0
M  V30 8249 C 785.043 -1.06235 1.55228 0
M  V30 8250 O 784.401 -1.67365 0.697043 0
M  V30 8251 C 784.449 0.309146 3.59272 0
M  V30 8252 O 783.553 -0.702437 4.06374 0
M  V30 8253 H 782.894 0.133762 0.650387 0
M  V30 8254 H 785.424 1.00387 1.78279 0
M  V30 8255 H 785.434 0.154336 4.07708 0
M  V30 8256 H 784.109 1.29974 3.95069 0
M  V30 8257 H 782.686 -0.513574 3.69346 0
M  V30 8258 N 784.871 -1.49948 0.485112 0
M  V30 8259 C 786.118 -2.02396 -0.0650059 0
M  V30 8260 C 786.446 -1.36606 -1.38452 0
M  V30 8261 O 785.701 -0.485476 -1.89583 0
M  V30 8262 C 786 -3.56282 -0.282434 0
M  V30 8263 C 785.666 -4.40625 0.957106 0
M  V30 8264 C 784.328 -4.63393 1.29692 0
M  V30 8265 C 786.68 -4.89799 1.78176 0
M  V30 8266 C 784.008 -5.3258 2.4612 0
M  V30 8267 C 786.36 -5.60266 2.93743 0
M  V30 8268 C 785.024 -5.81284 3.28124 0
M  V30 8269 H 784.294 -0.740618 -0.0237873 0
M  V30 8270 H 786.941 -1.80416 0.642044 0
M  V30 8271 H 785.246 -3.76853 -1.07186 0
M  V30 8272 H 786.943 -3.94442 -0.722276 0
M  V30 8273 H 783.533 -4.23133 0.682384 0
M  V30 8274 H 787.717 -4.7205 1.53239 0
M  V30 8275 H 782.973 -5.47059 2.73014 0
M  V30 8276 H 787.147 -5.97347 3.5798 0
M  V30 8277 H 784.774 -6.34671 4.18446 0
M  V30 8278 N 786.349 -0.21828 -1.56081 0
M  V30 8279 C 787.312 0.679633 -2.18892 0
M  V30 8280 C 788.312 1.12405 -1.14986 0
M  V30 8281 O 789.502 1.03339 -1.40238 0
M  V30 8282 C 786.634 1.93063 -2.80962 0
M  V30 8283 H 787.827 0.132066 -2.99609 0
M  V30 8284 H 785.38 0.0313374 -1.56269 0
M  V30 8285 H 786.115 2.52015 -2.04106 0
M  V30 8286 H 785.9 1.62046 -3.57048 0
M  V30 8287 H 787.39 2.57043 -3.29118 0
M  V30 8288 N 787.827 1.57504 0.0551401 0
M  V30 8289 C 788.737 2.08198 1.08124 0
M  V30 8290 C 789.753 1.01496 1.41331 0
M  V30 8291 O 790.929 1.33073 1.51174 0
M  V30 8292 C 787.994 2.52968 2.37083 0
M  V30 8293 C 787.055 3.7404 2.10696 0
M  V30 8294 C 786.288 4.16665 3.33505 0
M  V30 8295 O 786.511 3.59019 4.4324 0
M  V30 8296 O 785.445 5.09324 3.20737 0
M  V30 8297 H 789.271 2.95977 0.680518 0
M  V30 8298 H 786.856 1.46933 0.270401 0
M  V30 8299 H 788.738 2.82211 3.12946 0
M  V30 8300 H 787.413 1.6831 2.76502 0
M  V30 8301 H 786.32 3.49855 1.32484 0
M  V30 8302 H 787.653 4.59601 1.76148 0
M  V30 8303 N 789.305 -0.326896 1.54172 0
M  V30 8304 C 790.533 -1.08486 1.76177 0
M  V30 8305 C 790.948 -1.81815 0.508788 0
M  V30 8306 O 790.305 -1.74924 -0.520362 0
M  V30 8307 C 790.356 -2.08552 2.95276 0
M  V30 8308 O 790.077 -1.38202 4.15731 0
M  V30 8309 C 791.578 -2.96593 3.29466 0
M  V30 8310 H 788.798 -0.322835 0.588233 0
M  V30 8311 H 791.342 -0.374036 2.0105 0
M  V30 8312 H 789.497 -2.75174 2.72687 0
M  V30 8313 H 789.911 -2.05186 4.827 0
M  V30 8314 H 791.385 -3.62708 4.16109 0
M  V30 8315 H 791.862 -3.63511 2.46487 0
M  V30 8316 H 792.468 -2.35537 3.54122 0
M  V30 8317 N 790.784 -1.46188 -0.588786 0
M  V30 8318 C 791.734 -1.5271 -1.69303 0
M  V30 8319 C 792.718 -0.388578 -1.56137 0
M  V30 8320 O 793.91 -0.636616 -1.65155 0
M  V30 8321 C 791.039 -1.51457 -3.08084 0
M  V30 8322 C 790.125 -2.70581 -3.26568 0
M  V30 8323 N 790.516 -3.9555 -3.15236 0
M  V30 8324 C 788.814 -2.66676 -3.57491 0
M  V30 8325 C 789.515 -4.75157 -3.35561 0
M  V30 8326 N 788.491 -4.06927 -3.60432 0
M  V30 8327 H 792.293 -2.47136 -1.59063 0
M  V30 8328 H 789.807 -1.41743 -0.792632 0
M  V30 8329 H 791.804 -1.54216 -3.87328 0
M  V30 8330 H 790.464 -0.581036 -3.19459 0
M  V30 8331 H 791.475 -4.2689 -2.93232 0
M  V30 8332 H 788.152 -1.82317 -3.75588 0
M  V30 8333 H 789.542 -5.84126 -3.32034 0
M  V30 8334 N 792.262 0.832906 -1.33792 0
M  V30 8335 C 793.194 1.95042 -1.2038 0
M  V30 8336 C 794.207 1.62253 -0.133299 0
M  V30 8337 O 795.396 1.74315 -0.384261 0
M  V30 8338 C 792.496 3.287 -0.825215 0
M  V30 8339 C 791.669 3.89581 -1.98861 0
M  V30 8340 C 790.728 5.01602 -1.59003 0
M  V30 8341 O 789.754 5.20431 -2.30522 0
M  V30 8342 N 790.956 5.78356 -0.498446 0
M  V30 8343 H 793.721 2.07083 -2.16649 0
M  V30 8344 H 791.282 1.00896 -1.26616 0
M  V30 8345 H 793.274 4.01074 -0.540559 0
M  V30 8346 H 791.844 3.12565 0.0469796 0
M  V30 8347 H 791.064 3.09723 -2.43856 0
M  V30 8348 H 792.352 4.26989 -2.76691 0
M  V30 8349 H 791.75 5.65618 0.0963297 0
M  V30 8350 H 790.307 6.51226 -0.273485 0
M  V30 8351 N 793.74 1.17359 1.05189 0
M  V30 8352 C 794.703 0.892604 2.11105 0
M  V30 8353 C 795.703 -0.117236 1.60372 0
M  V30 8354 O 796.893 0.114936 1.7382 0
M  V30 8355 C 794.025 0.337032 3.3923 0
M  V30 8356 H 795.218 1.83169 2.37464 0
M  V30 8357 H 792.771 0.984051 1.21434 0
M  V30 8358 H 793.506 -0.609198 3.18527 0
M  V30 8359 H 793.291 1.06484 3.77364 0
M  V30 8360 H 794.781 0.158763 4.17298 0
M  V30 8361 N 795.218 -1.23913 0.973828 0
M  V30 8362 C 796.465 -1.92151 0.639079 0
M  V30 8363 C 796.793 -1.76064 -0.826545 0
M  V30 8364 O 796.048 -1.11126 -1.61088 0
M  V30 8365 C 796.347 -3.4406 0.967356 0
M  V30 8366 C 796.013 -3.80321 2.42212 0
M  V30 8367 C 794.675 -3.8993 2.81971 0
M  V30 8368 C 797.027 -3.97935 3.36596 0
M  V30 8369 C 794.355 -4.14575 4.15144 0
M  V30 8370 C 796.707 -4.24079 4.69404 0
M  V30 8371 C 795.371 -4.31908 5.08932 0
M  V30 8372 H 794.641 -0.70313 0.233856 0
M  V30 8373 H 797.288 -1.47072 1.22646 0
M  V30 8374 H 795.593 -3.90667 0.297807 0
M  V30 8375 H 797.29 -3.95077 0.686654 0
M  V30 8376 H 793.88 -3.73411 2.10385 0
M  V30 8377 H 798.064 -3.89908 3.07059 0
M  V30 8378 H 793.32 -4.18858 4.45385 0
M  V30 8379 H 797.494 -4.36652 5.42502 0
M  V30 8380 H 795.121 -4.50758 6.12145 0
M  V30 8381 N 796.696 -0.74468 -1.38897 0
M  V30 8382 C 797.606 -0.112892 -2.34328 0
M  V30 8383 C 798.622 0.71087 -1.58816 0
M  V30 8384 O 799.798 0.637092 -1.91058 0
M  V30 8385 C 796.863 0.776417 -3.37894 0
M  V30 8386 C 795.924 -0.0606999 -4.29257 0
M  V30 8387 C 795.157 0.786258 -5.27877 0
M  V30 8388 O 795.38 2.02463 -5.33259 0
M  V30 8389 O 794.314 0.209781 -6.01534 0
M  V30 8390 H 798.14 -0.900801 -2.90033 0
M  V30 8391 H 795.725 -0.505462 -1.4059 0
M  V30 8392 H 797.607 1.28496 -4.01331 0
M  V30 8393 H 796.282 1.54297 -2.84559 0
M  V30 8394 H 795.189 -0.614984 -3.69011 0
M  V30 8395 H 796.522 -0.789702 -4.85824 0
M  V30 8396 N 798.174 1.49689 -0.493057 0
M  V30 8397 C 799.402 2.06836 0.0513141 0
M  V30 8398 C 799.817 1.35436 1.31539 0
M  V30 8399 O 799.174 0.430248 1.77356 0
M  V30 8400 C 799.225 3.60107 0.317003 0
M  V30 8401 O 798.946 4.2882 -0.896957 0
M  V30 8402 C 800.447 4.33945 0.905902 0
M  V30 8403 H 797.667 0.670787 -0.0169048 0
M  V30 8404 H 800.211 1.92574 -0.688139 0
M  V30 8405 H 798.366 3.74099 1.00642 0
M  V30 8406 H 798.78 5.20395 -0.654939 0
M  V30 8407 H 800.254 5.42087 1.04144 0
M  V30 8408 H 800.731 3.95895 1.90168 0
M  V30 8409 H 801.337 4.2454 0.254195 0
M  V30 8410 N 799.652 0.226554 1.55963 0
M  V30 8411 C 800.585 -0.721625 2.1649 0
M  V30 8412 C 801.563 -1.18745 1.11078 0
M  V30 8413 O 802.747 -1.26929 1.3936 0
M  V30 8414 C 799.874 -1.97828 2.74921 0
M  V30 8415 C 798.92 -1.65202 3.93206 0
M  V30 8416 S 799.753 -0.772419 5.299 0
M  V30 8417 C 800.909 -2.03853 5.91773 0
M  V30 8418 H 801.142 -0.207192 2.96577 0
M  V30 8419 H 798.675 0.0111976 1.54396 0
M  V30 8420 H 800.633 -2.69982 3.09225 0
M  V30 8421 H 799.294 -2.46384 1.94817 0
M  V30 8422 H 798.487 -2.58583 4.32609 0
M  V30 8423 H 798.089 -1.01108 3.60074 0
M  V30 8424 H 800.381 -2.98799 6.08051 0
M  V30 8425 H 801.324 -1.68831 6.87678 0
M  V30 8426 H 801.732 -2.18134 5.20651 0
M  V30 8427 N 801.13 -1.57531 -0.0467866 0
M  V30 8428 C 802.377 -1.88451 -0.74112 0
M  V30 8429 C 802.705 -0.821592 -1.76296 0
M  V30 8430 O 801.96 0.179585 -1.94874 0
M  V30 8431 C 802.259 -3.26091 -1.46285 0
M  V30 8432 C 801.925 -4.47171 -0.578669 0
M  V30 8433 C 800.587 -4.80032 -0.335083 0
M  V30 8434 C 802.939 -5.2119 0.0328809 0
M  V30 8435 C 800.267 -5.84309 0.529121 0
M  V30 8436 C 802.619 -6.26383 0.884684 0
M  V30 8437 C 801.283 -6.57729 1.1379 0
M  V30 8438 H 800.553 -0.68959 -0.271195 0
M  V30 8439 H 803.2 -1.915 -0.00132378 0
M  V30 8440 H 801.505 -3.18948 -2.27551 0
M  V30 8441 H 803.202 -3.47258 -2.00532 0
M  V30 8442 H 799.792 -4.21467 -0.778666 0
M  V30 8443 H 803.976 -4.96096 -0.142375 0
M  V30 8444 H 799.232 -6.06981 0.733794 0
M  V30 8445 H 803.406 -6.82888 1.36516 0
M  V30 8446 H 801.033 -7.38355 1.80929 0
M  V30 8447 N 802.608 0.318715 -1.54344 0
M  V30 8448 C 803.558 1.39364 -1.80448 0
M  V30 8449 C 804.542 1.46708 -0.660728 0
M  V30 8450 O 805.734 1.51159 -0.920869 0
M  V30 8451 C 802.863 2.76144 -2.03959 0
M  V30 8452 C 801.949 2.73094 -3.24469 0
M  V30 8453 N 802.34 2.39663 -4.45416 0
M  V30 8454 C 800.638 3.04218 -3.2614 0
M  V30 8455 C 801.339 2.45469 -5.27371 0
M  V30 8456 N 800.315 2.82107 -4.64668 0
M  V30 8457 H 804.117 1.12453 -2.71535 0
M  V30 8458 H 801.631 0.527221 -1.53604 0
M  V30 8459 H 803.628 3.53627 -2.20802 0
M  V30 8460 H 802.288 3.03982 -1.14129 0
M  V30 8461 H 803.299 2.12424 -4.72331 0
M  V30 8462 H 799.976 3.37066 -2.4636 0
M  V30 8463 H 801.366 2.22571 -6.33965 0
M  V30 8464 N 804.086 1.46499 0.581025 0
M  V30 8465 C 805.363 1.42372 1.34125 0
M  V30 8466 C 805.743 0.108073 2.10823 0
M  V30 8467 O 805.091 -0.910366 2.09582 0
M  V30 8468 C 805.301 2.65445 2.26583 0
M  V30 8469 C 806.649 3.11664 2.88359 0
M  V30 8470 O 807.673 2.66006 2.36896 0
M  V30 8471 O 806.532 3.90974 3.81839 0
M  V30 8472 H 803.626 0.566262 0.602724 0
M  V30 8473 H 806.172 1.58667 0.601903 0
M  V30 8474 H 804.944 3.52756 1.69348 0
M  V30 8475 H 804.567 2.51618 3.07854 0
M  V30 8476 N 805.565 -0.825799 1.34232 0
M  V30 8477 C 806.79 -1.61883 1.29648 0
M  V30 8478 C 807.215 -1.87669 -0.127295 0
M  V30 8479 O 806.573 -1.45016 -1.08813 0
M  V30 8480 C 806.621 -2.93846 2.09014 0
M  V30 8481 O 805.725 -3.85778 1.4577 0
M  V30 8482 H 805.066 -0.492454 0.445405 0
M  V30 8483 H 807.596 -1.02641 1.76992 0
M  V30 8484 H 807.606 -3.43435 2.20264 0
M  V30 8485 H 806.281 -2.74401 3.12533 0
M  V30 8486 H 804.858 -3.4429 1.43245 0
M  V30 8487 N 807.043 -1.17915 -1.04565 0
M  V30 8488 C 808.268 -0.996749 -1.81878 0
M  V30 8489 C 808.693 0.450169 -1.82634 0
M  V30 8490 O 808.051 1.32268 -1.23995 0
M  V30 8491 C 808.099 -1.55005 -3.25585 0
M  V30 8492 O 807.203 -0.76804 -4.05185 0
M  V30 8493 H 806.544 -0.353456 -0.562108 0
M  V30 8494 H 809.074 -1.56557 -1.31723 0
M  V30 8495 H 809.084 -1.57503 -3.76373 0
M  V30 8496 H 807.759 -2.60327 -3.2435 0
M  V30 8497 H 806.336 -0.81498 -3.63885 0
M  V30 8498 N 808.521 1.23394 -0.980386 0
M  V30 8499 C 809.77 1.91116 -0.644785 0
M  V30 8500 C 810.083 1.77333 0.825367 0
M  V30 8501 O 811.289 2.39858 1.27203 0
M  V30 8502 C 809.745 3.42592 -1.10266 0
M  V30 8503 C 809.353 3.65037 -2.59715 0
M  V30 8504 C 811.097 4.1609 -0.8408 0
M  V30 8505 C 809.004 5.10148 -2.9917 0
M  V30 8506 H 807.934 0.715632 -0.23746 0
M  V30 8507 H 810.585 1.39829 -1.18828 0
M  V30 8508 H 808.967 3.92989 -0.487372 0
M  V30 8509 H 810.141 3.25186 -3.26482 0
M  V30 8510 H 808.456 3.04849 -2.83647 0
M  V30 8511 H 811.053 5.23021 -1.11143 0
M  V30 8512 H 811.396 4.15702 0.223085 0
M  V30 8513 H 811.929 3.71681 -1.41767 0
M  V30 8514 H 808.668 5.15668 -4.04682 0
M  V30 8515 H 808.188 5.50949 -2.37097 0
M  V30 8516 H 809.867 5.7848 -2.89775 0
M  V30 8517 N 809.999 0.752036 1.385 0
M  V30 8518 C 811.224 0.316993 2.04963 0
M  V30 8519 C 811.649 -1.04582 1.56346 0
M  V30 8520 O 811.007 -1.66616 0.714755 0
M  V30 8521 C 811.055 0.347235 3.58924 0
M  V30 8522 O 810.159 -0.659296 4.07096 0
M  V30 8523 H 809.5 0.140652 0.648932 0
M  V30 8524 H 812.03 1.02272 1.77205 0
M  V30 8525 H 812.04 0.19757 4.07521 0
M  V30 8526 H 810.715 1.34157 3.93668 0
M  V30 8527 H 809.292 -0.474371 3.6987 0
M  V30 8528 N 811.477 -1.49425 0.500989 0
M  V30 8529 C 812.387 -2.32899 -0.282011 0
M  V30 8530 C 813.403 -1.44632 -0.967346 0
M  V30 8531 O 814.579 -1.77654 -0.94873 0
M  V30 8532 C 811.644 -3.20069 -1.33253 0
M  V30 8533 C 810.705 -4.24186 -0.660636 0
M  V30 8534 C 809.938 -5.07191 -1.6611 0
M  V30 8535 O 810.161 -4.91712 -2.89094 0
M  V30 8536 O 809.095 -5.8948 -1.21643 0
M  V30 8537 H 812.921 -3.01038 0.401224 0
M  V30 8538 H 810.506 -1.47079 0.262323 0
M  V30 8539 H 812.388 -3.74071 -1.94033 0
M  V30 8540 H 811.063 -2.54625 -1.9987 0
M  V30 8541 H 809.97 -3.74098 -0.0130959 0
M  V30 8542 H 811.303 -4.92186 -0.0369179 0
M  V30 8543 N 812.955 -0.234822 -1.55841 0
M  V30 8544 C 813.865 0.680828 -2.24504 0
M  V30 8545 C 814.881 1.20306 -1.25708 0
M  V30 8546 O 816.057 1.24188 -1.58554 0
M  V30 8547 C 813.122 1.86636 -2.92178 0
M  V30 8548 C 812.183 1.3848 -4.06352 0
M  V30 8549 C 811.416 2.51382 -4.70789 0
M  V30 8550 O 811.639 3.69831 -4.34259 0
M  V30 8551 O 810.573 2.21828 -5.59532 0
M  V30 8552 H 814.399 0.12583 -3.03439 0
M  V30 8553 H 811.984 -0.00381817 -1.494 0
M  V30 8554 H 813.866 2.55845 -3.34845 0
M  V30 8555 H 812.541 2.40921 -2.16192 0
M  V30 8556 H 811.448 0.660341 -3.68226 0
M  V30 8557 H 812.781 0.888177 -4.8412 0
M  V30 8558 N 814.433 1.57553 0.0384317 0
M  V30 8559 C 815.679 1.89121 0.732199 0
M  V30 8560 C 816.012 0.831404 1.75503 0
M  V30 8561 O 815.287 -0.154642 1.93884 0
M  V30 8562 C 815.57 3.31338 1.41021 0
M  V30 8563 C 815.423 4.48004 0.401532 0
M  V30 8564 C 816.742 3.72318 2.34665 0
M  V30 8565 H 813.861 0.687819 0.264715 0
M  V30 8566 H 816.503 1.89999 -0.00496279 0
M  V30 8567 H 814.653 3.3072 2.03854 0
M  V30 8568 H 816.325 4.60755 -0.224159 0
M  V30 8569 H 814.568 4.32895 -0.280092 0
M  V30 8570 H 815.239 5.44377 0.91423 0
M  V30 8571 H 817.715 3.74243 1.81883 0
M  V30 8572 H 816.591 4.72652 2.7909 0
M  V30 8573 H 816.852 3.04062 3.20934 0
M  V30 8574 N 815.911 -0.310526 1.54511 0
M  V30 8575 C 816.874 -1.3657 1.84068 0
M  V30 8576 C 817.874 -1.44123 0.713097 0
M  V30 8577 O 819.064 -1.43924 0.981399 0
M  V30 8578 C 816.196 -2.75162 2.01243 0
M  V30 8579 H 817.389 -1.1161 2.78358 0
M  V30 8580 H 814.942 -0.546699 1.46427 0
M  V30 8581 H 815.677 -3.05359 1.09208 0
M  V30 8582 H 815.462 -2.71071 2.83307 0
M  V30 8583 H 816.952 -3.51473 2.25514 0
M  V30 8584 N 817.389 -1.46805 -0.573248 0
M  V30 8585 C 818.299 -1.60687 -1.70929 0
M  V30 8586 C 819.315 -0.490084 -1.66956 0
M  V30 8587 O 820.491 -0.755482 -1.86693 0
M  V30 8588 C 817.556 -1.60259 -3.07438 0
M  V30 8589 C 816.617 -2.83242 -3.22603 0
M  V30 8590 C 815.85 -2.82825 -4.52599 0
M  V30 8591 O 816.073 -1.92113 -5.37074 0
M  V30 8592 O 815.007 -3.74489 -4.71213 0
M  V30 8593 H 818.833 -2.56782 -1.62163 0
M  V30 8594 H 816.418 -1.29706 -0.741399 0
M  V30 8595 H 818.3 -1.6275 -3.88704 0
M  V30 8596 H 816.975 -0.673268 -3.16621 0
M  V30 8597 H 815.882 -2.86302 -2.40794 0
M  V30 8598 H 817.215 -3.75415 -3.18315 0
M  V30 8599 N 818.867 0.818669 -1.34668 0
M  V30 8600 C 819.777 1.9616 -1.2868 0
M  V30 8601 C 820.793 1.72918 -0.193742 0
M  V30 8602 O 821.969 1.96951 -0.420975 0
M  V30 8603 C 819.034 3.30534 -1.04633 0
M  V30 8604 C 818.095 3.66755 -2.23136 0
M  V30 8605 C 817.328 4.94717 -2.00227 0
M  V30 8606 O 817.551 5.62218 -0.96264 0
M  V30 8607 O 816.485 5.28915 -2.87286 0
M  V30 8608 H 820.311 2.04157 -2.24842 0
M  V30 8609 H 817.896 0.954691 -1.14917 0
M  V30 8610 H 819.778 4.11005 -0.930216 0
M  V30 8611 H 818.453 3.23495 -0.115139 0
M  V30 8612 H 817.36 2.8671 -2.40308 0
M  V30 8613 H 818.693 3.78484 -3.1466 0
M  V30 8614 N 820.346 1.18468 1.03938 0
M  V30 8615 C 821.276 0.936389 2.13902 0
M  V30 8616 C 822.257 -0.126381 1.6963 0
M  V30 8617 O 823.442 0.0264757 1.94182 0
M  V30 8618 C 820.572 0.462729 3.44204 0
M  V30 8619 C 819.526 1.46613 4.02105 0
M  V30 8620 C 818.852 0.84994 5.27902 0
M  V30 8621 C 820.152 2.84323 4.3813 0
M  V30 8622 H 821.846 1.85602 2.3493 0
M  V30 8623 H 819.392 0.893806 1.12903 0
M  V30 8624 H 821.345 0.276382 4.20493 0
M  V30 8625 H 820.069 -0.492477 3.22866 0
M  V30 8626 H 818.728 1.63944 3.27899 0
M  V30 8627 H 818.376 -0.112493 5.02874 0
M  V30 8628 H 818.076 1.51988 5.67603 0
M  V30 8629 H 819.6 0.674152 6.06867 0
M  V30 8630 H 821.014 2.70636 5.054 0
M  V30 8631 H 819.411 3.48012 4.88884 0
M  V30 8632 H 820.481 3.37776 3.47901 0
M  V30 8633 N 821.824 -1.22873 0.986916 0
M  V30 8634 C 823.072 -1.91084 0.658121 0
M  V30 8635 C 823.393 -1.77304 -0.811675 0
M  V30 8636 O 822.663 -1.15649 -1.58121 0
M  V30 8637 H 821.243 -0.707251 0.240427 0
M  V30 8638 H 823.905 -1.49357 1.25213 0
M  V30 8639 H 823.001 -2.98373 0.915428 0
M  V30 8640 N 823.302 -0.75937 -1.38099 0
M  V30 8641 C 824.718 -0.437606 -1.53483 0
M  V30 8642 C 824.918 1.04849 -1.72072 0
M  V30 8643 O 823.974 1.83448 -1.73502 0
M  V30 8644 C 825.287 -1.24189 -2.73857 0
M  V30 8645 C 826.835 -1.23255 -2.8771 0
M  V30 8646 C 827.31 -2.01992 -4.11051 0
M  V30 8647 N 828.801 -1.99282 -4.1814 0
M  V30 8648 C 829.536 -2.56996 -5.12583 0
M  V30 8649 N 829.032 -3.23446 -6.12662 0
M  V30 8650 N 830.825 -2.46894 -5.04975 0
M  V30 8651 H 822.976 -1.72242 -1.24283 0
M  V30 8652 H 825.239 -0.730507 -0.604205 0
M  V30 8653 H 824.945 -2.29449 -2.66545 0
M  V30 8654 H 824.819 -0.862672 -3.67203 0
M  V30 8655 H 827.206 -0.187988 -2.94501 0
M  V30 8656 H 827.287 -1.65132 -1.95359 0
M  V30 8657 H 826.931 -3.06462 -4.05023 0
M  V30 8658 H 826.861 -1.57505 -5.02494 0
M  V30 8659 H 829.352 -1.50893 -3.46467 0
M  V30 8660 H 829.665 -3.6489 -6.81231 0
M  V30 8661 H 828.01 -3.27543 -6.12977 0
M  V30 8662 H 831.201 -1.94604 -4.25731 0
M  V30 8663 H 831.374 -2.92168 -5.78396 0
M  V30 8664 N 824.78 1.49157 -0.508906 0
M  V30 8665 C 825.743 2.27784 0.25434 0
M  V30 8666 C 826.743 1.34132 0.88686 0
M  V30 8667 O 827.933 1.5722 0.750168 0
M  V30 8668 C 825.065 3.12347 1.36573 0
M  V30 8669 H 826.258 2.96718 -0.435714 0
M  V30 8670 H 823.811 1.54052 -0.264128 0
M  V30 8671 H 824.546 2.47997 2.08969 0
M  V30 8672 H 824.331 3.81213 0.917543 0
M  V30 8673 H 825.821 3.71712 1.90315 0
M  V30 8674 N 826.258 0.243083 1.55714 0
M  V30 8675 C 827.221 -0.644723 2.19945 0
M  V30 8676 C 828.221 -1.10562 1.16759 0
M  V30 8677 O 829.411 -1.01095 1.41865 0
M  V30 8678 C 826.543 -1.88569 2.83997 0
M  V30 8679 H 827.736 -0.0843839 2.99781 0
M  V30 8680 H 825.289 -0.00647246 1.56299 0
M  V30 8681 H 826.024 -2.48736 2.08089 0
M  V30 8682 H 825.809 -1.56345 3.59581 0
M  V30 8683 H 827.299 -2.51774 3.33166 0
M  V30 8684 N 827.736 -1.57571 -0.0300757 0
M  V30 8685 C 828.961 -1.93879 -0.736601 0
M  V30 8686 C 829.386 -0.842998 -1.68152 0
M  V30 8687 O 828.744 0.20135 -1.80178 0
M  V30 8688 C 828.792 -3.29247 -1.47066 0
M  V30 8689 O 827.896 -3.21426 -2.58378 0
M  V30 8690 H 827.237 -0.633735 -0.198181 0
M  V30 8691 H 829.767 -2.04595 0.0141485 0
M  V30 8692 H 829.777 -3.64113 -1.84081 0
M  V30 8693 H 828.452 -4.08565 -0.77764 0
M  V30 8694 H 827.029 -2.98189 -2.23914 0
M  V30 8695 N 829.214 0.302327 -1.54673 0
M  V30 8696 C 830.439 1.06103 -1.78205 0
M  V30 8697 C 830.864 1.80204 -0.53926 0
M  V30 8698 O 830.222 1.73975 0.510142 0
M  V30 8699 C 830.27 2.01829 -2.98827 0
M  V30 8700 O 829.374 3.10108 -2.71858 0
M  V30 8701 H 828.715 0.30487 -0.589873 0
M  V30 8702 H 831.245 0.340153 -2.01753 0
M  V30 8703 H 831.255 2.44319 -3.2676 0
M  V30 8704 H 829.93 1.473 -3.88942 0
M  V30 8705 H 828.507 2.72142 -2.54937 0
M  V30 8706 N 830.692 1.47107 0.565454 0
M  V30 8707 C 831.917 1.57153 1.35343 0
M  V30 8708 C 832.342 0.219247 1.86818 0
M  V30 8709 O 831.7 -0.803539 1.62521 0
M  V30 8710 C 831.748 2.59387 2.50501 0
M  V30 8711 O 830.852 2.14086 3.52478 0
M  V30 8712 H 830.193 0.528209 0.402357 0
M  V30 8713 H 832.723 1.92821 0.684189 0
M  V30 8714 H 832.733 2.79546 2.97184 0
M  V30 8715 H 831.408 3.57579 2.12391 0
M  V30 8716 H 829.985 2.03991 3.12157 0
M  V30 8717 N 832.17 -0.811516 1.35101 0
M  V30 8718 C 833.395 -1.60499 1.31358 0
M  V30 8719 C 833.82 -1.87793 -0.107383 0
M  V30 8720 O 833.178 -1.46161 -1.07268 0
M  V30 8721 C 833.226 -2.91612 2.12119 0
M  V30 8722 O 832.33 -3.84211 1.49853 0
M  V30 8723 H 831.671 -0.487702 0.450603 0
M  V30 8724 H 834.201 -1.00758 1.7807 0
M  V30 8725 H 834.211 -3.4108 2.23894 0
M  V30 8726 H 832.886 -2.71071 3.15426 0
M  V30 8727 H 831.463 -3.42751 1.46889 0
M  V30 8728 N 833.648 -1.19017 -1.03309 0
M  V30 8729 C 834.894 -0.991681 -1.769 0
M  V30 8730 C 835.227 0.476813 -1.88255 0
M  V30 8731 O 834.502 1.35407 -1.39625 0
M  V30 8732 C 834.785 -1.65627 -3.19749 0
M  V30 8733 C 834.638 -3.19813 -3.1629 0
M  V30 8734 C 835.957 -1.37579 -4.18043 0
M  V30 8735 H 833.076 -0.361674 -0.642153 0
M  V30 8736 H 835.718 -1.46795 -1.20628 0
M  V30 8737 H 833.868 -1.25132 -3.67796 0
M  V30 8738 H 835.54 -3.69494 -2.76174 0
M  V30 8739 H 833.783 -3.51578 -2.54117 0
M  V30 8740 H 834.454 -3.61457 -4.17196 0
M  V30 8741 H 836.93 -1.72679 -3.78578 0
M  V30 8742 H 835.806 -1.86636 -5.16196 0
M  V30 8743 H 836.067 -0.300118 -4.4108 0
M  V30 8744 N 835.127 1.22348 -0.993418 0
M  V30 8745 C 836.373 1.91393 -0.67056 0
M  V30 8746 C 836.706 1.77163 0.795428 0
M  V30 8747 O 835.981 1.14084 1.57528 0
M  V30 8748 C 836.264 3.43589 -1.0779 0
M  V30 8749 C 836.117 3.66867 -2.60248 0
M  V30 8750 C 837.436 4.35545 -0.631527 0
M  V30 8751 H 834.555 0.695057 -0.24508 0
M  V30 8752 H 837.197 1.44213 -1.23703 0
M  V30 8753 H 835.347 3.83903 -0.595902 0
M  V30 8754 H 837.019 3.35954 -3.16121 0
M  V30 8755 H 835.262 3.1113 -3.02293 0
M  V30 8756 H 835.933 4.73457 -2.838 0
M  V30 8757 H 838.409 4.0275 -1.04554 0
M  V30 8758 H 837.285 5.40707 -0.944831 0
M  V30 8759 H 837.546 4.39618 0.467779 0
M  V30 8760 N 836.605 0.766683 1.37694 0
M  V30 8761 C 838.016 0.394761 1.82479 0
M  V30 8762 C 838.367 -1.07842 1.63904 0
M  V30 8763 O 837.492 -1.83479 1.14737 0
M  V30 8764 C 838.087 0.70974 3.31283 0
M  V30 8765 C 836.646 0.390936 3.74364 0
M  V30 8766 C 835.793 0.956192 2.60293 0
M  V30 8767 H 838.744 0.961756 1.26238 0
M  V30 8768 H 838.765 -0.00742144 3.80499 0
M  V30 8769 H 838.277 1.782 3.4477 0
M  V30 8770 H 836.378 -0.674213 3.66449 0
M  V30 8771 H 836.491 0.895645 4.70654 0
M  V30 8772 H 834.855 0.380744 2.51838 0
M  V30 8773 H 835.638 2.03375 2.76575 0
M  V30 8774 N 838.083 -1.48885 0.516809 0
M  V30 8775 C 839.313 -2.06592 -0.018375 0
M  V30 8776 C 839.721 -1.37543 -1.29917 0
M  V30 8777 O 839.064 -0.452527 -1.78039 0
M  V30 8778 C 839.126 -3.58016 -0.326315 0
M  V30 8779 C 838.79 -4.48853 0.859072 0
M  V30 8780 C 839.787 -4.89422 1.75391 0
M  V30 8781 C 837.472 -4.90937 1.06235 0
M  V30 8782 C 839.466 -5.70831 2.83604 0
M  V30 8783 C 837.153 -5.72119 2.14763 0
M  V30 8784 C 838.151 -6.11972 3.03281 0
M  V30 8785 O 837.839 -6.91527 4.09934 0
M  V30 8786 H 837.571 -0.675559 0.0244023 0
M  V30 8787 H 840.125 -1.92442 0.718005 0
M  V30 8788 H 838.355 -3.70231 -1.1165 0
M  V30 8789 H 840.044 -3.97898 -0.801999 0
M  V30 8790 H 840.81 -4.57542 1.60875 0
M  V30 8791 H 836.689 -4.59409 0.382677 0
M  V30 8792 H 840.233 -6.01857 3.52724 0
M  V30 8793 H 836.13 -6.03412 2.29268 0
M  V30 8794 H 836.898 -7.0986 4.07482 0
M  V30 8795 N 839.561 -0.251338 -1.55583 0
M  V30 8796 C 840.491 0.640437 -2.24545 0
M  V30 8797 C 841.472 1.17781 -1.22726 0
M  V30 8798 O 842.657 1.21633 -1.5139 0
M  V30 8799 C 839.787 1.8355 -2.94834 0
M  V30 8800 C 838.741 1.4307 -4.03379 0
M  V30 8801 C 838.067 2.70695 -4.61116 0
M  V30 8802 C 839.367 0.59848 -5.1886 0
M  V30 8803 H 841.061 0.0653772 -2.99329 0
M  V30 8804 H 838.607 0.0300042 -1.43969 0
M  V30 8805 H 840.56 2.46505 -3.4178 0
M  V30 8806 H 839.284 2.43601 -2.17546 0
M  V30 8807 H 837.943 0.824474 -3.57209 0
M  V30 8808 H 837.591 3.28954 -3.80524 0
M  V30 8809 H 837.291 2.44332 -5.34393 0
M  V30 8810 H 838.815 3.34541 -5.10798 0
M  V30 8811 H 840.229 1.13244 -5.62004 0
M  V30 8812 H 838.626 0.430728 -5.98552 0
M  V30 8813 H 839.696 -0.38829 -4.83343 0
M  V30 8814 N 841.039 1.57585 0.0217189 0
M  V30 8815 C 842.45 1.7787 0.567377 0
M  V30 8816 C 842.801 0.883337 1.7519 0
M  V30 8817 O 841.926 0.0800819 2.16252 0
M  V30 8818 C 842.521 3.2257 1.03606 0
M  V30 8819 C 841.08 3.44026 1.52718 0
M  V30 8820 C 840.227 2.73313 0.468545 0
M  V30 8821 H 843.178 1.57377 -0.2045 0
M  V30 8822 H 843.199 3.29488 1.9031 0
M  V30 8823 H 842.711 3.87711 0.173739 0
M  V30 8824 H 840.812 2.8407 2.41111 0
M  V30 8825 H 840.925 4.52659 1.56962 0
M  V30 8826 H 839.289 2.37299 0.925263 0
M  V30 8827 H 840.072 3.41141 -0.384438 0
M  V30 8828 N 842.517 -0.29412 1.54831 0
M  V30 8829 C 843.933 -0.640167 1.46199 0
M  V30 8830 C 844.133 -1.90426 0.658798 0
M  V30 8831 O 843.189 -2.51932 0.169228 0
M  V30 8832 C 844.502 -0.786763 2.90225 0
M  V30 8833 C 846.05 -0.882201 3.0031 0
M  V30 8834 C 846.525 -1.06074 4.45547 0
M  V30 8835 N 848.016 -1.12678 4.49286 0
M  V30 8836 C 848.751 -1.28334 5.58854 0
M  V30 8837 N 848.247 -1.40845 6.78332 0
M  V30 8838 N 850.04 -1.31277 5.46555 0
M  V30 8839 H 842.191 0.536334 2.05517 0
M  V30 8840 H 844.454 0.178363 0.93107 0
M  V30 8841 H 844.16 0.0713018 3.51628 0
M  V30 8842 H 844.034 -1.67364 3.38037 0
M  V30 8843 H 846.421 -1.73075 2.39017 0
M  V30 8844 H 846.502 0.0288405 2.55784 0
M  V30 8845 H 846.146 -0.216935 5.07437 0
M  V30 8846 H 846.076 -1.98611 4.8771 0
M  V30 8847 H 848.567 -1.04335 3.63212 0
M  V30 8848 H 848.88 -1.52566 7.57591 0
M  V30 8849 H 847.225 -1.37888 6.81184 0
M  V30 8850 H 850.416 -1.2112 4.52159 0
M  V30 8851 H 850.589 -1.43136 6.31994 0
M  V30 8852 N 843.995 -1.47404 -0.557645 0
M  V30 8853 C 844.925 -1.62736 -1.67449 0
M  V30 8854 C 845.906 -0.476824 -1.6328 0
M  V30 8855 O 847.091 -0.706108 -1.80908 0
M  V30 8856 C 844.221 -1.641 -3.06086 0
M  V30 8857 C 843.175 -2.78377 -3.25101 0
M  V30 8858 C 842.501 -2.64812 -4.6452 0
M  V30 8859 C 843.801 -4.19971 -3.10518 0
M  V30 8860 H 845.495 -2.56232 -1.54873 0
M  V30 8861 H 843.041 -1.23312 -0.743649 0
M  V30 8862 H 844.994 -1.73417 -3.84063 0
M  V30 8863 H 843.718 -0.671652 -3.19619 0
M  V30 8864 H 842.377 -2.6857 -2.49531 0
M  V30 8865 H 842.025 -1.65906 -4.74852 0
M  V30 8866 H 841.725 -3.41477 -4.78191 0
M  V30 8867 H 843.249 -2.76057 -5.44633 0
M  V30 8868 H 844.663 -4.30757 -3.78313 0
M  V30 8869 H 843.06 -4.97419 -3.35699 0
M  V30 8870 H 844.13 -4.38369 -2.0727 0
M  V30 8871 N 845.473 0.80434 -1.35529 0
M  V30 8872 C 846.884 1.37849 -1.25915 0
M  V30 8873 C 847.235 1.95905 0.107495 0
M  V30 8874 O 846.36 1.91462 1.00852 0
M  V30 8875 C 846.955 2.50608 -2.27994 0
M  V30 8876 C 845.514 3.03879 -2.22114 0
M  V30 8877 C 844.661 1.76856 -2.13582 0
M  V30 8878 H 847.612 0.607192 -1.46625 0
M  V30 8879 H 847.633 3.29221 -1.90772 0
M  V30 8880 H 847.145 2.08323 -3.27449 0
M  V30 8881 H 845.246 3.50622 -1.26077 0
M  V30 8882 H 845.359 3.61707 -3.14173 0
M  V30 8883 H 843.723 1.98498 -1.59595 0
M  V30 8884 H 844.506 1.36721 -3.14901 0
M  V30 8885 N 846.951 1.19563 1.02676 0
M  V30 8886 C 848.2 0.993864 1.75514 0
M  V30 8887 C 848.513 -0.475882 1.89723 0
M  V30 8888 O 849.719 -0.796525 2.59553 0
M  V30 8889 C 848.175 1.72937 3.15628 0
M  V30 8890 C 847.783 3.23937 3.09466 0
M  V30 8891 C 849.527 1.61092 3.92746 0
M  V30 8892 C 847.434 3.90067 4.44524 0
M  V30 8893 H 846.364 0.368244 0.657961 0
M  V30 8894 H 849.015 1.43081 1.14891 0
M  V30 8895 H 847.397 1.22025 3.76731 0
M  V30 8896 H 848.571 3.81983 2.57731 0
M  V30 8897 H 846.886 3.3608 2.45843 0
M  V30 8898 H 849.483 2.07848 4.92649 0
M  V30 8899 H 849.826 0.565415 4.12442 0
M  V30 8900 H 850.359 2.09361 3.3825 0
M  V30 8901 H 847.098 4.94725 4.30032 0
M  V30 8902 H 846.618 3.36809 4.96306 0
M  V30 8903 H 848.297 3.93736 5.13401 0
M  V30 8904 N 848.429 -1.21819 0.999893 0
M  V30 8905 C 849.359 -2.26282 0.576096 0
M  V30 8906 C 850.34 -1.65317 -0.400537 0
M  V30 8907 O 851.525 -1.92028 -0.28964 0
M  V30 8908 C 848.655 -3.47147 -0.103145 0
M  V30 8909 C 847.609 -4.20594 0.792745 0
M  V30 8910 C 846.935 -5.34696 -0.0198026 0
M  V30 8911 C 848.235 -4.78533 2.09293 0
M  V30 8912 H 849.929 -2.61984 1.4493 0
M  V30 8913 H 847.475 -1.25935 0.698316 0
M  V30 8914 H 849.428 -4.1939 -0.411068 0
M  V30 8915 H 848.152 -3.1056 -1.01094 0
M  V30 8916 H 846.811 -3.50194 1.08442 0
M  V30 8917 H 846.459 -4.94352 -0.928729 0
M  V30 8918 H 846.159 -5.84764 0.576661 0
M  V30 8919 H 847.683 -6.09752 -0.321659 0
M  V30 8920 H 849.097 -5.42682 1.8485 0
M  V30 8921 H 847.494 -5.38968 2.63881 0
M  V30 8922 H 848.564 -3.98197 2.76708 0
M  V30 8923 N 849.908 -0.773975 -1.37286 0
M  V30 8924 C 851.319 -0.404433 -1.82267 0
M  V30 8925 C 851.67 1.06971 -1.64474 0
M  V30 8926 O 850.795 1.82867 -1.15708 0
M  V30 8927 C 851.39 -0.727298 -3.30902 0
M  V30 8928 C 849.949 -0.410784 -3.74152 0
M  V30 8929 C 849.096 -0.969983 -2.59782 0
M  V30 8930 H 852.047 -0.968437 -1.25726 0
M  V30 8931 H 852.068 -0.0127575 -3.80498 0
M  V30 8932 H 851.58 -1.80026 -3.4382 0
M  V30 8933 H 849.681 0.65477 -3.66802 0
M  V30 8934 H 849.794 -0.920592 -4.70172 0
M  V30 8935 H 848.158 -0.394094 -2.51633 0
M  V30 8936 H 848.941 -2.04839 -2.75492 0
M  V30 8937 N 851.386 1.48609 -0.524698 0
M  V30 8938 C 852.611 2.07398 0.00952139 0
M  V30 8939 C 853.036 1.37939 1.27884 0
M  V30 8940 O 852.394 0.443633 1.75788 0
M  V30 8941 C 852.442 3.59916 0.221956 0
M  V30 8942 O 851.546 3.91647 1.29175 0
M  V30 8943 H 850.887 0.662981 -0.0367729 0
M  V30 8944 H 853.417 1.91092 -0.7311 0
M  V30 8945 H 853.427 4.05552 0.446236 0
M  V30 8946 H 852.102 4.09876 -0.705306 0
M  V30 8947 H 850.679 3.57796 1.05055 0
M  V30 8948 N 852.864 0.259585 1.55447 0
M  V30 8949 C 853.811 -0.634578 2.21905 0
M  V30 8950 C 854.781 -1.16168 1.18719 0
M  V30 8951 O 855.966 -1.21383 1.4721 0
M  V30 8952 C 853.106 -1.82005 2.93203 0
M  V30 8953 C 852.219 -1.32828 4.11073 0
M  V30 8954 C 851.354 -2.47431 4.70055 0
M  V30 8955 C 850.393 -1.95179 5.80148 0
M  V30 8956 N 849.53 -3.03197 6.33258 0
M  V30 8957 H 854.37 -0.0611886 2.97937 0
M  V30 8958 H 851.907 -0.0184378 1.47088 0
M  V30 8959 H 853.865 -2.51664 3.32748 0
M  V30 8960 H 852.495 -2.36571 2.19622 0
M  V30 8961 H 851.547 -0.525301 3.76756 0
M  V30 8962 H 852.859 -0.905435 4.90513 0
M  V30 8963 H 852.013 -3.25111 5.12238 0
M  V30 8964 H 850.752 -2.93023 3.89857 0
M  V30 8965 H 849.757 -1.15974 5.37429 0
M  V30 8966 H 850.982 -1.50541 6.62204 0
M  V30 8967 H 848.928 -3.48199 5.55961 0
M  V30 8968 H 848.845 -2.65282 7.07928 0
M  V30 8969 H 850.113 -3.80898 6.80101 0
M  V30 8970 N 854.342 -1.57594 -0.0133615 0
M  V30 8971 C 855.57 -1.94251 -0.712328 0
M  V30 8972 C 855.985 -0.86063 -1.68043 0
M  V30 8973 O 855.342 0.161632 -1.81783 0
M  V30 8974 C 855.393 -3.30891 -1.45581 0
M  V30 8975 O 855.114 -4.34924 -0.526539 0
M  V30 8976 C 856.615 -3.81926 -2.2505 0
M  V30 8977 H 853.835 -0.640737 -0.199241 0
M  V30 8978 H 856.379 -2.04472 0.0337855 0
M  V30 8979 H 854.534 -3.22019 -2.15366 0
M  V30 8980 H 854.948 -5.1389 -1.04962 0
M  V30 8981 H 856.422 -4.79999 -2.72589 0
M  V30 8982 H 856.899 -3.13934 -3.07152 0
M  V30 8983 H 857.505 -3.93931 -1.60308 0
M  V30 8984 N 855.82 0.285905 -1.54985 0
M  V30 8985 C 857.236 0.632405 -1.46536 0
M  V30 8986 C 857.436 1.90074 -0.668888 0
M  V30 8987 O 856.492 2.51839 -0.182586 0
M  V30 8988 C 857.805 0.771361 -2.90638 0
M  V30 8989 C 859.353 0.866262 -3.00774 0
M  V30 8990 C 859.828 1.0371 -4.46103 0
M  V30 8991 N 861.319 1.10294 -4.49877 0
M  V30 8992 C 862.054 1.25369 -5.59527 0
M  V30 8993 N 861.55 1.37246 -6.7907 0
M  V30 8994 N 863.343 1.28377 -5.47244 0
M  V30 8995 H 855.494 -0.547226 -2.0523 0
M  V30 8996 H 857.757 -0.183298 -0.930111 0
M  V30 8997 H 857.463 -0.0899485 -3.51585 0
M  V30 8998 H 857.337 1.65569 -3.3892 0
M  V30 8999 H 859.724 1.71805 -2.39931 0
M  V30 9000 H 859.805 -0.0424049 -2.55765 0
M  V30 9001 H 859.449 0.190021 -5.07544 0
M  V30 9002 H 859.379 1.96022 -4.88757 0
M  V30 9003 H 861.87 1.02407 -3.6376 0
M  V30 9004 H 862.183 1.48546 -7.58389 0
M  V30 9005 H 860.528 1.34274 -6.81906 0
M  V30 9006 H 863.719 1.1872 -4.52795 0
M  V30 9007 H 863.892 1.39782 -6.32744 0
M  V30 9008 N 857.298 1.47698 0.54982 0
M  V30 9009 C 858.526 1.5833 1.33188 0
M  V30 9010 C 858.941 0.236193 1.87317 0
M  V30 9011 O 858.298 -0.77167 1.65383 0
M  V30 9012 C 858.349 2.61438 2.49664 0
M  V30 9013 O 858.07 3.9092 1.97771 0
M  V30 9014 C 859.571 2.82324 3.41772 0
M  V30 9015 H 856.791 0.53443 0.405741 0
M  V30 9016 H 859.335 1.93375 0.665309 0
M  V30 9017 H 857.49 2.29307 3.12245 0
M  V30 9018 H 857.904 4.47323 2.73866 0
M  V30 9019 H 859.378 3.58316 4.19897 0
M  V30 9020 H 859.855 1.90416 3.95776 0
M  V30 9021 H 860.461 3.15682 2.85 0
M  V30 9022 N 858.776 -0.797141 1.35954 0
M  V30 9023 C 859.706 -1.92387 1.32323 0
M  V30 9024 C 860.687 -1.68967 0.196007 0
M  V30 9025 O 861.872 -1.90193 0.39245 0
M  V30 9026 C 859.002 -3.29286 1.10398 0
M  V30 9027 C 857.956 -3.67212 2.19862 0
M  V30 9028 C 857.282 -5.02377 1.8309 0
M  V30 9029 C 858.582 -3.76602 3.61896 0
M  V30 9030 H 860.276 -1.95683 2.26602 0
M  V30 9031 H 857.822 -0.94007 1.09081 0
M  V30 9032 H 859.775 -4.07721 1.06495 0
M  V30 9033 H 858.499 -3.26358 0.125668 0
M  V30 9034 H 857.158 -2.91069 2.22878 0
M  V30 9035 H 856.806 -4.95961 0.838527 0
M  V30 9036 H 856.506 -5.28722 2.56372 0
M  V30 9037 H 858.03 -5.8324 1.80729 0
M  V30 9038 H 859.444 -4.45246 3.6115 0
M  V30 9039 H 857.841 -4.14425 4.34018 0
M  V30 9040 H 858.911 -2.77906 3.97361 0
M  V30 9041 N 860.254 -1.20106 -1.0204 0
M  V30 9042 C 861.201 -0.946468 -2.10501 0
M  V30 9043 C 862.171 0.121902 -1.65652 0
M  V30 9044 O 863.356 -0.0220244 -1.90787 0
M  V30 9045 C 860.496 -0.500499 -3.41451 0
M  V30 9046 C 859.609 -1.63659 -3.998 0
M  V30 9047 C 858.744 -1.14131 -5.18794 0
M  V30 9048 C 857.783 -2.25074 -5.69217 0
M  V30 9049 N 856.92 -1.76791 -6.79477 0
M  V30 9050 H 861.76 -1.87506 -2.31615 0
M  V30 9051 H 859.297 -0.934693 -1.13587 0
M  V30 9052 H 861.255 -0.223276 -4.16602 0
M  V30 9053 H 859.885 0.391099 -3.20422 0
M  V30 9054 H 858.937 -2.02882 -3.21781 0
M  V30 9055 H 860.249 -2.47213 -4.33229 0
M  V30 9056 H 859.403 -0.819826 -6.01135 0
M  V30 9057 H 858.142 -0.275615 -4.86921 0
M  V30 9058 H 857.147 -2.58043 -4.85483 0
M  V30 9059 H 858.372 -3.12114 -6.03127 0
M  V30 9060 H 856.318 -0.925428 -6.4944 0
M  V30 9061 H 856.235 -2.53928 -7.12079 0
M  V30 9062 H 857.503 -1.47631 -7.65392 0
M  V30 9063 N 861.732 1.21287 -1.00634 0
M  V30 9064 C 862.679 2.23705 -0.567876 0
M  V30 9065 C 863.649 1.61043 0.406753 0
M  V30 9066 O 864.834 1.88289 0.308499 0
M  V30 9067 C 861.974 3.44961 0.097996 0
M  V30 9068 C 861.087 4.22091 -0.919972 0
M  V30 9069 C 860.222 5.30718 -0.226222 0
M  V30 9070 C 859.261 5.99581 -1.23165 0
M  V30 9071 N 858.398 6.99821 -0.565278 0
M  V30 9072 H 863.238 2.60571 -1.44592 0
M  V30 9073 H 860.775 1.28049 -0.724006 0
M  V30 9074 H 862.733 4.1418 0.501097 0
M  V30 9075 H 861.363 3.08818 0.939744 0
M  V30 9076 H 860.415 3.52038 -1.44131 0
M  V30 9077 H 861.727 4.69476 -1.68505 0
M  V30 9078 H 860.881 6.06253 0.232917 0
M  V30 9079 H 859.62 4.84343 0.571247 0
M  V30 9080 H 858.625 5.22816 -1.70128 0
M  V30 9081 H 859.85 6.48042 -2.03022 0
M  V30 9082 H 857.796 6.55656 0.212508 0
M  V30 9083 H 857.713 7.4528 -1.26858 0
M  V30 9084 H 858.981 7.79393 -0.129389 0
M  V30 9085 N 863.21 0.781244 1.36873 0
M  V30 9086 C 864.142 0.132075 2.28819 0
M  V30 9087 C 865.155 -0.653925 1.49089 0
M  V30 9088 O 866.344 -0.490453 1.7163 0
M  V30 9089 C 863.444 -0.836297 3.28419 0
M  V30 9090 C 862.617 -0.102097 4.37281 0
M  V30 9091 C 861.676 -0.985217 5.16894 0
M  V30 9092 O 860.702 -0.445478 5.67454 0
M  V30 9093 N 861.904 -2.31043 5.3254 0
M  V30 9094 H 864.669 0.921838 2.85171 0
M  V30 9095 H 862.23 0.634427 1.48952 0
M  V30 9096 H 864.222 -1.43074 3.78566 0
M  V30 9097 H 862.792 -1.52698 2.72767 0
M  V30 9098 H 862.012 0.67335 3.88407 0
M  V30 9099 H 863.3 0.404862 5.07187 0
M  V30 9100 H 862.698 -2.77318 4.93063 0
M  V30 9101 H 861.255 -2.85472 5.8596 0
M  V30 9102 N 864.689 -1.48329 0.532571 0
M  V30 9103 C 865.935 -2.028 -0.000583219 0
M  V30 9104 C 866.268 -1.40858 -1.33688 0
M  V30 9105 O 865.543 -0.555261 -1.86406 0
M  V30 9106 C 865.826 -3.59901 -0.119846 0
M  V30 9107 C 865.679 -4.32318 1.2418 0
M  V30 9108 C 866.998 -4.31904 -0.845372 0
M  V30 9109 H 864.117 -0.736999 0.00126205 0
M  V30 9110 H 866.759 -1.77024 0.690102 0
M  V30 9111 H 864.909 -3.81993 -0.708092 0
M  V30 9112 H 866.581 -4.21637 1.87136 0
M  V30 9113 H 864.824 -3.93635 1.82301 0
M  V30 9114 H 865.495 -5.40697 1.11132 0
M  V30 9115 H 867.971 -4.14658 -0.346159 0
M  V30 9116 H 866.847 -5.41509 -0.897723 0
M  V30 9117 H 867.108 -3.99369 -1.89622 0
M  V30 9118 N 866.167 -0.267825 -1.55308 0
M  V30 9119 C 867.077 0.633055 -2.25897 0
M  V30 9120 C 868.093 1.17613 -1.28231 0
M  V30 9121 O 869.269 1.20797 -1.61153 0
M  V30 9122 C 866.334 1.80397 -2.96071 0
M  V30 9123 C 865.395 1.29829 -4.09198 0
M  V30 9124 C 864.628 2.4134 -4.76016 0
M  V30 9125 O 864.851 3.60537 -4.42006 0
M  V30 9126 O 863.785 2.09909 -5.64111 0
M  V30 9127 H 867.611 0.0614381 -3.03638 0
M  V30 9128 H 865.196 -0.0355072 -1.49358 0
M  V30 9129 H 867.078 2.48685 -3.40197 0
M  V30 9130 H 865.753 2.36281 -2.21253 0
M  V30 9131 H 864.66 0.582086 -3.69544 0
M  V30 9132 H 865.993 0.785288 -4.85895 0
M  V30 9133 N 867.645 1.57599 0.00500368 0
M  V30 9134 C 868.593 2.09223 1.01628 0
M  V30 9135 C 869.587 1.01113 1.35913 0
M  V30 9136 O 870.793 1.19583 1.34536 0
M  V30 9137 H 867.168 0.667999 0.345372 0
M  V30 9138 H 869.139 2.93188 0.555274 0
M  V30 9139 C 867.888 2.60674 2.30097 0
M  V30 9140 H 867.211 3.43491 2.04582 0
M  V30 9141 H 868.651 3.00479 2.99146 0
M  V30 9142 C 867.11 1.51862 3.00731 0
M  V30 9143 O 867.64 0.898651 3.91519 0
M  V30 9144 N 865.846 1.24729 2.62471 0
M  V30 9145 H 865.393 1.7533 1.88725 0
M  V30 9146 H 865.351 0.521437 3.10046 0
M  V30 9147 N 869.123 -0.277682 1.55134 0
M  V30 9148 C 870.07 -1.34313 1.87693 0
M  V30 9149 C 871.04 -1.49298 0.727973 0
M  V30 9150 O 872.225 -1.6378 0.978807 0
M  V30 9151 C 869.365 -2.69922 2.15026 0
M  V30 9152 C 868.478 -2.63197 3.42565 0
M  V30 9153 C 867.613 -3.90955 3.59622 0
M  V30 9154 C 866.652 -3.78722 4.8087 0
M  V30 9155 N 865.789 -4.98303 4.94609 0
M  V30 9156 H 870.629 -1.05847 2.78569 0
M  V30 9157 H 868.166 -0.511469 1.37922 0
M  V30 9158 H 870.124 -3.48817 2.28872 0
M  V30 9159 H 868.754 -2.966 1.2739 0
M  V30 9160 H 867.806 -1.76038 3.37216 0
M  V30 9161 H 869.118 -2.50056 4.31594 0
M  V30 9162 H 868.272 -4.78291 3.7326 0
M  V30 9163 H 867.011 -4.06957 2.6877 0
M  V30 9164 H 866.016 -2.89769 4.67241 0
M  V30 9165 H 867.241 -3.64242 5.73153 0
M  V30 9166 H 865.187 -5.14725 4.06687 0
M  V30 9167 H 865.104 -4.87675 5.77676 0
M  V30 9168 H 866.372 -5.87225 5.12628 0
M  V30 9169 N 870.601 -1.47988 -0.541979 0
M  V30 9170 C 871.511 -1.64276 -1.67483 0
M  V30 9171 C 872.527 -0.525387 -1.65879 0
M  V30 9172 O 873.703 -0.794912 -1.85049 0
M  V30 9173 C 870.768 -1.66744 -3.03969 0
M  V30 9174 C 869.829 -2.90021 -3.16522 0
M  V30 9175 C 869.062 -2.92362 -4.46498 0
M  V30 9176 O 869.285 -2.03462 -5.32878 0
M  V30 9177 O 868.219 -3.84399 -4.63164 0
M  V30 9178 H 872.045 -2.60164 -1.5668 0
M  V30 9179 H 869.63 -1.31249 -0.71372 0
M  V30 9180 H 871.512 -1.70958 -3.85164 0
M  V30 9181 H 870.187 -0.740277 -3.15122 0
M  V30 9182 H 869.094 -2.91345 -2.34667 0
M  V30 9183 H 870.427 -3.82082 -3.10281 0
M  V30 9184 N 872.079 0.78992 -1.36375 0
M  V30 9185 C 873.027 1.92394 -1.30719 0
M  V30 9186 C 874.021 1.68226 -0.199076 0
M  V30 9187 O 875.227 1.76239 -0.366051 0
M  V30 9188 H 871.602 0.632382 -0.406936 0
M  V30 9189 H 873.573 1.94282 -2.26488 0
M  V30 9190 C 872.322 3.2941 -1.11284 0
M  V30 9191 H 871.645 3.48573 -1.95798 0
M  V30 9192 H 873.085 4.09111 -1.11373 0
M  V30 9193 C 871.544 3.36405 0.182543 0
M  V30 9194 O 872.074 3.84206 1.17255 0
M  V30 9195 N 870.28 2.89712 0.227046 0
M  V30 9196 H 869.827 2.51004 -0.579217 0
M  V30 9197 H 869.785 2.94773 1.09344 0
M  V30 9198 N 873.557 1.20646 1.01402 0
M  V30 9199 C 874.806 1.01242 1.7445 0
M  V30 9200 C 875.119 -0.455732 1.90217 0
M  V30 9201 O 876.325 -0.768951 2.60383 0
M  V30 9202 C 874.781 1.76275 3.13776 0
M  V30 9203 C 874.389 3.27201 3.06013 0
M  V30 9204 C 876.133 1.65248 3.91016 0
M  V30 9205 C 874.04 3.9476 4.40362 0
M  V30 9206 H 872.97 0.375202 0.654018 0
M  V30 9207 H 875.621 1.44292 1.13367 0
M  V30 9208 H 874.003 1.26013 3.75415 0
M  V30 9209 H 875.177 3.84695 2.53665 0
M  V30 9210 H 873.492 3.38669 2.42265 0
M  V30 9211 H 876.089 2.13061 4.90417 0
M  V30 9212 H 876.432 0.609128 4.1182 0
M  V30 9213 H 876.965 2.12937 3.3601 0
M  V30 9214 H 873.704 4.99258 4.24761 0
M  V30 9215 H 873.224 3.42054 4.92706 0
M  V30 9216 H 874.903 3.99159 5.09196 0
M  V30 9217 N 875.035 -1.20752 1.01276 0
M  V30 9218 C 875.945 -2.27079 0.589277 0
M  V30 9219 C 876.961 -1.6999 -0.371389 0
M  V30 9220 O 878.137 -2.00044 -0.233294 0
M  V30 9221 C 875.202 -3.4663 -0.0696715 0
M  V30 9222 C 874.263 -4.18962 0.936454 0
M  V30 9223 C 873.496 -5.32806 0.308856 0
M  V30 9224 O 873.719 -5.63376 -0.8924 0
M  V30 9225 O 872.653 -5.93131 1.02367 0
M  V30 9226 H 876.479 -2.6551 1.47438 0
M  V30 9227 H 874.064 -1.27297 0.782045 0
M  V30 9228 H 875.946 -4.19119 -0.437873 0
M  V30 9229 H 874.621 -3.10082 -0.929029 0
M  V30 9230 H 873.528 -3.48661 1.35595 0
M  V30 9231 H 874.861 -4.59441 1.76565 0
M  V30 9232 N 876.513 -0.788492 -1.36457 0
M  V30 9233 C 877.761 -0.359749 -1.98872 0
M  V30 9234 C 878.082 1.07197 -1.62892 0
M  V30 9235 O 877.352 1.73875 -0.902463 0
M  V30 9236 H 875.932 -0.130029 -0.735596 0
M  V30 9237 H 878.594 -1.01033 -1.66668 0
M  V30 9238 H 877.69 -0.450835 -3.08827 0
M  V30 9239 N 877.991 1.48044 -0.54043 0
M  V30 9240 C 878.954 2.28273 0.205966 0
M  V30 9241 C 879.954 1.35983 0.858209 0
M  V30 9242 O 881.144 1.58776 0.716651 0
M  V30 9243 C 878.276 3.15174 1.29917 0
M  V30 9244 H 879.469 2.95727 -0.498555 0
M  V30 9245 H 877.022 1.53457 -0.296745 0
M  V30 9246 H 877.757 2.52374 2.03661 0
M  V30 9247 H 877.542 3.83074 0.836475 0
M  V30 9248 H 879.032 3.75666 1.82387 0
M  V30 9249 N 879.47 0.276058 1.55163 0
M  V30 9250 C 880.402 -0.644254 2.19959 0
M  V30 9251 C 881.415 -1.11675 1.18459 0
M  V30 9252 O 882.604 -1.0385 1.45181 0
M  V30 9253 C 879.704 -1.89093 2.81242 0
M  V30 9254 C 878.877 -1.56509 4.08441 0
M  V30 9255 C 877.936 -2.66433 4.53762 0
M  V30 9256 O 876.962 -2.32579 5.19515 0
M  V30 9257 N 878.164 -3.96509 4.23982 0
M  V30 9258 H 880.929 -0.0896808 2.99566 0
M  V30 9259 H 878.49 0.0971981 1.61608 0
M  V30 9260 H 880.482 -2.61929 3.08505 0
M  V30 9261 H 879.052 -2.35453 2.05622 0
M  V30 9262 H 878.272 -0.670522 3.88455 0
M  V30 9263 H 879.56 -1.32242 4.91314 0
M  V30 9264 H 878.958 -4.26834 3.71254 0
M  V30 9265 H 877.515 -4.6572 4.56014 0
M  V30 9266 N 880.948 -1.576 0.00335426 0
M  V30 9267 C 882.225 -1.81945 -0.718015 0
M  V30 9268 C 882.605 -0.881788 -1.91801 0
M  V30 9269 O 881.953 0.0687118 -2.28397 0
M  V30 9270 C 882.163 -3.30521 -1.12058 0
M  V30 9271 C 883.511 -3.96345 -1.52303 0
M  V30 9272 O 884.535 -3.34864 -1.21428 0
M  V30 9273 O 883.394 -5.04655 -2.09728 0
M  V30 9274 H 880.488 -0.749328 -0.34991 0
M  V30 9275 H 883.034 -1.69675 0.0290654 0
M  V30 9276 H 881.806 -3.90399 -0.265378 0
M  V30 9277 H 881.429 -3.47802 -1.92665 0
M  V30 9278 N 882.426 0.269451 -1.5528 0
M  V30 9279 C 883.389 1.31642 -1.87625 0
M  V30 9280 C 884.389 1.42182 -0.751058 0
M  V30 9281 O 885.579 1.41272 -1.01921 0
M  V30 9282 C 882.711 2.6973 -2.08467 0
M  V30 9283 H 883.904 1.0419 -2.81219 0
M  V30 9284 H 881.457 0.507685 -1.47825 0
M  V30 9285 H 882.192 3.02356 -1.17266 0
M  V30 9286 H 881.977 2.63465 -2.90394 0
M  V30 9287 H 883.467 3.4537 -2.34753 0
M  V30 9288 N 883.904 1.48273 0.534124 0
M  V30 9289 C 885.132 1.59734 1.31501 0
M  V30 9290 C 885.547 0.256047 1.87056 0
M  V30 9291 O 884.904 -0.754086 1.66192 0
M  V30 9292 C 884.955 2.64072 2.46877 0
M  V30 9293 O 884.676 3.92995 1.93613 0
M  V30 9294 C 886.177 2.85933 3.38758 0
M  V30 9295 H 883.397 0.538703 0.40005 0
M  V30 9296 H 885.941 1.9407 0.644762 0
M  V30 9297 H 884.096 2.32606 3.09795 0
M  V30 9298 H 884.51 4.50203 2.69106 0
M  V30 9299 H 885.984 3.62749 4.16073 0
M  V30 9300 H 886.461 1.94603 3.93734 0
M  V30 9301 H 887.067 3.18687 2.81636 0
M  V30 9302 N 885.382 -0.782676 1.36792 0
M  V30 9303 C 886.292 -1.92679 1.33835 0
M  V30 9304 C 887.308 -1.72344 0.23952 0
M  V30 9305 O 888.484 -1.95766 0.473045 0
M  V30 9306 C 885.549 -3.27644 1.1336 0
M  V30 9307 C 884.61 -3.6071 2.32781 0
M  V30 9308 C 883.843 -4.89234 2.13273 0
M  V30 9309 O 884.066 -5.59468 1.11136 0
M  V30 9310 O 883 -5.21112 3.01208 0
M  V30 9311 H 886.826 -1.98124 2.30175 0
M  V30 9312 H 884.411 -0.923887 1.17408 0
M  V30 9313 H 886.293 -4.08394 1.03886 0
M  V30 9314 H 884.968 -3.23076 0.200868 0
M  V30 9315 H 883.875 -2.80238 2.47825 0
M  V30 9316 H 885.208 -3.70008 3.24584 0
M  V30 9317 N 886.86 -1.21182 -1.00761 0
M  V30 9318 C 887.808 -0.965728 -2.11604 0
M  V30 9319 C 888.802 0.0861028 -1.69181 0
M  V30 9320 O 890.008 -0.0650558 -1.79882 0
M  V30 9321 H 886.383 -0.295023 -0.691712 0
M  V30 9322 H 888.354 -1.90667 -2.2954 0
M  V30 9323 C 887.103 -0.544164 -3.43415 0
M  V30 9324 H 886.426 -1.34515 -3.76491 0
M  V30 9325 H 887.866 -0.411268 -4.22001 0
M  V30 9326 C 886.325 0.744583 -3.28569 0
M  V30 9327 O 886.855 1.80078 -3.59075 0
M  V30 9328 N 885.061 0.710083 -2.81791 0
M  V30 9329 H 884.608 -0.14971 -2.57165 0
M  V30 9330 H 884.566 1.57268 -2.72239 0
M  V30 9331 N 888.338 1.20213 -1.01915 0
M  V30 9332 C 889.563 1.94163 -0.729076 0
M  V30 9333 C 889.988 1.74416 0.704323 0
M  V30 9334 O 889.346 1.0401 1.48498 0
M  V30 9335 C 889.394 3.44258 -1.07324 0
M  V30 9336 O 888.498 4.11979 -0.186367 0
M  V30 9337 H 887.839 0.606506 -0.270272 0
M  V30 9338 H 890.369 1.52571 -1.3632 0
M  V30 9339 H 890.379 3.94888 -1.02603 0
M  V30 9340 H 889.054 3.57954 -2.11759 0
M  V30 9341 H 887.631 3.7176 -0.291334 0
M  V30 9342 N 889.816 0.795718 1.36037 0
M  V30 9343 C 890.779 0.204318 2.28287 0
M  V30 9344 C 891.779 -0.602017 1.49105 0
M  V30 9345 O 892.969 -0.422089 1.69009 0
M  V30 9346 C 890.101 -0.716431 3.33287 0
M  V30 9347 H 891.294 1.01781 2.821 0
M  V30 9348 H 888.847 0.565588 1.45708 0
M  V30 9349 H 889.582 -1.55403 2.84641 0
M  V30 9350 H 889.367 -0.140096 3.9185 0
M  V30 9351 H 890.857 -1.12488 4.02164 0
M  V30 9352 N 891.294 -1.47756 0.548274 0
M  V30 9353 C 892.519 -2.07387 0.023475 0
M  V30 9354 C 892.944 -1.39956 -1.25674 0
M  V30 9355 O 892.302 -0.471543 -1.7506 0
M  V30 9356 C 892.35 -3.60224 -0.164669 0
M  V30 9357 O 891.454 -3.93653 -1.22928 0
M  V30 9358 H 890.795 -0.662312 0.0473156 0
M  V30 9359 H 893.325 -1.89905 0.761409 0
M  V30 9360 H 893.335 -4.06211 -0.38166 0
M  V30 9361 H 892.01 -4.08702 0.770425 0
M  V30 9362 H 890.587 -3.59422 -0.993495 0
M  V30 9363 N 892.772 -0.284283 -1.55015 0
M  V30 9364 C 893.997 0.335799 -2.04664 0
M  V30 9365 C 894.422 1.47999 -1.16094 0
M  V30 9366 O 893.78 1.8058 -0.161454 0
M  V30 9367 C 893.828 0.785615 -3.51938 0
M  V30 9368 O 892.932 1.89202 -3.66437 0
M  V30 9369 H 892.273 0.0680233 -0.660506 0
M  V30 9370 H 894.803 -0.421255 -2.00216 0
M  V30 9371 H 894.813 1.07892 -3.93476 0
M  V30 9372 H 893.488 -0.0514675 -4.15868 0
M  V30 9373 H 892.065 1.60055 -3.36804 0
M  V30 9374 N 894.251 1.57596 -0.0117121 0
M  V30 9375 C 895.181 2.12188 0.9746 0
M  V30 9376 C 896.162 1.03379 1.35081 0
M  V30 9377 O 897.347 1.31123 1.4325 0
M  V30 9378 C 894.477 2.63477 2.26268 0
M  V30 9379 C 893.431 3.76917 2.02774 0
M  V30 9380 C 892.757 4.14566 3.37697 0
M  V30 9381 C 894.057 5.03715 1.38089 0
M  V30 9382 H 895.751 2.9485 0.520007 0
M  V30 9383 H 893.297 1.41836 0.248685 0
M  V30 9384 H 895.25 3.00299 2.95633 0
M  V30 9385 H 893.974 1.77953 2.73862 0
M  V30 9386 H 892.633 3.40507 1.35832 0
M  V30 9387 H 892.281 3.26048 3.83016 0
M  V30 9388 H 891.981 4.91 3.22789 0
M  V30 9389 H 893.505 4.53956 4.08358 0
M  V30 9390 H 894.919 5.38233 1.97428 0
M  V30 9391 H 893.316 5.85032 1.33634 0
M  V30 9392 H 894.386 4.83624 0.351575 0
M  V30 9393 N 895.729 -0.261212 1.5542 0
M  V30 9394 C 896.692 -1.30645 1.8832 0
M  V30 9395 C 897.692 -1.41782 0.758588 0
M  V30 9396 O 898.882 -1.40729 1.02669 0
M  V30 9397 C 896.014 -2.6862 2.09895 0
M  V30 9398 H 897.207 -1.02698 2.81768 0
M  V30 9399 H 894.76 -0.499838 1.48092 0
M  V30 9400 H 895.495 -3.0173 1.18868 0
M  V30 9401 H 895.28 -2.61921 2.91787 0
M  V30 9402 H 896.77 -3.44121 2.36581 0
M  V30 9403 N 897.207 -1.48554 -0.526253 0
M  V30 9404 C 898.618 -1.50256 -1.10815 0
M  V30 9405 C 898.969 -0.274445 -1.94271 0
M  V30 9406 O 898.094 0.618094 -2.07385 0
M  V30 9407 C 898.689 -2.72264 -2.01638 0
M  V30 9408 C 897.248 -2.76826 -2.55038 0
M  V30 9409 C 896.395 -2.43823 -1.32081 0
M  V30 9410 H 899.346 -1.55616 -0.31133 0
M  V30 9411 H 899.367 -2.50993 -2.85977 0
M  V30 9412 H 898.879 -3.61632 -1.4087 0
M  V30 9413 H 896.98 -1.91676 -3.19517 0
M  V30 9414 H 897.093 -3.78351 -2.93917 0
M  V30 9415 H 895.457 -1.95058 -1.63781 0
M  V30 9416 H 896.24 -3.35436 -0.730596 0
M  V30 9417 N 898.685 0.775411 -1.37205 0
M  V30 9418 C 899.933 1.53081 -1.3195 0
M  V30 9419 C 900.254 1.9476 0.0966864 0
M  V30 9420 O 899.524 1.66019 1.03993 0
M  V30 9421 H 898.104 0.567762 -0.485444 0
M  V30 9422 H 900.766 0.92309 -1.71654 0
M  V30 9423 H 899.862 2.4319 -1.95614 0
M  V30 9424 N 900.163 1.21714 1.00117 0
M  V30 9425 C 901.41 1.0367 1.73951 0
M  V30 9426 C 901.738 -0.429289 1.89703 0
M  V30 9427 O 900.993 -1.33475 1.43119 0
M  V30 9428 C 901.292 1.68345 3.15269 0
M  V30 9429 C 900.958 3.18214 3.19454 0
M  V30 9430 C 899.62 3.59109 3.20303 0
M  V30 9431 C 901.972 4.14179 3.16394 0
M  V30 9432 C 899.3 4.94467 3.15783 0
M  V30 9433 C 901.652 5.49502 3.13416 0
M  V30 9434 C 900.316 5.8979 3.12577 0
M  V30 9435 H 899.586 0.379355 0.63653 0
M  V30 9436 H 902.233 1.51361 1.17312 0
M  V30 9437 H 900.538 1.12957 3.75164 0
M  V30 9438 H 902.235 1.51882 3.71124 0
M  V30 9439 H 898.825 2.85646 3.19538 0
M  V30 9440 H 903.009 3.83607 3.14895 0
M  V30 9441 H 898.265 5.24923 3.13473 0
M  V30 9442 H 902.439 6.23595 3.10003 0
M  V30 9443 H 900.066 6.94643 3.08829 0
M  V30 9444 N 901.641 -1.19671 1.02551 0
M  V30 9445 C 902.89 -1.88591 0.715272 0
M  V30 9446 C 903.203 -1.80274 -0.758982 0
M  V30 9447 O 904.409 -2.44413 -1.18213 0
M  V30 9448 C 902.865 -3.38264 1.22905 0
M  V30 9449 C 902.473 -3.55146 2.73084 0
M  V30 9450 C 904.217 -4.12683 0.994649 0
M  V30 9451 C 902.124 -4.98693 3.17897 0
M  V30 9452 H 901.054 -0.706326 0.263857 0
M  V30 9453 H 903.705 -1.35322 1.23936 0
M  V30 9454 H 902.087 -3.9091 0.632892 0
M  V30 9455 H 903.261 -3.12845 3.38326 0
M  V30 9456 H 901.576 -2.94112 2.94766 0
M  V30 9457 H 904.173 -5.18536 1.30478 0
M  V30 9458 H 904.516 -4.16243 -0.0686466 0
M  V30 9459 H 905.049 -3.66164 1.55464 0
M  V30 9460 H 901.788 -5.00293 4.23542 0
M  V30 9461 H 901.308 -5.4177 2.57381 0
M  V30 9462 H 902.987 -5.67327 3.11045 0
M  V30 9463 N 903.119 -0.802921 -1.35613 0
M  V30 9464 C 904.535 -0.486214 -1.52014 0
M  V30 9465 C 904.735 0.993219 -1.75321 0
M  V30 9466 O 903.791 1.77835 -1.79251 0
M  V30 9467 C 905.104 -1.32839 -2.69767 0
M  V30 9468 C 906.652 -1.32346 -2.83643 0
M  V30 9469 C 907.127 -2.14967 -4.04417 0
M  V30 9470 N 908.618 -2.12484 -4.11588 0
M  V30 9471 C 909.353 -2.73173 -5.04147 0
M  V30 9472 N 908.849 -3.42774 -6.02061 0
M  V30 9473 N 910.642 -2.62834 -4.96865 0
M  V30 9474 H 902.793 -1.76109 -1.18741 0
M  V30 9475 H 905.056 -0.74936 -0.580658 0
M  V30 9476 H 904.762 -2.37813 -2.5911 0
M  V30 9477 H 904.636 -0.979058 -3.64272 0
M  V30 9478 H 907.023 -0.281586 -2.93753 0
M  V30 9479 H 907.104 -1.71264 -1.90006 0
M  V30 9480 H 906.748 -3.19193 -3.95068 0
M  V30 9481 H 906.678 -1.73411 -4.97228 0
M  V30 9482 H 909.169 -1.61839 -3.41492 0
M  V30 9483 H 909.482 -3.86378 -6.69277 0
M  V30 9484 H 907.827 -3.46878 -6.02246 0
M  V30 9485 H 911.018 -2.08049 -4.19325 0
M  V30 9486 H 911.191 -3.10421 -5.68808 0
M  V30 9487 N 904.597 1.47463 -0.556102 0
M  V30 9488 C 905.845 2.02075 -0.0315712 0
M  V30 9489 C 906.166 1.43292 1.32259 0
M  V30 9490 O 905.436 0.60771 1.86236 0
M  V30 9491 H 904.016 0.74695 -0.0086816 0
M  V30 9492 H 906.678 1.80879 -0.725859 0
M  V30 9493 H 905.774 3.12047 0.0573538 0
M  V30 9494 N 906.075 0.2925 1.54862 0
M  V30 9495 C 907.038 -0.574423 2.21885 0
M  V30 9496 C 908.038 -1.06791 1.20218 0
M  V30 9497 O 909.228 -0.9653 1.45009 0
M  V30 9498 C 906.36 -1.79438 2.89853 0
M  V30 9499 H 907.553 0.0110319 2.99898 0
M  V30 9500 H 905.106 0.043256 1.5624 0
M  V30 9501 H 905.841 -2.4199 2.15897 0
M  V30 9502 H 905.626 -1.44827 3.64373 0
M  V30 9503 H 907.116 -2.41048 3.41007 0
M  V30 9504 N 907.553 -1.57587 0.0200696 0
M  V30 9505 C 908.485 -2.06555 -0.993359 0
M  V30 9506 C 909.498 -0.987227 -1.29451 0
M  V30 9507 O 910.687 -1.26361 -1.26075 0
M  V30 9508 C 907.787 -2.4675 -2.3231 0
M  V30 9509 C 906.96 -3.77554 -2.20843 0
M  V30 9510 C 906.019 -4.04397 -3.36674 0
M  V30 9511 O 905.045 -4.7478 -3.13963 0
M  V30 9512 N 906.247 -3.53861 -4.60176 0
M  V30 9513 H 909.012 -2.9412 -0.575617 0
M  V30 9514 H 906.573 -1.61038 -0.166889 0
M  V30 9515 H 908.565 -2.61806 -3.08609 0
M  V30 9516 H 907.135 -1.64598 -2.65756 0
M  V30 9517 H 906.355 -3.72382 -1.29327 0
M  V30 9518 H 907.643 -4.63271 -2.10375 0
M  V30 9519 H 907.041 -2.96904 -4.81523 0
M  V30 9520 H 905.598 -3.74213 -5.33674 0
M  V30 9521 N 909.032 0.252966 -1.55557 0
M  V30 9522 C 909.995 1.29645 -1.8901 0
M  V30 9523 C 910.995 1.41378 -0.766096 0
M  V30 9524 O 912.185 1.40183 -1.03414 0
M  V30 9525 C 909.317 2.67504 -2.11316 0
M  V30 9526 H 910.51 1.01202 -2.82309 0
M  V30 9527 H 908.063 0.491977 -1.48355 0
M  V30 9528 H 908.798 3.01095 -1.20466 0
M  V30 9529 H 908.583 2.6037 -2.93172 0
M  V30 9530 H 910.073 3.42861 -2.38403 0
M  V30 9531 N 910.51 1.48831 0.518367 0
M  V30 9532 C 911.735 1.61379 1.30275 0
M  V30 9533 C 912.16 0.278571 1.86026 0
M  V30 9534 O 911.518 -0.751427 1.64995 0
M  V30 9535 C 911.566 2.67225 2.42122 0
M  V30 9536 O 910.67 2.25192 3.45489 0
M  V30 9537 H 910.011 0.540742 0.385349 0
M  V30 9538 H 912.541 1.949 0.622498 0
M  V30 9539 H 912.551 2.88859 2.8814 0
M  V30 9540 H 911.226 3.64155 2.00907 0
M  V30 9541 H 909.803 2.13819 3.05509 0
M  V30 9542 N 911.988 -0.768124 1.37614 0
M  V30 9543 C 913.213 -1.56239 1.36397 0
M  V30 9544 C 913.638 -1.8804 -0.0475839 0
M  V30 9545 O 912.996 -1.495 -1.02564 0
M  V30 9546 C 913.044 -2.84716 2.21289 0
M  V30 9547 O 912.148 -3.79249 1.62001 0
M  V30 9548 H 911.489 -0.473119 0.465891 0
M  V30 9549 H 914.019 -0.950415 1.81186 0
M  V30 9550 H 914.029 -3.33784 2.34632 0
M  V30 9551 H 912.704 -2.60899 3.2389 0
M  V30 9552 H 911.281 -3.37904 1.57719 0
M  V30 9553 N 913.466 -1.22244 -0.994698 0
M  V30 9554 C 914.714 -1.04384 -1.73056 0
M  V30 9555 C 915.035 0.422204 -1.90374 0
M  V30 9556 O 914.305 1.30383 -1.46209 0
M  V30 9557 H 912.885 -0.383263 -0.641185 0
M  V30 9558 H 915.547 -1.53725 -1.1981 0
M  V30 9559 H 914.643 -1.52021 -2.72573 0
M  V30 9560 N 914.944 1.19125 -1.03184 0
M  V30 9561 C 916.169 1.93379 -0.749628 0
M  V30 9562 C 916.594 1.75153 0.685785 0
M  V30 9563 O 915.952 1.05579 1.47386 0
M  V30 9564 C 916 3.43101 -1.1097 0
M  V30 9565 O 915.104 4.11758 -0.230053 0
M  V30 9566 H 914.445 0.603605 -0.276689 0
M  V30 9567 H 916.975 1.51116 -1.37931 0
M  V30 9568 H 916.985 3.93778 -1.06785 0
M  V30 9569 H 915.66 3.55688 -2.15544 0
M  V30 9570 H 914.237 3.7143 -0.330748 0
M  V30 9571 N 916.422 0.810101 1.35185 0
M  V30 9572 C 917.833 0.452616 1.81131 0
M  V30 9573 C 918.184 -1.02573 1.67252 0
M  V30 9574 O 917.309 -1.79735 1.20516 0
M  V30 9575 C 917.904 0.814775 3.28857 0
M  V30 9576 C 916.463 0.509839 3.72931 0
M  V30 9577 C 915.61 1.03852 2.57119 0
M  V30 9578 H 918.561 1.00143 1.23114 0
M  V30 9579 H 918.582 0.113635 3.8033 0
M  V30 9580 H 918.094 1.89078 3.38926 0
M  V30 9581 H 916.195 -0.557289 3.68409 0
M  V30 9582 H 916.308 1.04493 4.67566 0
M  V30 9583 H 914.672 0.460671 2.50499 0
M  V30 9584 H 915.455 2.12071 2.69964 0
M  V30 9585 N 917.9 -1.47166 0.563914 0
M  V30 9586 C 918.863 -2.28571 -0.169624 0
M  V30 9587 C 919.863 -1.37331 -0.836467 0
M  V30 9588 O 921.053 -1.59896 -0.6913 0
M  V30 9589 C 918.185 -3.17201 -1.24886 0
M  V30 9590 H 919.378 -2.94896 0.545539 0
M  V30 9591 H 916.931 -1.52966 0.321121 0
M  V30 9592 H 917.666 -2.55582 -1.99621 0
M  V30 9593 H 917.451 -3.84356 -0.775426 0
M  V30 9594 H 918.941 -3.7852 -1.76388 0
M  V30 9595 N 919.378 -0.300708 -1.54705 0
M  V30 9596 C 920.308 0.568675 -2.26469 0
M  V30 9597 C 921.289 1.13817 -1.26411 0
M  V30 9598 O 922.474 1.16756 -1.55183 0
M  V30 9599 C 919.604 1.74077 -3.00524 0
M  V30 9600 C 918.558 1.30165 -4.07727 0
M  V30 9601 C 917.884 2.55888 -4.69495 0
M  V30 9602 C 919.184 0.433106 -5.20501 0
M  V30 9603 H 920.878 -0.0298851 -2.99385 0
M  V30 9604 H 918.424 -0.0158135 -1.43991 0
M  V30 9605 H 920.377 2.35506 -3.49449 0
M  V30 9606 H 919.101 2.36556 -2.25186 0
M  V30 9607 H 917.76 0.710414 -3.59651 0
M  V30 9608 H 917.408 3.16681 -3.90797 0
M  V30 9609 H 917.108 2.27207 -5.41895 0
M  V30 9610 H 918.632 3.18121 -5.21183 0
M  V30 9611 H 920.046 0.95307 -5.65322 0
M  V30 9612 H 918.443 0.240085 -5.9962 0
M  V30 9613 H 919.513 -0.541866 -4.81863 0
M  V30 9614 N 920.856 1.57574 -0.0284266 0
M  V30 9615 C 922.267 1.79585 0.510502 0
M  V30 9616 C 922.618 0.938625 1.72291 0
M  V30 9617 O 921.743 0.14884 2.15888 0
M  V30 9618 C 922.338 3.25703 0.932912 0
M  V30 9619 C 920.897 3.48711 1.41696 0
M  V30 9620 C 920.044 2.74665 0.381356 0
M  V30 9621 H 922.995 1.56647 -0.254464 0
M  V30 9622 H 923.016 3.35376 1.79731 0
M  V30 9623 H 922.528 3.88067 0.0503036 0
M  V30 9624 H 920.629 2.91597 2.31952 0
M  V30 9625 H 920.742 4.57423 1.42481 0
M  V30 9626 H 919.106 2.40123 0.8493 0
M  V30 9627 H 919.889 3.39745 -0.492775 0
M  V30 9628 N 922.334 -0.244713 1.55689 0
M  V30 9629 C 923.75 -0.593331 1.48161 0
M  V30 9630 C 923.95 -1.88234 0.719047 0
M  V30 9631 O 923.006 -2.51266 0.249292 0
M  V30 9632 C 924.319 -0.694032 2.92581 0
M  V30 9633 C 925.867 -0.786213 3.02965 0
M  V30 9634 C 926.342 -0.918457 4.48696 0
M  V30 9635 N 927.833 -0.983272 4.52643 0
M  V30 9636 C 928.568 -1.1049 5.62654 0
M  V30 9637 N 928.064 -1.19193 6.8247 0
M  V30 9638 N 929.857 -1.13823 5.50455 0
M  V30 9639 H 922.008 0.601446 2.03707 0
M  V30 9640 H 924.271 0.207894 0.924924 0
M  V30 9641 H 923.977 0.183133 3.51223 0
M  V30 9642 H 923.851 -1.56525 3.4319 0
M  V30 9643 H 926.238 -1.65383 2.44402 0
M  V30 9644 H 926.319 0.110202 2.55563 0
M  V30 9645 H 925.963 -0.0553881 5.0787 0
M  V30 9646 H 925.893 -1.82994 4.93782 0
M  V30 9647 H 928.384 -0.927269 3.66347 0
M  V30 9648 H 928.697 -1.28387 7.62061 0
M  V30 9649 H 927.042 -1.16147 6.85226 0
M  V30 9650 H 930.233 -1.06673 4.55783 0
M  V30 9651 H 930.406 -1.22957 6.36228 0
M  V30 9652 N 923.813 -1.49104 -0.510467 0
M  V30 9653 C 924.76 -1.65074 -1.61305 0
M  V30 9654 C 925.73 -0.492362 -1.58635 0
M  V30 9655 O 926.915 -0.718241 -1.76765 0
M  V30 9656 C 924.055 -1.71457 -2.99493 0
M  V30 9657 C 923.168 -2.98536 -3.12251 0
M  V30 9658 C 922.303 -2.95957 -4.41116 0
M  V30 9659 C 921.342 -4.17655 -4.47471 0
M  V30 9660 N 920.479 -4.13041 -5.67751 0
M  V30 9661 H 925.319 -2.59222 -1.46996 0
M  V30 9662 H 922.856 -1.28535 -0.715346 0
M  V30 9663 H 924.814 -1.7314 -3.79577 0
M  V30 9664 H 923.444 -0.807834 -3.12528 0
M  V30 9665 H 922.496 -3.06509 -2.25292 0
M  V30 9666 H 923.808 -3.88527 -3.12807 0
M  V30 9667 H 922.962 -2.96149 -5.2951 0
M  V30 9668 H 921.701 -2.03728 -4.4311 0
M  V30 9669 H 920.706 -4.17717 -3.57481 0
M  V30 9670 H 921.931 -5.11066 -4.472 0
M  V30 9671 H 919.877 -3.23643 -5.70606 0
M  V30 9672 H 919.794 -4.96757 -5.69884 0
M  V30 9673 H 921.062 -4.17322 -6.58379 0
M  V30 9674 N 925.291 0.760815 -1.38019 0
M  V30 9675 C 926.223 1.88387 -1.30549 0
M  V30 9676 C 927.236 1.61319 -0.219119 0
M  V30 9677 O 928.425 1.72033 -0.476122 0
M  V30 9678 C 925.525 3.23863 -0.998291 0
M  V30 9679 C 924.698 3.78492 -2.19232 0
M  V30 9680 C 923.757 4.92468 -1.85368 0
M  V30 9681 O 922.783 5.0748 -2.57785 0
M  V30 9682 N 923.985 5.74901 -0.804319 0
M  V30 9683 H 926.75 1.95308 -2.27322 0
M  V30 9684 H 924.311 0.940423 -1.31786 0
M  V30 9685 H 926.303 3.97644 -0.7524 0
M  V30 9686 H 924.873 3.12374 -0.11877 0
M  V30 9687 H 924.093 2.96361 -2.5993 0
M  V30 9688 H 925.381 4.11722 -2.98935 0
M  V30 9689 H 924.779 5.65333 -0.203628 0
M  V30 9690 H 923.336 6.48861 -0.618301 0
M  V30 9691 N 926.769 1.22769 0.988202 0
M  V30 9692 C 928.185 0.988665 1.2529 0
M  V30 9693 C 928.385 -0.314938 1.99024 0
M  V30 9694 O 927.441 -1.03637 2.30251 0
M  V30 9695 C 928.754 2.19046 2.06009 0
M  V30 9696 C 930.302 2.23452 2.19176 0
M  V30 9697 C 930.777 3.43196 3.03283 0
M  V30 9698 N 932.268 3.43387 3.10869 0
M  V30 9699 C 933.003 4.32693 3.7625 0
M  V30 9700 N 932.499 5.32224 4.43519 0
M  V30 9701 N 934.292 4.20457 3.73058 0
M  V30 9702 H 926.443 2.06575 0.494014 0
M  V30 9703 H 928.706 0.905452 0.28082 0
M  V30 9704 H 928.412 3.13607 1.59197 0
M  V30 9705 H 928.286 2.19492 3.06763 0
M  V30 9706 H 930.673 1.29436 2.65199 0
M  V30 9707 H 930.754 2.27042 1.17836 0
M  V30 9708 H 930.398 4.37515 2.57959 0
M  V30 9709 H 930.328 3.36847 4.04774 0
M  V30 9710 H 932.819 2.71368 2.62998 0
M  V30 9711 H 933.132 5.9664 4.91163 0
M  V30 9712 H 931.477 5.36133 4.42252 0
M  V30 9713 H 934.668 3.41949 3.19669 0
M  V30 9714 H 934.841 4.90261 4.23731 0
M  V30 9715 N 928.247 -1.18576 1.03814 0
M  V30 9716 C 929.524 -1.8433 0.654358 0
M  V30 9717 C 929.904 -1.92504 -0.866338 0
M  V30 9718 O 929.252 -1.44904 -1.76678 0
M  V30 9719 C 929.462 -3.22778 1.32723 0
M  V30 9720 C 930.81 -3.98841 1.45641 0
M  V30 9721 O 931.834 -3.32209 1.28514 0
M  V30 9722 O 930.693 -5.18219 1.73526 0
M  V30 9723 H 927.787 -0.794766 0.228638 0
M  V30 9724 H 930.333 -1.25989 1.13687 0
M  V30 9725 H 929.105 -3.11717 2.36534 0
M  V30 9726 H 928.728 -3.88772 0.833176 0
M  V30 9727 N 929.725 -0.817259 -1.34754 0
M  V30 9728 C 930.672 -0.233108 -2.2962 0
M  V30 9729 C 931.642 0.638902 -1.53321 0
M  V30 9730 O 932.827 0.581739 -1.81715 0
M  V30 9731 C 929.967 0.603659 -3.39779 0
M  V30 9732 C 929.08 -0.289967 -4.31026 0
M  V30 9733 C 928.215 0.555825 -5.28284 0
M  V30 9734 C 927.254 -0.337539 -6.11169 0
M  V30 9735 N 926.391 0.468847 -7.00533 0
M  V30 9736 H 931.231 -1.04747 -2.78984 0
M  V30 9737 H 928.768 -0.528056 -1.37295 0
M  V30 9738 H 930.726 1.10407 -4.02326 0
M  V30 9739 H 929.356 1.38319 -2.91664 0
M  V30 9740 H 928.408 -0.908552 -3.69391 0
M  V30 9741 H 929.72 -0.977136 -4.89135 0
M  V30 9742 H 928.874 1.12094 -5.96255 0
M  V30 9743 H 927.613 1.27652 -4.70698 0
M  V30 9744 H 926.618 -0.914839 -5.42135 0
M  V30 9745 H 927.843 -1.05626 -6.70835 0
M  V30 9746 H 925.789 1.17332 -6.45422 0
M  V30 9747 H 925.706 -0.160052 -7.55831 0
M  V30 9748 H 926.974 1.01689 -7.72839 0
M  V30 9749 N 931.203 1.46865 -0.571711 0
M  V30 9750 C 932.428 2.07323 -0.0564655 0
M  V30 9751 C 932.853 1.41938 1.23431 0
M  V30 9752 O 932.211 0.499334 1.74288 0
M  V30 9753 C 932.259 3.6044 0.107339 0
M  V30 9754 O 931.363 3.95558 1.1665 0
M  V30 9755 H 930.704 0.661475 -0.0578465 0
M  V30 9756 H 933.234 1.88669 -0.791524 0
M  V30 9757 H 933.244 4.06767 0.316987 0
M  V30 9758 H 931.919 4.07425 -0.835348 0
M  V30 9759 H 930.496 3.60957 0.936189 0
M  V30 9760 N 932.681 0.308908 1.54543 0
M  V30 9761 C 934.092 -0.182144 1.85809 0
M  V30 9762 C 934.443 -1.52796 1.23076 0
M  V30 9763 O 933.568 -2.09775 0.531358 0
M  V30 9764 C 934.163 -0.337275 3.37117 0
M  V30 9765 C 932.722 -0.772545 3.68387 0
M  V30 9766 C 931.869 0.114451 2.77064 0
M  V30 9767 H 934.82 0.529671 1.496 0
M  V30 9768 H 934.841 -1.17058 3.62046 0
M  V30 9769 H 934.353 0.642382 3.82747 0
M  V30 9770 H 932.454 -1.76247 3.2828 0
M  V30 9771 H 932.567 -0.586453 4.75497 0
M  V30 9772 H 930.931 -0.407581 2.51418 0
M  V30 9773 H 931.714 1.09061 3.25516 0
M  V30 9774 N 934.159 -1.57557 0.0367827 0
M  V30 9775 C 935.384 -1.96828 -0.653707 0
M  V30 9776 C 935.809 -0.913559 -1.64425 0
M  V30 9777 O 935.167 0.124749 -1.8087 0
M  V30 9778 C 935.215 -3.35189 -1.32969 0
M  V30 9779 O 934.319 -3.32095 -2.44513 0
M  V30 9780 H 933.66 -0.64157 -0.171124 0
M  V30 9781 H 936.19 -2.04351 0.100912 0
M  V30 9782 H 936.2 -3.71593 -1.68472 0
M  V30 9783 H 934.875 -4.11496 -0.603654 0
M  V30 9784 H 933.452 -3.07418 -2.11065 0
M  V30 9785 N 935.637 0.236453 -1.55816 0
M  V30 9786 C 936.862 0.98449 -1.82545 0
M  V30 9787 C 937.287 1.77755 -0.615206 0
M  V30 9788 O 936.645 1.75982 0.435895 0
M  V30 9789 C 936.693 1.88973 -3.07118 0
M  V30 9790 O 935.797 2.98298 -2.84766 0
M  V30 9791 H 935.138 0.279577 -0.602273 0
M  V30 9792 H 937.668 0.254277 -2.03014 0
M  V30 9793 H 937.678 2.3024 -3.36829 0
M  V30 9794 H 936.353 1.30671 -3.94839 0
M  V30 9795 H 934.93 2.61085 -2.6625 0
M  V30 9796 N 937.115 1.49373 0.502552 0
M  V30 9797 C 938.045 1.68839 1.61294 0
M  V30 9798 C 939.026 0.537096 1.61398 0
M  V30 9799 O 940.211 0.772764 1.78163 0
M  V30 9800 C 937.341 1.75347 2.99784 0
M  V30 9801 C 936.295 2.90251 3.14545 0
M  V30 9802 C 935.621 2.8187 4.54371 0
M  V30 9803 C 936.921 4.31207 2.94717 0
M  V30 9804 H 938.615 2.61803 1.45257 0
M  V30 9805 H 936.161 1.25987 0.697371 0
M  V30 9806 H 938.114 1.87552 3.77362 0
M  V30 9807 H 936.838 0.789814 3.16906 0
M  V30 9808 H 935.497 2.77646 2.39392 0
M  V30 9809 H 935.145 1.83416 4.68367 0
M  V30 9810 H 934.845 3.5899 4.65188 0
M  V30 9811 H 936.369 2.96081 5.34012 0
M  V30 9812 H 937.783 4.44501 3.62065 0
M  V30 9813 H 936.18 5.09536 3.17007 0
M  V30 9814 H 937.25 4.45759 1.90857 0
M  V30 9815 N 938.594 -0.753485 1.38421 0
M  V30 9816 C 939.524 -1.8808 1.38377 0
M  V30 9817 C 940.505 -1.68258 0.249664 0
M  V30 9818 O 941.69 -1.88848 0.45276 0
M  V30 9819 C 938.82 -3.25608 1.20818 0
M  V30 9820 C 937.774 -3.60032 2.31433 0
M  V30 9821 C 937.1 -4.96297 1.9898 0
M  V30 9822 C 938.4 -3.64898 3.73694 0
M  V30 9823 H 940.094 -1.88375 2.32713 0
M  V30 9824 H 937.64 -0.90489 1.12017 0
M  V30 9825 H 939.593 -4.04127 1.19412 0
M  V30 9826 H 938.317 -3.25793 0.229433 0
M  V30 9827 H 936.976 -2.83831 2.32025 0
M  V30 9828 H 936.624 -4.93043 0.995889 0
M  V30 9829 H 936.324 -5.20298 2.73063 0
M  V30 9830 H 937.848 -5.77196 1.99193 0
M  V30 9831 H 939.262 -4.33531 3.75132 0
M  V30 9832 H 937.659 -4.00407 4.46983 0
M  V30 9833 H 938.729 -2.65124 4.06002 0
M  V30 9834 N 940.072 -1.23292 -0.981677 0
M  V30 9835 C 940.982 -1.02964 -2.10798 0
M  V30 9836 C 941.998 0.0254674 -1.73981 0
M  V30 9837 O 943.174 -0.169706 -2.00684 0
M  V30 9838 C 940.239 -0.621934 -3.41076 0
M  V30 9839 C 939.3 -1.75194 -3.91926 0
M  V30 9840 C 938.533 -1.36359 -5.15986 0
M  V30 9841 O 938.756 -0.247265 -5.69864 0
M  V30 9842 O 937.69 -2.18421 -5.60871 0
M  V30 9843 H 941.516 -1.97354 -2.30836 0
M  V30 9844 H 939.101 -1.01986 -1.09175 0
M  V30 9845 H 940.983 -0.405446 -4.19445 0
M  V30 9846 H 939.658 0.29299 -3.22371 0
M  V30 9847 H 938.565 -2.02305 -3.1468 0
M  V30 9848 H 939.898 -2.64513 -4.15083 0
M  V30 9849 N 941.55 1.18024 -1.04442 0
M  V30 9850 C 942.827 1.8398 -0.664125 0
M  V30 9851 C 943.207 1.92961 0.856116 0
M  V30 9852 O 942.555 1.45839 1.75907 0
M  V30 9853 C 942.765 3.22069 -1.34433 0
M  V30 9854 C 944.113 3.98063 -1.47754 0
M  V30 9855 O 945.137 3.31523 -1.30274 0
M  V30 9856 O 943.996 5.17291 -1.76272 0
M  V30 9857 H 941.09 0.793543 -0.23285 0
M  V30 9858 H 943.636 1.25385 -1.14354 0
M  V30 9859 H 942.408 3.10458 -2.38184 0
M  V30 9860 H 942.031 3.88325 -0.853782 0
M  V30 9861 N 943.028 0.824394 1.34319 0
M  V30 9862 C 943.991 0.252696 2.27803 0
M  V30 9863 C 944.991 -0.570254 1.50349 0
M  V30 9864 O 946.181 -0.386145 1.69866 0
M  V30 9865 C 943.313 -0.645575 3.34731 0
M  V30 9866 H 944.506 1.07742 2.79878 0
M  V30 9867 H 942.059 0.596367 1.44475 0
M  V30 9868 H 942.794 -1.4933 2.87873 0
M  V30 9869 H 942.579 -0.0569478 3.92059 0
M  V30 9870 H 944.069 -1.03933 4.0446 0
M  V30 9871 N 944.506 -1.46559 0.579492 0
M  V30 9872 C 945.453 -2.30275 -0.155598 0
M  V30 9873 C 946.423 -1.40422 -0.887175 0
M  V30 9874 O 947.608 -1.69373 -0.878481 0
M  V30 9875 C 944.748 -3.24827 -1.16539 0
M  V30 9876 C 943.861 -4.29778 -0.43759 0
M  V30 9877 C 942.996 -5.11461 -1.43462 0
M  V30 9878 C 942.035 -6.08164 -0.693048 0
M  V30 9879 N 941.172 -6.82726 -1.63799 0
M  V30 9880 H 946.012 -2.92607 0.564356 0
M  V30 9881 H 943.549 -1.44211 0.290126 0
M  V30 9882 H 945.507 -3.78088 -1.76368 0
M  V30 9883 H 944.137 -2.64311 -1.8531 0
M  V30 9884 H 943.189 -3.794 0.27567 0
M  V30 9885 H 944.501 -4.98597 0.142298 0
M  V30 9886 H 943.655 -5.68982 -2.1058 0
M  V30 9887 H 942.394 -4.42595 -2.04844 0
M  V30 9888 H 941.399 -5.49799 -0.00807093 0
M  V30 9889 H 942.624 -6.79047 -0.0846678 0
M  V30 9890 H 940.57 -6.16572 -2.23997 0
M  V30 9891 H 940.487 -7.47795 -1.11082 0
M  V30 9892 H 941.755 -7.44807 -2.29962 0
M  V30 9893 N 945.984 -0.3171 -1.54377 0
M  V30 9894 C 946.894 0.560867 -2.27797 0
M  V30 9895 C 947.91 1.13473 -1.31908 0
M  V30 9896 O 949.086 1.15608 -1.64914 0
M  V30 9897 C 946.151 1.70886 -3.0166 0
M  V30 9898 C 945.212 1.16745 -4.13121 0
M  V30 9899 C 944.445 2.26073 -4.83453 0
M  V30 9900 O 944.668 3.46292 -4.53252 0
M  V30 9901 O 943.602 1.91856 -5.70504 0
M  V30 9902 H 947.428 -0.035193 -3.0368 0
M  V30 9903 H 945.013 -0.0830062 -1.49169 0
M  V30 9904 H 946.895 2.37736 -3.47936 0
M  V30 9905 H 945.57 2.29122 -2.28658 0
M  V30 9906 H 944.477 0.464224 -3.71209 0
M  V30 9907 H 945.81 0.630307 -4.88147 0
M  V30 9908 N 947.462 1.57535 -0.0451378 0
M  V30 9909 C 948.69 1.96761 0.639742 0
M  V30 9910 C 949.105 0.922405 1.64734 0
M  V30 9911 O 948.462 -0.0940535 1.82257 0
M  V30 9912 C 948.513 3.36066 1.33199 0
M  V30 9913 O 948.234 4.36579 0.364757 0
M  V30 9914 C 949.735 3.90015 2.1072 0
M  V30 9915 H 946.955 0.64769 0.175324 0
M  V30 9916 H 949.499 2.04206 -0.109651 0
M  V30 9917 H 947.654 3.2979 2.03266 0
M  V30 9918 H 948.068 5.17432 0.858168 0
M  V30 9919 H 949.542 4.89785 2.54586 0
M  V30 9920 H 950.019 3.25117 2.95288 0
M  V30 9921 H 950.625 3.99609 1.45577 0
M  V30 9922 N 948.94 -0.228186 1.55939 0
M  V30 9923 C 950.18 -0.960695 1.80416 0
M  V30 9924 C 950.544 -1.81795 0.617615 0
M  V30 9925 O 951.745 -2.58369 0.741545 0
M  V30 9926 C 950.016 -1.78298 3.09749 0
M  V30 9927 S 951.575 -2.57203 3.55517 0
M  V30 9928 H 948.393 -0.322825 0.633486 0
M  V30 9929 H 950.995 -0.226852 1.94179 0
M  V30 9930 H 949.699 -1.14323 3.94155 0
M  V30 9931 H 949.23 -2.55924 2.98775 0
M  V30 9932 H 951.245 -3.80632 3.1833 0
M  V30 9933 N 950.418 -1.49637 -0.494624 0
M  V30 9934 C 951.665 -1.59445 -1.24834 0
M  V30 9935 C 951.993 -0.284028 -1.92415 0
M  V30 9936 O 951.248 0.728519 -1.81634 0
M  V30 9937 C 951.547 -2.70749 -2.33302 0
M  V30 9938 C 951.213 -4.12034 -1.83135 0
M  V30 9939 C 949.875 -4.50482 -1.69173 0
M  V30 9940 C 952.227 -5.00432 -1.4566 0
M  V30 9941 C 949.555 -5.75093 -1.16124 0
M  V30 9942 C 951.907 -6.25568 -0.940608 0
M  V30 9943 C 950.571 -6.62839 -0.787432 0
M  V30 9944 H 949.841 -0.583451 -0.456799 0
M  V30 9945 H 952.488 -1.8349 -0.548044 0
M  V30 9946 H 950.793 -2.407 -3.09145 0
M  V30 9947 H 952.49 -2.75546 -2.91334 0
M  V30 9948 H 949.08 -3.8169 -1.94964 0
M  V30 9949 H 953.264 -4.71379 -1.55291 0
M  V30 9950 H 948.52 -6.02665 -1.02982 0
M  V30 9951 H 952.694 -6.93439 -0.641467 0
M  V30 9952 H 950.321 -7.59279 -0.374191 0
M  V30 9953 N 951.896 0.746133 -1.38819 0
M  V30 9954 C 953.124 1.53539 -1.38685 0
M  V30 9955 C 953.539 1.88788 0.0215039 0
M  V30 9956 O 952.896 1.53312 0.990031 0
M  V30 9957 C 952.947 2.8299 -2.24942 0
M  V30 9958 O 952.668 2.49242 -3.60292 0
M  V30 9959 C 954.169 3.77085 -2.3307 0
M  V30 9960 H 951.389 0.474842 -0.474095 0
M  V30 9961 H 953.933 0.922844 -1.82493 0
M  V30 9962 H 952.088 3.40603 -1.84576 0
M  V30 9963 H 952.502 3.32319 -4.05789 0
M  V30 9964 H 953.976 4.64845 -2.97696 0
M  V30 9965 H 954.453 4.18049 -1.34655 0
M  V30 9966 H 955.059 3.25394 -2.73859 0
M  V30 9967 N 953.375 1.23811 0.975125 0
M  V30 9968 C 954.791 1.0019 1.24234 0
M  V30 9969 C 954.991 -0.293811 1.99346 0
M  V30 9970 O 954.047 -1.01189 2.31337 0
M  V30 9971 C 955.36 2.21218 2.03674 0
M  V30 9972 C 956.908 2.25764 2.16793 0
M  V30 9973 C 957.383 3.46394 2.99626 0
M  V30 9974 N 958.874 3.46665 3.07209 0
M  V30 9975 C 959.609 4.3666 3.71639 0
M  V30 9976 N 959.105 5.36899 4.37849 0
M  V30 9977 N 960.898 4.2439 3.68578 0
M  V30 9978 H 953.049 2.07087 0.472076 0
M  V30 9979 H 955.312 0.90838 0.271201 0
M  V30 9980 H 955.018 3.15277 1.55862 0
M  V30 9981 H 954.892 2.22733 3.04417 0
M  V30 9982 H 957.279 1.32242 2.63811 0
M  V30 9983 H 957.36 2.28279 1.15422 0
M  V30 9984 H 957.004 4.40227 2.53304 0
M  V30 9985 H 956.934 3.41121 4.01178 0
M  V30 9986 H 959.425 2.74142 2.60105 0
M  V30 9987 H 959.738 6.01816 4.84807 0
M  V30 9988 H 958.083 5.40793 4.36541 0
M  V30 9989 H 961.274 3.4532 3.16025 0
M  V30 9990 H 961.447 4.94727 4.18508 0
M  V30 9991 N 954.853 -1.17469 1.05066 0
M  V30 9992 C 956.13 -1.83625 0.673872 0
M  V30 9993 C 956.51 -1.93412 -0.845871 0
M  V30 9994 O 955.858 -1.4677 -1.75131 0
M  V30 9995 C 956.068 -3.21352 1.36139 0
M  V30 9996 C 957.416 -3.97274 1.49863 0
M  V30 9997 O 958.44 -3.30827 1.3203 0
M  V30 9998 O 957.299 -5.16349 1.79013 0
M  V30 9999 H 954.393 -0.792297 0.237055 0
M  V30 10000 H 956.939 -1.24776 1.15017 0
M  V30 10001 H 955.711 -3.0919 2.39827 0
M  V30 10002 H 955.334 -3.87867 0.874364 0
M  V30 10003 N 956.331 -0.831506 -1.3388 0
M  V30 10004 C 957.747 -0.518349 -1.50948 0
M  V30 10005 C 957.947 0.955807 -1.77388 0
M  V30 10006 O 957.003 1.73993 -1.82983 0
M  V30 10007 C 958.316 -1.38531 -2.66889 0
M  V30 10008 C 959.864 -1.38332 -2.80772 0
M  V30 10009 C 960.339 -2.23497 -3.99766 0
M  V30 10010 N 961.83 -2.21167 -4.06988 0
M  V30 10011 C 962.565 -2.83805 -4.98239 0
M  V30 10012 N 962.061 -3.55468 -5.94655 0
M  V30 10013 N 963.854 -2.73314 -4.91178 0
M  V30 10014 H 956.005 -1.78588 -1.14978 0
M  V30 10015 H 958.268 -0.761508 -0.564633 0
M  V30 10016 H 957.974 -2.43255 -2.54007 0
M  V30 10017 H 957.848 -1.05611 -3.62114 0
M  V30 10018 H 960.235 -0.343832 -2.9309 0
M  V30 10019 H 960.316 -1.75256 -1.86331 0
M  V30 10020 H 959.96 -3.27501 -3.88208 0
M  V30 10021 H 959.89 -1.83919 -4.93438 0
M  V30 10022 H 962.381 -1.69046 -3.37982 0
M  V30 10023 H 962.694 -4.00487 -6.60931 0
M  V30 10024 H 961.039 -3.59575 -5.94753 0
M  V30 10025 H 964.23 -2.16897 -4.14817 0
M  V30 10026 H 964.403 -3.22416 -5.62096 0
M  V30 10027 N 957.809 1.4625 -0.587256 0
M  V30 10028 C 958.756 2.30354 0.143384 0
M  V30 10029 C 959.726 1.40891 0.879716 0
M  V30 10030 O 960.911 1.69837 0.869486 0
M  V30 10031 C 958.051 3.25441 1.14815 0
M  V30 10032 C 957.164 4.30004 0.414792 0
M  V30 10033 C 956.299 5.12214 1.40748 0
M  V30 10034 C 955.338 6.08523 0.660786 0
M  V30 10035 N 954.475 6.83585 1.60176 0
M  V30 10036 H 959.315 2.92304 -0.579866 0
M  V30 10037 H 956.852 1.44055 -0.29777 0
M  V30 10038 H 958.81 3.79018 1.7436 0
M  V30 10039 H 957.44 2.6529 1.83906 0
M  V30 10040 H 956.492 3.79248 -0.295787 0
M  V30 10041 H 957.804 4.98515 -0.168738 0
M  V30 10042 H 956.958 5.70091 2.0756 0
M  V30 10043 H 955.697 4.43675 2.02494 0
M  V30 10044 H 954.702 5.49796 -0.0210864 0
M  V30 10045 H 955.927 6.79083 0.0486551 0
M  V30 10046 H 953.873 6.17752 2.20724 0
M  V30 10047 H 953.79 7.48373 1.07115 0
M  V30 10048 H 955.058 7.46016 2.26009 0
M  V30 10049 N 959.287 0.325282 1.54207 0
M  V30 10050 C 960.535 -0.276229 2.00203 0
M  V30 10051 C 960.856 -1.52519 1.21503 0
M  V30 10052 O 960.126 -1.93313 0.317302 0
M  V30 10053 H 958.706 -0.105059 0.739575 0
M  V30 10054 H 961.368 0.442225 1.89817 0
M  V30 10055 H 960.464 -0.531427 3.07542 0
M  V30 10056 N 960.765 -1.57509 0.0534917 0
M  V30 10057 C 962.013 -1.92402 -0.618548 0
M  V30 10058 C 962.334 -0.93273 -1.71246 0
M  V30 10059 O 961.604 0.0220495 -1.95888 0
M  V30 10060 H 960.184 -0.710233 -0.23147 0
M  V30 10061 H 962.846 -1.94606 0.10704 0
M  V30 10062 H 961.942 -2.93704 -1.05566 0
M  V30 10063 N 962.243 0.219913 -1.56058 0
M  V30 10064 C 963.49 0.944064 -1.79147 0
M  V30 10065 C 963.818 1.84268 -0.622531 0
M  V30 10066 O 963.073 1.91713 0.393013 0
M  V30 10067 C 963.372 1.81293 -3.08006 0
M  V30 10068 C 963.038 1.0674 -4.38084 0
M  V30 10069 C 961.7 0.86147 -4.73426 0
M  V30 10070 C 964.052 0.541049 -5.18384 0
M  V30 10071 C 961.38 0.117307 -5.86583 0
M  V30 10072 C 963.732 -0.189779 -6.32315 0
M  V30 10073 C 962.396 -0.406951 -6.66258 0
M  V30 10074 H 961.666 0.345458 -0.655546 0
M  V30 10075 H 964.313 0.212121 -1.90322 0
M  V30 10076 H 962.618 2.61278 -2.9196 0
M  V30 10077 H 964.315 2.3754 -3.23072 0
M  V30 10078 H 960.905 1.23789 -4.10334 0
M  V30 10079 H 965.089 0.687617 -4.91514 0
M  V30 10080 H 960.345 -0.0611651 -6.11369 0
M  V30 10081 H 964.519 -0.605134 -6.93766 0
M  V30 10082 H 962.146 -0.985511 -7.53785 0
M  V30 10083 N 963.721 1.49897 0.486681 0
M  V30 10084 C 964.968 1.60105 1.23986 0
M  V30 10085 C 965.296 0.294228 1.92262 0
M  V30 10086 O 964.551 -0.718876 1.82018 0
M  V30 10087 C 964.85 2.71982 2.31863 0
M  V30 10088 C 964.516 4.13 1.80948 0
M  V30 10089 C 963.178 4.51373 1.66782 0
M  V30 10090 C 965.53 5.01198 1.43004 0
M  V30 10091 C 962.858 5.75701 1.13072 0
M  V30 10092 C 965.21 6.26058 0.90742 0
M  V30 10093 C 963.874 6.63247 0.752269 0
M  V30 10094 H 963.144 0.585866 0.453698 0
M  V30 10095 H 965.791 1.83778 0.538305 0
M  V30 10096 H 964.096 2.42336 3.07865 0
M  V30 10097 H 965.793 2.77087 2.89869 0
M  V30 10098 H 962.383 3.82718 1.92937 0
M  V30 10099 H 966.567 4.72196 1.52789 0
M  V30 10100 H 961.823 6.03202 0.997842 0
M  V30 10101 H 965.997 6.9377 0.604684 0
M  V30 10102 H 963.624 7.59466 0.33392 0
M  V30 10103 N 965.199 -0.738761 1.39212 0
M  V30 10104 C 966.424 -1.5331 1.39681 0
M  V30 10105 C 966.849 -1.88098 -0.00768715 0
M  V30 10106 O 966.207 -1.51642 -0.993699 0
M  V30 10107 C 966.255 -2.79958 2.27279 0
M  V30 10108 O 965.359 -3.75727 1.70008 0
M  V30 10109 H 964.7 -0.463131 0.475821 0
M  V30 10110 H 967.23 -0.911768 1.83161 0
M  V30 10111 H 967.24 -3.28732 2.41659 0
M  V30 10112 H 965.915 -2.5397 3.29351 0
M  V30 10113 H 964.492 -3.34483 1.64851 0
M  V30 10114 N 966.677 -1.24326 -0.968545 0
M  V30 10115 C 967.902 -1.1104 -1.75171 0
M  V30 10116 C 968.327 0.333109 -1.85127 0
M  V30 10117 O 967.685 1.24115 -1.32156 0
M  V30 10118 C 967.733 -1.75397 -3.15068 0
M  V30 10119 O 966.837 -1.02417 -3.9948 0
M  V30 10120 H 966.178 -0.388488 -0.538491 0
M  V30 10121 H 968.708 -1.64617 -1.215 0
M  V30 10122 H 968.718 -1.8112 -3.65595 0
M  V30 10123 H 967.393 -2.80427 -3.07138 0
M  V30 10124 H 965.97 -1.04475 -3.57966 0
M  V30 10125 N 968.156 1.1691 -1.05688 0
M  V30 10126 C 969.403 1.87292 -0.76993 0
M  V30 10127 C 969.731 1.81339 0.703295 0
M  V30 10128 O 968.986 1.21959 1.5305 0
M  V30 10129 C 969.285 3.36578 -1.20207 0
M  V30 10130 C 968.951 3.62732 -2.67836 0
M  V30 10131 C 967.613 3.69579 -3.08163 0
M  V30 10132 C 969.965 3.73803 -3.63209 0
M  V30 10133 C 967.293 3.84992 -4.42717 0
M  V30 10134 C 969.645 3.90735 -4.97503 0
M  V30 10135 C 968.309 3.95823 -5.37476 0
M  V30 10136 H 967.579 0.68535 -0.281737 0
M  V30 10137 H 970.226 1.38274 -1.32486 0
M  V30 10138 H 968.531 3.87687 -0.566222 0
M  V30 10139 H 970.228 3.89409 -0.957183 0
M  V30 10140 H 966.818 3.58031 -2.35609 0
M  V30 10141 H 971.002 3.67829 -3.3319 0
M  V30 10142 H 966.258 3.87181 -4.73182 0
M  V30 10143 H 970.432 3.98243 -5.71293 0
M  V30 10144 H 968.059 4.07518 -6.41742 0
M  V30 10145 N 969.634 0.838594 1.33437 0
M  V30 10146 C 970.567 0.216651 2.27169 0
M  V30 10147 C 971.545 -0.636065 1.49643 0
M  V30 10148 O 972.729 -0.596388 1.78817 0
M  V30 10149 C 969.856 -0.69584 3.31475 0
M  V30 10150 C 968.902 0.0813808 4.26422 0
M  V30 10151 S 969.735 1.43909 5.15801 0
M  V30 10152 C 970.891 0.531887 6.23636 0
M  V30 10153 H 971.124 1.01128 2.79572 0
M  V30 10154 H 968.657 0.635332 1.40723 0
M  V30 10155 H 970.615 -1.21671 3.92054 0
M  V30 10156 H 969.276 -1.46413 2.77888 0
M  V30 10157 H 968.469 -0.612944 5.00259 0
M  V30 10158 H 968.071 0.533304 3.70178 0
M  V30 10159 H 970.363 -0.270371 6.7696 0
M  V30 10160 H 971.306 1.24041 6.97151 0
M  V30 10161 H 971.714 0.113357 5.64386 0
M  V30 10162 N 971.112 -1.45937 0.595003 0
M  V30 10163 C 972.059 -2.30427 -0.131165 0
M  V30 10164 C 973.029 -1.41355 -0.872232 0
M  V30 10165 O 974.214 -1.70296 -0.860467 0
M  V30 10166 C 971.354 -3.26045 -1.13087 0
M  V30 10167 C 970.467 -4.30218 -0.391982 0
M  V30 10168 C 969.602 -5.12953 -1.3803 0
M  V30 10169 C 968.641 -6.08865 -0.628505 0
M  V30 10170 N 967.778 -6.84425 -1.56548 0
M  V30 10171 H 972.618 -2.91992 0.595359 0
M  V30 10172 H 970.155 -1.43895 0.305405 0
M  V30 10173 H 972.113 -3.79937 -1.72348 0
M  V30 10174 H 970.743 -2.66261 -1.82496 0
M  V30 10175 H 969.795 -3.79086 0.315895 0
M  V30 10176 H 971.107 -4.98418 0.195173 0
M  V30 10177 H 970.261 -5.71184 -2.04534 0
M  V30 10178 H 969 -4.44743 -2.00138 0
M  V30 10179 H 968.005 -5.49777 0.0502431 0
M  V30 10180 H 969.23 -6.79099 -0.012641 0
M  V30 10181 H 967.176 -6.18913 -2.17444 0
M  V30 10182 H 967.093 -7.48931 -1.03145 0
M  V30 10183 H 968.361 -7.47204 -2.22049 0
M  V30 10184 N 972.59 -0.333456 -1.54032 0
M  V30 10185 C 973.537 0.527981 -2.2468 0
M  V30 10186 C 974.507 1.10371 -1.24127 0
M  V30 10187 O 975.692 1.14221 -1.52834 0
M  V30 10188 C 972.832 1.67808 -3.01553 0
M  V30 10189 C 971.945 1.13064 -4.16942 0
M  V30 10190 C 971.08 2.24722 -4.81325 0
M  V30 10191 C 970.119 1.67277 -5.88799 0
M  V30 10192 N 969.256 2.72638 -6.47003 0
M  V30 10193 H 974.096 -0.0810308 -2.9789 0
M  V30 10194 H 971.633 -0.051761 -1.47009 0
M  V30 10195 H 973.591 2.35502 -3.44376 0
M  V30 10196 H 972.221 2.25823 -2.30659 0
M  V30 10197 H 971.273 0.344948 -3.78833 0
M  V30 10198 H 972.585 0.670373 -4.94275 0
M  V30 10199 H 971.739 3.00301 -5.27166 0
M  V30 10200 H 970.478 2.74089 -4.03394 0
M  V30 10201 H 969.483 0.902002 -5.4235 0
M  V30 10202 H 970.708 1.18775 -6.68632 0
M  V30 10203 H 968.654 3.21277 -5.71941 0
M  V30 10204 H 968.571 2.31204 -7.19778 0
M  V30 10205 H 969.839 3.48015 -6.97499 0
M  V30 10206 N 974.068 1.57479 -0.061844 0
M  V30 10207 C 975.484 1.56855 0.294753 0
M  V30 10208 C 975.684 1.07042 1.70717 0
M  V30 10209 O 974.74 0.731817 2.41662 0
M  V30 10210 C 976.053 3.00486 0.113484 0
M  V30 10211 C 977.601 3.1246 0.183778 0
M  V30 10212 C 978.076 4.5799 0.0309092 0
M  V30 10213 N 979.567 4.63119 0.0868393 0
M  V30 10214 C 980.302 5.734 -0.00717446 0
M  V30 10215 N 979.798 6.92628 -0.154144 0
M  V30 10216 N 981.591 5.62078 0.0491763 0
M  V30 10217 H 973.742 1.88176 -0.985058 0
M  V30 10218 H 976.005 0.867051 -0.383309 0
M  V30 10219 H 975.711 3.41004 -0.86075 0
M  V30 10220 H 975.585 3.67029 0.870023 0
M  V30 10221 H 977.972 2.71834 1.14849 0
M  V30 10222 H 978.053 2.48574 -0.603697 0
M  V30 10223 H 977.697 4.99303 -0.930526 0
M  V30 10224 H 977.627 5.19895 0.837664 0
M  V30 10225 H 980.118 3.77374 0.199245 0
M  V30 10226 H 980.431 7.72492 -0.218296 0
M  V30 10227 H 978.776 6.94742 -0.189372 0
M  V30 10228 H 981.967 4.67817 0.162626 0
M  V30 10229 H 982.14 6.47994 -0.0275478 0
M  V30 10230 N 975.546 -0.211634 1.56173 0
M  V30 10231 C 976.494 -1.28188 1.94089 0
M  V30 10232 C 977.488 -1.47999 0.824167 0
M  V30 10233 O 978.694 -1.49056 1.00907 0
M  V30 10234 H 975.069 -0.42999 0.616938 0
M  V30 10235 H 977.04 -0.934962 2.83374 0
M  V30 10236 C 975.789 -2.62294 2.28248 0
M  V30 10237 H 975.112 -2.4786 3.13696 0
M  V30 10238 H 976.552 -3.35967 2.58655 0
M  V30 10239 C 975.011 -3.18049 1.11113 0
M  V30 10240 O 975.541 -3.99923 0.377458 0
M  V30 10241 N 973.747 -2.76561 0.892321 0
M  V30 10242 H 973.294 -2.10088 1.49067 0
M  V30 10243 H 973.252 -3.14206 0.110344 0
M  V30 10244 N 977.024 -1.50153 -0.478725 0
M  V30 10245 C 977.987 -1.67916 -1.56003 0
M  V30 10246 C 978.987 -0.550111 -1.51097 0
M  V30 10247 O 980.177 -0.817001 -1.53853 0
M  V30 10248 C 977.309 -1.6973 -2.95643 0
M  V30 10249 H 978.502 -2.6438 -1.41573 0
M  V30 10250 H 976.055 -1.39519 -0.704565 0
M  V30 10251 H 976.79 -0.749306 -3.15525 0
M  V30 10252 H 976.575 -2.51745 -3.00611 0
M  V30 10253 H 978.065 -1.85453 -3.74162 0
M  V30 10254 N 978.502 0.731368 -1.39602 0
M  V30 10255 C 979.913 1.30981 -1.33045 0
M  V30 10256 C 980.264 1.962 0.00349918 0
M  V30 10257 O 979.389 1.96539 0.905615 0
M  V30 10258 C 979.984 2.3817 -2.40958 0
M  V30 10259 C 978.543 2.91678 -2.3791 0
M  V30 10260 C 977.69 1.65286 -2.22656 0
M  V30 10261 H 980.641 0.528615 -1.49637 0
M  V30 10262 H 980.662 3.18645 -2.07955 0
M  V30 10263 H 980.174 1.90673 -3.38032 0
M  V30 10264 H 978.275 3.43446 -1.44485 0
M  V30 10265 H 978.388 3.44545 -3.32904 0
M  V30 10266 H 976.752 1.89759 -1.69893 0
M  V30 10267 H 977.535 1.19836 -3.21705 0
M  V30 10268 N 979.98 1.24838 0.961938 0
M  V30 10269 C 981.208 1.11871 1.74047 0
M  V30 10270 C 981.623 -0.328209 1.85925 0
M  V30 10271 O 980.98 -1.22616 1.35173 0
M  V30 10272 C 981.031 1.75931 3.15801 0
M  V30 10273 O 980.752 3.14967 3.04512 0
M  V30 10274 C 982.253 1.68649 4.09966 0
M  V30 10275 H 979.473 0.390569 0.545616 0
M  V30 10276 H 982.017 1.65058 1.20732 0
M  V30 10277 H 980.172 1.26733 3.66084 0
M  V30 10278 H 980.586 3.46349 3.93882 0
M  V30 10279 H 982.06 2.18144 5.07067 0
M  V30 10280 H 982.537 0.648831 4.34381 0
M  V30 10281 H 983.143 2.17301 3.65596 0
M  V30 10282 N 981.458 -1.16348 1.06306 0
M  V30 10283 C 982.869 -1.68491 0.80422 0
M  V30 10284 C 983.22 -1.84327 -0.672159 0
M  V30 10285 O 982.345 -1.53892 -1.52139 0
M  V30 10286 C 982.94 -3.06048 1.45328 0
M  V30 10287 C 981.499 -3.55311 1.24221 0
M  V30 10288 C 980.646 -2.31291 1.5297 0
M  V30 10289 H 983.597 -1.00708 1.22652 0
M  V30 10290 H 983.618 -3.70451 0.868674 0
M  V30 10291 H 983.13 -2.9449 2.52779 0
M  V30 10292 H 981.231 -3.72128 0.187447 0
M  V30 10293 H 981.344 -4.37397 1.95502 0
M  V30 10294 H 979.708 -2.3631 0.950241 0
M  V30 10295 H 980.491 -2.22331 2.6158 0
M  V30 10296 N 982.937 -0.845659 -1.3299 0
M  V30 10297 C 984.348 -0.50048 -1.79867 0
M  V30 10298 C 984.699 0.981027 -1.69913 0
M  V30 10299 O 983.824 1.76477 -1.25239 0
M  V30 10300 C 984.419 -0.901679 -3.26581 0
M  V30 10301 C 982.978 -0.608536 -3.71448 0
M  V30 10302 C 982.125 -1.10632 -2.54275 0
M  V30 10303 H 985.076 -1.03372 -1.20416 0
M  V30 10304 H 985.097 -0.214433 -3.79895 0
M  V30 10305 H 984.609 -1.97998 -3.33794 0
M  V30 10306 H 982.71 0.459416 -3.69757 0
M  V30 10307 H 982.823 -1.16853 -4.64631 0
M  V30 10308 H 981.187 -0.526925 -2.4919 0
M  V30 10309 H 981.97 -2.19154 -2.64247 0
M  V30 10310 N 984.415 1.45619 -0.602734 0
M  V30 10311 C 985.362 2.30493 0.118944 0
M  V30 10312 C 986.332 1.41816 0.864723 0
M  V30 10313 O 987.517 1.7075 0.851424 0
M  V30 10314 C 984.657 3.2664 1.11356 0
M  V30 10315 C 983.77 4.3042 0.369161 0
M  V30 10316 C 982.905 5.13678 1.35307 0
M  V30 10317 C 981.944 6.09189 0.596207 0
M  V30 10318 N 981.081 6.85245 1.52916 0
M  V30 10319 H 985.921 2.91672 -0.610836 0
M  V30 10320 H 983.458 1.43731 -0.313032 0
M  V30 10321 H 985.416 3.80846 1.7033 0
M  V30 10322 H 984.046 2.67225 1.81081 0
M  V30 10323 H 983.098 3.78913 -0.335994 0
M  V30 10324 H 984.41 4.98307 -0.221603 0
M  V30 10325 H 983.564 5.7226 2.01502 0
M  V30 10326 H 982.303 4.45798 1.97777 0
M  V30 10327 H 981.308 5.49743 -0.0793984 0
M  V30 10328 H 982.533 6.79096 -0.0233734 0
M  V30 10329 H 980.479 6.20058 2.14159 0
M  V30 10330 H 980.396 7.49467 0.991713 0
M  V30 10331 H 981.664 7.48371 2.18083 0
M  V30 10332 N 985.893 0.34162 1.53853 0
M  V30 10333 C 987.309 -0.0103769 1.59597 0
M  V30 10334 C 987.509 -1.48897 1.35764 0
M  V30 10335 O 986.565 -2.24743 1.15095 0
M  V30 10336 C 987.878 0.424067 2.97695 0
M  V30 10337 C 989.426 0.376247 3.1073 0
M  V30 10338 C 989.901 0.786129 4.51203 0
M  V30 10339 N 991.392 0.74024 4.57247 0
M  V30 10340 C 992.127 1.02937 5.64085 0
M  V30 10341 N 991.623 1.38655 6.78783 0
M  V30 10342 N 993.416 0.953734 5.5395 0
M  V30 10343 H 985.567 1.30477 1.67599 0
M  V30 10344 H 987.83 0.531753 0.78482 0
M  V30 10345 H 987.536 1.45493 3.20195 0
M  V30 10346 H 987.41 -0.201713 3.7666 0
M  V30 10347 H 989.797 -0.645441 2.87955 0
M  V30 10348 H 989.878 1.0372 2.33828 0
M  V30 10349 H 989.522 1.80582 4.74713 0
M  V30 10350 H 989.452 0.102671 5.265 0
M  V30 10351 H 991.943 0.476763 3.7488 0
M  V30 10352 H 992.256 1.59206 7.56223 0
M  V30 10353 H 990.601 1.42498 6.80235 0
M  V30 10354 H 993.792 0.674044 4.63222 0
M  V30 10355 H 993.965 1.18241 6.37121 0
M  V30 10356 N 987.371 -1.57444 0.0701946 0
M  V30 10357 C 988.596 -1.98171 -0.61181 0
M  V30 10358 C 989.021 -0.94823 -1.62451 0
M  V30 10359 O 988.379 0.0863553 -1.81094 0
M  V30 10360 C 988.427 -3.37934 -1.2583 0
M  V30 10361 O 987.531 -3.37207 -2.37414 0
M  V30 10362 H 986.872 -0.645056 -0.157477 0
M  V30 10363 H 989.402 -2.04091 0.144235 0
M  V30 10364 H 989.412 -3.75083 -1.60552 0
M  V30 10365 H 988.087 -4.12684 -0.516234 0
M  V30 10366 H 986.664 -3.11826 -2.04497 0
M  V30 10367 N 988.849 0.203349 -1.56283 0
M  V30 10368 C 990.074 0.945548 -1.84592 0
M  V30 10369 C 990.499 1.7641 -0.652772 0
M  V30 10370 O 989.857 1.76867 0.398468 0
M  V30 10371 C 989.905 1.82416 -3.11057 0
M  V30 10372 O 989.009 2.92191 -2.9103 0
M  V30 10373 H 988.35 0.266739 -0.608068 0
M  V30 10374 H 990.88 0.211158 -2.03507 0
M  V30 10375 H 990.89 2.23044 -3.41636 0
M  V30 10376 H 989.565 1.22267 -3.97522 0
M  V30 10377 H 988.142 2.55378 -2.71728 0
M  V30 10378 N 990.327 1.50405 0.470755 0
M  V30 10379 C 991.552 1.65442 1.25075 0
M  V30 10380 C 991.977 0.337612 1.85045 0
M  V30 10381 O 991.335 -0.698555 1.67302 0
M  V30 10382 C 991.383 2.74793 2.33498 0
M  V30 10383 O 990.487 2.36069 3.3815 0
M  V30 10384 H 989.828 0.552728 0.367951 0
M  V30 10385 H 992.358 1.96782 0.560177 0
M  V30 10386 H 992.368 2.97879 2.78804 0
M  V30 10387 H 991.043 3.70363 1.8922 0
M  V30 10388 H 989.62 2.2343 2.98552 0
M  V30 10389 N 991.805 -0.723954 1.39988 0
M  V30 10390 C 993.052 -1.48371 1.37812 0
M  V30 10391 C 993.38 -1.94487 -0.0223285 0
M  V30 10392 O 992.635 -1.67906 -1.00529 0
M  V30 10393 C 992.934 -2.73004 2.30659 0
M  V30 10394 C 992.6 -2.45698 3.78078 0
M  V30 10395 C 991.262 -2.37961 4.18244 0
M  V30 10396 C 993.614 -2.22601 4.71273 0
M  V30 10397 C 990.942 -2.05183 5.49652 0
M  V30 10398 C 993.294 -1.91339 6.0297 0
M  V30 10399 C 991.958 -1.82078 6.42187 0
M  V30 10400 H 991.228 -0.542929 0.504291 0
M  V30 10401 H 993.875 -0.829986 1.72579 0
M  V30 10402 H 992.18 -3.43174 1.89048 0
M  V30 10403 H 993.877 -3.31068 2.26263 0
M  V30 10404 H 990.467 -2.52603 3.46251 0
M  V30 10405 H 994.651 -2.2754 4.41066 0
M  V30 10406 H 989.907 -1.96544 5.78948 0
M  V30 10407 H 994.081 -1.72479 6.74703 0
M  V30 10408 H 991.708 -1.56446 7.43928 0
M  V30 10409 N 993.283 -1.25346 -0.955304 0
M  V30 10410 C 994.699 -1.02154 -1.22625 0
M  V30 10411 C 994.899 0.26206 -1.99789 0
M  V30 10412 O 993.955 0.974958 -2.32918 0
M  V30 10413 C 995.268 -2.2443 -2.00129 0
M  V30 10414 C 996.816 -2.29185 -2.13174 0
M  V30 10415 C 997.291 -3.51117 -2.94077 0
M  V30 10416 N 998.782 -3.51509 -3.01655 0
M  V30 10417 C 999.517 -4.42517 -3.64645 0
M  V30 10418 N 999.013 -5.43796 -4.29252 0
M  V30 10419 N 1000.81 -4.302 -3.61779 0
M  V30 10420 H 992.957 -2.07812 -0.439071 0
M  V30 10421 H 995.22 -0.91258 -0.256715 0
M  V30 10422 H 994.926 -3.17717 -1.50827 0
M  V30 10423 H 994.8 -2.27548 -3.00835 0
M  V30 10424 H 997.187 -1.36422 -2.61674 0
M  V30 10425 H 997.268 -2.30087 -1.11775 0
M  V30 10426 H 996.912 -4.44201 -2.46268 0
M  V30 10427 H 996.842 -3.4746 -3.95701 0
M  V30 10428 H 999.333 -2.78245 -2.55711 0
M  V30 10429 H 999.646 -6.09453 -4.75171 0
M  V30 10430 H 997.991 -5.4767 -4.27882 0
M  V30 10431 H 1001.18 -3.50304 -3.10491 0
M  V30 10432 H 1001.36 -5.01323 -4.10584 0
M  V30 10433 N 994.761 1.15782 -1.06922 0
M  V30 10434 C 995.671 2.24008 -0.696948 0
M  V30 10435 C 996.687 1.71569 0.289862 0
M  V30 10436 O 997.863 2.00929 0.137585 0
M  V30 10437 C 994.928 3.46568 -0.0957895 0
M  V30 10438 C 993.989 4.14017 -1.13528 0
M  V30 10439 C 993.222 5.30725 -0.562713 0
M  V30 10440 O 993.445 5.66992 0.62259 0
M  V30 10441 O 992.379 5.87572 -1.30549 0
M  V30 10442 H 996.205 2.58174 -1.59938 0
M  V30 10443 H 993.79 1.2342 -0.841889 0
M  V30 10444 H 995.672 4.20731 0.237407 0
M  V30 10445 H 994.347 3.14161 0.780027 0
M  V30 10446 H 993.254 3.41795 -1.52076 0
M  V30 10447 H 994.587 4.50493 -1.98285 0
M  V30 10448 N 996.239 0.8527 1.3254 0
M  V30 10449 C 997.172 0.240733 2.26927 0
M  V30 10450 C 998.15 -0.620158 1.50309 0
M  V30 10451 O 999.334 -0.577389 1.79439 0
M  V30 10452 C 996.461 -0.660644 3.32195 0
M  V30 10453 C 995.507 0.126604 4.26312 0
M  V30 10454 S 996.34 1.49372 5.14245 0
M  V30 10455 C 997.496 0.598002 6.23037 0
M  V30 10456 H 997.729 1.04088 2.78483 0
M  V30 10457 H 995.262 0.650222 1.40041 0
M  V30 10458 H 997.22 -1.17506 3.93323 0
M  V30 10459 H 995.881 -1.43458 2.79426 0
M  V30 10460 H 995.074 -0.559851 5.00881 0
M  V30 10461 H 994.676 0.572536 3.69592 0
M  V30 10462 H 996.968 -0.198555 6.77209 0
M  V30 10463 H 997.911 1.31428 6.95796 0
M  V30 10464 H 998.319 0.173211 5.64234 0
M  V30 10465 N 997.718 -1.45297 0.610449 0
M  V30 10466 C 998.628 -2.34349 -0.108475 0
M  V30 10467 C 999.644 -1.51409 -0.857397 0
M  V30 10468 O 1000.82 -1.84202 -0.814337 0
M  V30 10469 C 997.885 -3.29072 -1.09144 0
M  V30 10470 C 996.946 -4.27918 -0.344165 0
M  V30 10471 C 996.179 -5.18116 -1.28031 0
M  V30 10472 O 996.402 -5.11802 -2.51824 0
M  V30 10473 O 995.336 -5.96879 -0.775821 0
M  V30 10474 H 999.162 -2.97232 0.623421 0
M  V30 10475 H 996.747 -1.44728 0.3707 0
M  V30 10476 H 998.629 -3.87433 -1.65751 0
M  V30 10477 H 997.304 -2.68749 -1.80431 0
M  V30 10478 H 996.211 -3.73164 0.264437 0
M  V30 10479 H 997.544 -4.91104 0.328275 0
M  V30 10480 N 999.196 -0.349774 -1.5367 0
M  V30 10481 C 1000.14 0.519396 -2.26727 0
M  V30 10482 C 1001.14 1.09673 -1.29105 0
M  V30 10483 O 1002.34 1.04176 -1.46791 0
M  V30 10484 H 998.719 0.186192 -0.728585 0
M  V30 10485 H 1000.69 -0.118736 -2.98164 0
M  V30 10486 C 999.439 1.65535 -3.05767 0
M  V30 10487 H 998.762 1.22038 -3.80719 0
M  V30 10488 H 1000.2 2.23856 -3.6009 0
M  V30 10489 C 998.661 2.58844 -2.15642 0
M  V30 10490 O 999.191 3.61254 -1.75665 0
M  V30 10491 N 997.397 2.27671 -1.80595 0
M  V30 10492 H 996.944 1.44429 -2.13302 0
M  V30 10493 H 996.902 2.90359 -1.20577 0
M  V30 10494 N 1000.67 1.57404 -0.0785433 0
M  V30 10495 C 1001.61 2.101 0.916013 0
M  V30 10496 C 1002.62 1.03459 1.25698 0
M  V30 10497 O 1003.81 1.30954 1.21299 0
M  V30 10498 C 1000.91 2.55202 2.22992 0
M  V30 10499 C 1000.08 3.85491 2.06678 0
M  V30 10500 C 999.14 4.16614 3.21433 0
M  V30 10501 O 998.166 4.86105 2.96126 0
M  V30 10502 N 999.368 3.70697 4.46726 0
M  V30 10503 H 1002.13 2.96054 0.466059 0
M  V30 10504 H 999.694 1.61546 0.107006 0
M  V30 10505 H 1001.69 2.7308 2.9868 0
M  V30 10506 H 1000.26 1.74348 2.59464 0
M  V30 10507 H 999.476 3.76925 1.15417 0
M  V30 10508 H 1000.76 4.70759 1.93036 0
M  V30 10509 H 1000.16 3.14571 4.70172 0
M  V30 10510 H 998.719 3.93762 5.19418 0
M  V30 10511 N 1002.15 -0.195058 1.56388 0
M  V30 10512 C 1003.56 -0.75973 1.70543 0
M  V30 10513 C 1003.91 -1.83849 0.685118 0
M  V30 10514 O 1003.04 -2.15819 -0.158457 0
M  V30 10515 C 1003.63 -1.38485 3.09204 0
M  V30 10516 C 1002.19 -1.89661 3.25124 0
M  V30 10517 C 1001.34 -0.766563 2.66494 0
M  V30 10518 H 1004.29 0.0300148 1.58672 0
M  V30 10519 H 1004.31 -2.25424 3.06536 0
M  V30 10520 H 1003.82 -0.599479 3.83442 0
M  V30 10521 H 1001.92 -2.70917 2.55802 0
M  V30 10522 H 1002.04 -2.05837 4.32629 0
M  V30 10523 H 1000.4 -1.18086 2.25672 0
M  V30 10524 H 1001.18 0.00657102 3.43299 0
M  V30 10525 N 1003.63 -1.50653 -0.462772 0
M  V30 10526 C 1004.58 -1.66509 -1.55752 0
M  V30 10527 C 1005.56 -0.519508 -1.52282 0
M  V30 10528 O 1006.76 -0.774296 -1.59166 0
M  V30 10529 C 1003.88 -1.77023 -2.94139 0
M  V30 10530 C 1002.97 -2.97284 -3.02461 0
M  V30 10531 N 1003.36 -4.20843 -2.80579 0
M  V30 10532 C 1001.66 -2.96014 -3.33604 0
M  V30 10533 C 1002.36 -5.01886 -2.94084 0
M  V30 10534 N 1001.34 -4.3601 -3.24648 0
M  V30 10535 H 1005.14 -2.59727 -1.37546 0
M  V30 10536 H 1002.65 -1.47951 -0.669653 0
M  V30 10537 H 1004.65 -1.86488 -3.72864 0
M  V30 10538 H 1003.31 -0.849688 -3.13385 0
M  V30 10539 H 1004.32 -4.50206 -2.55998 0
M  V30 10540 H 1001 -2.13493 -3.58786 0
M  V30 10541 H 1002.39 -6.10164 -2.81334 0
M  V30 10542 N 1005.11 0.71652 -1.4037 0
M  V30 10543 C 1006.06 1.8306 -1.40562 0
M  V30 10544 C 1007.03 1.64009 -0.262697 0
M  V30 10545 O 1008.21 1.85157 -0.460619 0
M  V30 10546 C 1005.35 3.2076 -1.27307 0
M  V30 10547 C 1004.46 3.51389 -2.51296 0
M  V30 10548 C 1003.6 4.78589 -2.30491 0
M  V30 10549 C 1002.64 5.02119 -3.50061 0
M  V30 10550 N 1001.77 6.20533 -3.28457 0
M  V30 10551 H 1006.61 1.82231 -2.35788 0
M  V30 10552 H 1004.15 0.890198 -1.17106 0
M  V30 10553 H 1006.11 4.00274 -1.17628 0
M  V30 10554 H 1004.74 3.2082 -0.357005 0
M  V30 10555 H 1003.79 2.66436 -2.71507 0
M  V30 10556 H 1005.1 3.64686 -3.40302 0
M  V30 10557 H 1004.26 5.66119 -2.1816 0
M  V30 10558 H 1003 4.67499 -1.38909 0
M  V30 10559 H 1002 4.13044 -3.6287 0
M  V30 10560 H 1003.23 5.15082 -4.42569 0
M  V30 10561 H 1001.17 6.10695 -2.39556 0
M  V30 10562 H 1001.09 6.34502 -4.11027 0
M  V30 10563 H 1002.36 7.10853 -3.19857 0
M  V30 10564 N 1006.59 1.25851 0.948643 0
M  V30 10565 C 1007.53 1.06759 2.04625 0
M  V30 10566 C 1008.5 -0.0251144 1.66081 0
M  V30 10567 O 1009.69 0.133221 1.90334 0
M  V30 10568 C 1006.83 0.698724 3.37952 0
M  V30 10569 C 1005.94 1.8669 3.89578 0
M  V30 10570 C 1005.08 1.44184 5.11258 0
M  V30 10571 C 1004.12 2.57878 5.55126 0
M  V30 10572 N 1003.25 2.16106 6.68014 0
M  V30 10573 H 1008.09 2.00691 2.20289 0
M  V30 10574 H 1005.63 0.999327 1.07944 0
M  V30 10575 H 1007.59 0.465788 4.14592 0
M  V30 10576 H 1006.22 -0.203618 3.22157 0
M  V30 10577 H 1005.27 2.21298 3.09405 0
M  V30 10578 H 1006.58 2.72051 4.18079 0
M  V30 10579 H 1005.74 1.16891 5.95333 0
M  V30 10580 H 1004.47 0.559035 4.84485 0
M  V30 10581 H 1003.48 2.85909 4.69612 0
M  V30 10582 H 1004.7 3.46747 5.83904 0
M  V30 10583 H 1002.65 1.3025 6.42939 0
M  V30 10584 H 1002.57 2.95012 6.96063 0
M  V30 10585 H 1003.84 1.92005 7.55483 0
M  V30 10586 N 1008.06 -1.15214 1.07534 0
M  V30 10587 C 1009.29 -1.89647 0.819614 0
M  V30 10588 C 1009.7 -1.78365 -0.631072 0
M  V30 10589 O 1009.05 -1.1346 -1.44474 0
M  V30 10590 C 1009.11 -3.40573 1.1511 0
M  V30 10591 C 1008.77 -3.7564 2.60276 0
M  V30 10592 C 1009.77 -3.76507 3.58523 0
M  V30 10593 C 1007.45 -4.05891 2.95901 0
M  V30 10594 C 1009.45 -4.07133 4.9043 0
M  V30 10595 C 1007.13 -4.36182 4.28005 0
M  V30 10596 C 1008.13 -4.36785 5.25079 0
M  V30 10597 O 1007.82 -4.66348 6.54809 0
M  V30 10598 H 1007.55 -0.607836 0.295822 0
M  V30 10599 H 1010.11 -1.46895 1.43565 0
M  V30 10600 H 1008.34 -3.83734 0.478033 0
M  V30 10601 H 1010.03 -3.96299 0.877615 0
M  V30 10602 H 1010.79 -3.53233 3.32342 0
M  V30 10603 H 1006.67 -4.0458 2.20989 0
M  V30 10604 H 1010.21 -4.07519 5.66193 0
M  V30 10605 H 1006.11 -4.58924 4.53937 0
M  V30 10606 H 1006.88 -4.84105 6.59988 0
M  V30 10607 N 1009.54 -0.859717 -1.32086 0
M  V30 10608 C 1010.45 -0.31108 -2.32528 0
M  V30 10609 C 1011.47 0.573714 -1.6427 0
M  V30 10610 O 1012.64 0.472878 -1.9577 0
M  V30 10611 C 1009.71 0.487256 -3.43259 0
M  V30 10612 C 1008.77 -0.424279 -4.27198 0
M  V30 10613 C 1008 0.336051 -5.32641 0
M  V30 10614 O 1008.23 1.56541 -5.48499 0
M  V30 10615 O 1007.16 -0.300777 -6.01148 0
M  V30 10616 H 1010.99 -1.14336 -2.81355 0
M  V30 10617 H 1008.57 -0.622794 -1.358 0
M  V30 10618 H 1010.45 0.940203 -4.10777 0
M  V30 10619 H 1009.13 1.29626 -2.96612 0
M  V30 10620 H 1008.04 -0.925509 -3.62471 0
M  V30 10621 H 1009.37 -1.1986 -4.77383 0
M  V30 10622 N 1011.02 1.44971 -0.618145 0
M  V30 10623 C 1011.95 2.33357 0.0815955 0
M  V30 10624 C 1012.93 1.47451 0.848072 0
M  V30 10625 O 1014.12 1.762 0.816532 0
M  V30 10626 C 1011.25 3.30324 1.07253 0
M  V30 10627 C 1010.2 4.25948 0.418563 0
M  V30 10628 C 1009.53 5.12685 1.51849 0
M  V30 10629 C 1010.83 5.18024 -0.66697 0
M  V30 10630 H 1012.52 2.92115 -0.656442 0
M  V30 10631 H 1010.07 1.40465 -0.317129 0
M  V30 10632 H 1012.02 3.91033 1.57069 0
M  V30 10633 H 1010.74 2.69748 1.8413 0
M  V30 10634 H 1009.4 3.66553 -0.0588308 0
M  V30 10635 H 1009.05 4.4847 2.2778 0
M  V30 10636 H 1008.75 5.7747 1.08637 0
M  V30 10637 H 1010.27 5.76264 2.01871 0
M  V30 10638 H 1011.69 5.72744 -0.252448 0
M  V30 10639 H 1010.09 5.91343 -1.02146 0
M  V30 10640 H 1011.16 4.59817 -1.53936 0
M  V30 10641 N 1012.5 0.357919 1.53482 0
M  V30 10642 C 1013.73 -0.23514 2.05559 0
M  V30 10643 C 1014.14 -1.43068 1.23195 0
M  V30 10644 O 1013.5 -1.80481 0.270741 0
M  V30 10645 C 1013.55 -0.636147 3.55859 0
M  V30 10646 O 1013.27 0.511864 4.35099 0
M  V30 10647 C 1014.77 -1.28841 4.24164 0
M  V30 10648 H 1011.99 -0.0428446 0.669631 0
M  V30 10649 H 1014.54 0.51407 1.97933 0
M  V30 10650 H 1012.69 -1.33528 3.63661 0
M  V30 10651 H 1013.1 0.189328 5.24158 0
M  V30 10652 H 1014.58 -1.51962 5.30671 0
M  V30 10653 H 1015.06 -2.24638 3.77405 0
M  V30 10654 H 1015.66 -0.630914 4.20594 0
M  V30 10655 N 1013.98 -1.5736 0.0868897 0
M  V30 10656 C 1015.22 -1.9367 -0.577598 0
M  V30 10657 C 1015.55 -0.968844 -1.69229 0
M  V30 10658 O 1014.82 -0.0195061 -1.9589 0
M  V30 10659 H 1013.4 -0.714983 -0.216353 0
M  V30 10660 H 1016.06 -1.94335 0.148294 0
M  V30 10661 H 1015.15 -2.95877 -0.993128 0
M  V30 10662 N 1015.45 0.186762 -1.56489 0
M  V30 10663 C 1016.4 1.25084 -1.96104 0
M  V30 10664 C 1017.4 1.4667 -0.847609 0
M  V30 10665 O 1018.6 1.47432 -1.03266 0
M  V30 10666 H 1014.98 0.420121 -0.623701 0
M  V30 10667 H 1016.95 0.889761 -2.84826 0
M  V30 10668 C 1015.7 2.5863 -2.32392 0
M  V30 10669 H 1015.02 2.42838 -3.176 0
M  V30 10670 H 1016.46 3.3181 -2.63967 0
M  V30 10671 C 1014.92 3.16241 -1.16159 0
M  V30 10672 O 1015.45 3.99272 -0.441034 0
M  V30 10673 N 1013.66 2.75106 -0.936206 0
M  V30 10674 H 1013.2 2.0769 -1.5239 0
M  V30 10675 H 1013.16 3.13991 -0.160317 0
M  V30 10676 N 1016.93 1.50896 0.454776 0
M  V30 10677 C 1018.18 1.62699 1.20562 0
M  V30 10678 C 1018.51 0.334943 1.91594 0
M  V30 10679 O 1017.76 -0.680106 1.83502 0
M  V30 10680 C 1018.06 2.76839 2.26042 0
M  V30 10681 C 1017.73 4.16745 1.72147 0
M  V30 10682 C 1016.39 4.54809 1.5717 0
M  V30 10683 C 1018.74 5.04118 1.32341 0
M  V30 10684 C 1016.07 5.7797 1.00835 0
M  V30 10685 C 1018.42 6.27842 0.774419 0
M  V30 10686 C 1017.09 6.64694 0.611415 0
M  V30 10687 H 1016.36 0.595358 0.441169 0
M  V30 10688 H 1019 1.84879 0.499202 0
M  V30 10689 H 1017.31 2.48812 3.02655 0
M  V30 10690 H 1019 2.83173 2.83926 0
M  V30 10691 H 1015.59 3.86725 1.84775 0
M  V30 10692 H 1019.78 4.75331 1.42739 0
M  V30 10693 H 1015.03 6.05183 0.869669 0
M  V30 10694 H 1019.21 6.94896 0.457389 0
M  V30 10695 H 1016.84 7.60004 0.172751 0
M  V30 10696 N 1018.41 -0.709066 1.40748 0
M  V30 10697 C 1019.64 -1.50313 1.42901 0
M  V30 10698 C 1020.06 -1.88072 0.032213 0
M  V30 10699 O 1019.42 -1.53716 -0.96131 0
M  V30 10700 C 1019.47 -2.75074 2.33166 0
M  V30 10701 O 1018.57 -3.72036 1.7794 0
M  V30 10702 H 1017.91 -0.452934 0.485538 0
M  V30 10703 H 1020.44 -0.872712 1.85054 0
M  V30 10704 H 1020.45 -3.23532 2.48578 0
M  V30 10705 H 1019.13 -2.46927 3.34664 0
M  V30 10706 H 1017.7 -3.30911 1.71908 0
M  V30 10707 N 1019.89 -1.26353 -0.941956 0
M  V30 10708 C 1021.11 -1.14731 -1.72776 0
M  V30 10709 C 1021.54 0.293766 -1.85792 0
M  V30 10710 O 1020.9 1.21284 -1.34759 0
M  V30 10711 C 1020.95 -1.82041 -3.11277 0
M  V30 10712 O 1020.05 -1.10867 -3.97218 0
M  V30 10713 H 1019.39 -0.399823 -0.53013 0
M  V30 10714 H 1021.92 -1.67157 -1.17981 0
M  V30 10715 H 1021.93 -1.88834 -3.61671 0
M  V30 10716 H 1020.61 -2.86879 -3.0112 0
M  V30 10717 H 1019.18 -1.12044 -3.55669 0
M  V30 10718 N 1021.37 1.14642 -1.08144 0
M  V30 10719 C 1022.61 1.85892 -0.810683 0
M  V30 10720 C 1022.95 1.82575 0.661821 0
M  V30 10721 O 1022.22 1.25454 1.48632 0
M  V30 10722 C 1022.5 3.34647 -1.32979 0
M  V30 10723 C 1022.36 3.46551 -2.86744 0
M  V30 10724 C 1023.68 4.29661 -0.952864 0
M  V30 10725 H 1020.8 0.674963 -0.295963 0
M  V30 10726 H 1023.44 1.3464 -1.3406 0
M  V30 10727 H 1021.59 3.78425 -0.87903 0
M  V30 10728 H 1023.26 3.11579 -3.40171 0
M  V30 10729 H 1021.5 2.87849 -3.24539 0
M  V30 10730 H 1022.17 4.51101 -3.18138 0
M  V30 10731 H 1024.65 3.93885 -1.34141 0
M  V30 10732 H 1023.53 5.32209 -1.34331 0
M  V30 10733 H 1023.79 4.41877 0.140392 0
M  V30 10734 N 1022.85 0.866709 1.31628 0
M  V30 10735 C 1023.81 0.325041 2.26883 0
M  V30 10736 C 1024.81 -0.522133 1.52087 0
M  V30 10737 O 1026 -0.331908 1.71009 0
M  V30 10738 C 1023.13 -0.538756 3.36616 0
M  V30 10739 H 1024.32 1.16592 2.76308 0
M  V30 10740 H 1021.88 0.642029 1.42505 0
M  V30 10741 H 1022.61 -1.40096 2.92478 0
M  V30 10742 H 1022.4 0.0678115 3.92041 0
M  V30 10743 H 1023.89 -0.910123 4.07562 0
M  V30 10744 N 1024.32 -1.44642 0.625825 0
M  V30 10745 C 1025.55 -2.06971 0.133373 0
M  V30 10746 C 1025.97 -1.46421 -1.18078 0
M  V30 10747 O 1025.33 -0.563676 -1.72315 0
M  V30 10748 C 1025.38 -3.6059 0.0265097 0
M  V30 10749 O 1024.48 -3.99615 -1.01889 0
M  V30 10750 H 1023.82 -0.658873 0.0823568 0
M  V30 10751 H 1026.35 -1.85601 0.861002 0
M  V30 10752 H 1026.36 -4.07663 -0.1658 0
M  V30 10753 H 1025.04 -4.04043 0.985986 0
M  V30 10754 H 1023.62 -3.64183 -0.801577 0
M  V30 10755 N 1025.8 -0.366053 -1.5329 0
M  V30 10756 C 1026.73 0.47211 -2.28677 0
M  V30 10757 C 1027.71 1.08353 -1.31125 0
M  V30 10758 O 1028.9 1.10069 -1.59995 0
M  V30 10759 C 1026.03 1.61174 -3.07637 0
M  V30 10760 C 1024.98 1.12755 -4.12881 0
M  V30 10761 C 1024.31 2.35745 -4.79925 0
M  V30 10762 C 1025.61 0.211954 -5.2187 0
M  V30 10763 H 1027.3 -0.156838 -2.98989 0
M  V30 10764 H 1024.85 -0.0768709 -1.43795 0
M  V30 10765 H 1026.8 2.20473 -3.59123 0
M  V30 10766 H 1025.52 2.26793 -2.35016 0
M  V30 10767 H 1024.18 0.557234 -3.6234 0
M  V30 10768 H 1023.83 2.99821 -4.03877 0
M  V30 10769 H 1023.53 2.04019 -5.51044 0
M  V30 10770 H 1025.06 2.95729 -5.34207 0
M  V30 10771 H 1026.47 0.71244 -5.68856 0
M  V30 10772 H 1024.87 -0.0144501 -6.00098 0
M  V30 10773 H 1025.94 -0.745753 -4.79131 0
M  V30 10774 N 1027.28 1.57312 -0.0952337 0
M  V30 10775 C 1028.21 2.11059 0.893678 0
M  V30 10776 C 1029.22 1.04787 1.24594 0
M  V30 10777 O 1030.41 1.32233 1.19903 0
M  V30 10778 C 1027.51 2.57552 2.20272 0
M  V30 10779 C 1026.69 3.87661 2.02578 0
M  V30 10780 C 1025.75 4.2 3.16996 0
M  V30 10781 O 1024.77 4.89219 2.90953 0
M  V30 10782 N 1025.97 3.75414 4.42769 0
M  V30 10783 H 1028.74 2.96532 0.434632 0
M  V30 10784 H 1026.3 1.6165 0.0898661 0
M  V30 10785 H 1028.29 2.76232 2.95766 0
M  V30 10786 H 1026.86 1.7709 2.576 0
M  V30 10787 H 1026.08 3.78128 1.11413 0
M  V30 10788 H 1027.37 4.7278 1.88032 0
M  V30 10789 H 1026.77 3.1954 4.66809 0
M  V30 10790 H 1025.32 3.99249 5.15212 0
M  V30 10791 N 1028.76 -0.17846 1.56586 0
M  V30 10792 C 1029.71 -1.22552 1.92263 0
M  V30 10793 C 1030.69 -1.40163 0.790131 0
M  V30 10794 O 1031.88 -1.42254 1.05322 0
M  V30 10795 C 1029.01 -2.5666 2.27993 0
M  V30 10796 C 1028.1 -2.42772 3.47739 0
M  V30 10797 N 1028.49 -1.98588 4.65185 0
M  V30 10798 C 1026.79 -2.73619 3.52205 0
M  V30 10799 C 1027.49 -1.96991 5.47329 0
M  V30 10800 N 1026.46 -2.39126 4.8818 0
M  V30 10801 H 1030.27 -0.875493 2.80557 0
M  V30 10802 H 1027.78 -0.386785 1.57727 0
M  V30 10803 H 1029.78 -3.32312 2.51743 0
M  V30 10804 H 1028.44 -2.92472 1.41034 0
M  V30 10805 H 1029.45 -1.69036 4.89538 0
M  V30 10806 H 1026.13 -3.13516 2.75706 0
M  V30 10807 H 1027.52 -1.64589 6.51429 0
M  V30 10808 N 1030.24 -1.51135 -0.446768 0
M  V30 10809 C 1031.2 -1.71187 -1.52406 0
M  V30 10810 C 1032.2 -0.582037 -1.49897 0
M  V30 10811 O 1033.39 -0.849452 -1.52085 0
M  V30 10812 C 1030.52 -1.75962 -2.91976 0
M  V30 10813 H 1031.71 -2.67324 -1.35934 0
M  V30 10814 H 1029.27 -1.40982 -0.674813 0
M  V30 10815 H 1030 -0.816065 -3.13864 0
M  V30 10816 H 1029.79 -2.58065 -2.95203 0
M  V30 10817 H 1031.28 -1.93347 -3.70144 0
M  V30 10818 N 1031.71 0.701592 -1.41122 0
M  V30 10819 C 1032.99 1.45569 -1.30648 0
M  V30 10820 C 1033.37 2.10988 0.068744 0
M  V30 10821 O 1032.72 2.01228 1.08257 0
M  V30 10822 C 1032.93 2.48003 -2.45551 0
M  V30 10823 C 1034.28 3.13431 -2.86437 0
M  V30 10824 O 1035.3 2.58327 -2.45247 0
M  V30 10825 O 1034.16 4.13221 -3.57646 0
M  V30 10826 H 1031.25 0.648 -0.513834 0
M  V30 10827 H 1033.8 0.73258 -1.53073 0
M  V30 10828 H 1032.57 1.98276 -3.37346 0
M  V30 10829 H 1032.19 3.27832 -2.24971 0
M  V30 10830 N 1033.19 1.2685 0.935242 0
M  V30 10831 C 1034.44 1.12522 1.67878 0
M  V30 10832 C 1034.76 -0.330894 1.92172 0
M  V30 10833 O 1034.03 -1.23259 1.52263 0
M  V30 10834 H 1032.61 0.413418 0.622169 0
M  V30 10835 H 1035.27 1.59267 1.12339 0
M  V30 10836 H 1034.37 1.64853 2.65009 0
M  V30 10837 N 1034.67 -1.14067 1.0875 0
M  V30 10838 C 1035.92 -1.85185 0.819317 0
M  V30 10839 C 1036.25 -1.8314 -0.654969 0
M  V30 10840 O 1035.5 -1.25974 -1.49763 0
M  V30 10841 C 1035.8 -3.33273 1.29089 0
M  V30 10842 C 1035.47 -3.55504 2.77359 0
M  V30 10843 C 1034.13 -3.61279 3.17853 0
M  V30 10844 C 1036.48 -3.64041 3.72992 0
M  V30 10845 C 1033.81 -3.73119 4.52768 0
M  V30 10846 C 1036.16 -3.77407 5.07687 0
M  V30 10847 C 1034.82 -3.81433 5.47782 0
M  V30 10848 H 1034.09 -0.67764 0.299809 0
M  V30 10849 H 1036.74 -1.34713 1.36106 0
M  V30 10850 H 1035.05 -3.86049 0.668811 0
M  V30 10851 H 1036.74 -3.86734 1.06009 0
M  V30 10852 H 1033.33 -3.51659 2.45019 0
M  V30 10853 H 1037.52 -3.58866 3.42825 0
M  V30 10854 H 1032.77 -3.74499 4.83281 0
M  V30 10855 H 1036.95 -3.82956 5.81651 0
M  V30 10856 H 1034.57 -3.9036 6.52321 0
M  V30 10857 N 1036.15 -0.873678 -1.31166 0
M  V30 10858 C 1037.37 -0.500242 -2.01277 0
M  V30 10859 C 1037.8 0.900811 -1.65127 0
M  V30 10860 O 1037.16 1.59504 -0.861862 0
M  V30 10861 C 1037.2 -0.668976 -3.5434 0
M  V30 10862 O 1036.31 0.290096 -4.11378 0
M  V30 10863 H 1035.65 -0.198507 -0.633633 0
M  V30 10864 H 1038.18 -1.17811 -1.67277 0
M  V30 10865 H 1038.19 -0.563673 -4.04088 0
M  V30 10866 H 1036.86 -1.69055 -3.79991 0
M  V30 10867 H 1035.44 0.139437 -3.72639 0
M  V30 10868 N 1037.63 1.44308 -0.633487 0
M  V30 10869 C 1038.87 2.02023 -0.138917 0
M  V30 10870 C 1039.2 1.49841 1.24008 0
M  V30 10871 O 1038.46 0.673718 1.83738 0
M  V30 10872 C 1038.76 3.57316 -0.0773886 0
M  V30 10873 C 1038.42 4.28762 -1.39548 0
M  V30 10874 C 1037.08 4.47997 -1.75648 0
M  V30 10875 C 1039.44 4.69391 -2.26542 0
M  V30 10876 C 1036.76 5.05121 -2.98445 0
M  V30 10877 C 1039.12 5.27876 -3.48612 0
M  V30 10878 C 1037.78 5.45329 -3.84932 0
M  V30 10879 H 1037.05 0.739254 -0.0508333 0
M  V30 10880 H 1039.7 1.73043 -0.820271 0
M  V30 10881 H 1038 3.85724 0.687345 0
M  V30 10882 H 1039.7 3.99706 0.321837 0
M  V30 10883 H 1036.29 4.14122 -1.10456 0
M  V30 10884 H 1040.47 4.54241 -1.99946 0
M  V30 10885 H 1035.73 5.16821 -3.26658 0
M  V30 10886 H 1039.9 5.58307 -4.16253 0
M  V30 10887 H 1037.53 5.8936 -4.80166 0
M  V30 10888 N 1039.1 0.374177 1.53094 0
M  V30 10889 C 1040.33 -0.213325 2.05797 0
M  V30 10890 C 1040.75 -1.41753 1.24706 0
M  V30 10891 O 1040.1 -1.80183 0.289868 0
M  V30 10892 C 1040.16 -0.598367 3.56513 0
M  V30 10893 O 1039.88 0.557983 4.34532 0
M  V30 10894 C 1041.38 -1.24334 4.25507 0
M  V30 10895 H 1038.6 -0.0357398 0.670048 0
M  V30 10896 H 1041.14 0.535035 1.97377 0
M  V30 10897 H 1039.3 -1.29663 3.65056 0
M  V30 10898 H 1039.71 0.244911 5.23928 0
M  V30 10899 H 1041.18 -1.46325 5.32253 0
M  V30 10900 H 1041.66 -2.20622 3.79766 0
M  V30 10901 H 1042.27 -0.586269 4.2124 0
M  V30 10902 N 1040.58 -1.57259 0.103575 0
M  V30 10903 C 1041.99 -1.81816 -0.424239 0
M  V30 10904 C 1042.34 -1.01976 -1.67617 0
M  V30 10905 O 1041.47 -0.251673 -2.14932 0
M  V30 10906 C 1042.06 -3.29783 -0.776453 0
M  V30 10907 C 1040.62 -3.55074 -1.24897 0
M  V30 10908 C 1039.77 -2.76172 -0.249875 0
M  V30 10909 H 1042.72 -1.55254 0.328913 0
M  V30 10910 H 1042.74 -3.43569 -1.63526 0
M  V30 10911 H 1042.25 -3.87865 0.134906 0
M  V30 10912 H 1040.36 -3.02332 -2.17775 0
M  V30 10913 H 1040.47 -4.637 -1.20495 0
M  V30 10914 H 1038.83 -2.43902 -0.733767 0
M  V30 10915 H 1039.62 -3.37007 0.65431 0
M  V30 10916 N 1042.06 0.170153 -1.56679 0
M  V30 10917 C 1043.02 1.19443 -1.95617 0
M  V30 10918 C 1044.02 1.37118 -0.83996 0
M  V30 10919 O 1045.21 1.34504 -1.10699 0
M  V30 10920 C 1042.35 2.55926 -2.25199 0
M  V30 10921 H 1043.54 0.86095 -2.87276 0
M  V30 10922 H 1041.09 0.412646 -1.50755 0
M  V30 10923 H 1041.83 2.94286 -1.36257 0
M  V30 10924 H 1041.61 2.44464 -3.06562 0
M  V30 10925 H 1043.1 3.29742 -2.56242 0
M  V30 10926 N 1043.54 1.5137 0.438746 0
M  V30 10927 C 1044.47 1.68774 1.55074 0
M  V30 10928 C 1045.48 0.568436 1.52554 0
M  V30 10929 O 1046.67 0.842707 1.57355 0
M  V30 10930 C 1043.77 1.68592 2.9399 0
M  V30 10931 C 1042.95 2.97084 3.2103 0
M  V30 10932 C 1042 2.89108 4.39663 0
M  V30 10933 O 1041.03 3.63052 4.38385 0
M  V30 10934 N 1042.23 2.04863 5.4315 0
M  V30 10935 H 1045 2.647 1.40549 0
M  V30 10936 H 1042.56 1.49238 0.627663 0
M  V30 10937 H 1044.55 1.60826 3.71372 0
M  V30 10938 H 1043.12 0.802657 3.02119 0
M  V30 10939 H 1042.34 3.18729 2.3196 0
M  V30 10940 H 1043.63 3.82143 3.35923 0
M  V30 10941 H 1043.03 1.4416 5.47023 0
M  V30 10942 H 1041.58 2.02977 6.1939 0
M  V30 10943 N 1045.02 -0.694098 1.41492 0
M  V30 10944 C 1045.95 -1.81943 1.39389 0
M  V30 10945 C 1046.96 -1.6009 0.295836 0
M  V30 10946 O 1048.15 -1.69565 0.557658 0
M  V30 10947 C 1045.25 -3.18731 1.15167 0
M  V30 10948 C 1044.42 -3.67601 2.37041 0
M  V30 10949 C 1043.48 -4.83063 2.08654 0
M  V30 10950 O 1042.51 -4.94603 2.81704 0
M  V30 10951 N 1043.71 -5.70409 1.0777 0
M  V30 10952 H 1046.48 -1.84239 2.36381 0
M  V30 10953 H 1044.04 -0.876475 1.36123 0
M  V30 10954 H 1046.03 -3.93602 0.941264 0
M  V30 10955 H 1044.6 -3.11452 0.267673 0
M  V30 10956 H 1043.82 -2.83622 2.73774 0
M  V30 10957 H 1045.11 -3.96991 3.18239 0
M  V30 10958 H 1044.5 -5.63718 0.473123 0
M  V30 10959 H 1043.06 -6.45172 0.927177 0
M  V30 10960 N 1046.49 -1.27344 -0.928501 0
M  V30 10961 C 1047.4 -1.11812 -2.06241 0
M  V30 10962 C 1048.42 -0.048347 -1.73933 0
M  V30 10963 O 1049.6 -0.25467 -1.99783 0
M  V30 10964 C 1046.66 -0.766036 -3.38131 0
M  V30 10965 C 1045.72 -1.91659 -3.84142 0
M  V30 10966 C 1044.96 -1.58121 -5.09738 0
M  V30 10967 O 1045.18 -0.488742 -5.68302 0
M  V30 10968 O 1044.11 -2.42013 -5.51102 0
M  V30 10969 H 1047.94 -2.06967 -2.22258 0
M  V30 10970 H 1045.52 -1.06524 -1.04752 0
M  V30 10971 H 1047.41 -0.582982 -4.17348 0
M  V30 10972 H 1046.08 0.155998 -3.23324 0
M  V30 10973 H 1044.99 -2.1547 -3.05816 0
M  V30 10974 H 1046.32 -2.8188 -4.0349 0
M  V30 10975 N 1047.97 1.13488 -1.09353 0
M  V30 10976 C 1048.94 2.17066 -0.735863 0
M  V30 10977 C 1049.94 1.59086 0.234181 0
M  V30 10978 O 1051.13 1.74196 0.012463 0
M  V30 10979 C 1048.26 3.40786 -0.0880975 0
M  V30 10980 H 1049.45 2.50221 -1.65316 0
M  V30 10981 H 1047 1.28304 -0.89263 0
M  V30 10982 H 1047.74 3.1322 0.840462 0
M  V30 10983 H 1047.52 3.8414 -0.786073 0
M  V30 10984 H 1049.01 4.17342 0.146775 0
M  V30 10985 N 1049.45 0.880621 1.30701 0
M  V30 10986 C 1050.4 0.333562 2.30196 0
M  V30 10987 C 1051.39 -0.557092 1.59978 0
M  V30 10988 O 1052.6 -0.442009 1.74489 0
M  V30 10989 H 1048.97 0.0892036 0.746691 0
M  V30 10990 H 1050.95 1.18644 2.73799 0
M  V30 10991 C 1049.69 -0.440731 3.44895 0
M  V30 10992 H 1049.02 0.235353 3.99107 0
M  V30 10993 H 1050.46 -0.788676 4.166 0
M  V30 10994 C 1048.92 -1.63613 2.94504 0
M  V30 10995 O 1049.45 -2.73549 2.94166 0
M  V30 10996 N 1047.65 -1.47183 2.5057 0
M  V30 10997 H 1047.2 -0.577479 2.51044 0
M  V30 10998 H 1047.16 -2.27303 2.17211 0
M  V30 10999 N 1050.93 -1.4397 0.641131 0
M  V30 11000 C 1051.86 -2.33458 -0.04446 0
M  V30 11001 C 1052.84 -1.48781 -0.824507 0
M  V30 11002 O 1054.03 -1.77477 -0.788397 0
M  V30 11003 C 1051.16 -3.31989 -1.01984 0
M  V30 11004 C 1050.11 -4.2656 -0.350745 0
M  V30 11005 C 1049.44 -5.15036 -1.43673 0
M  V30 11006 C 1050.74 -5.16897 0.749299 0
M  V30 11007 H 1052.43 -2.91034 0.702832 0
M  V30 11008 H 1049.98 -1.39942 0.339435 0
M  V30 11009 H 1051.93 -3.93483 -1.50828 0
M  V30 11010 H 1050.65 -2.72643 -1.79815 0
M  V30 11011 H 1049.31 -3.66413 0.117139 0
M  V30 11012 H 1048.96 -4.52037 -2.20617 0
M  V30 11013 H 1048.66 -5.79125 -0.994358 0
M  V30 11014 H 1050.18 -5.79403 -1.92678 0
M  V30 11015 H 1051.6 -5.7227 0.343534 0
M  V30 11016 H 1049.99 -5.89643 1.11541 0
M  V30 11017 H 1051.06 -4.5731 1.61232 0
M  V30 11018 N 1052.41 -0.382291 -1.52893 0
M  V30 11019 C 1053.65 0.202433 -2.01787 0
M  V30 11020 C 1053.99 1.47044 -1.26853 0
M  V30 11021 O 1053.26 1.91007 -0.366969 0
M  V30 11022 C 1053.54 0.477471 -3.5692 0
M  V30 11023 C 1053.4 -0.805339 -4.42532 0
M  V30 11024 C 1054.72 1.27106 -4.21346 0
M  V30 11025 H 1051.84 0.0720998 -0.733465 0
M  V30 11026 H 1054.48 -0.510478 -1.83014 0
M  V30 11027 H 1052.63 1.08478 -3.73048 0
M  V30 11028 H 1054.3 -1.4424 -4.3817 0
M  V30 11029 H 1052.54 -1.42216 -4.09826 0
M  V30 11030 H 1053.21 -0.567635 -5.49074 0
M  V30 11031 H 1055.69 0.757161 -4.09153 0
M  V30 11032 H 1054.57 1.43225 -5.29885 0
M  V30 11033 H 1054.83 2.28431 -3.78513 0
M  V30 11034 N 1053.89 1.57202 -0.111913 0
M  V30 11035 C 1055.3 1.82039 0.414591 0
M  V30 11036 C 1055.65 1.02863 1.67074 0
M  V30 11037 O 1054.77 0.263068 2.14795 0
M  V30 11038 C 1055.37 3.3019 0.758953 0
M  V30 11039 C 1053.93 3.55732 1.23012 0
M  V30 11040 C 1053.07 2.76301 0.235226 0
M  V30 11041 H 1056.02 1.55078 -0.337142 0
M  V30 11042 H 1056.05 3.44431 1.61701 0
M  V30 11043 H 1055.56 3.87788 -0.155473 0
M  V30 11044 H 1053.66 3.03483 2.16169 0
M  V30 11045 H 1053.77 4.64333 1.18034 0
M  V30 11046 H 1052.14 2.44287 0.720822 0
M  V30 11047 H 1052.92 3.36655 -0.672173 0
M  V30 11048 N 1055.36 -0.161842 1.56767 0
M  V30 11049 C 1056.77 -0.723385 1.72116 0
M  V30 11050 C 1057.13 -1.82355 0.723961 0
M  V30 11051 O 1056.25 -2.16107 -0.112643 0
M  V30 11052 C 1056.85 -1.31895 3.12072 0
M  V30 11053 C 1055.4 -1.82722 3.29074 0
M  V30 11054 C 1054.55 -0.709863 2.6806 0
M  V30 11055 H 1057.5 0.0636647 1.58572 0
M  V30 11056 H 1057.52 -2.18871 3.11249 0
M  V30 11057 H 1057.04 -0.51801 3.84627 0
M  V30 11058 H 1055.14 -2.6543 2.61491 0
M  V30 11059 H 1055.25 -1.96614 4.36898 0
M  V30 11060 H 1053.61 -1.13273 2.28126 0
M  V30 11061 H 1054.4 0.0793884 3.43208 0
M  V30 11062 N 1056.84 -1.516 -0.430713 0
M  V30 11063 C 1057.79 -1.73392 -1.52328 0
M  V30 11064 C 1058.76 -0.575758 -1.55802 0
M  V30 11065 O 1059.94 -0.810931 -1.72709 0
M  V30 11066 C 1057.08 -1.87092 -2.89984 0
M  V30 11067 C 1056.2 -3.14668 -2.95987 0
M  V30 11068 C 1055.33 -3.18923 -4.24807 0
M  V30 11069 C 1054.37 -4.40787 -4.24703 0
M  V30 11070 N 1053.51 -4.42556 -5.45059 0
M  V30 11071 H 1058.35 -2.6665 -1.33048 0
M  V30 11072 H 1055.88 -1.32146 -0.646207 0
M  V30 11073 H 1057.84 -1.93017 -3.69865 0
M  V30 11074 H 1056.47 -0.972363 -3.07807 0
M  V30 11075 H 1055.52 -3.1802 -2.08728 0
M  V30 11076 H 1056.84 -4.04562 -2.91772 0
M  V30 11077 H 1055.99 -3.23801 -5.13067 0
M  V30 11078 H 1054.73 -2.2693 -4.31688 0
M  V30 11079 H 1053.73 -4.36079 -3.34836 0
M  V30 11080 H 1054.96 -5.34053 -4.19481 0
M  V30 11081 H 1052.91 -3.53435 -5.52648 0
M  V30 11082 H 1052.82 -5.26267 -5.42751 0
M  V30 11083 H 1054.09 -4.51634 -6.35332 0
M  V30 11084 N 1058.32 0.686584 -1.41858 0
M  V30 11085 C 1059.56 1.45879 -1.43173 0
M  V30 11086 C 1059.92 1.91953 -0.0423059 0
M  V30 11087 O 1061.12 2.68709 0.069783 0
M  V30 11088 C 1059.4 2.63196 -2.41791 0
M  V30 11089 S 1060.95 3.52212 -2.6171 0
M  V30 11090 H 1057.77 0.498391 -0.507077 0
M  V30 11091 H 1060.37 0.800313 -1.78368 0
M  V30 11092 H 1059.08 2.27566 -3.41529 0
M  V30 11093 H 1058.61 3.33928 -2.0798 0
M  V30 11094 H 1060.62 4.58744 -1.89125 0
M  V30 11095 N 1059.8 1.27835 0.921735 0
M  V30 11096 C 1061.03 1.17182 1.70153 0
M  V30 11097 C 1061.44 -0.273207 1.87217 0
M  V30 11098 O 1060.78 -1.19729 1.39322 0
M  V30 11099 C 1060.84 1.78969 3.11786 0
M  V30 11100 C 1060.5 3.28179 3.18037 0
M  V30 11101 C 1061.5 4.24729 2.99835 0
M  V30 11102 C 1059.19 3.68995 3.40805 0
M  V30 11103 C 1061.18 5.60071 3.04301 0
M  V30 11104 C 1058.87 5.04465 3.44904 0
M  V30 11105 C 1059.87 5.99813 3.2667 0
M  V30 11106 O 1059.55 7.32813 3.30515 0
M  V30 11107 H 1059.29 0.408079 0.538932 0
M  V30 11108 H 1061.84 1.69326 1.16266 0
M  V30 11109 H 1060.07 1.2131 3.6718 0
M  V30 11110 H 1061.76 1.62946 3.71757 0
M  V30 11111 H 1062.52 3.94533 2.8208 0
M  V30 11112 H 1058.4 2.9525 3.54045 0
M  V30 11113 H 1061.95 6.34471 2.89987 0
M  V30 11114 H 1057.84 5.34315 3.62185 0
M  V30 11115 H 1058.61 7.41338 3.4693 0
M  V30 11116 N 1061.28 -1.12907 1.09954 0
M  V30 11117 C 1062.52 -1.83941 0.837255 0
M  V30 11118 C 1062.84 -1.84234 -0.638984 0
M  V30 11119 O 1062.11 -1.30193 -1.46378 0
M  V30 11120 H 1060.69 -0.681115 0.306743 0
M  V30 11121 H 1063.36 -1.36743 1.38879 0
M  V30 11122 H 1062.45 -2.88289 1.19565 0
M  V30 11123 N 1062.75 -0.88754 -1.30232 0
M  V30 11124 C 1064 -0.506277 -1.95656 0
M  V30 11125 C 1064.32 0.948191 -1.70395 0
M  V30 11126 O 1063.59 1.66701 -1.02895 0
M  V30 11127 H 1062.17 -0.184235 -0.723924 0
M  V30 11128 H 1064.83 -1.13118 -1.58715 0
M  V30 11129 H 1063.93 -0.678673 -3.04632 0
M  V30 11130 N 1064.23 1.43628 -0.648757 0
M  V30 11131 C 1065.46 2.06732 -0.166284 0
M  V30 11132 C 1065.88 1.48281 1.15734 0
M  V30 11133 O 1065.24 0.591018 1.71396 0
M  V30 11134 C 1065.29 3.60502 -0.0838732 0
M  V30 11135 O 1064.39 4.01186 0.955185 0
M  V30 11136 H 1063.73 0.657479 -0.0928285 0
M  V30 11137 H 1066.26 1.84208 -0.890421 0
M  V30 11138 H 1066.27 4.07875 0.100923 0
M  V30 11139 H 1064.95 4.02424 -1.05014 0
M  V30 11140 H 1063.53 3.65412 0.743537 0
M  V30 11141 N 1065.71 0.390394 1.52688 0
M  V30 11142 C 1066.96 -0.191445 2.01593 0
M  V30 11143 C 1067.29 -1.46723 1.27681 0
M  V30 11144 O 1066.54 -1.92248 0.365972 0
M  V30 11145 C 1066.84 -0.50468 3.53819 0
M  V30 11146 C 1066.51 0.679691 4.45748 0
M  V30 11147 C 1065.17 1.0046 4.70597 0
M  V30 11148 C 1067.52 1.47198 4.99982 0
M  V30 11149 C 1064.85 2.12334 5.46929 0
M  V30 11150 C 1067.2 2.58133 5.77538 0
M  V30 11151 C 1065.86 2.91131 6.00665 0
M  V30 11152 H 1065.13 -0.0700548 0.737681 0
M  V30 11153 H 1067.78 0.527965 1.84078 0
M  V30 11154 H 1066.09 -1.30543 3.69413 0
M  V30 11155 H 1067.78 -0.967524 3.89153 0
M  V30 11156 H 1064.37 0.416446 4.26572 0
M  V30 11157 H 1068.56 1.2342 4.80709 0
M  V30 11158 H 1063.81 2.38269 5.63061 0
M  V30 11159 H 1067.99 3.19925 6.18564 0
M  V30 11160 H 1065.61 3.77938 6.59596 0
M  V30 11161 N 1067.19 -1.57141 0.120249 0
M  V30 11162 C 1068.15 -2.14213 -0.815185 0
M  V30 11163 C 1069.15 -1.07731 -1.19376 0
M  V30 11164 O 1070.34 -1.33502 -1.11906 0
M  V30 11165 C 1067.47 -2.68339 -2.10255 0
M  V30 11166 H 1068.67 -2.98197 -0.319166 0
M  V30 11167 H 1066.22 -1.55767 -0.128997 0
M  V30 11168 H 1066.95 -1.87946 -2.64285 0
M  V30 11169 H 1066.74 -3.46216 -1.84057 0
M  V30 11170 H 1068.23 -3.124 -2.77121 0
M  V30 11171 N 1068.67 0.153526 -1.5685 0
M  V30 11172 C 1069.6 1.2147 -1.94365 0
M  V30 11173 C 1070.61 1.39532 -0.838726 0
M  V30 11174 O 1071.8 1.39219 -1.11715 0
M  V30 11175 C 1068.9 2.5806 -2.19677 0
M  V30 11176 C 1068.07 2.61062 -3.50949 0
M  V30 11177 C 1067.13 3.79144 -3.64878 0
M  V30 11178 O 1066.16 3.64319 -4.37333 0
M  V30 11179 N 1067.36 4.96333 -3.01054 0
M  V30 11180 H 1070.13 0.895889 -2.85996 0
M  V30 11181 H 1067.69 0.343147 -1.58222 0
M  V30 11182 H 1069.68 3.35553 -2.26243 0
M  V30 11183 H 1068.25 2.8226 -1.34343 0
M  V30 11184 H 1067.47 1.69533 -3.55882 0
M  V30 11185 H 1068.76 2.60094 -4.37297 0
M  V30 11186 H 1068.15 5.1128 -2.42093 0
M  V30 11187 H 1066.71 5.71625 -3.13191 0
M  V30 11188 N 1070.14 1.51827 0.422667 0
M  V30 11189 C 1071.56 1.40328 0.760275 0
M  V30 11190 C 1071.76 0.497119 1.95272 0
M  V30 11191 O 1070.82 -0.0422083 2.52465 0
M  V30 11192 C 1072.13 2.82622 1.02689 0
M  V30 11193 C 1073.68 2.91874 1.13044 0
M  V30 11194 C 1074.15 4.35107 1.4299 0
M  V30 11195 N 1075.64 4.3828 1.49883 0
M  V30 11196 C 1076.38 5.46153 1.74655 0
M  V30 11197 N 1075.87 6.64165 1.9712 0
M  V30 11198 N 1077.67 5.33651 1.76558 0
M  V30 11199 H 1069.82 2.09285 -0.362455 0
M  V30 11200 H 1072.08 0.94273 -0.0998161 0
M  V30 11201 H 1071.79 3.50991 0.223226 0
M  V30 11202 H 1071.66 3.22844 1.95068 0
M  V30 11203 H 1074.05 2.23694 1.92471 0
M  V30 11204 H 1074.13 2.55128 0.185326 0
M  V30 11205 H 1073.77 5.03841 0.640848 0
M  V30 11206 H 1073.7 4.69377 2.38731 0
M  V30 11207 H 1076.19 3.53206 1.34366 0
M  V30 11208 H 1076.51 7.42165 2.15434 0
M  V30 11209 H 1074.85 6.67255 1.94413 0
M  V30 11210 H 1078.04 4.40436 1.58536 0
M  V30 11211 H 1078.22 6.17798 1.95525 0
M  V30 11212 N 1071.62 -0.679052 1.4222 0
M  V30 11213 C 1072.57 -1.81398 1.45594 0
M  V30 11214 C 1073.56 -1.66112 0.332127 0
M  V30 11215 O 1074.77 -1.72772 0.504942 0
M  V30 11216 H 1071.15 -0.598045 0.455902 0
M  V30 11217 H 1073.12 -1.7567 2.41211 0
M  V30 11218 C 1071.87 -3.19525 1.37109 0
M  V30 11219 H 1071.19 -3.31912 2.22878 0
M  V30 11220 H 1072.63 -3.98967 1.43531 0
M  V30 11221 C 1071.09 -3.36792 0.0853593 0
M  V30 11222 O 1071.62 -3.92309 -0.863532 0
M  V30 11223 N 1069.82 -2.906 0.00389229 0
M  V30 11224 H 1069.37 -2.45607 0.776846 0
M  V30 11225 H 1069.33 -3.0253 -0.855742 0
M  V30 11226 N 1073.1 -1.28322 -0.914942 0
M  V30 11227 C 1074.03 -1.14681 -2.03398 0
M  V30 11228 C 1075.01 -0.0448939 -1.70041 0
M  V30 11229 O 1076.2 -0.221672 -1.92931 0
M  V30 11230 C 1073.33 -0.806623 -3.37803 0
M  V30 11231 C 1072.28 -1.86318 -3.85318 0
M  V30 11232 C 1071.61 -1.37665 -5.16674 0
M  V30 11233 C 1072.91 -3.26953 -4.07307 0
M  V30 11234 H 1074.6 -2.08293 -2.15068 0
M  V30 11235 H 1072.15 -1.00284 -1.03339 0
M  V30 11236 H 1074.1 -0.69796 -4.1558 0
M  V30 11237 H 1072.82 0.165203 -3.26182 0
M  V30 11238 H 1071.48 -1.96096 -3.09745 0
M  V30 11239 H 1071.13 -0.393927 -5.01455 0
M  V30 11240 H 1070.83 -2.08313 -5.49435 0
M  V30 11241 H 1072.35 -1.28119 -5.97007 0
M  V30 11242 H 1073.77 -3.20102 -4.75613 0
M  V30 11243 H 1072.17 -3.95424 -4.51398 0
M  V30 11244 H 1073.24 -3.71059 -3.12159 0
M  V30 11245 N 1074.58 1.12322 -1.10551 0
M  V30 11246 C 1075.82 1.85497 -0.858492 0
M  V30 11247 C 1076.18 1.8222 0.604966 0
M  V30 11248 O 1077.38 2.5075 0.968382 0
M  V30 11249 C 1075.65 3.29124 -1.39327 0
M  V30 11250 S 1077.21 4.19659 -1.28186 0
M  V30 11251 H 1074.03 0.639768 -0.31019 0
M  V30 11252 H 1076.63 1.35298 -1.41119 0
M  V30 11253 H 1075.34 3.29069 -2.45238 0
M  V30 11254 H 1074.87 3.84388 -0.837203 0
M  V30 11255 H 1076.88 4.95618 -0.240325 0
M  V30 11256 N 1076.06 0.894434 1.2976 0
M  V30 11257 C 1077 0.357958 2.29829 0
M  V30 11258 C 1078 -0.540093 1.6056 0
M  V30 11259 O 1079.2 -0.423478 1.74948 0
M  V30 11260 H 1075.58 0.0971183 0.745702 0
M  V30 11261 H 1077.55 1.21542 2.72526 0
M  V30 11262 C 1076.3 -0.404126 3.45343 0
M  V30 11263 H 1075.62 0.277671 3.98835 0
M  V30 11264 H 1077.06 -0.744446 4.17413 0
M  V30 11265 C 1075.52 -1.6048 2.96222 0
M  V30 11266 O 1076.05 -2.70414 2.97051 0
M  V30 11267 N 1074.26 -1.44517 2.52117 0
M  V30 11268 H 1073.8 -0.55082 2.51642 0
M  V30 11269 H 1073.76 -2.24987 2.1961 0
M  V30 11270 N 1077.53 -1.43282 0.656365 0
M  V30 11271 C 1078.81 -1.9534 0.100816 0
M  V30 11272 C 1079.19 -1.59755 -1.37992 0
M  V30 11273 O 1078.54 -0.884264 -2.10697 0
M  V30 11274 C 1078.75 -3.47237 0.35038 0
M  V30 11275 C 1080.1 -4.23822 0.257001 0
M  V30 11276 O 1081.12 -3.55073 0.283111 0
M  V30 11277 O 1079.98 -5.46192 0.183397 0
M  V30 11278 H 1077.07 -0.826963 -0.00780287 0
M  V30 11279 H 1079.62 -1.53205 0.72982 0
M  V30 11280 H 1078.39 -3.66276 1.37685 0
M  V30 11281 H 1078.02 -3.96378 -0.311539 0
M  V30 11282 N 1079.01 -0.398486 -1.52479 0
M  V30 11283 C 1080.29 0.238776 -1.94137 0
M  V30 11284 C 1080.67 1.63558 -1.33462 0
M  V30 11285 O 1080.02 2.22821 -0.506272 0
M  V30 11286 C 1080.23 0.255863 -3.48061 0
M  V30 11287 C 1081.58 0.480376 -4.21874 0
M  V30 11288 O 1082.6 0.335679 -3.54615 0
M  V30 11289 O 1081.46 0.764654 -5.41124 0
M  V30 11290 H 1078.55 0.150806 -0.813134 0
M  V30 11291 H 1081.1 -0.453659 -1.63524 0
M  V30 11292 H 1079.87 -0.722171 -3.84578 0
M  V30 11293 H 1079.49 0.99284 -3.85004 0
M  V30 11294 N 1080.49 1.57075 -0.12858 0
M  V30 11295 C 1081.74 1.95134 0.526046 0
M  V30 11296 C 1082.06 1.01337 1.66601 0
M  V30 11297 O 1081.33 0.0714361 1.9577 0
M  V30 11298 H 1079.91 0.720468 0.19732 0
M  V30 11299 H 1082.57 1.93874 -0.199767 0
M  V30 11300 H 1081.67 2.98406 0.914332 0
M  V30 11301 N 1081.97 -0.145205 1.5693 0
M  V30 11302 C 1083.22 -0.855822 1.83085 0
M  V30 11303 C 1083.54 -1.81625 0.709747 0
M  V30 11304 O 1082.81 -1.94052 -0.268456 0
M  V30 11305 H 1081.39 -0.319032 0.675446 0
M  V30 11306 H 1084.05 -0.138781 1.94405 0
M  V30 11307 H 1083.15 -1.41698 2.78079 0
M  V30 11308 N 1083.45 -1.52049 -0.414609 0
M  V30 11309 C 1084.7 -1.65511 -1.15977 0
M  V30 11310 C 1085.02 -0.384703 -1.91168 0
M  V30 11311 O 1084.29 0.600247 -1.86477 0
M  V30 11312 H 1082.87 -0.610039 -0.431116 0
M  V30 11313 H 1085.53 -1.8907 -0.473139 0
M  V30 11314 H 1084.62 -2.4936 -1.87686 0
M  V30 11315 N 1084.93 0.6715 -1.42579 0
M  V30 11316 C 1086.17 1.42871 -1.42941 0
M  V30 11317 C 1086.49 1.94941 -0.0480483 0
M  V30 11318 O 1085.76 1.73275 0.913921 0
M  V30 11319 H 1084.34 0.530189 -0.526221 0
M  V30 11320 H 1087.01 0.793219 -1.78028 0
M  V30 11321 H 1086.1 2.2801 -2.13114 0
M  V30 11322 N 1086.4 1.28806 0.908124 0
M  V30 11323 C 1087.65 1.16058 1.65454 0
M  V30 11324 C 1087.97 -0.290057 1.92831 0
M  V30 11325 O 1087.24 -1.20001 1.54843 0
M  V30 11326 H 1085.82 0.426522 0.61326 0
M  V30 11327 H 1088.48 1.61614 1.08936 0
M  V30 11328 H 1087.58 1.70437 2.61453 0
M  V30 11329 N 1087.88 -1.11734 1.11145 0
M  V30 11330 C 1089.13 -1.83043 0.856717 0
M  V30 11331 C 1089.45 -1.84901 -0.619407 0
M  V30 11332 O 1088.72 -1.31738 -1.44989 0
M  V30 11333 H 1087.3 -0.677823 0.31395 0
M  V30 11334 H 1089.96 -1.35262 1.40322 0
M  V30 11335 H 1089.06 -2.87005 1.22616 0
M  V30 11336 N 1089.36 -0.901303 -1.29284 0
M  V30 11337 C 1090.58 -0.542823 -2.0017 0
M  V30 11338 C 1091.01 0.865583 -1.67001 0
M  V30 11339 O 1090.37 1.5764 -0.895502 0
M  V30 11340 C 1090.42 -0.743987 -3.52842 0
M  V30 11341 O 1089.52 0.202771 -4.11901 0
M  V30 11342 H 1088.86 -0.211903 -0.62928 0
M  V30 11343 H 1091.39 -1.21333 -1.64741 0
M  V30 11344 H 1091.4 -0.64926 -4.02801 0
M  V30 11345 H 1090.08 -1.77077 -3.7632 0
M  V30 11346 H 1088.65 0.0603637 -3.72851 0
M  V30 11347 N 1090.84 1.42931 -0.663954 0
M  V30 11348 C 1092.09 2.01284 -0.181379 0
M  V30 11349 C 1092.41 1.52708 1.21265 0
M  V30 11350 O 1091.68 0.744181 1.81215 0
M  V30 11351 H 1090.26 0.744248 -0.0640646 0
M  V30 11352 H 1092.92 1.74997 -0.858031 0
M  V30 11353 H 1092.01 3.11613 -0.174273 0
M  V30 11354 N 1092.32 0.406567 1.52266 0
M  V30 11355 C 1093.54 -0.169624 2.06204 0
M  V30 11356 C 1093.96 -1.39076 1.27684 0
M  V30 11357 O 1093.32 -1.79528 0.328023 0
M  V30 11358 C 1093.37 -0.522611 3.57702 0
M  V30 11359 O 1093.09 0.650028 4.33251 0
M  V30 11360 C 1094.59 -1.15281 4.28048 0
M  V30 11361 H 1091.81 -0.0215191 0.670655 0
M  V30 11362 H 1094.35 0.576781 1.96198 0
M  V30 11363 H 1092.51 -1.21891 3.67725 0
M  V30 11364 H 1092.92 0.355989 5.23291 0
M  V30 11365 H 1094.4 -1.35002 5.35237 0
M  V30 11366 H 1094.87 -2.12517 3.84361 0
M  V30 11367 H 1095.48 -0.496786 4.22389 0
M  V30 11368 N 1093.79 -1.57004 0.136909 0
M  V30 11369 C 1094.76 -2.15066 -0.792419 0
M  V30 11370 C 1095.76 -1.08991 -1.18226 0
M  V30 11371 O 1096.95 -1.34681 -1.10484 0
M  V30 11372 C 1094.08 -2.70554 -2.07397 0
M  V30 11373 H 1095.27 -2.98519 -0.28752 0
M  V30 11374 H 1092.83 -1.55895 -0.112469 0
M  V30 11375 H 1093.56 -1.90739 -2.62277 0
M  V30 11376 H 1093.35 -3.48149 -1.80374 0
M  V30 11377 H 1094.84 -3.15322 -2.73792 0
M  V30 11378 N 1095.27 0.136881 -1.57004 0
M  V30 11379 C 1096.52 0.8461 -1.83536 0
M  V30 11380 C 1096.84 1.81246 -0.71937 0
M  V30 11381 O 1096.11 1.94191 0.258161 0
M  V30 11382 H 1094.69 0.315446 -0.677128 0
M  V30 11383 H 1097.35 0.128469 -1.94476 0
M  V30 11384 H 1096.45 1.40221 -2.78827 0
M  V30 11385 N 1096.75 1.52266 0.40654 0
M  V30 11386 C 1098 1.66123 1.15097 0
M  V30 11387 C 1098.32 0.394836 1.90961 0
M  V30 11388 O 1097.59 -0.590349 1.86793 0
M  V30 11389 H 1096.17 0.612317 0.427875 0
M  V30 11390 H 1098.83 1.89318 0.463106 0
M  V30 11391 H 1097.93 2.50351 1.86361 0
M  V30 11392 N 1098.23 -0.663929 1.42933 0
M  V30 11393 C 1099.48 -1.42111 1.43697 0
M  V30 11394 C 1099.8 -1.94913 0.0583858 0
M  V30 11395 O 1099.07 -1.73757 -0.904719 0
M  V30 11396 H 1097.65 -0.527391 0.529026 0
M  V30 11397 H 1100.31 -0.783766 1.78446 0
M  V30 11398 H 1099.41 -2.26877 2.1432 0
M  V30 11399 N 1099.71 -1.29285 -0.901281 0
M  V30 11400 C 1100.95 -1.18348 -1.65424 0
M  V30 11401 C 1101.31 0.26276 -1.90597 0
M  V30 11402 O 1100.6 1.1868 -1.50418 0
M  V30 11403 C 1100.79 -1.92865 -3.00895 0
M  V30 11404 C 1100.62 -3.44588 -2.88945 0
M  V30 11405 C 1099.39 -4.13938 -2.89799 0
M  V30 11406 C 1101.59 -4.40113 -2.66092 0
M  V30 11407 N 1099.57 -5.52036 -2.68569 0
M  V30 11408 C 1100.94 -5.65661 -2.53827 0
M  V30 11409 C 1103 -4.29895 -2.51187 0
M  V30 11410 C 1101.7 -6.8215 -2.28175 0
M  V30 11411 C 1103.73 -5.46134 -2.26917 0
M  V30 11412 C 1103.09 -6.70653 -2.15416 0
M  V30 11413 H 1099.19 -0.48806 -0.611 0
M  V30 11414 H 1101.77 -1.63094 -1.06341 0
M  V30 11415 H 1099.94 -1.50535 -3.58042 0
M  V30 11416 H 1101.68 -1.74207 -3.65286 0
M  V30 11417 H 1098.43 -3.65625 -3.01023 0
M  V30 11418 H 1098.86 -6.24662 -2.61011 0
M  V30 11419 H 1103.5 -3.34321 -2.58823 0
M  V30 11420 H 1101.22 -7.77781 -2.19277 0
M  V30 11421 H 1104.8 -5.40126 -2.1623 0
M  V30 11422 H 1103.68 -7.5908 -1.96896 0
M  V30 11423 N 1101.18 1.11143 -1.11736 0
M  V30 11424 C 1102.41 1.87285 -0.891007 0
M  V30 11425 C 1102.83 1.79758 0.553971 0
M  V30 11426 O 1102.19 1.16221 1.39149 0
M  V30 11427 C 1102.24 3.33924 -1.36114 0
M  V30 11428 O 1101.34 4.08917 -0.534851 0
M  V30 11429 H 1100.69 0.581418 -0.320701 0
M  V30 11430 H 1103.22 1.40469 -1.4876 0
M  V30 11431 H 1103.23 3.84772 -1.35701 0
M  V30 11432 H 1101.9 3.38719 -2.41334 0
M  V30 11433 H 1100.48 3.67954 -0.605355 0
M  V30 11434 N 1102.66 0.908147 1.28804 0
M  V30 11435 C 1103.91 0.53734 1.94826 0
M  V30 11436 C 1104.23 -0.920962 1.71882 0
M  V30 11437 O 1103.5 -1.65043 1.05534 0
M  V30 11438 H 1102.08 0.195729 0.720902 0
M  V30 11439 H 1104.74 1.15628 1.56895 0
M  V30 11440 H 1103.84 0.727052 3.03513 0
M  V30 11441 N 1104.14 -1.42577 0.671525 0
M  V30 11442 C 1105.39 -2.00806 0.189663 0
M  V30 11443 C 1105.7 -1.537 -1.20978 0
M  V30 11444 O 1106.91 -2.04325 -1.78784 0
M  V30 11445 C 1105.36 -3.58744 0.288227 0
M  V30 11446 C 1104.97 -4.14839 1.69152 0
M  V30 11447 C 1106.72 -4.24285 -0.13509 0
M  V30 11448 C 1104.62 -5.65131 1.74302 0
M  V30 11449 H 1103.55 -0.751004 0.067146 0
M  V30 11450 H 1106.2 -1.63338 0.83623 0
M  V30 11451 H 1104.59 -3.937 -0.426175 0
M  V30 11452 H 1105.76 -3.91349 2.43274 0
M  V30 11453 H 1104.08 -3.61738 2.0624 0
M  V30 11454 H 1106.67 -5.34573 -0.116709 0
M  V30 11455 H 1107.02 -3.99527 -1.16977 0
M  V30 11456 H 1107.55 -3.94278 0.528191 0
M  V30 11457 H 1104.29 -5.94682 2.75742 0
M  V30 11458 H 1103.81 -5.90621 1.04531 0
M  V30 11459 H 1105.49 -6.29491 1.49498 0
M  V30 11460 N 1105.62 -0.414636 -1.52048 0
M  V30 11461 C 1106.85 0.158686 -2.06291 0
M  V30 11462 C 1107.26 1.38397 -1.2842 0
M  V30 11463 O 1106.62 1.79351 -0.337539 0
M  V30 11464 C 1106.67 0.503634 -3.57975 0
M  V30 11465 O 1106.39 -0.672996 -4.329 0
M  V30 11466 C 1107.89 1.13009 -4.28653 0
M  V30 11467 H 1105.11 0.0179622 -0.67076 0
M  V30 11468 H 1107.66 -0.587177 -1.95889 0
M  V30 11469 H 1105.81 1.19939 -3.68366 0
M  V30 11470 H 1106.22 -0.383735 -5.23094 0
M  V30 11471 H 1107.7 1.32162 -5.35945 0
M  V30 11472 H 1108.18 2.10476 -3.85482 0
M  V30 11473 H 1108.78 0.474379 -4.22646 0
M  V30 11474 N 1107.1 1.56929 -0.145233 0
M  V30 11475 C 1108.34 1.95681 0.50532 0
M  V30 11476 C 1108.67 1.03098 1.65516 0
M  V30 11477 O 1107.94 0.0921961 1.95683 0
M  V30 11478 H 1106.52 0.72252 0.189668 0
M  V30 11479 H 1109.18 1.93651 -0.220318 0
M  V30 11480 H 1108.27 2.99359 0.882631 0
M  V30 11481 N 1108.58 -0.128553 1.57075 0
M  V30 11482 C 1109.82 -0.83801 1.84347 0
M  V30 11483 C 1110.15 -1.80325 0.728906 0
M  V30 11484 O 1109.41 -1.93678 -0.280571 0
M  V30 11485 C 1109.7 -1.63027 3.18052 0
M  V30 11486 C 1109.37 -0.810171 4.43562 0
M  V30 11487 C 1108.03 -0.583984 4.77643 0
M  V30 11488 C 1110.38 -0.237896 5.20657 0
M  V30 11489 C 1107.71 0.224887 5.86269 0
M  V30 11490 C 1110.06 0.558114 6.30133 0
M  V30 11491 C 1108.73 0.794706 6.62752 0
M  V30 11492 H 1108 -0.30665 0.674572 0
M  V30 11493 H 1110.65 -0.100797 1.91235 0
M  V30 11494 H 1108.95 -2.43812 3.06697 0
M  V30 11495 H 1110.65 -2.183 3.36372 0
M  V30 11496 H 1107.24 -0.996547 4.16854 0
M  V30 11497 H 1111.42 -0.399881 4.94686 0
M  V30 11498 H 1106.68 0.417507 6.09973 0
M  V30 11499 H 1110.85 1.00859 6.89058 0
M  V30 11500 H 1108.48 1.42331 7.46757 0
M  V30 11501 N 1110.05 -1.5248 -0.398459 0
M  V30 11502 C 1111.3 -1.67061 -1.14441 0
M  V30 11503 C 1111.63 -0.405821 -1.90219 0
M  V30 11504 O 1110.88 0.611532 -1.859 0
M  V30 11505 C 1111.18 -2.85038 -2.15611 0
M  V30 11506 C 1110.85 -4.22847 -1.56561 0
M  V30 11507 C 1109.51 -4.60329 -1.40182 0
M  V30 11508 C 1111.86 -5.08683 -1.1354 0
M  V30 11509 C 1109.19 -5.81314 -0.793149 0
M  V30 11510 C 1111.54 -6.30284 -0.540866 0
M  V30 11511 C 1110.21 -6.66505 -0.364297 0
M  V30 11512 H 1109.48 -0.611321 -0.418769 0
M  V30 11513 H 1112.12 -1.86604 -0.430241 0
M  V30 11514 H 1110.43 -2.59873 -2.93212 0
M  V30 11515 H 1112.13 -2.93516 -2.73221 0
M  V30 11516 H 1108.72 -3.93316 -1.70295 0
M  V30 11517 H 1112.9 -4.80301 -1.24999 0
M  V30 11518 H 1108.16 -6.07994 -0.64446 0
M  V30 11519 H 1112.33 -6.96115 -0.199167 0
M  V30 11520 H 1109.96 -7.60121 0.109439 0
M  V30 11521 N 1111.53 0.65634 -1.43283 0
M  V30 11522 C 1112.76 1.44408 -1.48168 0
M  V30 11523 C 1113.17 1.88542 -0.0986016 0
M  V30 11524 O 1112.53 1.59298 0.890527 0
M  V30 11525 C 1112.58 2.68111 -2.42484 0
M  V30 11526 O 1112.3 2.25824 -3.75413 0
M  V30 11527 C 1113.8 3.61499 -2.56579 0
M  V30 11528 H 1111.02 0.443731 -0.503333 0
M  V30 11529 H 1113.57 0.804917 -1.87993 0
M  V30 11530 H 1111.72 3.28175 -2.05863 0
M  V30 11531 H 1112.14 3.05839 -4.26102 0
M  V30 11532 H 1113.61 4.44972 -3.26655 0
M  V30 11533 H 1114.09 4.08639 -1.60969 0
M  V30 11534 H 1114.69 3.07319 -2.93998 0
M  V30 11535 N 1113.01 1.29761 0.894412 0
M  V30 11536 C 1114.42 1.16275 1.46072 0
M  V30 11537 C 1114.77 -0.240123 1.94725 0
M  V30 11538 O 1113.9 -1.13606 1.84181 0
M  V30 11539 C 1114.49 2.10471 2.65494 0
M  V30 11540 C 1113.05 2.00992 3.18244 0
M  V30 11541 C 1112.2 2.01094 1.90936 0
M  V30 11542 H 1115.15 1.42169 0.705243 0
M  V30 11543 H 1115.17 1.68003 3.41402 0
M  V30 11544 H 1114.68 3.12566 2.30053 0
M  V30 11545 H 1112.78 1.02005 3.58365 0
M  V30 11546 H 1112.9 2.88916 3.82184 0
M  V30 11547 H 1111.26 1.45764 2.08866 0
M  V30 11548 H 1112.04 3.04902 1.57764 0
M  V30 11549 N 1114.49 -1.10549 1.12324 0
M  V30 11550 C 1115.9 -1.34508 0.85905 0
M  V30 11551 C 1116.1 -1.94901 -0.511468 0
M  V30 11552 O 1115.16 -2.18793 -1.2604 0
M  V30 11553 C 1116.47 -2.26788 1.97453 0
M  V30 11554 C 1118.02 -2.40328 2.00528 0
M  V30 11555 C 1118.5 -3.35936 3.11305 0
M  V30 11556 N 1119.99 -3.43504 3.1074 0
M  V30 11557 C 1120.72 -4.17449 3.93096 0
M  V30 11558 N 1120.22 -4.9429 4.85437 0
M  V30 11559 N 1122.01 -4.13055 3.81237 0
M  V30 11560 H 1114.16 -0.697171 2.00632 0
M  V30 11561 H 1116.42 -0.369548 0.873005 0
M  V30 11562 H 1116.13 -1.89621 2.96204 0
M  V30 11563 H 1116 -3.27086 1.87869 0
M  V30 11564 H 1118.39 -2.76765 1.02397 0
M  V30 11565 H 1118.47 -1.39849 2.14186 0
M  V30 11566 H 1118.12 -3.00225 4.09667 0
M  V30 11567 H 1118.05 -4.36291 2.94886 0
M  V30 11568 H 1120.54 -2.88702 2.43843 0
M  V30 11569 H 1120.85 -5.48109 5.4479 0
M  V30 11570 H 1119.2 -4.93419 4.89452 0
M  V30 11571 H 1122.39 -3.52117 3.08433 0
M  V30 11572 H 1122.56 -4.70424 4.45651 0
M  V30 11573 N 1115.97 -0.914965 -1.28321 0
M  V30 11574 C 1116.9 -0.421292 -2.29668 0
M  V30 11575 C 1117.88 0.511743 -1.6222 0
M  V30 11576 O 1119.06 0.419218 -1.89621 0
M  V30 11577 C 1116.19 0.338364 -3.45648 0
M  V30 11578 C 1115.15 -0.505646 -4.25003 0
M  V30 11579 C 1114.47 0.382421 -5.33331 0
M  V30 11580 C 1115.77 -1.76354 -4.91626 0
M  V30 11581 H 1117.47 -1.26826 -2.71211 0
M  V30 11582 H 1115.01 -0.611291 -1.30381 0
M  V30 11583 H 1116.96 0.694578 -4.15636 0
M  V30 11584 H 1115.69 1.21925 -3.02988 0
M  V30 11585 H 1114.35 -0.844395 -3.56743 0
M  V30 11586 H 1114 1.26189 -4.86914 0
M  V30 11587 H 1113.7 -0.17871 -5.87328 0
M  V30 11588 H 1115.22 0.73449 -6.06166 0
M  V30 11589 H 1116.63 -1.47616 -5.5397 0
M  V30 11590 H 1115.03 -2.26717 -5.55625 0
M  V30 11591 H 1116.1 -2.49063 -4.16048 0
M  V30 11592 N 1117.44 1.42219 -0.679077 0
M  V30 11593 C 1118.69 2.00703 -0.200309 0
M  V30 11594 C 1119.01 1.54339 1.20161 0
M  V30 11595 O 1120.21 2.0527 1.77698 0
M  V30 11596 C 1118.67 3.58586 -0.307248 0
M  V30 11597 C 1118.28 4.13937 -1.71349 0
M  V30 11598 C 1120.02 4.24351 0.112588 0
M  V30 11599 C 1117.93 5.64198 -1.77297 0
M  V30 11600 H 1116.86 0.750638 -0.0711279 0
M  V30 11601 H 1119.51 1.62893 -0.844881 0
M  V30 11602 H 1117.89 3.93921 0.40529 0
M  V30 11603 H 1119.06 3.90054 -2.45346 0
M  V30 11604 H 1117.38 3.60639 -2.08155 0
M  V30 11605 H 1119.98 5.34627 0.0883578 0
M  V30 11606 H 1120.32 4.00142 1.14857 0
M  V30 11607 H 1120.85 3.93992 -0.549093 0
M  V30 11608 H 1117.59 5.93211 -2.78892 0
M  V30 11609 H 1117.11 5.90058 -1.07662 0
M  V30 11610 H 1118.79 6.2869 -1.52835 0
M  V30 11611 N 1118.92 0.422693 1.51826 0
M  V30 11612 C 1119.87 -0.396088 2.27376 0
M  V30 11613 C 1120.84 -1.02946 1.30351 0
M  V30 11614 O 1122.02 -1.05116 1.59233 0
M  V30 11615 C 1119.16 -1.49942 3.10824 0
M  V30 11616 C 1118.28 -0.885623 4.22825 0
M  V30 11617 C 1117.41 -1.96278 4.93608 0
M  V30 11618 C 1116.45 -1.32664 5.97551 0
M  V30 11619 N 1115.59 -2.34452 6.61798 0
M  V30 11620 H 1120.43 0.254571 2.96911 0
M  V30 11621 H 1117.96 0.137383 1.46457 0
M  V30 11622 H 1119.92 -2.15023 3.57521 0
M  V30 11623 H 1118.55 -2.11991 2.43433 0
M  V30 11624 H 1117.6 -0.123491 3.80199 0
M  V30 11625 H 1118.92 -0.381057 4.97342 0
M  V30 11626 H 1118.07 -2.69055 5.43778 0
M  V30 11627 H 1116.81 -2.50103 4.18688 0
M  V30 11628 H 1115.81 -0.584262 5.46687 0
M  V30 11629 H 1117.04 -0.7959 6.7442 0
M  V30 11630 H 1114.99 -2.87385 5.897 0
M  V30 11631 H 1114.9 -1.88845 7.32034 0
M  V30 11632 H 1116.17 -3.06757 7.16603 0
M  V30 11633 N 1120.4 -1.5685 0.153553 0
M  V30 11634 C 1121.35 -2.1709 -0.783626 0
M  V30 11635 C 1122.32 -1.10567 -1.23952 0
M  V30 11636 O 1123.5 -1.38638 -1.31088 0
M  V30 11637 C 1120.64 -2.80183 -2.01473 0
M  V30 11638 C 1119.75 -4.01117 -1.60403 0
M  V30 11639 C 1118.89 -4.5219 -2.78743 0
M  V30 11640 C 1117.93 -5.65574 -2.34079 0
M  V30 11641 N 1117.07 -6.11235 -3.4545 0
M  V30 11642 H 1121.91 -2.96836 -0.263127 0
M  V30 11643 H 1119.44 -1.46625 -0.11816 0
M  V30 11644 H 1121.4 -3.14912 -2.73654 0
M  V30 11645 H 1120.03 -2.03071 -2.50923 0
M  V30 11646 H 1119.08 -3.72325 -0.779631 0
M  V30 11647 H 1120.39 -4.83243 -1.23605 0
M  V30 11648 H 1119.55 -4.89008 -3.59105 0
M  V30 11649 H 1118.29 -3.69085 -3.18791 0
M  V30 11650 H 1117.29 -5.28326 -1.52158 0
M  V30 11651 H 1118.52 -6.50468 -1.95109 0
M  V30 11652 H 1116.46 -5.31064 -3.85106 0
M  V30 11653 H 1116.38 -6.88304 -3.12687 0
M  V30 11654 H 1117.65 -6.527 -4.26149 0
M  V30 11655 N 1121.88 0.120221 -1.57141 0
M  V30 11656 C 1123.11 0.842441 -1.88972 0
M  V30 11657 C 1123.52 1.73494 -0.744671 0
M  V30 11658 O 1122.88 1.80268 0.284557 0
M  V30 11659 C 1122.93 1.67688 -3.20254 0
M  V30 11660 O 1122.65 0.820319 -4.30351 0
M  V30 11661 C 1124.15 2.50436 -3.65782 0
M  V30 11662 H 1121.37 0.242241 -0.625748 0
M  V30 11663 H 1123.91 0.104978 -2.0423 0
M  V30 11664 H 1122.07 2.36712 -3.0667 0
M  V30 11665 H 1122.48 1.39575 -5.05588 0
M  V30 11666 H 1123.96 3.04518 -4.60405 0
M  V30 11667 H 1124.43 3.27737 -2.92378 0
M  V30 11668 H 1125.04 1.86657 -3.82151 0
M  V30 11669 N 1123.36 1.52689 0.390367 0
M  V30 11670 C 1124.29 1.80338 1.48325 0
M  V30 11671 C 1125.27 0.655338 1.56969 0
M  V30 11672 O 1126.45 0.902792 1.7194 0
M  V30 11673 C 1123.58 1.97101 2.85952 0
M  V30 11674 C 1122.54 3.12783 2.92148 0
M  V30 11675 C 1121.86 3.14798 4.32211 0
M  V30 11676 C 1123.16 4.5188 2.61919 0
M  V30 11677 H 1124.86 2.71857 1.25437 0
M  V30 11678 H 1122.4 1.30813 0.601995 0
M  V30 11679 H 1124.36 2.15027 3.62411 0
M  V30 11680 H 1123.08 1.02271 3.10174 0
M  V30 11681 H 1121.74 2.94638 2.18137 0
M  V30 11682 H 1121.39 2.17653 4.53471 0
M  V30 11683 H 1121.09 3.92507 4.37278 0
M  V30 11684 H 1122.61 3.34877 5.10578 0
M  V30 11685 H 1124.02 4.70134 3.28096 0
M  V30 11686 H 1122.42 5.31647 2.78337 0
M  V30 11687 H 1123.49 4.58689 1.57266 0
M  V30 11688 N 1124.83 -0.648732 1.43629 0
M  V30 11689 C 1126.08 -1.40579 1.45196 0
M  V30 11690 C 1126.4 -1.9484 0.0790556 0
M  V30 11691 O 1125.67 -1.74707 -0.886239 0
M  V30 11692 H 1124.25 -0.52175 0.53459 0
M  V30 11693 H 1126.92 -0.764796 1.79268 0
M  V30 11694 H 1126.01 -2.24591 2.16715 0
M  V30 11695 N 1126.31 -1.30234 -0.887518 0
M  V30 11696 C 1127.24 -1.18969 -2.00919 0
M  V30 11697 C 1128.22 -0.080952 -1.69907 0
M  V30 11698 O 1129.41 -0.262546 -1.92417 0
M  V30 11699 C 1126.54 -0.878094 -3.36016 0
M  V30 11700 C 1125.49 -1.94449 -3.81279 0
M  V30 11701 C 1124.82 -1.48594 -5.13638 0
M  V30 11702 C 1126.12 -3.35519 -4.00281 0
M  V30 11703 H 1127.81 -2.12808 -2.10602 0
M  V30 11704 H 1125.36 -1.02454 -1.01189 0
M  V30 11705 H 1127.31 -0.785954 -4.14006 0
M  V30 11706 H 1126.04 0.0959779 -3.26459 0
M  V30 11707 H 1124.69 -2.02622 -3.05516 0
M  V30 11708 H 1124.34 -0.500204 -5.00507 0
M  V30 11709 H 1124.04 -2.19921 -5.44893 0
M  V30 11710 H 1125.57 -1.40754 -5.94156 0
M  V30 11711 H 1126.98 -3.30119 -4.68716 0
M  V30 11712 H 1125.38 -4.0491 -4.42909 0
M  V30 11713 H 1126.45 -3.77597 -3.04218 0
M  V30 11714 N 1127.79 1.09952 -1.12909 0
M  V30 11715 C 1129.21 1.34051 -0.866172 0
M  V30 11716 C 1129.41 1.95169 0.501125 0
M  V30 11717 O 1128.46 2.19458 1.24878 0
M  V30 11718 C 1129.78 2.25738 -1.98653 0
M  V30 11719 C 1131.32 2.39261 -2.01799 0
M  V30 11720 C 1131.8 3.3428 -3.13083 0
M  V30 11721 N 1133.29 3.41851 -3.12558 0
M  V30 11722 C 1134.02 4.15358 -3.95304 0
M  V30 11723 N 1133.52 4.91709 -4.88051 0
M  V30 11724 N 1135.31 4.11027 -3.83423 0
M  V30 11725 H 1127.46 0.686521 -2.00999 0
M  V30 11726 H 1129.73 0.364913 -0.874953 0
M  V30 11727 H 1129.43 1.88048 -2.97205 0
M  V30 11728 H 1129.31 3.26085 -1.89601 0
M  V30 11729 H 1131.69 2.76218 -1.03864 0
M  V30 11730 H 1131.78 1.38712 -2.14925 0
M  V30 11731 H 1131.42 2.98048 -4.11254 0
M  V30 11732 H 1131.35 4.34721 -2.97195 0
M  V30 11733 H 1133.84 2.87405 -2.45371 0
M  V30 11734 H 1134.15 5.45212 -5.47689 0
M  V30 11735 H 1132.5 4.90816 -4.92061 0
M  V30 11736 H 1135.69 3.50477 -3.10296 0
M  V30 11737 H 1135.86 4.68054 -4.4814 0
M  V30 11738 N 1129.27 0.921757 1.27833 0
M  V30 11739 C 1130.23 0.420978 2.25301 0
M  V30 11740 C 1131.23 -0.457158 1.54165 0
M  V30 11741 O 1132.42 -0.259079 1.72263 0
M  V30 11742 C 1129.55 -0.395501 3.38598 0
M  V30 11743 H 1130.75 1.28206 2.71115 0
M  V30 11744 H 1128.3 0.701893 1.39654 0
M  V30 11745 H 1129.03 -1.27565 2.98157 0
M  V30 11746 H 1128.82 0.234029 3.91401 0
M  V30 11747 H 1130.31 -0.736444 4.11055 0
M  V30 11748 N 1130.75 -1.41857 0.686609 0
M  V30 11749 C 1131.99 -2.0097 0.213378 0
M  V30 11750 C 1132.32 -1.54618 -1.1882 0
M  V30 11751 O 1131.59 -0.772916 -1.80008 0
M  V30 11752 H 1130.17 -0.743134 0.0758968 0
M  V30 11753 H 1132.83 -1.73609 0.885763 0
M  V30 11754 H 1131.92 -3.11296 0.223826 0
M  V30 11755 N 1132.22 -0.430739 -1.51599 0
M  V30 11756 C 1133.17 0.384024 -2.27583 0
M  V30 11757 C 1134.14 1.02254 -1.30895 0
M  V30 11758 O 1135.33 1.0427 -1.59789 0
M  V30 11759 C 1132.47 1.48291 -3.11615 0
M  V30 11760 C 1131.58 0.863187 -4.23288 0
M  V30 11761 C 1130.71 1.93657 -4.94642 0
M  V30 11762 C 1129.75 1.29493 -5.98246 0
M  V30 11763 N 1128.89 2.30939 -6.63032 0
M  V30 11764 H 1133.73 -0.270314 -2.96771 0
M  V30 11765 H 1131.27 -0.145148 -1.46382 0
M  V30 11766 H 1133.23 2.13124 -3.58656 0
M  V30 11767 H 1131.86 2.10697 -2.44554 0
M  V30 11768 H 1130.91 0.103326 -3.8026 0
M  V30 11769 H 1132.22 0.354676 -4.97537 0
M  V30 11770 H 1131.37 2.66167 -5.45197 0
M  V30 11771 H 1130.11 2.4788 -4.20008 0
M  V30 11772 H 1129.12 0.555262 -5.46989 0
M  V30 11773 H 1130.34 0.760122 -6.74833 0
M  V30 11774 H 1128.29 2.84254 -5.91216 0
M  V30 11775 H 1128.21 1.84961 -7.33025 0
M  V30 11776 H 1129.47 3.02953 -7.1822 0
M  V30 11777 N 1133.7 1.56767 -0.161869 0
M  V30 11778 C 1135.11 1.83265 0.356466 0
M  V30 11779 C 1135.46 1.08127 1.63716 0
M  V30 11780 O 1134.59 0.33127 2.13849 0
M  V30 11781 C 1135.18 3.32437 0.653521 0
M  V30 11782 C 1133.74 3.59465 1.11633 0
M  V30 11783 C 1132.89 2.76909 0.147204 0
M  V30 11784 H 1135.84 1.53926 -0.386308 0
M  V30 11785 H 1135.86 3.49401 1.50662 0
M  V30 11786 H 1135.37 3.87098 -0.278766 0
M  V30 11787 H 1133.48 3.10206 2.06404 0
M  V30 11788 H 1133.59 4.67853 1.03202 0
M  V30 11789 H 1131.95 2.46457 0.642739 0
M  V30 11790 H 1132.74 3.34346 -0.778938 0
M  V30 11791 N 1135.18 -0.111886 1.57202 0
M  V30 11792 C 1136.41 -0.832407 1.89416 0
M  V30 11793 C 1136.82 -1.73096 0.753861 0
M  V30 11794 O 1136.18 -1.80416 -0.274992 0
M  V30 11795 C 1136.23 -1.65988 3.21139 0
M  V30 11796 O 1135.95 -0.797485 4.3078 0
M  V30 11797 C 1137.45 -2.48493 3.67105 0
M  V30 11798 H 1134.67 -0.238919 0.627024 0
M  V30 11799 H 1137.22 -0.0941456 2.04283 0
M  V30 11800 H 1135.37 -2.35082 3.07921 0
M  V30 11801 H 1135.79 -1.36892 5.06321 0
M  V30 11802 H 1137.26 -3.02072 4.62014 0
M  V30 11803 H 1137.74 -3.26182 2.94112 0
M  V30 11804 H 1138.34 -1.84628 3.83135 0
M  V30 11805 N 1136.66 -1.52894 -0.382264 0
M  V30 11806 C 1137.62 -1.77497 -1.45008 0
M  V30 11807 C 1138.62 -0.64509 -1.47293 0
M  V30 11808 O 1139.81 -0.913192 -1.48346 0
M  V30 11809 C 1136.94 -1.88188 -2.8425 0
M  V30 11810 H 1138.14 -2.72849 -1.24473 0
M  V30 11811 H 1135.69 -1.43717 -0.61441 0
M  V30 11812 H 1136.42 -0.948451 -3.10121 0
M  V30 11813 H 1136.21 -2.70353 -2.83992 0
M  V30 11814 H 1137.7 -2.08873 -3.6161 0
M  V30 11815 N 1138.14 0.641106 -1.43971 0
M  V30 11816 C 1139.36 1.43324 -1.4991 0
M  V30 11817 C 1139.79 1.87705 -0.121908 0
M  V30 11818 O 1139.15 1.58127 0.886875 0
M  V30 11819 C 1139.19 2.63637 -2.46025 0
M  V30 11820 O 1138.3 3.63123 -1.95488 0
M  V30 11821 H 1137.64 0.429252 -0.506595 0
M  V30 11822 H 1140.17 0.783427 -1.89007 0
M  V30 11823 H 1140.18 3.11304 -2.63731 0
M  V30 11824 H 1138.85 2.30678 -3.46064 0
M  V30 11825 H 1137.43 3.22332 -1.87501 0
M  V30 11826 N 1139.62 1.30703 0.880598 0
M  V30 11827 C 1140.89 1.1043 1.61445 0
M  V30 11828 C 1141.27 -0.344837 2.08264 0
M  V30 11829 O 1140.62 -1.33711 1.85293 0
M  V30 11830 C 1140.83 2.10908 2.78063 0
M  V30 11831 C 1142.18 2.42861 3.48287 0
M  V30 11832 O 1143.2 2.09252 2.88257 0
M  V30 11833 O 1142.06 3.00369 4.56553 0
M  V30 11834 H 1139.16 0.424419 0.709787 0
M  V30 11835 H 1141.7 1.42144 0.926991 0
M  V30 11836 H 1140.47 3.08431 2.40803 0
M  V30 11837 H 1140.1 1.80036 3.54503 0
M  V30 11838 N 1141.09 -1.09351 1.1349 0
M  V30 11839 C 1142.37 -1.78121 0.808225 0
M  V30 11840 C 1142.75 -1.99154 -0.700072 0
M  V30 11841 O 1142.1 -1.59356 -1.63762 0
M  V30 11842 C 1142.31 -3.10368 1.59601 0
M  V30 11843 C 1143.66 -3.85063 1.78919 0
M  V30 11844 O 1144.68 -3.20122 1.56206 0
M  V30 11845 O 1143.54 -5.01648 2.16821 0
M  V30 11846 H 1140.63 -0.77253 0.295173 0
M  V30 11847 H 1143.18 -1.15901 1.23956 0
M  V30 11848 H 1141.95 -2.90549 2.62101 0
M  V30 11849 H 1141.57 -3.80312 1.15967 0
M  V30 11850 N 1142.57 -0.928524 -1.27343 0
M  V30 11851 C 1143.8 -0.585734 -1.98436 0
M  V30 11852 C 1144.21 0.83644 -1.69261 0
M  V30 11853 O 1143.57 1.55603 -0.953626 0
M  V30 11854 C 1143.62 -0.803092 -3.52467 0
M  V30 11855 O 1143.34 -2.16932 -3.80621 0
M  V30 11856 C 1144.84 -0.469127 -4.40811 0
M  V30 11857 H 1142.06 -0.221887 -0.633251 0
M  V30 11858 H 1144.61 -1.24577 -1.62175 0
M  V30 11859 H 1142.76 -0.189846 -3.86935 0
M  V30 11860 H 1143.18 -2.21992 -4.75205 0
M  V30 11861 H 1144.65 -0.671906 -5.47895 0
M  V30 11862 H 1145.13 0.595365 -4.35146 0
M  V30 11863 H 1145.73 -1.06055 -4.11865 0
M  V30 11864 N 1144.05 1.41491 -0.694123 0
M  V30 11865 C 1145.27 2.06099 -0.23197 0
M  V30 11866 C 1145.7 1.51888 1.10958 0
M  V30 11867 O 1145.06 0.645247 1.69429 0
M  V30 11868 C 1145.11 3.60053 -0.198522 0
M  V30 11869 O 1144.21 4.04021 0.827067 0
M  V30 11870 H 1143.55 0.654193 -0.113699 0
M  V30 11871 H 1146.08 1.81282 -0.948575 0
M  V30 11872 H 1146.09 4.0799 -0.0288904 0
M  V30 11873 H 1144.77 3.98879 -1.17764 0
M  V30 11874 H 1143.34 3.67593 0.626908 0
M  V30 11875 N 1145.53 0.438773 1.51369 0
M  V30 11876 C 1146.47 -0.37195 2.27783 0
M  V30 11877 C 1147.44 -1.01558 1.31435 0
M  V30 11878 O 1148.63 -1.03421 1.60339 0
M  V30 11879 C 1145.77 -1.46636 3.12397 0
M  V30 11880 C 1144.88 -0.840727 4.2374 0
M  V30 11881 C 1144.02 -1.91031 4.95662 0
M  V30 11882 C 1143.06 -1.26318 5.98924 0
M  V30 11883 N 1142.19 -2.27419 6.64248 0
M  V30 11884 H 1147.03 0.286048 2.96624 0
M  V30 11885 H 1144.57 0.152909 1.46303 0
M  V30 11886 H 1146.53 -2.11219 3.59781 0
M  V30 11887 H 1145.16 -2.09397 2.45668 0
M  V30 11888 H 1144.21 -0.0831588 3.80309 0
M  V30 11889 H 1145.52 -0.328285 4.97719 0
M  V30 11890 H 1144.68 -2.63272 5.46601 0
M  V30 11891 H 1143.42 -2.45649 4.21317 0
M  V30 11892 H 1142.42 -0.526246 5.47276 0
M  V30 11893 H 1143.65 -0.724324 6.75226 0
M  V30 11894 H 1141.59 -2.81114 5.92715 0
M  V30 11895 H 1141.51 -1.81071 7.33996 0
M  V30 11896 H 1142.78 -2.99139 7.19817 0
M  V30 11897 N 1147.01 -1.56678 0.170181 0
M  V30 11898 C 1148.42 -1.83452 -0.346742 0
M  V30 11899 C 1148.77 -1.08993 -1.63141 0
M  V30 11900 O 1147.89 -0.342607 -2.13671 0
M  V30 11901 C 1148.49 -3.32779 -0.635882 0
M  V30 11902 C 1147.05 -3.60052 -1.09725 0
M  V30 11903 C 1146.19 -2.76983 -0.132516 0
M  V30 11904 H 1149.14 -1.53719 0.394465 0
M  V30 11905 H 1149.17 -3.50195 -1.48806 0
M  V30 11906 H 1148.68 -3.86944 0.299291 0
M  V30 11907 H 1146.78 -3.11297 -2.04756 0
M  V30 11908 H 1146.89 -4.68393 -1.00719 0
M  V30 11909 H 1145.26 -2.46794 -0.62966 0
M  V30 11910 H 1146.04 -3.33929 0.796658 0
M  V30 11911 N 1148.48 0.103547 -1.57259 0
M  V30 11912 C 1149.73 0.808576 -1.85656 0
M  V30 11913 C 1150.06 1.79143 -0.757502 0
M  V30 11914 O 1149.31 1.941 0.249723 0
M  V30 11915 C 1149.61 1.57946 -3.20605 0
M  V30 11916 C 1149.28 0.739502 -4.44795 0
M  V30 11917 C 1147.94 0.507921 -4.78512 0
M  V30 11918 C 1150.29 0.155034 -5.20969 0
M  V30 11919 C 1147.62 -0.318129 -5.85837 0
M  V30 11920 C 1149.97 -0.658292 -6.29166 0
M  V30 11921 C 1148.64 -0.900044 -6.61404 0
M  V30 11922 H 1147.91 0.295879 -0.679365 0
M  V30 11923 H 1150.55 0.0703604 -1.91371 0
M  V30 11924 H 1148.86 2.38902 -3.10537 0
M  V30 11925 H 1150.56 2.12921 -3.39803 0
M  V30 11926 H 1147.15 0.930103 -4.18386 0
M  V30 11927 H 1151.33 0.32113 -4.9526 0
M  V30 11928 H 1146.59 -0.514495 -6.09231 0
M  V30 11929 H 1150.76 -1.11809 -6.87366 0
M  V30 11930 H 1148.39 -1.54194 -7.44398 0
M  V30 11931 N 1149.96 1.53094 0.37415 0
M  V30 11932 C 1151.37 1.60641 0.951381 0
M  V30 11933 C 1151.72 0.468474 1.90525 0
M  V30 11934 O 1150.85 -0.406347 2.12551 0
M  V30 11935 C 1151.44 2.91166 1.73228 0
M  V30 11936 C 1150 3.01077 2.25898 0
M  V30 11937 C 1149.15 2.55873 1.06885 0
M  V30 11938 H 1152.1 1.57959 0.153214 0
M  V30 11939 H 1152.12 2.78487 2.59278 0
M  V30 11940 H 1151.63 3.73968 1.03778 0
M  V30 11941 H 1149.73 2.22844 2.98615 0
M  V30 11942 H 1149.85 4.05998 2.54367 0
M  V30 11943 H 1148.21 2.10544 1.43329 0
M  V30 11944 H 1148.99 3.41084 0.38947 0
M  V30 11945 N 1151.44 -0.633461 1.44309 0
M  V30 11946 C 1152.86 -0.951379 1.28144 0
M  V30 11947 C 1153.06 -2.00344 0.215512 0
M  V30 11948 O 1152.11 -2.49321 -0.399389 0
M  V30 11949 C 1153.42 -1.41686 2.65227 0
M  V30 11950 C 1154.97 -1.53247 2.72918 0
M  V30 11951 C 1155.45 -2.03179 4.10466 0
M  V30 11952 N 1156.94 -2.10453 4.1263 0
M  V30 11953 C 1157.67 -2.50254 5.15907 0
M  V30 11954 N 1157.17 -2.89209 6.29547 0
M  V30 11955 N 1158.96 -2.50368 5.03262 0
M  V30 11956 H 1151.11 0.0623574 2.12308 0
M  V30 11957 H 1153.38 -0.0347244 0.947364 0
M  V30 11958 H 1153.08 -0.71814 3.4429 0
M  V30 11959 H 1152.96 -2.3883 2.91959 0
M  V30 11960 H 1155.34 -2.22216 1.94176 0
M  V30 11961 H 1155.42 -0.544836 2.4993 0
M  V30 11962 H 1155.07 -1.34806 4.89683 0
M  V30 11963 H 1155 -3.02809 4.3083 0
M  V30 11964 H 1157.49 -1.83042 3.30612 0
M  V30 11965 H 1157.8 -3.18386 7.04166 0
M  V30 11966 H 1156.15 -2.86966 6.32989 0
M  V30 11967 H 1159.34 -2.19324 4.13539 0
M  V30 11968 H 1159.51 -2.81062 5.83873 0
M  V30 11969 N 1152.92 -1.31168 -0.873655 0
M  V30 11970 C 1154.14 -1.23728 -1.66452 0
M  V30 11971 C 1154.57 0.194869 -1.87088 0
M  V30 11972 O 1153.93 1.1397 -1.40998 0
M  V30 11973 C 1153.97 -1.98285 -3.0119 0
M  V30 11974 O 1153.08 -1.31767 -3.90783 0
M  V30 11975 H 1152.42 -0.427362 -0.508191 0
M  V30 11976 H 1154.95 -1.73176 -1.08955 0
M  V30 11977 H 1154.96 -2.0774 -3.51153 0
M  V30 11978 H 1153.63 -3.02437 -2.8549 0
M  V30 11979 H 1152.21 -1.3074 -3.4923 0
M  V30 11980 N 1154.4 1.08748 -1.14068 0
M  V30 11981 C 1155.34 2.17667 -0.819981 0
M  V30 11982 C 1156.34 1.68207 0.200654 0
M  V30 11983 O 1157.54 1.79909 0.0571014 0
M  V30 11984 H 1153.92 0.710129 -0.247427 0
M  V30 11985 H 1155.89 2.41944 -1.74659 0
M  V30 11986 C 1154.64 3.46315 -0.309985 0
M  V30 11987 H 1153.96 3.84748 -1.08669 0
M  V30 11988 H 1155.4 4.23818 -0.124094 0
M  V30 11989 C 1153.86 3.22762 0.965724 0
M  V30 11990 O 1154.39 3.46034 2.04018 0
M  V30 11991 N 1152.6 2.76326 0.899576 0
M  V30 11992 H 1152.14 2.57588 0.0250598 0
M  V30 11993 H 1152.1 2.60945 1.75371 0
M  V30 11994 N 1155.87 0.935264 1.26849 0
M  V30 11995 C 1157.1 0.595704 1.98661 0
M  V30 11996 C 1157.52 -0.821001 1.69237 0
M  V30 11997 O 1156.88 -1.55211 0.936982 0
M  V30 11998 C 1156.93 0.837275 3.50745 0
M  V30 11999 O 1156.03 -0.0934914 4.12294 0
M  V30 12000 H 1155.38 0.228512 0.623441 0
M  V30 12001 H 1157.91 1.25658 1.61466 0
M  V30 12002 H 1157.92 0.755827 4.00938 0
M  V30 12003 H 1156.59 1.86993 3.71492 0
M  V30 12004 H 1155.17 0.0385124 3.7288 0
M  V30 12005 N 1157.35 -1.41121 0.701616 0
M  V30 12006 C 1158.58 -2.05452 0.244365 0
M  V30 12007 C 1159 -1.5282 -1.10866 0
M  V30 12008 O 1158.35 -0.67893 -1.69401 0
M  V30 12009 C 1158.4 -3.60946 0.200112 0
M  V30 12010 O 1158.12 -4.11632 1.4997 0
M  V30 12011 C 1159.63 -4.42431 -0.277394 0
M  V30 12012 H 1156.85 -0.66151 0.112453 0
M  V30 12013 H 1159.39 -1.80784 0.9559 0
M  V30 12014 H 1157.54 -3.84632 -0.462287 0
M  V30 12015 H 1157.96 -5.05723 1.39084 0
M  V30 12016 H 1159.43 -5.514 -0.257225 0
M  V30 12017 H 1159.91 -4.1898 -1.31728 0
M  V30 12018 H 1160.52 -4.23822 0.354223 0
M  V30 12019 N 1158.83 -0.446794 -1.51134 0
M  V30 12020 C 1160.06 0.117242 -2.07068 0
M  V30 12021 C 1160.48 1.34877 -1.3111 0
M  V30 12022 O 1159.84 1.77856 -0.35172 0
M  V30 12023 C 1159.89 0.408616 -3.58277 0
M  V30 12024 O 1158.99 1.49345 -3.84408 0
M  V30 12025 H 1158.33 -0.00228458 -0.663996 0
M  V30 12026 H 1160.86 -0.63085 -1.94632 0
M  V30 12027 H 1160.87 0.656298 -4.02687 0
M  V30 12028 H 1159.55 -0.491444 -4.12986 0
M  V30 12029 H 1158.12 1.23499 -3.51856 0
M  V30 12030 N 1160.31 1.56586 -0.178487 0
M  V30 12031 C 1161.53 2.01915 0.473841 0
M  V30 12032 C 1161.96 1.05789 1.55533 0
M  V30 12033 O 1161.32 0.0386018 1.81259 0
M  V30 12034 C 1161.36 3.45799 1.02251 0
M  V30 12035 O 1160.47 3.52761 2.1362 0
M  V30 12036 H 1159.81 0.654372 0.112666 0
M  V30 12037 H 1162.34 2.02613 -0.284486 0
M  V30 12038 H 1162.35 3.85252 1.34332 0
M  V30 12039 H 1161.02 4.1526 0.230719 0
M  V30 12040 H 1159.6 3.25172 1.8253 0
M  V30 12041 N 1161.79 -0.095206 1.57312 0
M  V30 12042 C 1162.72 -1.14662 1.97301 0
M  V30 12043 C 1163.7 -1.38845 0.846212 0
M  V30 12044 O 1164.88 -1.52607 1.1065 0
M  V30 12045 C 1162.01 -2.49582 2.28968 0
M  V30 12046 C 1161.05 -2.41681 3.51415 0
M  V30 12047 S 1161.89 -1.83343 5.03136 0
M  V30 12048 C 1163.04 -3.19888 5.3798 0
M  V30 12049 H 1163.28 -0.805726 2.86174 0
M  V30 12050 H 1160.81 -0.302881 1.514 0
M  V30 12051 H 1162.77 -3.27202 2.47889 0
M  V30 12052 H 1161.43 -2.80841 1.40667 0
M  V30 12053 H 1160.62 -3.41122 3.71015 0
M  V30 12054 H 1160.22 -1.7219 3.32004 0
M  V30 12055 H 1162.52 -4.16161 5.34618 0
M  V30 12056 H 1163.46 -3.05093 6.39002 0
M  V30 12057 H 1163.87 -3.19414 4.6544 0
M  V30 12058 N 1163.26 -1.53291 -0.366026 0
M  V30 12059 C 1164.49 -1.73665 -1.13381 0
M  V30 12060 C 1164.91 -0.464284 -1.8228 0
M  V30 12061 O 1164.27 0.581645 -1.71717 0
M  V30 12062 C 1164.32 -2.90225 -2.14013 0
M  V30 12063 O 1163.42 -2.58803 -3.21084 0
M  V30 12064 H 1162.77 -0.576762 -0.329 0
M  V30 12065 H 1165.3 -2.00174 -0.423287 0
M  V30 12066 H 1165.31 -3.16378 -2.57622 0
M  V30 12067 H 1163.98 -3.82518 -1.63257 0
M  V30 12068 H 1162.56 -2.43466 -2.82451 0
M  V30 12069 N 1164.74 0.6258 -1.44643 0
M  V30 12070 C 1165.97 1.41726 -1.51422 0
M  V30 12071 C 1166.39 1.87565 -0.14181 0
M  V30 12072 O 1165.75 1.59059 0.870054 0
M  V30 12073 C 1165.8 2.61012 -2.48807 0
M  V30 12074 O 1164.9 3.61029 -1.99328 0
M  V30 12075 H 1164.24 0.423855 -0.511119 0
M  V30 12076 H 1166.77 0.763336 -1.89827 0
M  V30 12077 H 1166.78 3.08489 -2.67018 0
M  V30 12078 H 1165.46 2.26995 -3.48491 0
M  V30 12079 H 1164.04 3.20325 -1.90909 0
M  V30 12080 N 1166.22 1.31629 0.866686 0
M  V30 12081 C 1167.47 1.21263 1.61678 0
M  V30 12082 C 1167.79 -0.228562 1.93656 0
M  V30 12083 O 1167.06 -1.15014 1.58583 0
M  V30 12084 H 1165.64 0.445817 0.59938 0
M  V30 12085 H 1168.3 1.64998 1.03739 0
M  V30 12086 H 1167.4 1.78669 2.55898 0
M  V30 12087 N 1167.7 -1.08142 1.14644 0
M  V30 12088 C 1168.63 -2.17139 0.858667 0
M  V30 12089 C 1169.61 -1.69064 -0.187452 0
M  V30 12090 O 1170.8 -1.94151 -0.0435458 0
M  V30 12091 C 1167.93 -3.45648 0.33834 0
M  V30 12092 C 1166.88 -4.07129 1.32021 0
M  V30 12093 C 1166.21 -5.30623 0.659075 0
M  V30 12094 C 1167.51 -4.48095 2.68343 0
M  V30 12095 H 1169.2 -2.41468 1.77012 0
M  V30 12096 H 1166.75 -1.16052 0.852523 0
M  V30 12097 H 1168.7 -4.21216 0.124611 0
M  V30 12098 H 1167.42 -3.2088 -0.608553 0
M  V30 12099 H 1166.08 -3.33596 1.52016 0
M  V30 12100 H 1165.73 -5.02142 -0.293711 0
M  V30 12101 H 1165.43 -5.72714 1.31427 0
M  V30 12102 H 1166.95 -6.08903 0.454933 0
M  V30 12103 H 1168.37 -5.14828 2.5224 0
M  V30 12104 H 1166.76 -5.01113 3.30161 0
M  V30 12105 H 1167.83 -3.59852 3.25015 0
M  V30 12106 N 1169.18 -0.941978 -1.26351 0
M  V30 12107 C 1170.59 -0.632522 -1.75659 0
M  V30 12108 C 1170.94 0.852287 -1.76722 0
M  V30 12109 O 1170.06 1.66701 -1.37985 0
M  V30 12110 C 1170.66 -1.14145 -3.18993 0
M  V30 12111 C 1169.22 -0.882391 -3.65911 0
M  V30 12112 C 1168.37 -1.29189 -2.45368 0
M  V30 12113 H 1171.32 -1.12019 -1.12416 0
M  V30 12114 H 1171.34 -0.495639 -3.77258 0
M  V30 12115 H 1170.85 -2.22213 -3.18187 0
M  V30 12116 H 1168.95 0.183873 -3.72146 0
M  V30 12117 H 1169.06 -1.50996 -4.54683 0
M  V30 12118 H 1167.43 -0.710316 -2.44595 0
M  V30 12119 H 1168.21 -2.38152 -2.47262 0
M  V30 12120 N 1170.66 1.40747 -0.709091 0
M  V30 12121 C 1171.57 2.3454 -0.0532205 0
M  V30 12122 C 1172.58 1.56956 0.751057 0
M  V30 12123 O 1173.76 1.89375 0.685509 0
M  V30 12124 C 1170.82 3.35809 0.862157 0
M  V30 12125 C 1169.88 4.29273 0.0485632 0
M  V30 12126 C 1169.12 5.25705 0.920345 0
M  V30 12127 O 1169.34 5.27933 2.15969 0
M  V30 12128 O 1168.27 6.00806 0.3628 0
M  V30 12129 H 1172.1 2.92232 -0.826698 0
M  V30 12130 H 1169.68 1.4183 -0.469519 0
M  V30 12131 H 1171.57 3.97931 1.38668 0
M  V30 12132 H 1170.24 2.8054 1.61489 0
M  V30 12133 H 1169.15 3.70456 -0.520873 0
M  V30 12134 H 1170.48 4.87676 -0.665807 0
M  V30 12135 N 1172.13 0.454803 1.50895 0
M  V30 12136 C 1173.07 -0.383826 2.25963 0
M  V30 12137 C 1174.08 -0.971263 1.30653 0
M  V30 12138 O 1175.27 -0.862434 1.56283 0
M  V30 12139 C 1172.37 -1.55069 3.01342 0
M  V30 12140 C 1171.54 -1.07899 4.23883 0
M  V30 12141 C 1170.6 -2.118 4.81692 0
M  V30 12142 O 1169.63 -1.70523 5.43057 0
M  V30 12143 N 1170.83 -3.44459 4.67256 0
M  V30 12144 H 1173.59 0.259646 2.98573 0
M  V30 12145 H 1171.15 0.284661 1.59378 0
M  V30 12146 H 1173.15 -2.24236 3.36898 0
M  V30 12147 H 1171.72 -2.09917 2.31633 0
M  V30 12148 H 1170.94 -0.213773 3.9362 0
M  V30 12149 H 1172.22 -0.741501 5.03368 0
M  V30 12150 H 1171.62 -3.80716 4.18416 0
M  V30 12151 H 1170.18 -4.0947 5.07127 0
M  V30 12152 N 1173.61 -1.56489 0.186789 0
M  V30 12153 C 1174.89 -1.89066 -0.501337 0
M  V30 12154 C 1175.27 -1.09906 -1.80233 0
M  V30 12155 O 1174.62 -0.197626 -2.27644 0
M  V30 12156 C 1174.83 -3.41318 -0.728207 0
M  V30 12157 C 1176.17 -4.11379 -1.0513 0
M  V30 12158 O 1177.2 -3.46722 -0.816216 0
M  V30 12159 O 1176.06 -5.25638 -1.49557 0
M  V30 12160 H 1173.15 -0.784966 -0.260303 0
M  V30 12161 H 1175.7 -1.68183 0.226382 0
M  V30 12162 H 1174.47 -3.90834 0.19088 0
M  V30 12163 H 1174.09 -3.67865 -1.50869 0
M  V30 12164 N 1175.09 0.086862 -1.5736 0
M  V30 12165 C 1176.51 0.441284 -1.53378 0
M  V30 12166 C 1176.71 1.80046 -0.904748 0
M  V30 12167 O 1175.76 2.47484 -0.500781 0
M  V30 12168 C 1177.07 0.3962 -2.98078 0
M  V30 12169 C 1178.62 0.477468 -3.09337 0
M  V30 12170 C 1179.1 0.462448 -4.55659 0
M  V30 12171 N 1180.59 0.522963 -4.60238 0
M  V30 12172 C 1181.32 0.533313 -5.70914 0
M  V30 12173 N 1180.82 0.499376 -6.90998 0
M  V30 12174 N 1182.61 0.578742 -5.59113 0
M  V30 12175 H 1174.76 -0.803308 -1.96623 0
M  V30 12176 H 1177.03 -0.299879 -0.89932 0
M  V30 12177 H 1176.73 -0.535505 -3.47599 0
M  V30 12178 H 1176.61 1.21209 -3.57195 0
M  V30 12179 H 1178.99 1.39959 -2.59799 0
M  V30 12180 H 1179.07 -0.366717 -2.53158 0
M  V30 12181 H 1178.72 -0.455768 -5.05851 0
M  V30 12182 H 1178.65 1.32396 -5.09685 0
M  V30 12183 H 1181.14 0.554051 -3.73816 0
M  V30 12184 H 1181.45 0.510784 -7.7111 0
M  V30 12185 H 1179.8 0.466296 -6.93434 0
M  V30 12186 H 1182.99 0.602841 -4.64202 0
M  V30 12187 H 1183.16 0.583339 -6.45369 0
M  V30 12188 N 1176.57 1.53483 0.357892 0
M  V30 12189 C 1177.5 1.75257 1.46151 0
M  V30 12190 C 1178.48 0.601167 1.51079 0
M  V30 12191 O 1179.66 0.834661 1.69014 0
M  V30 12192 C 1176.79 1.8383 2.84472 0
M  V30 12193 C 1175.84 3.05866 2.97234 0
M  V30 12194 S 1176.67 4.65225 2.6519 0
M  V30 12195 C 1177.82 4.76657 4.05646 0
M  V30 12196 H 1178.06 2.6859 1.27462 0
M  V30 12197 H 1175.59 1.44169 0.552697 0
M  V30 12198 H 1177.55 1.89454 3.64167 0
M  V30 12199 H 1176.21 0.915345 3.00467 0
M  V30 12200 H 1175.4 3.08497 3.98555 0
M  V30 12201 H 1175 2.98393 2.25471 0
M  V30 12202 H 1177.3 4.57185 4.99988 0
M  V30 12203 H 1178.24 5.7873 4.08016 0
M  V30 12204 H 1178.65 4.05226 3.93004 0
M  V30 12205 N 1178.05 -0.61812 1.44973 0
M  V30 12206 C 1179.01 -1.71135 1.52465 0
M  V30 12207 C 1180.01 -1.5561 0.405246 0
M  V30 12208 O 1181.2 -1.60869 0.668351 0
M  V30 12209 C 1178.33 -3.10324 1.41108 0
M  V30 12210 H 1179.52 -1.65862 2.49859 0
M  V30 12211 H 1177.08 -0.832932 1.32257 0
M  V30 12212 H 1177.81 -3.21183 0.448574 0
M  V30 12213 H 1177.6 -3.23001 2.2229 0
M  V30 12214 H 1179.09 -3.89976 1.49361 0
M  V30 12215 N 1179.52 -1.32087 -0.859693 0
M  V30 12216 C 1180.46 -1.14934 -1.97143 0
M  V30 12217 C 1181.43 -0.0501084 -1.62523 0
M  V30 12218 O 1182.62 -0.208472 -1.87344 0
M  V30 12219 C 1179.75 -0.758374 -3.30101 0
M  V30 12220 C 1178.79 -1.86212 -3.83702 0
M  V30 12221 S 1179.62 -3.46949 -4.07905 0
M  V30 12222 C 1180.78 -3.09813 -5.43844 0
M  V30 12223 H 1181.01 -2.09047 -2.11392 0
M  V30 12224 H 1178.55 -1.1669 -1.01108 0
M  V30 12225 H 1180.5 -0.539563 -4.06939 0
M  V30 12226 H 1179.17 0.163817 -3.13673 0
M  V30 12227 H 1178.36 -1.54144 -4.7985 0
M  V30 12228 H 1177.96 -2.03652 -3.13691 0
M  V30 12229 H 1180.25 -2.59345 -6.25897 0
M  V30 12230 H 1181.2 -4.04963 -5.8087 0
M  V30 12231 H 1181.6 -2.46971 -5.07607 0
M  V30 12232 N 1181 1.07532 -1.15215 0
M  V30 12233 C 1182.23 1.83817 -0.949687 0
M  V30 12234 C 1182.64 1.82004 0.501991 0
M  V30 12235 O 1182 1.23014 1.34811 0
M  V30 12236 C 1182.05 3.30978 -1.45382 0
M  V30 12237 O 1181.77 3.32844 -2.84863 0
M  V30 12238 C 1183.27 4.24037 -1.29257 0
M  V30 12239 H 1180.49 0.58 -0.337404 0
M  V30 12240 H 1183.04 1.35752 -1.52944 0
M  V30 12241 H 1181.19 3.76399 -0.916638 0
M  V30 12242 H 1181.61 4.24773 -3.07682 0
M  V30 12243 H 1183.08 5.25371 -1.69379 0
M  V30 12244 H 1183.56 4.38563 -0.236519 0
M  V30 12245 H 1184.16 3.8445 -1.81874 0
M  V30 12246 N 1182.48 0.948665 1.2585 0
M  V30 12247 C 1183.41 0.482036 2.2847 0
M  V30 12248 C 1184.39 -0.468553 1.63519 0
M  V30 12249 O 1185.58 -0.368796 1.90666 0
M  V30 12250 C 1182.71 -0.246603 3.46423 0
M  V30 12251 C 1181.66 0.61815 4.23513 0
M  V30 12252 C 1180.99 -0.240884 5.34157 0
M  V30 12253 C 1182.29 1.89327 4.86778 0
M  V30 12254 H 1183.98 1.33973 2.67753 0
M  V30 12255 H 1181.53 0.645645 1.28715 0
M  V30 12256 H 1183.48 -0.584135 4.17332 0
M  V30 12257 H 1182.2 -1.13849 3.06114 0
M  V30 12258 H 1180.86 0.938682 3.54379 0
M  V30 12259 H 1180.51 -1.13235 4.90089 0
M  V30 12260 H 1180.21 0.334367 5.86648 0
M  V30 12261 H 1181.73 -0.573517 6.07901 0
M  V30 12262 H 1183.15 1.62252 5.49861 0
M  V30 12263 H 1181.55 2.41369 5.49419 0
M  V30 12264 H 1182.62 2.60006 4.09298 0
M  V30 12265 N 1183.96 -1.40369 0.716545 0
M  V30 12266 C 1185.37 -1.83783 0.328719 0
M  V30 12267 C 1185.72 -1.5991 -1.13681 0
M  V30 12268 O 1184.85 -1.08048 -1.87496 0
M  V30 12269 C 1185.44 -3.33626 0.589848 0
M  V30 12270 C 1184 -3.7553 0.25572 0
M  V30 12271 C 1183.15 -2.63571 0.861733 0
M  V30 12272 H 1186.1 -1.29623 0.915621 0
M  V30 12273 H 1186.12 -3.80225 -0.14459 0
M  V30 12274 H 1185.63 -3.5097 1.65655 0
M  V30 12275 H 1183.73 -3.63781 -0.805883 0
M  V30 12276 H 1183.84 -4.73577 0.725388 0
M  V30 12277 H 1182.21 -2.53047 0.289706 0
M  V30 12278 H 1182.99 -2.83727 1.93272 0
M  V30 12279 N 1185.44 -0.462799 -1.50652 0
M  V30 12280 C 1186.85 -0.11648 -1.59174 0
M  V30 12281 C 1187.05 1.37638 -1.47167 0
M  V30 12282 O 1186.11 2.14886 -1.3259 0
M  V30 12283 C 1187.42 -0.659289 -2.93383 0
M  V30 12284 C 1188.97 -0.62198 -3.06758 0
M  V30 12285 C 1189.44 -1.14219 -4.43529 0
M  V30 12286 N 1190.94 -1.10125 -4.49919 0
M  V30 12287 C 1191.67 -1.47436 -5.54121 0
M  V30 12288 N 1191.17 -1.92156 -6.65618 0
M  V30 12289 N 1192.96 -1.39091 -5.44619 0
M  V30 12290 H 1185.11 -1.43383 -1.56701 0
M  V30 12291 H 1187.37 -0.592438 -0.740082 0
M  V30 12292 H 1187.08 -1.70477 -3.07621 0
M  V30 12293 H 1186.95 -0.0982388 -3.77072 0
M  V30 12294 H 1189.34 0.414576 -2.92173 0
M  V30 12295 H 1189.42 -1.21974 -2.24847 0
M  V30 12296 H 1189.07 -2.17734 -4.58862 0
M  V30 12297 H 1189 -0.52073 -5.24019 0
M  V30 12298 H 1191.49 -0.773154 -3.69906 0
M  V30 12299 H 1191.8 -2.18796 -7.4118 0
M  V30 12300 H 1190.14 -1.96103 -6.6676 0
M  V30 12301 H 1193.34 -1.04001 -4.564 0
M  V30 12302 H 1193.51 -1.68496 -6.2571 0
M  V30 12303 N 1186.91 1.56388 -0.195085 0
M  V30 12304 C 1187.86 2.20431 0.742484 0
M  V30 12305 C 1188.86 1.17548 1.21979 0
M  V30 12306 O 1190.06 1.35693 1.18269 0
M  V30 12307 H 1186.44 0.706435 0.257786 0
M  V30 12308 H 1188.41 2.97865 0.178624 0
M  V30 12309 C 1187.16 2.87772 1.95147 0
M  V30 12310 H 1186.48 3.66681 1.59326 0
M  V30 12311 H 1187.92 3.36021 2.58585 0
M  V30 12312 C 1186.38 1.88807 2.79022 0
M  V30 12313 O 1186.91 1.38836 3.76945 0
M  V30 12314 N 1185.12 1.57037 2.44515 0
M  V30 12315 H 1184.66 1.97868 1.64943 0
M  V30 12316 H 1184.62 0.910776 3.00919 0
M  V30 12317 N 1188.39 -0.0785156 1.57404 0
M  V30 12318 C 1189.63 -0.784359 1.88752 0
M  V30 12319 C 1190 -1.75081 0.788079 0
M  V30 12320 O 1191.2 -2.50125 0.984431 0
M  V30 12321 C 1189.47 -1.47962 3.25334 0
M  V30 12322 S 1191.03 -2.22146 3.78413 0
M  V30 12323 H 1187.85 -0.260976 0.661372 0
M  V30 12324 H 1190.45 -0.0407396 1.95458 0
M  V30 12325 H 1189.15 -0.762338 4.03257 0
M  V30 12326 H 1188.68 -2.26281 3.21808 0
M  V30 12327 H 1190.7 -3.48558 3.5316 0
M  V30 12328 N 1189.87 -1.5367 -0.349747 0
M  V30 12329 C 1190.8 -1.77528 -1.4497 0
M  V30 12330 C 1191.82 -0.656412 -1.4898 0
M  V30 12331 O 1193 -0.933016 -1.52174 0
M  V30 12332 C 1190.1 -1.85445 -2.8366 0
M  V30 12333 C 1189.28 -3.15295 -3.03163 0
M  V30 12334 C 1188.34 -3.1425 -4.22059 0
M  V30 12335 O 1187.36 -3.87994 -4.16472 0
M  V30 12336 N 1188.56 -2.36181 -5.30282 0
M  V30 12337 H 1191.33 -2.72444 -1.24877 0
M  V30 12338 H 1188.89 -1.52644 -0.539586 0
M  V30 12339 H 1190.88 -1.82204 -3.61364 0
M  V30 12340 H 1189.45 -0.977436 -2.96926 0
M  V30 12341 H 1188.67 -3.31711 -2.12983 0
M  V30 12342 H 1189.96 -4.01078 -3.13072 0
M  V30 12343 H 1189.36 -1.75808 -5.37688 0
M  V30 12344 H 1187.92 -2.38744 -6.06502 0
M  V30 12345 N 1191.35 0.610423 -1.45298 0
M  V30 12346 C 1192.76 0.930872 -1.29642 0
M  V30 12347 C 1192.96 1.99976 -0.247358 0
M  V30 12348 O 1192.02 2.49925 0.359674 0
M  V30 12349 C 1193.33 1.37449 -2.67448 0
M  V30 12350 C 1194.88 1.48885 -2.75322 0
M  V30 12351 C 1195.36 1.96624 -4.13646 0
M  V30 12352 N 1196.85 2.03862 -4.15926 0
M  V30 12353 C 1197.58 2.42015 -5.19823 0
M  V30 12354 N 1197.08 2.79157 -6.34069 0
M  V30 12355 N 1198.87 2.42329 -5.07181 0
M  V30 12356 H 1191.02 -0.0961259 -2.12182 0
M  V30 12357 H 1193.29 0.0196483 -0.947796 0
M  V30 12358 H 1192.99 0.663276 -3.45389 0
M  V30 12359 H 1192.87 2.34155 -2.95721 0
M  V30 12360 H 1195.25 2.19098 -1.97686 0
M  V30 12361 H 1195.33 0.505006 -2.50765 0
M  V30 12362 H 1194.98 1.26998 -4.91766 0
M  V30 12363 H 1194.91 2.95917 -4.35592 0
M  V30 12364 H 1197.4 1.77759 -3.33482 0
M  V30 12365 H 1197.71 3.07143 -7.09142 0
M  V30 12366 H 1196.06 2.7686 -6.37474 0
M  V30 12367 H 1199.25 2.12717 -4.16976 0
M  V30 12368 H 1199.42 2.71738 -5.88271 0
M  V30 12369 N 1192.83 1.32541 0.852676 0
M  V30 12370 C 1194.05 1.2636 1.64462 0
M  V30 12371 C 1194.48 -0.16508 1.87374 0
M  V30 12372 O 1193.83 -1.11712 1.42794 0
M  V30 12373 C 1193.88 2.03052 2.97997 0
M  V30 12374 O 1192.99 1.37967 3.88637 0
M  V30 12375 H 1192.33 0.435393 0.501327 0
M  V30 12376 H 1194.86 1.74888 1.06186 0
M  V30 12377 H 1194.87 2.133 3.47803 0
M  V30 12378 H 1193.54 3.06941 2.80642 0
M  V30 12379 H 1192.12 1.36279 3.47106 0
M  V30 12380 N 1194.3 -1.0692 1.15784 0
M  V30 12381 C 1195.25 -2.14235 0.858616 0
M  V30 12382 C 1196.22 -1.65006 -0.190295 0
M  V30 12383 O 1197.41 -1.90715 -0.0568853 0
M  V30 12384 C 1194.55 -3.43229 0.35888 0
M  V30 12385 C 1193.66 -4.06225 1.46987 0
M  V30 12386 C 1192.79 -5.2307 0.925812 0
M  V30 12387 C 1191.83 -5.78037 2.01345 0
M  V30 12388 N 1190.97 -6.86206 1.48544 0
M  V30 12389 H 1195.81 -2.3917 1.77769 0
M  V30 12390 H 1193.35 -1.17354 0.886925 0
M  V30 12391 H 1195.31 -4.17169 0.0508198 0
M  V30 12392 H 1193.94 -3.18531 -0.523259 0
M  V30 12393 H 1192.99 -3.29895 1.89403 0
M  V30 12394 H 1194.3 -4.43081 2.29088 0
M  V30 12395 H 1193.45 -6.04011 0.570555 0
M  V30 12396 H 1192.19 -4.87644 0.0740371 0
M  V30 12397 H 1191.2 -4.95738 2.37748 0
M  V30 12398 H 1192.42 -6.15517 2.86907 0
M  V30 12399 H 1190.37 -6.52711 0.656092 0
M  V30 12400 H 1190.29 -7.2197 2.24266 0
M  V30 12401 H 1191.55 -7.70842 1.15856 0
M  V30 12402 N 1195.78 -0.955326 -1.25345 0
M  V30 12403 C 1196.71 -0.494145 -2.28211 0
M  V30 12404 C 1197.69 0.459875 -1.63766 0
M  V30 12405 O 1198.88 0.358679 -1.90859 0
M  V30 12406 C 1196.01 0.228228 -3.46549 0
M  V30 12407 C 1194.96 -0.640601 -4.23179 0
M  V30 12408 C 1194.29 0.212553 -5.34277 0
M  V30 12409 C 1195.59 -1.91906 -4.85767 0
M  V30 12410 H 1197.28 -1.35391 -2.67039 0
M  V30 12411 H 1194.83 -0.652462 -1.2837 0
M  V30 12412 H 1196.78 0.561995 -4.17636 0
M  V30 12413 H 1195.51 1.12224 -3.06714 0
M  V30 12414 H 1194.16 -0.957462 -3.53876 0
M  V30 12415 H 1193.81 1.10634 -4.90682 0
M  V30 12416 H 1193.51 -0.365473 -5.86462 0
M  V30 12417 H 1195.04 0.541271 -6.08196 0
M  V30 12418 H 1196.45 -1.65165 -5.48993 0
M  V30 12419 H 1194.85 -2.44279 -5.48131 0
M  V30 12420 H 1195.92 -2.62173 -4.07914 0
M  V30 12421 N 1197.26 1.39987 -0.723979 0
M  V30 12422 C 1198.19 2.2917 -0.0373445 0
M  V30 12423 C 1199.21 1.46258 0.715015 0
M  V30 12424 O 1200.4 1.69455 0.561003 0
M  V30 12425 C 1197.5 3.2468 0.971384 0
M  V30 12426 C 1196.67 4.36485 0.282826 0
M  V30 12427 C 1195.73 5.12379 1.19811 0
M  V30 12428 O 1194.75 5.65127 0.67974 0
M  V30 12429 N 1195.96 5.22531 2.52866 0
M  V30 12430 H 1198.72 2.88738 -0.803131 0
M  V30 12431 H 1196.28 1.51448 -0.572292 0
M  V30 12432 H 1198.27 3.72326 1.58606 0
M  V30 12433 H 1196.84 2.6622 1.63846 0
M  V30 12434 H 1196.06 3.90859 -0.512167 0
M  V30 12435 H 1197.35 5.08427 -0.194793 0
M  V30 12436 H 1196.75 4.81174 2.97469 0
M  V30 12437 H 1195.31 5.73655 3.09457 0
M  V30 12438 N 1198.74 0.470782 1.50404 0
M  V30 12439 C 1199.67 -0.313458 2.31386 0
M  V30 12440 C 1200.65 -0.990623 1.38278 0
M  V30 12441 O 1201.84 -0.987854 1.67198 0
M  V30 12442 C 1198.97 -1.39599 3.18009 0
M  V30 12443 C 1197.92 -0.840443 4.19667 0
M  V30 12444 C 1197.25 -2.02124 4.95025 0
M  V30 12445 C 1198.55 0.148055 5.2209 0
M  V30 12446 H 1200.24 0.362432 2.97198 0
M  V30 12447 H 1197.79 0.175745 1.42924 0
M  V30 12448 H 1199.74 -1.9521 3.73458 0
M  V30 12449 H 1198.46 -2.10064 2.50081 0
M  V30 12450 H 1197.12 -0.306302 3.65318 0
M  V30 12451 H 1196.77 -2.71286 4.23571 0
M  V30 12452 H 1196.47 -1.65574 5.6379 0
M  V30 12453 H 1197.99 -2.58226 5.5331 0
M  V30 12454 H 1199.41 -0.318874 5.72413 0
M  V30 12455 H 1197.8 0.427811 5.98573 0
M  V30 12456 H 1198.87 1.07404 4.72855 0
M  V30 12457 N 1200.22 -1.56282 0.203376 0
M  V30 12458 C 1201.13 -2.23086 -0.725922 0
M  V30 12459 C 1202.14 -1.23258 -1.22814 0
M  V30 12460 O 1203.32 -1.5602 -1.27357 0
M  V30 12461 C 1200.38 -2.88358 -1.92485 0
M  V30 12462 C 1199.45 -4.03479 -1.46639 0
M  V30 12463 C 1198.68 -4.65629 -2.60816 0
M  V30 12464 O 1198.9 -4.2672 -3.78506 0
M  V30 12465 O 1197.84 -5.54949 -2.33056 0
M  V30 12466 H 1201.66 -3.03124 -0.18694 0
M  V30 12467 H 1199.25 -1.49377 -0.0262829 0
M  V30 12468 H 1201.13 -3.29623 -2.62539 0
M  V30 12469 H 1199.8 -2.11294 -2.45228 0
M  V30 12470 H 1198.71 -3.66821 -0.734396 0
M  V30 12471 H 1200.04 -4.82232 -0.985535 0
M  V30 12472 N 1201.7 0.070167 -1.57444 0
M  V30 12473 C 1203.11 0.424991 -1.53838 0
M  V30 12474 C 1203.31 1.79076 -0.923793 0
M  V30 12475 O 1202.37 2.46939 -0.527002 0
M  V30 12476 C 1203.68 0.364562 -2.98482 0
M  V30 12477 C 1205.23 0.444631 -3.09826 0
M  V30 12478 C 1205.7 0.414093 -4.56124 0
M  V30 12479 N 1207.19 0.474119 -4.60767 0
M  V30 12480 C 1207.93 0.472729 -5.71448 0
M  V30 12481 N 1207.43 0.426059 -6.91489 0
M  V30 12482 N 1209.22 0.519408 -5.59695 0
M  V30 12483 H 1201.37 -0.824117 -1.9576 0
M  V30 12484 H 1203.63 -0.309401 -0.896089 0
M  V30 12485 H 1203.34 -0.572343 -3.47012 0
M  V30 12486 H 1203.21 1.17414 -3.5846 0
M  V30 12487 H 1205.6 1.37196 -2.61269 0
M  V30 12488 H 1205.68 -0.393547 -2.52755 0
M  V30 12489 H 1205.32 -0.509394 -5.05339 0
M  V30 12490 H 1205.25 1.26983 -5.11061 0
M  V30 12491 H 1207.75 0.514371 -3.74383 0
M  V30 12492 H 1208.06 0.428969 -7.71609 0
M  V30 12493 H 1206.4 0.392722 -6.9389 0
M  V30 12494 H 1209.59 0.553573 -4.64815 0
M  V30 12495 H 1209.77 0.514856 -6.45951 0
M  V30 12496 N 1203.17 1.53854 0.341593 0
M  V30 12497 C 1204.4 1.75134 1.10162 0
M  V30 12498 C 1204.82 0.491415 1.82292 0
M  V30 12499 O 1204.17 -0.53703 1.7442 0
M  V30 12500 C 1204.22 2.93273 2.1136 0
M  V30 12501 O 1203.95 4.14393 1.42162 0
M  V30 12502 C 1205.45 3.26621 2.99723 0
M  V30 12503 H 1202.67 0.585126 0.328434 0
M  V30 12504 H 1205.21 2.00684 0.393204 0
M  V30 12505 H 1203.37 2.70048 2.77764 0
M  V30 12506 H 1203.78 4.8072 2.09783 0
M  V30 12507 H 1205.25 4.12629 3.66662 0
M  V30 12508 H 1205.73 2.43008 3.65847 0
M  V30 12509 H 1206.34 3.51858 2.38906 0
M  V30 12510 N 1204.65 -0.602709 1.4562 0
M  V30 12511 C 1205.9 -1.36359 1.50113 0
M  V30 12512 C 1206.23 -1.93663 0.144297 0
M  V30 12513 O 1205.51 -1.75337 -0.841851 0
M  V30 12514 C 1205.79 -2.50788 2.58413 0
M  V30 12515 C 1205.64 -1.98649 4.03557 0
M  V30 12516 C 1206.96 -3.52905 2.62957 0
M  V30 12517 H 1204.08 -0.494455 0.54652 0
M  V30 12518 H 1206.72 -0.678957 1.77455 0
M  V30 12519 H 1204.87 -3.09191 2.3523 0
M  V30 12520 H 1206.54 -1.44857 4.37966 0
M  V30 12521 H 1204.79 -1.29615 4.13984 0
M  V30 12522 H 1205.46 -2.81159 4.7503 0
M  V30 12523 H 1207.93 -3.0435 2.83743 0
M  V30 12524 H 1206.81 -4.30454 3.40589 0
M  V30 12525 H 1207.07 -4.0884 1.68233 0
M  V30 12526 N 1206.13 -1.32992 -0.845635 0
M  V30 12527 C 1207.35 -1.27231 -1.6379 0
M  V30 12528 C 1207.78 0.155141 -1.87459 0
M  V30 12529 O 1207.14 1.10953 -1.43384 0
M  V30 12530 C 1207.19 -2.04629 -2.96916 0
M  V30 12531 O 1206.29 -1.40027 -3.879 0
M  V30 12532 H 1205.63 -0.438045 -0.499011 0
M  V30 12533 H 1208.16 -1.75448 -1.05257 0
M  V30 12534 H 1208.17 -2.15141 -3.46667 0
M  V30 12535 H 1206.85 -3.08425 -2.79011 0
M  V30 12536 H 1205.42 -1.38118 -3.46378 0
M  V30 12537 N 1207.61 1.06304 -1.1635 0
M  V30 12538 C 1208.84 1.82799 -0.96913 0
M  V30 12539 C 1209.25 1.82526 0.482659 0
M  V30 12540 O 1208.61 1.24437 1.33498 0
M  V30 12541 C 1208.66 3.29417 -1.48884 0
M  V30 12542 O 1208.38 3.29803 -2.88377 0
M  V30 12543 C 1209.88 4.22642 -1.33748 0
M  V30 12544 H 1207.1 0.576388 -0.343537 0
M  V30 12545 H 1209.64 1.34122 -1.54375 0
M  V30 12546 H 1207.8 3.75406 -0.956509 0
M  V30 12547 H 1208.21 4.21486 -3.1217 0
M  V30 12548 H 1209.69 5.23545 -1.74942 0
M  V30 12549 H 1210.16 4.38287 -0.283021 0
M  V30 12550 H 1210.77 3.82499 -1.85942 0
M  V30 12551 N 1209.09 0.96196 1.24836 0
M  V30 12552 C 1210.31 0.637709 1.97353 0
M  V30 12553 C 1210.74 -0.784919 1.7094 0
M  V30 12554 O 1210.09 -1.53188 0.969694 0
M  V30 12555 C 1210.14 0.911485 3.4889 0
M  V30 12556 O 1209.25 -0.00601668 4.124 0
M  V30 12557 H 1208.59 0.241685 0.618453 0
M  V30 12558 H 1211.12 1.29055 1.58764 0
M  V30 12559 H 1211.13 0.840702 3.99245 0
M  V30 12560 H 1209.8 1.9483 3.67442 0
M  V30 12561 H 1208.38 0.117597 3.72715 0
M  V30 12562 N 1210.56 -1.39601 0.731392 0
M  V30 12563 C 1211.79 -2.05411 0.286532 0
M  V30 12564 C 1212.21 -1.54777 -1.06892 0
M  V30 12565 O 1211.57 -0.689942 -1.67659 0
M  V30 12566 C 1211.62 -3.594 0.293914 0
M  V30 12567 O 1210.72 -4.06072 -0.719657 0
M  V30 12568 H 1210.06 -0.650949 0.131004 0
M  V30 12569 H 1212.59 -1.78703 0.996305 0
M  V30 12570 H 1212.6 -4.0777 0.137052 0
M  V30 12571 H 1211.28 -3.95617 1.28298 0
M  V30 12572 H 1209.86 -3.69125 -0.529226 0
M  V30 12573 N 1212.04 -0.478751 -1.50152 0
M  V30 12574 C 1212.97 0.347829 -2.26545 0
M  V30 12575 C 1213.99 0.950354 -1.32182 0
M  V30 12576 O 1215.18 0.837462 -1.57635 0
M  V30 12577 C 1212.28 1.50255 -3.0377 0
M  V30 12578 C 1211.45 1.01142 -4.25546 0
M  V30 12579 C 1210.51 2.0411 -4.85 0
M  V30 12580 O 1209.53 1.61862 -5.45701 0
M  V30 12581 N 1210.74 3.36982 -4.72677 0
M  V30 12582 H 1213.5 -0.307113 -2.98122 0
M  V30 12583 H 1211.06 -0.309981 -1.58905 0
M  V30 12584 H 1213.05 2.18848 -3.40423 0
M  V30 12585 H 1211.62 2.06205 -2.34943 0
M  V30 12586 H 1210.84 0.151124 -3.9391 0
M  V30 12587 H 1212.13 0.661326 -5.04484 0
M  V30 12588 H 1211.53 3.74011 -4.2442 0
M  V30 12589 H 1210.09 4.0135 -5.13577 0
M  V30 12590 N 1213.52 1.56172 -0.211661 0
M  V30 12591 C 1214.93 1.84307 0.297982 0
M  V30 12592 C 1215.28 1.1328 1.60194 0
M  V30 12593 O 1214.41 0.399137 2.12687 0
M  V30 12594 C 1215 3.34348 0.547428 0
M  V30 12595 C 1213.56 3.62835 1.0014 0
M  V30 12596 C 1212.71 2.77237 0.0590326 0
M  V30 12597 H 1215.66 1.5262 -0.435083 0
M  V30 12598 H 1215.68 3.54018 1.39469 0
M  V30 12599 H 1215.19 3.86015 -0.401778 0
M  V30 12600 H 1213.29 3.16616 1.96431 0
M  V30 12601 H 1213.41 4.70899 0.882653 0
M  V30 12602 H 1211.77 2.48377 0.564005 0
M  V30 12603 H 1212.55 3.31699 -0.884913 0
M  V30 12604 N 1215 -0.0618163 1.57479 0
M  V30 12605 C 1215.91 -1.09006 2.07738 0
M  V30 12606 C 1216.92 -1.4176 1.00896 0
M  V30 12607 O 1218.1 -1.51737 1.32431 0
M  V30 12608 C 1215.17 -2.38153 2.5196 0
M  V30 12609 C 1214.23 -2.12279 3.73143 0
M  V30 12610 C 1213.46 -3.35269 4.15248 0
M  V30 12611 O 1213.68 -4.44758 3.57137 0
M  V30 12612 O 1212.62 -3.22894 5.0796 0
M  V30 12613 H 1216.44 -0.693059 2.95686 0
M  V30 12614 H 1214.03 -0.276628 1.46817 0
M  V30 12615 H 1215.91 -3.14139 2.80882 0
M  V30 12616 H 1214.58 -2.77213 1.67137 0
M  V30 12617 H 1213.49 -1.33966 3.49291 0
M  V30 12618 H 1214.82 -1.78094 4.5885 0
M  V30 12619 N 1216.48 -1.54033 -0.333429 0
M  V30 12620 C 1217.39 -1.85737 -1.43314 0
M  V30 12621 C 1218.4 -0.748398 -1.57083 0
M  V30 12622 O 1219.58 -1.04171 -1.72367 0
M  V30 12623 C 1216.64 -2.06942 -2.78165 0
M  V30 12624 C 1215.7 -3.30774 -2.73655 0
M  V30 12625 C 1214.94 -3.50957 -4.02075 0
M  V30 12626 O 1215.16 -2.74774 -4.99855 0
M  V30 12627 O 1214.09 -4.44412 -4.05933 0
M  V30 12628 H 1217.92 -2.7923 -1.19434 0
M  V30 12629 H 1215.51 -1.39814 -0.526546 0
M  V30 12630 H 1217.39 -2.22276 -3.58011 0
M  V30 12631 H 1216.06 -1.16638 -3.01956 0
M  V30 12632 H 1214.97 -3.20835 -1.92395 0
M  V30 12633 H 1216.3 -4.21103 -2.54819 0
M  V30 12634 N 1217.95 0.594978 -1.45938 0
M  V30 12635 C 1218.9 1.726 -1.55923 0
M  V30 12636 C 1219.9 1.63893 -0.428411 0
M  V30 12637 O 1221.1 1.69535 -0.604815 0
M  V30 12638 H 1217.48 0.570447 -0.489994 0
M  V30 12639 H 1219.45 1.61308 -2.51043 0
M  V30 12640 C 1218.2 3.10988 -1.55505 0
M  V30 12641 H 1217.52 3.18353 -2.4185 0
M  V30 12642 H 1218.96 3.8992 -1.66548 0
M  V30 12643 C 1217.42 3.35721 -0.281573 0
M  V30 12644 O 1217.95 3.96676 0.633336 0
M  V30 12645 N 1216.16 2.90083 -0.173314 0
M  V30 12646 H 1215.7 2.4066 -0.91872 0
M  V30 12647 H 1215.66 3.07005 0.677903 0
M  V30 12648 N 1219.43 1.33438 0.838571 0
M  V30 12649 C 1220.68 1.25097 1.5962 0
M  V30 12650 C 1221.01 -0.182798 1.93338 0
M  V30 12651 O 1220.29 -1.1242 1.5872 0
M  V30 12652 C 1220.57 2.12655 2.90603 0
M  V30 12653 C 1220.42 3.64491 2.63565 0
M  V30 12654 C 1221.74 1.99994 3.92033 0
M  V30 12655 H 1218.86 0.455776 0.579169 0
M  V30 12656 H 1221.5 1.63542 0.967169 0
M  V30 12657 H 1219.65 1.79998 3.44286 0
M  V30 12658 H 1221.32 4.0744 2.16312 0
M  V30 12659 H 1219.57 3.86356 1.9726 0
M  V30 12660 H 1220.24 4.21101 3.569 0
M  V30 12661 H 1222.71 2.28635 3.47657 0
M  V30 12662 H 1221.59 2.63509 4.81512 0
M  V30 12663 H 1221.85 0.972263 4.31277 0
M  V30 12664 N 1220.91 -1.05686 1.16912 0
M  V30 12665 C 1222.19 -1.7546 0.864483 0
M  V30 12666 C 1222.57 -2.0128 -0.636359 0
M  V30 12667 O 1221.92 -1.64485 -1.58609 0
M  V30 12668 C 1222.13 -3.05134 1.69395 0
M  V30 12669 C 1223.47 -3.79176 1.91079 0
M  V30 12670 O 1224.5 -3.1499 1.66312 0
M  V30 12671 O 1223.36 -4.94496 2.32671 0
M  V30 12672 H 1220.45 -0.762748 0.319601 0
M  V30 12673 H 1223 -1.11899 1.27581 0
M  V30 12674 H 1221.77 -2.82063 2.71212 0
M  V30 12675 H 1221.39 -3.76431 1.28007 0
M  V30 12676 N 1222.39 -0.968567 -1.24324 0
M  V30 12677 C 1223.8 -0.675239 -1.44612 0
M  V30 12678 C 1224 0.762641 -1.8651 0
M  V30 12679 O 1223.06 1.53644 -2.00374 0
M  V30 12680 C 1224.37 -1.66007 -2.50723 0
M  V30 12681 C 1225.92 -1.6728 -2.6455 0
M  V30 12682 C 1226.4 -2.64563 -3.73859 0
M  V30 12683 N 1227.89 -2.6301 -3.81287 0
M  V30 12684 C 1228.62 -3.34957 -4.65394 0
M  V30 12685 N 1228.12 -4.16424 -5.53681 0
M  V30 12686 N 1229.91 -3.23778 -4.59483 0
M  V30 12687 H 1222.06 -1.89757 -0.954257 0
M  V30 12688 H 1224.33 -0.817004 -0.480841 0
M  V30 12689 H 1224.03 -2.68779 -2.26827 0
M  V30 12690 H 1223.91 -1.43353 -3.48898 0
M  V30 12691 H 1226.29 -0.652184 -2.87803 0
M  V30 12692 H 1226.37 -1.93997 -1.6673 0
M  V30 12693 H 1226.02 -3.66759 -3.51355 0
M  V30 12694 H 1225.95 -2.35124 -4.71194 0
M  V30 12695 H 1228.44 -2.03877 -3.18186 0
M  V30 12696 H 1228.75 -4.68207 -6.14818 0
M  V30 12697 H 1227.1 -4.20518 -5.53344 0
M  V30 12698 H 1230.29 -2.59594 -3.89524 0
M  V30 12699 H 1230.46 -3.80112 -5.24804 0
M  V30 12700 N 1223.87 1.39211 -0.738786 0
M  V30 12701 C 1224.83 2.28937 -0.109746 0
M  V30 12702 C 1225.83 1.46488 0.663157 0
M  V30 12703 O 1227.02 1.67119 0.491614 0
M  V30 12704 C 1224.15 3.30039 0.853633 0
M  V30 12705 H 1225.34 2.86068 -0.900295 0
M  V30 12706 H 1222.9 1.47922 -0.504853 0
M  V30 12707 H 1223.63 2.77971 1.6704 0
M  V30 12708 H 1223.42 3.90935 0.302007 0
M  V30 12709 H 1224.91 3.97169 1.29022 0
M  V30 12710 N 1225.34 0.486708 1.49896 0
M  V30 12711 C 1226.29 -0.313156 2.30482 0
M  V30 12712 C 1227.29 -0.976043 1.38455 0
M  V30 12713 O 1228.49 -0.905364 1.55574 0
M  V30 12714 H 1224.87 -0.119839 0.74239 0
M  V30 12715 H 1226.84 0.386701 2.95884 0
M  V30 12716 C 1225.59 -1.37334 3.19429 0
M  V30 12717 H 1224.91 -0.87265 3.9016 0
M  V30 12718 H 1226.35 -1.90526 3.78782 0
M  V30 12719 C 1224.81 -2.38378 2.38071 0
M  V30 12720 O 1225.34 -3.43972 2.07476 0
M  V30 12721 N 1223.55 -2.10486 2.00359 0
M  V30 12722 H 1223.09 -1.24638 2.2544 0
M  V30 12723 H 1223.05 -2.78324 1.46229 0
M  V30 12724 N 1226.82 -1.56058 0.219941 0
M  V30 12725 C 1228.1 -1.90087 -0.46112 0
M  V30 12726 C 1228.48 -1.13705 -1.77861 0
M  V30 12727 O 1227.83 -0.245868 -2.27173 0
M  V30 12728 C 1228.04 -3.42786 -0.655644 0
M  V30 12729 C 1229.39 -4.13517 -0.963803 0
M  V30 12730 O 1230.41 -3.48376 -0.742488 0
M  V30 12731 O 1229.27 -5.28692 -1.38374 0
M  V30 12732 H 1226.36 -0.790311 -0.243595 0
M  V30 12733 H 1228.91 -1.67665 0.262005 0
M  V30 12734 H 1227.68 -3.90341 0.273738 0
M  V30 12735 H 1227.3 -3.70982 -1.43032 0
M  V30 12736 N 1228.3 0.053464 -1.57509 0
M  V30 12737 C 1229.23 1.09391 -2.00272 0
M  V30 12738 C 1230.21 1.36553 -0.882727 0
M  V30 12739 O 1231.4 1.4962 -1.14657 0
M  V30 12740 C 1228.52 2.43424 -2.35505 0
M  V30 12741 C 1227.57 2.32278 -3.577 0
M  V30 12742 S 1228.4 1.69939 -5.0782 0
M  V30 12743 C 1229.56 3.05512 -5.46272 0
M  V30 12744 H 1229.79 0.729569 -2.88209 0
M  V30 12745 H 1227.32 0.262633 -1.5215 0
M  V30 12746 H 1229.28 3.20515 -2.56477 0
M  V30 12747 H 1227.94 2.77013 -1.48064 0
M  V30 12748 H 1227.14 3.31165 -3.79928 0
M  V30 12749 H 1226.74 1.63327 -3.36453 0
M  V30 12750 H 1229.03 4.0184 -5.45464 0
M  V30 12751 H 1229.97 2.88043 -6.46867 0
M  V30 12752 H 1230.38 3.06962 -4.73745 0
M  V30 12753 N 1229.78 1.54207 0.325255 0
M  V30 12754 C 1230.71 1.86467 1.40543 0
M  V30 12755 C 1231.69 0.721324 1.54048 0
M  V30 12756 O 1232.88 0.974905 1.67956 0
M  V30 12757 C 1230.01 2.09052 2.77335 0
M  V30 12758 C 1228.96 3.24893 2.78619 0
M  V30 12759 C 1228.29 3.32846 4.1847 0
M  V30 12760 C 1229.59 4.62582 2.42518 0
M  V30 12761 H 1231.28 2.76932 1.13794 0
M  V30 12762 H 1228.83 1.33248 0.545971 0
M  V30 12763 H 1230.78 2.30204 3.52964 0
M  V30 12764 H 1229.5 1.15335 3.05558 0
M  V30 12765 H 1228.16 3.03625 2.05444 0
M  V30 12766 H 1227.81 2.3669 4.43832 0
M  V30 12767 H 1227.51 4.10701 4.20237 0
M  V30 12768 H 1229.03 3.56231 4.95915 0
M  V30 12769 H 1230.45 4.83627 3.07861 0
M  V30 12770 H 1228.84 5.42974 2.55538 0
M  V30 12771 H 1229.91 4.64946 1.3767 0
M  V30 12772 N 1231.26 -0.58723 1.46251 0
M  V30 12773 C 1232.67 -1.16933 1.45546 0
M  V30 12774 C 1233.02 -1.9524 0.193879 0
M  V30 12775 O 1232.14 -2.04652 -0.70332 0
M  V30 12776 C 1232.74 -2.12723 2.63693 0
M  V30 12777 C 1231.3 -2.66267 2.66043 0
M  V30 12778 C 1230.45 -1.42051 2.38153 0
M  V30 12779 H 1233.4 -0.375411 1.54196 0
M  V30 12780 H 1233.42 -2.96111 2.38953 0
M  V30 12781 H 1232.93 -1.55703 3.55497 0
M  V30 12782 H 1231.03 -3.2717 1.783 0
M  V30 12783 H 1231.14 -3.0931 3.65874 0
M  V30 12784 H 1229.51 -1.71707 1.88119 0
M  V30 12785 H 1230.29 -0.868675 3.32128 0
M  V30 12786 N 1232.74 -1.33881 -0.831482 0
M  V30 12787 C 1233.68 -1.24748 -1.94182 0
M  V30 12788 C 1234.65 -0.124516 -1.65633 0
M  V30 12789 O 1235.84 -0.304045 -1.88362 0
M  V30 12790 C 1232.98 -1.00016 -3.30289 0
M  V30 12791 C 1232.09 -2.21007 -3.71187 0
M  V30 12792 C 1231.23 -1.89629 -4.962 0
M  V30 12793 C 1230.26 -3.06811 -5.29654 0
M  V30 12794 N 1229.4 -2.75372 -6.45844 0
M  V30 12795 H 1234.24 -2.19709 -2.01325 0
M  V30 12796 H 1231.78 -1.09245 -0.985081 0
M  V30 12797 H 1233.74 -0.837167 -4.08714 0
M  V30 12798 H 1232.37 -0.0872582 -3.22682 0
M  V30 12799 H 1231.42 -2.48256 -2.88224 0
M  V30 12800 H 1232.73 -3.08587 -3.91887 0
M  V30 12801 H 1231.88 -1.70016 -5.82391 0
M  V30 12802 H 1230.62 -0.992964 -4.77485 0
M  V30 12803 H 1229.63 -3.27029 -4.41964 0
M  V30 12804 H 1230.85 -3.97909 -5.50314 0
M  V30 12805 H 1228.8 -1.87607 -6.28601 0
M  V30 12806 H 1228.72 -3.56483 -6.66675 0
M  V30 12807 H 1229.98 -2.59244 -7.35128 0
M  V30 12808 N 1234.21 1.05064 -1.1747 0
M  V30 12809 C 1235.16 2.12841 -0.89259 0
M  V30 12810 C 1236.13 1.65288 0.16402 0
M  V30 12811 O 1237.32 1.90782 0.026537 0
M  V30 12812 C 1234.46 3.42614 -0.41344 0
M  V30 12813 C 1233.57 4.03835 -1.53432 0
M  V30 12814 C 1232.7 5.21531 -1.00891 0
M  V30 12815 C 1231.74 5.74761 -2.10515 0
M  V30 12816 N 1230.88 6.83756 -1.59442 0
M  V30 12817 H 1235.72 2.36312 -1.81551 0
M  V30 12818 H 1233.26 1.15929 -0.905483 0
M  V30 12819 H 1235.21 4.17035 -0.117181 0
M  V30 12820 H 1233.84 3.19323 0.472517 0
M  V30 12821 H 1232.9 3.2684 -1.94627 0
M  V30 12822 H 1234.21 4.3938 -2.36108 0
M  V30 12823 H 1233.36 6.03027 -0.666575 0
M  V30 12824 H 1232.1 4.87464 -0.151608 0
M  V30 12825 H 1231.11 4.91893 -2.45604 0
M  V30 12826 H 1232.33 6.10875 -2.96663 0
M  V30 12827 H 1230.28 6.51584 -0.759849 0
M  V30 12828 H 1230.19 7.18311 -2.35724 0
M  V30 12829 H 1231.46 7.68901 -1.28105 0
M  V30 12830 N 1235.69 0.975146 1.23809 0
M  V30 12831 C 1236.92 0.658605 1.96665 0
M  V30 12832 C 1237.34 -0.766744 1.71763 0
M  V30 12833 O 1236.7 -1.52151 0.985887 0
M  V30 12834 C 1236.75 0.948438 3.47904 0
M  V30 12835 O 1235.85 0.0377241 4.12383 0
M  V30 12836 H 1235.19 0.248231 0.615855 0
M  V30 12837 H 1237.72 1.30732 1.57386 0
M  V30 12838 H 1237.73 0.883 3.9833 0
M  V30 12839 H 1236.41 1.98717 3.65355 0
M  V30 12840 H 1234.98 0.157122 3.72569 0
M  V30 12841 N 1237.17 -1.38817 0.746158 0
M  V30 12842 C 1238.08 -2.34316 0.115386 0
M  V30 12843 C 1239.1 -1.58892 -0.709179 0
M  V30 12844 O 1240.27 -1.91126 -0.635059 0
M  V30 12845 C 1237.34 -3.37977 -0.772821 0
M  V30 12846 C 1236.4 -4.2925 0.0652679 0
M  V30 12847 C 1235.63 -5.2796 -0.78064 0
M  V30 12848 O 1235.85 -5.33474 -2.01896 0
M  V30 12849 O 1234.79 -6.01556 -0.20338 0
M  V30 12850 H 1238.61 -2.89937 0.903887 0
M  V30 12851 H 1236.2 -1.40536 0.506958 0
M  V30 12852 H 1238.08 -4.01468 -1.28068 0
M  V30 12853 H 1236.76 -2.84723 -1.53994 0
M  V30 12854 H 1235.66 -3.68945 0.61891 0
M  V30 12855 H 1237 -4.85739 0.794871 0
M  V30 12856 N 1238.65 -0.49465 -1.49636 0
M  V30 12857 C 1239.56 0.291881 -2.32777 0
M  V30 12858 C 1240.57 0.973468 -1.44221 0
M  V30 12859 O 1241.75 0.956252 -1.77251 0
M  V30 12860 C 1238.81 1.34609 -3.19502 0
M  V30 12861 C 1237.88 0.678611 -4.23903 0
M  V30 12862 C 1237.11 1.68259 -5.06483 0
M  V30 12863 O 1237.33 2.91176 -4.90482 0
M  V30 12864 O 1236.27 1.24141 -5.88959 0
M  V30 12865 H 1240.09 -0.388459 -3.01205 0
M  V30 12866 H 1237.68 -0.256086 -1.47189 0
M  V30 12867 H 1239.56 1.95617 -3.73245 0
M  V30 12868 H 1238.23 2.00947 -2.53775 0
M  V30 12869 H 1237.14 0.0289541 -3.74089 0
M  V30 12870 H 1238.47 0.0577817 -4.92166 0
M  V30 12871 N 1240.13 1.55939 -0.228214 0
M  V30 12872 C 1241.35 2.0332 0.409364 0
M  V30 12873 C 1241.78 1.10683 1.52088 0
M  V30 12874 O 1241.13 0.0962484 1.81044 0
M  V30 12875 C 1241.18 3.48877 0.911981 0
M  V30 12876 O 1240.29 3.59378 2.02289 0
M  V30 12877 H 1239.63 0.657625 0.0917909 0
M  V30 12878 H 1242.16 2.01605 -0.348802 0
M  V30 12879 H 1242.17 3.89331 1.22007 0
M  V30 12880 H 1240.84 4.15783 0.0984902 0
M  V30 12881 H 1239.42 3.30815 1.72093 0
M  V30 12882 N 1241.6 -0.0451101 1.57535 0
M  V30 12883 C 1242.57 -1.03521 2.0449 0
M  V30 12884 C 1243.57 -1.30009 0.946265 0
M  V30 12885 O 1244.76 -1.25282 1.21038 0
M  V30 12886 C 1241.89 -2.37221 2.44824 0
M  V30 12887 H 1243.08 -0.629943 2.93209 0
M  V30 12888 H 1240.64 -0.291544 1.53557 0
M  V30 12889 H 1241.37 -2.82528 1.59212 0
M  V30 12890 H 1241.16 -2.19329 3.25018 0
M  V30 12891 H 1242.65 -3.08337 2.81635 0
M  V30 12892 N 1243.08 -1.54377 -0.317073 0
M  V30 12893 C 1244.05 -1.83488 -1.37349 0
M  V30 12894 C 1245.05 -0.706981 -1.44424 0
M  V30 12895 O 1246.24 -0.975289 -1.44339 0
M  V30 12896 C 1243.37 -2.00074 -2.76013 0
M  V30 12897 H 1244.56 -2.77883 -1.12789 0
M  V30 12898 H 1242.11 -1.46194 -0.552902 0
M  V30 12899 H 1242.85 -1.07913 -3.05819 0
M  V30 12900 H 1242.63 -2.82155 -2.7227 0
M  V30 12901 H 1244.12 -2.24022 -3.52426 0
M  V30 12902 N 1244.56 0.579466 -1.4656 0
M  V30 12903 C 1245.97 1.1616 -1.46164 0
M  V30 12904 C 1246.32 1.95134 -0.20423 0
M  V30 12905 O 1245.45 2.05022 0.692457 0
M  V30 12906 C 1246.04 2.11322 -2.64818 0
M  V30 12907 C 1244.6 2.64852 -2.67452 0
M  V30 12908 C 1243.75 1.40786 -2.38903 0
M  V30 12909 H 1246.7 0.367229 -1.54393 0
M  V30 12910 H 1246.72 2.94839 -2.4052 0
M  V30 12911 H 1246.23 1.53815 -3.56318 0
M  V30 12912 H 1244.33 3.26219 -1.80032 0
M  V30 12913 H 1244.45 3.07366 -3.67509 0
M  V30 12914 H 1242.81 1.70707 -1.89027 0
M  V30 12915 H 1243.59 0.851049 -3.32584 0
M  V30 12916 N 1246.04 1.3432 0.824371 0
M  V30 12917 C 1247.26 1.2982 1.61745 0
M  V30 12918 C 1247.69 -0.125298 1.87682 0
M  V30 12919 O 1247.05 -1.08658 1.45131 0
M  V30 12920 C 1247.09 2.09327 2.93623 0
M  V30 12921 O 1246.2 1.4618 3.85623 0
M  V30 12922 H 1245.54 0.445929 0.491979 0
M  V30 12923 H 1248.07 1.77101 1.02452 0
M  V30 12924 H 1248.08 2.20629 3.43201 0
M  V30 12925 H 1246.75 3.12825 2.74069 0
M  V30 12926 H 1245.33 1.43611 3.44137 0
M  V30 12927 N 1247.52 -1.0444 1.18026 0
M  V30 12928 C 1248.93 -1.29766 0.929143 0
M  V30 12929 C 1249.13 -1.97338 -0.407436 0
M  V30 12930 O 1248.19 -2.25166 -1.14265 0
M  V30 12931 C 1249.5 -2.16002 2.09197 0
M  V30 12932 C 1251.05 -2.29361 2.12985 0
M  V30 12933 C 1251.52 -3.18962 3.28675 0
M  V30 12934 N 1253.02 -3.26549 3.28512 0
M  V30 12935 C 1253.75 -3.96025 4.14671 0
M  V30 12936 N 1253.25 -4.67863 5.10956 0
M  V30 12937 N 1255.04 -3.92266 4.02597 0
M  V30 12938 H 1247.19 -0.58984 2.04046 0
M  V30 12939 H 1249.45 -0.322752 0.891367 0
M  V30 12940 H 1249.16 -1.73653 3.05839 0
M  V30 12941 H 1249.03 -3.16667 2.04943 0
M  V30 12942 H 1251.42 -2.70948 1.16924 0
M  V30 12943 H 1251.5 -1.28299 2.21298 0
M  V30 12944 H 1251.15 -2.78087 4.25006 0
M  V30 12945 H 1251.08 -4.20047 3.17598 0
M  V30 12946 H 1253.57 -2.75371 2.58804 0
M  V30 12947 H 1253.88 -5.1846 5.73079 0
M  V30 12948 H 1252.22 -4.6678 5.14919 0
M  V30 12949 H 1255.42 -3.35273 3.26665 0
M  V30 12950 H 1255.59 -4.4614 4.69961 0
M  V30 12951 N 1248.99 -0.981699 -1.2329 0
M  V30 12952 C 1249.9 -0.531296 -2.28505 0
M  V30 12953 C 1250.92 0.414531 -1.6899 0
M  V30 12954 O 1252.1 0.284129 -1.99386 0
M  V30 12955 C 1249.16 0.157864 -3.4634 0
M  V30 12956 C 1248.22 -0.829527 -4.21209 0
M  V30 12957 C 1247.46 -0.17316 -5.33419 0
M  V30 12958 O 1247.68 1.03549 -5.60922 0
M  V30 12959 O 1246.61 -0.872385 -5.95544 0
M  V30 12960 H 1250.44 -1.40633 -2.69177 0
M  V30 12961 H 1248.02 -0.749395 -1.29246 0
M  V30 12962 H 1249.91 0.544394 -4.17869 0
M  V30 12963 H 1248.58 1.00764 -3.07617 0
M  V30 12964 H 1247.49 -1.26678 -3.51999 0
M  V30 12965 H 1248.82 -1.64815 -4.63785 0
M  V30 12966 N 1250.47 1.3842 -0.753509 0
M  V30 12967 C 1251.89 1.53668 -0.431095 0
M  V30 12968 C 1252.09 1.71626 1.05578 0
M  V30 12969 O 1251.14 1.72723 1.84182 0
M  V30 12970 C 1252.46 2.74381 -1.23027 0
M  V30 12971 C 1254.01 2.8823 -1.22034 0
M  V30 12972 C 1254.48 4.11904 -2.00248 0
M  V30 12973 N 1255.97 4.18981 -1.97508 0
M  V30 12974 C 1256.71 5.13667 -2.5482 0
M  V30 12975 N 1256.2 6.14027 -3.20846 0
M  V30 12976 N 1258 5.06017 -2.44751 0
M  V30 12977 H 1250.15 1.25012 -1.71714 0
M  V30 12978 H 1252.41 0.607296 -0.727939 0
M  V30 12979 H 1252.12 2.67515 -2.28317 0
M  V30 12980 H 1251.99 3.67565 -0.847098 0
M  V30 12981 H 1254.38 2.94578 -0.175502 0
M  V30 12982 H 1254.46 1.96057 -1.64303 0
M  V30 12983 H 1254.1 4.06318 -3.04742 0
M  V30 12984 H 1254.03 5.03157 -1.55373 0
M  V30 12985 H 1256.52 3.47104 -1.49423 0
M  V30 12986 H 1256.84 6.82771 -3.61999 0
M  V30 12987 H 1255.18 6.1436 -3.24941 0
M  V30 12988 H 1258.37 4.26552 -1.92797 0
M  V30 12989 H 1258.54 5.7963 -2.89713 0
M  V30 12990 N 1251.95 0.502579 1.49372 0
M  V30 12991 C 1253.36 0.055187 1.86618 0
M  V30 12992 C 1253.71 -1.35938 1.41476 0
M  V30 12993 O 1252.84 -2.01333 0.793338 0
M  V30 12994 C 1253.43 0.0933734 3.38671 0
M  V30 12995 C 1251.99 -0.298685 3.75213 0
M  V30 12996 C 1251.14 0.465216 2.7337 0
M  V30 12997 H 1254.09 0.715281 1.41667 0
M  V30 12998 H 1254.11 -0.701549 3.73977 0
M  V30 12999 H 1253.62 1.12303 3.71497 0
M  V30 13000 H 1251.72 -1.33151 3.47996 0
M  V30 13001 H 1251.84 0.0218637 4.79095 0
M  V30 13002 H 1250.2 -0.0851469 2.54558 0
M  V30 13003 H 1250.98 1.49498 3.09039 0
M  V30 13004 N 1253.43 -1.55816 0.23648 0
M  V30 13005 C 1254.38 -2.20938 -0.66745 0
M  V30 13006 C 1255.35 -1.16982 -1.17917 0
M  V30 13007 O 1256.53 -1.45392 -1.23555 0
M  V30 13008 C 1253.67 -2.90469 -1.86337 0
M  V30 13009 C 1252.78 -4.09056 -1.38915 0
M  V30 13010 C 1251.92 -4.6633 -2.54382 0
M  V30 13011 C 1250.96 -5.77187 -2.0377 0
M  V30 13012 N 1250.09 -6.28688 -3.12564 0
M  V30 13013 H 1254.93 -2.97814 -0.105411 0
M  V30 13014 H 1252.47 -1.47045 -0.0402712 0
M  V30 13015 H 1254.43 -3.28975 -2.56576 0
M  V30 13016 H 1253.06 -2.16086 -2.39806 0
M  V30 13017 H 1252.11 -3.75934 -0.581173 0
M  V30 13018 H 1253.42 -4.89115 -0.978152 0
M  V30 13019 H 1252.58 -5.07355 -3.32679 0
M  V30 13020 H 1251.32 -3.85464 -2.98778 0
M  V30 13021 H 1250.32 -5.35648 -1.23939 0
M  V30 13022 H 1251.55 -6.59896 -1.60355 0
M  V30 13023 H 1249.49 -5.50731 -3.56414 0
M  V30 13024 H 1249.41 -7.03911 -2.75762 0
M  V30 13025 H 1250.68 -6.74371 -3.90952 0
M  V30 13026 N 1254.91 0.036755 -1.57557 0
M  V30 13027 C 1255.87 1.02435 -2.05036 0
M  V30 13028 C 1256.87 1.29506 -0.953146 0
M  V30 13029 O 1258.06 1.24638 -1.217 0
M  V30 13030 C 1255.19 2.3592 -2.46079 0
M  V30 13031 H 1256.38 0.614384 -2.93539 0
M  V30 13032 H 1253.94 0.283396 -1.53709 0
M  V30 13033 H 1254.67 2.8168 -1.60708 0
M  V30 13034 H 1254.46 2.17603 -3.26177 0
M  V30 13035 H 1255.95 3.06839 -2.83266 0
M  V30 13036 N 1256.39 1.54543 0.308881 0
M  V30 13037 C 1257.33 1.84949 1.38067 0
M  V30 13038 C 1258.3 0.697746 1.50734 0
M  V30 13039 O 1259.49 0.94561 1.65719 0
M  V30 13040 C 1256.63 2.09544 2.74199 0
M  V30 13041 C 1255.74 3.37193 2.70046 0
M  V30 13042 C 1254.88 3.51672 3.98121 0
M  V30 13043 C 1253.91 4.73143 3.88333 0
M  V30 13044 N 1253.05 4.84469 5.08167 0
M  V30 13045 H 1257.89 2.76379 1.11438 0
M  V30 13046 H 1255.43 1.36863 0.539153 0
M  V30 13047 H 1257.39 2.21798 3.53358 0
M  V30 13048 H 1256.02 1.21389 2.99106 0
M  V30 13049 H 1255.07 3.33601 1.82796 0
M  V30 13050 H 1256.38 4.26468 2.58701 0
M  V30 13051 H 1255.53 3.63548 4.85714 0
M  V30 13052 H 1254.27 2.60516 4.1229 0
M  V30 13053 H 1253.28 4.61308 2.99124 0
M  V30 13054 H 1254.5 5.65698 3.75716 0
M  V30 13055 H 1252.45 3.96234 5.22814 0
M  V30 13056 H 1252.37 5.67733 4.99215 0
M  V30 13057 H 1253.63 5.00693 5.97434 0
M  V30 13058 N 1257.86 -0.571685 1.46866 0
M  V30 13059 C 1258.79 -1.68994 1.61131 0
M  V30 13060 C 1259.77 -1.63728 0.461222 0
M  V30 13061 O 1260.96 -1.81574 0.688813 0
M  V30 13062 C 1258.09 -3.07638 1.61172 0
M  V30 13063 C 1257.04 -3.27742 2.75262 0
M  V30 13064 C 1256.37 -4.67025 2.60368 0
M  V30 13065 C 1257.67 -3.14511 4.16989 0
M  V30 13066 H 1259.36 -1.57311 2.54742 0
M  V30 13067 H 1256.91 -0.755382 1.22597 0
M  V30 13068 H 1258.86 -3.857 1.69744 0
M  V30 13069 H 1257.59 -3.20245 0.641122 0
M  V30 13070 H 1256.25 -2.52083 2.66176 0
M  V30 13071 H 1255.89 -4.76413 1.61368 0
M  V30 13072 H 1255.59 -4.81428 3.36899 0
M  V30 13073 H 1257.12 -5.47242 2.70848 0
M  V30 13074 H 1258.53 -3.82407 4.27128 0
M  V30 13075 H 1256.93 -3.40431 4.94193 0
M  V30 13076 H 1258 -2.11443 4.36371 0
M  V30 13077 N 1259.34 -1.34755 -0.817236 0
M  V30 13078 C 1260.27 -1.29452 -1.94331 0
M  V30 13079 C 1261.25 -0.170902 -1.69239 0
M  V30 13080 O 1262.44 -0.364173 -1.90755 0
M  V30 13081 C 1259.57 -1.05497 -3.30889 0
M  V30 13082 C 1258.52 -2.14386 -3.70436 0
M  V30 13083 C 1257.85 -1.75612 -5.05039 0
M  V30 13084 C 1259.15 -3.56265 -3.81933 0
M  V30 13085 H 1260.84 -2.23672 -1.99025 0
M  V30 13086 H 1258.39 -1.07674 -0.956159 0
M  V30 13087 H 1260.34 -1.0043 -4.09257 0
M  V30 13088 H 1259.06 -0.0772059 -3.26509 0
M  V30 13089 H 1257.72 -2.18532 -2.94345 0
M  V30 13090 H 1257.37 -0.764809 -4.97152 0
M  V30 13091 H 1257.07 -2.48495 -5.3247 0
M  V30 13092 H 1258.6 -1.72051 -5.85859 0
M  V30 13093 H 1260.01 -3.545 -4.50558 0
M  V30 13094 H 1258.41 -4.27818 -4.20822 0
M  V30 13095 H 1259.48 -3.93192 -2.83775 0
M  V30 13096 N 1260.82 1.03812 -1.18578 0
M  V30 13097 C 1262.23 1.58509 -0.986496 0
M  V30 13098 C 1262.58 1.90655 0.463136 0
M  V30 13099 O 1261.71 1.69847 1.34093 0
M  V30 13100 C 1262.3 2.88 -1.78441 0
M  V30 13101 C 1260.86 3.39304 -1.6294 0
M  V30 13102 C 1260.01 2.12857 -1.77727 0
M  V30 13103 H 1262.96 0.864528 -1.33085 0
M  V30 13104 H 1262.98 3.58502 -1.27501 0
M  V30 13105 H 1262.49 2.64572 -2.83942 0
M  V30 13106 H 1260.59 3.6774 -0.599864 0
M  V30 13107 H 1260.71 4.12959 -2.42902 0
M  V30 13108 H 1259.07 2.24285 -1.20699 0
M  V30 13109 H 1259.85 1.91882 -2.84669 0
M  V30 13110 N 1262.3 0.988223 1.22768 0
M  V30 13111 C 1263.71 0.69816 1.4352 0
M  V30 13112 C 1263.91 -0.732872 1.877 0
M  V30 13113 O 1262.97 -1.50436 2.02793 0
M  V30 13114 C 1264.28 1.69975 2.4805 0
M  V30 13115 C 1265.83 1.71467 2.61855 0
M  V30 13116 C 1266.31 2.70477 3.69603 0
M  V30 13117 N 1267.8 2.69043 3.77055 0
M  V30 13118 C 1268.53 3.42319 4.60006 0
M  V30 13119 N 1268.03 4.2518 5.46986 0
M  V30 13120 N 1269.82 3.31047 4.54274 0
M  V30 13121 H 1261.97 1.91251 0.923948 0
M  V30 13122 H 1264.23 0.82455 0.467783 0
M  V30 13123 H 1263.94 2.72354 2.22523 0
M  V30 13124 H 1263.81 1.48885 3.46573 0
M  V30 13125 H 1266.2 0.697889 2.86729 0
M  V30 13126 H 1266.28 1.96625 1.63622 0
M  V30 13127 H 1265.93 3.72302 3.45476 0
M  V30 13128 H 1265.86 2.42591 4.67394 0
M  V30 13129 H 1268.35 2.08914 3.14902 0
M  V30 13130 H 1268.66 4.77929 6.07292 0
M  V30 13131 H 1267.01 4.29268 5.46584 0
M  V30 13132 H 1270.2 2.65758 3.85345 0
M  V30 13133 H 1270.37 3.88413 5.1869 0
M  V30 13134 N 1263.78 -1.38018 0.760839 0
M  V30 13135 C 1265.02 -1.99557 0.319609 0
M  V30 13136 C 1265.34 -1.60699 -1.10457 0
M  V30 13137 O 1264.61 -0.867248 -1.75658 0
M  V30 13138 H 1263.19 -0.738066 0.115182 0
M  V30 13139 H 1265.86 -1.6867 0.976544 0
M  V30 13140 H 1264.95 -3.09672 0.388523 0
M  V30 13141 N 1265.25 -0.510493 -1.49103 0
M  V30 13142 C 1266.22 0.251915 -2.27811 0
M  V30 13143 C 1267.22 0.885432 -1.34226 0
M  V30 13144 O 1268.41 0.748494 -1.573 0
M  V30 13145 C 1265.54 1.3624 -3.12492 0
M  V30 13146 H 1266.73 -0.438872 -2.96671 0
M  V30 13147 H 1264.28 -0.265767 -1.54024 0
M  V30 13148 H 1265.02 2.08705 -2.48219 0
M  V30 13149 H 1264.8 0.913485 -3.81311 0
M  V30 13150 H 1266.29 1.89919 -3.71915 0
M  V30 13151 N 1266.73 1.55688 -0.24474 0
M  V30 13152 C 1267.96 2.0329 0.384808 0
M  V30 13153 C 1268.37 1.12405 1.51692 0
M  V30 13154 O 1267.73 0.138056 1.81977 0
M  V30 13155 C 1267.78 3.50255 0.894635 0
M  V30 13156 O 1267.5 4.37677 -0.192365 0
M  V30 13157 C 1269 4.13608 1.59509 0
M  V30 13158 H 1266.22 0.664706 0.0916908 0
M  V30 13159 H 1268.77 2.01162 -0.367973 0
M  V30 13160 H 1266.92 3.52924 1.5976 0
M  V30 13161 H 1267.34 5.2414 0.194424 0
M  V30 13162 H 1268.81 5.1814 1.90356 0
M  V30 13163 H 1269.29 3.5997 2.51631 0
M  V30 13164 H 1269.89 4.14856 0.936749 0
M  V30 13165 N 1268.21 -0.0283989 1.57574 0
M  V30 13166 C 1269.17 -1.01346 2.05576 0
M  V30 13167 C 1270.17 -1.28999 0.960001 0
M  V30 13168 O 1271.36 -1.23991 1.2236 0
M  V30 13169 C 1268.49 -2.34611 2.47327 0
M  V30 13170 H 1269.69 -0.598809 2.93861 0
M  V30 13171 H 1267.24 -0.27524 1.53857 0
M  V30 13172 H 1267.98 -2.80823 1.622 0
M  V30 13173 H 1267.76 -2.1587 3.27326 0
M  V30 13174 H 1269.25 -3.05332 2.84889 0
M  V30 13175 N 1269.69 -1.54705 -0.300681 0
M  V30 13176 C 1270.62 -1.88679 -1.37559 0
M  V30 13177 C 1271.6 -0.74574 -1.52881 0
M  V30 13178 O 1272.78 -1.0015 -1.66384 0
M  V30 13179 C 1269.91 -2.13438 -2.73974 0
M  V30 13180 C 1268.87 -3.29284 -2.73415 0
M  V30 13181 C 1268.19 -3.39462 -4.13122 0
M  V30 13182 C 1269.49 -4.66382 -2.35128 0
M  V30 13183 H 1271.19 -2.78707 -1.09373 0
M  V30 13184 H 1268.73 -1.341 -0.524704 0
M  V30 13185 H 1270.69 -2.35791 -3.49257 0
M  V30 13186 H 1269.41 -1.20181 -3.03684 0
M  V30 13187 H 1268.07 -3.06855 -2.00588 0
M  V30 13188 H 1267.72 -2.43721 -4.4001 0
M  V30 13189 H 1267.42 -4.17334 -4.1365 0
M  V30 13190 H 1268.94 -3.64075 -4.90185 0
M  V30 13191 H 1270.36 -4.88463 -3.00128 0
M  V30 13192 H 1268.75 -5.4697 -2.46867 0
M  V30 13193 H 1269.82 -4.67078 -1.30256 0
M  V30 13194 N 1271.17 0.563888 -1.47167 0
M  V30 13195 C 1272.58 1.14603 -1.47388 0
M  V30 13196 C 1272.93 1.94907 -0.224916 0
M  V30 13197 O 1272.05 2.05745 0.670672 0
M  V30 13198 C 1272.65 2.08501 -2.67044 0
M  V30 13199 C 1271.21 2.62 -2.70246 0
M  V30 13200 C 1270.35 1.38244 -2.40383 0
M  V30 13201 H 1273.31 0.350833 -1.54774 0
M  V30 13202 H 1273.33 2.92272 -2.43634 0
M  V30 13203 H 1272.84 1.50027 -3.57929 0
M  V30 13204 H 1270.94 3.24292 -1.83482 0
M  V30 13205 H 1271.05 3.0345 -3.70749 0
M  V30 13206 H 1269.42 1.68692 -1.90827 0
M  V30 13207 H 1270.2 0.815726 -3.33468 0
M  V30 13208 N 1272.64 1.35187 0.810078 0
M  V30 13209 C 1273.57 1.30481 1.93641 0
M  V30 13210 C 1274.56 0.179875 1.69146 0
M  V30 13211 O 1275.74 0.374284 1.90559 0
M  V30 13212 C 1272.87 1.07251 3.30325 0
M  V30 13213 C 1271.82 2.16348 3.69293 0
M  V30 13214 C 1271.15 1.78288 5.04101 0
M  V30 13215 C 1272.45 3.58285 3.80038 0
M  V30 13216 H 1274.14 2.24725 1.97836 0
M  V30 13217 H 1271.69 1.08179 0.950436 0
M  V30 13218 H 1273.64 1.02599 4.08719 0
M  V30 13219 H 1272.37 0.0945203 3.26463 0
M  V30 13220 H 1271.03 2.2009 2.93182 0
M  V30 13221 H 1270.67 0.791163 4.96739 0
M  V30 13222 H 1270.37 2.51315 5.31144 0
M  V30 13223 H 1271.9 1.75155 5.84938 0
M  V30 13224 H 1273.31 3.56884 4.48672 0
M  V30 13225 H 1271.71 4.30044 4.18548 0
M  V30 13226 H 1272.78 3.94691 2.81685 0
M  V30 13227 N 1274.12 -1.03182 1.19127 0
M  V30 13228 C 1275.54 -1.28773 0.942854 0
M  V30 13229 C 1275.74 -1.97759 -0.386483 0
M  V30 13230 O 1274.79 -2.26365 -1.1187 0
M  V30 13231 C 1276.11 -2.13771 2.11476 0
M  V30 13232 C 1277.66 -2.27089 2.15406 0
M  V30 13233 C 1278.13 -3.15458 3.32039 0
M  V30 13234 N 1279.62 -3.23046 3.31957 0
M  V30 13235 C 1280.36 -3.91604 4.18848 0
M  V30 13236 N 1279.85 -4.62418 5.15889 0
M  V30 13237 N 1281.65 -3.87974 4.06734 0
M  V30 13238 H 1273.8 -0.568165 2.0466 0
M  V30 13239 H 1276.06 -0.31328 0.89474 0
M  V30 13240 H 1275.77 -1.704 3.07663 0
M  V30 13241 H 1275.64 -3.14476 2.0829 0
M  V30 13242 H 1278.03 -2.69693 1.19791 0
M  V30 13243 H 1278.11 -1.25945 2.22647 0
M  V30 13244 H 1277.75 -2.73564 4.27931 0
M  V30 13245 H 1277.68 -4.16654 3.22035 0
M  V30 13246 H 1280.17 -2.7261 2.6171 0
M  V30 13247 H 1280.49 -5.12353 5.78545 0
M  V30 13248 H 1278.83 -4.61293 5.1984 0
M  V30 13249 H 1282.02 -3.31789 3.30202 0
M  V30 13250 H 1282.19 -4.4113 4.74666 0
M  V30 13251 N 1275.6 -0.99472 -1.22242 0
M  V30 13252 C 1276.83 -0.690097 -1.95052 0
M  V30 13253 C 1277.24 0.745543 -1.73456 0
M  V30 13254 O 1276.6 1.50329 -1.03477 0
M  V30 13255 C 1276.65 -0.988798 -3.47714 0
M  V30 13256 O 1276.37 -2.36803 -3.68587 0
M  V30 13257 C 1277.87 -0.702132 -4.37704 0
M  V30 13258 H 1275.09 -0.255142 -0.620599 0
M  V30 13259 H 1277.64 -1.32998 -1.55344 0
M  V30 13260 H 1275.79 -0.394684 -3.85384 0
M  V30 13261 H 1276.21 -2.4687 -4.62769 0
M  V30 13262 H 1277.68 -0.961389 -5.43564 0
M  V30 13263 H 1278.16 0.363866 -4.3769 0
M  V30 13264 H 1278.76 -1.27738 -4.05664 0
M  V30 13265 N 1277.08 1.37613 -0.768148 0
M  V30 13266 C 1278.49 1.82437 -0.396703 0
M  V30 13267 C 1278.84 1.64019 1.07668 0
M  V30 13268 O 1277.97 1.14932 1.83356 0
M  V30 13269 C 1278.56 3.31207 -0.713265 0
M  V30 13270 C 1277.12 3.74323 -0.39492 0
M  V30 13271 C 1276.27 2.60191 -0.958962 0
M  V30 13272 H 1279.22 1.26135 -0.963099 0
M  V30 13273 H 1279.24 3.805 0.00337228 0
M  V30 13274 H 1278.75 3.4458 -1.78567 0
M  V30 13275 H 1276.85 3.66521 0.670313 0
M  V30 13276 H 1276.96 4.70558 -0.900653 0
M  V30 13277 H 1275.33 2.51797 -0.383423 0
M  V30 13278 H 1276.11 2.76358 -2.03669 0
M  V30 13279 N 1278.56 0.518393 1.4883 0
M  V30 13280 C 1279.78 -0.0183131 2.07392 0
M  V30 13281 C 1280.21 -1.28468 1.37396 0
M  V30 13282 O 1279.56 -1.75975 0.436177 0
M  V30 13283 C 1279.61 -0.237211 3.59819 0
M  V30 13284 O 1278.72 -1.30835 3.91096 0
M  V30 13285 H 1278.06 0.0339621 0.663131 0
M  V30 13286 H 1280.59 0.722993 1.914 0
M  V30 13287 H 1280.6 -0.463424 4.0536 0
M  V30 13288 H 1279.27 0.687925 4.10171 0
M  V30 13289 H 1277.85 -1.06571 3.57347 0
M  V30 13290 N 1280.03 -1.55556 0.252993 0
M  V30 13291 C 1281.28 -1.98697 -0.369319 0
M  V30 13292 C 1281.6 -1.14256 -1.58021 0
M  V30 13293 O 1280.87 -0.226779 -1.94583 0
M  V30 13294 H 1279.45 -0.733869 -0.139444 0
M  V30 13295 H 1282.12 -1.91673 0.353197 0
M  V30 13296 H 1281.21 -3.04728 -0.674312 0
M  V30 13297 N 1281.51 0.0200419 -1.57587 0
M  V30 13298 C 1282.79 0.744946 -1.80859 0
M  V30 13299 C 1283.17 1.93089 -0.853218 0
M  V30 13300 O 1282.52 2.28269 0.10261 0
M  V30 13301 C 1282.73 1.16952 -3.28821 0
M  V30 13302 C 1284.08 1.5817 -3.9404 0
M  V30 13303 O 1285.1 1.26385 -3.33024 0
M  V30 13304 O 1283.96 2.17197 -5.01486 0
M  V30 13305 H 1281.05 0.360995 -0.744051 0
M  V30 13306 H 1283.6 -0.00387374 -1.697 0
M  V30 13307 H 1282.37 0.323304 -3.89962 0
M  V30 13308 H 1281.99 1.97807 -3.44903 0
M  V30 13309 N 1282.99 1.54862 0.292472 0
M  V30 13310 C 1283.92 1.89406 1.36556 0
M  V30 13311 C 1284.9 0.753838 1.52484 0
M  V30 13312 O 1286.09 1.01031 1.6585 0
M  V30 13313 C 1283.22 2.14888 2.72838 0
M  V30 13314 C 1282.17 3.3073 2.71665 0
M  V30 13315 C 1281.5 3.41648 4.11316 0
M  V30 13316 C 1282.8 4.67622 2.32651 0
M  V30 13317 H 1284.49 2.79284 1.07894 0
M  V30 13318 H 1282.04 1.34377 0.517585 0
M  V30 13319 H 1283.99 2.3764 3.48002 0
M  V30 13320 H 1282.71 1.2179 3.03042 0
M  V30 13321 H 1281.37 3.07915 1.98958 0
M  V30 13322 H 1281.02 2.46051 4.38711 0
M  V30 13323 H 1280.72 4.19522 4.11431 0
M  V30 13324 H 1282.24 3.6667 4.88248 0
M  V30 13325 H 1283.66 4.90048 2.97533 0
M  V30 13326 H 1282.06 5.48272 2.43963 0
M  V30 13327 H 1283.13 4.67762 1.27777 0
M  V30 13328 N 1284.47 -0.556076 1.47464 0
M  V30 13329 C 1285.43 -1.64515 1.59586 0
M  V30 13330 C 1286.43 -1.53751 0.470881 0
M  V30 13331 O 1287.62 -1.57889 0.735979 0
M  V30 13332 C 1284.75 -3.0406 1.54143 0
M  V30 13333 H 1285.95 -1.55116 2.56669 0
M  V30 13334 H 1283.5 -0.776087 1.35671 0
M  V30 13335 H 1284.23 -3.18991 0.584395 0
M  V30 13336 H 1284.02 -3.13282 2.3579 0
M  V30 13337 H 1285.51 -3.8329 1.65766 0
M  V30 13338 N 1285.95 -1.35615 -0.802897 0
M  V30 13339 C 1287.2 -1.28428 -1.55528 0
M  V30 13340 C 1287.51 0.138275 -1.95111 0
M  V30 13341 O 1288.72 0.332435 -2.69457 0
M  V30 13342 C 1287.17 -2.25251 -2.80696 0
M  V30 13343 C 1286.78 -3.72871 -2.48336 0
M  V30 13344 C 1288.52 -2.27014 -3.58699 0
M  V30 13345 C 1286.43 -4.61507 -3.69817 0
M  V30 13346 H 1285.36 -0.47718 -0.583794 0
M  V30 13347 H 1288.01 -1.609 -0.882238 0
M  V30 13348 H 1286.39 -1.85755 -3.4973 0
M  V30 13349 H 1287.57 -4.21024 -1.87285 0
M  V30 13350 H 1285.88 -3.73752 -1.83571 0
M  V30 13351 H 1288.48 -2.90451 -4.48935 0
M  V30 13352 H 1288.82 -1.27491 -3.96298 0
M  V30 13353 H 1289.36 -2.65058 -2.9663 0
M  V30 13354 H 1286.09 -5.62043 -3.37324 0
M  V30 13355 H 1285.61 -4.18079 -4.30081 0
M  V30 13356 H 1287.29 -4.77113 -4.37004 0
M  V30 13357 N 1287.43 1.02549 -1.19673 0
M  V30 13358 C 1288.65 1.79623 -1.0268 0
M  V30 13359 C 1289.07 1.83969 0.424345 0
M  V30 13360 O 1288.43 1.28621 1.29472 0
M  V30 13361 C 1288.48 3.24514 -1.59289 0
M  V30 13362 O 1288.2 3.20462 -2.98723 0
M  V30 13363 C 1289.7 4.18173 -1.47126 0
M  V30 13364 H 1286.92 0.565167 -0.3617 0
M  V30 13365 H 1289.46 1.29143 -1.58564 0
M  V30 13366 H 1287.62 3.72173 -1.07546 0
M  V30 13367 H 1288.03 4.11341 -3.25421 0
M  V30 13368 H 1289.51 5.17714 -1.9151 0
M  V30 13369 H 1289.98 4.37165 -0.422315 0
M  V30 13370 H 1290.59 3.7639 -1.98017 0
M  V30 13371 N 1288.9 1.00119 1.21713 0
M  V30 13372 C 1289.81 0.567582 2.27631 0
M  V30 13373 C 1290.83 -0.387593 1.69628 0
M  V30 13374 O 1292.01 -0.252372 1.99813 0
M  V30 13375 C 1289.07 -0.102745 3.46548 0
M  V30 13376 C 1288.13 0.896433 4.19836 0
M  V30 13377 C 1287.36 0.258 5.33076 0
M  V30 13378 O 1287.59 -0.946118 5.62499 0
M  V30 13379 O 1286.52 0.967021 5.94081 0
M  V30 13380 H 1290.35 1.44898 2.66905 0
M  V30 13381 H 1287.93 0.769862 1.28037 0
M  V30 13382 H 1289.81 -0.477846 4.18682 0
M  V30 13383 H 1288.49 -0.958576 3.09181 0
M  V30 13384 H 1287.4 1.32262 3.49939 0
M  V30 13385 H 1288.73 1.72173 4.61104 0
M  V30 13386 N 1290.38 -1.37203 0.775435 0
M  V30 13387 C 1291.33 -2.30228 0.162388 0
M  V30 13388 C 1292.3 -1.51284 -0.685747 0
M  V30 13389 O 1293.48 -1.7984 -0.637342 0
M  V30 13390 C 1290.62 -3.37762 -0.707858 0
M  V30 13391 C 1289.74 -4.31714 0.157287 0
M  V30 13392 C 1288.87 -5.26325 -0.718012 0
M  V30 13393 C 1287.91 -6.11918 0.149442 0
M  V30 13394 N 1287.05 -6.9876 -0.684043 0
M  V30 13395 H 1291.89 -2.82073 0.961184 0
M  V30 13396 H 1289.42 -1.38854 0.485587 0
M  V30 13397 H 1291.38 -3.98741 -1.22726 0
M  V30 13398 H 1290.01 -2.87273 -1.47222 0
M  V30 13399 H 1289.06 -3.7201 0.794533 0
M  V30 13400 H 1290.38 -4.91909 0.826262 0
M  V30 13401 H 1289.53 -5.92526 -1.30376 0
M  V30 13402 H 1288.27 -4.6655 -1.42066 0
M  V30 13403 H 1287.27 -5.44692 0.747697 0
M  V30 13404 H 1288.5 -6.73766 0.849476 0
M  V30 13405 H 1286.45 -6.41508 -1.37124 0
M  V30 13406 H 1286.36 -7.55965 -0.0724464 0
M  V30 13407 H 1287.63 -7.69346 -1.25407 0
M  V30 13408 N 1291.86 -0.526279 -1.48553 0
M  V30 13409 C 1293.14 0.073385 -1.95462 0
M  V30 13410 C 1293.52 1.51658 -1.46843 0
M  V30 13411 O 1292.86 2.17729 -0.693293 0
M  V30 13412 C 1293.07 -0.040041 -3.48977 0
M  V30 13413 C 1294.42 0.121108 -4.24427 0
M  V30 13414 O 1295.45 0.0339335 -3.56184 0
M  V30 13415 O 1294.31 0.303297 -5.45658 0
M  V30 13416 H 1291.4 0.0813498 -0.822989 0
M  V30 13417 H 1293.95 -0.590614 -1.59091 0
M  V30 13418 H 1292.72 -1.0455 -3.77074 0
M  V30 13419 H 1292.34 0.662975 -3.92034 0
M  V30 13420 N 1293.34 1.5542 -0.261239 0
M  V30 13421 C 1294.75 1.85161 0.239195 0
M  V30 13422 C 1295.1 1.18319 1.56509 0
M  V30 13423 O 1294.22 0.4666 2.1131 0
M  V30 13424 C 1294.82 3.3592 0.440781 0
M  V30 13425 C 1293.38 3.65837 0.885461 0
M  V30 13426 C 1292.53 2.77285 -0.0291982 0
M  V30 13427 H 1295.48 1.51158 -0.483417 0
M  V30 13428 H 1295.5 3.58276 1.28136 0
M  V30 13429 H 1295.01 3.84541 -0.524382 0
M  V30 13430 H 1293.11 3.22705 1.86259 0
M  V30 13431 H 1293.22 4.73469 0.732394 0
M  V30 13432 H 1291.59 2.50045 0.484701 0
M  V30 13433 H 1292.37 3.28716 -0.989992 0
M  V30 13434 N 1294.82 -0.0116844 1.57596 0
M  V30 13435 C 1296.23 -0.55604 1.78228 0
M  V30 13436 C 1296.58 -1.74624 0.894474 0
M  V30 13437 O 1295.7 -2.16196 0.0938498 0
M  V30 13438 C 1296.3 -1.0155 3.23223 0
M  V30 13439 C 1294.86 -1.50525 3.44992 0
M  V30 13440 C 1294 -0.451133 2.73606 0
M  V30 13441 H 1296.95 0.214516 1.57243 0
M  V30 13442 H 1296.98 -1.88208 3.30693 0
M  V30 13443 H 1296.49 -0.149048 3.87814 0
M  V30 13444 H 1294.59 -2.39298 2.856 0
M  V30 13445 H 1294.7 -1.54076 4.53649 0
M  V30 13446 H 1293.07 -0.910135 2.37884 0
M  V30 13447 H 1293.85 0.406152 3.40889 0
M  V30 13448 N 1296.29 -1.55015 -0.284256 0
M  V30 13449 C 1297.54 -1.74744 -1.01532 0
M  V30 13450 C 1297.86 -0.545334 -1.87219 0
M  V30 13451 O 1297.13 0.440046 -1.90894 0
M  V30 13452 H 1295.71 -0.644382 -0.377864 0
M  V30 13453 H 1298.37 -1.92399 -0.311199 0
M  V30 13454 H 1297.47 -2.64369 -1.65878 0
M  V30 13455 N 1297.77 0.548248 -1.47757 0
M  V30 13456 C 1299.02 1.30694 -1.55071 0
M  V30 13457 C 1299.35 1.92994 -0.216075 0
M  V30 13458 O 1298.63 1.78341 0.776196 0
M  V30 13459 C 1298.91 2.41024 -2.67543 0
M  V30 13460 C 1298.76 1.83534 -4.10652 0
M  V30 13461 C 1300.08 3.42902 -2.75874 0
M  V30 13462 H 1297.2 0.47383 -0.564494 0
M  V30 13463 H 1299.84 0.612628 -1.79852 0
M  V30 13464 H 1297.99 3.00248 -2.46543 0
M  V30 13465 H 1299.66 1.28503 -4.4304 0
M  V30 13466 H 1297.91 1.14161 -4.18509 0
M  V30 13467 H 1298.58 2.63335 -4.85138 0
M  V30 13468 H 1301.05 2.9361 -2.94843 0
M  V30 13469 H 1299.93 4.17516 -3.5633 0
M  V30 13470 H 1300.19 4.02314 -1.83291 0
M  V30 13471 N 1299.25 1.36039 0.795694 0
M  V30 13472 C 1300.5 1.29663 1.55023 0
M  V30 13473 C 1300.82 -0.125588 1.94595 0
M  V30 13474 O 1300.09 -1.06447 1.64456 0
M  V30 13475 H 1298.67 0.476962 0.574906 0
M  V30 13476 H 1301.33 1.70265 0.948471 0
M  V30 13477 H 1300.43 1.91982 2.46068 0
M  V30 13478 N 1300.73 -1.01913 1.20215 0
M  V30 13479 C 1301.97 -1.7573 1.01226 0
M  V30 13480 C 1302.31 -1.88799 -0.45481 0
M  V30 13481 O 1301.58 -1.41196 -1.33768 0
M  V30 13482 C 1301.87 -3.17795 1.69348 0
M  V30 13483 C 1301.72 -3.12536 3.23483 0
M  V30 13484 C 1303.04 -4.16409 1.42448 0
M  V30 13485 H 1300.16 -0.637889 0.369144 0
M  V30 13486 H 1302.8 -1.18907 1.48193 0
M  V30 13487 H 1300.95 -3.66311 1.29416 0
M  V30 13488 H 1302.62 -2.71843 3.72692 0
M  V30 13489 H 1300.86 -2.49997 3.54519 0
M  V30 13490 H 1301.53 -4.12949 3.66302 0
M  V30 13491 H 1304.01 -3.76537 1.77086 0
M  V30 13492 H 1302.89 -5.13983 1.92648 0
M  V30 13493 H 1303.15 -4.407 0.351574 0
M  V30 13494 N 1302.21 -1.00763 -1.2118 0
M  V30 13495 C 1303.17 -0.575183 -2.21865 0
M  V30 13496 C 1304.17 0.349871 -1.56948 0
M  V30 13497 O 1305.36 0.139795 -1.73638 0
M  V30 13498 C 1302.49 0.161308 -3.40518 0
M  V30 13499 H 1303.68 -1.46578 -2.61639 0
M  V30 13500 H 1301.24 -0.79643 -1.34487 0
M  V30 13501 H 1301.97 1.06723 -3.06236 0
M  V30 13502 H 1301.76 -0.503101 -3.88859 0
M  V30 13503 H 1303.25 0.451527 -4.15152 0
M  V30 13504 N 1303.68 1.3679 -0.7827 0
M  V30 13505 C 1304.93 1.99023 -0.351316 0
M  V30 13506 C 1305.25 1.62436 1.07887 0
M  V30 13507 O 1304.52 0.895084 1.74256 0
M  V30 13508 H 1303.1 0.736141 -0.126909 0
M  V30 13509 H 1305.77 1.67095 -1.00325 0
M  V30 13510 H 1304.86 3.09015 -0.43774 0
M  V30 13511 N 1305.16 0.53415 1.48272 0
M  V30 13512 C 1306.41 0.00157492 2.028 0
M  V30 13513 C 1306.74 -1.33538 1.41001 0
M  V30 13514 O 1306.02 -1.86347 0.557245 0
M  V30 13515 C 1306.3 -0.116016 3.59913 0
M  V30 13516 C 1306.15 1.2464 4.32186 0
M  V30 13517 C 1307.47 -0.840775 4.31994 0
M  V30 13518 H 1304.59 0.00204634 0.736997 0
M  V30 13519 H 1307.23 0.691985 1.76951 0
M  V30 13520 H 1305.38 -0.704027 3.82068 0
M  V30 13521 H 1307.05 1.87584 4.21438 0
M  V30 13522 H 1305.3 1.8272 3.93441 0
M  V30 13523 H 1305.97 1.11708 5.40579 0
M  V30 13524 H 1308.44 -0.341746 4.14694 0
M  V30 13525 H 1307.32 -0.89196 5.41604 0
M  V30 13526 H 1307.58 -1.89197 3.99571 0
M  V30 13527 N 1306.64 -1.55279 0.269478 0
M  V30 13528 C 1307.6 -2.21008 -0.607299 0
M  V30 13529 C 1308.6 -1.18619 -1.08564 0
M  V30 13530 O 1309.79 -1.4356 -0.986721 0
M  V30 13531 C 1306.93 -2.87157 -1.83721 0
M  V30 13532 H 1308.12 -2.99881 -0.0334894 0
M  V30 13533 H 1305.67 -1.56287 0.0200573 0
M  V30 13534 H 1306.41 -2.12281 -2.45168 0
M  V30 13535 H 1306.19 -3.62183 -1.5022 0
M  V30 13536 H 1307.68 -3.37391 -2.46083 0
M  V30 13537 N 1308.12 0.00332656 -1.576 0
M  V30 13538 C 1309.08 0.980628 -2.07163 0
M  V30 13539 C 1310.08 1.27455 -0.980402 0
M  V30 13540 O 1311.27 1.22029 -1.24317 0
M  V30 13541 C 1308.4 2.30647 -2.51028 0
M  V30 13542 H 1309.6 0.551982 -2.94776 0
M  V30 13543 H 1307.15 0.250728 -1.54276 0
M  V30 13544 H 1307.88 2.78207 -1.66647 0
M  V30 13545 H 1307.67 2.10635 -3.30719 0
M  V30 13546 H 1309.16 3.00761 -2.89711 0
M  V30 13547 N 1309.6 1.55164 0.276031 0
M  V30 13548 C 1310.56 1.87065 1.32436 0
M  V30 13549 C 1311.56 0.745024 1.42499 0
M  V30 13550 O 1312.75 1.01321 1.41702 0
M  V30 13551 C 1309.88 2.07322 2.70611 0
M  V30 13552 H 1311.07 2.80775 1.05382 0
M  V30 13553 H 1308.63 1.47609 0.513947 0
M  V30 13554 H 1309.36 1.15983 3.0285 0
M  V30 13555 H 1309.15 2.89275 2.64693 0
M  V30 13556 H 1310.64 2.33287 3.46362 0
M  V30 13557 N 1311.07 -0.540404 1.48045 0
M  V30 13558 C 1312.49 -1.12243 1.49192 0
M  V30 13559 C 1312.84 -1.94524 0.255895 0
M  V30 13560 O 1311.96 -2.06786 -0.637855 0
M  V30 13561 C 1312.56 -2.04227 2.70327 0
M  V30 13562 C 1311.12 -2.57668 2.7438 0
M  V30 13563 C 1310.26 -1.34402 2.42552 0
M  V30 13564 H 1313.21 -0.326165 1.55312 0
M  V30 13565 H 1313.23 -2.88359 2.48253 0
M  V30 13566 H 1312.75 -1.44314 3.60271 0
M  V30 13567 H 1310.85 -3.21331 1.88618 0
M  V30 13568 H 1310.96 -2.97514 3.7553 0
M  V30 13569 H 1309.32 -1.65635 1.93487 0
M  V30 13570 H 1310.11 -0.762571 3.34723 0
M  V30 13571 N 1312.55 -1.36459 -0.788468 0
M  V30 13572 C 1313.5 -1.30863 -1.90115 0
M  V30 13573 C 1314.47 -0.177148 -1.65153 0
M  V30 13574 O 1315.65 -0.363817 -1.87299 0
M  V30 13575 C 1312.79 -1.10473 -3.2694 0
M  V30 13576 C 1311.91 -2.32704 -3.63968 0
M  V30 13577 C 1311.04 -2.05319 -4.89916 0
M  V30 13578 C 1310.08 -3.23506 -5.19625 0
M  V30 13579 N 1309.22 -2.9578 -6.36756 0
M  V30 13580 H 1314.06 -2.26003 -1.94233 0
M  V30 13581 H 1311.6 -1.12324 -0.949827 0
M  V30 13582 H 1313.55 -0.966773 -4.05844 0
M  V30 13583 H 1312.18 -0.189873 -3.22241 0
M  V30 13584 H 1311.24 -2.573 -2.8018 0
M  V30 13585 H 1312.55 -3.20899 -3.81871 0
M  V30 13586 H 1311.7 -1.88459 -5.76687 0
M  V30 13587 H 1310.44 -1.14437 -4.74084 0
M  V30 13588 H 1309.45 -3.40924 -4.31336 0
M  V30 13589 H 1310.67 -4.15216 -5.37376 0
M  V30 13590 H 1308.62 -2.0751 -6.22315 0
M  V30 13591 H 1308.53 -3.77513 -6.54996 0
M  V30 13592 H 1309.8 -2.825 -7.26508 0
M  V30 13593 N 1314.03 1.01274 -1.20754 0
M  V30 13594 C 1315.28 1.74586 -1.01804 0
M  V30 13595 C 1315.6 1.89727 0.450419 0
M  V30 13596 O 1314.87 1.44257 1.32539 0
M  V30 13597 H 1313.45 0.646804 -0.373702 0
M  V30 13598 H 1316.11 1.22079 -1.5193 0
M  V30 13599 H 1315.21 2.748 -1.47958 0
M  V30 13600 N 1315.51 1.01404 1.20644 0
M  V30 13601 C 1316.46 0.582109 2.23339 0
M  V30 13602 C 1317.43 -0.39649 1.61298 0
M  V30 13603 O 1318.61 -0.296504 1.88482 0
M  V30 13604 C 1315.75 -0.076029 3.45016 0
M  V30 13605 C 1314.86 0.946829 4.21496 0
M  V30 13606 C 1314 0.26001 5.30563 0
M  V30 13607 C 1313.04 1.2698 5.98784 0
M  V30 13608 N 1312.18 0.609827 6.99447 0
M  V30 13609 H 1317.02 1.46248 2.59645 0
M  V30 13610 H 1314.55 0.732145 1.27585 0
M  V30 13611 H 1316.51 -0.474714 4.1449 0
M  V30 13612 H 1315.14 -0.920062 3.0941 0
M  V30 13613 H 1314.19 1.4637 3.51113 0
M  V30 13614 H 1315.5 1.71491 4.68393 0
M  V30 13615 H 1314.66 -0.19431 6.06389 0
M  V30 13616 H 1313.4 -0.540395 4.84697 0
M  V30 13617 H 1312.4 1.73453 5.21722 0
M  V30 13618 H 1313.63 2.07144 6.46737 0
M  V30 13619 H 1311.57 -0.170756 6.55778 0
M  V30 13620 H 1311.49 1.31601 7.44458 0
M  V30 13621 H 1312.76 0.179014 7.79294 0
M  V30 13622 N 1316.99 -1.36373 0.789944 0
M  V30 13623 C 1317.9 -2.3383 0.189873 0
M  V30 13624 C 1318.91 -1.61068 -0.65827 0
M  V30 13625 O 1320.09 -1.93049 -0.573932 0
M  V30 13626 C 1317.15 -3.40264 -0.664905 0
M  V30 13627 C 1316.22 -4.28825 0.201798 0
M  V30 13628 C 1315.45 -5.30176 -0.612278 0
M  V30 13629 O 1315.67 -5.39627 -1.84821 0
M  V30 13630 O 1314.61 -6.01899 -0.0118964 0
M  V30 13631 H 1318.43 -2.86915 0.995671 0
M  V30 13632 H 1316.02 -1.38852 0.551412 0
M  V30 13633 H 1317.9 -4.05339 -1.15231 0
M  V30 13634 H 1316.57 -2.89478 -1.44858 0
M  V30 13635 H 1315.48 -3.66789 0.735974 0
M  V30 13636 H 1316.81 -4.82965 0.949003 0
M  V30 13637 N 1318.47 -0.542005 -1.47987 0
M  V30 13638 C 1319.41 0.214151 -2.29804 0
M  V30 13639 C 1320.38 0.922625 -1.38119 0
M  V30 13640 O 1321.57 0.921301 -1.67083 0
M  V30 13641 C 1318.71 1.24768 -3.21756 0
M  V30 13642 C 1317.82 0.546824 -4.28525 0
M  V30 13643 C 1316.96 1.56432 -5.07644 0
M  V30 13644 C 1315.99 0.847598 -6.06203 0
M  V30 13645 N 1315.13 1.81121 -6.78336 0
M  V30 13646 H 1319.97 -0.489707 -2.93949 0
M  V30 13647 H 1317.51 -0.253331 -1.44902 0
M  V30 13648 H 1319.47 1.85933 -3.73477 0
M  V30 13649 H 1318.1 1.91976 -2.59509 0
M  V30 13650 H 1317.15 -0.179026 -3.79978 0
M  V30 13651 H 1318.46 -0.0153623 -4.98798 0
M  V30 13652 H 1317.61 2.24992 -5.63439 0
M  V30 13653 H 1316.35 2.16041 -4.37238 0
M  V30 13654 H 1315.36 0.147989 -5.49601 0
M  V30 13655 H 1316.58 0.257454 -6.78612 0
M  V30 13656 H 1314.53 2.39615 -6.10672 0
M  V30 13657 H 1314.45 1.30077 -7.44725 0
M  V30 13658 H 1315.71 2.48842 -7.38714 0
M  V30 13659 N 1319.94 1.55134 -0.277709 0
M  V30 13660 C 1320.89 2.24057 0.624594 0
M  V30 13661 C 1321.89 1.23848 1.15577 0
M  V30 13662 O 1323.09 1.41771 1.1091 0
M  V30 13663 H 1319.47 0.719106 0.219977 0
M  V30 13664 H 1321.44 2.98393 0.0204815 0
M  V30 13665 C 1320.19 2.97712 1.79618 0
M  V30 13666 H 1319.51 3.74611 1.39665 0
M  V30 13667 H 1320.95 3.49255 2.4041 0
M  V30 13668 C 1319.41 2.03332 2.68622 0
M  V30 13669 O 1319.94 1.58622 3.69056 0
M  V30 13670 N 1318.14 1.69778 2.35847 0
M  V30 13671 H 1317.69 2.06333 1.54222 0
M  V30 13672 H 1317.65 1.06901 2.95668 0
M  V30 13673 N 1321.42 0.00503138 1.57599 0
M  V30 13674 C 1322.67 -0.67742 1.90409 0
M  V30 13675 C 1322.99 -1.74033 0.87963 0
M  V30 13676 O 1322.26 -1.95727 -0.0822757 0
M  V30 13677 H 1320.84 -0.2532 0.702779 0
M  V30 13678 H 1323.5 0.0471466 1.94843 0
M  V30 13679 H 1322.6 -1.14548 2.90319 0
M  V30 13680 N 1322.9 -1.55308 -0.267798 0
M  V30 13681 C 1324.15 -1.75811 -0.996734 0
M  V30 13682 C 1324.47 -0.565161 -1.8663 0
M  V30 13683 O 1323.74 0.419775 -1.9135 0
M  V30 13684 H 1322.32 -0.648353 -0.371008 0
M  V30 13685 H 1324.98 -1.92719 -0.290775 0
M  V30 13686 H 1324.08 -2.66113 -1.63064 0
M  V30 13687 N 1324.38 0.532545 -1.4833 0
M  V30 13688 C 1325.34 1.61955 -1.62183 0
M  V30 13689 C 1326.34 1.52982 -0.495281 0
M  V30 13690 O 1327.53 1.56698 -0.761005 0
M  V30 13691 C 1324.66 3.0157 -1.58961 0
M  V30 13692 H 1325.86 1.51013 -2.59105 0
M  V30 13693 H 1323.41 0.754405 -1.36888 0
M  V30 13694 H 1324.14 3.18021 -0.635069 0
M  V30 13695 H 1323.93 3.09491 -2.40744 0
M  V30 13696 H 1325.42 3.80604 -1.71843 0
M  V30 13697 N 1325.86 1.36875 0.78122 0
M  V30 13698 C 1327.27 1.17467 1.08044 0
M  V30 13699 C 1327.47 0.00434799 2.015 0
M  V30 13700 O 1326.53 -0.658499 2.43762 0
M  V30 13701 C 1327.84 2.48917 1.68704 0
M  V30 13702 C 1329.39 2.55354 1.81007 0
M  V30 13703 C 1329.86 3.8691 2.45081 0
M  V30 13704 N 1331.35 3.88301 2.52541 0
M  V30 13705 C 1332.09 4.86837 3.02947 0
M  V30 13706 N 1331.59 5.95768 3.53598 0
M  V30 13707 N 1333.38 4.74249 3.01735 0
M  V30 13708 H 1325.53 2.11793 0.160503 0
M  V30 13709 H 1327.79 0.938507 0.133825 0
M  V30 13710 H 1327.5 3.34867 1.07503 0
M  V30 13711 H 1327.37 2.65319 2.68115 0
M  V30 13712 H 1329.76 1.69816 2.41343 0
M  V30 13713 H 1329.84 2.42843 0.803783 0
M  V30 13714 H 1329.48 4.72858 1.85386 0
M  V30 13715 H 1329.41 3.9672 3.46296 0
M  V30 13716 H 1331.91 3.09607 2.16684 0
M  V30 13717 H 1332.22 6.66918 3.90435 0
M  V30 13718 H 1330.56 5.99426 3.51728 0
M  V30 13719 H 1333.75 3.88275 2.61458 0
M  V30 13720 H 1333.93 5.512 3.40709 0
M  V30 13721 N 1327.33 -1.00632 1.21289 0
M  V30 13722 C 1328.26 -2.11238 0.995021 0
M  V30 13723 C 1329.24 -1.69914 -0.0795537 0
M  V30 13724 O 1330.43 -1.94035 0.0800152 0
M  V30 13725 C 1327.56 -3.42797 0.557475 0
M  V30 13726 C 1326.51 -3.97909 1.57646 0
M  V30 13727 C 1325.84 -5.25357 0.995197 0
M  V30 13728 C 1327.14 -4.30123 2.96297 0
M  V30 13729 H 1328.83 -2.29722 1.9201 0
M  V30 13730 H 1326.38 -1.10395 0.924602 0
M  V30 13731 H 1328.33 -4.19571 0.392236 0
M  V30 13732 H 1327.06 -3.24101 -0.403253 0
M  V30 13733 H 1325.72 -3.23254 1.72924 0
M  V30 13734 H 1325.36 -5.02993 0.026227 0
M  V30 13735 H 1325.06 -5.63196 1.67583 0
M  V30 13736 H 1326.59 -6.04777 0.841251 0
M  V30 13737 H 1328 -4.97744 2.8447 0
M  V30 13738 H 1326.4 -4.79101 3.61361 0
M  V30 13739 H 1327.47 -3.38454 3.47242 0
M  V30 13740 N 1328.81 -1.02043 -1.20104 0
M  V30 13741 C 1330.06 -0.710566 -1.89197 0
M  V30 13742 C 1330.38 0.762471 -1.79475 0
M  V30 13743 O 1329.65 1.54871 -1.19965 0
M  V30 13744 H 1328.23 -0.259839 -0.700352 0
M  V30 13745 H 1330.89 -1.29285 -1.45848 0
M  V30 13746 H 1329.99 -0.997363 -2.95735 0
M  V30 13747 N 1330.29 1.35952 -0.797165 0
M  V30 13748 C 1331.22 2.27728 -0.146693 0
M  V30 13749 C 1332.2 1.47616 0.68178 0
M  V30 13750 O 1333.39 1.76898 0.651094 0
M  V30 13751 C 1330.51 3.29179 0.797442 0
M  V30 13752 C 1329.56 4.26471 0.0497851 0
M  V30 13753 S 1330.39 5.19982 -1.2798 0
M  V30 13754 C 1331.55 6.24977 -0.339864 0
M  V30 13755 H 1331.78 2.82549 -0.924834 0
M  V30 13756 H 1329.31 1.4261 -0.591759 0
M  V30 13757 H 1331.27 3.88127 1.33669 0
M  V30 13758 H 1329.93 2.73255 1.54889 0
M  V30 13759 H 1329.13 4.98138 0.766487 0
M  V30 13760 H 1328.73 3.71643 -0.419219 0
M  V30 13761 H 1331.02 6.75809 0.478412 0
M  V30 13762 H 1331.96 7.00636 -1.02544 0
M  V30 13763 H 1332.37 5.64468 0.0602491 0
M  V30 13764 N 1331.77 0.549846 1.47697 0
M  V30 13765 C 1332.73 -0.191427 2.28399 0
M  V30 13766 C 1333.73 -0.849533 1.36527 0
M  V30 13767 O 1334.92 -0.706526 1.59229 0
M  V30 13768 C 1332.05 -1.27907 3.15995 0
M  V30 13769 H 1333.25 0.517375 2.95404 0
M  V30 13770 H 1330.8 0.30651 1.53265 0
M  V30 13771 H 1331.53 -2.0205 2.53665 0
M  V30 13772 H 1331.32 -0.812066 3.83599 0
M  V30 13773 H 1332.81 -1.79992 3.76819 0
M  V30 13774 N 1333.25 -1.54984 0.285932 0
M  V30 13775 C 1334.49 -1.99436 -0.32709 0
M  V30 13776 C 1334.82 -1.17582 -1.55562 0
M  V30 13777 O 1334.09 -0.268002 -1.94058 0
M  V30 13778 H 1332.67 -0.736662 -0.123846 0
M  V30 13779 H 1335.33 -1.90881 0.393774 0
M  V30 13780 H 1334.42 -3.0609 -0.609523 0
M  V30 13781 N 1334.72 -0.0133892 -1.57594 0
M  V30 13782 C 1335.97 0.669624 -1.91426 0
M  V30 13783 C 1336.3 1.72675 -0.888656 0
M  V30 13784 O 1335.58 1.94288 0.0908138 0
M  V30 13785 C 1335.86 1.30051 -3.35796 0
M  V30 13786 C 1335.71 0.254021 -4.49082 0
M  V30 13787 C 1337.03 2.22297 -3.79832 0
M  V30 13788 H 1334.15 0.241958 -0.69615 0
M  V30 13789 H 1336.79 -0.0674278 -1.8988 0
M  V30 13790 H 1334.94 1.92871 -3.37243 0
M  V30 13791 H 1336.62 -0.375524 -4.59769 0
M  V30 13792 H 1334.86 -0.422267 -4.3174 0
M  V30 13793 H 1335.53 0.734756 -5.47088 0
M  V30 13794 H 1338.01 1.69481 -3.8002 0
M  V30 13795 H 1336.88 2.634 -4.81572 0
M  V30 13796 H 1337.14 3.10764 -3.14449 0
M  V30 13797 N 1336.2 1.55448 0.259558 0
M  V30 13798 C 1337.61 1.67256 0.8296 0
M  V30 13799 C 1337.96 0.60851 1.86525 0
M  V30 13800 O 1337.09 -0.247563 2.14979 0
M  V30 13801 C 1337.68 3.03213 1.51152 0
M  V30 13802 C 1336.24 3.17004 2.02943 0
M  V30 13803 C 1335.39 2.63096 0.876103 0
M  V30 13804 H 1338.34 1.5866 0.0356218 0
M  V30 13805 H 1338.36 2.96952 2.37906 0
M  V30 13806 H 1337.87 3.80635 0.75752 0
M  V30 13807 H 1335.98 2.44381 2.81263 0
M  V30 13808 H 1336.09 4.23748 2.2355 0
M  V30 13809 H 1334.45 2.20596 1.27317 0
M  V30 13810 H 1335.24 3.43033 0.13539 0
M  V30 13811 N 1337.68 -0.524672 1.4861 0
M  V30 13812 C 1338.59 -1.65554 1.6622 0
M  V30 13813 C 1339.61 -1.65254 0.54471 0
M  V30 13814 O 1340.78 -1.84109 0.816454 0
M  V30 13815 C 1337.85 -3.02003 1.7028 0
M  V30 13816 C 1336.91 -3.13116 2.93695 0
M  V30 13817 C 1336.14 -4.43055 2.97553 0
M  V30 13818 O 1336.36 -5.30468 2.09667 0
M  V30 13819 O 1335.3 -4.58646 3.89779 0
M  V30 13820 H 1339.12 -1.53633 2.61974 0
M  V30 13821 H 1336.71 -0.698354 1.32073 0
M  V30 13822 H 1338.59 -3.83143 1.75441 0
M  V30 13823 H 1337.27 -3.14236 0.777002 0
M  V30 13824 H 1336.17 -2.31251 2.94064 0
M  V30 13825 H 1337.51 -3.058 3.85677 0
M  V30 13826 N 1339.16 -1.37287 -0.77395 0
M  V30 13827 C 1340.44 -1.2291 -1.52159 0
M  V30 13828 C 1340.82 0.178249 -2.10346 0
M  V30 13829 O 1340.16 1.18564 -1.95333 0
M  V30 13830 C 1340.37 -2.32337 -2.60424 0
M  V30 13831 C 1341.72 -2.69769 -3.27887 0
M  V30 13832 O 1342.75 -2.31497 -2.70717 0
M  V30 13833 O 1341.6 -3.35699 -4.31241 0
M  V30 13834 H 1338.7 -0.47948 -0.673816 0
M  V30 13835 H 1341.24 -1.49061 -0.811105 0
M  V30 13836 H 1340.02 -3.26591 -2.15532 0
M  V30 13837 H 1339.64 -2.07638 -3.39076 0
M  V30 13838 N 1340.64 0.999871 -1.21821 0
M  V30 13839 C 1341.88 1.73497 -1.0365 0
M  V30 13840 C 1342.21 1.90194 0.430271 0
M  V30 13841 O 1341.48 1.45655 1.31002 0
M  V30 13842 H 1340.06 0.642804 -0.380541 0
M  V30 13843 H 1342.72 1.20461 -1.53216 0
M  V30 13844 H 1341.81 2.73215 -1.50864 0
M  V30 13845 N 1342.11 1.02678 1.19562 0
M  V30 13846 C 1343.02 0.615738 2.26375 0
M  V30 13847 C 1344.04 -0.351525 1.70412 0
M  V30 13848 O 1345.22 -0.209932 2.00303 0
M  V30 13849 C 1342.28 -0.0292135 3.46688 0
M  V30 13850 C 1341.34 0.985284 4.1784 0
M  V30 13851 C 1340.58 0.371016 5.32409 0
M  V30 13852 O 1340.8 -0.826591 5.64379 0
M  V30 13853 O 1339.73 1.09282 5.91896 0
M  V30 13854 H 1343.56 1.50526 2.63772 0
M  V30 13855 H 1341.14 0.796847 1.26375 0
M  V30 13856 H 1343.03 -0.38893 4.19601 0
M  V30 13857 H 1341.7 -0.892778 3.11145 0
M  V30 13858 H 1340.61 1.39655 3.47055 0
M  V30 13859 H 1341.94 1.81915 4.57349 0
M  V30 13860 N 1343.59 -1.35528 0.804364 0
M  V30 13861 C 1344.52 -2.28562 0.170893 0
M  V30 13862 C 1345.54 -1.50178 -0.628526 0
M  V30 13863 O 1346.73 -1.72438 -0.461252 0
M  V30 13864 C 1343.83 -3.29792 -0.780434 0
M  V30 13865 C 1343 -4.37391 -0.0278619 0
M  V30 13866 C 1342.06 -5.18492 -0.897341 0
M  V30 13867 O 1341.08 -5.68128 -0.349098 0
M  V30 13868 N 1342.29 -5.36385 -2.21971 0
M  V30 13869 H 1345.05 -2.83565 0.970108 0
M  V30 13870 H 1342.61 -1.47854 0.659617 0
M  V30 13871 H 1344.6 -3.80939 -1.36628 0
M  V30 13872 H 1343.17 -2.7532 -1.48046 0
M  V30 13873 H 1342.39 -3.87208 0.739178 0
M  V30 13874 H 1343.68 -5.06426 0.490889 0
M  V30 13875 H 1343.08 -4.97699 -2.6891 0
M  V30 13876 H 1341.64 -5.90721 -2.75485 0
M  V30 13877 N 1345.07 -0.557671 -1.47404 0
M  V30 13878 C 1346.48 -0.124411 -1.86285 0
M  V30 13879 C 1346.83 1.30593 -1.46424 0
M  V30 13880 O 1345.96 1.9825 -0.867515 0
M  V30 13881 C 1346.55 -0.219005 -3.38091 0
M  V30 13882 C 1345.11 0.159221 -3.76063 0
M  V30 13883 C 1344.26 -0.566355 -2.71455 0
M  V30 13884 H 1347.21 -0.767367 -1.38914 0
M  V30 13885 H 1347.23 0.562267 -3.76323 0
M  V30 13886 H 1346.74 -1.26013 -3.67073 0
M  V30 13887 H 1344.84 1.20144 -3.52698 0
M  V30 13888 H 1344.96 -0.199662 -4.78684 0
M  V30 13889 H 1343.32 -0.00938921 -2.54698 0
M  V30 13890 H 1344.1 -1.60865 -3.03278 0
M  V30 13891 N 1346.55 1.54831 -0.294147 0
M  V30 13892 C 1347.8 1.99606 0.316509 0
M  V30 13893 C 1348.12 1.18405 1.54936 0
M  V30 13894 O 1347.39 0.278289 1.93913 0
M  V30 13895 H 1345.97 0.737309 0.119938 0
M  V30 13896 H 1348.63 1.90669 -0.403891 0
M  V30 13897 H 1347.73 3.06409 0.593282 0
M  V30 13898 N 1348.03 0.0217466 1.57585 0
M  V30 13899 C 1349.27 -0.653715 1.92609 0
M  V30 13900 C 1349.63 -1.70158 0.897998 0
M  V30 13901 O 1348.92 -1.91403 -0.0869654 0
M  V30 13902 C 1349.12 -1.3197 3.32143 0
M  V30 13903 C 1348.94 -0.33786 4.48429 0
M  V30 13904 C 1347.71 0.0596192 5.05265 0
M  V30 13905 C 1349.91 0.404844 5.12704 0
M  V30 13906 N 1347.89 1.03739 6.05071 0
M  V30 13907 C 1349.27 1.2366 6.07543 0
M  V30 13908 C 1351.32 0.466341 4.95711 0
M  V30 13909 C 1350.02 2.1243 6.87216 0
M  V30 13910 C 1352.05 1.34134 5.75988 0
M  V30 13911 C 1351.41 2.1609 6.70436 0
M  V30 13912 H 1347.51 -0.211748 0.752786 0
M  V30 13913 H 1350.09 0.0871946 1.94505 0
M  V30 13914 H 1348.27 -2.03078 3.3108 0
M  V30 13915 H 1350 -1.95159 3.54535 0
M  V30 13916 H 1346.75 -0.313299 4.72563 0
M  V30 13917 H 1347.18 1.5223 6.59663 0
M  V30 13918 H 1351.82 -0.153024 4.22523 0
M  V30 13919 H 1349.54 2.75424 7.59715 0
M  V30 13920 H 1353.12 1.39312 5.64875 0
M  V30 13921 H 1352 2.82701 7.31471 0
M  V30 13922 N 1349.51 -1.55583 -0.251311 0
M  V30 13923 C 1350.92 -1.67693 -0.820719 0
M  V30 13924 C 1351.27 -0.618393 -1.862 0
M  V30 13925 O 1350.39 0.236158 -2.15108 0
M  V30 13926 C 1350.99 -3.04011 -1.49542 0
M  V30 13927 C 1349.55 -3.18075 -2.01259 0
M  V30 13928 C 1348.69 -2.63557 -0.862138 0
M  V30 13929 H 1351.64 -1.58677 -0.0272072 0
M  V30 13930 H 1351.67 -2.9821 -2.36328 0
M  V30 13931 H 1351.18 -3.81032 -0.737323 0
M  V30 13932 H 1349.28 -2.45869 -2.79963 0
M  V30 13933 H 1349.39 -4.24927 -2.213 0
M  V30 13934 H 1347.76 -2.21268 -1.26145 0
M  V30 13935 H 1348.54 -3.431 -0.117196 0
M  V30 13936 N 1350.98 0.516783 -1.48886 0
M  V30 13937 C 1352.21 1.30103 -1.61518 0
M  V30 13938 C 1352.63 1.85996 -0.28055 0
M  V30 13939 O 1351.99 1.65075 0.749671 0
M  V30 13940 C 1352.04 2.41837 -2.67483 0
M  V30 13941 O 1351.14 3.45249 -2.25559 0
M  V30 13942 H 1350.48 0.384774 -0.541152 0
M  V30 13943 H 1353.01 0.620424 -1.94966 0
M  V30 13944 H 1353.02 2.87832 -2.89165 0
M  V30 13945 H 1351.7 2.00519 -3.64369 0
M  V30 13946 H 1350.28 3.05281 -2.14144 0
M  V30 13947 N 1352.46 1.37696 0.766659 0
M  V30 13948 C 1353.87 1.29668 1.34324 0
M  V30 13949 C 1354.22 -0.0534297 1.96127 0
M  V30 13950 O 1353.35 -0.95534 1.94171 0
M  V30 13951 C 1353.94 2.34818 2.44225 0
M  V30 13952 C 1352.5 2.3041 2.97638 0
M  V30 13953 C 1351.65 2.18378 1.70899 0
M  V30 13954 H 1354.6 1.48244 0.566526 0
M  V30 13955 H 1354.62 1.99778 3.23835 0
M  V30 13956 H 1354.13 3.3307 1.99214 0
M  V30 13957 H 1352.23 1.35698 3.47011 0
M  V30 13958 H 1352.35 3.24028 3.52906 0
M  V30 13959 H 1350.71 1.65008 1.94021 0
M  V30 13960 H 1351.49 3.18551 1.27985 0
M  V30 13961 N 1353.94 -0.993397 1.22349 0
M  V30 13962 C 1354.9 -2.065 0.994506 0
M  V30 13963 C 1355.9 -1.60753 -0.0388766 0
M  V30 13964 O 1357.09 -1.73053 0.199578 0
M  V30 13965 C 1354.22 -3.37182 0.502088 0
M  V30 13966 H 1355.42 -2.28248 1.94533 0
M  V30 13967 H 1352.97 -1.16489 1.04211 0
M  V30 13968 H 1353.71 -3.21119 -0.453114 0
M  V30 13969 H 1353.49 -3.71721 1.24763 0
M  V30 13970 H 1354.98 -4.16027 0.362108 0
M  V30 13971 N 1355.42 -1.03311 -1.19015 0
M  V30 13972 C 1356.36 -0.617567 -2.22384 0
M  V30 13973 C 1357.33 0.370779 -1.61909 0
M  V30 13974 O 1358.52 0.266481 -1.8893 0
M  V30 13975 C 1355.66 0.0211303 -3.45094 0
M  V30 13976 C 1354.77 -1.01377 -4.19937 0
M  V30 13977 C 1353.91 -0.344385 -5.30082 0
M  V30 13978 C 1352.95 -1.3649 -5.96688 0
M  V30 13979 N 1352.08 -0.721026 -6.98388 0
M  V30 13980 H 1356.92 -1.5036 -2.57286 0
M  V30 13981 H 1354.46 -0.75235 -1.26405 0
M  V30 13982 H 1356.42 0.408713 -4.15193 0
M  V30 13983 H 1355.05 0.870721 -3.10835 0
M  V30 13984 H 1354.1 -1.51937 -3.4874 0
M  V30 13985 H 1355.41 -1.78921 -4.65606 0
M  V30 13986 H 1354.57 0.097814 -6.06621 0
M  V30 13987 H 1353.31 0.463216 -4.85495 0
M  V30 13988 H 1352.31 -1.81732 -5.18897 0
M  V30 13989 H 1353.54 -2.17407 -6.43359 0
M  V30 13990 H 1351.48 0.0664057 -6.55966 0
M  V30 13991 H 1351.4 -1.43428 -7.4227 0
M  V30 13992 H 1352.67 -0.30297 -7.78911 0
M  V30 13993 N 1356.9 1.35099 -0.81154 0
M  V30 13994 C 1357.86 2.28033 -0.230947 0
M  V30 13995 C 1358.86 1.49798 0.584575 0
M  V30 13996 O 1360.05 1.6949 0.402336 0
M  V30 13997 C 1357.18 3.341 0.677486 0
M  V30 13998 H 1358.37 2.80893 -1.05067 0
M  V30 13999 H 1355.93 1.45038 -0.582554 0
M  V30 14000 H 1356.66 2.86435 1.5207 0
M  V30 14001 H 1356.45 3.91986 0.0943563 0
M  V30 14002 H 1357.94 4.0345 1.07787 0
M  V30 14003 N 1358.37 0.56548 1.47106 0
M  V30 14004 C 1359.34 -0.167191 2.28589 0
M  V30 14005 C 1360.34 -0.835005 1.3742 0
M  V30 14006 O 1361.53 -0.689598 1.59969 0
M  V30 14007 C 1358.66 -1.24548 3.17333 0
M  V30 14008 H 1359.85 0.548677 2.94838 0
M  V30 14009 H 1357.4 0.322749 1.52931 0
M  V30 14010 H 1358.14 -1.99348 2.55794 0
M  V30 14011 H 1357.92 -0.771335 3.84438 0
M  V30 14012 H 1359.41 -1.75985 3.78707 0
M  V30 14013 N 1359.85 -1.54672 0.302354 0
M  V30 14014 C 1361.26 -1.85731 -0.190019 0
M  V30 14015 C 1361.61 -1.22427 -1.53317 0
M  V30 14016 O 1360.74 -0.522461 -2.09998 0
M  V30 14017 C 1361.33 -3.36971 -0.351562 0
M  V30 14018 C 1359.89 -3.68056 -0.788155 0
M  V30 14019 C 1359.04 -2.7711 0.102705 0
M  V30 14020 H 1361.99 -1.49823 0.523324 0
M  V30 14021 H 1362.01 -3.61547 -1.18592 0
M  V30 14022 H 1361.52 -3.83016 0.626152 0
M  V30 14023 H 1359.63 -3.2753 -1.77637 0
M  V30 14024 H 1359.74 -4.75244 -0.606604 0
M  V30 14025 H 1358.1 -2.51243 -0.418235 0
M  V30 14026 H 1358.89 -3.25975 1.0768 0
M  V30 14027 N 1361.33 -0.0301034 -1.57571 0
M  V30 14028 C 1362.58 0.649283 -1.92125 0
M  V30 14029 C 1362.91 1.71722 -0.90692 0
M  V30 14030 O 1362.18 1.94373 0.0702019 0
M  V30 14031 C 1362.47 1.26482 -3.37156 0
M  V30 14032 C 1362.32 0.206375 -4.49326 0
M  V30 14033 C 1363.64 2.18256 -3.82168 0
M  V30 14034 H 1360.76 0.234561 -0.698678 0
M  V30 14035 H 1363.4 -0.0875634 -1.89798 0
M  V30 14036 H 1361.55 1.89283 -3.3927 0
M  V30 14037 H 1363.22 -0.424268 -4.59345 0
M  V30 14038 H 1361.47 -0.468035 -4.31268 0
M  V30 14039 H 1362.14 0.676689 -5.47837 0
M  V30 14040 H 1364.61 1.65441 -3.81797 0
M  V30 14041 H 1363.49 2.58277 -4.84339 0
M  V30 14042 H 1363.75 3.07411 -3.17727 0
M  V30 14043 N 1362.81 1.55714 0.243056 0
M  V30 14044 C 1363.74 1.93655 1.30461 0
M  V30 14045 C 1364.72 0.801968 1.50008 0
M  V30 14046 O 1365.9 1.06256 1.62552 0
M  V30 14047 C 1363.03 2.23459 2.65863 0
M  V30 14048 C 1361.99 3.39205 2.61006 0
M  V30 14049 C 1361.31 3.5456 4.00239 0
M  V30 14050 C 1362.61 4.74787 2.17656 0
M  V30 14051 H 1364.31 2.82575 0.98954 0
M  V30 14052 H 1361.85 1.35955 0.474572 0
M  V30 14053 H 1363.81 2.48591 3.40266 0
M  V30 14054 H 1362.53 1.31369 2.99014 0
M  V30 14055 H 1361.19 3.14088 1.89061 0
M  V30 14056 H 1360.84 2.59884 4.30661 0
M  V30 14057 H 1360.54 4.32399 3.97876 0
M  V30 14058 H 1362.06 3.82017 4.76335 0
M  V30 14059 H 1363.48 4.99266 2.81792 0
M  V30 14060 H 1361.87 5.55756 2.26397 0
M  V30 14061 H 1362.94 4.7159 1.12831 0
M  V30 14062 N 1364.29 -0.50888 1.49158 0
M  V30 14063 C 1365.7 -1.09054 1.51539 0
M  V30 14064 C 1366.05 -1.93938 0.297099 0
M  V30 14065 O 1365.17 -2.08092 -0.593849 0
M  V30 14066 C 1365.77 -1.98447 2.74599 0
M  V30 14067 C 1364.33 -2.5179 2.79783 0
M  V30 14068 C 1363.47 -1.29227 2.45348 0
M  V30 14069 H 1366.43 -0.293148 1.55969 0
M  V30 14070 H 1366.45 -2.83028 2.54314 0
M  V30 14071 H 1365.96 -1.3664 3.63251 0
M  V30 14072 H 1364.06 -3.17258 1.95392 0
M  V30 14073 H 1364.17 -2.89481 3.81756 0
M  V30 14074 H 1362.54 -1.61494 1.96957 0
M  V30 14075 H 1363.32 -0.6914 3.36266 0
M  V30 14076 N 1365.76 -1.381 -0.759346 0
M  V30 14077 C 1366.99 -1.37213 -1.54855 0
M  V30 14078 C 1367.41 0.0395175 -1.88759 0
M  V30 14079 O 1366.76 1.00462 -1.5236 0
M  V30 14080 C 1366.82 -2.22232 -2.85123 0
M  V30 14081 O 1366.54 -3.57897 -2.52668 0
M  V30 14082 C 1368.04 -2.29461 -3.79292 0
M  V30 14083 H 1365.26 -0.469542 -0.479345 0
M  V30 14084 H 1367.8 -1.81604 -0.940216 0
M  V30 14085 H 1365.96 -1.81317 -3.42349 0
M  V30 14086 H 1366.37 -4.02599 -3.36176 0
M  V30 14087 H 1367.84 -2.93246 -4.67665 0
M  V30 14088 H 1368.32 -1.3066 -4.19315 0
M  V30 14089 H 1368.93 -2.70741 -3.27993 0
M  V30 14090 N 1367.24 0.986894 -1.22875 0
M  V30 14091 C 1368.47 1.76266 -1.08342 0
M  V30 14092 C 1368.89 1.85226 0.365602 0
M  V30 14093 O 1368.24 1.32675 1.25314 0
M  V30 14094 C 1368.29 3.19282 -1.69533 0
M  V30 14095 O 1368.01 3.10796 -3.08768 0
M  V30 14096 C 1369.52 4.13281 -1.60355 0
M  V30 14097 H 1366.74 0.553374 -0.379497 0
M  V30 14098 H 1369.28 1.24033 -1.62592 0
M  V30 14099 H 1367.43 3.68563 -1.19332 0
M  V30 14100 H 1367.85 4.0078 -3.38343 0
M  V30 14101 H 1369.32 5.11359 -2.07884 0
M  V30 14102 H 1369.8 4.356 -0.561182 0
M  V30 14103 H 1370.41 3.699 -2.09891 0
M  V30 14104 N 1368.72 1.0394 1.18466 0
M  V30 14105 C 1369.67 0.59975 2.1997 0
M  V30 14106 C 1370.65 -0.357127 1.56887 0
M  V30 14107 O 1371.85 -0.176388 1.76119 0
M  V30 14108 C 1368.98 -0.0371434 3.4328 0
M  V30 14109 C 1368.06 0.942805 4.13488 0
M  V30 14110 N 1368.45 2.10936 4.59717 0
M  V30 14111 C 1366.75 0.768529 4.39329 0
M  V30 14112 C 1367.45 2.72829 5.1375 0
M  V30 14113 N 1366.43 2.00713 5.05188 0
M  V30 14114 H 1370.23 1.48875 2.53403 0
M  V30 14115 H 1367.74 0.907817 1.34657 0
M  V30 14116 H 1369.74 -0.369803 4.15257 0
M  V30 14117 H 1368.4 -0.921701 3.11343 0
M  V30 14118 H 1369.41 2.48831 4.54207 0
M  V30 14119 H 1366.09 -0.0660446 4.17448 0
M  V30 14120 H 1367.48 3.71684 5.59733 0
M  V30 14121 N 1370.2 -1.34667 0.818693 0
M  V30 14122 C 1371.15 -2.31501 0.225816 0
M  V30 14123 C 1372.14 -1.57205 -0.631112 0
M  V30 14124 O 1373.35 -1.72237 -0.522924 0
M  V30 14125 H 1369.72 -0.750039 0.0542747 0
M  V30 14126 H 1371.69 -2.79036 1.05743 0
M  V30 14127 C 1370.44 -3.42464 -0.60114 0
M  V30 14128 H 1369.76 -3.9977 0.0489207 0
M  V30 14129 H 1371.2 -4.12468 -0.982154 0
M  V30 14130 C 1369.66 -2.86551 -1.77173 0
M  V30 14131 O 1370.19 -2.81085 -2.86974 0
M  V30 14132 N 1368.4 -2.43432 -1.58712 0
M  V30 14133 H 1367.95 -2.48077 -0.693958 0
M  V30 14134 H 1367.9 -2.06371 -2.37188 0
M  V30 14135 N 1371.68 -0.573274 -1.46804 0
M  V30 14136 C 1372.63 0.186085 -2.27239 0
M  V30 14137 C 1373.61 0.870579 -1.35313 0
M  V30 14138 O 1374.8 0.766233 -1.59555 0
M  V30 14139 C 1371.93 1.2052 -3.21449 0
M  V30 14140 C 1371.02 0.523305 -4.20859 0
M  V30 14141 N 1371.41 -0.415768 -5.04088 0
M  V30 14142 C 1369.71 0.775236 -4.39211 0
M  V30 14143 C 1370.41 -0.81341 -5.75985 0
M  V30 14144 N 1369.38 -0.164647 -5.43351 0
M  V30 14145 H 1373.19 -0.535687 -2.88977 0
M  V30 14146 H 1370.7 -0.394373 -1.57539 0
M  V30 14147 H 1372.7 1.76331 -3.77774 0
M  V30 14148 H 1371.36 1.9279 -2.61271 0
M  V30 14149 H 1372.37 -0.790798 -5.11827 0
M  V30 14150 H 1369.04 1.48522 -3.90189 0
M  V30 14151 H 1370.43 -1.58598 -6.52914 0
M  V30 14152 N 1373.15 1.5451 -0.310553 0
M  V30 14153 C 1374.1 2.23871 0.561277 0
M  V30 14154 C 1375.07 1.22475 1.12202 0
M  V30 14155 O 1376.26 1.51121 1.16477 0
M  V30 14156 C 1373.4 2.99029 1.72267 0
M  V30 14157 C 1372.51 4.15218 1.19241 0
M  V30 14158 C 1371.64 4.77935 2.31843 0
M  V30 14159 C 1370.68 5.86251 1.75999 0
M  V30 14160 N 1369.82 6.42885 2.82212 0
M  V30 14161 H 1374.66 2.97977 -0.0367998 0
M  V30 14162 H 1372.2 1.4707 -0.0299317 0
M  V30 14163 H 1374.16 3.40842 2.40588 0
M  V30 14164 H 1372.79 2.27281 2.29223 0
M  V30 14165 H 1371.84 3.78279 0.401148 0
M  V30 14166 H 1373.15 4.93225 0.743675 0
M  V30 14167 H 1372.3 5.2265 3.08094 0
M  V30 14168 H 1371.04 3.99281 2.80047 0
M  V30 14169 H 1370.05 5.40952 0.982415 0
M  V30 14170 H 1371.27 6.66795 1.28688 0
M  V30 14171 H 1369.22 5.67109 3.29732 0
M  V30 14172 H 1369.14 7.16267 2.41864 0
M  V30 14173 H 1370.4 6.92256 3.58332 0
M  V30 14174 N 1374.63 0.0384594 1.57553 0
M  V30 14175 C 1375.88 -0.639085 1.92467 0
M  V30 14176 C 1376.21 -1.71239 0.916014 0
M  V30 14177 O 1375.49 -1.94408 -0.0598928 0
M  V30 14178 C 1375.77 -1.24693 3.37822 0
M  V30 14179 C 1375.62 -0.182544 4.49429 0
M  V30 14180 C 1376.94 -2.16226 3.8332 0
M  V30 14181 H 1374.06 -0.230852 0.699912 0
M  V30 14182 H 1376.7 0.0976276 1.89749 0
M  V30 14183 H 1374.85 -1.87481 3.40269 0
M  V30 14184 H 1376.53 0.448622 4.59113 0
M  V30 14185 H 1374.77 0.4909 4.31013 0
M  V30 14186 H 1375.44 -0.647626 5.48188 0
M  V30 14187 H 1377.92 -1.63413 3.82669 0
M  V30 14188 H 1376.79 -2.55705 4.85702 0
M  V30 14189 H 1377.05 -3.05722 3.19353 0
M  V30 14190 N 1376.11 -1.55841 -0.234795 0
M  V30 14191 C 1377.52 -1.68555 -0.802886 0
M  V30 14192 C 1377.87 -0.638107 -1.85533 0
M  V30 14193 O 1377 0.21333 -2.15346 0
M  V30 14194 C 1377.59 -3.0558 -1.46309 0
M  V30 14195 C 1376.15 -3.20192 -1.97874 0
M  V30 14196 C 1375.3 -2.64457 -0.834136 0
M  V30 14197 H 1378.25 -1.58697 -0.0103759 0
M  V30 14198 H 1378.27 -3.007 -2.33152 0
M  V30 14199 H 1377.78 -3.81792 -0.696868 0
M  V30 14200 H 1375.88 -2.48825 -2.77339 0
M  V30 14201 H 1376 -4.27251 -2.1678 0
M  V30 14202 H 1374.36 -2.22593 -1.23791 0
M  V30 14203 H 1375.14 -3.43205 -0.0807988 0
M  V30 14204 N 1377.59 0.500963 -1.49426 0
M  V30 14205 C 1378.84 1.25694 -1.5915 0
M  V30 14206 C 1379.17 1.92209 -0.277365 0
M  V30 14207 O 1378.44 1.8072 0.719065 0
M  V30 14208 C 1378.73 2.32391 -2.75076 0
M  V30 14209 C 1378.58 1.70377 -4.16283 0
M  V30 14210 C 1379.9 3.33952 -2.86643 0
M  V30 14211 H 1377.02 0.455631 -0.579283 0
M  V30 14212 H 1379.66 0.555099 -1.8171 0
M  V30 14213 H 1377.81 2.92252 -2.55971 0
M  V30 14214 H 1379.48 1.14343 -4.46904 0
M  V30 14215 H 1377.72 1.00789 -4.21929 0
M  V30 14216 H 1378.4 2.47767 -4.9327 0
M  V30 14217 H 1380.87 2.84081 -3.04035 0
M  V30 14218 H 1379.75 4.05969 -3.69433 0
M  V30 14219 H 1380.01 3.96279 -1.95998 0
M  V30 14220 N 1379.07 1.38501 0.752011 0
M  V30 14221 C 1380 1.38577 1.87933 0
M  V30 14222 C 1380.98 0.251454 1.68231 0
M  V30 14223 O 1382.16 0.45477 1.888 0
M  V30 14224 C 1379.29 1.21164 3.25479 0
M  V30 14225 C 1378.25 2.31816 3.59785 0
M  V30 14226 C 1377.57 1.99508 4.96085 0
M  V30 14227 C 1378.87 3.74082 3.645 0
M  V30 14228 H 1380.57 2.32913 1.88127 0
M  V30 14229 H 1378.11 1.12113 0.903698 0
M  V30 14230 H 1380.07 1.19842 4.04 0
M  V30 14231 H 1378.79 0.232899 3.25769 0
M  V30 14232 H 1377.45 2.32327 2.83584 0
M  V30 14233 H 1377.1 1.00114 4.92936 0
M  V30 14234 H 1376.8 2.73617 5.20007 0
M  V30 14235 H 1378.32 1.99807 5.76983 0
M  V30 14236 H 1379.74 3.75593 4.33131 0
M  V30 14237 H 1378.13 4.47409 3.99931 0
M  V30 14238 H 1379.2 4.06284 2.64692 0
M  V30 14239 N 1380.55 -0.980364 1.23396 0
M  V30 14240 C 1381.79 -1.71592 1.06015 0
M  V30 14241 C 1382.11 -1.91401 -0.403103 0
M  V30 14242 O 1383.31 -2.62405 -0.696853 0
M  V30 14243 C 1381.77 -3.08795 1.84861 0
M  V30 14244 C 1381.38 -2.96873 3.35515 0
M  V30 14245 C 1383.12 -3.8631 1.75968 0
M  V30 14246 C 1381.03 -4.29308 4.06753 0
M  V30 14247 H 1379.96 -0.643423 0.393095 0
M  V30 14248 H 1382.61 -1.09345 1.47363 0
M  V30 14249 H 1380.99 -3.71797 1.36318 0
M  V30 14250 H 1382.17 -2.4296 3.91544 0
M  V30 14251 H 1380.48 -2.32833 3.45221 0
M  V30 14252 H 1383.08 -4.84355 2.26504 0
M  V30 14253 H 1383.42 -4.09983 0.722464 0
M  V30 14254 H 1383.95 -3.3001 2.22122 0
M  V30 14255 H 1380.69 -4.10831 5.10782 0
M  V30 14256 H 1380.21 -4.83086 3.55511 0
M  V30 14257 H 1381.89 -4.97995 4.1305 0
M  V30 14258 N 1382.02 -1.04567 -1.17913 0
M  V30 14259 C 1383.25 -0.772146 -1.92491 0
M  V30 14260 C 1383.67 0.665297 -1.75942 0
M  V30 14261 O 1383.03 1.46144 -1.07292 0
M  V30 14262 C 1383.08 -1.14966 -3.41782 0
M  V30 14263 O 1382.18 -0.278091 -4.11461 0
M  V30 14264 H 1381.52 -0.283715 -0.600335 0
M  V30 14265 H 1384.05 -1.39685 -1.49496 0
M  V30 14266 H 1384.06 -1.11374 -3.92505 0
M  V30 14267 H 1382.74 -2.1968 -3.53148 0
M  V30 14268 H 1381.32 -0.374073 -3.71019 0
M  V30 14269 N 1383.5 1.34231 -0.825823 0
M  V30 14270 C 1384.91 1.8059 -0.473724 0
M  V30 14271 C 1385.26 1.68438 1.00614 0
M  V30 14272 O 1384.39 1.22606 1.78317 0
M  V30 14273 C 1384.98 3.27884 -0.853099 0
M  V30 14274 C 1383.54 3.72311 -0.553327 0
M  V30 14275 C 1382.69 2.55889 -1.06845 0
M  V30 14276 H 1385.64 1.21937 -1.01573 0
M  V30 14277 H 1385.66 3.80172 -0.158014 0
M  V30 14278 H 1385.17 3.36696 -1.93021 0
M  V30 14279 H 1383.27 3.69034 0.514256 0
M  V30 14280 H 1383.39 4.66315 -1.09942 0
M  V30 14281 H 1381.75 2.49945 -0.489874 0
M  V30 14282 H 1382.53 2.67471 -2.15207 0
M  V30 14283 N 1384.98 0.581051 1.46498 0
M  V30 14284 C 1386.21 0.0715652 2.06776 0
M  V30 14285 C 1386.62 -1.23267 1.43006 0
M  V30 14286 O 1385.98 -1.74489 0.534776 0
M  V30 14287 C 1386.03 -0.102666 3.61354 0
M  V30 14288 O 1385.75 1.14995 4.22739 0
M  V30 14289 C 1387.25 -0.646692 4.38558 0
M  V30 14290 H 1384.47 0.0566964 0.6686 0
M  V30 14291 H 1387.02 0.801248 1.8815 0
M  V30 14292 H 1385.17 -0.782564 3.79414 0
M  V30 14293 H 1385.59 0.962718 5.15589 0
M  V30 14294 H 1387.06 -0.717791 5.47313 0
M  V30 14295 H 1387.54 -1.6633 4.06486 0
M  V30 14296 H 1388.14 -0.00171739 4.253 0
M  V30 14297 N 1386.46 -1.54343 0.318742 0
M  V30 14298 C 1387.39 -2.27118 -0.542206 0
M  V30 14299 C 1388.37 -1.27731 -1.12334 0
M  V30 14300 O 1389.55 -1.56535 -1.14937 0
M  V30 14301 C 1386.68 -3.02535 -1.70558 0
M  V30 14302 C 1385.64 -4.09218 -1.25398 0
M  V30 14303 C 1384.96 -4.72449 -2.50391 0
M  V30 14304 C 1386.26 -5.20971 -0.372332 0
M  V30 14305 H 1387.96 -2.9933 0.0648226 0
M  V30 14306 H 1385.5 -1.43963 0.0326168 0
M  V30 14307 H 1387.46 -3.52174 -2.31412 0
M  V30 14308 H 1386.18 -2.27931 -2.33912 0
M  V30 14309 H 1384.84 -3.60455 -0.668392 0
M  V30 14310 H 1384.49 -3.94466 -3.12099 0
M  V30 14311 H 1384.19 -5.4451 -2.20868 0
M  V30 14312 H 1385.71 -5.2486 -3.12016 0
M  V30 14313 H 1387.13 -5.66396 -0.887029 0
M  V30 14314 H 1385.52 -5.99859 -0.17009 0
M  V30 14315 H 1386.59 -4.81198 0.598064 0
M  V30 14316 N 1387.94 -0.0468143 -1.5753 0
M  V30 14317 C 1388.88 0.929065 -2.11275 0
M  V30 14318 C 1389.85 1.31166 -1.01905 0
M  V30 14319 O 1391.04 1.40189 -1.29428 0
M  V30 14320 C 1388.18 2.20012 -2.65873 0
M  V30 14321 C 1387.29 1.8724 -3.89314 0
M  V30 14322 C 1386.43 3.08772 -4.32242 0
M  V30 14323 C 1385.46 2.719 -5.48395 0
M  V30 14324 N 1384.6 3.86112 -5.86397 0
M  V30 14325 H 1389.44 0.463854 -2.94368 0
M  V30 14326 H 1386.98 0.217338 -1.45486 0
M  V30 14327 H 1388.94 2.94383 -2.95626 0
M  V30 14328 H 1387.57 2.64118 -1.85584 0
M  V30 14329 H 1386.62 1.03037 -3.6618 0
M  V30 14330 H 1387.93 1.56096 -4.73746 0
M  V30 14331 H 1387.08 3.91446 -4.63525 0
M  V30 14332 H 1385.82 3.4309 -3.46613 0
M  V30 14333 H 1384.83 1.87642 -5.16789 0
M  V30 14334 H 1386.05 2.38779 -6.35737 0
M  V30 14335 H 1384 4.2024 -5.03721 0
M  V30 14336 H 1383.92 3.58652 -6.65511 0
M  V30 14337 H 1385.18 4.69438 -6.22293 0
M  V30 14338 N 1389.41 1.55964 0.226527 0
M  V30 14339 C 1390.36 1.88403 1.28406 0
M  V30 14340 C 1391.35 0.746656 1.42527 0
M  V30 14341 O 1392.54 1.00898 1.45425 0
M  V30 14342 C 1389.67 2.19992 2.63549 0
M  V30 14343 C 1388.76 3.40109 2.5335 0
M  V30 14344 N 1389.15 4.58858 2.12798 0
M  V30 14345 C 1387.44 3.43625 2.8432 0
M  V30 14346 C 1388.15 5.41013 2.13729 0
M  V30 14347 N 1387.12 4.80596 2.54025 0
M  V30 14348 H 1390.92 2.77732 0.961352 0
M  V30 14349 H 1388.44 1.56463 0.435104 0
M  V30 14350 H 1390.43 2.41405 3.39896 0
M  V30 14351 H 1389.09 1.31973 2.9667 0
M  V30 14352 H 1390.11 4.84108 1.8401 0
M  V30 14353 H 1386.78 2.65935 3.21846 0
M  V30 14354 H 1388.17 6.4606 1.84543 0
M  V30 14355 N 1390.89 -0.493031 1.4969 0
M  V30 14356 C 1392.12 -1.27046 1.633 0
M  V30 14357 C 1392.54 -1.86278 0.307534 0
M  V30 14358 O 1391.89 -1.68208 -0.707968 0
M  V30 14359 C 1391.94 -2.39501 2.70779 0
M  V30 14360 O 1391.66 -1.82702 3.98185 0
M  V30 14361 C 1393.17 -3.30744 2.95166 0
M  V30 14362 H 1390.39 -0.385042 0.54953 0
M  V30 14363 H 1392.93 -0.590998 1.95774 0
M  V30 14364 H 1391.08 -3.03263 2.41061 0
M  V30 14365 H 1391.5 -2.56588 4.57452 0
M  V30 14366 H 1392.97 -4.05912 3.74085 0
M  V30 14367 H 1393.45 -3.88217 2.05387 0
M  V30 14368 H 1394.06 -2.72741 3.26332 0
M  V30 14369 N 1392.37 -1.38898 -0.744656 0
M  V30 14370 C 1393.78 -1.31789 -1.32244 0
M  V30 14371 C 1394.13 0.0222208 -1.96187 0
M  V30 14372 O 1393.26 0.924328 -1.95666 0
M  V30 14373 C 1393.85 -2.38674 -2.40458 0
M  V30 14374 C 1392.41 -2.35116 -2.93935 0
M  V30 14375 C 1391.56 -2.21069 -1.67403 0
M  V30 14376 H 1394.51 -1.49126 -0.54287 0
M  V30 14377 H 1394.53 -2.04905 -3.20615 0
M  V30 14378 H 1394.04 -3.36197 -1.9389 0
M  V30 14379 H 1392.14 -1.41201 -3.44809 0
M  V30 14380 H 1392.26 -3.29602 -3.47706 0
M  V30 14381 H 1390.62 -1.68074 -1.91372 0
M  V30 14382 H 1391.4 -3.20547 -1.229 0
M  V30 14383 N 1393.85 0.973806 -1.23914 0
M  V30 14384 C 1394.81 2.04892 -1.02723 0
M  V30 14385 C 1395.81 1.60795 0.0132972 0
M  V30 14386 O 1397 1.72714 -0.227084 0
M  V30 14387 C 1394.13 3.36341 -0.555667 0
M  V30 14388 H 1395.33 2.25124 -1.98139 0
M  V30 14389 H 1392.88 1.14817 -1.06051 0
M  V30 14390 H 1393.61 3.21799 0.40197 0
M  V30 14391 H 1393.4 3.69689 -1.30661 0
M  V30 14392 H 1394.89 4.15398 -0.428248 0
M  V30 14393 N 1395.33 1.05191 1.17357 0
M  V30 14394 C 1396.6 0.675826 1.83554 0
M  V30 14395 C 1396.98 -0.843812 1.93502 0
M  V30 14396 O 1396.33 -1.74975 1.46956 0
M  V30 14397 C 1396.54 1.36481 3.21207 0
M  V30 14398 C 1397.89 1.50285 3.97114 0
M  V30 14399 O 1398.91 1.32382 3.30686 0
M  V30 14400 O 1397.77 1.79562 5.16159 0
M  V30 14401 H 1394.87 0.237898 0.792044 0
M  V30 14402 H 1397.41 1.1515 1.24654 0
M  V30 14403 H 1396.18 2.40156 3.08935 0
M  V30 14404 H 1395.81 0.878491 3.87774 0
M  V30 14405 N 1396.8 -1.33791 0.83293 0
M  V30 14406 C 1398.05 -1.98266 0.426412 0
M  V30 14407 C 1398.38 -1.65848 -1.01035 0
M  V30 14408 O 1397.66 -0.93528 -1.70537 0
M  V30 14409 C 1397.94 -3.54356 0.640586 0
M  V30 14410 C 1397.79 -3.96482 2.12419 0
M  V30 14411 C 1399.11 -4.40022 0.0829237 0
M  V30 14412 H 1396.23 -0.720213 0.156404 0
M  V30 14413 H 1398.87 -1.58527 1.04735 0
M  V30 14414 H 1397.02 -3.88338 0.11204 0
M  V30 14415 H 1398.7 -3.72786 2.71714 0
M  V30 14416 H 1396.94 -3.46429 2.61092 0
M  V30 14417 H 1397.61 -5.05179 2.22482 0
M  V30 14418 H 1400.09 -4.12651 0.534634 0
M  V30 14419 H 1398.96 -5.48272 0.262511 0
M  V30 14420 H 1399.22 -4.30341 -1.01287 0
M  V30 14421 N 1398.28 -0.588812 -1.46187 0
M  V30 14422 C 1399.21 0.178825 -2.28501 0
M  V30 14423 C 1400.23 0.849686 -1.38867 0
M  V30 14424 O 1401.42 0.718224 -1.63413 0
M  V30 14425 C 1398.52 1.27309 -3.14079 0
M  V30 14426 C 1397.69 0.692974 -4.31876 0
M  V30 14427 C 1396.75 1.67572 -4.98805 0
M  V30 14428 O 1395.77 1.20937 -5.56204 0
M  V30 14429 N 1396.98 3.00992 -4.96371 0
M  V30 14430 H 1399.74 -0.527407 -2.95023 0
M  V30 14431 H 1397.3 -0.426998 -1.56168 0
M  V30 14432 H 1399.29 1.92993 -3.55719 0
M  V30 14433 H 1397.86 1.88209 -2.49592 0
M  V30 14434 H 1397.08 -0.141485 -3.93946 0
M  V30 14435 H 1398.37 0.28529 -5.08 0
M  V30 14436 H 1397.77 3.41498 -4.50994 0
M  V30 14437 H 1396.33 3.62149 -5.41933 0
M  V30 14438 N 1399.76 1.54172 -0.326923 0
M  V30 14439 C 1400.69 2.27402 0.530154 0
M  V30 14440 C 1401.67 1.28325 1.11655 0
M  V30 14441 O 1402.86 1.57142 1.14105 0
M  V30 14442 C 1399.99 3.03435 1.68951 0
M  V30 14443 C 1398.94 4.09877 1.23226 0
M  V30 14444 C 1398.27 4.7377 2.47882 0
M  V30 14445 C 1399.57 5.21161 0.344698 0
M  V30 14446 H 1401.26 2.99291 -0.0806959 0
M  V30 14447 H 1398.81 1.43944 -0.0402511 0
M  V30 14448 H 1400.76 3.53396 2.29541 0
M  V30 14449 H 1399.48 2.29169 2.327 0
M  V30 14450 H 1398.14 3.60805 0.649267 0
M  V30 14451 H 1397.79 3.96116 3.10002 0
M  V30 14452 H 1397.49 5.45674 2.17977 0
M  V30 14453 H 1399.01 5.26507 3.09229 0
M  V30 14454 H 1400.43 5.66859 0.856979 0
M  V30 14455 H 1398.83 5.99941 0.138276 0
M  V30 14456 H 1399.9 4.80874 -0.623575 0
M  V30 14457 N 1401.24 0.0551678 1.57503 0
M  V30 14458 C 1402.49 -0.617201 1.92025 0
M  V30 14459 C 1402.8 -1.71767 0.93571 0
M  V30 14460 O 1404.01 -2.44847 1.17312 0
M  V30 14461 C 1402.46 -1.14915 3.41061 0
M  V30 14462 C 1402.07 -0.0805814 4.47928 0
M  V30 14463 C 1403.81 -1.79654 3.8461 0
M  V30 14464 C 1401.72 -0.625639 5.88081 0
M  V30 14465 H 1400.65 -0.23431 0.716669 0
M  V30 14466 H 1403.3 0.124706 1.83076 0
M  V30 14467 H 1401.68 -1.9435 3.45028 0
M  V30 14468 H 1402.86 0.693222 4.55556 0
M  V30 14469 H 1401.17 0.469581 4.13744 0
M  V30 14470 H 1403.77 -2.21436 4.86693 0
M  V30 14471 H 1404.11 -2.64987 3.21073 0
M  V30 14472 H 1404.65 -1.06868 3.83176 0
M  V30 14473 H 1401.39 0.190148 6.55224 0
M  V30 14474 H 1400.91 -1.36734 5.84007 0
M  V30 14475 H 1402.58 -1.10728 6.37454 0
M  V30 14476 N 1402.72 -1.56081 -0.218252 0
M  V30 14477 C 1403.96 -1.78893 -0.940296 0
M  V30 14478 C 1404.29 -0.62425 -1.84738 0
M  V30 14479 O 1403.56 0.358686 -1.92588 0
M  V30 14480 H 1402.14 -0.659828 -0.350193 0
M  V30 14481 H 1404.8 -1.93546 -0.229316 0
M  V30 14482 H 1403.89 -2.71167 -1.54516 0
M  V30 14483 N 1404.2 0.485086 -1.49949 0
M  V30 14484 C 1405.42 1.26179 -1.63971 0
M  V30 14485 C 1405.84 1.86113 -0.317408 0
M  V30 14486 O 1405.2 1.68581 0.699038 0
M  V30 14487 C 1405.25 2.38062 -2.72046 0
M  V30 14488 O 1404.97 1.80588 -3.99149 0
M  V30 14489 C 1406.47 3.29174 -2.96916 0
M  V30 14490 H 1403.69 0.382122 -0.551565 0
M  V30 14491 H 1406.23 0.580607 -1.96085 0
M  V30 14492 H 1404.39 3.0198 -2.42666 0
M  V30 14493 H 1404.8 2.54159 -4.58807 0
M  V30 14494 H 1406.28 4.03922 -3.76233 0
M  V30 14495 H 1406.75 3.87123 -2.07443 0
M  V30 14496 H 1407.36 2.71006 -3.27774 0
M  V30 14497 N 1405.67 1.39291 0.737279 0
M  V30 14498 C 1406.95 1.26901 1.48847 0
M  V30 14499 C 1407.33 -0.122417 2.10745 0
M  V30 14500 O 1406.68 -1.13343 1.98408 0
M  V30 14501 C 1406.89 2.3916 2.54172 0
M  V30 14502 C 1408.24 2.78368 3.20619 0
M  V30 14503 O 1409.26 2.38593 2.64484 0
M  V30 14504 O 1408.12 3.47014 4.22189 0
M  V30 14505 H 1405.21 0.497176 0.660867 0
M  V30 14506 H 1407.76 1.51159 0.771299 0
M  V30 14507 H 1406.53 3.3219 2.06797 0
M  V30 14508 H 1406.15 2.16555 3.33451 0
M  V30 14509 N 1407.15 -0.967221 1.24429 0
M  V30 14510 C 1408.38 -1.75053 1.11226 0
M  V30 14511 C 1408.8 -1.85162 -0.331139 0
M  V30 14512 O 1408.16 -1.32288 -1.23974 0
M  V30 14513 C 1408.21 -3.14882 1.75733 0
M  V30 14514 O 1407.31 -3.99371 1.02842 0
M  V30 14515 H 1406.65 -0.538078 0.389061 0
M  V30 14516 H 1409.18 -1.21325 1.64746 0
M  V30 14517 H 1409.19 -3.65402 1.81509 0
M  V30 14518 H 1407.87 -3.06839 2.80754 0
M  V30 14519 H 1406.44 -3.57854 1.04856 0
M  V30 14520 N 1408.63 -1.05812 -1.16797 0
M  V30 14521 C 1409.56 -0.622584 -2.20582 0
M  V30 14522 C 1410.57 0.316905 -1.59686 0
M  V30 14523 O 1411.76 0.108657 -1.78169 0
M  V30 14524 C 1408.86 0.108124 -3.38727 0
M  V30 14525 C 1408.04 -0.84363 -4.29187 0
M  V30 14526 C 1407.1 -0.15305 -5.25977 0
M  V30 14527 O 1406.12 -0.78915 -5.63703 0
M  V30 14528 N 1407.32 1.10721 -5.69843 0
M  V30 14529 H 1410.09 -1.51532 -2.5857 0
M  V30 14530 H 1407.65 -0.940815 -1.31758 0
M  V30 14531 H 1409.64 0.580395 -4.00517 0
M  V30 14532 H 1408.21 0.902599 -2.99286 0
M  V30 14533 H 1407.43 -1.49538 -3.64735 0
M  V30 14534 H 1408.72 -1.48946 -4.86511 0
M  V30 14535 H 1408.12 1.64423 -5.41278 0
M  V30 14536 H 1406.67 1.52344 -6.33746 0
M  V30 14537 N 1410.11 1.33347 -0.840014 0
M  V30 14538 C 1411.36 1.97354 -0.435412 0
M  V30 14539 C 1411.68 1.66866 1.009 0
M  V30 14540 O 1410.95 0.968186 1.70303 0
M  V30 14541 H 1409.53 0.730096 -0.158017 0
M  V30 14542 H 1412.19 1.6269 -1.07322 0
M  V30 14543 H 1411.28 3.0688 -0.56841 0
M  V30 14544 N 1411.59 0.596556 1.45873 0
M  V30 14545 C 1412.53 -0.141327 2.3217 0
M  V30 14546 C 1413.53 -0.870652 1.45314 0
M  V30 14547 O 1414.73 -0.787469 1.61861 0
M  V30 14548 H 1411.11 -0.0644404 0.749234 0
M  V30 14549 H 1413.08 0.605115 2.922 0
M  V30 14550 C 1411.83 -1.13261 3.28736 0
M  V30 14551 H 1411.15 -0.580835 3.95558 0
M  V30 14552 H 1412.59 -1.61904 3.91871 0
M  V30 14553 C 1411.05 -2.20062 2.55097 0
M  V30 14554 O 1411.58 -3.27634 2.3242 0
M  V30 14555 N 1409.79 -1.95044 2.15421 0
M  V30 14556 H 1409.33 -1.07573 2.34064 0
M  V30 14557 H 1409.29 -2.66711 1.66472 0
M  V30 14558 N 1413.06 -1.53996 0.335095 0
M  V30 14559 C 1414.01 -2.24736 -0.52559 0
M  V30 14560 C 1414.98 -1.24244 -1.10239 0
M  V30 14561 O 1416.17 -1.52955 -1.14058 0
M  V30 14562 C 1413.31 -3.01732 -1.67487 0
M  V30 14563 C 1412.42 -4.17062 -1.1262 0
M  V30 14564 C 1411.55 -4.81563 -2.2421 0
M  V30 14565 C 1410.59 -5.88977 -1.6665 0
M  V30 14566 N 1409.73 -6.47293 -2.71949 0
M  V30 14567 H 1414.57 -2.97881 0.0842008 0
M  V30 14568 H 1412.11 -1.47003 0.0533254 0
M  V30 14569 H 1414.06 -3.44626 -2.35135 0
M  V30 14570 H 1412.69 -2.30899 -2.25578 0
M  V30 14571 H 1411.75 -3.78869 -0.340917 0
M  V30 14572 H 1413.06 -4.94346 -0.665113 0
M  V30 14573 H 1412.21 -5.27486 -2.9974 0
M  V30 14574 H 1410.95 -4.03685 -2.73659 0
M  V30 14575 H 1409.96 -5.42446 -0.89623 0
M  V30 14576 H 1411.18 -6.68758 -1.18064 0
M  V30 14577 H 1409.13 -5.72283 -3.20668 0
M  V30 14578 H 1409.04 -7.20024 -2.30438 0
M  V30 14579 H 1410.31 -6.97869 -3.47273 0
M  V30 14580 N 1414.54 -0.0635198 -1.57472 0
M  V30 14581 C 1415.79 0.607484 -1.93173 0
M  V30 14582 C 1416.12 1.70117 -0.942897 0
M  V30 14583 O 1415.37 1.95653 0.042832 0
M  V30 14584 C 1415.67 1.23117 -3.35525 0
M  V30 14585 C 1415.34 0.264457 -4.50124 0
M  V30 14586 C 1414 -0.00151762 -4.812 0
M  V30 14587 C 1416.35 -0.39737 -5.19683 0
M  V30 14588 C 1413.68 -0.936547 -5.79177 0
M  V30 14589 C 1416.03 -1.32067 -6.18661 0
M  V30 14590 C 1414.69 -1.59519 -6.48159 0
M  V30 14591 H 1413.96 0.222294 -0.706871 0
M  V30 14592 H 1416.61 -0.132633 -1.9104 0
M  V30 14593 H 1414.92 2.04684 -3.34084 0
M  V30 14594 H 1416.61 1.7575 -3.60434 0
M  V30 14595 H 1413.2 0.481945 -4.25882 0
M  V30 14596 H 1417.39 -0.20499 -4.95876 0
M  V30 14597 H 1412.64 -1.15658 -6.00361 0
M  V30 14598 H 1416.82 -1.83949 -6.71666 0
M  V30 14599 H 1414.44 -2.32134 -7.23891 0
M  V30 14600 N 1416.02 1.56195 0.209972 0
M  V30 14601 C 1416.97 1.93355 1.26026 0
M  V30 14602 C 1417.94 0.792195 1.45991 0
M  V30 14603 O 1419.12 1.04909 1.5937 0
M  V30 14604 C 1416.26 2.26558 2.60318 0
M  V30 14605 C 1415.37 3.53685 2.48055 0
M  V30 14606 C 1414.51 3.76279 3.7495 0
M  V30 14607 C 1413.55 4.96881 3.57457 0
M  V30 14608 N 1412.69 5.15806 4.76328 0
M  V30 14609 H 1417.53 2.82907 0.936357 0
M  V30 14610 H 1415.06 1.40015 0.451022 0
M  V30 14611 H 1417.02 2.43821 3.38537 0
M  V30 14612 H 1415.65 1.40165 2.90781 0
M  V30 14613 H 1414.7 3.44551 1.61211 0
M  V30 14614 H 1416.01 4.42057 2.31056 0
M  V30 14615 H 1415.17 3.93702 4.6161 0
M  V30 14616 H 1413.91 2.86209 3.94887 0
M  V30 14617 H 1412.91 4.79397 2.69181 0
M  V30 14618 H 1414.14 5.88447 3.38979 0
M  V30 14619 H 1412.08 4.28681 4.96557 0
M  V30 14620 H 1412 5.98332 4.62099 0
M  V30 14621 H 1413.27 5.37674 5.64382 0
M  V30 14622 N 1417.5 -0.477127 1.50204 0
M  V30 14623 C 1418.43 -1.58405 1.71552 0
M  V30 14624 C 1419.41 -1.60463 0.564413 0
M  V30 14625 O 1420.59 -1.76826 0.802893 0
M  V30 14626 C 1417.72 -2.96765 1.8041 0
M  V30 14627 C 1416.68 -3.09573 2.95548 0
M  V30 14628 C 1416 -4.49522 2.89542 0
M  V30 14629 C 1417.3 -2.87356 4.36147 0
M  V30 14630 H 1419 -1.40792 2.64231 0
M  V30 14631 H 1416.54 -0.675886 1.27153 0
M  V30 14632 H 1418.5 -3.74125 1.9393 0
M  V30 14633 H 1417.22 -3.1552 0.843489 0
M  V30 14634 H 1415.88 -2.34645 2.81669 0
M  V30 14635 H 1415.53 -4.65186 1.91339 0
M  V30 14636 H 1415.23 -4.59028 3.66834 0
M  V30 14637 H 1416.75 -5.28909 3.05102 0
M  V30 14638 H 1418.17 -3.54469 4.50583 0
M  V30 14639 H 1416.56 -3.08313 5.14843 0
M  V30 14640 H 1417.63 -1.83264 4.48935 0
M  V30 14641 N 1418.98 -1.3968 -0.729882 0
M  V30 14642 C 1419.91 -1.41549 -1.85704 0
M  V30 14643 C 1420.89 -0.278186 -1.6781 0
M  V30 14644 O 1422.07 -0.484749 -1.88053 0
M  V30 14645 C 1419.2 -1.26327 -3.2351 0
M  V30 14646 C 1418.16 -2.37511 -3.56051 0
M  V30 14647 C 1417.48 -2.07375 -4.92849 0
M  V30 14648 C 1418.78 -3.79833 -3.58502 0
M  V30 14649 H 1420.48 -2.35877 -1.84398 0
M  V30 14650 H 1418.02 -1.13536 -0.885747 0
M  V30 14651 H 1419.98 -1.26254 -4.02042 0
M  V30 14652 H 1418.7 -0.284697 -3.25357 0
M  V30 14653 H 1417.36 -2.36809 -2.79852 0
M  V30 14654 H 1417.01 -1.07943 -4.91281 0
M  V30 14655 H 1416.71 -2.81855 -5.15588 0
M  V30 14656 H 1418.23 -2.08961 -5.73731 0
M  V30 14657 H 1419.64 -3.82436 -4.27101 0
M  V30 14658 H 1418.04 -4.53715 -3.92763 0
M  V30 14659 H 1419.11 -4.10443 -2.58195 0
M  V30 14660 N 1420.45 0.960609 -1.2494 0
M  V30 14661 C 1421.68 1.7446 -1.12153 0
M  V30 14662 C 1422.1 1.85335 0.321315 0
M  V30 14663 O 1421.46 1.32944 1.23271 0
M  V30 14664 C 1421.51 3.13945 -1.774 0
M  V30 14665 O 1420.61 3.9882 -1.04958 0
M  V30 14666 H 1419.96 0.536007 -0.391909 0
M  V30 14667 H 1422.49 1.2045 -1.65388 0
M  V30 14668 H 1422.5 3.64434 -1.83444 0
M  V30 14669 H 1421.17 3.05346 -2.82377 0
M  V30 14670 H 1419.75 3.57293 -1.06752 0
M  V30 14671 N 1421.93 1.0643 1.16234 0
M  V30 14672 C 1422.84 0.687446 2.24302 0
M  V30 14673 C 1423.86 -0.297132 1.71444 0
M  V30 14674 O 1425.03 -0.146101 2.00869 0
M  V30 14675 C 1422.1 0.0810973 3.46605 0
M  V30 14676 C 1421.16 1.11772 4.14494 0
M  V30 14677 C 1420.39 0.54021 5.30959 0
M  V30 14678 O 1420.62 -0.646619 5.66723 0
M  V30 14679 O 1419.55 1.28057 5.8812 0
M  V30 14680 H 1423.38 1.58842 2.58849 0
M  V30 14681 H 1420.96 0.836649 1.23776 0
M  V30 14682 H 1422.84 -0.25524 4.20626 0
M  V30 14683 H 1421.52 -0.793338 3.13828 0
M  V30 14684 H 1420.43 1.50626 3.42436 0
M  V30 14685 H 1421.76 1.96373 4.5133 0
M  V30 14686 N 1423.41 -1.329 0.847073 0
M  V30 14687 C 1424.36 -2.26534 0.258111 0
M  V30 14688 C 1425.34 -1.49627 -0.591653 0
M  V30 14689 O 1426.54 -1.71385 -0.442277 0
M  V30 14690 C 1423.67 -3.38719 -0.558969 0
M  V30 14691 C 1422.75 -4.23018 0.30276 0
M  V30 14692 N 1423.14 -4.86457 1.38541 0
M  V30 14693 C 1421.44 -4.45907 0.0911992 0
M  V30 14694 C 1422.14 -5.49277 1.91492 0
M  V30 14695 N 1421.12 -5.29843 1.21519 0
M  V30 14696 H 1424.92 -2.73103 1.0859 0
M  V30 14697 H 1422.43 -1.46901 0.692386 0
M  V30 14698 H 1424.43 -4.04797 -0.997259 0
M  V30 14699 H 1423.09 -2.93697 -1.38464 0
M  V30 14700 H 1424.1 -4.86776 1.76832 0
M  V30 14701 H 1420.78 -4.11584 -0.70037 0
M  V30 14702 H 1422.17 -6.09764 2.82201 0
M  V30 14703 N 1424.89 -0.604284 -1.45555 0
M  V30 14704 C 1425.82 0.154579 -2.28678 0
M  V30 14705 C 1426.83 0.83491 -1.39761 0
M  V30 14706 O 1428.02 0.700852 -1.64166 0
M  V30 14707 C 1425.12 1.2397 -3.15412 0
M  V30 14708 C 1424.3 0.647128 -4.32586 0
M  V30 14709 C 1423.35 1.62272 -5.00554 0
M  V30 14710 O 1422.38 1.15031 -5.57455 0
M  V30 14711 N 1423.58 2.9571 -4.99536 0
M  V30 14712 H 1426.35 -0.558668 -2.94447 0
M  V30 14713 H 1423.91 -0.443538 -1.55706 0
M  V30 14714 H 1425.9 1.89209 -3.57746 0
M  V30 14715 H 1424.47 1.85552 -2.51574 0
M  V30 14716 H 1423.69 -0.183261 -3.93774 0
M  V30 14717 H 1424.98 0.231394 -5.08274 0
M  V30 14718 H 1424.38 3.36695 -4.54591 0
M  V30 14719 H 1422.93 3.56381 -5.45744 0
M  V30 14720 N 1426.37 1.53816 -0.343257 0
M  V30 14721 C 1427.61 2.01207 0.253721 0
M  V30 14722 C 1427.95 1.23069 1.50225 0
M  V30 14723 O 1427.22 0.31824 1.91879 0
M  V30 14724 C 1427.5 3.5559 0.56815 0
M  V30 14725 C 1427.36 4.44438 -0.692457 0
M  V30 14726 C 1428.68 4.17974 1.37788 0
M  V30 14727 H 1425.79 0.731392 0.0907427 0
M  V30 14728 H 1428.44 1.84254 -0.463736 0
M  V30 14729 H 1426.59 3.70166 1.17937 0
M  V30 14730 H 1428.26 4.41698 -1.33042 0
M  V30 14731 H 1426.5 4.13312 -1.3174 0
M  V30 14732 H 1427.17 5.5034 -0.427715 0
M  V30 14733 H 1429.65 4.07094 0.861043 0
M  V30 14734 H 1428.52 5.26068 1.56663 0
M  V30 14735 H 1428.79 3.72577 2.3799 0
M  V30 14736 N 1427.84 0.0718701 1.57436 0
M  V30 14737 C 1429.07 -0.606253 1.97819 0
M  V30 14738 C 1429.49 -1.63144 0.950233 0
M  V30 14739 O 1428.84 -1.82391 -0.0631051 0
M  V30 14740 C 1428.9 -1.27476 3.38278 0
M  V30 14741 O 1428.62 -0.290603 4.37135 0
M  V30 14742 C 1430.12 -2.0407 3.93536 0
M  V30 14743 H 1427.34 -0.164305 0.650573 0
M  V30 14744 H 1429.88 0.144295 2.0399 0
M  V30 14745 H 1428.04 -1.97639 3.33193 0
M  V30 14746 H 1428.45 -0.77022 5.18814 0
M  V30 14747 H 1429.92 -2.46237 4.94036 0
M  V30 14748 H 1430.4 -2.89728 3.30083 0
M  V30 14749 H 1431.01 -1.38773 4.02022 0
M  V30 14750 N 1429.32 -1.56304 -0.201686 0
M  V30 14751 C 1430.55 -1.84692 -0.943583 0
M  V30 14752 C 1430.97 -0.654649 -1.7634 0
M  V30 14753 O 1430.33 0.396586 -1.76909 0
M  V30 14754 C 1430.38 -3.11251 -1.82085 0
M  V30 14755 O 1429.48 -2.9134 -2.91881 0
M  V30 14756 H 1428.82 -0.608351 -0.266092 0
M  V30 14757 H 1431.35 -2.0353 -0.208992 0
M  V30 14758 H 1431.36 -3.41874 -2.2268 0
M  V30 14759 H 1430.04 -3.97652 -1.21844 0
M  V30 14760 H 1428.62 -2.72 -2.55089 0
M  V30 14761 N 1430.8 0.469154 -1.50455 0
M  V30 14762 C 1432.03 1.24899 -1.65575 0
M  V30 14763 C 1432.45 1.85009 -0.339581 0
M  V30 14764 O 1431.81 1.67376 0.696774 0
M  V30 14765 C 1431.86 2.33205 -2.75041 0
M  V30 14766 O 1430.96 3.37898 -2.36429 0
M  V30 14767 H 1430.3 0.367362 -0.553119 0
M  V30 14768 H 1432.83 0.558083 -1.96842 0
M  V30 14769 H 1432.84 2.78487 -2.98176 0
M  V30 14770 H 1431.52 1.88826 -3.70564 0
M  V30 14771 H 1430.09 2.98314 -2.23748 0
M  V30 14772 N 1432.28 1.40065 0.722464 0
M  V30 14773 C 1433.53 1.37698 1.47932 0
M  V30 14774 C 1433.85 -0.0222608 1.94987 0
M  V30 14775 O 1433.12 -0.975795 1.69868 0
M  V30 14776 H 1431.7 0.506766 0.548815 0
M  V30 14777 H 1434.36 1.75053 0.856884 0
M  V30 14778 H 1433.46 2.04756 2.35545 0
M  V30 14779 N 1433.76 -0.95397 1.25448 0
M  V30 14780 C 1435.03 -1.67502 1.01008 0
M  V30 14781 C 1435.41 -2.05949 -0.463483 0
M  V30 14782 O 1434.76 -1.77336 -1.44098 0
M  V30 14783 C 1434.97 -2.89679 1.94645 0
M  V30 14784 C 1436.32 -3.61617 2.22526 0
M  V30 14785 O 1437.34 -2.99762 1.92409 0
M  V30 14786 O 1436.2 -4.72998 2.73743 0
M  V30 14787 H 1433.3 -0.732917 0.383094 0
M  V30 14788 H 1435.84 -1.00684 1.36605 0
M  V30 14789 H 1434.62 -2.58063 2.94141 0
M  V30 14790 H 1434.24 -3.64228 1.59449 0
M  V30 14791 N 1435.24 -1.07045 -1.15668 0
M  V30 14792 C 1436.18 -0.688004 -2.20307 0
M  V30 14793 C 1437.15 0.319081 -1.63006 0
M  V30 14794 O 1438.34 0.206239 -1.89682 0
M  V30 14795 C 1435.48 -0.0886692 -3.44986 0
M  V30 14796 C 1434.59 -1.14685 -4.16499 0
M  V30 14797 C 1433.73 -0.512852 -5.28719 0
M  V30 14798 C 1432.76 -1.55404 -5.92044 0
M  V30 14799 N 1431.9 -0.942848 -6.9574 0
M  V30 14800 H 1436.74 -1.58469 -2.52372 0
M  V30 14801 H 1434.28 -0.792184 -1.23947 0
M  V30 14802 H 1436.24 0.276415 -4.16283 0
M  V30 14803 H 1434.87 0.77139 -3.13448 0
M  V30 14804 H 1433.92 -1.62955 -3.43729 0
M  V30 14805 H 1435.23 -1.93643 -4.59678 0
M  V30 14806 H 1434.38 -0.0952274 -6.06625 0
M  V30 14807 H 1433.12 0.308524 -4.86723 0
M  V30 14808 H 1432.13 -1.98148 -5.12852 0
M  V30 14809 H 1433.35 -2.37765 -6.36117 0
M  V30 14810 H 1431.3 -0.142319 -6.55846 0
M  V30 14811 H 1431.22 -1.6697 -7.37331 0
M  V30 14812 H 1432.48 -0.550621 -7.77553 0
M  V30 14813 N 1436.71 1.32449 -0.85411 0
M  V30 14814 C 1437.99 1.91902 -0.378533 0
M  V30 14815 C 1438.37 1.77811 1.13782 0
M  V30 14816 O 1437.72 1.17588 1.95922 0
M  V30 14817 C 1437.93 3.38683 -0.842299 0
M  V30 14818 C 1439.28 4.15817 -0.859161 0
M  V30 14819 O 1440.3 3.47399 -0.786901 0
M  V30 14820 O 1439.16 5.37985 -0.960933 0
M  V30 14821 H 1436.25 0.819614 -0.110284 0
M  V30 14822 H 1438.8 1.41222 -0.940974 0
M  V30 14823 H 1437.57 3.4288 -1.88544 0
M  V30 14824 H 1437.19 3.96767 -0.257278 0
M  V30 14825 N 1438.19 0.611994 1.45232 0
M  V30 14826 C 1439.61 0.276005 1.57195 0
M  V30 14827 C 1439.81 -1.22136 1.60266 0
M  V30 14828 O 1438.86 -2.00459 1.53533 0
M  V30 14829 C 1440.18 0.951064 2.85263 0
M  V30 14830 C 1441.72 0.927398 2.98945 0
M  V30 14831 C 1442.2 1.58255 4.2979 0
M  V30 14832 N 1443.69 1.54825 4.36559 0
M  V30 14833 C 1444.43 2.02428 5.3648 0
M  V30 14834 N 1443.92 2.58137 6.42913 0
M  V30 14835 N 1445.71 1.9317 5.27865 0
M  V30 14836 H 1437.87 1.58418 1.41483 0
M  V30 14837 H 1440.13 0.663879 0.676734 0
M  V30 14838 H 1439.83 2.00557 2.88912 0
M  V30 14839 H 1439.71 0.477044 3.74171 0
M  V30 14840 H 1442.1 -0.118571 2.94862 0
M  V30 14841 H 1442.18 1.43973 2.11437 0
M  V30 14842 H 1441.82 2.62787 4.34632 0
M  V30 14843 H 1441.75 1.04521 5.16123 0
M  V30 14844 H 1444.24 1.14133 3.60253 0
M  V30 14845 H 1444.55 2.92243 7.15412 0
M  V30 14846 H 1442.9 2.62179 6.43652 0
M  V30 14847 H 1446.09 1.49384 4.43624 0
M  V30 14848 H 1446.26 2.30582 6.05587 0
M  V30 14849 N 1439.67 -1.53632 0.351409 0
M  V30 14850 C 1441.08 -1.86241 -0.130834 0
M  V30 14851 C 1441.43 -1.27243 -1.49344 0
M  V30 14852 O 1440.56 -0.589006 -2.0823 0
M  V30 14853 C 1441.15 -3.37919 -0.244179 0
M  V30 14854 C 1439.71 -3.70377 -0.670662 0
M  V30 14855 C 1438.86 -2.76643 0.190813 0
M  V30 14856 H 1441.81 -1.48083 0.570724 0
M  V30 14857 H 1441.83 -3.65137 -1.07029 0
M  V30 14858 H 1441.34 -3.8083 0.747688 0
M  V30 14859 H 1439.44 -3.33015 -1.67127 0
M  V30 14860 H 1439.56 -4.76934 -0.455102 0
M  V30 14861 H 1437.92 -2.52446 -0.338092 0
M  V30 14862 H 1438.7 -3.22385 1.17996 0
M  V30 14863 N 1441.15 -0.0802183 -1.57396 0
M  V30 14864 C 1442.56 0.276428 -1.57188 0
M  V30 14865 C 1442.76 1.69456 -1.09027 0
M  V30 14866 O 1441.82 2.40792 -0.75997 0
M  V30 14867 C 1443.13 0.0784079 -3.00598 0
M  V30 14868 C 1444.68 0.1473 -3.12653 0
M  V30 14869 C 1445.16 -0.0225423 -4.57994 0
M  V30 14870 N 1446.65 0.0327854 -4.63188 0
M  V30 14871 C 1447.38 -0.0740922 -5.73352 0
M  V30 14872 N 1446.88 -0.234966 -6.92401 0
M  V30 14873 N 1448.67 -0.0164241 -5.62098 0
M  V30 14874 H 1440.82 -1.00695 -1.87014 0
M  V30 14875 H 1443.08 -0.393402 -0.862519 0
M  V30 14876 H 1442.79 -0.900488 -3.39977 0
M  V30 14877 H 1442.66 0.82713 -3.6802 0
M  V30 14878 H 1445.05 1.11669 -2.73156 0
M  V30 14879 H 1445.13 -0.632666 -2.47853 0
M  V30 14880 H 1444.78 -0.988733 -4.98183 0
M  V30 14881 H 1444.71 0.776933 -5.20837 0
M  V30 14882 H 1447.2 0.15519 -3.77581 0
M  V30 14883 H 1447.51 -0.308435 -7.72184 0
M  V30 14884 H 1445.86 -0.270439 -6.94474 0
M  V30 14885 H 1449.05 0.108019 -4.67975 0
M  V30 14886 H 1449.22 -0.10317 -6.47918 0
M  V30 14887 N 1442.63 1.56409 0.193394 0
M  V30 14888 C 1444.04 1.50032 0.544298 0
M  V30 14889 C 1444.24 0.780546 1.85768 0
M  V30 14890 O 1443.3 0.331769 2.50311 0
M  V30 14891 C 1444.61 2.94705 0.597463 0
M  V30 14892 C 1446.16 3.05386 0.686179 0
M  V30 14893 C 1446.63 4.51473 0.770439 0
M  V30 14894 N 1448.12 4.55631 0.833921 0
M  V30 14895 C 1448.86 5.65982 0.919314 0
M  V30 14896 N 1448.36 6.8602 0.966904 0
M  V30 14897 N 1450.15 5.539 0.956634 0
M  V30 14898 H 1442.3 2.01619 -0.668096 0
M  V30 14899 H 1444.56 0.917589 -0.238191 0
M  V30 14900 H 1444.27 3.50431 -0.298509 0
M  V30 14901 H 1444.14 3.48151 1.45157 0
M  V30 14902 H 1446.53 2.49708 1.57258 0
M  V30 14903 H 1446.61 2.55062 -0.194165 0
M  V30 14904 H 1446.25 5.07777 -0.111619 0
M  V30 14905 H 1446.18 4.99531 1.66661 0
M  V30 14906 H 1448.68 3.69198 0.80632 0
M  V30 14907 H 1448.99 7.6587 1.03262 0
M  V30 14908 H 1447.33 6.88674 0.935552 0
M  V30 14909 H 1450.52 4.59044 0.916304 0
M  V30 14910 H 1450.7 6.39926 1.01972 0
M  V30 14911 N 1444.1 -0.461169 1.50702 0
M  V30 14912 C 1445.35 -1.21431 1.62427 0
M  V30 14913 C 1445.68 -1.91406 0.328228 0
M  V30 14914 O 1444.96 -1.82563 -0.670898 0
M  V30 14915 C 1445.24 -2.25016 2.8114 0
M  V30 14916 C 1445.09 -1.5928 4.20654 0
M  V30 14917 C 1446.41 -3.26234 2.95397 0
M  V30 14918 H 1443.53 -0.440113 0.59116 0
M  V30 14919 H 1446.17 -0.506726 1.83118 0
M  V30 14920 H 1444.32 -2.85363 2.63629 0
M  V30 14921 H 1446 -1.02454 4.49779 0
M  V30 14922 H 1444.24 -0.895665 4.24453 0
M  V30 14923 H 1444.91 -2.34602 4.99666 0
M  V30 14924 H 1447.39 -2.7592 3.1146 0
M  V30 14925 H 1446.26 -3.96031 3.80067 0
M  V30 14926 H 1446.52 -3.90943 2.06436 0
M  V30 14927 N 1445.58 -1.40446 -0.715026 0
M  V30 14928 C 1446.53 -1.40756 -1.82911 0
M  V30 14929 C 1447.5 -0.264443 -1.63981 0
M  V30 14930 O 1448.68 -0.462589 -1.85107 0
M  V30 14931 C 1445.82 -1.27648 -3.20624 0
M  V30 14932 C 1444.94 -2.5167 -3.51121 0
M  V30 14933 C 1444.07 -2.31 -4.78344 0
M  V30 14934 C 1443.11 -3.50596 -5.01746 0
M  V30 14935 N 1442.25 -3.29117 -6.20183 0
M  V30 14936 H 1447.09 -2.35981 -1.8198 0
M  V30 14937 H 1444.62 -1.17201 -0.888951 0
M  V30 14938 H 1446.58 -1.18054 -4.00149 0
M  V30 14939 H 1445.21 -0.360419 -3.20782 0
M  V30 14940 H 1444.26 -2.7179 -2.66147 0
M  V30 14941 H 1445.58 -3.4069 -3.64324 0
M  V30 14942 H 1444.73 -2.18763 -5.65887 0
M  V30 14943 H 1443.47 -1.39406 -4.67351 0
M  V30 14944 H 1442.47 -3.63309 -4.12658 0
M  V30 14945 H 1443.7 -4.43117 -5.14611 0
M  V30 14946 H 1441.65 -2.40206 -6.1044 0
M  V30 14947 H 1441.56 -4.11702 -6.34064 0
M  V30 14948 H 1442.83 -3.20614 -7.10512 0
M  V30 14949 N 1447.06 0.947303 -1.25952 0
M  V30 14950 C 1448.47 1.50755 -1.10136 0
M  V30 14951 C 1448.82 1.93566 0.320437 0
M  V30 14952 O 1447.95 1.79326 1.21125 0
M  V30 14953 C 1448.54 2.7397 -1.99313 0
M  V30 14954 C 1447.1 3.26283 -1.8766 0
M  V30 14955 C 1446.25 1.99088 -1.93027 0
M  V30 14956 H 1449.2 0.763427 -1.39131 0
M  V30 14957 H 1449.22 3.48057 -1.53742 0
M  V30 14958 H 1448.73 2.42781 -3.02785 0
M  V30 14959 H 1446.83 3.62277 -0.870992 0
M  V30 14960 H 1446.95 3.93803 -2.72866 0
M  V30 14961 H 1445.31 2.14714 -1.37003 0
M  V30 14962 H 1446.09 1.70237 -2.98118 0
M  V30 14963 N 1448.54 1.07657 1.15099 0
M  V30 14964 C 1449.49 0.699678 2.19939 0
M  V30 14965 C 1450.46 -0.310432 1.63173 0
M  V30 14966 O 1451.64 -0.196177 1.89789 0
M  V30 14967 C 1448.78 0.106963 3.44934 0
M  V30 14968 C 1447.89 1.16892 4.15885 0
M  V30 14969 C 1447.03 0.540884 5.28439 0
M  V30 14970 C 1446.07 1.58542 5.91211 0
M  V30 14971 N 1445.2 0.979731 6.95231 0
M  V30 14972 H 1450.04 1.59805 2.51528 0
M  V30 14973 H 1447.58 0.798746 1.23525 0
M  V30 14974 H 1449.54 -0.254335 4.16424 0
M  V30 14975 H 1448.17 -0.754756 3.13852 0
M  V30 14976 H 1447.22 1.64775 3.4286 0
M  V30 14977 H 1448.53 1.96078 4.58645 0
M  V30 14978 H 1447.69 0.127397 6.06566 0
M  V30 14979 H 1446.43 -0.282708 4.8688 0
M  V30 14980 H 1445.43 2.00865 5.11794 0
M  V30 14981 H 1446.66 2.41135 6.34847 0
M  V30 14982 H 1444.6 0.177098 6.55761 0
M  V30 14983 H 1444.52 1.70878 7.36435 0
M  V30 14984 H 1445.79 0.591849 7.7725 0
M  V30 14985 N 1450.02 -1.31994 0.861122 0
M  V30 14986 C 1451.26 -1.98827 0.474055 0
M  V30 14987 C 1451.62 -1.66627 -0.953916 0
M  V30 14988 O 1452.82 -2.26601 -1.44587 0
M  V30 14989 C 1451.09 -3.50201 0.713743 0
M  V30 14990 S 1452.65 -4.36735 0.425214 0
M  V30 14991 H 1449.47 -0.688534 0.17732 0
M  V30 14992 H 1452.07 -1.6057 1.11523 0
M  V30 14993 H 1450.78 -3.71125 1.75198 0
M  V30 14994 H 1450.31 -3.93355 0.0592289 0
M  V30 14995 H 1452.32 -4.90558 -0.746142 0
M  V30 14996 N 1451.49 -0.619688 -1.44906 0
M  V30 14997 C 1452.46 0.0822364 -2.29052 0
M  V30 14998 C 1453.46 0.783427 -1.40425 0
M  V30 14999 O 1454.65 0.629751 -1.62419 0
M  V30 15000 C 1451.78 1.12685 -3.21737 0
M  V30 15001 H 1452.97 -0.657726 -2.92599 0
M  V30 15002 H 1450.53 -0.379286 -1.51628 0
M  V30 15003 H 1451.26 1.89717 -2.63017 0
M  V30 15004 H 1451.05 0.628122 -3.87036 0
M  V30 15005 H 1452.54 1.61808 -3.84978 0
M  V30 15006 N 1452.97 1.53444 -0.359552 0
M  V30 15007 C 1454.38 1.86308 0.120955 0
M  V30 15008 C 1454.73 1.28033 1.48667 0
M  V30 15009 O 1453.86 0.600041 2.07915 0
M  V30 15010 C 1454.45 3.38044 0.226255 0
M  V30 15011 C 1453.01 3.70727 0.65101 0
M  V30 15012 C 1452.16 2.76538 -0.205482 0
M  V30 15013 H 1455.11 1.47778 -0.578569 0
M  V30 15014 H 1455.13 3.65699 1.05092 0
M  V30 15015 H 1454.64 3.80428 -0.767874 0
M  V30 15016 H 1452.75 3.33897 1.65359 0
M  V30 15017 H 1452.86 4.77168 0.429802 0
M  V30 15018 H 1451.22 2.52622 0.3247 0
M  V30 15019 H 1452.01 3.21754 -1.19704 0
M  V30 15020 N 1454.45 0.0885642 1.57351 0
M  V30 15021 C 1455.86 -0.441569 1.81403 0
M  V30 15022 C 1456.21 -1.68582 1.00372 0
M  V30 15023 O 1455.34 -2.15162 0.231153 0
M  V30 15024 C 1455.93 -0.807886 3.29027 0
M  V30 15025 C 1454.49 -1.2828 3.53866 0
M  V30 15026 C 1453.64 -0.276217 2.75921 0
M  V30 15027 H 1456.59 0.314083 1.55561 0
M  V30 15028 H 1456.61 -1.66797 3.41993 0
M  V30 15029 H 1456.12 0.0978886 3.87977 0
M  V30 15030 H 1454.22 -2.2065 3.0024 0
M  V30 15031 H 1454.34 -1.24914 4.62529 0
M  V30 15032 H 1452.7 -0.757007 2.4319 0
M  V30 15033 H 1453.48 0.622123 3.37616 0
M  V30 15034 N 1455.93 -1.56509 -0.185096 0
M  V30 15035 C 1457.34 -1.71024 -0.748856 0
M  V30 15036 C 1457.69 -0.69681 -1.83409 0
M  V30 15037 O 1456.82 0.144711 -2.15916 0
M  V30 15038 C 1457.41 -3.1008 -1.36513 0
M  V30 15039 C 1455.97 -3.26325 -1.87587 0
M  V30 15040 C 1455.12 -2.66977 -0.749579 0
M  V30 15041 H 1458.07 -1.58649 0.0401175 0
M  V30 15042 H 1458.09 -3.07965 -2.23468 0
M  V30 15043 H 1457.6 -3.83816 -0.575051 0
M  V30 15044 H 1455.7 -2.57522 -2.69283 0
M  V30 15045 H 1455.81 -4.33931 -2.03078 0
M  V30 15046 H 1454.18 -2.26419 -1.16647 0
M  V30 15047 H 1454.96 -3.43288 0.0284301 0
M  V30 15048 N 1457.41 0.45317 -1.50944 0
M  V30 15049 C 1458.82 1.03354 -1.55482 0
M  V30 15050 C 1459.17 1.92701 -0.368873 0
M  V30 15051 O 1458.29 2.10153 0.516208 0
M  V30 15052 C 1458.89 1.88118 -2.81775 0
M  V30 15053 C 1457.45 2.41232 -2.88936 0
M  V30 15054 C 1456.59 1.20032 -2.49975 0
M  V30 15055 H 1459.55 0.235059 -1.5695 0
M  V30 15056 H 1459.57 2.73394 -2.64643 0
M  V30 15057 H 1459.08 1.23064 -3.68072 0
M  V30 15058 H 1457.18 3.09788 -2.07032 0
M  V30 15059 H 1457.29 2.75113 -3.92237 0
M  V30 15060 H 1455.66 1.54072 -2.02815 0
M  V30 15061 H 1456.44 0.56612 -3.386 0
M  V30 15062 N 1458.88 1.40823 0.707568 0
M  V30 15063 C 1460.3 1.35249 1.28704 0
M  V30 15064 C 1460.65 0.0298026 1.96177 0
M  V30 15065 O 1459.77 -0.872126 1.98048 0
M  V30 15066 C 1460.37 2.44965 2.34046 0
M  V30 15067 C 1458.93 2.42826 2.87598 0
M  V30 15068 C 1458.07 2.25429 1.61483 0
M  V30 15069 H 1461.02 1.50513 0.503141 0
M  V30 15070 H 1461.04 2.13334 3.1507 0
M  V30 15071 H 1460.56 3.41219 1.84908 0
M  V30 15072 H 1458.66 1.50294 3.40944 0
M  V30 15073 H 1458.77 3.38704 3.38845 0
M  V30 15074 H 1457.13 1.73089 1.86848 0
M  V30 15075 H 1457.92 3.23693 1.14359 0
M  V30 15076 N 1460.36 -0.94061 1.26453 0
M  V30 15077 C 1461.61 -1.68937 1.12197 0
M  V30 15078 C 1461.94 -1.91309 -0.33382 0
M  V30 15079 O 1461.22 -1.49417 -1.24518 0
M  V30 15080 C 1461.5 -3.06381 1.89215 0
M  V30 15081 C 1461.35 -2.91331 3.42704 0
M  V30 15082 C 1462.67 -4.06507 1.68642 0
M  V30 15083 H 1459.79 -0.613121 0.408964 0
M  V30 15084 H 1462.43 -1.09242 1.55455 0
M  V30 15085 H 1460.58 -3.57339 1.5245 0
M  V30 15086 H 1462.25 -2.47591 3.89226 0
M  V30 15087 H 1460.5 -2.26945 3.697 0
M  V30 15088 H 1461.17 -3.88818 3.91822 0
M  V30 15089 H 1463.64 -3.64512 2.00674 0
M  V30 15090 H 1462.52 -5.0069 2.24945 0
M  V30 15091 H 1462.78 -4.37572 0.631131 0
M  V30 15092 N 1461.84 -1.08266 -1.14527 0
M  V30 15093 C 1462.77 -0.655392 -2.18586 0
M  V30 15094 C 1463.75 0.332109 -1.59172 0
M  V30 15095 O 1464.94 0.236315 -1.87013 0
M  V30 15096 C 1462.06 0.0362295 -3.38681 0
M  V30 15097 C 1461.11 -0.91119 -4.16653 0
M  V30 15098 S 1461.94 -2.4171 -4.77846 0
M  V30 15099 C 1463.1 -1.73755 -6.01299 0
M  V30 15100 H 1463.33 -1.53694 -2.54491 0
M  V30 15101 H 1460.86 -0.897499 -1.25636 0
M  V30 15102 H 1462.82 0.428996 -4.08252 0
M  V30 15103 H 1461.48 0.894253 -3.01101 0
M  V30 15104 H 1460.68 -0.374143 -5.02609 0
M  V30 15105 H 1460.28 -1.24478 -3.52677 0
M  V30 15106 H 1462.57 -1.05465 -6.69241 0
M  V30 15107 H 1463.51 -2.5758 -6.59589 0
M  V30 15108 H 1463.92 -1.21153 -5.51346 0
M  V30 15109 N 1463.32 1.31536 -0.86811 0
M  V30 15110 C 1464.74 1.49461 -0.559778 0
M  V30 15111 C 1464.94 1.79957 0.906525 0
M  V30 15112 O 1463.99 1.87711 1.68881 0
M  V30 15113 C 1465.3 2.62967 -1.45839 0
M  V30 15114 C 1466.85 2.76851 -1.46023 0
M  V30 15115 C 1467.33 3.93451 -2.34436 0
M  V30 15116 N 1468.82 4.00735 -2.32306 0
M  V30 15117 C 1469.55 4.90223 -2.97437 0
M  V30 15118 N 1469.05 5.84626 -3.71731 0
M  V30 15119 N 1470.84 4.83454 -2.86755 0
M  V30 15120 H 1462.99 1.1001 -1.81691 0
M  V30 15121 H 1465.26 0.543418 -0.776789 0
M  V30 15122 H 1464.96 2.47203 -2.50168 0
M  V30 15123 H 1464.84 3.59063 -1.15556 0
M  V30 15124 H 1467.22 2.9203 -0.424527 0
M  V30 15125 H 1467.3 1.81427 -1.80327 0
M  V30 15126 H 1466.95 3.79029 -3.38082 0
M  V30 15127 H 1466.88 4.88179 -1.97457 0
M  V30 15128 H 1469.37 3.33191 -1.78303 0
M  V30 15129 H 1469.68 6.49635 -4.18562 0
M  V30 15130 H 1468.03 5.84611 -3.75839 0
M  V30 15131 H 1471.22 4.08678 -2.28254 0
M  V30 15132 H 1471.39 5.52991 -3.37795 0
M  V30 15133 N 1464.8 0.627364 1.44575 0
M  V30 15134 C 1465.73 -0.066735 2.33405 0
M  V30 15135 C 1466.71 -0.838666 1.47988 0
M  V30 15136 O 1467.89 -0.805296 1.76716 0
M  V30 15137 C 1465.02 -1.05148 3.31 0
M  V30 15138 C 1463.98 -0.391433 4.26206 0
M  V30 15139 C 1463.3 -1.48581 5.13642 0
M  V30 15140 C 1464.6 0.699942 5.17589 0
M  V30 15141 H 1466.3 0.675029 2.91691 0
M  V30 15142 H 1463.84 0.326066 1.4026 0
M  V30 15143 H 1465.8 -1.54576 3.92026 0
M  V30 15144 H 1464.52 -1.82408 2.70915 0
M  V30 15145 H 1463.18 0.0821694 3.66508 0
M  V30 15146 H 1462.83 -2.2492 4.49911 0
M  V30 15147 H 1462.53 -1.04957 5.7815 0
M  V30 15148 H 1464.05 -1.98198 5.77538 0
M  V30 15149 H 1465.47 0.288911 5.72572 0
M  V30 15150 H 1463.86 1.0591 5.9068 0
M  V30 15151 H 1464.93 1.5686 4.58828 0
M  V30 15152 N 1466.28 -1.53251 0.367684 0
M  V30 15153 C 1467.21 -2.28728 -0.469676 0
M  V30 15154 C 1468.19 -1.3124 -1.08213 0
M  V30 15155 O 1469.37 -1.60112 -1.09898 0
M  V30 15156 C 1466.5 -3.07808 -1.60846 0
M  V30 15157 C 1465.46 -4.13 -1.12315 0
M  V30 15158 C 1464.78 -4.80176 -2.35234 0
M  V30 15159 C 1466.08 -5.21892 -0.2064 0
M  V30 15160 H 1467.78 -2.98972 0.160019 0
M  V30 15161 H 1465.32 -1.43786 0.0784011 0
M  V30 15162 H 1467.27 -3.59358 -2.20091 0
M  V30 15163 H 1466 -2.35258 -2.26542 0
M  V30 15164 H 1464.66 -3.62399 -0.553378 0
M  V30 15165 H 1464.31 -4.04196 -2.99391 0
M  V30 15166 H 1464.01 -5.51261 -2.03433 0
M  V30 15167 H 1465.53 -5.34521 -2.9516 0
M  V30 15168 H 1466.94 -5.68932 -0.706386 0
M  V30 15169 H 1465.34 -6.00096 0.0208362 0
M  V30 15170 H 1466.41 -4.79051 0.750851 0
M  V30 15171 N 1467.75 -0.0969077 -1.57302 0
M  V30 15172 C 1468.69 0.891431 -2.11154 0
M  V30 15173 C 1469.7 1.24482 -1.04919 0
M  V30 15174 O 1470.89 1.19762 -1.3236 0
M  V30 15175 C 1467.99 2.19998 -2.57787 0
M  V30 15176 C 1467.16 2.02165 -3.87876 0
M  V30 15177 C 1466.22 3.16549 -4.20337 0
M  V30 15178 O 1465.25 2.90432 -4.89528 0
M  V30 15179 N 1466.45 4.42369 -3.75885 0
M  V30 15180 H 1469.21 0.431477 -2.96578 0
M  V30 15181 H 1466.77 0.0881458 -1.6166 0
M  V30 15182 H 1468.77 2.95472 -2.76547 0
M  V30 15183 H 1467.34 2.57412 -1.77364 0
M  V30 15184 H 1466.56 1.11011 -3.78246 0
M  V30 15185 H 1467.84 1.87529 -4.7298 0
M  V30 15186 H 1467.24 4.66469 -3.20036 0
M  V30 15187 H 1465.8 5.14787 -3.99797 0
M  V30 15188 N 1469.23 1.56605 0.176793 0
M  V30 15189 C 1470.18 1.92393 1.22347 0
M  V30 15190 C 1471.17 0.791622 1.40079 0
M  V30 15191 O 1472.36 1.05474 1.42142 0
M  V30 15192 C 1469.49 2.28266 2.56417 0
M  V30 15193 C 1468.57 3.47997 2.42402 0
M  V30 15194 N 1468.96 4.65396 1.98092 0
M  V30 15195 C 1467.26 3.52496 2.73244 0
M  V30 15196 C 1467.96 5.47539 1.96409 0
M  V30 15197 N 1466.94 4.88434 2.38606 0
M  V30 15198 H 1470.74 2.8065 0.872507 0
M  V30 15199 H 1468.25 1.57768 0.385107 0
M  V30 15200 H 1470.25 2.52097 3.32043 0
M  V30 15201 H 1468.91 1.41345 2.92321 0
M  V30 15202 H 1469.92 4.89717 1.68515 0
M  V30 15203 H 1466.6 2.7604 3.13223 0
M  V30 15204 H 1467.99 6.51604 1.63896 0
M  V30 15205 N 1470.71 -0.445159 1.51182 0
M  V30 15206 C 1472.12 -1.02528 1.56028 0
M  V30 15207 C 1472.47 -1.92503 0.379087 0
M  V30 15208 O 1471.6 -2.10424 -0.505056 0
M  V30 15209 C 1472.19 -1.86621 2.82768 0
M  V30 15210 C 1470.75 -2.39697 2.90211 0
M  V30 15211 C 1469.9 -1.18705 2.50608 0
M  V30 15212 H 1472.85 -0.226732 1.57072 0
M  V30 15213 H 1472.87 -2.71987 2.66089 0
M  V30 15214 H 1472.38 -1.2111 3.68719 0
M  V30 15215 H 1470.48 -3.08686 2.08672 0
M  V30 15216 H 1470.6 -2.73029 3.9369 0
M  V30 15217 H 1468.96 -1.52995 2.03629 0
M  V30 15218 H 1469.74 -0.548156 3.38895 0
M  V30 15219 N 1472.19 -1.41197 -0.700089 0
M  V30 15220 C 1473.41 -1.43856 -1.494 0
M  V30 15221 C 1473.84 -0.0441877 -1.88048 0
M  V30 15222 O 1473.2 0.951503 -1.54325 0
M  V30 15223 C 1473.24 -2.34913 -2.73584 0
M  V30 15224 O 1472.35 -1.80305 -3.70896 0
M  V30 15225 H 1471.69 -0.488412 -0.449833 0
M  V30 15226 H 1474.22 -1.85606 -0.860911 0
M  V30 15227 H 1474.23 -2.50633 -3.21943 0
M  V30 15228 H 1472.9 -3.36229 -2.44791 0
M  V30 15229 H 1471.48 -1.74012 -3.29809 0
M  V30 15230 N 1473.67 0.933891 -1.2695 0
M  V30 15231 C 1474.91 1.67539 -1.1231 0
M  V30 15232 C 1475.23 1.92765 0.331788 0
M  V30 15233 O 1476.43 2.6481 0.598983 0
M  V30 15234 C 1474.89 3.01722 -1.96194 0
M  V30 15235 C 1474.5 2.84216 -3.46302 0
M  V30 15236 C 1476.24 3.79513 -1.90185 0
M  V30 15237 C 1474.15 4.13916 -4.22407 0
M  V30 15238 H 1473.08 0.62839 -0.416704 0
M  V30 15239 H 1475.73 1.03801 -1.5132 0
M  V30 15240 H 1474.11 3.66482 -1.50023 0
M  V30 15241 H 1475.29 2.28261 -4.00292 0
M  V30 15242 H 1473.6 2.1986 -3.53625 0
M  V30 15243 H 1476.2 4.75615 -2.44325 0
M  V30 15244 H 1476.54 4.07019 -0.874129 0
M  V30 15245 H 1477.07 3.21539 -2.34217 0
M  V30 15246 H 1473.81 3.91591 -5.25677 0
M  V30 15247 H 1473.33 4.69558 -3.73196 0
M  V30 15248 H 1475.01 4.82322 -4.31248 0
M  V30 15249 N 1475.14 1.08871 1.13951 0
M  V30 15250 C 1476.38 0.830861 1.86751 0
M  V30 15251 C 1476.75 -0.63195 1.81302 0
M  V30 15252 O 1477.95 -1.0055 2.49285 0
M  V30 15253 C 1476.22 1.34426 3.31156 0
M  V30 15254 S 1477.78 1.21942 4.21516 0
M  V30 15255 H 1474.6 0.300658 0.644302 0
M  V30 15256 H 1477.2 1.39095 1.37378 0
M  V30 15257 H 1475.9 2.40326 3.32674 0
M  V30 15258 H 1475.43 0.780048 3.85589 0
M  V30 15259 H 1477.45 0.166724 4.9592 0
M  V30 15260 N 1476.62 -1.31073 0.875073 0
M  V30 15261 C 1477.85 -2.01223 0.502383 0
M  V30 15262 C 1478.27 -1.65223 -0.899053 0
M  V30 15263 O 1477.63 -0.863559 -1.59412 0
M  V30 15264 C 1477.68 -3.54269 0.672747 0
M  V30 15265 O 1476.78 -4.11409 -0.285718 0
M  V30 15266 H 1476.12 -0.633422 0.199181 0
M  V30 15267 H 1478.65 -1.67152 1.17989 0
M  V30 15268 H 1478.66 -4.04027 0.567973 0
M  V30 15269 H 1477.34 -3.79811 1.69459 0
M  V30 15270 H 1475.91 -3.72654 -0.135472 0
M  V30 15271 N 1478.1 -0.635022 -1.4424 0
M  V30 15272 C 1479.38 -0.0718064 -1.95468 0
M  V30 15273 C 1479.76 1.40348 -1.57689 0
M  V30 15274 O 1479.11 2.11986 -0.852888 0
M  V30 15275 C 1479.32 -0.298793 -3.47719 0
M  V30 15276 C 1480.66 -0.194056 -4.24156 0
M  V30 15277 O 1481.69 -0.230368 -3.55454 0
M  V30 15278 O 1480.55 -0.102294 -5.46404 0
M  V30 15279 H 1477.64 0.0200784 -0.826756 0
M  V30 15280 H 1480.19 -0.706996 -1.54271 0
M  V30 15281 H 1478.96 -1.32233 -3.6828 0
M  V30 15282 H 1478.58 0.370347 -3.95871 0
M  V30 15283 N 1479.58 1.53054 -0.375806 0
M  V30 15284 C 1480.99 1.86426 0.101188 0
M  V30 15285 C 1481.34 1.29603 1.47301 0
M  V30 15286 O 1480.47 0.622059 2.07266 0
M  V30 15287 C 1481.06 3.38265 0.190389 0
M  V30 15288 C 1479.62 3.71397 0.611653 0
M  V30 15289 C 1478.77 2.76304 -0.234801 0
M  V30 15290 H 1481.72 1.47156 -0.594211 0
M  V30 15291 H 1481.74 3.66793 1.01207 0
M  V30 15292 H 1481.25 3.79592 -0.80818 0
M  V30 15293 H 1479.35 3.35632 1.61808 0
M  V30 15294 H 1479.46 4.77597 0.379168 0
M  V30 15295 H 1477.83 2.52952 0.297888 0
M  V30 15296 H 1478.61 3.20467 -1.2311 0
M  V30 15297 N 1481.06 0.105248 1.57248 0
M  V30 15298 C 1482.28 -0.564157 1.9906 0
M  V30 15299 C 1482.7 -1.61092 0.984624 0
M  V30 15300 O 1482.06 -1.82484 -0.0244031 0
M  V30 15301 C 1482.11 -1.20272 3.40906 0
M  V30 15302 O 1481.83 -0.197815 4.37653 0
M  V30 15303 C 1483.33 -1.95677 3.97776 0
M  V30 15304 H 1480.55 -0.150468 0.653912 0
M  V30 15305 H 1483.09 0.187532 2.03638 0
M  V30 15306 H 1481.25 -1.90528 3.3731 0
M  V30 15307 H 1481.66 -0.659998 5.20331 0
M  V30 15308 H 1483.14 -2.35702 4.99148 0
M  V30 15309 H 1483.61 -2.82661 3.36154 0
M  V30 15310 H 1484.22 -1.30215 4.04876 0
M  V30 15311 N 1482.53 -1.56697 -0.168486 0
M  V30 15312 C 1483.44 -1.99866 -1.22845 0
M  V30 15313 C 1484.46 -0.910491 -1.48277 0
M  V30 15314 O 1485.64 -1.21834 -1.6037 0
M  V30 15315 C 1482.7 -2.35227 -2.54694 0
M  V30 15316 C 1481.76 -3.57886 -2.37099 0
M  V30 15317 C 1481 -3.91551 -3.62661 0
M  V30 15318 O 1481.22 -3.26148 -4.67957 0
M  V30 15319 O 1480.15 -4.8489 -3.56603 0
M  V30 15320 H 1483.98 -2.90305 -0.892015 0
M  V30 15321 H 1481.56 -1.44602 -0.375571 0
M  V30 15322 H 1483.45 -2.58928 -3.32467 0
M  V30 15323 H 1482.12 -1.4795 -2.87911 0
M  V30 15324 H 1481.03 -3.394 -1.57348 0
M  V30 15325 H 1482.36 -4.45714 -2.08806 0
M  V30 15326 N 1484.01 0.437135 -1.51416 0
M  V30 15327 C 1484.92 1.55581 -1.75589 0
M  V30 15328 C 1485.94 1.61797 -0.640132 0
M  V30 15329 O 1487.11 1.79035 -0.922406 0
M  V30 15330 C 1484.18 2.91561 -1.87598 0
M  V30 15331 C 1483.24 2.9546 -3.11451 0
M  V30 15332 C 1482.47 4.24954 -3.22878 0
M  V30 15333 O 1482.7 5.17341 -2.40238 0
M  V30 15334 O 1481.63 4.35141 -4.15856 0
M  V30 15335 H 1485.46 1.38098 -2.70486 0
M  V30 15336 H 1483.04 0.620163 -1.3592 0
M  V30 15337 H 1484.92 3.72262 -1.97481 0
M  V30 15338 H 1483.6 3.09171 -0.958889 0
M  V30 15339 H 1482.51 2.13713 -3.07046 0
M  V30 15340 H 1483.84 2.82794 -4.0285 0
M  V30 15341 N 1485.49 1.41566 0.692592 0
M  V30 15342 C 1486.9 1.36606 1.27262 0
M  V30 15343 C 1487.25 0.0506082 1.96135 0
M  V30 15344 O 1486.38 -0.851071 1.98962 0
M  V30 15345 C 1486.97 2.47434 2.31434 0
M  V30 15346 C 1485.53 2.45863 2.85006 0
M  V30 15347 C 1484.68 2.2713 1.59083 0
M  V30 15348 H 1487.63 1.51038 0.487149 0
M  V30 15349 H 1487.65 2.16663 3.12789 0
M  V30 15350 H 1487.16 3.43161 1.81278 0
M  V30 15351 H 1485.26 1.53901 3.3933 0
M  V30 15352 H 1485.38 3.42279 3.35234 0
M  V30 15353 H 1483.74 1.75061 1.85002 0
M  V30 15354 H 1484.52 3.24887 1.10919 0
M  V30 15355 N 1486.97 -0.927146 1.27443 0
M  V30 15356 C 1488.2 -1.70896 1.16629 0
M  V30 15357 C 1488.61 -1.8676 -0.276811 0
M  V30 15358 O 1487.97 -1.38503 -1.18842 0
M  V30 15359 C 1488.02 -3.1083 1.84573 0
M  V30 15360 O 1487.74 -2.9571 3.23244 0
M  V30 15361 C 1489.24 -4.05159 1.79891 0
M  V30 15362 H 1486.46 -0.534638 0.405467 0
M  V30 15363 H 1489.01 -1.16134 1.68325 0
M  V30 15364 H 1487.16 -3.6245 1.3678 0
M  V30 15365 H 1487.57 -3.84181 3.57079 0
M  V30 15366 H 1489.05 -5.00859 2.32044 0
M  V30 15367 H 1489.53 -4.32426 0.768373 0
M  V30 15368 H 1490.13 -3.59464 2.273 0
M  V30 15369 N 1488.45 -1.09474 -1.13372 0
M  V30 15370 C 1489.41 -0.738173 -2.16988 0
M  V30 15371 C 1490.41 0.232488 -1.5911 0
M  V30 15372 O 1491.6 0.0106093 -1.74197 0
M  V30 15373 C 1488.73 -0.091724 -3.40777 0
M  V30 15374 H 1489.92 -1.65582 -2.50045 0
M  V30 15375 H 1487.48 -0.893994 -1.28209 0
M  V30 15376 H 1488.21 0.837129 -3.13309 0
M  V30 15377 H 1488 -0.790161 -3.84056 0
M  V30 15378 H 1489.49 0.142334 -4.17357 0
M  V30 15379 N 1489.92 1.30607 -0.882012 0
M  V30 15380 C 1490.85 2.30666 -0.362706 0
M  V30 15381 C 1491.84 1.60865 0.552861 0
M  V30 15382 O 1493.02 1.88493 0.467339 0
M  V30 15383 C 1490.15 3.44675 0.42622 0
M  V30 15384 C 1489.1 4.26152 -0.397322 0
M  V30 15385 C 1488.43 5.32185 0.518027 0
M  V30 15386 C 1489.73 4.95955 -1.63785 0
M  V30 15387 H 1491.42 2.74351 -1.19883 0
M  V30 15388 H 1488.97 1.31895 -0.577912 0
M  V30 15389 H 1490.92 4.13734 0.80013 0
M  V30 15390 H 1489.65 2.99787 1.29597 0
M  V30 15391 H 1488.31 3.58776 -0.753332 0
M  V30 15392 H 1487.95 4.83545 1.3854 0
M  V30 15393 H 1487.65 5.87593 -0.0291802 0
M  V30 15394 H 1489.18 6.04101 0.888518 0
M  V30 15395 H 1490.59 5.57547 -1.3347 0
M  V30 15396 H 1488.99 5.61215 -2.12504 0
M  V30 15397 H 1490.06 4.22252 -2.38394 0
M  V30 15398 N 1491.4 0.642663 1.43901 0
M  V30 15399 C 1492.63 0.159202 2.06287 0
M  V30 15400 C 1493.05 -1.17091 1.48105 0
M  V30 15401 O 1492.4 -1.72064 0.608302 0
M  V30 15402 C 1492.45 0.0506891 3.61464 0
M  V30 15403 O 1492.17 1.32821 4.17481 0
M  V30 15404 C 1493.68 -0.460103 4.40906 0
M  V30 15405 H 1490.9 0.085003 0.665594 0
M  V30 15406 H 1493.44 0.880328 1.84582 0
M  V30 15407 H 1491.59 -0.620938 3.82391 0
M  V30 15408 H 1492.01 1.18053 5.11042 0
M  V30 15409 H 1493.48 -0.48501 5.49865 0
M  V30 15410 H 1493.96 -1.4894 4.13175 0
M  V30 15411 H 1494.57 0.178668 4.24925 0
M  V30 15412 N 1492.88 -1.52852 0.383918 0
M  V30 15413 C 1493.84 -2.24904 -0.441687 0
M  V30 15414 C 1494.84 -1.26345 -0.99466 0
M  V30 15415 O 1496.03 -1.50484 -0.877513 0
M  V30 15416 C 1493.17 -2.99994 -1.61915 0
M  V30 15417 H 1494.36 -2.99304 0.189047 0
M  V30 15418 H 1491.91 -1.55708 0.135932 0
M  V30 15419 H 1492.65 -2.29882 -2.28746 0
M  V30 15420 H 1492.43 -3.72328 -1.2294 0
M  V30 15421 H 1493.92 -3.54716 -2.20378 0
M  V30 15422 N 1494.36 -0.113586 -1.5719 0
M  V30 15423 C 1495.61 0.544642 -1.94623 0
M  V30 15424 C 1495.93 1.6756 -0.997428 0
M  V30 15425 O 1495.2 1.95829 -0.0527521 0
M  V30 15426 H 1493.78 0.204186 -0.718552 0
M  V30 15427 H 1496.44 -0.181258 -1.94055 0
M  V30 15428 H 1495.54 0.942765 -2.9752 0
M  V30 15429 N 1495.84 1.56784 0.160173 0
M  V30 15430 C 1496.77 1.93848 1.22293 0
M  V30 15431 C 1497.78 0.832803 1.39886 0
M  V30 15432 O 1498.97 1.11124 1.39692 0
M  V30 15433 C 1496.07 2.18581 2.58989 0
M  V30 15434 C 1495.24 3.49839 2.62548 0
M  V30 15435 C 1494.3 3.63268 3.80687 0
M  V30 15436 O 1493.33 4.35785 3.6617 0
M  V30 15437 N 1494.53 2.98948 4.97605 0
M  V30 15438 H 1497.3 2.85614 0.908004 0
M  V30 15439 H 1494.86 1.58075 0.349851 0
M  V30 15440 H 1496.85 2.24819 3.36509 0
M  V30 15441 H 1495.42 1.33145 2.82827 0
M  V30 15442 H 1494.64 3.5516 1.7104 0
M  V30 15443 H 1495.93 4.3619 2.61945 0
M  V30 15444 H 1495.33 2.39924 5.12302 0
M  V30 15445 H 1493.88 3.10765 5.72947 0
M  V30 15446 N 1497.32 -0.429099 1.51646 0
M  V30 15447 C 1498.54 -1.20465 1.68828 0
M  V30 15448 C 1498.97 -1.84044 0.388514 0
M  V30 15449 O 1498.32 -1.69165 -0.652152 0
M  V30 15450 C 1498.37 -2.25831 2.81128 0
M  V30 15451 O 1497.48 -3.31511 2.45305 0
M  V30 15452 H 1496.82 -0.352568 0.562665 0
M  V30 15453 H 1499.35 -0.505698 1.98252 0
M  V30 15454 H 1499.36 -2.70484 3.05455 0
M  V30 15455 H 1498.03 -1.78934 3.7544 0
M  V30 15456 H 1496.61 -2.92277 2.31579 0
M  V30 15457 N 1498.79 -1.41931 -0.685074 0
M  V30 15458 C 1500.02 -1.45229 -1.47364 0
M  V30 15459 C 1500.44 -0.060595 -1.88703 0
M  V30 15460 O 1499.79 0.92244 -1.57472 0
M  V30 15461 C 1499.84 -2.37033 -2.72942 0
M  V30 15462 O 1499.57 -3.70787 -2.33342 0
M  V30 15463 C 1501.07 -2.49244 -3.66596 0
M  V30 15464 H 1498.29 -0.494291 -0.453781 0
M  V30 15465 H 1500.83 -1.86333 -0.84263 0
M  V30 15466 H 1498.99 -1.9921 -3.32256 0
M  V30 15467 H 1499.4 -4.19853 -3.14362 0
M  V30 15468 H 1500.87 -3.17624 -4.51463 0
M  V30 15469 H 1501.35 -1.52703 -4.11799 0
M  V30 15470 H 1501.96 -2.87747 -3.1318 0
M  V30 15471 N 1500.27 0.920374 -1.27933 0
M  V30 15472 C 1501.5 1.70804 -1.17647 0
M  V30 15473 C 1501.92 1.86264 0.262189 0
M  V30 15474 O 1501.28 1.36798 1.18979 0
M  V30 15475 C 1501.33 3.08142 -1.87298 0
M  V30 15476 O 1500.43 3.95279 -1.17593 0
M  V30 15477 H 1499.77 0.523267 -0.408763 0
M  V30 15478 H 1502.3 1.15127 -1.69136 0
M  V30 15479 H 1502.31 3.58414 -1.94945 0
M  V30 15480 H 1500.99 2.96208 -2.91948 0
M  V30 15481 H 1499.56 3.53716 -1.18065 0
M  V30 15482 N 1501.75 1.10074 1.1279 0
M  V30 15483 C 1502.66 0.758458 2.22001 0
M  V30 15484 C 1503.68 -0.242438 1.72303 0
M  V30 15485 O 1504.85 -0.0821223 2.01233 0
M  V30 15486 C 1501.92 0.191326 3.46172 0
M  V30 15487 C 1500.98 1.24902 4.10729 0
M  V30 15488 C 1500.21 0.708857 5.28972 0
M  V30 15489 O 1500.43 -0.465993 5.68493 0
M  V30 15490 O 1499.37 1.46703 5.83748 0
M  V30 15491 H 1503.19 1.66997 2.53665 0
M  V30 15492 H 1500.78 0.875604 1.21052 0
M  V30 15493 H 1502.66 -0.121292 4.21225 0
M  V30 15494 H 1501.34 -0.693094 3.16193 0
M  V30 15495 H 1500.24 1.61444 3.37471 0
M  V30 15496 H 1501.58 2.10632 4.44854 0
M  V30 15497 N 1503.23 -1.30138 0.888926 0
M  V30 15498 C 1504.46 -2.00143 0.524437 0
M  V30 15499 C 1504.87 -1.66608 -0.888093 0
M  V30 15500 O 1504.23 -0.905326 -1.58462 0
M  V30 15501 C 1504.28 -3.54769 0.694327 0
M  V30 15502 O 1504 -3.87112 2.05125 0
M  V30 15503 C 1505.5 -4.42045 0.333354 0
M  V30 15504 H 1502.72 -0.639775 0.202309 0
M  V30 15505 H 1505.26 -1.65929 1.19531 0
M  V30 15506 H 1503.42 -3.87335 0.0707712 0
M  V30 15507 H 1503.83 -4.81807 2.07275 0
M  V30 15508 H 1505.31 -5.49702 0.503107 0
M  V30 15509 H 1505.78 -4.33109 -0.728893 0
M  V30 15510 H 1506.39 -4.14931 0.933398 0
M  V30 15511 N 1504.71 -0.650285 -1.43559 0
M  V30 15512 C 1505.64 0.0817484 -2.29054 0
M  V30 15513 C 1506.65 0.790023 -1.42346 0
M  V30 15514 O 1507.84 0.648269 -1.66312 0
M  V30 15515 C 1504.94 1.13873 -3.19196 0
M  V30 15516 C 1504.11 0.509177 -4.34426 0
M  V30 15517 C 1503.17 1.46265 -5.05463 0
M  V30 15518 O 1502.2 0.972378 -5.60833 0
M  V30 15519 N 1503.4 2.79668 -5.08691 0
M  V30 15520 H 1506.16 -0.652062 -2.92521 0
M  V30 15521 H 1503.73 -0.49285 -1.54216 0
M  V30 15522 H 1505.72 1.77732 -3.63584 0
M  V30 15523 H 1504.29 1.77454 -2.5735 0
M  V30 15524 H 1503.51 -0.308444 -3.92991 0
M  V30 15525 H 1504.8 0.0695732 -5.08752 0
M  V30 15526 H 1504.19 3.22062 -4.65072 0
M  V30 15527 H 1502.75 3.38838 -5.56805 0
M  V30 15528 N 1506.18 1.52647 -0.392018 0
M  V30 15529 C 1507.09 2.30261 0.449093 0
M  V30 15530 C 1508.11 1.37286 1.06905 0
M  V30 15531 O 1509.29 1.70357 1.07427 0
M  V30 15532 C 1506.35 3.09636 1.55969 0
M  V30 15533 C 1505.41 4.18324 0.964566 0
M  V30 15534 C 1504.64 4.93904 2.02224 0
M  V30 15535 O 1504.87 4.69603 3.23773 0
M  V30 15536 O 1503.8 5.79183 1.63802 0
M  V30 15537 H 1507.63 3.03147 -0.183269 0
M  V30 15538 H 1505.21 1.48587 -0.155664 0
M  V30 15539 H 1507.09 3.59118 2.20482 0
M  V30 15540 H 1505.77 2.39561 2.17697 0
M  V30 15541 H 1504.68 3.73031 0.282618 0
M  V30 15542 H 1506.01 4.90641 0.391466 0
M  V30 15543 N 1507.66 0.121921 1.57128 0
M  V30 15544 C 1508.91 -0.534313 1.94909 0
M  V30 15545 C 1509.23 -1.67029 1.0063 0
M  V30 15546 O 1508.5 -1.95798 0.0631366 0
M  V30 15547 H 1507.08 -0.200372 0.719625 0
M  V30 15548 H 1509.74 0.191546 1.93956 0
M  V30 15549 H 1508.84 -0.926974 2.98016 0
M  V30 15550 N 1509.14 -1.56867 -0.151857 0
M  V30 15551 C 1510.39 -1.82721 -0.863575 0
M  V30 15552 C 1510.71 -0.702042 -1.81924 0
M  V30 15553 O 1509.98 0.27668 -1.93936 0
M  V30 15554 H 1508.56 -0.674088 -0.321893 0
M  V30 15555 H 1511.22 -1.94345 -0.14702 0
M  V30 15556 H 1510.32 -2.77476 -1.42876 0
M  V30 15557 N 1510.62 0.421051 -1.51871 0
M  V30 15558 C 1511.57 1.5122 -1.74359 0
M  V30 15559 C 1512.54 1.55432 -0.585667 0
M  V30 15560 O 1513.72 1.7219 -0.821912 0
M  V30 15561 C 1510.86 2.88787 -1.88935 0
M  V30 15562 C 1509.97 2.93977 -3.16546 0
M  V30 15563 C 1509.11 4.22768 -3.21622 0
M  V30 15564 C 1508.15 4.21888 -4.43483 0
M  V30 15565 N 1507.28 5.4223 -4.46017 0
M  V30 15566 H 1512.12 1.31348 -2.67492 0
M  V30 15567 H 1509.66 0.637779 -1.32555 0
M  V30 15568 H 1511.62 3.68629 -1.95368 0
M  V30 15569 H 1510.25 3.07181 -0.991942 0
M  V30 15570 H 1509.3 2.06699 -3.19343 0
M  V30 15571 H 1510.61 2.8919 -4.06412 0
M  V30 15572 H 1509.77 5.10995 -3.27061 0
M  V30 15573 H 1508.51 4.30234 -2.29674 0
M  V30 15574 H 1507.51 3.32052 -4.38202 0
M  V30 15575 H 1508.74 4.16072 -5.36713 0
M  V30 15576 H 1506.68 5.50386 -3.56947 0
M  V30 15577 H 1506.6 5.39389 -5.29713 0
M  V30 15578 H 1507.87 6.32443 -4.55671 0
M  V30 15579 N 1512.1 1.42293 0.677538 0
M  V30 15580 C 1513.04 1.45556 1.79114 0
M  V30 15581 C 1514.01 0.307826 1.63223 0
M  V30 15582 O 1515.2 0.511504 1.83816 0
M  V30 15583 C 1512.34 1.36104 3.17127 0
M  V30 15584 C 1511.45 2.60891 3.44325 0
M  V30 15585 C 1510.59 2.43601 4.72051 0
M  V30 15586 C 1509.63 3.63775 4.92274 0
M  V30 15587 N 1508.76 3.45444 6.11239 0
M  V30 15588 H 1513.6 2.40723 1.7566 0
M  V30 15589 H 1511.14 1.19517 0.857565 0
M  V30 15590 H 1513.1 1.28622 3.96878 0
M  V30 15591 H 1511.73 0.445342 3.19713 0
M  V30 15592 H 1510.78 2.78751 2.58848 0
M  V30 15593 H 1512.09 3.50229 3.55163 0
M  V30 15594 H 1511.25 2.33689 5.59888 0
M  V30 15595 H 1509.98 1.51748 4.63491 0
M  V30 15596 H 1508.99 3.74122 4.0288 0
M  V30 15597 H 1510.21 4.56605 5.02681 0
M  V30 15598 H 1508.16 2.56306 6.03857 0
M  V30 15599 H 1508.08 4.28368 6.22926 0
M  V30 15600 H 1509.35 3.39339 7.01762 0
M  V30 15601 N 1513.57 -0.913576 1.28419 0
M  V30 15602 C 1514.54 -1.99757 1.12382 0
M  V30 15603 C 1515.54 -1.60675 0.063435 0
M  V30 15604 O 1516.73 -1.71433 0.30923 0
M  V30 15605 C 1513.86 -3.33307 0.715506 0
M  V30 15606 H 1515.05 -2.15414 2.08655 0
M  V30 15607 H 1512.61 -1.09626 1.11408 0
M  V30 15608 H 1513.34 -3.23351 -0.247977 0
M  V30 15609 H 1513.13 -3.63034 1.4815 0
M  V30 15610 H 1514.62 -4.12882 0.625953 0
M  V30 15611 N 1515.05 -1.1067 -1.12204 0
M  V30 15612 C 1516.02 -0.761145 -2.16193 0
M  V30 15613 C 1517.02 0.215599 -1.59348 0
M  V30 15614 O 1518.21 -0.00786723 -1.74198 0
M  V30 15615 C 1515.34 -0.127863 -3.4066 0
M  V30 15616 H 1516.53 -1.68225 -2.48275 0
M  V30 15617 H 1514.08 -0.907542 -1.27253 0
M  V30 15618 H 1514.82 0.803851 -3.14179 0
M  V30 15619 H 1514.6 -0.83085 -3.83196 0
M  V30 15620 H 1516.09 0.0980593 -4.17485 0
M  V30 15621 N 1516.53 1.29665 -0.895815 0
M  V30 15622 C 1517.46 2.30268 -0.387151 0
M  V30 15623 C 1518.44 1.61442 0.535768 0
M  V30 15624 O 1519.63 1.88978 0.447321 0
M  V30 15625 C 1516.76 3.45107 0.389639 0
M  V30 15626 C 1515.71 4.25706 -0.442498 0
M  V30 15627 C 1515.04 5.32704 0.461552 0
M  V30 15628 C 1516.34 4.9419 -1.69036 0
M  V30 15629 H 1518.03 2.73064 -1.22786 0
M  V30 15630 H 1515.58 1.31274 -0.591869 0
M  V30 15631 H 1517.53 4.14559 0.756203 0
M  V30 15632 H 1516.25 3.01145 1.2641 0
M  V30 15633 H 1514.91 3.57957 -0.791343 0
M  V30 15634 H 1514.56 4.84987 1.33403 0
M  V30 15635 H 1514.26 5.87529 -0.0915006 0
M  V30 15636 H 1515.78 6.05009 0.824395 0
M  V30 15637 H 1517.2 5.561 -1.39376 0
M  V30 15638 H 1515.6 5.5893 -2.18444 0
M  V30 15639 H 1516.67 4.19699 -2.42859 0
M  V30 15640 N 1518.01 0.657889 1.43212 0
M  V30 15641 C 1519.26 0.172845 2.0136 0
M  V30 15642 C 1519.58 -1.21911 1.52193 0
M  V30 15643 O 1518.85 -1.81529 0.736492 0
M  V30 15644 H 1517.43 0.0609091 0.744513 0
M  V30 15645 H 1520.09 0.850605 1.75359 0
M  V30 15646 H 1519.19 0.161062 3.11684 0
M  V30 15647 N 1519.49 -1.52437 0.400108 0
M  V30 15648 C 1520.45 -2.2536 -0.417808 0
M  V30 15649 C 1521.45 -1.27393 -0.981204 0
M  V30 15650 O 1522.64 -1.51406 -0.861503 0
M  V30 15651 C 1519.77 -3.01695 -1.58724 0
M  V30 15652 H 1520.96 -2.99086 0.220782 0
M  V30 15653 H 1518.52 -1.55555 0.152439 0
M  V30 15654 H 1519.25 -2.32295 -2.26295 0
M  V30 15655 H 1519.04 -3.73611 -1.18984 0
M  V30 15656 H 1520.53 -3.57033 -2.16604 0
M  V30 15657 N 1520.96 -0.130252 -1.57061 0
M  V30 15658 C 1522.21 0.525784 -1.95866 0
M  V30 15659 C 1522.54 1.65607 -1.01429 0
M  V30 15660 O 1521.82 1.94426 -0.0535544 0
M  V30 15661 C 1522.1 1.04784 -3.44517 0
M  V30 15662 C 1521.95 -0.0797972 -4.49729 0
M  V30 15663 C 1523.27 1.9351 -3.95275 0
M  V30 15664 H 1520.39 0.189652 -0.71218 0
M  V30 15665 H 1523.03 -0.208091 -1.88857 0
M  V30 15666 H 1521.18 1.67324 -3.50621 0
M  V30 15667 H 1522.86 -0.715535 -4.55717 0
M  V30 15668 H 1521.1 -0.741358 -4.27418 0
M  V30 15669 H 1521.77 0.326915 -5.51031 0
M  V30 15670 H 1524.25 1.40825 -3.91545 0
M  V30 15671 H 1523.12 2.26952 -4.99784 0
M  V30 15672 H 1523.38 2.86583 -3.36634 0
M  V30 15673 N 1522.44 1.56945 0.143535 0
M  V30 15674 C 1523.85 1.72949 0.703249 0
M  V30 15675 C 1524.21 0.745193 1.81497 0
M  V30 15676 O 1523.33 -0.0874144 2.16223 0
M  V30 15677 C 1523.93 3.1359 1.28244 0
M  V30 15678 C 1522.48 3.31184 1.78869 0
M  V30 15679 C 1521.63 2.6887 0.678531 0
M  V30 15680 H 1524.58 1.58487 -0.0821664 0
M  V30 15681 H 1524.6 3.13782 2.15224 0
M  V30 15682 H 1524.12 3.85206 0.473087 0
M  V30 15683 H 1522.22 2.64571 2.6236 0
M  V30 15684 H 1522.33 4.39163 1.91502 0
M  V30 15685 H 1520.69 2.29432 1.10603 0
M  V30 15686 H 1521.48 3.43092 -0.119437 0
M  V30 15687 N 1523.92 -0.412991 1.52093 0
M  V30 15688 C 1525.17 -1.15737 1.65191 0
M  V30 15689 C 1525.48 -1.91753 0.38601 0
M  V30 15690 O 1526.69 -2.68586 0.396731 0
M  V30 15691 C 1525.15 -2.10619 2.91835 0
M  V30 15692 C 1524.75 -1.40137 4.25518 0
M  V30 15693 C 1526.5 -2.85339 3.14296 0
M  V30 15694 C 1524.4 -2.33645 5.4329 0
M  V30 15695 H 1523.33 -0.435732 0.615348 0
M  V30 15696 H 1525.99 -0.422172 1.78578 0
M  V30 15697 H 1524.37 -2.87675 2.72138 0
M  V30 15698 H 1525.54 -0.684719 4.55684 0
M  V30 15699 H 1523.86 -0.774734 4.09129 0
M  V30 15700 H 1526.45 -3.55437 3.99461 0
M  V30 15701 H 1526.8 -3.48071 2.28369 0
M  V30 15702 H 1527.33 -2.15384 3.34447 0
M  V30 15703 H 1524.07 -1.75566 6.31551 0
M  V30 15704 H 1523.59 -3.03294 5.17467 0
M  V30 15705 H 1525.27 -2.94255 5.76215 0
M  V30 15706 N 1525.4 -1.4265 -0.669982 0
M  V30 15707 C 1526.62 -1.46992 -1.46315 0
M  V30 15708 C 1527.05 -0.0840655 -1.87912 0
M  V30 15709 O 1526.41 0.918554 -1.56308 0
M  V30 15710 C 1526.46 -2.40663 -2.6854 0
M  V30 15711 O 1525.56 -1.88132 -3.66988 0
M  V30 15712 H 1524.9 -0.497844 -0.439372 0
M  V30 15713 H 1527.43 -1.8739 -0.821348 0
M  V30 15714 H 1527.44 -2.57405 -3.16554 0
M  V30 15715 H 1526.12 -3.41346 -2.37604 0
M  V30 15716 H 1524.69 -1.80969 -3.26044 0
M  V30 15717 N 1526.88 0.906753 -1.28902 0
M  V30 15718 C 1528.13 1.6533 -1.16234 0
M  V30 15719 C 1528.45 1.92861 0.288004 0
M  V30 15720 O 1527.72 1.54971 1.19837 0
M  V30 15721 H 1526.3 0.612806 -0.427174 0
M  V30 15722 H 1528.96 1.08764 -1.6173 0
M  V30 15723 H 1528.05 2.61271 -1.70715 0
M  V30 15724 N 1528.36 1.11264 1.11616 0
M  V30 15725 C 1529.3 0.769295 2.17602 0
M  V30 15726 C 1530.27 -0.258362 1.64078 0
M  V30 15727 O 1531.46 -0.135698 1.90317 0
M  V30 15728 C 1528.6 0.216647 3.44419 0
M  V30 15729 C 1527.71 1.30064 4.11955 0
M  V30 15730 C 1526.85 0.708729 5.26451 0
M  V30 15731 C 1525.88 1.7727 5.85868 0
M  V30 15732 N 1525.02 1.20042 6.91762 0
M  V30 15733 H 1529.86 1.67727 2.46316 0
M  V30 15734 H 1527.4 0.83764 1.20921 0
M  V30 15735 H 1529.36 -0.121724 4.17022 0
M  V30 15736 H 1527.99 -0.654525 3.16095 0
M  V30 15737 H 1527.04 1.756 3.37445 0
M  V30 15738 H 1528.35 2.1057 4.52174 0
M  V30 15739 H 1527.5 0.320307 6.05854 0
M  V30 15740 H 1526.24 -0.127668 4.87533 0
M  V30 15741 H 1525.25 2.17046 5.05145 0
M  V30 15742 H 1526.47 2.6121 6.26854 0
M  V30 15743 H 1524.42 0.385633 6.54866 0
M  V30 15744 H 1524.34 1.94221 7.30626 0
M  V30 15745 H 1525.6 0.838825 7.74974 0
M  V30 15746 N 1529.83 -1.29188 0.902679 0
M  V30 15747 C 1530.8 -2.25901 0.387485 0
M  V30 15748 C 1531.8 -1.53469 -0.479993 0
M  V30 15749 O 1532.99 -1.71859 -0.284623 0
M  V30 15750 C 1530.12 -3.37974 -0.445723 0
M  V30 15751 H 1531.31 -2.72988 1.24167 0
M  V30 15752 H 1528.86 -1.4068 0.681083 0
M  V30 15753 H 1529.6 -2.9623 -1.31977 0
M  V30 15754 H 1529.38 -3.91705 0.175899 0
M  V30 15755 H 1530.87 -4.09917 -0.797384 0
M  V30 15756 N 1531.31 -0.665475 -1.42861 0
M  V30 15757 C 1532.56 -0.183521 -2.01265 0
M  V30 15758 C 1532.88 1.21103 -1.52837 0
M  V30 15759 O 1532.15 1.81135 -0.746109 0
M  V30 15760 H 1530.73 -0.0648565 -0.744179 0
M  V30 15761 H 1533.39 -0.859893 -1.74905 0
M  V30 15762 H 1532.49 -0.177589 -3.11594 0
M  V30 15763 N 1532.79 1.52222 -0.408187 0
M  V30 15764 C 1534.21 1.59491 -0.0590201 0
M  V30 15765 C 1534.41 1.42109 1.42854 0
M  V30 15766 O 1533.46 1.24757 2.19527 0
M  V30 15767 C 1534.77 2.9557 -0.553093 0
M  V30 15768 C 1536.32 3.08801 -0.510986 0
M  V30 15769 C 1536.8 4.47358 -0.981554 0
M  V30 15770 N 1538.29 4.53596 -0.938335 0
M  V30 15771 C 1539.02 5.59076 -1.27364 0
M  V30 15772 N 1538.52 6.72113 -1.68035 0
M  V30 15773 N 1540.31 5.49279 -1.19367 0
M  V30 15774 H 1532.46 1.61768 -1.37641 0
M  V30 15775 H 1534.73 0.760959 -0.565372 0
M  V30 15776 H 1534.43 3.13566 -1.59276 0
M  V30 15777 H 1534.31 3.77181 0.0377629 0
M  V30 15778 H 1536.69 2.90489 0.519637 0
M  V30 15779 H 1536.77 2.29098 -1.13788 0
M  V30 15780 H 1536.42 4.66413 -2.0105 0
M  V30 15781 H 1536.35 5.25556 -0.331478 0
M  V30 15782 H 1538.84 3.72453 -0.639297 0
M  V30 15783 H 1539.15 7.48586 -1.91934 0
M  V30 15784 H 1537.5 6.73396 -1.71938 0
M  V30 15785 H 1540.69 4.59853 -0.8748 0
M  V30 15786 H 1540.86 6.31378 -1.45829 0
M  V30 15787 N 1534.27 0.138579 1.5699 0
M  V30 15788 C 1535.68 -0.383633 1.82716 0
M  V30 15789 C 1536.03 -1.65304 1.05684 0
M  V30 15790 O 1535.15 -2.14318 0.299488 0
M  V30 15791 C 1535.75 -0.7028 3.3143 0
M  V30 15792 C 1534.31 -1.16957 3.57768 0
M  V30 15793 C 1533.46 -0.188295 2.7666 0
M  V30 15794 H 1536.41 0.363415 1.54483 0
M  V30 15795 H 1536.43 -1.55832 3.47126 0
M  V30 15796 H 1535.94 0.221271 3.87469 0
M  V30 15797 H 1534.04 -2.10987 3.07108 0
M  V30 15798 H 1534.15 -1.10136 4.66269 0
M  V30 15799 H 1532.52 -0.679255 2.45475 0
M  V30 15800 H 1533.3 0.729218 3.35466 0
M  V30 15801 N 1535.75 -1.57019 -0.13521 0
M  V30 15802 C 1536.99 -1.84262 -0.847071 0
M  V30 15803 C 1537.32 -0.721946 -1.80282 0
M  V30 15804 O 1536.6 0.273535 -1.92567 0
M  V30 15805 C 1536.88 -3.22043 -1.61123 0
M  V30 15806 C 1536.74 -4.44689 -0.67617 0
M  V30 15807 C 1538.05 -3.57188 -2.57108 0
M  V30 15808 H 1535.17 -0.670246 -0.306496 0
M  V30 15809 H 1537.82 -1.89671 -0.111843 0
M  V30 15810 H 1535.97 -3.17563 -2.23799 0
M  V30 15811 H 1537.64 -4.61262 -0.0595009 0
M  V30 15812 H 1535.88 -4.33798 0.0134526 0
M  V30 15813 H 1536.55 -5.37727 -1.24714 0
M  V30 15814 H 1539.03 -3.62354 -2.04545 0
M  V30 15815 H 1537.9 -4.54602 -3.07617 0
M  V30 15816 H 1538.16 -2.83758 -3.39019 0
M  V30 15817 N 1537.22 0.404919 -1.52309 0
M  V30 15818 C 1538.16 1.51471 -1.7068 0
M  V30 15819 C 1539.14 1.52856 -0.554425 0
M  V30 15820 O 1540.32 1.715 -0.782294 0
M  V30 15821 C 1537.45 2.8999 -1.74995 0
M  V30 15822 C 1536.49 3.06499 -2.96581 0
M  V30 15823 S 1537.33 2.7937 -4.56851 0
M  V30 15824 C 1538.48 4.20112 -4.63958 0
M  V30 15825 H 1538.71 1.35661 -2.64544 0
M  V30 15826 H 1536.25 0.596769 -1.42401 0
M  V30 15827 H 1538.21 3.6982 -1.78167 0
M  V30 15828 H 1536.87 3.03139 -0.822517 0
M  V30 15829 H 1536.06 4.07853 -2.96095 0
M  V30 15830 H 1535.66 2.34541 -2.91319 0
M  V30 15831 H 1537.95 5.13811 -4.41594 0
M  V30 15832 H 1538.9 4.2562 -5.6591 0
M  V30 15833 H 1539.3 4.05279 -3.9295 0
M  V30 15834 N 1538.7 1.43003 0.662408 0
M  V30 15835 C 1540.11 1.39275 1.24336 0
M  V30 15836 C 1540.46 0.0921999 1.95983 0
M  V30 15837 O 1539.59 -0.808677 2.00722 0
M  V30 15838 C 1540.18 2.52287 2.26134 0
M  V30 15839 C 1538.74 2.51853 2.79727 0
M  V30 15840 C 1537.89 2.30453 1.5423 0
M  V30 15841 H 1540.84 1.52038 0.455002 0
M  V30 15842 H 1540.86 2.23249 3.08123 0
M  V30 15843 H 1540.37 3.46929 1.73959 0
M  V30 15844 H 1538.48 1.61064 3.3599 0
M  V30 15845 H 1538.59 3.49313 3.27898 0
M  V30 15846 H 1536.95 1.78946 1.81247 0
M  V30 15847 H 1537.74 3.27167 1.04003 0
M  V30 15848 N 1540.18 -0.899904 1.29381 0
M  V30 15849 C 1541.59 -1.46563 1.15655 0
M  V30 15850 C 1541.94 -1.94622 -0.248375 0
M  V30 15851 O 1541.07 -1.83698 -1.14386 0
M  V30 15852 C 1541.66 -2.66384 2.09344 0
M  V30 15853 C 1540.22 -3.19093 1.99641 0
M  V30 15854 C 1539.37 -1.91786 2.00283 0
M  V30 15855 H 1542.32 -0.711264 1.41869 0
M  V30 15856 H 1542.34 -3.42111 1.66554 0
M  V30 15857 H 1541.85 -2.31376 3.11587 0
M  V30 15858 H 1539.95 -3.58795 1.00485 0
M  V30 15859 H 1540.07 -3.83405 2.87293 0
M  V30 15860 H 1538.43 -2.09482 1.44878 0
M  V30 15861 H 1539.21 -1.59055 3.04231 0
M  V30 15862 N 1541.66 -1.11854 -1.11024 0
M  V30 15863 C 1543.07 -0.885443 -1.64368 0
M  V30 15864 C 1543.42 0.581455 -1.87386 0
M  V30 15865 O 1542.55 1.44452 -1.61129 0
M  V30 15866 C 1543.14 -1.60082 -2.98595 0
M  V30 15867 C 1541.7 -1.41403 -3.4883 0
M  V30 15868 C 1540.85 -1.64069 -2.23555 0
M  V30 15869 H 1543.8 -1.27418 -0.94606 0
M  V30 15870 H 1543.82 -1.04832 -3.65774 0
M  V30 15871 H 1543.33 -2.66842 -2.8181 0
M  V30 15872 H 1541.43 -0.368727 -3.70771 0
M  V30 15873 H 1541.54 -2.16603 -4.27341 0
M  V30 15874 H 1539.91 -1.06437 -2.31394 0
M  V30 15875 H 1540.69 -2.72112 -2.09308 0
M  V30 15876 N 1543.14 1.28707 -0.909517 0
M  V30 15877 C 1544.07 2.26481 -0.35198 0
M  V30 15878 C 1545.08 1.54698 0.507199 0
M  V30 15879 O 1546.27 1.75558 0.322765 0
M  V30 15880 C 1543.37 3.3495 0.515897 0
M  V30 15881 C 1542.54 4.36229 -0.3198 0
M  V30 15882 C 1541.6 5.23983 0.482483 0
M  V30 15883 O 1540.63 5.69106 -0.10347 0
M  V30 15884 N 1541.83 5.52328 1.78645 0
M  V30 15885 H 1544.6 2.74959 -1.19238 0
M  V30 15886 H 1542.16 1.42144 -0.775023 0
M  V30 15887 H 1544.15 3.90592 1.05925 0
M  V30 15888 H 1542.72 2.86214 1.257 0
M  V30 15889 H 1541.94 3.80109 -1.04454 0
M  V30 15890 H 1543.23 5.00924 -0.891769 0
M  V30 15891 H 1542.62 5.17494 2.28509 0
M  V30 15892 H 1541.18 6.10744 2.27672 0
M  V30 15893 N 1544.61 0.673042 1.42506 0
M  V30 15894 C 1545.86 0.194864 2.01862 0
M  V30 15895 C 1546.19 -1.19491 1.53087 0
M  V30 15896 O 1545.47 -1.80187 0.732322 0
M  V30 15897 C 1545.75 0.227559 3.5938 0
M  V30 15898 C 1545.6 1.65266 4.18338 0
M  V30 15899 C 1546.92 -0.425197 4.38041 0
M  V30 15900 H 1544.04 0.0722831 0.733447 0
M  V30 15901 H 1546.68 0.857493 1.6955 0
M  V30 15902 H 1544.83 -0.336658 3.87039 0
M  V30 15903 H 1546.51 2.26899 4.0164 0
M  V30 15904 H 1544.75 2.19388 3.74234 0
M  V30 15905 H 1545.42 1.62724 5.2747 0
M  V30 15906 H 1547.9 0.0550709 4.16064 0
M  V30 15907 H 1546.77 -0.371675 5.4764 0
M  V30 15908 H 1547.03 -1.50251 4.15785 0
M  V30 15909 N 1546.09 -1.52004 0.416254 0
M  V30 15910 C 1547.5 -1.86628 -0.0517247 0
M  V30 15911 C 1547.85 -1.33463 -1.43813 0
M  V30 15912 O 1546.98 -0.676793 -2.05544 0
M  V30 15913 C 1547.57 -3.38651 -0.100637 0
M  V30 15914 C 1546.13 -3.72888 -0.512969 0
M  V30 15915 C 1545.28 -2.75584 0.307975 0
M  V30 15916 H 1548.23 -1.45529 0.633018 0
M  V30 15917 H 1548.25 -3.69348 -0.914465 0
M  V30 15918 H 1547.76 -3.77316 0.908538 0
M  V30 15919 H 1545.87 -3.39804 -1.52852 0
M  V30 15920 H 1545.98 -4.78435 -0.252408 0
M  V30 15921 H 1544.34 -2.53653 -0.230717 0
M  V30 15922 H 1545.13 -3.1709 1.31563 0
M  V30 15923 N 1547.57 -0.146903 -1.56914 0
M  V30 15924 C 1548.5 0.788924 -2.19769 0
M  V30 15925 C 1549.48 1.25712 -1.14589 0
M  V30 15926 O 1550.67 1.3147 -1.42931 0
M  V30 15927 C 1547.8 2.02824 -2.81921 0
M  V30 15928 C 1546.75 1.69683 -3.92927 0
M  V30 15929 C 1546.08 3.00877 -4.42015 0
M  V30 15930 C 1547.38 0.943559 -5.13706 0
M  V30 15931 H 1549.07 0.265076 -2.98224 0
M  V30 15932 H 1546.62 0.126057 -1.43447 0
M  V30 15933 H 1548.57 2.68773 -3.2456 0
M  V30 15934 H 1547.29 2.57581 -2.00797 0
M  V30 15935 H 1545.95 1.06112 -3.50907 0
M  V30 15936 H 1545.6 3.53625 -3.57713 0
M  V30 15937 H 1545.3 2.79466 -5.16888 0
M  V30 15938 H 1546.82 3.67897 -4.87323 0
M  V30 15939 H 1548.24 1.50513 -5.5319 0
M  V30 15940 H 1546.64 0.829387 -5.94341 0
M  V30 15941 H 1547.71 -0.0647228 -4.84857 0
M  V30 15942 N 1549.05 1.57088 0.126881 0
M  V30 15943 C 1550.46 1.73685 0.684865 0
M  V30 15944 C 1550.81 0.764401 1.80697 0
M  V30 15945 O 1549.94 -0.0644761 2.16304 0
M  V30 15946 C 1550.53 3.14933 1.24911 0
M  V30 15947 C 1549.09 3.33063 1.75346 0
M  V30 15948 C 1548.24 2.69575 0.649976 0
M  V30 15949 H 1551.19 1.58391 -0.0989715 0
M  V30 15950 H 1551.21 3.16047 2.11884 0
M  V30 15951 H 1550.72 3.85686 0.432204 0
M  V30 15952 H 1548.82 2.67339 2.59539 0
M  V30 15953 H 1548.93 4.41169 1.86833 0
M  V30 15954 H 1547.3 2.30592 1.08163 0
M  V30 15955 H 1548.08 3.42946 -0.15582 0
M  V30 15956 N 1550.53 -0.396836 1.52522 0
M  V30 15957 C 1551.75 -1.16404 1.71049 0
M  V30 15958 C 1552.17 -1.83946 0.425378 0
M  V30 15959 O 1551.53 -1.7237 -0.599561 0
M  V30 15960 C 1551.58 -2.21796 2.85463 0
M  V30 15961 O 1551.3 -1.57009 4.08998 0
M  V30 15962 C 1552.8 -3.11303 3.15603 0
M  V30 15963 H 1550.02 -0.349314 0.572905 0
M  V30 15964 H 1552.56 -0.465297 1.99136 0
M  V30 15965 H 1550.72 -2.87318 2.59859 0
M  V30 15966 H 1551.13 -2.26977 4.72844 0
M  V30 15967 H 1552.61 -3.81299 3.99143 0
M  V30 15968 H 1553.08 -3.7437 2.2966 0
M  V30 15969 H 1553.69 -2.51435 3.43017 0
M  V30 15970 N 1552.01 -1.43353 -0.654814 0
M  V30 15971 C 1553.23 -1.48536 -1.44748 0
M  V30 15972 C 1553.66 -0.103991 -1.87812 0
M  V30 15973 O 1553.01 0.901924 -1.57274 0
M  V30 15974 C 1553.06 -2.43498 -2.65972 0
M  V30 15975 O 1552.17 -1.92014 -3.64972 0
M  V30 15976 H 1551.51 -0.502476 -0.434067 0
M  V30 15977 H 1554.04 -1.88251 -0.801427 0
M  V30 15978 H 1554.05 -2.60748 -3.13806 0
M  V30 15979 H 1552.72 -3.43847 -2.3397 0
M  V30 15980 H 1551.3 -1.84417 -3.24106 0
M  V30 15981 N 1553.48 0.89303 -1.29857 0
M  V30 15982 C 1554.71 1.6827 -1.21243 0
M  V30 15983 C 1555.13 1.86778 0.222621 0
M  V30 15984 O 1554.49 1.39291 1.1605 0
M  V30 15985 C 1554.54 3.041 -1.93792 0
M  V30 15986 O 1553.64 3.92696 -1.25951 0
M  V30 15987 H 1552.98 0.514479 -0.419771 0
M  V30 15988 H 1555.51 1.11513 -1.7154 0
M  V30 15989 H 1555.52 3.54198 -2.02504 0
M  V30 15990 H 1554.2 2.89948 -2.98166 0
M  V30 15991 H 1552.78 3.51132 -1.25541 0
M  V30 15992 N 1554.96 1.12442 1.10429 0
M  V30 15993 C 1556.21 0.874466 1.81758 0
M  V30 15994 C 1556.52 -0.601487 1.86122 0
M  V30 15995 O 1557.73 -0.968037 2.53656 0
M  V30 15996 C 1556.19 1.51478 3.2647 0
M  V30 15997 C 1555.79 3.02552 3.30403 0
M  V30 15998 C 1557.54 1.34511 4.02625 0
M  V30 15999 C 1555.44 3.59518 4.69575 0
M  V30 16000 H 1554.37 0.323494 0.681078 0
M  V30 16001 H 1557.03 1.35091 1.24188 0
M  V30 16002 H 1555.41 0.966 3.84037 0
M  V30 16003 H 1556.58 3.63924 2.82659 0
M  V30 16004 H 1554.9 3.18917 2.67733 0
M  V30 16005 H 1557.49 1.74492 5.05427 0
M  V30 16006 H 1557.84 0.288788 4.15297 0
M  V30 16007 H 1558.37 1.86311 3.51473 0
M  V30 16008 H 1555.11 4.6491 4.62103 0
M  V30 16009 H 1554.63 3.02922 5.17686 0
M  V30 16010 H 1556.31 3.58581 5.38543 0
M  V30 16011 N 1556.44 -1.28223 0.91633 0
M  V30 16012 C 1557.66 -1.99523 0.566147 0
M  V30 16013 C 1558.09 -1.68 -0.846034 0
M  V30 16014 O 1557.45 -0.913838 -1.56584 0
M  V30 16015 C 1557.5 -3.51949 0.785114 0
M  V30 16016 O 1556.6 -4.1211 -0.154686 0
M  V30 16017 H 1555.94 -0.626764 0.219232 0
M  V30 16018 H 1558.47 -1.63313 1.23247 0
M  V30 16019 H 1558.48 -4.02016 0.696224 0
M  V30 16020 H 1557.16 -3.74227 1.81457 0
M  V30 16021 H 1555.73 -3.72896 -0.0168463 0
M  V30 16022 N 1557.92 -0.68059 -1.42147 0
M  V30 16023 C 1559.33 -0.281841 -1.8456 0
M  V30 16024 C 1559.68 1.17714 -1.56965 0
M  V30 16025 O 1558.8 1.90185 -1.03241 0
M  V30 16026 C 1559.4 -0.504751 -3.35019 0
M  V30 16027 C 1557.96 -0.160067 -3.76059 0
M  V30 16028 C 1557.11 -0.794377 -2.65678 0
M  V30 16029 H 1560.06 -0.882337 -1.31911 0
M  V30 16030 H 1560.08 0.241308 -3.79734 0
M  V30 16031 H 1559.59 -1.56669 -3.55072 0
M  V30 16032 H 1557.69 0.898202 -3.61612 0
M  V30 16033 H 1557.8 -0.60463 -4.75269 0
M  V30 16034 H 1556.17 -0.225213 -2.53702 0
M  V30 16035 H 1556.95 -1.85989 -2.88553 0
M  V30 16036 N 1559.4 1.51781 -0.424309 0
M  V30 16037 C 1560.36 2.25996 0.381903 0
M  V30 16038 C 1561.36 1.28938 0.960813 0
M  V30 16039 O 1562.55 1.52757 0.837306 0
M  V30 16040 C 1559.68 3.04181 1.53904 0
M  V30 16041 H 1560.87 2.98697 -0.268336 0
M  V30 16042 H 1558.43 1.55293 -0.177167 0
M  V30 16043 H 1559.16 2.35866 2.22571 0
M  V30 16044 H 1558.95 3.75457 1.13025 0
M  V30 16045 H 1560.44 3.60434 2.10896 0
M  V30 16046 N 1560.87 0.155222 1.56834 0
M  V30 16047 C 1561.82 -0.781315 2.17173 0
M  V30 16048 C 1562.79 -1.23835 1.10699 0
M  V30 16049 O 1563.98 -1.3094 1.38778 0
M  V30 16050 C 1561.12 -2.01174 2.80398 0
M  V30 16051 C 1560.23 -1.59976 4.01287 0
M  V30 16052 C 1559.36 -2.78262 4.52486 0
M  V30 16053 C 1558.4 -2.33477 5.65822 0
M  V30 16054 N 1557.54 -3.44799 6.11603 0
M  V30 16055 H 1562.38 -0.259968 2.96864 0
M  V30 16056 H 1559.92 -0.116599 1.46637 0
M  V30 16057 H 1561.87 -2.73318 3.15203 0
M  V30 16058 H 1560.5 -2.50706 2.03338 0
M  V30 16059 H 1559.56 -0.775668 3.72408 0
M  V30 16060 H 1560.87 -1.2309 4.83374 0
M  V30 16061 H 1560.02 -3.58585 4.89389 0
M  V30 16062 H 1558.76 -3.18398 3.69424 0
M  V30 16063 H 1557.77 -1.51596 5.28487 0
M  V30 16064 H 1558.99 -1.94417 6.50676 0
M  V30 16065 H 1556.94 -3.84541 5.31474 0
M  V30 16066 H 1556.85 -3.11955 6.88637 0
M  V30 16067 H 1558.12 -4.25454 6.53153 0
M  V30 16068 N 1562.35 -1.57153 -0.118549 0
M  V30 16069 C 1563.28 -1.95577 -1.17579 0
M  V30 16070 C 1564.26 -0.825508 -1.40086 0
M  V30 16071 O 1565.45 -1.08372 -1.54233 0
M  V30 16072 C 1562.57 -2.25238 -2.52954 0
M  V30 16073 C 1561.62 -3.47789 -2.46871 0
M  V30 16074 S 1562.45 -5.00358 -1.90792 0
M  V30 16075 C 1563.61 -5.33172 -3.27839 0
M  V30 16076 H 1563.84 -2.84946 -0.84812 0
M  V30 16077 H 1561.37 -1.50934 -0.325323 0
M  V30 16078 H 1563.33 -2.43005 -3.30846 0
M  V30 16079 H 1561.99 -1.36482 -2.82898 0
M  V30 16080 H 1561.19 -3.6591 -3.46592 0
M  V30 16081 H 1560.79 -3.29411 -1.771 0
M  V30 16082 H 1563.08 -5.28381 -4.24051 0
M  V30 16083 H 1564.02 -6.34403 -3.14545 0
M  V30 16084 H 1564.43 -4.60647 -3.26289 0
M  V30 16085 N 1563.83 0.388742 -1.5273 0
M  V30 16086 C 1564.79 1.45759 -1.76881 0
M  V30 16087 C 1565.79 1.47565 -0.63884 0
M  V30 16088 O 1566.98 1.48731 -0.906895 0
M  V30 16089 C 1564.11 2.85045 -1.86981 0
M  V30 16090 H 1565.31 1.25629 -2.72319 0
M  V30 16091 H 1562.86 0.620497 -1.43456 0
M  V30 16092 H 1563.6 3.1052 -0.935296 0
M  V30 16093 H 1563.38 2.85136 -2.69147 0
M  V30 16094 H 1564.87 3.62492 -2.07338 0
M  V30 16095 N 1565.31 1.43698 0.647203 0
M  V30 16096 C 1566.26 1.49599 1.78109 0
M  V30 16097 C 1567.25 0.369047 1.65331 0
M  V30 16098 O 1568.46 0.543303 1.71605 0
M  V30 16099 H 1564.83 0.46911 0.587741 0
M  V30 16100 H 1566.8 2.45064 1.70253 0
M  V30 16101 C 1565.55 1.44192 3.16392 0
M  V30 16102 H 1564.87 2.30216 3.26865 0
M  V30 16103 H 1566.31 1.52382 3.95671 0
M  V30 16104 C 1564.77 0.16036 3.36518 0
M  V30 16105 O 1565.3 -0.77593 3.94135 0
M  V30 16106 N 1563.51 0.0686236 2.90519 0
M  V30 16107 H 1563.06 0.831363 2.43816 0
M  V30 16108 H 1563.01 -0.78814 3.04361 0
M  V30 16109 N 1566.79 -0.886131 1.30328 0
M  V30 16110 C 1568.03 -1.6346 1.18849 0
M  V30 16111 C 1568.36 -1.93295 -0.257285 0
M  V30 16112 O 1567.63 -1.56858 -1.17356 0
M  V30 16113 H 1566.21 -0.605932 0.43687 0
M  V30 16114 H 1568.87 -1.06177 1.63439 0
M  V30 16115 H 1567.96 -2.58522 1.7485 0
M  V30 16116 N 1568.26 -1.13026 -1.09832 0
M  V30 16117 C 1569.49 -0.91246 -1.85693 0
M  V30 16118 C 1569.91 0.538558 -1.80956 0
M  V30 16119 O 1569.26 1.37262 -1.20273 0
M  V30 16120 C 1569.32 -1.38684 -3.3384 0
M  V30 16121 O 1569.04 -2.78099 -3.38515 0
M  V30 16122 C 1570.54 -1.20688 -4.26555 0
M  V30 16123 H 1567.76 -0.32565 -0.58668 0
M  V30 16124 H 1570.3 -1.50177 -1.38806 0
M  V30 16125 H 1568.46 -0.840617 -3.7817 0
M  V30 16126 H 1568.87 -2.99061 -4.30886 0
M  V30 16127 H 1570.34 -1.5876 -5.28677 0
M  V30 16128 H 1570.82 -0.148111 -4.3895 0
M  V30 16129 H 1571.43 -1.74092 -3.88036 0
M  V30 16130 N 1569.74 1.27735 -0.923117 0
M  V30 16131 C 1570.71 2.25256 -0.423375 0
M  V30 16132 C 1571.71 1.54213 0.455517 0
M  V30 16133 O 1572.9 1.7229 0.257245 0
M  V30 16134 C 1570.03 3.3864 0.391897 0
M  V30 16135 H 1571.22 2.70978 -1.28495 0
M  V30 16136 H 1568.77 1.39579 -0.703378 0
M  V30 16137 H 1569.51 2.98293 1.27248 0
M  V30 16138 H 1569.29 3.91376 -0.238194 0
M  V30 16139 H 1570.78 4.11133 0.732069 0
M  V30 16140 N 1571.22 0.688118 1.41784 0
M  V30 16141 C 1572.47 0.215517 2.00948 0
M  V30 16142 C 1572.79 -1.18656 1.54744 0
M  V30 16143 O 1572.06 -1.79925 0.774831 0
M  V30 16144 H 1570.64 0.0766876 0.743053 0
M  V30 16145 H 1573.3 0.88761 1.73515 0
M  V30 16146 H 1572.4 0.227139 3.11272 0
M  V30 16147 N 1572.7 -1.51554 0.432352 0
M  V30 16148 C 1573.93 -2.06462 -0.1346 0
M  V30 16149 C 1574.34 -1.30027 -1.36889 0
M  V30 16150 O 1573.7 -0.358447 -1.78945 0
M  V30 16151 C 1573.75 -3.58538 -0.461822 0
M  V30 16152 O 1573.47 -4.32085 0.723471 0
M  V30 16153 C 1574.97 -4.29943 -1.07999 0
M  V30 16154 H 1572.19 -0.670923 -0.0101329 0
M  V30 16155 H 1574.74 -1.9519 0.609999 0
M  V30 16156 H 1572.89 -3.6974 -1.15632 0
M  V30 16157 H 1573.3 -5.22611 0.444757 0
M  V30 16158 H 1574.78 -5.37451 -1.25898 0
M  V30 16159 H 1575.26 -3.87912 -2.05963 0
M  V30 16160 H 1575.86 -4.23171 -0.425022 0
M  V30 16161 N 1574.18 -0.163538 -1.56749 0
M  V30 16162 C 1575.12 0.769787 -2.17584 0
M  V30 16163 C 1576.09 1.23246 -1.11354 0
M  V30 16164 O 1577.28 1.30203 -1.3947 0
M  V30 16165 C 1574.42 1.99685 -2.81461 0
M  V30 16166 C 1573.53 1.57846 -4.0213 0
M  V30 16167 C 1572.67 2.75858 -4.53955 0
M  V30 16168 C 1571.71 2.30473 -5.67053 0
M  V30 16169 N 1570.84 3.41551 -6.13423 0
M  V30 16170 H 1575.68 0.244221 -2.96998 0
M  V30 16171 H 1573.22 0.108821 -1.46697 0
M  V30 16172 H 1575.18 2.71643 -3.16648 0
M  V30 16173 H 1573.81 2.49624 -2.04664 0
M  V30 16174 H 1572.86 0.755907 -3.72814 0
M  V30 16175 H 1574.17 1.20525 -4.8402 0
M  V30 16176 H 1573.33 3.55984 -4.91284 0
M  V30 16177 H 1572.06 3.16434 -3.71107 0
M  V30 16178 H 1571.07 1.48791 -5.29284 0
M  V30 16179 H 1572.29 1.90964 -6.51698 0
M  V30 16180 H 1570.24 3.81717 -5.33506 0
M  V30 16181 H 1570.16 3.08298 -6.90281 0
M  V30 16182 H 1571.43 4.21985 -6.554 0
M  V30 16183 N 1575.65 1.57214 0.110213 0
M  V30 16184 C 1576.9 1.85586 0.817649 0
M  V30 16185 C 1577.23 0.750536 1.79111 0
M  V30 16186 O 1576.51 -0.242864 1.92978 0
M  V30 16187 C 1576.79 3.24565 1.55979 0
M  V30 16188 C 1576.64 4.45708 0.605339 0
M  V30 16189 C 1577.96 3.61233 2.51393 0
M  V30 16190 H 1575.08 0.675037 0.295794 0
M  V30 16191 H 1577.72 1.89824 0.0816541 0
M  V30 16192 H 1575.87 3.21083 2.18718 0
M  V30 16193 H 1577.55 4.61298 -0.0138894 0
M  V30 16194 H 1575.79 4.33722 -0.0824644 0
M  V30 16195 H 1576.46 5.39643 1.16143 0
M  V30 16196 H 1578.94 3.65563 1.98754 0
M  V30 16197 H 1577.81 4.59438 3.00346 0
M  V30 16198 H 1578.07 2.89116 3.34461 0
M  V30 16199 N 1577.13 -0.380637 1.52934 0
M  V30 16200 C 1578.1 -1.44819 1.77652 0
M  V30 16201 C 1579.1 -1.47224 0.646657 0
M  V30 16202 O 1580.29 -1.48248 0.91477 0
M  V30 16203 C 1577.42 -2.8405 1.8849 0
M  V30 16204 H 1578.61 -1.24183 2.72981 0
M  V30 16205 H 1576.16 -0.61288 1.43783 0
M  V30 16206 H 1576.9 -3.1002 0.951751 0
M  V30 16207 H 1576.68 -2.83704 2.70655 0
M  V30 16208 H 1578.17 -3.61388 2.09257 0
M  V30 16209 N 1578.61 -1.44039 -0.639573 0
M  V30 16210 C 1579.54 -1.53073 -1.76327 0
M  V30 16211 C 1580.52 -0.384344 -1.65701 0
M  V30 16212 O 1581.71 -0.603362 -1.84589 0
M  V30 16213 C 1578.84 -1.46646 -3.14821 0
M  V30 16214 C 1577.79 -2.59673 -3.40226 0
M  V30 16215 C 1577.12 -2.38298 -4.78663 0
M  V30 16216 C 1578.42 -4.01864 -3.33621 0
M  V30 16217 H 1580.11 -2.47126 -1.69023 0
M  V30 16218 H 1577.66 -1.1894 -0.811749 0
M  V30 16219 H 1579.61 -1.51567 -3.93199 0
M  V30 16220 H 1578.33 -0.491035 -3.22888 0
M  V30 16221 H 1576.99 -2.54127 -2.64225 0
M  V30 16222 H 1576.64 -1.38968 -4.83422 0
M  V30 16223 H 1576.34 -3.14074 -4.9662 0
M  V30 16224 H 1577.86 -2.45025 -5.59281 0
M  V30 16225 H 1579.28 -4.08824 -4.01915 0
M  V30 16226 H 1577.68 -4.77775 -3.63113 0
M  V30 16227 H 1578.75 -4.26033 -2.31569 0
M  V30 16228 N 1580.09 0.879207 -1.30796 0
M  V30 16229 C 1581.5 1.16344 -1.09253 0
M  V30 16230 C 1581.7 2.00992 0.142993 0
M  V30 16231 O 1580.76 2.38295 0.834966 0
M  V30 16232 C 1582.07 1.86452 -2.35915 0
M  V30 16233 C 1583.62 1.99193 -2.41436 0
M  V30 16234 C 1584.1 2.72714 -3.67955 0
M  V30 16235 N 1585.59 2.80256 -3.68796 0
M  V30 16236 C 1586.32 3.37732 -4.63384 0
M  V30 16237 N 1585.82 3.96212 -5.6832 0
M  V30 16238 N 1587.61 3.35602 -4.50918 0
M  V30 16239 H 1579.76 0.314928 -2.10052 0
M  V30 16240 H 1582.03 0.202087 -0.92621 0
M  V30 16241 H 1581.73 1.31699 -3.26111 0
M  V30 16242 H 1581.61 2.86796 -2.45006 0
M  V30 16243 H 1583.99 2.53113 -1.51716 0
M  V30 16244 H 1584.07 0.97919 -2.36317 0
M  V30 16245 H 1583.72 2.19464 -4.58037 0
M  V30 16246 H 1583.65 3.74376 -3.70338 0
M  V30 16247 H 1586.14 2.38742 -2.92935 0
M  V30 16248 H 1586.45 4.38153 -6.36586 0
M  V30 16249 H 1584.8 3.94615 -5.72105 0
M  V30 16250 H 1587.99 2.89147 -3.68119 0
M  V30 16251 H 1588.16 3.80099 -5.24813 0
M  V30 16252 N 1581.57 1.13606 1.09231 0
M  V30 16253 C 1582.51 0.815279 2.15921 0
M  V30 16254 C 1583.48 -0.223501 1.64589 0
M  V30 16255 O 1584.67 -0.0952982 1.90562 0
M  V30 16256 C 1581.81 0.289655 3.43882 0
M  V30 16257 C 1580.92 1.38773 4.09104 0
M  V30 16258 C 1580.06 0.820238 5.24829 0
M  V30 16259 C 1579.1 1.89658 5.81976 0
M  V30 16260 N 1578.23 1.34688 6.8906 0
M  V30 16261 H 1583.07 1.72914 2.42703 0
M  V30 16262 H 1580.61 0.863101 1.19117 0
M  V30 16263 H 1582.57 -0.0332398 4.17187 0
M  V30 16264 H 1581.2 -0.587329 3.17412 0
M  V30 16265 H 1580.25 1.82718 3.33644 0
M  V30 16266 H 1581.56 2.20114 4.47606 0
M  V30 16267 H 1580.72 0.448745 6.05038 0
M  V30 16268 H 1579.46 -0.0242261 4.87694 0
M  V30 16269 H 1578.46 2.27712 5.00427 0
M  V30 16270 H 1579.69 2.74448 6.21172 0
M  V30 16271 H 1577.63 0.524453 6.539 0
M  V30 16272 H 1577.55 2.09675 7.26342 0
M  V30 16273 H 1578.82 1.00302 7.7302 0
M  V30 16274 N 1583.05 -1.27244 0.929878 0
M  V30 16275 C 1584.27 -1.98373 0.587845 0
M  V30 16276 C 1584.69 -1.69349 -0.834638 0
M  V30 16277 O 1584.05 -0.955281 -1.55501 0
M  V30 16278 C 1584.1 -3.52381 0.806843 0
M  V30 16279 O 1583.82 -3.8039 2.17337 0
M  V30 16280 C 1585.32 -4.40761 0.473818 0
M  V30 16281 H 1582.54 -0.633015 0.22256 0
M  V30 16282 H 1585.08 -1.62043 1.2475 0
M  V30 16283 H 1583.24 -3.86914 0.193963 0
M  V30 16284 H 1583.65 -4.74968 2.22498 0
M  V30 16285 H 1585.13 -5.47824 0.677736 0
M  V30 16286 H 1585.6 -4.35209 -0.590734 0
M  V30 16287 H 1586.21 -4.11751 1.06493 0
M  V30 16288 N 1584.52 -0.695628 -1.41417 0
M  V30 16289 C 1585.47 -0.0303383 -2.3078 0
M  V30 16290 C 1586.44 0.771218 -1.4711 0
M  V30 16291 O 1587.63 0.739239 -1.75897 0
M  V30 16292 C 1584.77 0.900034 -3.33157 0
M  V30 16293 C 1583.88 0.0900862 -4.31906 0
M  V30 16294 C 1583.01 1.01811 -5.21352 0
M  V30 16295 C 1582.05 0.201068 -6.1177 0
M  V30 16296 N 1581.19 1.0829 -6.93699 0
M  V30 16297 H 1586.03 -0.798148 -2.87113 0
M  V30 16298 H 1583.57 -0.405311 -1.41406 0
M  V30 16299 H 1585.52 1.45349 -3.91062 0
M  V30 16300 H 1584.15 1.63424 -2.78375 0
M  V30 16301 H 1583.21 -0.58029 -3.75948 0
M  V30 16302 H 1584.52 -0.543336 -4.95832 0
M  V30 16303 H 1583.67 1.64079 -5.84092 0
M  V30 16304 H 1582.41 1.68538 -4.57653 0
M  V30 16305 H 1581.42 -0.434686 -5.48079 0
M  V30 16306 H 1582.64 -0.462416 -6.77524 0
M  V30 16307 H 1580.59 1.73619 -6.32608 0
M  V30 16308 H 1580.5 0.505046 -7.54311 0
M  V30 16309 H 1581.77 1.69239 -7.60906 0
M  V30 16310 N 1586 1.51322 -0.440383 0
M  V30 16311 C 1586.93 2.25587 0.40537 0
M  V30 16312 C 1587.95 1.29721 0.983686 0
M  V30 16313 O 1589.14 1.55453 0.877308 0
M  V30 16314 C 1586.24 2.99848 1.57938 0
M  V30 16315 C 1585.41 4.22834 1.11939 0
M  V30 16316 C 1584.47 4.79649 2.16387 0
M  V30 16317 O 1583.49 5.41405 1.75697 0
M  V30 16318 N 1584.7 4.63948 3.48902 0
M  V30 16319 H 1587.46 2.98807 -0.231143 0
M  V30 16320 H 1585.02 1.59642 -0.26944 0
M  V30 16321 H 1587.01 3.34743 2.2744 0
M  V30 16322 H 1585.58 2.29619 2.12117 0
M  V30 16323 H 1584.8 3.93398 0.251323 0
M  V30 16324 H 1586.09 5.02637 0.7895 0
M  V30 16325 H 1585.49 4.14764 3.84691 0
M  V30 16326 H 1584.05 5.03196 4.14291 0
M  V30 16327 N 1587.48 0.171848 1.5666 0
M  V30 16328 C 1588.44 -0.744316 2.16778 0
M  V30 16329 C 1589.44 -1.15769 1.11598 0
M  V30 16330 O 1590.63 -1.07456 1.37109 0
M  V30 16331 C 1587.76 -2.01319 2.75106 0
M  V30 16332 H 1588.96 -0.220952 2.99085 0
M  V30 16333 H 1586.51 -0.0777149 1.56107 0
M  V30 16334 H 1587.25 -2.57963 1.96534 0
M  V30 16335 H 1587.03 -1.72575 3.5208 0
M  V30 16336 H 1588.52 -2.667 3.21342 0
M  V30 16337 N 1588.96 -1.5727 -0.101874 0
M  V30 16338 C 1589.92 -2.00625 -1.10826 0
M  V30 16339 C 1590.92 -0.89878 -1.33336 0
M  V30 16340 O 1592.11 -1.16442 -1.29564 0
M  V30 16341 C 1589.24 -2.36113 -2.45893 0
M  V30 16342 H 1590.44 -2.90748 -0.735238 0
M  V30 16343 H 1587.99 -1.52406 -0.346713 0
M  V30 16344 H 1588.72 -1.48923 -2.88084 0
M  V30 16345 H 1588.51 -3.169 -2.30904 0
M  V30 16346 H 1590 -2.70336 -3.1829 0
M  V30 16347 N 1590.44 0.372521 -1.53134 0
M  V30 16348 C 1591.35 1.47994 -1.8203 0
M  V30 16349 C 1592.36 1.58937 -0.708179 0
M  V30 16350 O 1593.54 1.74962 -0.997511 0
M  V30 16351 C 1590.6 2.83342 -1.99796 0
M  V30 16352 C 1589.66 2.81984 -3.23702 0
M  V30 16353 C 1588.9 4.10877 -3.40611 0
M  V30 16354 O 1589.12 5.06686 -2.61964 0
M  V30 16355 O 1588.05 4.17111 -4.33938 0
M  V30 16356 H 1591.88 1.26501 -2.761 0
M  V30 16357 H 1589.46 0.561957 -1.38428 0
M  V30 16358 H 1591.35 3.63551 -2.13092 0
M  V30 16359 H 1590.02 3.04826 -1.08916 0
M  V30 16360 H 1588.93 2.00498 -3.15834 0
M  V30 16361 H 1590.26 2.65453 -4.14482 0
M  V30 16362 N 1591.91 1.44376 0.631925 0
M  V30 16363 C 1592.86 1.51181 1.74393 0
M  V30 16364 C 1593.83 0.359599 1.62161 0
M  V30 16365 O 1595.02 0.569725 1.82096 0
M  V30 16366 C 1592.16 1.46124 3.12637 0
M  V30 16367 C 1591.27 2.71714 3.35851 0
M  V30 16368 C 1590.4 2.58496 4.64062 0
M  V30 16369 C 1589.44 3.79252 4.80452 0
M  V30 16370 N 1588.58 3.64715 5.99939 0
M  V30 16371 H 1593.42 2.4619 1.67912 0
M  V30 16372 H 1590.96 1.22184 0.819108 0
M  V30 16373 H 1592.91 1.41183 3.92585 0
M  V30 16374 H 1591.54 0.546831 3.18135 0
M  V30 16375 H 1590.6 2.86845 2.49848 0
M  V30 16376 H 1591.91 3.61351 3.43841 0
M  V30 16377 H 1591.06 2.51383 5.5217 0
M  V30 16378 H 1589.8 1.66417 4.58428 0
M  V30 16379 H 1588.81 3.8675 3.90774 0
M  V30 16380 H 1590.03 4.72367 4.879 0
M  V30 16381 H 1587.98 2.75388 5.95397 0
M  V30 16382 H 1587.89 4.47969 6.08982 0
M  V30 16383 H 1589.16 3.61493 6.90611 0
M  V30 16384 N 1593.39 -0.872258 1.31261 0
M  V30 16385 C 1594.64 -1.6199 1.20176 0
M  V30 16386 C 1594.95 -1.94129 -0.239439 0
M  V30 16387 O 1596.16 -2.67366 -0.471956 0
M  V30 16388 C 1594.62 -2.92017 2.10366 0
M  V30 16389 C 1594.22 -2.6737 3.59468 0
M  V30 16390 C 1595.97 -3.70007 2.08075 0
M  V30 16391 C 1593.87 -3.93291 4.41674 0
M  V30 16392 H 1592.8 -0.607793 0.446211 0
M  V30 16393 H 1595.46 -0.964627 1.561 0
M  V30 16394 H 1593.84 -3.58907 1.67338 0
M  V30 16395 H 1595.01 -2.08902 4.10727 0
M  V30 16396 H 1593.33 -2.02738 3.63712 0
M  V30 16397 H 1595.92 -4.63416 2.66739 0
M  V30 16398 H 1596.27 -4.02385 1.06733 0
M  V30 16399 H 1596.8 -3.09998 2.49291 0
M  V30 16400 H 1593.54 -3.66064 5.43762 0
M  V30 16401 H 1593.06 -4.51218 3.95174 0
M  V30 16402 H 1594.74 -4.61197 4.53769 0
M  V30 16403 N 1594.87 -1.14184 -1.08627 0
M  V30 16404 C 1596.09 -0.932504 -1.85254 0
M  V30 16405 C 1596.52 0.513792 -1.80947 0
M  V30 16406 O 1595.88 1.36525 -1.19292 0
M  V30 16407 C 1595.93 -1.43519 -3.30809 0
M  V30 16408 O 1595.03 -0.625806 -4.07624 0
M  V30 16409 H 1594.37 -0.333573 -0.57413 0
M  V30 16410 H 1596.9 -1.51853 -1.3712 0
M  V30 16411 H 1596.91 -1.44238 -3.81654 0
M  V30 16412 H 1595.59 -2.48819 -3.3326 0
M  V30 16413 H 1594.16 -0.687168 -3.66514 0
M  V30 16414 N 1596.35 1.26749 -0.936613 0
M  V30 16415 C 1597.31 2.24794 -0.447243 0
M  V30 16416 C 1598.31 1.54688 0.439135 0
M  V30 16417 O 1599.5 1.72553 0.238957 0
M  V30 16418 C 1596.63 3.39036 0.355958 0
M  V30 16419 H 1597.83 2.696 -1.31361 0
M  V30 16420 H 1595.38 1.38825 -0.718143 0
M  V30 16421 H 1596.11 2.99625 1.24077 0
M  V30 16422 H 1595.9 3.91101 -0.279691 0
M  V30 16423 H 1597.39 4.11887 0.688421 0
M  V30 16424 N 1597.83 0.703118 1.41046 0
M  V30 16425 C 1599.1 0.164985 1.94903 0
M  V30 16426 C 1599.48 -1.32665 1.64205 0
M  V30 16427 O 1598.83 -2.07675 0.953058 0
M  V30 16428 C 1599.04 0.464354 3.45897 0
M  V30 16429 C 1600.39 0.396205 4.22747 0
M  V30 16430 O 1601.41 0.399698 3.5395 0
M  V30 16431 O 1600.27 0.362874 5.45294 0
M  V30 16432 H 1597.37 0.0193901 0.826773 0
M  V30 16433 H 1599.91 0.779796 1.50722 0
M  V30 16434 H 1598.68 1.49653 3.61552 0
M  V30 16435 H 1598.31 -0.18105 3.97188 0
M  V30 16436 N 1599.3 -1.51086 0.448402 0
M  V30 16437 C 1600.25 -2.28015 -0.357438 0
M  V30 16438 C 1601.22 -1.32079 -1.00719 0
M  V30 16439 O 1602.41 -1.60995 -1.02398 0
M  V30 16440 C 1599.55 -3.13324 -1.44644 0
M  V30 16441 C 1598.66 -4.24267 -0.813729 0
M  V30 16442 C 1597.79 -4.96868 -1.87871 0
M  V30 16443 C 1596.83 -5.99716 -1.22502 0
M  V30 16444 N 1595.97 -6.65682 -2.23185 0
M  V30 16445 H 1600.81 -2.96436 0.30493 0
M  V30 16446 H 1598.35 -1.46203 0.162222 0
M  V30 16447 H 1600.31 -3.61119 -2.08924 0
M  V30 16448 H 1598.94 -2.46996 -2.07829 0
M  V30 16449 H 1597.99 -3.80354 -0.0589414 0
M  V30 16450 H 1599.3 -4.97917 -0.296587 0
M  V30 16451 H 1598.45 -5.48266 -2.59786 0
M  V30 16452 H 1597.19 -4.22873 -2.42961 0
M  V30 16453 H 1596.2 -5.476 -0.491388 0
M  V30 16454 H 1597.42 -6.75674 -0.681315 0
M  V30 16455 H 1595.37 -5.94493 -2.77334 0
M  V30 16456 H 1595.29 -7.35134 -1.76393 0
M  V30 16457 H 1596.55 -7.21707 -2.9455 0
M  V30 16458 N 1600.78 -0.180154 -1.56567 0
M  V30 16459 C 1602.03 0.462656 -1.96322 0
M  V30 16460 C 1602.34 1.63788 -1.06925 0
M  V30 16461 O 1603.55 2.34751 -1.36398 0
M  V30 16462 C 1602.01 0.874492 -3.49114 0
M  V30 16463 C 1601.61 -0.27562 -4.47151 0
M  V30 16464 C 1603.36 1.48522 -3.9767 0
M  V30 16465 C 1601.27 0.156341 -5.91193 0
M  V30 16466 H 1600.2 0.176619 -0.733022 0
M  V30 16467 H 1602.85 -0.269793 -1.81506 0
M  V30 16468 H 1601.23 1.66318 -3.59381 0
M  V30 16469 H 1602.4 -1.05304 -4.48606 0
M  V30 16470 H 1600.72 -0.796878 -4.08704 0
M  V30 16471 H 1603.31 1.8206 -5.02751 0
M  V30 16472 H 1603.66 2.38634 -3.41115 0
M  V30 16473 H 1604.19 0.760806 -3.90457 0
M  V30 16474 H 1600.93 -0.710221 -6.51641 0
M  V30 16475 H 1600.45 0.898933 -5.93025 0
M  V30 16476 H 1602.13 0.597228 -6.44238 0
M  V30 16477 N 1602.26 1.57322 0.0935319 0
M  V30 16478 C 1603.49 1.90754 0.814111 0
M  V30 16479 C 1603.91 0.774571 1.71412 0
M  V30 16480 O 1603.27 -0.273775 1.79221 0
M  V30 16481 C 1603.32 3.23055 1.60211 0
M  V30 16482 O 1602.42 3.10755 2.71118 0
M  V30 16483 H 1601.76 0.625237 0.223552 0
M  V30 16484 H 1604.29 2.04486 0.068288 0
M  V30 16485 H 1604.3 3.56401 1.986 0
M  V30 16486 H 1602.98 4.05101 0.941607 0
M  V30 16487 H 1601.55 2.88926 2.35745 0
M  V30 16488 N 1603.74 -0.364395 1.53329 0
M  V30 16489 C 1604.69 -1.44645 1.79851 0
M  V30 16490 C 1605.66 -1.53151 0.642951 0
M  V30 16491 O 1606.84 -1.6902 0.885252 0
M  V30 16492 C 1603.98 -2.81575 1.99523 0
M  V30 16493 C 1603.09 -2.82026 3.27239 0
M  V30 16494 C 1602.23 -4.1054 3.37091 0
M  V30 16495 C 1601.27 -4.05138 4.58835 0
M  V30 16496 N 1600.4 -5.25303 4.65834 0
M  V30 16497 H 1605.24 -1.21329 2.72182 0
M  V30 16498 H 1602.78 -0.588143 1.34831 0
M  V30 16499 H 1604.74 -3.61124 2.08915 0
M  V30 16500 H 1603.37 -3.03288 1.10527 0
M  V30 16501 H 1602.42 -1.94704 3.26794 0
M  V30 16502 H 1603.73 -2.73907 4.16865 0
M  V30 16503 H 1602.89 -4.98504 3.45801 0
M  V30 16504 H 1601.63 -4.21413 2.45483 0
M  V30 16505 H 1600.63 -3.1556 4.50224 0
M  V30 16506 H 1601.86 -3.95866 5.51785 0
M  V30 16507 H 1599.8 -5.36759 3.77128 0
M  V30 16508 H 1599.72 -5.19358 5.49367 0
M  V30 16509 H 1600.99 -6.15096 4.78829 0
M  V30 16510 N 1605.22 -1.44709 -0.62426 0
M  V30 16511 C 1606.13 -1.54608 -1.76447 0
M  V30 16512 C 1607.14 -0.43137 -1.68568 0
M  V30 16513 O 1608.32 -0.6897 -1.89222 0
M  V30 16514 C 1605.38 -1.49404 -3.12857 0
M  V30 16515 C 1604.44 -2.71782 -3.32315 0
M  V30 16516 C 1603.68 -2.66817 -4.62217 0
M  V30 16517 O 1603.9 -1.73205 -5.43467 0
M  V30 16518 O 1602.83 -3.57773 -4.84027 0
M  V30 16519 H 1606.66 -2.50951 -1.71048 0
M  V30 16520 H 1604.25 -1.27033 -0.786326 0
M  V30 16521 H 1606.13 -1.4905 -3.9416 0
M  V30 16522 H 1604.8 -0.562078 -3.18783 0
M  V30 16523 H 1603.71 -2.77702 -2.50664 0
M  V30 16524 H 1605.04 -3.64048 -3.31255 0
M  V30 16525 N 1606.69 0.865285 -1.31722 0
M  V30 16526 C 1607.66 1.95449 -1.19718 0
M  V30 16527 C 1608.66 1.60329 -0.123025 0
M  V30 16528 O 1609.85 1.70168 -0.372643 0
M  V30 16529 C 1606.98 3.30421 -0.838718 0
M  V30 16530 H 1608.17 2.07522 -2.16506 0
M  V30 16531 H 1605.73 1.05416 -1.154 0
M  V30 16532 H 1606.46 3.24048 0.127797 0
M  V30 16533 H 1606.25 3.57286 -1.61522 0
M  V30 16534 H 1607.74 4.10274 -0.77876 0
M  V30 16535 N 1608.17 1.14759 1.0802 0
M  V30 16536 C 1609.1 0.860977 2.17047 0
M  V30 16537 C 1610.08 -0.185652 1.69084 0
M  V30 16538 O 1611.27 -0.0414797 1.94156 0
M  V30 16539 C 1608.4 0.342018 3.45612 0
M  V30 16540 C 1607.35 1.32455 4.06989 0
M  V30 16541 C 1606.68 0.664721 5.30552 0
M  V30 16542 C 1607.98 2.68819 4.4781 0
M  V30 16543 H 1609.67 1.77269 2.4128 0
M  V30 16544 H 1607.22 0.853757 1.15961 0
M  V30 16545 H 1609.17 0.129093 4.21202 0
M  V30 16546 H 1607.9 -0.605138 3.20945 0
M  V30 16547 H 1606.55 1.52371 3.33435 0
M  V30 16548 H 1606.2 -0.288367 5.02173 0
M  V30 16549 H 1605.9 1.32036 5.72573 0
M  V30 16550 H 1607.43 0.461412 6.08854 0
M  V30 16551 H 1608.84 2.52787 5.14559 0
M  V30 16552 H 1607.24 3.30694 5.00761 0
M  V30 16553 H 1608.31 3.25398 3.59506 0
M  V30 16554 N 1609.65 -1.26251 0.943322 0
M  V30 16555 C 1610.58 -2.28673 0.472347 0
M  V30 16556 C 1611.56 -1.63319 -0.475481 0
M  V30 16557 O 1612.75 -1.90508 -0.376875 0
M  V30 16558 C 1609.88 -3.46316 -0.261286 0
M  V30 16559 C 1608.83 -4.23771 0.600192 0
M  V30 16560 C 1608.16 -5.3405 -0.263525 0
M  V30 16561 C 1609.46 -4.87576 1.87262 0
M  V30 16562 H 1611.15 -2.68319 1.32836 0
M  V30 16563 H 1608.7 -1.28987 0.640182 0
M  V30 16564 H 1610.65 -4.1708 -0.601821 0
M  V30 16565 H 1609.37 -3.05629 -1.15146 0
M  V30 16566 H 1608.03 -3.54774 0.923651 0
M  V30 16567 H 1607.68 -4.89604 -1.15312 0
M  V30 16568 H 1607.38 -5.86784 0.309495 0
M  V30 16569 H 1608.9 -6.07652 -0.599281 0
M  V30 16570 H 1610.32 -5.50544 1.59919 0
M  V30 16571 H 1608.72 -5.50437 2.39038 0
M  V30 16572 H 1609.79 -4.10397 2.58268 0
M  V30 16573 N 1611.13 -0.710588 -1.40671 0
M  V30 16574 C 1612.04 -0.0557164 -2.34534 0
M  V30 16575 C 1613.06 0.749387 -1.57036 0
M  V30 16576 O 1614.23 0.683493 -1.89447 0
M  V30 16577 C 1611.3 0.858583 -3.35901 0
M  V30 16578 C 1610.36 0.043995 -4.29277 0
M  V30 16579 C 1609.59 0.91475 -5.25802 0
M  V30 16580 O 1609.81 2.15407 -5.28163 0
M  V30 16581 O 1608.75 0.356407 -6.00844 0
M  V30 16582 H 1612.57 -0.829807 -2.92144 0
M  V30 16583 H 1610.16 -0.471028 -1.4178 0
M  V30 16584 H 1612.04 1.38244 -3.98079 0
M  V30 16585 H 1610.72 1.61191 -2.80712 0
M  V30 16586 H 1609.62 -0.524815 -3.704 0
M  V30 16587 H 1610.96 -0.670996 -4.87605 0
M  V30 16588 N 1612.61 1.50847 -0.456408 0
M  V30 16589 C 1613.85 2.04143 0.102549 0
M  V30 16590 C 1614.21 1.33189 1.38292 0
M  V30 16591 O 1615.41 1.7696 2.02333 0
M  V30 16592 C 1613.68 3.56164 0.296985 0
M  V30 16593 S 1615.24 4.31134 0.816609 0
M  V30 16594 H 1612.06 0.710632 0.0228845 0
M  V30 16595 H 1614.66 1.85402 -0.620186 0
M  V30 16596 H 1613.37 4.05365 -0.640906 0
M  V30 16597 H 1612.9 3.79232 1.04626 0
M  V30 16598 H 1614.91 4.49949 2.0919 0
M  V30 16599 N 1614.09 0.188454 1.56469 0
M  V30 16600 C 1615.05 -0.721282 2.17555 0
M  V30 16601 C 1616.05 -1.14579 1.1282 0
M  V30 16602 O 1617.24 -1.05996 1.38241 0
M  V30 16603 C 1614.37 -1.9839 2.77226 0
M  V30 16604 H 1615.56 -0.189218 2.99302 0
M  V30 16605 H 1613.12 -0.0611533 1.5618 0
M  V30 16606 H 1613.85 -2.55864 1.99259 0
M  V30 16607 H 1613.64 -1.68831 3.53891 0
M  V30 16608 H 1615.13 -2.63277 3.24153 0
M  V30 16609 N 1615.56 -1.5737 -0.0851874 0
M  V30 16610 C 1616.84 -1.77624 -0.819094 0
M  V30 16611 C 1617.22 -0.772645 -1.96452 0
M  V30 16612 O 1616.57 0.196912 -2.2765 0
M  V30 16613 C 1616.78 -3.23704 -1.30449 0
M  V30 16614 C 1618.13 -3.87163 -1.74328 0
M  V30 16615 O 1619.15 -3.27513 -1.40048 0
M  V30 16616 O 1618.01 -4.92075 -2.37748 0
M  V30 16617 H 1615.1 -0.728487 -0.391453 0
M  V30 16618 H 1617.65 -1.6957 -0.0663006 0
M  V30 16619 H 1616.42 -3.88292 -0.484277 0
M  V30 16620 H 1616.04 -3.36429 -2.119 0
M  V30 16621 N 1617.04 0.356258 -1.53521 0
M  V30 16622 C 1617.97 1.44271 -1.83598 0
M  V30 16623 C 1618.95 1.5547 -0.690141 0
M  V30 16624 O 1620.14 1.69886 -0.940868 0
M  V30 16625 C 1617.27 2.8149 -2.03422 0
M  V30 16626 C 1616.22 2.85108 -3.19213 0
M  V30 16627 C 1615.55 4.25091 -3.24348 0
M  V30 16628 C 1616.85 2.51788 -4.57602 0
M  V30 16629 H 1618.54 1.1935 -2.74583 0
M  V30 16630 H 1616.09 0.572707 -1.32121 0
M  V30 16631 H 1618.04 3.57531 -2.23046 0
M  V30 16632 H 1616.76 3.07819 -1.09155 0
M  V30 16633 H 1615.42 2.1152 -2.99424 0
M  V30 16634 H 1615.07 4.4851 -2.277 0
M  V30 16635 H 1614.77 4.28426 -4.0215 0
M  V30 16636 H 1616.3 5.02992 -3.46167 0
M  V30 16637 H 1617.71 3.17542 -4.77326 0
M  V30 16638 H 1616.11 2.66426 -5.37715 0
M  V30 16639 H 1617.18 1.4701 -4.62078 0
M  V30 16640 N 1618.52 1.45038 0.616577 0
M  V30 16641 C 1619.45 1.55858 1.73869 0
M  V30 16642 C 1620.43 0.410657 1.65069 0
M  V30 16643 O 1621.62 0.632652 1.83606 0
M  V30 16644 C 1618.75 1.51635 3.12448 0
M  V30 16645 C 1617.7 2.65053 3.36052 0
M  V30 16646 C 1617.03 2.45883 4.74811 0
M  V30 16647 C 1618.33 4.07121 3.27185 0
M  V30 16648 H 1620.02 2.49784 1.6507 0
M  V30 16649 H 1617.57 1.20216 0.792724 0
M  V30 16650 H 1619.52 1.57803 3.90738 0
M  V30 16651 H 1618.24 0.542342 3.22066 0
M  V30 16652 H 1616.9 2.58299 2.60149 0
M  V30 16653 H 1616.55 1.46641 4.8115 0
M  V30 16654 H 1616.25 3.21935 4.9156 0
M  V30 16655 H 1617.77 2.53892 5.55312 0
M  V30 16656 H 1619.19 4.15167 3.9536 0
M  V30 16657 H 1617.58 4.83491 3.55466 0
M  V30 16658 H 1618.65 4.29663 2.24762 0
M  V30 16659 N 1620 -0.858287 1.32179 0
M  V30 16660 C 1621.22 -1.64997 1.25662 0
M  V30 16661 C 1621.65 -1.87303 -0.173021 0
M  V30 16662 O 1621.01 -1.42319 -1.12317 0
M  V30 16663 C 1621.05 -2.98855 2.01787 0
M  V30 16664 O 1620.16 -3.89218 1.36319 0
M  V30 16665 H 1619.5 -0.503169 0.433264 0
M  V30 16666 H 1622.03 -1.06926 1.74436 0
M  V30 16667 H 1622.04 -3.48704 2.11824 0
M  V30 16668 H 1620.71 -2.81941 3.05748 0
M  V30 16669 H 1619.29 -3.4768 1.34807 0
M  V30 16670 N 1621.48 -1.1533 -1.07409 0
M  V30 16671 C 1622.7 -0.952101 -1.84255 0
M  V30 16672 C 1623.13 0.494571 -1.81482 0
M  V30 16673 O 1622.48 1.35253 -1.20733 0
M  V30 16674 C 1622.53 -1.47019 -3.29268 0
M  V30 16675 O 1621.64 -0.669005 -4.06937 0
M  V30 16676 H 1620.98 -0.339643 -0.57056 0
M  V30 16677 H 1623.51 -1.53298 -1.35502 0
M  V30 16678 H 1623.52 -1.48278 -3.80102 0
M  V30 16679 H 1622.19 -2.5234 -3.30602 0
M  V30 16680 H 1620.77 -0.726003 -3.65764 0
M  V30 16681 N 1622.95 1.25748 -0.950004 0
M  V30 16682 C 1623.92 2.24307 -0.47106 0
M  V30 16683 C 1624.92 1.55145 0.422704 0
M  V30 16684 O 1626.11 1.72797 0.220642 0
M  V30 16685 C 1623.24 3.39395 0.319979 0
M  V30 16686 H 1624.43 2.68192 -1.34214 0
M  V30 16687 H 1621.98 1.38056 -0.732827 0
M  V30 16688 H 1622.72 3.00925 1.20892 0
M  V30 16689 H 1622.5 3.90783 -0.321157 0
M  V30 16690 H 1623.99 4.12594 0.644697 0
M  V30 16691 N 1624.43 0.718038 1.40292 0
M  V30 16692 C 1625.36 0.0818367 2.33357 0
M  V30 16693 C 1626.34 -0.742854 1.53022 0
M  V30 16694 O 1627.53 -0.691281 1.8148 0
M  V30 16695 C 1624.66 -0.838843 3.37017 0
M  V30 16696 C 1623.61 -0.119589 4.27833 0
M  V30 16697 C 1622.94 -1.15615 5.22051 0
M  V30 16698 C 1624.24 1.02769 5.1209 0
M  V30 16699 H 1625.93 0.859167 2.86808 0
M  V30 16700 H 1623.48 0.414606 1.37902 0
M  V30 16701 H 1625.43 -1.29332 4.01063 0
M  V30 16702 H 1624.15 -1.6481 2.81967 0
M  V30 16703 H 1622.81 0.315088 3.65243 0
M  V30 16704 H 1622.46 -1.95852 4.63304 0
M  V30 16705 H 1622.16 -0.679767 5.83655 0
M  V30 16706 H 1623.69 -1.61068 5.88973 0
M  V30 16707 H 1625.1 0.652461 5.69575 0
M  V30 16708 H 1623.5 1.4326 5.82749 0
M  V30 16709 H 1624.57 1.85723 4.47923 0
M  V30 16710 N 1625.91 -1.50602 0.464402 0
M  V30 16711 C 1627.14 -2.06701 -0.0907765 0
M  V30 16712 C 1627.55 -1.32901 -1.341 0
M  V30 16713 O 1626.91 -0.396323 -1.78145 0
M  V30 16714 C 1626.96 -3.59437 -0.385667 0
M  V30 16715 O 1626.68 -4.30453 0.81496 0
M  V30 16716 C 1628.18 -4.32137 -0.988549 0
M  V30 16717 H 1625.4 -0.670987 0.00410069 0
M  V30 16718 H 1627.95 -1.93853 0.651264 0
M  V30 16719 H 1626.1 -3.7211 -1.07763 0
M  V30 16720 H 1626.52 -5.2155 0.55551 0
M  V30 16721 H 1627.99 -5.40001 -1.1447 0
M  V30 16722 H 1628.47 -3.92194 -1.97688 0
M  V30 16723 H 1629.07 -4.23977 -0.335166 0
M  V30 16724 N 1627.39 -0.19675 -1.56367 0
M  V30 16725 C 1628.3 0.735372 -2.22777 0
M  V30 16726 C 1629.31 1.23336 -1.22737 0
M  V30 16727 O 1630.49 1.28017 -1.55479 0
M  V30 16728 C 1627.56 1.93706 -2.8754 0
M  V30 16729 C 1626.62 1.48348 -4.02854 0
M  V30 16730 C 1625.85 2.62788 -4.64519 0
M  V30 16731 O 1626.07 3.80311 -4.25111 0
M  V30 16732 O 1625.01 2.35406 -5.53956 0
M  V30 16733 H 1628.83 0.199788 -3.03042 0
M  V30 16734 H 1626.42 0.0326149 -1.49364 0
M  V30 16735 H 1628.3 2.63934 -3.28507 0
M  V30 16736 H 1626.97 2.46121 -2.10252 0
M  V30 16737 H 1625.88 0.749939 -3.66506 0
M  V30 16738 H 1627.21 1.00597 -4.8181 0
M  V30 16739 N 1628.87 1.57413 0.0768405 0
M  V30 16740 C 1630.28 1.75776 0.629262 0
M  V30 16741 C 1630.63 0.821502 1.78173 0
M  V30 16742 O 1629.75 0.00437198 2.164 0
M  V30 16743 C 1630.35 3.18747 1.14828 0
M  V30 16744 C 1628.91 3.38472 1.64661 0
M  V30 16745 C 1628.05 2.71506 0.563884 0
M  V30 16746 H 1631.01 1.57996 -0.149312 0
M  V30 16747 H 1631.03 3.22628 2.01722 0
M  V30 16748 H 1630.54 3.86866 0.309282 0
M  V30 16749 H 1628.64 2.75461 2.50903 0
M  V30 16750 H 1628.75 4.4689 1.72703 0
M  V30 16751 H 1627.12 2.33917 1.00772 0
M  V30 16752 H 1627.9 3.42277 -0.264847 0
M  V30 16753 N 1630.34 -0.348112 1.53707 0
M  V30 16754 C 1631.59 -1.09048 1.70987 0
M  V30 16755 C 1631.92 -1.88444 0.469305 0
M  V30 16756 O 1631.2 -1.87037 -0.533629 0
M  V30 16757 C 1631.48 -2.03542 2.97057 0
M  V30 16758 C 1631.33 -1.27638 4.3131 0
M  V30 16759 C 1632.65 -3.03424 3.18782 0
M  V30 16760 H 1629.77 -0.395049 0.622178 0
M  V30 16761 H 1632.41 -0.369498 1.86373 0
M  V30 16762 H 1630.56 -2.65021 2.8407 0
M  V30 16763 H 1632.24 -0.688079 4.56139 0
M  V30 16764 H 1630.48 -0.578349 4.29927 0
M  V30 16765 H 1631.15 -1.96891 5.15692 0
M  V30 16766 H 1633.63 -2.52056 3.31069 0
M  V30 16767 H 1632.5 -3.66748 4.08396 0
M  V30 16768 H 1632.76 -3.74553 2.34866 0
M  V30 16769 N 1631.82 -1.45363 -0.608876 0
M  V30 16770 C 1633.23 -1.43794 -1.19081 0
M  V30 16771 C 1633.58 -0.164874 -1.95506 0
M  V30 16772 O 1632.71 0.733623 -2.03585 0
M  V30 16773 C 1633.3 -2.60506 -2.16615 0
M  V30 16774 C 1631.86 -2.62061 -2.70187 0
M  V30 16775 C 1631.01 -2.36018 -1.4557 0
M  V30 16776 H 1633.96 -1.53622 -0.39826 0
M  V30 16777 H 1633.98 -2.34531 -2.99625 0
M  V30 16778 H 1633.49 -3.53147 -1.60963 0
M  V30 16779 H 1631.6 -1.73423 -3.2978 0
M  V30 16780 H 1631.71 -3.61242 -3.14708 0
M  V30 16781 H 1630.07 -1.8555 -1.74481 0
M  V30 16782 H 1630.86 -3.30802 -0.917884 0
M  V30 16783 N 1633.3 0.851265 -1.32632 0
M  V30 16784 C 1634.25 1.98152 -1.21813 0
M  V30 16785 C 1635.24 1.68959 -0.122182 0
M  V30 16786 O 1636.45 1.77724 -0.285332 0
M  V30 16787 H 1632.82 0.650275 -0.377686 0
M  V30 16788 H 1634.79 2.04405 -2.17397 0
M  V30 16789 C 1633.54 3.34141 -0.961521 0
M  V30 16790 H 1632.87 3.57136 -1.79704 0
M  V30 16791 H 1634.31 4.13763 -0.926077 0
M  V30 16792 C 1632.77 3.35223 0.335704 0
M  V30 16793 O 1633.3 3.78461 1.34647 0
M  V30 16794 N 1631.5 2.88376 0.358875 0
M  V30 16795 H 1631.05 2.53383 -0.464194 0
M  V30 16796 H 1631.01 2.89482 1.22668 0
M  V30 16797 N 1634.78 1.15898 1.06796 0
M  V30 16798 C 1636 0.961859 1.83747 0
M  V30 16799 C 1636.43 -0.48494 1.81741 0
M  V30 16800 O 1635.79 -1.3461 1.21449 0
M  V30 16801 C 1635.83 1.48764 3.28484 0
M  V30 16802 O 1634.94 0.690576 4.06577 0
M  V30 16803 H 1634.28 0.342664 0.568751 0
M  V30 16804 H 1636.81 1.54015 1.34687 0
M  V30 16805 H 1636.82 1.50291 3.79311 0
M  V30 16806 H 1635.49 2.54089 3.29259 0
M  V30 16807 H 1634.07 0.74539 3.65374 0
M  V30 16808 N 1636.26 -1.25243 0.956659 0
M  V30 16809 C 1637.19 -2.25019 0.435795 0
M  V30 16810 C 1638.2 -1.56473 -0.449435 0
M  V30 16811 O 1639.39 -1.76635 -0.257386 0
M  V30 16812 C 1636.49 -3.36634 -0.391226 0
M  V30 16813 C 1635.66 -4.34742 0.481483 0
M  V30 16814 C 1634.72 -5.25413 -0.287678 0
M  V30 16815 O 1633.75 -5.6833 0.314618 0
M  V30 16816 N 1634.95 -5.58578 -1.58023 0
M  V30 16817 H 1637.72 -2.70344 1.2936 0
M  V30 16818 H 1635.28 -1.3917 0.827245 0
M  V30 16819 H 1637.27 -3.94254 -0.913552 0
M  V30 16820 H 1635.84 -2.90682 -1.14991 0
M  V30 16821 H 1635.06 -3.75971 1.18489 0
M  V30 16822 H 1636.35 -4.97269 1.07707 0
M  V30 16823 H 1635.74 -5.25618 -2.09146 0
M  V30 16824 H 1634.3 -6.18774 -2.04848 0
M  V30 16825 N 1637.73 -0.725468 -1.3991 0
M  V30 16826 C 1638.66 -0.094211 -2.3331 0
M  V30 16827 C 1639.65 0.734728 -1.53414 0
M  V30 16828 O 1640.83 0.681647 -1.81844 0
M  V30 16829 C 1637.96 0.820958 -3.37457 0
M  V30 16830 C 1636.91 0.0968983 -4.2789 0
M  V30 16831 C 1636.24 1.12845 -5.22657 0
M  V30 16832 C 1637.54 -1.05483 -5.11537 0
M  V30 16833 H 1639.23 -0.874365 -2.86348 0
M  V30 16834 H 1636.78 -0.421913 -1.3768 0
M  V30 16835 H 1638.73 1.27203 -4.01743 0
M  V30 16836 H 1637.46 1.63312 -2.82837 0
M  V30 16837 H 1636.12 -0.334454 -3.65071 0
M  V30 16838 H 1635.76 1.93392 -4.64337 0
M  V30 16839 H 1635.46 0.648805 -5.84007 0
M  V30 16840 H 1636.99 1.57942 -5.89819 0
M  V30 16841 H 1638.4 -0.682657 -5.69221 0
M  V30 16842 H 1636.8 -1.46349 -5.81981 0
M  V30 16843 H 1637.87 -1.88095 -4.46932 0
M  V30 16844 N 1639.21 1.50354 -0.472382 0
M  V30 16845 C 1640.46 2.02633 0.0822846 0
M  V30 16846 C 1640.79 1.35358 1.39254 0
M  V30 16847 O 1640.07 0.479714 1.88491 0
M  V30 16848 C 1640.35 3.59126 0.264742 0
M  V30 16849 C 1640.2 4.3697 -1.06663 0
M  V30 16850 C 1641.52 4.28148 1.01869 0
M  V30 16851 H 1638.64 0.736451 0.0284304 0
M  V30 16852 H 1641.28 1.79661 -0.618224 0
M  V30 16853 H 1639.43 3.7883 0.86141 0
M  V30 16854 H 1641.1 4.28834 -1.69997 0
M  V30 16855 H 1639.35 4.0066 -1.66295 0
M  V30 16856 H 1640.02 5.44736 -0.892592 0
M  V30 16857 H 1642.49 4.12926 0.512931 0
M  V30 16858 H 1641.37 5.37453 1.11515 0
M  V30 16859 H 1641.63 3.91406 2.05557 0
M  V30 16860 N 1640.69 0.205039 1.56261 0
M  V30 16861 C 1641.97 -0.479238 1.89638 0
M  V30 16862 C 1642.35 -1.78938 1.12002 0
M  V30 16863 O 1641.7 -2.27398 0.224179 0
M  V30 16864 C 1641.91 -0.688324 3.42145 0
M  V30 16865 C 1643.25 -1.00322 4.12578 0
M  V30 16866 O 1644.28 -0.775697 3.47651 0
M  V30 16867 O 1643.14 -1.43412 5.27347 0
M  V30 16868 H 1640.23 -0.251125 0.78795 0
M  V30 16869 H 1642.78 0.245994 1.67908 0
M  V30 16870 H 1641.55 0.236479 3.90585 0
M  V30 16871 H 1641.17 -1.46565 3.696 0
M  V30 16872 N 1642.17 -1.57451 -0.0684915 0
M  V30 16873 C 1643.4 -1.9164 -0.779855 0
M  V30 16874 C 1643.81 -0.801309 -1.70952 0
M  V30 16875 O 1643.17 0.225134 -1.81106 0
M  V30 16876 C 1643.22 -3.25594 -1.57068 0
M  V30 16877 O 1642.94 -4.32816 -0.678385 0
M  V30 16878 C 1644.44 -3.73818 -2.38275 0
M  V30 16879 H 1641.66 -0.633374 -0.221537 0
M  V30 16880 H 1644.21 -2.04465 -0.0377746 0
M  V30 16881 H 1642.36 -3.14287 -2.26501 0
M  V30 16882 H 1642.78 -5.09903 -1.22877 0
M  V30 16883 H 1644.25 -4.70168 -2.89216 0
M  V30 16884 H 1644.73 -3.02995 -3.17947 0
M  V30 16885 H 1645.33 -3.88081 -1.73992 0
M  V30 16886 N 1643.65 0.339955 -1.5389 0
M  V30 16887 C 1644.9 1.07766 -1.7097 0
M  V30 16888 C 1645.22 1.89064 -0.477486 0
M  V30 16889 O 1644.49 1.89183 0.508579 0
M  V30 16890 H 1643.07 0.400849 -0.630341 0
M  V30 16891 H 1645.73 0.380359 -1.91153 0
M  V30 16892 H 1644.82 1.75301 -2.58217 0
M  V30 16893 N 1645.13 1.45684 0.601159 0
M  V30 16894 C 1646.08 1.51269 1.70592 0
M  V30 16895 C 1647.06 0.375327 1.56461 0
M  V30 16896 O 1648.25 0.622591 1.65689 0
M  V30 16897 C 1645.38 1.4884 3.09357 0
M  V30 16898 C 1644.47 2.67803 3.2885 0
M  V30 16899 N 1644.86 3.92863 3.18578 0
M  V30 16900 C 1643.16 2.63636 3.59739 0
M  V30 16901 C 1643.86 4.72295 3.39577 0
M  V30 16902 N 1642.83 4.03856 3.63869 0
M  V30 16903 H 1646.63 2.45778 1.61153 0
M  V30 16904 H 1644.15 1.41066 0.804621 0
M  V30 16905 H 1646.15 1.50927 3.88621 0
M  V30 16906 H 1644.81 0.553931 3.1994 0
M  V30 16907 H 1645.82 4.24389 2.96841 0
M  V30 16908 H 1642.49 1.79127 3.77121 0
M  V30 16909 H 1643.88 5.8129 3.36974 0
M  V30 16910 N 1646.6 -0.84422 1.33082 0
M  V30 16911 C 1647.54 -1.96055 1.18722 0
M  V30 16912 C 1648.55 -1.62361 0.119538 0
M  V30 16913 O 1649.74 -1.74634 0.369469 0
M  V30 16914 C 1646.84 -3.29387 0.797318 0
M  V30 16915 C 1646.01 -3.91253 1.95551 0
M  V30 16916 C 1645.07 -5.02932 1.54745 0
M  V30 16917 O 1644.1 -5.22367 2.26101 0
M  V30 16918 N 1645.3 -5.78758 0.449394 0
M  V30 16919 H 1648.06 -2.08912 2.14886 0
M  V30 16920 H 1645.62 -1.01966 1.25756 0
M  V30 16921 H 1647.62 -4.01517 0.506536 0
M  V30 16922 H 1646.19 -3.12514 -0.0734775 0
M  V30 16923 H 1645.41 -3.11779 2.41221 0
M  V30 16924 H 1646.69 -4.2932 2.73061 0
M  V30 16925 H 1646.09 -5.65516 -0.14428 0
M  V30 16926 H 1644.65 -6.51434 0.218264 0
M  V30 16927 N 1648.08 -1.16463 -1.0618 0
M  V30 16928 C 1649.01 -0.895399 -2.1565 0
M  V30 16929 C 1649.99 0.158729 -1.69358 0
M  V30 16930 O 1651.18 0.010586 -1.94197 0
M  V30 16931 C 1648.31 -0.396959 -3.45024 0
M  V30 16932 C 1647.26 -1.38913 -4.0483 0
M  V30 16933 C 1646.59 -0.749043 -5.29427 0
M  V30 16934 C 1647.89 -2.7591 -4.43476 0
M  V30 16935 H 1649.58 -1.81085 -2.38429 0
M  V30 16936 H 1647.13 -0.872098 -1.14588 0
M  V30 16937 H 1649.08 -0.196086 -4.20944 0
M  V30 16938 H 1647.8 0.554002 -3.21867 0
M  V30 16939 H 1646.46 -1.57657 -3.30968 0
M  V30 16940 H 1646.11 0.208439 -5.02568 0
M  V30 16941 H 1645.81 -1.41128 -5.704 0
M  V30 16942 H 1647.34 -0.558217 -6.08043 0
M  V30 16943 H 1648.75 -2.60942 -5.10473 0
M  V30 16944 H 1647.15 -3.38618 -4.95437 0
M  V30 16945 H 1648.22 -3.31076 -3.54284 0
M  V30 16946 N 1649.56 1.24734 -0.963288 0
M  V30 16947 C 1650.49 2.27892 -0.508667 0
M  V30 16948 C 1651.47 1.64055 0.449438 0
M  V30 16949 O 1652.66 1.91083 0.346519 0
M  V30 16950 C 1649.79 3.46688 0.206157 0
M  V30 16951 C 1648.74 4.22762 -0.667534 0
M  V30 16952 C 1648.07 5.34402 0.178529 0
M  V30 16953 C 1649.37 4.84535 -1.94995 0
M  V30 16954 H 1651.06 2.66171 -1.37088 0
M  V30 16955 H 1648.61 1.27952 -0.660622 0
M  V30 16956 H 1650.56 4.17985 0.535391 0
M  V30 16957 H 1649.28 3.07422 1.10269 0
M  V30 16958 H 1647.94 3.53259 -0.979976 0
M  V30 16959 H 1647.59 4.91377 1.07508 0
M  V30 16960 H 1647.29 5.86218 -0.402808 0
M  V30 16961 H 1648.81 6.08529 0.502533 0
M  V30 16962 H 1650.23 5.4793 -1.68658 0
M  V30 16963 H 1648.62 5.46564 -2.47765 0
M  V30 16964 H 1649.69 4.06236 -2.64765 0
M  V30 16965 N 1651.04 0.732878 1.39523 0
M  V30 16966 C 1652.31 0.20629 1.94509 0
M  V30 16967 C 1652.69 -1.29152 1.66982 0
M  V30 16968 O 1652.04 -2.05607 0.996895 0
M  V30 16969 C 1652.25 0.537619 3.44834 0
M  V30 16970 C 1653.6 0.485787 4.21812 0
M  V30 16971 O 1654.62 0.474686 3.53023 0
M  V30 16972 O 1653.48 0.478457 5.44402 0
M  V30 16973 H 1650.58 0.0369228 0.826175 0
M  V30 16974 H 1653.12 0.811591 1.49035 0
M  V30 16975 H 1651.9 1.57289 3.58296 0
M  V30 16976 H 1651.52 -0.0967601 3.97482 0
M  V30 16977 N 1652.52 -1.50101 0.480349 0
M  V30 16978 C 1653.75 -2.06486 -0.0687482 0
M  V30 16979 C 1654.15 -1.34334 -1.33233 0
M  V30 16980 O 1653.5 -0.408976 -1.7909 0
M  V30 16981 C 1653.56 -3.57114 -0.413522 0
M  V30 16982 C 1653.22 -4.50814 0.749361 0
M  V30 16983 C 1654.22 -4.93554 1.63404 0
M  V30 16984 C 1651.9 -4.93382 0.942313 0
M  V30 16985 C 1653.9 -5.77577 2.696 0
M  V30 16986 C 1651.59 -5.77186 2.00748 0
M  V30 16987 C 1652.58 -6.19185 2.88268 0
M  V30 16988 O 1652.27 -7.01317 3.92949 0
M  V30 16989 H 1652 -0.675954 0.00792111 0
M  V30 16990 H 1654.56 -1.94135 0.670863 0
M  V30 16991 H 1652.79 -3.67399 -1.20645 0
M  V30 16992 H 1654.48 -3.95824 -0.89879 0
M  V30 16993 H 1655.24 -4.61329 1.4967 0
M  V30 16994 H 1651.12 -4.60206 0.270534 0
M  V30 16995 H 1654.67 -6.10279 3.37942 0
M  V30 16996 H 1650.56 -6.08824 2.14486 0
M  V30 16997 H 1651.33 -7.19585 3.9005 0
M  V30 16998 N 1653.99 -0.213323 -1.5615 0
M  V30 16999 C 1655.23 0.422545 -1.99985 0
M  V30 17000 C 1655.6 1.57529 -1.09765 0
M  V30 17001 O 1656.8 2.27661 -1.42913 0
M  V30 17002 C 1655.07 0.853804 -3.47052 0
M  V30 17003 S 1656.63 1.48494 -4.1291 0
M  V30 17004 H 1653.45 0.134436 -0.698175 0
M  V30 17005 H 1656.05 -0.320678 -1.92852 0
M  V30 17006 H 1654.75 0.00503066 -4.104 0
M  V30 17007 H 1654.28 1.63004 -3.58041 0
M  V30 17008 H 1656.3 2.77395 -4.1142 0
M  V30 17009 N 1655.47 1.57485 0.0601405 0
M  V30 17010 C 1656.7 1.92438 0.773466 0
M  V30 17011 C 1657.12 0.810755 1.6973 0
M  V30 17012 O 1656.48 -0.235697 1.79761 0
M  V30 17013 C 1656.53 3.26381 1.53323 0
M  V30 17014 O 1655.63 3.16436 2.64465 0
M  V30 17015 H 1654.97 0.629838 0.210239 0
M  V30 17016 H 1657.5 2.04585 0.0248981 0
M  V30 17017 H 1657.51 3.60534 1.90996 0
M  V30 17018 H 1656.19 4.07007 0.855468 0
M  V30 17019 H 1654.77 2.93862 2.29564 0
M  V30 17020 N 1656.95 -0.331789 1.54068 0
M  V30 17021 C 1658.2 -1.06858 1.71539 0
M  V30 17022 C 1658.52 -1.88808 0.487506 0
M  V30 17023 O 1657.79 -1.8945 -0.498539 0
M  V30 17024 H 1656.37 -0.3975 0.632457 0
M  V30 17025 H 1659.03 -0.370216 1.91352 0
M  V30 17026 H 1658.13 -1.73929 2.59143 0
M  V30 17027 N 1658.43 -1.46001 -0.593424 0
M  V30 17028 C 1659.66 -1.54083 -1.3763 0
M  V30 17029 C 1660.07 -0.177096 -1.88369 0
M  V30 17030 O 1659.41 0.834016 -1.63676 0
M  V30 17031 C 1659.47 -2.47599 -2.60643 0
M  V30 17032 C 1659.14 -3.94058 -2.31445 0
M  V30 17033 C 1660.13 -4.83569 -1.90936 0
M  V30 17034 C 1657.82 -4.39099 -2.4392 0
M  V30 17035 C 1659.81 -6.16131 -1.63282 0
M  V30 17036 C 1657.5 -5.71699 -2.15879 0
M  V30 17037 C 1658.5 -6.60034 -1.75624 0
M  V30 17038 O 1658.18 -7.90174 -1.4792 0
M  V30 17039 H 1657.92 -0.52391 -0.427193 0
M  V30 17040 H 1660.47 -1.92011 -0.729444 0
M  V30 17041 H 1658.7 -2.04669 -3.28097 0
M  V30 17042 H 1660.39 -2.46207 -3.22703 0
M  V30 17043 H 1661.16 -4.50031 -1.80822 0
M  V30 17044 H 1657.03 -3.70575 -2.74218 0
M  V30 17045 H 1660.58 -6.85039 -1.31787 0
M  V30 17046 H 1656.48 -6.04788 -2.25614 0
M  V30 17047 H 1657.24 -8.02338 -1.61854 0
M  V30 17048 N 1659.91 0.83715 -1.33527 0
M  V30 17049 C 1661.15 1.59487 -1.25267 0
M  V30 17050 C 1661.49 1.93357 0.180741 0
M  V30 17051 O 1660.76 1.5884 1.12251 0
M  V30 17052 C 1661.04 2.90376 -2.12964 0
M  V30 17053 C 1660.9 2.63177 -3.64771 0
M  V30 17054 C 1662.22 3.9182 -2.00412 0
M  V30 17055 H 1659.33 0.578684 -0.456392 0
M  V30 17056 H 1661.98 0.965428 -1.63644 0
M  V30 17057 H 1660.13 3.44095 -1.80364 0
M  V30 17058 H 1661.8 2.15878 -4.0767 0
M  V30 17059 H 1660.04 1.96849 -3.86566 0
M  V30 17060 H 1660.71 3.56452 -4.21481 0
M  V30 17061 H 1663.19 3.47413 -2.29005 0
M  V30 17062 H 1662.06 4.81232 -2.64021 0
M  V30 17063 H 1662.33 4.31173 -0.976852 0
M  V30 17064 N 1661.38 1.17024 1.05561 0
M  V30 17065 C 1662.66 0.86635 1.75367 0
M  V30 17066 C 1663.04 -0.634217 2.01348 0
M  V30 17067 O 1662.39 -1.58434 1.64654 0
M  V30 17068 C 1662.6 1.69719 3.04953 0
M  V30 17069 C 1663.95 1.91482 3.78972 0
M  V30 17070 O 1664.97 1.66647 3.14813 0
M  V30 17071 O 1663.83 2.33197 4.94248 0
M  V30 17072 H 1660.92 0.320412 0.762407 0
M  V30 17073 H 1663.47 1.277 1.11763 0
M  V30 17074 H 1662.24 2.71512 2.81775 0
M  V30 17075 H 1661.87 1.28408 3.76294 0
M  V30 17076 N 1662.86 -1.24221 0.969889 0
M  V30 17077 C 1664.1 -1.94094 0.640856 0
M  V30 17078 C 1664.47 -1.74112 -0.809267 0
M  V30 17079 O 1665.67 -2.38039 -1.24863 0
M  V30 17080 C 1663.94 -3.42892 1.00797 0
M  V30 17081 S 1665.5 -4.3156 0.79382 0
M  V30 17082 H 1662.32 -0.671028 0.235036 0
M  V30 17083 H 1664.92 -1.50541 1.24731 0
M  V30 17084 H 1663.62 -3.54942 2.0602 0
M  V30 17085 H 1663.15 -3.91438 0.392386 0
M  V30 17086 H 1665.17 -4.95117 -0.327707 0
M  V30 17087 N 1664.34 -0.740267 -1.39132 0
M  V30 17088 C 1665.59 -0.287379 -1.99642 0
M  V30 17089 C 1665.9 1.13337 -1.59418 0
M  V30 17090 O 1667.11 1.68605 -2.12802 0
M  V30 17091 C 1665.56 -0.462859 -3.56911 0
M  V30 17092 C 1665.17 -1.89184 -4.06095 0
M  V30 17093 C 1666.92 -0.0720122 -4.24439 0
M  V30 17094 C 1664.82 -2.01659 -5.55957 0
M  V30 17095 H 1663.75 -0.103696 -0.746835 0
M  V30 17096 H 1666.4 -0.914902 -1.59065 0
M  V30 17097 H 1664.79 0.233644 -3.9531 0
M  V30 17098 H 1665.96 -2.62072 -3.79018 0
M  V30 17099 H 1664.28 -2.23638 -3.51248 0
M  V30 17100 H 1666.87 -0.144163 -5.34506 0
M  V30 17101 H 1667.22 0.973516 -4.04757 0
M  V30 17102 H 1667.75 -0.719868 -3.91232 0
M  V30 17103 H 1664.49 -3.04419 -5.80525 0
M  V30 17104 H 1664.01 -1.33214 -5.8482 0
M  V30 17105 H 1665.69 -1.80023 -6.2145 0
M  V30 17106 N 1665.82 1.49844 -0.488302 0
M  V30 17107 C 1667.23 1.86663 -0.037377 0
M  V30 17108 C 1667.58 1.40172 1.37281 0
M  V30 17109 O 1666.71 0.77409 2.02081 0
M  V30 17110 C 1667.3 3.38745 -0.0610523 0
M  V30 17111 C 1665.86 3.74911 0.334475 0
M  V30 17112 C 1665.01 2.73801 -0.439109 0
M  V30 17113 H 1667.96 1.42343 -0.70173 0
M  V30 17114 H 1667.98 3.7329 0.737203 0
M  V30 17115 H 1667.49 3.72551 -1.08753 0
M  V30 17116 H 1665.59 3.4671 1.36466 0
M  V30 17117 H 1665.7 4.79094 0.0238536 0
M  V30 17118 H 1664.07 2.54465 0.109433 0
M  V30 17119 H 1664.85 3.10452 -1.46542 0
M  V30 17120 N 1667.3 0.221601 1.56034 0
M  V30 17121 C 1668.23 -0.720818 2.1757 0
M  V30 17122 C 1669.24 -1.15751 1.14479 0
M  V30 17123 O 1670.43 -1.08865 1.41459 0
M  V30 17124 C 1667.53 -1.98817 2.74454 0
M  V30 17125 C 1666.7 -1.70703 4.02715 0
M  V30 17126 C 1665.76 -2.82146 4.44162 0
M  V30 17127 O 1664.79 -2.50614 5.11059 0
M  V30 17128 N 1665.99 -4.11101 4.09849 0
M  V30 17129 H 1668.76 -0.194436 2.99069 0
M  V30 17130 H 1666.32 0.0405962 1.61849 0
M  V30 17131 H 1668.31 -2.72562 2.99152 0
M  V30 17132 H 1666.88 -2.42503 1.97258 0
M  V30 17133 H 1666.1 -0.806022 3.85872 0
M  V30 17134 H 1667.39 -1.49351 4.86387 0
M  V30 17135 H 1666.78 -4.39562 3.56092 0
M  V30 17136 H 1665.34 -4.81389 4.3944 0
M  V30 17137 N 1668.77 -1.57515 -0.0517878 0
M  V30 17138 C 1670 -1.92456 -0.759485 0
M  V30 17139 C 1670.42 -0.819396 -1.70092 0
M  V30 17140 O 1669.77 0.205913 -1.81335 0
M  V30 17141 C 1669.83 -3.27242 -1.53606 0
M  V30 17142 O 1669.55 -4.33511 -0.632441 0
M  V30 17143 C 1671.05 -3.76324 -2.34297 0
M  V30 17144 H 1668.27 -0.635688 -0.214807 0
M  V30 17145 H 1670.81 -2.04494 -0.0160862 0
M  V30 17146 H 1668.97 -3.16671 -2.23155 0
M  V30 17147 H 1669.38 -5.11178 -1.17462 0
M  V30 17148 H 1670.85 -4.73209 -2.84213 0
M  V30 17149 H 1671.33 -3.06351 -3.14716 0
M  V30 17150 H 1671.94 -3.89904 -1.69866 0
M  V30 17151 N 1670.25 0.323614 -1.54242 0
M  V30 17152 C 1671.67 0.66795 -1.4495 0
M  V30 17153 C 1671.87 1.91649 -0.622338 0
M  V30 17154 O 1670.93 2.52209 -0.121119 0
M  V30 17155 C 1672.24 0.842006 -2.88671 0
M  V30 17156 C 1673.79 0.93935 -2.98572 0
M  V30 17157 C 1674.26 1.14557 -4.43442 0
M  V30 17158 N 1675.75 1.21231 -4.47054 0
M  V30 17159 C 1676.49 1.38976 -5.56303 0
M  V30 17160 N 1675.98 1.53764 -6.75521 0
M  V30 17161 N 1677.78 1.41684 -5.4395 0
M  V30 17162 H 1669.93 -0.497017 -2.06503 0
M  V30 17163 H 1672.19 -0.160563 -0.934304 0
M  V30 17164 H 1671.9 -0.00418568 -3.517 0
M  V30 17165 H 1671.77 1.73785 -3.34782 0
M  V30 17166 H 1674.16 1.77605 -2.35671 0
M  V30 17167 H 1674.24 0.0199775 -2.55792 0
M  V30 17168 H 1673.88 0.313732 -5.0693 0
M  V30 17169 H 1673.81 2.07882 -4.83831 0
M  V30 17170 H 1676.3 1.11247 -3.61154 0
M  V30 17171 H 1676.62 1.66996 -7.54541 0
M  V30 17172 H 1674.96 1.50862 -6.78429 0
M  V30 17173 H 1678.15 1.29726 -4.49765 0
M  V30 17174 H 1678.33 1.5517 -6.29147 0
M  V30 17175 N 1671.73 1.46313 0.585673 0
M  V30 17176 C 1672.68 1.57018 1.71604 0
M  V30 17177 C 1673.67 0.438838 1.63617 0
M  V30 17178 O 1674.88 0.615597 1.69146 0
M  V30 17179 H 1671.25 0.493616 0.567316 0
M  V30 17180 H 1673.23 2.52065 1.59706 0
M  V30 17181 C 1671.97 1.57482 3.09992 0
M  V30 17182 H 1671.3 2.43872 3.16806 0
M  V30 17183 H 1672.74 1.69027 3.88852 0
M  V30 17184 C 1671.2 0.302944 3.35535 0
M  V30 17185 O 1671.73 -0.608066 3.97071 0
M  V30 17186 N 1669.93 0.191781 2.89966 0
M  V30 17187 H 1669.48 0.934025 2.4007 0
M  V30 17188 H 1669.44 -0.658341 3.0743 0
M  V30 17189 N 1673.21 -0.830057 1.33969 0
M  V30 17190 C 1674.16 -1.94049 1.24955 0
M  V30 17191 C 1675.13 -1.65619 0.126279 0
M  V30 17192 O 1676.31 -1.88329 0.306049 0
M  V30 17193 C 1673.45 -3.30182 1.00367 0
M  V30 17194 C 1672.56 -3.70952 2.21402 0
M  V30 17195 C 1671.7 -4.95998 1.90157 0
M  V30 17196 C 1670.74 -5.29327 3.07374 0
M  V30 17197 N 1669.88 -6.45551 2.76059 0
M  V30 17198 H 1674.72 -2.01091 2.19923 0
M  V30 17199 H 1672.25 -0.983918 1.0935 0
M  V30 17200 H 1674.21 -4.08625 0.841516 0
M  V30 17201 H 1672.84 -3.22673 0.090692 0
M  V30 17202 H 1671.89 -2.8796 2.48563 0
M  V30 17203 H 1673.2 -3.91558 3.09004 0
M  V30 17204 H 1672.36 -5.8221 1.70636 0
M  V30 17205 H 1671.1 -4.77379 0.998045 0
M  V30 17206 H 1670.1 -4.41616 3.27499 0
M  V30 17207 H 1671.33 -5.4989 3.98495 0
M  V30 17208 H 1669.27 -6.28401 1.88275 0
M  V30 17209 H 1669.19 -6.66295 3.57193 0
M  V30 17210 H 1670.46 -7.34851 2.60026 0
M  V30 17211 N 1674.69 -1.17582 -1.04939 0
M  V30 17212 C 1675.93 -0.965778 -1.77986 0
M  V30 17213 C 1676.26 0.505366 -1.8782 0
M  V30 17214 O 1675.52 1.39132 -1.37625 0
M  V30 17215 C 1675.82 -1.55507 -3.21796 0
M  V30 17216 C 1675.48 -3.05086 -3.32014 0
M  V30 17217 C 1674.14 -3.45914 -3.3451 0
M  V30 17218 C 1676.5 -4.01096 -3.32824 0
M  V30 17219 C 1673.82 -4.81344 -3.35447 0
M  V30 17220 C 1676.18 -5.3643 -3.353 0
M  V30 17221 C 1674.84 -5.76718 -3.36084 0
M  V30 17222 H 1674.11 -0.353403 -0.651297 0
M  V30 17223 H 1676.76 -1.46512 -1.23315 0
M  V30 17224 H 1675.06 -0.977509 -3.7941 0
M  V30 17225 H 1676.76 -1.36807 -3.76941 0
M  V30 17226 H 1673.35 -2.72541 -3.30786 0
M  V30 17227 H 1677.53 -3.7061 -3.30094 0
M  V30 17228 H 1672.79 -5.11868 -3.34366 0
M  V30 17229 H 1676.96 -6.106 -3.34874 0
M  V30 17230 H 1674.59 -6.81637 -3.36563 0
M  V30 17231 N 1676.17 1.23705 -0.976463 0
M  V30 17232 C 1677.13 2.23257 -0.518533 0
M  V30 17233 C 1678.13 1.56006 0.3897 0
M  V30 17234 O 1679.32 1.73226 0.18394 0
M  V30 17235 C 1676.45 3.39997 0.247916 0
M  V30 17236 H 1677.64 2.65284 -1.39872 0
M  V30 17237 H 1675.2 1.3647 -0.761946 0
M  V30 17238 H 1675.93 3.03421 1.14482 0
M  V30 17239 H 1675.72 3.90013 -0.403975 0
M  V30 17240 H 1677.21 4.13868 0.557034 0
M  V30 17241 N 1677.64 0.747635 1.38738 0
M  V30 17242 C 1678.89 0.301147 2.00248 0
M  V30 17243 C 1679.22 -1.11539 1.5934 0
M  V30 17244 O 1678.47 -1.77716 0.819487 0
M  V30 17245 C 1678.77 0.364869 3.55533 0
M  V30 17246 C 1678.44 1.73622 4.16133 0
M  V30 17247 C 1677.1 2.11153 4.32398 0
M  V30 17248 C 1679.45 2.63605 4.49624 0
M  V30 17249 C 1676.78 3.38151 4.79449 0
M  V30 17250 C 1679.13 3.89987 4.98089 0
M  V30 17251 C 1677.8 4.27595 5.12561 0
M  V30 17252 H 1677.07 0.110197 0.73276 0
M  V30 17253 H 1679.71 0.956952 1.65876 0
M  V30 17254 H 1678.02 -0.374505 3.90006 0
M  V30 17255 H 1679.72 0.00107503 4.01 0
M  V30 17256 H 1676.31 1.43445 4.03883 0
M  V30 17257 H 1680.49 2.35875 4.36665 0
M  V30 17258 H 1675.75 3.67215 4.88838 0
M  V30 17259 H 1679.92 4.59859 5.22975 0
M  V30 17260 H 1677.55 5.26065 5.4878 0
M  V30 17261 N 1679.12 -1.49583 0.496242 0
M  V30 17262 C 1680.54 -1.58875 0.151907 0
M  V30 17263 C 1680.74 -1.50196 -1.34326 0
M  V30 17264 O 1679.79 -1.37344 -2.11879 0
M  V30 17265 C 1681.11 -2.91842 0.724478 0
M  V30 17266 C 1682.65 -3.05296 0.690157 0
M  V30 17267 C 1683.13 -4.40875 1.24071 0
M  V30 17268 N 1684.62 -4.47354 1.2012 0
M  V30 17269 C 1685.36 -5.50699 1.59743 0
M  V30 17270 N 1684.85 -6.61173 2.06936 0
M  V30 17271 N 1686.64 -5.41386 1.51189 0
M  V30 17272 H 1678.8 -1.53468 1.46838 0
M  V30 17273 H 1681.06 -0.726702 0.608776 0
M  V30 17274 H 1680.76 -3.03747 1.77287 0
M  V30 17275 H 1680.64 -3.7676 0.182209 0
M  V30 17276 H 1683.03 -2.93024 -0.34939 0
M  V30 17277 H 1683.11 -2.22074 1.26952 0
M  V30 17278 H 1682.75 -4.53898 2.27901 0
M  V30 17279 H 1682.68 -5.22729 0.637328 0
M  V30 17280 H 1685.17 -3.68092 0.855361 0
M  V30 17281 H 1685.48 -7.36122 2.35252 0
M  V30 17282 H 1683.83 -6.62226 2.10906 0
M  V30 17283 H 1687.02 -4.53971 1.14142 0
M  V30 17284 H 1687.19 -6.21802 1.82392 0
M  V30 17285 N 1680.6 -0.229873 -1.55915 0
M  V30 17286 C 1681.51 0.687953 -2.24286 0
M  V30 17287 C 1682.53 1.20705 -1.25325 0
M  V30 17288 O 1683.7 1.2469 -1.58159 0
M  V30 17289 C 1680.77 1.87563 -2.91584 0
M  V30 17290 C 1679.83 1.39769 -4.0591 0
M  V30 17291 C 1679.06 2.52876 -4.69989 0
M  V30 17292 O 1679.28 3.71208 -4.33083 0
M  V30 17293 O 1678.22 2.23603 -5.58825 0
M  V30 17294 H 1682.04 0.135464 -3.03398 0
M  V30 17295 H 1679.63 0.000925172 -1.494 0
M  V30 17296 H 1681.51 2.56907 -3.34031 0
M  V30 17297 H 1680.19 2.41606 -2.15426 0
M  V30 17298 H 1679.09 0.672029 -3.68014 0
M  V30 17299 H 1680.43 0.903543 -4.83836 0
M  V30 17300 N 1682.08 1.5754 0.0434337 0
M  V30 17301 C 1683.04 2.046 1.03303 0
M  V30 17302 C 1684.04 0.947648 1.29909 0
M  V30 17303 O 1685.23 1.21171 1.25153 0
M  V30 17304 C 1682.36 2.45077 2.36961 0
M  V30 17305 H 1683.56 2.93276 0.626822 0
M  V30 17306 H 1681.11 1.53588 0.289909 0
M  V30 17307 H 1681.84 1.59513 2.82358 0
M  V30 17308 H 1681.63 3.25252 2.18983 0
M  V30 17309 H 1683.12 2.81963 3.08037 0
M  V30 17310 N 1683.56 -0.31543 1.54411 0
M  V30 17311 C 1684.8 -1.05396 1.73261 0
M  V30 17312 C 1685.13 -1.87406 0.509171 0
M  V30 17313 O 1684.41 -1.88126 -0.493836 0
M  V30 17314 C 1684.69 -1.97195 3.01308 0
M  V30 17315 C 1684.55 -1.18461 4.33921 0
M  V30 17316 C 1685.86 -2.96594 3.25146 0
M  V30 17317 H 1682.98 -0.381763 0.630417 0
M  V30 17318 H 1685.63 -0.329882 1.87114 0
M  V30 17319 H 1683.78 -2.58936 2.89628 0
M  V30 17320 H 1685.45 -0.591171 4.57496 0
M  V30 17321 H 1683.69 -0.487025 4.31057 0
M  V30 17322 H 1684.36 -1.85909 5.19752 0
M  V30 17323 H 1686.84 -2.44977 3.36341 0
M  V30 17324 H 1685.71 -3.58002 4.16084 0
M  V30 17325 H 1685.97 -3.69487 2.42758 0
M  V30 17326 N 1685.03 -1.46622 -0.577906 0
M  V30 17327 C 1686.26 -1.56 -1.36671 0
M  V30 17328 C 1686.68 -0.2034 -1.86997 0
M  V30 17329 O 1686.04 0.817288 -1.61834 0
M  V30 17330 C 1686.09 -2.57254 -2.52691 0
M  V30 17331 O 1685.19 -2.1109 -3.54281 0
M  V30 17332 H 1684.54 -0.524779 -0.406821 0
M  V30 17333 H 1687.07 -1.92234 -0.700512 0
M  V30 17334 H 1687.08 -2.77016 -2.99543 0
M  V30 17335 H 1685.75 -3.55766 -2.15415 0
M  V30 17336 H 1684.33 -2.01337 -3.13875 0
M  V30 17337 N 1686.51 0.822941 -1.34408 0
M  V30 17338 C 1687.46 1.93383 -1.25982 0
M  V30 17339 C 1688.43 1.6555 -0.13506 0
M  V30 17340 O 1689.61 1.88164 -0.316033 0
M  V30 17341 C 1686.75 3.29646 -1.02117 0
M  V30 17342 C 1685.87 3.69772 -2.23366 0
M  V30 17343 C 1685 4.94982 -1.92784 0
M  V30 17344 C 1684.04 5.2769 -3.10177 0
M  V30 17345 N 1683.18 6.44078 -2.79479 0
M  V30 17346 H 1688.02 1.99922 -2.20987 0
M  V30 17347 H 1685.56 0.978105 -1.0987 0
M  V30 17348 H 1687.51 4.08173 -0.863175 0
M  V30 17349 H 1686.14 3.2262 -0.107803 0
M  V30 17350 H 1685.2 2.86637 -2.50086 0
M  V30 17351 H 1686.51 3.89914 -3.11076 0
M  V30 17352 H 1685.66 5.81297 -1.73721 0
M  V30 17353 H 1684.4 4.76843 -1.02335 0
M  V30 17354 H 1683.41 4.39873 -3.29837 0
M  V30 17355 H 1684.63 5.47769 -4.01405 0
M  V30 17356 H 1682.58 6.27394 -1.91605 0
M  V30 17357 H 1682.49 6.64392 -3.60721 0
M  V30 17358 H 1683.76 7.33462 -2.63919 0
M  V30 17359 N 1687.99 1.18137 1.04314 0
M  V30 17360 C 1688.92 0.929593 2.14198 0
M  V30 17361 C 1689.9 -0.131766 1.69589 0
M  V30 17362 O 1691.09 0.0203104 1.94189 0
M  V30 17363 C 1688.22 0.451799 3.44349 0
M  V30 17364 C 1687.17 1.45336 4.02569 0
M  V30 17365 C 1686.5 0.833176 5.28169 0
M  V30 17366 C 1687.8 2.8293 4.39031 0
M  V30 17367 H 1689.49 1.84856 2.35518 0
M  V30 17368 H 1687.04 0.890217 1.13186 0
M  V30 17369 H 1688.99 0.26303 4.20578 0
M  V30 17370 H 1687.71 -0.502725 3.22708 0
M  V30 17371 H 1686.37 1.62902 3.28418 0
M  V30 17372 H 1686.02 -0.128459 5.02836 0
M  V30 17373 H 1685.72 1.50185 5.68083 0
M  V30 17374 H 1687.24 0.654881 6.07078 0
M  V30 17375 H 1688.66 2.6903 5.06257 0
M  V30 17376 H 1687.06 3.46458 4.89987 0
M  V30 17377 H 1688.13 3.3667 3.48972 0
M  V30 17378 N 1689.47 -1.23186 0.98301 0
M  V30 17379 C 1690.38 -2.28448 0.533727 0
M  V30 17380 C 1691.39 -1.69034 -0.412732 0
M  V30 17381 O 1692.57 -1.99416 -0.282007 0
M  V30 17382 C 1689.64 -3.46357 -0.154179 0
M  V30 17383 C 1688.7 -4.21121 0.834009 0
M  V30 17384 C 1687.93 -5.334 0.178836 0
M  V30 17385 O 1688.15 -5.61032 -1.02952 0
M  V30 17386 O 1687.09 -5.95451 0.878722 0
M  V30 17387 H 1690.91 -2.69027 1.40919 0
M  V30 17388 H 1688.5 -1.29166 0.75077 0
M  V30 17389 H 1690.38 -4.17926 -0.539947 0
M  V30 17390 H 1689.05 -3.07724 -1.00437 0
M  V30 17391 H 1687.96 -3.51864 1.27053 0
M  V30 17392 H 1689.29 -4.6361 1.65309 0
M  V30 17393 N 1690.95 -0.754982 -1.38339 0
M  V30 17394 C 1691.88 -0.143678 -2.33058 0
M  V30 17395 C 1692.86 0.702022 -1.54938 0
M  V30 17396 O 1694.04 0.642922 -1.83249 0
M  V30 17397 C 1691.17 0.749194 -3.39123 0
M  V30 17398 C 1690.13 0.00611459 -4.28 0
M  V30 17399 C 1689.45 1.01733 -5.24933 0
M  V30 17400 C 1690.75 -1.1631 -5.09185 0
M  V30 17401 H 1692.45 -0.934907 -2.84429 0
M  V30 17402 H 1689.99 -0.451023 -1.36754 0
M  V30 17403 H 1691.95 1.18653 -4.04351 0
M  V30 17404 H 1690.67 1.57276 -2.86237 0
M  V30 17405 H 1689.33 -0.411816 -3.6428 0
M  V30 17406 H 1688.98 1.83499 -4.68334 0
M  V30 17407 H 1688.68 0.524783 -5.85252 0
M  V30 17408 H 1690.2 1.45395 -5.93037 0
M  V30 17409 H 1691.61 -0.803244 -5.67645 0
M  V30 17410 H 1690.01 -1.5866 -5.78746 0
M  V30 17411 H 1691.08 -1.97533 -4.42842 0
M  V30 17412 N 1692.42 1.49318 -0.504168 0
M  V30 17413 C 1693.65 2.07365 0.038102 0
M  V30 17414 C 1694.07 1.36164 1.29773 0
M  V30 17415 O 1693.43 0.419365 1.76383 0
M  V30 17416 C 1693.48 3.59576 0.271535 0
M  V30 17417 O 1692.58 3.8983 1.34561 0
M  V30 17418 H 1691.93 0.663425 -0.0276328 0
M  V30 17419 H 1694.46 1.92081 -0.704696 0
M  V30 17420 H 1694.47 4.04899 0.502083 0
M  V30 17421 H 1693.14 4.10809 -0.648754 0
M  V30 17422 H 1691.72 3.56314 1.09976 0
M  V30 17423 N 1693.9 0.238138 1.5579 0
M  V30 17424 C 1694.83 -0.659451 2.23994 0
M  V30 17425 C 1695.81 -1.18817 1.21723 0
M  V30 17426 O 1697 -1.22913 1.50353 0
M  V30 17427 C 1694.13 -1.86043 2.93267 0
M  V30 17428 C 1693.08 -1.46485 4.02152 0
M  V30 17429 C 1692.41 -2.74595 4.58805 0
M  V30 17430 C 1693.71 -0.642448 5.18334 0
M  V30 17431 H 1695.4 -0.0907522 2.99262 0
M  V30 17432 H 1692.95 -0.042209 1.43938 0
M  V30 17433 H 1694.9 -2.49393 3.39678 0
M  V30 17434 H 1693.63 -2.45436 2.15473 0
M  V30 17435 H 1692.28 -0.854729 3.56497 0
M  V30 17436 H 1691.93 -3.32168 3.77721 0
M  V30 17437 H 1691.63 -2.48854 5.32302 0
M  V30 17438 H 1693.16 -3.38859 5.07944 0
M  V30 17439 H 1694.57 -1.18005 5.61024 0
M  V30 17440 H 1692.97 -0.481458 5.98166 0
M  V30 17441 H 1694.04 0.347298 4.83655 0
M  V30 17442 N 1695.38 -1.57561 -0.0350783 0
M  V30 17443 C 1696.31 -2.02953 -1.06502 0
M  V30 17444 C 1697.33 -0.941331 -1.32826 0
M  V30 17445 O 1698.51 -1.21873 -1.30419 0
M  V30 17446 C 1695.61 -2.38471 -2.40801 0
M  V30 17447 C 1694.79 -3.69596 -2.33917 0
M  V30 17448 C 1693.85 -3.9237 -3.50616 0
M  V30 17449 O 1692.87 -4.63504 -3.30382 0
M  V30 17450 N 1694.07 -3.37544 -4.72275 0
M  V30 17451 H 1696.84 -2.91926 -0.678169 0
M  V30 17452 H 1694.4 -1.60355 -0.22313 0
M  V30 17453 H 1696.39 -2.50849 -3.1758 0
M  V30 17454 H 1694.96 -1.55199 -2.71352 0
M  V30 17455 H 1694.18 -3.67629 -1.42277 0
M  V30 17456 H 1695.47 -4.55627 -2.26455 0
M  V30 17457 H 1694.87 -2.79875 -4.91616 0
M  V30 17458 H 1693.43 -3.55312 -5.4644 0
M  V30 17459 N 1696.86 0.307236 -1.54576 0
M  V30 17460 C 1697.77 1.4014 -1.88143 0
M  V30 17461 C 1698.78 1.5579 -0.774952 0
M  V30 17462 O 1699.96 1.70574 -1.07082 0
M  V30 17463 C 1697.03 2.74613 -2.11633 0
M  V30 17464 C 1696.09 2.68001 -3.35371 0
M  V30 17465 C 1695.32 3.96061 -3.57731 0
M  V30 17466 O 1695.54 4.95119 -2.83219 0
M  V30 17467 O 1694.48 3.98331 -4.51238 0
M  V30 17468 H 1698.3 1.14677 -2.81217 0
M  V30 17469 H 1695.89 0.502739 -1.40687 0
M  V30 17470 H 1697.77 3.54186 -2.2832 0
M  V30 17471 H 1696.44 2.99933 -1.21746 0
M  V30 17472 H 1695.35 1.86922 -3.24054 0
M  V30 17473 H 1696.68 2.47635 -4.25368 0
M  V30 17474 N 1698.34 1.46926 0.570122 0
M  V30 17475 C 1699.27 1.61311 1.68822 0
M  V30 17476 C 1700.25 0.462964 1.63678 0
M  V30 17477 O 1701.43 0.690745 1.815 0
M  V30 17478 C 1698.56 1.61499 3.07466 0
M  V30 17479 C 1697.52 2.7561 3.27449 0
M  V30 17480 C 1696.84 2.60865 4.66748 0
M  V30 17481 C 1698.14 4.17324 3.14067 0
M  V30 17482 H 1699.84 2.54909 1.5704 0
M  V30 17483 H 1697.38 1.22677 0.754077 0
M  V30 17484 H 1699.34 1.70155 3.8552 0
M  V30 17485 H 1698.06 0.64453 3.20177 0
M  V30 17486 H 1696.72 2.66444 2.51799 0
M  V30 17487 H 1696.37 1.61875 4.76241 0
M  V30 17488 H 1696.07 3.37411 4.81069 0
M  V30 17489 H 1697.59 2.7143 5.46954 0
M  V30 17490 H 1699 4.27534 3.81952 0
M  V30 17491 H 1697.4 4.94555 3.39905 0
M  V30 17492 H 1698.47 4.36596 2.10979 0
M  V30 17493 N 1699.82 -0.815801 1.34842 0
M  V30 17494 C 1700.75 -1.93493 1.22854 0
M  V30 17495 C 1701.76 -1.6207 0.15395 0
M  V30 17496 O 1702.95 -1.73811 0.406428 0
M  V30 17497 C 1700.05 -3.27622 0.867006 0
M  V30 17498 C 1699.22 -3.87017 2.03806 0
M  V30 17499 C 1698.28 -4.99536 1.65378 0
M  V30 17500 O 1697.31 -5.17453 2.37131 0
M  V30 17501 N 1698.51 -5.77674 0.572056 0
M  V30 17502 H 1701.27 -2.04307 2.19269 0
M  V30 17503 H 1698.84 -0.992752 1.27891 0
M  V30 17504 H 1700.83 -4.00353 0.59159 0
M  V30 17505 H 1699.4 -3.12599 -0.00717215 0
M  V30 17506 H 1698.62 -3.06592 2.4778 0
M  V30 17507 H 1699.91 -4.23431 2.82106 0
M  V30 17508 H 1699.3 -5.65695 -0.0242931 0
M  V30 17509 H 1697.86 -6.50825 0.356394 0
M  V30 17510 N 1701.29 -1.18689 -1.03686 0
M  V30 17511 C 1702.54 -0.98606 -1.77214 0
M  V30 17512 C 1702.87 0.482788 -1.88103 0
M  V30 17513 O 1702.15 1.3585 -1.39194 0
M  V30 17514 C 1702.43 -1.64611 -3.20274 0
M  V30 17515 C 1702.28 -3.18808 -3.17304 0
M  V30 17516 C 1703.6 -1.36251 -4.18478 0
M  V30 17517 H 1700.72 -0.359634 -0.643298 0
M  V30 17518 H 1703.36 -1.46412 -1.21094 0
M  V30 17519 H 1701.51 -1.23964 -3.68192 0
M  V30 17520 H 1703.19 -3.68615 -2.77346 0
M  V30 17521 H 1701.43 -3.50769 -2.55232 0
M  V30 17522 H 1702.1 -3.60131 -4.18341 0
M  V30 17523 H 1704.58 -1.71476 -3.79124 0
M  V30 17524 H 1703.45 -1.84997 -5.16786 0
M  V30 17525 H 1703.71 -0.286113 -4.41173 0
M  V30 17526 N 1702.77 1.22662 -0.989529 0
M  V30 17527 C 1704 1.95883 -0.681511 0
M  V30 17528 C 1704.42 1.72646 0.746646 0
M  V30 17529 O 1703.78 1.00358 1.5099 0
M  V30 17530 C 1703.83 3.46773 -0.988975 0
M  V30 17531 O 1702.93 4.12311 -0.0858485 0
M  V30 17532 H 1702.27 0.612916 -0.255401 0
M  V30 17533 H 1704.8 1.5585 -1.32559 0
M  V30 17534 H 1704.81 3.97273 -0.929426 0
M  V30 17535 H 1703.49 3.63011 -2.02967 0
M  V30 17536 H 1702.06 3.7236 -0.200592 0
M  V30 17537 N 1704.25 0.762308 1.37937 0
M  V30 17538 C 1705.47 0.332217 2.04722 0
M  V30 17539 C 1705.9 -1.03417 1.57119 0
M  V30 17540 O 1705.26 -1.6608 0.727117 0
M  V30 17541 C 1705.31 0.373899 3.58656 0
M  V30 17542 O 1704.41 -0.629024 4.07575 0
M  V30 17543 H 1703.75 0.145471 0.647869 0
M  V30 17544 H 1706.28 1.03586 1.7644 0
M  V30 17545 H 1706.29 0.22785 4.07363 0
M  V30 17546 H 1704.97 1.37079 3.92661 0
M  V30 17547 H 1703.54 -0.446871 3.70213 0
M  V30 17548 N 1705.73 -1.49049 0.51208 0
M  V30 17549 C 1706.69 -2.27838 -0.249491 0
M  V30 17550 C 1707.69 -1.34321 -0.884004 0
M  V30 17551 O 1708.88 -1.57379 -0.74682 0
M  V30 17552 C 1706.01 -3.12637 -1.35908 0
M  V30 17553 H 1707.21 -2.96625 0.442029 0
M  V30 17554 H 1704.76 -1.53996 0.267406 0
M  V30 17555 H 1705.49 -2.48441 -2.0844 0
M  V30 17556 H 1705.28 -3.81408 -0.909427 0
M  V30 17557 H 1706.77 -3.72117 -1.89523 0
M  V30 17558 N 1707.21 -0.246397 -1.55662 0
M  V30 17559 C 1708.17 0.640041 -2.20082 0
M  V30 17560 C 1709.17 1.10313 -1.16994 0
M  V30 17561 O 1710.36 1.00792 -1.42079 0
M  V30 17562 C 1707.49 1.87964 -2.84398 0
M  V30 17563 H 1708.68 0.0780034 -2.99799 0
M  V30 17564 H 1706.24 0.00314588 -1.563 0
M  V30 17565 H 1706.97 2.48292 -2.08618 0
M  V30 17566 H 1706.76 1.5558 -3.59913 0
M  V30 17567 H 1708.25 2.51065 -3.33701 0
M  V30 17568 N 1708.68 1.57577 0.026722 0
M  V30 17569 C 1709.65 2.05684 1.01127 0
M  V30 17570 C 1710.65 0.961373 1.28896 0
M  V30 17571 O 1711.84 1.22491 1.23861 0
M  V30 17572 C 1708.97 2.47576 2.34348 0
M  V30 17573 H 1710.16 2.93925 0.595681 0
M  V30 17574 H 1707.71 1.53887 0.273603 0
M  V30 17575 H 1708.45 1.62498 2.80651 0
M  V30 17576 H 1708.23 3.27556 2.15521 0
M  V30 17577 H 1709.72 2.85214 3.05029 0
M  V30 17578 N 1710.16 -0.299034 1.54737 0
M  V30 17579 C 1711.41 -1.03195 1.73767 0
M  V30 17580 C 1711.73 -1.87731 0.527445 0
M  V30 17581 O 1711 -1.90465 -0.458242 0
M  V30 17582 H 1709.58 -0.383996 0.640747 0
M  V30 17583 H 1712.24 -0.329544 1.92094 0
M  V30 17584 H 1711.34 -1.68393 2.62774 0
M  V30 17585 N 1711.64 -1.47227 -0.562322 0
M  V30 17586 C 1712.89 -1.53816 -1.32168 0
M  V30 17587 C 1713.22 -0.197649 -1.93192 0
M  V30 17588 O 1712.49 0.793178 -1.77592 0
M  V30 17589 C 1712.78 -2.65231 -2.43566 0
M  V30 17590 C 1712.63 -4.08882 -1.87445 0
M  V30 17591 C 1713.95 -2.72589 -3.45519 0
M  V30 17592 H 1711.07 -0.559947 -0.479195 0
M  V30 17593 H 1713.71 -1.7926 -0.629762 0
M  V30 17594 H 1711.86 -2.43667 -3.02587 0
M  V30 17595 H 1713.53 -4.41794 -1.32725 0
M  V30 17596 H 1711.77 -4.17401 -1.18149 0
M  V30 17597 H 1712.45 -4.82603 -2.67952 0
M  V30 17598 H 1714.92 -2.92028 -2.9641 0
M  V30 17599 H 1713.8 -3.5233 -4.20898 0
M  V30 17600 H 1714.06 -1.79444 -4.04045 0
M  V30 17601 N 1713.12 0.808639 -1.35273 0
M  V30 17602 C 1714.53 1.38248 -1.25477 0
M  V30 17603 C 1714.88 1.9587 0.113715 0
M  V30 17604 O 1714 1.91141 1.0146 0
M  V30 17605 C 1714.6 2.5133 -2.27197 0
M  V30 17606 C 1713.16 3.04582 -2.21148 0
M  V30 17607 C 1712.31 1.77534 -2.13019 0
M  V30 17608 H 1715.26 0.611844 -1.46431 0
M  V30 17609 H 1715.28 3.29825 -1.89726 0
M  V30 17610 H 1714.79 2.09362 -3.26786 0
M  V30 17611 H 1712.89 3.5102 -1.24963 0
M  V30 17612 H 1713 3.62703 -3.13023 0
M  V30 17613 H 1711.37 1.99004 -1.58964 0
M  V30 17614 H 1712.15 1.3772 -3.14465 0
M  V30 17615 N 1714.6 1.19237 1.03055 0
M  V30 17616 C 1715.84 0.992008 1.76078 0
M  V30 17617 C 1716.17 -0.478535 1.89037 0
M  V30 17618 O 1715.44 -1.34666 1.42274 0
M  V30 17619 H 1714.02 0.364059 0.652281 0
M  V30 17620 H 1716.68 1.50101 1.24321 0
M  V30 17621 H 1715.77 1.43862 2.76966 0
M  V30 17622 N 1716.07 -1.22136 0.99602 0
M  V30 17623 C 1717.3 -1.94978 0.692172 0
M  V30 17624 C 1717.72 -1.73536 -0.743696 0
M  V30 17625 O 1717.07 -1.03637 -1.50219 0
M  V30 17626 C 1717.13 -3.47609 0.992498 0
M  V30 17627 O 1716.85 -3.68334 2.37195 0
M  V30 17628 C 1718.35 -4.37629 0.70679 0
M  V30 17629 H 1715.57 -0.620327 0.255802 0
M  V30 17630 H 1718.11 -1.55202 1.33164 0
M  V30 17631 H 1716.27 -3.85342 0.398785 0
M  V30 17632 H 1716.68 -4.62506 2.47362 0
M  V30 17633 H 1718.15 -5.43461 0.967173 0
M  V30 17634 H 1718.63 -4.37729 -0.359208 0
M  V30 17635 H 1719.24 -4.05528 1.2817 0
M  V30 17636 N 1717.55 -0.769612 -1.37531 0
M  V30 17637 C 1718.5 -0.142211 -2.32165 0
M  V30 17638 C 1719.49 0.687376 -1.54827 0
M  V30 17639 O 1720.7 0.584677 -1.7024 0
M  V30 17640 H 1717.08 -0.0271998 -0.751508 0
M  V30 17641 H 1719.05 -0.956148 -2.82667 0
M  V30 17642 C 1717.8 0.72421 -3.40074 0
M  V30 17643 H 1717.12 0.0952318 -3.99687 0
M  V30 17644 H 1718.56 1.13021 -4.08659 0
M  V30 17645 C 1717.02 1.87388 -2.79977 0
M  V30 17646 O 1717.55 2.96921 -2.70557 0
M  V30 17647 N 1715.75 1.67384 -2.37552 0
M  V30 17648 H 1715.3 0.782941 -2.45414 0
M  V30 17649 H 1715.26 2.44474 -1.97686 0
M  V30 17650 N 1719.03 1.48775 -0.519977 0
M  V30 17651 C 1720.44 1.86541 -0.0769625 0
M  V30 17652 C 1720.79 1.43053 1.34277 0
M  V30 17653 O 1719.92 0.816781 2.00394 0
M  V30 17654 C 1720.51 3.38539 -0.132891 0
M  V30 17655 C 1719.07 3.75536 0.254875 0
M  V30 17656 C 1718.22 2.72808 -0.497088 0
M  V30 17657 H 1721.17 1.40822 -0.731765 0
M  V30 17658 H 1721.19 3.7477 0.657856 0
M  V30 17659 H 1720.7 3.70161 -1.1663 0
M  V30 17660 H 1718.8 3.49527 1.29081 0
M  V30 17661 H 1718.92 4.79037 -0.0777747 0
M  V30 17662 H 1717.28 2.5464 0.0554331 0
M  V30 17663 H 1718.06 3.07274 -1.53094 0
M  V30 17664 N 1720.51 0.254649 1.55529 0
M  V30 17665 C 1721.75 -0.368477 1.99424 0
M  V30 17666 C 1722.09 -1.57023 1.14269 0
M  V30 17667 O 1721.36 -1.93386 0.207886 0
M  V30 17668 C 1721.65 -0.77076 3.51755 0
M  V30 17669 C 1721.5 0.436923 4.47673 0
M  V30 17670 C 1722.82 -1.61487 4.09402 0
M  V30 17671 H 1719.94 -0.132459 0.724999 0
M  V30 17672 H 1722.58 0.357508 1.86606 0
M  V30 17673 H 1720.73 -1.38932 3.62809 0
M  V30 17674 H 1722.4 1.07541 4.4859 0
M  V30 17675 H 1720.64 1.07866 4.20175 0
M  V30 17676 H 1721.31 0.111996 5.51886 0
M  V30 17677 H 1723.79 -1.09265 4.01498 0
M  V30 17678 H 1722.67 -1.86519 5.16238 0
M  V30 17679 H 1722.93 -2.58926 3.58343 0
M  V30 17680 N 1721.99 -1.57589 -0.0183649 0
M  V30 17681 C 1722.92 -2.1029 -1.01492 0
M  V30 17682 C 1723.9 -1.00782 -1.37029 0
M  V30 17683 O 1725.08 -1.28365 -1.45726 0
M  V30 17684 C 1722.21 -2.59111 -2.31255 0
M  V30 17685 C 1721.17 -3.72979 -2.0993 0
M  V30 17686 C 1720.49 -4.08046 -3.45547 0
M  V30 17687 C 1721.79 -5.00988 -1.47677 0
M  V30 17688 H 1723.49 -2.93804 -0.57618 0
M  V30 17689 H 1721.03 -1.41336 -0.275708 0
M  V30 17690 H 1722.99 -2.94602 -3.0131 0
M  V30 17691 H 1721.71 -1.72694 -2.77208 0
M  V30 17692 H 1720.37 -3.37853 -1.42306 0
M  V30 17693 H 1720.02 -3.1868 -3.89169 0
M  V30 17694 H 1719.72 -4.8475 -3.32101 0
M  V30 17695 H 1721.24 -4.46081 -4.16947 0
M  V30 17696 H 1722.65 -5.34368 -2.07663 0
M  V30 17697 H 1721.05 -5.82375 -1.44774 0
M  V30 17698 H 1722.12 -4.82865 -0.443804 0
M  V30 17699 N 1723.46 0.290824 -1.54893 0
M  V30 17700 C 1724.41 1.37898 -1.87315 0
M  V30 17701 C 1725.41 1.52001 -0.747794 0
M  V30 17702 O 1726.61 1.53998 -0.93192 0
M  V30 17703 H 1722.99 0.460824 -0.59426 0
M  V30 17704 H 1724.96 1.07794 -2.7825 0
M  V30 17705 C 1723.71 2.73568 -2.14606 0
M  V30 17706 H 1723.03 2.63501 -3.00678 0
M  V30 17707 H 1724.47 3.48693 -2.41225 0
M  V30 17708 C 1722.93 3.23291 -0.947865 0
M  V30 17709 O 1723.46 4.01325 -0.173479 0
M  V30 17710 N 1721.67 2.80743 -0.750444 0
M  V30 17711 H 1721.21 2.174 -1.38184 0
M  V30 17712 H 1721.17 3.14361 0.0496746 0
M  V30 17713 N 1724.94 1.47523 0.554506 0
M  V30 17714 C 1725.89 1.60623 1.68235 0
M  V30 17715 C 1726.88 0.473445 1.6265 0
M  V30 17716 O 1728.09 0.651337 1.67802 0
M  V30 17717 H 1724.47 0.505539 0.556718 0
M  V30 17718 H 1726.44 2.55395 1.54323 0
M  V30 17719 C 1725.19 1.64022 3.06581 0
M  V30 17720 H 1724.51 2.50537 3.11562 0
M  V30 17721 H 1725.95 1.77237 3.85179 0
M  V30 17722 C 1724.41 0.374048 3.34817 0
M  V30 17723 O 1724.94 -0.523704 3.98272 0
M  V30 17724 N 1723.14 0.253244 2.89494 0
M  V30 17725 H 1722.69 0.984738 2.38035 0
M  V30 17726 H 1722.65 -0.592982 3.08757 0
M  V30 17727 N 1726.42 -0.801453 1.357 0
M  V30 17728 C 1727.35 -1.92807 1.31711 0
M  V30 17729 C 1728.33 -1.69028 0.190642 0
M  V30 17730 O 1729.52 -1.90317 0.38641 0
M  V30 17731 C 1726.65 -3.29635 1.09352 0
M  V30 17732 C 1725.6 -3.67908 2.18695 0
M  V30 17733 C 1724.93 -5.02955 1.81494 0
M  V30 17734 C 1726.23 -3.77749 3.60698 0
M  V30 17735 H 1727.92 -1.96401 2.2598 0
M  V30 17736 H 1725.47 -0.943528 1.08782 0
M  V30 17737 H 1727.42 -4.08058 1.052 0
M  V30 17738 H 1726.14 -3.26396 0.115306 0
M  V30 17739 H 1724.8 -2.91775 2.21952 0
M  V30 17740 H 1724.45 -4.96225 0.822776 0
M  V30 17741 H 1724.15 -5.29533 2.54692 0
M  V30 17742 H 1725.67 -5.83811 1.78876 0
M  V30 17743 H 1727.09 -4.4639 3.59734 0
M  V30 17744 H 1725.49 -4.15801 4.327 0
M  V30 17745 H 1726.56 -2.79167 3.96477 0
M  V30 17746 N 1727.9 -1.19782 -1.02421 0
M  V30 17747 C 1728.83 -0.963553 -2.12692 0
M  V30 17748 C 1729.81 0.104769 -1.69777 0
M  V30 17749 O 1730.99 -0.0512017 -1.94132 0
M  V30 17750 C 1728.12 -0.506525 -3.43586 0
M  V30 17751 C 1727.08 -1.51722 -4.00206 0
M  V30 17752 C 1726.4 -0.917097 -5.26776 0
M  V30 17753 C 1727.7 -2.89879 -4.34474 0
M  V30 17754 H 1729.4 -1.88579 -2.32547 0
M  V30 17755 H 1726.94 -0.908111 -1.11756 0
M  V30 17756 H 1728.9 -0.329907 -4.20107 0
M  V30 17757 H 1727.62 0.451322 -3.23467 0
M  V30 17758 H 1726.28 -1.68106 -3.25785 0
M  V30 17759 H 1725.93 0.0484457 -5.02977 0
M  V30 17760 H 1725.63 -1.59204 -5.65622 0
M  V30 17761 H 1727.15 -0.751379 -6.05959 0
M  V30 17762 H 1728.57 -2.7705 -5.01913 0
M  V30 17763 H 1726.96 -3.54209 -4.84413 0
M  V30 17764 H 1728.03 -3.42179 -3.43571 0
M  V30 17765 N 1729.38 1.21606 -1.00248 0
M  V30 17766 C 1730.6 1.95149 -0.702249 0
M  V30 17767 C 1731.03 1.73429 0.728293 0
M  V30 17768 O 1730.39 1.01953 1.49917 0
M  V30 17769 C 1730.43 3.45705 -1.0257 0
M  V30 17770 O 1729.54 4.12196 -0.129575 0
M  V30 17771 H 1728.88 0.610173 -0.261888 0
M  V30 17772 H 1731.41 1.54435 -1.34205 0
M  V30 17773 H 1731.42 3.96265 -0.97151 0
M  V30 17774 H 1730.09 3.60838 -2.06806 0
M  V30 17775 H 1728.67 3.72126 -0.240074 0
M  V30 17776 N 1730.86 0.776895 1.37121 0
M  V30 17777 C 1732.1 0.348792 2.01402 0
M  V30 17778 C 1732.46 -1.05625 1.60335 0
M  V30 17779 O 1733.66 -1.58475 2.17116 0
M  V30 17780 C 1731.93 0.493351 3.53979 0
M  V30 17781 S 1733.49 0.151273 4.38539 0
M  V30 17782 H 1730.31 0.133916 0.698275 0
M  V30 17783 H 1732.91 1.01264 1.6723 0
M  V30 17784 H 1731.61 1.51647 3.81355 0
M  V30 17785 H 1731.15 -0.186869 3.92956 0
M  V30 17786 H 1733.16 -1.05145 4.84932 0
M  V30 17787 N 1732.33 -1.48497 0.527859 0
M  V30 17788 C 1733.58 -2.02799 -0.00702196 0
M  V30 17789 C 1733.91 -1.40433 -1.34135 0
M  V30 17790 O 1733.19 -0.54934 -1.86581 0
M  V30 17791 C 1733.47 -3.59861 -0.131272 0
M  V30 17792 C 1733.32 -4.32711 1.22807 0
M  V30 17793 C 1734.64 -4.31634 -0.85908 0
M  V30 17794 H 1731.76 -0.736999 -0.00107787 0
M  V30 17795 H 1734.4 -1.77242 0.684478 0
M  V30 17796 H 1732.55 -3.81766 -0.720216 0
M  V30 17797 H 1734.23 -4.22229 1.85796 0
M  V30 17798 H 1732.47 -3.94212 1.8105 0
M  V30 17799 H 1733.14 -5.41047 1.09415 0
M  V30 17800 H 1735.62 -4.14546 -0.359322 0
M  V30 17801 H 1734.49 -5.41221 -0.914911 0
M  V30 17802 H 1734.75 -3.98765 -1.90889 0
M  V30 17803 N 1733.81 -0.262893 -1.55392 0
M  V30 17804 C 1734.74 0.66288 -2.19405 0
M  V30 17805 C 1735.76 1.12675 -1.17508 0
M  V30 17806 O 1736.95 1.05077 -1.44295 0
M  V30 17807 C 1734.05 1.91471 -2.79628 0
M  V30 17808 C 1733.22 1.59966 -4.07099 0
M  V30 17809 C 1732.28 2.7027 -4.51487 0
M  V30 17810 O 1731.3 2.36976 -5.17524 0
M  V30 17811 N 1732.51 4.0009 -4.20605 0
M  V30 17812 H 1735.27 0.115075 -2.99479 0
M  V30 17813 H 1732.83 -0.0834933 -1.61685 0
M  V30 17814 H 1734.82 2.64535 -3.06273 0
M  V30 17815 H 1733.39 2.37188 -2.03619 0
M  V30 17816 H 1732.61 0.703431 -3.87873 0
M  V30 17817 H 1733.9 1.36402 -4.90175 0
M  V30 17818 H 1733.3 4.29966 -3.67621 0
M  V30 17819 H 1731.86 4.69569 -4.52049 0
M  V30 17820 N 1735.29 1.57597 0.0100073 0
M  V30 17821 C 1736.2 2.11209 1.02117 0
M  V30 17822 C 1737.22 1.05503 1.38366 0
M  V30 17823 O 1738.39 1.37348 1.47301 0
M  V30 17824 C 1735.46 2.59654 2.2974 0
M  V30 17825 C 1734.52 3.79921 1.99896 0
M  V30 17826 C 1733.75 4.26046 3.21435 0
M  V30 17827 O 1733.97 3.71566 4.32775 0
M  V30 17828 O 1732.91 5.18301 3.06018 0
M  V30 17829 H 1736.73 2.97805 0.595469 0
M  V30 17830 H 1734.32 1.47647 0.228208 0
M  V30 17831 H 1736.2 2.91058 3.04735 0
M  V30 17832 H 1734.88 1.76161 2.71568 0
M  V30 17833 H 1733.78 3.53506 1.22409 0
M  V30 17834 H 1735.12 4.64457 1.62912 0
M  V30 17835 N 1736.77 -0.282606 1.55045 0
M  V30 17836 C 1738.02 -1.0132 1.74405 0
M  V30 17837 C 1738.33 -1.87792 0.547133 0
M  V30 17838 O 1739.54 -2.64257 0.622931 0
M  V30 17839 C 1737.99 -1.85128 3.08635 0
M  V30 17840 C 1737.6 -1.0357 4.35864 0
M  V30 17841 C 1739.34 -2.57676 3.37347 0
M  V30 17842 C 1737.25 -1.86761 5.61137 0
M  V30 17843 H 1736.18 -0.382013 0.650063 0
M  V30 17844 H 1738.83 -0.269307 1.81513 0
M  V30 17845 H 1737.21 -2.63576 2.95539 0
M  V30 17846 H 1738.39 -0.296061 4.59848 0
M  V30 17847 H 1736.7 -0.425208 4.14223 0
M  V30 17848 H 1739.3 -3.20303 4.28147 0
M  V30 17849 H 1739.64 -3.27464 2.57046 0
M  V30 17850 H 1740.18 -1.86264 3.51497 0
M  V30 17851 H 1736.91 -1.2141 6.44158 0
M  V30 17852 H 1736.43 -2.58348 5.4131 0
M  V30 17853 H 1738.11 -2.44361 5.9908 0
M  V30 17854 N 1738.25 -1.47815 -0.546675 0
M  V30 17855 C 1739.47 -1.58864 -1.33331 0
M  V30 17856 C 1739.9 -0.24302 -1.86524 0
M  V30 17857 O 1739.25 0.782777 -1.63531 0
M  V30 17858 C 1739.3 -2.62556 -2.47177 0
M  V30 17859 O 1738.41 -2.18558 -3.49723 0
M  V30 17860 H 1737.75 -0.53329 -0.395598 0
M  V30 17861 H 1740.28 -1.93677 -0.659579 0
M  V30 17862 H 1740.29 -2.83307 -2.936 0
M  V30 17863 H 1738.96 -3.60255 -2.0782 0
M  V30 17864 H 1737.54 -2.0795 -3.09534 0
M  V30 17865 N 1739.72 0.794246 -1.36123 0
M  V30 17866 C 1741 1.53967 -1.20638 0
M  V30 17867 C 1741.38 2.10058 0.209456 0
M  V30 17868 O 1740.73 1.93551 1.2145 0
M  V30 17869 C 1740.94 2.63844 -2.28445 0
M  V30 17870 C 1742.29 3.31855 -2.64872 0
M  V30 17871 O 1743.31 2.74124 -2.27452 0
M  V30 17872 O 1742.17 4.36177 -3.2926 0
M  V30 17873 H 1739.26 0.68086 -0.469424 0
M  V30 17874 H 1741.81 0.833144 -1.4784 0
M  V30 17875 H 1740.58 2.20357 -3.23355 0
M  V30 17876 H 1740.2 3.42121 -2.02581 0
M  V30 17877 N 1741.2 1.20323 1.01785 0
M  V30 17878 C 1742.45 1.01413 1.75623 0
M  V30 17879 C 1742.78 -0.452801 1.88847 0
M  V30 17880 O 1742.06 -1.33618 1.41338 0
M  V30 17881 C 1742.34 1.69686 3.17614 0
M  V30 17882 C 1742.19 3.23815 3.12192 0
M  V30 17883 C 1743.51 1.42891 4.16257 0
M  V30 17884 H 1740.63 0.369822 0.637495 0
M  V30 17885 H 1743.27 1.4832 1.18749 0
M  V30 17886 H 1741.42 1.29806 3.66173 0
M  V30 17887 H 1743.09 3.72981 2.71446 0
M  V30 17888 H 1741.34 3.54785 2.4962 0
M  V30 17889 H 1742.01 3.66741 4.12559 0
M  V30 17890 H 1744.48 1.77486 3.76348 0
M  V30 17891 H 1743.36 1.93195 5.13777 0
M  V30 17892 H 1743.62 0.356263 4.40662 0
M  V30 17893 N 1742.68 -1.21073 1.00892 0
M  V30 17894 C 1743.93 -1.90524 0.694879 0
M  V30 17895 C 1744.26 -1.78161 -0.772802 0
M  V30 17896 O 1743.53 -1.1608 -1.56063 0
M  V30 17897 C 1743.82 -3.42188 1.12156 0
M  V30 17898 C 1743.67 -3.63523 2.64898 0
M  V30 17899 C 1744.99 -4.34706 0.68694 0
M  V30 17900 H 1742.11 -0.69188 0.253912 0
M  V30 17901 H 1744.75 -1.42626 1.2553 0
M  V30 17902 H 1742.9 -3.83113 0.644742 0
M  V30 17903 H 1744.57 -3.31901 3.20374 0
M  V30 17904 H 1742.81 -3.07255 3.0623 0
M  V30 17905 H 1743.49 -4.69805 2.89806 0
M  V30 17906 H 1745.96 -4.01386 1.09674 0
M  V30 17907 H 1744.84 -5.3946 1.01361 0
M  V30 17908 H 1745.1 -4.40178 -0.411757 0
M  V30 17909 N 1744.16 -0.784156 -1.36707 0
M  V30 17910 C 1745.09 -0.136944 -2.28791 0
M  V30 17911 C 1746.1 0.65075 -1.49228 0
M  V30 17912 O 1747.29 0.486799 -1.71734 0
M  V30 17913 C 1744.39 0.829306 -3.28597 0
M  V30 17914 C 1743.57 0.09279 -4.37302 0
M  V30 17915 C 1742.62 0.974213 -5.17103 0
M  V30 17916 O 1741.65 0.433399 -5.67548 0
M  V30 17917 N 1742.85 2.29909 -5.33031 0
M  V30 17918 H 1745.62 -0.927906 -2.84974 0
M  V30 17919 H 1743.18 -0.637596 -1.48816 0
M  V30 17920 H 1745.17 1.42268 -3.78869 0
M  V30 17921 H 1743.74 1.52117 -2.73092 0
M  V30 17922 H 1742.96 -0.681615 -3.88262 0
M  V30 17923 H 1744.25 -0.415655 -5.07099 0
M  V30 17924 H 1743.65 2.76268 -4.93652 0
M  V30 17925 H 1742.2 2.84224 -5.86566 0
M  V30 17926 N 1745.64 1.48215 -0.535727 0
M  V30 17927 C 1747.05 1.58417 -0.193977 0
M  V30 17928 C 1747.25 1.53705 1.30296 0
M  V30 17929 O 1746.31 1.42913 2.08164 0
M  V30 17930 C 1747.62 2.89819 -0.8016 0
M  V30 17931 C 1749.17 3.03359 -0.770858 0
M  V30 17932 C 1749.64 4.3743 -1.35716 0
M  V30 17933 N 1751.14 4.44012 -1.31938 0
M  V30 17934 C 1751.87 5.4627 -1.74287 0
M  V30 17935 N 1751.37 6.55454 -2.24393 0
M  V30 17936 N 1753.16 5.37187 -1.65489 0
M  V30 17937 H 1745.31 1.49521 -1.50855 0
M  V30 17938 H 1747.57 0.710306 -0.627829 0
M  V30 17939 H 1747.28 2.98939 -1.85278 0
M  V30 17940 H 1747.15 3.76144 -0.282036 0
M  V30 17941 H 1749.54 2.93848 0.271577 0
M  V30 17942 H 1749.62 2.1863 -1.32795 0
M  V30 17943 H 1749.27 4.47696 -2.39855 0
M  V30 17944 H 1749.2 5.20856 -0.775696 0
M  V30 17945 H 1751.69 3.65695 -0.952653 0
M  V30 17946 H 1752 7.29626 -2.54686 0
M  V30 17947 H 1750.34 6.56402 -2.2839 0
M  V30 17948 H 1753.54 4.50785 -1.26138 0
M  V30 17949 H 1753.71 6.16747 -1.98814 0
M  V30 17950 O 1747.15 0.413058 1.56128 0
M  V30 17951 H 1747.84 -0.126518 1.93286 0
M  V30 END ATOM
M  V30 BEGIN BOND
M  V30 END BOND
M  V30 END CTAB
M  END
$$$$
